# Generated by pormake.
# Topology llj, (12,3)-cn, num edge types: 1
# Building blocks:
#     Node 0, Type 0, BuildingBlock: QEWDON_clean_sbu_0, # of connection points: 12
#     Node 1, Type 0, BuildingBlock: QEWDON_clean_sbu_0, # of connection points: 12
#     Node 2, Type 1, BuildingBlock: VETTIZ_charged_linker_0, # of connection points: 3
#     Node 3, Type 1, BuildingBlock: VETTIZ_charged_linker_0, # of connection points: 3
#     Node 4, Type 1, BuildingBlock: VETTIZ_charged_linker_0, # of connection points: 3
#     Node 5, Type 1, BuildingBlock: VETTIZ_charged_linker_0, # of connection points: 3
#     Node 6, Type 1, BuildingBlock: VETTIZ_charged_linker_0, # of connection points: 3
#     Node 7, Type 1, BuildingBlock: VETTIZ_charged_linker_0, # of connection points: 3
#     Node 8, Type 1, BuildingBlock: VETTIZ_charged_linker_0, # of connection points: 3
#     Node 9, Type 1, BuildingBlock: VETTIZ_charged_linker_0, # of connection points: 3
#     Edge 10, Type (0, 1), BuildingBlock: UVAHIK_clean_linker_0, # of connection points: 2
#     Edge 11, Type (0, 1), BuildingBlock: UVAHIK_clean_linker_0, # of connection points: 2
#     Edge 12, Type (0, 1), BuildingBlock: UVAHIK_clean_linker_0, # of connection points: 2
#     Edge 13, Type (0, 1), BuildingBlock: UVAHIK_clean_linker_0, # of connection points: 2
#     Edge 14, Type (0, 1), BuildingBlock: UVAHIK_clean_linker_0, # of connection points: 2
#     Edge 15, Type (0, 1), BuildingBlock: UVAHIK_clean_linker_0, # of connection points: 2
#     Edge 16, Type (0, 1), BuildingBlock: UVAHIK_clean_linker_0, # of connection points: 2
#     Edge 17, Type (0, 1), BuildingBlock: UVAHIK_clean_linker_0, # of connection points: 2
#     Edge 18, Type (0, 1), BuildingBlock: UVAHIK_clean_linker_0, # of connection points: 2
#     Edge 19, Type (0, 1), BuildingBlock: UVAHIK_clean_linker_0, # of connection points: 2
#     Edge 20, Type (0, 1), BuildingBlock: UVAHIK_clean_linker_0, # of connection points: 2
#     Edge 21, Type (0, 1), BuildingBlock: UVAHIK_clean_linker_0, # of connection points: 2
#     Edge 22, Type (0, 1), BuildingBlock: UVAHIK_clean_linker_0, # of connection points: 2
#     Edge 23, Type (0, 1), BuildingBlock: UVAHIK_clean_linker_0, # of connection points: 2
#     Edge 24, Type (0, 1), BuildingBlock: UVAHIK_clean_linker_0, # of connection points: 2
#     Edge 25, Type (0, 1), BuildingBlock: UVAHIK_clean_linker_0, # of connection points: 2
#     Edge 26, Type (0, 1), BuildingBlock: UVAHIK_clean_linker_0, # of connection points: 2
#     Edge 27, Type (0, 1), BuildingBlock: UVAHIK_clean_linker_0, # of connection points: 2
#     Edge 28, Type (0, 1), BuildingBlock: UVAHIK_clean_linker_0, # of connection points: 2
#     Edge 29, Type (0, 1), BuildingBlock: UVAHIK_clean_linker_0, # of connection points: 2
#     Edge 30, Type (0, 1), BuildingBlock: UVAHIK_clean_linker_0, # of connection points: 2
#     Edge 31, Type (0, 1), BuildingBlock: UVAHIK_clean_linker_0, # of connection points: 2
#     Edge 32, Type (0, 1), BuildingBlock: UVAHIK_clean_linker_0, # of connection points: 2
#     Edge 33, Type (0, 1), BuildingBlock: UVAHIK_clean_linker_0, # of connection points: 2
# Relax obj value: 0.012
# Max RMSD: 0.055
# Mean RMSD: 0.051
data_MOF--net-llj--node1-QEWDON_clean_sbu_0--node2-VETTIZ_charged_linker_0--edge1-UVAHIK_clean_linker_0
_symmetry_space_group_name_H-M    P1
_symmetry_Int_Tables_number       1
_symmetry_cell_setting            triclinic
loop_
_symmetry_equiv_pos_as_xyz
'x, y, z'
_cell_length_a     54.550449
_cell_length_b     54.523286
_cell_length_c     38.346609
_cell_angle_alpha  90.018158
_cell_angle_beta   90.033335
_cell_angle_gamma 90.102593
loop_
_atom_site_label
_atom_site_type_symbol
_atom_site_fract_x
_atom_site_fract_y
_atom_site_fract_z
_atom_type_partial_charge
Zn0 Zn 0.9404 0.05191 0.98332 0.0
Zn1 Zn 0.9473 0.04821 0.06606 0.0
O2 O 0.96589 0.04725 0.0211 0.0
H3 H 0.98028 0.03728 0.01721 0.0
C4 C 0.9528 0.97611 0.92724 0.0
O5 O 0.96613 0.99112 0.94625 0.0
Zn6 Zn 0.04028 0.96196 0.06159 0.0
Zn7 Zn 0.04384 0.95557 0.97858 0.0
O8 O 0.02036 0.96291 0.01794 0.0
H9 H 0.00449 0.97048 0.01517 0.0
Zn10 Zn 0.95169 0.94886 0.99262 0.0
O11 O 0.94641 0.97768 0.02511 0.0
Zn12 Zn 0.9511 0.96027 0.0704 0.0
H13 H 0.95144 0.9942 0.01932 0.0
Zn14 Zn 0.03782 0.05121 0.97693 0.0
O15 O 0.03286 0.02824 0.01801 0.0
H16 H 0.0236 0.01314 0.01654 0.0
Zn17 Zn 0.03422 0.05007 0.05941 0.0
C18 C 0.06008 0.01352 0.93428 0.0
O19 O 0.05859 0.00167 0.964 0.0
O20 O 0.90852 0.06673 0.00218 0.0
O21 O 0.91469 0.06567 0.05953 0.0
O22 O 0.07585 0.9398 0.9955 0.0
O23 O 0.07313 0.9451 0.0529 0.0
O24 O 0.93641 0.91723 0.0122 0.0
O25 O 0.93512 0.92645 0.06861 0.0
C26 C 0.99034 0.06591 0.0993 0.0
O27 O 0.05377 0.0841 0.99059 0.0
O28 O 0.05321 0.08107 0.04839 0.0
O29 O 0.02882 0.94181 0.93314 0.0
C30 C 0.90155 0.07137 0.0332 0.0
O31 O 0.95264 0.06552 0.93598 0.0
C32 C 0.99832 0.94343 0.09769 0.0
O33 O 0.945 0.95633 0.94076 0.0
C34 C 0.08455 0.93716 0.02611 0.0
O35 O 0.0519 0.03527 0.93242 0.0
C36 C 0.93437 0.00289 0.10612 0.0
O37 O 0.96728 0.06529 0.10365 0.0
O38 O -0.00077 0.05632 0.07202 0.0
C39 C 0.93061 0.91178 0.04344 0.0
O40 O 0.02152 0.94207 0.09711 0.0
O41 O 0.98752 0.95789 0.07691 0.0
C42 C 0.05326 0.01007 0.1008 0.0
O43 O 0.93558 0.97977 0.10923 0.0
O44 O 0.94318 0.01283 0.079 0.0
C45 C 0.0592 0.09248 0.02064 0.0
O46 O 0.05113 0.03325 0.09931 0.0
O47 O 0.04399 0.99741 0.07622 0.0
C48 C 0.00782 0.93179 0.93478 0.0
O49 O 0.9964 0.93101 0.96491 0.0
C50 C 0.97551 0.06657 0.92992 0.0
O51 O 0.99087 0.05822 0.95344 0.0
Zn52 Zn 0.44164 0.54593 0.48605 0.0
Zn53 Zn 0.44937 0.55143 0.5674 0.0
O54 O 0.46807 0.55128 0.52263 0.0
H55 H 0.48388 0.55867 0.51818 0.0
C56 C 0.43041 0.48903 0.44185 0.0
O57 O 0.42522 0.49996 0.47146 0.0
Zn58 Zn 0.54605 0.45375 0.55922 0.0
Zn59 Zn 0.55312 0.44864 0.47725 0.0
O60 O 0.52735 0.45287 0.51465 0.0
H61 H 0.51054 0.45786 0.51123 0.0
Zn62 Zn 0.45515 0.45721 0.49019 0.0
O63 O 0.45829 0.48285 0.52821 0.0
Zn64 Zn 0.45928 0.46254 0.57138 0.0
H65 H 0.46631 0.4985 0.52496 0.0
Zn66 Zn 0.53203 0.54402 0.48624 0.0
O67 O 0.52566 0.52128 0.52706 0.0
H68 H 0.51498 0.50713 0.52621 0.0
Zn69 Zn 0.53235 0.54197 0.56897 0.0
C70 C 0.55781 0.50869 0.44405 0.0
O71 O 0.56166 0.49932 0.47513 0.0
O72 O 0.40788 0.55851 0.50218 0.0
O73 O 0.41516 0.56472 0.55858 0.0
O74 O 0.58498 0.43338 0.49609 0.0
O75 O 0.57971 0.43823 0.5532 0.0
O76 O 0.43841 0.42566 0.50725 0.0
O77 O 0.44047 0.43044 0.56472 0.0
C78 C 0.49024 0.57045 0.60331 0.0
O79 O 0.55253 0.57418 0.49977 0.0
O80 O 0.55525 0.57024 0.55731 0.0
O81 O 0.54074 0.43696 0.4291 0.0
C82 C 0.40101 0.56595 0.53213 0.0
O83 O 0.45155 0.5552 0.43566 0.0
C84 C 0.5043 0.43828 0.59683 0.0
O85 O 0.44358 0.46986 0.44226 0.0
C86 C 0.59248 0.43084 0.52737 0.0
O87 O 0.54464 0.52775 0.44129 0.0
C88 C 0.43948 0.50418 0.60959 0.0
O89 O 0.46719 0.57323 0.60212 0.0
O90 O 0.49947 0.55462 0.5829 0.0
C91 C 0.43368 0.4182 0.53799 0.0
O92 O 0.52708 0.43401 0.59417 0.0
O93 O 0.49505 0.45567 0.57926 0.0
C94 C 0.55077 0.49865 0.60323 0.0
O95 O 0.44288 0.48113 0.61058 0.0
O96 O 0.44863 0.51614 0.58418 0.0
C97 C 0.56087 0.58128 0.52911 0.0
O98 O 0.54647 0.52131 0.60766 0.0
O99 O 0.54675 0.48915 0.57357 0.0
C100 C 0.52018 0.44452 0.41789 0.0
O101 O 0.5077 0.46033 0.43666 0.0
C102 C 0.4704 0.54602 0.42134 0.0
O103 O 0.48345 0.52982 0.4386 0.0
C104 C 0.39498 0.29172 0.89107 0.0
C105 C 0.41445 0.30824 0.88637 0.0
C106 C 0.42789 0.31634 0.91556 0.0
C107 C 0.40118 0.29318 0.95375 0.0
C108 C 0.38849 0.28467 0.92495 0.0
C109 C 0.36661 0.2694 0.93493 0.0
H110 H 0.28716 0.23337 0.05945 0.0
C111 C 0.38837 0.28439 0.98526 0.0
C112 C 0.36807 0.2705 0.97446 0.0
H113 H 0.28438 0.21848 0.94864 0.0
H114 H 0.32387 0.23748 0.94116 0.0
H115 H 0.34481 0.21743 0.06713 0.0
H116 H 0.30849 0.287 0.05543 0.0
H117 H 0.33122 0.29037 0.08758 0.0
H118 H 0.30655 0.26897 0.09452 0.0
H119 H 0.32877 0.23174 0.10251 0.0
H120 H 0.36056 0.23855 0.09352 0.0
C121 C 0.37056 0.24301 0.92101 0.0
C122 C 0.34338 0.28232 0.92062 0.0
C123 C 0.41777 0.31206 0.10451 0.0
C124 C 0.40822 0.30926 0.13828 0.0
C125 C 0.38697 0.29492 0.14314 0.0
C126 C 0.37521 0.28384 0.11467 0.0
C127 C 0.38461 0.28738 0.08092 0.0
C128 C 0.40569 0.3011 0.07634 0.0
C129 C 0.41257 0.30371 0.03859 0.0
C130 C 0.39239 0.2889 0.02126 0.0
C131 C 0.37601 0.27949 0.04613 0.0
C132 C 0.43804 0.29179 0.03325 0.0
C133 C 0.41136 0.33133 0.02882 0.0
C134 C 0.29514 0.23394 0.03362 0.0
C135 C 0.28227 0.22491 0.00448 0.0
C136 C 0.2935 0.22598 0.97138 0.0
C137 C 0.31651 0.23691 0.96708 0.0
C138 C 0.3285 0.24702 0.99612 0.0
C139 C 0.3182 0.24475 0.02885 0.0
C140 C 0.33412 0.25581 0.05682 0.0
C141 C 0.35523 0.26577 0.03523 0.0
C142 C 0.35162 0.26086 -0.00034 0.0
C143 C 0.34246 0.23497 0.08158 0.0
C144 C 0.31945 0.27655 0.07486 0.0
H145 H 0.43221 0.31578 0.97041 0.0
H146 H 0.38422 0.28548 0.86902 0.0
H147 H 0.34488 0.30256 0.9238 0.0
H148 H 0.32645 0.27723 0.93449 0.0
H149 H 0.34086 0.27844 0.89241 0.0
H150 H 0.39038 0.23825 0.92027 0.0
H151 H 0.36324 0.24096 0.89412 0.0
H152 H 0.3622 0.22891 0.93801 0.0
H153 H 0.43382 0.32333 0.09988 0.0
H154 H 0.3794 0.29237 0.169 0.0
H155 H 0.359 0.27332 0.11999 0.0
H156 H 0.43944 0.27439 0.04828 0.0
H157 H 0.45291 0.30417 0.04236 0.0
H158 H 0.44159 0.28664 0.00587 0.0
H159 H 0.39834 0.34146 0.04587 0.0
H160 H 0.40435 0.33446 0.00214 0.0
H161 H 0.42958 0.34027 0.03153 0.0
H162 H 0.4431 0.32894 0.91232 0.0
C163 C 0.42149 0.30872 0.9492 0.0
C164 C 0.68639 0.39256 0.91379 0.0
C165 C 0.6743 0.41503 0.90873 0.0
C166 C 0.67283 0.43179 0.93666 0.0
C167 C 0.69437 0.40336 0.97414 0.0
C168 C 0.69639 0.38721 0.94653 0.0
C169 C 0.70965 0.3641 0.9565 0.0
H170 H 0.76476 0.29572 0.08101 0.0
C171 C 0.70616 0.39208 0.00478 0.0
C172 C 0.7155 0.36924 0.99453 0.0
H173 H 0.74901 0.27565 0.97437 0.0
H174 H 0.73217 0.31592 0.96355 0.0
H175 H 0.78342 0.35025 0.06758 0.0
H176 H 0.71209 0.32146 0.09301 0.0
H177 H 0.71782 0.34682 0.12007 0.0
H178 H 0.73768 0.32067 0.12247 0.0
H179 H 0.77562 0.34131 0.11121 0.0
H180 H 0.76944 0.37184 0.09513 0.0
C181 C 0.73319 0.36228 0.93412 0.0
C182 C 0.69166 0.34222 0.95212 0.0
C183 C 0.69604 0.4304 0.12431 0.0
C184 C 0.70411 0.42338 0.15774 0.0
C185 C 0.72179 0.40461 0.16054 0.0
C186 C 0.72951 0.39161 0.13105 0.0
C187 C 0.71947 0.39738 0.09837 0.0
C188 C 0.70408 0.41732 0.09509 0.0
C189 C 0.69648 0.42166 0.05789 0.0
C190 C 0.70838 0.39991 0.03992 0.0
C191 C 0.72144 0.38554 0.06391 0.0
C192 C 0.70762 0.44642 0.04571 0.0
C193 C 0.66813 0.42047 0.05587 0.0
C194 C 0.7579 0.30021 0.05528 0.0
C195 C 0.75815 0.28272 0.02844 0.0
C196 C 0.74877 0.28891 0.99541 0.0
C197 C 0.73907 0.31228 0.98922 0.0
C198 C 0.73837 0.32945 0.01656 0.0
C199 C 0.74768 0.32328 0.04891 0.0
C200 C 0.7439 0.34318 0.07547 0.0
C201 C 0.73103 0.36247 0.05359 0.0
C202 C 0.72792 0.35432 0.01913 0.0
C203 C 0.76932 0.35211 0.08836 0.0
C204 C 0.72713 0.33267 0.10451 0.0
H205 H 0.68079 0.43942 0.98962 0.0
H206 H 0.68805 0.37943 0.89272 0.0
H207 H 0.67231 0.34806 0.95588 0.0
H208 H 0.69446 0.32772 0.97185 0.0
H209 H 0.69308 0.33404 0.92567 0.0
H210 H 0.7421 0.38057 0.93158 0.0
H211 H 0.72892 0.35559 0.90743 0.0
H212 H 0.74727 0.3503 0.94577 0.0
H213 H 0.68267 0.44484 0.12093 0.0
H214 H 0.72912 0.39942 0.18572 0.0
H215 H 0.74239 0.37703 0.13499 0.0
H216 H 0.72396 0.45162 0.06147 0.0
H217 H 0.69414 0.46157 0.04803 0.0
H218 H 0.71444 0.4456 0.01853 0.0
H219 H 0.66109 0.40458 0.07109 0.0
H220 H 0.66115 0.4179 0.02914 0.0
H221 H 0.65976 0.43737 0.06675 0.0
H222 H 0.66341 0.44912 0.9335 0.0
C223 C 0.68283 0.4261 0.96927 0.0
C224 C 0.59423 0.68692 0.13094 0.0
C225 C 0.57202 0.674 0.12753 0.0
C226 C 0.56125 0.67173 0.09428 0.0
C227 C 0.59577 0.69295 0.06829 0.0
C228 C 0.60571 0.69627 0.1011 0.0
C229 C 0.62977 0.70982 0.09994 0.0
H230 H 0.72493 0.7531 0.00496 0.0
C231 C 0.61331 0.70285 0.04252 0.0
C232 C 0.63322 0.71286 0.06085 0.0
H233 H 0.71418 0.75822 0.11628 0.0
H234 H 0.67449 0.73868 0.11077 0.0
H235 H 0.70181 0.69874 0.99385 0.0
H236 H 0.67016 0.77093 0.98616 0.0
H237 H 0.65862 0.7533 0.95146 0.0
H238 H 0.69111 0.75925 0.95413 0.0
H239 H 0.70921 0.71952 0.95908 0.0
H240 H 0.68301 0.69939 0.95662 0.0
C241 C 0.64969 0.69317 0.11621 0.0
C242 C 0.6265 0.73483 0.11864 0.0
C243 C 0.59708 0.69001 0.91354 0.0
C244 C 0.61107 0.69426 0.88339 0.0
C245 C 0.63431 0.70539 0.88667 0.0
C246 C 0.64346 0.71211 0.91955 0.0
C247 C 0.62935 0.70744 0.94953 0.0
C248 C 0.60656 0.69657 0.94612 0.0
C249 C 0.59455 0.69184 0.98072 0.0
C250 C 0.61366 0.70207 0.00553 0.0
C251 C 0.63399 0.71122 0.98718 0.0
C252 C 0.59124 0.66371 0.98484 0.0
C253 C 0.57039 0.70671 0.98216 0.0
C254 C 0.71403 0.74974 0.02808 0.0
C255 C 0.72264 0.75676 0.06115 0.0
C256 C 0.70782 0.75278 0.09064 0.0
C257 C 0.68485 0.74146 0.08736 0.0
C258 C 0.67653 0.73426 0.05418 0.0
C259 C 0.69082 0.73889 0.02515 0.0
C260 C 0.67821 0.73149 0.99182 0.0
C261 C 0.65414 0.72143 0.00571 0.0
C262 C 0.6535 0.72268 0.04229 0.0
C263 C 0.69381 0.71134 0.97407 0.0
C264 C 0.67438 0.75481 0.96941 0.0
H265 H 0.56412 0.67832 0.04002 0.0
H266 H 0.60268 0.68936 0.15629 0.0
H267 H 0.60703 0.74089 0.1184 0.0
H268 H 0.6366 0.74983 0.10548 0.0
H269 H 0.63241 0.73381 0.14632 0.0
H270 H 0.64794 0.67409 0.1062 0.0
H271 H 0.64789 0.69253 0.14505 0.0
H272 H 0.66852 0.69899 0.1098 0.0
H273 H 0.5794 0.681 0.91197 0.0
H274 H 0.64538 0.7089 0.86376 0.0
H275 H 0.66129 0.72044 0.92038 0.0
H276 H 0.60619 0.65355 0.97142 0.0
H277 H 0.57359 0.65747 0.97341 0.0
H278 H 0.59231 0.65751 0.01219 0.0
H279 H 0.57263 0.72479 0.96908 0.0
H280 H 0.56465 0.71114 0.00905 0.0
H281 H 0.55527 0.6968 0.96876 0.0
H282 H 0.54417 0.66182 0.09099 0.0
C283 C 0.57298 0.68114 0.06468 0.0
C284 C 0.29359 0.59625 0.13383 0.0
C285 C 0.30916 0.57569 0.13272 0.0
C286 C 0.31482 0.56524 0.10003 0.0
C287 C 0.29129 0.59668 0.07067 0.0
C288 C 0.28518 0.60658 0.10264 0.0
C289 C 0.27061 0.62986 0.09913 0.0
H290 H 0.23088 0.72211 0.99607 0.0
C291 C 0.28136 0.61289 0.0433 0.0
C292 C 0.26931 0.63244 0.05974 0.0
H293 H 0.22288 0.71493 0.10766 0.0
H294 H 0.24073 0.67437 0.10544 0.0
H295 H 0.28481 0.69742 0.98861 0.0
H296 H 0.21176 0.66795 0.97982 0.0
H297 H 0.22989 0.65216 0.94942 0.0
H298 H 0.22567 0.68487 0.94491 0.0
H299 H 0.26385 0.70566 0.95444 0.0
H300 H 0.28315 0.6791 0.95082 0.0
C301 C 0.28557 0.65086 0.11626 0.0
C302 C 0.24497 0.62562 0.11541 0.0
C303 C 0.2993 0.59399 0.91648 0.0
C304 C 0.29428 0.60632 0.88511 0.0
C305 C 0.28055 0.62821 0.88619 0.0
C306 C 0.27238 0.63784 0.91806 0.0
C307 C 0.2781 0.62554 0.94924 0.0
C308 C 0.29105 0.60382 0.94799 0.0
C309 C 0.29581 0.59335 0.98356 0.0
C310 C 0.28328 0.61221 0.00644 0.0
C311 C 0.27315 0.63114 0.98629 0.0
C312 C 0.32398 0.59271 0.98951 0.0
C313 C 0.28302 0.56801 0.98577 0.0
C314 C 0.23322 0.71179 0.01998 0.0
C315 C 0.22602 0.72174 0.05217 0.0
C316 C 0.22853 0.7076 0.08266 0.0
C317 C 0.23897 0.68416 0.08131 0.0
C318 C 0.24692 0.67477 0.0491 0.0
C319 C 0.24333 0.68823 0.019 0.0
C320 C 0.25147 0.67465 0.9869 0.0
C321 C 0.26147 0.65124 0.00287 0.0
C322 C 0.2591 0.65161 0.03935 0.0
C323 C 0.27181 0.68993 0.96892 0.0
C324 C 0.22867 0.66971 0.96377 0.0
H325 H 0.31116 0.56689 0.04517 0.0
H326 H 0.28847 0.60457 0.1584 0.0
H327 H 0.23906 0.60618 0.1124 0.0
H328 H 0.23047 0.63641 0.10237 0.0
H329 H 0.24499 0.62992 0.14372 0.0
H330 H 0.30539 0.64909 0.10985 0.0
H331 H 0.28378 0.6504 0.14511 0.0
H332 H 0.28037 0.66925 0.10701 0.0
H333 H 0.31021 0.5774 0.91676 0.0
H334 H 0.27621 0.63795 0.86236 0.0
H335 H 0.26224 0.65467 0.91724 0.0
H336 H 0.33351 0.60706 0.97393 0.0
H337 H 0.33181 0.5747 0.98186 0.0
H338 H 0.3292 0.59678 0.01676 0.0
H339 H 0.26481 0.56853 0.97269 0.0
H340 H 0.27918 0.56222 0.01281 0.0
H341 H 0.29413 0.55364 0.97272 0.0
H342 H 0.32701 0.54966 0.09809 0.0
C343 C 0.30582 0.57549 0.06913 0.0
C344 C 0.88581 0.79958 0.39426 0.0
C345 C 0.90519 0.81626 0.38987 0.0
C346 C 0.91894 0.82373 0.41909 0.0
C347 C 0.89357 0.79859 0.4566 0.0
C348 C 0.8802 0.79118 0.42781 0.0
C349 C 0.85901 0.7749 0.43752 0.0
H350 H 0.79103 0.7205 0.5631 0.0
C351 C 0.88254 0.78714 0.48774 0.0
C352 C 0.86231 0.77322 0.47676 0.0
H353 H 0.77606 0.72485 0.45269 0.0
H354 H 0.8146 0.74574 0.44327 0.0
H355 H 0.84936 0.70874 0.55727 0.0
H356 H 0.80864 0.77573 0.56983 0.0
H357 H 0.83348 0.77654 0.59895 0.0
H358 H 0.81081 0.75279 0.60328 0.0
H359 H 0.83628 0.71741 0.59838 0.0
H360 H 0.86651 0.72752 0.58543 0.0
C361 C 0.86271 0.74972 0.41966 0.0
C362 C 0.83487 0.78816 0.42729 0.0
C363 C 0.91597 0.80709 0.60799 0.0
C364 C 0.90931 0.79952 0.64178 0.0
C365 C 0.89121 0.78119 0.64555 0.0
C366 C 0.87915 0.77147 0.61639 0.0
C367 C 0.88516 0.78018 0.58301 0.0
C368 C 0.90382 0.79711 0.57915 0.0
C369 C 0.90827 0.80363 0.54159 0.0
C370 C 0.88867 0.78838 0.52366 0.0
C371 C 0.87498 0.77497 0.5481 0.0
C372 C 0.93445 0.79509 0.53175 0.0
C373 C 0.90375 0.83152 0.53709 0.0
C374 C 0.79634 0.7257 0.5369 0.0
C375 C 0.78072 0.72115 0.50855 0.0
C376 C 0.78788 0.72841 0.47484 0.0
C377 C 0.81019 0.74055 0.46949 0.0
C378 C 0.82525 0.7459 0.49826 0.0
C379 C 0.81833 0.73834 0.53125 0.0
C380 C 0.83591 0.74692 0.55892 0.0
C381 C 0.85433 0.76111 0.53713 0.0
C382 C 0.84804 0.7603 0.50164 0.0
C383 C 0.84759 0.72408 0.57624 0.0
C384 C 0.82164 0.76378 0.58436 0.0
H385 H 0.92441 0.82134 0.47364 0.0
H386 H 0.87472 0.7939 0.37224 0.0
H387 H 0.8374 0.80839 0.42585 0.0
H388 H 0.82018 0.78562 0.44684 0.0
H389 H 0.82811 0.78194 0.40142 0.0
H390 H 0.88215 0.74376 0.42185 0.0
H391 H 0.85805 0.7507 0.39148 0.0
H392 H 0.8518 0.73493 0.43178 0.0
H393 H 0.92971 0.82116 0.60399 0.0
H394 H 0.88615 0.77451 0.67116 0.0
H395 H 0.86529 0.75789 0.62103 0.0
H396 H 0.93947 0.77805 0.54603 0.0
H397 H 0.94831 0.8093 0.53837 0.0
H398 H 0.93622 0.7902 0.5039 0.0
H399 H 0.88827 0.83771 0.55377 0.0
H400 H 0.89836 0.83663 0.51033 0.0
H401 H 0.92022 0.8423 0.54464 0.0
H402 H 0.93402 0.83652 0.4161 0.0
C403 C 0.91335 0.81486 0.4524 0.0
C404 C 0.19811 0.89879 0.40236 0.0
C405 C 0.18474 0.92075 0.39953 0.0
C406 C 0.1805 0.93479 0.42983 0.0
C407 C 0.20143 0.9045 0.46497 0.0
C408 C 0.20621 0.89103 0.43523 0.0
C409 C 0.21959 0.86758 0.44316 0.0
H410 H 0.2595 0.78667 0.56382 0.0
C411 C 0.21104 0.89077 0.49514 0.0
C412 C 0.22187 0.86918 0.48258 0.0
H413 H 0.26295 0.78017 0.45144 0.0
H414 H 0.24637 0.82089 0.44535 0.0
H415 H 0.28093 0.84061 0.56645 0.0
H416 H 0.20703 0.81299 0.56814 0.0
H417 H 0.20997 0.83525 0.60113 0.0
H418 H 0.22875 0.80826 0.6027 0.0
H419 H 0.26732 0.8291 0.60575 0.0
H420 H 0.26422 0.86084 0.59292 0.0
C421 C 0.24494 0.86852 0.42502 0.0
C422 C 0.20307 0.8459 0.43153 0.0
C423 C 0.19334 0.92099 0.61769 0.0
C424 C 0.19865 0.91151 0.65097 0.0
C425 C 0.21362 0.89053 0.65363 0.0
C426 C 0.22215 0.87855 0.62368 0.0
C427 C 0.21561 0.88758 0.59066 0.0
C428 C 0.20208 0.90887 0.58809 0.0
C429 C 0.19734 0.91608 0.55087 0.0
C430 C 0.20985 0.8953 0.53154 0.0
C431 C 0.22017 0.87849 0.55499 0.0
C432 C 0.21004 0.94109 0.54409 0.0
C433 C 0.16921 0.91608 0.54494 0.0
C434 C 0.25698 0.79405 0.53785 0.0
C435 C 0.26225 0.77993 0.50809 0.0
C436 C 0.25849 0.79035 0.47484 0.0
C437 C 0.24898 0.81408 0.47133 0.0
C438 C 0.24307 0.82759 0.50136 0.0
C439 C 0.24761 0.81772 0.53389 0.0
C440 C 0.24079 0.83491 0.56293 0.0
C441 C 0.23087 0.85651 0.54244 0.0
C442 C 0.23199 0.85202 0.50641 0.0
C443 C 0.2644 0.84169 0.58337 0.0
C444 C 0.22068 0.82232 0.58518 0.0
H445 H 0.18469 0.93821 0.48445 0.0
H446 H 0.20197 0.8877 0.37958 0.0
H447 H 0.18352 0.84968 0.43777 0.0
H448 H 0.20726 0.82857 0.44504 0.0
H449 H 0.20442 0.84286 0.40295 0.0
H450 H 0.25219 0.8876 0.42426 0.0
H451 H 0.24375 0.86182 0.39771 0.0
H452 H 0.25908 0.85792 0.43911 0.0
H453 H 0.18178 0.93696 0.61454 0.0
H454 H 0.21851 0.88315 0.6789 0.0
H455 H 0.23306 0.86243 0.62743 0.0
H456 H 0.22684 0.94315 0.56031 0.0
H457 H 0.19768 0.95662 0.55047 0.0
H458 H 0.21656 0.94305 0.51693 0.0
H459 H 0.16037 0.90071 0.55933 0.0
H460 H 0.16395 0.91322 0.51746 0.0
H461 H 0.16086 0.93344 0.55432 0.0
H462 H 0.16998 0.95159 0.42861 0.0
C463 C 0.18887 0.92687 0.4624 0.0
C464 C 0.09543 0.19677 0.62579 0.0
C465 C 0.07353 0.18316 0.62333 0.0
C466 C 0.06364 0.17821 0.5901 0.0
C467 C 0.09862 0.19752 0.56267 0.0
C468 C 0.10764 0.20373 0.59516 0.0
C469 C 0.13176 0.21716 0.59279 0.0
H470 H 0.22882 0.25285 0.49503 0.0
C471 C 0.11682 0.20506 0.5363 0.0
C472 C 0.13622 0.21675 0.55363 0.0
H473 H 0.21573 0.26684 0.60437 0.0
H474 H 0.17636 0.24666 0.60046 0.0
H475 H 0.20658 0.19734 0.49323 0.0
H476 H 0.17394 0.26756 0.47034 0.0
H477 H 0.16436 0.24651 0.43832 0.0
H478 H 0.19649 0.2538 0.44243 0.0
H479 H 0.21479 0.21489 0.45536 0.0
H480 H 0.18885 0.19437 0.45516 0.0
C481 C 0.15126 0.20215 0.61289 0.0
C482 C 0.12804 0.2436 0.60672 0.0
C483 C 0.10453 0.17813 0.41122 0.0
C484 C 0.11932 0.17894 0.38127 0.0
C485 C 0.14198 0.19141 0.3829 0.0
C486 C 0.15005 0.20215 0.41423 0.0
C487 C 0.13532 0.20037 0.44426 0.0
C488 C 0.11289 0.18869 0.44219 0.0
C489 C 0.0999 0.18762 0.47662 0.0
C490 C 0.11818 0.20066 0.49991 0.0
C491 C 0.1389 0.20817 0.48095 0.0
C492 C 0.09665 0.16019 0.48662 0.0
C493 C 0.07564 0.20222 0.47333 0.0
C494 C 0.21751 0.25131 0.51814 0.0
C495 C 0.22539 0.26117 0.55014 0.0
C496 C 0.20998 0.25937 0.57949 0.0
C497 C 0.18717 0.24763 0.57717 0.0
C498 C 0.1796 0.23766 0.54512 0.0
C499 C 0.19449 0.23993 0.51613 0.0
C500 C 0.1828 0.22931 0.48389 0.0
C501 C 0.15849 0.22028 0.49837 0.0
C502 C 0.15694 0.22488 0.53438 0.0
C503 C 0.19905 0.20793 0.47087 0.0
C504 C 0.17928 0.25022 0.45706 0.0
H505 H 0.06774 0.18053 0.5354 0.0
H506 H 0.10345 0.20096 0.65094 0.0
H507 H 0.10864 0.2496 0.60406 0.0
H508 H 0.13868 0.25734 0.59177 0.0
H509 H 0.13299 0.24497 0.63476 0.0
H510 H 0.14962 0.18231 0.60647 0.0
H511 H 0.14886 0.20419 0.64151 0.0
H512 H 0.17023 0.2073 0.60622 0.0
H513 H 0.08681 0.16913 0.41081 0.0
H514 H 0.15377 0.19228 0.36022 0.0
H515 H 0.16761 0.21106 0.41401 0.0
H516 H 0.11187 0.14882 0.47608 0.0
H517 H 0.07923 0.15266 0.47606 0.0
H518 H 0.09728 0.15694 0.51501 0.0
H519 H 0.07798 0.21834 0.45584 0.0
H520 H 0.06946 0.21004 0.49842 0.0
H521 H 0.06078 0.19063 0.46228 0.0
H522 H 0.04649 0.16832 0.58749 0.0
C523 C 0.076 0.18536 0.55984 0.0
C524 C 0.8073 0.09262 0.63788 0.0
C525 C 0.81998 0.0703 0.63449 0.0
C526 C 0.82172 0.05927 0.60135 0.0
C527 C 0.8009 0.09392 0.57531 0.0
C528 C 0.79794 0.10408 0.60804 0.0
C529 C 0.78518 0.12853 0.60666 0.0
H530 H 0.74715 0.22505 0.51017 0.0
C531 C 0.79161 0.11162 0.54941 0.0
C532 C 0.78226 0.13191 0.56754 0.0
H533 H 0.74081 0.21542 0.62159 0.0
H534 H 0.75788 0.17455 0.61683 0.0
H535 H 0.79988 0.1998 0.50054 0.0
H536 H 0.7264 0.17152 0.49163 0.0
H537 H 0.74363 0.15845 0.45773 0.0
H538 H 0.73962 0.19128 0.45927 0.0
H539 H 0.77998 0.20761 0.46496 0.0
H540 H 0.79903 0.18065 0.46374 0.0
C541 C 0.80246 0.14803 0.62282 0.0
C542 C 0.76009 0.12607 0.62531 0.0
C543 C 0.80638 0.09567 0.42088 0.0
C544 C 0.8034 0.11011 0.39085 0.0
C545 C 0.79237 0.13337 0.39385 0.0
C546 C 0.7848 0.14225 0.42644 0.0
C547 C 0.78858 0.12786 0.4564 0.0
C548 C 0.79902 0.1049 0.45321 0.0
C549 C 0.80286 0.09264 0.48785 0.0
C550 C 0.79274 0.1119 0.51244 0.0
C551 C 0.78441 0.13247 0.49392 0.0
C552 C 0.83083 0.08862 0.4929 0.0
C553 C 0.78731 0.06885 0.48857 0.0
C554 C 0.74973 0.21417 0.53353 0.0
C555 C 0.74314 0.22344 0.56636 0.0
C556 C 0.74598 0.20859 0.59611 0.0
C557 C 0.75589 0.18495 0.59326 0.0
C558 C 0.76283 0.17607 0.56029 0.0
C559 C 0.75919 0.19042 0.53105 0.0
C560 C 0.7662 0.17742 0.49796 0.0
C561 C 0.7749 0.15298 0.51219 0.0
C562 C 0.77334 0.15248 0.54875 0.0
C563 C 0.78725 0.19207 0.48054 0.0
C564 C 0.7429 0.17457 0.47514 0.0
H565 H 0.81469 0.06189 0.54721 0.0
H566 H 0.80524 0.10128 0.66314 0.0
H567 H 0.75314 0.10688 0.62439 0.0
H568 H 0.74559 0.13706 0.61258 0.0
H569 H 0.76146 0.13144 0.65319 0.0
H570 H 0.82147 0.14567 0.6129 0.0
H571 H 0.803 0.14633 0.65168 0.0
H572 H 0.79729 0.167 0.61626 0.0
H573 H 0.81528 0.07795 0.41952 0.0
H574 H 0.78981 0.14475 0.37099 0.0
H575 H 0.77673 0.16018 0.42711 0.0
H576 H 0.84167 0.10303 0.47926 0.0
H577 H 0.83665 0.07059 0.48232 0.0
H578 H 0.8367 0.09004 0.52037 0.0
H579 H 0.76945 0.07164 0.4751 0.0
H580 H 0.78242 0.06302 0.51527 0.0
H581 H 0.79693 0.05358 0.47517 0.0
H582 H 0.83145 0.04213 0.598 0.0
C583 C 0.81218 0.07091 0.5718 0.0
C584 C 0.07992 0.12874 0.99372 0.0
C585 C 0.07572 0.11391 0.02305 0.0
C586 C 0.09906 0.14575 0.99365 0.0
C587 C 0.14753 0.1748 0.04918 0.0
H588 H 0.18455 0.17236 0.96292 0.0
C589 C 0.25023 0.20094 0.03725 0.0
C590 C 0.25696 0.21517 0.00819 0.0
C591 C 0.22639 0.19175 0.04034 0.0
C592 C 0.17427 0.17349 0.98704 0.0
H593 H 0.08705 0.10663 0.07631 0.0
H594 H 0.12091 0.1356 0.07578 0.0
H595 H 0.14503 0.15199 0.96633 0.0
H596 H 0.24357 0.23168 0.96031 0.0
H597 H 0.20225 0.21509 0.96534 0.0
H598 H 0.17764 0.19547 0.07012 0.0
C599 C 0.10927 0.13448 0.05296 0.0
C600 C 0.1515 0.16195 0.98898 0.0
C601 C 0.08986 0.11774 0.05323 0.0
C602 C 0.23921 0.22028 0.9826 0.0
C603 C 0.21549 0.21094 0.98555 0.0
C604 C 0.17051 0.18614 0.04732 0.0
C605 C 0.11469 0.148 0.02269 0.0
C606 C 0.13787 0.16229 0.02013 0.0
C607 C 0.20889 0.19647 0.01432 0.0
C608 C 0.18413 0.18543 0.01627 0.0
H609 H 0.06907 0.12649 0.97026 0.0
H610 H 0.10222 0.15642 0.97026 0.0
H611 H 0.13743 0.17569 0.07345 0.0
H612 H 0.2635 0.19645 0.05726 0.0
H613 H 0.22183 0.18039 0.06259 0.0
C614 C 0.87068 0.09196 0.07192 0.0
C615 C 0.87893 0.08585 0.03829 0.0
C616 C 0.85149 0.10865 0.07633 0.0
C617 C 0.80453 0.1449 0.02685 0.0
H618 H 0.81855 0.19401 0.09716 0.0
C619 C 0.75342 0.23718 0.02776 0.0
C620 C 0.76776 0.25791 0.03513 0.0
C621 C 0.76258 0.21368 0.03401 0.0
C622 C 0.81443 0.18055 0.07723 0.0
H623 H 0.87244 0.0913 0.98296 0.0
H624 H 0.83998 0.12081 0.99056 0.0
H625 H 0.84176 0.15615 0.09657 0.0
H626 H 0.8027 0.27068 0.0548 0.0
H627 H 0.81931 0.22979 0.06409 0.0
H628 H 0.77877 0.17018 0.00559 0.0
C629 C 0.84775 0.11247 0.01366 0.0
C630 C 0.82745 0.15854 0.0773 0.0
C631 C 0.86665 0.09563 0.00927 0.0
C632 C 0.7913 0.25488 0.0491 0.0
C633 C 0.80066 0.23142 0.05474 0.0
C634 C 0.79185 0.1671 0.02637 0.0
C635 C 0.84037 0.11976 0.04723 0.0
C636 C 0.82326 0.14078 0.05135 0.0
C637 C 0.78646 0.21048 0.04715 0.0
C638 C 0.79722 0.18555 0.05086 0.0
H639 H 0.87963 0.0846 0.09483 0.0
H640 H 0.84595 0.11345 0.10258 0.0
H641 H 0.80035 0.13139 0.007 0.0
H642 H 0.73504 0.23917 0.01742 0.0
H643 H 0.75093 0.19807 0.02845 0.0
C644 C 0.91002 0.88171 0.08376 0.0
C645 C 0.91573 0.88946 0.04974 0.0
C646 C 0.89298 0.86284 0.08923 0.0
C647 C 0.85585 0.81512 0.04186 0.0
H648 H 0.80991 0.82623 0.11716 0.0
C649 C 0.7681 0.75665 0.05345 0.0
C650 C 0.74685 0.76863 0.06483 0.0
C651 C 0.79097 0.76812 0.05629 0.0
C652 C 0.82239 0.82295 0.09574 0.0
H653 H 0.90887 0.88262 0.99482 0.0
H654 H 0.87885 0.85077 0.00421 0.0
H655 H 0.8463 0.85163 0.11273 0.0
H656 H 0.73249 0.80179 0.08796 0.0
H657 H 0.77203 0.82251 0.09116 0.0
H658 H 0.83104 0.78791 0.0231 0.0
C659 C 0.88778 0.8586 0.02684 0.0
C660 C 0.84364 0.83727 0.0936 0.0
C661 C 0.90499 0.87712 0.0214 0.0
C662 C 0.74874 0.79218 0.07925 0.0
C663 C 0.7715 0.8039 0.08135 0.0
C664 C 0.83438 0.80118 0.04356 0.0
C665 C 0.88109 0.85152 0.06082 0.0
C666 C 0.86039 0.83396 0.06611 0.0
C667 C 0.79298 0.79209 0.06977 0.0
C668 C 0.81704 0.80524 0.07009 0.0
H669 H 0.91816 0.89068 0.10617 0.0
H670 H 0.88874 0.85755 0.11576 0.0
H671 H 0.86856 0.81153 0.0208 0.0
H672 H 0.76702 0.73834 0.04256 0.0
H673 H 0.80702 0.75812 0.04781 0.0
C674 C 0.11609 0.90846 0.00256 0.0
C675 C 0.1067 0.92186 0.03085 0.0
C676 C 0.13407 0.8907 0.00774 0.0
C677 C 0.15709 0.85005 0.07729 0.0
H678 H 0.20054 0.82913 0.00317 0.0
C679 C 0.19341 0.75135 0.06984 0.0
C680 C 0.21609 0.74688 0.05391 0.0
C681 C 0.18361 0.775 0.07023 0.0
C682 C 0.18892 0.83484 0.02455 0.0
H683 H 0.11035 0.92853 0.08641 0.0
H684 H 0.14246 0.89807 0.09527 0.0
H685 H 0.1795 0.86807 -0.00166 0.0
H686 H 0.24686 0.76347 0.0272 0.0
H687 H 0.23035 0.805 0.02908 0.0
H688 H 0.16706 0.81716 0.10396 0.0
C689 C 0.13527 0.90071 0.06921 0.0
C690 C 0.17651 0.85711 0.02149 0.0
C691 C 0.117 0.91833 0.06409 0.0
C692 C 0.22916 0.7665 0.03924 0.0
C693 C 0.21961 0.79024 0.04022 0.0
C694 C 0.16985 0.82798 0.08063 0.0
C695 C 0.14344 0.88609 0.04128 0.0
C696 C 0.15979 0.86463 0.04725 0.0
C697 C 0.19652 0.79478 0.05527 0.0
C698 C 0.18533 0.81968 0.0538 0.0
H699 H 0.10863 0.91068 0.97657 0.0
H700 H 0.13956 0.87969 0.9856 0.0
H701 H 0.14428 0.85505 0.09762 0.0
H702 H 0.18295 0.73642 0.08111 0.0
H703 H 0.16558 0.77756 0.08141 0.0
C704 C 0.58683 0.61174 0.56159 0.0
C705 C 0.57916 0.6013 0.52988 0.0
C706 C 0.60601 0.62879 0.56223 0.0
C707 C 0.64509 0.66762 0.50409 0.0
H708 H 0.69286 0.65978 0.57808 0.0
C709 C 0.73526 0.72233 0.50308 0.0
C710 C 0.7564 0.71006 0.5143 0.0
C711 C 0.71215 0.71204 0.50855 0.0
C712 C 0.67982 0.66207 0.55704 0.0
H713 H 0.5851 0.60112 0.47391 0.0
H714 H 0.6188 0.62995 0.47511 0.0
H715 H 0.65469 0.63683 0.58029 0.0
H716 H 0.77031 0.67766 0.54006 0.0
H717 H 0.73006 0.65889 0.54808 0.0
H718 H 0.67086 0.69137 0.47947 0.0
C719 C 0.60975 0.62563 0.49947 0.0
C720 C 0.65767 0.64923 0.55864 0.0
C721 C 0.59045 0.60889 0.49879 0.0
C722 C 0.75415 0.68742 0.53128 0.0
C723 C 0.73107 0.67684 0.53614 0.0
C724 C 0.66738 0.68011 0.50218 0.0
C725 C 0.61807 0.63554 0.53121 0.0
C726 C 0.64023 0.65146 0.53181 0.0
C727 C 0.70974 0.68899 0.52473 0.0
C728 C 0.68524 0.67719 0.52832 0.0
H729 H 0.57834 0.6064 0.58598 0.0
H730 H 0.61163 0.63638 0.58708 0.0
H731 H 0.63191 0.67022 0.48331 0.0
H732 H 0.73662 0.74004 0.49042 0.0
H733 H 0.69619 0.72222 0.50012 0.0
C734 C 0.37363 0.59521 0.56354 0.0
C735 C 0.37769 0.57955 0.53502 0.0
C736 C 0.35466 0.61233 0.56266 0.0
C737 C 0.32036 0.64681 0.49642 0.0
H738 H 0.2912 0.67717 0.57785 0.0
C739 C 0.26337 0.73589 0.48875 0.0
C740 C 0.27127 0.75436 0.51182 0.0
C741 C 0.27176 0.71183 0.49243 0.0
C742 C 0.29916 0.66878 0.55489 0.0
H743 H 0.3633 0.56753 0.4851 0.0
H744 H 0.32961 0.59678 0.48416 0.0
H745 H 0.31213 0.63782 0.58371 0.0
H746 H 0.29437 0.76193 0.55672 0.0
H747 H 0.30855 0.71987 0.56345 0.0
H748 H 0.30761 0.67796 0.46778 0.0
C749 C 0.3417 0.59657 0.50656 0.0
C750 C 0.31118 0.64629 0.55821 0.0
C751 C 0.36091 0.57967 0.50721 0.0
C752 C 0.28754 0.74812 0.53885 0.0
C753 C 0.29568 0.72404 0.54276 0.0
C754 C 0.30807 0.6691 0.49306 0.0
C755 C 0.3391 0.61392 0.53346 0.0
C756 C 0.32259 0.63539 0.5292 0.0
C757 C 0.28796 0.7057 0.51949 0.0
C758 C 0.29798 0.68061 0.52242 0.0
H759 H 0.38615 0.59551 0.58548 0.0
H760 H 0.35338 0.62541 0.58382 0.0
H761 H 0.32925 0.6393 0.47357 0.0
H762 H 0.25049 0.73992 0.46805 0.0
H763 H 0.26547 0.69797 0.47424 0.0
C764 C 0.41285 0.38654 0.57556 0.0
C765 C 0.41787 0.39627 0.54236 0.0
C766 C 0.39549 0.36777 0.57957 0.0
C767 C 0.35713 0.32311 0.52874 0.0
H768 H 0.3125 0.33025 0.60661 0.0
C769 C 0.27078 0.26235 0.54033 0.0
C770 C 0.24944 0.27366 0.55288 0.0
C771 C 0.29344 0.27428 0.54269 0.0
C772 C 0.32466 0.32809 0.58452 0.0
H773 H 0.40927 0.39318 0.48724 0.0
H774 H 0.37881 0.36138 0.49425 0.0
H775 H 0.34876 0.35606 0.60336 0.0
H776 H 0.2349 0.30627 0.57745 0.0
H777 H 0.2741 0.3276 0.58025 0.0
H778 H 0.3322 0.29646 0.50854 0.0
C779 C 0.3885 0.36764 0.51724 0.0
C780 C 0.34577 0.34263 0.58299 0.0
C781 C 0.40595 0.38613 0.51322 0.0
C782 C 0.25115 0.29706 0.5679 0.0
C783 C 0.2737 0.30918 0.56972 0.0
C784 C 0.33584 0.30886 0.52998 0.0
C785 C 0.38266 0.35849 0.5505 0.0
C786 C 0.36202 0.34074 0.55465 0.0
C787 C 0.2952 0.29799 0.55708 0.0
C788 C 0.31903 0.3115 0.55753 0.0
H789 H 0.42187 0.39379 0.59855 0.0
H790 H 0.39182 0.36087 0.60553 0.0
H791 H 0.36945 0.32071 0.50688 0.0
H792 H 0.26996 0.24416 0.529 0.0
H793 H 0.30957 0.26483 0.53326 0.0
C794 C 0.62463 0.41427 0.56786 0.0
C795 C 0.61501 0.41648 0.53397 0.0
C796 C 0.64359 0.39772 0.57479 0.0
C797 C 0.68834 0.35546 0.53141 0.0
H798 H 0.67946 0.31721 0.61563 0.0
C799 C 0.74532 0.26844 0.55484 0.0
C800 C 0.73281 0.24836 0.56922 0.0
C801 C 0.73479 0.29177 0.55526 0.0
C802 C 0.68214 0.32758 0.59186 0.0
H803 H 0.61868 0.40396 0.4805 0.0
H804 H 0.65086 0.37475 0.49265 0.0
H805 H 0.65453 0.3534 0.60613 0.0
H806 H 0.6998 0.23669 0.59571 0.0
H807 H 0.68076 0.27708 0.59509 0.0
H808 H 0.71448 0.32862 0.51577 0.0
C809 C 0.64432 0.38606 0.5139 0.0
C810 C 0.6681 0.34868 0.58668 0.0
C811 C 0.62564 0.40277 0.50691 0.0
C812 C 0.70984 0.25201 0.58472 0.0
C813 C 0.69907 0.27523 0.58454 0.0
C814 C 0.70206 0.33415 0.5363 0.0
C815 C 0.65315 0.38284 0.54807 0.0
C816 C 0.67058 0.36257 0.55596 0.0
C817 C 0.71125 0.2954 0.56939 0.0
C818 C 0.69874 0.31958 0.56623 0.0
H819 H 0.61701 0.42475 0.58926 0.0
H820 H 0.65028 0.39616 0.60128 0.0
H821 H 0.69118 0.36596 0.50779 0.0
H822 H 0.76321 0.26603 0.54306 0.0
H823 H 0.74501 0.30687 0.54408 0.0
C824 C 0.02306 0.09526 0.1166 0.0
C825 C 0.00647 0.07671 0.12584 0.0
C826 C 0.03845 0.10567 0.14171 0.0
C827 C 0.06598 0.09461 0.22759 0.0
H828 H 0.06788 0.16552 0.23529 0.0
C829 C 0.09941 0.1432 0.35151 0.0
C830 C 0.11113 0.16613 0.34906 0.0
C831 C 0.08991 0.13176 0.32193 0.0
C832 C 0.06802 0.14572 0.23313 0.0
H833 H 0.99251 0.05447 0.16811 0.0
H834 H 0.0196 0.07256 0.21231 0.0
H835 H 0.04496 0.14641 0.1879 0.0
H836 H 0.12293 0.19453 0.31324 0.0
H837 H 0.10689 0.17415 0.26118 0.0
H838 H 0.08901 0.09379 0.27269 0.0
C839 C 0.0209 0.07891 0.18561 0.0
C840 C 0.05478 0.13478 0.20604 0.0
C841 C 0.00531 0.06872 0.16052 0.0
C842 C 0.11402 0.17687 0.31601 0.0
C843 C 0.10459 0.16531 0.28624 0.0
C844 C 0.07944 0.10553 0.25446 0.0
C845 C 0.03754 0.09757 0.17646 0.0
C846 C 0.05323 0.10913 0.20344 0.0
C847 C 0.09209 0.14276 0.28894 0.0
C848 C 0.08018 0.13123 0.25805 0.0
H849 H 0.02364 0.10213 0.09015 0.0
H850 H 0.05106 0.12004 0.13396 0.0
H851 H 0.06542 0.07478 0.22581 0.0
H852 H 0.09728 0.13416 0.37648 0.0
H853 H 0.08017 0.11459 0.32521 0.0
C854 C 0.93027 0.01515 0.16818 0.0
C855 C 0.92266 0.01752 0.13346 0.0
C856 C 0.91761 0.02725 0.19472 0.0
C857 C 0.87154 0.07593 0.21182 0.0
H858 H 0.86069 0.03851 0.29639 0.0
C859 C 0.82833 0.11688 0.33692 0.0
C860 C 0.81341 0.10145 0.35717 0.0
C861 C 0.8405 0.10772 0.30763 0.0
C862 C 0.86329 0.04912 0.2728 0.0
H863 H 0.89561 0.03328 0.099 0.0
H864 H 0.87327 0.05442 0.14526 0.0
H865 H 0.88508 0.02098 0.24973 0.0
H866 H 0.79822 0.06484 0.36153 0.0
H867 H 0.81904 0.04893 0.31004 0.0
H868 H 0.84911 0.10382 0.23474 0.0
C869 C 0.88952 0.04408 0.15202 0.0
C870 C 0.87765 0.03923 0.24625 0.0
C871 C 0.90235 0.03215 0.12549 0.0
C872 C 0.8099 0.07703 0.34663 0.0
C873 C 0.82192 0.06792 0.31726 0.0
C874 C 0.85708 0.08582 0.23841 0.0
C875 C 0.89682 0.04152 0.18701 0.0
C876 C 0.88199 0.0525 0.21546 0.0
C877 C 0.83787 0.08297 0.29796 0.0
C878 C 0.85276 0.07249 0.26919 0.0
H879 H 0.94584 0.00374 0.17479 0.0
H880 H 0.92392 0.02516 0.22133 0.0
H881 H 0.87466 0.0867 0.1885 0.0
H882 H 0.83156 0.13572 0.34468 0.0
H883 H 0.85281 0.11975 0.29352 0.0
C884 C 0.98628 0.90232 0.11978 0.0
C885 C 0.9842 0.92789 0.12146 0.0
C886 C 0.97355 0.88756 0.14342 0.0
C887 C 0.92491 0.88943 0.21204 0.0
H888 H 0.96188 0.83532 0.25123 0.0
C889 C 0.91177 0.85218 0.35083 0.0
C890 C 0.91049 0.82666 0.35517 0.0
C891 C 0.91712 0.8622 0.31826 0.0
C892 C 0.95118 0.85012 0.24014 0.0
H893 H 0.96787 0.95837 0.14887 0.0
H894 H 0.94612 0.93286 0.19091 0.0
H895 H 0.97798 0.85727 0.2009 0.0
H896 H 0.91355 0.79152 0.32919 0.0
H897 H 0.92374 0.80915 0.27204 0.0
H898 H 0.89891 0.88307 0.25296 0.0
C899 C 0.9567 0.92394 0.17069 0.0
C900 C 0.96032 0.86267 0.2112 0.0
C901 C 0.96916 0.93861 0.14673 0.0
C902 C 0.91444 0.81128 0.32635 0.0
C903 C 0.92027 0.82131 0.29383 0.0
C904 C 0.91599 0.87711 0.24132 0.0
C905 C 0.95893 0.89821 0.16959 0.0
C906 C 0.94759 0.88287 0.19729 0.0
C907 C 0.92168 0.84686 0.28959 0.0
C908 C 0.92932 0.8577 0.25602 0.0
H909 H 0.99777 0.89379 0.1002 0.0
H910 H 0.97538 0.86784 0.14142 0.0
H911 H 0.91433 0.90449 0.20152 0.0
H912 H 0.90858 0.86438 0.37268 0.0
H913 H 0.91837 0.88195 0.31569 0.0
C914 C 0.07634 0.01439 0.15657 0.0
C915 C 0.06655 0.999 0.13059 0.0
C916 C 0.08928 0.00465 0.18463 0.0
C917 C 0.12294 0.94956 0.21368 0.0
H918 H 0.11494 0.97977 0.30456 0.0
C919 C 0.16327 0.91115 0.34315 0.0
C920 C 0.17405 0.92848 0.36566 0.0
C921 C 0.15105 0.91872 0.31297 0.0
C922 C 0.11751 0.97129 0.27927 0.0
H923 H 0.06281 0.96121 0.11418 0.0
H924 H 0.08499 0.94404 0.16356 0.0
H925 H 0.09064 0.99431 0.25557 0.0
H926 H 0.18168 0.96722 0.37295 0.0
H927 H 0.15998 0.9804 0.32065 0.0
H928 H 0.14961 0.92625 0.23796 0.0
C929 C 0.0829 0.96375 0.16181 0.0
C930 C 0.10362 0.97962 0.25117 0.0
C931 C 0.07 0.97357 0.13354 0.0
C932 C 0.17312 0.95345 0.35661 0.0
C933 C 0.16075 0.961 0.32665 0.0
C934 C 0.1367 0.94105 0.24198 0.0
C935 C 0.09266 0.97921 0.18772 0.0
C936 C 0.10641 0.96913 0.21791 0.0
C937 C 0.14922 0.94376 0.3049 0.0
C938 C 0.13434 0.9521 0.27491 0.0
H939 H 0.07418 0.03412 0.15523 0.0
H940 H 0.09693 0.01718 0.20368 0.0
H941 H 0.12571 0.94123 0.18835 0.0
H942 H 0.16338 0.8918 0.34954 0.0
H943 H 0.14219 0.90507 0.29672 0.0
C944 C 0.07887 0.01672 0.87502 0.0
C945 C 0.0729 0.00244 0.9043 0.0
C946 C 0.09261 0.00677 0.84781 0.0
C947 C 0.13527 0.9558 0.82864 0.0
H948 H 0.12301 0.9745 0.73265 0.0
C949 C 0.1783 0.90739 0.70933 0.0
C950 C 0.18724 0.92251 0.68246 0.0
C951 C 0.16551 0.91743 0.7374 0.0
C952 C 0.12678 0.96933 0.75939 0.0
H953 H 0.07586 0.96628 0.92746 0.0
H954 H 0.09911 0.94865 0.87946 0.0
H955 H 0.09691 0.99064 0.77881 0.0
H956 H 0.19072 0.96024 0.665 0.0
H957 H 0.16785 0.97766 0.71373 0.0
H958 H 0.16482 0.93402 0.80887 0.0
C959 C 0.09381 0.96775 0.87795 0.0
C960 C 0.11186 0.97857 0.78585 0.0
C961 C 0.08029 0.97779 0.90534 0.0
C962 C 0.18368 0.948 0.68487 0.0
C963 C 0.17065 0.95801 0.71277 0.0
C964 C 0.15002 0.94636 0.80211 0.0
C965 C 0.10045 0.98222 0.84909 0.0
C966 C 0.11596 0.97197 0.82082 0.0
C967 C 0.16118 0.94277 0.73902 0.0
C968 C 0.14594 0.95311 0.76728 0.0
H969 H 0.07351 0.03582 0.8735 0.0
H970 H 0.09763 0.01854 0.82623 0.0
H971 H 0.13926 0.95069 0.85533 0.0
H972 H 0.18031 0.88765 0.70807 0.0
H973 H 0.1582 0.90527 0.75717 0.0
C974 C 0.96838 0.08718 0.87244 0.0
C975 C 0.98475 0.07814 0.89763 0.0
C976 C 0.97715 0.09918 0.84276 0.0
C977 C 0.03184 0.13167 0.80909 0.0
H978 H 0.00116 0.12067 0.71922 0.0
C979 C 0.05979 0.18622 0.68584 0.0
C980 C 0.06187 0.17259 0.65489 0.0
C981 C 0.04933 0.1757 0.71562 0.0
C982 C 0.01001 0.12387 0.7441 0.0
H983 H 0.02317 0.07419 0.91111 0.0
H984 H 0.03847 0.09458 0.859 0.0
H985 H 0.98558 0.0994 0.77045 0.0
H986 H 0.05514 0.13708 0.63115 0.0
H987 H 0.03708 0.11879 0.68286 0.0
H988 H 0.05678 0.15553 0.78249 0.0
C989 C 0.01884 0.09287 0.8625 0.0
C990 C 0.00091 0.11187 0.77355 0.0
C991 C 0.01007 0.08095 0.89222 0.0
C992 C 0.05331 0.14827 0.65435 0.0
C993 C 0.04294 0.13777 0.68403 0.0
C994 C 0.04099 0.14363 0.77961 0.0
C995 C 0.00248 0.10232 0.83757 0.0
C996 C 0.01182 0.11549 0.80636 0.0
C997 C 0.04083 0.15132 0.71504 0.0
C998 C 0.03031 0.1397 0.74672 0.0
H999 H 0.94876 0.08529 0.87582 0.0
H1000 H 0.96404 0.10642 0.82424 0.0
H1001 H 0.04045 0.13516 0.83407 0.0
H1002 H 0.06607 0.20507 0.68696 0.0
H1003 H 0.04773 0.18672 0.73901 0.0
C1004 C 0.94667 0.00797 0.88118 0.0
C1005 C 0.94398 0.9836 0.89243 0.0
C1006 C 0.93514 0.01598 0.85072 0.0
C1007 C 0.88218 0.00029 0.79531 0.0
H1008 H 0.90906 0.05036 0.73454 0.0
C1009 C 0.83297 0.03407 0.67045 0.0
C1010 C 0.8331 0.05953 0.66467 0.0
C1011 C 0.84699 0.0239 0.69729 0.0
C1012 C 0.90126 0.03649 0.75146 0.0
H1013 H 0.92881 0.94799 0.87914 0.0
H1014 H 0.9092 0.9618 0.82555 0.0
H1015 H 0.93427 0.03359 0.78135 0.0
H1016 H 0.84791 0.09427 0.68259 0.0
H1017 H 0.87208 0.07654 0.72971 0.0
H1018 H 0.84915 0.00328 0.76545 0.0
C1019 C 0.91952 0.97495 0.84085 0.0
C1020 C 0.9157 0.02687 0.77824 0.0
C1021 C 0.93089 0.967 0.87144 0.0
C1022 C 0.8472 0.07462 0.68664 0.0
C1023 C 0.86131 0.06444 0.71331 0.0
C1024 C 0.8678 0.00982 0.76843 0.0
C1025 C 0.92089 -0.00031 0.83069 0.0
C1026 C 0.90626 0.00881 0.80069 0.0
C1027 C 0.86155 0.03896 0.7187 0.0
C1028 C 0.8771 0.0282 0.74646 0.0
H1029 H 0.95675 0.02115 0.89669 0.0
H1030 H 0.9365 0.03519 0.84381 0.0
H1031 H 0.87414 0.98674 0.81251 0.0
H1032 H 0.82217 0.02202 0.65404 0.0
H1033 H 0.84689 0.00418 0.70076 0.0
C1034 C 0.01041 0.91815 0.87257 0.0
C1035 C 0.99702 0.91988 0.90376 0.0
C1036 C 0.00079 0.90553 0.84396 0.0
C1037 C 0.95443 0.85832 0.82203 0.0
H1038 H 0.96641 0.87992 0.7272 0.0
C1039 C 0.90555 0.81702 0.70205 0.0
C1040 C 0.92021 0.81163 0.67286 0.0
C1041 C 0.91528 0.82974 0.73045 0.0
C1042 C 0.96314 0.87358 0.75357 0.0
H1043 H 0.96276 0.91031 0.92908 0.0
H1044 H 0.9456 0.88917 0.87883 0.0
H1045 H 0.98181 0.90433 0.77589 0.0
H1046 H 0.95685 0.81484 0.65124 0.0
H1047 H 0.97365 0.83758 0.70067 0.0
H1048 H 0.93533 0.82782 0.79955 0.0
C1049 C 0.96382 0.89695 0.87672 0.0
C1050 C 0.97196 0.88752 0.78146 0.0
C1051 C 0.97356 0.9093 0.90544 0.0
C1052 C 0.94493 0.81903 0.67301 0.0
C1053 C 0.95458 0.832 0.7013 0.0
C1054 C 0.94541 0.84453 0.79415 0.0
C1055 C 0.97747 0.89455 0.84581 0.0
C1056 C 0.96774 0.88004 0.81604 0.0
C1057 C 0.93979 0.8376 0.73017 0.0
C1058 C 0.94971 0.85201 0.75968 0.0
H1059 H 0.02858 0.92606 0.87046 0.0
H1060 H 0.01195 0.90381 0.82075 0.0
H1061 H 0.95127 0.85171 0.84828 0.0
H1062 H 0.88633 0.81206 0.70259 0.0
H1063 H 0.90341 0.83407 0.75224 0.0
C1064 C 0.53029 0.58084 0.63262 0.0
C1065 C 0.50527 0.58555 0.62746 0.0
C1066 C 0.54403 0.59481 0.65617 0.0
C1067 C 0.54292 0.65278 0.70758 0.0
H1068 H 0.5886 0.61811 0.76727 0.0
C1069 C 0.57717 0.69013 0.83967 0.0
C1070 C 0.60173 0.68598 0.84901 0.0
C1071 C 0.5676 0.68019 0.80896 0.0
C1072 C 0.57622 0.62815 0.75044 0.0
H1073 H 0.47499 0.60879 0.64334 0.0
H1074 H 0.49866 0.63263 0.68505 0.0
H1075 H 0.56764 0.5961 0.72073 0.0
H1076 H 0.63571 0.66878 0.83306 0.0
H1077 H 0.61895 0.65138 0.77926 0.0
H1078 H 0.55097 0.68465 0.73827 0.0
C1079 C 0.50794 0.61853 0.6702 0.0
C1080 C 0.5642 0.61554 0.7237 0.0
C1081 C 0.49429 0.60466 0.64646 0.0
C1082 C 0.61676 0.6724 0.82641 0.0
C1083 C 0.60712 0.66227 0.79581 0.0
C1084 C 0.55483 0.66535 0.73449 0.0
C1085 C 0.53298 0.6137 0.67551 0.0
C1086 C 0.54713 0.62761 0.70222 0.0
C1087 C 0.58233 0.66574 0.78705 0.0
C1088 C 0.57137 0.65309 0.7565 0.0
H1089 H 0.53929 0.56615 0.61904 0.0
H1090 H 0.56333 0.59071 0.65929 0.0
H1091 H 0.53026 0.66277 0.69112 0.0
H1092 H 0.56523 0.70069 0.85648 0.0
H1093 H 0.54839 0.68304 0.80308 0.0
C1094 C 0.42025 0.54133 0.63756 0.0
C1095 C 0.42402 0.51589 0.63673 0.0
C1096 C 0.40473 0.55191 0.66226 0.0
C1097 C 0.35304 0.53767 0.72022 0.0
H1098 H 0.37408 0.59571 0.77053 0.0
C1099 C 0.3055 0.57161 0.8453 0.0
C1100 C 0.30461 0.59696 0.85188 0.0
C1101 C 0.31792 0.56256 0.81623 0.0
C1102 C 0.36769 0.57978 0.75628 0.0
H1103 H 0.41439 0.48151 0.66199 0.0
H1104 H 0.38741 0.49998 0.70516 0.0
H1105 H 0.40057 0.5782 0.72593 0.0
H1106 H 0.31516 0.63274 0.83219 0.0
H1107 H 0.3362 0.61698 0.78083 0.0
H1108 H 0.32018 0.53919 0.75056 0.0
C1109 C 0.39634 0.51175 0.68629 0.0
C1110 C 0.38294 0.5697 0.73083 0.0
C1111 C 0.41198 0.50123 0.66166 0.0
C1112 C 0.31537 0.61312 0.82779 0.0
C1113 C 0.32772 0.60407 0.79859 0.0
C1114 C 0.33771 0.54784 0.74553 0.0
C1115 C 0.3925 0.53721 0.68674 0.0
C1116 C 0.37589 0.54839 0.71282 0.0
C1117 C 0.32963 0.57866 0.79293 0.0
C1118 C 0.34498 0.56887 0.76414 0.0
H1119 H 0.42902 0.55319 0.61912 0.0
H1120 H 0.402 0.57158 0.6618 0.0
H1121 H 0.34698 0.52146 0.70632 0.0
H1122 H 0.29707 0.55869 0.8631 0.0
H1123 H 0.31914 0.54288 0.81284 0.0
C1124 C 0.47288 0.43241 0.64297 0.0
C1125 C 0.4889 0.42229 0.61841 0.0
C1126 C 0.46025 0.41723 0.66614 0.0
C1127 C 0.46608 0.35594 0.70615 0.0
H1128 H 0.40462 0.37435 0.74952 0.0
C1129 C 0.42345 0.30323 0.8227 0.0
C1130 C 0.41954 0.31858 0.85156 0.0
C1131 C 0.42848 0.31334 0.78995 0.0
C1132 C 0.42171 0.36892 0.73739 0.0
H1133 H 0.50357 0.38863 0.59713 0.0
H1134 H 0.4808 0.36187 0.63664 0.0
H1135 H 0.41872 0.39634 0.69776 0.0
H1136 H 0.41686 0.35628 0.86893 0.0
H1137 H 0.4253 0.37396 0.81163 0.0
H1138 H 0.469 0.3286 0.74603 0.0
C1139 C 0.47843 0.38151 0.63891 0.0
C1140 C 0.42988 0.38157 0.70793 0.0
C1141 C 0.49137 0.39676 0.61618 0.0
C1142 C 0.42009 0.34411 0.84708 0.0
C1143 C 0.42464 0.35419 0.81431 0.0
C1144 C 0.45769 0.34305 0.73524 0.0
C1145 C 0.46326 0.39158 0.66489 0.0
C1146 C 0.45257 0.37576 0.69261 0.0
C1147 C 0.42909 0.33892 0.78555 0.0
C1148 C 0.43583 0.34992 0.7517 0.0
H1149 H 0.47123 0.4521 0.64558 0.0
H1150 H 0.44915 0.42575 0.68614 0.0
H1151 H 0.48381 0.35112 0.69551 0.0
H1152 H 0.42304 0.28347 0.82564 0.0
H1153 H 0.43191 0.30124 0.76808 0.0
C1154 C 0.58019 0.46879 0.6288 0.0
C1155 C 0.5597 0.484 0.63269 0.0
C1156 C 0.59109 0.45801 0.658 0.0
C1157 C 0.59761 0.46994 0.75174 0.0
H1158 H 0.62909 0.40625 0.75337 0.0
C1159 C 0.66486 0.44432 0.86036 0.0
C1160 C 0.66259 0.4208 0.87488 0.0
C1161 C 0.65247 0.45031 0.8297 0.0
C1162 C 0.62023 0.42401 0.75338 0.0
H1163 H 0.5337 0.49917 0.66938 0.0
H1164 H 0.55223 0.47988 0.72041 0.0
H1165 H 0.60492 0.41836 0.7025 0.0
H1166 H 0.64598 0.38493 0.86839 0.0
H1167 H 0.62413 0.39545 0.81487 0.0
H1168 H 0.61249 0.47555 0.80261 0.0
C1169 C 0.56026 0.47657 0.69502 0.0
C1170 C 0.60656 0.43101 0.72416 0.0
C1171 C 0.54955 0.48747 0.66588 0.0
C1172 C 0.64823 0.40315 0.85759 0.0
C1173 C 0.63574 0.40917 0.82695 0.0
C1174 C 0.61119 0.46295 0.78085 0.0
C1175 C 0.58162 0.46237 0.69156 0.0
C1176 C 0.59515 0.4541 0.72301 0.0
C1177 C 0.63743 0.43294 0.81298 0.0
C1178 C 0.62282 0.44 0.78193 0.0
H1179 H 0.58879 0.46665 0.6036 0.0
H1180 H 0.60772 0.44749 0.65447 0.0
H1181 H 0.58944 0.48803 0.75152 0.0
H1182 H 0.67615 0.45815 0.87281 0.0
H1183 H 0.65458 0.46862 0.81918 0.0
C1184 C 0.58461 0.47722 0.41597 0.0
C1185 C 0.5708 0.49886 0.41332 0.0
C1186 C 0.59841 0.46892 0.38773 0.0
C1187 C 0.63167 0.49118 0.31263 0.0
H1188 H 0.6288 0.42397 0.27993 0.0
C1189 C 0.68382 0.45809 0.19009 0.0
C1190 C 0.69226 0.43374 0.18942 0.0
C1191 C 0.66962 0.46656 0.21791 0.0
C1192 C 0.63018 0.4427 0.28911 0.0
H1193 H 0.56041 0.52865 0.37878 0.0
H1194 H 0.58501 0.51432 0.32966 0.0
H1195 H 0.60172 0.43717 0.32682 0.0
H1196 H 0.69312 0.39955 0.21854 0.0
H1197 H 0.66986 0.41473 0.26769 0.0
H1198 H 0.66061 0.49667 0.27586 0.0
C1199 C 0.58493 0.50377 0.35359 0.0
C1200 C 0.61452 0.45025 0.31576 0.0
C1201 C 0.57078 0.51184 0.38164 0.0
C1202 C 0.68726 0.4185 0.21816 0.0
C1203 C 0.67342 0.42707 0.24616 0.0
C1204 C 0.64762 0.48356 0.28631 0.0
C1205 C 0.59903 0.48237 0.35655 0.0
C1206 C 0.61512 0.47454 0.3277 0.0
C1207 C 0.66383 0.45098 0.24596 0.0
C1208 C 0.6471 0.45919 0.27424 0.0
H1209 H 0.5852 0.46694 0.44007 0.0
H1210 H 0.60928 0.45243 0.39066 0.0
H1211 H 0.63265 0.50997 0.32176 0.0
H1212 H 0.68766 0.47051 0.16875 0.0
H1213 H 0.6625 0.48506 0.21675 0.0
C1214 C 0.50262 0.55012 0.37528 0.0
C1215 C 0.47897 0.55562 0.3874 0.0
C1216 C 0.51194 0.56175 0.34565 0.0
C1217 C 0.49549 0.59596 0.26655 0.0
H1218 H 0.55901 0.6268 0.27899 0.0
C1219 C 0.53561 0.66275 0.16428 0.0
C1220 C 0.56094 0.66152 0.15803 0.0
C1221 C 0.52517 0.64985 0.1921 0.0
C1222 C 0.54143 0.61802 0.2748 0.0
H1223 H 0.44581 0.57619 0.37644 0.0
H1224 H 0.46202 0.59622 0.32435 0.0
H1225 H 0.54153 0.60244 0.32601 0.0
H1226 H 0.59517 0.64564 0.1756 0.0
H1227 H 0.57703 0.62277 0.22355 0.0
H1228 H 0.49551 0.61114 0.21512 0.0
C1229 C 0.47346 0.58319 0.3381 0.0
C1230 C 0.53142 0.60409 0.3018 0.0
C1231 C 0.46424 0.5718 0.36801 0.0
C1232 C 0.57564 0.64727 0.18018 0.0
C1233 C 0.56521 0.63418 0.20772 0.0
C1234 C 0.50564 0.60967 0.23932 0.0
C1235 C 0.49763 0.57878 0.32722 0.0
C1236 C 0.50836 0.59292 0.29797 0.0
C1237 C 0.53982 0.63523 0.21402 0.0
C1238 C 0.52876 0.6209 0.2431 0.0
H1239 H 0.51425 0.53746 0.38928 0.0
H1240 H 0.53051 0.55771 0.33745 0.0
H1241 H 0.47772 0.58743 0.26288 0.0
H1242 H 0.52389 0.67376 0.14773 0.0
H1243 H 0.50564 0.65146 0.19651 0.0
C1244 C 0.42124 0.48401 0.37829 0.0
C1245 C 0.4201 0.49828 0.40879 0.0
C1246 C 0.41027 0.49223 0.34754 0.0
C1247 C 0.39097 0.54635 0.30037 0.0
H1248 H 0.34067 0.50502 0.25941 0.0
C1249 C 0.3281 0.58241 0.1917 0.0
C1250 C 0.32081 0.56618 0.16511 0.0
C1251 C 0.34033 0.5738 0.2212 0.0
C1252 C 0.35495 0.51664 0.27004 0.0
H1253 H 0.40701 0.53251 0.43081 0.0
H1254 H 0.38867 0.54721 0.37663 0.0
H1255 H 0.36346 0.4906 0.3101 0.0
H1256 H 0.32024 0.52792 0.14941 0.0
H1257 H 0.34274 0.51313 0.1998 0.0
H1258 H 0.38318 0.57214 0.26001 0.0
C1259 C 0.39786 0.52961 0.37676 0.0
C1260 C 0.3679 0.50838 0.29915 0.0
C1261 C 0.40833 0.52117 0.4077 0.0
C1262 C 0.32587 0.54104 0.16904 0.0
C1263 C 0.3385 0.53248 0.19829 0.0
C1264 C 0.37836 0.55445 0.27087 0.0
C1265 C 0.39844 0.51505 0.34662 0.0
C1266 C 0.38581 0.52328 0.31471 0.0
C1267 C 0.34604 0.54878 0.22468 0.0
C1268 C 0.35996 0.53982 0.25553 0.0
H1269 H 0.43008 0.46625 0.37835 0.0
H1270 H 0.41096 0.48076 0.32449 0.0
H1271 H 0.40489 0.55804 0.31188 0.0
H1272 H 0.32492 0.60194 0.18948 0.0
H1273 H 0.34535 0.58686 0.24125 0.0
C1274 C 0.4845 0.43732 0.37818 0.0
C1275 C 0.50937 0.43364 0.38611 0.0
C1276 C 0.4736 0.42496 0.35028 0.0
C1277 C 0.48647 0.39221 0.26861 0.0
H1278 H 0.42586 0.3577 0.28862 0.0
C1279 C 0.4453 0.32246 0.17201 0.0
C1280 C 0.41972 0.32233 0.16794 0.0
C1281 C 0.45622 0.33606 0.19871 0.0
C1282 C 0.44258 0.36748 0.28239 0.0
H1283 H 0.54266 0.41513 0.36991 0.0
H1284 H 0.52364 0.39373 0.32094 0.0
H1285 H 0.44483 0.38298 0.33359 0.0
H1286 H 0.38549 0.33629 0.18848 0.0
H1287 H 0.40449 0.36038 0.23473 0.0
H1288 H 0.48414 0.37704 0.2173 0.0
C1289 C 0.51256 0.40606 0.33647 0.0
C1290 C 0.45344 0.38195 0.30819 0.0
C1291 C 0.5234 0.41822 0.3646 0.0
C1292 C 0.40524 0.33579 0.19135 0.0
C1293 C 0.41616 0.34957 0.21785 0.0
C1294 C 0.47549 0.37792 0.24267 0.0
C1295 C 0.48745 0.40892 0.32949 0.0
C1296 C 0.47553 0.39437 0.30159 0.0
C1297 C 0.4418 0.35003 0.22172 0.0
C1298 C 0.45346 0.36528 0.24929 0.0
H1299 H 0.47325 0.44918 0.39413 0.0
H1300 H 0.45427 0.42774 0.34515 0.0
H1301 H 0.50339 0.40178 0.26276 0.0
H1302 H 0.45687 0.31202 0.15452 0.0
H1303 H 0.47598 0.33557 0.20134 0.0
loop_
_geom_bond_atom_site_label_1
_geom_bond_atom_site_label_2
_geom_bond_distance
_geom_bond_site_symmetry_2
_ccdc_geom_bond_type
Zn0 O2 1.933 1_556 S
Zn0 O20 1.985 . S
Zn0 O31 1.955 . S
Zn1 O2 1.911 . S
Zn1 O21 1.970 . S
Zn1 O37 1.945 . S
Zn1 O44 1.981 . S
O2 Zn0 1.933 1_554 S
O2 Zn1 1.911 . S
O2 H3 0.841 1_655 S
H3 O2 0.841 1_455 S
C4 O5 1.246 . S
C4 O33 1.276 1_545 S
O5 C4 1.246 . S
Zn6 O8 1.911 . S
Zn6 O23 1.970 . S
Zn6 O40 1.945 . S
Zn6 O47 1.981 . S
Zn7 O8 1.933 1_556 S
Zn7 O22 1.985 . S
Zn7 O29 1.955 . S
O8 Zn6 1.911 . S
O8 Zn7 1.933 1_554 S
O8 H9 0.841 1_455 S
H9 O8 0.841 1_655 S
Zn10 O11 1.933 1_556 S
Zn10 O24 1.985 . S
Zn10 O33 1.955 . S
O11 Zn10 1.933 1_554 S
O11 Zn12 1.911 . S
O11 H13 0.841 1_565 S
Zn12 O11 1.911 . S
Zn12 O25 1.970 . S
Zn12 O41 1.981 . S
Zn12 O43 1.945 . S
H13 O11 0.841 1_545 S
Zn14 O15 1.933 1_556 S
Zn14 O27 1.985 . S
Zn14 O35 1.955 . S
O15 Zn14 1.933 1_554 S
O15 H16 0.841 1_545 S
O15 Zn17 1.911 . S
H16 O15 0.841 1_565 S
Zn17 O15 1.911 . S
Zn17 O28 1.970 . S
Zn17 O38 1.981 . S
Zn17 O46 1.945 . S
C18 O19 1.246 . S
C18 O35 1.276 1_565 S
O19 C18 1.246 . S
O20 Zn0 1.985 . S
O20 C30 1.245 1_556 S
O21 Zn1 1.970 . S
O21 C30 1.263 . S
O22 Zn7 1.985 . S
O22 C34 1.245 1_556 S
O23 Zn6 1.970 . S
O23 C34 1.263 . S
O24 Zn10 1.985 . S
O24 C39 1.245 1_556 S
O25 Zn12 1.970 . S
O25 C39 1.263 . S
C26 O37 1.262 1_455 S
C26 O38 1.245 . S
O27 Zn14 1.985 . S
O27 C45 1.245 1_556 S
O28 Zn17 1.970 . S
O28 C45 1.263 . S
O29 Zn7 1.955 . S
O29 C48 1.276 1_455 S
C30 O20 1.245 1_554 S
C30 O21 1.263 . S
O31 Zn0 1.955 . S
O31 C50 1.276 1_655 S
C32 O40 1.262 1_655 S
C32 O41 1.245 . S
O33 C4 1.276 1_565 S
O33 Zn10 1.955 . S
C34 O22 1.245 1_554 S
C34 O23 1.263 . S
O35 Zn14 1.955 . S
O35 C18 1.276 1_545 S
C36 O43 1.262 1_545 S
C36 O44 1.245 . S
O37 Zn1 1.945 . S
O37 C26 1.262 1_655 S
O38 Zn17 1.981 . S
O38 C26 1.245 . S
C39 O24 1.245 1_554 S
C39 O25 1.263 . S
O40 Zn6 1.945 . S
O40 C32 1.262 1_455 S
O41 Zn12 1.981 . S
O41 C32 1.245 . S
C42 O46 1.262 1_565 S
C42 O47 1.245 . S
O43 Zn12 1.945 . S
O43 C36 1.262 1_565 S
O44 Zn1 1.981 . S
O44 C36 1.245 . S
C45 O27 1.245 1_554 S
C45 O28 1.263 . S
O46 Zn17 1.945 . S
O46 C42 1.262 1_545 S
O47 Zn6 1.981 . S
O47 C42 1.245 . S
C48 O29 1.276 1_655 S
C48 O49 1.246 . S
O49 C48 1.246 . S
C50 O31 1.276 1_455 S
C50 O51 1.246 . S
O51 C50 1.246 . S
Zn52 O54 1.933 . S
Zn52 O72 1.985 . S
Zn52 O83 1.955 . S
Zn53 O54 1.911 . S
Zn53 O73 1.970 . S
Zn53 O89 1.945 . S
Zn53 O96 1.981 . S
O54 Zn52 1.933 . S
O54 Zn53 1.911 . S
O54 H55 0.841 . S
H55 O54 0.841 . S
C56 O57 1.246 . S
C56 O85 1.276 . S
O57 C56 1.246 . S
Zn58 O60 1.911 . S
Zn58 O75 1.970 . S
Zn58 O92 1.945 . S
Zn58 O99 1.981 . S
Zn59 O60 1.933 . S
Zn59 O74 1.985 . S
Zn59 O81 1.955 . S
O60 Zn58 1.911 . S
O60 Zn59 1.933 . S
O60 H61 0.841 . S
H61 O60 0.841 . S
Zn62 O63 1.933 . S
Zn62 O76 1.985 . S
Zn62 O85 1.955 . S
O63 Zn62 1.933 . S
O63 Zn64 1.911 . S
O63 H65 0.841 . S
Zn64 O63 1.911 . S
Zn64 O77 1.970 . S
Zn64 O93 1.981 . S
Zn64 O95 1.945 . S
H65 O63 0.841 . S
Zn66 O67 1.933 . S
Zn66 O79 1.985 . S
Zn66 O87 1.955 . S
O67 Zn66 1.933 . S
O67 H68 0.841 . S
O67 Zn69 1.911 . S
H68 O67 0.841 . S
Zn69 O67 1.911 . S
Zn69 O80 1.970 . S
Zn69 O90 1.981 . S
Zn69 O98 1.945 . S
C70 O71 1.246 . S
C70 O87 1.276 . S
O71 C70 1.246 . S
O72 Zn52 1.985 . S
O72 C82 1.245 . S
O73 Zn53 1.970 . S
O73 C82 1.263 . S
O74 Zn59 1.985 . S
O74 C86 1.245 . S
O75 Zn58 1.970 . S
O75 C86 1.263 . S
O76 Zn62 1.985 . S
O76 C91 1.245 . S
O77 Zn64 1.970 . S
O77 C91 1.263 . S
C78 O89 1.262 . S
C78 O90 1.245 . S
O79 Zn66 1.985 . S
O79 C97 1.245 . S
O80 Zn69 1.970 . S
O80 C97 1.263 . S
O81 Zn59 1.955 . S
O81 C100 1.276 . S
C82 O72 1.245 . S
C82 O73 1.263 . S
O83 Zn52 1.955 . S
O83 C102 1.276 . S
C84 O92 1.262 . S
C84 O93 1.245 . S
O85 C56 1.276 . S
O85 Zn62 1.955 . S
C86 O74 1.245 . S
C86 O75 1.263 . S
O87 Zn66 1.955 . S
O87 C70 1.276 . S
C88 O95 1.262 . S
C88 O96 1.245 . S
O89 Zn53 1.945 . S
O89 C78 1.262 . S
O90 Zn69 1.981 . S
O90 C78 1.245 . S
C91 O76 1.245 . S
C91 O77 1.263 . S
O92 Zn58 1.945 . S
O92 C84 1.262 . S
O93 Zn64 1.981 . S
O93 C84 1.245 . S
C94 O98 1.262 . S
C94 O99 1.245 . S
O95 Zn64 1.945 . S
O95 C88 1.262 . S
O96 Zn53 1.981 . S
O96 C88 1.245 . S
C97 O79 1.245 . S
C97 O80 1.263 . S
O98 Zn69 1.945 . S
O98 C94 1.262 . S
O99 Zn58 1.981 . S
O99 C94 1.245 . S
C100 O81 1.276 . S
C100 O101 1.246 . S
O101 C100 1.246 . S
C102 O83 1.276 . S
C102 O103 1.246 . S
O103 C102 1.246 . S
C104 C105 1.391 . S
C104 C108 1.391 . S
C104 H146 0.948 . S
C105 C104 1.391 . S
C105 C106 1.391 . S
C106 C105 1.391 . S
C106 H162 0.947 . S
C106 C163 1.392 . S
C107 C108 1.391 . S
C107 C111 1.397 . S
C107 C163 1.419 . S
C108 C104 1.391 . S
C108 C107 1.391 . S
C108 C109 1.399 . S
C109 C108 1.399 . S
C109 C112 1.396 . S
C109 C121 1.453 . S
C109 C122 1.684 . S
H110 C134 0.948 . S
C111 C107 1.397 . S
C111 C112 1.394 . S
C111 C130 1.723 1_556 S
C112 C109 1.396 . S
C112 C111 1.394 . S
C112 C142 1.723 1_556 S
H113 C136 0.947 . S
H114 C137 0.948 . S
H115 C143 0.982 . S
H116 C144 0.979 . S
H117 C144 0.980 . S
H118 C144 0.983 . S
H119 C143 0.979 . S
H120 C143 0.977 . S
C121 C109 1.453 . S
C121 H150 0.982 . S
C121 H151 0.979 . S
C121 H152 0.977 . S
C122 C109 1.684 . S
C122 H147 0.979 . S
C122 H148 0.980 . S
C122 H149 0.983 . S
C123 C124 1.391 . S
C123 C128 1.391 . S
C123 H153 0.948 . S
C124 C123 1.391 . S
C124 C125 1.391 . S
C125 C124 1.391 . S
C125 C126 1.392 . S
C125 H154 0.947 . S
C126 C125 1.392 . S
C126 C127 1.419 . S
C126 H155 0.948 . S
C127 C126 1.419 . S
C127 C128 1.391 . S
C127 C131 1.397 . S
C128 C123 1.391 . S
C128 C127 1.391 . S
C128 C129 1.399 . S
C129 C128 1.399 . S
C129 C130 1.396 . S
C129 C132 1.453 . S
C129 C133 1.684 . S
C130 C111 1.723 1_554 S
C130 C129 1.396 . S
C130 C131 1.394 . S
C131 C127 1.397 . S
C131 C130 1.394 . S
C131 C141 1.723 . S
C132 C129 1.453 . S
C132 H156 0.982 . S
C132 H157 0.979 . S
C132 H158 0.977 . S
C133 C129 1.684 . S
C133 H159 0.979 . S
C133 H160 0.980 . S
C133 H161 0.983 . S
C134 H110 0.948 . S
C134 C135 1.391 . S
C134 C139 1.391 . S
C135 C134 1.391 . S
C135 C136 1.391 1_554 S
C136 H113 0.947 . S
C136 C135 1.391 1_556 S
C136 C137 1.392 . S
C137 H114 0.948 . S
C137 C136 1.392 . S
C137 C138 1.419 1_556 S
C138 C137 1.419 1_554 S
C138 C139 1.391 . S
C138 C142 1.397 . S
C139 C134 1.391 . S
C139 C138 1.391 . S
C139 C140 1.399 . S
C140 C139 1.399 . S
C140 C141 1.396 . S
C140 C143 1.453 . S
C140 C144 1.684 . S
C141 C131 1.723 . S
C141 C140 1.396 . S
C141 C142 1.394 . S
C142 C112 1.723 1_554 S
C142 C138 1.397 . S
C142 C141 1.394 . S
C143 H115 0.982 . S
C143 H119 0.979 . S
C143 H120 0.977 . S
C143 C140 1.453 . S
C144 H116 0.979 . S
C144 H117 0.980 . S
C144 H118 0.983 . S
C144 C140 1.684 . S
H145 C163 0.948 . S
H146 C104 0.948 . S
H147 C122 0.979 . S
H148 C122 0.980 . S
H149 C122 0.983 . S
H150 C121 0.982 . S
H151 C121 0.979 . S
H152 C121 0.977 . S
H153 C123 0.948 . S
H154 C125 0.947 . S
H155 C126 0.948 . S
H156 C132 0.982 . S
H157 C132 0.979 . S
H158 C132 0.977 . S
H159 C133 0.979 . S
H160 C133 0.980 . S
H161 C133 0.983 . S
H162 C106 0.947 . S
C163 C106 1.392 . S
C163 C107 1.419 . S
C163 H145 0.948 . S
C164 C165 1.391 . S
C164 C168 1.391 . S
C164 H206 0.948 . S
C165 C164 1.391 . S
C165 C166 1.391 . S
C166 C165 1.391 . S
C166 H222 0.947 . S
C166 C223 1.392 . S
C167 C168 1.391 . S
C167 C171 1.397 . S
C167 C223 1.419 . S
C168 C164 1.391 . S
C168 C167 1.391 . S
C168 C169 1.399 . S
C169 C168 1.399 . S
C169 C172 1.396 . S
C169 C181 1.453 . S
C169 C182 1.684 . S
H170 C194 0.948 . S
C171 C167 1.397 . S
C171 C172 1.394 . S
C171 C190 1.723 1_556 S
C172 C169 1.396 . S
C172 C171 1.394 . S
C172 C202 1.723 1_556 S
H173 C196 0.947 . S
H174 C197 0.948 . S
H175 C203 0.982 . S
H176 C204 0.979 . S
H177 C204 0.980 . S
H178 C204 0.983 . S
H179 C203 0.979 . S
H180 C203 0.977 . S
C181 C169 1.453 . S
C181 H210 0.982 . S
C181 H211 0.979 . S
C181 H212 0.977 . S
C182 C169 1.684 . S
C182 H207 0.979 . S
C182 H208 0.980 . S
C182 H209 0.983 . S
C183 C184 1.391 . S
C183 C188 1.391 . S
C183 H213 0.948 . S
C184 C183 1.391 . S
C184 C185 1.391 . S
C185 C184 1.391 . S
C185 C186 1.392 . S
C185 H214 0.947 . S
C186 C185 1.392 . S
C186 C187 1.419 . S
C186 H215 0.948 . S
C187 C186 1.419 . S
C187 C188 1.391 . S
C187 C191 1.397 . S
C188 C183 1.391 . S
C188 C187 1.391 . S
C188 C189 1.399 . S
C189 C188 1.399 . S
C189 C190 1.396 . S
C189 C192 1.453 . S
C189 C193 1.684 . S
C190 C171 1.723 1_554 S
C190 C189 1.396 . S
C190 C191 1.394 . S
C191 C187 1.397 . S
C191 C190 1.394 . S
C191 C201 1.723 . S
C192 C189 1.453 . S
C192 H216 0.982 . S
C192 H217 0.979 . S
C192 H218 0.977 . S
C193 C189 1.684 . S
C193 H219 0.979 . S
C193 H220 0.980 . S
C193 H221 0.983 . S
C194 H170 0.948 . S
C194 C195 1.391 . S
C194 C199 1.391 . S
C195 C194 1.391 . S
C195 C196 1.391 1_554 S
C196 H173 0.947 . S
C196 C195 1.391 1_556 S
C196 C197 1.392 . S
C197 H174 0.948 . S
C197 C196 1.392 . S
C197 C198 1.419 1_556 S
C198 C197 1.419 1_554 S
C198 C199 1.391 . S
C198 C202 1.397 . S
C199 C194 1.391 . S
C199 C198 1.391 . S
C199 C200 1.399 . S
C200 C199 1.399 . S
C200 C201 1.396 . S
C200 C203 1.453 . S
C200 C204 1.684 . S
C201 C191 1.723 . S
C201 C200 1.396 . S
C201 C202 1.394 . S
C202 C172 1.723 1_554 S
C202 C198 1.397 . S
C202 C201 1.394 . S
C203 H175 0.982 . S
C203 H179 0.979 . S
C203 H180 0.977 . S
C203 C200 1.453 . S
C204 H176 0.979 . S
C204 H177 0.980 . S
C204 H178 0.983 . S
C204 C200 1.684 . S
H205 C223 0.948 . S
H206 C164 0.948 . S
H207 C182 0.979 . S
H208 C182 0.980 . S
H209 C182 0.983 . S
H210 C181 0.982 . S
H211 C181 0.979 . S
H212 C181 0.977 . S
H213 C183 0.948 . S
H214 C185 0.947 . S
H215 C186 0.948 . S
H216 C192 0.982 . S
H217 C192 0.979 . S
H218 C192 0.977 . S
H219 C193 0.979 . S
H220 C193 0.980 . S
H221 C193 0.983 . S
H222 C166 0.947 . S
C223 C166 1.392 . S
C223 C167 1.419 . S
C223 H205 0.948 . S
C224 C225 1.391 . S
C224 C228 1.391 . S
C224 H266 0.948 . S
C225 C224 1.391 . S
C225 C226 1.391 . S
C226 C225 1.391 . S
C226 H282 0.947 . S
C226 C283 1.392 . S
C227 C228 1.391 . S
C227 C231 1.397 . S
C227 C283 1.419 . S
C228 C224 1.391 . S
C228 C227 1.391 . S
C228 C229 1.399 . S
C229 C228 1.399 . S
C229 C232 1.396 . S
C229 C241 1.453 . S
C229 C242 1.684 . S
H230 C254 0.948 . S
C231 C227 1.397 . S
C231 C232 1.394 . S
C231 C250 1.723 . S
C232 C229 1.396 . S
C232 C231 1.394 . S
C232 C262 1.723 . S
H233 C256 0.947 . S
H234 C257 0.948 . S
H235 C263 0.982 . S
H236 C264 0.979 . S
H237 C264 0.980 . S
H238 C264 0.983 . S
H239 C263 0.979 . S
H240 C263 0.977 . S
C241 C229 1.453 . S
C241 H270 0.982 . S
C241 H271 0.979 . S
C241 H272 0.977 . S
C242 C229 1.684 . S
C242 H267 0.979 . S
C242 H268 0.980 . S
C242 H269 0.983 . S
C243 C244 1.391 . S
C243 C248 1.391 . S
C243 H273 0.948 . S
C244 C243 1.391 . S
C244 C245 1.391 . S
C245 C244 1.391 . S
C245 C246 1.392 . S
C245 H274 0.947 . S
C246 C245 1.392 . S
C246 C247 1.419 . S
C246 H275 0.948 . S
C247 C246 1.419 . S
C247 C248 1.391 . S
C247 C251 1.397 . S
C248 C243 1.391 . S
C248 C247 1.391 . S
C248 C249 1.399 . S
C249 C248 1.399 . S
C249 C250 1.396 1_556 S
C249 C252 1.453 1_556 S
C249 C253 1.684 1_556 S
C250 C231 1.723 . S
C250 C249 1.396 1_554 S
C250 C251 1.394 1_554 S
C251 C247 1.397 . S
C251 C250 1.394 1_556 S
C251 C261 1.723 . S
C252 C249 1.453 1_554 S
C252 H276 0.982 1_554 S
C252 H277 0.979 1_554 S
C252 H278 0.977 . S
C253 C249 1.684 1_554 S
C253 H279 0.982 . S
C253 H280 0.980 . S
C253 H281 0.983 1_554 S
C254 H230 0.948 . S
C254 C255 1.391 1_556 S
C254 C259 1.391 1_556 S
C255 C254 1.391 1_554 S
C255 C256 1.391 . S
C256 H233 0.947 . S
C256 C255 1.391 . S
C256 C257 1.392 . S
C257 H234 0.948 . S
C257 C256 1.392 . S
C257 C258 1.419 . S
C258 C257 1.419 . S
C258 C259 1.391 . S
C258 C262 1.397 . S
C259 C254 1.391 1_554 S
C259 C258 1.391 . S
C259 C260 1.399 1_554 S
C260 C259 1.399 1_556 S
C260 C261 1.396 . S
C260 C263 1.453 . S
C260 C264 1.684 . S
C261 C251 1.723 . S
C261 C260 1.396 . S
C261 C262 1.394 1_556 S
C262 C232 1.723 . S
C262 C258 1.397 . S
C262 C261 1.394 1_554 S
C263 H235 0.982 . S
C263 H239 0.979 . S
C263 H240 0.977 . S
C263 C260 1.453 . S
C264 H236 0.979 . S
C264 H237 0.980 . S
C264 H238 0.983 . S
C264 C260 1.684 . S
H265 C283 0.948 . S
H266 C224 0.948 . S
H267 C242 0.979 . S
H268 C242 0.980 . S
H269 C242 0.983 . S
H270 C241 0.982 . S
H271 C241 0.979 . S
H272 C241 0.977 . S
H273 C243 0.948 . S
H274 C245 0.947 . S
H275 C246 0.948 . S
H276 C252 0.982 1_556 S
H277 C252 0.979 1_556 S
H278 C252 0.977 . S
H279 C253 0.982 . S
H280 C253 0.980 . S
H281 C253 0.983 1_556 S
H282 C226 0.947 . S
C283 C226 1.392 . S
C283 C227 1.419 . S
C283 H265 0.948 . S
C284 C285 1.391 . S
C284 C288 1.391 . S
C284 H326 0.948 . S
C285 C284 1.391 . S
C285 C286 1.391 . S
C286 C285 1.391 . S
C286 H342 0.947 . S
C286 C343 1.392 . S
C287 C288 1.391 . S
C287 C291 1.397 . S
C287 C343 1.419 . S
C288 C284 1.391 . S
C288 C287 1.391 . S
C288 C289 1.399 . S
C289 C288 1.399 . S
C289 C292 1.396 . S
C289 C301 1.453 . S
C289 C302 1.684 . S
H290 C314 0.948 . S
C291 C287 1.397 . S
C291 C292 1.394 . S
C291 C310 1.723 . S
C292 C289 1.396 . S
C292 C291 1.394 . S
C292 C322 1.723 . S
H293 C316 0.947 . S
H294 C317 0.948 . S
H295 C323 0.982 . S
H296 C324 0.979 . S
H297 C324 0.980 . S
H298 C324 0.983 . S
H299 C323 0.979 . S
H300 C323 0.977 . S
C301 C289 1.453 . S
C301 H330 0.982 . S
C301 H331 0.979 . S
C301 H332 0.977 . S
C302 C289 1.684 . S
C302 H327 0.979 . S
C302 H328 0.980 . S
C302 H329 0.983 . S
C303 C304 1.391 . S
C303 C308 1.391 . S
C303 H333 0.948 . S
C304 C303 1.391 . S
C304 C305 1.391 . S
C305 C304 1.391 . S
C305 C306 1.392 . S
C305 H334 0.947 . S
C306 C305 1.392 . S
C306 C307 1.419 . S
C306 H335 0.948 . S
C307 C306 1.419 . S
C307 C308 1.391 . S
C307 C311 1.397 . S
C308 C303 1.391 . S
C308 C307 1.391 . S
C308 C309 1.399 . S
C309 C308 1.399 . S
C309 C310 1.396 1_556 S
C309 C312 1.453 1_556 S
C309 C313 1.684 1_556 S
C310 C291 1.723 . S
C310 C309 1.396 1_554 S
C310 C311 1.394 1_554 S
C311 C307 1.397 . S
C311 C310 1.394 1_556 S
C311 C321 1.723 . S
C312 C309 1.453 1_554 S
C312 H336 0.982 1_554 S
C312 H337 0.979 1_554 S
C312 H338 0.977 . S
C313 C309 1.684 1_554 S
C313 H339 0.982 . S
C313 H340 0.980 . S
C313 H341 0.983 1_554 S
C314 H290 0.948 . S
C314 C315 1.391 1_556 S
C314 C319 1.391 1_556 S
C315 C314 1.391 1_554 S
C315 C316 1.391 . S
C316 H293 0.947 . S
C316 C315 1.391 . S
C316 C317 1.392 . S
C317 H294 0.948 . S
C317 C316 1.392 . S
C317 C318 1.419 . S
C318 C317 1.419 . S
C318 C319 1.391 . S
C318 C322 1.397 . S
C319 C314 1.391 1_554 S
C319 C318 1.391 . S
C319 C320 1.399 1_554 S
C320 C319 1.399 1_556 S
C320 C321 1.396 . S
C320 C323 1.453 . S
C320 C324 1.684 . S
C321 C311 1.723 . S
C321 C320 1.396 . S
C321 C322 1.394 1_556 S
C322 C292 1.723 . S
C322 C318 1.397 . S
C322 C321 1.394 1_554 S
C323 H295 0.982 . S
C323 H299 0.979 . S
C323 H300 0.977 . S
C323 C320 1.453 . S
C324 H296 0.979 . S
C324 H297 0.980 . S
C324 H298 0.983 . S
C324 C320 1.684 . S
H325 C343 0.948 . S
H326 C284 0.948 . S
H327 C302 0.979 . S
H328 C302 0.980 . S
H329 C302 0.983 . S
H330 C301 0.982 . S
H331 C301 0.979 . S
H332 C301 0.977 . S
H333 C303 0.948 . S
H334 C305 0.947 . S
H335 C306 0.948 . S
H336 C312 0.982 1_556 S
H337 C312 0.979 1_556 S
H338 C312 0.977 . S
H339 C313 0.982 . S
H340 C313 0.980 . S
H341 C313 0.983 1_556 S
H342 C286 0.947 . S
C343 C286 1.392 . S
C343 C287 1.419 . S
C343 H325 0.948 . S
C344 C345 1.391 . S
C344 C348 1.391 . S
C344 H386 0.948 . S
C345 C344 1.391 . S
C345 C346 1.391 . S
C346 C345 1.391 . S
C346 H402 0.947 . S
C346 C403 1.392 . S
C347 C348 1.391 . S
C347 C351 1.397 . S
C347 C403 1.419 . S
C348 C344 1.391 . S
C348 C347 1.391 . S
C348 C349 1.399 . S
C349 C348 1.399 . S
C349 C352 1.396 . S
C349 C361 1.453 . S
C349 C362 1.684 . S
H350 C374 0.948 . S
C351 C347 1.397 . S
C351 C352 1.394 . S
C351 C370 1.723 . S
C352 C349 1.396 . S
C352 C351 1.394 . S
C352 C382 1.723 . S
H353 C376 0.947 . S
H354 C377 0.948 . S
H355 C383 0.982 . S
H356 C384 0.979 . S
H357 C384 0.980 . S
H358 C384 0.983 . S
H359 C383 0.979 . S
H360 C383 0.977 . S
C361 C349 1.453 . S
C361 H390 0.982 . S
C361 H391 0.979 . S
C361 H392 0.977 . S
C362 C349 1.684 . S
C362 H387 0.979 . S
C362 H388 0.980 . S
C362 H389 0.983 . S
C363 C364 1.391 . S
C363 C368 1.391 . S
C363 H393 0.948 . S
C364 C363 1.391 . S
C364 C365 1.391 . S
C365 C364 1.391 . S
C365 C366 1.392 . S
C365 H394 0.947 . S
C366 C365 1.392 . S
C366 C367 1.419 . S
C366 H395 0.948 . S
C367 C366 1.419 . S
C367 C368 1.391 . S
C367 C371 1.397 . S
C368 C363 1.391 . S
C368 C367 1.391 . S
C368 C369 1.399 . S
C369 C368 1.399 . S
C369 C370 1.396 . S
C369 C372 1.453 . S
C369 C373 1.684 . S
C370 C351 1.723 . S
C370 C369 1.396 . S
C370 C371 1.394 . S
C371 C367 1.397 . S
C371 C370 1.394 . S
C371 C381 1.723 . S
C372 C369 1.453 . S
C372 H396 0.982 . S
C372 H397 0.979 . S
C372 H398 0.977 . S
C373 C369 1.684 . S
C373 H399 0.979 . S
C373 H400 0.980 . S
C373 H401 0.983 . S
C374 H350 0.948 . S
C374 C375 1.391 . S
C374 C379 1.391 . S
C375 C374 1.391 . S
C375 C376 1.391 . S
C376 H353 0.947 . S
C376 C375 1.391 . S
C376 C377 1.392 . S
C377 H354 0.948 . S
C377 C376 1.392 . S
C377 C378 1.419 . S
C378 C377 1.419 . S
C378 C379 1.391 . S
C378 C382 1.397 . S
C379 C374 1.391 . S
C379 C378 1.391 . S
C379 C380 1.399 . S
C380 C379 1.399 . S
C380 C381 1.396 . S
C380 C383 1.453 . S
C380 C384 1.684 . S
C381 C371 1.723 . S
C381 C380 1.396 . S
C381 C382 1.394 . S
C382 C352 1.723 . S
C382 C378 1.397 . S
C382 C381 1.394 . S
C383 H355 0.982 . S
C383 H359 0.979 . S
C383 H360 0.977 . S
C383 C380 1.453 . S
C384 H356 0.979 . S
C384 H357 0.980 . S
C384 H358 0.983 . S
C384 C380 1.684 . S
H385 C403 0.948 . S
H386 C344 0.948 . S
H387 C362 0.979 . S
H388 C362 0.980 . S
H389 C362 0.983 . S
H390 C361 0.982 . S
H391 C361 0.979 . S
H392 C361 0.977 . S
H393 C363 0.948 . S
H394 C365 0.947 . S
H395 C366 0.948 . S
H396 C372 0.982 . S
H397 C372 0.979 . S
H398 C372 0.977 . S
H399 C373 0.979 . S
H400 C373 0.980 . S
H401 C373 0.983 . S
H402 C346 0.947 . S
C403 C346 1.392 . S
C403 C347 1.419 . S
C403 H385 0.948 . S
C404 C405 1.391 . S
C404 C408 1.391 . S
C404 H446 0.948 . S
C405 C404 1.391 . S
C405 C406 1.391 . S
C406 C405 1.391 . S
C406 H462 0.947 . S
C406 C463 1.392 . S
C407 C408 1.391 . S
C407 C411 1.397 . S
C407 C463 1.419 . S
C408 C404 1.391 . S
C408 C407 1.391 . S
C408 C409 1.399 . S
C409 C408 1.399 . S
C409 C412 1.396 . S
C409 C421 1.453 . S
C409 C422 1.684 . S
H410 C434 0.948 . S
C411 C407 1.397 . S
C411 C412 1.394 . S
C411 C430 1.723 . S
C412 C409 1.396 . S
C412 C411 1.394 . S
C412 C442 1.723 . S
H413 C436 0.947 . S
H414 C437 0.948 . S
H415 C443 0.982 . S
H416 C444 0.979 . S
H417 C444 0.980 . S
H418 C444 0.983 . S
H419 C443 0.979 . S
H420 C443 0.977 . S
C421 C409 1.453 . S
C421 H450 0.982 . S
C421 H451 0.979 . S
C421 H452 0.977 . S
C422 C409 1.684 . S
C422 H447 0.979 . S
C422 H448 0.980 . S
C422 H449 0.983 . S
C423 C424 1.391 . S
C423 C428 1.391 . S
C423 H453 0.948 . S
C424 C423 1.391 . S
C424 C425 1.391 . S
C425 C424 1.391 . S
C425 C426 1.392 . S
C425 H454 0.947 . S
C426 C425 1.392 . S
C426 C427 1.419 . S
C426 H455 0.948 . S
C427 C426 1.419 . S
C427 C428 1.391 . S
C427 C431 1.397 . S
C428 C423 1.391 . S
C428 C427 1.391 . S
C428 C429 1.399 . S
C429 C428 1.399 . S
C429 C430 1.396 . S
C429 C432 1.453 . S
C429 C433 1.684 . S
C430 C411 1.723 . S
C430 C429 1.396 . S
C430 C431 1.394 . S
C431 C427 1.397 . S
C431 C430 1.394 . S
C431 C441 1.723 . S
C432 C429 1.453 . S
C432 H456 0.982 . S
C432 H457 0.979 . S
C432 H458 0.977 . S
C433 C429 1.684 . S
C433 H459 0.979 . S
C433 H460 0.980 . S
C433 H461 0.983 . S
C434 H410 0.948 . S
C434 C435 1.391 . S
C434 C439 1.391 . S
C435 C434 1.391 . S
C435 C436 1.391 . S
C436 H413 0.947 . S
C436 C435 1.391 . S
C436 C437 1.392 . S
C437 H414 0.948 . S
C437 C436 1.392 . S
C437 C438 1.419 . S
C438 C437 1.419 . S
C438 C439 1.391 . S
C438 C442 1.397 . S
C439 C434 1.391 . S
C439 C438 1.391 . S
C439 C440 1.399 . S
C440 C439 1.399 . S
C440 C441 1.396 . S
C440 C443 1.453 . S
C440 C444 1.684 . S
C441 C431 1.723 . S
C441 C440 1.396 . S
C441 C442 1.394 . S
C442 C412 1.723 . S
C442 C438 1.397 . S
C442 C441 1.394 . S
C443 H415 0.982 . S
C443 H419 0.979 . S
C443 H420 0.977 . S
C443 C440 1.453 . S
C444 H416 0.979 . S
C444 H417 0.980 . S
C444 H418 0.983 . S
C444 C440 1.684 . S
H445 C463 0.948 . S
H446 C404 0.948 . S
H447 C422 0.979 . S
H448 C422 0.980 . S
H449 C422 0.983 . S
H450 C421 0.982 . S
H451 C421 0.979 . S
H452 C421 0.977 . S
H453 C423 0.948 . S
H454 C425 0.947 . S
H455 C426 0.948 . S
H456 C432 0.982 . S
H457 C432 0.979 . S
H458 C432 0.977 . S
H459 C433 0.979 . S
H460 C433 0.980 . S
H461 C433 0.983 . S
H462 C406 0.947 . S
C463 C406 1.392 . S
C463 C407 1.419 . S
C463 H445 0.948 . S
C464 C465 1.391 . S
C464 C468 1.391 . S
C464 H506 0.948 . S
C465 C464 1.391 . S
C465 C466 1.391 . S
C466 C465 1.391 . S
C466 H522 0.947 . S
C466 C523 1.392 . S
C467 C468 1.391 . S
C467 C471 1.397 . S
C467 C523 1.419 . S
C468 C464 1.391 . S
C468 C467 1.391 . S
C468 C469 1.399 . S
C469 C468 1.399 . S
C469 C472 1.396 . S
C469 C481 1.453 . S
C469 C482 1.684 . S
H470 C494 0.948 . S
C471 C467 1.397 . S
C471 C472 1.394 . S
C471 C490 1.723 . S
C472 C469 1.396 . S
C472 C471 1.394 . S
C472 C502 1.723 . S
H473 C496 0.947 . S
H474 C497 0.948 . S
H475 C503 0.982 . S
H476 C504 0.979 . S
H477 C504 0.980 . S
H478 C504 0.983 . S
H479 C503 0.979 . S
H480 C503 0.977 . S
C481 C469 1.453 . S
C481 H510 0.982 . S
C481 H511 0.979 . S
C481 H512 0.977 . S
C482 C469 1.684 . S
C482 H507 0.979 . S
C482 H508 0.980 . S
C482 H509 0.983 . S
C483 C484 1.391 . S
C483 C488 1.391 . S
C483 H513 0.948 . S
C484 C483 1.391 . S
C484 C485 1.391 . S
C485 C484 1.391 . S
C485 C486 1.392 . S
C485 H514 0.947 . S
C486 C485 1.392 . S
C486 C487 1.419 . S
C486 H515 0.948 . S
C487 C486 1.419 . S
C487 C488 1.391 . S
C487 C491 1.397 . S
C488 C483 1.391 . S
C488 C487 1.391 . S
C488 C489 1.399 . S
C489 C488 1.399 . S
C489 C490 1.396 . S
C489 C492 1.453 . S
C489 C493 1.684 . S
C490 C471 1.723 . S
C490 C489 1.396 . S
C490 C491 1.394 . S
C491 C487 1.397 . S
C491 C490 1.394 . S
C491 C501 1.723 . S
C492 C489 1.453 . S
C492 H516 0.982 . S
C492 H517 0.979 . S
C492 H518 0.977 . S
C493 C489 1.684 . S
C493 H519 0.979 . S
C493 H520 0.980 . S
C493 H521 0.983 . S
C494 H470 0.948 . S
C494 C495 1.391 . S
C494 C499 1.391 . S
C495 C494 1.391 . S
C495 C496 1.391 . S
C496 H473 0.947 . S
C496 C495 1.391 . S
C496 C497 1.392 . S
C497 H474 0.948 . S
C497 C496 1.392 . S
C497 C498 1.419 . S
C498 C497 1.419 . S
C498 C499 1.391 . S
C498 C502 1.397 . S
C499 C494 1.391 . S
C499 C498 1.391 . S
C499 C500 1.399 . S
C500 C499 1.399 . S
C500 C501 1.396 . S
C500 C503 1.453 . S
C500 C504 1.684 . S
C501 C491 1.723 . S
C501 C500 1.396 . S
C501 C502 1.394 . S
C502 C472 1.723 . S
C502 C498 1.397 . S
C502 C501 1.394 . S
C503 H475 0.982 . S
C503 H479 0.979 . S
C503 H480 0.977 . S
C503 C500 1.453 . S
C504 H476 0.979 . S
C504 H477 0.980 . S
C504 H478 0.983 . S
C504 C500 1.684 . S
H505 C523 0.948 . S
H506 C464 0.948 . S
H507 C482 0.979 . S
H508 C482 0.980 . S
H509 C482 0.983 . S
H510 C481 0.982 . S
H511 C481 0.979 . S
H512 C481 0.977 . S
H513 C483 0.948 . S
H514 C485 0.947 . S
H515 C486 0.948 . S
H516 C492 0.982 . S
H517 C492 0.979 . S
H518 C492 0.977 . S
H519 C493 0.979 . S
H520 C493 0.980 . S
H521 C493 0.983 . S
H522 C466 0.947 . S
C523 C466 1.392 . S
C523 C467 1.419 . S
C523 H505 0.948 . S
C524 C525 1.391 . S
C524 C528 1.391 . S
C524 H566 0.948 . S
C525 C524 1.391 . S
C525 C526 1.391 . S
C526 C525 1.391 . S
C526 H582 0.947 . S
C526 C583 1.392 . S
C527 C528 1.391 . S
C527 C531 1.397 . S
C527 C583 1.419 . S
C528 C524 1.391 . S
C528 C527 1.391 . S
C528 C529 1.399 . S
C529 C528 1.399 . S
C529 C532 1.396 . S
C529 C541 1.453 . S
C529 C542 1.684 . S
H530 C554 0.948 . S
C531 C527 1.397 . S
C531 C532 1.394 . S
C531 C550 1.723 . S
C532 C529 1.396 . S
C532 C531 1.394 . S
C532 C562 1.723 . S
H533 C556 0.947 . S
H534 C557 0.948 . S
H535 C563 0.982 . S
H536 C564 0.979 . S
H537 C564 0.980 . S
H538 C564 0.983 . S
H539 C563 0.979 . S
H540 C563 0.977 . S
C541 C529 1.453 . S
C541 H570 0.982 . S
C541 H571 0.979 . S
C541 H572 0.977 . S
C542 C529 1.684 . S
C542 H567 0.979 . S
C542 H568 0.980 . S
C542 H569 0.983 . S
C543 C544 1.391 . S
C543 C548 1.391 . S
C543 H573 0.948 . S
C544 C543 1.391 . S
C544 C545 1.391 . S
C545 C544 1.391 . S
C545 C546 1.392 . S
C545 H574 0.947 . S
C546 C545 1.392 . S
C546 C547 1.419 . S
C546 H575 0.948 . S
C547 C546 1.419 . S
C547 C548 1.391 . S
C547 C551 1.397 . S
C548 C543 1.391 . S
C548 C547 1.391 . S
C548 C549 1.399 . S
C549 C548 1.399 . S
C549 C550 1.396 . S
C549 C552 1.453 . S
C549 C553 1.684 . S
C550 C531 1.723 . S
C550 C549 1.396 . S
C550 C551 1.394 . S
C551 C547 1.397 . S
C551 C550 1.394 . S
C551 C561 1.723 . S
C552 C549 1.453 . S
C552 H576 0.982 . S
C552 H577 0.979 . S
C552 H578 0.977 . S
C553 C549 1.684 . S
C553 H579 0.979 . S
C553 H580 0.980 . S
C553 H581 0.983 . S
C554 H530 0.948 . S
C554 C555 1.391 . S
C554 C559 1.391 . S
C555 C554 1.391 . S
C555 C556 1.391 . S
C556 H533 0.947 . S
C556 C555 1.391 . S
C556 C557 1.392 . S
C557 H534 0.948 . S
C557 C556 1.392 . S
C557 C558 1.419 . S
C558 C557 1.419 . S
C558 C559 1.391 . S
C558 C562 1.397 . S
C559 C554 1.391 . S
C559 C558 1.391 . S
C559 C560 1.399 . S
C560 C559 1.399 . S
C560 C561 1.396 . S
C560 C563 1.453 . S
C560 C564 1.684 . S
C561 C551 1.723 . S
C561 C560 1.396 . S
C561 C562 1.394 . S
C562 C532 1.723 . S
C562 C558 1.397 . S
C562 C561 1.394 . S
C563 H535 0.982 . S
C563 H539 0.979 . S
C563 H540 0.977 . S
C563 C560 1.453 . S
C564 H536 0.979 . S
C564 H537 0.980 . S
C564 H538 0.983 . S
C564 C560 1.684 . S
H565 C583 0.948 . S
H566 C524 0.948 . S
H567 C542 0.979 . S
H568 C542 0.980 . S
H569 C542 0.983 . S
H570 C541 0.982 . S
H571 C541 0.979 . S
H572 C541 0.977 . S
H573 C543 0.948 . S
H574 C545 0.947 . S
H575 C546 0.948 . S
H576 C552 0.982 . S
H577 C552 0.979 . S
H578 C552 0.977 . S
H579 C553 0.979 . S
H580 C553 0.980 . S
H581 C553 0.983 . S
H582 C526 0.947 . S
C583 C526 1.392 . S
C583 C527 1.419 . S
C583 H565 0.948 . S
C584 C585 1.332 1_556 S
C584 C586 1.328 . S
C584 H609 0.966 . S
C585 C584 1.332 1_554 S
C585 C601 1.349 . S
C586 C584 1.328 . S
C586 C605 1.429 1_556 S
C586 H610 0.950 . S
C587 C604 1.574 . S
C587 C606 1.368 . S
C587 H611 0.949 . S
H588 C592 0.949 . S
C589 C590 1.349 . S
C589 C591 1.327 . S
C589 H612 0.950 . S
C590 C589 1.349 . S
C590 C602 1.349 1_554 S
C591 C589 1.327 . S
C591 C607 1.429 . S
C591 H613 0.950 . S
C592 H588 0.949 . S
C592 C600 1.574 . S
C592 C608 1.368 1_556 S
H593 C601 0.950 . S
H594 C599 0.950 . S
H595 C600 0.949 . S
H596 C602 0.950 . S
H597 C603 0.950 . S
H598 C604 0.949 . S
C599 H594 0.950 . S
C599 C601 1.327 . S
C599 C605 1.429 . S
C600 C592 1.574 . S
C600 H595 0.949 . S
C600 C606 1.368 1_556 S
C601 C585 1.349 . S
C601 H593 0.950 . S
C601 C599 1.327 . S
C602 C590 1.349 1_556 S
C602 H596 0.950 . S
C602 C603 1.327 . S
C603 H597 0.950 . S
C603 C602 1.327 . S
C603 C607 1.429 1_556 S
C604 C587 1.574 . S
C604 H598 0.949 . S
C604 C608 1.368 . S
C605 C586 1.429 1_554 S
C605 C599 1.429 . S
C605 C606 1.523 . S
C606 C587 1.368 . S
C606 C600 1.368 1_554 S
C606 C605 1.523 . S
C607 C591 1.429 . S
C607 C603 1.429 1_554 S
C607 C608 1.523 . S
C608 C592 1.368 1_554 S
C608 C604 1.368 . S
C608 C607 1.523 . S
H609 C584 0.966 . S
H610 C586 0.950 . S
H611 C587 0.949 . S
H612 C589 0.950 . S
H613 C591 0.950 . S
C614 C615 1.349 . S
C614 C616 1.327 . S
C614 H639 0.950 . S
C615 C614 1.349 . S
C615 C631 1.328 1_554 S
C616 C614 1.327 . S
C616 C635 1.429 . S
C616 H640 0.950 . S
C617 C634 1.574 . S
C617 C636 1.368 1_556 S
C617 H641 0.949 . S
H618 C622 0.949 . S
C619 C620 1.349 1_556 S
C619 C621 1.327 . S
C619 H642 0.950 . S
C620 C619 1.349 1_554 S
C620 C632 1.349 . S
C621 C619 1.327 . S
C621 C637 1.429 1_556 S
C621 H643 0.950 . S
C622 H618 0.949 . S
C622 C630 1.574 . S
C622 C638 1.368 . S
H623 C631 0.971 . S
H624 C629 0.950 . S
H625 C630 0.949 . S
H626 C632 0.950 . S
H627 C633 0.950 . S
H628 C634 0.949 . S
C629 H624 0.950 . S
C629 C631 1.328 . S
C629 C635 1.429 1_556 S
C630 C622 1.574 . S
C630 H625 0.949 . S
C630 C636 1.368 . S
C631 C615 1.328 1_556 S
C631 H623 0.971 . S
C631 C629 1.328 . S
C632 C620 1.349 . S
C632 H626 0.950 . S
C632 C633 1.327 . S
C633 H627 0.950 . S
C633 C632 1.327 . S
C633 C637 1.429 . S
C634 C617 1.574 . S
C634 H628 0.949 . S
C634 C638 1.368 1_556 S
C635 C616 1.429 . S
C635 C629 1.429 1_554 S
C635 C636 1.523 . S
C636 C617 1.368 1_554 S
C636 C630 1.368 . S
C636 C635 1.523 . S
C637 C621 1.429 1_554 S
C637 C633 1.429 . S
C637 C638 1.523 . S
C638 C622 1.368 . S
C638 C634 1.368 1_554 S
C638 C637 1.523 . S
H639 C614 0.950 . S
H640 C616 0.950 . S
H641 C617 0.949 . S
H642 C619 0.950 . S
H643 C621 0.950 . S
C644 C645 1.349 . S
C644 C646 1.327 . S
C644 H669 0.950 . S
C645 C644 1.349 . S
C645 C661 1.325 1_554 S
C646 C644 1.327 . S
C646 C665 1.429 . S
C646 H670 0.950 . S
C647 C664 1.574 . S
C647 C666 1.368 1_556 S
C647 H671 0.949 . S
H648 C652 0.949 . S
C649 C650 1.349 1_556 S
C649 C651 1.327 . S
C649 H672 0.950 . S
C650 C649 1.349 1_554 S
C650 C662 1.349 . S
C651 C649 1.327 . S
C651 C667 1.429 1_556 S
C651 H673 0.950 . S
C652 H648 0.949 . S
C652 C660 1.574 . S
C652 C668 1.368 . S
H653 C661 0.974 . S
H654 C659 0.950 . S
H655 C660 0.949 . S
H656 C662 0.950 . S
H657 C663 0.950 . S
H658 C664 0.949 . S
C659 H654 0.950 . S
C659 C661 1.328 . S
C659 C665 1.429 1_556 S
C660 C652 1.574 . S
C660 H655 0.949 . S
C660 C666 1.368 . S
C661 C645 1.325 1_556 S
C661 H653 0.974 . S
C661 C659 1.328 . S
C662 C650 1.349 . S
C662 H656 0.950 . S
C662 C663 1.327 . S
C663 H657 0.950 . S
C663 C662 1.327 . S
C663 C667 1.429 . S
C664 C647 1.574 . S
C664 H658 0.949 . S
C664 C668 1.368 1_556 S
C665 C646 1.429 . S
C665 C659 1.429 1_554 S
C665 C666 1.523 . S
C666 C647 1.368 1_554 S
C666 C660 1.368 . S
C666 C665 1.523 . S
C667 C651 1.429 1_554 S
C667 C663 1.429 . S
C667 C668 1.523 . S
C668 C652 1.368 . S
C668 C664 1.368 1_554 S
C668 C667 1.523 . S
H669 C644 0.950 . S
H670 C646 0.950 . S
H671 C647 0.949 . S
H672 C649 0.950 . S
H673 C651 0.950 . S
C674 C675 1.333 1_556 S
C674 C676 1.328 . S
C674 H699 0.965 . S
C675 C674 1.333 1_554 S
C675 C691 1.349 . S
C676 C674 1.328 . S
C676 C695 1.429 1_556 S
C676 H700 0.950 . S
C677 C694 1.574 . S
C677 C696 1.368 . S
C677 H701 0.949 . S
H678 C682 0.949 . S
C679 C680 1.349 . S
C679 C681 1.327 . S
C679 H702 0.950 . S
C680 C679 1.349 . S
C680 C692 1.349 1_554 S
C681 C679 1.327 . S
C681 C697 1.429 . S
C681 H703 0.950 . S
C682 H678 0.949 . S
C682 C690 1.574 . S
C682 C698 1.368 1_556 S
H683 C691 0.950 . S
H684 C689 0.950 . S
H685 C690 0.949 . S
H686 C692 0.950 . S
H687 C693 0.950 . S
H688 C694 0.949 . S
C689 H684 0.950 . S
C689 C691 1.327 . S
C689 C695 1.429 . S
C690 C682 1.574 . S
C690 H685 0.949 . S
C690 C696 1.368 1_556 S
C691 C675 1.349 . S
C691 H683 0.950 . S
C691 C689 1.327 . S
C692 C680 1.349 1_556 S
C692 H686 0.950 . S
C692 C693 1.327 . S
C693 H687 0.950 . S
C693 C692 1.327 . S
C693 C697 1.429 1_556 S
C694 C677 1.574 . S
C694 H688 0.949 . S
C694 C698 1.368 . S
C695 C676 1.429 1_554 S
C695 C689 1.429 . S
C695 C696 1.523 . S
C696 C677 1.368 . S
C696 C690 1.368 1_554 S
C696 C695 1.523 . S
C697 C681 1.429 . S
C697 C693 1.429 1_554 S
C697 C698 1.523 . S
C698 C682 1.368 1_554 S
C698 C694 1.368 . S
C698 C697 1.523 . S
H699 C674 0.965 . S
H700 C676 0.950 . S
H701 C677 0.949 . S
H702 C679 0.950 . S
H703 C681 0.950 . S
C704 C705 1.349 . S
C704 C706 1.327 . S
C704 H729 0.950 . S
C705 C704 1.349 . S
C705 C721 1.349 . S
C706 C704 1.327 . S
C706 C725 1.429 . S
C706 H730 0.950 . S
C707 C724 1.574 . S
C707 C726 1.368 . S
C707 H731 0.949 . S
H708 C712 0.949 . S
C709 C710 1.349 . S
C709 C711 1.327 . S
C709 H732 0.950 . S
C710 C709 1.349 . S
C710 C722 1.349 . S
C711 C709 1.327 . S
C711 C727 1.429 . S
C711 H733 0.950 . S
C712 H708 0.949 . S
C712 C720 1.574 . S
C712 C728 1.368 . S
H713 C721 0.950 . S
H714 C719 0.950 . S
H715 C720 0.949 . S
H716 C722 0.950 . S
H717 C723 0.950 . S
H718 C724 0.949 . S
C719 H714 0.950 . S
C719 C721 1.327 . S
C719 C725 1.429 . S
C720 C712 1.574 . S
C720 H715 0.949 . S
C720 C726 1.368 . S
C721 C705 1.349 . S
C721 H713 0.950 . S
C721 C719 1.327 . S
C722 C710 1.349 . S
C722 H716 0.950 . S
C722 C723 1.327 . S
C723 H717 0.950 . S
C723 C722 1.327 . S
C723 C727 1.429 . S
C724 C707 1.574 . S
C724 H718 0.949 . S
C724 C728 1.368 . S
C725 C706 1.429 . S
C725 C719 1.429 . S
C725 C726 1.523 . S
C726 C707 1.368 . S
C726 C720 1.368 . S
C726 C725 1.523 . S
C727 C711 1.429 . S
C727 C723 1.429 . S
C727 C728 1.523 . S
C728 C712 1.368 . S
C728 C724 1.368 . S
C728 C727 1.523 . S
H729 C704 0.950 . S
H730 C706 0.950 . S
H731 C707 0.949 . S
H732 C709 0.950 . S
H733 C711 0.950 . S
C734 C735 1.349 . S
C734 C736 1.327 . S
C734 H759 0.950 . S
C735 C734 1.349 . S
C735 C751 1.349 . S
C736 C734 1.327 . S
C736 C755 1.429 . S
C736 H760 0.950 . S
C737 C754 1.574 . S
C737 C756 1.368 . S
C737 H761 0.949 . S
H738 C742 0.949 . S
C739 C740 1.349 . S
C739 C741 1.327 . S
C739 H762 0.950 . S
C740 C739 1.349 . S
C740 C752 1.349 . S
C741 C739 1.327 . S
C741 C757 1.429 . S
C741 H763 0.950 . S
C742 H738 0.949 . S
C742 C750 1.574 . S
C742 C758 1.368 . S
H743 C751 0.950 . S
H744 C749 0.950 . S
H745 C750 0.949 . S
H746 C752 0.950 . S
H747 C753 0.950 . S
H748 C754 0.949 . S
C749 H744 0.950 . S
C749 C751 1.327 . S
C749 C755 1.429 . S
C750 C742 1.574 . S
C750 H745 0.949 . S
C750 C756 1.368 . S
C751 C735 1.349 . S
C751 H743 0.950 . S
C751 C749 1.327 . S
C752 C740 1.349 . S
C752 H746 0.950 . S
C752 C753 1.327 . S
C753 H747 0.950 . S
C753 C752 1.327 . S
C753 C757 1.429 . S
C754 C737 1.574 . S
C754 H748 0.949 . S
C754 C758 1.368 . S
C755 C736 1.429 . S
C755 C749 1.429 . S
C755 C756 1.523 . S
C756 C737 1.368 . S
C756 C750 1.368 . S
C756 C755 1.523 . S
C757 C741 1.429 . S
C757 C753 1.429 . S
C757 C758 1.523 . S
C758 C742 1.368 . S
C758 C754 1.368 . S
C758 C757 1.523 . S
H759 C734 0.950 . S
H760 C736 0.950 . S
H761 C737 0.949 . S
H762 C739 0.950 . S
H763 C741 0.950 . S
C764 C765 1.349 . S
C764 C766 1.327 . S
C764 H789 0.950 . S
C765 C764 1.349 . S
C765 C781 1.349 . S
C766 C764 1.327 . S
C766 C785 1.429 . S
C766 H790 0.950 . S
C767 C784 1.574 . S
C767 C786 1.368 . S
C767 H791 0.949 . S
H768 C772 0.949 . S
C769 C770 1.349 . S
C769 C771 1.327 . S
C769 H792 0.950 . S
C770 C769 1.349 . S
C770 C782 1.349 . S
C771 C769 1.327 . S
C771 C787 1.429 . S
C771 H793 0.950 . S
C772 H768 0.949 . S
C772 C780 1.574 . S
C772 C788 1.368 . S
H773 C781 0.950 . S
H774 C779 0.950 . S
H775 C780 0.949 . S
H776 C782 0.950 . S
H777 C783 0.950 . S
H778 C784 0.949 . S
C779 H774 0.950 . S
C779 C781 1.327 . S
C779 C785 1.429 . S
C780 C772 1.574 . S
C780 H775 0.949 . S
C780 C786 1.368 . S
C781 C765 1.349 . S
C781 H773 0.950 . S
C781 C779 1.327 . S
C782 C770 1.349 . S
C782 H776 0.950 . S
C782 C783 1.327 . S
C783 H777 0.950 . S
C783 C782 1.327 . S
C783 C787 1.429 . S
C784 C767 1.574 . S
C784 H778 0.949 . S
C784 C788 1.368 . S
C785 C766 1.429 . S
C785 C779 1.429 . S
C785 C786 1.523 . S
C786 C767 1.368 . S
C786 C780 1.368 . S
C786 C785 1.523 . S
C787 C771 1.429 . S
C787 C783 1.429 . S
C787 C788 1.523 . S
C788 C772 1.368 . S
C788 C784 1.368 . S
C788 C787 1.523 . S
H789 C764 0.950 . S
H790 C766 0.950 . S
H791 C767 0.949 . S
H792 C769 0.950 . S
H793 C771 0.950 . S
C794 C795 1.349 . S
C794 C796 1.327 . S
C794 H819 0.950 . S
C795 C794 1.349 . S
C795 C811 1.349 . S
C796 C794 1.327 . S
C796 C815 1.429 . S
C796 H820 0.950 . S
C797 C814 1.574 . S
C797 C816 1.368 . S
C797 H821 0.949 . S
H798 C802 0.949 . S
C799 C800 1.349 . S
C799 C801 1.327 . S
C799 H822 0.950 . S
C800 C799 1.349 . S
C800 C812 1.349 . S
C801 C799 1.327 . S
C801 C817 1.429 . S
C801 H823 0.950 . S
C802 H798 0.949 . S
C802 C810 1.574 . S
C802 C818 1.368 . S
H803 C811 0.950 . S
H804 C809 0.950 . S
H805 C810 0.949 . S
H806 C812 0.950 . S
H807 C813 0.950 . S
H808 C814 0.949 . S
C809 H804 0.950 . S
C809 C811 1.327 . S
C809 C815 1.429 . S
C810 C802 1.574 . S
C810 H805 0.949 . S
C810 C816 1.368 . S
C811 C795 1.349 . S
C811 H803 0.950 . S
C811 C809 1.327 . S
C812 C800 1.349 . S
C812 H806 0.950 . S
C812 C813 1.327 . S
C813 H807 0.950 . S
C813 C812 1.327 . S
C813 C817 1.429 . S
C814 C797 1.574 . S
C814 H808 0.949 . S
C814 C818 1.368 . S
C815 C796 1.429 . S
C815 C809 1.429 . S
C815 C816 1.523 . S
C816 C797 1.368 . S
C816 C810 1.368 . S
C816 C815 1.523 . S
C817 C801 1.429 . S
C817 C813 1.429 . S
C817 C818 1.523 . S
C818 C802 1.368 . S
C818 C814 1.368 . S
C818 C817 1.523 . S
H819 C794 0.950 . S
H820 C796 0.950 . S
H821 C797 0.949 . S
H822 C799 0.950 . S
H823 C801 0.950 . S
C824 C825 1.349 . S
C824 C826 1.327 . S
C824 H849 0.950 . S
C825 C824 1.349 . S
C825 C841 1.349 . S
C826 C824 1.327 . S
C826 C845 1.429 . S
C826 H850 0.950 . S
C827 C844 1.574 . S
C827 C846 1.368 . S
C827 H851 0.949 . S
H828 C832 0.949 . S
C829 C830 1.349 . S
C829 C831 1.327 . S
C829 H852 0.950 . S
C830 C829 1.349 . S
C830 C842 1.349 . S
C831 C829 1.327 . S
C831 C847 1.429 . S
C831 H853 0.950 . S
C832 H828 0.949 . S
C832 C840 1.574 . S
C832 C848 1.368 . S
H833 C841 0.950 . S
H834 C839 0.950 . S
H835 C840 0.949 . S
H836 C842 0.950 . S
H837 C843 0.950 . S
H838 C844 0.949 . S
C839 H834 0.950 . S
C839 C841 1.327 . S
C839 C845 1.429 . S
C840 C832 1.574 . S
C840 H835 0.949 . S
C840 C846 1.368 . S
C841 C825 1.349 . S
C841 H833 0.950 . S
C841 C839 1.327 . S
C842 C830 1.349 . S
C842 H836 0.950 . S
C842 C843 1.327 . S
C843 H837 0.950 . S
C843 C842 1.327 . S
C843 C847 1.429 . S
C844 C827 1.574 . S
C844 H838 0.949 . S
C844 C848 1.368 . S
C845 C826 1.429 . S
C845 C839 1.429 . S
C845 C846 1.523 . S
C846 C827 1.368 . S
C846 C840 1.368 . S
C846 C845 1.523 . S
C847 C831 1.429 . S
C847 C843 1.429 . S
C847 C848 1.523 . S
C848 C832 1.368 . S
C848 C844 1.368 . S
C848 C847 1.523 . S
H849 C824 0.950 . S
H850 C826 0.950 . S
H851 C827 0.949 . S
H852 C829 0.950 . S
H853 C831 0.950 . S
C854 C855 1.349 . S
C854 C856 1.327 . S
C854 H879 0.937 1_545 S
C855 C854 1.349 . S
C855 C871 1.349 . S
C856 C854 1.327 . S
C856 C875 1.429 . S
C856 H880 0.950 . S
C857 C874 1.574 . S
C857 C876 1.368 . S
C857 H881 0.949 . S
H858 C862 0.949 . S
C859 C860 1.349 . S
C859 C861 1.327 . S
C859 H882 0.950 . S
C860 C859 1.349 . S
C860 C872 1.349 . S
C861 C859 1.327 . S
C861 C877 1.429 . S
C861 H883 0.950 . S
C862 H858 0.949 . S
C862 C870 1.574 . S
C862 C878 1.368 . S
H863 C871 0.950 . S
H864 C869 0.950 . S
H865 C870 0.949 . S
H866 C872 0.950 . S
H867 C873 0.950 . S
H868 C874 0.949 . S
C869 H864 0.950 . S
C869 C871 1.327 . S
C869 C875 1.429 . S
C870 C862 1.574 . S
C870 H865 0.949 . S
C870 C876 1.368 . S
C871 C855 1.349 . S
C871 H863 0.950 . S
C871 C869 1.327 . S
C872 C860 1.349 . S
C872 H866 0.950 . S
C872 C873 1.327 . S
C873 H867 0.950 . S
C873 C872 1.327 . S
C873 C877 1.429 . S
C874 C857 1.574 . S
C874 H868 0.949 . S
C874 C878 1.368 . S
C875 C856 1.429 . S
C875 C869 1.429 . S
C875 C876 1.523 . S
C876 C857 1.368 . S
C876 C870 1.368 . S
C876 C875 1.523 . S
C877 C861 1.429 . S
C877 C873 1.429 . S
C877 C878 1.523 . S
C878 C862 1.368 . S
C878 C874 1.368 . S
C878 C877 1.523 . S
H879 C854 0.937 1_565 S
H880 C856 0.950 . S
H881 C857 0.949 . S
H882 C859 0.950 . S
H883 C861 0.950 . S
C884 C885 1.349 . S
C884 C886 1.327 . S
C884 H909 0.950 1_655 S
C885 C884 1.349 . S
C885 C901 1.349 . S
C886 C884 1.327 . S
C886 C905 1.429 . S
C886 H910 0.950 . S
C887 C904 1.574 . S
C887 C906 1.368 . S
C887 H911 0.949 . S
H888 C892 0.949 . S
C889 C890 1.349 . S
C889 C891 1.327 . S
C889 H912 0.950 . S
C890 C889 1.349 . S
C890 C902 1.349 . S
C891 C889 1.327 . S
C891 C907 1.429 . S
C891 H913 0.950 . S
C892 H888 0.949 . S
C892 C900 1.574 . S
C892 C908 1.368 . S
H893 C901 0.950 . S
H894 C899 0.950 . S
H895 C900 0.949 . S
H896 C902 0.950 . S
H897 C903 0.950 . S
H898 C904 0.949 . S
C899 H894 0.950 . S
C899 C901 1.327 . S
C899 C905 1.429 . S
C900 C892 1.574 . S
C900 H895 0.949 . S
C900 C906 1.368 . S
C901 C885 1.349 . S
C901 H893 0.950 . S
C901 C899 1.327 . S
C902 C890 1.349 . S
C902 H896 0.950 . S
C902 C903 1.327 . S
C903 H897 0.950 . S
C903 C902 1.327 . S
C903 C907 1.429 . S
C904 C887 1.574 . S
C904 H898 0.949 . S
C904 C908 1.368 . S
C905 C886 1.429 . S
C905 C899 1.429 . S
C905 C906 1.523 . S
C906 C887 1.368 . S
C906 C900 1.368 . S
C906 C905 1.523 . S
C907 C891 1.429 . S
C907 C903 1.429 . S
C907 C908 1.523 . S
C908 C892 1.368 . S
C908 C904 1.368 . S
C908 C907 1.523 . S
H909 C884 0.950 1_455 S
H910 C886 0.950 . S
H911 C887 0.949 . S
H912 C889 0.950 . S
H913 C891 0.950 . S
C914 C915 1.349 . S
C914 C916 1.327 . S
C914 H939 0.950 . S
C915 C914 1.349 . S
C915 C931 1.349 . S
C916 C914 1.327 . S
C916 C935 1.429 . S
C916 H940 0.950 . S
C917 C934 1.574 . S
C917 C936 1.368 . S
C917 H941 0.949 . S
H918 C922 0.949 . S
C919 C920 1.349 . S
C919 C921 1.327 . S
C919 H942 0.950 . S
C920 C919 1.349 . S
C920 C932 1.349 . S
C921 C919 1.327 . S
C921 C937 1.429 . S
C921 H943 0.950 . S
C922 H918 0.949 . S
C922 C930 1.574 . S
C922 C938 1.368 . S
H923 C931 0.950 . S
H924 C929 0.950 . S
H925 C930 0.949 . S
H926 C932 0.950 . S
H927 C933 0.950 . S
H928 C934 0.949 . S
C929 H924 0.950 . S
C929 C931 1.327 . S
C929 C935 1.429 . S
C930 C922 1.574 . S
C930 H925 0.949 . S
C930 C936 1.368 . S
C931 C915 1.349 . S
C931 H923 0.950 . S
C931 C929 1.327 . S
C932 C920 1.349 . S
C932 H926 0.950 . S
C932 C933 1.327 . S
C933 H927 0.950 . S
C933 C932 1.327 . S
C933 C937 1.429 . S
C934 C917 1.574 . S
C934 H928 0.949 . S
C934 C938 1.368 . S
C935 C916 1.429 . S
C935 C929 1.429 . S
C935 C936 1.523 . S
C936 C917 1.368 . S
C936 C930 1.368 . S
C936 C935 1.523 . S
C937 C921 1.429 . S
C937 C933 1.429 . S
C937 C938 1.523 . S
C938 C922 1.368 . S
C938 C934 1.368 . S
C938 C937 1.523 . S
H939 C914 0.950 . S
H940 C916 0.950 . S
H941 C917 0.949 . S
H942 C919 0.950 . S
H943 C921 0.950 . S
C944 C945 1.349 . S
C944 C946 1.327 . S
C944 H969 0.950 . S
C945 C944 1.349 . S
C945 C961 1.349 . S
C946 C944 1.327 . S
C946 C965 1.429 . S
C946 H970 0.950 . S
C947 C964 1.574 . S
C947 C966 1.368 . S
C947 H971 0.949 . S
H948 C952 0.949 . S
C949 C950 1.349 . S
C949 C951 1.327 . S
C949 H972 0.950 . S
C950 C949 1.349 . S
C950 C962 1.349 . S
C951 C949 1.327 . S
C951 C967 1.429 . S
C951 H973 0.950 . S
C952 H948 0.949 . S
C952 C960 1.574 . S
C952 C968 1.368 . S
H953 C961 0.950 . S
H954 C959 0.950 . S
H955 C960 0.949 . S
H956 C962 0.950 . S
H957 C963 0.950 . S
H958 C964 0.949 . S
C959 H954 0.950 . S
C959 C961 1.327 . S
C959 C965 1.429 . S
C960 C952 1.574 . S
C960 H955 0.949 . S
C960 C966 1.368 . S
C961 C945 1.349 . S
C961 H953 0.950 . S
C961 C959 1.327 . S
C962 C950 1.349 . S
C962 H956 0.950 . S
C962 C963 1.327 . S
C963 H957 0.950 . S
C963 C962 1.327 . S
C963 C967 1.429 . S
C964 C947 1.574 . S
C964 H958 0.949 . S
C964 C968 1.368 . S
C965 C946 1.429 . S
C965 C959 1.429 . S
C965 C966 1.523 . S
C966 C947 1.368 . S
C966 C960 1.368 . S
C966 C965 1.523 . S
C967 C951 1.429 . S
C967 C963 1.429 . S
C967 C968 1.523 . S
C968 C952 1.368 . S
C968 C964 1.368 . S
C968 C967 1.523 . S
H969 C944 0.950 . S
H970 C946 0.950 . S
H971 C947 0.949 . S
H972 C949 0.950 . S
H973 C951 0.950 . S
C974 C975 1.349 . S
C974 C976 1.327 . S
C974 H999 0.950 . S
C975 C974 1.349 . S
C975 C991 1.349 . S
C976 C974 1.327 . S
C976 C995 1.429 . S
C976 H1000 0.950 . S
C977 C994 1.574 . S
C977 C996 1.368 . S
C977 H1001 0.949 . S
H978 C982 0.949 . S
C979 C980 1.349 . S
C979 C981 1.327 . S
C979 H1002 0.950 . S
C980 C979 1.349 . S
C980 C992 1.349 . S
C981 C979 1.327 . S
C981 C997 1.429 . S
C981 H1003 0.950 . S
C982 H978 0.949 . S
C982 C990 1.574 . S
C982 C998 1.368 . S
H983 C991 0.950 . S
H984 C989 0.950 . S
H985 C990 0.949 . S
H986 C992 0.950 . S
H987 C993 0.950 . S
H988 C994 0.949 . S
C989 H984 0.950 . S
C989 C991 1.327 . S
C989 C995 1.429 . S
C990 C982 1.574 . S
C990 H985 0.949 . S
C990 C996 1.368 . S
C991 C975 1.349 . S
C991 H983 0.950 . S
C991 C989 1.327 . S
C992 C980 1.349 . S
C992 H986 0.950 . S
C992 C993 1.327 . S
C993 H987 0.950 . S
C993 C992 1.327 . S
C993 C997 1.429 . S
C994 C977 1.574 . S
C994 H988 0.949 . S
C994 C998 1.368 . S
C995 C976 1.429 . S
C995 C989 1.429 . S
C995 C996 1.523 . S
C996 C977 1.368 . S
C996 C990 1.368 . S
C996 C995 1.523 . S
C997 C981 1.429 . S
C997 C993 1.429 . S
C997 C998 1.523 . S
C998 C982 1.368 . S
C998 C994 1.368 . S
C998 C997 1.523 . S
H999 C974 0.950 . S
H1000 C976 0.950 . S
H1001 C977 0.949 . S
H1002 C979 0.950 . S
H1003 C981 0.950 . S
C1004 C1005 1.349 . S
C1004 C1006 1.327 . S
C1004 H1029 0.950 . S
C1005 C1004 1.349 . S
C1005 C1021 1.349 . S
C1006 C1004 1.327 . S
C1006 C1025 1.429 . S
C1006 H1030 0.950 . S
C1007 C1024 1.574 . S
C1007 C1026 1.368 . S
C1007 H1031 0.949 . S
H1008 C1012 0.949 . S
C1009 C1010 1.349 . S
C1009 C1011 1.327 . S
C1009 H1032 0.950 . S
C1010 C1009 1.349 . S
C1010 C1022 1.349 . S
C1011 C1009 1.327 . S
C1011 C1027 1.429 . S
C1011 H1033 0.950 . S
C1012 H1008 0.949 . S
C1012 C1020 1.574 . S
C1012 C1028 1.368 . S
H1013 C1021 0.950 1_565 S
H1014 C1019 0.950 . S
H1015 C1020 0.949 . S
H1016 C1022 0.950 . S
H1017 C1023 0.950 . S
H1018 C1024 0.949 . S
C1019 H1014 0.950 . S
C1019 C1021 1.327 . S
C1019 C1025 1.429 . S
C1020 C1012 1.574 . S
C1020 H1015 0.949 . S
C1020 C1026 1.368 . S
C1021 C1005 1.349 . S
C1021 H1013 0.950 1_545 S
C1021 C1019 1.327 . S
C1022 C1010 1.349 . S
C1022 H1016 0.950 . S
C1022 C1023 1.327 . S
C1023 H1017 0.950 . S
C1023 C1022 1.327 . S
C1023 C1027 1.429 . S
C1024 C1007 1.574 . S
C1024 H1018 0.949 . S
C1024 C1028 1.368 . S
C1025 C1006 1.429 . S
C1025 C1019 1.429 . S
C1025 C1026 1.523 . S
C1026 C1007 1.368 . S
C1026 C1020 1.368 . S
C1026 C1025 1.523 . S
C1027 C1011 1.429 . S
C1027 C1023 1.429 . S
C1027 C1028 1.523 . S
C1028 C1012 1.368 . S
C1028 C1024 1.368 . S
C1028 C1027 1.523 . S
H1029 C1004 0.950 . S
H1030 C1006 0.950 . S
H1031 C1007 0.949 . S
H1032 C1009 0.950 . S
H1033 C1011 0.950 . S
C1034 C1035 1.349 . S
C1034 C1036 1.327 . S
C1034 H1059 0.950 . S
C1035 C1034 1.349 . S
C1035 C1051 1.349 . S
C1036 C1034 1.327 . S
C1036 C1055 1.429 . S
C1036 H1060 0.950 . S
C1037 C1054 1.574 . S
C1037 C1056 1.368 . S
C1037 H1061 0.949 . S
H1038 C1042 0.949 . S
C1039 C1040 1.349 . S
C1039 C1041 1.327 . S
C1039 H1062 0.950 . S
C1040 C1039 1.349 . S
C1040 C1052 1.349 . S
C1041 C1039 1.327 . S
C1041 C1057 1.429 . S
C1041 H1063 0.950 . S
C1042 H1038 0.949 . S
C1042 C1050 1.574 . S
C1042 C1058 1.368 . S
H1043 C1051 0.950 . S
H1044 C1049 0.950 . S
H1045 C1050 0.949 . S
H1046 C1052 0.950 . S
H1047 C1053 0.950 . S
H1048 C1054 0.949 . S
C1049 H1044 0.950 . S
C1049 C1051 1.327 . S
C1049 C1055 1.429 . S
C1050 C1042 1.574 . S
C1050 H1045 0.949 . S
C1050 C1056 1.368 . S
C1051 C1035 1.349 . S
C1051 H1043 0.950 . S
C1051 C1049 1.327 . S
C1052 C1040 1.349 . S
C1052 H1046 0.950 . S
C1052 C1053 1.327 . S
C1053 H1047 0.950 . S
C1053 C1052 1.327 . S
C1053 C1057 1.429 . S
C1054 C1037 1.574 . S
C1054 H1048 0.949 . S
C1054 C1058 1.368 . S
C1055 C1036 1.429 . S
C1055 C1049 1.429 . S
C1055 C1056 1.523 . S
C1056 C1037 1.368 . S
C1056 C1050 1.368 . S
C1056 C1055 1.523 . S
C1057 C1041 1.429 . S
C1057 C1053 1.429 . S
C1057 C1058 1.523 . S
C1058 C1042 1.368 . S
C1058 C1054 1.368 . S
C1058 C1057 1.523 . S
H1059 C1034 0.950 . S
H1060 C1036 0.950 . S
H1061 C1037 0.949 . S
H1062 C1039 0.950 . S
H1063 C1041 0.950 . S
C1064 C1065 1.349 . S
C1064 C1066 1.327 . S
C1064 H1089 0.950 . S
C1065 C1064 1.349 . S
C1065 C1081 1.349 . S
C1066 C1064 1.327 . S
C1066 C1085 1.429 . S
C1066 H1090 0.950 . S
C1067 C1084 1.574 . S
C1067 C1086 1.368 . S
C1067 H1091 0.949 . S
H1068 C1072 0.949 . S
C1069 C1070 1.349 . S
C1069 C1071 1.327 . S
C1069 H1092 0.950 . S
C1070 C1069 1.349 . S
C1070 C1082 1.349 . S
C1071 C1069 1.327 . S
C1071 C1087 1.429 . S
C1071 H1093 0.950 . S
C1072 H1068 0.949 . S
C1072 C1080 1.574 . S
C1072 C1088 1.368 . S
H1073 C1081 0.950 . S
H1074 C1079 0.950 . S
H1075 C1080 0.949 . S
H1076 C1082 0.950 . S
H1077 C1083 0.950 . S
H1078 C1084 0.949 . S
C1079 H1074 0.950 . S
C1079 C1081 1.327 . S
C1079 C1085 1.429 . S
C1080 C1072 1.574 . S
C1080 H1075 0.949 . S
C1080 C1086 1.368 . S
C1081 C1065 1.349 . S
C1081 H1073 0.950 . S
C1081 C1079 1.327 . S
C1082 C1070 1.349 . S
C1082 H1076 0.950 . S
C1082 C1083 1.327 . S
C1083 H1077 0.950 . S
C1083 C1082 1.327 . S
C1083 C1087 1.429 . S
C1084 C1067 1.574 . S
C1084 H1078 0.949 . S
C1084 C1088 1.368 . S
C1085 C1066 1.429 . S
C1085 C1079 1.429 . S
C1085 C1086 1.523 . S
C1086 C1067 1.368 . S
C1086 C1080 1.368 . S
C1086 C1085 1.523 . S
C1087 C1071 1.429 . S
C1087 C1083 1.429 . S
C1087 C1088 1.523 . S
C1088 C1072 1.368 . S
C1088 C1084 1.368 . S
C1088 C1087 1.523 . S
H1089 C1064 0.950 . S
H1090 C1066 0.950 . S
H1091 C1067 0.949 . S
H1092 C1069 0.950 . S
H1093 C1071 0.950 . S
C1094 C1095 1.349 . S
C1094 C1096 1.327 . S
C1094 H1119 0.950 . S
C1095 C1094 1.349 . S
C1095 C1111 1.349 . S
C1096 C1094 1.327 . S
C1096 C1115 1.429 . S
C1096 H1120 0.950 . S
C1097 C1114 1.574 . S
C1097 C1116 1.368 . S
C1097 H1121 0.949 . S
H1098 C1102 0.949 . S
C1099 C1100 1.349 . S
C1099 C1101 1.327 . S
C1099 H1122 0.950 . S
C1100 C1099 1.349 . S
C1100 C1112 1.349 . S
C1101 C1099 1.327 . S
C1101 C1117 1.429 . S
C1101 H1123 0.950 . S
C1102 H1098 0.949 . S
C1102 C1110 1.574 . S
C1102 C1118 1.368 . S
H1103 C1111 0.950 . S
H1104 C1109 0.950 . S
H1105 C1110 0.949 . S
H1106 C1112 0.950 . S
H1107 C1113 0.950 . S
H1108 C1114 0.949 . S
C1109 H1104 0.950 . S
C1109 C1111 1.327 . S
C1109 C1115 1.429 . S
C1110 C1102 1.574 . S
C1110 H1105 0.949 . S
C1110 C1116 1.368 . S
C1111 C1095 1.349 . S
C1111 H1103 0.950 . S
C1111 C1109 1.327 . S
C1112 C1100 1.349 . S
C1112 H1106 0.950 . S
C1112 C1113 1.327 . S
C1113 H1107 0.950 . S
C1113 C1112 1.327 . S
C1113 C1117 1.429 . S
C1114 C1097 1.574 . S
C1114 H1108 0.949 . S
C1114 C1118 1.368 . S
C1115 C1096 1.429 . S
C1115 C1109 1.429 . S
C1115 C1116 1.523 . S
C1116 C1097 1.368 . S
C1116 C1110 1.368 . S
C1116 C1115 1.523 . S
C1117 C1101 1.429 . S
C1117 C1113 1.429 . S
C1117 C1118 1.523 . S
C1118 C1102 1.368 . S
C1118 C1114 1.368 . S
C1118 C1117 1.523 . S
H1119 C1094 0.950 . S
H1120 C1096 0.950 . S
H1121 C1097 0.949 . S
H1122 C1099 0.950 . S
H1123 C1101 0.950 . S
C1124 C1125 1.349 . S
C1124 C1126 1.327 . S
C1124 H1149 0.950 . S
C1125 C1124 1.349 . S
C1125 C1141 1.349 . S
C1126 C1124 1.327 . S
C1126 C1145 1.429 . S
C1126 H1150 0.950 . S
C1127 C1144 1.574 . S
C1127 C1146 1.368 . S
C1127 H1151 0.949 . S
H1128 C1132 0.949 . S
C1129 C1130 1.349 . S
C1129 C1131 1.327 . S
C1129 H1152 0.950 . S
C1130 C1129 1.349 . S
C1130 C1142 1.349 . S
C1131 C1129 1.327 . S
C1131 C1147 1.429 . S
C1131 H1153 0.950 . S
C1132 H1128 0.949 . S
C1132 C1140 1.574 . S
C1132 C1148 1.368 . S
H1133 C1141 0.950 . S
H1134 C1139 0.950 . S
H1135 C1140 0.949 . S
H1136 C1142 0.950 . S
H1137 C1143 0.950 . S
H1138 C1144 0.949 . S
C1139 H1134 0.950 . S
C1139 C1141 1.327 . S
C1139 C1145 1.429 . S
C1140 C1132 1.574 . S
C1140 H1135 0.949 . S
C1140 C1146 1.368 . S
C1141 C1125 1.349 . S
C1141 H1133 0.950 . S
C1141 C1139 1.327 . S
C1142 C1130 1.349 . S
C1142 H1136 0.950 . S
C1142 C1143 1.327 . S
C1143 H1137 0.950 . S
C1143 C1142 1.327 . S
C1143 C1147 1.429 . S
C1144 C1127 1.574 . S
C1144 H1138 0.949 . S
C1144 C1148 1.368 . S
C1145 C1126 1.429 . S
C1145 C1139 1.429 . S
C1145 C1146 1.523 . S
C1146 C1127 1.368 . S
C1146 C1140 1.368 . S
C1146 C1145 1.523 . S
C1147 C1131 1.429 . S
C1147 C1143 1.429 . S
C1147 C1148 1.523 . S
C1148 C1132 1.368 . S
C1148 C1144 1.368 . S
C1148 C1147 1.523 . S
H1149 C1124 0.950 . S
H1150 C1126 0.950 . S
H1151 C1127 0.949 . S
H1152 C1129 0.950 . S
H1153 C1131 0.950 . S
C1154 C1155 1.349 . S
C1154 C1156 1.327 . S
C1154 H1179 0.950 . S
C1155 C1154 1.349 . S
C1155 C1171 1.349 . S
C1156 C1154 1.327 . S
C1156 C1175 1.429 . S
C1156 H1180 0.950 . S
C1157 C1174 1.574 . S
C1157 C1176 1.368 . S
C1157 H1181 0.949 . S
H1158 C1162 0.949 . S
C1159 C1160 1.349 . S
C1159 C1161 1.327 . S
C1159 H1182 0.950 . S
C1160 C1159 1.349 . S
C1160 C1172 1.349 . S
C1161 C1159 1.327 . S
C1161 C1177 1.429 . S
C1161 H1183 0.950 . S
C1162 H1158 0.949 . S
C1162 C1170 1.574 . S
C1162 C1178 1.368 . S
H1163 C1171 0.950 . S
H1164 C1169 0.950 . S
H1165 C1170 0.949 . S
H1166 C1172 0.950 . S
H1167 C1173 0.950 . S
H1168 C1174 0.949 . S
C1169 H1164 0.950 . S
C1169 C1171 1.327 . S
C1169 C1175 1.429 . S
C1170 C1162 1.574 . S
C1170 H1165 0.949 . S
C1170 C1176 1.368 . S
C1171 C1155 1.349 . S
C1171 H1163 0.950 . S
C1171 C1169 1.327 . S
C1172 C1160 1.349 . S
C1172 H1166 0.950 . S
C1172 C1173 1.327 . S
C1173 H1167 0.950 . S
C1173 C1172 1.327 . S
C1173 C1177 1.429 . S
C1174 C1157 1.574 . S
C1174 H1168 0.949 . S
C1174 C1178 1.368 . S
C1175 C1156 1.429 . S
C1175 C1169 1.429 . S
C1175 C1176 1.523 . S
C1176 C1157 1.368 . S
C1176 C1170 1.368 . S
C1176 C1175 1.523 . S
C1177 C1161 1.429 . S
C1177 C1173 1.429 . S
C1177 C1178 1.523 . S
C1178 C1162 1.368 . S
C1178 C1174 1.368 . S
C1178 C1177 1.523 . S
H1179 C1154 0.950 . S
H1180 C1156 0.950 . S
H1181 C1157 0.949 . S
H1182 C1159 0.950 . S
H1183 C1161 0.950 . S
C1184 C1185 1.349 . S
C1184 C1186 1.327 . S
C1184 H1209 0.950 . S
C1185 C1184 1.349 . S
C1185 C1201 1.349 . S
C1186 C1184 1.327 . S
C1186 C1205 1.429 . S
C1186 H1210 0.950 . S
C1187 C1204 1.574 . S
C1187 C1206 1.368 . S
C1187 H1211 0.949 . S
H1188 C1192 0.949 . S
C1189 C1190 1.349 . S
C1189 C1191 1.327 . S
C1189 H1212 0.950 . S
C1190 C1189 1.349 . S
C1190 C1202 1.349 . S
C1191 C1189 1.327 . S
C1191 C1207 1.429 . S
C1191 H1213 0.950 . S
C1192 H1188 0.949 . S
C1192 C1200 1.574 . S
C1192 C1208 1.368 . S
H1193 C1201 0.950 . S
H1194 C1199 0.950 . S
H1195 C1200 0.949 . S
H1196 C1202 0.950 . S
H1197 C1203 0.950 . S
H1198 C1204 0.949 . S
C1199 H1194 0.950 . S
C1199 C1201 1.327 . S
C1199 C1205 1.429 . S
C1200 C1192 1.574 . S
C1200 H1195 0.949 . S
C1200 C1206 1.368 . S
C1201 C1185 1.349 . S
C1201 H1193 0.950 . S
C1201 C1199 1.327 . S
C1202 C1190 1.349 . S
C1202 H1196 0.950 . S
C1202 C1203 1.327 . S
C1203 H1197 0.950 . S
C1203 C1202 1.327 . S
C1203 C1207 1.429 . S
C1204 C1187 1.574 . S
C1204 H1198 0.949 . S
C1204 C1208 1.368 . S
C1205 C1186 1.429 . S
C1205 C1199 1.429 . S
C1205 C1206 1.523 . S
C1206 C1187 1.368 . S
C1206 C1200 1.368 . S
C1206 C1205 1.523 . S
C1207 C1191 1.429 . S
C1207 C1203 1.429 . S
C1207 C1208 1.523 . S
C1208 C1192 1.368 . S
C1208 C1204 1.368 . S
C1208 C1207 1.523 . S
H1209 C1184 0.950 . S
H1210 C1186 0.950 . S
H1211 C1187 0.949 . S
H1212 C1189 0.950 . S
H1213 C1191 0.950 . S
C1214 C1215 1.349 . S
C1214 C1216 1.327 . S
C1214 H1239 0.950 . S
C1215 C1214 1.349 . S
C1215 C1231 1.349 . S
C1216 C1214 1.327 . S
C1216 C1235 1.429 . S
C1216 H1240 0.950 . S
C1217 C1234 1.574 . S
C1217 C1236 1.368 . S
C1217 H1241 0.949 . S
H1218 C1222 0.949 . S
C1219 C1220 1.349 . S
C1219 C1221 1.327 . S
C1219 H1242 0.950 . S
C1220 C1219 1.349 . S
C1220 C1232 1.349 . S
C1221 C1219 1.327 . S
C1221 C1237 1.429 . S
C1221 H1243 0.950 . S
C1222 H1218 0.949 . S
C1222 C1230 1.574 . S
C1222 C1238 1.368 . S
H1223 C1231 0.950 . S
H1224 C1229 0.950 . S
H1225 C1230 0.949 . S
H1226 C1232 0.950 . S
H1227 C1233 0.950 . S
H1228 C1234 0.949 . S
C1229 H1224 0.950 . S
C1229 C1231 1.327 . S
C1229 C1235 1.429 . S
C1230 C1222 1.574 . S
C1230 H1225 0.949 . S
C1230 C1236 1.368 . S
C1231 C1215 1.349 . S
C1231 H1223 0.950 . S
C1231 C1229 1.327 . S
C1232 C1220 1.349 . S
C1232 H1226 0.950 . S
C1232 C1233 1.327 . S
C1233 H1227 0.950 . S
C1233 C1232 1.327 . S
C1233 C1237 1.429 . S
C1234 C1217 1.574 . S
C1234 H1228 0.949 . S
C1234 C1238 1.368 . S
C1235 C1216 1.429 . S
C1235 C1229 1.429 . S
C1235 C1236 1.523 . S
C1236 C1217 1.368 . S
C1236 C1230 1.368 . S
C1236 C1235 1.523 . S
C1237 C1221 1.429 . S
C1237 C1233 1.429 . S
C1237 C1238 1.523 . S
C1238 C1222 1.368 . S
C1238 C1234 1.368 . S
C1238 C1237 1.523 . S
H1239 C1214 0.950 . S
H1240 C1216 0.950 . S
H1241 C1217 0.949 . S
H1242 C1219 0.950 . S
H1243 C1221 0.950 . S
C1244 C1245 1.349 . S
C1244 C1246 1.327 . S
C1244 H1269 0.950 . S
C1245 C1244 1.349 . S
C1245 C1261 1.349 . S
C1246 C1244 1.327 . S
C1246 C1265 1.429 . S
C1246 H1270 0.950 . S
C1247 C1264 1.574 . S
C1247 C1266 1.368 . S
C1247 H1271 0.949 . S
H1248 C1252 0.949 . S
C1249 C1250 1.349 . S
C1249 C1251 1.327 . S
C1249 H1272 0.950 . S
C1250 C1249 1.349 . S
C1250 C1262 1.349 . S
C1251 C1249 1.327 . S
C1251 C1267 1.429 . S
C1251 H1273 0.950 . S
C1252 H1248 0.949 . S
C1252 C1260 1.574 . S
C1252 C1268 1.368 . S
H1253 C1261 0.950 . S
H1254 C1259 0.950 . S
H1255 C1260 0.949 . S
H1256 C1262 0.950 . S
H1257 C1263 0.950 . S
H1258 C1264 0.949 . S
C1259 H1254 0.950 . S
C1259 C1261 1.327 . S
C1259 C1265 1.429 . S
C1260 C1252 1.574 . S
C1260 H1255 0.949 . S
C1260 C1266 1.368 . S
C1261 C1245 1.349 . S
C1261 H1253 0.950 . S
C1261 C1259 1.327 . S
C1262 C1250 1.349 . S
C1262 H1256 0.950 . S
C1262 C1263 1.327 . S
C1263 H1257 0.950 . S
C1263 C1262 1.327 . S
C1263 C1267 1.429 . S
C1264 C1247 1.574 . S
C1264 H1258 0.949 . S
C1264 C1268 1.368 . S
C1265 C1246 1.429 . S
C1265 C1259 1.429 . S
C1265 C1266 1.523 . S
C1266 C1247 1.368 . S
C1266 C1260 1.368 . S
C1266 C1265 1.523 . S
C1267 C1251 1.429 . S
C1267 C1263 1.429 . S
C1267 C1268 1.523 . S
C1268 C1252 1.368 . S
C1268 C1264 1.368 . S
C1268 C1267 1.523 . S
H1269 C1244 0.950 . S
H1270 C1246 0.950 . S
H1271 C1247 0.949 . S
H1272 C1249 0.950 . S
H1273 C1251 0.950 . S
C1274 C1275 1.349 . S
C1274 C1276 1.327 . S
C1274 H1299 0.950 . S
C1275 C1274 1.349 . S
C1275 C1291 1.349 . S
C1276 C1274 1.327 . S
C1276 C1295 1.429 . S
C1276 H1300 0.950 . S
C1277 C1294 1.574 . S
C1277 C1296 1.368 . S
C1277 H1301 0.949 . S
H1278 C1282 0.949 . S
C1279 C1280 1.349 . S
C1279 C1281 1.327 . S
C1279 H1302 0.950 . S
C1280 C1279 1.349 . S
C1280 C1292 1.349 . S
C1281 C1279 1.327 . S
C1281 C1297 1.429 . S
C1281 H1303 0.950 . S
C1282 H1278 0.949 . S
C1282 C1290 1.574 . S
C1282 C1298 1.368 . S
H1283 C1291 0.950 . S
H1284 C1289 0.950 . S
H1285 C1290 0.949 . S
H1286 C1292 0.950 . S
H1287 C1293 0.950 . S
H1288 C1294 0.949 . S
C1289 H1284 0.950 . S
C1289 C1291 1.327 . S
C1289 C1295 1.429 . S
C1290 C1282 1.574 . S
C1290 H1285 0.949 . S
C1290 C1296 1.368 . S
C1291 C1275 1.349 . S
C1291 H1283 0.950 . S
C1291 C1289 1.327 . S
C1292 C1280 1.349 . S
C1292 H1286 0.950 . S
C1292 C1293 1.327 . S
C1293 H1287 0.950 . S
C1293 C1292 1.327 . S
C1293 C1297 1.429 . S
C1294 C1277 1.574 . S
C1294 H1288 0.949 . S
C1294 C1298 1.368 . S
C1295 C1276 1.429 . S
C1295 C1289 1.429 . S
C1295 C1296 1.523 . S
C1296 C1277 1.368 . S
C1296 C1290 1.368 . S
C1296 C1295 1.523 . S
C1297 C1281 1.429 . S
C1297 C1293 1.429 . S
C1297 C1298 1.523 . S
C1298 C1282 1.368 . S
C1298 C1294 1.368 . S
C1298 C1297 1.523 . S
H1299 C1274 0.950 . S
H1300 C1276 0.950 . S
H1301 C1277 0.949 . S
H1302 C1279 0.950 . S
H1303 C1281 0.950 . S
C585 C45 1.633 . S
C590 C135 1.588 . S
C615 C30 1.633 . S
C620 C195 1.594 . S
C645 C39 1.633 . S
C650 C255 1.648 . S
C680 C315 1.641 . S
C675 C34 1.634 . S
C705 C97 1.633 . S
C710 C375 1.595 . S
C740 C435 1.595 . S
C735 C82 1.633 . S
C770 C495 1.641 . S
C765 C91 1.633 . S
C800 C555 1.641 . S
C795 C86 1.633 . S
C830 C484 1.535 . S
C825 C26 1.472 . S
C860 C544 1.535 . S
C855 C36 1.476 . S
C890 C345 1.460 . S
C885 C32 1.480 . S
C920 C405 1.460 . S
C915 C42 1.475 . S
C945 C18 1.563 . S
C950 C424 1.590 . S
C980 C465 1.607 . S
C975 C50 1.559 . S
C1005 C4 1.563 . S
C1010 C525 1.609 . S
C1035 C48 1.563 . S
C1040 C364 1.596 . S
C1070 C244 1.535 . S
C1065 C78 1.476 . S
C1095 C88 1.476 . S
C1100 C304 1.535 . S
C1130 C105 1.460 . S
C1125 C84 1.476 . S
C1160 C165 1.460 . S
C1155 C94 1.476 . S
C1190 C184 1.591 . S
C1185 C70 1.563 . S
C1220 C225 1.607 . S
C1215 C102 1.563 . S
C1245 C56 1.563 . S
C1250 C285 1.607 . S
C1275 C100 1.563 . S
C1280 C124 1.591 . S
