# Generated by pormake.
# Topology dag, (6,3)-cn, num edge types: 1
# Building blocks:
#     Node 0, Type 0, BuildingBlock: MIDCAF_clean_sbu_0, # of connection points: 6
#     Node 1, Type 0, BuildingBlock: MIDCAF_clean_sbu_0, # of connection points: 6
#     Node 2, Type 0, BuildingBlock: MIDCAF_clean_sbu_0, # of connection points: 6
#     Node 3, Type 0, BuildingBlock: MIDCAF_clean_sbu_0, # of connection points: 6
#     Node 4, Type 1, BuildingBlock: ESEHIV_clean_linker_0, # of connection points: 3
#     Node 5, Type 1, BuildingBlock: ESEHIV_clean_linker_0, # of connection points: 3
#     Node 6, Type 1, BuildingBlock: ESEHIV_clean_linker_0, # of connection points: 3
#     Node 7, Type 1, BuildingBlock: ESEHIV_clean_linker_0, # of connection points: 3
#     Node 8, Type 1, BuildingBlock: ESEHIV_clean_linker_0, # of connection points: 3
#     Node 9, Type 1, BuildingBlock: ESEHIV_clean_linker_0, # of connection points: 3
#     Node 10, Type 1, BuildingBlock: ESEHIV_clean_linker_0, # of connection points: 3
#     Node 11, Type 1, BuildingBlock: ESEHIV_clean_linker_0, # of connection points: 3
#     Edge 12, Type (0, 1), BuildingBlock: AJUNOK_clean_linker_0, # of connection points: 2
#     Edge 13, Type (0, 1), BuildingBlock: AJUNOK_clean_linker_0, # of connection points: 2
#     Edge 14, Type (0, 1), BuildingBlock: AJUNOK_clean_linker_0, # of connection points: 2
#     Edge 15, Type (0, 1), BuildingBlock: AJUNOK_clean_linker_0, # of connection points: 2
#     Edge 16, Type (0, 1), BuildingBlock: AJUNOK_clean_linker_0, # of connection points: 2
#     Edge 17, Type (0, 1), BuildingBlock: AJUNOK_clean_linker_0, # of connection points: 2
#     Edge 18, Type (0, 1), BuildingBlock: AJUNOK_clean_linker_0, # of connection points: 2
#     Edge 19, Type (0, 1), BuildingBlock: AJUNOK_clean_linker_0, # of connection points: 2
#     Edge 20, Type (0, 1), BuildingBlock: AJUNOK_clean_linker_0, # of connection points: 2
#     Edge 21, Type (0, 1), BuildingBlock: AJUNOK_clean_linker_0, # of connection points: 2
#     Edge 22, Type (0, 1), BuildingBlock: AJUNOK_clean_linker_0, # of connection points: 2
#     Edge 23, Type (0, 1), BuildingBlock: AJUNOK_clean_linker_0, # of connection points: 2
#     Edge 24, Type (0, 1), BuildingBlock: AJUNOK_clean_linker_0, # of connection points: 2
#     Edge 25, Type (0, 1), BuildingBlock: AJUNOK_clean_linker_0, # of connection points: 2
#     Edge 26, Type (0, 1), BuildingBlock: AJUNOK_clean_linker_0, # of connection points: 2
#     Edge 27, Type (0, 1), BuildingBlock: AJUNOK_clean_linker_0, # of connection points: 2
#     Edge 28, Type (0, 1), BuildingBlock: AJUNOK_clean_linker_0, # of connection points: 2
#     Edge 29, Type (0, 1), BuildingBlock: AJUNOK_clean_linker_0, # of connection points: 2
#     Edge 30, Type (0, 1), BuildingBlock: AJUNOK_clean_linker_0, # of connection points: 2
#     Edge 31, Type (0, 1), BuildingBlock: AJUNOK_clean_linker_0, # of connection points: 2
#     Edge 32, Type (0, 1), BuildingBlock: AJUNOK_clean_linker_0, # of connection points: 2
#     Edge 33, Type (0, 1), BuildingBlock: AJUNOK_clean_linker_0, # of connection points: 2
#     Edge 34, Type (0, 1), BuildingBlock: AJUNOK_clean_linker_0, # of connection points: 2
#     Edge 35, Type (0, 1), BuildingBlock: AJUNOK_clean_linker_0, # of connection points: 2
# Relax obj value: 0.309
# Max RMSD: 0.189
# Mean RMSD: 0.178
data_MOF--net-dag--node1-MIDCAF_clean_sbu_0--node2-ESEHIV_clean_linker_0--edge1-AJUNOK_clean_linker_0
_symmetry_space_group_name_H-M    P1
_symmetry_Int_Tables_number       1
_symmetry_cell_setting            triclinic
loop_
_symmetry_equiv_pos_as_xyz
'x, y, z'
_cell_length_a     27.925981
_cell_length_b     28.030922
_cell_length_c     20.931182
_cell_angle_alpha  90.65136
_cell_angle_beta   90.806766
_cell_angle_gamma 89.653316
loop_
_atom_site_label
_atom_site_type_symbol
_atom_site_fract_x
_atom_site_fract_y
_atom_site_fract_z
_atom_type_partial_charge
Zn0 Zn 0.12047 0.81697 0.19161 0.0
Zn1 Zn 0.15276 0.83146 0.89604 0.0
Zn2 Zn 0.14959 0.82082 1.00155 0.0
C3 C 0.15358 0.9213 0.92919 0.0
C4 C 0.07244 0.7794 0.91428 0.0
O5 O 0.19489 0.76192 0.03794 0.0
O6 O 0.15475 0.79358 0.11365 0.0
C7 C 0.18269 0.88338 0.09874 0.0
O8 O 0.16761 0.89719 0.9782 0.0
O9 O 0.13539 0.89937 0.8819 0.0
O10 O 0.10591 0.78051 0.87453 0.0
O11 O 0.07831 0.80076 0.9686 0.0
O12 O 0.15729 0.85069 0.12168 0.0
O13 O 0.18332 0.88448 0.03795 0.0
O14 O 0.07251 0.8173 0.04115 0.0
O15 O 0.05508 0.81636 0.14763 0.0
C16 C 0.04237 0.81667 0.08849 0.0
O17 O 0.20318 0.76771 0.97001 0.0
O18 O 0.22139 0.81529 0.89152 0.0
C19 C 0.18325 0.76102 0.09643 0.0
C20 C 0.23156 0.77936 0.9249 0.0
Zn21 Zn 0.64742 0.6182 0.36223 0.0
Zn22 Zn 0.6719 0.66216 0.66556 0.0
Zn23 Zn 0.65671 0.64479 0.46942 0.0
C24 C 0.68616 0.56783 0.59767 0.0
C25 C 0.58939 0.67748 0.55996 0.0
O26 O 0.70167 0.69628 0.41742 0.0
O27 O 0.67096 0.67614 0.32328 0.0
C28 C 0.69573 0.5458 0.42113 0.0
O29 O 0.67605 0.58592 0.54175 0.0
O30 O 0.68666 0.59202 0.65009 0.0
O31 O 0.63012 0.67139 0.58582 0.0
O32 O 0.58743 0.67024 0.49984 0.0
O33 O 0.69105 0.5628 0.36586 0.0
O34 O 0.68062 0.56999 0.46944 0.0
O35 O 0.57879 0.65177 0.44018 0.0
O36 O 0.57718 0.60846 0.35166 0.0
C37 C 0.55504 0.63245 0.39337 0.0
O38 O 0.70996 0.70285 0.48422 0.0
O39 O 0.68199 0.67988 0.57354 0.0
C40 C 0.69585 0.70415 0.3573 0.0
C41 C 0.71086 0.7063 0.54498 0.0
Zn42 Zn 0.86168 0.17157 0.81037 0.0
Zn43 Zn 0.82266 0.19659 0.16051 0.0
Zn44 Zn 0.83256 0.15322 0.99595 0.0
C45 C 0.9132 0.15116 0.11389 0.0
C46 C 0.77378 0.11689 0.1236 0.0
O47 O 0.78229 0.19816 0.94503 0.0
O48 O 0.83786 0.21785 0.87912 0.0
C49 C 0.91478 0.19735 0.94437 0.0
O50 O 0.9002 0.15568 0.05465 0.0
O51 O 0.88639 0.16296 0.16004 0.0
O52 O 0.77344 0.14347 0.17304 0.0
O53 O 0.79618 0.13082 0.07506 0.0
O54 O 0.88477 0.18582 0.9013 0.0
O55 O 0.90197 0.18849 1.00109 0.0
O56 O 0.83297 0.09022 0.93079 0.0
O57 O 0.84688 0.1011 0.82628 0.0
C58 C 0.83766 0.07389 0.87318 0.0
O59 O 0.76957 0.19684 0.02001 0.0
O60 O 0.81658 0.23846 0.08221 0.0
C61 C 0.79443 0.21985 0.89499 0.0
C62 C 0.77513 0.23189 0.05929 0.0
Zn63 Zn 0.35957 0.32849 0.705 0.0
Zn64 Zn 0.29235 0.30794 0.40817 0.0
Zn65 Zn 0.31268 0.31192 0.51627 0.0
C66 C 0.38705 0.30941 0.3994 0.0
C67 C 0.25795 0.39398 0.45172 0.0
O68 O 0.26758 0.26486 0.57252 0.0
O69 O 0.31926 0.29722 0.63576 0.0
C70 C 0.40107 0.28541 0.57731 0.0
O71 O 0.37797 0.29864 0.45781 0.0
O72 O 0.35295 0.32071 0.3624 0.0
O73 O 0.24493 0.36132 0.41336 0.0
O74 O 0.28834 0.38416 0.49643 0.0
O75 O 0.37061 0.30078 0.61667 0.0
O76 O 0.38636 0.28421 0.51945 0.0
O77 O 0.30872 0.38389 0.56762 0.0
O78 O 0.33459 0.39212 0.67143 0.0
C79 C 0.31622 0.40889 0.61969 0.0
O80 O 0.25476 0.25841 0.50777 0.0
O81 O 0.26784 0.24229 0.40627 0.0
C82 C 0.28173 0.27262 0.62971 0.0
C83 C 0.2472 0.23252 0.45763 0.0
H84 H 0.12589 0.0485 0.13893 0.0
H85 H 0.21703 0.07202 0.30265 0.0
H86 H 0.07472 0.13319 0.29477 0.0
C87 C 0.1329 0.06638 0.18434 0.0
C88 C 0.09717 0.0944 0.21177 0.0
C89 C 0.175 0.05643 0.21901 0.0
C90 C 0.18342 0.07901 0.27801 0.0
C91 C 0.14831 0.10908 0.30524 0.0
C92 C 0.10409 0.114 0.27295 0.0
H93 H 0.40261 0.59994 0.61536 0.0
H94 H 0.28183 0.62828 0.73661 0.0
H95 H 0.41273 0.70662 0.76098 0.0
C96 C 0.38487 0.61955 0.65315 0.0
C97 C 0.40976 0.65718 0.68238 0.0
C98 C 0.33946 0.60588 0.67474 0.0
C99 C 0.31881 0.63343 0.72415 0.0
C100 C 0.34572 0.66803 0.75809 0.0
C101 C 0.3914 0.67977 0.73638 0.0
H102 H 0.82911 0.92334 0.05756 0.0
H103 H 0.83704 0.79737 0.17462 0.0
H104 H 0.72353 0.89854 0.19917 0.0
C105 C 0.81521 0.90045 0.09402 0.0
C106 C 0.77405 0.91546 0.12676 0.0
C107 C 0.84032 0.85883 0.11261 0.0
C108 C 0.81916 0.82956 0.15892 0.0
C109 C 0.77579 0.84233 0.18797 0.0
C110 C 0.75427 0.88595 0.17262 0.0
H111 H 0.59566 0.36331 0.5721 0.0
H112 H 0.61849 0.24142 0.69123 0.0
H113 H 0.72011 0.35591 0.69484 0.0
C114 C 0.61885 0.3433 0.6042 0.0
C115 C 0.66085 0.36444 0.62879 0.0
C116 C 0.60337 0.2991 0.62665 0.0
C117 C 0.63162 0.27425 0.67108 0.0
C118 C 0.6741 0.29453 0.69493 0.0
C119 C 0.68881 0.33925 0.67322 0.0
H120 H 0.59658 0.37813 0.39346 0.0
H121 H 0.72433 0.3285 0.30088 0.0
H122 H 0.58656 0.27623 0.24111 0.0
C123 C 0.61486 0.35461 0.36042 0.0
C124 C 0.58683 0.32302 0.32366 0.0
C125 C 0.66471 0.3581 0.35286 0.0
C126 C 0.6859 0.32908 0.30589 0.0
C127 C 0.65765 0.30266 0.26186 0.0
C128 C 0.60827 0.2981 0.27274 0.0
H129 H 0.09963 0.13414 0.96373 0.0
H130 H 0.13673 0.25577 0.85355 0.0
H131 H 0.23017 0.13351 0.85741 0.0
C132 C 0.12644 0.15312 0.93706 0.0
C133 C 0.16667 0.12833 0.91464 0.0
C134 C 0.11572 0.19917 0.91531 0.0
C135 C 0.14735 0.2221 0.8747 0.0
C136 C 0.18878 0.19854 0.85364 0.0
C137 C 0.19907 0.15231 0.87553 0.0
H138 H 0.34378 0.57694 0.42659 0.0
H139 H 0.33851 0.6963 0.29911 0.0
H140 H 0.21766 0.60258 0.31362 0.0
C141 C 0.32381 0.60021 0.39471 0.0
C142 C 0.27683 0.58799 0.37702 0.0
C143 C 0.34717 0.6381 0.36512 0.0
C144 C 0.32125 0.66621 0.321 0.0
C145 C 0.27413 0.65418 0.30228 0.0
C146 C 0.25237 0.61476 0.33065 0.0
H147 H 0.8977 0.85609 0.88175 0.0
H148 H 0.865 0.73824 0.75571 0.0
H149 H 0.78422 0.86898 0.74207 0.0
C150 C 0.87482 0.84019 0.84512 0.0
C151 C 0.83945 0.86826 0.81539 0.0
C152 C 0.88449 0.79349 0.8233 0.0
C153 C 0.85742 0.7742 0.77242 0.0
C154 C 0.82182 0.80161 0.74186 0.0
C155 C 0.81198 0.84791 0.76515 0.0
C156 C 0.18544 0.92732 0.20202 0.0
C157 C 0.19998 0.92366 0.13822 0.0
C158 C 0.18624 0.97125 0.2339 0.0
C159 C 0.20075 0.01248 0.20225 0.0
H160 H 0.16868 0.89753 0.22526 0.0
H161 H 0.16902 0.97405 0.2799 0.0
S162 S 0.26349 0.01667 0.048 0.0
N163 N 0.24617 0.96061 0.05412 0.0
N164 N 0.24425 0.04449 0.11292 0.0
C165 C 0.22368 0.00754 0.14348 0.0
C166 C 0.22418 0.96245 0.1116 0.0
C167 C 0.5423 0.65523 0.65422 0.0
C168 C 0.54573 0.68134 0.59757 0.0
C169 C 0.49815 0.6497 0.68385 0.0
C170 C 0.45661 0.67057 0.65788 0.0
H171 H 0.57319 0.63635 0.67338 0.0
H172 H 0.496 0.62705 0.72529 0.0
S173 S 0.44836 0.74913 0.51711 0.0
N174 N 0.50542 0.73333 0.52146 0.0
N175 N 0.42205 0.72264 0.57732 0.0
C176 C 0.46017 0.69969 0.6042 0.0
C177 C 0.50504 0.70532 0.57403 0.0
C178 C 0.76291 0.04247 0.18327 0.0
C179 C 0.75748 0.06729 0.12583 0.0
C180 C 0.76425 -0.00728 0.18327 0.0
C181 C 0.7598 0.96626 0.12597 0.0
H182 H 0.77077 0.06134 0.22761 0.0
H183 H 0.77274 0.97503 0.22782 0.0
S184 S 0.72879 0.01467 0.96672 0.0
N185 N 0.73648 0.06236 0.01279 0.0
N186 N 0.73892 0.9681 0.01291 0.0
C187 C 0.74842 -0.00947 0.06949 0.0
C188 C 0.74705 0.04136 0.06949 0.0
C189 C 0.47035 0.30785 0.64639 0.0
C190 C 0.45223 0.28057 0.5949 0.0
C191 C 0.51955 0.31119 0.65789 0.0
C192 C 0.55237 0.28726 0.6186 0.0
H193 H 0.44663 0.32903 0.67593 0.0
H194 H 0.53221 0.33452 0.69611 0.0
S195 S 0.52338 0.20469 0.48454 0.0
N196 N 0.47067 0.22366 0.5098 0.0
N197 N 0.56392 0.23133 0.53069 0.0
C198 C 0.53499 0.25707 0.56986 0.0
C199 C 0.48459 0.2532 0.55842 0.0
C200 C 0.67687 0.46497 0.45941 0.0
C201 C 0.70692 0.49435 0.42452 0.0
C202 C 0.67194 0.4166 0.44408 0.0
C203 C 0.69131 0.3975 0.38727 0.0
H204 H 0.65233 0.48031 0.49328 0.0
H205 H 0.64706 0.39617 0.47185 0.0
S206 S 0.78448 0.45693 0.2908 0.0
N207 N 0.76806 0.49774 0.34365 0.0
N208 N 0.75242 0.40929 0.30629 0.0
C209 C 0.72699 0.42474 0.35742 0.0
C210 C 0.73543 0.47292 0.37737 0.0
C211 C -0.00636 0.23332 0.97529 0.0
C212 C 0.96439 0.21042 0.92917 0.0
C213 C 0.04367 0.23365 0.96913 0.0
C214 C 0.06503 0.21343 0.91489 0.0
H215 H 0.97813 0.24753 0.01874 0.0
H216 H 0.06569 0.24689 0.00841 0.0
S217 S 0.00382 0.15947 0.77406 0.0
N218 N 0.9602 0.17381 0.8232 0.0
N219 N 0.05362 0.1771 0.8102 0.0
C220 C 0.03575 0.19641 0.86487 0.0
C221 C 0.98532 0.19463 0.872 0.0
C222 C 0.24427 0.48105 0.47625 0.0
C223 C 0.24988 0.44378 0.43157 0.0
C224 C 0.24974 0.52888 0.4581 0.0
C225 C 0.25916 0.54043 0.39429 0.0
H226 H 0.2378 0.47303 0.52578 0.0
H227 H 0.24878 0.5567 0.49442 0.0
S228 S 0.26901 0.45654 0.25721 0.0
N229 N 0.25986 0.42224 0.31933 0.0
N230 N 0.26831 0.5117 0.28545 0.0
C231 C 0.25975 0.50382 0.34826 0.0
C232 C 0.25518 0.45548 0.36674 0.0
C233 C 0.98645 0.76229 0.93382 0.0
C234 C 0.02471 0.76292 0.89158 0.0
C235 C 0.9391 0.767 0.91171 0.0
C236 C 0.92893 0.76971 0.84589 0.0
H237 H -0.00609 0.7614 0.98404 0.0
H238 H 0.91086 0.77225 0.94609 0.0
S239 S 0.01524 0.75069 0.71491 0.0
N240 N 0.04847 0.75103 0.78075 0.0
N241 N 0.95956 0.75817 0.73859 0.0
C242 C 0.96616 0.7603 0.80302 0.0
C243 C 0.01432 0.75681 0.8259 0.0
C244 C 0.83695 -0.01276 0.90815 0.0
C245 C 0.83495 0.02134 0.85904 0.0
C246 C 0.83723 0.93782 0.89422 0.0
C247 C 0.83608 0.9205 0.8306 0.0
H248 H 0.83897 -0.0013 0.95771 0.0
H249 H 0.83877 0.91302 0.93352 0.0
S250 S 0.83516 -0.00583 0.68433 0.0
N251 N 0.8331 0.03319 0.7437 0.0
N252 N 0.8368 0.94151 0.71845 0.0
C253 C 0.83513 0.95412 0.78133 0.0
C254 C 0.83387 0.00408 0.79527 0.0
C255 C 0.47432 0.31662 0.42254 0.0
C256 C 0.43722 0.31161 0.37727 0.0
C257 C 0.52215 0.31817 0.4045 0.0
C258 C 0.53521 0.31783 0.33972 0.0
H259 H 0.46642 0.32068 0.47256 0.0
H260 H 0.54913 0.32042 0.44212 0.0
S261 S 0.45077 0.31398 0.20113 0.0
N262 N 0.4161 0.31005 0.26408 0.0
N263 N 0.50609 0.31773 0.22956 0.0
C264 C 0.49824 0.31543 0.29334 0.0
C265 C 0.44928 0.31183 0.31213 0.0
C266 C 0.15366 0.00275 0.98094 0.0
C267 C 0.15966 0.97372 0.92635 0.0
C268 C 0.15778 0.05269 0.97768 0.0
C269 C 0.16799 0.07531 0.91963 0.0
H270 H 0.1448 -0.0131 0.02618 0.0
H271 H 0.15242 0.07378 0.02072 0.0
S272 S 0.18226 0.01521 0.76184 0.0
N273 N 0.1742 0.97123 0.81219 0.0
N274 N 0.18016 0.06452 0.80546 0.0
C275 C 0.17312 0.04647 0.86459 0.0
C276 C 0.1692 -0.00411 0.86805 0.0
C277 C 0.47263 0.63603 0.44028 0.0
C278 C 0.50241 0.63843 0.38684 0.0
C279 C 0.42245 0.63821 0.43349 0.0
C280 C 0.40021 0.64271 0.37287 0.0
H281 H 0.4881 0.6305 0.48731 0.0
H282 H 0.40089 0.63523 0.47589 0.0
S283 S 0.46279 0.64964 0.21776 0.0
N284 N 0.50635 0.64601 0.27161 0.0
N285 N 0.4126 0.6485 0.25832 0.0
C286 C 0.4299 0.64561 0.3192 0.0
C287 C 0.48078 0.64363 0.32628 0.0
C288 C 0.3273 0.49108 0.57804 0.0
C289 C 0.30607 0.4605 0.62174 0.0
C290 C 0.33146 0.54006 0.59152 0.0
C291 C 0.318 0.55956 0.65144 0.0
H292 H 0.34328 0.47672 0.53498 0.0
H293 H 0.34874 0.56185 0.55638 0.0
S294 S 0.25097 0.49408 0.77573 0.0
N295 N 0.26193 0.45373 0.71988 0.0
N296 N 0.2745 0.54391 0.74973 0.0
C297 C 0.29196 0.52964 0.6923 0.0
C298 C 0.28543 0.48046 0.6766 0.0
C299 C 0.9571 0.79021 0.08788 0.0
C300 C -0.00921 0.82603 0.07699 0.0
C301 C 0.90802 0.80069 0.09117 0.0
C302 C 0.89071 0.84822 0.09101 0.0
H303 H 0.96892 0.75369 0.09455 0.0
H304 H 0.88389 0.77111 0.09741 0.0
S305 S 0.96651 0.9557 0.06758 0.0
N306 N 0.00439 0.91041 0.0634 0.0
N307 N 0.91356 0.93182 0.07945 0.0
C308 C 0.92458 0.88453 0.07942 0.0
C309 C 0.97422 0.87309 0.07118 0.0
C310 C 0.63782 0.49737 0.62002 0.0
C311 C 0.68268 0.51604 0.60489 0.0
C312 C 0.63135 0.44835 0.62654 0.0
C313 C 0.66962 0.41601 0.61863 0.0
H314 H 0.60728 0.52095 0.62627 0.0
H315 H 0.59609 0.43579 0.63886 0.0
S316 S 0.79489 0.44773 0.58102 0.0
N317 N 0.76645 0.4996 0.58414 0.0
N318 N 0.75453 0.40662 0.59627 0.0
C319 C 0.71517 0.43447 0.60503 0.0
C320 C 0.72168 0.48476 0.59823 0.0
C321 C 0.00249 0.14963 0.1058 0.0
C322 C 0.96032 0.13064 0.13033 0.0
C323 C 0.04749 0.13555 0.12955 0.0
C324 C 0.05122 0.1018 0.17839 0.0
H325 H 0.00065 0.17743 0.07116 0.0
H326 H 0.07926 0.1529 0.11214 0.0
S327 S 0.95213 0.03484 0.25019 0.0
N328 N 0.92541 0.0718 0.19994 0.0
N329 N 0.01011 0.04513 0.24464 0.0
C330 C 0.00964 0.07985 0.19987 0.0
C331 C 0.96403 0.09433 0.17584 0.0
C332 C 0.25259 0.71439 0.14138 0.0
C333 C 0.20425 0.7282 0.14424 0.0
C334 C 0.27486 0.69047 0.1926 0.0
C335 C 0.24958 0.67949 0.2485 0.0
H336 H 0.2738 0.7237 0.10045 0.0
H337 H 0.31226 0.68065 0.18842 0.0
S338 S 0.12064 0.70402 0.27616 0.0
N339 N 0.13049 0.72502 0.20424 0.0
N340 N 0.17263 0.68267 0.30159 0.0
C341 C 0.20067 0.69169 0.2506 0.0
C342 C 0.17799 0.71536 0.19822 0.0
C343 C 0.71863 0.76514 0.63253 0.0
C344 C 0.741 0.73903 0.58341 0.0
C345 C 0.74517 0.78657 0.68208 0.0
C346 C 0.79529 0.78236 0.68498 0.0
H347 H 0.67989 0.76689 0.63448 0.0
H348 H 0.72601 0.80453 0.72013 0.0
S349 S 0.87152 0.72162 0.56432 0.0
N350 N 0.8162 0.71276 0.53785 0.0
N351 N 0.86677 0.7537 0.6307 0.0
C352 C 0.81843 0.75852 0.63407 0.0
C353 C 0.79114 0.73681 0.58322 0.0
C354 C 0.74048 0.29867 0.12039 0.0
C355 C 0.73486 0.25232 0.09564 0.0
C356 C 0.71323 0.31505 0.17152 0.0
C357 C 0.67999 0.28532 0.20146 0.0
H358 H 0.76834 0.32155 0.10257 0.0
H359 H 0.71993 0.35081 0.18952 0.0
S360 S 0.6448 0.16409 0.14546 0.0
N361 N 0.68715 0.18009 0.09589 0.0
N362 N 0.63816 0.20927 0.196 0.0
C363 C 0.67068 0.24037 0.17315 0.0
C364 C 0.6976 0.22428 0.11918 0.0
C365 C 0.23849 0.20844 0.68658 0.0
C366 C 0.25677 0.25492 0.68621 0.0
C367 C 0.21807 0.19002 0.74188 0.0
C368 C 0.21466 0.21771 0.7983 0.0
H369 H 0.24076 0.18591 0.64431 0.0
H370 H 0.20393 0.15413 0.74004 0.0
S371 S 0.25407 0.34292 0.81998 0.0
N372 N 0.26802 0.32918 0.7456 0.0
N373 N 0.22959 0.29452 0.84941 0.0
C374 C 0.23194 0.2646 0.79797 0.0
C375 C 0.25306 0.28319 0.74193 0.0
C376 C 0.76356 0.75739 0.32801 0.0
C377 C 0.71466 0.74643 0.32544 0.0
C378 C 0.78303 0.78954 0.28447 0.0
C379 C 0.75417 0.81142 0.23704 0.0
H380 H 0.78723 0.73909 0.3612 0.0
H381 H 0.82112 0.79645 0.28705 0.0
S382 S 0.62275 0.79707 0.21547 0.0
N383 N 0.63697 0.76282 0.27652 0.0
N384 N 0.67348 0.82132 0.19322 0.0
C385 C 0.7047 0.80232 0.23659 0.0
C386 C 0.685 0.77031 0.28123 0.0
C387 C 0.75269 0.21044 0.79026 0.0
C388 C 0.7582 0.23531 0.84854 0.0
C389 C 0.72338 0.22864 0.7413 0.0
C390 C 0.69978 0.27262 0.74913 0.0
H391 H 0.7721 0.17741 0.78198 0.0
H392 H 0.72079 0.20934 0.69626 0.0
S393 S 0.7001 0.34929 0.89459 0.0
N394 N 0.73557 0.30398 0.91317 0.0
N395 N 0.68099 0.33883 0.82072 0.0
C396 C 0.7035 0.29669 0.80823 0.0
C397 C 0.73269 0.27782 0.85821 0.0
C398 C 0.21718 0.15051 0.452 0.0
C399 C 0.20713 0.19952 0.45206 0.0
C400 C 0.19283 0.11962 0.40983 0.0
C401 C 0.1595 0.13738 0.36444 0.0
H402 H 0.24767 0.13695 0.47889 0.0
H403 H 0.20373 0.08249 0.40869 0.0
S404 S 0.11366 0.26236 0.35849 0.0
N405 N 0.15441 0.26275 0.41625 0.0
N406 N 0.11192 0.20677 0.33195 0.0
C407 C 0.14459 0.18542 0.37118 0.0
C408 C 0.16763 0.21595 0.41668 0.0
C409 C 0.30591 0.77015 0.86424 0.0
C410 C 0.27116 0.74884 0.90251 0.0
C411 C 0.33187 0.74333 0.8201 0.0
C412 C 0.32512 0.69385 0.81383 0.0
H413 H 0.30973 0.80861 0.8638 0.0
H414 H 0.35449 0.76231 0.78752 0.0
S415 S 0.25012 0.6192 0.91791 0.0
N416 N 0.23863 0.67454 0.94126 0.0
N417 N 0.29008 0.62318 0.86079 0.0
C418 C 0.29578 0.67123 0.85856 0.0
C419 C 0.26843 0.69892 0.90282 0.0
loop_
_geom_bond_atom_site_label_1
_geom_bond_atom_site_label_2
_geom_bond_distance
_geom_bond_site_symmetry_2
_ccdc_geom_bond_type
Zn0 O6 1.920 . S
Zn0 O12 1.898 . S
Zn0 O15 1.905 . S
Zn1 O9 1.905 . S
Zn1 O10 1.898 . S
Zn1 O18 1.920 . S
Zn2 O5 2.080 . S
Zn2 O8 2.114 1_554 S
Zn2 O11 2.120 1_554 S
Zn2 O13 2.120 . S
Zn2 O14 2.114 . S
Zn2 O17 2.080 1_554 S
C3 O8 1.166 . S
C3 O9 1.182 . S
C4 O10 1.167 . S
C4 O11 1.299 . S
O5 Zn2 2.080 . S
O5 C19 1.305 . S
O6 Zn0 1.920 . S
O6 C19 1.234 . S
C7 O12 1.167 . S
C7 O13 1.299 . S
O8 Zn2 2.114 1_556 S
O8 C3 1.166 . S
O9 Zn1 1.905 . S
O9 C3 1.182 . S
O10 Zn1 1.898 . S
O10 C4 1.167 . S
O11 Zn2 2.120 1_556 S
O11 C4 1.299 . S
O12 Zn0 1.898 . S
O12 C7 1.167 . S
O13 Zn2 2.120 . S
O13 C7 1.299 . S
O14 Zn2 2.114 . S
O14 C16 1.166 . S
O15 Zn0 1.905 . S
O15 C16 1.182 . S
C16 O14 1.166 . S
C16 O15 1.182 . S
O17 Zn2 2.080 1_556 S
O17 C20 1.305 . S
O18 Zn1 1.920 . S
O18 C20 1.234 . S
C19 O5 1.305 . S
C19 O6 1.234 . S
C20 O17 1.305 . S
C20 O18 1.234 . S
Zn21 O27 1.920 . S
Zn21 O33 1.898 . S
Zn21 O36 1.905 . S
Zn22 O30 1.905 . S
Zn22 O31 1.898 . S
Zn22 O39 1.920 . S
Zn23 O26 2.080 . S
Zn23 O29 2.114 . S
Zn23 O32 2.120 . S
Zn23 O34 2.120 . S
Zn23 O35 2.114 . S
Zn23 O38 2.080 . S
C24 O29 1.166 . S
C24 O30 1.182 . S
C25 O31 1.167 . S
C25 O32 1.299 . S
O26 Zn23 2.080 . S
O26 C40 1.305 . S
O27 Zn21 1.920 . S
O27 C40 1.234 . S
C28 O33 1.167 . S
C28 O34 1.299 . S
O29 Zn23 2.114 . S
O29 C24 1.166 . S
O30 Zn22 1.905 . S
O30 C24 1.182 . S
O31 Zn22 1.898 . S
O31 C25 1.167 . S
O32 Zn23 2.120 . S
O32 C25 1.299 . S
O33 Zn21 1.898 . S
O33 C28 1.167 . S
O34 Zn23 2.120 . S
O34 C28 1.299 . S
O35 Zn23 2.114 . S
O35 C37 1.166 . S
O36 Zn21 1.905 . S
O36 C37 1.182 . S
C37 O35 1.166 . S
C37 O36 1.182 . S
O38 Zn23 2.080 . S
O38 C41 1.305 . S
O39 Zn22 1.920 . S
O39 C41 1.234 . S
C40 O26 1.305 . S
C40 O27 1.234 . S
C41 O38 1.305 . S
C41 O39 1.234 . S
Zn42 O48 1.920 . S
Zn42 O54 1.898 . S
Zn42 O57 1.905 . S
Zn43 O51 1.905 . S
Zn43 O52 1.898 . S
Zn43 O60 1.920 . S
Zn44 O47 2.080 1_554 S
Zn44 O50 2.114 . S
Zn44 O53 2.120 . S
Zn44 O55 2.120 1_554 S
Zn44 O56 2.114 1_554 S
Zn44 O59 2.080 . S
C45 O50 1.166 . S
C45 O51 1.182 . S
C46 O52 1.167 . S
C46 O53 1.299 . S
O47 Zn44 2.080 1_556 S
O47 C61 1.305 . S
O48 Zn42 1.920 . S
O48 C61 1.234 . S
C49 O54 1.167 . S
C49 O55 1.299 . S
O50 Zn44 2.114 . S
O50 C45 1.166 . S
O51 Zn43 1.905 . S
O51 C45 1.182 . S
O52 Zn43 1.898 . S
O52 C46 1.167 . S
O53 Zn44 2.120 . S
O53 C46 1.299 . S
O54 Zn42 1.898 . S
O54 C49 1.167 . S
O55 Zn44 2.120 1_556 S
O55 C49 1.299 . S
O56 Zn44 2.114 1_556 S
O56 C58 1.166 . S
O57 Zn42 1.905 . S
O57 C58 1.182 . S
C58 O56 1.166 . S
C58 O57 1.182 . S
O59 Zn44 2.080 . S
O59 C62 1.305 . S
O60 Zn43 1.920 . S
O60 C62 1.234 . S
C61 O47 1.305 . S
C61 O48 1.234 . S
C62 O59 1.305 . S
C62 O60 1.234 . S
Zn63 O69 1.920 . S
Zn63 O75 1.898 . S
Zn63 O78 1.905 . S
Zn64 O72 1.905 . S
Zn64 O73 1.898 . S
Zn64 O81 1.920 . S
Zn65 O68 2.080 . S
Zn65 O71 2.114 . S
Zn65 O74 2.120 . S
Zn65 O76 2.120 . S
Zn65 O77 2.114 . S
Zn65 O80 2.080 . S
C66 O71 1.166 . S
C66 O72 1.182 . S
C67 O73 1.167 . S
C67 O74 1.299 . S
O68 Zn65 2.080 . S
O68 C82 1.305 . S
O69 Zn63 1.920 . S
O69 C82 1.234 . S
C70 O75 1.167 . S
C70 O76 1.299 . S
O71 Zn65 2.114 . S
O71 C66 1.166 . S
O72 Zn64 1.905 . S
O72 C66 1.182 . S
O73 Zn64 1.898 . S
O73 C67 1.167 . S
O74 Zn65 2.120 . S
O74 C67 1.299 . S
O75 Zn63 1.898 . S
O75 C70 1.167 . S
O76 Zn65 2.120 . S
O76 C70 1.299 . S
O77 Zn65 2.114 . S
O77 C79 1.166 . S
O78 Zn63 1.905 . S
O78 C79 1.182 . S
C79 O77 1.166 . S
C79 O78 1.182 . S
O80 Zn65 2.080 . S
O80 C83 1.305 . S
O81 Zn64 1.920 . S
O81 C83 1.234 . S
C82 O68 1.305 . S
C82 O69 1.234 . S
C83 O80 1.305 . S
C83 O81 1.234 . S
H84 C87 0.931 . S
H85 C90 0.928 . S
H86 C92 0.930 . S
C87 H84 0.931 . S
C87 C88 1.413 . S
C87 C89 1.360 . S
C88 C87 1.413 . S
C88 C92 1.429 . S
C89 C87 1.360 . S
C89 C90 1.372 . S
C90 H85 0.928 . S
C90 C89 1.372 . S
C90 C91 1.404 . S
C91 C90 1.404 . S
C91 C92 1.391 . S
C92 H86 0.930 . S
C92 C88 1.429 . S
C92 C91 1.391 . S
H93 C96 0.931 . S
H94 C99 0.928 . S
H95 C101 0.930 . S
C96 H93 0.931 . S
C96 C97 1.413 . S
C96 C98 1.360 . S
C97 C96 1.413 . S
C97 C101 1.429 . S
C98 C96 1.360 . S
C98 C99 1.372 . S
C99 H94 0.928 . S
C99 C98 1.372 . S
C99 C100 1.404 . S
C100 C99 1.404 . S
C100 C101 1.391 . S
C101 H95 0.930 . S
C101 C97 1.429 . S
C101 C100 1.391 . S
H102 C105 0.931 . S
H103 C108 0.928 . S
H104 C110 0.930 . S
C105 H102 0.931 . S
C105 C106 1.413 . S
C105 C107 1.360 . S
C106 C105 1.413 . S
C106 C110 1.429 . S
C107 C105 1.360 . S
C107 C108 1.372 . S
C108 H103 0.928 . S
C108 C107 1.372 . S
C108 C109 1.404 . S
C109 C108 1.404 . S
C109 C110 1.391 . S
C110 H104 0.930 . S
C110 C106 1.429 . S
C110 C109 1.391 . S
H111 C114 0.931 . S
H112 C117 0.928 . S
H113 C119 0.930 . S
C114 H111 0.931 . S
C114 C115 1.413 . S
C114 C116 1.360 . S
C115 C114 1.413 . S
C115 C119 1.429 . S
C116 C114 1.360 . S
C116 C117 1.372 . S
C117 H112 0.928 . S
C117 C116 1.372 . S
C117 C118 1.404 . S
C118 C117 1.404 . S
C118 C119 1.391 . S
C119 H113 0.930 . S
C119 C115 1.429 . S
C119 C118 1.391 . S
H120 C123 0.931 . S
H121 C126 0.928 . S
H122 C128 0.930 . S
C123 H120 0.931 . S
C123 C124 1.413 . S
C123 C125 1.360 . S
C124 C123 1.413 . S
C124 C128 1.429 . S
C125 C123 1.360 . S
C125 C126 1.372 . S
C126 H121 0.928 . S
C126 C125 1.372 . S
C126 C127 1.404 . S
C127 C126 1.404 . S
C127 C128 1.391 . S
C128 H122 0.930 . S
C128 C124 1.429 . S
C128 C127 1.391 . S
H129 C132 0.931 . S
H130 C135 0.928 . S
H131 C137 0.930 . S
C132 H129 0.931 . S
C132 C133 1.413 . S
C132 C134 1.360 . S
C133 C132 1.413 . S
C133 C137 1.429 . S
C134 C132 1.360 . S
C134 C135 1.372 . S
C135 H130 0.928 . S
C135 C134 1.372 . S
C135 C136 1.404 . S
C136 C135 1.404 . S
C136 C137 1.391 . S
C137 H131 0.930 . S
C137 C133 1.429 . S
C137 C136 1.391 . S
H138 C141 0.931 . S
H139 C144 0.928 . S
H140 C146 0.930 . S
C141 H138 0.931 . S
C141 C142 1.413 . S
C141 C143 1.360 . S
C142 C141 1.413 . S
C142 C146 1.429 . S
C143 C141 1.360 . S
C143 C144 1.372 . S
C144 H139 0.928 . S
C144 C143 1.372 . S
C144 C145 1.404 . S
C145 C144 1.404 . S
C145 C146 1.391 . S
C146 H140 0.930 . S
C146 C142 1.429 . S
C146 C145 1.391 . S
H147 C150 0.931 . S
H148 C153 0.928 . S
H149 C155 0.930 . S
C150 H147 0.931 . S
C150 C151 1.413 . S
C150 C152 1.360 . S
C151 C150 1.413 . S
C151 C155 1.429 . S
C152 C150 1.360 . S
C152 C153 1.372 . S
C153 H148 0.928 . S
C153 C152 1.372 . S
C153 C154 1.404 . S
C154 C153 1.404 . S
C154 C155 1.391 . S
C155 H149 0.930 . S
C155 C151 1.429 . S
C155 C154 1.391 . S
C156 C157 1.369 . S
C156 C158 1.419 . S
C156 H160 0.930 . S
C157 C156 1.369 . S
C157 C166 1.429 . S
C158 C156 1.419 . S
C158 C159 1.363 1_565 S
C158 H161 0.929 1_565 S
C159 C158 1.363 1_545 S
C159 C165 1.428 . S
H160 C156 0.930 . S
H161 C158 0.929 1_545 S
S162 N163 1.613 1_545 S
S162 N164 1.610 . S
N163 S162 1.613 1_565 S
N163 C166 1.350 . S
N164 S162 1.610 . S
N164 C165 1.351 . S
C165 C159 1.428 . S
C165 N164 1.351 . S
C165 C166 1.434 1_545 S
C166 C157 1.429 . S
C166 N163 1.350 . S
C166 C165 1.434 1_565 S
C167 C168 1.369 . S
C167 C169 1.419 . S
C167 H171 0.930 . S
C168 C167 1.369 . S
C168 C177 1.429 . S
C169 C167 1.419 . S
C169 C170 1.363 . S
C169 H172 0.929 . S
C170 C169 1.363 . S
C170 C176 1.428 . S
H171 C167 0.930 . S
H172 C169 0.929 . S
S173 N174 1.613 . S
S173 N175 1.610 . S
N174 S173 1.613 . S
N174 C177 1.350 . S
N175 S173 1.610 . S
N175 C176 1.351 . S
C176 C170 1.428 . S
C176 N175 1.351 . S
C176 C177 1.434 . S
C177 C168 1.429 . S
C177 N174 1.350 . S
C177 C176 1.434 . S
C178 C179 1.369 . S
C178 C180 1.419 1_545 S
C178 H182 0.930 . S
C179 C178 1.369 . S
C179 C188 1.429 . S
C180 C178 1.419 1_565 S
C180 C181 1.363 . S
C180 H183 0.929 . S
C181 C180 1.363 . S
C181 C187 1.428 . S
H182 C178 0.930 . S
H183 C180 0.929 . S
S184 N185 1.613 1_565 S
S184 N186 1.610 . S
N185 S184 1.613 1_545 S
N185 C188 1.350 . S
N186 S184 1.610 . S
N186 C187 1.351 . S
C187 C181 1.428 . S
C187 N186 1.351 . S
C187 C188 1.434 1_565 S
C188 C179 1.429 . S
C188 N185 1.350 . S
C188 C187 1.434 1_545 S
C189 C190 1.369 . S
C189 C191 1.419 . S
C189 H193 0.930 . S
C190 C189 1.369 . S
C190 C199 1.429 . S
C191 C189 1.419 . S
C191 C192 1.363 . S
C191 H194 0.929 . S
C192 C191 1.363 . S
C192 C198 1.428 . S
H193 C189 0.930 . S
H194 C191 0.929 . S
S195 N196 1.613 . S
S195 N197 1.610 . S
N196 S195 1.613 . S
N196 C199 1.350 . S
N197 S195 1.610 . S
N197 C198 1.351 . S
C198 C192 1.428 . S
C198 N197 1.351 . S
C198 C199 1.434 . S
C199 C190 1.429 . S
C199 N196 1.350 . S
C199 C198 1.434 . S
C200 C201 1.369 . S
C200 C202 1.419 . S
C200 H204 0.930 . S
C201 C200 1.369 . S
C201 C210 1.429 . S
C202 C200 1.419 . S
C202 C203 1.363 . S
C202 H205 0.929 . S
C203 C202 1.363 . S
C203 C209 1.428 . S
H204 C200 0.930 . S
H205 C202 0.929 . S
S206 N207 1.613 . S
S206 N208 1.610 . S
N207 S206 1.613 . S
N207 C210 1.350 . S
N208 S206 1.610 . S
N208 C209 1.351 . S
C209 C203 1.428 . S
C209 N208 1.351 . S
C209 C210 1.434 . S
C210 C201 1.429 . S
C210 N207 1.350 . S
C210 C209 1.434 . S
C211 C212 1.369 . S
C211 C213 1.419 1_655 S
C211 H215 0.930 . S
C212 C211 1.369 . S
C212 C221 1.429 . S
C213 C211 1.419 1_455 S
C213 C214 1.363 . S
C213 H216 0.929 . S
C214 C213 1.363 . S
C214 C220 1.428 . S
H215 C211 0.930 . S
H216 C213 0.929 . S
S217 N218 1.613 . S
S217 N219 1.610 1_655 S
N218 S217 1.613 . S
N218 C221 1.350 . S
N219 S217 1.610 1_455 S
N219 C220 1.351 . S
C220 C214 1.428 . S
C220 N219 1.351 . S
C220 C221 1.434 1_455 S
C221 C212 1.429 . S
C221 N218 1.350 . S
C221 C220 1.434 1_655 S
C222 C223 1.369 . S
C222 C224 1.419 . S
C222 H226 0.930 . S
C223 C222 1.369 . S
C223 C232 1.429 . S
C224 C222 1.419 . S
C224 C225 1.363 . S
C224 H227 0.929 . S
C225 C224 1.363 . S
C225 C231 1.428 . S
H226 C222 0.930 . S
H227 C224 0.929 . S
S228 N229 1.613 . S
S228 N230 1.610 . S
N229 S228 1.613 . S
N229 C232 1.350 . S
N230 S228 1.610 . S
N230 C231 1.351 . S
C231 C225 1.428 . S
C231 N230 1.351 . S
C231 C232 1.434 . S
C232 C223 1.429 . S
C232 N229 1.350 . S
C232 C231 1.434 . S
C233 C234 1.369 . S
C233 C235 1.419 1_455 S
C233 H237 0.930 . S
C234 C233 1.369 . S
C234 C243 1.429 . S
C235 C233 1.419 1_655 S
C235 C236 1.363 . S
C235 H238 0.929 . S
C236 C235 1.363 . S
C236 C242 1.428 1_655 S
H237 C233 0.930 . S
H238 C235 0.929 . S
S239 N240 1.613 . S
S239 N241 1.610 . S
N240 S239 1.613 . S
N240 C243 1.350 . S
N241 S239 1.610 . S
N241 C242 1.351 . S
C242 C236 1.428 1_455 S
C242 N241 1.351 . S
C242 C243 1.434 . S
C243 C234 1.429 . S
C243 N240 1.350 . S
C243 C242 1.434 . S
C244 C245 1.369 1_565 S
C244 C246 1.419 . S
C244 H248 0.930 . S
C245 C244 1.369 1_545 S
C245 C254 1.429 . S
C246 C244 1.419 . S
C246 C247 1.363 . S
C246 H249 0.929 . S
C247 C246 1.363 . S
C247 C253 1.428 . S
H248 C244 0.930 . S
H249 C246 0.929 . S
S250 N251 1.625 . S
S250 N252 1.593 1_545 S
N251 S250 1.625 . S
N251 C254 1.350 . S
N252 S250 1.593 1_565 S
N252 C253 1.351 . S
C253 C247 1.428 . S
C253 N252 1.351 . S
C253 C254 1.434 1_565 S
C254 C245 1.429 . S
C254 N251 1.350 . S
C254 C253 1.434 1_545 S
C255 C256 1.369 . S
C255 C257 1.419 . S
C255 H259 0.930 . S
C256 C255 1.369 . S
C256 C265 1.429 . S
C257 C255 1.419 . S
C257 C258 1.363 . S
C257 H260 0.929 . S
C258 C257 1.363 . S
C258 C264 1.428 . S
H259 C255 0.930 . S
H260 C257 0.929 . S
S261 N262 1.613 . S
S261 N263 1.610 . S
N262 S261 1.613 . S
N262 C265 1.350 . S
N263 S261 1.610 . S
N263 C264 1.351 . S
C264 C258 1.428 . S
C264 N263 1.351 . S
C264 C265 1.434 . S
C265 C256 1.429 . S
C265 N262 1.350 . S
C265 C264 1.434 . S
C266 C267 1.369 1_545 S
C266 C268 1.419 . S
C266 H270 0.930 . S
C267 C266 1.369 1_565 S
C267 C276 1.429 1_565 S
C268 C266 1.419 . S
C268 C269 1.363 . S
C268 H271 0.929 . S
C269 C268 1.363 . S
C269 C275 1.428 . S
H270 C266 0.930 . S
H271 C268 0.929 . S
S272 N273 1.613 1_545 S
S272 N274 1.610 . S
N273 S272 1.613 1_565 S
N273 C276 1.350 1_565 S
N274 S272 1.610 . S
N274 C275 1.351 . S
C275 C269 1.428 . S
C275 N274 1.351 . S
C275 C276 1.434 . S
C276 C267 1.429 1_545 S
C276 N273 1.350 1_545 S
C276 C275 1.434 . S
C277 C278 1.369 . S
C277 C279 1.419 . S
C277 H281 0.930 . S
C278 C277 1.369 . S
C278 C287 1.429 . S
C279 C277 1.419 . S
C279 C280 1.363 . S
C279 H282 0.929 . S
C280 C279 1.363 . S
C280 C286 1.428 . S
H281 C277 0.930 . S
H282 C279 0.929 . S
S283 N284 1.613 . S
S283 N285 1.610 . S
N284 S283 1.613 . S
N284 C287 1.350 . S
N285 S283 1.610 . S
N285 C286 1.351 . S
C286 C280 1.428 . S
C286 N285 1.351 . S
C286 C287 1.434 . S
C287 C278 1.429 . S
C287 N284 1.350 . S
C287 C286 1.434 . S
C288 C289 1.369 . S
C288 C290 1.419 . S
C288 H292 0.930 . S
C289 C288 1.369 . S
C289 C298 1.429 . S
C290 C288 1.419 . S
C290 C291 1.363 . S
C290 H293 0.929 . S
C291 C290 1.363 . S
C291 C297 1.428 . S
H292 C288 0.930 . S
H293 C290 0.929 . S
S294 N295 1.613 . S
S294 N296 1.610 . S
N295 S294 1.613 . S
N295 C298 1.350 . S
N296 S294 1.610 . S
N296 C297 1.351 . S
C297 C291 1.428 . S
C297 N296 1.351 . S
C297 C298 1.434 . S
C298 C289 1.429 . S
C298 N295 1.350 . S
C298 C297 1.434 . S
C299 C300 1.369 1_655 S
C299 C301 1.419 . S
C299 H303 0.930 . S
C300 C299 1.369 1_455 S
C300 C309 1.429 1_455 S
C301 C299 1.419 . S
C301 C302 1.363 . S
C301 H304 0.929 . S
C302 C301 1.363 . S
C302 C308 1.428 . S
H303 C299 0.930 . S
H304 C301 0.929 . S
S305 N306 1.613 . S
S305 N307 1.610 . S
N306 S305 1.613 . S
N306 C309 1.350 . S
N307 S305 1.610 . S
N307 C308 1.351 . S
C308 C302 1.428 . S
C308 N307 1.351 . S
C308 C309 1.434 . S
C309 C300 1.429 1_655 S
C309 N306 1.350 . S
C309 C308 1.434 . S
C310 C311 1.369 . S
C310 C312 1.419 . S
C310 H314 0.930 . S
C311 C310 1.369 . S
C311 C320 1.429 . S
C312 C310 1.419 . S
C312 C313 1.363 . S
C312 H315 0.929 . S
C313 C312 1.363 . S
C313 C319 1.428 . S
H314 C310 0.930 . S
H315 C312 0.929 . S
S316 N317 1.613 . S
S316 N318 1.610 . S
N317 S316 1.613 . S
N317 C320 1.350 . S
N318 S316 1.610 . S
N318 C319 1.351 . S
C319 C313 1.428 . S
C319 N318 1.351 . S
C319 C320 1.434 . S
C320 C311 1.429 . S
C320 N317 1.350 . S
C320 C319 1.434 . S
C321 C322 1.369 1_455 S
C321 C323 1.419 . S
C321 H325 0.930 . S
C322 C321 1.369 1_655 S
C322 C331 1.429 . S
C323 C321 1.419 . S
C323 C324 1.363 . S
C323 H326 0.929 . S
C324 C323 1.363 . S
C324 C330 1.428 . S
H325 C321 0.930 . S
H326 C323 0.929 . S
S327 N328 1.613 . S
S327 N329 1.610 1_655 S
N328 S327 1.613 . S
N328 C331 1.350 . S
N329 S327 1.610 1_455 S
N329 C330 1.351 . S
C330 C324 1.428 . S
C330 N329 1.351 . S
C330 C331 1.434 1_455 S
C331 C322 1.429 . S
C331 N328 1.350 . S
C331 C330 1.434 1_655 S
C332 C333 1.369 . S
C332 C334 1.419 . S
C332 H336 0.930 . S
C333 C332 1.369 . S
C333 C342 1.429 . S
C334 C332 1.419 . S
C334 C335 1.363 . S
C334 H337 0.929 . S
C335 C334 1.363 . S
C335 C341 1.428 . S
H336 C332 0.930 . S
H337 C334 0.929 . S
S338 N339 1.613 . S
S338 N340 1.610 . S
N339 S338 1.613 . S
N339 C342 1.350 . S
N340 S338 1.610 . S
N340 C341 1.351 . S
C341 C335 1.428 . S
C341 N340 1.351 . S
C341 C342 1.434 . S
C342 C333 1.429 . S
C342 N339 1.350 . S
C342 C341 1.434 . S
C343 C344 1.369 . S
C343 C345 1.419 . S
C343 H347 0.930 . S
C344 C343 1.369 . S
C344 C353 1.429 . S
C345 C343 1.419 . S
C345 C346 1.363 . S
C345 H348 0.929 . S
C346 C345 1.363 . S
C346 C352 1.428 . S
H347 C343 0.930 . S
H348 C345 0.929 . S
S349 N350 1.613 . S
S349 N351 1.610 . S
N350 S349 1.613 . S
N350 C353 1.350 . S
N351 S349 1.610 . S
N351 C352 1.351 . S
C352 C346 1.428 . S
C352 N351 1.351 . S
C352 C353 1.434 . S
C353 C344 1.429 . S
C353 N350 1.350 . S
C353 C352 1.434 . S
C354 C355 1.369 . S
C354 C356 1.419 . S
C354 H358 0.930 . S
C355 C354 1.369 . S
C355 C364 1.429 . S
C356 C354 1.419 . S
C356 C357 1.363 . S
C356 H359 0.929 . S
C357 C356 1.363 . S
C357 C363 1.428 . S
H358 C354 0.930 . S
H359 C356 0.929 . S
S360 N361 1.613 . S
S360 N362 1.610 . S
N361 S360 1.613 . S
N361 C364 1.350 . S
N362 S360 1.610 . S
N362 C363 1.351 . S
C363 C357 1.428 . S
C363 N362 1.351 . S
C363 C364 1.434 . S
C364 C355 1.429 . S
C364 N361 1.350 . S
C364 C363 1.434 . S
C365 C366 1.369 . S
C365 C367 1.419 . S
C365 H369 0.930 . S
C366 C365 1.369 . S
C366 C375 1.429 . S
C367 C365 1.419 . S
C367 C368 1.363 . S
C367 H370 0.929 . S
C368 C367 1.363 . S
C368 C374 1.428 . S
H369 C365 0.930 . S
H370 C367 0.929 . S
S371 N372 1.613 . S
S371 N373 1.610 . S
N372 S371 1.613 . S
N372 C375 1.350 . S
N373 S371 1.610 . S
N373 C374 1.351 . S
C374 C368 1.428 . S
C374 N373 1.351 . S
C374 C375 1.434 . S
C375 C366 1.429 . S
C375 N372 1.350 . S
C375 C374 1.434 . S
C376 C377 1.369 . S
C376 C378 1.419 . S
C376 H380 0.930 . S
C377 C376 1.369 . S
C377 C386 1.429 . S
C378 C376 1.419 . S
C378 C379 1.363 . S
C378 H381 0.929 . S
C379 C378 1.363 . S
C379 C385 1.428 . S
H380 C376 0.930 . S
H381 C378 0.929 . S
S382 N383 1.613 . S
S382 N384 1.610 . S
N383 S382 1.613 . S
N383 C386 1.350 . S
N384 S382 1.610 . S
N384 C385 1.351 . S
C385 C379 1.428 . S
C385 N384 1.351 . S
C385 C386 1.434 . S
C386 C377 1.429 . S
C386 N383 1.350 . S
C386 C385 1.434 . S
C387 C388 1.369 . S
C387 C389 1.419 . S
C387 H391 0.930 . S
C388 C387 1.369 . S
C388 C397 1.429 . S
C389 C387 1.419 . S
C389 C390 1.363 . S
C389 H392 0.929 . S
C390 C389 1.363 . S
C390 C396 1.428 . S
H391 C387 0.930 . S
H392 C389 0.929 . S
S393 N394 1.613 . S
S393 N395 1.610 . S
N394 S393 1.613 . S
N394 C397 1.350 . S
N395 S393 1.610 . S
N395 C396 1.351 . S
C396 C390 1.428 . S
C396 N395 1.351 . S
C396 C397 1.434 . S
C397 C388 1.429 . S
C397 N394 1.350 . S
C397 C396 1.434 . S
C398 C399 1.369 . S
C398 C400 1.419 . S
C398 H402 0.930 . S
C399 C398 1.369 . S
C399 C408 1.429 . S
C400 C398 1.419 . S
C400 C401 1.363 . S
C400 H403 0.929 . S
C401 C400 1.363 . S
C401 C407 1.428 . S
H402 C398 0.930 . S
H403 C400 0.929 . S
S404 N405 1.613 . S
S404 N406 1.610 . S
N405 S404 1.613 . S
N405 C408 1.350 . S
N406 S404 1.610 . S
N406 C407 1.351 . S
C407 C401 1.428 . S
C407 N406 1.351 . S
C407 C408 1.434 . S
C408 C399 1.429 . S
C408 N405 1.350 . S
C408 C407 1.434 . S
C409 C410 1.369 . S
C409 C411 1.419 . S
C409 H413 0.930 . S
C410 C409 1.369 . S
C410 C419 1.429 . S
C411 C409 1.419 . S
C411 C412 1.363 . S
C411 H414 0.929 . S
C412 C411 1.363 . S
C412 C418 1.428 . S
H413 C409 0.930 . S
H414 C411 0.929 . S
S415 N416 1.613 . S
S415 N417 1.610 . S
N416 S415 1.613 . S
N416 C419 1.350 . S
N417 S415 1.610 . S
N417 C418 1.351 . S
C418 C412 1.428 . S
C418 N417 1.351 . S
C418 C419 1.434 . S
C419 C410 1.429 . S
C419 N416 1.350 . S
C419 C418 1.434 . S
C157 C7 0.977 . S
C159 C89 1.035 . S
C168 C25 0.985 . S
C170 C97 1.053 . S
C179 C46 1.024 . S
C181 C106 1.074 . S
C192 C116 1.048 . S
C190 C70 0.997 . S
C203 C125 1.023 . S
C201 C28 0.954 . S
C212 C49 1.009 . S
C214 C134 1.074 . S
C223 C67 0.978 . S
C225 C142 1.050 . S
C234 C4 0.961 . S
C236 C152 1.036 . S
C245 C58 1.538 . S
C247 C151 1.604 . S
C258 C124 1.580 . S
C256 C66 1.526 . S
C269 C133 1.609 . S
C267 C3 1.570 . S
C278 C37 1.567 . S
C280 C143 1.642 . S
C291 C98 1.614 . S
C289 C79 1.536 . S
C300 C16 1.588 . S
C302 C107 1.634 . S
C313 C115 1.580 . S
C311 C24 1.546 . S
C324 C88 1.603 . S
C322 C45 1.540 . S
C335 C145 1.353 . S
C333 C19 1.152 . S
C346 C154 1.348 . S
C344 C41 1.167 . S
C355 C62 1.126 . S
C357 C127 1.304 . S
C368 C136 1.292 . S
C366 C82 1.093 . S
C379 C109 1.337 . S
C377 C40 1.118 . S
C388 C61 1.143 . S
C390 C118 1.321 . S
C401 C91 1.331 . S
C399 C83 1.150 . S
C412 C100 1.323 . S
C410 C20 1.157 . S
