# Generated by pormake.
# Topology wbl, (4,4)-cn, num edge types: 1
# Building blocks:
#     Node 0, Type 0, BuildingBlock: NAWXER_clean_linker_0, # of connection points: 4
#     Node 1, Type 0, BuildingBlock: NAWXER_clean_linker_0, # of connection points: 4
#     Node 2, Type 0, BuildingBlock: NAWXER_clean_linker_0, # of connection points: 4
#     Node 3, Type 0, BuildingBlock: NAWXER_clean_linker_0, # of connection points: 4
#     Node 4, Type 0, BuildingBlock: NAWXER_clean_linker_0, # of connection points: 4
#     Node 5, Type 0, BuildingBlock: NAWXER_clean_linker_0, # of connection points: 4
#     Node 6, Type 0, BuildingBlock: NAWXER_clean_linker_0, # of connection points: 4
#     Node 7, Type 0, BuildingBlock: NAWXER_clean_linker_0, # of connection points: 4
#     Node 8, Type 1, BuildingBlock: QUQFOY_clean_sbu_3, # of connection points: 4
#     Node 9, Type 1, BuildingBlock: QUQFOY_clean_sbu_3, # of connection points: 4
#     Node 10, Type 1, BuildingBlock: QUQFOY_clean_sbu_3, # of connection points: 4
#     Node 11, Type 1, BuildingBlock: QUQFOY_clean_sbu_3, # of connection points: 4
#     Node 12, Type 1, BuildingBlock: QUQFOY_clean_sbu_3, # of connection points: 4
#     Node 13, Type 1, BuildingBlock: QUQFOY_clean_sbu_3, # of connection points: 4
#     Node 14, Type 1, BuildingBlock: QUQFOY_clean_sbu_3, # of connection points: 4
#     Node 15, Type 1, BuildingBlock: QUQFOY_clean_sbu_3, # of connection points: 4
#     Edge 16, Type (0, 1), BuildingBlock: KIFKEQ_clean_linker_1, # of connection points: 2
#     Edge 17, Type (0, 1), BuildingBlock: KIFKEQ_clean_linker_1, # of connection points: 2
#     Edge 18, Type (0, 1), BuildingBlock: KIFKEQ_clean_linker_1, # of connection points: 2
#     Edge 19, Type (0, 1), BuildingBlock: KIFKEQ_clean_linker_1, # of connection points: 2
#     Edge 20, Type (0, 1), BuildingBlock: KIFKEQ_clean_linker_1, # of connection points: 2
#     Edge 21, Type (0, 1), BuildingBlock: KIFKEQ_clean_linker_1, # of connection points: 2
#     Edge 22, Type (0, 1), BuildingBlock: KIFKEQ_clean_linker_1, # of connection points: 2
#     Edge 23, Type (0, 1), BuildingBlock: KIFKEQ_clean_linker_1, # of connection points: 2
#     Edge 24, Type (0, 1), BuildingBlock: KIFKEQ_clean_linker_1, # of connection points: 2
#     Edge 25, Type (0, 1), BuildingBlock: KIFKEQ_clean_linker_1, # of connection points: 2
#     Edge 26, Type (0, 1), BuildingBlock: KIFKEQ_clean_linker_1, # of connection points: 2
#     Edge 27, Type (0, 1), BuildingBlock: KIFKEQ_clean_linker_1, # of connection points: 2
#     Edge 28, Type (0, 1), BuildingBlock: KIFKEQ_clean_linker_1, # of connection points: 2
#     Edge 29, Type (0, 1), BuildingBlock: KIFKEQ_clean_linker_1, # of connection points: 2
#     Edge 30, Type (0, 1), BuildingBlock: KIFKEQ_clean_linker_1, # of connection points: 2
#     Edge 31, Type (0, 1), BuildingBlock: KIFKEQ_clean_linker_1, # of connection points: 2
#     Edge 32, Type (0, 1), BuildingBlock: KIFKEQ_clean_linker_1, # of connection points: 2
#     Edge 33, Type (0, 1), BuildingBlock: KIFKEQ_clean_linker_1, # of connection points: 2
#     Edge 34, Type (0, 1), BuildingBlock: KIFKEQ_clean_linker_1, # of connection points: 2
#     Edge 35, Type (0, 1), BuildingBlock: KIFKEQ_clean_linker_1, # of connection points: 2
#     Edge 36, Type (0, 1), BuildingBlock: KIFKEQ_clean_linker_1, # of connection points: 2
#     Edge 37, Type (0, 1), BuildingBlock: KIFKEQ_clean_linker_1, # of connection points: 2
#     Edge 38, Type (0, 1), BuildingBlock: KIFKEQ_clean_linker_1, # of connection points: 2
#     Edge 39, Type (0, 1), BuildingBlock: KIFKEQ_clean_linker_1, # of connection points: 2
#     Edge 40, Type (0, 1), BuildingBlock: KIFKEQ_clean_linker_1, # of connection points: 2
#     Edge 41, Type (0, 1), BuildingBlock: KIFKEQ_clean_linker_1, # of connection points: 2
#     Edge 42, Type (0, 1), BuildingBlock: KIFKEQ_clean_linker_1, # of connection points: 2
#     Edge 43, Type (0, 1), BuildingBlock: KIFKEQ_clean_linker_1, # of connection points: 2
#     Edge 44, Type (0, 1), BuildingBlock: KIFKEQ_clean_linker_1, # of connection points: 2
#     Edge 45, Type (0, 1), BuildingBlock: KIFKEQ_clean_linker_1, # of connection points: 2
#     Edge 46, Type (0, 1), BuildingBlock: KIFKEQ_clean_linker_1, # of connection points: 2
#     Edge 47, Type (0, 1), BuildingBlock: KIFKEQ_clean_linker_1, # of connection points: 2
# Relax obj value: 0.172
# Max RMSD: 0.174
# Mean RMSD: 0.145
data_MOF--net-wbl--node1-QUQFOY_clean_sbu_3--node2-NAWXER_clean_linker_0--edge1-KIFKEQ_clean_linker_1
_symmetry_space_group_name_H-M    P1
_symmetry_Int_Tables_number       1
_symmetry_cell_setting            triclinic
loop_
_symmetry_equiv_pos_as_xyz
'x, y, z'
_cell_length_a     46.688671
_cell_length_b     47.222003
_cell_length_c     80.08473
_cell_angle_alpha  90.598912
_cell_angle_beta   90.083255
_cell_angle_gamma 89.930521
loop_
_atom_site_label
_atom_site_type_symbol
_atom_site_fract_x
_atom_site_fract_y
_atom_site_fract_z
_atom_type_partial_charge
C0 C 0.10413 0.96486 0.35329 0.0
C1 C 0.11514 0.97866 0.3676 0.0
C2 C 0.08813 0.97983 0.34149 0.0
C3 C 0.08348 0.00911 0.34346 0.0
C4 C 0.11044 0.00799 0.36944 0.0
C5 C 0.095 0.02296 0.35752 0.0
C6 C 0.06392 0.02501 0.33229 0.0
C7 C 0.13351 -0.0085 0.29968 0.0
C8 C 0.12464 0.97166 0.28751 0.0
C9 C 0.1135 0.00806 0.30828 0.0
C10 C 0.08408 0.00482 0.30517 0.0
C11 C 0.09519 0.96909 0.28402 0.0
C12 C 0.07513 0.98563 0.29272 0.0
C13 C 0.06274 0.02163 0.31473 0.0
C14 C 0.96909 0.1065 0.29687 0.0
C15 C 0.9528 0.08943 0.28594 0.0
C16 C -0.00735 0.09523 0.30535 0.0
C17 C -3e-05 0.06649 0.30339 0.0
C18 C 0.96165 0.06128 0.28304 0.0
C19 C 0.98491 0.04995 0.2917 0.0
C20 C 0.0225 0.05308 0.31375 0.0
C21 C 0.95682 0.08405 0.35216 0.0
C22 C 0.96824 0.10267 0.3643 0.0
C23 C 0.97482 0.07005 0.34081 0.0
C24 C 0.00451 0.07474 0.34124 0.0
C25 C -0.00214 0.10802 0.36425 0.0
C26 C 0.01577 0.09411 0.35289 0.0
C27 C 0.02446 0.05716 0.33122 0.0
H28 H 0.10743 0.94239 0.3513 0.0
H29 H 0.07867 0.96825 0.33113 0.0
H30 H 0.11776 0.01941 0.38043 0.0
H31 H 0.09138 0.04541 0.35953 0.0
H32 H 0.15594 -0.00609 0.30284 0.0
H33 H 0.12105 0.02326 0.3175 0.0
H34 H 0.08764 0.95437 0.27454 0.0
H35 H 0.05256 0.98305 0.28993 0.0
H36 H 0.96306 0.12827 0.29939 0.0
H37 H 0.00463 0.10882 0.31379 0.0
H38 H 0.95024 0.04773 0.27431 0.0
H39 H -0.00953 0.02789 0.28968 0.0
H40 H 0.93408 0.07959 0.35179 0.0
H41 H 0.96568 0.05474 0.33216 0.0
H42 H 0.00752 0.12177 0.37357 0.0
H43 H 0.03866 0.09778 0.35358 0.0
N44 N 0.04497 0.04293 0.3397 0.0
N45 N 0.04177 0.03545 0.30618 0.0
C46 C 0.9365 0.47624 0.60466 0.0
C47 C 0.95227 0.45849 0.61533 0.0
C48 C 0.95028 0.4914 0.59207 0.0
C49 C 0.98005 0.48933 0.59009 0.0
C50 C 0.9818 0.45492 0.61233 0.0
C51 C -0.0044 0.47059 0.60006 0.0
C52 C -0.00449 0.50952 0.57947 0.0
C53 C 0.96958 0.43842 0.54636 0.0
C54 C 0.94834 0.44498 0.53455 0.0
C55 C 0.98377 0.45982 0.55513 0.0
C56 C 0.97685 0.48836 0.55252 0.0
C57 C 0.94159 0.47361 0.53177 0.0
C58 C 0.95595 0.49516 0.54059 0.0
C59 C -0.00779 0.51076 0.56199 0.0
C60 C 0.08286 0.59681 0.54456 0.0
C61 C 0.06767 0.61569 0.53436 0.0
C62 C 0.06859 0.57515 0.55288 0.0
C63 C 0.03879 0.57205 0.55131 0.0
C64 C 0.03801 0.61166 0.53217 0.0
C65 C 0.02374 0.58993 0.54051 0.0
C66 C 0.02327 0.55092 0.56138 0.0
C67 C 0.05371 0.61662 0.59961 0.0
C68 C 0.07293 0.60567 0.61147 0.0
C69 C 0.03951 0.59849 0.58841 0.0
C70 C 0.04433 0.56914 0.58891 0.0
C71 C 0.07833 0.57638 0.61152 0.0
C72 C 0.06403 0.55832 0.60044 0.0
C73 C 0.02681 0.5492 0.57887 0.0
H74 H 0.91384 0.47978 0.60661 0.0
H75 H 0.938 0.50605 0.58458 0.0
H76 H -0.00544 0.44081 0.61988 0.0
H77 H 0.0186 0.46869 0.59865 0.0
H78 H 0.97511 0.41662 0.54896 0.0
H79 H 0.00037 0.454 0.56392 0.0
H80 H 0.9255 0.47934 0.52265 0.0
H81 H 0.95052 0.51707 0.53825 0.0
H82 H 0.10564 0.59935 0.54662 0.0
H83 H 0.08078 0.5612 0.56086 0.0
H84 H 0.02576 0.62555 0.52419 0.0
H85 H 0.00079 0.5877 0.53897 0.0
H86 H 0.04917 0.6391 0.59926 0.0
H87 H 0.02399 0.60727 0.57983 0.0
H88 H 0.09263 0.56721 0.62066 0.0
H89 H 0.06784 0.53572 0.60114 0.0
N90 N 0.01277 0.5286 0.5872 0.0
N91 N 0.00603 0.53161 0.55354 0.0
C92 C 0.54676 0.42975 0.8518 0.0
C93 C 0.56385 0.44432 0.86357 0.0
C94 C 0.53233 0.44458 0.83926 0.0
C95 C 0.53461 0.47416 0.83843 0.0
C96 C 0.56788 0.47365 0.86169 0.0
C97 C 0.55304 0.48846 0.84943 0.0
C98 C 0.51462 0.4907 0.82809 0.0
C99 C 0.58496 0.46493 0.79411 0.0
C100 C 0.57743 0.44548 0.78146 0.0
C101 C 0.56394 0.4786 0.80353 0.0
C102 C 0.53482 0.47295 0.8007 0.0
C103 C 0.54825 0.43983 0.77854 0.0
C104 C 0.52708 0.45371 0.78799 0.0
C105 C 0.51285 0.48832 0.81056 0.0
C106 C 0.42971 0.58277 0.79506 0.0
C107 C 0.40849 0.56873 0.78565 0.0
C108 C 0.45184 0.5675 0.80254 0.0
C109 C 0.45301 0.53788 0.80092 0.0
C110 C 0.41076 0.53924 0.78321 0.0
C111 C 0.43291 0.52398 0.79074 0.0
C112 C 0.47393 0.52126 0.81066 0.0
C113 C 0.41208 0.56011 0.84847 0.0
C114 C 0.4255 0.57652 0.861 0.0
C115 C 0.42837 0.54338 0.83748 0.0
C116 C 0.45842 0.54319 0.83862 0.0
C117 C 0.45559 0.57624 0.862 0.0
C118 C 0.47178 0.55984 0.85095 0.0
C119 C 0.47637 0.5241 0.8282 0.0
H120 H 0.54302 0.40722 0.85289 0.0
H121 H 0.51793 0.43323 0.83096 0.0
H122 H 0.58153 0.48547 0.87019 0.0
H123 H 0.55513 0.51129 0.84893 0.0
H124 H 0.60722 0.46955 0.79682 0.0
H125 H 0.57052 0.49395 0.81292 0.0
H126 H 0.54182 0.42509 0.76879 0.0
H127 H 0.50472 0.44931 0.78546 0.0
H128 H 0.42892 0.60551 0.79689 0.0
H129 H 0.46756 0.57874 0.81004 0.0
H130 H 0.3947 0.52775 0.77612 0.0
H131 H 0.43354 0.50115 0.78925 0.0
H132 H 0.38898 0.55986 0.84728 0.0
H133 H 0.41744 0.53012 0.8284 0.0
H134 H 0.46677 0.58793 0.87171 0.0
H135 H 0.49489 0.5598 0.85224 0.0
N136 N 0.49656 0.50862 0.83616 0.0
N137 N 0.49229 0.50345 0.80245 0.0
C138 C 0.46725 0.907 0.05003 0.0
C139 C 0.44471 0.9173 0.04018 0.0
C140 C 0.4873 0.92549 0.05697 0.0
C141 C 0.48492 0.9548 0.0546 0.0
C142 C 0.44304 0.94651 0.03707 0.0
C143 C 0.46302 0.96516 0.04427 0.0
C144 C 0.50539 0.97433 0.0629 0.0
C145 C 0.45598 0.94614 0.11026 0.0
C146 C 0.4703 0.92303 0.11755 0.0
C147 C 0.46867 0.96127 0.09729 0.0
C148 C 0.49602 0.95386 0.09156 0.0
C149 C 0.49704 0.91475 0.11093 0.0
C150 C 0.51001 0.9304 0.09834 0.0
C151 C 0.51151 0.97256 0.08009 0.0
C152 C 0.5838 0.07399 0.09555 0.0
C153 C 0.60088 0.0618 0.10809 0.0
C154 C 0.56673 0.05697 0.08514 0.0
C155 C 0.56694 0.02736 0.0868 0.0
C156 C 0.60138 0.03211 0.10943 0.0
C157 C 0.5847 0.01517 0.0989 0.0
C158 C 0.5464 0.00898 0.07764 0.0
C159 C 0.60086 0.05185 0.04036 0.0
C160 C 0.58568 0.07164 0.03076 0.0
C161 C 0.58627 0.03128 0.04942 0.0
C162 C 0.5562 0.03032 0.04926 0.0
C163 C 0.55565 0.06949 0.02983 0.0
C164 C 0.54107 0.04894 0.03895 0.0
C165 C 0.54047 0.01085 0.06034 0.0
H166 H 0.46958 0.8845 0.05219 0.0
H167 H 0.50479 0.91678 0.06417 0.0
H168 H 0.42601 0.95493 0.02937 0.0
H169 H 0.46104 -0.01232 0.04206 0.0
H170 H 0.43563 0.95353 0.11507 0.0
H171 H 0.45778 0.97962 0.09232 0.0
H172 H 0.50843 0.89662 0.11576 0.0
H173 H 0.53121 0.92447 0.09405 0.0
H174 H 0.58302 0.09672 0.09402 0.0
H175 H 0.55261 0.06707 0.07627 0.0
H176 H 0.61364 0.02183 0.11912 0.0
H177 H 0.585 -0.00757 0.10059 0.0
H178 H 0.62402 0.05256 0.04107 0.0
H179 H 0.59847 0.01658 0.05692 0.0
H180 H 0.54329 0.0845 0.02265 0.0
H181 H 0.51788 0.04841 0.03853 0.0
N182 N 0.51997 -0.00642 0.05362 0.0
N183 N 0.5317 -0.01016 0.08676 0.0
C184 C 0.04841 0.59844 0.9034 0.0
C185 C 0.06377 0.58668 0.88994 0.0
C186 C 0.034 0.58088 0.91458 0.0
C187 C 0.03435 0.55136 0.91224 0.0
C188 C 0.06518 0.55709 0.88812 0.0
C189 C 0.05029 0.53961 0.89905 0.0
C190 C 0.01544 0.53297 0.92215 0.0
C191 C 0.08978 0.55378 0.95445 0.0
C192 C 0.08359 0.57084 0.96848 0.0
C193 C 0.06783 0.54111 0.94525 0.0
C194 C 0.03907 0.54548 0.94968 0.0
C195 C 0.05478 0.57488 0.9731 0.0
C196 C 0.03271 0.5621 0.96384 0.0
C197 C 0.01596 0.53196 0.93975 0.0
C198 C 0.92487 0.44198 0.95181 0.0
C199 C 0.90975 0.45473 0.96512 0.0
C200 C 0.94745 0.4561 0.94409 0.0
C201 C 0.95465 0.48389 0.9489 0.0
C202 C 0.919 0.4815 0.97095 0.0
C203 C 0.94102 0.49597 0.96285 0.0
C204 C 0.97565 0.50076 0.93925 0.0
C205 C 0.90629 0.47696 0.90147 0.0
C206 C 0.91663 0.45845 0.88898 0.0
C207 C 0.92534 0.49068 0.91238 0.0
C208 C 0.95497 0.4861 0.91091 0.0
C209 C 0.94629 0.45385 0.88768 0.0
C210 C 0.96525 0.4677 0.89845 0.0
C211 C 0.9757 0.50146 0.92158 0.0
H212 H 0.04693 0.62121 0.905 0.0
H213 H 0.02146 0.59037 0.92454 0.0
H214 H 0.07656 0.54753 0.87771 0.0
H215 H 0.05059 0.5169 0.89696 0.0
H216 H 0.11167 0.55045 0.95042 0.0
H217 H 0.07341 0.52773 0.93468 0.0
H218 H 0.04933 0.58768 0.98394 0.0
H219 H 0.01068 0.56546 0.9676 0.0
H220 H 0.91873 0.4215 0.94681 0.0
H221 H 0.95862 0.44553 0.93396 0.0
H222 H 0.9089 0.49169 0.98158 0.0
H223 H 0.94672 0.51705 0.96716 0.0
H224 H 0.88354 0.48093 0.90274 0.0
H225 H 0.91702 0.50516 0.92177 0.0
H226 H 0.95494 0.44017 0.87798 0.0
H227 H -0.01195 0.46414 0.89701 0.0
N228 N -0.00443 0.51748 0.91377 0.0
N229 N -0.00417 0.51615 0.94768 0.0
C230 C 0.43282 0.55331 0.14559 0.0
C231 C 0.44819 0.56771 0.1332 0.0
C232 C 0.4472 0.53644 0.15721 0.0
C233 C 0.47715 0.53363 0.15656 0.0
C234 C 0.47817 0.56501 0.13274 0.0
C235 C 0.49244 0.54801 0.14421 0.0
C236 C 0.49275 0.51439 0.16788 0.0
C237 C 0.46096 0.58678 0.19813 0.0
C238 C 0.44065 0.57981 0.21033 0.0
C239 C 0.47724 0.56572 0.19035 0.0
C240 C 0.47316 0.5371 0.1943 0.0
C241 C 0.43737 0.55128 0.21483 0.0
C242 C 0.45352 0.53007 0.20686 0.0
C243 C 0.48977 0.5148 0.18546 0.0
C244 C 0.58627 0.43721 0.20522 0.0
C245 C 0.57286 0.41601 0.21462 0.0
C246 C 0.57001 0.45764 0.19702 0.0
C247 C 0.54001 0.45735 0.19803 0.0
C248 C 0.54285 0.41681 0.2164 0.0
C249 C 0.52658 0.43742 0.20822 0.0
C250 C 0.52282 0.47632 0.18737 0.0
C251 C 0.55775 0.40837 0.15229 0.0
C252 C 0.57614 0.41893 0.13993 0.0
C253 C 0.54214 0.42693 0.16253 0.0
C254 C 0.54475 0.45635 0.16061 0.0
C255 C 0.57931 0.44839 0.13842 0.0
C256 C 0.56364 0.46688 0.14859 0.0
C257 C 0.52603 0.47632 0.16985 0.0
H258 H 0.40971 0.55499 0.14623 0.0
H259 H 0.43489 0.52512 0.16644 0.0
H260 H 0.49059 0.5754 0.12317 0.0
H261 H 0.51552 0.54595 0.14338 0.0
H262 H 0.46458 0.60864 0.19476 0.0
H263 H 0.4931 0.57188 0.18123 0.0
H264 H 0.422 0.54536 0.22429 0.0
H265 H 0.45034 0.50817 0.21028 0.0
H266 H 0.60934 0.43767 0.2039 0.0
H267 H 0.58084 0.47318 0.18943 0.0
H268 H 0.53179 0.40074 0.22345 0.0
H269 H 0.50344 0.43689 0.20917 0.0
H270 H 0.55491 0.38577 0.15376 0.0
H271 H 0.52725 0.41829 0.17149 0.0
H272 H 0.59288 0.45723 0.12885 0.0
H273 H 0.5658 0.48949 0.14681 0.0
N274 N 0.51093 0.49534 0.16082 0.0
N275 N 0.50473 0.49552 0.19459 0.0
C276 C 0.46406 0.93438 0.40378 0.0
C277 C 0.44649 0.94554 0.39119 0.0
C278 C 0.47993 0.9524 0.41417 0.0
C279 C 0.47847 0.98189 0.41217 0.0
C280 C 0.44447 0.97508 0.38952 0.0
C281 C 0.46053 -0.00692 0.39982 0.0
C282 C 0.49751 0.00088 0.42189 0.0
C283 C 0.43231 0.96653 0.45544 0.0
C284 C 0.44284 0.94645 0.46672 0.0
C285 C 0.45095 0.98457 0.44716 0.0
C286 C 0.48063 0.98262 0.44971 0.0
C287 C 0.47241 0.94555 0.47005 0.0
C288 C 0.49121 0.96355 0.46158 0.0
C289 C 0.50035 -0.00035 0.43941 0.0
C290 C 0.59322 0.08893 0.45165 0.0
C291 C 0.60839 0.07486 0.46433 0.0
C292 C 0.56988 0.07606 0.44371 0.0
C293 C 0.56188 0.04821 0.44762 0.0
C294 C 0.59872 0.04789 0.46916 0.0
C295 C 0.57601 0.03467 0.46081 0.0
C296 C 0.53892 0.03289 0.4383 0.0
C297 C 0.59663 0.05579 0.39312 0.0
C298 C 0.58477 0.07885 0.38442 0.0
C299 C 0.58114 0.04241 0.40572 0.0
C300 C 0.55342 0.05159 0.40972 0.0
C301 C 0.55747 0.08878 0.38918 0.0
C302 C 0.54178 0.07493 0.40146 0.0
C303 C 0.53511 0.03478 0.42079 0.0
H304 H 0.466 0.9117 0.40534 0.0
H305 H 0.4941 0.94324 0.42338 0.0
H306 H 0.43144 0.98424 0.37975 0.0
H307 H 0.45933 0.01574 0.39797 0.0
H308 H 0.40955 0.96829 0.453 0.0
H309 H 0.44217 -0.00026 0.43847 0.0
H310 H 0.48103 0.93042 0.4788 0.0
H311 H 0.51402 0.96189 0.46385 0.0
H312 H 0.59965 0.10966 0.44745 0.0
H313 H 0.5583 0.08804 0.43447 0.0
H314 H 0.60881 0.03666 0.4793 0.0
H315 H 0.56989 0.01351 0.46448 0.0
H316 H 0.61731 0.04714 0.38971 0.0
H317 H 0.59023 0.02407 0.4118 0.0
H318 H 0.54784 0.10687 0.38317 0.0
H319 H 0.52031 0.08219 0.40437 0.0
N320 N 0.5147 0.01865 0.41332 0.0
N321 N 0.5212 0.01537 0.44695 0.0
C322 C 0.08324 0.96947 0.65115 0.0
C323 C 0.06831 0.95398 0.6388 0.0
C324 C 0.06835 0.98504 0.6633 0.0
C325 C 0.03829 0.98544 0.6633 0.0
C326 C 0.03818 0.9534 0.63941 0.0
C327 C 0.02336 0.96926 0.65139 0.0
C328 C 0.02234 0.00509 0.67434 0.0
C329 C 0.05682 0.93595 0.70511 0.0
C330 C 0.07665 0.9442 0.7174 0.0
C331 C 0.03975 0.95605 0.69724 0.0
C332 C 0.04274 0.985 0.7011 0.0
C333 C 0.07859 0.97293 0.72201 0.0
C334 C 0.06179 -0.00678 0.71387 0.0
C335 C 0.0259 0.00646 0.69186 0.0
C336 C 0.93829 0.0971 0.70964 0.0
C337 C 0.95479 0.11549 0.71967 0.0
C338 C 0.95098 0.07389 0.7016 0.0
C339 C 0.9805 0.06881 0.70323 0.0
C340 C 0.98398 0.10923 0.72213 0.0
C341 C -0.00331 0.08605 0.71401 0.0
C342 C -0.00517 0.04672 0.69296 0.0
C343 C 0.96603 0.11276 0.65534 0.0
C344 C 0.94616 0.10235 0.64357 0.0
C345 C 0.97983 0.09429 0.66629 0.0
C346 C 0.97392 0.06514 0.66567 0.0
C347 C 0.93973 0.07327 0.64335 0.0
C348 C 0.95362 0.05485 0.65421 0.0
C349 C -0.00907 0.04479 0.67549 0.0
H350 H 0.10639 0.97072 0.65097 0.0
H351 H 0.08028 -0.0022 0.67222 0.0
H352 H 0.02596 0.94122 0.63037 0.0
H353 H 0.00015 0.96931 0.65119 0.0
H354 H 0.05439 0.91384 0.70165 0.0
H355 H 0.02428 0.94888 0.68805 0.0
H356 H 0.09359 0.97973 0.73156 0.0
H357 H 0.06415 0.01536 0.71727 0.0
H358 H 0.9158 0.10126 0.70741 0.0
H359 H 0.93788 0.06044 0.69367 0.0
H360 H -0.00282 0.12258 0.73007 0.0
H361 H 0.01942 0.08231 0.71562 0.0
H362 H 0.97137 0.13506 0.65581 0.0
H363 H -0.00413 0.10262 0.6748 0.0
H364 H 0.92491 0.0645 0.63426 0.0
H365 H 0.94902 0.0324 0.65339 0.0
N366 N 0.00481 0.02407 0.66691 0.0
N367 N 0.01225 0.0275 0.70054 0.0
C368 C 0.37738 0.65684 0.02771 0.0
O369 O 0.39723 0.66117 0.01721 0.0
Cd370 Cd 0.3915 0.67642 0.98905 0.0
O371 O 0.35119 0.66089 0.02375 0.0
Cd372 Cd 0.32459 0.67737 -0.00163 0.0
C373 C 0.36006 0.74044 -0.00236 0.0
O374 O 0.35258 0.64896 0.9789 0.0
O375 O 0.32241 0.67702 0.96732 0.0
O376 O 0.28683 0.64505 0.00714 0.0
C377 C 0.34095 0.65761 0.96564 0.0
O378 O 0.38091 0.72669 0.99129 0.0
C379 C 0.2662 0.66154 0.00368 0.0
O380 O 0.33758 0.72765 0.00252 0.0
O381 O 0.27276 0.68605 -0.00144 0.0
C382 C 0.40142 0.84843 0.22834 0.0
O383 O 0.42119 0.84398 0.23891 0.0
Cd384 Cd 0.41501 0.82635 0.26639 0.0
O385 O 0.37517 0.84426 0.23204 0.0
Cd386 Cd 0.34752 0.82988 0.25751 0.0
C387 C 0.37853 0.76477 0.25674 0.0
O388 O 0.37803 0.85611 0.27649 0.0
O389 O 0.3468 0.8302 0.2887 0.0
O390 O 0.31343 0.86578 0.24847 0.0
C391 C 0.36655 0.84846 0.28997 0.0
O392 O 0.40068 0.77709 0.26259 0.0
C393 C 0.29116 0.85233 0.25278 0.0
O394 O 0.3563 0.77896 0.25282 0.0
O395 O 0.29494 0.82753 0.25839 0.0
C396 C 0.18703 0.8978 0.47485 0.0
O397 O 0.19447 0.91839 0.48421 0.0
Cd398 Cd 0.20239 0.91607 0.5137 0.0
O399 O 0.18472 0.87281 0.4806 0.0
Cd400 Cd 0.19504 0.85013 0.50807 0.0
C401 C 0.26292 0.87672 0.51104 0.0
O402 O 0.16728 0.88438 0.52422 0.0
O403 O 0.19097 0.85425 0.5388 0.0
O404 O 0.15819 0.81578 0.50021 0.0
C405 C 0.17273 0.87412 0.53841 0.0
O406 O 0.25121 0.89951 0.5162 0.0
C407 C 0.17195 0.7941 0.50495 0.0
O408 O 0.24767 0.85599 0.50589 0.0
O409 O 0.19716 0.79827 0.51044 0.0
C410 C 0.13228 0.66011 0.78152 0.0
O411 O 0.12817 0.64053 0.77081 0.0
Cd412 Cd 0.14852 0.64027 0.74358 0.0
O413 O 0.14584 0.68256 0.77765 0.0
Cd414 Cd 0.16621 0.7034 0.75144 0.0
C415 C 0.21939 0.65531 0.75312 0.0
O416 O 0.13253 0.6831 0.73132 0.0
O417 O 0.17133 0.6997 0.72079 0.0
O418 O 0.13983 0.74624 0.75883 0.0
C419 C 0.14655 0.68953 0.71839 0.0
O420 O 0.20048 0.63799 0.74778 0.0
C421 C 0.15964 0.76344 0.75515 0.0
O422 O 0.21281 0.68097 0.75643 0.0
O423 O 0.18338 0.7527 0.75058 0.0
C424 C 0.88491 0.15539 0.47561 0.0
O425 O 0.88768 0.13592 0.4863 0.0
Cd426 Cd 0.86846 0.13792 0.51361 0.0
O427 O 0.87309 0.17892 0.47963 0.0
Cd428 Cd 0.85267 0.20223 0.5055 0.0
C429 C 0.79876 0.15527 0.50245 0.0
O430 O 0.8859 0.1812 0.5252 0.0
O431 O 0.8486 0.20045 0.53626 0.0
O432 O 0.87998 0.24319 0.49654 0.0
C433 C 0.87281 0.18884 0.53832 0.0
O434 O 0.8173 0.13746 0.50744 0.0
C435 C 0.86152 0.26161 0.50081 0.0
O436 O 0.80535 0.18116 0.5003 0.0
O437 O 0.83801 0.25243 0.50661 0.0
C438 C 0.8714 0.38994 0.72443 0.0
O439 O 0.8894 0.39285 0.73622 0.0
Cd440 Cd 0.88432 0.37404 0.76336 0.0
O441 O 0.84748 0.37755 0.72685 0.0
Cd442 Cd 0.82167 0.3574 0.75173 0.0
C443 C 0.86974 0.30414 0.75296 0.0
O444 O 0.83912 0.39176 0.77209 0.0
O445 O 0.82032 0.35455 0.78267 0.0
O446 O 0.77987 0.38251 0.74124 0.0
C447 C 0.83037 0.3792 0.78497 0.0
O448 O 0.8864 0.32259 0.75943 0.0
C449 C 0.76175 0.36364 0.74502 0.0
O450 O 0.84472 0.31104 0.74806 0.0
O451 O 0.77165 0.34083 0.75104 0.0
C452 C 0.63039 0.36434 0.97267 0.0
O453 O 0.62639 0.383 0.98395 0.0
Cd454 Cd 0.64969 0.38288 0.01016 0.0
O455 O 0.64518 0.34216 0.97561 0.0
Cd456 Cd 0.66764 0.31983 0.00106 0.0
C457 C 0.71968 0.36841 -0.00226 0.0
O458 O 0.63546 0.33926 0.02199 0.0
O459 O 0.67491 0.32249 0.03171 0.0
O460 O 0.63935 0.27831 0.99408 0.0
C461 C 0.6502 0.33254 0.0346 0.0
O462 O 0.70053 0.38557 0.00297 0.0
C463 C 0.65898 0.26024 -0.00347 0.0
O464 O 0.71408 0.34222 0.99555 0.0
O465 O 0.68363 0.26991 0.00023 0.0
C466 C 0.6745 0.13157 0.27528 0.0
O467 O 0.6796 0.11004 0.26611 0.0
Cd468 Cd 0.69461 0.11135 0.23755 0.0
O469 O 0.67763 0.15656 0.26965 0.0
Cd470 Cd 0.69379 0.17901 0.24316 0.0
C471 C 0.75847 0.14543 0.24426 0.0
O472 O 0.66711 0.14741 0.22469 0.0
O473 O 0.69547 0.17633 0.21231 0.0
O474 O 0.65751 0.21486 0.24913 0.0
C475 C 0.6766 0.15715 0.21112 0.0
O476 O 0.74477 0.12366 0.23924 0.0
C477 C 0.67315 0.23606 0.24591 0.0
O478 O 0.7453 0.16837 0.24793 0.0
O479 O 0.6991 0.2309 0.24214 0.0
H480 H 0.12022 0.91534 0.27891 0.0
H481 H 0.17789 -0.01336 0.27643 0.0
H482 H 0.15696 0.88487 0.26665 0.0
H483 H 0.21504 0.95604 0.2652 0.0
H484 H 0.27525 0.90127 0.23747 0.0
H485 H 0.23191 0.92887 0.24244 0.0
H486 H 0.20058 0.86364 0.27519 0.0
H487 H 0.24335 0.83561 0.26961 0.0
C488 C 0.14061 0.9246 0.27561 0.0
C489 C 0.14615 0.95343 0.27882 0.0
C490 C 0.16183 0.90704 0.26875 0.0
C491 C 0.18912 0.91785 0.265 0.0
C492 C 0.19424 0.94691 0.26769 0.0
C493 C 0.17302 0.96445 0.27442 0.0
C494 C 0.25878 0.89257 0.24543 0.0
C495 C 0.26283 0.8664 0.25327 0.0
C496 C 0.23402 0.9085 0.24841 0.0
C497 C 0.21292 0.89882 0.2595 0.0
C498 C 0.2162 0.87177 0.26649 0.0
C499 C 0.24082 0.85568 0.26333 0.0
H500 H 0.04826 0.67015 0.53228 0.0
H501 H 0.12088 0.6173 0.51981 0.0
H502 H 0.07397 0.71151 0.52247 0.0
H503 H 0.14671 0.65884 0.50995 0.0
H504 H 0.19394 0.74508 0.51766 0.0
H505 H 0.16865 0.70073 0.52235 0.0
H506 H 0.09346 0.73487 0.49828 0.0
H507 H 0.11855 0.77942 0.49392 0.0
C508 C 0.0695 0.66725 0.52712 0.0
C509 C 0.08251 0.64039 0.52688 0.0
C510 C 0.08428 0.69101 0.52148 0.0
C511 C 0.11246 0.68854 0.51544 0.0
C512 C 0.1252 0.66155 0.51475 0.0
C513 C 0.11039 0.63775 0.5204 0.0
C514 C 0.17216 0.74297 0.51314 0.0
C515 C 0.15818 0.76587 0.50555 0.0
C516 C 0.15767 0.71748 0.51576 0.0
C517 C 0.1289 0.71432 0.51084 0.0
C518 C 0.11543 0.73677 0.50251 0.0
C519 C 0.12989 0.76225 0.4999 0.0
H520 H 0.38188 0.56305 0.75524 0.0
H521 H 0.37751 0.60972 0.80184 0.0
H522 H 0.33801 0.58621 0.74589 0.0
H523 H 0.33371 0.63275 0.79255 0.0
H524 H 0.26512 0.68433 0.76651 0.0
H525 H 0.31276 0.66581 0.77282 0.0
H526 H 0.28777 0.58395 0.75315 0.0
H527 H 0.2406 0.60245 0.74656 0.0
C528 C 0.3716 0.57829 0.76346 0.0
C529 C 0.38316 0.58446 0.7793 0.0
C530 C 0.34646 0.59157 0.75812 0.0
C531 C 0.33225 0.61126 0.7685 0.0
C532 C 0.3443 0.61803 0.78413 0.0
C533 C 0.36944 0.60479 0.78947 0.0
C534 C 0.26989 0.66246 0.76339 0.0
C535 C 0.24894 0.64488 0.75609 0.0
C536 C 0.29716 0.65181 0.76709 0.0
C537 C 0.30409 0.62337 0.76352 0.0
C538 C 0.28334 0.60604 0.75586 0.0
C539 C 0.25615 0.61664 0.75219 0.0
H540 H 0.42668 0.91261 0.00774 0.0
H541 H 0.41571 0.87615 0.0565 0.0
H542 H 0.39826 0.87411 0.99539 0.0
H543 H 0.38774 0.83768 0.04426 0.0
H544 H 0.33104 0.77421 0.01999 0.0
H545 H 0.34413 0.82217 0.02899 0.0
H546 H 0.41115 0.82348 0.99189 0.0
H547 H 0.39804 0.77594 0.98286 0.0
C548 C 0.41761 0.89674 0.01584 0.0
C549 C 0.42365 0.8971 0.03302 0.0
C550 C 0.4015 0.87465 0.00879 0.0
C551 C 0.39091 0.85275 0.01883 0.0
C552 C 0.39533 0.85431 0.03618 0.0
C553 C 0.4116 0.87618 0.04318 0.0
C554 C 0.34805 0.78506 0.01348 0.0
C555 C 0.36379 0.77114 0.00089 0.0
C556 C 0.35564 0.81245 0.01869 0.0
C557 C 0.37885 0.8265 0.01126 0.0
C558 C 0.39304 0.81337 -0.00221 0.0
C559 C 0.38566 0.78598 0.99271 0.0
H560 H 0.13488 0.54749 0.97722 0.0
H561 H 0.08616 0.62507 0.98113 0.0
H562 H 0.17624 0.57115 0.98921 0.0
H563 H 0.12736 0.64861 0.99401 0.0
H564 H 0.21948 0.68674 0.98962 0.0
H565 H 0.17274 0.66552 0.9846 0.0
H566 H 0.19815 0.5922 0.01292 0.0
H567 H 0.24532 0.61303 0.01735 0.0
C568 C 0.1329 0.56956 0.98085 0.0
C569 C 0.10735 0.5845 0.97796 0.0
C570 C 0.15655 0.58308 0.98799 0.0
C571 C 0.15527 0.6119 0.99256 0.0
C572 C 0.12924 0.62651 0.99043 0.0
C573 C 0.10552 0.61295 0.98321 0.0
C574 C 0.21488 0.66634 0.99506 0.0
C575 C 0.23623 0.65137 0.00366 0.0
C576 C 0.18798 0.65419 0.99224 0.0
C577 C 0.18176 0.62689 -0.00189 0.0
C578 C 0.20243 0.61293 0.00785 0.0
C579 C 0.22942 0.62495 0.0105 0.0
H580 H 0.43067 0.58796 0.24372 0.0
H581 H 0.41274 0.62338 0.19533 0.0
H582 H 0.40866 0.62938 0.25716 0.0
H583 H 0.3913 0.66486 0.20867 0.0
H584 H 0.3441 0.73313 0.23594 0.0
H585 H 0.35251 0.68449 0.22631 0.0
H586 H 0.42562 0.6787 0.25921 0.0
H587 H 0.41714 0.7269 0.26891 0.0
C588 C 0.42151 0.60432 0.23597 0.0
C589 C 0.42373 0.60265 0.2185 0.0
C590 C 0.40908 0.62809 0.24365 0.0
C591 C 0.39842 0.65049 0.23398 0.0
C592 C 0.39907 0.64791 0.21649 0.0
C593 C 0.41164 0.62429 0.20884 0.0
C594 C 0.36154 0.72122 0.24139 0.0
C595 C 0.38018 0.73401 0.25302 0.0
C596 C 0.36645 0.69343 0.23581 0.0
C597 C 0.38988 0.67783 0.24189 0.0
C598 C 0.40725 0.69 0.25436 0.0
C599 C 0.40251 0.71777 0.25983 0.0
H600 H 0.40068 0.91558 0.45184 0.0
H601 H 0.43912 0.93311 0.49989 0.0
H602 H 0.36201 0.89012 0.46532 0.0
H603 H 0.40058 0.90687 0.5135 0.0
H604 H 0.30182 0.91136 0.52618 0.0
H605 H 0.35064 0.92007 0.51731 0.0
H606 H 0.34456 0.85078 0.48183 0.0
H607 H 0.29516 0.84236 0.49056 0.0
C608 C 0.4011 0.91347 0.4653 0.0
C609 C 0.42255 0.92679 0.47485 0.0
C610 C 0.37914 0.89853 0.47303 0.0
C611 C 0.37805 0.8966 0.49052 0.0
C612 C 0.40065 0.90824 0.50001 0.0
C613 C 0.42278 0.92313 0.49223 0.0
C614 C 0.3111 0.89747 0.51678 0.0
C615 C 0.29441 0.87656 0.50882 0.0
C616 C 0.33926 0.90233 0.51178 0.0
C617 C 0.35139 0.88643 0.49865 0.0
C618 C 0.33563 0.86371 0.49179 0.0
C619 C 0.30739 0.85875 0.49687 0.0
H620 H 0.11059 0.90584 0.70158 0.0
H621 H 0.08382 0.93342 0.75066 0.0
H622 H 0.13616 0.866 0.71378 0.0
H623 H 0.10943 0.89325 0.76301 0.0
H624 H 0.19172 0.80373 0.73958 0.0
H625 H 0.17679 0.85189 0.73275 0.0
H626 H 0.09912 0.84053 0.76108 0.0
H627 H 0.11394 0.79248 0.76788 0.0
C628 C 0.1106 0.90354 0.71503 0.0
C629 C 0.09511 0.92249 0.72519 0.0
C630 C 0.12542 0.8809 0.72204 0.0
C631 C 0.12479 0.8765 0.73936 0.0
C632 C 0.1102 0.89611 0.74961 0.0
C633 C 0.09569 0.91909 0.74259 0.0
C634 C 0.17183 0.81177 0.74472 0.0
C635 C 0.15384 0.7942 0.7541 0.0
C636 C 0.16323 0.83929 0.74074 0.0
C637 C 0.13666 0.84986 0.74624 0.0
C638 C 0.11977 0.83306 0.75673 0.0
C639 C 0.12821 0.80546 0.76055 0.0
H640 H 0.6248 0.46993 0.76813 0.0
H641 H 0.58194 0.38938 0.77235 0.0
H642 H 0.66577 0.4467 0.75547 0.0
H643 H 0.62278 0.36593 0.75889 0.0
H644 H 0.71917 0.33667 0.76195 0.0
H645 H 0.67088 0.35432 0.767 0.0
H646 H 0.68566 0.4223 0.73233 0.0
H647 H 0.73435 0.40527 0.72787 0.0
C648 C 0.62399 0.44723 0.76611 0.0
C649 C 0.60033 0.43144 0.7715 0.0
C650 C 0.64738 0.43388 0.7586 0.0
C651 C 0.64772 0.40434 0.75615 0.0
C652 C 0.62338 0.38867 0.76076 0.0
C653 C 0.59988 0.40211 0.76833 0.0
C654 C 0.71184 0.35495 0.75508 0.0
C655 C 0.7307 0.36988 0.74474 0.0
C656 C 0.68406 0.36507 0.75794 0.0
C657 C 0.67451 0.39014 0.75036 0.0
C658 C 0.69256 0.40341 0.73876 0.0
C659 C 0.72041 0.39353 0.73609 0.0
H660 H 0.57662 0.09399 -0.00032 0.0
H661 H 0.62873 0.10395 0.04396 0.0
H662 H 0.59808 0.13659 0.98804 0.0
H663 H 0.64994 0.14646 0.03245 0.0
H664 H 0.69401 0.21658 0.00604 0.0
H665 H 0.67988 0.16769 0.01144 0.0
H666 H 0.59423 0.18637 0.99421 0.0
H667 H 0.60848 0.23472 0.98847 0.0
C668 C 0.59278 0.10516 0.00688 0.0
C669 C 0.60084 0.09565 0.02278 0.0
C670 C 0.60509 0.12956 0.00021 0.0
C671 C 0.62566 0.14507 0.00933 0.0
C672 C 0.63454 0.13485 0.02494 0.0
C673 C 0.6223 0.11044 0.03157 0.0
C674 C 0.67236 0.21002 0.00305 0.0
C675 C 0.6523 0.2296 -0.00302 0.0
C676 C 0.66419 0.18207 0.00626 0.0
C677 C 0.63581 0.17315 0.00345 0.0
C678 C 0.61631 0.19234 -0.0036 0.0
C679 C 0.62446 0.22019 0.99319 0.0
H680 H 0.94097 0.143 0.27413 0.0
H681 H 0.90291 0.06049 0.28094 0.0
H682 H 0.89572 0.16016 0.26238 0.0
H683 H 0.85855 0.07737 0.26882 0.0
H684 H 0.79357 0.10441 0.2319 0.0
H685 H 0.84223 0.09361 0.24052 0.0
H686 H 0.84309 0.16809 0.27221 0.0
H687 H 0.79394 0.17918 0.2635 0.0
C688 C 0.92308 0.12852 0.27313 0.0
C689 C 0.9258 0.10021 0.27832 0.0
C690 C 0.89724 0.13837 0.26637 0.0
C691 C 0.87378 0.12001 0.26449 0.0
C692 C 0.87647 0.09186 0.26976 0.0
C693 C 0.90204 0.08214 0.27664 0.0
C694 C 0.80417 0.1188 0.24053 0.0
C695 C 0.78967 0.14241 0.24724 0.0
C696 C 0.83206 0.11253 0.24548 0.0
C697 C 0.84621 0.12969 0.25727 0.0
C698 C 0.83263 0.15449 0.26311 0.0
C699 C 0.80452 0.16081 0.25813 0.0
H700 H 0.89091 0.43978 0.52758 0.0
H701 H 0.97217 0.39742 0.52092 0.0
H702 H 0.86637 0.39878 0.51532 0.0
H703 H 0.94786 0.35623 0.50954 0.0
H704 H 0.9036 0.28774 0.48321 0.0
H705 H 0.92171 0.33563 0.48743 0.0
H706 H 0.85513 0.35164 0.5238 0.0
H707 H 0.83632 0.30413 0.51895 0.0
C708 C 0.90355 0.42189 0.5233 0.0
C709 C 0.93345 0.4217 0.52541 0.0
C710 C 0.88948 0.39827 0.51644 0.0
C711 C 0.90504 0.37403 0.51151 0.0
C712 C 0.93508 0.37453 0.51295 0.0
C713 C 0.94906 0.39806 0.51973 0.0
C714 C 0.89244 0.30175 0.49181 0.0
C715 C 0.86877 0.29209 0.50091 0.0
C716 C 0.90294 0.32915 0.49433 0.0
C717 C 0.89034 0.34736 0.50625 0.0
C718 C 0.86535 0.33834 0.51446 0.0
C719 C 0.85459 0.31102 0.51173 0.0
H720 H 0.65546 0.04725 0.47706 0.0
H721 H 0.62211 0.13155 0.46886 0.0
H722 H 0.69884 0.06725 0.48822 0.0
H723 H 0.66732 0.15148 0.478 0.0
H724 H 0.74677 0.18196 0.50599 0.0
H725 H 0.69961 0.16294 0.49868 0.0
H726 H 0.74019 0.08679 0.4795 0.0
H727 H 0.78638 0.10493 0.48804 0.0
C728 C 0.65713 0.07008 0.47763 0.0
C729 C 0.63486 0.08757 0.47187 0.0
C730 C 0.68261 0.08166 0.48371 0.0
C731 C 0.68723 0.11111 0.48369 0.0
C732 C 0.66476 0.12872 0.47832 0.0
C733 C 0.63884 0.11715 0.47271 0.0
C734 C 0.74533 0.16108 0.50033 0.0
C735 C 0.77008 0.14475 0.49776 0.0
C736 C 0.71834 0.15018 0.49601 0.0
C737 C 0.71572 0.12303 0.48862 0.0
C738 C 0.74087 0.10725 0.4857 0.0
C739 C 0.76755 0.11776 0.49045 0.0
H740 H 0.90117 0.12334 0.73319 0.0
H741 H 0.97927 0.16793 0.7215 0.0
H742 H 0.87949 0.16778 0.74271 0.0
H743 H 0.95778 0.21203 0.73114 0.0
H744 H 0.84292 0.25962 0.73706 0.0
H745 H 0.86299 0.21299 0.73055 0.0
H746 H 0.9409 0.23577 0.7565 0.0
H747 H 0.92119 0.28233 0.76279 0.0
C748 C 0.91373 0.14257 0.73267 0.0
C749 C 0.94202 0.142 0.72662 0.0
C750 C 0.9013 0.16802 0.73812 0.0
C751 C 0.91692 0.19343 0.73772 0.0
C752 C 0.94531 0.19276 0.73191 0.0
C753 C 0.95768 0.16741 0.72641 0.0
C754 C 0.86422 0.25458 0.74151 0.0
C755 C 0.88052 0.27486 0.75031 0.0
C756 C 0.87567 0.22781 0.73784 0.0
C757 C 0.90365 0.22078 0.74288 0.0
C758 C 0.91949 0.2407 0.75219 0.0
C759 C 0.90808 0.26738 0.75586 0.0
H760 H 0.89701 0.3976 0.96748 0.0
H761 H 0.86211 0.48061 0.97862 0.0
H762 H 0.85182 0.37631 0.97516 0.0
H763 H 0.81852 0.45911 0.98824 0.0
H764 H 0.73152 0.41994 0.98511 0.0
H765 H 0.77774 0.43956 0.97802 0.0
H766 H 0.81901 0.36282 0.9949 0.0
H767 H 0.77201 0.34248 0.00079 0.0
C768 C 0.87993 0.41142 0.97169 0.0
C769 C 0.88346 0.44106 0.97208 0.0
C770 C 0.85399 0.39904 0.97644 0.0
C771 C 0.83102 0.41587 0.98214 0.0
C772 C 0.83518 0.44533 0.98343 0.0
C773 C 0.86074 0.45774 0.97825 0.0
C774 C 0.7505 0.40727 0.98728 0.0
C775 C 0.74822 0.37974 0.99355 0.0
C776 C 0.77719 0.41863 0.98338 0.0
C777 C 0.80252 0.40311 0.9861 0.0
C778 C 0.80014 0.37541 0.9924 0.0
C779 C 0.77322 0.36373 0.99588 0.0
H780 H 0.56672 0.38956 0.24487 0.0
H781 H 0.61743 0.38798 0.19978 0.0
H782 H 0.593 0.34837 0.25506 0.0
H783 H 0.64363 0.34719 0.20996 0.0
H784 H 0.69974 0.28482 0.23615 0.0
H785 H 0.67747 0.3307 0.23089 0.0
H786 H 0.59621 0.29812 0.24777 0.0
H787 H 0.61852 0.25254 0.2533 0.0
C788 C 0.5835 0.38052 0.23716 0.0
C789 C 0.58995 0.39215 0.22151 0.0
C790 C 0.59859 0.35695 0.24301 0.0
C791 C 0.62049 0.34451 0.23335 0.0
C792 C 0.62731 0.35655 0.21789 0.0
C793 C 0.61223 0.38 0.21204 0.0
C794 C 0.67725 0.28762 0.23902 0.0
C795 C 0.66086 0.26496 0.24501 0.0
C796 C 0.66443 0.31385 0.2359 0.0
C797 C 0.63497 0.31801 0.23873 0.0
C798 C 0.61897 0.29576 0.24556 0.0
C799 C 0.63176 0.26955 0.24865 0.0
H800 H 0.10512 0.92404 0.37803 0.0
H801 H 0.15907 -0.00333 0.38792 0.0
H802 H 0.12646 0.89981 0.40153 0.0
H803 H 0.17788 0.97396 0.41239 0.0
H804 H 0.21919 0.92709 0.45292 0.0
H805 H 0.20603 0.9416 0.42487 0.0
H806 H 0.12481 0.89833 0.43 0.0
H807 H 0.13953 0.88186 0.45745 0.0
C808 C 0.12165 0.93487 0.3851 0.0
C809 C 0.13 0.96261 0.38107 0.0
C810 C 0.13357 0.92109 0.39887 0.0
C811 C 0.15373 0.93487 0.40921 0.0
C812 C 0.16277 0.96222 0.40477 0.0
C813 C 0.15142 0.97566 0.39081 0.0
C814 C 0.1988 0.92028 0.4478 0.0
C815 C 0.18029 0.90352 0.45726 0.0
C816 C 0.19101 0.92885 0.43179 0.0
C817 C 0.16395 0.92183 0.42511 0.0
C818 C 0.14594 0.90401 0.43446 0.0
C819 C 0.15422 0.89464 0.45028 0.0
H820 H 0.04585 0.64656 0.62995 0.0
H821 H 0.12796 0.60577 0.62331 0.0
H822 H 0.06421 0.6716 0.65452 0.0
H823 H 0.14609 0.63026 0.64814 0.0
H824 H 0.09355 0.67008 0.70997 0.0
H825 H 0.0767 0.65459 0.68259 0.0
H826 H 0.15843 0.67662 0.66114 0.0
H827 H 0.17547 0.69199 0.68868 0.0
C828 C 0.068 0.64339 0.63353 0.0
C829 C 0.08541 0.62403 0.62477 0.0
C830 C 0.07841 0.6575 0.64771 0.0
C831 C 0.10648 0.65266 0.65338 0.0
C832 C 0.12441 0.63455 0.64406 0.0
C833 C 0.11396 0.62034 0.62992 0.0
C834 C 0.10787 0.67185 0.6994 0.0
C835 C 0.1359 0.68207 0.70151 0.0
C836 C 0.09813 0.66318 0.68368 0.0
C837 C 0.11623 0.66441 0.66969 0.0
C838 C 0.14408 0.67523 0.67171 0.0
C839 C 0.15378 0.68411 0.68746 0.0
H840 H 0.37476 0.561 0.87573 0.0
H841 H 0.43793 0.62796 0.87551 0.0
H842 H 0.35128 0.58366 0.89966 0.0
H843 H 0.41518 0.64944 0.89997 0.0
H844 H 0.39261 0.63445 0.95819 0.0
H845 H 0.40987 0.61815 0.93096 0.0
H846 H 0.32925 0.64133 0.90854 0.0
H847 H 0.31203 0.65863 0.93586 0.0
C848 C 0.38331 0.58081 0.88048 0.0
C849 C 0.40857 0.59238 0.8738 0.0
C850 C 0.36988 0.59366 0.89422 0.0
C851 C 0.38166 0.61805 0.9016 0.0
C852 C 0.4059 0.63049 0.89447 0.0
C853 C 0.41901 0.618 0.88058 0.0
C854 C 0.37855 0.63616 0.94747 0.0
C855 C 0.35099 0.64778 0.9491 0.0
C856 C 0.38848 0.62696 0.93192 0.0
C857 C 0.37084 0.62865 0.91778 0.0
C858 C 0.34315 0.63994 0.91935 0.0
C859 C 0.3334 0.64982 0.93489 0.0
H860 H 0.41379 0.91431 0.12655 0.0
H861 H 0.50063 0.90073 0.14366 0.0
H862 H 0.39582 0.89676 0.15303 0.0
H863 H 0.4827 0.88074 0.16912 0.0
H864 H 0.44807 0.8797 0.22082 0.0
H865 H 0.4629 0.8969 0.19382 0.0
H866 H 0.38853 0.85791 0.17099 0.0
H867 H 0.37283 0.84199 0.19851 0.0
C868 C 0.42909 0.90737 0.13581 0.0
C869 C 0.45877 0.90927 0.13285 0.0
C870 C 0.41872 0.89688 0.15095 0.0
C871 C 0.43776 0.88766 0.1634 0.0
C872 C 0.46731 0.88834 0.16008 0.0
C873 C 0.47765 0.89931 0.14518 0.0
C874 C 0.43484 0.87481 0.21004 0.0
C875 C 0.40943 0.85929 0.21175 0.0
C876 C 0.44347 0.88448 0.19448 0.0
C877 C 0.42729 0.87834 0.18005 0.0
C878 C 0.40149 0.8632 0.1818 0.0
C879 C 0.39252 0.85396 0.19753 0.0
H880 H 0.03593 0.62729 0.87244 0.0
H881 H 0.11807 0.58614 0.87727 0.0
H882 H 0.05268 0.65112 0.84724 0.0
H883 H 0.13501 0.61049 0.85224 0.0
H884 H 0.15727 0.67684 0.81096 0.0
H885 H 0.14171 0.66457 0.83933 0.0
H886 H 0.06744 0.62245 0.81879 0.0
H887 H 0.08333 0.63378 0.7906 0.0
C888 C 0.05784 0.62406 0.86839 0.0
C889 C 0.07573 0.60487 0.87672 0.0
C890 C 0.06734 0.63758 0.85398 0.0
C891 C 0.09509 0.63259 0.84788 0.0
C892 C 0.11362 0.61485 0.85682 0.0
C893 C 0.10392 0.60086 0.87104 0.0
C894 C 0.13742 0.66534 0.81259 0.0
C895 C 0.12151 0.65613 0.79865 0.0
C896 C 0.12862 0.65828 0.82875 0.0
C897 C 0.10336 0.6427 0.83116 0.0
C898 C 0.08685 0.63469 0.81724 0.0
C899 C 0.09601 0.64105 0.80114 0.0
H900 H 0.40045 0.553 0.11521 0.0
H901 H 0.46252 0.61995 0.12164 0.0
H902 H 0.38054 0.57729 0.091 0.0
H903 H 0.44255 0.64432 0.09759 0.0
H904 H 0.43088 0.65213 0.04097 0.0
H905 H 0.44458 0.6334 0.06788 0.0
H906 H 0.35557 0.61961 0.07994 0.0
H907 H 0.34166 0.63819 0.05264 0.0
C908 C 0.40939 0.57323 0.11169 0.0
C909 C 0.4333 0.58439 0.12017 0.0
C910 C 0.39798 0.58716 0.09783 0.0
C911 C 0.41024 0.61253 0.09222 0.0
C912 C 0.43302 0.62449 0.10136 0.0
C913 C 0.44444 0.61057 0.11515 0.0
C914 C 0.41411 0.64528 0.04933 0.0
C915 C 0.38514 0.6466 0.04458 0.0
C916 C 0.42199 0.63474 0.06487 0.0
C917 C 0.40117 0.62516 0.07612 0.0
C918 C 0.37212 0.6267 0.0715 0.0
C919 C 0.36417 0.63745 0.0559 0.0
H920 H 0.47025 0.9007 0.3747 0.0
H921 H 0.39139 0.94799 0.37949 0.0
H922 H 0.4496 0.8733 0.35166 0.0
H923 H 0.37074 0.9205 0.3563 0.0
H924 H 0.33929 0.84842 0.32028 0.0
H925 H 0.35715 0.86847 0.34677 0.0
H926 H 0.43608 0.8917 0.32249 0.0
H927 H 0.41829 0.87225 0.2962 0.0
C928 C 0.44828 0.90479 0.37107 0.0
C929 C 0.43245 0.92656 0.37882 0.0
C930 C 0.43656 0.88924 0.35783 0.0
C931 C 0.40868 0.89494 0.35219 0.0
C932 C 0.39224 0.91562 0.3605 0.0
C933 C 0.4041 0.93145 0.37365 0.0
C934 C 0.36051 0.85764 0.3207 0.0
C935 C 0.37738 0.85889 0.30621 0.0
C936 C 0.37065 0.86915 0.33579 0.0
C937 C 0.39801 0.88145 0.33663 0.0
C938 C 0.41504 0.88204 0.32222 0.0
C939 C 0.40477 0.87108 0.30715 0.0
H940 H 0.05181 0.95139 0.60608 0.0
H941 H 0.12021 0.9261 0.6392 0.0
H942 H 0.0773 0.93082 0.58261 0.0
H943 H 0.14675 0.90702 0.61535 0.0
H944 H 0.1728 0.85158 0.56981 0.0
H945 H 0.14777 0.8697 0.59452 0.0
H946 H 0.11784 0.94128 0.56612 0.0
H947 H 0.14185 0.9227 0.54146 0.0
C948 C 0.07221 0.94124 0.60842 0.0
C949 C 0.08384 0.94034 0.62461 0.0
C950 C 0.08712 0.92986 0.59485 0.0
C951 C 0.11428 0.91757 0.59702 0.0
C952 C 0.12581 0.9162 0.61323 0.0
C953 C 0.11073 0.92744 0.62688 0.0
C954 C 0.16089 0.87121 0.56891 0.0
C955 C 0.15907 0.88559 0.55368 0.0
C956 C 0.14667 0.88167 0.58308 0.0
C957 C 0.13051 0.9068 0.58228 0.0
C958 C 0.12946 0.9215 0.56711 0.0
C959 C 0.1434 0.91094 0.55297 0.0
H960 H 0.58559 0.39006 0.86666 0.0
H961 H 0.56585 0.46575 0.89524 0.0
H962 H 0.59989 0.36629 0.89245 0.0
H963 H 0.58148 0.44285 0.92045 0.0
H964 H 0.58096 0.39144 0.96557 0.0
H965 H 0.56412 0.4071 0.93849 0.0
H966 H 0.63648 0.36617 0.91477 0.0
H967 H 0.65273 0.34938 0.94211 0.0
C968 C 0.58448 0.40169 0.87836 0.0
C969 C 0.57467 0.42991 0.8788 0.0
C970 C 0.59287 0.38814 0.89311 0.0
C971 C 0.59147 0.40253 0.90856 0.0
C972 C 0.58226 0.43086 0.90886 0.0
C973 C 0.57378 0.44425 0.89426 0.0
C974 C 0.59304 0.38539 0.95455 0.0
C975 C 0.61834 0.36954 0.95593 0.0
C976 C 0.58352 0.39453 0.93902 0.0
C977 C 0.59939 0.38859 0.9245 0.0
C978 C 0.62379 0.37116 0.92572 0.0
C979 C 0.63311 0.36156 0.94135 0.0
H980 H 0.65266 0.0514 0.12328 0.0
H981 H 0.58373 0.1127 0.12181 0.0
H982 H 0.673 0.07612 0.14744 0.0
H983 H 0.60535 0.13815 0.14532 0.0
H984 H 0.67799 0.18233 0.18053 0.0
H985 H 0.66229 0.16184 0.15367 0.0
H986 H 0.64095 0.08387 0.17828 0.0
H987 H 0.65563 0.10442 0.20511 0.0
C988 C 0.64201 0.07029 0.1279 0.0
C989 C 0.61619 0.07968 0.1207 0.0
C990 C 0.65386 0.08452 0.14163 0.0
C991 C 0.64059 0.10885 0.14815 0.0
C992 C 0.61599 0.11948 0.14035 0.0
C993 C 0.60375 0.10493 0.12683 0.0
C994 C 0.66996 0.16082 0.18015 0.0
C995 C 0.6679 0.14495 0.19486 0.0
C996 C 0.66101 0.1492 0.16486 0.0
C997 C 0.65067 0.12133 0.16404 0.0
C998 C 0.64907 0.10535 0.17867 0.0
C999 C 0.65731 0.11716 0.19398 0.0
H1000 H 0.96987 0.15552 0.37906 0.0
H1001 H 0.92621 0.07499 0.38126 0.0
H1002 H 0.94684 0.17017 0.40514 0.0
H1003 H 0.90243 0.09009 0.40682 0.0
H1004 H 0.88538 0.19187 0.44893 0.0
H1005 H 0.90121 0.18143 0.42032 0.0
H1006 H 0.92268 0.09616 0.43482 0.0
H1007 H 0.90685 0.10627 0.46302 0.0
C1008 C 0.95497 0.14116 0.38492 0.0
C1009 C 0.95021 0.11391 0.37817 0.0
C1010 C 0.94158 0.14968 0.39977 0.0
C1011 C 0.92319 0.1311 0.40816 0.0
C1012 C 0.91691 0.10468 0.40079 0.0
C1013 C 0.93029 0.09616 0.386 0.0
C1014 C 0.89344 0.17091 0.44596 0.0
C1015 C 0.89481 0.14992 0.45829 0.0
C1016 C 0.90253 0.16496 0.42961 0.0
C1017 C 0.91285 0.13786 0.42528 0.0
C1018 C 0.91426 0.11705 0.43764 0.0
C1019 C 0.9054 0.12298 0.4539 0.0
H1020 H 0.97679 0.45143 0.64601 0.0
H1021 H 0.89713 0.43819 0.61944 0.0
H1022 H 0.95522 0.434 0.67121 0.0
H1023 H 0.87472 0.42261 0.64534 0.0
H1024 H 0.85448 0.37046 0.69347 0.0
H1025 H 0.87265 0.38593 0.66632 0.0
H1026 H 0.92256 0.45091 0.69121 0.0
H1027 H 0.90556 0.43468 0.71804 0.0
C1028 C 0.95471 0.44455 0.64543 0.0
C1029 C 0.93885 0.44618 0.63052 0.0
C1030 C 0.94209 0.43505 0.66008 0.0
C1031 C 0.91301 0.42742 0.66045 0.0
C1032 C 0.89717 0.42833 0.64551 0.0
C1033 C 0.90996 0.43757 0.63069 0.0
C1034 C 0.86915 0.38819 0.69302 0.0
C1035 C 0.87899 0.40108 0.70784 0.0
C1036 C 0.87952 0.3971 0.6775 0.0
C1037 C 0.89961 0.41927 0.67657 0.0
C1038 C 0.90793 0.43313 0.69143 0.0
C1039 C 0.89801 0.42398 0.70684 0.0
H1040 H 0.64291 0.08486 0.37916 0.0
H1041 H 0.56071 0.1002 0.35583 0.0
H1042 H 0.66682 0.1002 0.35368 0.0
H1043 H 0.58483 0.11705 0.33101 0.0
H1044 H 0.64161 0.16726 0.29438 0.0
H1045 H 0.62156 0.15794 0.32208 0.0
H1046 H 0.66485 0.07718 0.32284 0.0
H1047 H 0.68434 0.08608 0.29508 0.0
C1048 C 0.62987 0.09165 0.36875 0.0
C1049 C 0.59974 0.09107 0.36967 0.0
C1050 C 0.64364 0.10065 0.35423 0.0
C1051 C 0.62761 0.10989 0.34048 0.0
C1052 C 0.59765 0.11041 0.34156 0.0
C1053 C 0.58387 0.10087 0.3559 0.0
C1054 C 0.64707 0.14768 0.30056 0.0
C1055 C 0.66435 0.1273 0.29254 0.0
C1056 C 0.63557 0.14235 0.31635 0.0
C1057 C 0.64177 0.11689 0.32454 0.0
C1058 C 0.65997 0.09706 0.31682 0.0
C1059 C 0.67093 0.10209 0.30091 0.0
H1060 H 0.97419 0.14209 0.62526 0.0
H1061 H 0.89088 0.10432 0.63215 0.0
H1062 H 0.95608 0.16782 0.60118 0.0
H1063 H 0.87296 0.12952 0.6078 0.0
H1064 H 0.84488 0.19272 0.56835 0.0
H1065 H 0.86206 0.17662 0.59555 0.0
H1066 H 0.94215 0.15108 0.57302 0.0
H1067 H 0.92517 0.16724 0.546 0.0
C1068 C 0.95186 0.13973 0.62184 0.0
C1069 C 0.93401 0.12102 0.63053 0.0
C1070 C 0.94157 0.15424 0.60795 0.0
C1071 C 0.91319 0.15046 0.60249 0.0
C1072 C 0.89489 0.13299 0.61174 0.0
C1073 C 0.90522 0.11837 0.62559 0.0
C1074 C 0.86625 0.18392 0.56927 0.0
C1075 C 0.88362 0.18107 0.55503 0.0
C1076 C 0.87603 0.17462 0.58482 0.0
C1077 C 0.90345 0.1626 0.58642 0.0
C1078 C 0.92107 0.16059 0.57225 0.0
C1079 C 0.91125 0.16964 0.55673 0.0
H1080 H 0.91653 0.40367 0.8777 0.0
H1081 H 0.87287 0.48366 0.87198 0.0
H1082 H 0.88988 0.38419 0.85402 0.0
H1083 H 0.84571 0.46397 0.8485 0.0
H1084 H 0.84699 0.43277 0.79292 0.0
H1085 H 0.86192 0.4511 0.82005 0.0
H1086 H 0.84235 0.37052 0.84236 0.0
H1087 H 0.82747 0.352 0.81502 0.0
C1088 C 0.90085 0.41691 0.87155 0.0
C1089 C 0.89703 0.44528 0.87655 0.0
C1090 C 0.88539 0.40567 0.8581 0.0
C1091 C 0.86588 0.42263 0.84931 0.0
C1092 C 0.86085 0.45051 0.85493 0.0
C1093 C 0.87621 0.4617 0.86845 0.0
C1094 C 0.84553 0.41904 0.80364 0.0
C1095 C 0.83634 0.39086 0.80181 0.0
C1096 C 0.85385 0.42963 0.81922 0.0
C1097 C 0.85334 0.41224 0.83335 0.0
C1098 C 0.84316 0.38434 0.83166 0.0
C1099 C 0.83456 0.37378 0.81604 0.0
H1100 H 0.55197 0.37371 0.12379 0.0
H1101 H 0.63083 0.42111 0.12765 0.0
H1102 H 0.57133 0.34727 0.10005 0.0
H1103 H 0.64989 0.39516 0.10358 0.0
H1104 H 0.68131 0.33293 0.06371 0.0
H1105 H 0.66502 0.34842 0.09143 0.0
H1106 H 0.58052 0.3638 0.07141 0.0
H1107 H 0.59662 0.34832 0.04395 0.0
C1108 C 0.57369 0.37803 0.11983 0.0
C1109 C 0.58978 0.3997 0.12749 0.0
C1110 C 0.58466 0.36307 0.10613 0.0
C1111 C 0.61196 0.36941 0.09982 0.0
C1112 C 0.62881 0.38973 0.10818 0.0
C1113 C 0.6178 0.40477 0.12186 0.0
C1114 C 0.65919 0.33931 0.06533 0.0
C1115 C 0.64028 0.33961 0.05165 0.0
C1116 C 0.64991 0.34825 0.08115 0.0
C1117 C 0.62149 0.35726 0.0836 0.0
C1118 C 0.60243 0.3566 0.07001 0.0
C1119 C 0.61173 0.34796 0.05422 0.0
loop_
_geom_bond_atom_site_label_1
_geom_bond_atom_site_label_2
_geom_bond_distance
_geom_bond_site_symmetry_2
_ccdc_geom_bond_type
C0 C1 1.384 . S
C0 C2 1.384 . S
C0 H28 0.931 . S
C1 C0 1.384 . S
C1 C4 1.382 1_565 S
C2 C0 1.384 . S
C2 C3 1.381 1_565 S
C2 H29 0.930 . S
C3 C2 1.381 1_545 S
C3 C5 1.381 . S
C3 C6 1.487 . S
C4 C1 1.382 1_545 S
C4 C5 1.387 . S
C4 H30 0.930 . S
C5 C3 1.381 . S
C5 C4 1.387 . S
C5 H31 0.931 . S
C6 C3 1.487 . S
C6 C13 1.399 . S
C6 N44 1.343 . S
C7 C8 1.384 . S
C7 C9 1.384 1_565 S
C7 H32 0.931 . S
C8 C7 1.384 . S
C8 C11 1.382 . S
C9 C7 1.384 1_545 S
C9 C10 1.381 . S
C9 H33 0.930 . S
C10 C9 1.381 . S
C10 C12 1.381 1_545 S
C10 C13 1.487 . S
C11 C8 1.382 . S
C11 C12 1.387 . S
C11 H34 0.930 . S
C12 C10 1.381 1_565 S
C12 C11 1.387 . S
C12 H35 0.931 . S
C13 C6 1.399 . S
C13 C10 1.487 . S
C13 N45 1.343 . S
C14 C15 1.384 . S
C14 C16 1.384 . S
C14 H36 0.931 . S
C15 C14 1.384 . S
C15 C18 1.382 . S
C16 C14 1.384 . S
C16 C17 1.385 . S
C16 H37 0.930 1_655 S
C17 C16 1.385 . S
C17 C19 1.391 . S
C17 C20 1.474 1_655 S
C18 C15 1.382 . S
C18 C19 1.387 . S
C18 H38 0.930 . S
C19 C17 1.391 . S
C19 C18 1.387 . S
C19 H39 0.931 . S
C20 C17 1.474 1_455 S
C20 C27 1.399 . S
C20 N45 1.343 . S
C21 C22 1.384 . S
C21 C23 1.384 . S
C21 H40 0.931 . S
C22 C21 1.384 . S
C22 C25 1.382 . S
C23 C21 1.384 . S
C23 C24 1.381 1_655 S
C23 H41 0.930 . S
C24 C23 1.381 1_455 S
C24 C26 1.381 . S
C24 C27 1.487 . S
C25 C22 1.382 . S
C25 C26 1.387 1_655 S
C25 H42 0.930 1_655 S
C26 C24 1.381 . S
C26 C25 1.387 1_455 S
C26 H43 0.931 . S
C27 C20 1.399 . S
C27 C24 1.487 . S
C27 N44 1.343 . S
H28 C0 0.931 . S
H29 C2 0.930 . S
H30 C4 0.930 . S
H31 C5 0.931 . S
H32 C7 0.931 . S
H33 C9 0.930 . S
H34 C11 0.930 . S
H35 C12 0.931 . S
H36 C14 0.931 . S
H37 C16 0.930 1_455 S
H38 C18 0.930 . S
H39 C19 0.931 . S
H40 C21 0.931 . S
H41 C23 0.930 . S
H42 C25 0.930 1_455 S
H43 C26 0.931 . S
N44 C6 1.343 . S
N44 C27 1.343 . S
N45 C13 1.343 . S
N45 C20 1.343 . S
C46 C47 1.384 . S
C46 C48 1.384 . S
C46 H74 0.931 . S
C47 C46 1.384 . S
C47 C50 1.382 . S
C48 C46 1.384 . S
C48 C49 1.381 . S
C48 H75 0.930 . S
C49 C48 1.381 . S
C49 C51 1.381 . S
C49 C52 1.487 . S
C50 C47 1.382 . S
C50 C51 1.387 . S
C50 H76 0.930 . S
C51 C49 1.381 . S
C51 C50 1.387 . S
C51 H77 0.931 1_655 S
C52 C49 1.487 . S
C52 C59 1.399 . S
C52 N90 1.343 1_655 S
C53 C54 1.384 . S
C53 C55 1.384 . S
C53 H78 0.931 . S
C54 C53 1.384 . S
C54 C57 1.382 . S
C55 C53 1.384 . S
C55 C56 1.381 . S
C55 H79 0.930 . S
C56 C55 1.381 . S
C56 C58 1.381 . S
C56 C59 1.487 . S
C57 C54 1.382 . S
C57 C58 1.387 . S
C57 H80 0.930 . S
C58 C56 1.381 . S
C58 C57 1.387 . S
C58 H81 0.931 . S
C59 C52 1.399 . S
C59 C56 1.487 . S
C59 N91 1.343 1_655 S
C60 C61 1.384 . S
C60 C62 1.384 . S
C60 H82 0.931 . S
C61 C60 1.384 . S
C61 C64 1.382 . S
C62 C60 1.384 . S
C62 C63 1.381 . S
C62 H83 0.930 . S
C63 C62 1.381 . S
C63 C65 1.381 . S
C63 C66 1.487 . S
C64 C61 1.382 . S
C64 C65 1.387 . S
C64 H84 0.930 . S
C65 C63 1.381 . S
C65 C64 1.387 . S
C65 H85 0.931 . S
C66 C63 1.487 . S
C66 C73 1.399 . S
C66 N91 1.343 . S
C67 C68 1.384 . S
C67 C69 1.384 . S
C67 H86 0.931 . S
C68 C67 1.384 . S
C68 C71 1.382 . S
C69 C67 1.384 . S
C69 C70 1.381 . S
C69 H87 0.930 . S
C70 C69 1.381 . S
C70 C72 1.381 . S
C70 C73 1.487 . S
C71 C68 1.382 . S
C71 C72 1.387 . S
C71 H88 0.930 . S
C72 C70 1.381 . S
C72 C71 1.387 . S
C72 H89 0.931 . S
C73 C66 1.399 . S
C73 C70 1.487 . S
C73 N90 1.343 . S
H74 C46 0.931 . S
H75 C48 0.930 . S
H76 C50 0.930 . S
H77 C51 0.931 1_455 S
H78 C53 0.931 . S
H79 C55 0.930 . S
H80 C57 0.930 . S
H81 C58 0.931 . S
H82 C60 0.931 . S
H83 C62 0.930 . S
H84 C64 0.930 . S
H85 C65 0.931 . S
H86 C67 0.931 . S
H87 C69 0.930 . S
H88 C71 0.930 . S
H89 C72 0.931 . S
N90 C52 1.343 1_455 S
N90 C73 1.343 . S
N91 C59 1.343 1_455 S
N91 C66 1.343 . S
C92 C93 1.384 . S
C92 C94 1.384 . S
C92 H120 0.931 . S
C93 C92 1.384 . S
C93 C96 1.382 . S
C94 C92 1.384 . S
C94 C95 1.381 . S
C94 H121 0.930 . S
C95 C94 1.381 . S
C95 C97 1.381 . S
C95 C98 1.487 . S
C96 C93 1.382 . S
C96 C97 1.387 . S
C96 H122 0.930 . S
C97 C95 1.381 . S
C97 C96 1.387 . S
C97 H123 0.931 . S
C98 C95 1.487 . S
C98 C105 1.399 . S
C98 N136 1.343 . S
C99 C100 1.384 . S
C99 C101 1.384 . S
C99 H124 0.931 . S
C100 C99 1.384 . S
C100 C103 1.382 . S
C101 C99 1.384 . S
C101 C102 1.381 . S
C101 H125 0.930 . S
C102 C101 1.381 . S
C102 C104 1.381 . S
C102 C105 1.487 . S
C103 C100 1.382 . S
C103 C104 1.387 . S
C103 H126 0.930 . S
C104 C102 1.381 . S
C104 C103 1.387 . S
C104 H127 0.931 . S
C105 C98 1.399 . S
C105 C102 1.487 . S
C105 N137 1.343 . S
C106 C107 1.384 . S
C106 C108 1.384 . S
C106 H128 0.931 . S
C107 C106 1.384 . S
C107 C110 1.382 . S
C108 C106 1.384 . S
C108 C109 1.381 . S
C108 H129 0.930 . S
C109 C108 1.381 . S
C109 C111 1.381 . S
C109 C112 1.487 . S
C110 C107 1.382 . S
C110 C111 1.387 . S
C110 H130 0.930 . S
C111 C109 1.381 . S
C111 C110 1.387 . S
C111 H131 0.931 . S
C112 C109 1.487 . S
C112 C119 1.399 . S
C112 N137 1.343 . S
C113 C114 1.384 . S
C113 C115 1.384 . S
C113 H132 0.931 . S
C114 C113 1.384 . S
C114 C117 1.382 . S
C115 C113 1.384 . S
C115 C116 1.381 . S
C115 H133 0.930 . S
C116 C115 1.381 . S
C116 C118 1.381 . S
C116 C119 1.487 . S
C117 C114 1.382 . S
C117 C118 1.387 . S
C117 H134 0.930 . S
C118 C116 1.381 . S
C118 C117 1.387 . S
C118 H135 0.931 . S
C119 C112 1.399 . S
C119 C116 1.487 . S
C119 N136 1.343 . S
H120 C92 0.931 . S
H121 C94 0.930 . S
H122 C96 0.930 . S
H123 C97 0.931 . S
H124 C99 0.931 . S
H125 C101 0.930 . S
H126 C103 0.930 . S
H127 C104 0.931 . S
H128 C106 0.931 . S
H129 C108 0.930 . S
H130 C110 0.930 . S
H131 C111 0.931 . S
H132 C113 0.931 . S
H133 C115 0.930 . S
H134 C117 0.930 . S
H135 C118 0.931 . S
N136 C98 1.343 . S
N136 C119 1.343 . S
N137 C105 1.343 . S
N137 C112 1.343 . S
C138 C139 1.384 . S
C138 C140 1.384 . S
C138 H166 0.931 . S
C139 C138 1.384 . S
C139 C142 1.382 . S
C140 C138 1.384 . S
C140 C141 1.381 . S
C140 H167 0.930 . S
C141 C140 1.381 . S
C141 C143 1.381 . S
C141 C144 1.487 . S
C142 C139 1.382 . S
C142 C143 1.387 . S
C142 H168 0.930 . S
C143 C141 1.381 . S
C143 C142 1.387 . S
C143 H169 0.931 . S
C144 C141 1.487 . S
C144 C151 1.399 . S
C144 N182 1.343 1_565 S
C145 C146 1.384 . S
C145 C147 1.384 . S
C145 H170 0.931 . S
C146 C145 1.384 . S
C146 C149 1.382 . S
C147 C145 1.384 . S
C147 C148 1.381 . S
C147 H171 0.930 . S
C148 C147 1.381 . S
C148 C150 1.381 . S
C148 C151 1.487 . S
C149 C146 1.382 . S
C149 C150 1.387 . S
C149 H172 0.930 . S
C150 C148 1.381 . S
C150 C149 1.387 . S
C150 H173 0.931 . S
C151 C144 1.399 . S
C151 C148 1.487 . S
C151 N183 1.343 . S
C152 C153 1.384 . S
C152 C154 1.384 . S
C152 H174 0.931 . S
C153 C152 1.384 . S
C153 C156 1.382 . S
C154 C152 1.384 . S
C154 C155 1.381 . S
C154 H175 0.930 . S
C155 C154 1.381 . S
C155 C157 1.381 . S
C155 C158 1.487 . S
C156 C153 1.382 . S
C156 C157 1.387 . S
C156 H176 0.930 . S
C157 C155 1.381 . S
C157 C156 1.387 . S
C157 H177 0.931 . S
C158 C155 1.487 . S
C158 C165 1.399 . S
C158 N183 1.343 1_545 S
C159 C160 1.384 . S
C159 C161 1.384 . S
C159 H178 0.931 . S
C160 C159 1.384 . S
C160 C163 1.382 . S
C161 C159 1.384 . S
C161 C162 1.381 . S
C161 H179 0.930 . S
C162 C161 1.381 . S
C162 C164 1.381 . S
C162 C165 1.487 . S
C163 C160 1.382 . S
C163 C164 1.387 . S
C163 H180 0.930 . S
C164 C162 1.381 . S
C164 C163 1.387 . S
C164 H181 0.931 . S
C165 C158 1.399 . S
C165 C162 1.487 . S
C165 N182 1.343 . S
H166 C138 0.931 . S
H167 C140 0.930 . S
H168 C142 0.930 . S
H169 C143 0.931 . S
H170 C145 0.931 . S
H171 C147 0.930 . S
H172 C149 0.930 . S
H173 C150 0.931 . S
H174 C152 0.931 . S
H175 C154 0.930 . S
H176 C156 0.930 . S
H177 C157 0.931 . S
H178 C159 0.931 . S
H179 C161 0.930 . S
H180 C163 0.930 . S
H181 C164 0.931 . S
N182 C144 1.343 1_545 S
N182 C165 1.343 . S
N183 C151 1.343 . S
N183 C158 1.343 1_565 S
C184 C185 1.384 . S
C184 C186 1.384 . S
C184 H212 0.931 . S
C185 C184 1.384 . S
C185 C188 1.382 . S
C186 C184 1.384 . S
C186 C187 1.381 . S
C186 H213 0.930 . S
C187 C186 1.381 . S
C187 C189 1.381 . S
C187 C190 1.487 . S
C188 C185 1.382 . S
C188 C189 1.387 . S
C188 H214 0.930 . S
C189 C187 1.381 . S
C189 C188 1.387 . S
C189 H215 0.931 . S
C190 C187 1.487 . S
C190 C197 1.399 . S
C190 N228 1.343 . S
C191 C192 1.384 . S
C191 C193 1.384 . S
C191 H216 0.931 . S
C192 C191 1.384 . S
C192 C195 1.382 . S
C193 C191 1.384 . S
C193 C194 1.381 . S
C193 H217 0.930 . S
C194 C193 1.381 . S
C194 C196 1.381 . S
C194 C197 1.487 . S
C195 C192 1.382 . S
C195 C196 1.387 . S
C195 H218 0.930 . S
C196 C194 1.381 . S
C196 C195 1.387 . S
C196 H219 0.931 . S
C197 C190 1.399 . S
C197 C194 1.487 . S
C197 N229 1.343 1_455 S
C198 C199 1.384 . S
C198 C200 1.384 . S
C198 H220 0.931 . S
C199 C198 1.384 . S
C199 C202 1.382 . S
C200 C198 1.384 . S
C200 C201 1.381 . S
C200 H221 0.930 . S
C201 C200 1.381 . S
C201 C203 1.381 . S
C201 C204 1.487 . S
C202 C199 1.382 . S
C202 C203 1.387 . S
C202 H222 0.930 . S
C203 C201 1.381 . S
C203 C202 1.387 . S
C203 H223 0.931 . S
C204 C201 1.487 . S
C204 C211 1.399 . S
C204 N229 1.343 . S
C205 C206 1.384 . S
C205 C207 1.384 . S
C205 H224 0.931 . S
C206 C205 1.384 . S
C206 C209 1.382 . S
C207 C205 1.384 . S
C207 C208 1.381 . S
C207 H225 0.930 . S
C208 C207 1.381 . S
C208 C210 1.381 . S
C208 C211 1.487 . S
C209 C206 1.382 . S
C209 C210 1.387 . S
C209 H226 0.930 . S
C210 C208 1.381 . S
C210 C209 1.387 . S
C210 H227 0.931 . S
C211 C204 1.399 . S
C211 C208 1.487 . S
C211 N228 1.343 1_655 S
H212 C184 0.931 . S
H213 C186 0.930 . S
H214 C188 0.930 . S
H215 C189 0.931 . S
H216 C191 0.931 . S
H217 C193 0.930 . S
H218 C195 0.930 . S
H219 C196 0.931 . S
H220 C198 0.931 . S
H221 C200 0.930 . S
H222 C202 0.930 . S
H223 C203 0.931 . S
H224 C205 0.931 . S
H225 C207 0.930 . S
H226 C209 0.930 . S
H227 C210 0.931 . S
N228 C190 1.343 . S
N228 C211 1.343 1_455 S
N229 C197 1.343 1_655 S
N229 C204 1.343 . S
C230 C231 1.384 . S
C230 C232 1.384 . S
C230 H258 0.931 . S
C231 C230 1.384 . S
C231 C234 1.382 . S
C232 C230 1.384 . S
C232 C233 1.381 . S
C232 H259 0.930 . S
C233 C232 1.381 . S
C233 C235 1.381 . S
C233 C236 1.487 . S
C234 C231 1.382 . S
C234 C235 1.387 . S
C234 H260 0.930 . S
C235 C233 1.381 . S
C235 C234 1.387 . S
C235 H261 0.931 . S
C236 C233 1.487 . S
C236 C243 1.399 . S
C236 N274 1.343 . S
C237 C238 1.384 . S
C237 C239 1.384 . S
C237 H262 0.931 . S
C238 C237 1.384 . S
C238 C241 1.382 . S
C239 C237 1.384 . S
C239 C240 1.381 . S
C239 H263 0.930 . S
C240 C239 1.381 . S
C240 C242 1.381 . S
C240 C243 1.487 . S
C241 C238 1.382 . S
C241 C242 1.387 . S
C241 H264 0.930 . S
C242 C240 1.381 . S
C242 C241 1.387 . S
C242 H265 0.931 . S
C243 C236 1.399 . S
C243 C240 1.487 . S
C243 N275 1.343 . S
C244 C245 1.384 . S
C244 C246 1.384 . S
C244 H266 0.931 . S
C245 C244 1.384 . S
C245 C248 1.382 . S
C246 C244 1.384 . S
C246 C247 1.381 . S
C246 H267 0.930 . S
C247 C246 1.381 . S
C247 C249 1.381 . S
C247 C250 1.487 . S
C248 C245 1.382 . S
C248 C249 1.387 . S
C248 H268 0.930 . S
C249 C247 1.381 . S
C249 C248 1.387 . S
C249 H269 0.931 . S
C250 C247 1.487 . S
C250 C257 1.399 . S
C250 N275 1.343 . S
C251 C252 1.384 . S
C251 C253 1.384 . S
C251 H270 0.931 . S
C252 C251 1.384 . S
C252 C255 1.382 . S
C253 C251 1.384 . S
C253 C254 1.381 . S
C253 H271 0.930 . S
C254 C253 1.381 . S
C254 C256 1.381 . S
C254 C257 1.487 . S
C255 C252 1.382 . S
C255 C256 1.387 . S
C255 H272 0.930 . S
C256 C254 1.381 . S
C256 C255 1.387 . S
C256 H273 0.931 . S
C257 C250 1.399 . S
C257 C254 1.487 . S
C257 N274 1.343 . S
H258 C230 0.931 . S
H259 C232 0.930 . S
H260 C234 0.930 . S
H261 C235 0.931 . S
H262 C237 0.931 . S
H263 C239 0.930 . S
H264 C241 0.930 . S
H265 C242 0.931 . S
H266 C244 0.931 . S
H267 C246 0.930 . S
H268 C248 0.930 . S
H269 C249 0.931 . S
H270 C251 0.931 . S
H271 C253 0.930 . S
H272 C255 0.930 . S
H273 C256 0.931 . S
N274 C236 1.343 . S
N274 C257 1.343 . S
N275 C243 1.343 . S
N275 C250 1.343 . S
C276 C277 1.384 . S
C276 C278 1.384 . S
C276 H304 0.931 . S
C277 C276 1.384 . S
C277 C280 1.382 . S
C278 C276 1.384 . S
C278 C279 1.381 . S
C278 H305 0.930 . S
C279 C278 1.381 . S
C279 C281 1.381 . S
C279 C282 1.487 . S
C280 C277 1.382 . S
C280 C281 1.387 . S
C280 H306 0.930 . S
C281 C279 1.381 . S
C281 C280 1.387 . S
C281 H307 0.931 1_565 S
C282 C279 1.487 . S
C282 C289 1.399 . S
C282 N320 1.343 1_565 S
C283 C284 1.384 . S
C283 C285 1.384 . S
C283 H308 0.931 . S
C284 C283 1.384 . S
C284 C287 1.382 . S
C285 C283 1.384 . S
C285 C286 1.381 . S
C285 H309 0.930 . S
C286 C285 1.381 . S
C286 C288 1.381 . S
C286 C289 1.487 . S
C287 C284 1.382 . S
C287 C288 1.387 . S
C287 H310 0.930 . S
C288 C286 1.381 . S
C288 C287 1.387 . S
C288 H311 0.931 . S
C289 C282 1.399 . S
C289 C286 1.487 . S
C289 N321 1.343 1_565 S
C290 C291 1.384 . S
C290 C292 1.384 . S
C290 H312 0.931 . S
C291 C290 1.384 . S
C291 C294 1.382 . S
C292 C290 1.384 . S
C292 C293 1.381 . S
C292 H313 0.930 . S
C293 C292 1.381 . S
C293 C295 1.381 . S
C293 C296 1.487 . S
C294 C291 1.382 . S
C294 C295 1.387 . S
C294 H314 0.930 . S
C295 C293 1.381 . S
C295 C294 1.387 . S
C295 H315 0.931 . S
C296 C293 1.487 . S
C296 C303 1.399 . S
C296 N321 1.343 . S
C297 C298 1.384 . S
C297 C299 1.384 . S
C297 H316 0.931 . S
C298 C297 1.384 . S
C298 C301 1.382 . S
C299 C297 1.384 . S
C299 C300 1.381 . S
C299 H317 0.930 . S
C300 C299 1.381 . S
C300 C302 1.381 . S
C300 C303 1.487 . S
C301 C298 1.382 . S
C301 C302 1.387 . S
C301 H318 0.930 . S
C302 C300 1.381 . S
C302 C301 1.387 . S
C302 H319 0.931 . S
C303 C296 1.399 . S
C303 C300 1.487 . S
C303 N320 1.343 . S
H304 C276 0.931 . S
H305 C278 0.930 . S
H306 C280 0.930 . S
H307 C281 0.931 1_545 S
H308 C283 0.931 . S
H309 C285 0.930 . S
H310 C287 0.930 . S
H311 C288 0.931 . S
H312 C290 0.931 . S
H313 C292 0.930 . S
H314 C294 0.930 . S
H315 C295 0.931 . S
H316 C297 0.931 . S
H317 C299 0.930 . S
H318 C301 0.930 . S
H319 C302 0.931 . S
N320 C282 1.343 1_545 S
N320 C303 1.343 . S
N321 C289 1.343 1_545 S
N321 C296 1.343 . S
C322 C323 1.384 . S
C322 C324 1.384 1_565 S
C322 H350 0.931 . S
C323 C322 1.384 . S
C323 C326 1.382 . S
C324 C322 1.384 1_545 S
C324 C325 1.381 . S
C324 H351 0.930 . S
C325 C324 1.381 . S
C325 C327 1.393 . S
C325 C328 1.487 . S
C326 C323 1.382 . S
C326 C327 1.371 1_565 S
C326 H352 0.930 . S
C327 C325 1.393 . S
C327 C326 1.371 1_545 S
C327 H353 0.936 . S
C328 C325 1.487 . S
C328 C335 1.399 . S
C328 N366 1.343 . S
C329 C330 1.384 . S
C329 C331 1.384 . S
C329 H354 0.931 . S
C330 C329 1.384 . S
C330 C333 1.382 1_565 S
C331 C329 1.384 . S
C331 C332 1.381 1_565 S
C331 H355 0.930 . S
C332 C331 1.381 1_545 S
C332 C334 1.381 . S
C332 C335 1.487 . S
C333 C330 1.382 1_545 S
C333 C334 1.387 . S
C333 H356 0.930 . S
C334 C332 1.381 . S
C334 C333 1.387 . S
C334 H357 0.931 . S
C335 C328 1.399 . S
C335 C332 1.487 . S
C335 N367 1.343 . S
C336 C337 1.384 . S
C336 C338 1.384 . S
C336 H358 0.931 . S
C337 C336 1.384 . S
C337 C340 1.382 1_655 S
C338 C336 1.384 . S
C338 C339 1.381 1_655 S
C338 H359 0.930 . S
C339 C338 1.381 1_455 S
C339 C341 1.381 . S
C339 C342 1.487 . S
C340 C337 1.382 1_455 S
C340 C341 1.387 . S
C340 H360 0.930 . S
C341 C339 1.381 . S
C341 C340 1.387 . S
C341 H361 0.931 . S
C342 C339 1.487 . S
C342 C349 1.399 . S
C342 N367 1.343 . S
C343 C344 1.384 1_455 S
C343 C345 1.384 . S
C343 H362 0.931 . S
C344 C343 1.384 1_655 S
C344 C347 1.382 . S
C345 C343 1.384 . S
C345 C346 1.381 . S
C345 H363 0.930 . S
C346 C345 1.381 . S
C346 C348 1.381 1_455 S
C346 C349 1.487 . S
C347 C344 1.382 . S
C347 C348 1.387 . S
C347 H364 0.930 . S
C348 C346 1.381 1_655 S
C348 C347 1.387 . S
C348 H365 0.931 . S
C349 C342 1.399 . S
C349 C346 1.487 . S
C349 N366 1.343 . S
H350 C322 0.931 . S
H351 C324 0.930 . S
H352 C326 0.930 . S
H353 C327 0.936 . S
H354 C329 0.931 . S
H355 C331 0.930 . S
H356 C333 0.930 . S
H357 C334 0.931 . S
H358 C336 0.931 . S
H359 C338 0.930 . S
H360 C340 0.930 . S
H361 C341 0.931 . S
H362 C343 0.931 . S
H363 C345 0.930 . S
H364 C347 0.930 . S
H365 C348 0.931 . S
N366 C328 1.343 . S
N366 C349 1.343 . S
N367 C335 1.343 . S
N367 C342 1.343 . S
C368 O369 1.306 . S
C368 O371 1.160 . S
O369 C368 1.306 . S
O369 Cd370 2.228 . S
Cd370 O369 2.228 . S
Cd370 O374 2.273 1_554 S
Cd370 O378 2.277 . S
O371 C368 1.160 . S
O371 Cd372 2.203 . S
Cd372 O371 2.203 . S
Cd372 O374 2.411 1_554 S
Cd372 O375 2.333 1_554 S
Cd372 O376 2.352 . S
Cd372 O380 2.277 . S
Cd372 O381 2.356 . S
C373 O378 1.209 . S
C373 O380 1.226 . S
O374 Cd370 2.273 1_556 S
O374 Cd372 2.411 1_556 S
O374 C377 1.320 . S
O375 Cd372 2.333 1_556 S
O375 C377 1.214 . S
O376 Cd372 2.352 . S
O376 C379 1.258 . S
C377 O374 1.320 . S
C377 O375 1.214 . S
O378 Cd370 2.277 . S
O378 C373 1.209 . S
C379 O376 1.258 . S
C379 O381 1.282 . S
O380 Cd372 2.277 . S
O380 C373 1.226 . S
O381 Cd372 2.356 . S
O381 C379 1.282 . S
C382 O383 1.306 . S
C382 O385 1.160 . S
O383 C382 1.306 . S
O383 Cd384 2.228 . S
Cd384 O383 2.228 . S
Cd384 O388 2.273 . S
Cd384 O392 2.277 . S
O385 C382 1.160 . S
O385 Cd386 2.203 . S
Cd386 O385 2.203 . S
Cd386 O388 2.411 . S
Cd386 O389 2.333 . S
Cd386 O390 2.352 . S
Cd386 O394 2.277 . S
Cd386 O395 2.356 . S
C387 O392 1.209 . S
C387 O394 1.226 . S
O388 Cd384 2.273 . S
O388 Cd386 2.411 . S
O388 C391 1.320 . S
O389 Cd386 2.333 . S
O389 C391 1.214 . S
O390 Cd386 2.352 . S
O390 C393 1.258 . S
C391 O388 1.320 . S
C391 O389 1.214 . S
O392 Cd384 2.277 . S
O392 C387 1.209 . S
C393 O390 1.258 . S
C393 O395 1.282 . S
O394 Cd386 2.277 . S
O394 C387 1.226 . S
O395 Cd386 2.356 . S
O395 C393 1.282 . S
C396 O397 1.306 . S
C396 O399 1.160 . S
O397 C396 1.306 . S
O397 Cd398 2.228 . S
Cd398 O397 2.228 . S
Cd398 O402 2.273 . S
Cd398 O406 2.277 . S
O399 C396 1.160 . S
O399 Cd400 2.203 . S
Cd400 O399 2.203 . S
Cd400 O402 2.411 . S
Cd400 O403 2.333 . S
Cd400 O404 2.352 . S
Cd400 O408 2.277 . S
Cd400 O409 2.356 . S
C401 O406 1.209 . S
C401 O408 1.226 . S
O402 Cd398 2.273 . S
O402 Cd400 2.411 . S
O402 C405 1.320 . S
O403 Cd400 2.333 . S
O403 C405 1.214 . S
O404 Cd400 2.352 . S
O404 C407 1.258 . S
C405 O402 1.320 . S
C405 O403 1.214 . S
O406 Cd398 2.277 . S
O406 C401 1.209 . S
C407 O404 1.258 . S
C407 O409 1.282 . S
O408 Cd400 2.277 . S
O408 C401 1.226 . S
O409 Cd400 2.356 . S
O409 C407 1.282 . S
C410 O411 1.306 . S
C410 O413 1.160 . S
O411 C410 1.306 . S
O411 Cd412 2.228 . S
Cd412 O411 2.228 . S
Cd412 O416 2.273 . S
Cd412 O420 2.277 . S
O413 C410 1.160 . S
O413 Cd414 2.203 . S
Cd414 O413 2.203 . S
Cd414 O416 2.411 . S
Cd414 O417 2.333 . S
Cd414 O418 2.352 . S
Cd414 O422 2.277 . S
Cd414 O423 2.356 . S
C415 O420 1.209 . S
C415 O422 1.226 . S
O416 Cd412 2.273 . S
O416 Cd414 2.411 . S
O416 C419 1.320 . S
O417 Cd414 2.333 . S
O417 C419 1.214 . S
O418 Cd414 2.352 . S
O418 C421 1.258 . S
C419 O416 1.320 . S
C419 O417 1.214 . S
O420 Cd412 2.277 . S
O420 C415 1.209 . S
C421 O418 1.258 . S
C421 O423 1.282 . S
O422 Cd414 2.277 . S
O422 C415 1.226 . S
O423 Cd414 2.356 . S
O423 C421 1.282 . S
C424 O425 1.306 . S
C424 O427 1.160 . S
O425 C424 1.306 . S
O425 Cd426 2.228 . S
Cd426 O425 2.228 . S
Cd426 O430 2.273 . S
Cd426 O434 2.277 . S
O427 C424 1.160 . S
O427 Cd428 2.203 . S
Cd428 O427 2.203 . S
Cd428 O430 2.411 . S
Cd428 O431 2.333 . S
Cd428 O432 2.352 . S
Cd428 O436 2.277 . S
Cd428 O437 2.356 . S
C429 O434 1.209 . S
C429 O436 1.226 . S
O430 Cd426 2.273 . S
O430 Cd428 2.411 . S
O430 C433 1.320 . S
O431 Cd428 2.333 . S
O431 C433 1.214 . S
O432 Cd428 2.352 . S
O432 C435 1.258 . S
C433 O430 1.320 . S
C433 O431 1.214 . S
O434 Cd426 2.277 . S
O434 C429 1.209 . S
C435 O432 1.258 . S
C435 O437 1.282 . S
O436 Cd428 2.277 . S
O436 C429 1.226 . S
O437 Cd428 2.356 . S
O437 C435 1.282 . S
C438 O439 1.306 . S
C438 O441 1.160 . S
O439 C438 1.306 . S
O439 Cd440 2.228 . S
Cd440 O439 2.228 . S
Cd440 O444 2.273 . S
Cd440 O448 2.277 . S
O441 C438 1.160 . S
O441 Cd442 2.203 . S
Cd442 O441 2.203 . S
Cd442 O444 2.411 . S
Cd442 O445 2.333 . S
Cd442 O446 2.352 . S
Cd442 O450 2.277 . S
Cd442 O451 2.356 . S
C443 O448 1.209 . S
C443 O450 1.226 . S
O444 Cd440 2.273 . S
O444 Cd442 2.411 . S
O444 C447 1.320 . S
O445 Cd442 2.333 . S
O445 C447 1.214 . S
O446 Cd442 2.352 . S
O446 C449 1.258 . S
C447 O444 1.320 . S
C447 O445 1.214 . S
O448 Cd440 2.277 . S
O448 C443 1.209 . S
C449 O446 1.258 . S
C449 O451 1.282 . S
O450 Cd442 2.277 . S
O450 C443 1.226 . S
O451 Cd442 2.356 . S
O451 C449 1.282 . S
C452 O453 1.306 . S
C452 O455 1.160 . S
O453 C452 1.306 . S
O453 Cd454 2.276 . S
Cd454 O453 2.276 . S
Cd454 O458 2.233 1_556 S
Cd454 O462 2.284 . S
O455 C452 1.160 . S
O455 Cd456 2.203 1_556 S
Cd456 O455 2.203 1_554 S
Cd456 O458 2.411 . S
Cd456 O459 2.333 . S
Cd456 O460 2.352 . S
Cd456 O464 2.277 1_554 S
Cd456 O465 2.356 . S
C457 O462 1.209 . S
C457 O464 1.226 . S
O458 Cd454 2.233 1_554 S
O458 Cd456 2.411 . S
O458 C461 1.320 . S
O459 Cd456 2.333 . S
O459 C461 1.214 . S
O460 Cd456 2.352 . S
O460 C463 1.258 . S
C461 O458 1.320 . S
C461 O459 1.214 . S
O462 Cd454 2.284 . S
O462 C457 1.209 . S
C463 O460 1.258 . S
C463 O465 1.282 . S
O464 Cd456 2.277 1_556 S
O464 C457 1.226 . S
O465 Cd456 2.356 . S
O465 C463 1.282 . S
C466 O467 1.306 . S
C466 O469 1.160 . S
O467 C466 1.306 . S
O467 Cd468 2.228 . S
Cd468 O467 2.228 . S
Cd468 O472 2.273 . S
Cd468 O476 2.277 . S
O469 C466 1.160 . S
O469 Cd470 2.203 . S
Cd470 O469 2.203 . S
Cd470 O472 2.411 . S
Cd470 O473 2.333 . S
Cd470 O474 2.352 . S
Cd470 O478 2.277 . S
Cd470 O479 2.356 . S
C471 O476 1.209 . S
C471 O478 1.226 . S
O472 Cd468 2.273 . S
O472 Cd470 2.411 . S
O472 C475 1.320 . S
O473 Cd470 2.333 . S
O473 C475 1.214 . S
O474 Cd470 2.352 . S
O474 C477 1.258 . S
C475 O472 1.320 . S
C475 O473 1.214 . S
O476 Cd468 2.277 . S
O476 C471 1.209 . S
C477 O474 1.258 . S
C477 O479 1.282 . S
O478 Cd470 2.277 . S
O478 C471 1.226 . S
O479 Cd470 2.356 . S
O479 C477 1.282 . S
H480 C488 0.950 . S
H481 C493 0.950 . S
H482 C490 0.950 . S
H483 C492 0.950 . S
H484 C494 0.950 . S
H485 C496 0.950 . S
H486 C498 0.950 . S
H487 C499 0.950 . S
C488 H480 0.950 . S
C488 C489 1.386 . S
C488 C490 1.391 . S
C489 C488 1.386 . S
C489 C493 1.393 . S
C490 H482 0.950 . S
C490 C488 1.391 . S
C490 C491 1.400 . S
C491 C490 1.400 . S
C491 C492 1.398 . S
C491 C497 1.491 . S
C492 H483 0.950 . S
C492 C491 1.398 . S
C492 C493 1.391 . S
C493 H481 0.950 . S
C493 C489 1.393 . S
C493 C492 1.391 . S
C494 H484 0.950 . S
C494 C495 1.386 . S
C494 C496 1.391 . S
C495 C494 1.386 . S
C495 C499 1.393 . S
C496 H485 0.950 . S
C496 C494 1.391 . S
C496 C497 1.400 . S
C497 C491 1.491 . S
C497 C496 1.400 . S
C497 C498 1.398 . S
C498 H486 0.950 . S
C498 C497 1.398 . S
C498 C499 1.391 . S
C499 H487 0.950 . S
C499 C495 1.393 . S
C499 C498 1.391 . S
H500 C508 0.950 . S
H501 C513 0.950 . S
H502 C510 0.950 . S
H503 C512 0.950 . S
H504 C514 0.950 . S
H505 C516 0.950 . S
H506 C518 0.950 . S
H507 C519 0.950 . S
C508 H500 0.950 . S
C508 C509 1.386 . S
C508 C510 1.391 . S
C509 C508 1.386 . S
C509 C513 1.393 . S
C510 H502 0.950 . S
C510 C508 1.391 . S
C510 C511 1.400 . S
C511 C510 1.400 . S
C511 C512 1.398 . S
C511 C517 1.491 . S
C512 H503 0.950 . S
C512 C511 1.398 . S
C512 C513 1.391 . S
C513 H501 0.950 . S
C513 C509 1.393 . S
C513 C512 1.391 . S
C514 H504 0.950 . S
C514 C515 1.386 . S
C514 C516 1.391 . S
C515 C514 1.386 . S
C515 C519 1.393 . S
C516 H505 0.950 . S
C516 C514 1.391 . S
C516 C517 1.400 . S
C517 C511 1.491 . S
C517 C516 1.400 . S
C517 C518 1.398 . S
C518 H506 0.950 . S
C518 C517 1.398 . S
C518 C519 1.391 . S
C519 H507 0.950 . S
C519 C515 1.393 . S
C519 C518 1.391 . S
H520 C528 0.950 . S
H521 C533 0.950 . S
H522 C530 0.950 . S
H523 C532 0.950 . S
H524 C534 0.950 . S
H525 C536 0.950 . S
H526 C538 0.950 . S
H527 C539 0.950 . S
C528 H520 0.950 . S
C528 C529 1.386 . S
C528 C530 1.391 . S
C529 C528 1.386 . S
C529 C533 1.393 . S
C530 H522 0.950 . S
C530 C528 1.391 . S
C530 C531 1.400 . S
C531 C530 1.400 . S
C531 C532 1.398 . S
C531 C537 1.491 . S
C532 H523 0.950 . S
C532 C531 1.398 . S
C532 C533 1.391 . S
C533 H521 0.950 . S
C533 C529 1.393 . S
C533 C532 1.391 . S
C534 H524 0.950 . S
C534 C535 1.386 . S
C534 C536 1.391 . S
C535 C534 1.386 . S
C535 C539 1.393 . S
C536 H525 0.950 . S
C536 C534 1.391 . S
C536 C537 1.400 . S
C537 C531 1.491 . S
C537 C536 1.400 . S
C537 C538 1.398 . S
C538 H526 0.950 . S
C538 C537 1.398 . S
C538 C539 1.391 . S
C539 H527 0.950 . S
C539 C535 1.393 . S
C539 C538 1.391 . S
H540 C548 0.950 . S
H541 C553 0.950 . S
H542 C550 0.950 . S
H543 C552 0.950 . S
H544 C554 0.950 . S
H545 C556 0.950 . S
H546 C558 0.950 . S
H547 C559 0.950 . S
C548 H540 0.950 . S
C548 C549 1.386 . S
C548 C550 1.391 . S
C549 C548 1.386 . S
C549 C553 1.393 . S
C550 H542 0.950 . S
C550 C548 1.391 . S
C550 C551 1.400 . S
C551 C550 1.400 . S
C551 C552 1.398 . S
C551 C557 1.491 . S
C552 H543 0.950 . S
C552 C551 1.398 . S
C552 C553 1.391 . S
C553 H541 0.950 . S
C553 C549 1.393 . S
C553 C552 1.391 . S
C554 H544 0.950 . S
C554 C555 1.386 . S
C554 C556 1.391 . S
C555 C554 1.386 . S
C555 C559 1.393 . S
C556 H545 0.950 . S
C556 C554 1.391 . S
C556 C557 1.400 . S
C557 C551 1.491 . S
C557 C556 1.400 . S
C557 C558 1.398 . S
C558 H546 0.950 . S
C558 C557 1.398 . S
C558 C559 1.391 . S
C559 H547 0.950 . S
C559 C555 1.393 . S
C559 C558 1.391 . S
H560 C568 0.950 1_554 S
H561 C573 0.950 . S
H562 C570 0.950 1_554 S
H563 C572 0.950 . S
H564 C574 0.950 . S
H565 C576 0.950 . S
H566 C578 0.950 . S
H567 C579 0.950 . S
C568 H560 0.950 1_556 S
C568 C569 1.386 . S
C568 C570 1.391 . S
C569 C568 1.386 . S
C569 C573 1.393 . S
C570 H562 0.950 1_556 S
C570 C568 1.391 . S
C570 C571 1.400 . S
C571 C570 1.400 . S
C571 C572 1.398 . S
C571 C577 1.491 . S
C572 H563 0.950 . S
C572 C571 1.398 . S
C572 C573 1.391 . S
C573 H561 0.950 . S
C573 C569 1.393 . S
C573 C572 1.391 . S
C574 H564 0.950 . S
C574 C575 1.387 . S
C574 C576 1.391 . S
C575 C574 1.387 . S
C575 C579 1.392 1_556 S
C576 H565 0.950 . S
C576 C574 1.391 . S
C576 C577 1.400 . S
C577 C571 1.491 . S
C577 C576 1.400 . S
C577 C578 1.398 1_556 S
C578 H566 0.950 . S
C578 C577 1.398 1_554 S
C578 C579 1.391 . S
C579 H567 0.950 . S
C579 C575 1.392 1_554 S
C579 C578 1.391 . S
H580 C588 0.950 . S
H581 C593 0.950 . S
H582 C590 0.950 . S
H583 C592 0.950 . S
H584 C594 0.950 . S
H585 C596 0.950 . S
H586 C598 0.950 . S
H587 C599 0.950 . S
C588 H580 0.950 . S
C588 C589 1.386 . S
C588 C590 1.391 . S
C589 C588 1.386 . S
C589 C593 1.393 . S
C590 H582 0.950 . S
C590 C588 1.391 . S
C590 C591 1.400 . S
C591 C590 1.400 . S
C591 C592 1.398 . S
C591 C597 1.491 . S
C592 H583 0.950 . S
C592 C591 1.398 . S
C592 C593 1.391 . S
C593 H581 0.950 . S
C593 C589 1.393 . S
C593 C592 1.391 . S
C594 H584 0.950 . S
C594 C595 1.386 . S
C594 C596 1.391 . S
C595 C594 1.386 . S
C595 C599 1.393 . S
C596 H585 0.950 . S
C596 C594 1.391 . S
C596 C597 1.400 . S
C597 C591 1.491 . S
C597 C596 1.400 . S
C597 C598 1.398 . S
C598 H586 0.950 . S
C598 C597 1.398 . S
C598 C599 1.391 . S
C599 H587 0.950 . S
C599 C595 1.393 . S
C599 C598 1.391 . S
H600 C608 0.950 . S
H601 C613 0.950 . S
H602 C610 0.950 . S
H603 C612 0.950 . S
H604 C614 0.950 . S
H605 C616 0.950 . S
H606 C618 0.950 . S
H607 C619 0.950 . S
C608 H600 0.950 . S
C608 C609 1.386 . S
C608 C610 1.391 . S
C609 C608 1.386 . S
C609 C613 1.393 . S
C610 H602 0.950 . S
C610 C608 1.391 . S
C610 C611 1.400 . S
C611 C610 1.400 . S
C611 C612 1.398 . S
C611 C617 1.491 . S
C612 H603 0.950 . S
C612 C611 1.398 . S
C612 C613 1.391 . S
C613 H601 0.950 . S
C613 C609 1.393 . S
C613 C612 1.391 . S
C614 H604 0.950 . S
C614 C615 1.386 . S
C614 C616 1.391 . S
C615 C614 1.386 . S
C615 C619 1.393 . S
C616 H605 0.950 . S
C616 C614 1.391 . S
C616 C617 1.400 . S
C617 C611 1.491 . S
C617 C616 1.400 . S
C617 C618 1.398 . S
C618 H606 0.950 . S
C618 C617 1.398 . S
C618 C619 1.391 . S
C619 H607 0.950 . S
C619 C615 1.393 . S
C619 C618 1.391 . S
H620 C628 0.950 . S
H621 C633 0.950 . S
H622 C630 0.950 . S
H623 C632 0.950 . S
H624 C634 0.950 . S
H625 C636 0.950 . S
H626 C638 0.950 . S
H627 C639 0.950 . S
C628 H620 0.950 . S
C628 C629 1.386 . S
C628 C630 1.391 . S
C629 C628 1.386 . S
C629 C633 1.393 . S
C630 H622 0.950 . S
C630 C628 1.391 . S
C630 C631 1.400 . S
C631 C630 1.400 . S
C631 C632 1.398 . S
C631 C637 1.491 . S
C632 H623 0.950 . S
C632 C631 1.398 . S
C632 C633 1.391 . S
C633 H621 0.950 . S
C633 C629 1.393 . S
C633 C632 1.391 . S
C634 H624 0.950 . S
C634 C635 1.386 . S
C634 C636 1.391 . S
C635 C634 1.386 . S
C635 C639 1.393 . S
C636 H625 0.950 . S
C636 C634 1.391 . S
C636 C637 1.400 . S
C637 C631 1.491 . S
C637 C636 1.400 . S
C637 C638 1.398 . S
C638 H626 0.950 . S
C638 C637 1.398 . S
C638 C639 1.391 . S
C639 H627 0.950 . S
C639 C635 1.393 . S
C639 C638 1.391 . S
H640 C648 0.950 . S
H641 C653 0.950 . S
H642 C650 0.950 . S
H643 C652 0.950 . S
H644 C654 0.950 . S
H645 C656 0.950 . S
H646 C658 0.950 . S
H647 C659 0.950 . S
C648 H640 0.950 . S
C648 C649 1.386 . S
C648 C650 1.391 . S
C649 C648 1.386 . S
C649 C653 1.393 . S
C650 H642 0.950 . S
C650 C648 1.391 . S
C650 C651 1.400 . S
C651 C650 1.400 . S
C651 C652 1.398 . S
C651 C657 1.491 . S
C652 H643 0.950 . S
C652 C651 1.398 . S
C652 C653 1.391 . S
C653 H641 0.950 . S
C653 C649 1.393 . S
C653 C652 1.391 . S
C654 H644 0.950 . S
C654 C655 1.386 . S
C654 C656 1.391 . S
C655 C654 1.386 . S
C655 C659 1.393 . S
C656 H645 0.950 . S
C656 C654 1.391 . S
C656 C657 1.400 . S
C657 C651 1.491 . S
C657 C656 1.400 . S
C657 C658 1.398 . S
C658 H646 0.950 . S
C658 C657 1.398 . S
C658 C659 1.391 . S
C659 H647 0.950 . S
C659 C655 1.393 . S
C659 C658 1.391 . S
H660 C668 0.950 . S
H661 C673 0.950 . S
H662 C670 0.950 . S
H663 C672 0.950 . S
H664 C674 0.950 . S
H665 C676 0.950 . S
H666 C678 0.950 1_556 S
H667 C679 0.950 1_556 S
C668 H660 0.950 . S
C668 C669 1.386 . S
C668 C670 1.391 . S
C669 C668 1.386 . S
C669 C673 1.393 . S
C670 H662 0.950 . S
C670 C668 1.391 . S
C670 C671 1.400 . S
C671 C670 1.400 . S
C671 C672 1.398 . S
C671 C677 1.491 . S
C672 H663 0.950 . S
C672 C671 1.398 . S
C672 C673 1.391 . S
C673 H661 0.950 . S
C673 C669 1.393 . S
C673 C672 1.391 . S
C674 H664 0.950 . S
C674 C675 1.386 . S
C674 C676 1.391 . S
C675 C674 1.386 . S
C675 C679 1.393 . S
C676 H665 0.950 . S
C676 C674 1.391 . S
C676 C677 1.400 . S
C677 C671 1.491 . S
C677 C676 1.400 . S
C677 C678 1.398 . S
C678 H666 0.950 1_554 S
C678 C677 1.398 . S
C678 C679 1.391 . S
C679 H667 0.950 1_554 S
C679 C675 1.393 . S
C679 C678 1.391 . S
H680 C688 0.950 . S
H681 C693 0.950 . S
H682 C690 0.950 . S
H683 C692 0.950 . S
H684 C694 0.950 . S
H685 C696 0.950 . S
H686 C698 0.950 . S
H687 C699 0.950 . S
C688 H680 0.950 . S
C688 C689 1.386 . S
C688 C690 1.391 . S
C689 C688 1.386 . S
C689 C693 1.393 . S
C690 H682 0.950 . S
C690 C688 1.391 . S
C690 C691 1.400 . S
C691 C690 1.400 . S
C691 C692 1.398 . S
C691 C697 1.491 . S
C692 H683 0.950 . S
C692 C691 1.398 . S
C692 C693 1.391 . S
C693 H681 0.950 . S
C693 C689 1.393 . S
C693 C692 1.391 . S
C694 H684 0.950 . S
C694 C695 1.386 . S
C694 C696 1.391 . S
C695 C694 1.386 . S
C695 C699 1.393 . S
C696 H685 0.950 . S
C696 C694 1.391 . S
C696 C697 1.400 . S
C697 C691 1.491 . S
C697 C696 1.400 . S
C697 C698 1.398 . S
C698 H686 0.950 . S
C698 C697 1.398 . S
C698 C699 1.391 . S
C699 H687 0.950 . S
C699 C695 1.393 . S
C699 C698 1.391 . S
H700 C708 0.950 . S
H701 C713 0.950 . S
H702 C710 0.950 . S
H703 C712 0.950 . S
H704 C714 0.950 . S
H705 C716 0.950 . S
H706 C718 0.950 . S
H707 C719 0.950 . S
C708 H700 0.950 . S
C708 C709 1.386 . S
C708 C710 1.391 . S
C709 C708 1.386 . S
C709 C713 1.393 . S
C710 H702 0.950 . S
C710 C708 1.391 . S
C710 C711 1.400 . S
C711 C710 1.400 . S
C711 C712 1.398 . S
C711 C717 1.491 . S
C712 H703 0.950 . S
C712 C711 1.398 . S
C712 C713 1.391 . S
C713 H701 0.950 . S
C713 C709 1.393 . S
C713 C712 1.391 . S
C714 H704 0.950 . S
C714 C715 1.386 . S
C714 C716 1.391 . S
C715 C714 1.386 . S
C715 C719 1.393 . S
C716 H705 0.950 . S
C716 C714 1.391 . S
C716 C717 1.400 . S
C717 C711 1.491 . S
C717 C716 1.400 . S
C717 C718 1.398 . S
C718 H706 0.950 . S
C718 C717 1.398 . S
C718 C719 1.391 . S
C719 H707 0.950 . S
C719 C715 1.393 . S
C719 C718 1.391 . S
H720 C728 0.950 . S
H721 C733 0.950 . S
H722 C730 0.950 . S
H723 C732 0.950 . S
H724 C734 0.950 . S
H725 C736 0.950 . S
H726 C738 0.950 . S
H727 C739 0.950 . S
C728 H720 0.950 . S
C728 C729 1.386 . S
C728 C730 1.391 . S
C729 C728 1.386 . S
C729 C733 1.393 . S
C730 H722 0.950 . S
C730 C728 1.391 . S
C730 C731 1.400 . S
C731 C730 1.400 . S
C731 C732 1.398 . S
C731 C737 1.491 . S
C732 H723 0.950 . S
C732 C731 1.398 . S
C732 C733 1.391 . S
C733 H721 0.950 . S
C733 C729 1.393 . S
C733 C732 1.391 . S
C734 H724 0.950 . S
C734 C735 1.386 . S
C734 C736 1.391 . S
C735 C734 1.386 . S
C735 C739 1.393 . S
C736 H725 0.950 . S
C736 C734 1.391 . S
C736 C737 1.400 . S
C737 C731 1.491 . S
C737 C736 1.400 . S
C737 C738 1.398 . S
C738 H726 0.950 . S
C738 C737 1.398 . S
C738 C739 1.391 . S
C739 H727 0.950 . S
C739 C735 1.393 . S
C739 C738 1.391 . S
H740 C748 0.950 . S
H741 C753 0.950 . S
H742 C750 0.950 . S
H743 C752 0.950 . S
H744 C754 0.950 . S
H745 C756 0.950 . S
H746 C758 0.950 . S
H747 C759 0.950 . S
C748 H740 0.950 . S
C748 C749 1.386 . S
C748 C750 1.391 . S
C749 C748 1.386 . S
C749 C753 1.393 . S
C750 H742 0.950 . S
C750 C748 1.391 . S
C750 C751 1.400 . S
C751 C750 1.400 . S
C751 C752 1.398 . S
C751 C757 1.491 . S
C752 H743 0.950 . S
C752 C751 1.398 . S
C752 C753 1.391 . S
C753 H741 0.950 . S
C753 C749 1.393 . S
C753 C752 1.391 . S
C754 H744 0.950 . S
C754 C755 1.386 . S
C754 C756 1.391 . S
C755 C754 1.386 . S
C755 C759 1.393 . S
C756 H745 0.950 . S
C756 C754 1.391 . S
C756 C757 1.400 . S
C757 C751 1.491 . S
C757 C756 1.400 . S
C757 C758 1.398 . S
C758 H746 0.950 . S
C758 C757 1.398 . S
C758 C759 1.391 . S
C759 H747 0.950 . S
C759 C755 1.393 . S
C759 C758 1.391 . S
H760 C768 0.950 . S
H761 C773 0.950 . S
H762 C770 0.950 . S
H763 C772 0.950 . S
H764 C774 0.950 . S
H765 C776 0.950 . S
H766 C778 0.950 . S
H767 C779 0.950 . S
C768 H760 0.950 . S
C768 C769 1.386 . S
C768 C770 1.391 . S
C769 C768 1.386 . S
C769 C773 1.393 . S
C770 H762 0.950 . S
C770 C768 1.391 . S
C770 C771 1.400 . S
C771 C770 1.400 . S
C771 C772 1.398 . S
C771 C777 1.491 . S
C772 H763 0.950 . S
C772 C771 1.398 . S
C772 C773 1.391 . S
C773 H761 0.950 . S
C773 C769 1.393 . S
C773 C772 1.391 . S
C774 H764 0.950 . S
C774 C775 1.386 . S
C774 C776 1.391 . S
C775 C774 1.386 . S
C775 C779 1.393 . S
C776 H765 0.950 . S
C776 C774 1.391 . S
C776 C777 1.400 . S
C777 C771 1.491 . S
C777 C776 1.400 . S
C777 C778 1.398 . S
C778 H766 0.950 . S
C778 C777 1.398 . S
C778 C779 1.391 . S
C779 H767 0.950 . S
C779 C775 1.393 . S
C779 C778 1.391 . S
H780 C788 0.950 . S
H781 C793 0.950 . S
H782 C790 0.950 . S
H783 C792 0.950 . S
H784 C794 0.950 . S
H785 C796 0.950 . S
H786 C798 0.950 . S
H787 C799 0.950 . S
C788 H780 0.950 . S
C788 C789 1.386 . S
C788 C790 1.391 . S
C789 C788 1.386 . S
C789 C793 1.393 . S
C790 H782 0.950 . S
C790 C788 1.391 . S
C790 C791 1.400 . S
C791 C790 1.400 . S
C791 C792 1.398 . S
C791 C797 1.491 . S
C792 H783 0.950 . S
C792 C791 1.398 . S
C792 C793 1.391 . S
C793 H781 0.950 . S
C793 C789 1.393 . S
C793 C792 1.391 . S
C794 H784 0.950 . S
C794 C795 1.386 . S
C794 C796 1.391 . S
C795 C794 1.386 . S
C795 C799 1.393 . S
C796 H785 0.950 . S
C796 C794 1.391 . S
C796 C797 1.400 . S
C797 C791 1.491 . S
C797 C796 1.400 . S
C797 C798 1.398 . S
C798 H786 0.950 . S
C798 C797 1.398 . S
C798 C799 1.391 . S
C799 H787 0.950 . S
C799 C795 1.393 . S
C799 C798 1.391 . S
H800 C808 0.950 . S
H801 C813 0.950 . S
H802 C810 0.950 . S
H803 C812 0.950 . S
H804 C814 0.950 . S
H805 C816 0.950 . S
H806 C818 0.950 . S
H807 C819 0.950 . S
C808 H800 0.950 . S
C808 C809 1.386 . S
C808 C810 1.391 . S
C809 C808 1.386 . S
C809 C813 1.393 . S
C810 H802 0.950 . S
C810 C808 1.391 . S
C810 C811 1.400 . S
C811 C810 1.400 . S
C811 C812 1.398 . S
C811 C817 1.491 . S
C812 H803 0.950 . S
C812 C811 1.398 . S
C812 C813 1.391 . S
C813 H801 0.950 . S
C813 C809 1.393 . S
C813 C812 1.391 . S
C814 H804 0.950 . S
C814 C815 1.386 . S
C814 C816 1.391 . S
C815 C814 1.386 . S
C815 C819 1.393 . S
C816 H805 0.950 . S
C816 C814 1.391 . S
C816 C817 1.400 . S
C817 C811 1.491 . S
C817 C816 1.400 . S
C817 C818 1.398 . S
C818 H806 0.950 . S
C818 C817 1.398 . S
C818 C819 1.391 . S
C819 H807 0.950 . S
C819 C815 1.393 . S
C819 C818 1.391 . S
H820 C828 0.950 . S
H821 C833 0.950 . S
H822 C830 0.950 . S
H823 C832 0.950 . S
H824 C834 0.950 . S
H825 C836 0.950 . S
H826 C838 0.950 . S
H827 C839 0.950 . S
C828 H820 0.950 . S
C828 C829 1.386 . S
C828 C830 1.391 . S
C829 C828 1.386 . S
C829 C833 1.393 . S
C830 H822 0.950 . S
C830 C828 1.391 . S
C830 C831 1.400 . S
C831 C830 1.400 . S
C831 C832 1.398 . S
C831 C837 1.491 . S
C832 H823 0.950 . S
C832 C831 1.398 . S
C832 C833 1.391 . S
C833 H821 0.950 . S
C833 C829 1.393 . S
C833 C832 1.391 . S
C834 H824 0.950 . S
C834 C835 1.386 . S
C834 C836 1.391 . S
C835 C834 1.386 . S
C835 C839 1.393 . S
C836 H825 0.950 . S
C836 C834 1.391 . S
C836 C837 1.400 . S
C837 C831 1.491 . S
C837 C836 1.400 . S
C837 C838 1.398 . S
C838 H826 0.950 . S
C838 C837 1.398 . S
C838 C839 1.391 . S
C839 H827 0.950 . S
C839 C835 1.393 . S
C839 C838 1.391 . S
H840 C848 0.950 . S
H841 C853 0.950 . S
H842 C850 0.950 . S
H843 C852 0.950 . S
H844 C854 0.950 . S
H845 C856 0.950 . S
H846 C858 0.950 . S
H847 C859 0.950 . S
C848 H840 0.950 . S
C848 C849 1.386 . S
C848 C850 1.391 . S
C849 C848 1.386 . S
C849 C853 1.393 . S
C850 H842 0.950 . S
C850 C848 1.391 . S
C850 C851 1.400 . S
C851 C850 1.400 . S
C851 C852 1.398 . S
C851 C857 1.491 . S
C852 H843 0.950 . S
C852 C851 1.398 . S
C852 C853 1.391 . S
C853 H841 0.950 . S
C853 C849 1.393 . S
C853 C852 1.391 . S
C854 H844 0.950 . S
C854 C855 1.386 . S
C854 C856 1.391 . S
C855 C854 1.386 . S
C855 C859 1.393 . S
C856 H845 0.950 . S
C856 C854 1.391 . S
C856 C857 1.400 . S
C857 C851 1.491 . S
C857 C856 1.400 . S
C857 C858 1.398 . S
C858 H846 0.950 . S
C858 C857 1.398 . S
C858 C859 1.391 . S
C859 H847 0.950 . S
C859 C855 1.393 . S
C859 C858 1.391 . S
H860 C868 0.950 . S
H861 C873 0.950 . S
H862 C870 0.950 . S
H863 C872 0.950 . S
H864 C874 0.950 . S
H865 C876 0.950 . S
H866 C878 0.950 . S
H867 C879 0.950 . S
C868 H860 0.950 . S
C868 C869 1.386 . S
C868 C870 1.391 . S
C869 C868 1.386 . S
C869 C873 1.393 . S
C870 H862 0.950 . S
C870 C868 1.391 . S
C870 C871 1.400 . S
C871 C870 1.400 . S
C871 C872 1.398 . S
C871 C877 1.491 . S
C872 H863 0.950 . S
C872 C871 1.398 . S
C872 C873 1.391 . S
C873 H861 0.950 . S
C873 C869 1.393 . S
C873 C872 1.391 . S
C874 H864 0.950 . S
C874 C875 1.386 . S
C874 C876 1.391 . S
C875 C874 1.386 . S
C875 C879 1.393 . S
C876 H865 0.950 . S
C876 C874 1.391 . S
C876 C877 1.400 . S
C877 C871 1.491 . S
C877 C876 1.400 . S
C877 C878 1.398 . S
C878 H866 0.950 . S
C878 C877 1.398 . S
C878 C879 1.391 . S
C879 H867 0.950 . S
C879 C875 1.393 . S
C879 C878 1.391 . S
H880 C888 0.950 . S
H881 C893 0.950 . S
H882 C890 0.950 . S
H883 C892 0.950 . S
H884 C894 0.950 . S
H885 C896 0.950 . S
H886 C898 0.950 . S
H887 C899 0.950 . S
C888 H880 0.950 . S
C888 C889 1.386 . S
C888 C890 1.391 . S
C889 C888 1.386 . S
C889 C893 1.393 . S
C890 H882 0.950 . S
C890 C888 1.391 . S
C890 C891 1.400 . S
C891 C890 1.400 . S
C891 C892 1.398 . S
C891 C897 1.491 . S
C892 H883 0.950 . S
C892 C891 1.398 . S
C892 C893 1.391 . S
C893 H881 0.950 . S
C893 C889 1.393 . S
C893 C892 1.391 . S
C894 H884 0.950 . S
C894 C895 1.386 . S
C894 C896 1.391 . S
C895 C894 1.386 . S
C895 C899 1.393 . S
C896 H885 0.950 . S
C896 C894 1.391 . S
C896 C897 1.400 . S
C897 C891 1.491 . S
C897 C896 1.400 . S
C897 C898 1.398 . S
C898 H886 0.950 . S
C898 C897 1.398 . S
C898 C899 1.391 . S
C899 H887 0.950 . S
C899 C895 1.393 . S
C899 C898 1.391 . S
H900 C908 0.950 . S
H901 C913 0.950 . S
H902 C910 0.950 . S
H903 C912 0.950 . S
H904 C914 0.950 . S
H905 C916 0.950 . S
H906 C918 0.950 . S
H907 C919 0.950 . S
C908 H900 0.950 . S
C908 C909 1.386 . S
C908 C910 1.391 . S
C909 C908 1.386 . S
C909 C913 1.393 . S
C910 H902 0.950 . S
C910 C908 1.391 . S
C910 C911 1.400 . S
C911 C910 1.400 . S
C911 C912 1.398 . S
C911 C917 1.491 . S
C912 H903 0.950 . S
C912 C911 1.398 . S
C912 C913 1.391 . S
C913 H901 0.950 . S
C913 C909 1.393 . S
C913 C912 1.391 . S
C914 H904 0.950 . S
C914 C915 1.386 . S
C914 C916 1.391 . S
C915 C914 1.386 . S
C915 C919 1.393 . S
C916 H905 0.950 . S
C916 C914 1.391 . S
C916 C917 1.400 . S
C917 C911 1.491 . S
C917 C916 1.400 . S
C917 C918 1.398 . S
C918 H906 0.950 . S
C918 C917 1.398 . S
C918 C919 1.391 . S
C919 H907 0.950 . S
C919 C915 1.393 . S
C919 C918 1.391 . S
H920 C928 0.950 . S
H921 C933 0.950 . S
H922 C930 0.950 . S
H923 C932 0.950 . S
H924 C934 0.950 . S
H925 C936 0.950 . S
H926 C938 0.950 . S
H927 C939 0.950 . S
C928 H920 0.950 . S
C928 C929 1.386 . S
C928 C930 1.391 . S
C929 C928 1.386 . S
C929 C933 1.393 . S
C930 H922 0.950 . S
C930 C928 1.391 . S
C930 C931 1.400 . S
C931 C930 1.400 . S
C931 C932 1.398 . S
C931 C937 1.491 . S
C932 H923 0.950 . S
C932 C931 1.398 . S
C932 C933 1.391 . S
C933 H921 0.950 . S
C933 C929 1.393 . S
C933 C932 1.391 . S
C934 H924 0.950 . S
C934 C935 1.386 . S
C934 C936 1.391 . S
C935 C934 1.386 . S
C935 C939 1.393 . S
C936 H925 0.950 . S
C936 C934 1.391 . S
C936 C937 1.400 . S
C937 C931 1.491 . S
C937 C936 1.400 . S
C937 C938 1.398 . S
C938 H926 0.950 . S
C938 C937 1.398 . S
C938 C939 1.391 . S
C939 H927 0.950 . S
C939 C935 1.393 . S
C939 C938 1.391 . S
H940 C948 0.950 . S
H941 C953 0.950 . S
H942 C950 0.950 . S
H943 C952 0.950 . S
H944 C954 0.950 . S
H945 C956 0.950 . S
H946 C958 0.950 . S
H947 C959 0.950 . S
C948 H940 0.950 . S
C948 C949 1.386 . S
C948 C950 1.391 . S
C949 C948 1.386 . S
C949 C953 1.393 . S
C950 H942 0.950 . S
C950 C948 1.391 . S
C950 C951 1.400 . S
C951 C950 1.400 . S
C951 C952 1.398 . S
C951 C957 1.491 . S
C952 H943 0.950 . S
C952 C951 1.398 . S
C952 C953 1.391 . S
C953 H941 0.950 . S
C953 C949 1.393 . S
C953 C952 1.391 . S
C954 H944 0.950 . S
C954 C955 1.386 . S
C954 C956 1.391 . S
C955 C954 1.386 . S
C955 C959 1.393 . S
C956 H945 0.950 . S
C956 C954 1.391 . S
C956 C957 1.400 . S
C957 C951 1.491 . S
C957 C956 1.400 . S
C957 C958 1.398 . S
C958 H946 0.950 . S
C958 C957 1.398 . S
C958 C959 1.391 . S
C959 H947 0.950 . S
C959 C955 1.393 . S
C959 C958 1.391 . S
H960 C968 0.950 . S
H961 C973 0.950 . S
H962 C970 0.950 . S
H963 C972 0.950 . S
H964 C974 0.950 . S
H965 C976 0.950 . S
H966 C978 0.950 . S
H967 C979 0.950 . S
C968 H960 0.950 . S
C968 C969 1.386 . S
C968 C970 1.391 . S
C969 C968 1.386 . S
C969 C973 1.393 . S
C970 H962 0.950 . S
C970 C968 1.391 . S
C970 C971 1.400 . S
C971 C970 1.400 . S
C971 C972 1.398 . S
C971 C977 1.491 . S
C972 H963 0.950 . S
C972 C971 1.398 . S
C972 C973 1.391 . S
C973 H961 0.950 . S
C973 C969 1.393 . S
C973 C972 1.391 . S
C974 H964 0.950 . S
C974 C975 1.386 . S
C974 C976 1.391 . S
C975 C974 1.386 . S
C975 C979 1.393 . S
C976 H965 0.950 . S
C976 C974 1.391 . S
C976 C977 1.400 . S
C977 C971 1.491 . S
C977 C976 1.400 . S
C977 C978 1.398 . S
C978 H966 0.950 . S
C978 C977 1.398 . S
C978 C979 1.391 . S
C979 H967 0.950 . S
C979 C975 1.393 . S
C979 C978 1.391 . S
H980 C988 0.950 . S
H981 C993 0.950 . S
H982 C990 0.950 . S
H983 C992 0.950 . S
H984 C994 0.950 . S
H985 C996 0.950 . S
H986 C998 0.950 . S
H987 C999 0.950 . S
C988 H980 0.950 . S
C988 C989 1.386 . S
C988 C990 1.391 . S
C989 C988 1.386 . S
C989 C993 1.393 . S
C990 H982 0.950 . S
C990 C988 1.391 . S
C990 C991 1.400 . S
C991 C990 1.400 . S
C991 C992 1.398 . S
C991 C997 1.491 . S
C992 H983 0.950 . S
C992 C991 1.398 . S
C992 C993 1.391 . S
C993 H981 0.950 . S
C993 C989 1.393 . S
C993 C992 1.391 . S
C994 H984 0.950 . S
C994 C995 1.386 . S
C994 C996 1.391 . S
C995 C994 1.386 . S
C995 C999 1.393 . S
C996 H985 0.950 . S
C996 C994 1.391 . S
C996 C997 1.400 . S
C997 C991 1.491 . S
C997 C996 1.400 . S
C997 C998 1.398 . S
C998 H986 0.950 . S
C998 C997 1.398 . S
C998 C999 1.391 . S
C999 H987 0.950 . S
C999 C995 1.393 . S
C999 C998 1.391 . S
H1000 C1008 0.950 . S
H1001 C1013 0.950 . S
H1002 C1010 0.950 . S
H1003 C1012 0.950 . S
H1004 C1014 0.950 . S
H1005 C1016 0.950 . S
H1006 C1018 0.950 . S
H1007 C1019 0.950 . S
C1008 H1000 0.950 . S
C1008 C1009 1.386 . S
C1008 C1010 1.391 . S
C1009 C1008 1.386 . S
C1009 C1013 1.393 . S
C1010 H1002 0.950 . S
C1010 C1008 1.391 . S
C1010 C1011 1.400 . S
C1011 C1010 1.400 . S
C1011 C1012 1.398 . S
C1011 C1017 1.491 . S
C1012 H1003 0.950 . S
C1012 C1011 1.398 . S
C1012 C1013 1.391 . S
C1013 H1001 0.950 . S
C1013 C1009 1.393 . S
C1013 C1012 1.391 . S
C1014 H1004 0.950 . S
C1014 C1015 1.386 . S
C1014 C1016 1.391 . S
C1015 C1014 1.386 . S
C1015 C1019 1.393 . S
C1016 H1005 0.950 . S
C1016 C1014 1.391 . S
C1016 C1017 1.400 . S
C1017 C1011 1.491 . S
C1017 C1016 1.400 . S
C1017 C1018 1.398 . S
C1018 H1006 0.950 . S
C1018 C1017 1.398 . S
C1018 C1019 1.391 . S
C1019 H1007 0.950 . S
C1019 C1015 1.393 . S
C1019 C1018 1.391 . S
H1020 C1028 0.950 . S
H1021 C1033 0.950 . S
H1022 C1030 0.950 . S
H1023 C1032 0.950 . S
H1024 C1034 0.950 . S
H1025 C1036 0.950 . S
H1026 C1038 0.950 . S
H1027 C1039 0.950 . S
C1028 H1020 0.950 . S
C1028 C1029 1.386 . S
C1028 C1030 1.391 . S
C1029 C1028 1.386 . S
C1029 C1033 1.393 . S
C1030 H1022 0.950 . S
C1030 C1028 1.391 . S
C1030 C1031 1.400 . S
C1031 C1030 1.400 . S
C1031 C1032 1.398 . S
C1031 C1037 1.491 . S
C1032 H1023 0.950 . S
C1032 C1031 1.398 . S
C1032 C1033 1.391 . S
C1033 H1021 0.950 . S
C1033 C1029 1.393 . S
C1033 C1032 1.391 . S
C1034 H1024 0.950 . S
C1034 C1035 1.386 . S
C1034 C1036 1.391 . S
C1035 C1034 1.386 . S
C1035 C1039 1.393 . S
C1036 H1025 0.950 . S
C1036 C1034 1.391 . S
C1036 C1037 1.400 . S
C1037 C1031 1.491 . S
C1037 C1036 1.400 . S
C1037 C1038 1.398 . S
C1038 H1026 0.950 . S
C1038 C1037 1.398 . S
C1038 C1039 1.391 . S
C1039 H1027 0.950 . S
C1039 C1035 1.393 . S
C1039 C1038 1.391 . S
H1040 C1048 0.950 . S
H1041 C1053 0.950 . S
H1042 C1050 0.950 . S
H1043 C1052 0.950 . S
H1044 C1054 0.950 . S
H1045 C1056 0.950 . S
H1046 C1058 0.950 . S
H1047 C1059 0.950 . S
C1048 H1040 0.950 . S
C1048 C1049 1.386 . S
C1048 C1050 1.391 . S
C1049 C1048 1.386 . S
C1049 C1053 1.393 . S
C1050 H1042 0.950 . S
C1050 C1048 1.391 . S
C1050 C1051 1.400 . S
C1051 C1050 1.400 . S
C1051 C1052 1.398 . S
C1051 C1057 1.491 . S
C1052 H1043 0.950 . S
C1052 C1051 1.398 . S
C1052 C1053 1.391 . S
C1053 H1041 0.950 . S
C1053 C1049 1.393 . S
C1053 C1052 1.391 . S
C1054 H1044 0.950 . S
C1054 C1055 1.386 . S
C1054 C1056 1.391 . S
C1055 C1054 1.386 . S
C1055 C1059 1.393 . S
C1056 H1045 0.950 . S
C1056 C1054 1.391 . S
C1056 C1057 1.400 . S
C1057 C1051 1.491 . S
C1057 C1056 1.400 . S
C1057 C1058 1.398 . S
C1058 H1046 0.950 . S
C1058 C1057 1.398 . S
C1058 C1059 1.391 . S
C1059 H1047 0.950 . S
C1059 C1055 1.393 . S
C1059 C1058 1.391 . S
H1060 C1068 0.950 . S
H1061 C1073 0.950 . S
H1062 C1070 0.950 . S
H1063 C1072 0.950 . S
H1064 C1074 0.950 . S
H1065 C1076 0.950 . S
H1066 C1078 0.950 . S
H1067 C1079 0.950 . S
C1068 H1060 0.950 . S
C1068 C1069 1.386 . S
C1068 C1070 1.391 . S
C1069 C1068 1.386 . S
C1069 C1073 1.393 . S
C1070 H1062 0.950 . S
C1070 C1068 1.391 . S
C1070 C1071 1.400 . S
C1071 C1070 1.400 . S
C1071 C1072 1.398 . S
C1071 C1077 1.491 . S
C1072 H1063 0.950 . S
C1072 C1071 1.398 . S
C1072 C1073 1.391 . S
C1073 H1061 0.950 . S
C1073 C1069 1.393 . S
C1073 C1072 1.391 . S
C1074 H1064 0.950 . S
C1074 C1075 1.386 . S
C1074 C1076 1.391 . S
C1075 C1074 1.386 . S
C1075 C1079 1.393 . S
C1076 H1065 0.950 . S
C1076 C1074 1.391 . S
C1076 C1077 1.400 . S
C1077 C1071 1.491 . S
C1077 C1076 1.400 . S
C1077 C1078 1.398 . S
C1078 H1066 0.950 . S
C1078 C1077 1.398 . S
C1078 C1079 1.391 . S
C1079 H1067 0.950 . S
C1079 C1075 1.393 . S
C1079 C1078 1.391 . S
H1080 C1088 0.950 . S
H1081 C1093 0.950 . S
H1082 C1090 0.950 . S
H1083 C1092 0.950 . S
H1084 C1094 0.950 . S
H1085 C1096 0.950 . S
H1086 C1098 0.950 . S
H1087 C1099 0.950 . S
C1088 H1080 0.950 . S
C1088 C1089 1.386 . S
C1088 C1090 1.391 . S
C1089 C1088 1.386 . S
C1089 C1093 1.393 . S
C1090 H1082 0.950 . S
C1090 C1088 1.391 . S
C1090 C1091 1.400 . S
C1091 C1090 1.400 . S
C1091 C1092 1.398 . S
C1091 C1097 1.491 . S
C1092 H1083 0.950 . S
C1092 C1091 1.398 . S
C1092 C1093 1.391 . S
C1093 H1081 0.950 . S
C1093 C1089 1.393 . S
C1093 C1092 1.391 . S
C1094 H1084 0.950 . S
C1094 C1095 1.386 . S
C1094 C1096 1.391 . S
C1095 C1094 1.386 . S
C1095 C1099 1.393 . S
C1096 H1085 0.950 . S
C1096 C1094 1.391 . S
C1096 C1097 1.400 . S
C1097 C1091 1.491 . S
C1097 C1096 1.400 . S
C1097 C1098 1.398 . S
C1098 H1086 0.950 . S
C1098 C1097 1.398 . S
C1098 C1099 1.391 . S
C1099 H1087 0.950 . S
C1099 C1095 1.393 . S
C1099 C1098 1.391 . S
H1100 C1108 0.950 . S
H1101 C1113 0.950 . S
H1102 C1110 0.950 . S
H1103 C1112 0.950 . S
H1104 C1114 0.950 . S
H1105 C1116 0.950 . S
H1106 C1118 0.950 . S
H1107 C1119 0.950 . S
C1108 H1100 0.950 . S
C1108 C1109 1.386 . S
C1108 C1110 1.391 . S
C1109 C1108 1.386 . S
C1109 C1113 1.393 . S
C1110 H1102 0.950 . S
C1110 C1108 1.391 . S
C1110 C1111 1.400 . S
C1111 C1110 1.400 . S
C1111 C1112 1.398 . S
C1111 C1117 1.491 . S
C1112 H1103 0.950 . S
C1112 C1111 1.398 . S
C1112 C1113 1.391 . S
C1113 H1101 0.950 . S
C1113 C1109 1.393 . S
C1113 C1112 1.391 . S
C1114 H1104 0.950 . S
C1114 C1115 1.386 . S
C1114 C1116 1.391 . S
C1115 C1114 1.386 . S
C1115 C1119 1.393 . S
C1116 H1105 0.950 . S
C1116 C1114 1.391 . S
C1116 C1117 1.400 . S
C1117 C1111 1.491 . S
C1117 C1116 1.400 . S
C1117 C1118 1.398 . S
C1118 H1106 0.950 . S
C1118 C1117 1.398 . S
C1118 C1119 1.391 . S
C1119 H1107 0.950 . S
C1119 C1115 1.393 . S
C1119 C1118 1.391 . S
C495 C393 1.311 . S
C489 C8 1.291 . S
C515 C407 1.324 . S
C509 C61 1.282 . S
C535 C415 1.370 . S
C529 C107 1.346 . S
C549 C139 1.313 . S
C555 C373 1.336 . S
C569 C192 1.233 . S
C575 C379 1.267 1_556 S
C589 C238 1.216 . S
C595 C387 1.252 . S
C615 C401 1.377 . S
C609 C284 1.355 . S
C635 C421 1.341 . S
C629 C330 1.311 . S
C649 C100 1.232 . S
C655 C449 1.281 . S
C675 C463 1.374 . S
C669 C160 1.313 . S
C689 C15 1.248 . S
C695 C471 1.265 . S
C715 C435 1.213 . S
C709 C54 1.202 . S
C729 C291 1.303 . S
C735 C429 1.340 . S
C749 C337 1.349 . S
C755 C443 1.371 . S
C775 C457 1.357 . S
C769 C199 1.342 . S
C789 C245 1.318 . S
C795 C477 1.368 . S
C815 C396 1.659 . S
C809 C1 1.710 . S
C835 C419 1.700 . S
C829 C68 1.697 . S
C849 C114 1.716 . S
C855 C377 1.718 . S
C869 C146 1.747 . S
C875 C382 1.712 . S
C889 C185 1.639 . S
C895 C410 1.577 . S
C915 C368 1.580 . S
C909 C231 1.644 . S
C935 C391 1.629 . S
C929 C277 1.655 . S
C955 C405 1.626 . S
C949 C323 1.652 . S
C975 C452 1.595 . S
C969 C93 1.637 . S
C995 C475 1.625 . S
C989 C153 1.643 . S
C1009 C22 1.625 . S
C1015 C424 1.571 . S
C1035 C438 1.559 . S
C1029 C47 1.618 . S
C1055 C466 1.710 . S
C1049 C298 1.735 . S
C1069 C344 1.732 . S
C1075 C433 1.729 . S
C1095 C447 1.730 . S
C1089 C206 1.733 . S
C1115 C461 1.701 . S
C1109 C252 1.700 . S
