# Generated by pormake.
# Topology sit, (3,6)-cn, num edge types: 1
# Building blocks:
#     Node 0, Type 0, BuildingBlock: BETDAH_clean_linker_0, # of connection points: 3
#     Node 1, Type 0, BuildingBlock: BETDAH_clean_linker_0, # of connection points: 3
#     Node 2, Type 0, BuildingBlock: BETDAH_clean_linker_0, # of connection points: 3
#     Node 3, Type 0, BuildingBlock: BETDAH_clean_linker_0, # of connection points: 3
#     Node 4, Type 1, BuildingBlock: MIDCAF_clean_sbu_0, # of connection points: 6
#     Node 5, Type 1, BuildingBlock: MIDCAF_clean_sbu_0, # of connection points: 6
#     Edge 6, Type (0, 1), BuildingBlock: CIFDUS_clean_linker_0, # of connection points: 2
#     Edge 7, Type (0, 1), BuildingBlock: CIFDUS_clean_linker_0, # of connection points: 2
#     Edge 8, Type (0, 1), BuildingBlock: CIFDUS_clean_linker_0, # of connection points: 2
#     Edge 9, Type (0, 1), BuildingBlock: CIFDUS_clean_linker_0, # of connection points: 2
#     Edge 10, Type (0, 1), BuildingBlock: CIFDUS_clean_linker_0, # of connection points: 2
#     Edge 11, Type (0, 1), BuildingBlock: CIFDUS_clean_linker_0, # of connection points: 2
#     Edge 12, Type (0, 1), BuildingBlock: CIFDUS_clean_linker_0, # of connection points: 2
#     Edge 13, Type (0, 1), BuildingBlock: CIFDUS_clean_linker_0, # of connection points: 2
#     Edge 14, Type (0, 1), BuildingBlock: CIFDUS_clean_linker_0, # of connection points: 2
#     Edge 15, Type (0, 1), BuildingBlock: CIFDUS_clean_linker_0, # of connection points: 2
#     Edge 16, Type (0, 1), BuildingBlock: CIFDUS_clean_linker_0, # of connection points: 2
#     Edge 17, Type (0, 1), BuildingBlock: CIFDUS_clean_linker_0, # of connection points: 2
# Relax obj value: 0.072
# Max RMSD: 0.181
# Mean RMSD: 0.108
data_MOF--net-sit--node1-MIDCAF_clean_sbu_0--node2-BETDAH_clean_linker_0--edge1-CIFDUS_clean_linker_0
_symmetry_space_group_name_H-M    P1
_symmetry_Int_Tables_number       1
_symmetry_cell_setting            triclinic
loop_
_symmetry_equiv_pos_as_xyz
'x, y, z'
_cell_length_a     19.520281
_cell_length_b     27.57313
_cell_length_c     33.011483
_cell_angle_alpha  90.413859
_cell_angle_beta   86.662093
_cell_angle_gamma 81.112643
loop_
_atom_site_label
_atom_site_type_symbol
_atom_site_fract_x
_atom_site_fract_y
_atom_site_fract_z
_atom_type_partial_charge
H0 H 0.09171 0.40434 0.96253 0.0
H1 H 0.24176 0.3081 0.02707 0.0
H2 H 0.03415 0.27649 0.0202 0.0
C3 C 0.10488 0.37328 0.98207 0.0
C4 C 0.0547 0.34331 0.99169 0.0
C5 C 0.17309 0.36081 -0.00608 0.0
C6 C 0.18969 0.31841 0.01708 0.0
C7 C 0.14019 0.28805 0.02689 0.0
C8 C 0.07233 0.30055 0.01409 0.0
N9 N 0.1618 0.24376 0.04739 0.0
C10 C 0.11681 0.2187 0.07002 0.0
H11 H 0.07837 0.63111 0.98931 0.0
H12 H 0.11466 0.76478 0.04739 0.0
H13 H 0.90656 0.73949 0.0323 0.0
C14 C 0.05894 0.66543 0.00526 0.0
C15 C -0.01299 0.68051 0.01096 0.0
C16 C 0.10562 0.69574 0.01803 0.0
C17 C 0.07929 0.74091 0.03777 0.0
C18 C 0.00732 0.75658 0.04277 0.0
C19 C -0.03804 0.72637 0.02932 0.0
N20 N -0.02146 0.80384 0.05846 0.0
C21 C 0.01129 0.83102 0.08473 0.0
H22 H 0.49154 0.94622 0.48749 0.0
H23 H 0.60047 0.91392 0.59636 0.0
H24 H 0.38602 0.89649 0.59337 0.0
C25 C 0.49243 0.93537 0.51897 0.0
C26 C 0.4316 0.92385 0.53859 0.0
C27 C 0.55423 0.93155 0.53917 0.0
C28 C 0.55387 0.91632 0.57972 0.0
C29 C 0.49428 0.90232 0.59885 0.0
C30 C 0.43263 0.90648 0.57841 0.0
N31 N 0.49757 0.88515 0.63903 0.0
C32 C 0.47719 0.84104 0.6509 0.0
H33 H 0.45228 0.17558 0.48545 0.0
H34 H 0.50392 0.30183 0.54525 0.0
H35 H 0.2948 0.27074 0.55786 0.0
C36 C 0.43683 0.20609 0.5066 0.0
C37 C 0.36705 0.21872 0.52061 0.0
C38 C 0.48601 0.23569 0.51586 0.0
C39 C 0.46606 0.27806 0.54 0.0
C40 C 0.39697 0.29048 0.55566 0.0
C41 C 0.34813 0.26044 0.54619 0.0
N42 N 0.37406 0.33419 0.57896 0.0
C43 C 0.41857 0.36406 0.59376 0.0
Zn44 Zn 0.95132 0.14941 0.34571 0.0
Zn45 Zn 0.00455 0.96637 0.36487 0.0
Zn46 Zn -0.01802 0.06015 0.35994 0.0
C47 C 0.02041 0.98077 0.28421 0.0
C48 C 0.86936 0.99545 0.39568 0.0
O49 O 0.05914 0.09293 0.39305 0.0
O50 O 0.02992 0.16916 0.37291 0.0
C51 C -0.01851 0.1145 0.27096 0.0
O52 O 0.00143 1.02511 0.29791 0.0
O53 O 0.02996 0.94569 0.30852 0.0
O54 O 0.91235 0.95698 0.38794 0.0
O55 O 0.88612 1.03798 0.38785 0.0
O56 O -0.04765 0.15455 0.28696 0.0
O57 O -0.003 0.07657 0.29338 0.0
O58 O 0.87817 0.08978 0.39078 0.0
O59 O 0.8632 0.16848 0.37593 0.0
C60 C 0.8427 0.13334 0.39473 0.0
O61 O 0.06988 1.04139 0.40032 0.0
O62 O 0.07897 0.96045 0.40205 0.0
C63 C 0.06779 0.13832 0.39325 0.0
C64 C 0.09855 0.99955 0.41339 0.0
Zn65 Zn 0.57527 0.62013 0.86893 0.0
Zn66 Zn 0.62113 0.4488 0.82833 0.0
Zn67 Zn 0.58491 0.53433 0.85217 0.0
C68 C 0.59118 0.49076 0.75859 0.0
C69 C 0.49599 0.45563 0.87891 0.0
O70 O 0.68319 0.55051 0.87645 0.0
O71 O 0.6718 0.63122 0.87279 0.0
C72 C 0.53463 0.62149 0.79205 0.0
O73 O 0.57067 0.52519 0.78534 0.0
O74 O 0.62669 0.45133 0.76922 0.0
O75 O 0.53696 0.42776 0.85471 0.0
O76 O 0.50449 0.50048 0.88427 0.0
O77 O 0.52556 0.64942 0.82288 0.0
O78 O 0.56306 0.5764 0.79543 0.0
O79 O 0.4947 0.55139 0.89772 0.0
O80 O 0.51863 0.62205 0.92005 0.0
C81 C 0.48151 0.5885 0.92251 0.0
O82 O 0.68639 0.49928 0.877 0.0
O83 O 0.70475 0.42252 0.85455 0.0
C84 C 0.70861 0.59077 0.87949 0.0
C85 C 0.72197 0.45554 0.87654 0.0
H86 H 0.15692 0.13625 0.11029 0.0
H87 H -0.01661 0.24988 0.09366 0.0
H88 H 0.91864 0.21996 0.1516 0.0
H89 H 0.92003 0.17056 0.21289 0.0
H90 H 0.09648 0.06027 0.23258 0.0
H91 H 0.15071 0.07823 0.16678 0.0
C92 C 0.10419 0.15342 0.11889 0.0
C93 C 0.07445 0.19507 0.09831 0.0
C94 C 0.0682 0.13665 0.15275 0.0
C95 C 0.00667 0.21764 0.10936 0.0
C96 C -0.03005 0.20067 0.14249 0.0
C97 C -0.03041 0.14962 0.20226 0.0
C98 C 0.00465 0.11456 0.22761 0.0
C99 C 0.00137 0.16151 0.16531 0.0
C100 C 0.06842 0.08729 0.21349 0.0
C101 C 0.09978 0.098 0.1761 0.0
H102 H -0.04387 0.92215 0.10878 0.0
H103 H 0.1178 0.80218 0.13149 0.0
H104 H 0.14351 0.84365 0.19349 0.0
H105 H 0.10777 0.90765 0.24569 0.0
H106 H 0.94075 1.02507 0.22544 0.0
H107 H 0.93056 0.9922 0.15736 0.0
C108 C -0.00188 0.90593 0.12692 0.0
C109 C 0.03525 0.85949 0.11614 0.0
C110 C 0.01128 0.92952 0.16286 0.0
C111 C 0.08905 0.83812 0.13955 0.0
C112 C 0.1034 0.86169 0.17496 0.0
C113 C 0.07023 0.92663 0.22594 0.0
C114 C 0.02507 0.96868 0.24043 0.0
C115 C 0.06311 0.90648 0.18762 0.0
C116 C -0.02324 0.9931 0.21469 0.0
C117 C -0.02967 0.9739 0.17599 0.0
H118 H 0.55762 0.75277 0.64238 0.0
H119 H 0.36947 0.82965 0.70207 0.0
H120 H 0.36204 0.75998 0.74676 0.0
H121 H 0.42175 0.68565 0.77701 0.0
H122 H 0.61285 0.60962 0.72015 0.0
H123 H 0.60567 0.66934 0.66517 0.0
C124 C 0.51394 0.75332 0.66435 0.0
C125 C 0.46418 0.79589 0.66938 0.0
C126 C 0.51105 0.71348 0.69049 0.0
C127 C 0.40803 0.79695 0.69789 0.0
C128 C 0.40406 0.75729 0.7235 0.0
C129 C 0.46046 0.68123 0.75174 0.0
C130 C 0.51823 0.64396 0.75271 0.0
C131 C 0.45701 0.71649 0.72129 0.0
C132 C 0.56792 0.63809 0.71988 0.0
C133 C 0.56423 0.67264 0.68881 0.0
H134 H 0.38268 0.45028 0.63397 0.0
H135 H 0.55712 0.34075 0.59577 0.0
H136 H 0.63304 0.38077 0.63668 0.0
H137 H 0.64428 0.43694 0.69242 0.0
H138 H 0.46829 0.5424 0.73581 0.0
H139 H 0.39952 0.51601 0.68253 0.0
C140 C 0.43771 0.43609 0.63401 0.0
C141 C 0.46462 0.39267 0.61229 0.0
C142 C 0.48071 0.45873 0.6585 0.0
C143 C 0.53557 0.37418 0.61233 0.0
C144 C 0.57893 0.39702 0.63578 0.0
C145 C 0.59155 0.45531 0.68936 0.0
C146 C 0.56097 0.49078 0.71853 0.0
C147 C 0.55139 0.43801 0.66025 0.0
C148 C 0.49307 0.51488 0.71385 0.0
C149 C 0.4533 0.49915 0.68378 0.0
H150 H 0.30632 0.32358 0.9703 0.0
H151 H 0.16371 0.46013 0.97938 0.0
H152 H 0.24982 0.5018 0.94307 0.0
H153 H 0.36503 0.49818 0.90597 0.0
H154 H 0.50864 0.3624 0.90399 0.0
H155 H 0.4227 0.32188 0.94073 0.0
C156 C 0.29434 0.3628 0.96578 0.0
C157 C 0.22821 0.38837 0.97758 0.0
C158 C 0.34437 0.38675 0.9459 0.0
C159 C 0.21373 0.43908 0.97006 0.0
C160 C 0.2631 0.46311 0.94947 0.0
C161 C 0.37779 0.46017 0.91467 0.0
C162 C 0.44314 0.43355 0.90282 0.0
C163 C 0.32844 0.43714 0.93681 0.0
C164 C 0.45847 0.38371 0.91275 0.0
C165 C 0.40956 0.36049 0.93392 0.0
H166 H -0.00857 0.63839 0.93572 0.0
H167 H 0.86976 0.65797 0.04969 0.0
H168 H 0.77482 0.6256 0.01929 0.0
H169 H 0.72055 0.60369 0.95823 0.0
H170 H 0.83963 0.58417 0.84385 0.0
H171 H 0.94225 0.60417 0.87638 0.0
C172 C 0.94492 0.6342 0.95413 0.0
C173 C 0.93696 0.65125 -0.00531 0.0
C174 C 0.89007 0.61619 0.93625 0.0
C175 C 0.87637 0.64586 0.01821 0.0
C176 C 0.82214 0.62744 0.00087 0.0
C177 C 0.76971 0.6026 0.94081 0.0
C178 C 0.77358 0.59216 0.89909 0.0
C179 C 0.82747 0.61439 0.95961 0.0
C180 C 0.83648 0.59148 0.87625 0.0
C181 C 0.89471 0.60315 0.8948 0.0
H182 H -0.03985 0.42624 3e-05 0.0
H183 H 0.00198 0.28475 0.93961 0.0
H184 H 0.90364 0.30797 0.8974 0.0
H185 H 0.81175 0.37022 0.87477 0.0
H186 H 0.75907 0.50763 0.94041 0.0
H187 H 0.85763 0.48546 0.98268 0.0
C188 C 0.94656 0.40033 0.97813 0.0
C189 C -0.01241 0.35389 0.97281 0.0
C190 C 0.88997 0.41392 0.95411 0.0
C191 C -0.02978 0.32041 0.94444 0.0
C192 C 0.91469 0.33389 0.92003 0.0
C193 C 0.82174 0.39552 0.89822 0.0
C194 C 0.78077 0.44217 0.90275 0.0
C195 C 0.87525 0.3809 0.92405 0.0
C196 C 0.79318 0.47345 0.93427 0.0
C197 C 0.84832 0.46006 0.95915 0.0
H198 H 0.19026 0.60642 0.02036 0.0
H199 H 0.18891 0.7575 0.98603 0.0
H200 H 0.30687 0.73731 0.95665 0.0
H201 H 0.4051 0.67651 0.93471 0.0
H202 H 0.41292 0.52544 0.96883 0.0
H203 H 0.29696 0.54562 0.00405 0.0
C204 C 0.21617 0.6349 0.00675 0.0
C205 C 0.18063 0.68346 0.00545 0.0
C206 C 0.28426 0.62288 0.98922 0.0
C207 C 0.21512 0.72007 0.98808 0.0
C208 C 0.28243 0.70849 0.97085 0.0
C209 C 0.38194 0.64788 0.95021 0.0
C210 C 0.41597 0.59908 0.94788 0.0
C211 C 0.31666 0.65997 0.97045 0.0
C212 C 0.38575 0.56269 0.96849 0.0
C213 C 0.32008 0.57445 0.98897 0.0
H214 H 0.5713 1.00036 0.48137 0.0
H215 H 0.68474 0.88119 0.54632 0.0
H216 H 0.79132 0.89162 0.50797 0.0
H217 H 0.85206 0.93243 0.455 0.0
H218 H 0.73964 0.04688 0.38565 0.0
H219 H 0.63197 1.03943 0.42597 0.0
C220 C 0.61913 0.97632 0.48694 0.0
C221 C 0.61967 0.94018 0.51701 0.0
C222 C 0.68012 0.98128 0.46371 0.0
C223 C 0.68266 0.91007 0.52417 0.0
C224 C 0.74366 0.91554 0.50186 0.0
C225 C 0.8038 0.95552 0.44854 0.0
C226 C 0.80342 0.99055 0.41793 0.0
C227 C 0.74281 0.95068 0.47144 0.0
C228 C 0.74087 1.0201 0.40955 0.0
C229 C 0.67959 1.0158 0.43254 0.0
H230 H 0.2382 0.25892 0.50026 0.0
H231 H 0.37593 0.12036 0.50031 0.0
H232 H 0.29712 0.08294 0.45943 0.0
H233 H 0.19202 0.09183 0.41926 0.0
H234 H 0.05153 0.22914 0.42625 0.0
H235 H 0.12885 0.26474 0.46856 0.0
C236 C 0.25032 0.22009 0.49274 0.0
C237 C 0.31353 0.19289 0.5032 0.0
C238 C 0.20449 0.19861 0.46989 0.0
C239 C 0.32833 0.14271 0.49206 0.0
C240 C 0.28316 0.12113 0.46873 0.0
C241 C 0.17751 0.12887 0.43125 0.0
C242 C 0.11581 0.15741 0.42001 0.0
C243 C 0.22159 0.14904 0.45676 0.0
C244 C 0.09901 0.20631 0.43418 0.0
C245 C 0.14292 0.22674 0.45867 0.0
H246 H 0.31766 0.99396 0.54768 0.0
H247 H 0.40804 0.86532 0.47723 0.0
H248 H 0.31322 0.87894 0.43141 0.0
H249 H 0.20861 0.92907 0.4098 0.0
H250 H 0.11385 0.05695 0.47975 0.0
H251 H 0.20721 1.04291 0.52727 0.0
C252 C 0.31532 0.96857 0.52273 0.0
C253 C 0.36858 0.92835 0.51581 0.0
C254 C 0.2612 0.97721 0.49614 0.0
C255 C 0.36669 0.89603 0.4831 0.0
C256 C 0.31302 0.90407 0.45684 0.0
C257 C 0.20853 0.954 0.43541 0.0
C258 C 0.15587 0.99472 0.44084 0.0
C259 C 0.26082 0.9449 0.46272 0.0
C260 C 0.15536 1.02626 0.47442 0.0
C261 C 0.2081 1.01782 0.50176 0.0
H262 H 0.58579 0.15651 0.52309 0.0
H263 H 0.53792 0.29261 0.45979 0.0
H264 H 0.64328 0.27156 0.4155 0.0
H265 H 0.74426 0.21285 0.39263 0.0
H266 H 0.80279 0.08147 0.46054 0.0
H267 H 0.69671 0.10138 0.50484 0.0
C268 C 0.59951 0.18171 0.50001 0.0
C269 C 0.55502 0.22602 0.4945 0.0
C270 C 0.66057 0.16959 0.47504 0.0
C271 C 0.57233 0.25863 0.46462 0.0
C272 C 0.63198 0.2464 0.43916 0.0
C273 C 0.73403 0.18843 0.41712 0.0
C274 C 0.77938 0.14432 0.422 0.0
C275 C 0.67569 0.20166 0.44369 0.0
C276 C 0.76648 0.11411 0.45471 0.0
C277 C 0.70658 0.126 0.48048 0.0
loop_
_geom_bond_atom_site_label_1
_geom_bond_atom_site_label_2
_geom_bond_distance
_geom_bond_site_symmetry_2
_ccdc_geom_bond_type
H0 C3 0.929 . S
H1 C6 0.929 . S
H2 C8 0.930 . S
C3 H0 0.929 . S
C3 C4 1.398 . S
C3 C5 1.396 1_556 S
C4 C3 1.398 . S
C4 C8 1.407 1_556 S
C5 C3 1.396 1_554 S
C5 C6 1.394 . S
C6 H1 0.929 . S
C6 C5 1.394 . S
C6 C7 1.382 . S
C7 C6 1.382 . S
C7 C8 1.392 . S
C7 N9 1.420 . S
C8 H2 0.930 . S
C8 C4 1.407 1_554 S
C8 C7 1.392 . S
N9 C7 1.420 . S
N9 C10 1.244 . S
C10 N9 1.244 . S
H11 C14 0.929 . S
H12 C17 0.929 . S
H13 C19 0.930 . S
C14 H11 0.929 . S
C14 C15 1.398 1_456 S
C14 C16 1.396 1_556 S
C15 C14 1.398 1_654 S
C15 C19 1.407 . S
C16 C14 1.396 1_554 S
C16 C17 1.394 . S
C17 H12 0.929 . S
C17 C16 1.394 . S
C17 C18 1.382 1_455 S
C18 C17 1.382 1_655 S
C18 C19 1.392 . S
C18 N20 1.420 . S
C19 H13 0.930 . S
C19 C15 1.407 . S
C19 C18 1.392 . S
N20 C18 1.420 . S
N20 C21 1.244 1_655 S
C21 N20 1.244 1_455 S
H22 C25 0.929 . S
H23 C28 0.929 . S
H24 C30 0.930 . S
C25 H22 0.929 . S
C25 C26 1.398 . S
C25 C27 1.396 . S
C26 C25 1.398 . S
C26 C30 1.407 . S
C27 C25 1.396 . S
C27 C28 1.394 . S
C28 H23 0.929 . S
C28 C27 1.394 . S
C28 C29 1.382 . S
C29 C28 1.382 . S
C29 C30 1.392 . S
C29 N31 1.420 . S
C30 H24 0.930 . S
C30 C26 1.407 . S
C30 C29 1.392 . S
N31 C29 1.420 . S
N31 C32 1.244 . S
C32 N31 1.244 . S
H33 C36 0.929 . S
H34 C39 0.929 . S
H35 C41 0.930 . S
C36 H33 0.929 . S
C36 C37 1.398 . S
C36 C38 1.396 . S
C37 C36 1.398 . S
C37 C41 1.407 . S
C38 C36 1.396 . S
C38 C39 1.394 . S
C39 H34 0.929 . S
C39 C38 1.394 . S
C39 C40 1.382 . S
C40 C39 1.382 . S
C40 C41 1.392 . S
C40 N42 1.420 . S
C41 H35 0.930 . S
C41 C37 1.407 . S
C41 C40 1.392 . S
N42 C40 1.420 . S
N42 C43 1.244 . S
C43 N42 1.244 . S
Zn44 O50 1.920 . S
Zn44 O56 1.898 . S
Zn44 O59 1.905 1_455 S
Zn45 O53 1.905 . S
Zn45 O54 1.898 . S
Zn45 O62 1.920 . S
Zn46 O49 2.080 . S
Zn46 O52 2.114 1_545 S
Zn46 O55 2.120 1_545 S
Zn46 O57 2.120 . S
Zn46 O58 2.114 1_455 S
Zn46 O61 2.080 1_545 S
C47 O52 1.166 . S
C47 O53 1.182 . S
C48 O54 1.167 1_655 S
C48 O55 1.299 1_655 S
O49 Zn46 2.080 . S
O49 C63 1.305 . S
O50 Zn44 1.920 . S
O50 C63 1.234 . S
C51 O56 1.167 . S
C51 O57 1.299 . S
O52 Zn46 2.114 1_565 S
O52 C47 1.166 . S
O53 Zn45 1.905 . S
O53 C47 1.182 . S
O54 Zn45 1.898 . S
O54 C48 1.167 1_455 S
O55 Zn46 2.120 1_565 S
O55 C48 1.299 1_455 S
O56 Zn44 1.898 . S
O56 C51 1.167 . S
O57 Zn46 2.120 . S
O57 C51 1.299 . S
O58 Zn46 2.114 1_655 S
O58 C60 1.166 . S
O59 Zn44 1.905 1_655 S
O59 C60 1.182 . S
C60 O58 1.166 . S
C60 O59 1.182 . S
O61 Zn46 2.080 1_565 S
O61 C64 1.305 . S
O62 Zn45 1.920 . S
O62 C64 1.234 . S
C63 O49 1.305 . S
C63 O50 1.234 . S
C64 O61 1.305 . S
C64 O62 1.234 . S
Zn65 O71 1.920 . S
Zn65 O77 1.898 . S
Zn65 O80 1.905 . S
Zn66 O74 1.905 . S
Zn66 O75 1.898 . S
Zn66 O83 1.920 . S
Zn67 O70 2.080 . S
Zn67 O73 2.114 . S
Zn67 O76 2.120 . S
Zn67 O78 2.120 . S
Zn67 O79 2.114 . S
Zn67 O82 2.080 . S
C68 O73 1.166 . S
C68 O74 1.182 . S
C69 O75 1.167 . S
C69 O76 1.299 . S
O70 Zn67 2.080 . S
O70 C84 1.305 . S
O71 Zn65 1.920 . S
O71 C84 1.234 . S
C72 O77 1.167 . S
C72 O78 1.299 . S
O73 Zn67 2.114 . S
O73 C68 1.166 . S
O74 Zn66 1.905 . S
O74 C68 1.182 . S
O75 Zn66 1.898 . S
O75 C69 1.167 . S
O76 Zn67 2.120 . S
O76 C69 1.299 . S
O77 Zn65 1.898 . S
O77 C72 1.167 . S
O78 Zn67 2.120 . S
O78 C72 1.299 . S
O79 Zn67 2.114 . S
O79 C81 1.166 . S
O80 Zn65 1.905 . S
O80 C81 1.182 . S
C81 O79 1.166 . S
C81 O80 1.182 . S
O82 Zn67 2.080 . S
O82 C85 1.305 . S
O83 Zn66 1.920 . S
O83 C85 1.234 . S
C84 O70 1.305 . S
C84 O71 1.234 . S
C85 O82 1.305 . S
C85 O83 1.234 . S
H86 C92 0.930 . S
H87 C95 0.930 . S
H88 C96 0.930 . S
H89 C97 0.930 . S
H90 C100 0.930 . S
H91 C101 0.930 . S
C92 H86 0.930 . S
C92 C93 1.355 . S
C92 C94 1.415 . S
C93 C92 1.355 . S
C93 C95 1.419 . S
C94 C92 1.415 . S
C94 C99 1.425 . S
C94 C101 1.409 . S
C95 H87 0.930 . S
C95 C93 1.419 . S
C95 C96 1.362 . S
C96 H88 0.930 . S
C96 C95 1.362 . S
C96 C99 1.409 . S
C97 H89 0.930 . S
C97 C98 1.355 . S
C97 C99 1.415 . S
C98 C97 1.355 . S
C98 C100 1.419 . S
C99 C94 1.425 . S
C99 C96 1.409 . S
C99 C97 1.415 . S
C100 H90 0.930 . S
C100 C98 1.419 . S
C100 C101 1.362 . S
C101 H91 0.930 . S
C101 C94 1.409 . S
C101 C100 1.362 . S
H102 C108 0.930 . S
H103 C111 0.930 . S
H104 C112 0.930 . S
H105 C113 0.930 . S
H106 C116 0.930 . S
H107 C117 0.930 . S
C108 H102 0.930 . S
C108 C109 1.355 1_655 S
C108 C110 1.415 . S
C109 C108 1.355 1_455 S
C109 C111 1.419 . S
C110 C108 1.415 . S
C110 C115 1.425 1_655 S
C110 C117 1.409 . S
C111 H103 0.930 . S
C111 C109 1.419 . S
C111 C112 1.362 . S
C112 H104 0.930 . S
C112 C111 1.362 . S
C112 C115 1.409 . S
C113 H105 0.930 . S
C113 C114 1.355 . S
C113 C115 1.415 . S
C114 C113 1.355 . S
C114 C116 1.419 1_455 S
C115 C110 1.425 1_455 S
C115 C112 1.409 . S
C115 C113 1.415 . S
C116 H106 0.930 . S
C116 C114 1.419 1_655 S
C116 C117 1.362 . S
C117 H107 0.930 . S
C117 C110 1.409 . S
C117 C116 1.362 . S
H118 C124 0.930 . S
H119 C127 0.930 . S
H120 C128 0.930 . S
H121 C129 0.930 . S
H122 C132 0.930 . S
H123 C133 0.930 . S
C124 H118 0.930 . S
C124 C125 1.355 . S
C124 C126 1.415 . S
C125 C124 1.355 . S
C125 C127 1.419 . S
C126 C124 1.415 . S
C126 C131 1.425 . S
C126 C133 1.409 . S
C127 H119 0.930 . S
C127 C125 1.419 . S
C127 C128 1.362 . S
C128 H120 0.930 . S
C128 C127 1.362 . S
C128 C131 1.409 . S
C129 H121 0.930 . S
C129 C130 1.355 . S
C129 C131 1.415 . S
C130 C129 1.355 . S
C130 C132 1.419 . S
C131 C126 1.425 . S
C131 C128 1.409 . S
C131 C129 1.415 . S
C132 H122 0.930 . S
C132 C130 1.419 . S
C132 C133 1.362 . S
C133 H123 0.930 . S
C133 C126 1.409 . S
C133 C132 1.362 . S
H134 C140 0.930 . S
H135 C143 0.930 . S
H136 C144 0.930 . S
H137 C145 0.930 . S
H138 C148 0.930 . S
H139 C149 0.930 . S
C140 H134 0.930 . S
C140 C141 1.355 . S
C140 C142 1.415 . S
C141 C140 1.355 . S
C141 C143 1.419 . S
C142 C140 1.415 . S
C142 C147 1.425 . S
C142 C149 1.409 . S
C143 H135 0.930 . S
C143 C141 1.419 . S
C143 C144 1.362 . S
C144 H136 0.930 . S
C144 C143 1.362 . S
C144 C147 1.409 . S
C145 H137 0.930 . S
C145 C146 1.355 . S
C145 C147 1.415 . S
C146 C145 1.355 . S
C146 C148 1.419 . S
C147 C142 1.425 . S
C147 C144 1.409 . S
C147 C145 1.415 . S
C148 H138 0.930 . S
C148 C146 1.419 . S
C148 C149 1.362 . S
C149 H139 0.930 . S
C149 C142 1.409 . S
C149 C148 1.362 . S
H150 C156 0.930 1_554 S
H151 C159 0.930 . S
H152 C160 0.930 . S
H153 C161 0.930 . S
H154 C164 0.930 . S
H155 C165 0.930 . S
C156 H150 0.930 1_556 S
C156 C157 1.355 . S
C156 C158 1.415 . S
C157 C156 1.355 . S
C157 C159 1.419 . S
C158 C156 1.415 . S
C158 C163 1.425 . S
C158 C165 1.409 . S
C159 H151 0.930 . S
C159 C157 1.419 . S
C159 C160 1.362 . S
C160 H152 0.930 . S
C160 C159 1.362 . S
C160 C163 1.409 . S
C161 H153 0.930 . S
C161 C162 1.355 . S
C161 C163 1.415 . S
C162 C161 1.355 . S
C162 C164 1.419 . S
C163 C158 1.425 . S
C163 C160 1.409 . S
C163 C161 1.415 . S
C164 H154 0.930 . S
C164 C162 1.419 . S
C164 C165 1.362 . S
C165 H155 0.930 . S
C165 C158 1.409 . S
C165 C164 1.362 . S
H166 C172 0.930 . S
H167 C175 0.930 . S
H168 C176 0.930 . S
H169 C177 0.930 . S
H170 C180 0.930 . S
H171 C181 0.930 . S
C172 H166 0.930 . S
C172 C173 1.355 . S
C172 C174 1.415 . S
C173 C172 1.355 . S
C173 C175 1.419 . S
C174 C172 1.415 . S
C174 C179 1.425 . S
C174 C181 1.409 . S
C175 H167 0.930 . S
C175 C173 1.419 . S
C175 C176 1.362 . S
C176 H168 0.930 . S
C176 C175 1.362 . S
C176 C179 1.409 . S
C177 H169 0.930 . S
C177 C178 1.355 . S
C177 C179 1.415 . S
C178 C177 1.355 . S
C178 C180 1.419 . S
C179 C174 1.425 . S
C179 C176 1.409 . S
C179 C177 1.415 . S
C180 H170 0.930 . S
C180 C178 1.419 . S
C180 C181 1.362 . S
C181 H171 0.930 . S
C181 C174 1.409 . S
C181 C180 1.362 . S
H182 C188 0.930 . S
H183 C191 0.930 . S
H184 C192 0.930 1_455 S
H185 C193 0.930 . S
H186 C196 0.930 . S
H187 C197 0.930 . S
C188 H182 0.930 . S
C188 C189 1.355 1_655 S
C188 C190 1.415 . S
C189 C188 1.355 1_455 S
C189 C191 1.419 . S
C190 C188 1.415 . S
C190 C195 1.425 . S
C190 C197 1.409 . S
C191 H183 0.930 . S
C191 C189 1.419 . S
C191 C192 1.362 1_455 S
C192 H184 0.930 1_655 S
C192 C191 1.362 1_655 S
C192 C195 1.409 . S
C193 H185 0.930 . S
C193 C194 1.355 . S
C193 C195 1.415 . S
C194 C193 1.355 . S
C194 C196 1.419 . S
C195 C190 1.425 . S
C195 C192 1.409 . S
C195 C193 1.415 . S
C196 H186 0.930 . S
C196 C194 1.419 . S
C196 C197 1.362 . S
C197 H187 0.930 . S
C197 C190 1.409 . S
C197 C196 1.362 . S
H198 C204 0.930 1_554 S
H199 C207 0.930 . S
H200 C208 0.930 . S
H201 C209 0.930 . S
H202 C212 0.930 . S
H203 C213 0.930 . S
C204 H198 0.930 1_556 S
C204 C205 1.355 . S
C204 C206 1.415 . S
C205 C204 1.355 . S
C205 C207 1.419 . S
C206 C204 1.415 . S
C206 C211 1.425 . S
C206 C213 1.409 . S
C207 H199 0.930 . S
C207 C205 1.419 . S
C207 C208 1.362 . S
C208 H200 0.930 . S
C208 C207 1.362 . S
C208 C211 1.409 . S
C209 H201 0.930 . S
C209 C210 1.355 . S
C209 C211 1.415 . S
C210 C209 1.355 . S
C210 C212 1.419 . S
C211 C206 1.425 . S
C211 C208 1.409 . S
C211 C209 1.415 . S
C212 H202 0.930 . S
C212 C210 1.419 . S
C212 C213 1.362 . S
C213 H203 0.930 . S
C213 C206 1.409 . S
C213 C212 1.362 . S
H214 C220 0.930 . S
H215 C223 0.930 . S
H216 C224 0.930 . S
H217 C225 0.930 . S
H218 C228 0.930 . S
H219 C229 0.930 . S
C220 H214 0.930 . S
C220 C221 1.355 . S
C220 C222 1.415 . S
C221 C220 1.355 . S
C221 C223 1.419 . S
C222 C220 1.415 . S
C222 C227 1.425 . S
C222 C229 1.409 . S
C223 H215 0.930 . S
C223 C221 1.419 . S
C223 C224 1.362 . S
C224 H216 0.930 . S
C224 C223 1.362 . S
C224 C227 1.409 . S
C225 H217 0.930 . S
C225 C226 1.355 . S
C225 C227 1.415 . S
C226 C225 1.355 . S
C226 C228 1.419 . S
C227 C222 1.425 . S
C227 C224 1.409 . S
C227 C225 1.415 . S
C228 H218 0.930 . S
C228 C226 1.419 . S
C228 C229 1.362 . S
C229 H219 0.930 . S
C229 C222 1.409 . S
C229 C228 1.362 . S
H230 C236 0.930 . S
H231 C239 0.930 . S
H232 C240 0.930 . S
H233 C241 0.930 . S
H234 C244 0.930 . S
H235 C245 0.930 . S
C236 H230 0.930 . S
C236 C237 1.355 . S
C236 C238 1.415 . S
C237 C236 1.355 . S
C237 C239 1.419 . S
C238 C236 1.415 . S
C238 C243 1.425 . S
C238 C245 1.409 . S
C239 H231 0.930 . S
C239 C237 1.419 . S
C239 C240 1.362 . S
C240 H232 0.930 . S
C240 C239 1.362 . S
C240 C243 1.409 . S
C241 H233 0.930 . S
C241 C242 1.355 . S
C241 C243 1.415 . S
C242 C241 1.355 . S
C242 C244 1.419 . S
C243 C238 1.425 . S
C243 C240 1.409 . S
C243 C241 1.415 . S
C244 H234 0.930 . S
C244 C242 1.419 . S
C244 C245 1.362 . S
C245 H235 0.930 . S
C245 C238 1.409 . S
C245 C244 1.362 . S
H246 C252 0.930 . S
H247 C255 0.930 . S
H248 C256 0.930 . S
H249 C257 0.930 . S
H250 C260 0.930 . S
H251 C261 0.930 . S
C252 H246 0.930 . S
C252 C253 1.355 . S
C252 C254 1.415 . S
C253 C252 1.355 . S
C253 C255 1.419 . S
C254 C252 1.415 . S
C254 C259 1.425 . S
C254 C261 1.409 . S
C255 H247 0.930 . S
C255 C253 1.419 . S
C255 C256 1.362 . S
C256 H248 0.930 . S
C256 C255 1.362 . S
C256 C259 1.409 . S
C257 H249 0.930 . S
C257 C258 1.355 . S
C257 C259 1.415 . S
C258 C257 1.355 . S
C258 C260 1.419 . S
C259 C254 1.425 . S
C259 C256 1.409 . S
C259 C257 1.415 . S
C260 H250 0.930 . S
C260 C258 1.419 . S
C260 C261 1.362 . S
C261 H251 0.930 . S
C261 C254 1.409 . S
C261 C260 1.362 . S
H262 C268 0.930 . S
H263 C271 0.930 . S
H264 C272 0.930 . S
H265 C273 0.930 . S
H266 C276 0.930 . S
H267 C277 0.930 . S
C268 H262 0.930 . S
C268 C269 1.355 . S
C268 C270 1.415 . S
C269 C268 1.355 . S
C269 C271 1.419 . S
C270 C268 1.415 . S
C270 C275 1.425 . S
C270 C277 1.409 . S
C271 H263 0.930 . S
C271 C269 1.419 . S
C271 C272 1.362 . S
C272 H264 0.930 . S
C272 C271 1.362 . S
C272 C275 1.409 . S
C273 H265 0.930 . S
C273 C274 1.355 . S
C273 C275 1.415 . S
C274 C273 1.355 . S
C274 C276 1.419 . S
C275 C270 1.425 . S
C275 C272 1.409 . S
C275 C273 1.415 . S
C276 H266 0.930 . S
C276 C274 1.419 . S
C276 C277 1.362 . S
C277 H267 0.930 . S
C277 C270 1.409 . S
C277 C276 1.362 . S
C98 C51 1.441 . S
C93 C10 1.525 . S
C114 C47 1.373 . S
C109 C21 1.496 . S
C130 C72 1.398 . S
C125 C32 1.534 . S
C141 C43 1.484 . S
C146 C68 1.400 . S
C157 C5 1.257 1_556 S
C162 C69 1.099 . S
C178 C84 1.230 . S
C173 C15 1.328 1_556 S
C189 C4 1.688 . S
C194 C85 1.515 . S
C210 C81 1.633 . S
C205 C16 1.729 1_556 S
C226 C48 1.228 . S
C221 C27 1.319 . S
C237 C37 1.284 . S
C242 C63 1.092 . S
C258 C64 1.541 . S
C253 C26 1.695 . S
C274 C60 1.557 . S
C269 C38 1.698 . S
