# Generated by pormake.
# Topology eea, (3,6)-cn, num edge types: 1
# Building blocks:
#     Node 0, Type 0, BuildingBlock: QEWDON_clean_linker_0, # of connection points: 3
#     Node 1, Type 0, BuildingBlock: QEWDON_clean_linker_0, # of connection points: 3
#     Node 2, Type 0, BuildingBlock: QEWDON_clean_linker_0, # of connection points: 3
#     Node 3, Type 0, BuildingBlock: QEWDON_clean_linker_0, # of connection points: 3
#     Node 4, Type 0, BuildingBlock: QEWDON_clean_linker_0, # of connection points: 3
#     Node 5, Type 0, BuildingBlock: QEWDON_clean_linker_0, # of connection points: 3
#     Node 6, Type 0, BuildingBlock: QEWDON_clean_linker_0, # of connection points: 3
#     Node 7, Type 0, BuildingBlock: QEWDON_clean_linker_0, # of connection points: 3
#     Node 8, Type 0, BuildingBlock: QEWDON_clean_linker_0, # of connection points: 3
#     Node 9, Type 0, BuildingBlock: QEWDON_clean_linker_0, # of connection points: 3
#     Node 10, Type 0, BuildingBlock: QEWDON_clean_linker_0, # of connection points: 3
#     Node 11, Type 0, BuildingBlock: QEWDON_clean_linker_0, # of connection points: 3
#     Node 12, Type 0, BuildingBlock: QEWDON_clean_linker_0, # of connection points: 3
#     Node 13, Type 0, BuildingBlock: QEWDON_clean_linker_0, # of connection points: 3
#     Node 14, Type 0, BuildingBlock: QEWDON_clean_linker_0, # of connection points: 3
#     Node 15, Type 0, BuildingBlock: QEWDON_clean_linker_0, # of connection points: 3
#     Node 16, Type 0, BuildingBlock: QEWDON_clean_linker_0, # of connection points: 3
#     Node 17, Type 0, BuildingBlock: QEWDON_clean_linker_0, # of connection points: 3
#     Node 18, Type 1, BuildingBlock: KUMBOL_clean_sbu_0, # of connection points: 6
#     Node 19, Type 1, BuildingBlock: KUMBOL_clean_sbu_0, # of connection points: 6
#     Node 20, Type 1, BuildingBlock: KUMBOL_clean_sbu_0, # of connection points: 6
#     Node 21, Type 1, BuildingBlock: KUMBOL_clean_sbu_0, # of connection points: 6
#     Node 22, Type 1, BuildingBlock: KUMBOL_clean_sbu_0, # of connection points: 6
#     Node 23, Type 1, BuildingBlock: KUMBOL_clean_sbu_0, # of connection points: 6
#     Node 24, Type 1, BuildingBlock: KUMBOL_clean_sbu_0, # of connection points: 6
#     Node 25, Type 1, BuildingBlock: KUMBOL_clean_sbu_0, # of connection points: 6
#     Node 26, Type 1, BuildingBlock: KUMBOL_clean_sbu_0, # of connection points: 6
#     Edge 27, Type (0, 1), BuildingBlock: XIVTED_clean_linker_0, # of connection points: 2
#     Edge 28, Type (0, 1), BuildingBlock: XIVTED_clean_linker_0, # of connection points: 2
#     Edge 29, Type (0, 1), BuildingBlock: XIVTED_clean_linker_0, # of connection points: 2
#     Edge 30, Type (0, 1), BuildingBlock: XIVTED_clean_linker_0, # of connection points: 2
#     Edge 31, Type (0, 1), BuildingBlock: XIVTED_clean_linker_0, # of connection points: 2
#     Edge 32, Type (0, 1), BuildingBlock: XIVTED_clean_linker_0, # of connection points: 2
#     Edge 33, Type (0, 1), BuildingBlock: XIVTED_clean_linker_0, # of connection points: 2
#     Edge 34, Type (0, 1), BuildingBlock: XIVTED_clean_linker_0, # of connection points: 2
#     Edge 35, Type (0, 1), BuildingBlock: XIVTED_clean_linker_0, # of connection points: 2
#     Edge 36, Type (0, 1), BuildingBlock: XIVTED_clean_linker_0, # of connection points: 2
#     Edge 37, Type (0, 1), BuildingBlock: XIVTED_clean_linker_0, # of connection points: 2
#     Edge 38, Type (0, 1), BuildingBlock: XIVTED_clean_linker_0, # of connection points: 2
#     Edge 39, Type (0, 1), BuildingBlock: XIVTED_clean_linker_0, # of connection points: 2
#     Edge 40, Type (0, 1), BuildingBlock: XIVTED_clean_linker_0, # of connection points: 2
#     Edge 41, Type (0, 1), BuildingBlock: XIVTED_clean_linker_0, # of connection points: 2
#     Edge 42, Type (0, 1), BuildingBlock: XIVTED_clean_linker_0, # of connection points: 2
#     Edge 43, Type (0, 1), BuildingBlock: XIVTED_clean_linker_0, # of connection points: 2
#     Edge 44, Type (0, 1), BuildingBlock: XIVTED_clean_linker_0, # of connection points: 2
#     Edge 45, Type (0, 1), BuildingBlock: XIVTED_clean_linker_0, # of connection points: 2
#     Edge 46, Type (0, 1), BuildingBlock: XIVTED_clean_linker_0, # of connection points: 2
#     Edge 47, Type (0, 1), BuildingBlock: XIVTED_clean_linker_0, # of connection points: 2
#     Edge 48, Type (0, 1), BuildingBlock: XIVTED_clean_linker_0, # of connection points: 2
#     Edge 49, Type (0, 1), BuildingBlock: XIVTED_clean_linker_0, # of connection points: 2
#     Edge 50, Type (0, 1), BuildingBlock: XIVTED_clean_linker_0, # of connection points: 2
#     Edge 51, Type (0, 1), BuildingBlock: XIVTED_clean_linker_0, # of connection points: 2
#     Edge 52, Type (0, 1), BuildingBlock: XIVTED_clean_linker_0, # of connection points: 2
#     Edge 53, Type (0, 1), BuildingBlock: XIVTED_clean_linker_0, # of connection points: 2
#     Edge 54, Type (0, 1), BuildingBlock: XIVTED_clean_linker_0, # of connection points: 2
#     Edge 55, Type (0, 1), BuildingBlock: XIVTED_clean_linker_0, # of connection points: 2
#     Edge 56, Type (0, 1), BuildingBlock: XIVTED_clean_linker_0, # of connection points: 2
#     Edge 57, Type (0, 1), BuildingBlock: XIVTED_clean_linker_0, # of connection points: 2
#     Edge 58, Type (0, 1), BuildingBlock: XIVTED_clean_linker_0, # of connection points: 2
#     Edge 59, Type (0, 1), BuildingBlock: XIVTED_clean_linker_0, # of connection points: 2
#     Edge 60, Type (0, 1), BuildingBlock: XIVTED_clean_linker_0, # of connection points: 2
#     Edge 61, Type (0, 1), BuildingBlock: XIVTED_clean_linker_0, # of connection points: 2
#     Edge 62, Type (0, 1), BuildingBlock: XIVTED_clean_linker_0, # of connection points: 2
#     Edge 63, Type (0, 1), BuildingBlock: XIVTED_clean_linker_0, # of connection points: 2
#     Edge 64, Type (0, 1), BuildingBlock: XIVTED_clean_linker_0, # of connection points: 2
#     Edge 65, Type (0, 1), BuildingBlock: XIVTED_clean_linker_0, # of connection points: 2
#     Edge 66, Type (0, 1), BuildingBlock: XIVTED_clean_linker_0, # of connection points: 2
#     Edge 67, Type (0, 1), BuildingBlock: XIVTED_clean_linker_0, # of connection points: 2
#     Edge 68, Type (0, 1), BuildingBlock: XIVTED_clean_linker_0, # of connection points: 2
#     Edge 69, Type (0, 1), BuildingBlock: XIVTED_clean_linker_0, # of connection points: 2
#     Edge 70, Type (0, 1), BuildingBlock: XIVTED_clean_linker_0, # of connection points: 2
#     Edge 71, Type (0, 1), BuildingBlock: XIVTED_clean_linker_0, # of connection points: 2
#     Edge 72, Type (0, 1), BuildingBlock: XIVTED_clean_linker_0, # of connection points: 2
#     Edge 73, Type (0, 1), BuildingBlock: XIVTED_clean_linker_0, # of connection points: 2
#     Edge 74, Type (0, 1), BuildingBlock: XIVTED_clean_linker_0, # of connection points: 2
#     Edge 75, Type (0, 1), BuildingBlock: XIVTED_clean_linker_0, # of connection points: 2
#     Edge 76, Type (0, 1), BuildingBlock: XIVTED_clean_linker_0, # of connection points: 2
#     Edge 77, Type (0, 1), BuildingBlock: XIVTED_clean_linker_0, # of connection points: 2
#     Edge 78, Type (0, 1), BuildingBlock: XIVTED_clean_linker_0, # of connection points: 2
#     Edge 79, Type (0, 1), BuildingBlock: XIVTED_clean_linker_0, # of connection points: 2
#     Edge 80, Type (0, 1), BuildingBlock: XIVTED_clean_linker_0, # of connection points: 2
# Relax obj value: 0.044
# Max RMSD: 0.209
# Mean RMSD: 0.150
data_MOF--net-eea--node1-KUMBOL_clean_sbu_0--node2-QEWDON_clean_linker_0--edge1-XIVTED_clean_linker_0
_symmetry_space_group_name_H-M    P1
_symmetry_Int_Tables_number       1
_symmetry_cell_setting            triclinic
loop_
_symmetry_equiv_pos_as_xyz
'x, y, z'
_cell_length_a     58.155593
_cell_length_b     60.310864
_cell_length_c     62.672762
_cell_angle_alpha  90.083783
_cell_angle_beta   90.050451
_cell_angle_gamma 120.0366
loop_
_atom_site_label
_atom_site_type_symbol
_atom_site_fract_x
_atom_site_fract_y
_atom_site_fract_z
_atom_type_partial_charge
H0 H 0.20364 0.10843 0.43285 0.0
C1 C 0.20457 0.09301 0.42472 0.0
C2 C 0.21971 0.08304 0.43348 0.0
C3 C 0.18904 0.0818 0.40643 0.0
H4 H 0.23117 0.05435 0.43064 0.0
C5 C 0.21992 0.06231 0.42347 0.0
C6 C 0.20517 0.05134 0.40479 0.0
C7 C 0.18987 0.06135 0.39635 0.0
C8 C 0.16993 0.08956 0.39892 0.0
H9 H 0.1783 0.05309 0.38197 0.0
C10 C 0.17768 0.1155 0.39566 0.0
C11 C 0.15923 0.12219 0.38786 0.0
C12 C 0.14345 0.07057 0.39498 0.0
H13 H 0.1369 0.05053 0.3977 0.0
C14 C 0.12505 0.07719 0.38775 0.0
H15 H 0.19811 0.13026 0.39843 0.0
C16 C 0.13285 0.10278 0.38413 0.0
H17 H 0.11815 0.10742 0.37846 0.0
H18 H 0.10468 0.06243 0.38486 0.0
H19 H 0.8947 0.09164 0.4306 0.0
C20 C 0.90983 0.10906 0.42315 0.0
C21 C 0.91828 0.13273 0.43335 0.0
C22 C 0.92183 0.10767 0.40409 0.0
H23 H 0.9462 0.17332 0.43243 0.0
C24 C 0.93919 0.15515 0.42438 0.0
C25 C 0.95147 0.15423 0.40536 0.0
C26 C 0.94211 0.13053 0.39509 0.0
C27 C 0.91483 0.08243 0.3943 0.0
H28 H 0.95093 0.12991 0.38005 0.0
C29 C 0.88861 0.06129 0.39472 0.0
C30 C 0.88281 0.03751 0.38582 0.0
C31 C 0.93497 0.07924 0.38486 0.0
H32 H 0.95545 0.09458 0.38484 0.0
C33 C 0.92916 0.05606 0.37556 0.0
H34 H 0.87286 0.06323 0.40207 0.0
C35 C 0.90336 0.03542 0.37592 0.0
H36 H 0.89952 0.01773 0.36835 0.0
H37 H 0.94482 0.05402 0.36816 0.0
H38 H 0.91394 0.79 0.42855 0.0
C39 C 0.89699 0.78978 0.42116 0.0
C40 C 0.87158 0.77451 0.43006 0.0
C41 C 0.90051 0.80501 0.40302 0.0
H42 H 0.83049 0.76449 0.4286 0.0
C43 C 0.84977 0.77509 0.42103 0.0
C44 C 0.85262 0.79 0.40303 0.0
C45 C 0.87794 0.80447 0.3939 0.0
C46 C 0.92763 0.82263 0.39415 0.0
H47 H 0.87997 0.81537 0.37961 0.0
C48 C 0.94818 0.81641 0.3942 0.0
C49 C 0.9736 0.83371 0.38582 0.0
C50 C 0.93319 0.84645 0.38573 0.0
H51 H 0.91854 0.85252 0.38609 0.0
C52 C 0.95784 0.86312 0.37691 0.0
H53 H 0.94453 0.79837 0.40083 0.0
C54 C 0.97777 0.85679 0.37678 0.0
H55 H 0.99659 0.87015 0.36954 0.0
H56 H 0.9616 0.88117 0.37023 0.0
H57 H 0.12171 0.19915 0.61569 0.0
C58 C 0.1052 0.20008 0.62273 0.0
C59 C 0.09558 0.21481 0.61285 0.0
C60 C 0.09246 0.1851 0.64077 0.0
H61 H 0.06576 0.22605 0.61398 0.0
C62 C 0.07333 0.21488 0.6216 0.0
C63 C 0.06036 0.20024 0.63974 0.0
C64 C 0.07019 0.18551 0.64924 0.0
C65 C 0.10061 0.16704 0.64951 0.0
H66 H 0.06042 0.17423 0.66327 0.0
C67 C 0.12763 0.17429 0.65255 0.0
C68 C 0.13467 0.1565 0.66047 0.0
C69 C 0.08088 0.14179 0.65423 0.0
H70 H 0.06007 0.13546 0.65166 0.0
C71 C 0.0877 0.12414 0.66172 0.0
H72 H 0.14297 0.19378 0.6492 0.0
C73 C 0.11425 0.13131 0.66474 0.0
H74 H 0.11873 0.11684 0.67014 0.0
H75 H 0.07229 0.10467 0.66502 0.0
H76 H 0.80648 0.91396 0.61536 0.0
C77 C 0.8054 0.89701 0.62227 0.0
C78 C 0.78848 0.87289 0.61315 0.0
C79 C 0.82193 0.89954 0.63958 0.0
H80 H 0.77415 0.83244 0.61526 0.0
C81 C 0.78786 0.85112 0.62182 0.0
C82 C 0.80454 0.85319 0.63889 0.0
C83 C 0.82138 0.87753 0.64773 0.0
C84 C 0.84051 0.92523 0.64873 0.0
H85 H 0.83442 0.87947 0.66081 0.0
C86 C 0.83245 0.94351 0.65195 0.0
C87 C 0.84981 0.9673 0.66147 0.0
C88 C 0.86644 0.93149 0.6546 0.0
H89 H 0.8735 0.91817 0.65188 0.0
C90 C 0.88371 0.95514 0.66389 0.0
H91 H 0.81248 0.93898 0.64773 0.0
C92 C 0.87544 0.97288 0.66746 0.0
H93 H 0.88918 0.99113 0.67471 0.0
H94 H 0.9036 0.95971 0.66836 0.0
H95 H 0.09016 0.87469 0.61771 0.0
C96 C 0.10686 0.89125 0.62499 0.0
C97 C 0.13257 0.90001 0.6171 0.0
C98 C 0.1025 0.90437 0.64162 0.0
H99 H 0.17385 0.92841 0.62001 0.0
C100 C 0.15409 0.92185 0.62619 0.0
C101 C 0.15022 0.93591 0.64233 0.0
C102 C 0.12429 0.92671 0.65013 0.0
C103 C 0.07498 0.89618 0.64879 0.0
H104 H 0.12081 0.93736 0.66239 0.0
C105 C 0.05636 0.87019 0.65298 0.0
C106 C 0.03028 0.86284 0.65964 0.0
C107 C 0.0671 0.9146 0.65106 0.0
H108 H 0.08073 0.93458 0.64758 0.0
C109 C 0.04135 0.90743 0.65735 0.0
H110 H 0.06236 0.85591 0.65152 0.0
C111 C 0.02308 0.88185 0.66156 0.0
H112 H 0.0031 0.87693 0.66602 0.0
H113 H 0.03545 0.92178 0.65882 0.0
H114 H 0.87683 0.44768 0.77118 0.0
C115 C 0.87594 0.43087 0.76406 0.0
C116 C 0.8943 0.42344 0.77029 0.0
C117 C 0.8558 0.41619 0.74925 0.0
H118 H 0.90666 0.39552 0.76602 0.0
C119 C 0.89264 0.40139 0.76116 0.0
C120 C 0.87253 0.38627 0.74648 0.0
C121 C 0.85429 0.39397 0.74049 0.0
C122 C 0.8352 0.42302 0.74406 0.0
H123 H 0.83846 0.38233 0.7294 0.0
C124 C 0.84215 0.44845 0.73914 0.0
C125 C 0.82238 0.45452 0.73392 0.0
C126 C 0.80825 0.40392 0.7442 0.0
H127 H 0.80231 0.38433 0.7483 0.0
C128 C 0.78862 0.40996 0.73942 0.0
H129 H 0.86289 0.46325 0.73869 0.0
C130 C 0.79557 0.43501 0.73427 0.0
H131 H 0.77991 0.43918 0.73063 0.0
H132 H 0.76791 0.39514 0.7397 0.0
H133 H 0.56009 0.42573 0.76506 0.0
C134 C 0.576 0.44283 0.75778 0.0
C135 C 0.5845 0.46691 0.76719 0.0
C136 C 0.58916 0.4405 0.73987 0.0
H137 H 0.61282 0.50734 0.76551 0.0
C138 C 0.60602 0.48881 0.75815 0.0
C139 C 0.61929 0.48695 0.74009 0.0
C140 C 0.61053 0.46269 0.731 0.0
C141 C 0.58233 0.41483 0.73148 0.0
H142 H 0.62046 0.46101 0.717 0.0
C143 C 0.55572 0.39544 0.72793 0.0
C144 C 0.55002 0.37153 0.71941 0.0
C145 C 0.60291 0.40968 0.72706 0.0
H146 H 0.62346 0.42398 0.73003 0.0
C147 C 0.59728 0.38595 0.71905 0.0
H148 H 0.53967 0.3992 0.73109 0.0
C149 C 0.5711 0.36704 0.71519 0.0
H150 H 0.56731 0.34873 0.70898 0.0
H151 H 0.61329 0.38219 0.7158 0.0
H152 H 0.58206 0.12542 0.76397 0.0
C153 C 0.56565 0.12612 0.75644 0.0
C154 C 0.53971 0.11069 0.76427 0.0
C155 C 0.57062 0.14311 0.7394 0.0
H156 H 0.49893 0.10137 0.76138 0.0
C157 C 0.5187 0.1123 0.75472 0.0
C158 C 0.52302 0.12883 0.73752 0.0
C159 C 0.5491 0.14416 0.72995 0.0
C160 C 0.5984 0.16149 0.7327 0.0
H161 H 0.55272 0.15704 0.71671 0.0
C162 C 0.61754 0.15383 0.72951 0.0
C163 C 0.6438 0.1719 0.72331 0.0
C164 C 0.60599 0.1874 0.72997 0.0
H165 H 0.59197 0.19397 0.73269 0.0
C166 C 0.63187 0.20529 0.72425 0.0
H167 H 0.61183 0.13387 0.73135 0.0
C168 C 0.65062 0.19771 0.72101 0.0
H169 H 0.67067 0.2123 0.71697 0.0
H170 H 0.63751 0.22523 0.72246 0.0
H171 H 0.79024 0.53304 0.95119 0.0
C172 C 0.77356 0.53366 0.95824 0.0
C173 C 0.76378 0.5483 0.94848 0.0
C174 C 0.76083 0.51839 0.97614 0.0
H175 H 0.73354 0.55898 0.94955 0.0
C176 C 0.74126 0.54792 0.95715 0.0
C177 C 0.72825 0.53301 0.97518 0.0
C178 C 0.73834 0.51843 0.9846 0.0
C179 C 0.76923 0.50039 0.98466 0.0
H180 H 0.7286 0.50698 0.99856 0.0
C181 C 0.79633 0.50765 0.98727 0.0
C182 C 0.80357 0.48984 0.99482 0.0
C183 C 0.74963 0.47511 0.98945 0.0
H184 H 0.72876 0.46873 0.98718 0.0
C185 C 0.75662 0.45746 0.99659 0.0
H186 H 0.81161 0.52715 0.98385 0.0
C187 C 0.78323 0.46463 0.99917 0.0
H188 H 0.78783 0.45014 1.00429 0.0
H189 H 0.7413 0.43797 0.99995 0.0
H190 H 0.4756 0.24914 0.94667 0.0
C191 C 0.47436 0.23217 0.95371 0.0
C192 C 0.4576 0.20805 0.94451 0.0
C193 C 0.49057 0.23466 0.97125 0.0
H194 H 0.4431 0.1676 0.94675 0.0
C195 C 0.45673 0.18626 0.95338 0.0
C196 C 0.47309 0.18828 0.97067 0.0
C197 C 0.48982 0.21262 0.97957 0.0
C198 C 0.50913 0.26034 0.9804 0.0
H199 H 0.50265 0.21454 0.99282 0.0
C200 C 0.5011 0.27865 0.9836 0.0
C201 C 0.51847 0.3024 0.99318 0.0
C202 C 0.53505 0.26655 0.98628 0.0
H203 H 0.54206 0.25319 0.98358 0.0
C204 C 0.55234 0.29019 0.99558 0.0
H205 H 0.48114 0.27413 0.97937 0.0
C206 C 0.54409 0.30795 0.99916 0.0
H207 H 0.55784 0.32617 1.00645 0.0
H208 H 0.57221 0.29473 1.00006 0.0
H209 H 0.75965 0.20593 0.95093 0.0
C210 C 0.77574 0.22309 0.95805 0.0
C211 C 0.80193 0.23231 0.95102 0.0
C212 C 0.7701 0.23649 0.97364 0.0
H213 H 0.84271 0.26202 0.95466 0.0
C214 C 0.82256 0.25487 0.96011 0.0
C215 C 0.81743 0.26885 0.97547 0.0
C216 C 0.79108 0.25928 0.98229 0.0
C217 C 0.74211 0.22806 0.9795 0.0
H218 H 0.78669 0.26997 0.99389 0.0
C219 C 0.72355 0.20213 0.98391 0.0
C220 C 0.69706 0.19463 0.98936 0.0
C221 C 0.73375 0.24625 0.9803 0.0
H222 H 0.74735 0.26617 0.97659 0.0
C223 C 0.7076 0.23891 0.98538 0.0
H224 H 0.72989 0.18802 0.98358 0.0
C225 C 0.6894 0.21338 0.98984 0.0
H226 H 0.66911 0.2083 0.99336 0.0
H227 H 0.70135 0.25306 0.98573 0.0
H228 H 0.54613 0.78374 0.09987 0.0
C229 C 0.54698 0.7679 0.09247 0.0
C230 C 0.56617 0.76184 0.09925 0.0
C231 C 0.52817 0.75293 0.0769 0.0
H232 H 0.58165 0.73635 0.09541 0.0
C233 C 0.56682 0.74095 0.09003 0.0
C234 C 0.54771 0.72519 0.07488 0.0
C235 C 0.52862 0.73158 0.06824 0.0
C236 C 0.50681 0.75841 0.07087 0.0
H237 H 0.51354 0.71952 0.05678 0.0
C238 C 0.51258 0.78359 0.06632 0.0
C239 C 0.49216 0.78845 0.06033 0.0
C240 C 0.48034 0.73829 0.06983 0.0
H241 H 0.47526 0.71885 0.07362 0.0
C242 C 0.46004 0.74309 0.06424 0.0
H243 H 0.53296 0.79919 0.06679 0.0
C244 C 0.46585 0.76793 0.05948 0.0
H245 H 0.44967 0.77111 0.05525 0.0
H246 H 0.4397 0.72748 0.0636 0.0
H247 H 0.226 0.75941 0.09713 0.0
C248 C 0.2416 0.77667 0.08983 0.0
C249 C 0.24914 0.8006 0.09918 0.0
C250 C 0.25447 0.77494 0.07144 0.0
H251 H 0.27689 0.84118 0.09801 0.0
C252 C 0.27014 0.82291 0.09017 0.0
C253 C 0.28344 0.82163 0.07191 0.0
C254 C 0.27488 0.79766 0.06235 0.0
C255 C 0.24815 0.74952 0.06245 0.0
H256 H 0.28443 0.79672 0.04783 0.0
C257 C 0.22199 0.72827 0.06237 0.0
C258 C 0.21678 0.70436 0.05418 0.0
C259 C 0.26885 0.74632 0.05425 0.0
H260 H 0.28927 0.76179 0.05467 0.0
C261 C 0.26368 0.72299 0.04566 0.0
H262 H 0.20581 0.73024 0.06877 0.0
C263 C 0.23793 0.70224 0.0455 0.0
H264 H 0.23461 0.68446 0.03847 0.0
H265 H 0.27978 0.72094 0.03921 0.0
H266 H 0.25429 0.46208 0.09647 0.0
C267 C 0.23663 0.46093 0.08959 0.0
C268 C 0.21178 0.44382 0.09841 0.0
C269 C 0.2387 0.47675 0.07231 0.0
H270 H 0.16986 0.42925 0.09712 0.0
C271 C 0.18882 0.44277 0.09019 0.0
C272 C 0.1902 0.4595 0.07397 0.0
C273 C 0.21524 0.47583 0.06471 0.0
C274 C 0.26534 0.49527 0.06299 0.0
H275 H 0.21658 0.48828 0.05182 0.0
C276 C 0.28642 0.48978 0.06199 0.0
C277 C 0.31142 0.50772 0.0533 0.0
C278 C 0.26998 0.51907 0.05523 0.0
H279 H 0.25504 0.52469 0.05644 0.0
C280 C 0.29418 0.53635 0.04603 0.0
H281 H 0.28351 0.47178 0.06809 0.0
C282 C 0.31459 0.53072 0.04489 0.0
H283 H 0.333 0.54458 0.03739 0.0
H284 H 0.29721 0.55438 0.03986 0.0
H285 H 0.45514 0.86833 0.284 0.0
C286 C 0.43874 0.86933 0.29119 0.0
C287 C 0.42897 0.88394 0.28135 0.0
C288 C 0.42631 0.85457 0.30939 0.0
H289 H 0.39905 0.89504 0.28259 0.0
C290 C 0.4068 0.88404 0.29024 0.0
C291 C 0.39414 0.86962 0.30856 0.0
C292 C 0.40422 0.8551 0.31808 0.0
C293 C 0.43458 0.83659 0.31807 0.0
H294 H 0.39475 0.84403 0.33226 0.0
C295 C 0.46164 0.84381 0.32065 0.0
C296 C 0.46884 0.82607 0.3284 0.0
C297 C 0.41493 0.81143 0.32315 0.0
H298 H 0.39407 0.80511 0.32094 0.0
C299 C 0.42188 0.79383 0.33052 0.0
H300 H 0.47692 0.86324 0.31703 0.0
C301 C 0.44849 0.80096 0.33304 0.0
H302 H 0.45307 0.78651 0.33831 0.0
H303 H 0.40654 0.77442 0.33409 0.0
H304 H 0.13988 0.57999 0.27895 0.0
C305 C 0.13855 0.56331 0.28665 0.0
C306 C 0.11986 0.53865 0.27948 0.0
C307 C 0.15676 0.56664 0.3028 0.0
H308 H 0.10389 0.49823 0.28425 0.0
C309 C 0.11892 0.51725 0.28927 0.0
C310 C 0.13716 0.52016 0.30534 0.0
C311 C 0.15602 0.54504 0.31196 0.0
C312 C 0.17761 0.59271 0.30929 0.0
H313 H 0.1706 0.54776 0.32399 0.0
C314 C 0.1711 0.61166 0.31442 0.0
C315 C 0.19093 0.6361 0.32128 0.0
C316 C 0.20421 0.59863 0.31059 0.0
H317 H 0.20977 0.5845 0.30647 0.0
C318 C 0.22397 0.62295 0.31699 0.0
H319 H 0.15056 0.6071 0.31379 0.0
C320 C 0.21743 0.64155 0.32236 0.0
H321 H 0.23317 0.66031 0.32725 0.0
H322 H 0.24443 0.62738 0.31783 0.0
H323 H 0.42343 0.54178 0.28295 0.0
C324 C 0.43955 0.55882 0.29019 0.0
C325 C 0.46572 0.5682 0.28303 0.0
C326 C 0.43398 0.5719 0.30613 0.0
H327 H 0.50651 0.59786 0.2868 0.0
C328 C 0.48637 0.59059 0.29233 0.0
C329 C 0.48128 0.60423 0.30805 0.0
C330 C 0.45497 0.59452 0.31498 0.0
C331 C 0.40606 0.56334 0.31228 0.0
H332 H 0.45061 0.60496 0.32685 0.0
C333 C 0.38774 0.53741 0.3169 0.0
C334 C 0.3614 0.52984 0.3229 0.0
C335 C 0.39758 0.58142 0.31333 0.0
H336 H 0.41102 0.60135 0.30949 0.0
C337 C 0.37155 0.574 0.31892 0.0
H338 H 0.39418 0.52339 0.31637 0.0
C339 C 0.3536 0.54848 0.32365 0.0
H340 H 0.3334 0.54331 0.32763 0.0
H341 H 0.36521 0.58807 0.31949 0.0
Gd342 Gd 0.5084 0.00871 0.05172 0.0
Gd343 Gd 0.48732 0.9874 0.99575 0.0
C344 C 0.4069 0.91697 0.98128 0.0
C345 C 0.41971 0.88687 0.96785 0.0
C346 C 0.45345 0.92975 0.97864 0.0
C347 C 0.43393 0.93536 0.98424 0.0
C348 C 0.44661 0.90569 0.96984 0.0
C349 C 0.39988 0.89249 0.97359 0.0
C350 C 0.38779 0.92404 0.98544 0.0
C351 C 0.39591 0.94917 0.99155 0.0
N352 N 0.44144 0.95937 0.9912 0.0
C353 C 0.42298 0.9668 0.99406 0.0
H354 H 0.42895 0.98612 0.99885 0.0
C355 C 0.49914 0.94509 0.97258 0.0
N356 N 0.47923 0.94848 0.98055 0.0
C357 C 0.49335 0.9215 0.96383 0.0
C358 C 0.46699 0.9016 0.9627 0.0
H359 H 0.51953 0.96044 0.97353 0.0
H360 H 0.37921 0.87802 0.97144 0.0
H361 H 0.56501 0.00707 0.04544 0.0
H362 H 0.36681 0.91045 0.98345 0.0
H363 H 0.38132 0.95498 0.99439 0.0
H364 H 0.41403 0.86816 0.96134 0.0
H365 H 0.48005 0.03789 0.07632 0.0
H366 H 0.63048 0.08085 0.06105 0.0
H367 H 0.61318 0.03623 0.04886 0.0
H368 H 0.58836 0.12662 0.08676 0.0
H369 H 0.50921 0.91868 0.95798 0.0
H370 H 0.46256 0.88338 0.95583 0.0
H371 H 0.62103 0.11465 0.07485 0.0
H372 H 0.49323 0.07996 0.09275 0.0
N373 N 0.55483 0.03494 0.05512 0.0
C374 C 0.60924 0.0681 0.0596 0.0
C375 C 0.59955 0.04292 0.05276 0.0
C376 C 0.59137 0.0763 0.06507 0.0
C377 C 0.56393 0.05897 0.06277 0.0
C378 C 0.57213 0.0264 0.05087 0.0
N379 N 0.51951 0.04804 0.06788 0.0
C380 C 0.54565 0.06578 0.06931 0.0
C381 C 0.50818 0.07628 0.08611 0.0
C382 C 0.53495 0.09527 0.08666 0.0
C383 C 0.50079 0.0525 0.07687 0.0
C384 C 0.55413 0.09 0.07853 0.0
H385 H 0.54065 0.11365 0.09388 0.0
O386 O 0.48818 -0.00355 0.08228 0.0
O387 O 0.47661 0.98145 0.03012 0.0
O388 O 0.47562 0.01645 1.00643 0.0
O389 O 0.50241 0.03898 0.03563 0.0
O390 O 0.46448 0.99416 0.05591 0.0
O391 O 0.52007 0.98914 0.07458 0.0
O392 O 0.50846 0.00121 0.96575 0.0
O393 O 0.51845 0.01525 0.01738 0.0
O394 O 0.51804 0.97776 0.04129 0.0
O395 O 0.48974 0.95604 1.01277 0.0
O396 O 0.53185 0.00396 0.99172 0.0
O397 O 0.47328 0.00387 0.97177 0.0
C398 C 0.45639 0.97919 0.03954 0.0
C399 C 0.58143 0.10779 0.07996 0.0
C400 C 0.60003 0.10096 0.0732 0.0
C401 C 0.50359 0.98809 0.0892 0.0
C402 C 0.51467 -0.00362 0.11079 0.0
C403 C 0.53736 0.0204 0.11401 0.0
C404 C 0.50262 0.98014 0.12836 0.0
C405 C 0.51326 0.98781 0.14907 0.0
C406 C 0.54786 0.02822 0.13443 0.0
C407 C 0.53595 0.01211 0.15186 0.0
C408 C 0.48671 0.03664 0.01936 0.0
C409 C 0.53923 0.01911 1.00798 0.0
C410 C 0.49126 0.00682 0.95783 0.0
C411 C 0.48171 -0.00289 0.93611 0.0
C412 C 0.46244 0.97137 0.93299 0.0
C413 C 0.49221 0.01338 0.91831 0.0
C414 C 0.48352 0.00383 0.89747 0.0
C415 C 0.45413 0.96168 0.91251 0.0
C416 C 0.46465 0.97767 0.89488 0.0
C417 C 0.50529 0.95737 0.0287 0.0
H418 H 0.54703 0.03307 0.10076 0.0
H419 H 0.48527 0.96145 0.12581 0.0
H420 H 0.5653 0.04686 0.13677 0.0
H421 H 0.54437 0.01883 0.16757 0.0
H422 H 0.45383 0.95871 0.94633 0.0
H423 H 0.50675 0.0334 0.92076 0.0
H424 H 0.43947 0.94167 0.9103 0.0
H425 H 0.45804 0.96942 0.87916 0.0
Gd426 Gd 0.99433 0.49125 0.05153 0.0
Gd427 Gd 0.01986 0.49164 0.99729 0.0
C428 C 0.0944 0.48605 0.98666 0.0
C429 C 0.1259 0.52885 0.97413 0.0
C430 C 0.08062 0.51768 0.98278 0.0
C431 C 0.07487 0.49329 0.98853 0.0
C432 C 0.10603 0.53558 0.97511 0.0
C433 C 0.12009 0.50413 0.97989 0.0
C434 C 0.08733 0.46071 0.99119 0.0
C435 C 0.06117 0.44314 0.99679 0.0
N436 N 0.04977 0.47622 0.99484 0.0
C437 C 0.04245 0.45118 0.99829 0.0
H438 H 0.02233 0.43741 1.00269 0.0
C439 C 0.06465 0.54615 0.97578 0.0
N440 N 0.0609 0.52347 0.9837 0.0
C441 C 0.0896 0.56464 0.96823 0.0
C442 C 0.11048 0.55946 0.96812 0.0
H443 H 0.04853 0.55021 0.97593 0.0
H444 H 0.13543 0.49901 0.97859 0.0
H445 H 0.9928 0.54561 0.04337 0.0
H446 H 0.10178 0.45442 0.99004 0.0
H447 H 0.0554 0.42341 1.00002 0.0
H448 H 0.14563 0.54242 0.96846 0.0
H449 H 0.96579 0.4348 0.07626 0.0
H450 H 0.91491 0.53171 0.05799 0.0
H451 H 0.96084 0.56093 0.04582 0.0
H452 H 0.87086 0.44595 0.08511 0.0
H453 H 0.0927 0.58284 0.96247 0.0
H454 H 0.12975 0.57376 0.96215 0.0
H455 H 0.88134 0.48862 0.07244 0.0
H456 H 0.92252 0.40437 0.09245 0.0
N457 N 0.96518 0.5077 0.05345 0.0
C458 C 0.92888 0.52484 0.05694 0.0
C459 C 0.9548 0.54139 0.0501 0.0
C460 C 0.92153 0.49981 0.06291 0.0
C461 C 0.94044 0.49178 0.0611 0.0
C462 C 0.9729 0.53258 0.04874 0.0
N463 N 0.95375 0.46145 0.06722 0.0
C464 C 0.93453 0.46785 0.06819 0.0
C465 C 0.92558 0.4221 0.08559 0.0
C466 C 0.90512 0.42787 0.08578 0.0
C467 C 0.95004 0.43937 0.07645 0.0
C468 C 0.90958 0.45116 0.07733 0.0
H469 H 0.88622 0.41452 0.09295 0.0
O470 O 0.00673 0.48634 0.08308 0.0
O471 O 0.02456 0.48835 0.03209 0.0
O472 O 0.98972 0.45123 1.00794 0.0
O473 O 0.96407 0.45468 0.03511 0.0
O474 O 0.01072 0.46487 0.05831 0.0
O475 O 0.01266 0.52337 0.07345 0.0
O476 O 0.00743 0.49759 0.96619 0.0
O477 O 0.98896 0.49318 0.01675 0.0
O478 O 0.02511 0.53171 0.0404 0.0
O479 O 0.05086 0.52554 0.01528 0.0
O480 O 1.00187 0.51699 0.99082 0.0
O481 O 0.00539 0.46147 0.97339 0.0
C482 C 0.02716 0.47191 0.04261 0.0
C483 C 0.89024 0.45859 0.07832 0.0
C484 C 0.89622 0.48289 0.07113 0.0
C485 C 0.01396 0.50966 0.089 0.0
C486 C 0.00433 0.51252 0.10995 0.0
C487 C 0.98058 0.51306 0.11184 0.0
C488 C 0.01918 0.51483 0.12833 0.0
C489 C 0.01051 0.51776 0.14858 0.0
C490 C 0.97177 0.51582 0.13184 0.0
C491 C 0.98659 0.51817 0.15011 0.0
C492 C 0.96791 0.4416 0.01984 0.0
C493 C 0.98516 0.50891 1.00636 0.0
C494 C 0.00304 0.47561 0.95875 0.0
C495 C 0.01491 0.47652 0.9378 0.0
C496 C 0.04122 0.48184 0.93621 0.0
C497 C 1.0001 0.47297 0.91911 0.0
C498 C 0.01161 0.47507 0.89886 0.0
C499 C 0.0529 0.48429 0.91631 0.0
C500 C 0.03833 0.48113 0.89775 0.0
C501 C 0.04758 0.53976 0.02964 0.0
H502 H 0.96893 0.51151 0.09793 0.0
H503 H 0.03771 0.51475 0.12677 0.0
H504 H 0.95338 0.51614 0.13318 0.0
H505 H 0.97917 0.52003 0.16546 0.0
H506 H 0.0528 0.48418 0.95027 0.0
H507 H 0.97957 0.46826 0.92045 0.0
H508 H 0.07335 0.48873 0.91527 0.0
H509 H 0.04811 0.48357 0.88254 0.0
Gd510 Gd 0.50346 0.50724 0.99744 0.0
Gd511 Gd 0.52508 0.50503 0.05274 0.0
C512 C 0.60678 0.51298 0.06279 0.0
C513 C 0.59522 0.47115 0.07684 0.0
C514 C 0.56061 0.48102 0.068 0.0
C515 C 0.57954 0.50512 0.06126 0.0
C516 C 0.56826 0.46415 0.07673 0.0
C517 C 0.61447 0.49554 0.06983 0.0
C518 C 0.62545 0.53847 0.05818 0.0
C519 C 0.61678 0.55565 0.05327 0.0
N520 N 0.57138 0.52165 0.05514 0.0
C521 C 0.58954 0.54697 0.05213 0.0
H522 H 0.58324 0.56051 0.0482 0.0
C523 C 0.5162 0.45415 0.07885 0.0
N524 N 0.53489 0.4752 0.06815 0.0
C525 C 0.52274 0.43671 0.08768 0.0
C526 C 0.54878 0.44143 0.08616 0.0
H527 H 0.49599 0.45037 0.07985 0.0
H528 H 0.63528 0.5011 0.0708 0.0
H529 H 0.44565 0.45186 1.00259 0.0
H530 H 0.64656 0.54526 0.0591 0.0
H531 H 0.63105 0.57558 0.05025 0.0
H532 H 0.60147 0.45829 0.08318 0.0
H533 H 0.53358 0.56421 0.97347 0.0
H534 H 0.38209 0.46614 0.98935 0.0
H535 H 0.39775 0.43631 0.99955 0.0
H536 H 0.42706 0.55339 0.96581 0.0
H537 H 0.5077 0.41963 0.09556 0.0
H538 H 0.55385 0.42799 0.09311 0.0
H539 H 0.39323 0.51011 0.9772 0.0
H540 H 0.52187 0.59512 0.95821 0.0
N541 N 0.45726 0.49036 0.99458 0.0
C542 C 0.4032 0.4731 0.99062 0.0
C543 C 0.41197 0.45619 0.9963 0.0
C544 C 0.42181 0.49858 0.98589 0.0
C545 C 0.44905 0.50666 0.98785 0.0
C546 C 0.43922 0.46512 0.998 0.0
N547 N 0.49389 0.53737 0.98232 0.0
C548 C 0.468 0.53097 0.98149 0.0
C549 C 0.50654 0.57721 0.96481 0.0
C550 C 0.4801 0.57149 0.9649 0.0
C551 C 0.51309 0.55968 0.97339 0.0
C552 C 0.46037 0.54795 0.97297 0.0
H553 H 0.47505 0.58506 0.95819 0.0
O554 O 0.52324 0.51444 0.96668 0.0
O555 O 0.53513 0.5083 0.01811 0.0
O556 O 0.53685 0.54567 0.04263 0.0
O557 O 0.50943 0.5428 0.01421 0.0
O558 O 0.54743 0.5342 0.99328 0.0
O559 O 0.48958 0.47704 0.97371 0.0
O560 O 0.50467 0.49885 0.0831 0.0
O561 O 0.49388 0.5039 0.03184 0.0
O562 O 0.49257 0.46652 1.0066 0.0
O563 O 0.51673 0.4681 0.03717 0.0
O564 O 0.48049 0.47951 0.05737 0.0
O565 O 0.54015 0.53503 0.07684 0.0
C566 C 0.5554 0.52557 1.00868 0.0
C567 C 0.43332 0.54052 0.97208 0.0
C568 C 0.41406 0.51587 0.97856 0.0
C569 C 0.5065 0.49175 0.95929 0.0
C570 C 0.49563 0.49081 0.93788 0.0
C571 C 0.47314 0.49337 0.93519 0.0
C572 C 0.50776 0.48708 0.91992 0.0
C573 C 0.49742 0.48578 0.8993 0.0
C574 C 0.4629 0.4923 0.91484 0.0
C575 C 0.47489 0.48852 0.897 0.0
C576 C 0.52575 0.55551 0.03015 0.0
C577 C 0.47308 0.48779 0.04132 0.0
C578 C 0.52252 0.52077 0.09101 0.0
C579 C 0.53266 0.51975 0.11233 0.0
C580 C 0.55322 0.51417 0.11444 0.0
C581 C 0.52137 0.52372 0.13077 0.0
C582 C 0.53045 0.52188 0.15125 0.0
C583 C 0.56194 0.51179 0.13455 0.0
C584 C 0.55057 0.51542 0.15282 0.0
C585 C 0.5018 0.45607 0.02035 0.0
H586 H 0.4634 0.49606 0.94877 0.0
H587 H 0.52494 0.48478 0.92208 0.0
H588 H 0.44559 0.49439 0.91289 0.0
H589 H 0.4667 0.48804 0.88137 0.0
H590 H 0.56256 0.51161 0.10057 0.0
H591 H 0.5059 0.52861 0.12907 0.0
H592 H 0.57758 0.50711 0.13598 0.0
H593 H 0.55756 0.51308 0.16821 0.0
Gd594 Gd 0.17563 0.34184 0.38416 0.0
Gd595 Gd 0.15371 0.32185 0.32818 0.0
C596 C 0.07394 0.25183 0.31123 0.0
C597 C 0.08754 0.22354 0.29506 0.0
C598 C 0.12069 0.26565 0.30797 0.0
C599 C 0.10086 0.27028 0.31468 0.0
C600 C 0.1143 0.24246 0.29768 0.0
C601 C 0.06739 0.22821 0.30185 0.0
C602 C 0.05448 0.258 0.31665 0.0
C603 C 0.06214 0.28241 0.32447 0.0
N604 N 0.10792 0.29345 0.32338 0.0
C605 C 0.0891 0.30014 0.32741 0.0
H606 H 0.09465 0.31891 0.33346 0.0
C607 C 0.16657 0.28185 0.30226 0.0
N608 N 0.14631 0.28435 0.31069 0.0
C609 C 0.16125 0.25917 0.29196 0.0
C610 C 0.13501 0.23925 0.28987 0.0
H611 H 0.18688 0.29715 0.30395 0.0
H612 H 0.04682 0.21371 0.29925 0.0
H613 H 0.23188 0.33973 0.37699 0.0
H614 H 0.03359 0.24434 0.31431 0.0
H615 H 0.04728 0.2876 0.32827 0.0
H616 H 0.08222 0.20549 0.28737 0.0
H617 H 0.14801 0.37124 0.40958 0.0
H618 H 0.29794 0.41324 0.39236 0.0
H619 H 0.28014 0.36862 0.37996 0.0
H620 H 0.25681 0.45945 0.41918 0.0
H621 H 0.17737 0.25704 0.28568 0.0
H622 H 0.13094 0.22172 0.28186 0.0
H623 H 0.28904 0.44721 0.40662 0.0
H624 H 0.16179 0.41338 0.42616 0.0
N625 N 0.22212 0.36772 0.3872 0.0
C626 C 0.27666 0.4006 0.39113 0.0
C627 C 0.26668 0.37542 0.38418 0.0
C628 C 0.25902 0.40894 0.39699 0.0
C629 C 0.23151 0.39175 0.39498 0.0
C630 C 0.23921 0.35905 0.38254 0.0
N631 N 0.18726 0.38114 0.40064 0.0
C632 C 0.21347 0.39871 0.40187 0.0
C633 C 0.17652 0.40956 0.41928 0.0
C634 C 0.20336 0.4284 0.41961 0.0
C635 C 0.1688 0.38575 0.40996 0.0
C636 C 0.22228 0.42295 0.41117 0.0
H637 H 0.20932 0.44681 0.42689 0.0
O638 O 0.15582 0.32936 0.41486 0.0
O639 O 0.14362 0.31467 0.36264 0.0
O640 O 0.14091 0.34934 0.34059 0.0
O641 O 0.1693 0.37234 0.36878 0.0
O642 O 0.13175 0.3269 0.38897 0.0
O643 O 0.18767 0.3222 0.40663 0.0
O644 O 0.17362 0.33648 0.29776 0.0
O645 O 0.18522 0.34918 0.34984 0.0
O646 O 0.18482 0.31089 0.37274 0.0
O647 O 0.15671 0.29011 0.34379 0.0
O648 O 0.19815 0.33862 0.32348 0.0
O649 O 0.13997 0.34076 0.3065 0.0
C650 C 0.12353 0.31207 0.37251 0.0
C651 C 0.24964 0.44061 0.41233 0.0
C652 C 0.26798 0.43362 0.40521 0.0
C653 C 0.17131 0.32095 0.42145 0.0
C654 C 0.18251 0.32894 0.44305 0.0
C655 C 0.20532 0.35284 0.44638 0.0
C656 C 0.17037 0.31255 0.46052 0.0
C657 C 0.18104 0.31993 0.48126 0.0
C658 C 0.21586 0.36037 0.46683 0.0
C659 C 0.20387 0.3441 0.48416 0.0
C660 C 0.15253 0.36966 0.35328 0.0
C661 C 0.20583 0.35322 0.34005 0.0
C662 C 0.15666 0.34326 0.29148 0.0
C663 C 0.14551 0.33488 0.26989 0.0
C664 C 0.12032 0.31322 0.26704 0.0
C665 C 0.1602 0.34862 0.25191 0.0
C666 C 0.14972 0.3409 0.23115 0.0
C667 C 0.10987 0.30538 0.24661 0.0
C668 C 0.12434 0.3191 0.22881 0.0
C669 C 0.17242 0.29107 0.35948 0.0
H670 H 0.21503 0.36564 0.4332 0.0
H671 H 0.15292 0.29396 0.45788 0.0
H672 H 0.2334 0.37891 0.46927 0.0
H673 H 0.21232 0.35062 0.49989 0.0
H674 H 0.10856 0.30245 0.28055 0.0
H675 H 0.17977 0.36519 0.25415 0.0
H676 H 0.09034 0.28874 0.24458 0.0
H677 H 0.11532 0.31287 0.21321 0.0
Gd678 Gd 0.65929 0.82525 0.38579 0.0
Gd679 Gd 0.68359 0.82577 0.33098 0.0
C680 C 0.7575 0.82 0.31754 0.0
C681 C 0.7886 0.86283 0.30482 0.0
C682 C 0.74369 0.85169 0.31479 0.0
C683 C 0.73813 0.8273 0.32028 0.0
C684 C 0.76885 0.86963 0.30669 0.0
C685 C 0.78293 0.83805 0.31021 0.0
C686 C 0.75051 0.7946 0.32169 0.0
C687 C 0.72454 0.77704 0.32775 0.0
N688 N 0.71333 0.81031 0.32724 0.0
C689 C 0.706 0.78519 0.33021 0.0
H690 H 0.68603 0.77141 0.33495 0.0
C691 C 0.72778 0.88051 0.30946 0.0
N692 N 0.72414 0.85759 0.31669 0.0
C693 C 0.75247 0.89902 0.30149 0.0
C694 C 0.77319 0.89366 0.3003 0.0
H695 H 0.71182 0.88473 0.31048 0.0
H696 H 0.79815 0.83286 0.30822 0.0
H697 H 0.65797 0.8798 0.37839 0.0
H698 H 0.76483 0.78824 0.31983 0.0
H699 H 0.71879 0.75724 0.33063 0.0
H700 H 0.80813 0.8764 0.29879 0.0
H701 H 0.63093 0.76871 0.41036 0.0
H702 H 0.58025 0.866 0.39363 0.0
H703 H 0.62613 0.89524 0.38134 0.0
H704 H 0.53611 0.77991 0.42007 0.0
H705 H 0.7555 0.91738 0.29626 0.0
H706 H 0.79227 0.908 0.29404 0.0
H707 H 0.54661 0.82272 0.40776 0.0
H708 H 0.58773 0.73818 0.42663 0.0
N709 N 0.63034 0.84185 0.38836 0.0
C710 C 0.59417 0.85908 0.39238 0.0
C711 C 0.62006 0.87565 0.38547 0.0
C712 C 0.58679 0.83399 0.39814 0.0
C713 C 0.60564 0.82591 0.39608 0.0
C714 C 0.63809 0.86678 0.38383 0.0
N715 N 0.61888 0.79545 0.40171 0.0
C716 C 0.59971 0.8019 0.40294 0.0
C717 C 0.59077 0.75597 0.41992 0.0
C718 C 0.57034 0.76177 0.42034 0.0
C719 C 0.6152 0.77329 0.41075 0.0
C720 C 0.57479 0.78515 0.41209 0.0
H721 H 0.55146 0.74837 0.42751 0.0
O722 O 0.67244 0.82019 0.41697 0.0
O723 O 0.68873 0.82216 0.36557 0.0
O724 O 0.65395 0.78538 0.34193 0.0
O725 O 0.6287 0.78876 0.36948 0.0
O726 O 0.6759 0.79884 0.39193 0.0
O727 O 0.67798 0.85722 0.40784 0.0
O728 O 0.67208 0.83198 0.29954 0.0
O729 O 0.65347 0.82768 0.35114 0.0
O730 O 0.69014 0.86566 0.37456 0.0
O731 O 0.71523 0.85919 0.349 0.0
O732 O 0.66556 0.85119 0.32508 0.0
O733 O 0.66594 0.79451 0.30826 0.0
C734 C 0.69162 0.80571 0.37575 0.0
C735 C 0.55548 0.7926 0.41329 0.0
C736 C 0.56147 0.81698 0.4063 0.0
C737 C 0.67976 0.84345 0.4231 0.0
C738 C 0.67063 0.84612 0.44433 0.0
C739 C 0.6464 0.84556 0.4469 0.0
C740 C 0.68643 0.84927 0.46227 0.0
C741 C 0.67818 0.85189 0.4828 0.0
C742 C 0.63802 0.84805 0.46716 0.0
C743 C 0.65376 0.8512 0.48502 0.0
C744 C 0.63229 0.77575 0.354 0.0
C745 C 0.6494 0.84337 0.34098 0.0
C746 C 0.66522 0.80892 0.29303 0.0
C747 C 0.67556 0.80698 0.27211 0.0
C748 C 0.69802 0.80417 0.27046 0.0
C749 C 0.66246 0.80758 0.25351 0.0
C750 C 0.67126 0.80482 0.23325 0.0
C751 C 0.70718 0.80187 0.2505 0.0
C752 C 0.69387 0.80203 0.23201 0.0
C753 C 0.71239 0.87352 0.36353 0.0
H754 H 0.63401 0.84331 0.43331 0.0
H755 H 0.70532 0.85003 0.46017 0.0
H756 H 0.61924 0.84751 0.46904 0.0
H757 H 0.64663 0.85277 0.50059 0.0
H758 H 0.70833 0.80344 0.28452 0.0
H759 H 0.64534 0.81012 0.25492 0.0
H760 H 0.72442 0.79953 0.24936 0.0
H761 H 0.70095 0.7993 0.21681 0.0
Gd762 Gd 0.16579 0.83389 0.33053 0.0
Gd763 Gd 0.18962 0.8372 0.38599 0.0
C764 C 0.27075 0.84657 0.4014 0.0
C765 C 0.25869 0.80577 0.41798 0.0
C766 C 0.22439 0.81454 0.40564 0.0
C767 C 0.24359 0.83835 0.39846 0.0
C768 C 0.23168 0.79815 0.41585 0.0
C769 C 0.27819 0.82994 0.41075 0.0
C770 C 0.28958 0.87155 0.39547 0.0
C771 C 0.28109 0.88791 0.38762 0.0
N772 N 0.23569 0.85405 0.38974 0.0
C773 C 0.25392 0.87893 0.38518 0.0
H774 H 0.2477 0.89182 0.3791 0.0
C775 C 0.17888 0.78568 0.41221 0.0
N776 N 0.19851 0.80783 0.4034 0.0
C777 C 0.18511 0.76875 0.42243 0.0
C778 C 0.21161 0.77487 0.42406 0.0
H779 H 0.15836 0.78084 0.41089 0.0
H780 H 0.29896 0.83583 0.41295 0.0
H781 H 0.10989 0.7774 0.33803 0.0
H782 H 0.31064 0.87858 0.3974 0.0
H783 H 0.29546 0.90745 0.38342 0.0
H784 H 0.2647 0.79336 0.42561 0.0
H785 H 0.19261 0.88964 0.3046 0.0
H786 H 0.04334 0.78716 0.32485 0.0
H787 H 0.06151 0.75962 0.33596 0.0
H788 H 0.08362 0.8731 0.29841 0.0
H789 H 0.16948 0.75099 0.42902 0.0
H790 H 0.21639 0.76175 0.43203 0.0
H791 H 0.0518 0.8298 0.31125 0.0
H792 H 0.1783 0.91849 0.28897 0.0
N793 N 0.11927 0.81486 0.32844 0.0
C794 C 0.06465 0.79508 0.32565 0.0
C795 C 0.07483 0.77946 0.33186 0.0
C796 C 0.08211 0.82051 0.31987 0.0
C797 C 0.10967 0.82987 0.32126 0.0
C798 C 0.10235 0.78965 0.333 0.0
N799 N 0.15372 0.86182 0.31446 0.0
C800 C 0.12748 0.85415 0.31403 0.0
C801 C 0.16382 0.90051 0.29606 0.0
C802 C 0.137 0.89352 0.29654 0.0
C803 C 0.17184 0.88414 0.30483 0.0
C804 C 0.11838 0.86988 0.30525 0.0
H805 H 0.13081 0.90617 0.28966 0.0
O806 O 0.18498 0.83982 0.29965 0.0
O807 O 0.19879 0.83868 0.35141 0.0
O808 O 0.20095 0.87665 0.37303 0.0
O809 O 0.17075 0.86985 0.3457 0.0
O810 O 0.20948 0.86158 0.32474 0.0
O811 O 0.15226 0.80238 0.30805 0.0
O812 O 0.17143 0.83296 0.41717 0.0
O813 O 0.15705 0.83258 0.36494 0.0
O814 O 0.15732 0.79465 0.34255 0.0
O815 O 0.1869 0.80239 0.37062 0.0
O816 O 0.14531 0.81073 0.39183 0.0
O817 O 0.20325 0.87009 0.4069 0.0
C818 C 0.21847 0.85534 0.34108 0.0
C819 C 0.09101 0.86119 0.30486 0.0
C820 C 0.0729 0.83654 0.31218 0.0
C821 C 0.1685 0.81665 0.29307 0.0
C822 C 0.15695 0.81455 0.27174 0.0
C823 C 0.13296 0.81451 0.26924 0.0
C824 C 0.1704 0.81319 0.25361 0.0
C825 C 0.16007 0.812 0.23301 0.0
C826 C 0.12261 0.81331 0.24892 0.0
C827 C 0.13604 0.81211 0.2309 0.0
C828 C 0.18816 0.88452 0.36036 0.0
C829 C 0.1368 0.81687 0.37516 0.0
C830 C 0.18795 0.8566 0.42264 0.0
C831 C 0.20067 0.86044 0.44374 0.0
C832 C 0.22689 0.86541 0.44555 0.0
C833 C 0.18653 0.85927 0.46231 0.0
C834 C 0.19854 0.86331 0.48262 0.0
C835 C 0.23885 0.86923 0.46552 0.0
C836 C 0.22491 0.86833 0.48391 0.0
C837 C 0.17068 0.78755 0.3554 0.0
H838 H 0.12222 0.81539 0.28295 0.0
H839 H 0.18908 0.8135 0.25553 0.0
H840 H 0.10407 0.81327 0.24712 0.0
H841 H 0.12743 0.81092 0.21531 0.0
H842 H 0.23827 0.86661 0.43157 0.0
H843 H 0.16618 0.85514 0.46087 0.0
H844 H 0.25914 0.87323 0.46674 0.0
H845 H 0.23509 0.87214 0.4991 0.0
Gd846 Gd 0.84293 0.675 0.7189 0.0
Gd847 Gd 0.82236 0.65398 0.66284 0.0
C848 C 0.74221 0.58325 0.64821 0.0
C849 C 0.75535 0.5535 0.6345 0.0
C850 C 0.78885 0.5964 0.64545 0.0
C851 C 0.76919 0.60177 0.65118 0.0
C852 C 0.7822 0.57248 0.63648 0.0
C853 C 0.73539 0.55886 0.6404 0.0
C854 C 0.72296 0.59009 0.65247 0.0
C855 C 0.73088 0.61516 0.65865 0.0
N856 N 0.77653 0.62571 0.65823 0.0
C857 C 0.75792 0.63293 0.66115 0.0
H858 H 0.76373 0.6522 0.666 0.0
C859 C 0.83458 0.61218 0.63923 0.0
N860 N 0.81457 0.61528 0.64736 0.0
C861 C 0.82899 0.58872 0.63029 0.0
C862 C 0.80271 0.56866 0.62916 0.0
H863 H 0.85492 0.62763 0.64018 0.0
H864 H 0.71476 0.54429 0.63823 0.0
H865 H 0.89957 0.67335 0.7129 0.0
H866 H 0.70201 0.57639 0.65048 0.0
H867 H 0.71618 0.6208 0.66154 0.0
H868 H 0.74982 0.53488 0.62788 0.0
H869 H 0.81442 0.7041 0.74343 0.0
H870 H 0.96494 0.74721 0.72849 0.0
H871 H 0.94773 0.70256 0.71639 0.0
H872 H 0.92266 0.79292 0.75399 0.0
H873 H 0.84493 0.58612 0.6243 0.0
H874 H 0.79842 0.55055 0.62215 0.0
H875 H 0.9554 0.781 0.74215 0.0
H876 H 0.82752 0.74615 0.75985 0.0
N877 N 0.88932 0.7012 0.72249 0.0
C878 C 0.94371 0.73443 0.72703 0.0
C879 C 0.93406 0.70923 0.72025 0.0
C880 C 0.92581 0.7426 0.73243 0.0
C881 C 0.89838 0.72524 0.73012 0.0
C882 C 0.90666 0.69268 0.71831 0.0
N883 N 0.85392 0.71429 0.73508 0.0
C884 C 0.88005 0.73203 0.73657 0.0
C885 C 0.84249 0.74249 0.75325 0.0
C886 C 0.86926 0.7615 0.75384 0.0
C887 C 0.83515 0.71872 0.74402 0.0
C888 C 0.88849 0.75626 0.74576 0.0
H889 H 0.87492 0.77988 0.76104 0.0
O890 O 0.82232 0.6626 0.7493 0.0
O891 O 0.81142 0.64766 0.69715 0.0
O892 O 0.81026 0.6827 0.67359 0.0
O893 O 0.83692 0.70528 0.70281 0.0
O894 O 0.79893 0.66021 0.7228 0.0
O895 O 0.85459 0.6557 0.74203 0.0
O896 O 0.84369 0.66822 0.63295 0.0
O897 O 0.85329 0.68184 0.68462 0.0
O898 O 0.85254 0.64395 0.70872 0.0
O899 O 0.82506 0.62266 0.67964 0.0
O900 O 0.86691 0.67063 0.65903 0.0
O901 O 0.80825 0.67044 0.6389 0.0
C902 C 0.79106 0.64518 0.70646 0.0
C903 C 0.91577 0.77408 0.74721 0.0
C904 C 0.93441 0.76728 0.74051 0.0
C905 C 0.83778 0.65441 0.75643 0.0
C906 C 0.84839 0.6626 0.77816 0.0
C907 C 0.87081 0.68673 0.78167 0.0
C908 C 0.83611 0.64616 0.79557 0.0
C909 C 0.84623 0.65372 0.81644 0.0
C910 C 0.8808 0.69444 0.80225 0.0
C911 C 0.86866 0.67813 0.81952 0.0
C912 C 0.82118 0.70286 0.68655 0.0
C913 C 0.87414 0.68574 0.67531 0.0
C914 C 0.82637 0.67365 0.62501 0.0
C915 C 0.81695 0.66393 0.60327 0.0
C916 C 0.79778 0.63815 0.60015 0.0
C917 C 0.82744 0.68019 0.58545 0.0
C918 C 0.81881 0.67057 0.56462 0.0
C919 C 0.7896 0.62839 0.57968 0.0
C920 C 0.80011 0.64436 0.56204 0.0
C921 C 0.84017 0.62376 0.69585 0.0
H922 H 0.88065 0.69956 0.76854 0.0
H923 H 0.81898 0.62738 0.79278 0.0
H924 H 0.89804 0.71316 0.80482 0.0
H925 H 0.87667 0.68479 0.83535 0.0
H926 H 0.78914 0.62552 0.6135 0.0
H927 H 0.84189 0.70025 0.58788 0.0
H928 H 0.77504 0.60835 0.57748 0.0
H929 H 0.79358 0.63606 0.54632 0.0
Gd930 Gd 0.32751 0.15929 0.71777 0.0
Gd931 Gd 0.35048 0.15915 0.66268 0.0
C932 C 0.42505 0.15467 0.64862 0.0
C933 C 0.45464 0.19682 0.63386 0.0
C934 C 0.40999 0.18533 0.64495 0.0
C935 C 0.40533 0.16151 0.65135 0.0
C936 C 0.43444 0.20302 0.63561 0.0
C937 C 0.44997 0.17269 0.64038 0.0
C938 C 0.41881 0.12964 0.65349 0.0
C939 C 0.39311 0.11188 0.66003 0.0
N940 N 0.38085 0.1444 0.65883 0.0
C941 C 0.37416 0.11953 0.66232 0.0
H942 H 0.3544 0.10562 0.66745 0.0
C943 C 0.39231 0.21242 0.638 0.0
N944 N 0.38994 0.19058 0.64665 0.0
C945 C 0.41623 0.23062 0.62866 0.0
C946 C 0.43751 0.22606 0.62771 0.0
H947 H 0.37594 0.21606 0.63879 0.0
H948 H 0.46546 0.16788 0.63838 0.0
H949 H 0.32587 0.21368 0.71034 0.0
H950 H 0.43342 0.12364 0.65168 0.0
H951 H 0.38789 0.09231 0.66338 0.0
H952 H 0.47367 0.21026 0.62694 0.0
H953 H 0.29986 0.10317 0.74299 0.0
H954 H 0.24806 0.19951 0.72579 0.0
H955 H 0.29382 0.22889 0.71333 0.0
H956 H 0.2047 0.11377 0.75296 0.0
H957 H 0.41824 0.24815 0.62224 0.0
H958 H 0.45599 0.24015 0.6204 0.0
H959 H 0.21477 0.15633 0.7403 0.0
H960 H 0.25695 0.07271 0.75973 0.0
N961 N 0.29844 0.17574 0.72046 0.0
C962 C 0.26207 0.1927 0.72453 0.0
C963 C 0.28789 0.20935 0.71753 0.0
C964 C 0.25488 0.16769 0.73041 0.0
C965 C 0.27383 0.15975 0.72832 0.0
C966 C 0.30604 0.20062 0.71587 0.0
N967 N 0.28743 0.12957 0.73414 0.0
C968 C 0.26814 0.13587 0.73538 0.0
C969 C 0.25978 0.09034 0.75284 0.0
C970 C 0.23921 0.09596 0.75326 0.0
C971 C 0.28403 0.10762 0.74341 0.0
C972 C 0.24338 0.11915 0.74478 0.0
H973 H 0.22046 0.08259 0.76063 0.0
O974 O 0.34078 0.15446 0.74898 0.0
O975 O 0.357 0.15659 0.69724 0.0
O976 O 0.32155 0.11881 0.67432 0.0
O977 O 0.29664 0.12255 0.70191 0.0
O978 O 0.34443 0.13316 0.7236 0.0
O979 O 0.34636 0.19144 0.73961 0.0
O980 O 0.33457 0.1633 0.63258 0.0
O981 O 0.32054 0.16093 0.68324 0.0
O982 O 0.3582 0.19967 0.7064 0.0
O983 O 0.38225 0.19413 0.67918 0.0
O984 O 0.33258 0.18467 0.65724 0.0
O985 O 0.3347 0.12814 0.63953 0.0
C986 C 0.36012 0.14025 0.7074 0.0
C987 C 0.22395 0.12645 0.74599 0.0
C988 C 0.2297 0.15069 0.7388 0.0
C989 C 0.34816 0.17779 0.75497 0.0
C990 C 0.3391 0.1807 0.77615 0.0
C991 C 0.31474 0.17989 0.77868 0.0
C992 C 0.35514 0.18448 0.79408 0.0
C993 C 0.34698 0.18748 0.81453 0.0
C994 C 0.30643 0.18271 0.79887 0.0
C995 C 0.3224 0.18649 0.81671 0.0
C996 C 0.30005 0.10927 0.68656 0.0
C997 C 0.31651 0.17675 0.67321 0.0
C998 C 0.33015 0.14126 0.6253 0.0
C999 C 0.33971 0.14154 0.60355 0.0
C1000 C 0.36614 0.14812 0.59977 0.0
C1001 C 0.32237 0.13612 0.58625 0.0
C1002 C 0.33141 0.13753 0.56521 0.0
C1003 C 0.37527 0.14969 0.57894 0.0
C1004 C 0.35808 0.14455 0.56171 0.0
C1005 C 0.37973 0.20815 0.69425 0.0
H1006 H 0.30219 0.17721 0.76511 0.0
H1007 H 0.37414 0.18546 0.79202 0.0
H1008 H 0.28755 0.18195 0.8007 0.0
H1009 H 0.31533 0.18831 0.83223 0.0
H1010 H 0.3797 0.15208 0.61284 0.0
H1011 H 0.30196 0.13113 0.58916 0.0
H1012 H 0.39572 0.15484 0.57615 0.0
H1013 H 0.36548 0.14555 0.54568 0.0
Gd1014 Gd 0.83514 0.17221 0.66368 0.0
Gd1015 Gd 0.85733 0.17045 0.71902 0.0
C1016 C 0.94218 0.18542 0.72686 0.0
C1017 C 0.93462 0.14426 0.73954 0.0
C1018 C 0.89725 0.15064 0.73226 0.0
C1019 C 0.91447 0.1755 0.72598 0.0
C1020 C 0.90716 0.13509 0.74 0.0
C1021 C 0.95211 0.16939 0.73293 0.0
C1022 C 0.95907 0.21136 0.7224 0.0
C1023 C 0.94823 0.22694 0.71811 0.0
N1024 N 0.90417 0.19055 0.72058 0.0
C1025 C 0.92063 0.21626 0.7175 0.0
H1026 H 0.91279 0.22867 0.71401 0.0
C1027 C 0.8539 0.12073 0.74364 0.0
N1028 N 0.87095 0.14266 0.733 0.0
C1029 C 0.86268 0.10449 0.75138 0.0
C1030 C 0.88934 0.11142 0.74909 0.0
H1031 H 0.83324 0.11534 0.74535 0.0
H1032 H 0.97331 0.17655 0.73337 0.0
H1033 H 0.77729 0.11704 0.67021 0.0
H1034 H 0.98045 0.2197 0.72285 0.0
H1035 H 0.96111 0.24718 0.71512 0.0
H1036 H 0.94259 0.13245 0.74509 0.0
H1037 H 0.86528 0.22901 0.63946 0.0
H1038 H 0.71367 0.13036 0.65461 0.0
H1039 H 0.72943 0.10126 0.6668 0.0
H1040 H 0.75846 0.21679 0.62903 0.0
H1041 H 0.8489 0.08667 0.75909 0.0
H1042 H 0.89616 0.09893 0.75526 0.0
H1043 H 0.72469 0.17369 0.64086 0.0
H1044 H 0.8535 0.25939 0.62322 0.0
N1045 N 0.78889 0.15507 0.66054 0.0
C1046 C 0.73479 0.13744 0.65605 0.0
C1047 C 0.74362 0.12095 0.66289 0.0
C1048 C 0.75335 0.16268 0.6506 0.0
C1049 C 0.78062 0.17097 0.6529 0.0
C1050 C 0.77087 0.13002 0.66478 0.0
N1051 N 0.82547 0.20192 0.64781 0.0
C1052 C 0.79953 0.1952 0.64636 0.0
C1053 C 0.83813 0.24147 0.62978 0.0
C1054 C 0.8116 0.23542 0.62919 0.0
C1055 C 0.84473 0.22424 0.63892 0.0
C1056 C 0.79186 0.21186 0.63722 0.0
H1057 H 0.80652 0.24875 0.62204 0.0
O1058 O 0.85532 0.17897 0.63312 0.0
O1059 O 0.86695 0.17359 0.68436 0.0
O1060 O 0.8664 0.21053 0.70973 0.0
O1061 O 0.84095 0.20802 0.67989 0.0
O1062 O 0.87905 0.19947 0.65954 0.0
O1063 O 0.82158 0.14169 0.64026 0.0
O1064 O 0.83731 0.16165 0.74971 0.0
O1065 O 0.82589 0.16899 0.69821 0.0
O1066 O 0.82399 0.13153 0.67315 0.0
O1067 O 0.84866 0.13344 0.70345 0.0
O1068 O 0.81283 0.14481 0.72395 0.0
O1069 O 0.87077 0.19945 0.74392 0.0
C1070 C 0.88713 0.19092 0.67493 0.0
C1071 C 0.76477 0.20416 0.63579 0.0
C1072 C 0.74554 0.17961 0.6425 0.0
C1073 C 0.8387 0.15618 0.62586 0.0
C1074 C 0.82814 0.15491 0.60427 0.0
C1075 C 0.80551 0.15714 0.60114 0.0
C1076 C 0.84065 0.15115 0.58658 0.0
C1077 C 0.83053 0.14948 0.56581 0.0
C1078 C 0.79552 0.15575 0.58064 0.0
C1079 C 0.80788 0.15193 0.56308 0.0
C1080 C 0.85602 0.22041 0.69653 0.0
C1081 C 0.80524 0.15305 0.70798 0.0
C1082 C 0.8539 0.18385 0.75797 0.0
C1083 C 0.86476 0.18317 0.77905 0.0
C1084 C 0.88604 0.17858 0.78072 0.0
C1085 C 0.85339 0.1865 0.79771 0.0
C1086 C 0.86304 0.18493 0.81802 0.0
C1087 C 0.89538 0.17651 0.80066 0.0
C1088 C 0.8839 0.17946 0.81917 0.0
C1089 C 0.83336 0.12122 0.68687 0.0
H1090 H 0.79546 0.15981 0.6145 0.0
H1091 H 0.85794 0.14909 0.58906 0.0
H1092 H 0.7781 0.1576 0.57836 0.0
H1093 H 0.79985 0.15117 0.54732 0.0
H1094 H 0.89544 0.17655 0.76666 0.0
H1095 H 0.83738 0.19068 0.79632 0.0
H1096 H 0.91158 0.17258 0.80176 0.0
H1097 H 0.89138 0.17734 0.83441 0.0
H1098 H 0.29235 0.87095 0.06877 0.0
H1099 H 0.4435 0.9296 0.03121 0.0
H1100 H 0.32962 0.8257 0.05663 0.0
H1101 H 0.4095 0.97582 0.04993 0.0
H1102 H 0.40016 0.89111 0.03586 0.0
H1103 H 0.33337 0.90929 0.05785 0.0
C1104 C 0.30908 0.86902 0.06376 0.0
C1105 C 0.30744 0.84497 0.06374 0.0
C1106 C 0.40204 0.90966 0.03873 0.0
C1107 C 0.35448 0.88885 0.05103 0.0
C1108 C 0.42677 0.93166 0.03586 0.0
C1109 C 0.4299 0.95593 0.03974 0.0
C1110 C 0.38038 0.91191 0.04588 0.0
C1111 C 0.40775 0.95742 0.04652 0.0
C1112 C 0.33247 0.89092 0.05743 0.0
C1113 C 0.32972 0.84369 0.0567 0.0
N1114 N 0.38393 0.93573 0.04939 0.0
N1115 N 0.35228 0.86528 0.05077 0.0
H1116 H 0.14682 0.44923 0.09904 0.0
H1117 H 0.07893 0.50793 0.03275 0.0
H1118 H 0.17734 0.47368 0.0352 0.0
H1119 H 0.03087 0.43186 0.05799 0.0
H1120 H 0.11874 0.50413 0.03804 0.0
H1121 H 0.10728 0.45075 0.0892 0.0
C1122 C 0.14533 0.45453 0.08284 0.0
C1123 C 0.16578 0.46078 0.06788 0.0
C1124 C 0.09939 0.48818 0.04209 0.0
C1125 C 0.12057 0.46405 0.05709 0.0
C1126 C 0.07667 0.49024 0.03893 0.0
C1127 C 0.05143 0.46976 0.0441 0.0
C1128 C 0.0969 0.46599 0.05147 0.0
C1129 C 0.04988 0.44784 0.05328 0.0
C1130 C 0.12268 0.45567 0.07739 0.0
C1131 C 0.16258 0.46887 0.0475 0.0
N1132 N 0.0723 0.44661 0.05687 0.0
N1133 N 0.14056 0.47052 0.04278 0.0
H1134 H 0.55841 0.69244 0.09767 0.0
H1135 H 0.50411 0.58193 1.01107 0.0
H1136 H 0.53364 0.70231 0.03507 0.0
H1137 H 0.55859 0.58871 0.06094 0.0
H1138 H 0.51144 0.62426 0.02059 0.0
H1139 H 0.5554 0.65274 0.08561 0.0
C1140 C 0.55272 0.68657 0.08128 0.0
C1141 C 0.54652 0.70111 0.06735 0.0
C1142 C 0.52199 0.61656 0.02926 0.0
C1143 C 0.54216 0.65485 0.05367 0.0
C1144 C 0.51795 0.59241 0.02377 0.0
C1145 C 0.53099 0.58173 0.035 0.0
C1146 C 0.53877 0.62996 0.04643 0.0
C1147 C 0.54811 0.59608 0.05175 0.0
C1148 C 0.55082 0.6637 0.07447 0.0
C1149 C 0.53833 0.69173 0.04651 0.0
N1150 N 0.55132 0.61933 0.05705 0.0
N1151 N 0.53623 0.66913 0.04035 0.0
H1152 H 0.82482 0.29059 0.01572 0.0
H1153 H 0.96757 0.40915 0.98908 0.0
H1154 H 0.86033 0.30537 0.95303 0.0
H1155 H 0.91863 0.41366 0.03877 0.0
H1156 H 0.9311 0.36704 0.97925 0.0
H1157 H 0.86133 0.33222 0.02763 0.0
C1158 C 0.84014 0.30246 1.00442 0.0
C1159 C 0.83943 0.29409 0.98332 0.0
C1160 C 0.92841 0.3772 0.9924 0.0
C1161 C 0.88157 0.34147 0.99711 0.0
C1162 C 0.94929 0.40128 0.99811 0.0
C1163 C 0.94634 0.41513 0.0149 0.0
C1164 C 0.90436 0.36658 1.00363 0.0
C1165 C 0.92201 0.40368 0.0259 0.0
C1166 C 0.86103 0.32617 1.0113 0.0
C1167 C 0.86019 0.31039 0.96958 0.0
N1168 N 0.90195 0.38004 0.02011 0.0
N1169 N 0.88038 0.3331 0.97674 0.0
H1170 H 0.68243 0.49117 0.99016 0.0
H1171 H 0.60217 0.56691 0.99771 0.0
H1172 H 0.71729 0.57228 0.97886 0.0
H1173 H 0.56778 0.48743 0.01486 0.0
H1174 H 0.6449 0.56922 0.99199 0.0
H1175 H 0.64108 0.48944 1.00095 0.0
C1176 C 0.68157 0.50869 0.99017 0.0
C1177 C 0.70349 0.5319 0.98338 0.0
C1178 C 0.62815 0.5513 0.99721 0.0
C1179 C 0.65585 0.52991 0.99542 0.0
C1180 C 0.60376 0.55 1.00048 0.0
C1181 C 0.5816 0.52713 1.00721 0.0
C1182 C 0.63039 0.52936 1.00018 0.0
C1183 C 0.58456 0.50561 1.01017 0.0
C1184 C 0.65783 0.50763 0.99621 0.0
C1185 C 0.70088 0.55385 0.98352 0.0
N1186 N 0.6085 0.50722 1.00659 0.0
N1187 N 0.67755 0.55227 0.98929 0.0
H1188 H 0.4673 0.14693 0.94767 0.0
H1189 H 0.50713 0.0833 0.03977 0.0
H1190 H 0.48027 0.17673 1.01204 0.0
H1191 H 0.45693 0.03983 0.98692 0.0
H1192 H 0.50204 0.11967 0.02917 0.0
H1193 H 0.46821 0.10946 0.96081 0.0
C1194 C 0.47001 0.14557 0.96461 0.0
C1195 C 0.47347 0.16515 0.97873 0.0
C1196 C 0.49194 0.10202 0.0201 0.0
C1197 C 0.47544 0.12236 0.99376 0.0
C1198 C 0.49471 0.08118 0.02619 0.0
C1199 C 0.4823 0.05828 0.01437 0.0
C1200 C 0.47715 0.10015 1.00179 0.0
C1201 C 0.46692 0.057 0.99658 0.0
C1202 C 0.4707 0.12415 0.97207 0.0
C1203 C 0.47785 0.16242 1.00043 0.0
N1204 N 0.46503 0.07769 0.99073 0.0
N1205 N 0.47889 0.14151 1.00726 0.0
H1206 H 0.68967 0.15017 0.97014 0.0
H1207 H 0.54637 0.06602 0.0192 0.0
H1208 H 0.65856 0.17696 0.02017 0.0
H1209 H 0.5882 0.02997 0.99335 0.0
H1210 H 0.58666 0.10736 0.01692 0.0
H1211 H 0.65291 0.10637 0.97624 0.0
C1212 C 0.6754 0.14687 0.98257 0.0
C1213 C 0.67701 0.16747 0.99437 0.0
C1214 C 0.58723 0.09043 1.01195 0.0
C1215 C 0.63474 0.11756 1.00109 0.0
C1216 C 0.56414 0.06668 1.01339 0.0
C1217 C 0.56409 0.0443 1.00726 0.0
C1218 C 0.61041 0.09212 1.00357 0.0
C1219 C 0.58759 0.04673 0.99873 0.0
C1220 C 0.65437 0.12188 0.98597 0.0
C1221 C 0.65779 0.16192 1.01022 0.0
N1222 N 0.60986 0.07025 0.99708 0.0
N1223 N 0.63736 0.13765 1.0129 0.0
H1224 H 0.82416 0.4737 0.02666 0.0
H1225 H 0.97543 0.54575 0.99044 0.0
H1226 H 0.84811 0.52184 0.97072 0.0
H1227 H 0.93568 0.46979 0.01714 0.0
H1228 H 0.93213 0.54394 0.98787 0.0
H1229 H 0.86867 0.47963 0.02915 0.0
C1230 C 0.83872 0.48554 0.01484 0.0
C1231 C 0.83193 0.4967 0.99807 0.0
C1232 C 0.93306 0.52779 0.9944 0.0
C1233 C 0.88354 0.50416 1.00136 0.0
C1234 C 0.95767 0.52881 0.99591 0.0
C1235 C 0.95932 0.50826 1.00478 0.0
C1236 C 0.91006 0.50609 1.00188 0.0
C1237 C 0.93563 0.48649 1.01104 0.0
C1238 C 0.86421 0.48899 0.01639 0.0
C1239 C 0.85225 0.51273 0.98386 0.0
N1240 N 0.91211 0.48612 1.00975 0.0
N1241 N 0.87714 0.51591 0.98576 0.0
H1242 H 0.52016 0.32516 0.03102 0.0
H1243 H 0.49682 0.43331 0.98133 0.0
H1244 H 0.49819 0.32313 0.96505 0.0
H1245 H 0.49524 0.41909 0.04876 0.0
H1246 H 0.49587 0.39276 0.97439 0.0
H1247 H 0.5106 0.35965 0.03754 0.0
C1248 C 0.51311 0.33193 0.01795 0.0
C1249 C 0.51007 0.32146 0.99747 0.0
C1250 C 0.4955 0.39846 0.99072 0.0
C1251 C 0.49935 0.36117 1.00468 0.0
C1252 C 0.49594 0.42154 0.9947 0.0
C1253 C 0.49692 0.42998 0.01576 0.0
C1254 C 0.49613 0.38387 1.00794 0.0
C1255 C 0.49571 0.41396 0.03239 0.0
C1256 C 0.50756 0.35155 0.02166 0.0
C1257 C 0.50071 0.33074 0.98108 0.0
N1258 N 0.4957 0.39189 0.02817 0.0
N1259 N 0.49601 0.35036 0.98496 0.0
H1260 H 0.16807 0.70077 0.04624 0.0
H1261 H 0.09913 0.55412 0.02254 0.0
H1262 H 0.20349 0.65508 0.06315 0.0
H1263 H 0.04998 0.58274 0.04809 0.0
H1264 H 0.13838 0.59461 0.03113 0.0
H1265 H 0.12483 0.66107 0.04241 0.0
C1266 C 0.16676 0.68254 0.04944 0.0
C1267 C 0.18967 0.68129 0.05452 0.0
C1268 C 0.11903 0.59206 0.03491 0.0
C1269 C 0.14064 0.63616 0.04977 0.0
C1270 C 0.09651 0.56896 0.0299 0.0
C1271 C 0.07111 0.56493 0.03465 0.0
C1272 C 0.1164 0.6117 0.04443 0.0
C1273 C 0.0692 0.58503 0.04427 0.0
C1274 C 0.14212 0.65996 0.0472 0.0
C1275 C 0.18668 0.65706 0.05847 0.0
N1276 N 0.09163 0.60778 0.04871 0.0
N1277 N 0.16282 0.63554 0.05565 0.0
H1278 H 0.36396 0.543 0.05976 0.0
H1279 H 0.42294 0.44933 0.05115 0.0
H1280 H 0.31234 0.46246 0.04681 0.0
H1281 H 0.46703 0.52953 0.03532 0.0
H1282 H 0.38243 0.45257 0.05455 0.0
H1283 H 0.40221 0.53721 0.05622 0.0
C1284 C 0.36055 0.52405 0.05602 0.0
C1285 C 0.33464 0.50331 0.05309 0.0
C1286 C 0.40098 0.46935 0.05013 0.0
C1287 C 0.37893 0.49646 0.04964 0.0
C1288 C 0.42403 0.46753 0.04823 0.0
C1289 C 0.44824 0.48903 0.04234 0.0
C1290 C 0.40243 0.49307 0.0469 0.0
C1291 C 0.44875 0.5123 0.03921 0.0
C1292 C 0.38253 0.52078 0.0541 0.0
C1293 C 0.33181 0.47905 0.04918 0.0
N1294 N 0.42628 0.5137 0.04159 0.0
N1295 N 0.35368 0.47629 0.04754 0.0
H1296 H 0.47295 0.80198 0.02622 0.0
H1297 H 0.53767 0.95048 0.0573 0.0
H1298 H 0.52456 0.83442 0.08076 0.0
H1299 H 0.47574 0.91031 1.01059 0.0
H1300 H 0.53765 0.91026 0.06439 0.0
H1301 H 0.47896 0.8439 0.01795 0.0
C1302 C 0.48556 0.818 0.03649 0.0
C1303 C 0.49792 0.8146 0.0544 0.0
C1304 C 0.52431 0.9105 0.05245 0.0
C1305 C 0.50502 0.86302 0.045 0.0
C1306 C 0.52431 0.93341 0.04838 0.0
C1307 C 0.50698 0.93401 0.03304 0.0
C1308 C 0.50689 0.88818 0.04104 0.0
C1309 C 0.48995 0.9112 0.02214 0.0
C1310 C 0.48907 0.84201 0.03174 0.0
C1311 C 0.51462 0.83622 0.06682 0.0
N1312 N 0.49039 0.88941 0.02633 0.0
N1313 N 0.51752 0.85954 0.06201 0.0
H1314 H 0.96052 0.20366 0.40379 0.0
H1315 H 0.11 0.26282 0.36179 0.0
H1316 H 0.99674 0.15837 0.38794 0.0
H1317 H 0.07714 0.30853 0.38468 0.0
H1318 H 0.06662 0.22428 0.36638 0.0
H1319 H 1.00114 0.24212 0.3925 0.0
C1320 C 0.97695 0.20175 0.3979 0.0
C1321 C 0.97516 0.17766 0.39696 0.0
C1322 C 0.06878 0.24274 0.37019 0.0
C1323 C 0.02173 0.22169 0.38382 0.0
C1324 C 0.09351 0.26478 0.36738 0.0
C1325 C 0.09698 0.2889 0.37253 0.0
C1326 C 0.04749 0.24483 0.37852 0.0
C1327 C 0.07514 0.29025 0.38035 0.0
C1328 C 1.00011 0.22373 0.39135 0.0
C1329 C 0.997 0.17642 0.38877 0.0
N1330 N 0.05134 0.26854 0.38315 0.0
N1331 N 0.01937 0.19809 0.38265 0.0
H1332 H 0.80116 0.75076 0.39827 0.0
H1333 H 0.74332 0.84258 0.36786 0.0
H1334 H 0.85054 0.83227 0.38911 0.0
H1335 H 0.69457 0.76342 0.38564 0.0
H1336 H 0.78287 0.83828 0.37111 0.0
H1337 H 0.76218 0.75409 0.38905 0.0
C1338 C 0.80385 0.76937 0.39423 0.0
C1339 C 0.82923 0.79132 0.39474 0.0
C1340 C 0.76353 0.82176 0.3741 0.0
C1341 C 0.78448 0.79525 0.38406 0.0
C1342 C 0.74092 0.82417 0.37205 0.0
C1343 C 0.7156 0.80313 0.37592 0.0
C1344 C 0.76083 0.79819 0.38034 0.0
C1345 C 0.71373 0.77998 0.38218 0.0
C1346 C 0.78155 0.77124 0.38892 0.0
C1347 C 0.83145 0.81481 0.38887 0.0
N1348 N 0.73599 0.7781 0.38412 0.0
N1349 N 0.80937 0.81618 0.38395 0.0
H1350 H 0.24608 0.04107 0.40091 0.0
H1351 H 0.15684 0.90373 0.34683 0.0
H1352 H 0.16275 0.00921 0.38645 0.0
H1353 H 0.22914 0.92472 0.3815 0.0
H1354 H 0.1624 0.9458 0.35489 0.0
H1355 H 0.24347 0.0017 0.38778 0.0
C1356 C 0.22724 0.02588 0.39496 0.0
C1357 C 0.20454 0.02849 0.39502 0.0
C1358 C 0.17713 0.94123 0.36059 0.0
C1359 C 0.20163 0.98355 0.37956 0.0
C1360 C 0.17408 0.91728 0.3559 0.0
C1361 C 0.19252 0.91064 0.36357 0.0
C1362 C 0.1989 0.95877 0.37288 0.0
C1363 C 0.21434 0.92894 0.37539 0.0
C1364 C 0.22583 0.00346 0.38738 0.0
C1365 C 0.18086 0.00831 0.38656 0.0
N1366 N 0.21691 0.95217 0.37971 0.0
N1367 N 0.18002 0.98669 0.37925 0.0
H1368 H 0.48874 0.62502 0.34868 0.0
H1369 H 0.63187 0.74331 0.32322 0.0
H1370 H 0.52417 0.64122 0.28593 0.0
H1371 H 0.58293 0.74791 0.37287 0.0
H1372 H 0.59523 0.7015 0.31309 0.0
H1373 H 0.52535 0.66631 0.36112 0.0
C1374 C 0.50406 0.63714 0.33748 0.0
C1375 C 0.50331 0.62926 0.3162 0.0
C1376 C 0.59257 0.71161 0.32629 0.0
C1377 C 0.54555 0.67622 0.33058 0.0
C1378 C 0.61355 0.73552 0.33218 0.0
C1379 C 0.61064 0.74934 0.34901 0.0
C1380 C 0.56845 0.70108 0.33739 0.0
C1381 C 0.58625 0.73796 0.35995 0.0
C1382 C 0.525 0.66065 0.34466 0.0
C1383 C 0.52406 0.64585 0.3026 0.0
N1384 N 0.56608 0.71446 0.35397 0.0
N1385 N 0.54431 0.66835 0.31004 0.0
H1386 H 0.3833 0.90902 0.3118 0.0
H1387 H 0.23324 0.81989 0.35158 0.0
H1388 H 0.34873 0.82818 0.32437 0.0
H1389 H 0.26425 0.89676 0.32812 0.0
H1390 H 0.27712 0.82418 0.34678 0.0
H1391 H 0.34162 0.90636 0.32251 0.0
C1392 C 0.36699 0.89069 0.31682 0.0
C1393 C 0.3696 0.86875 0.31693 0.0
C1394 C 0.27441 0.84021 0.34287 0.0
C1395 C 0.32166 0.86564 0.3295 0.0
C1396 C 0.24941 0.83783 0.34579 0.0
C1397 C 0.24526 0.85819 0.34059 0.0
C1398 C 0.29536 0.86303 0.33449 0.0
C1399 C 0.26673 0.88073 0.33251 0.0
C1400 C 0.34319 0.88922 0.32304 0.0
C1401 C 0.34784 0.84568 0.32413 0.0
N1402 N 0.29081 0.88255 0.32973 0.0
N1403 N 0.3248 0.8447 0.32999 0.0
H1404 H 0.1493 0.51255 0.34643 0.0
H1405 H 0.11777 0.37011 0.32416 0.0
H1406 H 0.12604 0.47559 0.28474 0.0
H1407 H 0.17524 0.41765 0.37182 0.0
H1408 H 0.11241 0.40614 0.31402 0.0
H1409 H 0.15164 0.47561 0.3599 0.0
C1410 C 0.14469 0.4968 0.33567 0.0
C1411 C 0.13744 0.49737 0.31432 0.0
C1412 C 0.12605 0.40862 0.3268 0.0
C1413 C 0.13938 0.4548 0.32994 0.0
C1414 C 0.12913 0.38802 0.33269 0.0
C1415 C 0.14714 0.39079 0.34886 0.0
C1416 C 0.14083 0.43221 0.33724 0.0
C1417 C 0.16105 0.41455 0.35936 0.0
C1418 C 0.14591 0.47568 0.34346 0.0
C1419 C 0.13117 0.476 0.30139 0.0
N1420 N 0.15765 0.43442 0.35333 0.0
N1421 N 0.13221 0.45564 0.30942 0.0
H1422 H 0.32431 0.51234 0.3548 0.0
H1423 H 0.25449 0.36361 0.32536 0.0
H1424 H 0.35341 0.48535 0.30341 0.0
H1425 H 0.21352 0.40013 0.35199 0.0
H1426 H 0.29512 0.40592 0.32285 0.0
H1427 H 0.28822 0.46865 0.36049 0.0
C1428 C 0.32317 0.49724 0.3447 0.0
C1429 C 0.34165 0.50272 0.32824 0.0
C1430 C 0.27724 0.40449 0.32948 0.0
C1431 C 0.3004 0.45241 0.33496 0.0
C1432 C 0.25415 0.38045 0.33095 0.0
C1433 C 0.23082 0.37824 0.33958 0.0
C1434 C 0.27687 0.42637 0.33669 0.0
C1435 C 0.23119 0.40069 0.34602 0.0
C1436 C 0.30257 0.47227 0.34802 0.0
C1437 C 0.33959 0.48208 0.31621 0.0
N1438 N 0.25385 0.42372 0.34462 0.0
N1439 N 0.31917 0.45782 0.31969 0.0
H1440 H 0.51293 0.85787 0.30391 0.0
H1441 H 0.60036 0.8039 0.35209 0.0
H1442 H 0.48987 0.81013 0.36008 0.0
H1443 H 0.63893 0.87988 0.32543 0.0
H1444 H 0.55791 0.80263 0.35018 0.0
H1445 H 0.55803 0.86435 0.30745 0.0
C1446 C 0.5173 0.84899 0.3171 0.0
C1447 C 0.49721 0.83296 0.33145 0.0
C1448 C 0.57567 0.81969 0.34489 0.0
C1449 C 0.54855 0.83983 0.33517 0.0
C1450 C 0.60001 0.8205 0.34611 0.0
C1451 C 0.62345 0.84247 0.3398 0.0
C1452 C 0.57447 0.84066 0.33656 0.0
C1453 C 0.62138 0.86284 0.33101 0.0
C1454 C 0.54302 0.85262 0.31902 0.0
C1455 C 0.50425 0.82192 0.34816 0.0
N1456 N 0.59728 0.86149 0.32964 0.0
N1457 N 0.5291 0.82524 0.34935 0.0
H1458 H 0.20875 0.66705 0.35629 0.0
H1459 H 0.14052 0.74991 0.32587 0.0
H1460 H 0.15775 0.64999 0.30139 0.0
H1461 H 0.19852 0.76856 0.37593 0.0
H1462 H 0.14218 0.7107 0.31854 0.0
H1463 H 0.20056 0.7016 0.3658 0.0
C1464 C 0.19582 0.67063 0.3462 0.0
C1465 C 0.18424 0.65587 0.32784 0.0
C1466 C 0.15427 0.72332 0.33128 0.0
C1467 C 0.1746 0.69552 0.3387 0.0
C1468 C 0.15331 0.74568 0.33551 0.0
C1469 C 0.16926 0.7626 0.35167 0.0
C1470 C 0.17127 0.7179 0.34334 0.0
C1471 C 0.18554 0.75611 0.36354 0.0
C1472 C 0.19104 0.69033 0.35168 0.0
C1473 C 0.1671 0.66096 0.31567 0.0
N1474 N 0.18615 0.73443 0.35909 0.0
N1475 N 0.16297 0.68055 0.3212 0.0
H1476 H 0.83387 0.03421 0.38005 0.0
H1477 H 0.76364 0.88776 0.35502 0.0
H1478 H 0.86978 0.98815 0.39389 0.0
H1479 H 0.71567 0.91643 0.38293 0.0
H1480 H 0.80326 0.92806 0.36324 0.0
H1481 H 0.7904 0.99461 0.37691 0.0
C1482 C 0.83262 0.01591 0.38274 0.0
C1483 C 0.85569 0.01452 0.38673 0.0
C1484 C 0.78409 0.92556 0.36763 0.0
C1485 C 0.80641 0.96953 0.38277 0.0
C1486 C 0.76134 0.90256 0.36283 0.0
C1487 C 0.73617 0.8986 0.36835 0.0
C1488 C 0.78192 0.94517 0.37771 0.0
C1489 C 0.73471 0.91867 0.37851 0.0
C1490 C 0.80786 0.9934 0.38089 0.0
C1491 C 0.8528 0.99022 0.39007 0.0
N1492 N 0.75736 0.94132 0.38273 0.0
N1493 N 0.8288 0.96878 0.38765 0.0
H1494 H 0.97338 0.78796 0.3793 0.0
H1495 H 0.1302 0.85791 0.36765 0.0
H1496 H 0.0259 0.86786 0.39397 0.0
H1497 H 0.08686 0.77853 0.38617 0.0
H1498 H 0.08978 0.86017 0.37088 0.0
H1499 H 0.01242 0.7822 0.37696 0.0
C1500 C 0.99295 0.8042 0.38223 0.0
C1501 C 0.99626 0.82857 0.38644 0.0
C1502 C 0.08899 0.84217 0.37414 0.0
C1503 C 0.04082 0.82215 0.38334 0.0
C1504 C 0.11208 0.84078 0.37202 0.0
C1505 C 0.1118 0.81779 0.37603 0.0
C1506 C 0.06525 0.82044 0.38042 0.0
C1507 C 0.08777 0.79651 0.38261 0.0
C1508 C 0.01519 0.8009 0.38078 0.0
C1509 C 0.02224 0.84889 0.39001 0.0
N1510 N 0.06531 0.79822 0.3844 0.0
N1511 N 0.04338 0.84528 0.38812 0.0
H1512 H 0.18791 0.16558 0.41248 0.0
H1513 H 0.14684 0.24613 0.33749 0.0
H1514 H 0.14837 0.13994 0.3517 0.0
H1515 H 0.20205 0.28222 0.38953 0.0
H1516 H 0.14854 0.20756 0.34301 0.0
H1517 H 0.19523 0.20876 0.40493 0.0
C1518 C 0.18114 0.16914 0.39745 0.0
C1519 C 0.1671 0.1491 0.38284 0.0
C1520 C 0.16061 0.2239 0.35315 0.0
C1521 C 0.1752 0.19804 0.37421 0.0
C1522 C 0.1598 0.24623 0.34988 0.0
C1523 C 0.17472 0.26787 0.36276 0.0
C1524 C 0.17602 0.22262 0.3698 0.0
C1525 C 0.19034 0.2661 0.37909 0.0
C1526 C 0.18524 0.1937 0.39319 0.0
C1527 C 0.15875 0.15468 0.36362 0.0
N1528 N 0.19044 0.24374 0.38228 0.0
N1529 N 0.16272 0.17847 0.35998 0.0
H1530 H 0.62751 0.53578 0.73552 0.0
H1531 H 0.7789 0.59572 0.69824 0.0
H1532 H 0.6658 0.4911 0.7253 0.0
H1533 H 0.74385 0.64107 0.71683 0.0
H1534 H 0.73587 0.55684 0.70311 0.0
H1535 H 0.6682 0.57408 0.7242 0.0
C1536 C 0.64443 0.53398 0.73087 0.0
C1537 C 0.64319 0.51011 0.73157 0.0
C1538 C 0.73747 0.57529 0.7059 0.0
C1539 C 0.6899 0.55399 0.71835 0.0
C1540 C 0.76201 0.59751 0.70292 0.0
C1541 C 0.76476 0.62165 0.70672 0.0
C1542 C 0.71562 0.57721 0.71305 0.0
C1543 C 0.74241 0.62279 0.71349 0.0
C1544 C 0.66764 0.55587 0.7243 0.0
C1545 C 0.66565 0.50897 0.72488 0.0
N1546 N 0.71879 0.60091 0.71645 0.0
N1547 N 0.68808 0.53058 0.7187 0.0
H1548 H 0.52164 0.17198 0.72468 0.0
H1549 H 0.36331 0.09835 0.7176 0.0
H1550 H 0.47209 0.08994 0.72994 0.0
H1551 H 0.41188 0.17734 0.69917 0.0
H1552 H 0.40338 0.09511 0.72153 0.0
H1553 H 0.48252 0.17464 0.71399 0.0
C1554 C 0.50267 0.15448 0.72329 0.0
C1555 C 0.50021 0.13071 0.72852 0.0
C1556 C 0.40536 0.1131 0.71636 0.0
C1557 C 0.45519 0.13372 0.71666 0.0
C1558 C 0.38247 0.11492 0.71413 0.0
C1559 C 0.38427 0.13794 0.70762 0.0
C1560 C 0.43043 0.1347 0.71263 0.0
C1561 C 0.40959 0.15905 0.70373 0.0
C1562 C 0.48028 0.15605 0.71731 0.0
C1563 C 0.47495 0.10876 0.72658 0.0
N1564 N 0.43171 0.15697 0.7064 0.0
N1565 N 0.4535 0.11083 0.72104 0.0
H1566 H 0.88038 0.35145 0.76866 0.0
H1567 H 0.8348 0.24697 0.67673 0.0
H1568 H 0.85824 0.36478 0.70621 0.0
H1569 H 0.88563 0.25222 0.72913 0.0
H1570 H 0.83925 0.28787 0.68786 0.0
H1571 H 0.87782 0.31241 0.75535 0.0
C1572 C 0.87526 0.34638 0.75206 0.0
C1573 C 0.86998 0.36183 0.73847 0.0
C1574 C 0.8496 0.28011 0.69674 0.0
C1575 C 0.86629 0.31643 0.72325 0.0
C1576 C 0.8472 0.25681 0.69034 0.0
C1577 C 0.86 0.24608 0.70188 0.0
C1578 C 0.86449 0.29253 0.71502 0.0
C1579 C 0.87535 0.2596 0.71968 0.0
C1580 C 0.87366 0.32393 0.7445 0.0
C1581 C 0.86241 0.35351 0.71731 0.0
N1582 N 0.87698 0.28195 0.72577 0.0
N1583 N 0.86075 0.33134 0.71034 0.0
H1584 H 0.19255 0.97184 0.61895 0.0
H1585 H 0.25142 0.08147 0.70649 0.0
H1586 H 0.15974 0.95809 0.6826 0.0
H1587 H 0.29878 0.07643 0.65572 0.0
H1588 H 0.2154 0.03852 0.69704 0.0
H1589 H 0.22929 0.01253 0.63097 0.0
C1590 C 0.19312 0.97706 0.63555 0.0
C1591 C 0.17292 0.961 0.64979 0.0
C1592 C 0.23382 0.04681 0.68816 0.0
C1593 C 0.21492 0.00855 0.66347 0.0
C1594 C 0.25447 0.07131 0.69359 0.0
C1595 C 0.27841 0.08267 0.68205 0.0
C1596 C 0.23687 0.0338 0.67077 0.0
C1597 C 0.28082 0.06861 0.66515 0.0
C1598 C 0.21413 0.00053 0.64234 0.0
C1599 C 0.17458 0.96973 0.67091 0.0
N1600 N 0.26029 0.0451 0.65993 0.0
N1601 N 0.19511 0.99295 0.67708 0.0
H1602 H 0.0505 0.24012 0.64383 0.0
H1603 H 0.89887 0.15243 0.68098 0.0
H1604 H 0.01413 0.15874 0.65443 0.0
H1605 H 0.93409 0.23189 0.66345 0.0
H1606 H 0.94184 0.15489 0.67487 0.0
H1607 H 0.00911 0.23806 0.65452 0.0
C1608 C 0.03382 0.22179 0.64841 0.0
C1609 C 0.03586 0.19954 0.64799 0.0
C1610 C 0.94024 0.17185 0.67253 0.0
C1611 C 0.98817 0.19706 0.66045 0.0
C1612 C 0.91578 0.17048 0.67616 0.0
C1613 C 0.91317 0.19219 0.67321 0.0
C1614 C 0.96213 0.19501 0.66564 0.0
C1615 C 0.93542 0.21485 0.66624 0.0
C1616 C 0.01017 0.22064 0.6546 0.0
C1617 C 0.01364 0.17644 0.65459 0.0
N1618 N 0.95893 0.2157 0.66278 0.0
N1619 N 0.99072 0.17578 0.66041 0.0
H1620 H 0.79853 0.81185 0.61572 0.0
H1621 H 0.84121 0.74947 0.70698 0.0
H1622 H 0.81246 0.84176 0.68007 0.0
H1623 H 0.79087 0.7056 0.65433 0.0
H1624 H 0.83528 0.78543 0.69663 0.0
H1625 H 0.8002 0.77465 0.62859 0.0
C1626 C 0.80161 0.81056 0.6326 0.0
C1627 C 0.80516 0.83012 0.64679 0.0
C1628 C 0.82534 0.76778 0.68755 0.0
C1629 C 0.80799 0.78766 0.6615 0.0
C1630 C 0.8286 0.74717 0.69349 0.0
C1631 C 0.81638 0.72428 0.68166 0.0
C1632 C 0.81026 0.76568 0.66937 0.0
C1633 C 0.80073 0.72277 0.66399 0.0
C1634 C 0.80274 0.78931 0.6399 0.0
C1635 C 0.80998 0.82748 0.66841 0.0
N1636 N 0.79836 0.74324 0.65828 0.0
N1637 N 0.81144 0.80674 0.67507 0.0
H1638 H 0.99301 0.84459 0.6915 0.0
H1639 H 0.92306 0.69633 0.66099 0.0
H1640 H 0.02162 0.81868 0.63896 0.0
H1641 H 0.88149 0.73275 0.68663 0.0
H1642 H 0.9636 0.73874 0.65849 0.0
H1643 H 0.95662 0.80089 0.69645 0.0
C1644 C 0.99171 0.82975 0.68096 0.0
C1645 C 0.01018 0.83559 0.66442 0.0
C1646 C 0.94559 0.73726 0.66488 0.0
C1647 C 0.96861 0.78519 0.67038 0.0
C1648 C 0.92255 0.71316 0.66635 0.0
C1649 C 0.89907 0.71088 0.67472 0.0
C1650 C 0.94504 0.75912 0.67187 0.0
C1651 C 0.89925 0.73334 0.68087 0.0
C1652 C 0.97093 0.80477 0.68389 0.0
C1653 C 0.00786 0.81519 0.65187 0.0
N1654 N 0.92188 0.75642 0.67953 0.0
N1655 N 0.98732 0.79089 0.65501 0.0
H1656 H 0.15474 0.14042 0.6928 0.0
H1657 H 0.30646 0.21339 0.6576 0.0
H1658 H 0.17955 0.18855 0.63684 0.0
H1659 H 0.26729 0.13762 0.68469 0.0
H1660 H 0.26306 0.21127 0.65504 0.0
H1661 H 0.19938 0.14675 0.69607 0.0
C1662 C 0.16951 0.15233 0.68114 0.0
C1663 C 0.16296 0.1634 0.66414 0.0
C1664 C 0.26414 0.19525 0.66169 0.0
C1665 C 0.21463 0.17127 0.66829 0.0
C1666 C 0.2888 0.19645 0.66321 0.0
C1667 C 0.29063 0.17601 0.6721 0.0
C1668 C 0.24123 0.17348 0.6692 0.0
C1669 C 0.26707 0.15422 0.67854 0.0
C1670 C 0.19506 0.15599 0.68312 0.0
C1671 C 0.1835 0.17952 0.65015 0.0
N1672 N 0.24345 0.15366 0.67723 0.0
N1673 N 0.20841 0.18289 0.65246 0.0
H1674 H 0.85172 0.99063 0.6991 0.0
H1675 H 0.82901 0.09833 0.64809 0.0
H1676 H 0.82929 0.98752 0.63312 0.0
H1677 H 0.82547 0.08412 0.71566 0.0
H1678 H 0.8279 0.05764 0.64162 0.0
H1679 H 0.84203 0.02512 0.70521 0.0
C1680 C 0.84454 -0.00284 0.68594 0.0
C1681 C 0.84141 0.98639 0.66558 0.0
C1682 C 0.82714 0.06337 0.65787 0.0
C1683 C 0.83053 0.02606 0.67233 0.0
C1684 C 0.82767 0.08652 0.66157 0.0
C1685 C 0.8282 0.09501 0.68253 0.0
C1686 C 0.82727 0.04876 0.67528 0.0
C1687 C 0.82639 0.07895 0.69936 0.0
C1688 C 0.83891 0.01676 0.68942 0.0
C1689 C 0.83188 -0.00464 0.64907 0.0
N1690 N 0.82635 0.05681 0.6954 0.0
N1691 N 0.82712 0.01497 0.65272 0.0
H1692 H 0.53246 0.34383 0.6828 0.0
H1693 H 0.38467 0.24596 0.72236 0.0
H1694 H 0.50489 0.3526 0.74437 0.0
H1695 H 0.4281 0.22981 0.6749 0.0
H1696 H 0.42436 0.28845 0.72792 0.0
H1697 H 0.48933 0.30613 0.67614 0.0
C1698 C 0.5172 0.33786 0.69489 0.0
C1699 C 0.52244 0.35108 0.71433 0.0
C1700 C 0.42489 0.27556 0.71615 0.0
C1701 C 0.47278 0.30767 0.70684 0.0
C1702 C 0.4023 0.25135 0.71294 0.0
C1703 C 0.40274 0.23429 0.69782 0.0
C1704 C 0.44786 0.28274 0.70398 0.0
C1705 C 0.4263 0.2423 0.68629 0.0
C1706 C 0.49256 0.3163 0.6911 0.0
C1707 C 0.50167 0.34284 0.72921 0.0
N1708 N 0.44769 0.26582 0.68955 0.0
N1709 N 0.47775 0.32141 0.72528 0.0
H1710 H 0.65309 0.13704 0.745 0.0
H1711 H 0.79723 0.19269 0.69704 0.0
H1712 H 0.68211 0.19008 0.69227 0.0
H1713 H 0.75659 0.11631 0.72286 0.0
H1714 H 0.75632 0.19419 0.69915 0.0
H1715 H 0.69105 0.13007 0.74035 0.0
C1716 C 0.66715 0.14697 0.73231 0.0
C1717 C 0.66456 0.16461 0.71931 0.0
C1718 C 0.75619 0.17696 0.70418 0.0
C1719 C 0.70824 0.15711 0.71428 0.0
C1720 C 0.77962 0.17603 0.70284 0.0
C1721 C 0.78017 0.15394 0.70892 0.0
C1722 C 0.73315 0.15597 0.71241 0.0
C1723 C 0.75684 0.13348 0.71747 0.0
C1724 C 0.68887 0.14306 0.72975 0.0
C1725 C 0.68359 0.17695 0.70317 0.0
N1726 N 0.73422 0.13495 0.71899 0.0
N1727 N 0.70469 0.17324 0.70133 0.0
H1728 H 0.85761 0.5007 0.75282 0.0
H1729 H 0.81205 0.57741 0.67631 0.0
H1730 H 0.80289 0.46817 0.70011 0.0
H1731 H 0.86982 0.61551 0.72635 0.0
H1732 H 0.81151 0.53816 0.68411 0.0
H1733 H 0.86533 0.54341 0.74285 0.0
C1734 C 0.84745 0.50259 0.73905 0.0
C1735 C 0.82929 0.48082 0.72743 0.0
C1736 C 0.82456 0.55504 0.69336 0.0
C1737 C 0.83795 0.52934 0.71603 0.0
C1738 C 0.8251 0.57778 0.68873 0.0
C1739 C 0.84136 0.60018 0.70038 0.0
C1740 C 0.84008 0.55419 0.71012 0.0
C1741 C 0.85707 0.59879 0.71683 0.0
C1742 C 0.85179 0.5269 0.73344 0.0
C1743 C 0.81664 0.4843 0.70978 0.0
N1744 N 0.85594 0.5761 0.72131 0.0
N1745 N 0.82112 0.50798 0.70473 0.0
H1746 H 0.40366 0.88773 0.24569 0.0
H1747 H 0.53819 0.97942 0.18268 0.0
H1748 H 0.4819 0.9124 0.27095 0.0
H1749 H 0.46015 0.95738 0.15838 0.0
H1750 H 0.51783 0.95351 0.2144 0.0
H1751 H 0.42385 0.91178 0.2131 0.0
C1752 C 0.42511 0.89834 0.24446 0.0
C1753 C 0.4411 0.89819 0.26124 0.0
C1754 C 0.50512 0.95427 0.20212 0.0
C1755 C 0.46439 0.92555 0.22368 0.0
C1756 C 0.51675 0.96917 0.18402 0.0
C1757 C 0.5009 0.9708 0.16785 0.0
C1758 C 0.47736 0.9408 0.2042 0.0
C1759 C 0.47318 0.9566 0.17032 0.0
C1760 C 0.43663 0.91194 0.22575 0.0
C1761 C 0.46877 0.91182 0.25844 0.0
N1762 N 0.46232 0.94232 0.18818 0.0
N1763 N 0.47952 0.92499 0.24008 0.0
H1764 H 0.09323 0.56445 0.27015 0.0
H1765 H 0.03613 0.49144 0.15887 0.0
H1766 H 0.10744 0.50529 0.24606 0.0
H1767 H 0.02094 0.55009 0.18267 0.0
H1768 H 0.0622 0.49624 0.19088 0.0
H1769 H 0.06636 0.55937 0.23845 0.0
C1770 C 0.09069 0.55039 0.25821 0.0
C1771 C 0.10254 0.53521 0.26083 0.0
C1772 C 0.05315 0.50806 0.18913 0.0
C1773 C 0.07178 0.52924 0.22454 0.0
C1774 C 0.03839 0.50543 0.17077 0.0
C1775 C 0.02634 0.5204 0.16803 0.0
C1776 C 0.05599 0.52583 0.20491 0.0
C1777 C 0.02961 0.53792 0.1842 0.0
C1778 C 0.07528 0.54744 0.24015 0.0
C1779 C 0.09836 0.51713 0.24492 0.0
N1780 N 0.04415 0.54019 0.20192 0.0
N1781 N 0.08341 0.51471 0.22747 0.0
H1782 H 0.43774 0.54953 0.24555 0.0
H1783 H 0.55728 0.54571 0.1879 0.0
H1784 H 0.50773 0.55994 0.27843 0.0
H1785 H 0.4789 0.51029 0.15983 0.0
H1786 H 0.5395 0.55302 0.2205 0.0
H1787 H 0.45184 0.53591 0.21366 0.0
C1788 C 0.45581 0.54852 0.24622 0.0
C1789 C 0.47173 0.5562 0.26468 0.0
C1790 C 0.52611 0.54349 0.20728 0.0
C1791 C 0.48825 0.54126 0.22808 0.0
C1792 C 0.53624 0.53918 0.1886 0.0
C1793 C 0.51957 0.52705 0.17101 0.0
C1794 C 0.4991 0.53603 0.20848 0.0
C1795 C 0.49261 0.51989 0.17284 0.0
C1796 C 0.46393 0.54093 0.22795 0.0
C1797 C 0.4951 0.55476 0.26447 0.0
N1798 N 0.48322 0.52456 0.19122 0.0
N1799 N 0.50277 0.54777 0.24642 0.0
H1800 H 0.88673 0.44249 0.80784 0.0
H1801 H 0.01424 0.45205 0.86187 0.0
H1802 H 0.94625 0.43501 0.77258 0.0
H1803 H 0.97269 0.48733 0.89027 0.0
H1804 H 0.98829 0.44438 0.82949 0.0
H1805 H 0.91695 0.45862 0.83843 0.0
C1806 C 0.90633 0.44471 0.80635 0.0
C1807 C 0.91382 0.43706 0.78766 0.0
C1808 C 0.98499 0.454 0.84274 0.0
C1809 C 0.94814 0.45485 0.82279 0.0
C1810 C 0.99991 0.45851 0.86128 0.0
C1811 C 0.99583 0.4705 0.87894 0.0
C1812 C 0.96543 0.46109 0.84183 0.0
C1813 C 0.97632 0.47769 0.87725 0.0
C1814 C 0.92348 0.45375 0.82388 0.0
C1815 C 0.93937 0.44009 0.78681 0.0
N1816 N 0.96171 0.47271 0.85907 0.0
N1817 N 0.95544 0.44841 0.8042 0.0
H1818 H 0.60885 0.49582 0.80272 0.0
H1819 H 0.47297 0.45507 0.8646 0.0
H1820 H 0.5314 0.44282 0.77719 0.0
H1821 H 0.55059 0.5071 0.89039 0.0
H1822 H 0.49395 0.44984 0.83273 0.0
H1823 H 0.58784 0.49976 0.83509 0.0
C1824 C 0.58738 0.48513 0.80386 0.0
C1825 C 0.57185 0.46912 0.7871 0.0
C1826 C 0.50641 0.46235 0.84537 0.0
C1827 C 0.54763 0.4733 0.82435 0.0
C1828 C 0.49444 0.46547 0.86355 0.0
C1829 C 0.51002 0.48167 0.8802 0.0
C1830 C 0.53423 0.47558 0.84373 0.0
C1831 C 0.53777 0.49425 0.87807 0.0
C1832 C 0.57541 0.48725 0.82243 0.0
C1833 C 0.54416 0.45528 0.78972 0.0
N1834 N 0.54896 0.49102 0.86015 0.0
N1835 N 0.53294 0.45776 0.80795 0.0
H1836 H 0.49823 0.06205 0.76983 0.0
H1837 H 0.53424 0.04393 0.8893 0.0
H1838 H 0.56825 0.12061 0.80176 0.0
H1839 H 0.45559 0.00255 0.86185 0.0
H1840 H 0.54993 0.06973 0.85662 0.0
H1841 H 0.48579 0.03651 0.80229 0.0
C1842 C 0.51107 0.06952 0.78367 0.0
C1843 C 0.53413 0.09372 0.78312 0.0
C1844 C 0.52926 0.05495 0.85784 0.0
C1845 C 0.52002 0.06435 0.82048 0.0
C1846 C 0.52023 0.04032 0.87653 0.0
C1847 C 0.49356 0.02075 0.87834 0.0
C1848 C 0.51156 0.04982 0.84081 0.0
C1849 C 0.47645 0.01688 0.86111 0.0
C1850 C 0.50394 0.05491 0.80222 0.0
C1851 C 0.55033 0.10206 0.80143 0.0
N1852 N 0.48575 0.03112 0.84312 0.0
N1853 N 0.54288 0.08746 0.81944 0.0
H1854 H 0.07066 0.219 0.57711 0.0
H1855 H 0.20571 0.31106 0.51484 0.0
H1856 H 0.14865 0.24324 0.60271 0.0
H1857 H 0.12786 0.2896 0.49043 0.0
H1858 H 0.1851 0.28487 0.54638 0.0
H1859 H 0.09115 0.24337 0.54473 0.0
C1860 C 0.09212 0.22958 0.57601 0.0
C1861 C 0.10794 0.22922 0.59283 0.0
C1862 C 0.17249 0.28581 0.53412 0.0
C1863 C 0.13159 0.25696 0.55548 0.0
C1864 C 0.18426 0.30089 0.51611 0.0
C1865 C 0.16853 0.30275 0.49995 0.0
C1866 C 0.14472 0.27241 0.53611 0.0
C1867 C 0.1408 0.28863 0.50235 0.0
C1868 C 0.10381 0.24337 0.55741 0.0
C1869 C 0.13564 0.24283 0.59017 0.0
N1870 N 0.12981 0.27418 0.52011 0.0
N1871 N 0.14656 0.25619 0.57191 0.0
H1872 H 0.76014 0.89723 0.60475 0.0
H1873 H 0.70631 0.82764 0.49179 0.0
H1874 H 0.78001 0.84307 0.57777 0.0
H1875 H 0.68816 0.88366 0.51726 0.0
H1876 H 0.7335 0.83323 0.52323 0.0
H1877 H 0.73373 0.89272 0.57289 0.0
C1878 C 0.75903 0.88446 0.59211 0.0
C1879 C 0.77222 0.87041 0.59401 0.0
C1880 C 0.7236 0.84433 0.52195 0.0
C1881 C 0.74189 0.86503 0.55756 0.0
C1882 C 0.70818 0.84125 0.50392 0.0
C1883 C 0.69491 0.85521 0.50183 0.0
C1884 C 0.72583 0.8615 0.53809 0.0
C1885 C 0.69773 0.87225 0.51829 0.0
C1886 C 0.74386 0.88181 0.57397 0.0
C1887 C 0.76984 0.85395 0.57719 0.0
N1888 N 0.71287 0.87491 0.53571 0.0
N1889 N 0.75499 0.85173 0.55972 0.0
H1890 H 0.10739 0.89037 0.57855 0.0
H1891 H 0.20097 0.84555 0.52251 0.0
H1892 H 0.16855 0.88379 0.61193 0.0
H1893 H 0.16331 0.88087 0.48811 0.0
H1894 H 0.18141 0.85005 0.55552 0.0
H1895 H 0.11967 0.877 0.54548 0.0
C1896 C 0.12302 0.88557 0.57898 0.0
C1897 C 0.13705 0.88821 0.59794 0.0
C1898 C 0.1773 0.85663 0.54069 0.0
C1899 C 0.15122 0.8731 0.56029 0.0
C1900 C 0.18858 0.85422 0.52182 0.0
C1901 C 0.18424 0.86325 0.50241 0.0
C1902 C 0.16122 0.86785 0.54024 0.0
C1903 C 0.16721 0.87353 0.50257 0.0
C1904 C 0.13015 0.87818 0.56011 0.0
C1905 C 0.15737 0.88211 0.5976 0.0
N1906 N 0.15646 0.87568 0.52119 0.0
N1907 N 0.1639 0.87489 0.57906 0.0
H1908 H 0.61998 0.78206 0.10264 0.0
H1909 H 0.61725 0.78341 0.22828 0.0
H1910 H 0.55144 0.77078 0.13811 0.0
H1911 H 0.69081 0.82312 0.19308 0.0
H1912 H 0.59287 0.77873 0.19543 0.0
H1913 H 0.64668 0.79736 0.13532 0.0
C1914 C 0.61071 0.78323 0.11726 0.0
C1915 C 0.58352 0.77513 0.11775 0.0
C1916 C 0.61437 0.78872 0.19495 0.0
C1917 C 0.61366 0.79207 0.15514 0.0
C1918 C 0.62839 0.79154 0.21377 0.0
C1919 C 0.65625 0.80357 0.21357 0.0
C1920 C 0.62819 0.79757 0.17565 0.0
C1921 C 0.66936 0.81317 0.19402 0.0
C1922 C 0.62591 0.79197 0.13586 0.0
C1923 C 0.5724 0.77701 0.13705 0.0
N1924 N 0.65521 0.80968 0.17581 0.0
N1925 N 0.58742 0.78491 0.15506 0.0
H1926 H 0.23244 0.83472 0.10813 0.0
H1927 H 0.18349 0.78272 0.22661 0.0
H1928 H 0.23586 0.77066 0.13512 0.0
H1929 H 0.16877 0.83817 0.19544 0.0
H1930 H 0.20548 0.77998 0.19421 0.0
H1931 H 0.21156 0.83803 0.1409 0.0
C1932 C 0.22883 0.82138 0.12099 0.0
C1933 C 0.23586 0.80236 0.11886 0.0
C1934 C 0.19743 0.79274 0.19447 0.0
C1935 C 0.21192 0.80601 0.15646 0.0
C1936 C 0.18504 0.79444 0.21301 0.0
C1937 C 0.17419 0.81064 0.21372 0.0
C1938 C 0.19918 0.80749 0.17655 0.0
C1939 C 0.17653 0.82518 0.19552 0.0
C1940 C 0.21681 0.8232 0.13966 0.0
C1941 C 0.23048 0.78542 0.13596 0.0
N1942 N 0.18878 0.82329 0.17772 0.0
N1943 N 0.21891 0.7877 0.15406 0.0
H1944 H 0.23551 0.46055 0.13732 0.0
H1945 H 0.15227 0.32249 0.19159 0.0
H1946 H 0.18166 0.39198 0.10287 0.0
H1947 H 0.18113 0.39325 0.22665 0.0
H1948 H 0.172 0.34713 0.15918 0.0
H1949 H 0.22499 0.43529 0.17031 0.0
C1950 C 0.22197 0.44007 0.13665 0.0
C1951 C 0.20938 0.42825 0.11744 0.0
C1952 C 0.17418 0.35723 0.17402 0.0
C1953 C 0.1972 0.3994 0.15491 0.0
C1954 C 0.16279 0.3432 0.19255 0.0
C1955 C 0.16453 0.35574 0.21192 0.0
C1956 C 0.18772 0.38408 0.17478 0.0
C1957 C 0.17925 0.38267 0.21217 0.0
C1958 C 0.21581 0.42574 0.15546 0.0
C1959 C 0.19171 0.40175 0.11741 0.0
N1960 N 0.1901 0.39594 0.19386 0.0
N1961 N 0.18607 0.38822 0.13587 0.0
H1962 H 0.81692 0.57741 0.939 0.0
H1963 H 0.79297 0.62247 0.82478 0.0
H1964 H 0.73922 0.5528 0.9126 0.0
H1965 H 0.87059 0.64562 0.85067 0.0
H1966 H 0.77286 0.59585 0.85632 0.0
H1967 H 0.83692 0.60169 0.90638 0.0
C1968 C 0.80405 0.57701 0.92632 0.0
C1969 C 0.77632 0.56313 0.92867 0.0
C1970 C 0.7943 0.60671 0.85508 0.0
C1971 C 0.79912 0.59108 0.89124 0.0
C1972 C 0.80581 0.62181 0.83698 0.0
C1973 C 0.83356 0.63647 0.83506 0.0
C1974 C 0.81062 0.60621 0.87141 0.0
C1975 C 0.84913 0.63503 0.85158 0.0
C1976 C 0.81549 0.59098 0.90772 0.0
C1977 C 0.76068 0.56357 0.91173 0.0
N1978 N 0.83747 0.62027 0.86903 0.0
N1979 N 0.77228 0.57731 0.89379 0.0
H1980 H 0.4503 0.1784 0.90927 0.0
H1981 H 0.35683 0.22007 0.84835 0.0
H1982 H 0.42928 0.23221 0.93522 0.0
H1983 H 0.37577 0.16407 0.82416 0.0
H1984 H 0.38399 0.22563 0.87987 0.0
H1985 H 0.42388 0.17381 0.87761 0.0
C1986 C 0.43996 0.18914 0.90838 0.0
C1987 C 0.44183 0.20556 0.92505 0.0
C1988 C 0.38224 0.21216 0.86765 0.0
C1989 C 0.41175 0.20063 0.88858 0.0
C1990 C 0.36661 0.20886 0.84969 0.0
C1991 C 0.36393 0.19151 0.83356 0.0
C1992 C 0.39531 0.198 0.86956 0.0
C1993 C 0.37748 0.17786 0.83603 0.0
C1994 C 0.425 0.18662 0.89021 0.0
C1995 C 0.42851 0.21944 0.92273 0.0
N1996 N 0.3925 0.18136 0.85369 0.0
N1997 N 0.41397 0.2166 0.90487 0.0
H1998 H 0.84386 0.22382 0.947 0.0
H1999 H 0.81112 0.17175 0.82697 0.0
H2000 H 0.77398 0.21298 0.91365 0.0
H2001 H 0.88967 0.20859 0.85485 0.0
H2002 H 0.79408 0.17983 0.86008 0.0
H2003 H 0.85726 0.21 0.91506 0.0
C2004 C 0.83122 0.21836 0.93301 0.0
C2005 C 0.80794 0.21996 0.93295 0.0
C2006 C 0.81501 0.18599 0.85889 0.0
C2007 C 0.82314 0.20392 0.8963 0.0
C2008 C 0.82483 0.18157 0.83994 0.0
C2009 C 0.85195 0.1894 0.83799 0.0
C2010 C 0.83235 0.19809 0.8761 0.0
C2011 C 0.86856 0.20166 0.8556 0.0
C2012 C 0.83889 0.21047 0.91478 0.0
C2013 C 0.79203 0.212 0.91448 0.0
N2014 N 0.8585 0.20554 0.87384 0.0
N2015 N 0.80003 0.20451 0.89682 0.0
H2016 H 0.25641 0.13255 0.44385 0.0
H2017 H 0.28143 0.09635 0.56109 0.0
H2018 H 0.21553 0.0559 0.46927 0.0
H2019 H 0.33944 0.16393 0.52782 0.0
H2020 H 0.25215 0.08453 0.52997 0.0
H2021 H 0.28233 0.14758 0.4771 0.0
C2022 C 0.25275 0.119 0.45654 0.0
C2023 C 0.23409 0.09296 0.45386 0.0
C2024 C 0.27124 0.10201 0.52953 0.0
C2025 C 0.26327 0.10987 0.49169 0.0
C2026 C 0.28786 0.10883 0.5473 0.0
C2027 C 0.31293 0.13106 0.54694 0.0
C2028 C 0.27962 0.11766 0.51133 0.0
C2029 C 0.32039 0.14646 0.52861 0.0
C2030 C 0.26757 0.12751 0.47539 0.0
C2031 C 0.23002 0.07608 0.47068 0.0
N2032 N 0.3038 0.13946 0.51149 0.0
N2033 N 0.2445 0.08482 0.48888 0.0
H2034 H 0.94277 0.16086 0.4693 0.0
H2035 H 0.80659 0.11805 0.53143 0.0
H2036 H 0.8654 0.10743 0.44387 0.0
H2037 H 0.88385 0.17117 0.5572 0.0
H2038 H 0.8279 0.11287 0.49978 0.0
H2039 H 0.92172 0.16389 0.50204 0.0
C2040 C 0.92133 0.14983 0.47056 0.0
C2041 C 0.90582 0.13402 0.4537 0.0
C2042 C 0.84023 0.12561 0.51237 0.0
C2043 C 0.88157 0.1372 0.49132 0.0
C2044 C 0.82806 0.12868 0.53042 0.0
C2045 C 0.84343 0.14523 0.54697 0.0
C2046 C 0.86805 0.13921 0.51074 0.0
C2047 C 0.8712 0.15809 0.54493 0.0
C2048 C 0.90934 0.15146 0.48933 0.0
C2049 C 0.87817 0.11975 0.45647 0.0
N2050 N 0.8826 0.15492 0.52711 0.0
N2051 N 0.86694 0.12178 0.47485 0.0
H2052 H 0.83193 0.72543 0.43636 0.0
H2053 H 0.86939 0.71089 0.55616 0.0
H2054 H 0.90093 0.78652 0.46737 0.0
H2055 H 0.79048 0.669 0.52926 0.0
H2056 H 0.88469 0.73629 0.52318 0.0
H2057 H 0.82063 0.7008 0.46925 0.0
C2058 C 0.8448 0.73363 0.45011 0.0
C2059 C 0.86717 0.75827 0.4492 0.0
C2060 C 0.86406 0.72149 0.52462 0.0
C2061 C 0.85433 0.73001 0.48708 0.0
C2062 C 0.85525 0.70709 0.54345 0.0
C2063 C 0.82863 0.68744 0.54546 0.0
C2064 C 0.84617 0.71601 0.50766 0.0
C2065 C 0.81132 0.68336 0.52834 0.0
C2066 C 0.83831 0.71956 0.46891 0.0
C2067 C 0.88348 0.76761 0.46739 0.0
N2068 N 0.82041 0.69733 0.51022 0.0
N2069 N 0.87664 0.75353 0.4857 0.0
loop_
_geom_bond_atom_site_label_1
_geom_bond_atom_site_label_2
_geom_bond_distance
_geom_bond_site_symmetry_2
_ccdc_geom_bond_type
H0 C1 0.949 . S
C1 H0 0.949 . S
C1 C2 1.395 . S
C1 C3 1.391 . S
C2 C1 1.395 . S
C2 C5 1.390 . S
C3 C1 1.391 . S
C3 C7 1.387 . S
C3 C8 1.491 . S
H4 C5 0.950 . S
C5 C2 1.390 . S
C5 H4 0.950 . S
C5 C6 1.378 . S
C6 C5 1.378 . S
C6 C7 1.409 . S
C7 C3 1.387 . S
C7 C6 1.409 . S
C7 H9 0.951 . S
C8 C3 1.491 . S
C8 C10 1.382 . S
C8 C12 1.404 . S
H9 C7 0.951 . S
C10 C8 1.382 . S
C10 C11 1.390 . S
C10 H15 0.949 . S
C11 C10 1.390 . S
C11 C16 1.399 . S
C12 C8 1.404 . S
C12 H13 0.950 . S
C12 C14 1.375 . S
H13 C12 0.950 . S
C14 C12 1.375 . S
C14 C16 1.382 . S
C14 H18 0.950 . S
H15 C10 0.949 . S
C16 C11 1.399 . S
C16 C14 1.382 . S
C16 H17 0.952 . S
H17 C16 0.952 . S
H18 C14 0.950 . S
H19 C20 0.949 . S
C20 H19 0.949 . S
C20 C21 1.395 . S
C20 C22 1.391 . S
C21 C20 1.395 . S
C21 C24 1.390 . S
C22 C20 1.391 . S
C22 C26 1.387 . S
C22 C27 1.491 . S
H23 C24 0.950 . S
C24 C21 1.390 . S
C24 H23 0.950 . S
C24 C25 1.378 . S
C25 C24 1.378 . S
C25 C26 1.409 . S
C26 C22 1.387 . S
C26 C25 1.409 . S
C26 H28 0.951 . S
C27 C22 1.491 . S
C27 C29 1.382 . S
C27 C31 1.404 . S
H28 C26 0.951 . S
C29 C27 1.382 . S
C29 C30 1.390 . S
C29 H34 0.949 . S
C30 C29 1.390 . S
C30 C35 1.399 . S
C31 C27 1.404 . S
C31 H32 0.950 . S
C31 C33 1.375 . S
H32 C31 0.950 . S
C33 C31 1.375 . S
C33 C35 1.382 . S
C33 H37 0.950 . S
H34 C29 0.949 . S
C35 C30 1.399 . S
C35 C33 1.382 . S
C35 H36 0.952 1_545 S
H36 C35 0.952 1_565 S
H37 C33 0.950 . S
H38 C39 0.949 . S
C39 H38 0.949 . S
C39 C40 1.395 . S
C39 C41 1.391 . S
C40 C39 1.395 . S
C40 C43 1.390 . S
C41 C39 1.391 . S
C41 C45 1.387 . S
C41 C46 1.491 . S
H42 C43 0.950 . S
C43 C40 1.390 . S
C43 H42 0.950 . S
C43 C44 1.378 . S
C44 C43 1.378 . S
C44 C45 1.409 . S
C45 C41 1.387 . S
C45 C44 1.409 . S
C45 H47 0.951 . S
C46 C41 1.491 . S
C46 C48 1.382 . S
C46 C50 1.404 . S
H47 C45 0.951 . S
C48 C46 1.382 . S
C48 C49 1.390 . S
C48 H53 0.949 . S
C49 C48 1.390 . S
C49 C54 1.399 1_655 S
C50 C46 1.404 . S
C50 H51 0.950 . S
C50 C52 1.375 . S
H51 C50 0.950 . S
C52 C50 1.375 . S
C52 C54 1.382 1_655 S
C52 H56 0.950 . S
H53 C48 0.949 . S
C54 C49 1.399 1_455 S
C54 C52 1.382 1_455 S
C54 H55 0.952 . S
H55 C54 0.952 . S
H56 C52 0.950 . S
H57 C58 0.949 . S
C58 H57 0.949 . S
C58 C59 1.395 . S
C58 C60 1.391 . S
C59 C58 1.395 . S
C59 C62 1.390 . S
C60 C58 1.391 . S
C60 C64 1.387 . S
C60 C65 1.491 . S
H61 C62 0.950 . S
C62 C59 1.390 . S
C62 H61 0.950 . S
C62 C63 1.378 . S
C63 C62 1.378 . S
C63 C64 1.409 . S
C64 C60 1.387 . S
C64 C63 1.409 . S
C64 H66 0.951 . S
C65 C60 1.491 . S
C65 C67 1.382 . S
C65 C69 1.404 . S
H66 C64 0.951 . S
C67 C65 1.382 . S
C67 C68 1.390 . S
C67 H72 0.949 . S
C68 C67 1.390 . S
C68 C73 1.399 . S
C69 C65 1.404 . S
C69 H70 0.950 . S
C69 C71 1.375 . S
H70 C69 0.950 . S
C71 C69 1.375 . S
C71 C73 1.382 . S
C71 H75 0.950 . S
H72 C67 0.949 . S
C73 C68 1.399 . S
C73 C71 1.382 . S
C73 H74 0.952 . S
H74 C73 0.952 . S
H75 C71 0.950 . S
H76 C77 0.949 . S
C77 H76 0.949 . S
C77 C78 1.395 . S
C77 C79 1.391 . S
C78 C77 1.395 . S
C78 C81 1.390 . S
C79 C77 1.391 . S
C79 C83 1.387 . S
C79 C84 1.491 . S
H80 C81 0.950 . S
C81 C78 1.390 . S
C81 H80 0.950 . S
C81 C82 1.378 . S
C82 C81 1.378 . S
C82 C83 1.409 . S
C83 C79 1.387 . S
C83 C82 1.409 . S
C83 H85 0.951 . S
C84 C79 1.491 . S
C84 C86 1.382 . S
C84 C88 1.404 . S
H85 C83 0.951 . S
C86 C84 1.382 . S
C86 C87 1.390 . S
C86 H91 0.949 . S
C87 C86 1.390 . S
C87 C92 1.399 . S
C88 C84 1.404 . S
C88 H89 0.950 . S
C88 C90 1.375 . S
H89 C88 0.950 . S
C90 C88 1.375 . S
C90 C92 1.382 . S
C90 H94 0.950 . S
H91 C86 0.949 . S
C92 C87 1.399 . S
C92 C90 1.382 . S
C92 H93 0.952 1_565 S
H93 C92 0.952 1_545 S
H94 C90 0.950 . S
H95 C96 0.949 . S
C96 H95 0.949 . S
C96 C97 1.395 . S
C96 C98 1.391 . S
C97 C96 1.395 . S
C97 C100 1.390 . S
C98 C96 1.391 . S
C98 C102 1.387 . S
C98 C103 1.491 . S
H99 C100 0.950 . S
C100 C97 1.390 . S
C100 H99 0.950 . S
C100 C101 1.378 . S
C101 C100 1.378 . S
C101 C102 1.409 . S
C102 C98 1.387 . S
C102 C101 1.409 . S
C102 H104 0.951 . S
C103 C98 1.491 . S
C103 C105 1.382 . S
C103 C107 1.404 . S
H104 C102 0.951 . S
C105 C103 1.382 . S
C105 C106 1.390 . S
C105 H110 0.949 . S
C106 C105 1.390 . S
C106 C111 1.399 . S
C107 C103 1.404 . S
C107 H108 0.950 . S
C107 C109 1.375 . S
H108 C107 0.950 . S
C109 C107 1.375 . S
C109 C111 1.382 . S
C109 H113 0.950 . S
H110 C105 0.949 . S
C111 C106 1.399 . S
C111 C109 1.382 . S
C111 H112 0.952 1_455 S
H112 C111 0.952 1_655 S
H113 C109 0.950 . S
H114 C115 0.949 . S
C115 H114 0.949 . S
C115 C116 1.395 . S
C115 C117 1.391 . S
C116 C115 1.395 . S
C116 C119 1.390 . S
C117 C115 1.391 . S
C117 C121 1.387 . S
C117 C122 1.491 . S
H118 C119 0.950 . S
C119 C116 1.390 . S
C119 H118 0.950 . S
C119 C120 1.378 . S
C120 C119 1.378 . S
C120 C121 1.409 . S
C121 C117 1.387 . S
C121 C120 1.409 . S
C121 H123 0.951 . S
C122 C117 1.491 . S
C122 C124 1.382 . S
C122 C126 1.404 . S
H123 C121 0.951 . S
C124 C122 1.382 . S
C124 C125 1.390 . S
C124 H129 0.949 . S
C125 C124 1.390 . S
C125 C130 1.399 . S
C126 C122 1.404 . S
C126 H127 0.950 . S
C126 C128 1.375 . S
H127 C126 0.950 . S
C128 C126 1.375 . S
C128 C130 1.382 . S
C128 H132 0.950 . S
H129 C124 0.949 . S
C130 C125 1.399 . S
C130 C128 1.382 . S
C130 H131 0.952 . S
H131 C130 0.952 . S
H132 C128 0.950 . S
H133 C134 0.949 . S
C134 H133 0.949 . S
C134 C135 1.395 . S
C134 C136 1.391 . S
C135 C134 1.395 . S
C135 C138 1.390 . S
C136 C134 1.391 . S
C136 C140 1.387 . S
C136 C141 1.491 . S
H137 C138 0.950 . S
C138 C135 1.390 . S
C138 H137 0.950 . S
C138 C139 1.378 . S
C139 C138 1.378 . S
C139 C140 1.409 . S
C140 C136 1.387 . S
C140 C139 1.409 . S
C140 H142 0.951 . S
C141 C136 1.491 . S
C141 C143 1.382 . S
C141 C145 1.404 . S
H142 C140 0.951 . S
C143 C141 1.382 . S
C143 C144 1.390 . S
C143 H148 0.949 . S
C144 C143 1.390 . S
C144 C149 1.399 . S
C145 C141 1.404 . S
C145 H146 0.950 . S
C145 C147 1.375 . S
H146 C145 0.950 . S
C147 C145 1.375 . S
C147 C149 1.382 . S
C147 H151 0.950 . S
H148 C143 0.949 . S
C149 C144 1.399 . S
C149 C147 1.382 . S
C149 H150 0.952 . S
H150 C149 0.952 . S
H151 C147 0.950 . S
H152 C153 0.949 . S
C153 H152 0.949 . S
C153 C154 1.395 . S
C153 C155 1.391 . S
C154 C153 1.395 . S
C154 C157 1.390 . S
C155 C153 1.391 . S
C155 C159 1.387 . S
C155 C160 1.491 . S
H156 C157 0.950 . S
C157 C154 1.390 . S
C157 H156 0.950 . S
C157 C158 1.378 . S
C158 C157 1.378 . S
C158 C159 1.409 . S
C159 C155 1.387 . S
C159 C158 1.409 . S
C159 H161 0.951 . S
C160 C155 1.491 . S
C160 C162 1.382 . S
C160 C164 1.404 . S
H161 C159 0.951 . S
C162 C160 1.382 . S
C162 C163 1.390 . S
C162 H167 0.949 . S
C163 C162 1.390 . S
C163 C168 1.399 . S
C164 C160 1.404 . S
C164 H165 0.950 . S
C164 C166 1.375 . S
H165 C164 0.950 . S
C166 C164 1.375 . S
C166 C168 1.382 . S
C166 H170 0.950 . S
H167 C162 0.949 . S
C168 C163 1.399 . S
C168 C166 1.382 . S
C168 H169 0.952 . S
H169 C168 0.952 . S
H170 C166 0.950 . S
H171 C172 0.949 . S
C172 H171 0.949 . S
C172 C173 1.395 . S
C172 C174 1.391 . S
C173 C172 1.395 . S
C173 C176 1.390 . S
C174 C172 1.391 . S
C174 C178 1.387 . S
C174 C179 1.491 . S
H175 C176 0.950 . S
C176 C173 1.390 . S
C176 H175 0.950 . S
C176 C177 1.378 . S
C177 C176 1.378 . S
C177 C178 1.409 . S
C178 C174 1.387 . S
C178 C177 1.409 . S
C178 H180 0.951 . S
C179 C174 1.491 . S
C179 C181 1.382 . S
C179 C183 1.404 . S
H180 C178 0.951 . S
C181 C179 1.382 . S
C181 C182 1.390 . S
C181 H186 0.949 . S
C182 C181 1.390 . S
C182 C187 1.399 . S
C183 C179 1.404 . S
C183 H184 0.950 . S
C183 C185 1.375 . S
H184 C183 0.950 . S
C185 C183 1.375 . S
C185 C187 1.382 . S
C185 H189 0.950 . S
H186 C181 0.949 . S
C187 C182 1.399 . S
C187 C185 1.382 . S
C187 H188 0.952 . S
H188 C187 0.952 . S
H189 C185 0.950 . S
H190 C191 0.949 . S
C191 H190 0.949 . S
C191 C192 1.395 . S
C191 C193 1.391 . S
C192 C191 1.395 . S
C192 C195 1.390 . S
C193 C191 1.391 . S
C193 C197 1.387 . S
C193 C198 1.491 . S
H194 C195 0.950 . S
C195 C192 1.390 . S
C195 H194 0.950 . S
C195 C196 1.378 . S
C196 C195 1.378 . S
C196 C197 1.409 . S
C197 C193 1.387 . S
C197 C196 1.409 . S
C197 H199 0.951 . S
C198 C193 1.491 . S
C198 C200 1.382 . S
C198 C202 1.404 . S
H199 C197 0.951 . S
C200 C198 1.382 . S
C200 C201 1.390 . S
C200 H205 0.949 . S
C201 C200 1.390 . S
C201 C206 1.399 . S
C202 C198 1.404 . S
C202 H203 0.950 . S
C202 C204 1.375 . S
H203 C202 0.950 . S
C204 C202 1.375 . S
C204 C206 1.382 . S
C204 H208 0.950 1_556 S
H205 C200 0.949 . S
C206 C201 1.399 . S
C206 C204 1.382 . S
C206 H207 0.952 1_556 S
H207 C206 0.952 1_554 S
H208 C204 0.950 1_554 S
H209 C210 0.949 . S
C210 H209 0.949 . S
C210 C211 1.395 . S
C210 C212 1.391 . S
C211 C210 1.395 . S
C211 C214 1.390 . S
C212 C210 1.391 . S
C212 C216 1.387 . S
C212 C217 1.491 . S
H213 C214 0.950 . S
C214 C211 1.390 . S
C214 H213 0.950 . S
C214 C215 1.378 . S
C215 C214 1.378 . S
C215 C216 1.409 . S
C216 C212 1.387 . S
C216 C215 1.409 . S
C216 H218 0.951 . S
C217 C212 1.491 . S
C217 C219 1.382 . S
C217 C221 1.404 . S
H218 C216 0.951 . S
C219 C217 1.382 . S
C219 C220 1.390 . S
C219 H224 0.949 . S
C220 C219 1.390 . S
C220 C225 1.399 . S
C221 C217 1.404 . S
C221 H222 0.950 . S
C221 C223 1.375 . S
H222 C221 0.950 . S
C223 C221 1.375 . S
C223 C225 1.382 . S
C223 H227 0.950 . S
H224 C219 0.949 . S
C225 C220 1.399 . S
C225 C223 1.382 . S
C225 H226 0.952 . S
H226 C225 0.952 . S
H227 C223 0.950 . S
H228 C229 0.949 . S
C229 H228 0.949 . S
C229 C230 1.395 . S
C229 C231 1.391 . S
C230 C229 1.395 . S
C230 C233 1.390 . S
C231 C229 1.391 . S
C231 C235 1.387 . S
C231 C236 1.491 . S
H232 C233 0.950 . S
C233 C230 1.390 . S
C233 H232 0.950 . S
C233 C234 1.378 . S
C234 C233 1.378 . S
C234 C235 1.409 . S
C235 C231 1.387 . S
C235 C234 1.409 . S
C235 H237 0.951 . S
C236 C231 1.491 . S
C236 C238 1.382 . S
C236 C240 1.404 . S
H237 C235 0.951 . S
C238 C236 1.382 . S
C238 C239 1.390 . S
C238 H243 0.949 . S
C239 C238 1.390 . S
C239 C244 1.399 . S
C240 C236 1.404 . S
C240 H241 0.950 . S
C240 C242 1.375 . S
H241 C240 0.950 . S
C242 C240 1.375 . S
C242 C244 1.382 . S
C242 H246 0.950 . S
H243 C238 0.949 . S
C244 C239 1.399 . S
C244 C242 1.382 . S
C244 H245 0.952 . S
H245 C244 0.952 . S
H246 C242 0.950 . S
H247 C248 0.949 . S
C248 H247 0.949 . S
C248 C249 1.395 . S
C248 C250 1.391 . S
C249 C248 1.395 . S
C249 C252 1.390 . S
C250 C248 1.391 . S
C250 C254 1.387 . S
C250 C255 1.491 . S
H251 C252 0.950 . S
C252 C249 1.390 . S
C252 H251 0.950 . S
C252 C253 1.378 . S
C253 C252 1.378 . S
C253 C254 1.409 . S
C254 C250 1.387 . S
C254 C253 1.409 . S
C254 H256 0.951 . S
C255 C250 1.491 . S
C255 C257 1.382 . S
C255 C259 1.404 . S
H256 C254 0.951 . S
C257 C255 1.382 . S
C257 C258 1.390 . S
C257 H262 0.949 . S
C258 C257 1.390 . S
C258 C263 1.399 . S
C259 C255 1.404 . S
C259 H260 0.950 . S
C259 C261 1.375 . S
H260 C259 0.950 . S
C261 C259 1.375 . S
C261 C263 1.382 . S
C261 H265 0.950 . S
H262 C257 0.949 . S
C263 C258 1.399 . S
C263 C261 1.382 . S
C263 H264 0.952 . S
H264 C263 0.952 . S
H265 C261 0.950 . S
H266 C267 0.949 . S
C267 H266 0.949 . S
C267 C268 1.395 . S
C267 C269 1.391 . S
C268 C267 1.395 . S
C268 C271 1.390 . S
C269 C267 1.391 . S
C269 C273 1.387 . S
C269 C274 1.491 . S
H270 C271 0.950 . S
C271 C268 1.390 . S
C271 H270 0.950 . S
C271 C272 1.378 . S
C272 C271 1.378 . S
C272 C273 1.409 . S
C273 C269 1.387 . S
C273 C272 1.409 . S
C273 H275 0.951 . S
C274 C269 1.491 . S
C274 C276 1.382 . S
C274 C278 1.404 . S
H275 C273 0.951 . S
C276 C274 1.382 . S
C276 C277 1.390 . S
C276 H281 0.949 . S
C277 C276 1.390 . S
C277 C282 1.399 . S
C278 C274 1.404 . S
C278 H279 0.950 . S
C278 C280 1.375 . S
H279 C278 0.950 . S
C280 C278 1.375 . S
C280 C282 1.382 . S
C280 H284 0.950 . S
H281 C276 0.949 . S
C282 C277 1.399 . S
C282 C280 1.382 . S
C282 H283 0.952 . S
H283 C282 0.952 . S
H284 C280 0.950 . S
H285 C286 0.949 . S
C286 H285 0.949 . S
C286 C287 1.395 . S
C286 C288 1.391 . S
C287 C286 1.395 . S
C287 C290 1.390 . S
C288 C286 1.391 . S
C288 C292 1.387 . S
C288 C293 1.491 . S
H289 C290 0.950 . S
C290 C287 1.390 . S
C290 H289 0.950 . S
C290 C291 1.378 . S
C291 C290 1.378 . S
C291 C292 1.409 . S
C292 C288 1.387 . S
C292 C291 1.409 . S
C292 H294 0.951 . S
C293 C288 1.491 . S
C293 C295 1.382 . S
C293 C297 1.404 . S
H294 C292 0.951 . S
C295 C293 1.382 . S
C295 C296 1.390 . S
C295 H300 0.949 . S
C296 C295 1.390 . S
C296 C301 1.399 . S
C297 C293 1.404 . S
C297 H298 0.950 . S
C297 C299 1.375 . S
H298 C297 0.950 . S
C299 C297 1.375 . S
C299 C301 1.382 . S
C299 H303 0.950 . S
H300 C295 0.949 . S
C301 C296 1.399 . S
C301 C299 1.382 . S
C301 H302 0.952 . S
H302 C301 0.952 . S
H303 C299 0.950 . S
H304 C305 0.949 . S
C305 H304 0.949 . S
C305 C306 1.395 . S
C305 C307 1.391 . S
C306 C305 1.395 . S
C306 C309 1.390 . S
C307 C305 1.391 . S
C307 C311 1.387 . S
C307 C312 1.491 . S
H308 C309 0.950 . S
C309 C306 1.390 . S
C309 H308 0.950 . S
C309 C310 1.378 . S
C310 C309 1.378 . S
C310 C311 1.409 . S
C311 C307 1.387 . S
C311 C310 1.409 . S
C311 H313 0.951 . S
C312 C307 1.491 . S
C312 C314 1.382 . S
C312 C316 1.404 . S
H313 C311 0.951 . S
C314 C312 1.382 . S
C314 C315 1.390 . S
C314 H319 0.949 . S
C315 C314 1.390 . S
C315 C320 1.399 . S
C316 C312 1.404 . S
C316 H317 0.950 . S
C316 C318 1.375 . S
H317 C316 0.950 . S
C318 C316 1.375 . S
C318 C320 1.382 . S
C318 H322 0.950 . S
H319 C314 0.949 . S
C320 C315 1.399 . S
C320 C318 1.382 . S
C320 H321 0.952 . S
H321 C320 0.952 . S
H322 C318 0.950 . S
H323 C324 0.949 . S
C324 H323 0.949 . S
C324 C325 1.395 . S
C324 C326 1.391 . S
C325 C324 1.395 . S
C325 C328 1.390 . S
C326 C324 1.391 . S
C326 C330 1.387 . S
C326 C331 1.491 . S
H327 C328 0.950 . S
C328 C325 1.390 . S
C328 H327 0.950 . S
C328 C329 1.378 . S
C329 C328 1.378 . S
C329 C330 1.409 . S
C330 C326 1.387 . S
C330 C329 1.409 . S
C330 H332 0.951 . S
C331 C326 1.491 . S
C331 C333 1.382 . S
C331 C335 1.404 . S
H332 C330 0.951 . S
C333 C331 1.382 . S
C333 C334 1.390 . S
C333 H338 0.949 . S
C334 C333 1.390 . S
C334 C339 1.399 . S
C335 C331 1.404 . S
C335 H336 0.950 . S
C335 C337 1.375 . S
H336 C335 0.950 . S
C337 C335 1.375 . S
C337 C339 1.382 . S
C337 H341 0.950 . S
H338 C333 0.949 . S
C339 C334 1.399 . S
C339 C337 1.382 . S
C339 H340 0.952 . S
H340 C339 0.952 . S
H341 C337 0.950 . S
Gd342 N373 2.661 . S
Gd342 N379 2.601 . S
Gd342 O386 2.545 . S
Gd342 O387 2.606 1_545 S
Gd342 O389 2.429 . S
Gd342 O390 2.545 1_545 S
Gd342 O391 2.412 1_545 S
Gd342 O393 2.362 . S
Gd342 O394 2.324 1_545 S
Gd342 C401 2.828 1_545 S
Gd343 N352 2.661 . S
Gd343 N356 2.601 . S
Gd343 O387 2.362 1_556 S
Gd343 O388 2.324 1_565 S
Gd343 O392 2.545 . S
Gd343 O393 2.606 1_566 S
Gd343 O395 2.429 . S
Gd343 O396 2.545 1_565 S
Gd343 O397 2.412 1_565 S
Gd343 C410 2.828 1_565 S
C344 C347 1.417 . S
C344 C349 1.431 . S
C344 C350 1.412 . S
C345 C348 1.437 . S
C345 C349 1.317 . S
C345 H364 0.929 . S
C346 C347 1.426 . S
C346 C348 1.413 . S
C346 N356 1.359 . S
C347 C344 1.417 . S
C347 C346 1.426 . S
C347 N352 1.350 . S
C348 C345 1.437 . S
C348 C346 1.413 . S
C348 C358 1.391 . S
C349 C344 1.431 . S
C349 C345 1.317 . S
C349 H360 0.930 . S
C350 C344 1.412 . S
C350 C351 1.355 . S
C350 H362 0.930 . S
C351 C350 1.355 . S
C351 C353 1.402 . S
C351 H363 0.930 . S
N352 Gd343 2.661 . S
N352 C347 1.350 . S
N352 C353 1.307 . S
C353 C351 1.402 . S
C353 N352 1.307 . S
C353 H354 0.941 . S
H354 C353 0.941 . S
C355 N356 1.334 . S
C355 C357 1.394 . S
C355 H359 0.930 . S
N356 Gd343 2.601 . S
N356 C346 1.359 . S
N356 C355 1.334 . S
C357 C355 1.394 . S
C357 C358 1.359 . S
C357 H369 0.930 . S
C358 C348 1.391 . S
C358 C357 1.359 . S
C358 H370 0.929 . S
H359 C355 0.930 . S
H360 C349 0.930 . S
H361 C378 0.930 . S
H362 C350 0.930 . S
H363 C351 0.930 . S
H364 C345 0.929 . S
H365 C383 0.930 . S
H366 C374 0.930 . S
H367 C375 0.930 . S
H368 C399 0.929 . S
H369 C357 0.930 . S
H370 C358 0.929 . S
H371 C400 0.930 . S
H372 C381 0.930 . S
N373 Gd342 2.661 . S
N373 C377 1.350 . S
N373 C378 1.307 . S
C374 H366 0.930 . S
C374 C375 1.355 . S
C374 C376 1.412 . S
C375 H367 0.930 . S
C375 C374 1.355 . S
C375 C378 1.402 . S
C376 C374 1.412 . S
C376 C377 1.417 . S
C376 C400 1.431 . S
C377 N373 1.350 . S
C377 C376 1.417 . S
C377 C380 1.426 . S
C378 H361 0.930 . S
C378 N373 1.307 . S
C378 C375 1.402 . S
N379 Gd342 2.601 . S
N379 C380 1.359 . S
N379 C383 1.334 . S
C380 C377 1.426 . S
C380 N379 1.359 . S
C380 C384 1.413 . S
C381 H372 0.930 . S
C381 C382 1.359 . S
C381 C383 1.394 . S
C382 C381 1.359 . S
C382 C384 1.391 . S
C382 H385 0.929 . S
C383 H365 0.930 . S
C383 N379 1.334 . S
C383 C381 1.394 . S
C384 C380 1.413 . S
C384 C382 1.391 . S
C384 C399 1.437 . S
H385 C382 0.929 . S
O386 Gd342 2.545 . S
O386 C401 1.256 1_545 S
O387 Gd342 2.606 1_565 S
O387 Gd343 2.362 1_554 S
O387 C398 1.284 . S
O388 Gd343 2.324 1_545 S
O388 C408 1.254 1_556 S
O389 Gd342 2.429 . S
O389 C408 1.268 . S
O390 Gd342 2.545 1_565 S
O390 C398 1.250 . S
O391 Gd342 2.412 1_565 S
O391 C401 1.253 . S
O392 Gd343 2.545 . S
O392 C410 1.258 1_565 S
O393 Gd342 2.362 . S
O393 Gd343 2.606 1_544 S
O393 C409 1.284 1_554 S
O394 Gd342 2.324 1_565 S
O394 C417 1.254 . S
O395 Gd343 2.429 . S
O395 C417 1.268 1_556 S
O396 Gd343 2.545 1_545 S
O396 C409 1.250 . S
O397 Gd343 2.412 1_545 S
O397 C410 1.252 . S
C398 O387 1.284 . S
C398 O390 1.250 . S
C399 H368 0.929 . S
C399 C384 1.437 . S
C399 C400 1.317 . S
C400 H371 0.930 . S
C400 C376 1.431 . S
C400 C399 1.317 . S
C401 Gd342 2.828 1_565 S
C401 O386 1.256 1_565 S
C401 O391 1.253 . S
C401 C402 1.497 . S
C402 C401 1.497 . S
C402 C403 1.395 1_565 S
C402 C404 1.380 . S
C403 C402 1.395 1_545 S
C403 C406 1.398 1_545 S
C403 H418 0.930 . S
C404 C402 1.380 . S
C404 C405 1.391 . S
C404 H419 0.930 . S
C405 C404 1.391 . S
C405 C407 1.387 . S
C406 C403 1.398 1_565 S
C406 C407 1.380 . S
C406 H420 0.930 1_565 S
C407 C405 1.387 . S
C407 C406 1.380 . S
C407 H421 0.930 . S
C408 O388 1.254 1_554 S
C408 O389 1.268 . S
C409 O393 1.284 1_556 S
C409 O396 1.250 . S
C410 Gd343 2.828 1_545 S
C410 O392 1.258 1_545 S
C410 O397 1.252 . S
C410 C411 1.497 . S
C411 C410 1.497 . S
C411 C412 1.395 1_545 S
C411 C413 1.380 . S
C412 C411 1.395 1_565 S
C412 C415 1.398 1_565 S
C412 H422 0.930 . S
C413 C411 1.380 . S
C413 C414 1.391 . S
C413 H423 0.930 . S
C414 C413 1.391 . S
C414 C416 1.387 . S
C415 C412 1.398 1_545 S
C415 C416 1.380 . S
C415 H424 0.930 1_545 S
C416 C414 1.387 . S
C416 C415 1.380 . S
C416 H425 0.930 . S
C417 O394 1.254 . S
C417 O395 1.268 1_554 S
H418 C403 0.930 . S
H419 C404 0.930 . S
H420 C406 0.930 1_545 S
H421 C407 0.930 . S
H422 C412 0.930 . S
H423 C413 0.930 . S
H424 C415 0.930 1_565 S
H425 C416 0.930 . S
Gd426 N457 2.661 . S
Gd426 N463 2.601 . S
Gd426 O470 2.545 . S
Gd426 O471 2.606 1_655 S
Gd426 O473 2.429 . S
Gd426 O474 2.545 1_655 S
Gd426 O475 2.412 1_655 S
Gd426 O477 2.362 . S
Gd426 O478 2.324 1_655 S
Gd426 C485 2.828 1_655 S
Gd427 N436 2.661 . S
Gd427 N440 2.601 . S
Gd427 O471 2.362 1_556 S
Gd427 O472 2.324 1_455 S
Gd427 O476 2.545 . S
Gd427 O477 2.606 1_456 S
Gd427 O479 2.429 . S
Gd427 O480 2.545 1_455 S
Gd427 O481 2.412 1_455 S
Gd427 C494 2.828 . S
C428 C431 1.417 . S
C428 C433 1.431 . S
C428 C434 1.412 . S
C429 C432 1.437 . S
C429 C433 1.317 . S
C429 H448 0.929 . S
C430 C431 1.426 . S
C430 C432 1.413 . S
C430 N440 1.359 . S
C431 C428 1.417 . S
C431 C430 1.426 . S
C431 N436 1.350 . S
C432 C429 1.437 . S
C432 C430 1.413 . S
C432 C442 1.391 . S
C433 C428 1.431 . S
C433 C429 1.317 . S
C433 H444 0.930 . S
C434 C428 1.412 . S
C434 C435 1.355 . S
C434 H446 0.930 . S
C435 C434 1.355 . S
C435 C437 1.402 . S
C435 H447 0.930 . S
N436 Gd427 2.661 . S
N436 C431 1.350 . S
N436 C437 1.307 . S
C437 C435 1.402 . S
C437 N436 1.307 . S
C437 H438 0.930 . S
H438 C437 0.930 . S
C439 N440 1.334 . S
C439 C441 1.394 . S
C439 H443 0.930 . S
N440 Gd427 2.601 . S
N440 C430 1.359 . S
N440 C439 1.334 . S
C441 C439 1.394 . S
C441 C442 1.359 . S
C441 H453 0.930 . S
C442 C432 1.391 . S
C442 C441 1.359 . S
C442 H454 0.929 . S
H443 C439 0.930 . S
H444 C433 0.930 . S
H445 C462 0.919 1_455 S
H446 C434 0.930 . S
H447 C435 0.930 . S
H448 C429 0.929 . S
H449 C467 0.930 . S
H450 C458 0.930 . S
H451 C459 0.930 . S
H452 C483 0.929 . S
H453 C441 0.930 . S
H454 C442 0.929 . S
H455 C484 0.930 . S
H456 C465 0.930 . S
N457 Gd426 2.661 . S
N457 C461 1.350 . S
N457 C462 1.307 . S
C458 H450 0.930 . S
C458 C459 1.355 . S
C458 C460 1.412 . S
C459 H451 0.930 . S
C459 C458 1.355 . S
C459 C462 1.402 . S
C460 C458 1.412 . S
C460 C461 1.417 . S
C460 C484 1.431 . S
C461 N457 1.350 . S
C461 C460 1.417 . S
C461 C464 1.426 . S
C462 H445 0.919 1_655 S
C462 N457 1.307 . S
C462 C459 1.402 . S
N463 Gd426 2.601 . S
N463 C464 1.359 . S
N463 C467 1.334 . S
C464 C461 1.426 . S
C464 N463 1.359 . S
C464 C468 1.413 . S
C465 H456 0.930 . S
C465 C466 1.359 . S
C465 C467 1.394 . S
C466 C465 1.359 . S
C466 C468 1.391 . S
C466 H469 0.929 . S
C467 H449 0.930 . S
C467 N463 1.334 . S
C467 C465 1.394 . S
C468 C464 1.413 . S
C468 C466 1.391 . S
C468 C483 1.437 . S
H469 C466 0.929 . S
O470 Gd426 2.545 . S
O470 C485 1.258 1_655 S
O471 Gd426 2.606 1_455 S
O471 Gd427 2.362 1_554 S
O471 C482 1.284 . S
O472 Gd427 2.324 1_655 S
O472 C492 1.254 1_556 S
O473 Gd426 2.429 . S
O473 C492 1.268 . S
O474 Gd426 2.545 1_455 S
O474 C482 1.250 . S
O475 Gd426 2.412 1_455 S
O475 C485 1.252 . S
O476 Gd427 2.545 . S
O476 C494 1.258 . S
O477 Gd426 2.362 . S
O477 Gd427 2.606 1_654 S
O477 C493 1.284 1_554 S
O478 Gd426 2.324 1_455 S
O478 C501 1.254 . S
O479 Gd427 2.429 . S
O479 C501 1.268 1_556 S
O480 Gd427 2.545 1_655 S
O480 C493 1.250 . S
O481 Gd427 2.412 1_655 S
O481 C494 1.252 1_655 S
C482 O471 1.284 . S
C482 O474 1.250 . S
C483 H452 0.929 . S
C483 C468 1.437 . S
C483 C484 1.317 . S
C484 H455 0.930 . S
C484 C460 1.431 . S
C484 C483 1.317 . S
C485 Gd426 2.828 1_455 S
C485 O470 1.258 1_455 S
C485 O475 1.252 . S
C485 C486 1.497 . S
C486 C485 1.497 . S
C486 C487 1.395 1_455 S
C486 C488 1.380 . S
C487 C486 1.395 1_655 S
C487 C490 1.398 1_655 S
C487 H502 0.930 . S
C488 C486 1.380 . S
C488 C489 1.391 . S
C488 H503 0.930 . S
C489 C488 1.391 . S
C489 C491 1.387 . S
C490 C487 1.398 1_455 S
C490 C491 1.380 . S
C490 H504 0.930 1_455 S
C491 C489 1.387 . S
C491 C490 1.380 . S
C491 H505 0.930 . S
C492 O472 1.254 1_554 S
C492 O473 1.268 . S
C493 O477 1.284 1_556 S
C493 O480 1.250 . S
C494 Gd427 2.828 . S
C494 O476 1.258 . S
C494 O481 1.252 1_455 S
C494 C495 1.497 1_455 S
C495 C494 1.497 1_655 S
C495 C496 1.395 1_655 S
C495 C497 1.380 . S
C496 C495 1.395 1_455 S
C496 C499 1.398 . S
C496 H506 0.930 . S
C497 C495 1.380 . S
C497 C498 1.391 . S
C497 H507 0.930 . S
C498 C497 1.391 . S
C498 C500 1.387 . S
C499 C496 1.398 . S
C499 C500 1.380 1_455 S
C499 H508 0.930 . S
C500 C498 1.387 . S
C500 C499 1.380 1_655 S
C500 H509 0.930 . S
C501 O478 1.254 . S
C501 O479 1.268 1_554 S
H502 C487 0.930 . S
H503 C488 0.930 . S
H504 C490 0.930 1_655 S
H505 C491 0.930 . S
H506 C496 0.930 . S
H507 C497 0.930 . S
H508 C499 0.930 . S
H509 C500 0.930 . S
Gd510 N541 2.661 . S
Gd510 N547 2.601 . S
Gd510 O554 2.545 . S
Gd510 O555 2.606 1_556 S
Gd510 O557 2.429 . S
Gd510 O558 2.545 . S
Gd510 O559 2.412 . S
Gd510 O561 2.362 1_556 S
Gd510 O562 2.324 . S
Gd510 C569 2.828 . S
Gd511 N520 2.661 . S
Gd511 N524 2.601 . S
Gd511 O555 2.362 . S
Gd511 O556 2.324 . S
Gd511 O560 2.545 . S
Gd511 O561 2.606 . S
Gd511 O563 2.429 . S
Gd511 O564 2.545 . S
Gd511 O565 2.412 . S
Gd511 C578 2.828 . S
C512 C515 1.417 . S
C512 C517 1.431 . S
C512 C518 1.412 . S
C513 C516 1.437 . S
C513 C517 1.317 . S
C513 H532 0.929 . S
C514 C515 1.426 . S
C514 C516 1.413 . S
C514 N524 1.359 . S
C515 C512 1.417 . S
C515 C514 1.426 . S
C515 N520 1.350 . S
C516 C513 1.437 . S
C516 C514 1.413 . S
C516 C526 1.391 . S
C517 C512 1.431 . S
C517 C513 1.317 . S
C517 H528 0.930 . S
C518 C512 1.412 . S
C518 C519 1.355 . S
C518 H530 0.930 . S
C519 C518 1.355 . S
C519 C521 1.402 . S
C519 H531 0.930 . S
N520 Gd511 2.661 . S
N520 C515 1.350 . S
N520 C521 1.307 . S
C521 C519 1.402 . S
C521 N520 1.307 . S
C521 H522 0.930 . S
H522 C521 0.930 . S
C523 N524 1.334 . S
C523 C525 1.394 . S
C523 H527 0.930 . S
N524 Gd511 2.601 . S
N524 C514 1.359 . S
N524 C523 1.334 . S
C525 C523 1.394 . S
C525 C526 1.359 . S
C525 H537 0.930 . S
C526 C516 1.391 . S
C526 C525 1.359 . S
C526 H538 0.929 . S
H527 C523 0.930 . S
H528 C517 0.930 . S
H529 C546 0.930 . S
H530 C518 0.930 . S
H531 C519 0.930 . S
H532 C513 0.929 . S
H533 C551 0.930 . S
H534 C542 0.930 . S
H535 C543 0.930 . S
H536 C567 0.929 . S
H537 C525 0.930 . S
H538 C526 0.929 . S
H539 C568 0.930 . S
H540 C549 0.930 . S
N541 Gd510 2.661 . S
N541 C545 1.350 . S
N541 C546 1.307 . S
C542 H534 0.930 . S
C542 C543 1.355 . S
C542 C544 1.412 . S
C543 H535 0.930 . S
C543 C542 1.355 . S
C543 C546 1.402 . S
C544 C542 1.412 . S
C544 C545 1.417 . S
C544 C568 1.431 . S
C545 N541 1.350 . S
C545 C544 1.417 . S
C545 C548 1.426 . S
C546 H529 0.930 . S
C546 N541 1.307 . S
C546 C543 1.402 . S
N547 Gd510 2.601 . S
N547 C548 1.359 . S
N547 C551 1.334 . S
C548 C545 1.426 . S
C548 N547 1.359 . S
C548 C552 1.413 . S
C549 H540 0.930 . S
C549 C550 1.359 . S
C549 C551 1.394 . S
C550 C549 1.359 . S
C550 C552 1.391 . S
C550 H553 0.929 . S
C551 H533 0.930 . S
C551 N547 1.334 . S
C551 C549 1.394 . S
C552 C548 1.413 . S
C552 C550 1.391 . S
C552 C567 1.437 . S
H553 C550 0.929 . S
O554 Gd510 2.545 . S
O554 C569 1.258 . S
O555 Gd510 2.606 1_554 S
O555 Gd511 2.362 . S
O555 C566 1.284 1_554 S
O556 Gd511 2.324 . S
O556 C576 1.254 . S
O557 Gd510 2.429 . S
O557 C576 1.268 1_556 S
O558 Gd510 2.545 . S
O558 C566 1.250 . S
O559 Gd510 2.412 . S
O559 C569 1.252 . S
O560 Gd511 2.545 . S
O560 C578 1.258 . S
O561 Gd510 2.362 1_554 S
O561 Gd511 2.606 . S
O561 C577 1.284 . S
O562 Gd510 2.324 . S
O562 C585 1.254 1_556 S
O563 Gd511 2.429 . S
O563 C585 1.268 . S
O564 Gd511 2.545 . S
O564 C577 1.250 . S
O565 Gd511 2.412 . S
O565 C578 1.252 . S
C566 O555 1.284 1_556 S
C566 O558 1.250 . S
C567 H536 0.929 . S
C567 C552 1.437 . S
C567 C568 1.317 . S
C568 H539 0.930 . S
C568 C544 1.431 . S
C568 C567 1.317 . S
C569 Gd510 2.828 . S
C569 O554 1.258 . S
C569 O559 1.252 . S
C569 C570 1.497 . S
C570 C569 1.497 . S
C570 C571 1.395 . S
C570 C572 1.380 . S
C571 C570 1.395 . S
C571 C574 1.398 . S
C571 H586 0.930 . S
C572 C570 1.380 . S
C572 C573 1.391 . S
C572 H587 0.930 . S
C573 C572 1.391 . S
C573 C575 1.387 . S
C574 C571 1.398 . S
C574 C575 1.380 . S
C574 H588 0.930 . S
C575 C573 1.387 . S
C575 C574 1.380 . S
C575 H589 0.930 . S
C576 O556 1.254 . S
C576 O557 1.268 1_554 S
C577 O561 1.284 . S
C577 O564 1.250 . S
C578 Gd511 2.828 . S
C578 O560 1.258 . S
C578 O565 1.252 . S
C578 C579 1.497 . S
C579 C578 1.497 . S
C579 C580 1.395 . S
C579 C581 1.380 . S
C580 C579 1.395 . S
C580 C583 1.398 . S
C580 H590 0.930 . S
C581 C579 1.380 . S
C581 C582 1.391 . S
C581 H591 0.930 . S
C582 C581 1.391 . S
C582 C584 1.387 . S
C583 C580 1.398 . S
C583 C584 1.380 . S
C583 H592 0.930 . S
C584 C582 1.387 . S
C584 C583 1.380 . S
C584 H593 0.930 . S
C585 O562 1.254 1_554 S
C585 O563 1.268 . S
H586 C571 0.930 . S
H587 C572 0.930 . S
H588 C574 0.930 . S
H589 C575 0.930 . S
H590 C580 0.930 . S
H591 C581 0.930 . S
H592 C583 0.930 . S
H593 C584 0.930 . S
Gd594 N625 2.661 . S
Gd594 N631 2.601 . S
Gd594 O638 2.545 . S
Gd594 O639 2.606 . S
Gd594 O641 2.429 . S
Gd594 O642 2.545 . S
Gd594 O643 2.412 . S
Gd594 O645 2.362 . S
Gd594 O646 2.324 . S
Gd594 C653 2.828 . S
Gd595 N604 2.661 . S
Gd595 N608 2.601 . S
Gd595 O639 2.362 . S
Gd595 O640 2.324 . S
Gd595 O644 2.545 . S
Gd595 O645 2.606 . S
Gd595 O647 2.429 . S
Gd595 O648 2.545 . S
Gd595 O649 2.412 . S
Gd595 C662 2.828 . S
C596 C599 1.417 . S
C596 C601 1.431 . S
C596 C602 1.412 . S
C597 C600 1.437 . S
C597 C601 1.317 . S
C597 H616 0.929 . S
C598 C599 1.426 . S
C598 C600 1.413 . S
C598 N608 1.359 . S
C599 C596 1.417 . S
C599 C598 1.426 . S
C599 N604 1.350 . S
C600 C597 1.437 . S
C600 C598 1.413 . S
C600 C610 1.391 . S
C601 C596 1.431 . S
C601 C597 1.317 . S
C601 H612 0.930 1_455 S
C602 C596 1.412 . S
C602 C603 1.355 . S
C602 H614 0.930 1_455 S
C603 C602 1.355 . S
C603 C605 1.402 . S
C603 H615 0.930 . S
N604 Gd595 2.661 . S
N604 C599 1.350 . S
N604 C605 1.307 . S
C605 C603 1.402 . S
C605 N604 1.307 . S
C605 H606 0.930 . S
H606 C605 0.930 . S
C607 N608 1.334 . S
C607 C609 1.394 . S
C607 H611 0.930 . S
N608 Gd595 2.601 . S
N608 C598 1.359 . S
N608 C607 1.334 . S
C609 C607 1.394 . S
C609 C610 1.359 . S
C609 H621 0.930 . S
C610 C600 1.391 . S
C610 C609 1.359 . S
C610 H622 0.929 . S
H611 C607 0.930 . S
H612 C601 0.930 1_655 S
H613 C630 0.930 . S
H614 C602 0.930 1_655 S
H615 C603 0.930 . S
H616 C597 0.929 . S
H617 C635 0.930 . S
H618 C626 0.930 . S
H619 C627 0.930 . S
H620 C651 0.929 . S
H621 C609 0.930 . S
H622 C610 0.929 . S
H623 C652 0.930 . S
H624 C633 0.930 . S
N625 Gd594 2.661 . S
N625 C629 1.350 . S
N625 C630 1.307 . S
C626 H618 0.930 . S
C626 C627 1.355 . S
C626 C628 1.412 . S
C627 H619 0.930 . S
C627 C626 1.355 . S
C627 C630 1.402 . S
C628 C626 1.412 . S
C628 C629 1.417 . S
C628 C652 1.431 . S
C629 N625 1.350 . S
C629 C628 1.417 . S
C629 C632 1.426 . S
C630 H613 0.930 . S
C630 N625 1.307 . S
C630 C627 1.402 . S
N631 Gd594 2.601 . S
N631 C632 1.359 . S
N631 C635 1.334 . S
C632 C629 1.426 . S
C632 N631 1.359 . S
C632 C636 1.413 . S
C633 H624 0.930 . S
C633 C634 1.359 . S
C633 C635 1.394 . S
C634 C633 1.359 . S
C634 C636 1.391 . S
C634 H637 0.929 . S
C635 H617 0.930 . S
C635 N631 1.334 . S
C635 C633 1.394 . S
C636 C632 1.413 . S
C636 C634 1.391 . S
C636 C651 1.437 . S
H637 C634 0.929 . S
O638 Gd594 2.545 . S
O638 C653 1.258 . S
O639 Gd594 2.606 . S
O639 Gd595 2.362 . S
O639 C650 1.284 . S
O640 Gd595 2.324 . S
O640 C660 1.254 . S
O641 Gd594 2.429 . S
O641 C660 1.268 . S
O642 Gd594 2.545 . S
O642 C650 1.250 . S
O643 Gd594 2.412 . S
O643 C653 1.252 . S
O644 Gd595 2.545 . S
O644 C662 1.258 . S
O645 Gd594 2.362 . S
O645 Gd595 2.606 . S
O645 C661 1.284 . S
O646 Gd594 2.324 . S
O646 C669 1.254 . S
O647 Gd595 2.429 . S
O647 C669 1.268 . S
O648 Gd595 2.545 . S
O648 C661 1.250 . S
O649 Gd595 2.412 . S
O649 C662 1.252 . S
C650 O639 1.284 . S
C650 O642 1.250 . S
C651 H620 0.929 . S
C651 C636 1.437 . S
C651 C652 1.317 . S
C652 H623 0.930 . S
C652 C628 1.431 . S
C652 C651 1.317 . S
C653 Gd594 2.828 . S
C653 O638 1.258 . S
C653 O643 1.252 . S
C653 C654 1.497 . S
C654 C653 1.497 . S
C654 C655 1.395 . S
C654 C656 1.380 . S
C655 C654 1.395 . S
C655 C658 1.398 . S
C655 H670 0.930 . S
C656 C654 1.380 . S
C656 C657 1.391 . S
C656 H671 0.930 . S
C657 C656 1.391 . S
C657 C659 1.387 . S
C658 C655 1.398 . S
C658 C659 1.380 . S
C658 H672 0.930 . S
C659 C657 1.387 . S
C659 C658 1.380 . S
C659 H673 0.930 . S
C660 O640 1.254 . S
C660 O641 1.268 . S
C661 O645 1.284 . S
C661 O648 1.250 . S
C662 Gd595 2.828 . S
C662 O644 1.258 . S
C662 O649 1.252 . S
C662 C663 1.497 . S
C663 C662 1.497 . S
C663 C664 1.395 . S
C663 C665 1.380 . S
C664 C663 1.395 . S
C664 C667 1.398 . S
C664 H674 0.930 . S
C665 C663 1.380 . S
C665 C666 1.391 . S
C665 H675 0.930 . S
C666 C665 1.391 . S
C666 C668 1.387 . S
C667 C664 1.398 . S
C667 C668 1.380 . S
C667 H676 0.930 . S
C668 C666 1.387 . S
C668 C667 1.380 . S
C668 H677 0.930 . S
C669 O646 1.254 . S
C669 O647 1.268 . S
H670 C655 0.930 . S
H671 C656 0.930 . S
H672 C658 0.930 . S
H673 C659 0.930 . S
H674 C664 0.930 . S
H675 C665 0.930 . S
H676 C667 0.930 . S
H677 C668 0.930 . S
Gd678 N709 2.661 . S
Gd678 N715 2.601 . S
Gd678 O722 2.545 . S
Gd678 O723 2.606 . S
Gd678 O725 2.429 . S
Gd678 O726 2.545 . S
Gd678 O727 2.412 . S
Gd678 O729 2.362 . S
Gd678 O730 2.324 . S
Gd678 C737 2.828 . S
Gd679 N688 2.661 . S
Gd679 N692 2.601 . S
Gd679 O723 2.362 . S
Gd679 O724 2.324 . S
Gd679 O728 2.545 . S
Gd679 O729 2.606 . S
Gd679 O731 2.429 . S
Gd679 O732 2.545 . S
Gd679 O733 2.412 . S
Gd679 C746 2.828 . S
C680 C683 1.417 . S
C680 C685 1.431 . S
C680 C686 1.412 . S
C681 C684 1.437 . S
C681 C685 1.317 . S
C681 H700 0.929 . S
C682 C683 1.426 . S
C682 C684 1.413 . S
C682 N692 1.359 . S
C683 C680 1.417 . S
C683 C682 1.426 . S
C683 N688 1.350 . S
C684 C681 1.437 . S
C684 C682 1.413 . S
C684 C694 1.391 . S
C685 C680 1.431 . S
C685 C681 1.317 . S
C685 H696 0.930 . S
C686 C680 1.412 . S
C686 C687 1.355 . S
C686 H698 0.930 . S
C687 C686 1.355 . S
C687 C689 1.402 . S
C687 H699 0.930 . S
N688 Gd679 2.661 . S
N688 C683 1.350 . S
N688 C689 1.307 . S
C689 C687 1.402 . S
C689 N688 1.307 . S
C689 H690 0.930 . S
H690 C689 0.930 . S
C691 N692 1.334 . S
C691 C693 1.394 . S
C691 H695 0.930 . S
N692 Gd679 2.601 . S
N692 C682 1.359 . S
N692 C691 1.334 . S
C693 C691 1.394 . S
C693 C694 1.359 . S
C693 H705 0.930 . S
C694 C684 1.391 . S
C694 C693 1.359 . S
C694 H706 0.929 . S
H695 C691 0.930 . S
H696 C685 0.930 . S
H697 C714 0.930 . S
H698 C686 0.930 . S
H699 C687 0.930 . S
H700 C681 0.929 . S
H701 C719 0.930 . S
H702 C710 0.930 . S
H703 C711 0.930 . S
H704 C735 0.929 . S
H705 C693 0.930 . S
H706 C694 0.929 . S
H707 C736 0.930 . S
H708 C717 0.930 . S
N709 Gd678 2.661 . S
N709 C713 1.350 . S
N709 C714 1.307 . S
C710 H702 0.930 . S
C710 C711 1.355 . S
C710 C712 1.412 . S
C711 H703 0.930 . S
C711 C710 1.355 . S
C711 C714 1.402 . S
C712 C710 1.412 . S
C712 C713 1.417 . S
C712 C736 1.431 . S
C713 N709 1.350 . S
C713 C712 1.417 . S
C713 C716 1.426 . S
C714 H697 0.930 . S
C714 N709 1.307 . S
C714 C711 1.402 . S
N715 Gd678 2.601 . S
N715 C716 1.359 . S
N715 C719 1.334 . S
C716 C713 1.426 . S
C716 N715 1.359 . S
C716 C720 1.413 . S
C717 H708 0.930 . S
C717 C718 1.359 . S
C717 C719 1.394 . S
C718 C717 1.359 . S
C718 C720 1.391 . S
C718 H721 0.929 . S
C719 H701 0.930 . S
C719 N715 1.334 . S
C719 C717 1.394 . S
C720 C716 1.413 . S
C720 C718 1.391 . S
C720 C735 1.437 . S
H721 C718 0.929 . S
O722 Gd678 2.545 . S
O722 C737 1.258 . S
O723 Gd678 2.606 . S
O723 Gd679 2.362 . S
O723 C734 1.284 . S
O724 Gd679 2.324 . S
O724 C744 1.254 . S
O725 Gd678 2.429 . S
O725 C744 1.268 . S
O726 Gd678 2.545 . S
O726 C734 1.250 . S
O727 Gd678 2.412 . S
O727 C737 1.252 . S
O728 Gd679 2.545 . S
O728 C746 1.258 . S
O729 Gd678 2.362 . S
O729 Gd679 2.606 . S
O729 C745 1.284 . S
O730 Gd678 2.324 . S
O730 C753 1.254 . S
O731 Gd679 2.429 . S
O731 C753 1.268 . S
O732 Gd679 2.545 . S
O732 C745 1.250 . S
O733 Gd679 2.412 . S
O733 C746 1.252 . S
C734 O723 1.284 . S
C734 O726 1.250 . S
C735 H704 0.929 . S
C735 C720 1.437 . S
C735 C736 1.317 . S
C736 H707 0.930 . S
C736 C712 1.431 . S
C736 C735 1.317 . S
C737 Gd678 2.828 . S
C737 O722 1.258 . S
C737 O727 1.252 . S
C737 C738 1.497 . S
C738 C737 1.497 . S
C738 C739 1.395 . S
C738 C740 1.380 . S
C739 C738 1.395 . S
C739 C742 1.398 . S
C739 H754 0.930 . S
C740 C738 1.380 . S
C740 C741 1.391 . S
C740 H755 0.930 . S
C741 C740 1.391 . S
C741 C743 1.387 . S
C742 C739 1.398 . S
C742 C743 1.380 . S
C742 H756 0.930 . S
C743 C741 1.387 . S
C743 C742 1.380 . S
C743 H757 0.930 . S
C744 O724 1.254 . S
C744 O725 1.268 . S
C745 O729 1.284 . S
C745 O732 1.250 . S
C746 Gd679 2.828 . S
C746 O728 1.258 . S
C746 O733 1.252 . S
C746 C747 1.497 . S
C747 C746 1.497 . S
C747 C748 1.395 . S
C747 C749 1.380 . S
C748 C747 1.395 . S
C748 C751 1.398 . S
C748 H758 0.930 . S
C749 C747 1.380 . S
C749 C750 1.391 . S
C749 H759 0.930 . S
C750 C749 1.391 . S
C750 C752 1.387 . S
C751 C748 1.398 . S
C751 C752 1.380 . S
C751 H760 0.930 . S
C752 C750 1.387 . S
C752 C751 1.380 . S
C752 H761 0.930 . S
C753 O730 1.254 . S
C753 O731 1.268 . S
H754 C739 0.930 . S
H755 C740 0.930 . S
H756 C742 0.930 . S
H757 C743 0.930 . S
H758 C748 0.930 . S
H759 C749 0.930 . S
H760 C751 0.930 . S
H761 C752 0.930 . S
Gd762 N793 2.661 . S
Gd762 N799 2.601 . S
Gd762 O806 2.545 . S
Gd762 O807 2.606 . S
Gd762 O809 2.429 . S
Gd762 O810 2.545 . S
Gd762 O811 2.412 . S
Gd762 O813 2.362 . S
Gd762 O814 2.324 . S
Gd762 C821 2.828 . S
Gd763 N772 2.661 . S
Gd763 N776 2.601 . S
Gd763 O807 2.362 . S
Gd763 O808 2.324 . S
Gd763 O812 2.545 . S
Gd763 O813 2.606 . S
Gd763 O815 2.429 . S
Gd763 O816 2.545 . S
Gd763 O817 2.412 . S
Gd763 C830 2.828 . S
C764 C767 1.417 . S
C764 C769 1.431 . S
C764 C770 1.412 . S
C765 C768 1.437 . S
C765 C769 1.317 . S
C765 H784 0.929 . S
C766 C767 1.426 . S
C766 C768 1.413 . S
C766 N776 1.359 . S
C767 C764 1.417 . S
C767 C766 1.426 . S
C767 N772 1.350 . S
C768 C765 1.437 . S
C768 C766 1.413 . S
C768 C778 1.391 . S
C769 C764 1.431 . S
C769 C765 1.317 . S
C769 H780 0.930 . S
C770 C764 1.412 . S
C770 C771 1.355 . S
C770 H782 0.930 . S
C771 C770 1.355 . S
C771 C773 1.402 . S
C771 H783 0.930 . S
N772 Gd763 2.661 . S
N772 C767 1.350 . S
N772 C773 1.307 . S
C773 C771 1.402 . S
C773 N772 1.307 . S
C773 H774 0.930 . S
H774 C773 0.930 . S
C775 N776 1.334 . S
C775 C777 1.394 . S
C775 H779 0.930 . S
N776 Gd763 2.601 . S
N776 C766 1.359 . S
N776 C775 1.334 . S
C777 C775 1.394 . S
C777 C778 1.359 . S
C777 H789 0.930 . S
C778 C768 1.391 . S
C778 C777 1.359 . S
C778 H790 0.929 . S
H779 C775 0.930 . S
H780 C769 0.930 . S
H781 C798 0.930 . S
H782 C770 0.930 . S
H783 C771 0.930 . S
H784 C765 0.929 . S
H785 C803 0.930 . S
H786 C794 0.930 . S
H787 C795 0.930 . S
H788 C819 0.929 . S
H789 C777 0.930 . S
H790 C778 0.929 . S
H791 C820 0.930 . S
H792 C801 0.930 . S
N793 Gd762 2.661 . S
N793 C797 1.350 . S
N793 C798 1.307 . S
C794 H786 0.930 . S
C794 C795 1.355 . S
C794 C796 1.412 . S
C795 H787 0.930 . S
C795 C794 1.355 . S
C795 C798 1.402 . S
C796 C794 1.412 . S
C796 C797 1.417 . S
C796 C820 1.431 . S
C797 N793 1.350 . S
C797 C796 1.417 . S
C797 C800 1.426 . S
C798 H781 0.930 . S
C798 N793 1.307 . S
C798 C795 1.402 . S
N799 Gd762 2.601 . S
N799 C800 1.359 . S
N799 C803 1.334 . S
C800 C797 1.426 . S
C800 N799 1.359 . S
C800 C804 1.413 . S
C801 H792 0.930 . S
C801 C802 1.359 . S
C801 C803 1.394 . S
C802 C801 1.359 . S
C802 C804 1.391 . S
C802 H805 0.929 . S
C803 H785 0.930 . S
C803 N799 1.334 . S
C803 C801 1.394 . S
C804 C800 1.413 . S
C804 C802 1.391 . S
C804 C819 1.437 . S
H805 C802 0.929 . S
O806 Gd762 2.545 . S
O806 C821 1.258 . S
O807 Gd762 2.606 . S
O807 Gd763 2.362 . S
O807 C818 1.284 . S
O808 Gd763 2.324 . S
O808 C828 1.254 . S
O809 Gd762 2.429 . S
O809 C828 1.268 . S
O810 Gd762 2.545 . S
O810 C818 1.250 . S
O811 Gd762 2.412 . S
O811 C821 1.252 . S
O812 Gd763 2.545 . S
O812 C830 1.258 . S
O813 Gd762 2.362 . S
O813 Gd763 2.606 . S
O813 C829 1.284 . S
O814 Gd762 2.324 . S
O814 C837 1.254 . S
O815 Gd763 2.429 . S
O815 C837 1.268 . S
O816 Gd763 2.545 . S
O816 C829 1.250 . S
O817 Gd763 2.412 . S
O817 C830 1.252 . S
C818 O807 1.284 . S
C818 O810 1.250 . S
C819 H788 0.929 . S
C819 C804 1.437 . S
C819 C820 1.317 . S
C820 H791 0.930 . S
C820 C796 1.431 . S
C820 C819 1.317 . S
C821 Gd762 2.828 . S
C821 O806 1.258 . S
C821 O811 1.252 . S
C821 C822 1.497 . S
C822 C821 1.497 . S
C822 C823 1.395 . S
C822 C824 1.380 . S
C823 C822 1.395 . S
C823 C826 1.398 . S
C823 H838 0.930 . S
C824 C822 1.380 . S
C824 C825 1.391 . S
C824 H839 0.930 . S
C825 C824 1.391 . S
C825 C827 1.387 . S
C826 C823 1.398 . S
C826 C827 1.380 . S
C826 H840 0.930 . S
C827 C825 1.387 . S
C827 C826 1.380 . S
C827 H841 0.930 . S
C828 O808 1.254 . S
C828 O809 1.268 . S
C829 O813 1.284 . S
C829 O816 1.250 . S
C830 Gd763 2.828 . S
C830 O812 1.258 . S
C830 O817 1.252 . S
C830 C831 1.497 . S
C831 C830 1.497 . S
C831 C832 1.395 . S
C831 C833 1.380 . S
C832 C831 1.395 . S
C832 C835 1.398 . S
C832 H842 0.930 . S
C833 C831 1.380 . S
C833 C834 1.391 . S
C833 H843 0.930 . S
C834 C833 1.391 . S
C834 C836 1.387 . S
C835 C832 1.398 . S
C835 C836 1.380 . S
C835 H844 0.930 . S
C836 C834 1.387 . S
C836 C835 1.380 . S
C836 H845 0.930 . S
C837 O814 1.254 . S
C837 O815 1.268 . S
H838 C823 0.930 . S
H839 C824 0.930 . S
H840 C826 0.930 . S
H841 C827 0.930 . S
H842 C832 0.930 . S
H843 C833 0.930 . S
H844 C835 0.930 . S
H845 C836 0.930 . S
Gd846 N877 2.661 . S
Gd846 N883 2.601 . S
Gd846 O890 2.545 . S
Gd846 O891 2.606 . S
Gd846 O893 2.429 . S
Gd846 O894 2.545 . S
Gd846 O895 2.412 . S
Gd846 O897 2.362 . S
Gd846 O898 2.324 . S
Gd846 C905 2.828 . S
Gd847 N856 2.661 . S
Gd847 N860 2.601 . S
Gd847 O891 2.362 . S
Gd847 O892 2.324 . S
Gd847 O896 2.545 . S
Gd847 O897 2.606 . S
Gd847 O899 2.429 . S
Gd847 O900 2.545 . S
Gd847 O901 2.412 . S
Gd847 C914 2.828 . S
C848 C851 1.417 . S
C848 C853 1.431 . S
C848 C854 1.412 . S
C849 C852 1.437 . S
C849 C853 1.317 . S
C849 H868 0.929 . S
C850 C851 1.426 . S
C850 C852 1.413 . S
C850 N860 1.359 . S
C851 C848 1.417 . S
C851 C850 1.426 . S
C851 N856 1.350 . S
C852 C849 1.437 . S
C852 C850 1.413 . S
C852 C862 1.391 . S
C853 C848 1.431 . S
C853 C849 1.317 . S
C853 H864 0.930 . S
C854 C848 1.412 . S
C854 C855 1.355 . S
C854 H866 0.930 . S
C855 C854 1.355 . S
C855 C857 1.402 . S
C855 H867 0.930 . S
N856 Gd847 2.661 . S
N856 C851 1.350 . S
N856 C857 1.307 . S
C857 C855 1.402 . S
C857 N856 1.307 . S
C857 H858 0.930 . S
H858 C857 0.930 . S
C859 N860 1.334 . S
C859 C861 1.394 . S
C859 H863 0.930 . S
N860 Gd847 2.601 . S
N860 C850 1.359 . S
N860 C859 1.334 . S
C861 C859 1.394 . S
C861 C862 1.359 . S
C861 H873 0.930 . S
C862 C852 1.391 . S
C862 C861 1.359 . S
C862 H874 0.929 . S
H863 C859 0.930 . S
H864 C853 0.930 . S
H865 C882 0.930 . S
H866 C854 0.930 . S
H867 C855 0.930 . S
H868 C849 0.929 . S
H869 C887 0.930 . S
H870 C878 0.930 . S
H871 C879 0.930 . S
H872 C903 0.929 . S
H873 C861 0.930 . S
H874 C862 0.929 . S
H875 C904 0.930 . S
H876 C885 0.930 . S
N877 Gd846 2.661 . S
N877 C881 1.350 . S
N877 C882 1.307 . S
C878 H870 0.930 . S
C878 C879 1.355 . S
C878 C880 1.412 . S
C879 H871 0.930 . S
C879 C878 1.355 . S
C879 C882 1.402 . S
C880 C878 1.412 . S
C880 C881 1.417 . S
C880 C904 1.431 . S
C881 N877 1.350 . S
C881 C880 1.417 . S
C881 C884 1.426 . S
C882 H865 0.930 . S
C882 N877 1.307 . S
C882 C879 1.402 . S
N883 Gd846 2.601 . S
N883 C884 1.359 . S
N883 C887 1.334 . S
C884 C881 1.426 . S
C884 N883 1.359 . S
C884 C888 1.413 . S
C885 H876 0.930 . S
C885 C886 1.359 . S
C885 C887 1.394 . S
C886 C885 1.359 . S
C886 C888 1.391 . S
C886 H889 0.929 . S
C887 H869 0.930 . S
C887 N883 1.334 . S
C887 C885 1.394 . S
C888 C884 1.413 . S
C888 C886 1.391 . S
C888 C903 1.437 . S
H889 C886 0.929 . S
O890 Gd846 2.545 . S
O890 C905 1.258 . S
O891 Gd846 2.606 . S
O891 Gd847 2.362 . S
O891 C902 1.284 . S
O892 Gd847 2.324 . S
O892 C912 1.254 . S
O893 Gd846 2.429 . S
O893 C912 1.268 . S
O894 Gd846 2.545 . S
O894 C902 1.250 . S
O895 Gd846 2.412 . S
O895 C905 1.252 . S
O896 Gd847 2.545 . S
O896 C914 1.258 . S
O897 Gd846 2.362 . S
O897 Gd847 2.606 . S
O897 C913 1.284 . S
O898 Gd846 2.324 . S
O898 C921 1.254 . S
O899 Gd847 2.429 . S
O899 C921 1.268 . S
O900 Gd847 2.545 . S
O900 C913 1.250 . S
O901 Gd847 2.412 . S
O901 C914 1.252 . S
C902 O891 1.284 . S
C902 O894 1.250 . S
C903 H872 0.929 . S
C903 C888 1.437 . S
C903 C904 1.317 . S
C904 H875 0.930 . S
C904 C880 1.431 . S
C904 C903 1.317 . S
C905 Gd846 2.828 . S
C905 O890 1.258 . S
C905 O895 1.252 . S
C905 C906 1.497 . S
C906 C905 1.497 . S
C906 C907 1.395 . S
C906 C908 1.380 . S
C907 C906 1.395 . S
C907 C910 1.398 . S
C907 H922 0.930 . S
C908 C906 1.380 . S
C908 C909 1.391 . S
C908 H923 0.930 . S
C909 C908 1.391 . S
C909 C911 1.387 . S
C910 C907 1.398 . S
C910 C911 1.380 . S
C910 H924 0.930 . S
C911 C909 1.387 . S
C911 C910 1.380 . S
C911 H925 0.930 . S
C912 O892 1.254 . S
C912 O893 1.268 . S
C913 O897 1.284 . S
C913 O900 1.250 . S
C914 Gd847 2.828 . S
C914 O896 1.258 . S
C914 O901 1.252 . S
C914 C915 1.497 . S
C915 C914 1.497 . S
C915 C916 1.395 . S
C915 C917 1.380 . S
C916 C915 1.395 . S
C916 C919 1.398 . S
C916 H926 0.930 . S
C917 C915 1.380 . S
C917 C918 1.391 . S
C917 H927 0.930 . S
C918 C917 1.391 . S
C918 C920 1.387 . S
C919 C916 1.398 . S
C919 C920 1.380 . S
C919 H928 0.930 . S
C920 C918 1.387 . S
C920 C919 1.380 . S
C920 H929 0.930 . S
C921 O898 1.254 . S
C921 O899 1.268 . S
H922 C907 0.930 . S
H923 C908 0.930 . S
H924 C910 0.930 . S
H925 C911 0.930 . S
H926 C916 0.930 . S
H927 C917 0.930 . S
H928 C919 0.930 . S
H929 C920 0.930 . S
Gd930 N961 2.661 . S
Gd930 N967 2.601 . S
Gd930 O974 2.545 . S
Gd930 O975 2.606 . S
Gd930 O977 2.429 . S
Gd930 O978 2.545 . S
Gd930 O979 2.412 . S
Gd930 O981 2.362 . S
Gd930 O982 2.324 . S
Gd930 C989 2.828 . S
Gd931 N940 2.661 . S
Gd931 N944 2.601 . S
Gd931 O975 2.362 . S
Gd931 O976 2.324 . S
Gd931 O980 2.545 . S
Gd931 O981 2.606 . S
Gd931 O983 2.429 . S
Gd931 O984 2.545 . S
Gd931 O985 2.412 . S
Gd931 C998 2.828 . S
C932 C935 1.417 . S
C932 C937 1.431 . S
C932 C938 1.412 . S
C933 C936 1.437 . S
C933 C937 1.317 . S
C933 H952 0.929 . S
C934 C935 1.426 . S
C934 C936 1.413 . S
C934 N944 1.359 . S
C935 C932 1.417 . S
C935 C934 1.426 . S
C935 N940 1.350 . S
C936 C933 1.437 . S
C936 C934 1.413 . S
C936 C946 1.391 . S
C937 C932 1.431 . S
C937 C933 1.317 . S
C937 H948 0.930 . S
C938 C932 1.412 . S
C938 C939 1.355 . S
C938 H950 0.930 . S
C939 C938 1.355 . S
C939 C941 1.402 . S
C939 H951 0.930 . S
N940 Gd931 2.661 . S
N940 C935 1.350 . S
N940 C941 1.307 . S
C941 C939 1.402 . S
C941 N940 1.307 . S
C941 H942 0.930 . S
H942 C941 0.930 . S
C943 N944 1.334 . S
C943 C945 1.394 . S
C943 H947 0.930 . S
N944 Gd931 2.601 . S
N944 C934 1.359 . S
N944 C943 1.334 . S
C945 C943 1.394 . S
C945 C946 1.359 . S
C945 H957 0.930 . S
C946 C936 1.391 . S
C946 C945 1.359 . S
C946 H958 0.929 . S
H947 C943 0.930 . S
H948 C937 0.930 . S
H949 C966 0.930 . S
H950 C938 0.930 . S
H951 C939 0.930 . S
H952 C933 0.929 . S
H953 C971 0.930 . S
H954 C962 0.930 . S
H955 C963 0.930 . S
H956 C987 0.929 . S
H957 C945 0.930 . S
H958 C946 0.929 . S
H959 C988 0.930 . S
H960 C969 0.930 . S
N961 Gd930 2.661 . S
N961 C965 1.350 . S
N961 C966 1.307 . S
C962 H954 0.930 . S
C962 C963 1.355 . S
C962 C964 1.412 . S
C963 H955 0.930 . S
C963 C962 1.355 . S
C963 C966 1.402 . S
C964 C962 1.412 . S
C964 C965 1.417 . S
C964 C988 1.431 . S
C965 N961 1.350 . S
C965 C964 1.417 . S
C965 C968 1.426 . S
C966 H949 0.930 . S
C966 N961 1.307 . S
C966 C963 1.402 . S
N967 Gd930 2.601 . S
N967 C968 1.359 . S
N967 C971 1.334 . S
C968 C965 1.426 . S
C968 N967 1.359 . S
C968 C972 1.413 . S
C969 H960 0.930 . S
C969 C970 1.359 . S
C969 C971 1.394 . S
C970 C969 1.359 . S
C970 C972 1.391 . S
C970 H973 0.929 . S
C971 H953 0.930 . S
C971 N967 1.334 . S
C971 C969 1.394 . S
C972 C968 1.413 . S
C972 C970 1.391 . S
C972 C987 1.437 . S
H973 C970 0.929 . S
O974 Gd930 2.545 . S
O974 C989 1.258 . S
O975 Gd930 2.606 . S
O975 Gd931 2.362 . S
O975 C986 1.284 . S
O976 Gd931 2.324 . S
O976 C996 1.254 . S
O977 Gd930 2.429 . S
O977 C996 1.268 . S
O978 Gd930 2.545 . S
O978 C986 1.250 . S
O979 Gd930 2.412 . S
O979 C989 1.252 . S
O980 Gd931 2.545 . S
O980 C998 1.258 . S
O981 Gd930 2.362 . S
O981 Gd931 2.606 . S
O981 C997 1.284 . S
O982 Gd930 2.324 . S
O982 C1005 1.254 . S
O983 Gd931 2.429 . S
O983 C1005 1.268 . S
O984 Gd931 2.545 . S
O984 C997 1.250 . S
O985 Gd931 2.412 . S
O985 C998 1.252 . S
C986 O975 1.284 . S
C986 O978 1.250 . S
C987 H956 0.929 . S
C987 C972 1.437 . S
C987 C988 1.317 . S
C988 H959 0.930 . S
C988 C964 1.431 . S
C988 C987 1.317 . S
C989 Gd930 2.828 . S
C989 O974 1.258 . S
C989 O979 1.252 . S
C989 C990 1.497 . S
C990 C989 1.497 . S
C990 C991 1.395 . S
C990 C992 1.380 . S
C991 C990 1.395 . S
C991 C994 1.398 . S
C991 H1006 0.930 . S
C992 C990 1.380 . S
C992 C993 1.391 . S
C992 H1007 0.930 . S
C993 C992 1.391 . S
C993 C995 1.387 . S
C994 C991 1.398 . S
C994 C995 1.380 . S
C994 H1008 0.930 . S
C995 C993 1.387 . S
C995 C994 1.380 . S
C995 H1009 0.930 . S
C996 O976 1.254 . S
C996 O977 1.268 . S
C997 O981 1.284 . S
C997 O984 1.250 . S
C998 Gd931 2.828 . S
C998 O980 1.258 . S
C998 O985 1.252 . S
C998 C999 1.497 . S
C999 C998 1.497 . S
C999 C1000 1.395 . S
C999 C1001 1.380 . S
C1000 C999 1.395 . S
C1000 C1003 1.398 . S
C1000 H1010 0.930 . S
C1001 C999 1.380 . S
C1001 C1002 1.391 . S
C1001 H1011 0.930 . S
C1002 C1001 1.391 . S
C1002 C1004 1.387 . S
C1003 C1000 1.398 . S
C1003 C1004 1.380 . S
C1003 H1012 0.930 . S
C1004 C1002 1.387 . S
C1004 C1003 1.380 . S
C1004 H1013 0.930 . S
C1005 O982 1.254 . S
C1005 O983 1.268 . S
H1006 C991 0.930 . S
H1007 C992 0.930 . S
H1008 C994 0.930 . S
H1009 C995 0.930 . S
H1010 C1000 0.930 . S
H1011 C1001 0.930 . S
H1012 C1003 0.930 . S
H1013 C1004 0.930 . S
Gd1014 N1045 2.661 . S
Gd1014 N1051 2.601 . S
Gd1014 O1058 2.545 . S
Gd1014 O1059 2.606 . S
Gd1014 O1061 2.429 . S
Gd1014 O1062 2.545 . S
Gd1014 O1063 2.412 . S
Gd1014 O1065 2.362 . S
Gd1014 O1066 2.324 . S
Gd1014 C1073 2.828 . S
Gd1015 N1024 2.661 . S
Gd1015 N1028 2.601 . S
Gd1015 O1059 2.362 . S
Gd1015 O1060 2.324 . S
Gd1015 O1064 2.545 . S
Gd1015 O1065 2.606 . S
Gd1015 O1067 2.429 . S
Gd1015 O1068 2.545 . S
Gd1015 O1069 2.412 . S
Gd1015 C1082 2.828 . S
C1016 C1019 1.417 . S
C1016 C1021 1.431 . S
C1016 C1022 1.412 . S
C1017 C1020 1.437 . S
C1017 C1021 1.317 . S
C1017 H1036 0.929 . S
C1018 C1019 1.426 . S
C1018 C1020 1.413 . S
C1018 N1028 1.359 . S
C1019 C1016 1.417 . S
C1019 C1018 1.426 . S
C1019 N1024 1.350 . S
C1020 C1017 1.437 . S
C1020 C1018 1.413 . S
C1020 C1030 1.391 . S
C1021 C1016 1.431 . S
C1021 C1017 1.317 . S
C1021 H1032 0.930 1_655 S
C1022 C1016 1.412 . S
C1022 C1023 1.355 . S
C1022 H1034 0.930 1_655 S
C1023 C1022 1.355 . S
C1023 C1025 1.402 . S
C1023 H1035 0.930 . S
N1024 Gd1015 2.661 . S
N1024 C1019 1.350 . S
N1024 C1025 1.307 . S
C1025 C1023 1.402 . S
C1025 N1024 1.307 . S
C1025 H1026 0.930 . S
H1026 C1025 0.930 . S
C1027 N1028 1.334 . S
C1027 C1029 1.394 . S
C1027 H1031 0.930 . S
N1028 Gd1015 2.601 . S
N1028 C1018 1.359 . S
N1028 C1027 1.334 . S
C1029 C1027 1.394 . S
C1029 C1030 1.359 . S
C1029 H1041 0.930 . S
C1030 C1020 1.391 . S
C1030 C1029 1.359 . S
C1030 H1042 0.929 . S
H1031 C1027 0.930 . S
H1032 C1021 0.930 1_455 S
H1033 C1050 0.930 . S
H1034 C1022 0.930 1_455 S
H1035 C1023 0.930 . S
H1036 C1017 0.929 . S
H1037 C1055 0.930 . S
H1038 C1046 0.930 . S
H1039 C1047 0.930 . S
H1040 C1071 0.929 . S
H1041 C1029 0.930 . S
H1042 C1030 0.929 . S
H1043 C1072 0.930 . S
H1044 C1053 0.930 . S
N1045 Gd1014 2.661 . S
N1045 C1049 1.350 . S
N1045 C1050 1.307 . S
C1046 H1038 0.930 . S
C1046 C1047 1.355 . S
C1046 C1048 1.412 . S
C1047 H1039 0.930 . S
C1047 C1046 1.355 . S
C1047 C1050 1.402 . S
C1048 C1046 1.412 . S
C1048 C1049 1.417 . S
C1048 C1072 1.431 . S
C1049 N1045 1.350 . S
C1049 C1048 1.417 . S
C1049 C1052 1.426 . S
C1050 H1033 0.930 . S
C1050 N1045 1.307 . S
C1050 C1047 1.402 . S
N1051 Gd1014 2.601 . S
N1051 C1052 1.359 . S
N1051 C1055 1.334 . S
C1052 C1049 1.426 . S
C1052 N1051 1.359 . S
C1052 C1056 1.413 . S
C1053 H1044 0.930 . S
C1053 C1054 1.359 . S
C1053 C1055 1.394 . S
C1054 C1053 1.359 . S
C1054 C1056 1.391 . S
C1054 H1057 0.929 . S
C1055 H1037 0.930 . S
C1055 N1051 1.334 . S
C1055 C1053 1.394 . S
C1056 C1052 1.413 . S
C1056 C1054 1.391 . S
C1056 C1071 1.437 . S
H1057 C1054 0.929 . S
O1058 Gd1014 2.545 . S
O1058 C1073 1.258 . S
O1059 Gd1014 2.606 . S
O1059 Gd1015 2.362 . S
O1059 C1070 1.284 . S
O1060 Gd1015 2.324 . S
O1060 C1080 1.254 . S
O1061 Gd1014 2.429 . S
O1061 C1080 1.268 . S
O1062 Gd1014 2.545 . S
O1062 C1070 1.250 . S
O1063 Gd1014 2.412 . S
O1063 C1073 1.252 . S
O1064 Gd1015 2.545 . S
O1064 C1082 1.258 . S
O1065 Gd1014 2.362 . S
O1065 Gd1015 2.606 . S
O1065 C1081 1.284 . S
O1066 Gd1014 2.324 . S
O1066 C1089 1.254 . S
O1067 Gd1015 2.429 . S
O1067 C1089 1.268 . S
O1068 Gd1015 2.545 . S
O1068 C1081 1.250 . S
O1069 Gd1015 2.412 . S
O1069 C1082 1.252 . S
C1070 O1059 1.284 . S
C1070 O1062 1.250 . S
C1071 H1040 0.929 . S
C1071 C1056 1.437 . S
C1071 C1072 1.317 . S
C1072 H1043 0.930 . S
C1072 C1048 1.431 . S
C1072 C1071 1.317 . S
C1073 Gd1014 2.828 . S
C1073 O1058 1.258 . S
C1073 O1063 1.252 . S
C1073 C1074 1.497 . S
C1074 C1073 1.497 . S
C1074 C1075 1.395 . S
C1074 C1076 1.380 . S
C1075 C1074 1.395 . S
C1075 C1078 1.398 . S
C1075 H1090 0.930 . S
C1076 C1074 1.380 . S
C1076 C1077 1.391 . S
C1076 H1091 0.930 . S
C1077 C1076 1.391 . S
C1077 C1079 1.387 . S
C1078 C1075 1.398 . S
C1078 C1079 1.380 . S
C1078 H1092 0.930 . S
C1079 C1077 1.387 . S
C1079 C1078 1.380 . S
C1079 H1093 0.930 . S
C1080 O1060 1.254 . S
C1080 O1061 1.268 . S
C1081 O1065 1.284 . S
C1081 O1068 1.250 . S
C1082 Gd1015 2.828 . S
C1082 O1064 1.258 . S
C1082 O1069 1.252 . S
C1082 C1083 1.497 . S
C1083 C1082 1.497 . S
C1083 C1084 1.395 . S
C1083 C1085 1.380 . S
C1084 C1083 1.395 . S
C1084 C1087 1.398 . S
C1084 H1094 0.930 . S
C1085 C1083 1.380 . S
C1085 C1086 1.391 . S
C1085 H1095 0.930 . S
C1086 C1085 1.391 . S
C1086 C1088 1.387 . S
C1087 C1084 1.398 . S
C1087 C1088 1.380 . S
C1087 H1096 0.930 . S
C1088 C1086 1.387 . S
C1088 C1087 1.380 . S
C1088 H1097 0.930 . S
C1089 O1066 1.254 . S
C1089 O1067 1.268 . S
H1090 C1075 0.930 . S
H1091 C1076 0.930 . S
H1092 C1078 0.930 . S
H1093 C1079 0.930 . S
H1094 C1084 0.930 . S
H1095 C1085 0.930 . S
H1096 C1087 0.930 . S
H1097 C1088 0.930 . S
H1098 C1104 0.930 . S
H1099 C1108 0.930 . S
H1100 C1113 0.929 . S
H1101 C1111 0.929 . S
H1102 C1106 0.929 . S
H1103 C1112 0.929 . S
C1104 H1098 0.930 . S
C1104 C1105 1.367 . S
C1104 C1112 1.378 . S
C1105 C1104 1.367 . S
C1105 C1113 1.433 . S
C1106 H1102 0.929 . S
C1106 C1108 1.378 . S
C1106 C1110 1.350 . S
C1107 C1110 1.463 . S
C1107 C1112 1.350 . S
C1107 N1115 1.427 . S
C1108 H1099 0.930 . S
C1108 C1106 1.378 . S
C1108 C1109 1.367 . S
C1109 C1108 1.367 . S
C1109 C1111 1.433 . S
C1110 C1106 1.350 . S
C1110 C1107 1.463 . S
C1110 N1114 1.427 . S
C1111 H1101 0.929 . S
C1111 C1109 1.433 . S
C1111 N1114 1.384 . S
C1112 H1103 0.929 . S
C1112 C1104 1.378 . S
C1112 C1107 1.350 . S
C1113 H1100 0.929 . S
C1113 C1105 1.433 . S
C1113 N1115 1.384 . S
N1114 C1110 1.427 . S
N1114 C1111 1.384 . S
N1115 C1107 1.427 . S
N1115 C1113 1.384 . S
H1116 C1122 0.930 . S
H1117 C1126 0.930 1_556 S
H1118 C1131 0.929 . S
H1119 C1129 0.929 . S
H1120 C1124 0.929 . S
H1121 C1130 0.929 . S
C1122 H1116 0.930 . S
C1122 C1123 1.367 . S
C1122 C1130 1.378 . S
C1123 C1122 1.367 . S
C1123 C1131 1.433 . S
C1124 H1120 0.929 . S
C1124 C1126 1.378 . S
C1124 C1128 1.350 . S
C1125 C1128 1.463 . S
C1125 C1130 1.350 . S
C1125 N1133 1.427 . S
C1126 H1117 0.930 1_554 S
C1126 C1124 1.378 . S
C1126 C1127 1.367 . S
C1127 C1126 1.367 . S
C1127 C1129 1.433 . S
C1128 C1124 1.350 . S
C1128 C1125 1.463 . S
C1128 N1132 1.427 . S
C1129 H1119 0.929 . S
C1129 C1127 1.433 . S
C1129 N1132 1.384 . S
C1130 H1121 0.929 . S
C1130 C1122 1.378 . S
C1130 C1125 1.350 . S
C1131 H1118 0.929 . S
C1131 C1123 1.433 . S
C1131 N1133 1.384 . S
N1132 C1128 1.427 . S
N1132 C1129 1.384 . S
N1133 C1125 1.427 . S
N1133 C1131 1.384 . S
H1134 C1140 0.930 . S
H1135 C1144 0.930 1_556 S
H1136 C1149 0.929 . S
H1137 C1147 0.929 . S
H1138 C1142 0.929 . S
H1139 C1148 0.929 . S
C1140 H1134 0.930 . S
C1140 C1141 1.367 . S
C1140 C1148 1.378 . S
C1141 C1140 1.367 . S
C1141 C1149 1.433 . S
C1142 H1138 0.929 . S
C1142 C1144 1.378 . S
C1142 C1146 1.350 . S
C1143 C1146 1.463 . S
C1143 C1148 1.350 . S
C1143 N1151 1.427 . S
C1144 H1135 0.930 1_554 S
C1144 C1142 1.378 . S
C1144 C1145 1.367 . S
C1145 C1144 1.367 . S
C1145 C1147 1.433 . S
C1146 C1142 1.350 . S
C1146 C1143 1.463 . S
C1146 N1150 1.427 . S
C1147 H1137 0.929 . S
C1147 C1145 1.433 . S
C1147 N1150 1.384 . S
C1148 H1139 0.929 . S
C1148 C1140 1.378 . S
C1148 C1143 1.350 . S
C1149 H1136 0.929 . S
C1149 C1141 1.433 . S
C1149 N1151 1.384 . S
N1150 C1146 1.427 . S
N1150 C1147 1.384 . S
N1151 C1143 1.427 . S
N1151 C1149 1.384 . S
H1152 C1158 0.930 . S
H1153 C1162 0.930 . S
H1154 C1167 0.929 . S
H1155 C1165 0.956 . S
H1156 C1160 0.929 . S
H1157 C1166 0.929 . S
C1158 H1152 0.930 . S
C1158 C1159 1.367 . S
C1158 C1166 1.378 . S
C1159 C1158 1.367 . S
C1159 C1167 1.433 . S
C1160 H1156 0.929 . S
C1160 C1162 1.378 . S
C1160 C1164 1.350 . S
C1161 C1164 1.463 . S
C1161 C1166 1.350 . S
C1161 N1169 1.427 . S
C1162 H1153 0.930 . S
C1162 C1160 1.378 . S
C1162 C1163 1.367 . S
C1163 C1162 1.367 . S
C1163 C1165 1.421 1_556 S
C1164 C1160 1.350 . S
C1164 C1161 1.463 . S
C1164 N1168 1.427 . S
C1165 H1155 0.956 . S
C1165 C1163 1.421 1_554 S
C1165 N1168 1.371 1_554 S
C1166 H1157 0.929 . S
C1166 C1158 1.378 . S
C1166 C1161 1.350 . S
C1167 H1154 0.929 . S
C1167 C1159 1.433 . S
C1167 N1169 1.384 . S
N1168 C1164 1.427 . S
N1168 C1165 1.371 1_556 S
N1169 C1161 1.427 . S
N1169 C1167 1.384 . S
H1170 C1176 0.930 . S
H1171 C1180 0.930 . S
H1172 C1185 0.929 . S
H1173 C1183 0.929 . S
H1174 C1178 0.929 . S
H1175 C1184 0.929 . S
C1176 H1170 0.930 . S
C1176 C1177 1.367 . S
C1176 C1184 1.378 . S
C1177 C1176 1.367 . S
C1177 C1185 1.433 . S
C1178 H1174 0.929 . S
C1178 C1180 1.378 . S
C1178 C1182 1.350 1_554 S
C1179 C1182 1.463 . S
C1179 C1184 1.350 . S
C1179 N1187 1.427 . S
C1180 H1171 0.930 . S
C1180 C1178 1.378 . S
C1180 C1181 1.367 1_554 S
C1181 C1180 1.367 1_556 S
C1181 C1183 1.433 . S
C1182 C1178 1.350 1_556 S
C1182 C1179 1.463 . S
C1182 N1186 1.427 . S
C1183 H1173 0.929 . S
C1183 C1181 1.433 . S
C1183 N1186 1.384 . S
C1184 H1175 0.929 . S
C1184 C1176 1.378 . S
C1184 C1179 1.350 . S
C1185 H1172 0.929 . S
C1185 C1177 1.433 . S
C1185 N1187 1.384 . S
N1186 C1182 1.427 . S
N1186 C1183 1.384 . S
N1187 C1179 1.427 . S
N1187 C1185 1.384 . S
H1188 C1194 0.930 . S
H1189 C1198 0.930 . S
H1190 C1203 0.929 . S
H1191 C1201 0.929 . S
H1192 C1196 0.929 . S
H1193 C1202 0.929 . S
C1194 H1188 0.930 . S
C1194 C1195 1.367 . S
C1194 C1202 1.378 . S
C1195 C1194 1.367 . S
C1195 C1203 1.433 . S
C1196 H1192 0.929 . S
C1196 C1198 1.378 . S
C1196 C1200 1.350 1_554 S
C1197 C1200 1.463 . S
C1197 C1202 1.350 . S
C1197 N1205 1.427 . S
C1198 H1189 0.930 . S
C1198 C1196 1.378 . S
C1198 C1199 1.367 1_554 S
C1199 C1198 1.367 1_556 S
C1199 C1201 1.433 . S
C1200 C1196 1.350 1_556 S
C1200 C1197 1.463 . S
C1200 N1204 1.427 . S
C1201 H1191 0.929 . S
C1201 C1199 1.433 . S
C1201 N1204 1.384 . S
C1202 H1193 0.929 . S
C1202 C1194 1.378 . S
C1202 C1197 1.350 . S
C1203 H1190 0.929 . S
C1203 C1195 1.433 . S
C1203 N1205 1.384 . S
N1204 C1200 1.427 . S
N1204 C1201 1.384 . S
N1205 C1197 1.427 . S
N1205 C1203 1.384 . S
H1206 C1212 0.930 . S
H1207 C1216 0.930 . S
H1208 C1221 0.953 . S
H1209 C1219 0.929 . S
H1210 C1214 0.929 . S
H1211 C1220 0.929 . S
C1212 H1206 0.930 . S
C1212 C1213 1.367 . S
C1212 C1220 1.378 . S
C1213 C1212 1.367 . S
C1213 C1221 1.404 1_556 S
C1214 H1210 0.929 . S
C1214 C1216 1.378 . S
C1214 C1218 1.350 1_554 S
C1215 C1218 1.463 . S
C1215 C1220 1.350 . S
C1215 N1223 1.427 1_556 S
C1216 H1207 0.930 . S
C1216 C1214 1.378 . S
C1216 C1217 1.367 1_554 S
C1217 C1216 1.367 1_556 S
C1217 C1219 1.433 . S
C1218 C1214 1.350 1_556 S
C1218 C1215 1.463 . S
C1218 N1222 1.427 . S
C1219 H1209 0.929 . S
C1219 C1217 1.433 . S
C1219 N1222 1.384 . S
C1220 H1211 0.929 . S
C1220 C1212 1.378 . S
C1220 C1215 1.350 . S
C1221 H1208 0.953 . S
C1221 C1213 1.404 1_554 S
C1221 N1223 1.389 . S
N1222 C1218 1.427 . S
N1222 C1219 1.384 . S
N1223 C1215 1.427 1_554 S
N1223 C1221 1.389 . S
H1224 C1230 0.930 1_554 S
H1225 C1234 0.930 . S
H1226 C1239 0.929 . S
H1227 C1237 0.929 . S
H1228 C1232 0.929 . S
H1229 C1238 0.929 1_554 S
C1230 H1224 0.930 1_556 S
C1230 C1231 1.367 . S
C1230 C1238 1.378 . S
C1231 C1230 1.367 . S
C1231 C1239 1.433 . S
C1232 H1228 0.929 . S
C1232 C1234 1.378 . S
C1232 C1236 1.350 . S
C1233 C1236 1.463 . S
C1233 C1238 1.350 . S
C1233 N1241 1.427 . S
C1234 H1225 0.930 . S
C1234 C1232 1.378 . S
C1234 C1235 1.367 . S
C1235 C1234 1.367 . S
C1235 C1237 1.433 1_556 S
C1236 C1232 1.350 . S
C1236 C1233 1.463 . S
C1236 N1240 1.427 1_556 S
C1237 H1227 0.929 . S
C1237 C1235 1.433 1_554 S
C1237 N1240 1.384 . S
C1238 H1229 0.929 1_556 S
C1238 C1230 1.378 . S
C1238 C1233 1.350 . S
C1239 H1226 0.929 . S
C1239 C1231 1.433 . S
C1239 N1241 1.384 . S
N1240 C1236 1.427 1_554 S
N1240 C1237 1.384 . S
N1241 C1233 1.427 . S
N1241 C1239 1.384 . S
H1242 C1248 0.930 . S
H1243 C1252 0.930 . S
H1244 C1257 0.929 . S
H1245 C1255 0.929 . S
H1246 C1250 0.929 . S
H1247 C1256 0.929 . S
C1248 H1242 0.930 . S
C1248 C1249 1.367 1_554 S
C1248 C1256 1.378 . S
C1249 C1248 1.367 1_556 S
C1249 C1257 1.433 . S
C1250 H1246 0.929 . S
C1250 C1252 1.378 . S
C1250 C1254 1.350 . S
C1251 C1254 1.463 . S
C1251 C1256 1.350 1_556 S
C1251 N1259 1.427 . S
C1252 H1243 0.930 . S
C1252 C1250 1.378 . S
C1252 C1253 1.405 . S
C1253 C1252 1.405 . S
C1253 C1255 1.400 1_556 S
C1254 C1250 1.350 . S
C1254 C1251 1.463 . S
C1254 N1258 1.427 1_556 S
C1255 H1245 0.929 . S
C1255 C1253 1.400 1_554 S
C1255 N1258 1.384 . S
C1256 H1247 0.929 . S
C1256 C1248 1.378 . S
C1256 C1251 1.350 1_554 S
C1257 H1244 0.929 . S
C1257 C1249 1.433 . S
C1257 N1259 1.384 . S
N1258 C1254 1.427 1_554 S
N1258 C1255 1.384 . S
N1259 C1251 1.427 . S
N1259 C1257 1.384 . S
H1260 C1266 0.930 . S
H1261 C1270 0.930 . S
H1262 C1275 0.929 . S
H1263 C1273 0.929 . S
H1264 C1268 0.929 . S
H1265 C1274 0.929 . S
C1266 H1260 0.930 . S
C1266 C1267 1.367 . S
C1266 C1274 1.378 . S
C1267 C1266 1.367 . S
C1267 C1275 1.433 . S
C1268 H1264 0.929 . S
C1268 C1270 1.378 . S
C1268 C1272 1.350 . S
C1269 C1272 1.463 . S
C1269 C1274 1.350 . S
C1269 N1277 1.427 . S
C1270 H1261 0.930 . S
C1270 C1268 1.378 . S
C1270 C1271 1.367 . S
C1271 C1270 1.367 . S
C1271 C1273 1.433 . S
C1272 C1268 1.350 . S
C1272 C1269 1.463 . S
C1272 N1276 1.427 . S
C1273 H1263 0.929 . S
C1273 C1271 1.433 . S
C1273 N1276 1.384 . S
C1274 H1265 0.929 . S
C1274 C1266 1.378 . S
C1274 C1269 1.350 . S
C1275 H1262 0.929 . S
C1275 C1267 1.433 . S
C1275 N1277 1.384 . S
N1276 C1272 1.427 . S
N1276 C1273 1.384 . S
N1277 C1269 1.427 . S
N1277 C1275 1.384 . S
H1278 C1284 0.930 . S
H1279 C1288 0.930 1_556 S
H1280 C1293 0.929 . S
H1281 C1291 0.929 . S
H1282 C1286 0.929 . S
H1283 C1292 0.929 . S
C1284 H1278 0.930 . S
C1284 C1285 1.367 . S
C1284 C1292 1.378 . S
C1285 C1284 1.367 . S
C1285 C1293 1.433 . S
C1286 H1282 0.929 . S
C1286 C1288 1.378 . S
C1286 C1290 1.350 . S
C1287 C1290 1.463 . S
C1287 C1292 1.350 . S
C1287 N1295 1.427 . S
C1288 H1279 0.930 1_554 S
C1288 C1286 1.378 . S
C1288 C1289 1.367 . S
C1289 C1288 1.367 . S
C1289 C1291 1.433 . S
C1290 C1286 1.350 . S
C1290 C1287 1.463 . S
C1290 N1294 1.427 . S
C1291 H1281 0.929 . S
C1291 C1289 1.433 . S
C1291 N1294 1.384 . S
C1292 H1283 0.929 . S
C1292 C1284 1.378 . S
C1292 C1287 1.350 . S
C1293 H1280 0.929 . S
C1293 C1285 1.433 . S
C1293 N1295 1.384 . S
N1294 C1290 1.427 . S
N1294 C1291 1.384 . S
N1295 C1287 1.427 . S
N1295 C1293 1.384 . S
H1296 C1302 0.930 . S
H1297 C1306 0.930 . S
H1298 C1311 0.929 . S
H1299 C1309 0.929 1_556 S
H1300 C1304 0.929 . S
H1301 C1310 0.935 . S
C1302 H1296 0.930 . S
C1302 C1303 1.367 . S
C1302 C1310 1.378 . S
C1303 C1302 1.367 . S
C1303 C1311 1.433 . S
C1304 H1300 0.929 . S
C1304 C1306 1.378 . S
C1304 C1308 1.350 . S
C1305 C1308 1.463 . S
C1305 C1310 1.350 . S
C1305 N1313 1.427 . S
C1306 H1297 0.930 . S
C1306 C1304 1.378 . S
C1306 C1307 1.367 . S
C1307 C1306 1.367 . S
C1307 C1309 1.433 . S
C1308 C1304 1.350 . S
C1308 C1305 1.463 . S
C1308 N1312 1.427 . S
C1309 H1299 0.929 1_554 S
C1309 C1307 1.433 . S
C1309 N1312 1.384 . S
C1310 H1301 0.935 . S
C1310 C1302 1.378 . S
C1310 C1305 1.350 . S
C1311 H1298 0.929 . S
C1311 C1303 1.433 . S
C1311 N1313 1.384 . S
N1312 C1308 1.427 . S
N1312 C1309 1.384 . S
N1313 C1305 1.427 . S
N1313 C1311 1.384 . S
H1314 C1320 0.930 . S
H1315 C1324 0.930 . S
H1316 C1329 0.929 . S
H1317 C1327 0.929 . S
H1318 C1322 0.929 . S
H1319 C1328 0.929 . S
C1320 H1314 0.930 . S
C1320 C1321 1.367 . S
C1320 C1328 1.378 . S
C1321 C1320 1.367 . S
C1321 C1329 1.433 . S
C1322 H1318 0.929 . S
C1322 C1324 1.378 . S
C1322 C1326 1.350 . S
C1323 C1326 1.463 1_655 S
C1323 C1328 1.350 . S
C1323 N1331 1.427 . S
C1324 H1315 0.930 . S
C1324 C1322 1.378 . S
C1324 C1325 1.367 . S
C1325 C1324 1.367 . S
C1325 C1327 1.433 . S
C1326 C1322 1.350 . S
C1326 C1323 1.463 1_455 S
C1326 N1330 1.427 . S
C1327 H1317 0.929 . S
C1327 C1325 1.433 . S
C1327 N1330 1.384 . S
C1328 H1319 0.929 . S
C1328 C1320 1.378 . S
C1328 C1323 1.350 . S
C1329 H1316 0.929 . S
C1329 C1321 1.433 . S
C1329 N1331 1.384 . S
N1330 C1326 1.427 . S
N1330 C1327 1.384 . S
N1331 C1323 1.427 . S
N1331 C1329 1.384 . S
H1332 C1338 0.930 . S
H1333 C1342 0.930 . S
H1334 C1347 0.929 . S
H1335 C1345 0.929 . S
H1336 C1340 0.929 . S
H1337 C1346 0.929 . S
C1338 H1332 0.930 . S
C1338 C1339 1.367 . S
C1338 C1346 1.378 . S
C1339 C1338 1.367 . S
C1339 C1347 1.433 . S
C1340 H1336 0.929 . S
C1340 C1342 1.378 . S
C1340 C1344 1.350 . S
C1341 C1344 1.463 . S
C1341 C1346 1.350 . S
C1341 N1349 1.427 . S
C1342 H1333 0.930 . S
C1342 C1340 1.378 . S
C1342 C1343 1.367 . S
C1343 C1342 1.367 . S
C1343 C1345 1.433 . S
C1344 C1340 1.350 . S
C1344 C1341 1.463 . S
C1344 N1348 1.427 . S
C1345 H1335 0.929 . S
C1345 C1343 1.433 . S
C1345 N1348 1.384 . S
C1346 H1337 0.929 . S
C1346 C1338 1.378 . S
C1346 C1341 1.350 . S
C1347 H1334 0.929 . S
C1347 C1339 1.433 . S
C1347 N1349 1.384 . S
N1348 C1344 1.427 . S
N1348 C1345 1.384 . S
N1349 C1341 1.427 . S
N1349 C1347 1.384 . S
H1350 C1356 0.930 . S
H1351 C1360 0.930 . S
H1352 C1365 0.929 . S
H1353 C1363 0.929 . S
H1354 C1358 0.929 . S
H1355 C1364 0.929 . S
C1356 H1350 0.930 . S
C1356 C1357 1.367 . S
C1356 C1364 1.378 . S
C1357 C1356 1.367 . S
C1357 C1365 1.433 . S
C1358 H1354 0.929 . S
C1358 C1360 1.378 . S
C1358 C1362 1.350 . S
C1359 C1362 1.463 1_545 S
C1359 C1364 1.350 . S
C1359 N1367 1.427 . S
C1360 H1351 0.930 . S
C1360 C1358 1.378 . S
C1360 C1361 1.367 . S
C1361 C1360 1.367 . S
C1361 C1363 1.433 . S
C1362 C1358 1.350 . S
C1362 C1359 1.463 1_565 S
C1362 N1366 1.427 . S
C1363 H1353 0.929 . S
C1363 C1361 1.433 . S
C1363 N1366 1.384 . S
C1364 H1355 0.929 . S
C1364 C1356 1.378 . S
C1364 C1359 1.350 . S
C1365 H1352 0.929 . S
C1365 C1357 1.433 . S
C1365 N1367 1.384 . S
N1366 C1362 1.427 . S
N1366 C1363 1.384 . S
N1367 C1359 1.427 . S
N1367 C1365 1.384 . S
H1368 C1374 0.930 . S
H1369 C1378 0.930 . S
H1370 C1383 0.929 . S
H1371 C1381 0.929 . S
H1372 C1376 0.929 . S
H1373 C1382 0.929 . S
C1374 H1368 0.930 . S
C1374 C1375 1.367 . S
C1374 C1382 1.378 . S
C1375 C1374 1.367 . S
C1375 C1383 1.433 . S
C1376 H1372 0.929 . S
C1376 C1378 1.378 . S
C1376 C1380 1.350 . S
C1377 C1380 1.463 . S
C1377 C1382 1.350 . S
C1377 N1385 1.427 . S
C1378 H1369 0.930 . S
C1378 C1376 1.378 . S
C1378 C1379 1.367 . S
C1379 C1378 1.367 . S
C1379 C1381 1.433 . S
C1380 C1376 1.350 . S
C1380 C1377 1.463 . S
C1380 N1384 1.427 . S
C1381 H1371 0.929 . S
C1381 C1379 1.433 . S
C1381 N1384 1.384 . S
C1382 H1373 0.929 . S
C1382 C1374 1.378 . S
C1382 C1377 1.350 . S
C1383 H1370 0.929 . S
C1383 C1375 1.433 . S
C1383 N1385 1.384 . S
N1384 C1380 1.427 . S
N1384 C1381 1.384 . S
N1385 C1377 1.427 . S
N1385 C1383 1.384 . S
H1386 C1392 0.930 . S
H1387 C1396 0.930 . S
H1388 C1401 0.929 . S
H1389 C1399 0.929 . S
H1390 C1394 0.929 . S
H1391 C1400 0.929 . S
C1392 H1386 0.930 . S
C1392 C1393 1.367 . S
C1392 C1400 1.378 . S
C1393 C1392 1.367 . S
C1393 C1401 1.433 . S
C1394 H1390 0.929 . S
C1394 C1396 1.378 . S
C1394 C1398 1.350 . S
C1395 C1398 1.463 . S
C1395 C1400 1.350 . S
C1395 N1403 1.427 . S
C1396 H1387 0.930 . S
C1396 C1394 1.378 . S
C1396 C1397 1.367 . S
C1397 C1396 1.367 . S
C1397 C1399 1.433 . S
C1398 C1394 1.350 . S
C1398 C1395 1.463 . S
C1398 N1402 1.427 . S
C1399 H1389 0.929 . S
C1399 C1397 1.433 . S
C1399 N1402 1.384 . S
C1400 H1391 0.929 . S
C1400 C1392 1.378 . S
C1400 C1395 1.350 . S
C1401 H1388 0.929 . S
C1401 C1393 1.433 . S
C1401 N1403 1.384 . S
N1402 C1398 1.427 . S
N1402 C1399 1.384 . S
N1403 C1395 1.427 . S
N1403 C1401 1.384 . S
H1404 C1410 0.930 . S
H1405 C1414 0.930 . S
H1406 C1419 0.929 . S
H1407 C1417 0.929 . S
H1408 C1412 0.929 . S
H1409 C1418 0.929 . S
C1410 H1404 0.930 . S
C1410 C1411 1.367 . S
C1410 C1418 1.378 . S
C1411 C1410 1.367 . S
C1411 C1419 1.433 . S
C1412 H1408 0.929 . S
C1412 C1414 1.378 . S
C1412 C1416 1.350 . S
C1413 C1416 1.463 . S
C1413 C1418 1.350 . S
C1413 N1421 1.427 . S
C1414 H1405 0.930 . S
C1414 C1412 1.378 . S
C1414 C1415 1.367 . S
C1415 C1414 1.367 . S
C1415 C1417 1.433 . S
C1416 C1412 1.350 . S
C1416 C1413 1.463 . S
C1416 N1420 1.427 . S
C1417 H1407 0.929 . S
C1417 C1415 1.433 . S
C1417 N1420 1.384 . S
C1418 H1409 0.929 . S
C1418 C1410 1.378 . S
C1418 C1413 1.350 . S
C1419 H1406 0.929 . S
C1419 C1411 1.433 . S
C1419 N1421 1.384 . S
N1420 C1416 1.427 . S
N1420 C1417 1.384 . S
N1421 C1413 1.427 . S
N1421 C1419 1.384 . S
H1422 C1428 0.930 . S
H1423 C1432 0.930 . S
H1424 C1437 0.929 . S
H1425 C1435 0.929 . S
H1426 C1430 0.929 . S
H1427 C1436 0.929 . S
C1428 H1422 0.930 . S
C1428 C1429 1.367 . S
C1428 C1436 1.378 . S
C1429 C1428 1.367 . S
C1429 C1437 1.433 . S
C1430 H1426 0.929 . S
C1430 C1432 1.378 . S
C1430 C1434 1.350 . S
C1431 C1434 1.463 . S
C1431 C1436 1.350 . S
C1431 N1439 1.427 . S
C1432 H1423 0.930 . S
C1432 C1430 1.378 . S
C1432 C1433 1.367 . S
C1433 C1432 1.367 . S
C1433 C1435 1.433 . S
C1434 C1430 1.350 . S
C1434 C1431 1.463 . S
C1434 N1438 1.427 . S
C1435 H1425 0.929 . S
C1435 C1433 1.433 . S
C1435 N1438 1.384 . S
C1436 H1427 0.929 . S
C1436 C1428 1.378 . S
C1436 C1431 1.350 . S
C1437 H1424 0.929 . S
C1437 C1429 1.433 . S
C1437 N1439 1.384 . S
N1438 C1434 1.427 . S
N1438 C1435 1.384 . S
N1439 C1431 1.427 . S
N1439 C1437 1.384 . S
H1440 C1446 0.930 . S
H1441 C1450 0.930 . S
H1442 C1455 0.929 . S
H1443 C1453 0.929 . S
H1444 C1448 0.929 . S
H1445 C1454 0.929 . S
C1446 H1440 0.930 . S
C1446 C1447 1.367 . S
C1446 C1454 1.378 . S
C1447 C1446 1.367 . S
C1447 C1455 1.433 . S
C1448 H1444 0.929 . S
C1448 C1450 1.378 . S
C1448 C1452 1.350 . S
C1449 C1452 1.463 . S
C1449 C1454 1.350 . S
C1449 N1457 1.427 . S
C1450 H1441 0.930 . S
C1450 C1448 1.378 . S
C1450 C1451 1.367 . S
C1451 C1450 1.367 . S
C1451 C1453 1.433 . S
C1452 C1448 1.350 . S
C1452 C1449 1.463 . S
C1452 N1456 1.427 . S
C1453 H1443 0.929 . S
C1453 C1451 1.433 . S
C1453 N1456 1.384 . S
C1454 H1445 0.929 . S
C1454 C1446 1.378 . S
C1454 C1449 1.350 . S
C1455 H1442 0.929 . S
C1455 C1447 1.433 . S
C1455 N1457 1.384 . S
N1456 C1452 1.427 . S
N1456 C1453 1.384 . S
N1457 C1449 1.427 . S
N1457 C1455 1.384 . S
H1458 C1464 0.930 . S
H1459 C1468 0.930 . S
H1460 C1473 0.929 . S
H1461 C1471 0.929 . S
H1462 C1466 0.929 . S
H1463 C1472 0.929 . S
C1464 H1458 0.930 . S
C1464 C1465 1.367 . S
C1464 C1472 1.378 . S
C1465 C1464 1.367 . S
C1465 C1473 1.433 . S
C1466 H1462 0.929 . S
C1466 C1468 1.378 . S
C1466 C1470 1.350 . S
C1467 C1470 1.463 . S
C1467 C1472 1.350 . S
C1467 N1475 1.427 . S
C1468 H1459 0.930 . S
C1468 C1466 1.378 . S
C1468 C1469 1.367 . S
C1469 C1468 1.367 . S
C1469 C1471 1.433 . S
C1470 C1466 1.350 . S
C1470 C1467 1.463 . S
C1470 N1474 1.427 . S
C1471 H1461 0.929 . S
C1471 C1469 1.433 . S
C1471 N1474 1.384 . S
C1472 H1463 0.929 . S
C1472 C1464 1.378 . S
C1472 C1467 1.350 . S
C1473 H1460 0.929 . S
C1473 C1465 1.433 . S
C1473 N1475 1.384 . S
N1474 C1470 1.427 . S
N1474 C1471 1.384 . S
N1475 C1467 1.427 . S
N1475 C1473 1.384 . S
H1476 C1482 0.930 . S
H1477 C1486 0.930 . S
H1478 C1491 0.929 . S
H1479 C1489 0.929 . S
H1480 C1484 0.929 . S
H1481 C1490 0.929 . S
C1482 H1476 0.930 . S
C1482 C1483 1.367 . S
C1482 C1490 1.378 . S
C1483 C1482 1.367 . S
C1483 C1491 1.433 . S
C1484 H1480 0.929 . S
C1484 C1486 1.378 . S
C1484 C1488 1.350 . S
C1485 C1488 1.463 . S
C1485 C1490 1.350 . S
C1485 N1493 1.427 . S
C1486 H1477 0.930 . S
C1486 C1484 1.378 . S
C1486 C1487 1.367 . S
C1487 C1486 1.367 . S
C1487 C1489 1.433 . S
C1488 C1484 1.350 . S
C1488 C1485 1.463 . S
C1488 N1492 1.427 . S
C1489 H1479 0.929 . S
C1489 C1487 1.433 . S
C1489 N1492 1.384 . S
C1490 H1481 0.929 . S
C1490 C1482 1.378 . S
C1490 C1485 1.350 . S
C1491 H1478 0.929 . S
C1491 C1483 1.433 . S
C1491 N1493 1.384 . S
N1492 C1488 1.427 . S
N1492 C1489 1.384 . S
N1493 C1485 1.427 . S
N1493 C1491 1.384 . S
H1494 C1500 0.930 . S
H1495 C1504 0.930 . S
H1496 C1509 0.929 . S
H1497 C1507 0.929 . S
H1498 C1502 0.929 . S
H1499 C1508 0.929 . S
C1500 H1494 0.930 . S
C1500 C1501 1.367 . S
C1500 C1508 1.378 . S
C1501 C1500 1.367 . S
C1501 C1509 1.433 . S
C1502 H1498 0.929 . S
C1502 C1504 1.378 . S
C1502 C1506 1.350 . S
C1503 C1506 1.463 . S
C1503 C1508 1.350 . S
C1503 N1511 1.427 . S
C1504 H1495 0.930 . S
C1504 C1502 1.378 . S
C1504 C1505 1.367 . S
C1505 C1504 1.367 . S
C1505 C1507 1.433 . S
C1506 C1502 1.350 . S
C1506 C1503 1.463 . S
C1506 N1510 1.427 . S
C1507 H1497 0.929 . S
C1507 C1505 1.433 . S
C1507 N1510 1.384 . S
C1508 H1499 0.929 . S
C1508 C1500 1.378 . S
C1508 C1503 1.350 . S
C1509 H1496 0.929 . S
C1509 C1501 1.433 . S
C1509 N1511 1.384 . S
N1510 C1506 1.427 . S
N1510 C1507 1.384 . S
N1511 C1503 1.427 . S
N1511 C1509 1.384 . S
H1512 C1518 0.930 . S
H1513 C1522 0.930 . S
H1514 C1527 0.929 . S
H1515 C1525 0.929 . S
H1516 C1520 0.929 . S
H1517 C1526 0.929 . S
C1518 H1512 0.930 . S
C1518 C1519 1.367 . S
C1518 C1526 1.378 . S
C1519 C1518 1.367 . S
C1519 C1527 1.433 . S
C1520 H1516 0.929 . S
C1520 C1522 1.378 . S
C1520 C1524 1.350 . S
C1521 C1524 1.463 . S
C1521 C1526 1.350 . S
C1521 N1529 1.427 . S
C1522 H1513 0.930 . S
C1522 C1520 1.378 . S
C1522 C1523 1.367 . S
C1523 C1522 1.367 . S
C1523 C1525 1.433 . S
C1524 C1520 1.350 . S
C1524 C1521 1.463 . S
C1524 N1528 1.427 . S
C1525 H1515 0.929 . S
C1525 C1523 1.433 . S
C1525 N1528 1.384 . S
C1526 H1517 0.929 . S
C1526 C1518 1.378 . S
C1526 C1521 1.350 . S
C1527 H1514 0.929 . S
C1527 C1519 1.433 . S
C1527 N1529 1.384 . S
N1528 C1524 1.427 . S
N1528 C1525 1.384 . S
N1529 C1521 1.427 . S
N1529 C1527 1.384 . S
H1530 C1536 0.930 . S
H1531 C1540 0.930 . S
H1532 C1545 0.929 . S
H1533 C1543 0.929 . S
H1534 C1538 0.929 . S
H1535 C1544 0.929 . S
C1536 H1530 0.930 . S
C1536 C1537 1.367 . S
C1536 C1544 1.378 . S
C1537 C1536 1.367 . S
C1537 C1545 1.433 . S
C1538 H1534 0.929 . S
C1538 C1540 1.378 . S
C1538 C1542 1.350 . S
C1539 C1542 1.463 . S
C1539 C1544 1.350 . S
C1539 N1547 1.427 . S
C1540 H1531 0.930 . S
C1540 C1538 1.378 . S
C1540 C1541 1.367 . S
C1541 C1540 1.367 . S
C1541 C1543 1.433 . S
C1542 C1538 1.350 . S
C1542 C1539 1.463 . S
C1542 N1546 1.427 . S
C1543 H1533 0.929 . S
C1543 C1541 1.433 . S
C1543 N1546 1.384 . S
C1544 H1535 0.929 . S
C1544 C1536 1.378 . S
C1544 C1539 1.350 . S
C1545 H1532 0.929 . S
C1545 C1537 1.433 . S
C1545 N1547 1.384 . S
N1546 C1542 1.427 . S
N1546 C1543 1.384 . S
N1547 C1539 1.427 . S
N1547 C1545 1.384 . S
H1548 C1554 0.930 . S
H1549 C1558 0.930 . S
H1550 C1563 0.929 . S
H1551 C1561 0.929 . S
H1552 C1556 0.929 . S
H1553 C1562 0.929 . S
C1554 H1548 0.930 . S
C1554 C1555 1.367 . S
C1554 C1562 1.378 . S
C1555 C1554 1.367 . S
C1555 C1563 1.433 . S
C1556 H1552 0.929 . S
C1556 C1558 1.378 . S
C1556 C1560 1.350 . S
C1557 C1560 1.463 . S
C1557 C1562 1.350 . S
C1557 N1565 1.427 . S
C1558 H1549 0.930 . S
C1558 C1556 1.378 . S
C1558 C1559 1.367 . S
C1559 C1558 1.367 . S
C1559 C1561 1.433 . S
C1560 C1556 1.350 . S
C1560 C1557 1.463 . S
C1560 N1564 1.427 . S
C1561 H1551 0.929 . S
C1561 C1559 1.433 . S
C1561 N1564 1.384 . S
C1562 H1553 0.929 . S
C1562 C1554 1.378 . S
C1562 C1557 1.350 . S
C1563 H1550 0.929 . S
C1563 C1555 1.433 . S
C1563 N1565 1.384 . S
N1564 C1560 1.427 . S
N1564 C1561 1.384 . S
N1565 C1557 1.427 . S
N1565 C1563 1.384 . S
H1566 C1572 0.930 . S
H1567 C1576 0.930 . S
H1568 C1581 0.929 . S
H1569 C1579 0.929 . S
H1570 C1574 0.929 . S
H1571 C1580 0.929 . S
C1572 H1566 0.930 . S
C1572 C1573 1.367 . S
C1572 C1580 1.378 . S
C1573 C1572 1.367 . S
C1573 C1581 1.433 . S
C1574 H1570 0.929 . S
C1574 C1576 1.378 . S
C1574 C1578 1.350 . S
C1575 C1578 1.463 . S
C1575 C1580 1.350 . S
C1575 N1583 1.427 . S
C1576 H1567 0.930 . S
C1576 C1574 1.378 . S
C1576 C1577 1.367 . S
C1577 C1576 1.367 . S
C1577 C1579 1.433 . S
C1578 C1574 1.350 . S
C1578 C1575 1.463 . S
C1578 N1582 1.427 . S
C1579 H1569 0.929 . S
C1579 C1577 1.433 . S
C1579 N1582 1.384 . S
C1580 H1571 0.929 . S
C1580 C1572 1.378 . S
C1580 C1575 1.350 . S
C1581 H1568 0.929 . S
C1581 C1573 1.433 . S
C1581 N1583 1.384 . S
N1582 C1578 1.427 . S
N1582 C1579 1.384 . S
N1583 C1575 1.427 . S
N1583 C1581 1.384 . S
H1584 C1590 0.930 . S
H1585 C1594 0.930 . S
H1586 C1599 0.929 . S
H1587 C1597 0.929 . S
H1588 C1592 0.929 1_565 S
H1589 C1598 0.929 1_545 S
C1590 H1584 0.930 . S
C1590 C1591 1.367 . S
C1590 C1598 1.378 . S
C1591 C1590 1.367 . S
C1591 C1599 1.433 . S
C1592 H1588 0.929 1_545 S
C1592 C1594 1.378 . S
C1592 C1596 1.350 . S
C1593 C1596 1.463 1_565 S
C1593 C1598 1.350 . S
C1593 N1601 1.427 . S
C1594 H1585 0.930 . S
C1594 C1592 1.378 . S
C1594 C1595 1.367 . S
C1595 C1594 1.367 . S
C1595 C1597 1.433 . S
C1596 C1592 1.350 . S
C1596 C1593 1.463 1_545 S
C1596 N1600 1.427 . S
C1597 H1587 0.929 . S
C1597 C1595 1.433 . S
C1597 N1600 1.384 . S
C1598 H1589 0.929 1_565 S
C1598 C1590 1.378 . S
C1598 C1593 1.350 . S
C1599 H1586 0.929 . S
C1599 C1591 1.433 . S
C1599 N1601 1.384 . S
N1600 C1596 1.427 . S
N1600 C1597 1.384 . S
N1601 C1593 1.427 . S
N1601 C1599 1.384 . S
H1602 C1608 0.930 . S
H1603 C1612 0.930 . S
H1604 C1617 0.929 . S
H1605 C1615 0.929 . S
H1606 C1610 0.929 . S
H1607 C1616 0.929 . S
C1608 H1602 0.930 . S
C1608 C1609 1.367 . S
C1608 C1616 1.378 . S
C1609 C1608 1.367 . S
C1609 C1617 1.433 . S
C1610 H1606 0.929 . S
C1610 C1612 1.378 . S
C1610 C1614 1.350 . S
C1611 C1614 1.463 1_455 S
C1611 C1616 1.350 . S
C1611 N1619 1.427 . S
C1612 H1603 0.930 . S
C1612 C1610 1.378 . S
C1612 C1613 1.367 . S
C1613 C1612 1.367 . S
C1613 C1615 1.433 . S
C1614 C1610 1.350 . S
C1614 C1611 1.463 1_655 S
C1614 N1618 1.427 . S
C1615 H1605 0.929 . S
C1615 C1613 1.433 . S
C1615 N1618 1.384 . S
C1616 H1607 0.929 . S
C1616 C1608 1.378 . S
C1616 C1611 1.350 . S
C1617 H1604 0.929 . S
C1617 C1609 1.433 . S
C1617 N1619 1.384 . S
N1618 C1614 1.427 . S
N1618 C1615 1.384 . S
N1619 C1611 1.427 . S
N1619 C1617 1.384 . S
H1620 C1626 0.930 . S
H1621 C1630 0.930 . S
H1622 C1635 0.929 . S
H1623 C1633 0.929 . S
H1624 C1628 0.929 . S
H1625 C1634 0.929 . S
C1626 H1620 0.930 . S
C1626 C1627 1.367 . S
C1626 C1634 1.378 . S
C1627 C1626 1.367 . S
C1627 C1635 1.433 . S
C1628 H1624 0.929 . S
C1628 C1630 1.378 . S
C1628 C1632 1.350 . S
C1629 C1632 1.463 . S
C1629 C1634 1.350 . S
C1629 N1637 1.427 . S
C1630 H1621 0.930 . S
C1630 C1628 1.378 . S
C1630 C1631 1.367 . S
C1631 C1630 1.367 . S
C1631 C1633 1.433 . S
C1632 C1628 1.350 . S
C1632 C1629 1.463 . S
C1632 N1636 1.427 . S
C1633 H1623 0.929 . S
C1633 C1631 1.433 . S
C1633 N1636 1.384 . S
C1634 H1625 0.929 . S
C1634 C1626 1.378 . S
C1634 C1629 1.350 . S
C1635 H1622 0.929 . S
C1635 C1627 1.433 . S
C1635 N1637 1.384 . S
N1636 C1632 1.427 . S
N1636 C1633 1.384 . S
N1637 C1629 1.427 . S
N1637 C1635 1.384 . S
H1638 C1644 0.930 . S
H1639 C1648 0.930 . S
H1640 C1653 0.929 . S
H1641 C1651 0.929 . S
H1642 C1646 0.929 . S
H1643 C1652 0.929 . S
C1644 H1638 0.930 . S
C1644 C1645 1.367 . S
C1644 C1652 1.378 . S
C1645 C1644 1.367 . S
C1645 C1653 1.433 . S
C1646 H1642 0.929 . S
C1646 C1648 1.378 . S
C1646 C1650 1.350 . S
C1647 C1650 1.463 . S
C1647 C1652 1.350 . S
C1647 N1655 1.427 . S
C1648 H1639 0.930 . S
C1648 C1646 1.378 . S
C1648 C1649 1.367 . S
C1649 C1648 1.367 . S
C1649 C1651 1.433 . S
C1650 C1646 1.350 . S
C1650 C1647 1.463 . S
C1650 N1654 1.427 . S
C1651 H1641 0.929 . S
C1651 C1649 1.433 . S
C1651 N1654 1.384 . S
C1652 H1643 0.929 . S
C1652 C1644 1.378 . S
C1652 C1647 1.350 . S
C1653 H1640 0.929 . S
C1653 C1645 1.433 . S
C1653 N1655 1.384 . S
N1654 C1650 1.427 . S
N1654 C1651 1.384 . S
N1655 C1647 1.427 . S
N1655 C1653 1.384 . S
H1656 C1662 0.930 . S
H1657 C1666 0.930 . S
H1658 C1671 0.929 . S
H1659 C1669 0.929 . S
H1660 C1664 0.929 . S
H1661 C1670 0.929 . S
C1662 H1656 0.930 . S
C1662 C1663 1.367 . S
C1662 C1670 1.378 . S
C1663 C1662 1.367 . S
C1663 C1671 1.433 . S
C1664 H1660 0.929 . S
C1664 C1666 1.378 . S
C1664 C1668 1.350 . S
C1665 C1668 1.463 . S
C1665 C1670 1.350 . S
C1665 N1673 1.427 . S
C1666 H1657 0.930 . S
C1666 C1664 1.378 . S
C1666 C1667 1.367 . S
C1667 C1666 1.367 . S
C1667 C1669 1.433 . S
C1668 C1664 1.350 . S
C1668 C1665 1.463 . S
C1668 N1672 1.427 . S
C1669 H1659 0.929 . S
C1669 C1667 1.433 . S
C1669 N1672 1.384 . S
C1670 H1661 0.929 . S
C1670 C1662 1.378 . S
C1670 C1665 1.350 . S
C1671 H1658 0.929 . S
C1671 C1663 1.433 . S
C1671 N1673 1.384 . S
N1672 C1668 1.427 . S
N1672 C1669 1.384 . S
N1673 C1665 1.427 . S
N1673 C1671 1.384 . S
H1674 C1680 0.930 . S
H1675 C1684 0.930 . S
H1676 C1689 0.929 . S
H1677 C1687 0.929 . S
H1678 C1682 0.929 . S
H1679 C1688 0.929 . S
C1680 H1674 0.930 . S
C1680 C1681 1.367 . S
C1680 C1688 1.378 . S
C1681 C1680 1.367 . S
C1681 C1689 1.433 . S
C1682 H1678 0.929 . S
C1682 C1684 1.378 . S
C1682 C1686 1.350 . S
C1683 C1686 1.463 . S
C1683 C1688 1.350 . S
C1683 N1691 1.427 . S
C1684 H1675 0.930 . S
C1684 C1682 1.378 . S
C1684 C1685 1.367 . S
C1685 C1684 1.367 . S
C1685 C1687 1.433 . S
C1686 C1682 1.350 . S
C1686 C1683 1.463 . S
C1686 N1690 1.427 . S
C1687 H1677 0.929 . S
C1687 C1685 1.433 . S
C1687 N1690 1.384 . S
C1688 H1679 0.929 . S
C1688 C1680 1.378 . S
C1688 C1683 1.350 . S
C1689 H1676 0.929 . S
C1689 C1681 1.433 . S
C1689 N1691 1.384 . S
N1690 C1686 1.427 . S
N1690 C1687 1.384 . S
N1691 C1683 1.427 . S
N1691 C1689 1.384 . S
H1692 C1698 0.930 . S
H1693 C1702 0.930 . S
H1694 C1707 0.929 . S
H1695 C1705 0.929 . S
H1696 C1700 0.929 . S
H1697 C1706 0.929 . S
C1698 H1692 0.930 . S
C1698 C1699 1.367 . S
C1698 C1706 1.378 . S
C1699 C1698 1.367 . S
C1699 C1707 1.433 . S
C1700 H1696 0.929 . S
C1700 C1702 1.378 . S
C1700 C1704 1.350 . S
C1701 C1704 1.463 . S
C1701 C1706 1.350 . S
C1701 N1709 1.427 . S
C1702 H1693 0.930 . S
C1702 C1700 1.378 . S
C1702 C1703 1.367 . S
C1703 C1702 1.367 . S
C1703 C1705 1.433 . S
C1704 C1700 1.350 . S
C1704 C1701 1.463 . S
C1704 N1708 1.427 . S
C1705 H1695 0.929 . S
C1705 C1703 1.433 . S
C1705 N1708 1.384 . S
C1706 H1697 0.929 . S
C1706 C1698 1.378 . S
C1706 C1701 1.350 . S
C1707 H1694 0.929 . S
C1707 C1699 1.433 . S
C1707 N1709 1.384 . S
N1708 C1704 1.427 . S
N1708 C1705 1.384 . S
N1709 C1701 1.427 . S
N1709 C1707 1.384 . S
H1710 C1716 0.930 . S
H1711 C1720 0.930 . S
H1712 C1725 0.929 . S
H1713 C1723 0.929 . S
H1714 C1718 0.929 . S
H1715 C1724 0.929 . S
C1716 H1710 0.930 . S
C1716 C1717 1.367 . S
C1716 C1724 1.378 . S
C1717 C1716 1.367 . S
C1717 C1725 1.433 . S
C1718 H1714 0.929 . S
C1718 C1720 1.378 . S
C1718 C1722 1.350 . S
C1719 C1722 1.463 . S
C1719 C1724 1.350 . S
C1719 N1727 1.427 . S
C1720 H1711 0.930 . S
C1720 C1718 1.378 . S
C1720 C1721 1.367 . S
C1721 C1720 1.367 . S
C1721 C1723 1.433 . S
C1722 C1718 1.350 . S
C1722 C1719 1.463 . S
C1722 N1726 1.427 . S
C1723 H1713 0.929 . S
C1723 C1721 1.433 . S
C1723 N1726 1.384 . S
C1724 H1715 0.929 . S
C1724 C1716 1.378 . S
C1724 C1719 1.350 . S
C1725 H1712 0.929 . S
C1725 C1717 1.433 . S
C1725 N1727 1.384 . S
N1726 C1722 1.427 . S
N1726 C1723 1.384 . S
N1727 C1719 1.427 . S
N1727 C1725 1.384 . S
H1728 C1734 0.930 . S
H1729 C1738 0.930 . S
H1730 C1743 0.929 . S
H1731 C1741 0.929 . S
H1732 C1736 0.929 . S
H1733 C1742 0.929 . S
C1734 H1728 0.930 . S
C1734 C1735 1.367 . S
C1734 C1742 1.378 . S
C1735 C1734 1.367 . S
C1735 C1743 1.433 . S
C1736 H1732 0.929 . S
C1736 C1738 1.378 . S
C1736 C1740 1.350 . S
C1737 C1740 1.463 . S
C1737 C1742 1.350 . S
C1737 N1745 1.427 . S
C1738 H1729 0.930 . S
C1738 C1736 1.378 . S
C1738 C1739 1.367 . S
C1739 C1738 1.367 . S
C1739 C1741 1.433 . S
C1740 C1736 1.350 . S
C1740 C1737 1.463 . S
C1740 N1744 1.427 . S
C1741 H1731 0.929 . S
C1741 C1739 1.433 . S
C1741 N1744 1.384 . S
C1742 H1733 0.929 . S
C1742 C1734 1.378 . S
C1742 C1737 1.350 . S
C1743 H1730 0.929 . S
C1743 C1735 1.433 . S
C1743 N1745 1.384 . S
N1744 C1740 1.427 . S
N1744 C1741 1.384 . S
N1745 C1737 1.427 . S
N1745 C1743 1.384 . S
H1746 C1752 0.930 . S
H1747 C1756 0.930 . S
H1748 C1761 0.929 . S
H1749 C1759 0.929 . S
H1750 C1754 0.929 . S
H1751 C1760 0.929 . S
C1752 H1746 0.930 . S
C1752 C1753 1.367 . S
C1752 C1760 1.378 . S
C1753 C1752 1.367 . S
C1753 C1761 1.433 . S
C1754 H1750 0.929 . S
C1754 C1756 1.378 . S
C1754 C1758 1.350 . S
C1755 C1758 1.463 . S
C1755 C1760 1.350 . S
C1755 N1763 1.427 . S
C1756 H1747 0.930 . S
C1756 C1754 1.378 . S
C1756 C1757 1.367 . S
C1757 C1756 1.367 . S
C1757 C1759 1.433 . S
C1758 C1754 1.350 . S
C1758 C1755 1.463 . S
C1758 N1762 1.427 . S
C1759 H1749 0.929 . S
C1759 C1757 1.433 . S
C1759 N1762 1.384 . S
C1760 H1751 0.929 . S
C1760 C1752 1.378 . S
C1760 C1755 1.350 . S
C1761 H1748 0.929 . S
C1761 C1753 1.433 . S
C1761 N1763 1.384 . S
N1762 C1758 1.427 . S
N1762 C1759 1.384 . S
N1763 C1755 1.427 . S
N1763 C1761 1.384 . S
H1764 C1770 0.930 . S
H1765 C1774 0.930 . S
H1766 C1779 0.929 . S
H1767 C1777 0.929 . S
H1768 C1772 0.929 . S
H1769 C1778 0.929 . S
C1770 H1764 0.930 . S
C1770 C1771 1.367 . S
C1770 C1778 1.378 . S
C1771 C1770 1.367 . S
C1771 C1779 1.433 . S
C1772 H1768 0.929 . S
C1772 C1774 1.378 . S
C1772 C1776 1.350 . S
C1773 C1776 1.463 . S
C1773 C1778 1.350 . S
C1773 N1781 1.427 . S
C1774 H1765 0.930 . S
C1774 C1772 1.378 . S
C1774 C1775 1.367 . S
C1775 C1774 1.367 . S
C1775 C1777 1.433 . S
C1776 C1772 1.350 . S
C1776 C1773 1.463 . S
C1776 N1780 1.427 . S
C1777 H1767 0.929 . S
C1777 C1775 1.433 . S
C1777 N1780 1.384 . S
C1778 H1769 0.929 . S
C1778 C1770 1.378 . S
C1778 C1773 1.350 . S
C1779 H1766 0.929 . S
C1779 C1771 1.433 . S
C1779 N1781 1.384 . S
N1780 C1776 1.427 . S
N1780 C1777 1.384 . S
N1781 C1773 1.427 . S
N1781 C1779 1.384 . S
H1782 C1788 0.930 . S
H1783 C1792 0.930 . S
H1784 C1797 0.929 . S
H1785 C1795 0.929 . S
H1786 C1790 0.929 . S
H1787 C1796 0.929 . S
C1788 H1782 0.930 . S
C1788 C1789 1.367 . S
C1788 C1796 1.378 . S
C1789 C1788 1.367 . S
C1789 C1797 1.433 . S
C1790 H1786 0.929 . S
C1790 C1792 1.378 . S
C1790 C1794 1.350 . S
C1791 C1794 1.463 . S
C1791 C1796 1.350 . S
C1791 N1799 1.427 . S
C1792 H1783 0.930 . S
C1792 C1790 1.378 . S
C1792 C1793 1.367 . S
C1793 C1792 1.367 . S
C1793 C1795 1.433 . S
C1794 C1790 1.350 . S
C1794 C1791 1.463 . S
C1794 N1798 1.427 . S
C1795 H1785 0.929 . S
C1795 C1793 1.433 . S
C1795 N1798 1.384 . S
C1796 H1787 0.929 . S
C1796 C1788 1.378 . S
C1796 C1791 1.350 . S
C1797 H1784 0.929 . S
C1797 C1789 1.433 . S
C1797 N1799 1.384 . S
N1798 C1794 1.427 . S
N1798 C1795 1.384 . S
N1799 C1791 1.427 . S
N1799 C1797 1.384 . S
H1800 C1806 0.930 . S
H1801 C1810 0.930 . S
H1802 C1815 0.929 . S
H1803 C1813 0.929 . S
H1804 C1808 0.929 . S
H1805 C1814 0.929 . S
C1806 H1800 0.930 . S
C1806 C1807 1.367 . S
C1806 C1814 1.378 . S
C1807 C1806 1.367 . S
C1807 C1815 1.433 . S
C1808 H1804 0.929 . S
C1808 C1810 1.378 . S
C1808 C1812 1.350 . S
C1809 C1812 1.463 . S
C1809 C1814 1.350 . S
C1809 N1817 1.427 . S
C1810 H1801 0.930 . S
C1810 C1808 1.378 . S
C1810 C1811 1.367 . S
C1811 C1810 1.367 . S
C1811 C1813 1.433 . S
C1812 C1808 1.350 . S
C1812 C1809 1.463 . S
C1812 N1816 1.427 . S
C1813 H1803 0.929 . S
C1813 C1811 1.433 . S
C1813 N1816 1.384 . S
C1814 H1805 0.929 . S
C1814 C1806 1.378 . S
C1814 C1809 1.350 . S
C1815 H1802 0.929 . S
C1815 C1807 1.433 . S
C1815 N1817 1.384 . S
N1816 C1812 1.427 . S
N1816 C1813 1.384 . S
N1817 C1809 1.427 . S
N1817 C1815 1.384 . S
H1818 C1824 0.930 . S
H1819 C1828 0.930 . S
H1820 C1833 0.929 . S
H1821 C1831 0.929 . S
H1822 C1826 0.929 . S
H1823 C1832 0.929 . S
C1824 H1818 0.930 . S
C1824 C1825 1.367 . S
C1824 C1832 1.378 . S
C1825 C1824 1.367 . S
C1825 C1833 1.433 . S
C1826 H1822 0.929 . S
C1826 C1828 1.378 . S
C1826 C1830 1.350 . S
C1827 C1830 1.463 . S
C1827 C1832 1.350 . S
C1827 N1835 1.427 . S
C1828 H1819 0.930 . S
C1828 C1826 1.378 . S
C1828 C1829 1.367 . S
C1829 C1828 1.367 . S
C1829 C1831 1.433 . S
C1830 C1826 1.350 . S
C1830 C1827 1.463 . S
C1830 N1834 1.427 . S
C1831 H1821 0.929 . S
C1831 C1829 1.433 . S
C1831 N1834 1.384 . S
C1832 H1823 0.929 . S
C1832 C1824 1.378 . S
C1832 C1827 1.350 . S
C1833 H1820 0.929 . S
C1833 C1825 1.433 . S
C1833 N1835 1.384 . S
N1834 C1830 1.427 . S
N1834 C1831 1.384 . S
N1835 C1827 1.427 . S
N1835 C1833 1.384 . S
H1836 C1842 0.930 . S
H1837 C1846 0.930 . S
H1838 C1851 0.929 . S
H1839 C1849 0.929 . S
H1840 C1844 0.929 . S
H1841 C1850 0.929 . S
C1842 H1836 0.930 . S
C1842 C1843 1.367 . S
C1842 C1850 1.378 . S
C1843 C1842 1.367 . S
C1843 C1851 1.433 . S
C1844 H1840 0.929 . S
C1844 C1846 1.378 . S
C1844 C1848 1.350 . S
C1845 C1848 1.463 . S
C1845 C1850 1.350 . S
C1845 N1853 1.427 . S
C1846 H1837 0.930 . S
C1846 C1844 1.378 . S
C1846 C1847 1.367 . S
C1847 C1846 1.367 . S
C1847 C1849 1.433 . S
C1848 C1844 1.350 . S
C1848 C1845 1.463 . S
C1848 N1852 1.427 . S
C1849 H1839 0.929 . S
C1849 C1847 1.433 . S
C1849 N1852 1.384 . S
C1850 H1841 0.929 . S
C1850 C1842 1.378 . S
C1850 C1845 1.350 . S
C1851 H1838 0.929 . S
C1851 C1843 1.433 . S
C1851 N1853 1.384 . S
N1852 C1848 1.427 . S
N1852 C1849 1.384 . S
N1853 C1845 1.427 . S
N1853 C1851 1.384 . S
H1854 C1860 0.930 . S
H1855 C1864 0.930 . S
H1856 C1869 0.929 . S
H1857 C1867 0.929 . S
H1858 C1862 0.929 . S
H1859 C1868 0.929 . S
C1860 H1854 0.930 . S
C1860 C1861 1.367 . S
C1860 C1868 1.378 . S
C1861 C1860 1.367 . S
C1861 C1869 1.433 . S
C1862 H1858 0.929 . S
C1862 C1864 1.378 . S
C1862 C1866 1.350 . S
C1863 C1866 1.463 . S
C1863 C1868 1.350 . S
C1863 N1871 1.427 . S
C1864 H1855 0.930 . S
C1864 C1862 1.378 . S
C1864 C1865 1.367 . S
C1865 C1864 1.367 . S
C1865 C1867 1.433 . S
C1866 C1862 1.350 . S
C1866 C1863 1.463 . S
C1866 N1870 1.427 . S
C1867 H1857 0.929 . S
C1867 C1865 1.433 . S
C1867 N1870 1.384 . S
C1868 H1859 0.929 . S
C1868 C1860 1.378 . S
C1868 C1863 1.350 . S
C1869 H1856 0.929 . S
C1869 C1861 1.433 . S
C1869 N1871 1.384 . S
N1870 C1866 1.427 . S
N1870 C1867 1.384 . S
N1871 C1863 1.427 . S
N1871 C1869 1.384 . S
H1872 C1878 0.930 . S
H1873 C1882 0.930 . S
H1874 C1887 0.929 . S
H1875 C1885 0.929 . S
H1876 C1880 0.929 . S
H1877 C1886 0.929 . S
C1878 H1872 0.930 . S
C1878 C1879 1.367 . S
C1878 C1886 1.378 . S
C1879 C1878 1.367 . S
C1879 C1887 1.433 . S
C1880 H1876 0.929 . S
C1880 C1882 1.378 . S
C1880 C1884 1.350 . S
C1881 C1884 1.463 . S
C1881 C1886 1.350 . S
C1881 N1889 1.427 . S
C1882 H1873 0.930 . S
C1882 C1880 1.378 . S
C1882 C1883 1.367 . S
C1883 C1882 1.367 . S
C1883 C1885 1.433 . S
C1884 C1880 1.350 . S
C1884 C1881 1.463 . S
C1884 N1888 1.427 . S
C1885 H1875 0.929 . S
C1885 C1883 1.433 . S
C1885 N1888 1.384 . S
C1886 H1877 0.929 . S
C1886 C1878 1.378 . S
C1886 C1881 1.350 . S
C1887 H1874 0.929 . S
C1887 C1879 1.433 . S
C1887 N1889 1.384 . S
N1888 C1884 1.427 . S
N1888 C1885 1.384 . S
N1889 C1881 1.427 . S
N1889 C1887 1.384 . S
H1890 C1896 0.930 . S
H1891 C1900 0.930 . S
H1892 C1905 0.929 . S
H1893 C1903 0.929 . S
H1894 C1898 0.929 . S
H1895 C1904 0.929 . S
C1896 H1890 0.930 . S
C1896 C1897 1.367 . S
C1896 C1904 1.378 . S
C1897 C1896 1.367 . S
C1897 C1905 1.433 . S
C1898 H1894 0.929 . S
C1898 C1900 1.378 . S
C1898 C1902 1.350 . S
C1899 C1902 1.463 . S
C1899 C1904 1.350 . S
C1899 N1907 1.427 . S
C1900 H1891 0.930 . S
C1900 C1898 1.378 . S
C1900 C1901 1.367 . S
C1901 C1900 1.367 . S
C1901 C1903 1.433 . S
C1902 C1898 1.350 . S
C1902 C1899 1.463 . S
C1902 N1906 1.427 . S
C1903 H1893 0.929 . S
C1903 C1901 1.433 . S
C1903 N1906 1.384 . S
C1904 H1895 0.929 . S
C1904 C1896 1.378 . S
C1904 C1899 1.350 . S
C1905 H1892 0.929 . S
C1905 C1897 1.433 . S
C1905 N1907 1.384 . S
N1906 C1902 1.427 . S
N1906 C1903 1.384 . S
N1907 C1899 1.427 . S
N1907 C1905 1.384 . S
H1908 C1914 0.930 . S
H1909 C1918 0.930 . S
H1910 C1923 0.929 . S
H1911 C1921 0.929 . S
H1912 C1916 0.929 . S
H1913 C1922 0.929 . S
C1914 H1908 0.930 . S
C1914 C1915 1.367 . S
C1914 C1922 1.378 . S
C1915 C1914 1.367 . S
C1915 C1923 1.433 . S
C1916 H1912 0.929 . S
C1916 C1918 1.378 . S
C1916 C1920 1.350 . S
C1917 C1920 1.463 . S
C1917 C1922 1.350 . S
C1917 N1925 1.427 . S
C1918 H1909 0.930 . S
C1918 C1916 1.378 . S
C1918 C1919 1.367 . S
C1919 C1918 1.367 . S
C1919 C1921 1.433 . S
C1920 C1916 1.350 . S
C1920 C1917 1.463 . S
C1920 N1924 1.427 . S
C1921 H1911 0.929 . S
C1921 C1919 1.433 . S
C1921 N1924 1.384 . S
C1922 H1913 0.929 . S
C1922 C1914 1.378 . S
C1922 C1917 1.350 . S
C1923 H1910 0.929 . S
C1923 C1915 1.433 . S
C1923 N1925 1.384 . S
N1924 C1920 1.427 . S
N1924 C1921 1.384 . S
N1925 C1917 1.427 . S
N1925 C1923 1.384 . S
H1926 C1932 0.930 . S
H1927 C1936 0.930 . S
H1928 C1941 0.929 . S
H1929 C1939 0.929 . S
H1930 C1934 0.929 . S
H1931 C1940 0.929 . S
C1932 H1926 0.930 . S
C1932 C1933 1.367 . S
C1932 C1940 1.378 . S
C1933 C1932 1.367 . S
C1933 C1941 1.433 . S
C1934 H1930 0.929 . S
C1934 C1936 1.378 . S
C1934 C1938 1.350 . S
C1935 C1938 1.463 . S
C1935 C1940 1.350 . S
C1935 N1943 1.427 . S
C1936 H1927 0.930 . S
C1936 C1934 1.378 . S
C1936 C1937 1.367 . S
C1937 C1936 1.367 . S
C1937 C1939 1.433 . S
C1938 C1934 1.350 . S
C1938 C1935 1.463 . S
C1938 N1942 1.427 . S
C1939 H1929 0.929 . S
C1939 C1937 1.433 . S
C1939 N1942 1.384 . S
C1940 H1931 0.929 . S
C1940 C1932 1.378 . S
C1940 C1935 1.350 . S
C1941 H1928 0.929 . S
C1941 C1933 1.433 . S
C1941 N1943 1.384 . S
N1942 C1938 1.427 . S
N1942 C1939 1.384 . S
N1943 C1935 1.427 . S
N1943 C1941 1.384 . S
H1944 C1950 0.930 . S
H1945 C1954 0.930 . S
H1946 C1959 0.929 . S
H1947 C1957 0.929 . S
H1948 C1952 0.929 . S
H1949 C1958 0.929 . S
C1950 H1944 0.930 . S
C1950 C1951 1.367 . S
C1950 C1958 1.378 . S
C1951 C1950 1.367 . S
C1951 C1959 1.433 . S
C1952 H1948 0.929 . S
C1952 C1954 1.378 . S
C1952 C1956 1.350 . S
C1953 C1956 1.463 . S
C1953 C1958 1.350 . S
C1953 N1961 1.427 . S
C1954 H1945 0.930 . S
C1954 C1952 1.378 . S
C1954 C1955 1.367 . S
C1955 C1954 1.367 . S
C1955 C1957 1.433 . S
C1956 C1952 1.350 . S
C1956 C1953 1.463 . S
C1956 N1960 1.427 . S
C1957 H1947 0.929 . S
C1957 C1955 1.433 . S
C1957 N1960 1.384 . S
C1958 H1949 0.929 . S
C1958 C1950 1.378 . S
C1958 C1953 1.350 . S
C1959 H1946 0.929 . S
C1959 C1951 1.433 . S
C1959 N1961 1.384 . S
N1960 C1956 1.427 . S
N1960 C1957 1.384 . S
N1961 C1953 1.427 . S
N1961 C1959 1.384 . S
H1962 C1968 0.930 . S
H1963 C1972 0.930 . S
H1964 C1977 0.929 . S
H1965 C1975 0.929 . S
H1966 C1970 0.929 . S
H1967 C1976 0.929 . S
C1968 H1962 0.930 . S
C1968 C1969 1.367 . S
C1968 C1976 1.378 . S
C1969 C1968 1.367 . S
C1969 C1977 1.433 . S
C1970 H1966 0.929 . S
C1970 C1972 1.378 . S
C1970 C1974 1.350 . S
C1971 C1974 1.463 . S
C1971 C1976 1.350 . S
C1971 N1979 1.427 . S
C1972 H1963 0.930 . S
C1972 C1970 1.378 . S
C1972 C1973 1.367 . S
C1973 C1972 1.367 . S
C1973 C1975 1.433 . S
C1974 C1970 1.350 . S
C1974 C1971 1.463 . S
C1974 N1978 1.427 . S
C1975 H1965 0.929 . S
C1975 C1973 1.433 . S
C1975 N1978 1.384 . S
C1976 H1967 0.929 . S
C1976 C1968 1.378 . S
C1976 C1971 1.350 . S
C1977 H1964 0.929 . S
C1977 C1969 1.433 . S
C1977 N1979 1.384 . S
N1978 C1974 1.427 . S
N1978 C1975 1.384 . S
N1979 C1971 1.427 . S
N1979 C1977 1.384 . S
H1980 C1986 0.930 . S
H1981 C1990 0.930 . S
H1982 C1995 0.929 . S
H1983 C1993 0.929 . S
H1984 C1988 0.929 . S
H1985 C1994 0.929 . S
C1986 H1980 0.930 . S
C1986 C1987 1.367 . S
C1986 C1994 1.378 . S
C1987 C1986 1.367 . S
C1987 C1995 1.433 . S
C1988 H1984 0.929 . S
C1988 C1990 1.378 . S
C1988 C1992 1.350 . S
C1989 C1992 1.463 . S
C1989 C1994 1.350 . S
C1989 N1997 1.427 . S
C1990 H1981 0.930 . S
C1990 C1988 1.378 . S
C1990 C1991 1.367 . S
C1991 C1990 1.367 . S
C1991 C1993 1.433 . S
C1992 C1988 1.350 . S
C1992 C1989 1.463 . S
C1992 N1996 1.427 . S
C1993 H1983 0.929 . S
C1993 C1991 1.433 . S
C1993 N1996 1.384 . S
C1994 H1985 0.929 . S
C1994 C1986 1.378 . S
C1994 C1989 1.350 . S
C1995 H1982 0.929 . S
C1995 C1987 1.433 . S
C1995 N1997 1.384 . S
N1996 C1992 1.427 . S
N1996 C1993 1.384 . S
N1997 C1989 1.427 . S
N1997 C1995 1.384 . S
H1998 C2004 0.930 . S
H1999 C2008 0.930 . S
H2000 C2013 0.929 . S
H2001 C2011 0.929 . S
H2002 C2006 0.929 . S
H2003 C2012 0.929 . S
C2004 H1998 0.930 . S
C2004 C2005 1.367 . S
C2004 C2012 1.378 . S
C2005 C2004 1.367 . S
C2005 C2013 1.433 . S
C2006 H2002 0.929 . S
C2006 C2008 1.378 . S
C2006 C2010 1.350 . S
C2007 C2010 1.463 . S
C2007 C2012 1.350 . S
C2007 N2015 1.427 . S
C2008 H1999 0.930 . S
C2008 C2006 1.378 . S
C2008 C2009 1.367 . S
C2009 C2008 1.367 . S
C2009 C2011 1.433 . S
C2010 C2006 1.350 . S
C2010 C2007 1.463 . S
C2010 N2014 1.427 . S
C2011 H2001 0.929 . S
C2011 C2009 1.433 . S
C2011 N2014 1.384 . S
C2012 H2003 0.929 . S
C2012 C2004 1.378 . S
C2012 C2007 1.350 . S
C2013 H2000 0.929 . S
C2013 C2005 1.433 . S
C2013 N2015 1.384 . S
N2014 C2010 1.427 . S
N2014 C2011 1.384 . S
N2015 C2007 1.427 . S
N2015 C2013 1.384 . S
H2016 C2022 0.930 . S
H2017 C2026 0.930 . S
H2018 C2031 0.929 . S
H2019 C2029 0.929 . S
H2020 C2024 0.929 . S
H2021 C2030 0.929 . S
C2022 H2016 0.930 . S
C2022 C2023 1.367 . S
C2022 C2030 1.378 . S
C2023 C2022 1.367 . S
C2023 C2031 1.433 . S
C2024 H2020 0.929 . S
C2024 C2026 1.378 . S
C2024 C2028 1.350 . S
C2025 C2028 1.463 . S
C2025 C2030 1.350 . S
C2025 N2033 1.427 . S
C2026 H2017 0.930 . S
C2026 C2024 1.378 . S
C2026 C2027 1.367 . S
C2027 C2026 1.367 . S
C2027 C2029 1.433 . S
C2028 C2024 1.350 . S
C2028 C2025 1.463 . S
C2028 N2032 1.427 . S
C2029 H2019 0.929 . S
C2029 C2027 1.433 . S
C2029 N2032 1.384 . S
C2030 H2021 0.929 . S
C2030 C2022 1.378 . S
C2030 C2025 1.350 . S
C2031 H2018 0.929 . S
C2031 C2023 1.433 . S
C2031 N2033 1.384 . S
N2032 C2028 1.427 . S
N2032 C2029 1.384 . S
N2033 C2025 1.427 . S
N2033 C2031 1.384 . S
H2034 C2040 0.930 . S
H2035 C2044 0.930 . S
H2036 C2049 0.929 . S
H2037 C2047 0.929 . S
H2038 C2042 0.929 . S
H2039 C2048 0.929 . S
C2040 H2034 0.930 . S
C2040 C2041 1.367 . S
C2040 C2048 1.378 . S
C2041 C2040 1.367 . S
C2041 C2049 1.433 . S
C2042 H2038 0.929 . S
C2042 C2044 1.378 . S
C2042 C2046 1.350 . S
C2043 C2046 1.463 . S
C2043 C2048 1.350 . S
C2043 N2051 1.427 . S
C2044 H2035 0.930 . S
C2044 C2042 1.378 . S
C2044 C2045 1.367 . S
C2045 C2044 1.367 . S
C2045 C2047 1.433 . S
C2046 C2042 1.350 . S
C2046 C2043 1.463 . S
C2046 N2050 1.427 . S
C2047 H2037 0.929 . S
C2047 C2045 1.433 . S
C2047 N2050 1.384 . S
C2048 H2039 0.929 . S
C2048 C2040 1.378 . S
C2048 C2043 1.350 . S
C2049 H2036 0.929 . S
C2049 C2041 1.433 . S
C2049 N2051 1.384 . S
N2050 C2046 1.427 . S
N2050 C2047 1.384 . S
N2051 C2043 1.427 . S
N2051 C2049 1.384 . S
H2052 C2058 0.930 . S
H2053 C2062 0.930 . S
H2054 C2067 0.929 . S
H2055 C2065 0.929 . S
H2056 C2060 0.929 . S
H2057 C2066 0.929 . S
C2058 H2052 0.930 . S
C2058 C2059 1.367 . S
C2058 C2066 1.378 . S
C2059 C2058 1.367 . S
C2059 C2067 1.433 . S
C2060 H2056 0.929 . S
C2060 C2062 1.378 . S
C2060 C2064 1.350 . S
C2061 C2064 1.463 . S
C2061 C2066 1.350 . S
C2061 N2069 1.427 . S
C2062 H2053 0.930 . S
C2062 C2060 1.378 . S
C2062 C2063 1.367 . S
C2063 C2062 1.367 . S
C2063 C2065 1.433 . S
C2064 C2060 1.350 . S
C2064 C2061 1.463 . S
C2064 N2068 1.427 . S
C2065 H2055 0.929 . S
C2065 C2063 1.433 . S
C2065 N2068 1.384 . S
C2066 H2057 0.929 . S
C2066 C2058 1.378 . S
C2066 C2061 1.350 . S
C2067 H2054 0.929 . S
C2067 C2059 1.433 . S
C2067 N2069 1.384 . S
N2068 C2064 1.427 . S
N2068 C2065 1.384 . S
N2069 C2061 1.427 . S
N2069 C2067 1.384 . S
C1105 C253 1.466 . S
C1109 C398 1.402 . S
C1123 C272 1.494 . S
C1127 C482 1.449 . S
C1141 C234 1.452 . S
C1145 C576 1.459 . S
C1159 C215 1.446 . S
C1163 C492 1.455 1_556 S
C1181 C566 1.409 . S
C1177 C177 1.459 . S
C1195 C196 1.417 . S
C1199 C408 1.422 1_556 S
C1217 C409 1.496 . S
C1213 C220 1.468 . S
C1235 C493 1.504 . S
C1231 C182 1.481 . S
C1249 C201 1.469 . S
C1253 C585 1.504 1_556 S
C1267 C258 1.460 . S
C1271 C501 1.493 . S
C1285 C277 1.443 . S
C1289 C577 1.468 . S
C1307 C417 1.470 . S
C1303 C239 1.424 . S
C1325 C650 1.401 . S
C1321 C25 1.467 . S
C1339 C44 1.494 . S
C1343 C734 1.446 . S
C1357 C6 1.452 . S
C1361 C828 1.462 . S
C1375 C329 1.449 . S
C1379 C744 1.455 . S
C1393 C291 1.460 . S
C1397 C818 1.395 . S
C1411 C310 1.422 . S
C1415 C660 1.425 . S
C1429 C334 1.460 . S
C1433 C661 1.481 . S
C1447 C296 1.496 . S
C1451 C745 1.519 . S
C1469 C837 1.517 . S
C1465 C315 1.471 . S
C1483 C30 1.460 1_565 S
C1487 C753 1.494 . S
C1505 C829 1.466 . S
C1501 C49 1.451 1_455 S
C1519 C11 1.437 . S
C1523 C669 1.471 . S
C1541 C902 1.403 . S
C1537 C139 1.466 . S
C1555 C158 1.501 . S
C1559 C986 1.436 . S
C1577 C1080 1.459 . S
C1573 C120 1.453 . S
C1595 C996 1.451 . S
C1591 C101 1.444 . S
C1613 C1070 1.405 . S
C1609 C63 1.458 . S
C1627 C82 1.416 . S
C1631 C912 1.423 . S
C1645 C106 1.458 1_655 S
C1649 C913 1.480 . S
C1663 C68 1.487 . S
C1667 C997 1.506 . S
C1685 C1089 1.518 . S
C1681 C87 1.474 1_545 S
C1699 C144 1.444 . S
C1703 C1005 1.487 . S
C1717 C163 1.450 . S
C1721 C1081 1.470 . S
C1735 C125 1.437 . S
C1739 C921 1.473 . S
C1753 C287 1.652 . S
C1757 C405 1.530 . S
C1775 C489 1.591 . S
C1771 C306 1.717 . S
C1789 C325 1.661 . S
C1793 C582 1.454 . S
C1807 C116 1.679 . S
C1811 C498 1.455 . S
C1825 C135 1.676 . S
C1829 C573 1.533 . S
C1847 C414 1.440 . S
C1843 C154 1.614 . S
C1861 C59 1.653 . S
C1865 C657 1.530 . S
C1879 C78 1.715 . S
C1883 C741 1.590 . S
C1897 C97 1.652 . S
C1901 C834 1.449 . S
C1915 C230 1.684 . S
C1919 C750 1.474 . S
C1937 C825 1.552 . S
C1933 C249 1.670 . S
C1951 C268 1.611 . S
C1955 C666 1.416 . S
C1969 C173 1.655 . S
C1973 C909 1.549 . S
C1987 C192 1.716 . S
C1991 C993 1.571 . S
C2009 C1086 1.455 . S
C2005 C211 1.652 . S
C2023 C2 1.684 . S
C2027 C1002 1.473 . S
C2041 C21 1.674 . S
C2045 C1077 1.532 . S
C2059 C40 1.611 . S
C2063 C918 1.436 . S
