# Generated by pormake.
# Topology tsx, (6,3)-cn, num edge types: 1
# Building blocks:
#     Node 0, Type 0, BuildingBlock: VOLQOD_clean_sbu_1, # of connection points: 6
#     Node 1, Type 0, BuildingBlock: VOLQOD_clean_sbu_1, # of connection points: 6
#     Node 2, Type 1, BuildingBlock: CUQRIR_clean_linker_1, # of connection points: 3
#     Node 3, Type 1, BuildingBlock: CUQRIR_clean_linker_1, # of connection points: 3
#     Node 4, Type 1, BuildingBlock: CUQRIR_clean_linker_1, # of connection points: 3
#     Node 5, Type 1, BuildingBlock: CUQRIR_clean_linker_1, # of connection points: 3
#     Edge 6, Type (0, 1), BuildingBlock: XIVTED_clean_linker_0, # of connection points: 2
#     Edge 7, Type (0, 1), BuildingBlock: XIVTED_clean_linker_0, # of connection points: 2
#     Edge 8, Type (0, 1), BuildingBlock: XIVTED_clean_linker_0, # of connection points: 2
#     Edge 9, Type (0, 1), BuildingBlock: XIVTED_clean_linker_0, # of connection points: 2
#     Edge 10, Type (0, 1), BuildingBlock: XIVTED_clean_linker_0, # of connection points: 2
#     Edge 11, Type (0, 1), BuildingBlock: XIVTED_clean_linker_0, # of connection points: 2
#     Edge 12, Type (0, 1), BuildingBlock: XIVTED_clean_linker_0, # of connection points: 2
#     Edge 13, Type (0, 1), BuildingBlock: XIVTED_clean_linker_0, # of connection points: 2
#     Edge 14, Type (0, 1), BuildingBlock: XIVTED_clean_linker_0, # of connection points: 2
#     Edge 15, Type (0, 1), BuildingBlock: XIVTED_clean_linker_0, # of connection points: 2
#     Edge 16, Type (0, 1), BuildingBlock: XIVTED_clean_linker_0, # of connection points: 2
#     Edge 17, Type (0, 1), BuildingBlock: XIVTED_clean_linker_0, # of connection points: 2
# Relax obj value: 0.077
# Max RMSD: 0.142
# Mean RMSD: 0.124
data_MOF--net-tsx--node1-VOLQOD_clean_sbu_1--node2-CUQRIR_clean_linker_1--edge1-XIVTED_clean_linker_0
_symmetry_space_group_name_H-M    P1
_symmetry_Int_Tables_number       1
_symmetry_cell_setting            triclinic
loop_
_symmetry_equiv_pos_as_xyz
'x, y, z'
_cell_length_a     19.514307
_cell_length_b     20.439675
_cell_length_c     35.595914
_cell_angle_alpha  79.19216
_cell_angle_beta   90.092555
_cell_angle_gamma 90.960443
loop_
_atom_site_label
_atom_site_type_symbol
_atom_site_fract_x
_atom_site_fract_y
_atom_site_fract_z
_atom_type_partial_charge
O0 O 0.08318 0.98519 0.09122 0.0
Zn1 Zn 0.10083 -0.00112 0.0343 0.0
O2 O 0.01751 0.02346 0.0054 0.0
Zn3 Zn 0.99268 0.95794 0.97431 0.0
Zn4 Zn 0.94295 0.02631 0.04077 0.0
Zn5 Zn 0.03111 0.10995 0.97199 0.0
O6 O 0.98592 -0.0001 0.91864 0.0
O7 O 0.03793 0.0983 0.91663 0.0
O8 O 0.14125 0.91633 0.02083 0.0
O9 O 0.06676 0.8903 0.97844 0.0
O10 O 0.90693 0.90499 0.99268 0.0
O11 O 0.8827 0.94506 0.04477 0.0
O12 O 0.88539 0.10688 0.02221 0.0
O13 O 0.17091 0.07263 0.02325 0.0
O14 O 0.94812 0.16703 0.97554 0.0
O15 O 0.11837 0.15609 0.9858 0.0
C16 C 0.03266 6e-05 0.11048 0.0
C17 C 0.01204 0.05374 0.89988 0.0
C18 C 0.87216 0.9031 0.02309 0.0
C19 C 0.12159 0.87901 0.99783 0.0
C20 C 0.89402 0.1584 0.99612 0.0
C21 C 0.17041 0.13263 0.00525 0.0
O22 O 0.97715 0.02219 0.09437 0.0
O23 O 0.56146 0.47276 0.59499 0.0
Zn24 Zn 0.58634 0.49256 0.53898 0.0
O25 O 0.50848 0.52483 0.50721 0.0
Zn26 Zn 0.48438 0.46362 0.47363 0.0
Zn27 Zn 0.43097 0.53117 0.5401 0.0
Zn28 Zn 0.53086 0.61041 0.47502 0.0
O29 O 0.47271 0.51087 0.41921 0.0
O30 O 0.53764 0.60133 0.41923 0.0
O31 O 0.62725 0.41265 0.52263 0.0
O32 O 0.5622 0.40118 0.47282 0.0
O33 O 0.40086 0.40735 0.49223 0.0
O34 O 0.36611 0.4537 0.54038 0.0
O35 O 0.38202 0.61778 0.5219 0.0
O36 O 0.65978 0.56327 0.53347 0.0
O37 O 0.45361 0.6737 0.47825 0.0
O38 O 0.62057 0.64853 0.49131 0.0
C39 C 0.51096 0.49118 0.61289 0.0
C40 C 0.50489 0.56208 0.4014 0.0
C41 C 0.3603 0.40897 0.52002 0.0
C42 C 0.61357 0.38455 0.49439 0.0
C43 C 0.39777 0.66965 0.49723 0.0
C44 C 0.66676 0.62231 0.51448 0.0
O45 O 0.45989 0.5205 0.59518 0.0
C46 C 0.00815 0.04632 0.4362 0.0
N47 N 0.03909 0.00817 0.41427 0.0
N48 N 0.95229 0.07567 0.4183 0.0
C49 C 0.03558 0.05941 0.47355 0.0
C50 C 0.95014 0.05367 0.38472 0.0
N51 N 0.0028 0.01241 0.38238 0.0
C52 C 0.89715 0.07321 0.35399 0.0
H53 H 0.02793 0.11223 0.47577 0.0
H54 H 0.09091 0.04802 0.47653 0.0
H55 H 0.00698 0.02786 0.49727 0.0
H56 H 0.91724 0.1162 0.33291 0.0
H57 H 0.84861 0.08757 0.36617 0.0
H58 H 0.88573 0.03207 0.33858 0.0
C59 C 0.08122 0.94565 0.58458 0.0
N60 N 0.09618 0.98876 0.6082 0.0
N61 N 0.03317 0.90036 0.60029 0.0
C62 C 0.11659 0.94418 0.54729 0.0
C63 C 0.0193 0.91718 0.63441 0.0
N64 N 0.05755 0.97078 0.63927 0.0
C65 C 0.9647 0.88428 0.66168 0.0
H66 H 0.15001 0.98855 0.53781 0.0
H67 H 0.07827 0.93934 0.52503 0.0
H68 H 0.1486 0.89908 0.55082 0.0
H69 H 0.97727 0.88864 0.69153 0.0
H70 H 0.95829 0.8309 0.66007 0.0
H71 H 0.91526 0.9092 0.65379 0.0
C72 C 0.47512 0.49817 0.94475 0.0
N73 N 0.504 0.46359 0.92024 0.0
N74 N 0.41944 0.5308 0.92885 0.0
C75 C 0.49992 0.49803 0.9846 0.0
C76 C 0.41547 0.5149 0.89366 0.0
N77 N 0.46642 0.47315 0.88861 0.0
C78 C 0.3667 0.54611 0.86283 0.0
H79 H 0.4593 0.51337 0.00272 0.0
H80 H 0.54392 0.53343 0.98324 0.0
H81 H 0.51732 0.44755 0.99757 0.0
H82 H 0.34899 0.59508 0.86778 0.0
H83 H 0.32138 0.51261 0.86282 0.0
H84 H 0.39125 0.5533 0.83423 0.0
C85 C 0.57849 0.44939 0.08901 0.0
N86 N 0.59291 0.49232 0.11276 0.0
N87 N 0.52177 0.41222 0.10077 0.0
C88 C 0.62113 0.44349 0.05471 0.0
C89 C 0.50267 0.43346 0.13289 0.0
N90 N 0.54565 0.48214 0.14017 0.0
C91 C 0.44162 0.40634 0.15694 0.0
H92 H 0.61939 0.49039 0.03338 0.0
H93 H 0.60416 0.40103 0.04146 0.0
H94 H 0.67545 0.43657 0.06364 0.0
H95 H 0.42783 0.35534 0.15266 0.0
H96 H 0.39725 0.439 0.14837 0.0
H97 H 0.45217 0.40528 0.18769 0.0
H98 H 0.29888 0.09509 0.03017 0.0
H99 H 0.40358 0.45401 0.06703 0.0
H100 H 0.17802 0.2695 0.99076 0.0
H101 H 0.54215 0.28976 0.08481 0.0
H102 H 0.32386 0.38952 0.03443 0.0
H103 H 0.39199 0.16652 0.04564 0.0
C104 C 0.29214 0.14854 0.02439 0.0
C105 C 0.23008 0.17629 0.00962 0.0
C106 C 0.37196 0.36759 0.04497 0.0
C107 C 0.33659 0.25843 0.02765 0.0
C108 C 0.41713 0.40432 0.06355 0.0
C109 C 0.47882 0.37663 0.07843 0.0
C110 C 0.388 0.30197 0.04212 0.0
C111 C 0.49483 0.31235 0.07353 0.0
C112 C 0.34551 0.18933 0.03315 0.0
C113 C 0.22474 0.24591 1.0023 0.0
N114 N 0.4492 0.27669 0.05615 0.0
N115 N 0.27692 0.28453 0.01193 0.0
H116 H 0.08376 0.77369 0.96485 0.0
H117 H 0.46131 0.63719 0.95821 0.0
H118 H 0.2554 0.85477 0.01887 0.0
H119 H 0.28177 0.52685 0.93431 0.0
H120 H 0.3876 0.71806 0.98062 0.0
H121 H 0.15581 0.68353 0.95284 0.0
C122 C 0.13658 0.7724 0.97432 0.0
C123 C 0.16378 0.82211 0.99265 0.0
C124 C 0.36426 0.67583 0.97085 0.0
C125 C 0.24662 0.71912 0.9788 0.0
C126 C 0.40624 0.62981 0.95822 0.0
C127 C 0.37708 0.57588 0.94444 0.0
C128 C 0.29273 0.66806 0.96911 0.0
C129 C 0.30568 0.56843 0.94444 0.0
C130 C 0.17761 0.72072 0.9676 0.0
C131 C 0.23239 0.81753 0.0046 0.0
N132 N 0.26576 0.61441 0.95627 0.0
N133 N 0.27173 0.76726 0.99711 0.0
H134 H 0.79511 0.83314 0.9791 0.0
H135 H 0.71315 0.52776 0.14245 0.0
H136 H 0.84279 0.84368 0.09627 0.0
H137 H 0.56124 0.59363 0.05647 0.0
H138 H 0.77745 0.63292 0.12157 0.0
H139 H 0.72323 0.73361 1.00203 0.0
C140 C 0.79005 0.81474 0.00957 0.0
C141 C 0.82437 0.84673 0.03588 0.0
C142 C 0.72968 0.62437 0.10758 0.0
C143 C 0.74473 0.73273 0.06194 0.0
C144 C 0.69292 0.56495 0.11969 0.0
C145 C 0.63141 0.55338 0.10164 0.0
C146 C 0.70558 0.67095 0.07645 0.0
C147 C 0.60849 0.60161 0.07108 0.0
C148 C 0.74919 0.75828 0.02256 0.0
C149 C 0.8165 0.82084 0.07509 0.0
N150 N 0.64598 0.6582 0.05908 0.0
N151 N 0.77825 0.76468 0.08697 0.0
H152 H 0.75862 0.13725 0.01474 0.0
H153 H 0.63485 0.50242 0.92763 0.0
H154 H 0.89965 0.2874 0.95649 0.0
H155 H 0.50392 0.32984 0.93216 0.0
H156 H 0.73263 0.42903 0.94719 0.0
H157 H 0.66374 0.21259 0.99493 0.0
C158 C 0.76979 0.18634 0.99817 0.0
C159 C 0.83727 0.20603 0.98722 0.0
C160 C 0.68266 0.40724 0.94353 0.0
C161 C 0.72879 0.29228 0.96452 0.0
C162 C 0.62738 0.44889 0.93234 0.0
C163 C 0.56237 0.42145 0.92785 0.0
C164 C 0.67201 0.3379 0.95118 0.0
C165 C 0.55395 0.35218 0.93482 0.0
C166 C 0.71552 0.229 0.98662 0.0
C167 C 0.84845 0.27011 0.96545 0.0
N168 N 0.60814 0.31254 0.94651 0.0
N169 N 0.79475 0.31113 0.95493 0.0
H170 H 0.77979 0.57844 0.55665 0.0
H171 H 0.94504 0.94212 0.54325 0.0
H172 H 0.69585 0.75503 0.48725 0.0
H173 H 0.0245 0.76616 0.61419 0.0
H174 H 0.86236 0.87283 0.51559 0.0
H175 H 0.87755 0.64439 0.57166 0.0
C176 C 0.782 0.63109 0.54435 0.0
C177 C 0.7289 0.66134 0.52097 0.0
C178 C 0.89834 0.84907 0.53683 0.0
C179 C 0.84122 0.73739 0.53825 0.0
C180 C 0.94563 0.88853 0.55229 0.0
C181 C 0.99114 0.85925 0.58074 0.0
C182 C 0.89628 0.7799 0.55034 0.0
C183 C 0.98984 0.79002 0.59227 0.0
C184 C 0.83807 0.66873 0.55293 0.0
C185 C 0.73525 0.72964 0.50559 0.0
N186 N 0.94264 0.75258 0.57725 0.0
N187 N 0.79008 0.76549 0.51479 0.0
H188 H 0.63548 0.35472 0.42416 0.0
H189 H 0.88669 0.0565 0.48643 0.0
H190 H 0.7007 0.3035 0.54183 0.0
H191 H 0.91338 0.19624 0.38052 0.0
H192 H 0.80373 0.13175 0.50733 0.0
H193 H 0.72052 0.27905 0.40684 0.0
C194 C 0.66718 0.32697 0.44642 0.0
C195 C 0.66126 0.33533 0.48448 0.0
C196 C 0.82812 0.1458 0.47961 0.0
C197 C 0.75796 0.24883 0.46483 0.0
C198 C 0.87546 0.10332 0.46783 0.0
C199 C 0.90623 0.1204 0.43168 0.0
C200 C 0.8107 0.20465 0.4546 0.0
C201 C 0.8895 0.18097 0.40825 0.0
C202 C 0.71593 0.28435 0.43644 0.0
C203 C 0.70401 0.29857 0.51214 0.0
N204 N 0.84209 0.22066 0.4199 0.0
N205 N 0.7505 0.25637 0.5018 0.0
H206 H 0.292 0.33366 0.47527 0.0
H207 H 0.2114 0.03271 0.63894 0.0
H208 H 0.32068 0.35544 0.59255 0.0
H209 H 0.0599 0.08782 0.55127 0.0
H210 H 0.26896 0.14139 0.6184 0.0
H211 H 0.22138 0.23297 0.49774 0.0
C212 C 0.28283 0.31762 0.50563 0.0
C213 C 0.3117 0.35295 0.53211 0.0
C214 C 0.22273 0.12971 0.60394 0.0
C215 C 0.23371 0.23762 0.55776 0.0
C216 C 0.18966 0.06825 0.61589 0.0
C217 C 0.13037 0.05233 0.59715 0.0
C218 C 0.19739 0.17418 0.57227 0.0
C219 C 0.10576 0.0988 0.56619 0.0
C220 C 0.2427 0.26049 0.51835 0.0
C221 C 0.2987 0.32997 0.57119 0.0
N222 N 0.1399 0.1575 0.55428 0.0
N223 N 0.26161 0.27301 0.58292 0.0
H224 H 0.41458 0.79005 0.4487 0.0
H225 H 0.02211 0.89133 0.46197 0.0
H226 H 0.2667 0.67367 0.52451 0.0
H227 H 0.17352 0.01795 0.39561 0.0
H228 H 0.11137 0.8106 0.48532 0.0
H229 H 0.32808 0.87465 0.42947 0.0
C230 C 0.36412 0.78243 0.46157 0.0
C231 C 0.34792 0.72431 0.48816 0.0
C232 C 0.1253 0.8558 0.46552 0.0
C233 C 0.24832 0.82098 0.46592 0.0
C234 C 0.07442 0.9014 0.45216 0.0
C235 C 0.09107 0.96018 0.42661 0.0
C236 C 0.19326 0.86927 0.453 0.0
C237 C 0.15913 0.97235 0.41485 0.0
C238 C 0.31469 0.83082 0.4505 0.0
C239 C 0.28162 0.71749 0.50388 0.0
N240 N 0.20796 0.92708 0.42808 0.0
N241 N 0.23419 0.76498 0.49232 0.0
H242 H 0.14683 0.00746 0.15461 0.0
H243 H 0.93925 0.91715 0.35147 0.0
H244 H 0.92902 0.96716 0.1619 0.0
H245 H 0.10892 0.05654 0.33618 0.0
H246 H 0.95471 0.9003 0.28536 0.0
H247 H 0.15096 -0.00626 0.22477 0.0
C248 C 0.10013 -0.00488 0.171 0.0
C249 C 0.03731 0.98935 0.15255 0.0
C250 C 0.9897 0.93322 0.29686 0.0
C251 C 0.04212 0.97182 0.23222 0.0
C252 C 0.98122 0.94228 0.33444 0.0
C253 C 0.02284 0.98831 0.34874 0.0
C254 C 0.04078 0.96989 0.27388 0.0
C255 C 0.07643 0.02024 0.32594 0.0
C256 C 0.10257 0.98726 0.21086 0.0
C257 C 0.97828 0.9731 0.17502 0.0
N258 N 0.08357 0.01104 0.28932 0.0
N259 N 0.98213 0.96481 0.2137 0.0
H260 H 0.11968 0.10343 0.85374 0.0
H261 H 0.94908 0.03492 0.66087 0.0
H262 H 0.91579 0.01973 0.85117 0.0
H263 H 0.15527 0.97654 0.69205 0.0
H264 H 0.93605 0.07166 0.72259 0.0
H265 H 0.13264 0.09929 0.78543 0.0
C266 C 0.07714 0.08577 0.83855 0.0
C267 C 0.01671 0.06152 0.85795 0.0
C268 C 0.98477 0.05266 0.71527 0.0
C269 C 0.03073 0.05796 0.78034 0.0
C270 C 0.99222 0.03211 0.68025 0.0
C271 C 0.05384 0.00427 0.6713 0.0
C272 C 0.03981 0.04624 0.74102 0.0
C273 C 0.1081 0.00022 0.69738 0.0
C274 C 0.08471 0.08316 0.79981 0.0
C275 C 0.96331 0.03845 0.83717 0.0
N276 N 0.0999 0.02095 0.73119 0.0
N277 N 0.9715 0.03726 0.7994 0.0
H278 H 0.62069 0.47361 0.66188 0.0
H279 H 0.3835 0.4056 0.84849 0.0
H280 H 0.39956 0.47414 0.6599 0.0
H281 H 0.58442 0.49559 0.84831 0.0
H282 H 0.39922 0.39677 0.78126 0.0
H283 H 0.61692 0.45198 0.7322 0.0
C284 C 0.57145 0.46871 0.67623 0.0
C285 C 0.51031 0.47646 0.65512 0.0
C286 C 0.44047 0.41718 0.79615 0.0
C287 C 0.50581 0.45026 0.73501 0.0
C288 C 0.43167 0.42169 0.8344 0.0
C289 C 0.48251 0.45187 0.85345 0.0
C290 C 0.50082 0.44263 0.77704 0.0
C291 C 0.54429 0.47186 0.83439 0.0
C292 C 0.56941 0.45638 0.71622 0.0
C293 C 0.4479 0.4695 0.67506 0.0
N294 N 0.55153 0.46772 0.79689 0.0
N295 N 0.44726 0.45669 0.71387 0.0
H296 H 0.61482 0.60691 0.35587 0.0
H297 H 0.43911 0.54982 0.16178 0.0
H298 H 0.40564 0.53713 0.35171 0.0
H299 H 0.64343 0.48509 0.19322 0.0
H300 H 0.42766 0.58656 0.22354 0.0
H301 H 0.62674 0.60431 0.28739 0.0
C302 C 0.57097 0.59271 0.34032 0.0
C303 C 0.50929 0.57173 0.35935 0.0
C304 C 0.4756 0.56595 0.21631 0.0
C305 C 0.5223 0.56975 0.28149 0.0
C306 C 0.48209 0.5451 0.18131 0.0
C307 C 0.5426 0.51514 0.17247 0.0
C308 C 0.53057 0.55789 0.24213 0.0
C309 C 0.59701 0.50997 0.1985 0.0
C310 C 0.57794 0.59093 0.30145 0.0
C311 C 0.45418 0.55314 0.33804 0.0
N312 N 0.58974 0.53095 0.23229 0.0
N313 N 0.46196 0.5525 0.30018 0.0
loop_
_geom_bond_atom_site_label_1
_geom_bond_atom_site_label_2
_geom_bond_distance
_geom_bond_site_symmetry_2
_ccdc_geom_bond_type
O0 Zn1 1.953 . S
O0 C16 1.225 . S
Zn1 O0 1.953 . S
Zn1 O2 1.949 1_565 S
Zn1 O8 1.919 . S
Zn1 O13 1.924 1_565 S
O2 Zn1 1.949 1_545 S
O2 Zn3 1.923 1_544 S
O2 Zn4 1.950 1_455 S
O2 Zn5 1.945 1_554 S
Zn3 O2 1.923 1_566 S
Zn3 O6 1.933 . S
Zn3 O9 1.941 . S
Zn3 O10 1.965 1_455 S
Zn4 O2 1.950 1_655 S
Zn4 O11 1.938 1_545 S
Zn4 O12 1.906 . S
Zn4 O22 1.953 . S
Zn5 O2 1.945 1_556 S
Zn5 O7 1.932 . S
Zn5 O14 1.977 1_455 S
Zn5 O15 1.910 . S
O6 Zn3 1.933 . S
O6 C17 1.226 1_565 S
O7 Zn5 1.932 . S
O7 C17 1.307 . S
O8 Zn1 1.919 . S
O8 C19 1.253 . S
O9 Zn3 1.941 . S
O9 C19 1.283 1_556 S
O10 Zn3 1.965 1_655 S
O10 C18 1.303 1_556 S
O11 Zn4 1.938 1_565 S
O11 C18 1.247 . S
O12 Zn4 1.906 . S
O12 C20 1.304 1_554 S
O13 Zn1 1.924 1_545 S
O13 C21 1.311 . S
O14 Zn5 1.977 1_655 S
O14 C20 1.272 . S
O15 Zn5 1.910 . S
O15 C21 1.231 1_556 S
C16 O0 1.225 . S
C16 O22 1.298 1_465 S
C17 O6 1.226 1_545 S
C17 O7 1.307 . S
C18 O10 1.303 1_554 S
C18 O11 1.247 . S
C19 O8 1.253 . S
C19 O9 1.283 1_554 S
C20 O12 1.304 1_556 S
C20 O14 1.272 . S
C21 O13 1.311 . S
C21 O15 1.231 1_554 S
O22 Zn4 1.953 . S
O22 C16 1.298 1_645 S
O23 Zn24 1.953 . S
O23 C39 1.225 . S
Zn24 O23 1.953 . S
Zn24 O25 1.949 . S
Zn24 O31 1.919 . S
Zn24 O36 1.924 . S
O25 Zn24 1.949 . S
O25 Zn26 1.923 . S
O25 Zn27 1.950 . S
O25 Zn28 1.945 . S
Zn26 O25 1.923 . S
Zn26 O29 1.933 . S
Zn26 O32 1.941 . S
Zn26 O33 1.965 . S
Zn27 O25 1.950 . S
Zn27 O34 1.938 . S
Zn27 O35 1.906 . S
Zn27 O45 1.953 . S
Zn28 O25 1.945 . S
Zn28 O30 1.932 . S
Zn28 O37 1.977 . S
Zn28 O38 1.910 . S
O29 Zn26 1.933 . S
O29 C40 1.226 . S
O30 Zn28 1.932 . S
O30 C40 1.307 . S
O31 Zn24 1.919 . S
O31 C42 1.253 . S
O32 Zn26 1.941 . S
O32 C42 1.283 . S
O33 Zn26 1.965 . S
O33 C41 1.303 . S
O34 Zn27 1.938 . S
O34 C41 1.247 . S
O35 Zn27 1.906 . S
O35 C43 1.304 . S
O36 Zn24 1.924 . S
O36 C44 1.311 . S
O37 Zn28 1.977 . S
O37 C43 1.272 . S
O38 Zn28 1.910 . S
O38 C44 1.231 . S
C39 O23 1.225 . S
C39 O45 1.298 . S
C40 O29 1.226 . S
C40 O30 1.307 . S
C41 O33 1.303 . S
C41 O34 1.247 . S
C42 O31 1.253 . S
C42 O32 1.283 . S
C43 O35 1.304 . S
C43 O37 1.272 . S
C44 O36 1.311 . S
C44 O38 1.231 . S
O45 Zn27 1.953 . S
O45 C39 1.298 . S
C46 N47 1.317 1_545 S
C46 N48 1.348 1_455 S
C46 C49 1.485 1_545 S
N47 C46 1.317 1_565 S
N47 N51 1.370 1_565 S
N48 C46 1.348 1_655 S
N48 C50 1.346 . S
C49 C46 1.485 1_565 S
C49 H53 0.960 1_455 S
C49 H54 0.961 1_565 S
C49 H55 0.960 . S
C50 N48 1.346 . S
C50 N51 1.307 1_655 S
C50 C52 1.486 . S
N51 N47 1.370 1_545 S
N51 C50 1.307 1_455 S
C52 C50 1.486 . S
C52 H56 0.960 . S
C52 H57 0.960 . S
C52 H58 0.959 . S
H53 C49 0.960 1_655 S
H54 C49 0.961 1_545 S
H55 C49 0.960 . S
H56 C52 0.960 . S
H57 C52 0.960 . S
H58 C52 0.959 . S
C59 N60 1.317 . S
C59 N61 1.348 1_445 S
C59 C62 1.485 . S
N60 C59 1.317 . S
N60 N64 1.370 . S
N61 C59 1.348 1_665 S
N61 C63 1.346 . S
C62 C59 1.485 . S
C62 H66 0.960 . S
C62 H67 0.961 1_545 S
C62 H68 0.960 . S
C63 N61 1.346 . S
C63 N64 1.307 1_665 S
C63 C65 1.486 . S
N64 N60 1.370 . S
N64 C63 1.307 1_445 S
C65 C63 1.486 . S
C65 H69 0.960 . S
C65 H70 0.960 . S
C65 H71 0.959 . S
H66 C62 0.960 . S
H67 C62 0.961 1_565 S
H68 C62 0.960 . S
H69 C65 0.960 . S
H70 C65 0.960 . S
H71 C65 0.959 . S
C72 N73 1.317 . S
C72 N74 1.348 . S
C72 C75 1.485 . S
N73 C72 1.317 . S
N73 N77 1.370 . S
N74 C72 1.348 . S
N74 C76 1.346 . S
C75 C72 1.485 . S
C75 H79 0.960 . S
C75 H80 0.961 . S
C75 H81 0.960 . S
C76 N74 1.346 . S
C76 N77 1.307 . S
C76 C78 1.486 . S
N77 N73 1.370 . S
N77 C76 1.307 . S
C78 C76 1.486 . S
C78 H82 0.960 . S
C78 H83 0.960 . S
C78 H84 0.959 . S
H79 C75 0.960 . S
H80 C75 0.961 . S
H81 C75 0.960 . S
H82 C78 0.960 . S
H83 C78 0.960 . S
H84 C78 0.959 . S
C85 N86 1.317 . S
C85 N87 1.348 . S
C85 C88 1.485 . S
N86 C85 1.317 . S
N86 N90 1.370 . S
N87 C85 1.348 . S
N87 C89 1.346 . S
C88 C85 1.485 . S
C88 H92 0.960 . S
C88 H93 0.961 . S
C88 H94 0.960 . S
C89 N87 1.346 . S
C89 N90 1.307 . S
C89 C91 1.486 . S
N90 N86 1.370 . S
N90 C89 1.307 . S
C91 C89 1.486 . S
C91 H95 0.960 . S
C91 H96 0.960 . S
C91 H97 0.959 . S
H92 C88 0.960 . S
H93 C88 0.961 . S
H94 C88 0.960 . S
H95 C91 0.960 . S
H96 C91 0.960 . S
H97 C91 0.959 . S
H98 C104 0.930 1_556 S
H99 C108 0.930 . S
H100 C113 0.929 . S
H101 C111 0.929 . S
H102 C106 0.929 . S
H103 C112 0.929 . S
C104 H98 0.930 1_554 S
C104 C105 1.367 . S
C104 C112 1.378 . S
C105 C104 1.367 . S
C105 C113 1.433 . S
C106 H102 0.929 . S
C106 C108 1.378 . S
C106 C110 1.350 . S
C107 C110 1.463 . S
C107 C112 1.350 . S
C107 N115 1.427 . S
C108 H99 0.930 . S
C108 C106 1.378 . S
C108 C109 1.367 . S
C109 C108 1.367 . S
C109 C111 1.433 . S
C110 C106 1.350 . S
C110 C107 1.463 . S
C110 N114 1.427 . S
C111 H101 0.929 . S
C111 C109 1.433 . S
C111 N114 1.384 . S
C112 H103 0.929 . S
C112 C104 1.378 . S
C112 C107 1.350 . S
C113 H100 0.929 . S
C113 C105 1.433 . S
C113 N115 1.384 . S
N114 C110 1.427 . S
N114 C111 1.384 . S
N115 C107 1.427 . S
N115 C113 1.384 . S
H116 C122 0.930 . S
H117 C126 0.930 . S
H118 C131 0.929 . S
H119 C129 0.929 . S
H120 C124 0.929 . S
H121 C130 0.929 1_554 S
C122 H116 0.930 . S
C122 C123 1.367 1_554 S
C122 C130 1.378 1_554 S
C123 C122 1.367 1_556 S
C123 C131 1.433 . S
C124 H120 0.929 . S
C124 C126 1.378 . S
C124 C128 1.350 . S
C125 C128 1.463 . S
C125 C130 1.350 . S
C125 N133 1.427 . S
C126 H117 0.930 . S
C126 C124 1.378 . S
C126 C127 1.367 . S
C127 C126 1.367 . S
C127 C129 1.433 . S
C128 C124 1.350 . S
C128 C125 1.463 . S
C128 N132 1.427 . S
C129 H119 0.929 . S
C129 C127 1.433 . S
C129 N132 1.384 . S
C130 H121 0.929 1_556 S
C130 C122 1.378 1_556 S
C130 C125 1.350 . S
C131 H118 0.929 . S
C131 C123 1.433 . S
C131 N133 1.384 . S
N132 C128 1.427 . S
N132 C129 1.384 . S
N133 C125 1.427 . S
N133 C131 1.384 . S
H134 C140 0.930 1_556 S
H135 C144 0.930 . S
H136 C149 0.929 . S
H137 C147 0.929 . S
H138 C142 0.929 . S
H139 C148 0.929 . S
C140 H134 0.930 1_554 S
C140 C141 1.367 . S
C140 C148 1.378 . S
C141 C140 1.367 . S
C141 C149 1.433 . S
C142 H138 0.929 . S
C142 C144 1.378 . S
C142 C146 1.350 . S
C143 C146 1.463 . S
C143 C148 1.350 . S
C143 N151 1.427 . S
C144 H135 0.930 . S
C144 C142 1.378 . S
C144 C145 1.367 . S
C145 C144 1.367 . S
C145 C147 1.433 . S
C146 C142 1.350 . S
C146 C143 1.463 . S
C146 N150 1.427 . S
C147 H137 0.929 . S
C147 C145 1.433 . S
C147 N150 1.384 . S
C148 H139 0.929 . S
C148 C140 1.378 . S
C148 C143 1.350 . S
C149 H136 0.929 . S
C149 C141 1.433 . S
C149 N151 1.384 . S
N150 C146 1.427 . S
N150 C147 1.384 . S
N151 C143 1.427 . S
N151 C149 1.384 . S
H152 C158 0.930 1_554 S
H153 C162 0.930 . S
H154 C167 0.929 . S
H155 C165 0.929 . S
H156 C160 0.929 . S
H157 C166 0.929 1_554 S
C158 H152 0.930 1_556 S
C158 C159 1.367 . S
C158 C166 1.378 . S
C159 C158 1.367 . S
C159 C167 1.433 . S
C160 H156 0.929 . S
C160 C162 1.378 . S
C160 C164 1.350 . S
C161 C164 1.463 . S
C161 C166 1.350 . S
C161 N169 1.427 . S
C162 H153 0.930 . S
C162 C160 1.378 . S
C162 C163 1.367 . S
C163 C162 1.367 . S
C163 C165 1.433 . S
C164 C160 1.350 . S
C164 C161 1.463 . S
C164 N168 1.427 . S
C165 H155 0.929 . S
C165 C163 1.433 . S
C165 N168 1.384 . S
C166 H157 0.929 1_556 S
C166 C158 1.378 . S
C166 C161 1.350 . S
C167 H154 0.929 . S
C167 C159 1.433 . S
C167 N169 1.384 . S
N168 C164 1.427 . S
N168 C165 1.384 . S
N169 C161 1.427 . S
N169 C167 1.384 . S
H170 C176 0.930 . S
H171 C180 0.930 . S
H172 C185 0.929 . S
H173 C183 0.929 . S
H174 C178 0.929 . S
H175 C184 0.929 . S
C176 H170 0.930 . S
C176 C177 1.367 . S
C176 C184 1.378 . S
C177 C176 1.367 . S
C177 C185 1.433 . S
C178 H174 0.929 . S
C178 C180 1.378 . S
C178 C182 1.350 . S
C179 C182 1.463 . S
C179 C184 1.350 . S
C179 N187 1.427 . S
C180 H171 0.930 . S
C180 C178 1.378 . S
C180 C181 1.367 . S
C181 C180 1.367 . S
C181 C183 1.433 . S
C182 C178 1.350 . S
C182 C179 1.463 . S
C182 N186 1.427 . S
C183 H173 0.929 . S
C183 C181 1.433 . S
C183 N186 1.384 . S
C184 H175 0.929 . S
C184 C176 1.378 . S
C184 C179 1.350 . S
C185 H172 0.929 . S
C185 C177 1.433 . S
C185 N187 1.384 . S
N186 C182 1.427 . S
N186 C183 1.384 . S
N187 C179 1.427 . S
N187 C185 1.384 . S
H188 C194 0.930 . S
H189 C198 0.930 . S
H190 C203 0.929 . S
H191 C201 0.929 . S
H192 C196 0.929 . S
H193 C202 0.929 . S
C194 H188 0.930 . S
C194 C195 1.367 . S
C194 C202 1.378 . S
C195 C194 1.367 . S
C195 C203 1.433 . S
C196 H192 0.929 . S
C196 C198 1.378 . S
C196 C200 1.350 . S
C197 C200 1.463 . S
C197 C202 1.350 . S
C197 N205 1.427 . S
C198 H189 0.930 . S
C198 C196 1.378 . S
C198 C199 1.367 . S
C199 C198 1.367 . S
C199 C201 1.433 . S
C200 C196 1.350 . S
C200 C197 1.463 . S
C200 N204 1.427 . S
C201 H191 0.929 . S
C201 C199 1.433 . S
C201 N204 1.384 . S
C202 H193 0.929 . S
C202 C194 1.378 . S
C202 C197 1.350 . S
C203 H190 0.929 . S
C203 C195 1.433 . S
C203 N205 1.384 . S
N204 C200 1.427 . S
N204 C201 1.384 . S
N205 C197 1.427 . S
N205 C203 1.384 . S
H206 C212 0.930 . S
H207 C216 0.930 . S
H208 C221 0.929 . S
H209 C219 0.929 . S
H210 C214 0.929 . S
H211 C220 0.929 . S
C212 H206 0.930 . S
C212 C213 1.367 . S
C212 C220 1.378 . S
C213 C212 1.367 . S
C213 C221 1.433 . S
C214 H210 0.929 . S
C214 C216 1.378 . S
C214 C218 1.350 . S
C215 C218 1.463 . S
C215 C220 1.350 . S
C215 N223 1.427 . S
C216 H207 0.930 . S
C216 C214 1.378 . S
C216 C217 1.367 . S
C217 C216 1.367 . S
C217 C219 1.433 . S
C218 C214 1.350 . S
C218 C215 1.463 . S
C218 N222 1.427 . S
C219 H209 0.929 . S
C219 C217 1.433 . S
C219 N222 1.384 . S
C220 H211 0.929 . S
C220 C212 1.378 . S
C220 C215 1.350 . S
C221 H208 0.929 . S
C221 C213 1.433 . S
C221 N223 1.384 . S
N222 C218 1.427 . S
N222 C219 1.384 . S
N223 C215 1.427 . S
N223 C221 1.384 . S
H224 C230 0.930 . S
H225 C234 0.930 . S
H226 C239 0.929 . S
H227 C237 0.929 . S
H228 C232 0.929 . S
H229 C238 0.929 . S
C230 H224 0.930 . S
C230 C231 1.367 . S
C230 C238 1.378 . S
C231 C230 1.367 . S
C231 C239 1.433 . S
C232 H228 0.929 . S
C232 C234 1.378 . S
C232 C236 1.350 . S
C233 C236 1.463 . S
C233 C238 1.350 . S
C233 N241 1.427 . S
C234 H225 0.930 . S
C234 C232 1.378 . S
C234 C235 1.367 . S
C235 C234 1.367 . S
C235 C237 1.433 . S
C236 C232 1.350 . S
C236 C233 1.463 . S
C236 N240 1.427 . S
C237 H227 0.929 . S
C237 C235 1.433 . S
C237 N240 1.384 . S
C238 H229 0.929 . S
C238 C230 1.378 . S
C238 C233 1.350 . S
C239 H226 0.929 . S
C239 C231 1.433 . S
C239 N241 1.384 . S
N240 C236 1.427 . S
N240 C237 1.384 . S
N241 C233 1.427 . S
N241 C239 1.384 . S
H242 C248 0.930 . S
H243 C252 0.930 . S
H244 C257 0.929 . S
H245 C255 0.929 . S
H246 C250 0.929 . S
H247 C256 0.929 . S
C248 H242 0.930 . S
C248 C249 1.367 . S
C248 C256 1.378 . S
C249 C248 1.367 . S
C249 C257 1.433 1_465 S
C250 H246 0.929 . S
C250 C252 1.378 . S
C250 C254 1.350 1_645 S
C251 C254 1.463 . S
C251 C256 1.350 . S
C251 N259 1.427 1_465 S
C252 H243 0.930 . S
C252 C250 1.378 . S
C252 C253 1.367 1_645 S
C253 C252 1.367 1_465 S
C253 C255 1.433 . S
C254 C250 1.350 1_465 S
C254 C251 1.463 . S
C254 N258 1.427 . S
C255 H245 0.929 . S
C255 C253 1.433 . S
C255 N258 1.384 . S
C256 H247 0.929 . S
C256 C248 1.378 . S
C256 C251 1.350 . S
C257 H244 0.929 . S
C257 C249 1.433 1_645 S
C257 N259 1.384 . S
N258 C254 1.427 . S
N258 C255 1.384 . S
N259 C251 1.427 1_645 S
N259 C257 1.384 . S
H260 C266 0.930 . S
H261 C270 0.930 . S
H262 C275 0.929 . S
H263 C273 0.929 . S
H264 C268 0.929 . S
H265 C274 0.929 . S
C266 H260 0.930 . S
C266 C267 1.367 . S
C266 C274 1.378 . S
C267 C266 1.367 . S
C267 C275 1.433 1_455 S
C268 H264 0.929 . S
C268 C270 1.378 . S
C268 C272 1.350 1_655 S
C269 C272 1.463 . S
C269 C274 1.350 . S
C269 N277 1.427 1_455 S
C270 H261 0.930 . S
C270 C268 1.378 . S
C270 C271 1.367 1_655 S
C271 C270 1.367 1_455 S
C271 C273 1.433 . S
C272 C268 1.350 1_455 S
C272 C269 1.463 . S
C272 N276 1.427 . S
C273 H263 0.929 . S
C273 C271 1.433 . S
C273 N276 1.384 . S
C274 H265 0.929 . S
C274 C266 1.378 . S
C274 C269 1.350 . S
C275 H262 0.929 . S
C275 C267 1.433 1_655 S
C275 N277 1.384 . S
N276 C272 1.427 . S
N276 C273 1.384 . S
N277 C269 1.427 1_655 S
N277 C275 1.384 . S
H278 C284 0.930 . S
H279 C288 0.930 . S
H280 C293 0.929 . S
H281 C291 0.929 . S
H282 C286 0.929 . S
H283 C292 0.929 . S
C284 H278 0.930 . S
C284 C285 1.367 . S
C284 C292 1.378 . S
C285 C284 1.367 . S
C285 C293 1.433 . S
C286 H282 0.929 . S
C286 C288 1.378 . S
C286 C290 1.350 . S
C287 C290 1.463 . S
C287 C292 1.350 . S
C287 N295 1.427 . S
C288 H279 0.930 . S
C288 C286 1.378 . S
C288 C289 1.367 . S
C289 C288 1.367 . S
C289 C291 1.433 . S
C290 C286 1.350 . S
C290 C287 1.463 . S
C290 N294 1.427 . S
C291 H281 0.929 . S
C291 C289 1.433 . S
C291 N294 1.384 . S
C292 H283 0.929 . S
C292 C284 1.378 . S
C292 C287 1.350 . S
C293 H280 0.929 . S
C293 C285 1.433 . S
C293 N295 1.384 . S
N294 C290 1.427 . S
N294 C291 1.384 . S
N295 C287 1.427 . S
N295 C293 1.384 . S
H296 C302 0.930 . S
H297 C306 0.930 . S
H298 C311 0.929 . S
H299 C309 0.929 . S
H300 C304 0.929 . S
H301 C310 0.929 . S
C302 H296 0.930 . S
C302 C303 1.367 . S
C302 C310 1.378 . S
C303 C302 1.367 . S
C303 C311 1.433 . S
C304 H300 0.929 . S
C304 C306 1.378 . S
C304 C308 1.350 . S
C305 C308 1.463 . S
C305 C310 1.350 . S
C305 N313 1.427 . S
C306 H297 0.930 . S
C306 C304 1.378 . S
C306 C307 1.367 . S
C307 C306 1.367 . S
C307 C309 1.433 . S
C308 C304 1.350 . S
C308 C305 1.463 . S
C308 N312 1.427 . S
C309 H299 0.929 . S
C309 C307 1.433 . S
C309 N312 1.384 . S
C310 H301 0.929 . S
C310 C302 1.378 . S
C310 C305 1.350 . S
C311 H298 0.929 . S
C311 C303 1.433 . S
C311 N313 1.384 . S
N312 C308 1.427 . S
N312 C309 1.384 . S
N313 C305 1.427 . S
N313 C311 1.384 . S
C109 N87 1.396 . S
C105 C21 1.398 . S
C123 C19 1.392 1_556 S
C127 N74 1.396 . S
C141 C18 1.475 . S
C145 N86 1.507 . S
C159 C20 1.512 . S
C163 N73 1.517 . S
C177 C44 1.402 . S
C181 N61 1.400 . S
C195 C42 1.399 . S
C199 N48 1.402 . S
C217 N60 1.509 . S
C213 C41 1.479 . S
C235 N47 1.519 . S
C231 C43 1.510 . S
C249 C16 1.530 . S
C253 N51 1.507 1_565 S
C267 C17 1.498 . S
C271 N64 1.480 . S
C289 N77 1.508 . S
C285 C39 1.530 . S
C303 C40 1.498 . S
C307 N90 1.481 . S
