# Generated by pormake.
# Topology anh, (6,3)-cn, num edge types: 1
# Building blocks:
#     Node 0, Type 0, BuildingBlock: PAMTOO_clean_sbu_0, # of connection points: 6
#     Node 1, Type 0, BuildingBlock: PAMTOO_clean_sbu_0, # of connection points: 6
#     Node 2, Type 0, BuildingBlock: PAMTOO_clean_sbu_0, # of connection points: 6
#     Node 3, Type 1, BuildingBlock: BETDAH_clean_linker_0, # of connection points: 3
#     Node 4, Type 1, BuildingBlock: BETDAH_clean_linker_0, # of connection points: 3
#     Node 5, Type 1, BuildingBlock: BETDAH_clean_linker_0, # of connection points: 3
#     Node 6, Type 1, BuildingBlock: BETDAH_clean_linker_0, # of connection points: 3
#     Node 7, Type 1, BuildingBlock: BETDAH_clean_linker_0, # of connection points: 3
#     Node 8, Type 1, BuildingBlock: BETDAH_clean_linker_0, # of connection points: 3
#     Edge 9, Type (0, 1), BuildingBlock: MIFKUJ_clean_linker_0, # of connection points: 2
#     Edge 10, Type (0, 1), BuildingBlock: MIFKUJ_clean_linker_0, # of connection points: 2
#     Edge 11, Type (0, 1), BuildingBlock: MIFKUJ_clean_linker_0, # of connection points: 2
#     Edge 12, Type (0, 1), BuildingBlock: MIFKUJ_clean_linker_0, # of connection points: 2
#     Edge 13, Type (0, 1), BuildingBlock: MIFKUJ_clean_linker_0, # of connection points: 2
#     Edge 14, Type (0, 1), BuildingBlock: MIFKUJ_clean_linker_0, # of connection points: 2
#     Edge 15, Type (0, 1), BuildingBlock: MIFKUJ_clean_linker_0, # of connection points: 2
#     Edge 16, Type (0, 1), BuildingBlock: MIFKUJ_clean_linker_0, # of connection points: 2
#     Edge 17, Type (0, 1), BuildingBlock: MIFKUJ_clean_linker_0, # of connection points: 2
#     Edge 18, Type (0, 1), BuildingBlock: MIFKUJ_clean_linker_0, # of connection points: 2
#     Edge 19, Type (0, 1), BuildingBlock: MIFKUJ_clean_linker_0, # of connection points: 2
#     Edge 20, Type (0, 1), BuildingBlock: MIFKUJ_clean_linker_0, # of connection points: 2
#     Edge 21, Type (0, 1), BuildingBlock: MIFKUJ_clean_linker_0, # of connection points: 2
#     Edge 22, Type (0, 1), BuildingBlock: MIFKUJ_clean_linker_0, # of connection points: 2
#     Edge 23, Type (0, 1), BuildingBlock: MIFKUJ_clean_linker_0, # of connection points: 2
#     Edge 24, Type (0, 1), BuildingBlock: MIFKUJ_clean_linker_0, # of connection points: 2
#     Edge 25, Type (0, 1), BuildingBlock: MIFKUJ_clean_linker_0, # of connection points: 2
#     Edge 26, Type (0, 1), BuildingBlock: MIFKUJ_clean_linker_0, # of connection points: 2
# Relax obj value: 0.111
# Max RMSD: 0.148
# Mean RMSD: 0.099
data_MOF--net-anh--node1-PAMTOO_clean_sbu_0--node2-BETDAH_clean_linker_0--edge1-MIFKUJ_clean_linker_0
_symmetry_space_group_name_H-M    P1
_symmetry_Int_Tables_number       1
_symmetry_cell_setting            triclinic
loop_
_symmetry_equiv_pos_as_xyz
'x, y, z'
_cell_length_a     39.665461
_cell_length_b     38.770512
_cell_length_c     64.138331
_cell_angle_alpha  93.282445
_cell_angle_beta   98.084883
_cell_angle_gamma 105.77819
loop_
_atom_site_label
_atom_site_type_symbol
_atom_site_fract_x
_atom_site_fract_y
_atom_site_fract_z
_atom_type_partial_charge
Dy0 Dy 0.09174 0.60901 0.15819 0.0
Dy1 Dy 0.06713 0.52086 0.15249 0.0
C2 C 0.07781 0.56641 0.11237 0.0
O3 O 1.03214 0.59355 0.1483 0.0
O4 O 1.01864 0.5368 0.15917 0.0
O5 O 0.09451 0.66157 0.14765 0.0
O6 O 0.11729 0.65662 0.17976 0.0
O7 O 0.08601 0.53733 0.18683 0.0
O8 O 0.072 0.59036 0.18778 0.0
O9 O 0.12341 0.53532 0.14593 0.0
O10 O 0.14295 0.59298 0.16247 0.0
O11 O 0.07324 0.47008 0.1621 0.0
O12 O 1.0313 0.47093 0.13678 0.0
C13 C 1.00876 0.56503 0.15315 0.0
O14 O 0.0967 0.59541 0.12469 0.0
O15 O 0.05987 0.53755 0.11996 0.0
C16 C 0.14511 0.7082 0.1645 0.0
C17 C 0.20795 0.76438 0.16511 0.0
C18 C 0.19721 0.73565 0.14891 0.0
C19 C 0.16612 0.70769 0.14866 0.0
C20 C 0.15547 0.7369 0.18047 0.0
C21 C 0.18658 0.76461 0.18085 0.0
C22 C 0.11336 0.67847 0.1655 0.0
C23 C 0.07808 0.56316 0.19729 0.0
C24 C 0.1495 0.56432 0.15367 0.0
C25 C 1.01783 0.42649 0.15988 0.0
C26 C 0.96161 0.38161 0.1766 0.0
C27 C 0.9819 0.41462 0.18783 0.0
C28 C 1.00966 0.43703 0.17945 0.0
C29 C 0.99839 0.39311 0.149 0.0
C30 C 0.97048 0.37084 0.15727 0.0
C31 C 1.04419 0.45138 0.14979 0.0
H32 H 0.2128 0.73474 0.13643 0.0
H33 H 0.15871 0.68557 0.13626 0.0
H34 H 0.13978 0.73753 0.19295 0.0
H35 H 0.1943 0.78574 0.19383 0.0
H36 H 0.97544 0.42372 0.20264 0.0
H37 H 1.02408 0.463 0.18796 0.0
H38 H 1.00419 0.38468 0.13383 0.0
H39 H 0.95548 0.34538 0.1484 0.0
Dy40 Dy 0.56012 0.02654 0.50551 0.0
Dy41 Dy 0.64666 0.05222 0.52064 0.0
C42 C 0.59524 0.03306 0.55454 0.0
O43 O 0.57801 0.08524 0.50136 0.0
O44 O 0.62686 0.09972 0.52723 0.0
O45 O 0.50746 0.02867 0.50952 0.0
O46 O 0.51504 0.9982 0.48211 0.0
O47 O 0.63593 0.06621 0.48757 0.0
O48 O 0.58581 0.02002 0.47732 0.0
O49 O 0.63174 0.99254 0.51233 0.0
O50 O 0.57263 0.97676 0.51565 0.0
O51 O 0.69835 0.05043 0.51469 0.0
O52 O 0.69373 0.08438 0.54155 0.0
C53 C 0.60247 0.10914 0.51472 0.0
O54 O 0.5696 0.03827 0.54079 0.0
O55 O 0.62521 0.03058 0.54901 0.0
C56 C 0.46165 0.97648 0.49492 0.0
C57 C 0.40422 0.91543 0.4961 0.0
C58 C 0.43592 0.92192 0.51063 0.0
C59 C 0.46448 0.95218 0.51 0.0
C60 C 0.42995 0.97065 0.48078 0.0
C61 C 0.40149 0.9404 0.48132 0.0
C62 C 0.49216 0.00654 0.49266 0.0
C63 C 0.61281 0.04453 0.47259 0.0
C64 C 0.60223 0.96826 0.5144 0.0
C65 C 0.73995 0.10737 0.52254 0.0
C66 C 0.78704 0.1676 0.50952 0.0
C67 C 0.75291 0.15248 0.4978 0.0
C68 C 0.72952 0.12275 0.50431 0.0
C69 C 0.77392 0.12232 0.53431 0.0
C70 C 0.79732 0.1523 0.52788 0.0
C71 C 0.71496 0.07644 0.52947 0.0
H72 H 0.43879 0.90345 0.52236 0.0
H73 H 0.48896 0.95625 0.52097 0.0
H74 H 0.42752 0.98902 0.46891 0.0
H75 H 0.37781 0.93598 0.46964 0.0
H76 H 0.74408 0.16401 0.48377 0.0
H77 H 0.7032 0.11186 0.49515 0.0
H78 H 0.7823 0.11088 0.54847 0.0
H79 H 0.82356 0.16329 0.53713 0.0
Dy80 Dy 0.62893 0.57557 0.83773 0.0
Dy81 Dy 0.54277 0.54419 0.82514 0.0
C82 C 0.59097 0.55728 0.78968 0.0
O83 O 0.60756 0.62083 0.84666 0.0
O84 O 0.55735 0.60357 0.82193 0.0
O85 O 0.67622 0.61857 0.83674 0.0
O86 O 0.68016 0.57043 0.85136 0.0
O87 O 0.55137 0.56103 0.85979 0.0
O88 O 0.60991 0.56147 0.86822 0.0
O89 O 0.5624 0.49702 0.8332 0.0
O90 O 0.6189 0.51753 0.82607 0.0
O91 O 0.49384 0.50328 0.82559 0.0
O92 O 0.49366 0.54911 0.80789 0.0
C93 C 0.5816 0.62871 0.83473 0.0
O94 O 0.61489 0.58109 0.80334 0.0
O95 O 0.56431 0.53433 0.79586 0.0
C96 C 0.72306 0.59496 0.83049 0.0
C97 C 0.76931 0.57773 0.80487 0.0
C98 C 0.73845 0.58559 0.79559 0.0
C99 C 0.71528 0.59384 0.80831 0.0
C100 C 0.75451 0.58837 0.83976 0.0
C101 C 0.77744 0.57975 0.82705 0.0
C102 C 0.69714 0.59961 0.84387 0.0
C103 C 0.57913 0.56131 0.87376 0.0
C104 C 0.5919 0.49102 0.8291 0.0
C105 C 0.44334 0.52359 0.8233 0.0
C106 C 0.383 0.5226 0.84177 0.0
C107 C 0.41683 0.54337 0.85192 0.0
C108 C 0.44686 0.54384 0.84273 0.0
C109 C 0.4097 0.5039 0.81281 0.0
C110 C 0.37975 0.50336 0.82196 0.0
C111 C 0.47454 0.52028 0.8146 0.0
H112 H 0.7316 0.58401 0.77853 0.0
H113 H 0.69087 0.59838 0.80077 0.0
H114 H 0.76083 0.5889 0.85679 0.0
H115 H 0.80135 0.57415 0.83456 0.0
H116 H 0.42013 0.55863 0.86711 0.0
H117 H 0.47286 0.55911 0.85102 0.0
H118 H 0.4067 0.48793 0.79788 0.0
H119 H 0.35424 0.48649 0.81391 0.0
H120 H 0.53035 0.0348 0.25184 0.0
H121 H 0.62972 0.10787 0.24346 0.0
H122 H 0.55625 0.04751 0.18941 0.0
C123 C 0.54827 0.04799 0.24155 0.0
C124 C 0.53918 0.03865 0.21963 0.0
C125 C 0.58102 0.07266 0.25034 0.0
C126 C 0.6045 0.08874 0.23681 0.0
C127 C 0.59537 0.07978 0.21476 0.0
C128 C 0.56304 0.05446 0.20639 0.0
N129 N 0.61804 0.09519 0.20043 0.0
C130 C 0.64806 0.12447 0.20571 0.0
H131 H 0.6026 0.47185 0.57313 0.0
H132 H 0.60543 0.57848 0.55697 0.0
H133 H 0.61569 0.49936 0.51017 0.0
C134 C 0.60493 0.49133 0.56156 0.0
C135 C 0.60954 0.48127 0.54102 0.0
C136 C 0.60345 0.52625 0.56744 0.0
C137 C 0.60659 0.55152 0.55246 0.0
C138 C 0.61062 0.54165 0.53165 0.0
C139 C 0.61207 0.50661 0.52611 0.0
N140 N 0.6134 0.56612 0.51588 0.0
C141 C 0.61188 0.6014 0.51906 0.0
H142 H 1.02514 0.52565 0.87431 0.0
H143 H 1.03173 0.43017 0.90348 0.0
H144 H 0.99112 0.422 0.83741 0.0
C145 C 1.0207 0.49673 0.8732 0.0
C146 C 1.00655 0.47599 0.85358 0.0
C147 C 1.02986 0.48057 0.89135 0.0
C148 C 1.02532 0.4433 0.88962 0.0
C149 C 1.01192 0.42239 0.87014 0.0
C150 C 1.00196 0.4386 0.85229 0.0
N151 N 1.01159 0.38574 0.86807 0.0
C152 C 1.04304 0.37771 0.87491 0.0
H153 H 0.11157 0.60324 0.41537 0.0
H154 H 1.05142 0.49646 0.42504 0.0
H155 H 0.12819 0.56289 0.47581 0.0
C156 C 0.10437 0.58223 0.42575 0.0
C157 C 0.12235 0.58728 0.44661 0.0
C158 C 0.07896 0.54946 0.41774 0.0
C159 C 0.0708 0.52188 0.43112 0.0
C160 C 0.08849 0.52697 0.45219 0.0
C161 C 0.11446 0.55935 0.45964 0.0
N162 N 0.0818 0.49986 0.46621 0.0
C163 C 1.05066 0.47193 0.46406 0.0
H164 H 0.58122 0.12309 0.77037 0.0
H165 H 0.59464 0.02165 0.7881 0.0
H166 H 0.60792 0.10898 0.83599 0.0
C167 C 0.58633 0.10596 0.78251 0.0
C168 C 0.59409 0.12009 0.80381 0.0
C169 C 0.58699 0.07067 0.7767 0.0
C170 C 0.5944 0.04895 0.79255 0.0
C171 C 0.60155 0.06256 0.81404 0.0
C172 C 0.60197 0.09831 0.81948 0.0
N173 N 0.60864 0.04129 0.83056 0.0
C174 C 0.60576 0.00464 0.82771 0.0
H175 H 0.64653 0.56968 0.09616 0.0
H176 H 0.54048 0.56709 0.10552 0.0
H177 H 0.61939 0.56396 0.15858 0.0
C178 C 0.6273 0.56916 0.10668 0.0
C179 C 0.63777 0.5677 0.12833 0.0
C180 C 0.59252 0.56902 0.09824 0.0
C181 C 0.56721 0.56689 0.11187 0.0
C182 C 0.57656 0.56505 0.13372 0.0
C183 C 0.61193 0.56515 0.14178 0.0
N184 N 0.55154 0.56344 0.14804 0.0
C185 C 0.51582 0.56376 0.14329 0.0
H186 H 0.2105 0.62153 0.163 0.0
H187 H 0.27159 0.62235 0.16014 0.0
H188 H 0.2362 0.50911 0.13842 0.0
H189 H 0.17495 0.50843 0.14066 0.0
H190 H 0.28401 0.53855 0.11666 0.0
H191 H 0.35658 0.64757 0.18546 0.0
H192 H 0.34605 0.67221 0.2195 0.0
H193 H 0.27109 0.5713 0.22533 0.0
H194 H 0.28148 0.54596 0.19145 0.0
H195 H 0.47219 0.58633 0.11318 0.0
H196 H 0.41051 0.58728 0.11408 0.0
H197 H 0.41363 0.54142 0.17377 0.0
H198 H 0.47514 0.54105 0.17294 0.0
H199 H 0.38191 0.59114 0.1765 0.0
H200 H 0.36756 0.49191 0.12468 0.0
H201 H 0.37693 0.46144 0.09207 0.0
H202 H 0.33375 0.53268 0.05485 0.0
H203 H 0.32453 0.56388 0.08728 0.0
C204 C 0.2156 0.59668 0.15767 0.0
C205 C 0.18734 0.56483 0.15223 0.0
C206 C 0.25086 0.59715 0.1561 0.0
C207 C 0.25929 0.56565 0.14936 0.0
C208 C 0.23099 0.53393 0.14369 0.0
C209 C 0.1957 0.53351 0.14508 0.0
C210 C 0.29729 0.56559 0.14826 0.0
C211 C 0.30532 0.55024 0.12978 0.0
C212 C 0.32568 0.58025 0.16531 0.0
C213 C 0.31956 0.59503 0.18582 0.0
C214 C 0.33795 0.63062 0.19405 0.0
C215 C 0.33199 0.64471 0.21331 0.0
C216 C 0.30783 0.62337 0.22454 0.0
C217 C 0.28969 0.58784 0.21658 0.0
C218 C 0.29559 0.57361 0.19734 0.0
C219 C 0.45956 0.57629 0.12641 0.0
C220 C 0.47851 0.5634 0.14293 0.0
C221 C 0.42413 0.57672 0.12692 0.0
C222 C 0.40667 0.56413 0.14394 0.0
C223 C 0.42597 0.5514 0.16044 0.0
C224 C 0.46124 0.55099 0.15991 0.0
C225 C 0.36869 0.56439 0.14484 0.0
C226 C 0.36065 0.57974 0.16331 0.0
C227 C 0.34023 0.54916 0.12793 0.0
C228 C 0.34572 0.53047 0.10842 0.0
C229 C 0.36032 0.50125 0.10955 0.0
C230 C 0.36556 0.48382 0.0911 0.0
C231 C 0.35604 0.49519 0.07141 0.0
C232 C 0.34117 0.52395 0.07012 0.0
C233 C 0.33591 0.5415 0.08853 0.0
H234 H 0.36012 0.48166 0.05714 0.0
H235 H 0.30322 0.63434 0.23943 0.0
H236 H 0.80146 0.17831 0.46958 0.0
H237 H 0.84204 0.23099 0.45823 0.0
H238 H 0.8687 0.28112 0.52246 0.0
H239 H 0.82795 0.22867 0.53388 0.0
H240 H 0.85532 0.32771 0.49249 0.0
H241 H 0.92414 0.24267 0.50368 0.0
H242 H 0.93605 0.18392 0.49806 0.0
H243 H 0.93276 0.19537 0.43166 0.0
H244 H 0.92033 0.25401 0.43686 0.0
H245 H 1.01807 0.46009 0.49769 0.0
H246 H 0.96789 0.40896 0.50133 0.0
H247 H 0.96304 0.36782 0.43663 0.0
H248 H 1.01402 0.41903 0.43319 0.0
H249 H 0.96042 0.31594 0.46204 0.0
H250 H 0.89822 0.40366 0.4509 0.0
H251 H 0.88568 0.46221 0.45583 0.0
H252 H 0.87485 0.44598 0.5205 0.0
H253 H 0.88784 0.38754 0.51606 0.0
C254 C 0.81583 0.20067 0.48124 0.0
C255 C 0.81168 0.19938 0.50263 0.0
C256 C 0.83907 0.23062 0.47476 0.0
C257 C 0.85844 0.25981 0.48953 0.0
C258 C 0.85396 0.25882 0.51083 0.0
C259 C 0.83095 0.22877 0.51735 0.0
C260 C 0.88389 0.29121 0.48293 0.0
C261 C 0.87847 0.32528 0.48597 0.0
C262 C 0.91331 0.28768 0.47373 0.0
C263 C 0.92089 0.25251 0.47062 0.0
C264 C 0.92565 0.23251 0.48785 0.0
C265 C 0.93255 0.19926 0.48475 0.0
C266 C 0.93505 0.18586 0.46451 0.0
C267 C 0.93075 0.20575 0.44733 0.0
C268 C 0.92379 0.239 0.45034 0.0
C269 C 1.0059 0.44029 0.48421 0.0
C270 C 1.01941 0.44319 0.46517 0.0
C271 C 0.97718 0.41123 0.48623 0.0
C272 C 0.96134 0.38479 0.46915 0.0
C273 C 0.97474 0.38801 0.44996 0.0
C274 C 1.00365 0.41716 0.44797 0.0
C275 C 0.93236 0.35279 0.47198 0.0
C276 C 0.93705 0.3185 0.46825 0.0
C277 C 0.90212 0.35612 0.48041 0.0
C278 C 0.89427 0.39129 0.48318 0.0
C279 C 0.89344 0.41268 0.46623 0.0
C280 C 0.8862 0.44584 0.46892 0.0
C281 C 0.87954 0.45783 0.48848 0.0
C282 C 0.88003 0.43666 0.50536 0.0
C283 C 0.88729 0.40349 0.50276 0.0
H284 H 0.87393 0.48351 0.49053 0.0
H285 H 0.94041 0.16012 0.46214 0.0
H286 H 0.53584 0.65666 0.80951 0.0
H287 H 0.53794 0.72009 0.80784 0.0
H288 H 0.62885 0.75078 0.8576 0.0
H289 H 0.62678 0.68751 0.85952 0.0
H290 H 0.58227 0.78837 0.86355 0.0
H291 H 0.63869 0.75859 0.80621 0.0
H292 H 0.64268 0.7233 0.77388 0.0
H293 H 0.55279 0.74978 0.74055 0.0
H294 H 0.54793 0.78481 0.77279 0.0
H295 H 0.64746 0.97368 0.85223 0.0
H296 H 0.64141 0.90908 0.85274 0.0
H297 H 0.55159 0.88548 0.80234 0.0
H298 H 0.55807 0.95039 0.8017 0.0
H299 H 0.59468 0.84359 0.7961 0.0
H300 H 0.53932 0.8748 0.85327 0.0
H301 H 0.53501 0.90945 0.88575 0.0
H302 H 0.6227 0.87987 0.91951 0.0
H303 H 0.62785 0.84543 0.88714 0.0
C304 C 0.55616 0.67686 0.82021 0.0
C305 C 0.58125 0.66692 0.83459 0.0
C306 C 0.55742 0.71316 0.81915 0.0
C307 C 0.58385 0.74028 0.8324 0.0
C308 C 0.60827 0.73036 0.84718 0.0
C309 C 0.60708 0.69412 0.84822 0.0
C310 C 0.58644 0.77904 0.83073 0.0
C311 C 0.58538 0.80052 0.84885 0.0
C312 C 0.58964 0.79477 0.81143 0.0
C313 C 0.59272 0.77401 0.79197 0.0
C314 C 0.61961 0.75667 0.79203 0.0
C315 C 0.62205 0.73674 0.77372 0.0
C316 C 0.59795 0.73421 0.75519 0.0
C317 C 0.57141 0.75171 0.75492 0.0
C318 C 0.56881 0.77163 0.7732 0.0
C319 C 0.62663 0.95461 0.84118 0.0
C320 C 0.60319 0.96665 0.82694 0.0
C321 C 0.62304 0.91776 0.84155 0.0
C322 C 0.59569 0.8923 0.82779 0.0
C323 C 0.5728 0.90455 0.81314 0.0
C324 C 0.57645 0.94151 0.81278 0.0
C325 C 0.59081 0.85301 0.82898 0.0
C326 C 0.59142 0.83142 0.81077 0.0
C327 C 0.58721 0.83714 0.84821 0.0
C328 C 0.58417 0.85782 0.86772 0.0
C329 C 0.55786 0.87592 0.86757 0.0
C330 C 0.55524 0.89548 0.88598 0.0
C331 C 0.57862 0.89694 0.90467 0.0
C332 C 0.60463 0.87876 0.90501 0.0
C333 C 0.6074 0.85918 0.88665 0.0
H334 H 0.57654 0.91209 0.9189 0.0
H335 H 0.59988 0.71877 0.74103 0.0
H336 H 0.97645 0.61584 0.13873 0.0
H337 H 0.91448 0.61568 0.13727 0.0
H338 H 0.89176 0.51442 0.16452 0.0
H339 H 0.9536 0.51399 0.16549 0.0
H340 H 0.8385 0.51146 0.1355 0.0
H341 H 0.89969 0.5992 0.19319 0.0
H342 H 0.94508 0.65301 0.21174 0.0
H343 H 0.90683 0.71955 0.16843 0.0
H344 H 0.8615 0.66605 0.14942 0.0
H345 H 0.66526 0.52141 0.15246 0.0
H346 H 0.72759 0.52008 0.15969 0.0
H347 H 0.75904 0.6158 0.12781 0.0
H348 H 0.69727 0.6172 0.12073 0.0
H349 H 0.80745 0.61966 0.16198 0.0
H350 H 0.74764 0.52984 0.10362 0.0
H351 H 0.70208 0.47539 0.08596 0.0
H352 H 0.73771 0.41193 0.13231 0.0
H353 H 0.78319 0.46615 0.15044 0.0
C354 C 0.95839 0.59349 0.14447 0.0
C355 C 0.97052 0.56501 0.15231 0.0
C356 C 0.92271 0.59352 0.14375 0.0
C357 C 0.89791 0.56534 0.15112 0.0
C358 C 0.90992 0.53665 0.15874 0.0
C359 C 0.94557 0.53649 0.15935 0.0
C360 C 0.85964 0.56564 0.15066 0.0
C361 C 0.83189 0.53502 0.14165 0.0
C362 C 0.85024 0.5963 0.15837 0.0
C363 C 0.87741 0.62856 0.16976 0.0
C364 C 0.90112 0.62527 0.18752 0.0
C365 C 0.92682 0.65572 0.19814 0.0
C366 C 0.92889 0.68967 0.19124 0.0
C367 C 0.90522 0.69324 0.17374 0.0
C368 C 0.8795 0.66286 0.16305 0.0
C369 C 0.68558 0.54255 0.14739 0.0
C370 C 0.67603 0.56941 0.136 0.0
C371 C 0.7213 0.54158 0.15131 0.0
C372 C 0.74847 0.56757 0.14405 0.0
C373 C 0.73901 0.59529 0.13358 0.0
C374 C 0.70348 0.59607 0.12952 0.0
C375 C 0.78646 0.56569 0.14662 0.0
C376 C 0.81414 0.59605 0.156 0.0
C377 C 0.79576 0.5347 0.13942 0.0
C378 C 0.76851 0.50212 0.12853 0.0
C379 C 0.74556 0.50433 0.11015 0.0
C380 C 0.71979 0.4735 0.10004 0.0
C381 C 0.71693 0.44024 0.10805 0.0
C382 C 0.7399 0.43773 0.12616 0.0
C383 C 0.76568 0.46849 0.13636 0.0
H384 H 0.69697 0.4164 0.1002 0.0
H385 H 0.9488 0.71321 0.19947 0.0
H386 H 0.33256 0.90737 0.4889 0.0
H387 H 0.28461 0.85128 0.48369 0.0
H388 H 0.36097 0.79146 0.49725 0.0
H389 H 0.40923 0.84728 0.50136 0.0
H390 H 0.31656 0.76158 0.46296 0.0
H391 H 0.30414 0.80277 0.53235 0.0
H392 H 0.29771 0.84566 0.56038 0.0
H393 H 0.19916 0.8501 0.52472 0.0
H394 H 0.20523 0.8076 0.49632 0.0
H395 H 0.18898 0.59474 0.46771 0.0
H396 H 0.23637 0.65075 0.47921 0.0
H397 H 0.16663 0.71217 0.45457 0.0
H398 H 0.11905 0.65616 0.44299 0.0
H399 H 0.20762 0.73995 0.49585 0.0
H400 H 0.22261 0.70088 0.42583 0.0
H401 H 0.22922 0.65718 0.39833 0.0
H402 H 0.32374 0.64798 0.43654 0.0
H403 H 0.31747 0.69134 0.46441 0.0
C404 C 0.33919 0.88229 0.49079 0.0
C405 C 0.37481 0.88186 0.49544 0.0
C406 C 0.31168 0.85025 0.48806 0.0
C407 C 0.31913 0.81713 0.49025 0.0
C408 C 0.35457 0.8167 0.49551 0.0
C409 C 0.38214 0.84871 0.49808 0.0
C410 C 0.29019 0.78283 0.48566 0.0
C411 C 0.29307 0.75666 0.47048 0.0
C412 C 0.25909 0.77669 0.49506 0.0
C413 C 0.25531 0.80223 0.51212 0.0
C414 C 0.28123 0.8131 0.5304 0.0
C415 C 0.27763 0.83731 0.54637 0.0
C416 C 0.24809 0.85066 0.54431 0.0
C417 C 0.22205 0.83977 0.52629 0.0
C418 C 0.22554 0.81558 0.51026 0.0
C419 C 0.18365 0.62021 0.46498 0.0
C420 C 0.15042 0.62119 0.45445 0.0
C421 C 0.21073 0.6521 0.47146 0.0
C422 C 0.20493 0.68546 0.46765 0.0
C423 C 0.17151 0.68662 0.45766 0.0
C424 C 0.14452 0.65469 0.45095 0.0
C425 C 0.23427 0.71905 0.4733 0.0
C426 C 0.23134 0.74498 0.48856 0.0
C427 C 0.26544 0.72496 0.4641 0.0
C428 C 0.26936 0.69906 0.4473 0.0
C429 C 0.24464 0.68931 0.42845 0.0
C430 C 0.24834 0.66464 0.41278 0.0
C431 C 0.27679 0.64971 0.41572 0.0
C432 C 0.30168 0.65952 0.43431 0.0
C433 C 0.29809 0.68417 0.45004 0.0
H434 H 0.27961 0.63062 0.40357 0.0
H435 H 0.24535 0.8694 0.55669 0.0
H436 H 0.5374 0.42902 0.82436 0.0
H437 H 0.54066 0.36711 0.82201 0.0
H438 H 0.65484 0.40531 0.82871 0.0
H439 H 0.65159 0.46764 0.83022 0.0
H440 H 0.63329 0.35053 0.80076 0.0
H441 H 0.61012 0.37044 0.87035 0.0
H442 H 0.58011 0.38908 0.89833 0.0
H443 H 0.48318 0.30896 0.8714 0.0
H444 H 0.51247 0.29017 0.84306 0.0
H445 H 0.64938 0.17475 0.82502 0.0
H446 H 0.65165 0.23864 0.83132 0.0
H447 H 0.54232 0.21424 0.80152 0.0
H448 H 0.54031 0.15068 0.79462 0.0
H449 H 0.56601 0.26223 0.84376 0.0
H450 H 0.59291 0.24639 0.77262 0.0
H451 H 0.62707 0.22759 0.74708 0.0
H452 H 0.72316 0.30126 0.7809 0.0
H453 H 0.68962 0.31998 0.80692 0.0
C454 C 0.56327 0.42434 0.82539 0.0
C455 C 0.59427 0.45337 0.82764 0.0
C456 C 0.56512 0.3888 0.82416 0.0
C457 C 0.59806 0.3813 0.82567 0.0
C458 C 0.62908 0.41026 0.82761 0.0
C459 C 0.6272 0.44592 0.82852 0.0
C460 C 0.59984 0.34323 0.82487 0.0
C461 C 0.61901 0.33149 0.81045 0.0
C462 C 0.58119 0.318 0.83741 0.0
C463 C 0.56344 0.3291 0.85447 0.0
C464 C 0.58234 0.35696 0.8703 0.0
C465 C 0.56546 0.36753 0.88624 0.0
C466 C 0.52974 0.35027 0.88661 0.0
C467 C 0.51084 0.32233 0.87107 0.0
C468 C 0.52758 0.31168 0.85508 0.0
C469 C 0.62579 0.18307 0.82004 0.0
C470 C 0.59465 0.15793 0.80938 0.0
C471 C 0.62713 0.21947 0.82358 0.0
C472 C 0.59715 0.23109 0.81686 0.0
C473 C 0.56569 0.20577 0.80686 0.0
C474 C 0.56458 0.16958 0.8029 0.0
C475 C 0.59885 0.26985 0.8195 0.0
C476 C 0.58042 0.28157 0.83427 0.0
C477 C 0.61876 0.29518 0.80764 0.0
C478 C 0.63883 0.28424 0.79186 0.0
C479 C 0.62137 0.2583 0.77474 0.0
C480 C 0.64061 0.24771 0.76015 0.0
C481 C 0.67728 0.26313 0.76239 0.0
C482 C 0.69477 0.28927 0.77921 0.0
C483 C 0.67566 0.29988 0.79388 0.0
H484 H 0.69212 0.2549 0.75107 0.0
H485 H 0.51672 0.35849 0.89896 0.0
H486 H 0.65983 0.94178 0.51808 0.0
H487 H 0.66058 0.87938 0.52017 0.0
H488 H 0.54653 0.84606 0.51534 0.0
H489 H 0.54558 0.90869 0.51376 0.0
H490 H 0.57545 0.81189 0.54435 0.0
H491 H 0.58766 0.83349 0.47263 0.0
H492 H 0.61369 0.86566 0.44403 0.0
H493 H 0.71406 0.8478 0.46676 0.0
H494 H 0.68875 0.81594 0.49569 0.0
H495 H 0.55337 0.62445 0.51719 0.0
H496 H 0.55112 0.6872 0.51771 0.0
H497 H 0.66553 0.72356 0.52524 0.0
H498 H 0.66759 0.66075 0.52444 0.0
H499 H 0.63541 0.75582 0.49483 0.0
H500 H 0.62133 0.73217 0.56627 0.0
H501 H 0.5935 0.69823 0.5937 0.0
H502 H 0.49456 0.71886 0.57061 0.0
H503 H 0.52162 0.75224 0.54268 0.0
C504 C 0.63483 0.92122 0.51742 0.0
C505 C 0.6026 0.93027 0.51559 0.0
C506 C 0.63533 0.88549 0.51856 0.0
C507 C 0.60357 0.85789 0.51758 0.0
C508 C 0.57137 0.86687 0.51608 0.0
C509 C 0.57086 0.9027 0.5151 0.0
C510 C 0.60403 0.81971 0.51801 0.0
C511 C 0.58815 0.79947 0.53334 0.0
C512 C 0.62113 0.80364 0.50389 0.0
C513 C 0.63639 0.82262 0.48644 0.0
C514 C 0.61535 0.83665 0.47162 0.0
C515 C 0.62997 0.85479 0.45534 0.0
C516 C 0.66553 0.85885 0.45361 0.0
C517 C 0.68653 0.84468 0.46813 0.0
C518 C 0.67205 0.82655 0.48446 0.0
C519 C 0.57794 0.646 0.51917 0.0
C520 C 0.61065 0.63823 0.52088 0.0
C521 C 0.57669 0.68174 0.51951 0.0
C522 C 0.60819 0.71013 0.52168 0.0
C523 C 0.64092 0.70213 0.52357 0.0
C524 C 0.64213 0.66639 0.52321 0.0
C525 C 0.60704 0.74807 0.52124 0.0
C526 C 0.62275 0.76824 0.50586 0.0
C527 C 0.58956 0.76393 0.53521 0.0
C528 C 0.57343 0.74441 0.55224 0.0
C529 C 0.59357 0.72925 0.56694 0.0
C530 C 0.57793 0.71012 0.58259 0.0
C531 C 0.54225 0.70634 0.58389 0.0
C532 C 0.52218 0.72177 0.56956 0.0
C533 C 0.53765 0.74078 0.55381 0.0
H534 H 0.53014 0.6915 0.596 0.0
H535 H 0.6768 0.87291 0.44099 0.0
H536 H 0.79906 0.61038 0.77233 0.0
H537 H 0.8453 0.59494 0.75499 0.0
H538 H 0.83771 0.50332 0.79124 0.0
H539 H 0.79172 0.5182 0.80791 0.0
H540 H 0.90671 0.59963 0.77433 0.0
H541 H 0.86143 0.43998 0.77436 0.0
H542 H 0.81011 0.39023 0.75743 0.0
H543 H 0.78255 0.45804 0.71125 0.0
H544 H 0.83413 0.50819 0.72762 0.0
H545 H 0.97397 0.52936 0.85275 0.0
H546 H 0.94898 0.55319 0.82227 0.0
H547 H 0.98578 0.48472 0.78083 0.0
H548 H 1.01227 0.46117 0.81181 0.0
H549 H 0.91773 0.47525 0.7693 0.0
H550 H 1.01069 0.5763 0.7746 0.0
H551 H 0.06281 0.62673 0.78986 0.0
H552 H 0.99668 0.67629 0.82131 0.0
H553 H 0.94425 0.62598 0.80662 0.0
C554 C 0.80667 0.58633 0.77597 0.0
C555 C 0.79249 0.56578 0.79169 0.0
C556 C 0.83293 0.57747 0.76604 0.0
C557 C 0.84487 0.5477 0.77154 0.0
C558 C 0.82855 0.52583 0.78615 0.0
C559 C 0.80265 0.53472 0.79605 0.0
C560 C 0.87887 0.54338 0.76628 0.0
C561 C 0.90932 0.57254 0.7727 0.0
C562 C 0.88286 0.50856 0.76222 0.0
C563 C 0.85207 0.47795 0.75215 0.0
C564 C 0.84487 0.44427 0.76039 0.0
C565 C 0.81556 0.41598 0.75094 0.0
C566 C 0.79314 0.42094 0.73324 0.0
C567 C 0.79996 0.45423 0.72496 0.0
C568 C 0.82923 0.48262 0.73433 0.0
C569 C 0.97808 0.52021 0.83729 0.0
C570 C 0.99504 0.4932 0.8348 0.0
C571 C 0.96384 0.53407 0.81974 0.0
C572 C 0.96603 0.52128 0.79917 0.0
C573 C 0.98412 0.49527 0.79654 0.0
C574 C 0.9988 0.48154 0.81425 0.0
C575 C 0.94346 0.53061 0.78118 0.0
C576 C 0.9155 0.50252 0.76988 0.0
C577 C 0.94199 0.56652 0.78023 0.0
C578 C 0.97331 0.59735 0.78923 0.0
C579 C 1.0072 0.5979 0.7848 0.0
C580 C 1.03685 0.62649 0.79338 0.0
C581 C 1.03304 0.65476 0.80648 0.0
C582 C 0.99956 0.65447 0.81105 0.0
C583 C 0.96981 0.62595 0.80252 0.0
H584 H 0.05604 0.67686 0.81313 0.0
H585 H 0.77043 0.399 0.72598 0.0
H586 H 0.22121 0.83638 0.17737 0.0
H587 H 0.27792 0.88268 0.18272 0.0
H588 H 0.32793 0.80557 0.15958 0.0
H589 H 0.27163 0.75836 0.15554 0.0
H590 H 0.36721 0.84137 0.19343 0.0
H591 H 0.31202 0.87591 0.13043 0.0
H592 H 0.265 0.89134 0.10662 0.0
H593 H 0.27191 0.98207 0.15032 0.0
H594 H 0.31864 0.96691 0.17455 0.0
H595 H 0.52866 0.97927 0.19186 0.0
H596 H 0.47252 0.93295 0.17861 0.0
H597 H 0.41698 0.99104 0.21401 0.0
H598 H 0.47307 0.03723 0.22746 0.0
H599 H 0.38276 0.9642 0.17075 0.0
H600 H 0.4354 0.92485 0.23457 0.0
H601 H 0.48369 0.90932 0.25718 0.0
H602 H 0.48255 0.82666 0.20935 0.0
H603 H 0.43461 0.84213 0.1863 0.0
C604 C 0.24425 0.82912 0.17349 0.0
C605 C 0.24178 0.79346 0.16616 0.0
C606 C 0.27665 0.85585 0.17625 0.0
C607 C 0.30723 0.84783 0.1713 0.0
C608 C 0.30471 0.81248 0.16346 0.0
C609 C 0.27235 0.78556 0.16094 0.0
C610 C 0.34215 0.87581 0.17559 0.0
C611 C 0.3707 0.86796 0.18806 0.0
C612 C 0.34675 0.9108 0.16893 0.0
C613 C 0.31868 0.92009 0.15438 0.0
C614 C 0.30334 0.899 0.13504 0.0
C615 C 0.27677 0.90773 0.12145 0.0
C616 C 0.26543 0.93762 0.12697 0.0
C617 C 0.2807 0.9589 0.14607 0.0
C618 C 0.30728 0.95029 0.15972 0.0
C619 C 0.50439 0.98228 0.19662 0.0
C620 C 0.5051 0.01169 0.21072 0.0
C621 C 0.47245 0.95583 0.18911 0.0
C622 C 0.44073 0.95862 0.1954 0.0
C623 C 0.44122 0.98851 0.20897 0.0
C624 C 0.47321 0.01467 0.21673 0.0
C625 C 0.40724 0.92961 0.18862 0.0
C626 C 0.37912 0.93737 0.17579 0.0
C627 C 0.40312 0.89443 0.1947 0.0
C628 C 0.43172 0.88493 0.20862 0.0
C629 C 0.44567 0.90359 0.2288 0.0
C630 C 0.47294 0.89476 0.24171 0.0
C631 C 0.48626 0.86709 0.23468 0.0
C632 C 0.47226 0.84813 0.21476 0.0
C633 C 0.44503 0.85691 0.20177 0.0
H634 H 0.50736 0.86028 0.2447 0.0
H635 H 0.24484 0.94433 0.11643 0.0
H636 H 0.56988 0.14315 0.48521 0.0
H637 H 0.57164 0.20702 0.48716 0.0
H638 H 0.63775 0.22535 0.54845 0.0
H639 H 0.63647 0.16191 0.54655 0.0
H640 H 0.581 0.25461 0.54737 0.0
H641 H 0.67373 0.25094 0.50796 0.0
H642 H 0.7012 0.2313 0.47903 0.0
H643 H 0.63305 0.26999 0.43389 0.0
H644 H 0.60434 0.2888 0.46249 0.0
H645 H 0.64595 0.44257 0.56463 0.0
H646 H 0.64434 0.3796 0.55743 0.0
H647 H 0.57688 0.37297 0.49757 0.0
H648 H 0.57784 0.43611 0.50483 0.0
H649 H 0.63093 0.3373 0.49602 0.0
H650 H 0.53875 0.34141 0.53652 0.0
H651 H 0.51428 0.36307 0.56631 0.0
H652 H 0.58489 0.32511 0.61021 0.0
H653 H 0.6102 0.30373 0.58069 0.0
C654 C 0.58473 0.1608 0.49911 0.0
C655 C 0.60298 0.14749 0.51575 0.0
C656 C 0.58585 0.19727 0.50014 0.0
C657 C 0.60491 0.22087 0.51793 0.0
C658 C 0.62288 0.20756 0.5346 0.0
C659 C 0.62219 0.17131 0.53345 0.0
C660 C 0.60578 0.25939 0.51947 0.0
C661 C 0.59215 0.27273 0.53622 0.0
C662 C 0.61973 0.2828 0.50466 0.0
C663 C 0.63646 0.27079 0.48736 0.0
C664 C 0.66416 0.25472 0.49183 0.0
C665 C 0.68001 0.24378 0.47549 0.0
C666 C 0.66877 0.24923 0.45462 0.0
C667 C 0.64165 0.26564 0.45006 0.0
C668 C 0.62549 0.27634 0.46632 0.0
C669 C 0.63073 0.42776 0.54992 0.0
C670 C 0.61154 0.44419 0.53545 0.0
C671 C 0.62999 0.39184 0.54579 0.0
C672 C 0.61008 0.37153 0.52712 0.0
C673 C 0.59234 0.38822 0.5121 0.0
C674 C 0.59298 0.42428 0.51625 0.0
C675 C 0.60639 0.33243 0.52399 0.0
C676 C 0.61944 0.31901 0.50699 0.0
C677 C 0.5921 0.30887 0.53862 0.0
C678 C 0.57657 0.32124 0.5564 0.0
C679 C 0.54923 0.3379 0.55254 0.0
C680 C 0.53519 0.35011 0.56937 0.0
C681 C 0.54808 0.34554 0.59015 0.0
C682 C 0.57496 0.32866 0.59411 0.0
C683 C 0.58914 0.31647 0.57733 0.0
H684 H 0.53718 0.35502 0.60316 0.0
H685 H 0.68118 0.24087 0.442 0.0
H686 H 0.37893 0.51415 0.88355 0.0
H687 H 0.32495 0.49489 0.89921 0.0
H688 H 0.26181 0.49904 0.83934 0.0
H689 H 0.3156 0.5203 0.82399 0.0
H690 H 0.23079 0.51625 0.86984 0.0
H691 H 0.28445 0.42091 0.85337 0.0
H692 H 0.33329 0.39244 0.85679 0.0
H693 H 0.33218 0.39083 0.9236 0.0
H694 H 0.28357 0.41968 0.92057 0.0
H695 H 0.08532 0.35837 0.85023 0.0
H696 H 0.14987 0.38444 0.85498 0.0
H697 H 0.14847 0.4354 0.91628 0.0
H698 H 0.084 0.40869 0.91174 0.0
H699 H 0.21464 0.39403 0.89374 0.0
H700 H 0.16582 0.50705 0.90599 0.0
H701 H 0.11611 0.53334 0.89661 0.0
H702 H 0.10495 0.49269 0.83155 0.0
H703 H 0.15476 0.46646 0.84059 0.0
C704 C 0.35364 0.51221 0.87393 0.0
C705 C 0.35144 0.51805 0.85239 0.0
C706 C 0.32279 0.50084 0.88286 0.0
C707 C 0.28936 0.49459 0.87028 0.0
C708 C 0.28732 0.50337 0.84931 0.0
C709 C 0.31808 0.51516 0.84048 0.0
C710 C 0.25644 0.47526 0.87788 0.0
C711 C 0.22763 0.48991 0.87553 0.0
C712 C 0.25197 0.44059 0.88504 0.0
C713 C 0.28071 0.42275 0.88679 0.0
C714 C 0.29475 0.4146 0.8688 0.0
C715 C 0.32237 0.39841 0.87066 0.0
C716 C 0.3359 0.38993 0.89041 0.0
C717 C 0.32173 0.39749 0.90832 0.0
C718 C 0.29415 0.41374 0.90654 0.0
C719 C 0.09914 0.37348 0.86517 0.0
C720 C 0.08018 0.38141 0.88072 0.0
C721 C 0.13586 0.38848 0.86783 0.0
C722 C 0.15365 0.41177 0.88595 0.0
C723 C 0.13507 0.41721 0.90229 0.0
C724 C 0.09838 0.40192 0.8997 0.0
C725 C 0.18958 0.43527 0.88572 0.0
C726 C 0.21858 0.42115 0.88912 0.0
C727 C 0.19423 0.47014 0.87918 0.0
C728 C 0.16387 0.485 0.87392 0.0
C729 C 0.15266 0.50374 0.88971 0.0
C730 C 0.12452 0.5186 0.88446 0.0
C731 C 0.1075 0.51478 0.86349 0.0
C732 C 0.11827 0.49574 0.84776 0.0
C733 C 0.14645 0.48094 0.85293 0.0
H734 H 0.08613 0.52676 0.85937 0.0
H735 H 0.3573 0.37741 0.89183 0.0
H736 H 0.89576 0.3513 0.15397 0.0
H737 H 0.84363 0.31367 0.16616 0.0
H738 H 0.90357 0.32408 0.2289 0.0
H739 H 0.95621 0.36192 0.21669 0.0
H740 H 0.86464 0.25233 0.213 0.0
H741 H 0.84446 0.36698 0.2227 0.0
H742 H 0.84062 0.42656 0.21301 0.0
H743 H 0.75611 0.37612 0.16186 0.0
H744 H 0.75987 0.31621 0.17095 0.0
H745 H 0.70064 0.14706 0.23963 0.0
H746 H 0.75519 0.19717 0.24185 0.0
H747 H 0.71921 0.21948 0.17866 0.0
H748 H 0.66479 0.1701 0.17671 0.0
H749 H 0.74911 0.28073 0.20336 0.0
H750 H 0.77826 0.1688 0.1887 0.0
H751 H 0.78323 0.10853 0.19625 0.0
H752 H 0.8513 0.15376 0.25516 0.0
H753 H 0.84637 0.21427 0.24806 0.0
C754 C 0.8979 0.34549 0.17035 0.0
C755 C 0.93007 0.35929 0.18435 0.0
C756 C 0.86803 0.32427 0.17734 0.0
C757 C 0.86971 0.31635 0.19846 0.0
C758 C 0.90177 0.33003 0.21255 0.0
C759 C 0.93169 0.35167 0.20559 0.0
C760 C 0.83801 0.29258 0.20528 0.0
C761 C 0.83953 0.25884 0.21144 0.0
C762 C 0.80523 0.301 0.20291 0.0
C763 C 0.80259 0.33703 0.19747 0.0
C764 C 0.82522 0.36856 0.20928 0.0
C765 C 0.82305 0.40241 0.2039 0.0
C766 C 0.79817 0.40513 0.18681 0.0
C767 C 0.77538 0.37399 0.17508 0.0
C768 C 0.77749 0.34006 0.18037 0.0
C769 C 0.70446 0.16309 0.2264 0.0
C770 C 0.67897 0.15508 0.208 0.0
C771 C 0.73552 0.19153 0.22762 0.0
C772 C 0.74143 0.2119 0.21033 0.0
C773 C 0.71522 0.20428 0.19222 0.0
C774 C 0.68426 0.17605 0.19106 0.0
C775 C 0.77547 0.23997 0.21037 0.0
C776 C 0.77437 0.27454 0.20547 0.0
C777 C 0.80861 0.23224 0.21373 0.0
C778 C 0.81157 0.19592 0.21799 0.0
C779 C 0.79405 0.16582 0.20334 0.0
C780 C 0.7969 0.13164 0.20752 0.0
C781 C 0.81746 0.1273 0.22621 0.0
C782 C 0.83531 0.15715 0.24072 0.0
C783 C 0.8325 0.19139 0.23663 0.0
H784 H 0.81965 0.10082 0.22941 0.0
H785 H 0.79651 0.43137 0.18268 0.0
H786 H 1.04826 0.50851 0.08318 0.0
H787 H 1.0454 0.50592 0.04508 0.0
H788 H 0.10084 0.61924 0.05035 0.0
H789 H 0.10448 0.62202 0.08898 0.0
H790 H 1.01326 0.53798 0.01708 0.0
H791 H 0.14853 0.63216 0.0079 0.0
H792 H 0.20913 0.6564 0.02808 0.0
H793 H 0.19488 0.56201 0.06157 0.0
H794 H 0.13441 0.53706 0.0414 0.0
H795 H 1.00644 0.53497 0.90774 0.0
H796 H 1.02155 0.56394 0.94395 0.0
H797 H 0.09622 0.5027 0.95887 0.0
H798 H 0.08267 0.47505 0.92237 0.0
H799 H 0.11923 0.56787 0.98137 0.0
H800 H 1.01017 0.47014 0.96569 0.0
H801 H 0.95036 0.43905 0.94618 0.0
H802 H 0.91346 0.52905 0.96419 0.0
H803 H 0.97326 0.56087 0.98358 0.0
C804 C 0.05989 0.53299 0.07636 0.0
C805 C 0.07653 0.56551 0.08917 0.0
C806 C 0.05815 0.53146 0.0545 0.0
C807 C 0.07286 0.56235 0.04485 0.0
C808 C 0.08955 0.595 0.05751 0.0
C809 C 0.09152 0.59653 0.07954 0.0
C810 C 0.07017 0.55964 0.02149 0.0
C811 C 1.03643 0.54498 0.00928 0.0
C812 C 0.10038 0.56855 0.01129 0.0
C813 C 0.13682 0.58301 0.02333 0.0
C814 C 0.15839 0.61658 0.01954 0.0
C815 C 0.1927 0.63043 0.03098 0.0
C816 C 0.20579 0.61082 0.04616 0.0
C817 C 0.18465 0.57724 0.04987 0.0
C818 C 0.15035 0.56326 0.03846 0.0
C819 C 1.02688 0.52847 0.91851 0.0
C820 C 1.04278 0.50207 0.9123 0.0
C821 C 1.03535 0.54493 0.93926 0.0
C822 C 0.05943 0.53489 0.95422 0.0
C823 C 0.07737 0.51068 0.94763 0.0
C824 C 0.06918 0.49447 0.92685 0.0
C825 C 0.0624 0.54558 0.97711 0.0
C826 C 0.09605 0.56177 0.98918 0.0
C827 C 1.03221 0.5372 0.98735 0.0
C828 C 0.99623 0.51803 0.97585 0.0
C829 C 0.98934 0.48337 0.96536 0.0
C830 C 0.95546 0.46562 0.95434 0.0
C831 C 0.92815 0.48211 0.95389 0.0
C832 C 0.93466 0.51635 0.96451 0.0
C833 C 0.96853 0.53425 0.97552 0.0
H834 H 0.90192 0.46833 0.94535 0.0
H835 H 0.23235 0.62161 0.05501 0.0
H836 H 0.65897 0.09861 0.45645 0.0
H837 H 0.66052 0.10807 0.41913 0.0
H838 H 0.57471 0.01069 0.40067 0.0
H839 H 0.57306 0.00091 0.43781 0.0
H840 H 0.62506 0.01627 0.37565 0.0
H841 H 0.55866 0.09026 0.40282 0.0
H842 H 0.5487 0.13697 0.42698 0.0
H843 H 0.63356 0.2167 0.40739 0.0
H844 H 0.64471 0.17027 0.38358 0.0
H845 H 0.54019 0.08604 0.27899 0.0
H846 H 0.55289 0.08722 0.31748 0.0
H847 H 0.65705 0.07618 0.31306 0.0
H848 H 0.64417 0.0742 0.27444 0.0
H849 H 0.60176 0.12723 0.34988 0.0
H850 H 0.67223 0.01549 0.34767 0.0
H851 H 0.67513 0.96547 0.32302 0.0
H852 H 0.56953 0.95608 0.29165 0.0
H853 H 0.56585 0.00566 0.31628 0.0
C854 C 0.64066 0.07901 0.44444 0.0
C855 C 0.61573 0.0491 0.4501 0.0
C856 C 0.64153 0.08453 0.42313 0.0
C857 C 0.61754 0.06023 0.40715 0.0
C858 C 0.59349 0.02975 0.41276 0.0
C859 C 0.59248 0.0243 0.43401 0.0
C860 C 0.61624 0.06712 0.38459 0.0
C861 C 0.62036 0.04071 0.37006 0.0
C862 C 0.60946 0.09873 0.37724 0.0
C863 C 0.60285 0.12668 0.39163 0.0
C864 C 0.5755 0.11767 0.40386 0.0
C865 C 0.56963 0.1441 0.4175 0.0
C866 C 0.5906 0.17975 0.41883 0.0
C867 C 0.61747 0.18905 0.40648 0.0
C868 C 0.62361 0.16267 0.39293 0.0
C869 C 0.56595 0.08428 0.28625 0.0
C870 C 0.59103 0.07958 0.2737 0.0
C871 C 0.57327 0.08523 0.30824 0.0
C872 C 0.60572 0.0813 0.3181 0.0
C873 C 0.63169 0.07888 0.30573 0.0
C874 C 0.6244 0.078 0.28369 0.0
C875 C 0.61086 0.07651 0.341 0.0
C876 C 0.60728 0.10319 0.35557 0.0
C877 C 0.61727 0.04476 0.34835 0.0
C878 C 0.61899 0.01456 0.33365 0.0
C879 C 0.64962 0.00266 0.33554 0.0
C880 C 0.65139 0.9744 0.32158 0.0
C881 C 0.62259 0.95771 0.30573 0.0
C882 C 0.59188 0.96913 0.30387 0.0
C883 C 0.58996 0.99732 0.31782 0.0
H884 H 0.62404 0.93586 0.29492 0.0
H885 H 0.58588 0.20017 0.42934 0.0
H886 H 0.54917 0.50891 0.75733 0.0
H887 H 0.55346 0.50809 0.71974 0.0
H888 H 0.64321 0.60303 0.73268 0.0
H889 H 0.63902 0.60426 0.77041 0.0
H890 H 0.59497 0.60738 0.69841 0.0
H891 H 0.65744 0.52416 0.72209 0.0
H892 H 0.66706 0.47245 0.74023 0.0
H893 H 0.57738 0.40124 0.69904 0.0
H894 H 0.56689 0.45263 0.68083 0.0
H895 H 0.64236 0.58527 0.59452 0.0
H896 H 0.64088 0.59565 0.63245 0.0
H897 H 0.55398 0.49876 0.62783 0.0
H898 H 0.55554 0.48826 0.59012 0.0
H899 H 0.60618 0.49853 0.65872 0.0
H900 H 0.54326 0.58367 0.63568 0.0
H901 H 0.53385 0.63654 0.61872 0.0
H902 H 0.62611 0.70517 0.65912 0.0
H903 H 0.63641 0.65263 0.6761 0.0
C904 C 0.56988 0.52965 0.75224 0.0
C905 C 0.59382 0.55661 0.7669 0.0
C906 C 0.57235 0.52905 0.73073 0.0
C907 C 0.59884 0.55532 0.72346 0.0
C908 C 0.62259 0.5825 0.73799 0.0
C909 C 0.62025 0.58305 0.75956 0.0
C910 C 0.60144 0.55428 0.70062 0.0
C911 C 0.59799 0.58384 0.68973 0.0
C912 C 0.60494 0.52336 0.68935 0.0
C913 C 0.6112 0.49232 0.70021 0.0
C914 C 0.63959 0.49752 0.71701 0.0
C915 C 0.64523 0.46826 0.72729 0.0
C916 C 0.62279 0.43359 0.72083 0.0
C917 C 0.59471 0.42811 0.70404 0.0
C918 C 0.58893 0.4573 0.69372 0.0
C919 C 0.62247 0.56669 0.60156 0.0
C920 C 0.59928 0.5358 0.58947 0.0
C921 C 0.62166 0.5726 0.62321 0.0
C922 C 0.59739 0.54789 0.633 0.0
C923 C 0.57312 0.51801 0.62066 0.0
C924 C 0.57402 0.51204 0.59913 0.0
C925 C 0.5988 0.55132 0.65629 0.0
C926 C 0.60327 0.52219 0.66733 0.0
C927 C 0.59645 0.58273 0.66767 0.0
C928 C 0.59082 0.61413 0.65701 0.0
C929 C 0.5618 0.60996 0.64076 0.0
C930 C 0.55625 0.63989 0.63119 0.0
C931 C 0.57938 0.67418 0.63784 0.0
C932 C 0.60823 0.67859 0.65399 0.0
C933 C 0.61393 0.64875 0.66358 0.0
H934 H 0.57489 0.69739 0.63058 0.0
H935 H 0.6272 0.41096 0.7288 0.0
H936 H 0.63873 0.01585 0.58692 0.0
H937 H 0.63232 0.01556 0.62427 0.0
H938 H 0.53521 0.04573 0.61052 0.0
H939 H 0.54136 0.04617 0.57315 0.0
H940 H 0.58113 0.08799 0.64402 0.0
H941 H 0.53193 0.96187 0.62165 0.0
H942 H 0.5312 0.9028 0.60486 0.0
H943 H 0.62329 0.90283 0.64897 0.0
H944 H 0.6249 0.9622 0.66583 0.0
H945 H 0.53473 0.07504 0.74524 0.0
H946 H 0.53111 0.06136 0.70714 0.0
H947 H 0.62475 0.0245 0.71866 0.0
H948 H 0.62802 0.03748 0.75685 0.0
H949 H 0.5785 0.98384 0.68593 0.0
H950 H 0.63052 0.11037 0.70687 0.0
H951 H 0.63321 0.17006 0.72372 0.0
H952 H 0.53842 0.17013 0.68212 0.0
H953 H 0.53487 0.11016 0.66523 0.0
C954 C 0.61587 0.02222 0.59179 0.0
C955 C 0.59061 0.03114 0.57702 0.0
C956 C 0.61217 0.02185 0.61314 0.0
C957 C 0.58317 0.03041 0.62014 0.0
C958 C 0.55776 0.039 0.60543 0.0
C959 C 0.56131 0.03916 0.58406 0.0
C960 C 0.58026 0.03214 0.64296 0.0
C961 C 0.57994 0.06504 0.65311 0.0
C962 C 0.57975 0.00247 0.65491 0.0
C963 C 0.57873 0.96666 0.64488 0.0
C964 C 0.55221 0.94943 0.62767 0.0
C965 C 0.5516 0.91586 0.61815 0.0
C966 C 0.57724 0.89911 0.62581 0.0
C967 C 0.60348 0.91586 0.64304 0.0
C968 C 0.60423 0.94945 0.65259 0.0
C969 C 0.55425 0.06358 0.73963 0.0
C970 C 0.58187 0.05767 0.75396 0.0
C971 C 0.5522 0.05582 0.71788 0.0
C972 C 0.57813 0.04265 0.71003 0.0
C973 C 0.60454 0.03475 0.72436 0.0
C974 C 0.60637 0.04215 0.74616 0.0
C975 C 0.57919 0.03967 0.68695 0.0
C976 C 0.57939 0.00668 0.67679 0.0
C977 C 0.57991 0.06936 0.67496 0.0
C978 C 0.58224 0.10562 0.68492 0.0
C979 C 0.61012 0.12301 0.70141 0.0
C980 C 0.61181 0.1569 0.71096 0.0
C981 C 0.58595 0.17383 0.70403 0.0
C982 C 0.5584 0.15695 0.68749 0.0
C983 C 0.55655 0.12302 0.67792 0.0
H984 H 0.58728 0.20007 0.71142 0.0
H985 H 0.57672 0.87313 0.61842 0.0
H986 H 0.63247 0.58011 0.90777 0.0
H987 H 0.62732 0.57942 0.94516 0.0
H988 H 0.5132 0.54104 0.92882 0.0
H989 H 0.51817 0.5431 0.89124 0.0
H990 H 0.52848 0.58732 0.9617 0.0
H991 H 0.5647 0.48397 0.94519 0.0
H992 H 0.59978 0.44762 0.93062 0.0
H993 H 0.6932 0.5095 0.97292 0.0
H994 H 0.65879 0.54659 0.98754 0.0
H995 H 0.53165 0.53132 0.07101 0.0
H996 H 0.5212 0.52878 0.03216 0.0
H997 H 0.62291 0.60643 0.03416 0.0
H998 H 0.63288 0.61051 0.07271 0.0
H999 H 0.60551 0.53181 0.00822 0.0
H1000 H 0.56401 0.63801 0.02168 0.0
H1001 H 0.52413 0.66854 0.03623 0.0
H1002 H 0.43357 0.59111 -0.00064 0.0
H1003 H 0.47296 0.55981 0.98482 0.0
C1004 C 0.60625 0.5715 0.91209 0.0
C1005 C 0.57576 0.56141 0.8965 0.0
C1006 C 0.60332 0.57092 0.93352 0.0
C1007 C 0.56989 0.55936 0.9399 0.0
C1008 C 0.53931 0.5499 0.92436 0.0
C1009 C 0.5422 0.55103 0.90287 0.0
C1010 C 0.56721 0.5574 0.96278 0.0
C1011 C 0.54492 0.57462 0.97176 0.0
C1012 C 0.5883 0.54055 0.97604 0.0
C1013 C 0.60918 0.51825 0.96736 0.0
C1014 C 0.59278 0.49 0.95129 0.0
C1015 C 0.61254 0.46923 0.94303 0.0
C1016 C 0.64871 0.47629 0.95081 0.0
C1017 C 0.66518 0.50408 0.9669 0.0
C1018 C 0.64554 0.52496 0.9752 0.0
C1019 C 0.55137 0.54854 0.06321 0.0
C1020 C 0.58338 0.57067 0.07501 0.0
C1021 C 0.54544 0.54686 0.04102 0.0
C1022 C 0.5715 0.56714 0.03037 0.0
C1023 C 0.60266 0.59034 0.04211 0.0
C1024 C 0.60835 0.59245 0.06416 0.0
C1025 C 0.56786 0.56271 0.00701 0.0
C1026 C 0.58885 0.54407 0.998 0.0
C1027 C 0.54493 0.57736 0.99373 0.0
C1028 C 0.52138 0.59631 0.00239 0.0
C1029 C 0.53558 0.62727 0.01686 0.0
C1030 C 0.51307 0.64477 0.02506 0.0
C1031 C 0.47633 0.6317 0.01879 0.0
C1032 C 0.46203 0.60116 0.00424 0.0
C1033 C 0.48443 0.58355 0.99601 0.0
H1034 H 0.45895 0.64528 0.02515 0.0
H1035 H 0.66397 0.46018 0.9444 0.0
H1036 H 0.08053 0.50661 0.2205 0.0
H1037 H 0.07176 0.50117 0.25722 0.0
H1038 H 0.0559 0.60694 0.26149 0.0
H1039 H 0.06498 0.6128 0.22477 0.0
H1040 H 0.10075 0.59861 0.29514 0.0
H1041 H 0.98627 0.53238 0.25775 0.0
H1042 H 0.94324 0.48654 0.23165 0.0
H1043 H 0.97594 0.40266 0.26229 0.0
H1044 H 1.01958 0.44804 0.28843 0.0
H1045 H 1.05028 0.59408 0.3943 0.0
H1046 H 1.03956 0.59185 0.35568 0.0
H1047 H 0.06443 0.49038 0.35088 0.0
H1048 H 0.07501 0.4924 0.38958 0.0
H1049 H 1.01177 0.49626 0.31727 0.0
H1050 H 0.1289 0.56291 0.35286 0.0
H1051 H 0.17047 0.60848 0.37973 0.0
H1052 H 0.13222 0.69167 0.35194 0.0
H1053 H 0.08983 0.64641 0.32516 0.0
C1054 C 0.07528 0.52879 0.22923 0.0
C1055 C 0.07358 0.56022 0.21971 0.0
C1056 C 0.06996 0.5255 0.25019 0.0
C1057 C 0.06274 0.55347 0.26201 0.0
C1058 C 0.06132 0.58498 0.25262 0.0
C1059 C 0.06653 0.58827 0.23163 0.0
C1060 C 0.05801 0.55039 0.28443 0.0
C1061 C 0.08088 0.57655 0.2999 0.0
C1062 C 1.03261 0.5211 0.2907 0.0
C1063 C 1.00644 0.49368 0.27497 0.0
C1064 C 0.98452 0.50418 0.25883 0.0
C1065 C 0.95997 0.47828 0.24405 0.0
C1066 C 0.95685 0.44172 0.24532 0.0
C1067 C 0.97836 0.431 0.26135 0.0
C1068 C 1.00299 0.4568 0.27617 0.0
C1069 C 1.05252 0.57084 0.38499 0.0
C1070 C 0.06397 0.54367 0.39489 0.0
C1071 C 1.04634 0.56956 0.36296 0.0
C1072 C 1.0519 0.5413 0.35048 0.0
C1073 C 0.06007 0.51244 0.36025 0.0
C1074 C 0.06608 0.51361 0.38235 0.0
C1075 C 1.05435 0.54458 0.32779 0.0
C1076 C 1.03135 0.51841 0.31237 0.0
C1077 C 0.07967 0.57382 0.32148 0.0
C1078 C 0.10595 0.60123 0.33714 0.0
C1079 C 0.12922 0.59089 0.35255 0.0
C1080 C 0.15292 0.61666 0.36777 0.0
C1081 C 0.15394 0.65295 0.36758 0.0
C1082 C 0.13136 0.66354 0.35209 0.0
C1083 C 0.10748 0.63784 0.33689 0.0
H1084 H 0.17225 0.67286 0.37939 0.0
H1085 H 0.93773 0.42171 0.23391 0.0
loop_
_geom_bond_atom_site_label_1
_geom_bond_atom_site_label_2
_geom_bond_distance
_geom_bond_site_symmetry_2
_ccdc_geom_bond_type
Dy0 O3 2.307 1_455 S
Dy0 O5 2.395 . S
Dy0 O6 2.379 . S
Dy0 O8 2.339 . S
Dy0 O10 2.298 . S
Dy0 O14 2.275 . S
Dy0 C22 2.738 . S
Dy1 O4 2.286 1_455 S
Dy1 O7 2.275 . S
Dy1 O9 2.320 . S
Dy1 O11 2.386 1_455 S
Dy1 O12 2.371 1_455 S
Dy1 O15 2.340 . S
Dy1 C31 2.729 1_455 S
C2 O14 1.254 . S
C2 O15 1.257 . S
O3 Dy0 2.307 1_655 S
O3 C13 1.266 . S
O4 Dy1 2.286 1_655 S
O4 C13 1.236 . S
O5 Dy0 2.395 . S
O5 C22 1.255 . S
O6 Dy0 2.379 . S
O6 C22 1.249 . S
O7 Dy1 2.275 . S
O7 C23 1.254 . S
O8 Dy0 2.339 . S
O8 C23 1.257 . S
O9 Dy1 2.320 . S
O9 C24 1.266 . S
O10 Dy0 2.298 . S
O10 C24 1.236 . S
O11 Dy1 2.386 1_655 S
O11 C31 1.255 . S
O12 Dy1 2.371 1_655 S
O12 C31 1.249 . S
C13 O3 1.266 . S
C13 O4 1.236 . S
O14 Dy0 2.275 . S
O14 C2 1.254 . S
O15 Dy1 2.340 . S
O15 C2 1.257 . S
C16 C19 1.344 . S
C16 C20 1.328 . S
C16 C22 1.516 . S
C17 C18 1.304 . S
C17 C21 1.323 . S
C18 C17 1.304 . S
C18 C19 1.371 . S
C18 H32 0.930 . S
C19 C16 1.344 . S
C19 C18 1.371 . S
C19 H33 0.931 . S
C20 C16 1.328 . S
C20 C21 1.433 . S
C20 H34 0.931 . S
C21 C17 1.323 . S
C21 C20 1.433 . S
C21 H35 0.933 . S
C22 Dy0 2.738 . S
C22 O5 1.255 . S
C22 O6 1.249 . S
C22 C16 1.516 . S
C23 O7 1.254 . S
C23 O8 1.257 . S
C24 O9 1.266 . S
C24 O10 1.236 . S
C25 C28 1.344 . S
C25 C29 1.328 . S
C25 C31 1.516 . S
C26 C27 1.304 . S
C26 C30 1.323 . S
C27 C26 1.304 . S
C27 C28 1.371 . S
C27 H36 0.930 . S
C28 C25 1.344 . S
C28 C27 1.371 . S
C28 H37 0.931 . S
C29 C25 1.328 . S
C29 C30 1.433 . S
C29 H38 0.931 . S
C30 C26 1.323 . S
C30 C29 1.433 . S
C30 H39 0.933 . S
C31 Dy1 2.729 1_655 S
C31 O11 1.255 . S
C31 O12 1.249 . S
C31 C25 1.516 . S
H32 C18 0.930 . S
H33 C19 0.931 . S
H34 C20 0.931 . S
H35 C21 0.933 . S
H36 C27 0.930 . S
H37 C28 0.931 . S
H38 C29 0.931 . S
H39 C30 0.933 . S
Dy40 O43 2.307 . S
Dy40 O45 2.395 1_545 S
Dy40 O46 2.379 1_545 S
Dy40 O48 2.339 . S
Dy40 O50 2.298 1_545 S
Dy40 O54 2.275 . S
Dy40 C62 2.738 1_545 S
Dy41 O44 2.298 . S
Dy41 O47 2.275 . S
Dy41 O49 2.307 . S
Dy41 O51 2.395 . S
Dy41 O52 2.379 . S
Dy41 O55 2.339 . S
Dy41 C71 2.738 . S
C42 O54 1.254 . S
C42 O55 1.257 . S
O43 Dy40 2.307 . S
O43 C53 1.266 . S
O44 Dy41 2.298 . S
O44 C53 1.236 . S
O45 Dy40 2.395 1_565 S
O45 C62 1.255 . S
O46 Dy40 2.379 1_565 S
O46 C62 1.249 . S
O47 Dy41 2.275 . S
O47 C63 1.254 . S
O48 Dy40 2.339 . S
O48 C63 1.257 . S
O49 Dy41 2.307 . S
O49 C64 1.266 1_545 S
O50 Dy40 2.298 1_565 S
O50 C64 1.236 . S
O51 Dy41 2.395 . S
O51 C71 1.255 . S
O52 Dy41 2.379 . S
O52 C71 1.249 . S
C53 O43 1.266 . S
C53 O44 1.236 . S
O54 Dy40 2.275 . S
O54 C42 1.254 . S
O55 Dy41 2.339 . S
O55 C42 1.257 . S
C56 C59 1.344 . S
C56 C60 1.328 . S
C56 C62 1.516 . S
C57 C58 1.304 . S
C57 C61 1.323 . S
C58 C57 1.304 . S
C58 C59 1.371 . S
C58 H72 0.930 . S
C59 C56 1.344 . S
C59 C58 1.371 . S
C59 H73 0.931 . S
C60 C56 1.328 . S
C60 C61 1.433 . S
C60 H74 0.931 . S
C61 C57 1.323 . S
C61 C60 1.433 . S
C61 H75 0.933 . S
C62 Dy40 2.738 1_565 S
C62 O45 1.255 . S
C62 O46 1.249 . S
C62 C56 1.516 . S
C63 O47 1.254 . S
C63 O48 1.257 . S
C64 O49 1.266 1_565 S
C64 O50 1.236 . S
C65 C68 1.344 . S
C65 C69 1.328 . S
C65 C71 1.516 . S
C66 C67 1.304 . S
C66 C70 1.323 . S
C67 C66 1.304 . S
C67 C68 1.371 . S
C67 H76 0.930 . S
C68 C65 1.344 . S
C68 C67 1.371 . S
C68 H77 0.931 . S
C69 C65 1.328 . S
C69 C70 1.433 . S
C69 H78 0.931 . S
C70 C66 1.323 . S
C70 C69 1.433 . S
C70 H79 0.933 . S
C71 Dy41 2.738 . S
C71 O51 1.255 . S
C71 O52 1.249 . S
C71 C65 1.516 . S
H72 C58 0.930 . S
H73 C59 0.931 . S
H74 C60 0.931 . S
H75 C61 0.933 . S
H76 C67 0.930 . S
H77 C68 0.931 . S
H78 C69 0.931 . S
H79 C70 0.933 . S
Dy80 O83 2.307 . S
Dy80 O85 2.395 . S
Dy80 O86 2.379 . S
Dy80 O88 2.339 . S
Dy80 O90 2.298 . S
Dy80 O94 2.275 . S
Dy80 C102 2.738 . S
Dy81 O84 2.298 . S
Dy81 O87 2.275 . S
Dy81 O89 2.307 . S
Dy81 O91 2.395 . S
Dy81 O92 2.379 . S
Dy81 O95 2.339 . S
Dy81 C111 2.738 . S
C82 O94 1.254 . S
C82 O95 1.257 . S
O83 Dy80 2.307 . S
O83 C93 1.266 . S
O84 Dy81 2.298 . S
O84 C93 1.236 . S
O85 Dy80 2.395 . S
O85 C102 1.255 . S
O86 Dy80 2.379 . S
O86 C102 1.249 . S
O87 Dy81 2.275 . S
O87 C103 1.254 . S
O88 Dy80 2.339 . S
O88 C103 1.257 . S
O89 Dy81 2.307 . S
O89 C104 1.266 . S
O90 Dy80 2.298 . S
O90 C104 1.236 . S
O91 Dy81 2.395 . S
O91 C111 1.255 . S
O92 Dy81 2.379 . S
O92 C111 1.249 . S
C93 O83 1.266 . S
C93 O84 1.236 . S
O94 Dy80 2.275 . S
O94 C82 1.254 . S
O95 Dy81 2.339 . S
O95 C82 1.257 . S
C96 C99 1.344 . S
C96 C100 1.328 . S
C96 C102 1.516 . S
C97 C98 1.304 . S
C97 C101 1.323 . S
C98 C97 1.304 . S
C98 C99 1.371 . S
C98 H112 0.930 . S
C99 C96 1.344 . S
C99 C98 1.371 . S
C99 H113 0.931 . S
C100 C96 1.328 . S
C100 C101 1.433 . S
C100 H114 0.931 . S
C101 C97 1.323 . S
C101 C100 1.433 . S
C101 H115 0.933 . S
C102 Dy80 2.738 . S
C102 O85 1.255 . S
C102 O86 1.249 . S
C102 C96 1.516 . S
C103 O87 1.254 . S
C103 O88 1.257 . S
C104 O89 1.266 . S
C104 O90 1.236 . S
C105 C108 1.344 . S
C105 C109 1.328 . S
C105 C111 1.516 . S
C106 C107 1.304 . S
C106 C110 1.323 . S
C107 C106 1.304 . S
C107 C108 1.371 . S
C107 H116 0.930 . S
C108 C105 1.344 . S
C108 C107 1.371 . S
C108 H117 0.931 . S
C109 C105 1.328 . S
C109 C110 1.433 . S
C109 H118 0.931 . S
C110 C106 1.323 . S
C110 C109 1.433 . S
C110 H119 0.933 . S
C111 Dy81 2.738 . S
C111 O91 1.255 . S
C111 O92 1.249 . S
C111 C105 1.516 . S
H112 C98 0.930 . S
H113 C99 0.931 . S
H114 C100 0.931 . S
H115 C101 0.933 . S
H116 C107 0.930 . S
H117 C108 0.931 . S
H118 C109 0.931 . S
H119 C110 0.933 . S
H120 C123 0.929 . S
H121 C126 0.929 . S
H122 C128 0.930 . S
C123 H120 0.929 . S
C123 C124 1.398 . S
C123 C125 1.396 . S
C124 C123 1.398 . S
C124 C128 1.407 . S
C125 C123 1.396 . S
C125 C126 1.394 . S
C126 H121 0.929 . S
C126 C125 1.394 . S
C126 C127 1.382 . S
C127 C126 1.382 . S
C127 C128 1.392 . S
C127 N129 1.420 . S
C128 H122 0.930 . S
C128 C124 1.407 . S
C128 C127 1.392 . S
N129 C127 1.420 . S
N129 C130 1.244 . S
C130 N129 1.244 . S
H131 C134 0.929 . S
H132 C137 0.929 . S
H133 C139 0.930 . S
C134 H131 0.929 . S
C134 C135 1.398 . S
C134 C136 1.396 . S
C135 C134 1.398 . S
C135 C139 1.407 . S
C136 C134 1.396 . S
C136 C137 1.394 . S
C137 H132 0.929 . S
C137 C136 1.394 . S
C137 C138 1.382 . S
C138 C137 1.382 . S
C138 C139 1.392 . S
C138 N140 1.420 . S
C139 H133 0.930 . S
C139 C135 1.407 . S
C139 C138 1.392 . S
N140 C138 1.420 . S
N140 C141 1.244 . S
C141 N140 1.244 . S
H142 C145 0.929 1_655 S
H143 C148 0.929 . S
H144 C150 0.930 . S
C145 H142 0.929 1_455 S
C145 C146 1.399 . S
C145 C147 1.396 . S
C146 C145 1.399 . S
C146 C150 1.433 . S
C147 C145 1.396 . S
C147 C148 1.394 . S
C148 H143 0.929 . S
C148 C147 1.394 . S
C148 C149 1.382 . S
C149 C148 1.382 . S
C149 C150 1.392 . S
C149 N151 1.420 . S
C150 H144 0.930 . S
C150 C146 1.433 . S
C150 C149 1.392 . S
N151 C149 1.420 . S
N151 C152 1.244 . S
C152 N151 1.244 . S
H153 C156 0.929 . S
H154 C159 0.929 1_655 S
H155 C161 0.930 . S
C156 H153 0.929 . S
C156 C157 1.398 . S
C156 C158 1.396 . S
C157 C156 1.398 . S
C157 C161 1.407 . S
C158 C156 1.396 . S
C158 C159 1.394 . S
C159 H154 0.929 1_455 S
C159 C158 1.394 . S
C159 C160 1.382 . S
C160 C159 1.382 . S
C160 C161 1.392 . S
C160 N162 1.420 1_455 S
C161 H155 0.930 . S
C161 C157 1.407 . S
C161 C160 1.392 . S
N162 C160 1.420 1_655 S
N162 C163 1.244 . S
C163 N162 1.244 . S
H164 C167 0.929 . S
H165 C170 0.929 . S
H166 C172 0.930 . S
C167 H164 0.929 . S
C167 C168 1.398 . S
C167 C169 1.396 . S
C168 C167 1.398 . S
C168 C172 1.407 . S
C169 C167 1.396 . S
C169 C170 1.394 1_545 S
C170 H165 0.929 . S
C170 C169 1.394 1_565 S
C170 C171 1.381 1_565 S
C171 C170 1.381 1_545 S
C171 C172 1.406 . S
C171 N173 1.407 1_545 S
C172 H166 0.930 . S
C172 C168 1.407 . S
C172 C171 1.406 . S
N173 C171 1.407 1_565 S
N173 C174 1.244 . S
C174 N173 1.244 . S
H175 C178 0.929 . S
H176 C181 0.929 . S
H177 C183 0.930 . S
C178 H175 0.929 . S
C178 C179 1.398 . S
C178 C180 1.396 . S
C179 C178 1.398 . S
C179 C183 1.407 . S
C180 C178 1.396 . S
C180 C181 1.394 . S
C181 H176 0.929 . S
C181 C180 1.394 . S
C181 C182 1.382 . S
C182 C181 1.382 . S
C182 C183 1.392 . S
C182 N184 1.420 . S
C183 H177 0.930 . S
C183 C179 1.407 . S
C183 C182 1.392 . S
N184 C182 1.420 . S
N184 C185 1.244 . S
C185 N184 1.244 . S
H186 C204 0.951 . S
H187 C206 0.951 . S
H188 C208 0.950 . S
H189 C209 0.950 . S
H190 C211 0.950 . S
H191 C214 0.950 . S
H192 C215 0.950 . S
H193 C217 0.950 . S
H194 C218 0.950 . S
H195 C219 0.951 . S
H196 C221 0.951 . S
H197 C223 0.950 . S
H198 C224 0.950 . S
H199 C226 0.950 . S
H200 C229 0.950 . S
H201 C230 0.950 . S
H202 C232 0.950 . S
H203 C233 0.950 . S
C204 H186 0.951 . S
C204 C205 1.366 . S
C204 C206 1.388 . S
C205 C204 1.366 . S
C205 C209 1.385 . S
C206 H187 0.951 . S
C206 C204 1.388 . S
C206 C207 1.366 . S
C207 C206 1.366 . S
C207 C208 1.414 . S
C207 C210 1.499 . S
C208 H188 0.950 . S
C208 C207 1.414 . S
C208 C209 1.374 . S
C209 H189 0.950 . S
C209 C205 1.385 . S
C209 C208 1.374 . S
C210 C207 1.499 . S
C210 C211 1.373 . S
C210 C212 1.389 . S
C211 H190 0.950 . S
C211 C210 1.373 . S
C211 C227 1.377 . S
C212 C210 1.389 . S
C212 C213 1.524 . S
C212 C226 1.377 . S
C213 C212 1.524 . S
C213 C214 1.397 . S
C213 C218 1.363 . S
C214 H191 0.950 . S
C214 C213 1.397 . S
C214 C215 1.334 . S
C215 H192 0.950 . S
C215 C214 1.334 . S
C215 C216 1.287 . S
C216 C215 1.287 . S
C216 C217 1.524 . S
C216 H235 0.913 . S
C217 H193 0.950 . S
C217 C216 1.524 . S
C217 C218 1.415 . S
C218 H194 0.950 . S
C218 C213 1.363 . S
C218 C217 1.415 . S
C219 H195 0.951 . S
C219 C220 1.366 . S
C219 C221 1.388 . S
C220 C219 1.366 . S
C220 C224 1.385 . S
C221 H196 0.951 . S
C221 C219 1.388 . S
C221 C222 1.366 . S
C222 C221 1.366 . S
C222 C223 1.414 . S
C222 C225 1.499 . S
C223 H197 0.950 . S
C223 C222 1.414 . S
C223 C224 1.374 . S
C224 H198 0.950 . S
C224 C220 1.385 . S
C224 C223 1.374 . S
C225 C222 1.499 . S
C225 C226 1.373 . S
C225 C227 1.389 . S
C226 H199 0.950 . S
C226 C212 1.377 . S
C226 C225 1.373 . S
C227 C211 1.377 . S
C227 C225 1.389 . S
C227 C228 1.524 . S
C228 C227 1.524 . S
C228 C229 1.397 . S
C228 C233 1.363 . S
C229 H200 0.950 . S
C229 C228 1.397 . S
C229 C230 1.334 . S
C230 H201 0.950 . S
C230 C229 1.334 . S
C230 C231 1.287 . S
C231 C230 1.287 . S
C231 C232 1.524 . S
C231 H234 0.999 . S
C232 H202 0.950 . S
C232 C231 1.524 . S
C232 C233 1.415 . S
C233 H203 0.950 . S
C233 C228 1.363 . S
C233 C232 1.415 . S
H234 C231 0.999 . S
H235 C216 0.913 . S
H236 C254 0.951 . S
H237 C256 0.951 . S
H238 C258 0.950 . S
H239 C259 0.950 . S
H240 C261 0.950 . S
H241 C264 0.950 . S
H242 C265 0.950 . S
H243 C267 0.950 . S
H244 C268 0.950 . S
H245 C269 0.951 . S
H246 C271 0.951 . S
H247 C273 0.950 . S
H248 C274 0.950 . S
H249 C276 0.950 . S
H250 C279 0.950 . S
H251 C280 0.950 . S
H252 C282 0.950 . S
H253 C283 0.950 . S
C254 H236 0.951 . S
C254 C255 1.366 . S
C254 C256 1.388 . S
C255 C254 1.366 . S
C255 C259 1.385 . S
C256 H237 0.951 . S
C256 C254 1.388 . S
C256 C257 1.366 . S
C257 C256 1.366 . S
C257 C258 1.414 . S
C257 C260 1.499 . S
C258 H238 0.950 . S
C258 C257 1.414 . S
C258 C259 1.374 . S
C259 H239 0.950 . S
C259 C255 1.385 . S
C259 C258 1.374 . S
C260 C257 1.499 . S
C260 C261 1.373 . S
C260 C262 1.389 . S
C261 H240 0.950 . S
C261 C260 1.373 . S
C261 C277 1.377 . S
C262 C260 1.389 . S
C262 C263 1.524 . S
C262 C276 1.377 . S
C263 C262 1.524 . S
C263 C264 1.397 . S
C263 C268 1.363 . S
C264 H241 0.950 . S
C264 C263 1.397 . S
C264 C265 1.334 . S
C265 H242 0.950 . S
C265 C264 1.334 . S
C265 C266 1.287 . S
C266 C265 1.287 . S
C266 C267 1.524 . S
C266 H285 0.913 . S
C267 H243 0.950 . S
C267 C266 1.524 . S
C267 C268 1.415 . S
C268 H244 0.950 . S
C268 C263 1.363 . S
C268 C267 1.415 . S
C269 H245 0.951 . S
C269 C270 1.366 . S
C269 C271 1.388 . S
C270 C269 1.366 . S
C270 C274 1.385 . S
C271 H246 0.951 . S
C271 C269 1.388 . S
C271 C272 1.366 . S
C272 C271 1.366 . S
C272 C273 1.414 . S
C272 C275 1.499 . S
C273 H247 0.950 . S
C273 C272 1.414 . S
C273 C274 1.374 . S
C274 H248 0.950 . S
C274 C270 1.385 . S
C274 C273 1.374 . S
C275 C272 1.499 . S
C275 C276 1.373 . S
C275 C277 1.389 . S
C276 H249 0.950 . S
C276 C262 1.377 . S
C276 C275 1.373 . S
C277 C261 1.377 . S
C277 C275 1.389 . S
C277 C278 1.524 . S
C278 C277 1.524 . S
C278 C279 1.397 . S
C278 C283 1.363 . S
C279 H250 0.950 . S
C279 C278 1.397 . S
C279 C280 1.334 . S
C280 H251 0.950 . S
C280 C279 1.334 . S
C280 C281 1.287 . S
C281 C280 1.287 . S
C281 C282 1.524 . S
C281 H284 0.999 . S
C282 H252 0.950 . S
C282 C281 1.524 . S
C282 C283 1.415 . S
C283 H253 0.950 . S
C283 C278 1.363 . S
C283 C282 1.415 . S
H284 C281 0.999 . S
H285 C266 0.913 . S
H286 C304 0.951 . S
H287 C306 0.951 . S
H288 C308 0.950 . S
H289 C309 0.950 . S
H290 C311 0.950 . S
H291 C314 0.950 . S
H292 C315 0.950 . S
H293 C317 0.950 . S
H294 C318 0.950 . S
H295 C319 0.951 . S
H296 C321 0.951 . S
H297 C323 0.950 . S
H298 C324 0.950 . S
H299 C326 0.950 . S
H300 C329 0.950 . S
H301 C330 0.950 . S
H302 C332 0.950 . S
H303 C333 0.950 . S
C304 H286 0.951 . S
C304 C305 1.366 . S
C304 C306 1.388 . S
C305 C304 1.366 . S
C305 C309 1.385 . S
C306 H287 0.951 . S
C306 C304 1.388 . S
C306 C307 1.366 . S
C307 C306 1.366 . S
C307 C308 1.414 . S
C307 C310 1.499 . S
C308 H288 0.950 . S
C308 C307 1.414 . S
C308 C309 1.374 . S
C309 H289 0.950 . S
C309 C305 1.385 . S
C309 C308 1.374 . S
C310 C307 1.499 . S
C310 C311 1.373 . S
C310 C312 1.389 . S
C311 H290 0.950 . S
C311 C310 1.373 . S
C311 C327 1.377 . S
C312 C310 1.389 . S
C312 C313 1.524 . S
C312 C326 1.377 . S
C313 C312 1.524 . S
C313 C314 1.397 . S
C313 C318 1.363 . S
C314 H291 0.950 . S
C314 C313 1.397 . S
C314 C315 1.334 . S
C315 H292 0.950 . S
C315 C314 1.334 . S
C315 C316 1.287 . S
C316 C315 1.287 . S
C316 C317 1.524 . S
C316 H335 0.913 . S
C317 H293 0.950 . S
C317 C316 1.524 . S
C317 C318 1.415 . S
C318 H294 0.950 . S
C318 C313 1.363 . S
C318 C317 1.415 . S
C319 H295 0.951 . S
C319 C320 1.366 . S
C319 C321 1.388 . S
C320 C319 1.366 . S
C320 C324 1.385 . S
C321 H296 0.951 . S
C321 C319 1.388 . S
C321 C322 1.366 . S
C322 C321 1.366 . S
C322 C323 1.414 . S
C322 C325 1.499 . S
C323 H297 0.950 . S
C323 C322 1.414 . S
C323 C324 1.374 . S
C324 H298 0.950 . S
C324 C320 1.385 . S
C324 C323 1.374 . S
C325 C322 1.499 . S
C325 C326 1.373 . S
C325 C327 1.389 . S
C326 H299 0.950 . S
C326 C312 1.377 . S
C326 C325 1.373 . S
C327 C311 1.377 . S
C327 C325 1.389 . S
C327 C328 1.524 . S
C328 C327 1.524 . S
C328 C329 1.397 . S
C328 C333 1.363 . S
C329 H300 0.950 . S
C329 C328 1.397 . S
C329 C330 1.334 . S
C330 H301 0.950 . S
C330 C329 1.334 . S
C330 C331 1.287 . S
C331 C330 1.287 . S
C331 C332 1.524 . S
C331 H334 0.999 . S
C332 H302 0.950 . S
C332 C331 1.524 . S
C332 C333 1.415 . S
C333 H303 0.950 . S
C333 C328 1.363 . S
C333 C332 1.415 . S
H334 C331 0.999 . S
H335 C316 0.913 . S
H336 C354 0.951 . S
H337 C356 0.951 . S
H338 C358 0.950 . S
H339 C359 0.950 . S
H340 C361 0.950 . S
H341 C364 0.950 . S
H342 C365 0.950 . S
H343 C367 0.950 . S
H344 C368 0.950 . S
H345 C369 0.951 . S
H346 C371 0.951 . S
H347 C373 0.950 . S
H348 C374 0.950 . S
H349 C376 0.950 . S
H350 C379 0.950 . S
H351 C380 0.950 . S
H352 C382 0.950 . S
H353 C383 0.950 . S
C354 H336 0.951 . S
C354 C355 1.366 . S
C354 C356 1.388 . S
C355 C354 1.366 . S
C355 C359 1.385 . S
C356 H337 0.951 . S
C356 C354 1.388 . S
C356 C357 1.366 . S
C357 C356 1.366 . S
C357 C358 1.414 . S
C357 C360 1.499 . S
C358 H338 0.950 . S
C358 C357 1.414 . S
C358 C359 1.374 . S
C359 H339 0.950 . S
C359 C355 1.385 . S
C359 C358 1.374 . S
C360 C357 1.499 . S
C360 C361 1.373 . S
C360 C362 1.389 . S
C361 H340 0.950 . S
C361 C360 1.373 . S
C361 C377 1.377 . S
C362 C360 1.389 . S
C362 C363 1.524 . S
C362 C376 1.377 . S
C363 C362 1.524 . S
C363 C364 1.397 . S
C363 C368 1.363 . S
C364 H341 0.950 . S
C364 C363 1.397 . S
C364 C365 1.334 . S
C365 H342 0.950 . S
C365 C364 1.334 . S
C365 C366 1.287 . S
C366 C365 1.287 . S
C366 C367 1.524 . S
C366 H385 0.913 . S
C367 H343 0.950 . S
C367 C366 1.524 . S
C367 C368 1.415 . S
C368 H344 0.950 . S
C368 C363 1.363 . S
C368 C367 1.415 . S
C369 H345 0.951 . S
C369 C370 1.366 . S
C369 C371 1.388 . S
C370 C369 1.366 . S
C370 C374 1.385 . S
C371 H346 0.951 . S
C371 C369 1.388 . S
C371 C372 1.366 . S
C372 C371 1.366 . S
C372 C373 1.414 . S
C372 C375 1.499 . S
C373 H347 0.950 . S
C373 C372 1.414 . S
C373 C374 1.374 . S
C374 H348 0.950 . S
C374 C370 1.385 . S
C374 C373 1.374 . S
C375 C372 1.499 . S
C375 C376 1.373 . S
C375 C377 1.389 . S
C376 H349 0.950 . S
C376 C362 1.377 . S
C376 C375 1.373 . S
C377 C361 1.377 . S
C377 C375 1.389 . S
C377 C378 1.524 . S
C378 C377 1.524 . S
C378 C379 1.397 . S
C378 C383 1.363 . S
C379 H350 0.950 . S
C379 C378 1.397 . S
C379 C380 1.334 . S
C380 H351 0.950 . S
C380 C379 1.334 . S
C380 C381 1.287 . S
C381 C380 1.287 . S
C381 C382 1.524 . S
C381 H384 0.999 . S
C382 H352 0.950 . S
C382 C381 1.524 . S
C382 C383 1.415 . S
C383 H353 0.950 . S
C383 C378 1.363 . S
C383 C382 1.415 . S
H384 C381 0.999 . S
H385 C366 0.913 . S
H386 C404 0.951 . S
H387 C406 0.951 . S
H388 C408 0.950 . S
H389 C409 0.950 . S
H390 C411 0.950 . S
H391 C414 0.950 . S
H392 C415 0.950 . S
H393 C417 0.950 . S
H394 C418 0.950 . S
H395 C419 0.951 . S
H396 C421 0.951 . S
H397 C423 0.950 . S
H398 C424 0.950 . S
H399 C426 0.950 . S
H400 C429 0.950 . S
H401 C430 0.950 . S
H402 C432 0.950 . S
H403 C433 0.950 . S
C404 H386 0.951 . S
C404 C405 1.366 . S
C404 C406 1.388 . S
C405 C404 1.366 . S
C405 C409 1.385 . S
C406 H387 0.951 . S
C406 C404 1.388 . S
C406 C407 1.366 . S
C407 C406 1.366 . S
C407 C408 1.414 . S
C407 C410 1.499 . S
C408 H388 0.950 . S
C408 C407 1.414 . S
C408 C409 1.374 . S
C409 H389 0.950 . S
C409 C405 1.385 . S
C409 C408 1.374 . S
C410 C407 1.499 . S
C410 C411 1.373 . S
C410 C412 1.389 . S
C411 H390 0.950 . S
C411 C410 1.373 . S
C411 C427 1.377 . S
C412 C410 1.389 . S
C412 C413 1.524 . S
C412 C426 1.377 . S
C413 C412 1.524 . S
C413 C414 1.397 . S
C413 C418 1.363 . S
C414 H391 0.950 . S
C414 C413 1.397 . S
C414 C415 1.334 . S
C415 H392 0.950 . S
C415 C414 1.334 . S
C415 C416 1.287 . S
C416 C415 1.287 . S
C416 C417 1.524 . S
C416 H435 0.913 . S
C417 H393 0.950 . S
C417 C416 1.524 . S
C417 C418 1.415 . S
C418 H394 0.950 . S
C418 C413 1.363 . S
C418 C417 1.415 . S
C419 H395 0.951 . S
C419 C420 1.366 . S
C419 C421 1.388 . S
C420 C419 1.366 . S
C420 C424 1.385 . S
C421 H396 0.951 . S
C421 C419 1.388 . S
C421 C422 1.366 . S
C422 C421 1.366 . S
C422 C423 1.414 . S
C422 C425 1.499 . S
C423 H397 0.950 . S
C423 C422 1.414 . S
C423 C424 1.374 . S
C424 H398 0.950 . S
C424 C420 1.385 . S
C424 C423 1.374 . S
C425 C422 1.499 . S
C425 C426 1.373 . S
C425 C427 1.389 . S
C426 H399 0.950 . S
C426 C412 1.377 . S
C426 C425 1.373 . S
C427 C411 1.377 . S
C427 C425 1.389 . S
C427 C428 1.524 . S
C428 C427 1.524 . S
C428 C429 1.397 . S
C428 C433 1.363 . S
C429 H400 0.950 . S
C429 C428 1.397 . S
C429 C430 1.334 . S
C430 H401 0.950 . S
C430 C429 1.334 . S
C430 C431 1.287 . S
C431 C430 1.287 . S
C431 C432 1.524 . S
C431 H434 0.999 . S
C432 H402 0.950 . S
C432 C431 1.524 . S
C432 C433 1.415 . S
C433 H403 0.950 . S
C433 C428 1.363 . S
C433 C432 1.415 . S
H434 C431 0.999 . S
H435 C416 0.913 . S
H436 C454 0.951 . S
H437 C456 0.951 . S
H438 C458 0.950 . S
H439 C459 0.950 . S
H440 C461 0.950 . S
H441 C464 0.950 . S
H442 C465 0.950 . S
H443 C467 0.950 . S
H444 C468 0.950 . S
H445 C469 0.951 . S
H446 C471 0.951 . S
H447 C473 0.950 . S
H448 C474 0.950 . S
H449 C476 0.950 . S
H450 C479 0.950 . S
H451 C480 0.950 . S
H452 C482 0.950 . S
H453 C483 0.950 . S
C454 H436 0.951 . S
C454 C455 1.366 . S
C454 C456 1.388 . S
C455 C454 1.366 . S
C455 C459 1.385 . S
C456 H437 0.951 . S
C456 C454 1.388 . S
C456 C457 1.366 . S
C457 C456 1.366 . S
C457 C458 1.414 . S
C457 C460 1.499 . S
C458 H438 0.950 . S
C458 C457 1.414 . S
C458 C459 1.374 . S
C459 H439 0.950 . S
C459 C455 1.385 . S
C459 C458 1.374 . S
C460 C457 1.499 . S
C460 C461 1.373 . S
C460 C462 1.389 . S
C461 H440 0.950 . S
C461 C460 1.373 . S
C461 C477 1.377 . S
C462 C460 1.389 . S
C462 C463 1.524 . S
C462 C476 1.377 . S
C463 C462 1.524 . S
C463 C464 1.397 . S
C463 C468 1.363 . S
C464 H441 0.950 . S
C464 C463 1.397 . S
C464 C465 1.334 . S
C465 H442 0.950 . S
C465 C464 1.334 . S
C465 C466 1.287 . S
C466 C465 1.287 . S
C466 C467 1.524 . S
C466 H485 0.913 . S
C467 H443 0.950 . S
C467 C466 1.524 . S
C467 C468 1.415 . S
C468 H444 0.950 . S
C468 C463 1.363 . S
C468 C467 1.415 . S
C469 H445 0.951 . S
C469 C470 1.366 . S
C469 C471 1.388 . S
C470 C469 1.366 . S
C470 C474 1.385 . S
C471 H446 0.951 . S
C471 C469 1.388 . S
C471 C472 1.366 . S
C472 C471 1.366 . S
C472 C473 1.414 . S
C472 C475 1.499 . S
C473 H447 0.950 . S
C473 C472 1.414 . S
C473 C474 1.374 . S
C474 H448 0.950 . S
C474 C470 1.385 . S
C474 C473 1.374 . S
C475 C472 1.499 . S
C475 C476 1.373 . S
C475 C477 1.389 . S
C476 H449 0.950 . S
C476 C462 1.377 . S
C476 C475 1.373 . S
C477 C461 1.377 . S
C477 C475 1.389 . S
C477 C478 1.524 . S
C478 C477 1.524 . S
C478 C479 1.397 . S
C478 C483 1.363 . S
C479 H450 0.950 . S
C479 C478 1.397 . S
C479 C480 1.334 . S
C480 H451 0.950 . S
C480 C479 1.334 . S
C480 C481 1.287 . S
C481 C480 1.287 . S
C481 C482 1.524 . S
C481 H484 0.999 . S
C482 H452 0.950 . S
C482 C481 1.524 . S
C482 C483 1.415 . S
C483 H453 0.950 . S
C483 C478 1.363 . S
C483 C482 1.415 . S
H484 C481 0.999 . S
H485 C466 0.913 . S
H486 C504 0.951 . S
H487 C506 0.951 . S
H488 C508 0.950 . S
H489 C509 0.950 . S
H490 C511 0.950 . S
H491 C514 0.950 . S
H492 C515 0.950 . S
H493 C517 0.950 . S
H494 C518 0.950 . S
H495 C519 0.951 . S
H496 C521 0.951 . S
H497 C523 0.950 . S
H498 C524 0.950 . S
H499 C526 0.950 . S
H500 C529 0.950 . S
H501 C530 0.950 . S
H502 C532 0.950 . S
H503 C533 0.950 . S
C504 H486 0.951 . S
C504 C505 1.366 . S
C504 C506 1.388 . S
C505 C504 1.366 . S
C505 C509 1.385 . S
C506 H487 0.951 . S
C506 C504 1.388 . S
C506 C507 1.366 . S
C507 C506 1.366 . S
C507 C508 1.414 . S
C507 C510 1.499 . S
C508 H488 0.950 . S
C508 C507 1.414 . S
C508 C509 1.374 . S
C509 H489 0.950 . S
C509 C505 1.385 . S
C509 C508 1.374 . S
C510 C507 1.499 . S
C510 C511 1.373 . S
C510 C512 1.389 . S
C511 H490 0.950 . S
C511 C510 1.373 . S
C511 C527 1.377 . S
C512 C510 1.389 . S
C512 C513 1.524 . S
C512 C526 1.377 . S
C513 C512 1.524 . S
C513 C514 1.397 . S
C513 C518 1.363 . S
C514 H491 0.950 . S
C514 C513 1.397 . S
C514 C515 1.334 . S
C515 H492 0.950 . S
C515 C514 1.334 . S
C515 C516 1.287 . S
C516 C515 1.287 . S
C516 C517 1.524 . S
C516 H535 0.913 . S
C517 H493 0.950 . S
C517 C516 1.524 . S
C517 C518 1.415 . S
C518 H494 0.950 . S
C518 C513 1.363 . S
C518 C517 1.415 . S
C519 H495 0.951 . S
C519 C520 1.366 . S
C519 C521 1.388 . S
C520 C519 1.366 . S
C520 C524 1.385 . S
C521 H496 0.951 . S
C521 C519 1.388 . S
C521 C522 1.366 . S
C522 C521 1.366 . S
C522 C523 1.414 . S
C522 C525 1.499 . S
C523 H497 0.950 . S
C523 C522 1.414 . S
C523 C524 1.374 . S
C524 H498 0.950 . S
C524 C520 1.385 . S
C524 C523 1.374 . S
C525 C522 1.499 . S
C525 C526 1.373 . S
C525 C527 1.389 . S
C526 H499 0.950 . S
C526 C512 1.377 . S
C526 C525 1.373 . S
C527 C511 1.377 . S
C527 C525 1.389 . S
C527 C528 1.524 . S
C528 C527 1.524 . S
C528 C529 1.397 . S
C528 C533 1.363 . S
C529 H500 0.950 . S
C529 C528 1.397 . S
C529 C530 1.334 . S
C530 H501 0.950 . S
C530 C529 1.334 . S
C530 C531 1.287 . S
C531 C530 1.287 . S
C531 C532 1.524 . S
C531 H534 0.999 . S
C532 H502 0.950 . S
C532 C531 1.524 . S
C532 C533 1.415 . S
C533 H503 0.950 . S
C533 C528 1.363 . S
C533 C532 1.415 . S
H534 C531 0.999 . S
H535 C516 0.913 . S
H536 C554 0.951 . S
H537 C556 0.951 . S
H538 C558 0.950 . S
H539 C559 0.950 . S
H540 C561 0.950 . S
H541 C564 0.950 . S
H542 C565 0.950 . S
H543 C567 0.950 . S
H544 C568 0.950 . S
H545 C569 0.951 . S
H546 C571 0.951 . S
H547 C573 0.950 . S
H548 C574 0.950 . S
H549 C576 0.950 . S
H550 C579 0.950 . S
H551 C580 0.950 . S
H552 C582 0.950 . S
H553 C583 0.950 . S
C554 H536 0.951 . S
C554 C555 1.366 . S
C554 C556 1.388 . S
C555 C554 1.366 . S
C555 C559 1.385 . S
C556 H537 0.951 . S
C556 C554 1.388 . S
C556 C557 1.366 . S
C557 C556 1.366 . S
C557 C558 1.414 . S
C557 C560 1.499 . S
C558 H538 0.950 . S
C558 C557 1.414 . S
C558 C559 1.374 . S
C559 H539 0.950 . S
C559 C555 1.385 . S
C559 C558 1.374 . S
C560 C557 1.499 . S
C560 C561 1.373 . S
C560 C562 1.389 . S
C561 H540 0.950 . S
C561 C560 1.373 . S
C561 C577 1.377 . S
C562 C560 1.389 . S
C562 C563 1.524 . S
C562 C576 1.377 . S
C563 C562 1.524 . S
C563 C564 1.397 . S
C563 C568 1.363 . S
C564 H541 0.950 . S
C564 C563 1.397 . S
C564 C565 1.334 . S
C565 H542 0.950 . S
C565 C564 1.334 . S
C565 C566 1.287 . S
C566 C565 1.287 . S
C566 C567 1.524 . S
C566 H585 0.913 . S
C567 H543 0.950 . S
C567 C566 1.524 . S
C567 C568 1.415 . S
C568 H544 0.950 . S
C568 C563 1.363 . S
C568 C567 1.415 . S
C569 H545 0.951 . S
C569 C570 1.380 . S
C569 C571 1.388 . S
C570 C569 1.380 . S
C570 C574 1.390 . S
C571 H546 0.951 . S
C571 C569 1.388 . S
C571 C572 1.366 . S
C572 C571 1.366 . S
C572 C573 1.414 . S
C572 C575 1.499 . S
C573 H547 0.950 . S
C573 C572 1.414 . S
C573 C574 1.374 . S
C574 H548 0.950 . S
C574 C570 1.390 . S
C574 C573 1.374 . S
C575 C572 1.499 . S
C575 C576 1.373 . S
C575 C577 1.389 . S
C576 H549 0.950 . S
C576 C562 1.377 . S
C576 C575 1.373 . S
C577 C561 1.377 . S
C577 C575 1.389 . S
C577 C578 1.524 . S
C578 C577 1.524 . S
C578 C579 1.397 . S
C578 C583 1.363 . S
C579 H550 0.950 . S
C579 C578 1.397 . S
C579 C580 1.334 . S
C580 H551 0.950 . S
C580 C579 1.334 . S
C580 C581 1.287 . S
C581 C580 1.287 . S
C581 C582 1.524 . S
C581 H584 0.999 . S
C582 H552 0.950 . S
C582 C581 1.524 . S
C582 C583 1.415 . S
C583 H553 0.950 . S
C583 C578 1.363 . S
C583 C582 1.415 . S
H584 C581 0.999 . S
H585 C566 0.913 . S
H586 C604 0.951 . S
H587 C606 0.951 . S
H588 C608 0.950 . S
H589 C609 0.950 . S
H590 C611 0.950 . S
H591 C614 0.950 . S
H592 C615 0.950 . S
H593 C617 0.950 1_545 S
H594 C618 0.950 . S
H595 C619 0.951 . S
H596 C621 0.951 . S
H597 C623 0.956 . S
H598 C624 0.950 . S
H599 C626 0.950 . S
H600 C629 0.950 . S
H601 C630 0.950 . S
H602 C632 0.950 . S
H603 C633 0.950 . S
C604 H586 0.951 . S
C604 C605 1.366 . S
C604 C606 1.388 . S
C605 C604 1.366 . S
C605 C609 1.385 . S
C606 H587 0.951 . S
C606 C604 1.388 . S
C606 C607 1.366 . S
C607 C606 1.366 . S
C607 C608 1.414 . S
C607 C610 1.499 . S
C608 H588 0.950 . S
C608 C607 1.414 . S
C608 C609 1.374 . S
C609 H589 0.950 . S
C609 C605 1.385 . S
C609 C608 1.374 . S
C610 C607 1.499 . S
C610 C611 1.373 . S
C610 C612 1.389 . S
C611 H590 0.950 . S
C611 C610 1.373 . S
C611 C627 1.377 . S
C612 C610 1.389 . S
C612 C613 1.524 . S
C612 C626 1.377 . S
C613 C612 1.524 . S
C613 C614 1.397 . S
C613 C618 1.363 . S
C614 H591 0.950 . S
C614 C613 1.397 . S
C614 C615 1.334 . S
C615 H592 0.950 . S
C615 C614 1.334 . S
C615 C616 1.287 . S
C616 C615 1.287 . S
C616 C617 1.524 . S
C616 H635 0.913 . S
C617 H593 0.950 1_565 S
C617 C616 1.524 . S
C617 C618 1.415 . S
C618 H594 0.950 . S
C618 C613 1.363 . S
C618 C617 1.415 . S
C619 H595 0.951 . S
C619 C620 1.366 1_565 S
C619 C621 1.388 . S
C620 C619 1.366 1_545 S
C620 C624 1.385 . S
C621 H596 0.951 . S
C621 C619 1.388 . S
C621 C622 1.366 . S
C622 C621 1.366 . S
C622 C623 1.402 1_565 S
C622 C625 1.499 . S
C623 H597 0.956 . S
C623 C622 1.402 1_545 S
C623 C624 1.381 . S
C624 H598 0.950 . S
C624 C620 1.385 . S
C624 C623 1.381 . S
C625 C622 1.499 . S
C625 C626 1.373 . S
C625 C627 1.389 . S
C626 H599 0.950 . S
C626 C612 1.377 . S
C626 C625 1.373 . S
C627 C611 1.377 . S
C627 C625 1.389 . S
C627 C628 1.524 . S
C628 C627 1.524 . S
C628 C629 1.397 . S
C628 C633 1.363 . S
C629 H600 0.950 . S
C629 C628 1.397 . S
C629 C630 1.334 . S
C630 H601 0.950 . S
C630 C629 1.334 . S
C630 C631 1.287 . S
C631 C630 1.287 . S
C631 C632 1.524 . S
C631 H634 0.999 . S
C632 H602 0.950 . S
C632 C631 1.524 . S
C632 C633 1.415 . S
C633 H603 0.950 . S
C633 C628 1.363 . S
C633 C632 1.415 . S
H634 C631 0.999 . S
H635 C616 0.913 . S
H636 C654 0.951 . S
H637 C656 0.951 . S
H638 C658 0.950 . S
H639 C659 0.950 . S
H640 C661 0.950 . S
H641 C664 0.950 . S
H642 C665 0.950 . S
H643 C667 0.950 . S
H644 C668 0.950 . S
H645 C669 0.951 . S
H646 C671 0.951 . S
H647 C673 0.950 . S
H648 C674 0.950 . S
H649 C676 0.950 . S
H650 C679 0.950 . S
H651 C680 0.950 . S
H652 C682 0.950 . S
H653 C683 0.950 . S
C654 H636 0.951 . S
C654 C655 1.366 . S
C654 C656 1.388 . S
C655 C654 1.366 . S
C655 C659 1.385 . S
C656 H637 0.951 . S
C656 C654 1.388 . S
C656 C657 1.366 . S
C657 C656 1.366 . S
C657 C658 1.414 . S
C657 C660 1.499 . S
C658 H638 0.950 . S
C658 C657 1.414 . S
C658 C659 1.374 . S
C659 H639 0.950 . S
C659 C655 1.385 . S
C659 C658 1.374 . S
C660 C657 1.499 . S
C660 C661 1.373 . S
C660 C662 1.389 . S
C661 H640 0.950 . S
C661 C660 1.373 . S
C661 C677 1.377 . S
C662 C660 1.389 . S
C662 C663 1.524 . S
C662 C676 1.377 . S
C663 C662 1.524 . S
C663 C664 1.397 . S
C663 C668 1.363 . S
C664 H641 0.950 . S
C664 C663 1.397 . S
C664 C665 1.334 . S
C665 H642 0.950 . S
C665 C664 1.334 . S
C665 C666 1.287 . S
C666 C665 1.287 . S
C666 C667 1.524 . S
C666 H685 0.913 . S
C667 H643 0.950 . S
C667 C666 1.524 . S
C667 C668 1.415 . S
C668 H644 0.950 . S
C668 C663 1.363 . S
C668 C667 1.415 . S
C669 H645 0.951 . S
C669 C670 1.366 . S
C669 C671 1.388 . S
C670 C669 1.366 . S
C670 C674 1.385 . S
C671 H646 0.951 . S
C671 C669 1.388 . S
C671 C672 1.366 . S
C672 C671 1.366 . S
C672 C673 1.414 . S
C672 C675 1.499 . S
C673 H647 0.950 . S
C673 C672 1.414 . S
C673 C674 1.374 . S
C674 H648 0.950 . S
C674 C670 1.385 . S
C674 C673 1.374 . S
C675 C672 1.499 . S
C675 C676 1.373 . S
C675 C677 1.389 . S
C676 H649 0.950 . S
C676 C662 1.377 . S
C676 C675 1.373 . S
C677 C661 1.377 . S
C677 C675 1.389 . S
C677 C678 1.524 . S
C678 C677 1.524 . S
C678 C679 1.397 . S
C678 C683 1.363 . S
C679 H650 0.950 . S
C679 C678 1.397 . S
C679 C680 1.334 . S
C680 H651 0.950 . S
C680 C679 1.334 . S
C680 C681 1.287 . S
C681 C680 1.287 . S
C681 C682 1.524 . S
C681 H684 0.999 . S
C682 H652 0.950 . S
C682 C681 1.524 . S
C682 C683 1.415 . S
C683 H653 0.950 . S
C683 C678 1.363 . S
C683 C682 1.415 . S
H684 C681 0.999 . S
H685 C666 0.913 . S
H686 C704 0.951 . S
H687 C706 0.951 . S
H688 C708 0.950 . S
H689 C709 0.950 . S
H690 C711 0.950 . S
H691 C714 0.950 . S
H692 C715 0.950 . S
H693 C717 0.950 . S
H694 C718 0.950 . S
H695 C719 0.951 . S
H696 C721 0.951 . S
H697 C723 0.950 . S
H698 C724 0.950 . S
H699 C726 0.950 . S
H700 C729 0.950 . S
H701 C730 0.950 . S
H702 C732 0.950 . S
H703 C733 0.950 . S
C704 H686 0.951 . S
C704 C705 1.366 . S
C704 C706 1.388 . S
C705 C704 1.366 . S
C705 C709 1.385 . S
C706 H687 0.951 . S
C706 C704 1.388 . S
C706 C707 1.366 . S
C707 C706 1.366 . S
C707 C708 1.414 . S
C707 C710 1.499 . S
C708 H688 0.950 . S
C708 C707 1.414 . S
C708 C709 1.374 . S
C709 H689 0.950 . S
C709 C705 1.385 . S
C709 C708 1.374 . S
C710 C707 1.499 . S
C710 C711 1.373 . S
C710 C712 1.389 . S
C711 H690 0.950 . S
C711 C710 1.373 . S
C711 C727 1.377 . S
C712 C710 1.389 . S
C712 C713 1.524 . S
C712 C726 1.377 . S
C713 C712 1.524 . S
C713 C714 1.397 . S
C713 C718 1.363 . S
C714 H691 0.950 . S
C714 C713 1.397 . S
C714 C715 1.334 . S
C715 H692 0.950 . S
C715 C714 1.334 . S
C715 C716 1.287 . S
C716 C715 1.287 . S
C716 C717 1.524 . S
C716 H735 0.913 . S
C717 H693 0.950 . S
C717 C716 1.524 . S
C717 C718 1.415 . S
C718 H694 0.950 . S
C718 C713 1.363 . S
C718 C717 1.415 . S
C719 H695 0.951 . S
C719 C720 1.366 . S
C719 C721 1.388 . S
C720 C719 1.366 . S
C720 C724 1.385 . S
C721 H696 0.951 . S
C721 C719 1.388 . S
C721 C722 1.366 . S
C722 C721 1.366 . S
C722 C723 1.414 . S
C722 C725 1.499 . S
C723 H697 0.950 . S
C723 C722 1.414 . S
C723 C724 1.374 . S
C724 H698 0.950 . S
C724 C720 1.385 . S
C724 C723 1.374 . S
C725 C722 1.499 . S
C725 C726 1.373 . S
C725 C727 1.389 . S
C726 H699 0.950 . S
C726 C712 1.377 . S
C726 C725 1.373 . S
C727 C711 1.377 . S
C727 C725 1.389 . S
C727 C728 1.524 . S
C728 C727 1.524 . S
C728 C729 1.397 . S
C728 C733 1.363 . S
C729 H700 0.950 . S
C729 C728 1.397 . S
C729 C730 1.334 . S
C730 H701 0.950 . S
C730 C729 1.334 . S
C730 C731 1.287 . S
C731 C730 1.287 . S
C731 C732 1.524 . S
C731 H734 0.999 . S
C732 H702 0.950 . S
C732 C731 1.524 . S
C732 C733 1.415 . S
C733 H703 0.950 . S
C733 C728 1.363 . S
C733 C732 1.415 . S
H734 C731 0.999 . S
H735 C716 0.913 . S
H736 C754 0.951 . S
H737 C756 0.951 . S
H738 C758 0.950 . S
H739 C759 0.950 . S
H740 C761 0.950 . S
H741 C764 0.950 . S
H742 C765 0.950 . S
H743 C767 0.950 . S
H744 C768 0.950 . S
H745 C769 0.951 . S
H746 C771 0.951 . S
H747 C773 0.950 . S
H748 C774 0.950 . S
H749 C776 0.950 . S
H750 C779 0.950 . S
H751 C780 0.950 . S
H752 C782 0.950 . S
H753 C783 0.950 . S
C754 H736 0.951 . S
C754 C755 1.366 . S
C754 C756 1.388 . S
C755 C754 1.366 . S
C755 C759 1.385 . S
C756 H737 0.951 . S
C756 C754 1.388 . S
C756 C757 1.366 . S
C757 C756 1.366 . S
C757 C758 1.414 . S
C757 C760 1.499 . S
C758 H738 0.950 . S
C758 C757 1.414 . S
C758 C759 1.374 . S
C759 H739 0.950 . S
C759 C755 1.385 . S
C759 C758 1.374 . S
C760 C757 1.499 . S
C760 C761 1.373 . S
C760 C762 1.389 . S
C761 H740 0.950 . S
C761 C760 1.373 . S
C761 C777 1.377 . S
C762 C760 1.389 . S
C762 C763 1.524 . S
C762 C776 1.377 . S
C763 C762 1.524 . S
C763 C764 1.397 . S
C763 C768 1.363 . S
C764 H741 0.950 . S
C764 C763 1.397 . S
C764 C765 1.334 . S
C765 H742 0.950 . S
C765 C764 1.334 . S
C765 C766 1.287 . S
C766 C765 1.287 . S
C766 C767 1.524 . S
C766 H785 0.913 . S
C767 H743 0.950 . S
C767 C766 1.524 . S
C767 C768 1.415 . S
C768 H744 0.950 . S
C768 C763 1.363 . S
C768 C767 1.415 . S
C769 H745 0.951 . S
C769 C770 1.366 . S
C769 C771 1.388 . S
C770 C769 1.366 . S
C770 C774 1.385 . S
C771 H746 0.951 . S
C771 C769 1.388 . S
C771 C772 1.366 . S
C772 C771 1.366 . S
C772 C773 1.414 . S
C772 C775 1.499 . S
C773 H747 0.950 . S
C773 C772 1.414 . S
C773 C774 1.374 . S
C774 H748 0.950 . S
C774 C770 1.385 . S
C774 C773 1.374 . S
C775 C772 1.499 . S
C775 C776 1.373 . S
C775 C777 1.389 . S
C776 H749 0.950 . S
C776 C762 1.377 . S
C776 C775 1.373 . S
C777 C761 1.377 . S
C777 C775 1.389 . S
C777 C778 1.524 . S
C778 C777 1.524 . S
C778 C779 1.397 . S
C778 C783 1.363 . S
C779 H750 0.950 . S
C779 C778 1.397 . S
C779 C780 1.334 . S
C780 H751 0.950 . S
C780 C779 1.334 . S
C780 C781 1.287 . S
C781 C780 1.287 . S
C781 C782 1.524 . S
C781 H784 0.999 . S
C782 H752 0.950 . S
C782 C781 1.524 . S
C782 C783 1.415 . S
C783 H753 0.950 . S
C783 C778 1.363 . S
C783 C782 1.415 . S
H784 C781 0.999 . S
H785 C766 0.913 . S
H786 C804 0.951 . S
H787 C806 0.951 . S
H788 C808 0.964 . S
H789 C809 0.950 . S
H790 C811 0.950 1_655 S
H791 C814 0.950 . S
H792 C815 0.950 . S
H793 C817 0.950 . S
H794 C818 0.950 . S
H795 C819 0.951 1_655 S
H796 C821 0.951 1_655 S
H797 C823 0.950 . S
H798 C824 0.950 . S
H799 C826 0.950 . S
H800 C829 0.950 1_455 S
H801 C830 0.950 . S
H802 C832 0.950 . S
H803 C833 0.966 . S
C804 H786 0.951 . S
C804 C805 1.366 . S
C804 C806 1.388 . S
C805 C804 1.366 . S
C805 C809 1.385 1_455 S
C806 H787 0.951 . S
C806 C804 1.388 . S
C806 C807 1.366 . S
C807 C806 1.366 . S
C807 C808 1.396 1_455 S
C807 C810 1.499 . S
C808 H788 0.964 . S
C808 C807 1.396 1_655 S
C808 C809 1.378 . S
C809 H789 0.950 . S
C809 C805 1.385 1_655 S
C809 C808 1.378 . S
C810 C807 1.499 . S
C810 C811 1.373 . S
C810 C812 1.389 . S
C811 H790 0.950 1_455 S
C811 C810 1.373 . S
C811 C827 1.377 . S
C812 C810 1.389 . S
C812 C813 1.524 . S
C812 C826 1.377 . S
C813 C812 1.524 . S
C813 C814 1.397 . S
C813 C818 1.363 . S
C814 H791 0.950 . S
C814 C813 1.397 . S
C814 C815 1.334 . S
C815 H792 0.950 . S
C815 C814 1.334 . S
C815 C816 1.287 . S
C816 C815 1.287 . S
C816 C817 1.524 . S
C816 H835 0.913 . S
C817 H793 0.950 . S
C817 C816 1.524 . S
C817 C818 1.415 . S
C818 H794 0.950 . S
C818 C813 1.363 . S
C818 C817 1.415 . S
C819 H795 0.951 1_455 S
C819 C820 1.366 . S
C819 C821 1.388 . S
C820 C819 1.366 . S
C820 C824 1.385 . S
C821 H796 0.951 1_455 S
C821 C819 1.388 . S
C821 C822 1.366 . S
C822 C821 1.366 . S
C822 C823 1.414 . S
C822 C825 1.499 . S
C823 H797 0.950 . S
C823 C822 1.414 . S
C823 C824 1.374 . S
C824 H798 0.950 . S
C824 C820 1.385 . S
C824 C823 1.374 . S
C825 C822 1.499 . S
C825 C826 1.373 1_556 S
C825 C827 1.389 1_556 S
C826 H799 0.950 . S
C826 C812 1.377 . S
C826 C825 1.373 1_554 S
C827 C811 1.377 . S
C827 C825 1.389 1_554 S
C827 C828 1.524 1_454 S
C828 C827 1.524 1_656 S
C828 C829 1.397 . S
C828 C833 1.363 . S
C829 H800 0.950 1_655 S
C829 C828 1.397 . S
C829 C830 1.334 . S
C830 H801 0.950 . S
C830 C829 1.334 . S
C830 C831 1.287 . S
C831 C830 1.287 . S
C831 C832 1.524 . S
C831 H834 0.999 . S
C832 H802 0.950 . S
C832 C831 1.524 . S
C832 C833 1.415 . S
C833 H803 0.966 . S
C833 C828 1.363 . S
C833 C832 1.415 . S
H834 C831 0.999 . S
H835 C816 0.913 . S
H836 C854 0.951 . S
H837 C856 0.951 . S
H838 C858 0.950 . S
H839 C859 0.950 . S
H840 C861 0.950 . S
H841 C864 0.950 . S
H842 C865 0.950 . S
H843 C867 0.950 . S
H844 C868 0.950 . S
H845 C869 0.951 . S
H846 C871 0.951 . S
H847 C873 0.950 . S
H848 C874 0.950 . S
H849 C876 0.950 . S
H850 C879 0.950 1_545 S
H851 C880 0.950 . S
H852 C882 0.950 . S
H853 C883 0.950 . S
C854 H836 0.951 . S
C854 C855 1.366 . S
C854 C856 1.388 . S
C855 C854 1.366 . S
C855 C859 1.385 . S
C856 H837 0.951 . S
C856 C854 1.388 . S
C856 C857 1.366 . S
C857 C856 1.366 . S
C857 C858 1.414 . S
C857 C860 1.499 . S
C858 H838 0.950 . S
C858 C857 1.414 . S
C858 C859 1.374 . S
C859 H839 0.950 . S
C859 C855 1.385 . S
C859 C858 1.374 . S
C860 C857 1.499 . S
C860 C861 1.373 . S
C860 C862 1.389 . S
C861 H840 0.950 . S
C861 C860 1.373 . S
C861 C877 1.377 . S
C862 C860 1.389 . S
C862 C863 1.524 . S
C862 C876 1.377 . S
C863 C862 1.524 . S
C863 C864 1.397 . S
C863 C868 1.363 . S
C864 H841 0.950 . S
C864 C863 1.397 . S
C864 C865 1.334 . S
C865 H842 0.950 . S
C865 C864 1.334 . S
C865 C866 1.287 . S
C866 C865 1.287 . S
C866 C867 1.524 . S
C866 H885 0.913 . S
C867 H843 0.950 . S
C867 C866 1.524 . S
C867 C868 1.415 . S
C868 H844 0.950 . S
C868 C863 1.363 . S
C868 C867 1.415 . S
C869 H845 0.951 . S
C869 C870 1.366 . S
C869 C871 1.388 . S
C870 C869 1.366 . S
C870 C874 1.385 . S
C871 H846 0.951 . S
C871 C869 1.388 . S
C871 C872 1.366 . S
C872 C871 1.366 . S
C872 C873 1.414 . S
C872 C875 1.499 . S
C873 H847 0.950 . S
C873 C872 1.414 . S
C873 C874 1.374 . S
C874 H848 0.950 . S
C874 C870 1.385 . S
C874 C873 1.374 . S
C875 C872 1.499 . S
C875 C876 1.373 . S
C875 C877 1.389 . S
C876 H849 0.950 . S
C876 C862 1.377 . S
C876 C875 1.373 . S
C877 C861 1.377 . S
C877 C875 1.389 . S
C877 C878 1.524 1_545 S
C878 C877 1.524 1_565 S
C878 C879 1.397 . S
C878 C883 1.363 . S
C879 H850 0.950 1_565 S
C879 C878 1.397 . S
C879 C880 1.334 . S
C880 H851 0.950 . S
C880 C879 1.334 . S
C880 C881 1.287 . S
C881 C880 1.287 . S
C881 C882 1.524 . S
C881 H884 0.999 . S
C882 H852 0.950 . S
C882 C881 1.524 . S
C882 C883 1.415 . S
C883 H853 0.950 . S
C883 C878 1.363 . S
C883 C882 1.415 . S
H884 C881 0.999 . S
H885 C866 0.913 . S
H886 C904 0.951 . S
H887 C906 0.951 . S
H888 C908 0.950 . S
H889 C909 0.950 . S
H890 C911 0.950 . S
H891 C914 0.950 . S
H892 C915 0.950 . S
H893 C917 0.950 . S
H894 C918 0.950 . S
H895 C919 0.951 . S
H896 C921 0.951 . S
H897 C923 0.950 . S
H898 C924 0.950 . S
H899 C926 0.950 . S
H900 C929 0.950 . S
H901 C930 0.950 . S
H902 C932 0.950 . S
H903 C933 0.950 . S
C904 H886 0.951 . S
C904 C905 1.366 . S
C904 C906 1.388 . S
C905 C904 1.366 . S
C905 C909 1.385 . S
C906 H887 0.951 . S
C906 C904 1.388 . S
C906 C907 1.366 . S
C907 C906 1.366 . S
C907 C908 1.414 . S
C907 C910 1.499 . S
C908 H888 0.950 . S
C908 C907 1.414 . S
C908 C909 1.374 . S
C909 H889 0.950 . S
C909 C905 1.385 . S
C909 C908 1.374 . S
C910 C907 1.499 . S
C910 C911 1.373 . S
C910 C912 1.389 . S
C911 H890 0.950 . S
C911 C910 1.373 . S
C911 C927 1.377 . S
C912 C910 1.389 . S
C912 C913 1.524 . S
C912 C926 1.377 . S
C913 C912 1.524 . S
C913 C914 1.397 . S
C913 C918 1.363 . S
C914 H891 0.950 . S
C914 C913 1.397 . S
C914 C915 1.334 . S
C915 H892 0.950 . S
C915 C914 1.334 . S
C915 C916 1.287 . S
C916 C915 1.287 . S
C916 C917 1.524 . S
C916 H935 0.913 . S
C917 H893 0.950 . S
C917 C916 1.524 . S
C917 C918 1.415 . S
C918 H894 0.950 . S
C918 C913 1.363 . S
C918 C917 1.415 . S
C919 H895 0.951 . S
C919 C920 1.366 . S
C919 C921 1.388 . S
C920 C919 1.366 . S
C920 C924 1.385 . S
C921 H896 0.951 . S
C921 C919 1.388 . S
C921 C922 1.366 . S
C922 C921 1.366 . S
C922 C923 1.414 . S
C922 C925 1.499 . S
C923 H897 0.950 . S
C923 C922 1.414 . S
C923 C924 1.374 . S
C924 H898 0.950 . S
C924 C920 1.385 . S
C924 C923 1.374 . S
C925 C922 1.499 . S
C925 C926 1.373 . S
C925 C927 1.389 . S
C926 H899 0.950 . S
C926 C912 1.377 . S
C926 C925 1.373 . S
C927 C911 1.377 . S
C927 C925 1.389 . S
C927 C928 1.524 . S
C928 C927 1.524 . S
C928 C929 1.397 . S
C928 C933 1.363 . S
C929 H900 0.950 . S
C929 C928 1.397 . S
C929 C930 1.334 . S
C930 H901 0.950 . S
C930 C929 1.334 . S
C930 C931 1.287 . S
C931 C930 1.287 . S
C931 C932 1.524 . S
C931 H934 0.999 . S
C932 H902 0.950 . S
C932 C931 1.524 . S
C932 C933 1.415 . S
C933 H903 0.950 . S
C933 C928 1.363 . S
C933 C932 1.415 . S
H934 C931 0.999 . S
H935 C916 0.913 . S
H936 C954 0.951 . S
H937 C956 0.951 . S
H938 C958 0.950 . S
H939 C959 0.950 . S
H940 C961 0.950 . S
H941 C964 0.950 . S
H942 C965 0.950 . S
H943 C967 0.950 . S
H944 C968 0.950 . S
H945 C969 0.951 . S
H946 C971 0.951 . S
H947 C973 0.950 . S
H948 C974 0.950 . S
H949 C976 0.950 1_565 S
H950 C979 0.950 . S
H951 C980 0.950 . S
H952 C982 0.950 . S
H953 C983 0.950 . S
C954 H936 0.951 . S
C954 C955 1.366 . S
C954 C956 1.388 . S
C955 C954 1.366 . S
C955 C959 1.385 . S
C956 H937 0.951 . S
C956 C954 1.388 . S
C956 C957 1.366 . S
C957 C956 1.366 . S
C957 C958 1.414 . S
C957 C960 1.499 . S
C958 H938 0.950 . S
C958 C957 1.414 . S
C958 C959 1.374 . S
C959 H939 0.950 . S
C959 C955 1.385 . S
C959 C958 1.374 . S
C960 C957 1.499 . S
C960 C961 1.373 . S
C960 C962 1.389 . S
C961 H940 0.950 . S
C961 C960 1.373 . S
C961 C977 1.377 . S
C962 C960 1.389 . S
C962 C963 1.524 1_545 S
C962 C976 1.377 . S
C963 C962 1.524 1_565 S
C963 C964 1.397 . S
C963 C968 1.363 . S
C964 H941 0.950 . S
C964 C963 1.397 . S
C964 C965 1.334 . S
C965 H942 0.950 . S
C965 C964 1.334 . S
C965 C966 1.287 . S
C966 C965 1.287 . S
C966 C967 1.524 . S
C966 H985 0.913 . S
C967 H943 0.950 . S
C967 C966 1.524 . S
C967 C968 1.415 . S
C968 H944 0.950 . S
C968 C963 1.363 . S
C968 C967 1.415 . S
C969 H945 0.951 . S
C969 C970 1.366 . S
C969 C971 1.388 . S
C970 C969 1.366 . S
C970 C974 1.385 . S
C971 H946 0.951 . S
C971 C969 1.388 . S
C971 C972 1.366 . S
C972 C971 1.366 . S
C972 C973 1.414 . S
C972 C975 1.499 . S
C973 H947 0.950 . S
C973 C972 1.414 . S
C973 C974 1.374 . S
C974 H948 0.950 . S
C974 C970 1.385 . S
C974 C973 1.374 . S
C975 C972 1.499 . S
C975 C976 1.373 . S
C975 C977 1.389 . S
C976 H949 0.950 1_545 S
C976 C962 1.377 . S
C976 C975 1.373 . S
C977 C961 1.377 . S
C977 C975 1.389 . S
C977 C978 1.524 . S
C978 C977 1.524 . S
C978 C979 1.397 . S
C978 C983 1.363 . S
C979 H950 0.950 . S
C979 C978 1.397 . S
C979 C980 1.334 . S
C980 H951 0.950 . S
C980 C979 1.334 . S
C980 C981 1.287 . S
C981 C980 1.287 . S
C981 C982 1.524 . S
C981 H984 0.999 . S
C982 H952 0.950 . S
C982 C981 1.524 . S
C982 C983 1.415 . S
C983 H953 0.950 . S
C983 C978 1.363 . S
C983 C982 1.415 . S
H984 C981 0.999 . S
H985 C966 0.913 . S
H986 C1004 0.951 . S
H987 C1006 0.951 . S
H988 C1008 0.950 . S
H989 C1009 0.950 . S
H990 C1011 0.950 . S
H991 C1014 0.950 . S
H992 C1015 0.950 . S
H993 C1017 0.950 . S
H994 C1018 0.950 . S
H995 C1019 0.951 . S
H996 C1021 0.951 . S
H997 C1023 0.950 . S
H998 C1024 0.950 . S
H999 C1026 0.950 1_554 S
H1000 C1029 0.950 . S
H1001 C1030 0.950 . S
H1002 C1032 0.950 . S
H1003 C1033 0.950 . S
C1004 H986 0.951 . S
C1004 C1005 1.366 . S
C1004 C1006 1.388 . S
C1005 C1004 1.366 . S
C1005 C1009 1.385 . S
C1006 H987 0.951 . S
C1006 C1004 1.388 . S
C1006 C1007 1.366 . S
C1007 C1006 1.366 . S
C1007 C1008 1.414 . S
C1007 C1010 1.499 . S
C1008 H988 0.950 . S
C1008 C1007 1.414 . S
C1008 C1009 1.374 . S
C1009 H989 0.950 . S
C1009 C1005 1.385 . S
C1009 C1008 1.374 . S
C1010 C1007 1.499 . S
C1010 C1011 1.373 . S
C1010 C1012 1.389 . S
C1011 H990 0.950 . S
C1011 C1010 1.373 . S
C1011 C1027 1.377 . S
C1012 C1010 1.389 . S
C1012 C1013 1.524 . S
C1012 C1026 1.377 . S
C1013 C1012 1.524 . S
C1013 C1014 1.397 . S
C1013 C1018 1.363 . S
C1014 H991 0.950 . S
C1014 C1013 1.397 . S
C1014 C1015 1.334 . S
C1015 H992 0.950 . S
C1015 C1014 1.334 . S
C1015 C1016 1.287 . S
C1016 C1015 1.287 . S
C1016 C1017 1.524 . S
C1016 H1035 0.913 . S
C1017 H993 0.950 . S
C1017 C1016 1.524 . S
C1017 C1018 1.415 . S
C1018 H994 0.950 . S
C1018 C1013 1.363 . S
C1018 C1017 1.415 . S
C1019 H995 0.951 . S
C1019 C1020 1.366 . S
C1019 C1021 1.388 . S
C1020 C1019 1.366 . S
C1020 C1024 1.385 . S
C1021 H996 0.951 . S
C1021 C1019 1.388 . S
C1021 C1022 1.366 . S
C1022 C1021 1.366 . S
C1022 C1023 1.414 . S
C1022 C1025 1.499 . S
C1023 H997 0.950 . S
C1023 C1022 1.414 . S
C1023 C1024 1.374 . S
C1024 H998 0.950 . S
C1024 C1020 1.385 . S
C1024 C1023 1.374 . S
C1025 C1022 1.499 . S
C1025 C1026 1.373 1_554 S
C1025 C1027 1.389 1_554 S
C1026 H999 0.950 1_556 S
C1026 C1012 1.377 . S
C1026 C1025 1.373 1_556 S
C1027 C1011 1.377 . S
C1027 C1025 1.389 1_556 S
C1027 C1028 1.524 . S
C1028 C1027 1.524 . S
C1028 C1029 1.397 1_556 S
C1028 C1033 1.363 . S
C1029 H1000 0.950 . S
C1029 C1028 1.397 1_554 S
C1029 C1030 1.334 . S
C1030 H1001 0.950 . S
C1030 C1029 1.334 . S
C1030 C1031 1.287 . S
C1031 C1030 1.287 . S
C1031 C1032 1.524 1_554 S
C1031 H1034 0.999 . S
C1032 H1002 0.950 . S
C1032 C1031 1.524 1_556 S
C1032 C1033 1.415 . S
C1033 H1003 0.950 . S
C1033 C1028 1.363 . S
C1033 C1032 1.415 . S
H1034 C1031 0.999 . S
H1035 C1016 0.913 . S
H1036 C1054 0.951 . S
H1037 C1056 0.951 . S
H1038 C1058 0.950 . S
H1039 C1059 0.950 . S
H1040 C1061 0.950 . S
H1041 C1064 0.950 . S
H1042 C1065 0.950 . S
H1043 C1067 0.950 . S
H1044 C1068 0.959 . S
H1045 C1069 0.951 . S
H1046 C1071 0.951 . S
H1047 C1073 0.950 . S
H1048 C1074 0.950 . S
H1049 C1076 0.950 1_655 S
H1050 C1079 0.950 . S
H1051 C1080 0.950 . S
H1052 C1082 0.950 . S
H1053 C1083 0.950 . S
C1054 H1036 0.951 . S
C1054 C1055 1.366 . S
C1054 C1056 1.388 . S
C1055 C1054 1.366 . S
C1055 C1059 1.385 . S
C1056 H1037 0.951 . S
C1056 C1054 1.388 . S
C1056 C1057 1.366 . S
C1057 C1056 1.366 . S
C1057 C1058 1.414 . S
C1057 C1060 1.499 . S
C1058 H1038 0.950 . S
C1058 C1057 1.414 . S
C1058 C1059 1.374 . S
C1059 H1039 0.950 . S
C1059 C1055 1.385 . S
C1059 C1058 1.374 . S
C1060 C1057 1.499 . S
C1060 C1061 1.373 . S
C1060 C1062 1.389 . S
C1061 H1040 0.950 . S
C1061 C1060 1.373 . S
C1061 C1077 1.377 . S
C1062 C1060 1.389 . S
C1062 C1063 1.524 1_455 S
C1062 C1076 1.377 . S
C1063 C1062 1.524 1_655 S
C1063 C1064 1.397 . S
C1063 C1068 1.363 . S
C1064 H1041 0.950 . S
C1064 C1063 1.397 . S
C1064 C1065 1.334 . S
C1065 H1042 0.950 . S
C1065 C1064 1.334 . S
C1065 C1066 1.287 . S
C1066 C1065 1.287 . S
C1066 C1067 1.524 . S
C1066 H1085 0.913 . S
C1067 H1043 0.950 . S
C1067 C1066 1.524 . S
C1067 C1068 1.415 . S
C1068 H1044 0.959 . S
C1068 C1063 1.363 . S
C1068 C1067 1.415 . S
C1069 H1045 0.951 . S
C1069 C1070 1.366 . S
C1069 C1071 1.388 . S
C1070 C1069 1.366 . S
C1070 C1074 1.385 . S
C1071 H1046 0.951 . S
C1071 C1069 1.388 . S
C1071 C1072 1.366 . S
C1072 C1071 1.366 . S
C1072 C1073 1.414 . S
C1072 C1075 1.499 . S
C1073 H1047 0.950 . S
C1073 C1072 1.414 . S
C1073 C1074 1.374 . S
C1074 H1048 0.950 . S
C1074 C1070 1.385 . S
C1074 C1073 1.374 . S
C1075 C1072 1.499 . S
C1075 C1076 1.373 . S
C1075 C1077 1.389 . S
C1076 H1049 0.950 1_455 S
C1076 C1062 1.377 . S
C1076 C1075 1.373 . S
C1077 C1061 1.377 . S
C1077 C1075 1.389 . S
C1077 C1078 1.524 . S
C1078 C1077 1.524 . S
C1078 C1079 1.397 . S
C1078 C1083 1.363 . S
C1079 H1050 0.950 . S
C1079 C1078 1.397 . S
C1079 C1080 1.334 . S
C1080 H1051 0.950 . S
C1080 C1079 1.334 . S
C1080 C1081 1.287 . S
C1081 C1080 1.287 . S
C1081 C1082 1.524 . S
C1081 H1084 0.999 . S
C1082 H1052 0.950 . S
C1082 C1081 1.524 . S
C1082 C1083 1.415 . S
C1083 H1053 0.950 . S
C1083 C1078 1.363 . S
C1083 C1082 1.415 . S
H1084 C1081 0.999 . S
H1085 C1066 0.913 . S
C205 C24 2.995 . S
C220 C185 2.937 . S
C255 C66 1.129 . S
C270 C163 1.132 . S
C305 C93 1.778 . S
C320 C174 1.742 . S
C355 C13 2.924 . S
C370 C179 2.887 . S
C420 C157 1.040 . S
C405 C57 1.050 . S
C470 C168 1.794 . S
C455 C104 1.829 . S
C505 C64 1.982 . S
C520 C141 1.920 . S
C555 C97 0.210 . S
C570 C146 0.267 1_655 S
C605 C17 1.108 . S
C620 C124 1.108 . S
C670 C135 1.622 . S
C655 C53 1.644 . S
C720 C152 0.229 . S
C705 C106 0.274 . S
C755 C26 1.152 . S
C770 C130 1.152 . S
C820 C147 1.260 . S
C805 C2 1.232 . S
C855 C63 1.484 . S
C870 C125 1.496 . S
C905 C82 1.455 . S
C920 C136 1.488 . S
C970 C169 1.461 . S
C955 C42 1.436 . S
C1020 C180 1.729 . S
C1005 C103 1.711 . S
C1055 C23 1.541 . S
C1070 C158 1.548 . S
