# Generated by pormake.
# Topology wbl, (4,4)-cn, num edge types: 1
# Building blocks:
#     Node 0, Type 0, BuildingBlock: NAWXER_clean_linker_0, # of connection points: 4
#     Node 1, Type 0, BuildingBlock: NAWXER_clean_linker_0, # of connection points: 4
#     Node 2, Type 0, BuildingBlock: NAWXER_clean_linker_0, # of connection points: 4
#     Node 3, Type 0, BuildingBlock: NAWXER_clean_linker_0, # of connection points: 4
#     Node 4, Type 0, BuildingBlock: NAWXER_clean_linker_0, # of connection points: 4
#     Node 5, Type 0, BuildingBlock: NAWXER_clean_linker_0, # of connection points: 4
#     Node 6, Type 0, BuildingBlock: NAWXER_clean_linker_0, # of connection points: 4
#     Node 7, Type 0, BuildingBlock: NAWXER_clean_linker_0, # of connection points: 4
#     Node 8, Type 1, BuildingBlock: CEKHIL_clean_sbu_0, # of connection points: 4
#     Node 9, Type 1, BuildingBlock: CEKHIL_clean_sbu_0, # of connection points: 4
#     Node 10, Type 1, BuildingBlock: CEKHIL_clean_sbu_0, # of connection points: 4
#     Node 11, Type 1, BuildingBlock: CEKHIL_clean_sbu_0, # of connection points: 4
#     Node 12, Type 1, BuildingBlock: CEKHIL_clean_sbu_0, # of connection points: 4
#     Node 13, Type 1, BuildingBlock: CEKHIL_clean_sbu_0, # of connection points: 4
#     Node 14, Type 1, BuildingBlock: CEKHIL_clean_sbu_0, # of connection points: 4
#     Node 15, Type 1, BuildingBlock: CEKHIL_clean_sbu_0, # of connection points: 4
#     Edge 16, Type (0, 1), BuildingBlock: XUDNAN_clean_linker_2, # of connection points: 2
#     Edge 17, Type (0, 1), BuildingBlock: XUDNAN_clean_linker_2, # of connection points: 2
#     Edge 18, Type (0, 1), BuildingBlock: XUDNAN_clean_linker_2, # of connection points: 2
#     Edge 19, Type (0, 1), BuildingBlock: XUDNAN_clean_linker_2, # of connection points: 2
#     Edge 20, Type (0, 1), BuildingBlock: XUDNAN_clean_linker_2, # of connection points: 2
#     Edge 21, Type (0, 1), BuildingBlock: XUDNAN_clean_linker_2, # of connection points: 2
#     Edge 22, Type (0, 1), BuildingBlock: XUDNAN_clean_linker_2, # of connection points: 2
#     Edge 23, Type (0, 1), BuildingBlock: XUDNAN_clean_linker_2, # of connection points: 2
#     Edge 24, Type (0, 1), BuildingBlock: XUDNAN_clean_linker_2, # of connection points: 2
#     Edge 25, Type (0, 1), BuildingBlock: XUDNAN_clean_linker_2, # of connection points: 2
#     Edge 26, Type (0, 1), BuildingBlock: XUDNAN_clean_linker_2, # of connection points: 2
#     Edge 27, Type (0, 1), BuildingBlock: XUDNAN_clean_linker_2, # of connection points: 2
#     Edge 28, Type (0, 1), BuildingBlock: XUDNAN_clean_linker_2, # of connection points: 2
#     Edge 29, Type (0, 1), BuildingBlock: XUDNAN_clean_linker_2, # of connection points: 2
#     Edge 30, Type (0, 1), BuildingBlock: XUDNAN_clean_linker_2, # of connection points: 2
#     Edge 31, Type (0, 1), BuildingBlock: XUDNAN_clean_linker_2, # of connection points: 2
#     Edge 32, Type (0, 1), BuildingBlock: XUDNAN_clean_linker_2, # of connection points: 2
#     Edge 33, Type (0, 1), BuildingBlock: XUDNAN_clean_linker_2, # of connection points: 2
#     Edge 34, Type (0, 1), BuildingBlock: XUDNAN_clean_linker_2, # of connection points: 2
#     Edge 35, Type (0, 1), BuildingBlock: XUDNAN_clean_linker_2, # of connection points: 2
#     Edge 36, Type (0, 1), BuildingBlock: XUDNAN_clean_linker_2, # of connection points: 2
#     Edge 37, Type (0, 1), BuildingBlock: XUDNAN_clean_linker_2, # of connection points: 2
#     Edge 38, Type (0, 1), BuildingBlock: XUDNAN_clean_linker_2, # of connection points: 2
#     Edge 39, Type (0, 1), BuildingBlock: XUDNAN_clean_linker_2, # of connection points: 2
#     Edge 40, Type (0, 1), BuildingBlock: XUDNAN_clean_linker_2, # of connection points: 2
#     Edge 41, Type (0, 1), BuildingBlock: XUDNAN_clean_linker_2, # of connection points: 2
#     Edge 42, Type (0, 1), BuildingBlock: XUDNAN_clean_linker_2, # of connection points: 2
#     Edge 43, Type (0, 1), BuildingBlock: XUDNAN_clean_linker_2, # of connection points: 2
#     Edge 44, Type (0, 1), BuildingBlock: XUDNAN_clean_linker_2, # of connection points: 2
#     Edge 45, Type (0, 1), BuildingBlock: XUDNAN_clean_linker_2, # of connection points: 2
#     Edge 46, Type (0, 1), BuildingBlock: XUDNAN_clean_linker_2, # of connection points: 2
#     Edge 47, Type (0, 1), BuildingBlock: XUDNAN_clean_linker_2, # of connection points: 2
# Relax obj value: 0.169
# Max RMSD: 0.172
# Mean RMSD: 0.145
data_MOF--net-wbl--node1-CEKHIL_clean_sbu_0--node2-NAWXER_clean_linker_0--edge1-XUDNAN_clean_linker_2
_symmetry_space_group_name_H-M    P1
_symmetry_Int_Tables_number       1
_symmetry_cell_setting            triclinic
loop_
_symmetry_equiv_pos_as_xyz
'x, y, z'
_cell_length_a     44.750642
_cell_length_b     44.946132
_cell_length_c     78.455206
_cell_angle_alpha  90.296614
_cell_angle_beta   90.111665
_cell_angle_gamma 89.97019
loop_
_atom_site_label
_atom_site_type_symbol
_atom_site_fract_x
_atom_site_fract_y
_atom_site_fract_z
_atom_type_partial_charge
C0 C 0.10764 0.94846 0.35857 0.0
C1 C 0.12264 0.95998 0.37291 0.0
C2 C 0.09241 0.96743 0.34749 0.0
C3 C 0.09221 0.99829 0.35043 0.0
C4 C 0.12283 0.99095 0.37563 0.0
C5 C 0.10756 0.00988 0.36456 0.0
C6 C 0.07405 0.01824 0.33966 0.0
C7 C 0.14781 0.98184 0.30778 0.0
C8 C 0.13829 0.96472 0.29377 0.0
C9 C 0.12758 -0.00026 0.31664 0.0
C10 C 0.09727 0.00024 0.31192 0.0
C11 C 0.10823 0.96603 0.28866 0.0
C12 C 0.08788 0.98364 0.29768 0.0
C13 C 0.07527 0.01806 0.32166 0.0
C14 C 0.98177 0.1118 0.30485 0.0
C15 C 0.96547 0.09611 0.29239 0.0
C16 C 0.00514 0.09795 0.31358 0.0
C17 C 0.01234 0.0681 0.31013 0.0
C18 C 0.97421 0.06696 0.28812 0.0
C19 C 0.9975 0.05312 0.29688 0.0
C20 C 0.03413 0.05177 0.32075 0.0
C21 C 0.95647 0.06985 0.35626 0.0
C22 C 0.96354 0.0896 0.3696 0.0
C23 C 0.97897 0.05845 0.34577 0.0
C24 C 0.00892 0.06654 0.34851 0.0
C25 C 0.99344 0.09828 0.37201 0.0
C26 C 0.01598 0.08658 0.36165 0.0
C27 C 0.03308 0.05203 0.33873 0.0
H28 H 0.10661 0.9247 0.35629 0.0
H29 H 0.08004 0.95789 0.33692 0.0
H30 H 0.13444 0.00054 0.38646 0.0
H31 H 0.10752 0.0336 0.36711 0.0
H32 H 0.17104 0.98175 0.31171 0.0
H33 H 0.13565 0.01319 0.32717 0.0
H34 H 0.10038 0.95309 0.27786 0.0
H35 H 0.06468 0.98387 0.29371 0.0
H36 H 0.97556 0.13427 0.30843 0.0
H37 H 0.01689 0.11025 0.32343 0.0
H38 H 0.96241 0.05451 0.27835 0.0
H39 H 0.00298 0.03022 0.29383 0.0
H40 H 0.93361 0.06279 0.35416 0.0
H41 H 0.97312 0.04256 0.33589 0.0
H42 H -0.00045 0.11311 0.38237 0.0
H43 H 0.03899 0.0928 0.36407 0.0
N44 N 0.05317 0.0354 0.34749 0.0
N45 N 0.0551 0.03467 0.31288 0.0
C46 C 0.9235 0.45848 0.6015 0.0
C47 C 0.93561 0.44401 0.61579 0.0
C48 C 0.94109 0.47795 0.5919 0.0
C49 C 0.97099 0.48311 0.59647 0.0
C50 C 0.96604 0.44806 0.61967 0.0
C51 C 0.98344 0.46763 0.61021 0.0
C52 C 0.98878 0.50654 0.58819 0.0
C53 C 0.99614 0.43049 0.55053 0.0
C54 C 0.97104 0.43159 0.53977 0.0
C55 C 0.00398 0.45507 0.56047 0.0
C56 C 0.98704 0.48122 0.5597 0.0
C57 C 0.95402 0.45786 0.53903 0.0
C58 C 0.96218 0.48269 0.54884 0.0
C59 C 0.99533 0.50649 0.57069 0.0
C60 C 0.09717 0.59336 0.56751 0.0
C61 C 0.08919 0.61093 0.55344 0.0
C62 C 0.07716 0.57254 0.57406 0.0
C63 C 0.04853 0.56937 0.56691 0.0
C64 C 0.06114 0.60636 0.54569 0.0
C65 C 0.04103 0.58572 0.55236 0.0
C66 C 0.02636 0.54911 0.57455 0.0
C67 C 0.04736 0.62089 0.61326 0.0
C68 C 0.05735 0.61005 0.62909 0.0
C69 C 0.03437 0.60163 0.60125 0.0
C70 C 0.03194 0.57102 0.60464 0.0
C71 C 0.05344 0.57965 0.63268 0.0
C72 C 0.04112 0.56044 0.6206 0.0
C73 C 0.01921 0.54957 0.59213 0.0
H74 H 0.90008 0.45604 0.59828 0.0
H75 H 0.93095 0.49006 0.58149 0.0
H76 H 0.9762 0.43679 0.63039 0.0
H77 H 0.00652 0.47123 0.61388 0.0
H78 H 0.0094 0.41039 0.5515 0.0
H79 H 0.02317 0.45362 0.56887 0.0
H80 H 0.93461 0.45922 0.5308 0.0
H81 H 0.94888 0.5028 0.54818 0.0
H82 H 0.11851 0.59631 0.57383 0.0
H83 H 0.08377 0.55946 0.58499 0.0
H84 H 0.05456 0.61898 0.53458 0.0
H85 H 0.01929 0.58314 0.54644 0.0
H86 H 0.04984 0.64415 0.61004 0.0
H87 H 0.0264 0.6107 0.58932 0.0
H88 H 0.05971 0.57054 0.64492 0.0
H89 H 0.03902 0.53708 0.62373 0.0
N90 N 0.00091 0.52804 0.59822 0.0
N91 N 0.01399 0.52765 0.56446 0.0
C92 C 0.56308 0.44041 0.85636 0.0
C93 C 0.57848 0.45473 0.86969 0.0
C94 C 0.5436 0.45637 0.84592 0.0
C95 C 0.5396 0.48711 0.84837 0.0
C96 C 0.57448 0.48548 0.87214 0.0
C97 C 0.55516 0.5015 0.86159 0.0
C98 C 0.51739 0.50381 0.83818 0.0
C99 C 0.58835 0.47384 0.80277 0.0
C100 C 0.57919 0.4495 0.79272 0.0
C101 C 0.56734 0.49124 0.81133 0.0
C102 C 0.5368 0.48465 0.81 0.0
C103 C 0.54852 0.44342 0.79102 0.0
C104 C 0.52743 0.46111 0.79947 0.0
C105 C 0.5149 0.50135 0.82033 0.0
C106 C 0.41052 0.58477 0.80527 0.0
C107 C 0.39595 0.56667 0.79312 0.0
C108 C 0.43615 0.57458 0.81369 0.0
C109 C 0.44688 0.54562 0.8107 0.0
C110 C 0.40884 0.53906 0.78887 0.0
C111 C 0.43374 0.52856 0.79767 0.0
C112 C 0.47151 0.53237 0.82084 0.0
C113 C 0.40381 0.5628 0.86092 0.0
C114 C 0.41602 0.57944 0.87455 0.0
C115 C 0.42242 0.54859 0.84906 0.0
C116 C 0.4536 0.55192 0.85005 0.0
C117 C 0.44734 0.58219 0.87554 0.0
C118 C 0.46574 0.56895 0.86338 0.0
C119 C 0.47436 0.53523 0.8388 0.0
H120 H 0.56517 0.41662 0.85442 0.0
H121 H 0.53097 0.44444 0.83629 0.0
H122 H 0.58612 0.4971 0.88229 0.0
H123 H 0.55217 0.52511 0.86384 0.0
H124 H 0.61184 0.4789 0.80442 0.0
H125 H 0.57498 0.50949 0.81929 0.0
H126 H 0.54091 0.42494 0.78323 0.0
H127 H 0.50391 0.45578 0.79827 0.0
H128 H 0.40156 0.60627 0.80884 0.0
H129 H 0.44683 0.58897 0.82298 0.0
H130 H 0.3992 0.525 0.77906 0.0
H131 H 0.4421 0.50652 0.79465 0.0
H132 H 0.3799 0.56024 0.8595 0.0
H133 H 0.4124 0.53461 0.83934 0.0
H134 H 0.45809 0.59365 0.88604 0.0
H135 H 0.48973 0.57135 0.86471 0.0
N136 N 0.49725 0.52086 0.84663 0.0
N137 N 0.49197 0.51542 0.81236 0.0
C138 C 0.49207 0.89836 0.05342 0.0
C139 C 0.46833 0.90758 0.04292 0.0
C140 C 0.51055 0.91917 0.06132 0.0
C141 C 0.50542 0.9497 0.05918 0.0
C142 C 0.4639 0.9382 0.04026 0.0
C143 C 0.48246 0.95912 0.04826 0.0
C144 C 0.52374 0.97158 0.06863 0.0
C145 C 0.46647 0.92676 0.10791 0.0
C146 C 0.48231 0.91123 0.12053 0.0
C147 C 0.4815 0.94534 0.09658 0.0
C148 C 0.51272 0.94833 0.09748 0.0
C149 C 0.51355 0.91408 0.12133 0.0
C150 C 0.52859 0.93254 0.10994 0.0
C151 C 0.52872 0.96948 0.08636 0.0
C152 C 0.59243 0.0789 0.10732 0.0
C153 C 0.61511 0.06648 0.11752 0.0
C154 C 0.57613 0.06095 0.096 0.0
C155 C 0.58225 0.03038 0.09477 0.0
C156 C 0.62223 0.03619 0.1154 0.0
C157 C 0.60569 0.01827 0.10433 0.0
C158 C 0.56257 0.01023 0.08501 0.0
C159 C 0.6164 0.06253 0.04819 0.0
C160 C 0.59944 0.07959 0.03672 0.0
C161 C 0.60291 0.04031 0.05784 0.0
C162 C 0.57203 0.03523 0.05658 0.0
C163 C 0.56882 0.07329 0.0348 0.0
C164 C 0.55526 0.05133 0.04465 0.0
C165 C 0.55713 0.01282 0.06734 0.0
H166 H 0.49592 0.87501 0.05596 0.0
H167 H 0.52856 0.91139 0.0694 0.0
H168 H 0.44602 0.94597 0.03209 0.0
H169 H 0.47838 0.98261 0.0463 0.0
H170 H 0.44233 0.9255 0.10721 0.0
H171 H 0.4686 0.95802 0.08746 0.0
H172 H 0.52635 0.90226 0.13088 0.0
H173 H 0.55265 0.93466 0.11095 0.0
H174 H 0.5862 0.10206 0.10873 0.0
H175 H 0.55787 0.07062 0.08883 0.0
H176 H 0.64002 0.02603 0.12273 0.0
H177 H 0.61079 0.99474 0.10348 0.0
H178 H 0.63998 0.06679 0.0501 0.0
H179 H 0.61667 0.0273 0.06637 0.0
H180 H 0.55521 0.08549 0.0258 0.0
H181 H 0.53152 0.04735 0.04319 0.0
N182 N 0.53785 0.99337 0.05979 0.0
N183 N 0.54817 0.98869 0.09381 0.0
C184 C 0.06019 0.61648 0.90244 0.0
C185 C 0.06854 0.60895 0.88566 0.0
C186 C 0.04151 0.59784 0.91184 0.0
C187 C 0.03202 0.57038 0.90508 0.0
C188 C 0.05795 0.58193 0.87874 0.0
C189 C 0.04031 0.56282 0.88838 0.0
C190 C 0.01179 0.55018 0.91457 0.0
C191 C 0.09062 0.56632 0.94827 0.0
C192 C 0.08326 0.58536 0.9619 0.0
C193 C 0.06816 0.55215 0.9389 0.0
C194 C 0.03804 0.55685 0.94304 0.0
C195 C 0.05313 0.589 0.96644 0.0
C196 C 0.03069 0.57459 0.95718 0.0
C197 C 0.01407 0.54446 0.93225 0.0
C198 C 0.9354 0.45913 0.96109 0.0
C199 C 0.90481 0.4639 0.95805 0.0
C200 C 0.95687 0.47552 0.95227 0.0
C201 C 0.94809 0.49668 0.94016 0.0
C202 C 0.89618 0.4856 0.94616 0.0
C203 C 0.91758 0.50203 0.93745 0.0
C204 C 0.97079 0.51371 0.93073 0.0
C205 C 0.91447 0.50524 0.87711 0.0
C206 C 0.9106 0.47421 0.87748 0.0
C207 C 0.93293 0.51939 0.88899 0.0
C208 C 0.94766 0.50291 0.9016 0.0
C209 C 0.92466 0.45778 0.89042 0.0
C210 C 0.9432 0.47199 0.90231 0.0
C211 C 0.96948 0.51798 0.91292 0.0
H212 H 0.06783 0.63686 0.9084 0.0
H213 H 0.03423 0.60531 0.92428 0.0
H214 H 0.06262 0.57556 0.8657 0.0
H215 H 0.03282 0.54215 0.88263 0.0
H216 H 0.11368 0.56323 0.94446 0.0
H217 H 0.07424 0.53821 0.92815 0.0
H218 H 0.04693 0.60327 0.97703 0.0
H219 H 0.00754 0.57825 0.96061 0.0
H220 H 0.94273 0.44282 0.97032 0.0
H221 H 0.98034 0.47137 0.95472 0.0
H222 H 0.87282 0.48961 0.94333 0.0
H223 H 0.91024 0.51885 0.92854 0.0
H224 H 0.90368 0.51853 0.8674 0.0
H225 H 0.93607 0.54324 0.88816 0.0
H226 H 0.92249 0.4338 0.89087 0.0
H227 H 0.95488 0.45865 0.91166 0.0
N228 N 0.98977 0.53632 0.90563 0.0
N229 N 0.99324 0.52685 0.93969 0.0
C230 C 0.41662 0.55549 0.15174 0.0
C231 C 0.43201 0.57501 0.14091 0.0
C232 C 0.43235 0.53506 0.16172 0.0
C233 C 0.46366 0.5344 0.16133 0.0
C234 C 0.46339 0.57454 0.14075 0.0
C235 C 0.47906 0.55439 0.15088 0.0
C236 C 0.48053 0.5108 0.17008 0.0
C237 C 0.48419 0.58118 0.21364 0.0
C238 C 0.4535 0.5849 0.21691 0.0
C239 C 0.49449 0.55632 0.20469 0.0
C240 C 0.47436 0.53468 0.1989 0.0
C241 C 0.43356 0.56231 0.21183 0.0
C242 C 0.44398 0.53728 0.20298 0.0
C243 C 0.48532 0.5105 0.18781 0.0
C244 C 0.59114 0.42897 0.19388 0.0
C245 C 0.58246 0.41006 0.20721 0.0
C246 C 0.57082 0.44904 0.18683 0.0
C247 C 0.54122 0.45012 0.19271 0.0
C248 C 0.5532 0.41236 0.21366 0.0
C249 C 0.53281 0.43228 0.20649 0.0
C250 C 0.519 0.46972 0.18451 0.0
C251 C 0.54924 0.40204 0.1453 0.0
C252 C 0.56049 0.41478 0.13026 0.0
C253 C 0.53354 0.41947 0.15715 0.0
C254 C 0.52952 0.45012 0.15438 0.0
C255 C 0.5552 0.44517 0.12728 0.0
C256 C 0.54014 0.46258 0.13921 0.0
C257 C 0.51378 0.46974 0.16671 0.0
H258 H 0.39242 0.55503 0.15186 0.0
H259 H 0.42003 0.51902 0.16918 0.0
H260 H 0.47577 0.5894 0.13254 0.0
H261 H 0.50324 0.55389 0.15024 0.0
H262 H 0.50025 0.59778 0.21773 0.0
H263 H 0.51809 0.55447 0.20181 0.0
H264 H 0.40981 0.56445 0.21412 0.0
H265 H 0.42824 0.52033 0.19899 0.0
H266 H 0.61338 0.42773 0.18851 0.0
H267 H 0.57803 0.46323 0.17652 0.0
H268 H 0.54598 0.39863 0.22417 0.0
H269 H 0.51023 0.43321 0.21142 0.0
H270 H 0.55273 0.3787 0.14801 0.0
H271 H 0.52465 0.40898 0.16844 0.0
H272 H 0.5624 0.45567 0.1156 0.0
H273 H 0.53696 0.48601 0.13657 0.0
N274 N 0.49494 0.49053 0.16025 0.0
N275 N 0.50454 0.49011 0.1944 0.0
C276 C 0.46572 0.96702 0.39483 0.0
C277 C 0.44667 0.98047 0.38289 0.0
C278 C 0.48158 0.98439 0.40655 0.0
C279 C 0.4789 0.0155 0.40639 0.0
C280 C 0.44325 0.01154 0.38311 0.0
C281 C 0.45956 0.02897 0.39465 0.0
C282 C 0.49823 0.03391 0.41747 0.0
C283 C 0.42368 0.00287 0.45014 0.0
C284 C 0.43159 0.97586 0.45798 0.0
C285 C 0.44548 0.02124 0.44317 0.0
C286 C 0.47568 0.01334 0.44417 0.0
C287 C 0.46209 0.96846 0.45938 0.0
C288 C 0.48399 0.98722 0.45264 0.0
C289 C 0.49815 0.03146 0.43534 0.0
C290 C 0.58923 0.12614 0.45462 0.0
C291 C 0.60494 0.11083 0.46738 0.0
C292 C 0.56689 0.11178 0.44524 0.0
C293 C 0.56034 0.08166 0.44818 0.0
C294 C 0.59704 0.08128 0.47103 0.0
C295 C 0.57489 0.06685 0.46153 0.0
C296 C 0.53905 0.06521 0.43716 0.0
C297 C 0.61536 0.08665 0.40141 0.0
C298 C 0.60751 0.10497 0.38764 0.0
C299 C 0.59337 0.07549 0.41224 0.0
C300 C 0.56316 0.08258 0.40954 0.0
C301 C 0.57741 0.11305 0.38541 0.0
C302 C 0.55541 0.10174 0.39619 0.0
C303 C 0.53943 0.06722 0.41916 0.0
H304 H 0.46875 0.9431 0.39486 0.0
H305 H 0.49679 0.97361 0.41533 0.0
H306 H 0.42893 0.02241 0.37389 0.0
H307 H 0.45743 0.05297 0.39426 0.0
H308 H 0.40057 0.00984 0.44927 0.0
H309 H 0.43875 0.04149 0.43677 0.0
H310 H 0.46902 0.94779 0.4652 0.0
H311 H 0.50728 0.98079 0.45342 0.0
H312 H 0.59455 0.14907 0.45173 0.0
H313 H 0.55519 0.12406 0.43544 0.0
H314 H 0.60891 0.06887 0.48072 0.0
H315 H 0.57002 0.04371 0.46416 0.0
H316 H 0.6384 0.08009 0.40341 0.0
H317 H 0.59984 0.06023 0.42224 0.0
H318 H 0.57063 0.12674 0.37476 0.0
H319 H 0.53221 0.1072 0.39378 0.0
N320 N 0.51884 0.05167 0.41002 0.0
N321 N 0.51848 0.04716 0.44461 0.0
C322 C 0.13044 0.00377 0.63936 0.0
C323 C 0.12385 0.97318 0.63845 0.0
C324 C 0.11466 0.02243 0.65039 0.0
C325 C 0.09253 0.01079 0.66103 0.0
C326 C 0.10263 0.96135 0.64976 0.0
C327 C 0.08708 0.98004 0.66096 0.0
C328 C 0.07301 0.03129 0.67064 0.0
C329 C 0.08768 0.96196 0.71428 0.0
C330 C 0.11918 0.96229 0.71399 0.0
C331 C 0.07127 0.98497 0.70687 0.0
C332 C 0.08603 0.00839 0.69877 0.0
C333 C 0.13378 0.98686 0.70673 0.0
C334 C 0.11734 0.00961 0.6991 0.0
C335 C 0.06897 0.02969 0.68839 0.0
C336 C 0.97429 0.10154 0.71608 0.0
C337 C 0.97649 0.13211 0.71251 0.0
C338 C 0.99349 0.08113 0.70816 0.0
C339 C 0.01489 0.09094 0.69641 0.0
C340 C 0.99874 0.14183 0.70119 0.0
C341 C 0.01788 0.12152 0.69336 0.0
C342 C 0.0337 0.06936 0.68704 0.0
C343 C 0.01749 0.11841 0.63144 0.0
C344 C 0.9863 0.12048 0.6328 0.0
C345 C 0.03403 0.10338 0.64378 0.0
C346 C 0.01974 0.08999 0.65769 0.0
C347 C 0.97199 0.10814 0.647 0.0
C348 C 0.98852 0.09264 0.65924 0.0
C349 C 0.03733 0.07047 0.66913 0.0
H350 H 0.14709 0.01351 0.63109 0.0
H351 H 0.11918 0.04611 0.6503 0.0
H352 H 0.09675 0.938 0.64927 0.0
H353 H 0.0697 0.9707 0.66889 0.0
H354 H 0.07559 0.94326 0.7195 0.0
H355 H 0.0471 0.98361 0.70659 0.0
H356 H 0.15793 0.98823 0.70659 0.0
H357 H 0.12907 0.02771 0.69298 0.0
H358 H 0.95766 0.09339 0.72491 0.0
H359 H 0.99105 0.05763 0.71082 0.0
H360 H 0.00089 0.16512 0.69795 0.0
H361 H 0.03468 0.12968 0.68464 0.0
H362 H 0.02899 0.12778 0.62058 0.0
H363 H 0.05801 0.10149 0.6422 0.0
H364 H 0.94788 0.10906 0.64815 0.0
H365 H 0.9767 0.08167 0.66946 0.0
N366 N 0.05707 0.05155 0.6617 0.0
N367 N 0.04944 0.04873 0.69604 0.0
Co368 Co 0.3172 0.67466 0.01555 0.0
O369 O 0.28645 0.6449 0.01431 0.0
O370 O 0.28084 0.69228 0.00715 0.0
C371 C 0.33383 0.66305 0.04179 0.0
O372 O 0.34288 0.71205 0.01569 0.0
Co373 Co 0.38405 0.65739 0.01806 0.0
O374 O 0.39043 0.70038 0.02204 0.0
C375 C 0.353 0.65207 0.98509 0.0
C376 C 0.26925 0.66589 0.00858 0.0
C377 C 0.37 0.71944 0.01914 0.0
O378 O 0.32959 0.66418 0.99156 0.0
O379 O 0.37658 0.64608 0.99366 0.0
O380 O 0.31043 0.67986 0.03989 0.0
O381 O 0.34472 0.65172 0.02794 0.0
Co382 Co 0.36175 0.84324 0.2499 0.0
O383 O 0.33548 0.87666 0.24746 0.0
O384 O 0.32278 0.8333 0.25882 0.0
C385 C 0.3807 0.84591 0.22344 0.0
O386 O 0.38217 0.80311 0.25333 0.0
Co387 Co 0.43031 0.85056 0.2477 0.0
O388 O 0.42875 0.80724 0.24303 0.0
C389 C 0.39905 0.86942 0.27894 0.0
C390 C 0.31513 0.86003 0.25427 0.0
C391 C 0.40671 0.79152 0.24789 0.0
O392 O 0.37461 0.85827 0.27308 0.0
O393 O 0.42344 0.86995 0.27044 0.0
O394 O 0.3553 0.8327 0.22606 0.0
O395 O 0.3925 0.85895 0.23655 0.0
Co396 Co 0.1956 0.83853 0.5016 0.0
O397 O 0.16392 0.81137 0.50688 0.0
O398 O 0.21187 0.80357 0.51245 0.0
C399 C 0.18065 0.84853 0.4748 0.0
O400 O 0.23456 0.86075 0.49743 0.0
Co401 Co 0.18238 0.90475 0.4928 0.0
O402 O 0.22372 0.90332 0.48379 0.0
C403 C 0.17973 0.88459 0.52865 0.0
C404 C 0.18445 0.79401 0.513 0.0
C405 C 0.24237 0.88388 0.48892 0.0
O406 O 0.19018 0.85889 0.52442 0.0
O407 O 0.17329 0.90479 0.51778 0.0
O408 O 0.19606 0.82463 0.47788 0.0
O409 O 0.1727 0.86371 0.48802 0.0
Co410 Co 0.1731 0.71845 0.76307 0.0
O411 O 0.1521 0.75548 0.76149 0.0
O412 O 0.19823 0.74772 0.75218 0.0
C413 C 0.16103 0.70919 0.7903 0.0
O414 O 0.20231 0.68349 0.76336 0.0
Co415 Co 0.13743 0.65998 0.76964 0.0
O416 O 0.17769 0.64228 0.77157 0.0
C417 C 0.13745 0.68621 0.73535 0.0
C418 C 0.1759 0.76595 0.75426 0.0
C419 C 0.20163 0.65575 0.76746 0.0
O420 O 0.15663 0.70588 0.74012 0.0
O421 O 0.12581 0.66708 0.74536 0.0
O422 O 0.18299 0.72708 0.7869 0.0
O423 O 0.14552 0.70007 0.77742 0.0
Co424 Co 0.86642 0.19889 0.49415 0.0
O425 O 0.90398 0.2194 0.49312 0.0
O426 O 0.86123 0.23979 0.50134 0.0
C427 C 0.87021 0.17641 0.46857 0.0
O428 O 0.82321 0.1851 0.49607 0.0
Co429 Co 0.86485 0.1296 0.49428 0.0
O430 O 0.82104 0.13528 0.49253 0.0
C431 C 0.8862 0.16243 0.52444 0.0
C432 C 0.88969 0.24279 0.49845 0.0
C433 C 0.80864 0.16056 0.49452 0.0
O434 O 0.87531 0.18666 0.51836 0.0
O435 O 0.8871 0.13797 0.51601 0.0
O436 O 0.8612 0.20386 0.46955 0.0
O437 O 0.87915 0.16468 0.48266 0.0
Co438 Co 0.81205 0.35624 0.7409 0.0
O439 O 0.78017 0.38463 0.7423 0.0
O440 O 0.77707 0.33772 0.75068 0.0
C441 C 0.82592 0.36727 0.71406 0.0
O442 O 0.8399 0.32037 0.74073 0.0
Co443 Co 0.87754 0.37794 0.73586 0.0
O444 O 0.8861 0.33494 0.73312 0.0
C445 C 0.84752 0.38683 0.76888 0.0
C446 C 0.76425 0.36352 0.74889 0.0
C447 C 0.86726 0.3147 0.7368 0.0
O448 O 0.82643 0.36898 0.7643 0.0
O449 O 0.86812 0.39546 0.75874 0.0
O450 O 0.80357 0.34937 0.71663 0.0
O451 O 0.83694 0.3796 0.72753 0.0
Co452 Co 0.67014 0.32338 0.99157 0.0
O453 O 0.64112 0.2918 0.99183 0.0
O454 O 0.68907 0.28716 0.99869 0.0
C455 C 0.65791 0.34193 0.96591 0.0
O456 O 0.70713 0.34948 0.9922 0.0
Co457 Co 0.65247 0.39004 0.99074 0.0
O458 O 0.69543 0.3969 0.98632 0.0
C459 C 0.64759 0.35662 0.0229 0.0
C460 C 0.66303 0.27485 0.99674 0.0
C461 C 0.71458 0.37647 0.98897 0.0
O462 O 0.6597 0.33367 0.01591 0.0
O463 O 0.64153 0.38058 0.01486 0.0
O464 O 0.67519 0.31878 0.96706 0.0
O465 O 0.64651 0.35142 0.98007 0.0
Co466 Co 0.70498 0.18692 0.25517 0.0
O467 O 0.67029 0.21156 0.25154 0.0
O468 O 0.71692 0.22425 0.24544 0.0
C469 C 0.69364 0.17238 0.28179 0.0
O470 O 0.74652 0.16893 0.25767 0.0
Co471 Co 0.70018 0.11872 0.2612 0.0
O472 O 0.74359 0.1212 0.26584 0.0
C473 C 0.68958 0.14322 0.22687 0.0
C474 C 0.68879 0.23137 0.24576 0.0
C475 C 0.7587 0.14446 0.26254 0.0
O476 O 0.69959 0.16877 0.2317 0.0
O477 O 0.68572 0.12149 0.23712 0.0
O478 O 0.70575 0.19826 0.27931 0.0
O479 O 0.68633 0.15765 0.26826 0.0
H480 H 0.17917 0.92568 0.30683 0.0
H481 H 0.14657 0.9627 0.25935 0.0
H482 H 0.18557 0.93507 0.24357 0.0
H483 H 0.25501 0.93033 0.29773 0.0
H484 H 0.26536 0.89577 0.30769 0.0
H485 H 0.233 0.9158 0.31501 0.0
H486 H 0.20016 0.86913 0.30988 0.0
H487 H 0.23249 0.84887 0.30255 0.0
H488 H 0.19984 0.85162 0.28916 0.0
H489 H 0.23194 0.90986 0.2337 0.0
H490 H 0.28108 0.88548 0.22997 0.0
H491 H 0.28198 0.86172 0.28341 0.0
C492 C 0.18006 0.92759 0.29308 0.0
C493 C 0.15996 0.94624 0.28425 0.0
C494 C 0.16163 0.94826 0.26629 0.0
C495 C 0.18368 0.9327 0.25725 0.0
C496 C 0.20349 0.91487 0.26636 0.0
C497 C 0.20166 0.91189 0.28385 0.0
C498 C 0.22659 0.89243 0.29066 0.0
C499 C 0.24614 0.90962 0.30352 0.0
C500 C 0.21401 0.86381 0.29852 0.0
C501 C 0.2434 0.88587 0.27434 0.0
C502 C 0.22962 0.89901 0.26047 0.0
C503 C 0.24252 0.89878 0.24434 0.0
C504 C 0.27037 0.88502 0.24234 0.0
C505 C 0.28465 0.87132 0.25633 0.0
C506 C 0.27084 0.87127 0.27245 0.0
H507 H 0.07347 0.66661 0.54262 0.0
H508 H 0.1506 0.60973 0.55077 0.0
H509 H 0.18385 0.65076 0.54196 0.0
H510 H 0.10145 0.70229 0.50481 0.0
H511 H 0.08509 0.73775 0.51021 0.0
H512 H 0.06776 0.7039 0.51735 0.0
H513 H 0.07038 0.72298 0.54857 0.0
H514 H 0.08793 0.75679 0.54155 0.0
H515 H 0.1059 0.73406 0.55742 0.0
H516 H 0.20865 0.6988 0.53257 0.0
H517 H 0.22254 0.74885 0.52215 0.0
H518 H 0.12866 0.77262 0.51935 0.0
C519 C 0.09731 0.6625 0.54231 0.0
C520 C 0.10938 0.63488 0.54739 0.0
C521 C 0.14081 0.63081 0.54714 0.0
C522 C 0.15987 0.65393 0.54209 0.0
C523 C 0.14715 0.68092 0.53726 0.0
C524 C 0.11657 0.68518 0.53723 0.0
C525 C 0.10837 0.71612 0.53139 0.0
C526 C 0.08957 0.71493 0.51496 0.0
C527 C 0.0922 0.7335 0.54558 0.0
C528 C 0.13913 0.72867 0.52811 0.0
C529 C 0.16127 0.70816 0.53165 0.0
C530 C 0.19147 0.71499 0.52971 0.0
C531 C 0.19916 0.74346 0.52384 0.0
C532 C 0.17668 0.76454 0.5199 0.0
C533 C 0.14636 0.75695 0.52218 0.0
H534 H 0.37414 0.62315 0.78568 0.0
H535 H 0.34947 0.52953 0.78508 0.0
H536 H 0.29956 0.54269 0.77488 0.0
H537 H 0.30633 0.64781 0.80312 0.0
H538 H 0.30452 0.68196 0.79121 0.0
H539 H 0.3402 0.66541 0.79591 0.0
H540 H 0.35304 0.66462 0.76372 0.0
H541 H 0.31732 0.68119 0.75892 0.0
H542 H 0.32798 0.64658 0.74892 0.0
H543 H 0.25135 0.56498 0.76762 0.0
H544 H 0.20632 0.59573 0.76456 0.0
H545 H 0.2598 0.67567 0.77099 0.0
C546 C 0.3584 0.60535 0.78327 0.0
C547 C 0.3663 0.57516 0.78591 0.0
C548 C 0.3447 0.55272 0.78262 0.0
C549 C 0.31604 0.55996 0.77691 0.0
C550 C 0.30899 0.58978 0.77464 0.0
C551 C 0.32939 0.6122 0.77774 0.0
C552 C 0.31495 0.64258 0.77575 0.0
C553 C 0.31659 0.66048 0.79249 0.0
C554 C 0.32917 0.65975 0.76094 0.0
C555 C 0.28308 0.63357 0.77156 0.0
C556 C 0.28043 0.60297 0.77075 0.0
C557 C 0.25312 0.58898 0.76804 0.0
C558 C 0.22765 0.60669 0.7664 0.0
C559 C 0.22953 0.63812 0.76754 0.0
C560 C 0.25775 0.65174 0.76983 0.0
H561 H 0.48308 0.8535 0.02924 0.0
H562 H 0.40711 0.91028 0.04045 0.0
H563 H 0.37289 0.86959 0.03205 0.0
H564 H 0.44893 0.81053 0.99358 0.0
H565 H 0.46664 0.77659 0.00042 0.0
H566 H 0.48471 0.81186 0.00415 0.0
H567 H 0.48815 0.79992 0.0364 0.0
H568 H 0.46991 0.76483 0.03281 0.0
H569 H 0.45455 0.79098 0.04794 0.0
H570 H 0.34719 0.82045 0.02589 0.0
H571 H 0.33256 0.7676 0.02272 0.0
H572 H 0.42592 0.74324 0.01716 0.0
C573 C 0.45925 0.85759 0.02967 0.0
C574 C 0.44778 0.88507 0.03549 0.0
C575 C 0.41643 0.88956 0.03577 0.0
C576 C 0.39682 0.86653 0.03109 0.0
C577 C 0.40895 0.83928 0.02607 0.0
C578 C 0.43949 0.83486 0.02523 0.0
C579 C 0.44707 0.80285 0.02115 0.0
C580 C 0.46276 0.80032 0.00379 0.0
C581 C 0.46602 0.78884 0.03543 0.0
C582 C 0.41608 0.78962 0.02049 0.0
C583 C 0.39429 0.811 0.023 0.0
C584 C 0.36405 0.8036 0.02369 0.0
C585 C 0.35596 0.77355 0.02191 0.0
C586 C 0.3781 0.7513 0.01977 0.0
C587 C 0.40845 0.75968 0.01883 0.0
H588 H 0.13672 0.56459 0.97393 0.0
H589 H 0.08326 0.64471 0.96948 0.0
H590 H 0.12424 0.67407 0.9824 0.0
H591 H 0.17202 0.58391 0.01463 0.0
H592 H 0.20733 0.56762 0.00867 0.0
H593 H 0.17306 0.55282 3e-05 0.0
H594 H 0.19322 0.56045 0.9694 0.0
H595 H 0.22748 0.57535 0.97793 0.0
H596 H 0.20577 0.59685 0.96304 0.0
H597 H 0.17271 0.69517 0.99342 0.0
H598 H 0.22413 0.70596 0.00334 0.0
H599 H 0.24491 0.61169 0.00144 0.0
C600 C 0.1336 0.58828 0.97581 0.0
C601 C 0.1069 0.60244 0.97077 0.0
C602 C 0.10347 0.63344 0.97347 0.0
C603 C 0.12663 0.65028 0.98072 0.0
C604 C 0.15287 0.63569 0.98535 0.0
C605 C 0.15634 0.60534 0.98317 0.0
C606 C 0.18697 0.59514 0.98883 0.0
C607 C 0.18469 0.5736 0.00394 0.0
C608 C 0.20438 0.58113 0.97391 0.0
C609 C 0.20041 0.62458 0.99424 0.0
C610 C 0.18043 0.64772 0.99212 0.0
C611 C 0.18842 0.67719 0.99537 0.0
C612 C 0.21764 0.68311 0.00094 0.0
C613 C 0.23829 0.65963 0.0033 0.0
C614 C 0.22941 0.63004 1e-05 0.0
H615 H 0.47273 0.64127 0.21018 0.0
H616 H 0.40863 0.59248 0.24065 0.0
H617 H 0.38957 0.64005 0.25243 0.0
H618 H 0.49037 0.69712 0.2417 0.0
H619 H 0.49386 0.72626 0.22613 0.0
H620 H 0.50209 0.68835 0.22028 0.0
H621 H 0.46369 0.69143 0.19554 0.0
H622 H 0.4553 0.72932 0.20134 0.0
H623 H 0.42571 0.70221 0.20008 0.0
H624 H 0.37678 0.69395 0.26017 0.0
H625 H 0.37242 0.74866 0.26357 0.0
H626 H 0.44673 0.76035 0.22877 0.0
C627 C 0.45503 0.64042 0.21956 0.0
C628 C 0.44233 0.61309 0.22458 0.0
C629 C 0.4186 0.61317 0.23652 0.0
C630 C 0.40772 0.64005 0.24334 0.0
C631 C 0.42088 0.66659 0.2381 0.0
C632 C 0.44409 0.66687 0.22651 0.0
C633 C 0.4543 0.69815 0.22272 0.0
C634 C 0.48709 0.70273 0.22803 0.0
C635 C 0.44945 0.70571 0.2038 0.0
C636 C 0.43332 0.71557 0.23405 0.0
C637 C 0.41402 0.69713 0.24276 0.0
C638 C 0.39196 0.70856 0.25351 0.0
C639 C 0.38963 0.73962 0.25535 0.0
C640 C 0.40944 0.75877 0.24659 0.0
C641 C 0.43155 0.74637 0.23589 0.0
H642 H 0.37681 0.96507 0.44356 0.0
H643 H 0.43243 0.94054 0.48668 0.0
H644 H 0.39165 0.9089 0.49758 0.0
H645 H 0.31165 0.97489 0.46715 0.0
H646 H 0.28702 0.96118 0.45069 0.0
H647 H 0.32207 0.97794 0.44504 0.0
H648 H 0.33674 0.93035 0.42819 0.0
H649 H 0.30168 0.91337 0.43385 0.0
H650 H 0.33634 0.89483 0.43876 0.0
H651 H 0.34301 0.88272 0.50479 0.0
H652 H 0.2902 0.86768 0.50871 0.0
H653 H 0.26636 0.91308 0.46198 0.0
C654 C 0.38059 0.95311 0.4553 0.0
C655 C 0.40793 0.95543 0.46425 0.0
C656 C 0.4119 0.93885 0.47943 0.0
C657 C 0.38882 0.92086 0.48574 0.0
C658 C 0.36193 0.91969 0.47676 0.0
C659 C 0.35776 0.93552 0.46189 0.0
C660 C 0.32606 0.93284 0.4554 0.0
C661 C 0.31081 0.96353 0.45453 0.0
C662 C 0.32516 0.91689 0.43802 0.0
C663 C 0.31271 0.91376 0.46921 0.0
C664 C 0.33383 0.90575 0.48122 0.0
C665 C 0.32635 0.88872 0.4954 0.0
C666 C 0.29637 0.88023 0.49751 0.0
C667 C 0.27432 0.88937 0.48568 0.0
C668 C 0.28279 0.90589 0.47125 0.0
H669 H 0.1067 0.92612 0.74125 0.0
H670 H 0.17036 0.93846 0.70017 0.0
H671 H 0.1961 0.89232 0.70851 0.0
H672 H 0.15785 0.88991 0.7719 0.0
H673 H 0.12932 0.86447 0.77888 0.0
H674 H 0.11916 0.9011 0.77162 0.0
H675 H 0.08306 0.87769 0.74941 0.0
H676 H 0.09313 0.8411 0.75656 0.0
H677 H 0.0972 0.85066 0.7344 0.0
H678 H 0.21178 0.84193 0.71941 0.0
H679 H 0.21449 0.791 0.73127 0.0
H680 H 0.13861 0.81074 0.76374 0.0
C681 C 0.12624 0.91938 0.73409 0.0
C682 C 0.13655 0.9362 0.72012 0.0
C683 C 0.16234 0.92647 0.71118 0.0
C684 C 0.17709 0.90015 0.71577 0.0
C685 C 0.1658 0.88374 0.72931 0.0
C686 C 0.14096 0.89303 0.73834 0.0
C687 C 0.1314 0.87002 0.75121 0.0
C688 C 0.13464 0.8821 0.76949 0.0
C689 C 0.09931 0.85923 0.74767 0.0
C690 C 0.15409 0.84589 0.74759 0.0
C691 C 0.17417 0.85439 0.73519 0.0
C692 C 0.19638 0.83515 0.72927 0.0
C693 C 0.19776 0.80631 0.73605 0.0
C694 C 0.17672 0.797 0.74836 0.0
C695 C 0.15499 0.81726 0.75434 0.0
H696 H 0.62798 0.46701 0.77461 0.0
H697 H 0.58195 0.38859 0.79289 0.0
H698 H 0.623 0.35688 0.78192 0.0
H699 H 0.65939 0.43278 0.73588 0.0
H700 H 0.69376 0.45344 0.73779 0.0
H701 H 0.65936 0.4692 0.74562 0.0
H702 H 0.68359 0.47655 0.7754 0.0
H703 H 0.71794 0.46067 0.76771 0.0
H704 H 0.69983 0.44502 0.78611 0.0
H705 H 0.67197 0.33453 0.77146 0.0
H706 H 0.72313 0.32345 0.76113 0.0
H707 H 0.73572 0.41692 0.74959 0.0
C708 C 0.62638 0.44312 0.7761 0.0
C709 C 0.60188 0.43019 0.78456 0.0
C710 C 0.60044 0.39886 0.78626 0.0
C711 C 0.62367 0.38072 0.78014 0.0
C712 C 0.64792 0.39431 0.7722 0.0
C713 C 0.64918 0.42479 0.77001 0.0
C714 C 0.67811 0.43417 0.76174 0.0
C715 C 0.6723 0.44822 0.74422 0.0
C716 C 0.69591 0.45534 0.77344 0.0
C717 C 0.69335 0.40432 0.76002 0.0
C718 C 0.67564 0.38151 0.76603 0.0
C719 C 0.68585 0.35218 0.7665 0.0
C720 C 0.71492 0.3461 0.76067 0.0
C721 C 0.73329 0.36929 0.75448 0.0
C722 C 0.72213 0.39864 0.75408 0.0
H723 H 0.57447 0.1339 0.02968 0.0
H724 H 0.65609 0.08273 0.02319 0.0
H725 H 0.68068 0.12673 0.01086 0.0
H726 H 0.58177 0.17656 0.98969 0.0
H727 H 0.56619 0.20964 -0.00074 0.0
H728 H 0.55458 0.17347 0.00652 0.0
H729 H 0.56941 0.18806 0.0374 0.0
H730 H 0.58136 0.22409 0.03024 0.0
H731 H 0.60695 0.20056 0.04174 0.0
H732 H 0.69781 0.17763 0.00228 0.0
H733 H 0.70502 0.23093 0.99575 0.0
H734 H 0.61116 0.24743 0.00577 0.0
C735 C 0.59724 0.13156 0.02523 0.0
C736 C 0.61335 0.10481 0.02751 0.0
C737 C 0.64339 0.1031 0.02187 0.0
C738 C 0.6575 0.12789 0.01472 0.0
C739 C 0.64111 0.15406 0.01303 0.0
C740 C 0.61151 0.1559 0.01786 0.0
C741 C 0.59915 0.18687 0.01521 0.0
C742 C 0.57393 0.18661 0.00187 0.0
C743 C 0.58861 0.2007 0.03216 0.0
C744 C 0.62667 0.20237 0.00854 0.0
C745 C 0.65067 0.18309 0.0074 0.0
C746 C 0.67907 0.19283 0.00279 0.0
C747 C 0.68298 0.22309 -0.00079 0.0
C748 C 0.65856 0.24304 0.0001 0.0
C749 C 0.63005 0.23247 0.00468 0.0
H750 H 0.91215 0.06804 0.28803 0.0
H751 H 0.95584 0.15323 0.28103 0.0
H752 H 0.90791 0.17483 0.27114 0.0
H753 H 0.86191 0.07254 0.25132 0.0
H754 H 0.83182 0.05464 0.26254 0.0
H755 H 0.87003 0.04583 0.26776 0.0
H756 H 0.85996 0.05965 0.29937 0.0
H757 H 0.82184 0.06869 0.29425 0.0
H758 H 0.84534 0.09597 0.30453 0.0
H759 H 0.85412 0.18736 0.26343 0.0
H760 H 0.7995 0.18986 0.25882 0.0
H761 H 0.7924 0.09599 0.27109 0.0
C762 C 0.91189 0.09105 0.28401 0.0
C763 C 0.93776 0.10889 0.2851 0.0
C764 C 0.93622 0.13919 0.28027 0.0
C765 C 0.90917 0.15158 0.27459 0.0
C766 C 0.88399 0.13335 0.27384 0.0
C767 C 0.88522 0.10371 0.27839 0.0
C768 C 0.85486 0.08913 0.27735 0.0
C769 C 0.85465 0.06406 0.26394 0.0
C770 C 0.84493 0.0777 0.29492 0.0
C771 C 0.83617 0.11527 0.2717 0.0
C772 C 0.85329 0.14056 0.26962 0.0
C773 C 0.84055 0.16762 0.26491 0.0
C774 C 0.8095 0.16882 0.26234 0.0
C775 C 0.79157 0.14312 0.26458 0.0
C776 C 0.80533 0.11606 0.26922 0.0
H777 H 0.91606 0.405 0.53754 0.0
H778 H 0.00749 0.39782 0.51975 0.0
H779 H 0.99523 0.3504 0.50532 0.0
H780 H 0.90693 0.33001 0.54737 0.0
H781 H 0.86853 0.32734 0.54056 0.0
H782 H 0.88326 0.36248 0.54775 0.0
H783 H 0.86754 0.3869 0.51926 0.0
H784 H 0.85252 0.35183 0.51201 0.0
H785 H 0.88007 0.37091 0.4994 0.0
H786 H 0.97471 0.30218 0.49521 0.0
H787 H 0.94694 0.25587 0.48955 0.0
H788 H 0.86843 0.29372 0.51384 0.0
C789 C 0.93322 0.39378 0.53022 0.0
C790 C 0.96267 0.40502 0.52965 0.0
C791 C 0.98482 0.38944 0.52033 0.0
C792 C 0.97804 0.36262 0.51205 0.0
C793 C 0.94899 0.35173 0.51319 0.0
C794 C 0.92685 0.36683 0.52194 0.0
C795 C 0.89802 0.34913 0.52219 0.0
C796 C 0.88865 0.34181 0.54056 0.0
C797 C 0.87306 0.36568 0.51264 0.0
C798 C 0.90767 0.32143 0.51257 0.0
C799 C 0.93708 0.32359 0.50737 0.0
C800 C 0.95156 0.30033 0.49901 0.0
C801 C 0.93561 0.27407 0.49593 0.0
C802 C 0.90551 0.27123 0.50122 0.0
C803 C 0.89132 0.29537 0.5095 0.0
H804 H 0.65053 0.14091 0.45226 0.0
H805 H 0.61909 0.11046 0.50141 0.0
H806 H 0.66622 0.12758 0.51473 0.0
H807 H 0.72191 0.11584 0.45647 0.0
H808 H 0.73985 0.14633 0.44572 0.0
H809 H 0.7018 0.13697 0.44069 0.0
H810 H 0.68526 0.19088 0.44779 0.0
H811 H 0.72341 0.20051 0.45279 0.0
H812 H 0.69438 0.20679 0.46829 0.0
H813 H 0.71904 0.14089 0.52176 0.0
H814 H 0.77383 0.14889 0.52184 0.0
H815 H 0.77079 0.17098 0.46825 0.0
C816 C 0.65312 0.13888 0.46594 0.0
C817 C 0.63111 0.12467 0.47586 0.0
C818 C 0.63572 0.12135 0.49361 0.0
C819 C 0.66229 0.13118 0.50128 0.0
C820 C 0.68392 0.14441 0.49104 0.0
C821 C 0.67954 0.14842 0.47375 0.0
C822 C 0.70749 0.16004 0.46522 0.0
C823 C 0.71839 0.13851 0.45121 0.0
C824 C 0.70232 0.19143 0.45811 0.0
C825 C 0.7287 0.16073 0.48026 0.0
C826 C 0.71453 0.15215 0.49511 0.0
C827 C 0.73019 0.14837 0.51033 0.0
C828 C 0.76119 0.15295 0.51029 0.0
C829 C 0.77598 0.16119 0.49516 0.0
C830 C 0.75957 0.16561 0.48006 0.0
H831 H 0.9886 0.18836 0.72415 0.0
H832 H 0.91591 0.12562 0.71703 0.0
H833 H 0.87981 0.16439 0.72582 0.0
H834 H 0.956 0.23076 0.76016 0.0
H835 H 0.97012 0.26551 0.75214 0.0
H836 H 0.99028 0.23147 0.74815 0.0
H837 H 0.9885 0.24187 0.71568 0.0
H838 H 0.96822 0.27576 0.71954 0.0
H839 H 0.95288 0.24784 0.70547 0.0
H840 H 0.85126 0.21198 0.73224 0.0
H841 H 0.83314 0.26377 0.73541 0.0
H842 H 0.92492 0.29492 0.73685 0.0
C843 C 0.96513 0.18259 0.72464 0.0
C844 C 0.95512 0.15393 0.71991 0.0
C845 C 0.9242 0.14728 0.72086 0.0
C846 C 0.9035 0.16921 0.72577 0.0
C847 C 0.91411 0.19757 0.72976 0.0
C848 C 0.94427 0.20418 0.72934 0.0
C849 C 0.9499 0.23685 0.73265 0.0
C850 C 0.96762 0.2414 0.74927 0.0
C851 C 0.9658 0.25142 0.71743 0.0
C852 C 0.91816 0.24786 0.73442 0.0
C853 C 0.89778 0.22489 0.73304 0.0
C854 C 0.86705 0.23008 0.73354 0.0
C855 C 0.85697 0.25955 0.73533 0.0
C856 C 0.8776 0.28342 0.73633 0.0
C857 C 0.90854 0.27724 0.7361 0.0
H858 H 0.85124 0.48304 0.97072 0.0
H859 H 0.90586 0.40394 0.96449 0.0
H860 H 0.86457 0.37321 0.97557 0.0
H861 H 0.80888 0.45837 0.00894 0.0
H862 H 0.77489 0.4752 0.00126 0.0
H863 H 0.81054 0.49134 0.99599 0.0
H864 H 0.79719 0.48792 0.96386 0.0
H865 H 0.76169 0.47162 0.969 0.0
H866 H 0.78687 0.45243 0.9548 0.0
H867 H 0.81528 0.35062 0.98364 0.0
H868 H 0.76215 0.33796 0.98784 0.0
H869 H 0.73957 0.43195 0.98746 0.0
C870 C 0.85472 0.4593 0.97192 0.0
C871 C 0.88176 0.44588 0.96675 0.0
C872 C 0.88549 0.41477 0.96862 0.0
C873 C 0.86213 0.39712 0.97486 0.0
C874 C 0.83535 0.411 0.97925 0.0
C875 C 0.83164 0.44143 0.97796 0.0
C876 C 0.79985 0.45065 0.98178 0.0
C877 C 0.79847 0.47003 0.99796 0.0
C878 C 0.78557 0.46657 0.96645 0.0
C879 C 0.7859 0.42051 0.98469 0.0
C880 C 0.80681 0.39796 0.98354 0.0
C881 C 0.79879 0.36812 0.98483 0.0
C882 C 0.76853 0.36116 0.98717 0.0
C883 C 0.74667 0.38397 0.98795 0.0
C884 C 0.7557 0.41399 0.98695 0.0
H885 H 0.56964 0.35276 0.21673 0.0
H886 H 0.64296 0.4156 0.21266 0.0
H887 H 0.67817 0.37664 0.22198 0.0
H888 H 0.59691 0.31619 0.25499 0.0
H889 H 0.58393 0.28005 0.2482 0.0
H890 H 0.56458 0.31306 0.24135 0.0
H891 H 0.57137 0.29679 0.20984 0.0
H892 H 0.59094 0.26386 0.21659 0.0
H893 H 0.60838 0.28916 0.2019 0.0
H894 H 0.70562 0.33022 0.23059 0.0
H895 H 0.72296 0.28045 0.23948 0.0
H896 H 0.6313 0.2489 0.23927 0.0
C897 C 0.593 0.35858 0.21809 0.0
C898 C 0.60349 0.38729 0.21389 0.0
C899 C 0.6344 0.39367 0.21553 0.0
C900 C 0.65457 0.37174 0.22091 0.0
C901 C 0.64346 0.34362 0.22474 0.0
C902 C 0.61337 0.33708 0.22356 0.0
C903 C 0.60718 0.3051 0.22837 0.0
C904 C 0.58696 0.30352 0.24417 0.0
C905 C 0.59368 0.28771 0.21327 0.0
C906 C 0.63854 0.29461 0.23235 0.0
C907 C 0.65917 0.31711 0.2301 0.0
C908 C 0.68966 0.31249 0.23253 0.0
C909 C 0.69928 0.28414 0.23751 0.0
C910 C 0.67845 0.2609 0.24013 0.0
C911 C 0.64771 0.2663 0.2375 0.0
H912 H 0.11927 0.9646 0.40754 0.0
H913 H 0.15561 0.9091 0.36717 0.0
H914 H 0.17517 0.8741 0.38879 0.0
H915 H 0.18038 0.95445 0.43751 0.0
H916 H 0.15579 0.95438 0.45567 0.0
H917 H 0.1459 0.97518 0.43693 0.0
H918 H 0.0955 0.94682 0.43517 0.0
H919 H 0.10535 0.92578 0.45381 0.0
H920 H 0.09561 0.90673 0.4343 0.0
H921 H 0.1897 0.84456 0.41533 0.0
H922 H 0.19804 0.82376 0.44418 0.0
H923 H 0.15175 0.89948 0.4663 0.0
C924 C 0.13185 0.94542 0.4032 0.0
C925 C 0.13608 0.93968 0.38567 0.0
C926 C 0.15197 0.91384 0.38056 0.0
C927 C 0.16326 0.89393 0.39273 0.0
C928 C 0.15844 0.90022 0.40993 0.0
C929 C 0.14319 0.92544 0.41511 0.0
C930 C 0.14024 0.92695 0.43426 0.0
C931 C 0.15656 0.95436 0.44151 0.0
C932 C 0.10722 0.92653 0.43969 0.0
C933 C 0.15596 0.89849 0.43911 0.0
C934 C 0.16647 0.88334 0.42497 0.0
C935 C 0.18161 0.85631 0.42647 0.0
C936 C 0.18618 0.84463 0.44287 0.0
C937 C 0.17552 0.85999 0.45745 0.0
C938 C 0.16021 0.88718 0.45542 0.0
H939 H 0.10255 0.5964 0.65136 0.0
H940 H 0.04378 0.66874 0.63654 0.0
H941 H 0.06411 0.6995 0.66002 0.0
H942 H 0.08907 0.6035 0.69441 0.0
H943 H 0.12631 0.59346 0.70103 0.0
H944 H 0.11177 0.57972 0.68113 0.0
H945 H 0.15716 0.60218 0.66523 0.0
H946 H 0.17185 0.61607 0.68514 0.0
H947 H 0.16555 0.6412 0.66767 0.0
H948 H 0.08744 0.72053 0.68716 0.0
H949 H 0.10828 0.72785 0.71628 0.0
H950 H 0.14696 0.63962 0.71431 0.0
C951 C 0.09395 0.61876 0.6529 0.0
C952 C 0.07145 0.63 0.64203 0.0
C953 C 0.06134 0.65965 0.64446 0.0
C954 C 0.07271 0.67731 0.65782 0.0
C955 C 0.09414 0.66502 0.66864 0.0
C956 C 0.10453 0.63633 0.66631 0.0
C957 C 0.12477 0.62681 0.68073 0.0
C958 C 0.11221 0.59926 0.68986 0.0
C959 C 0.15673 0.62125 0.6743 0.0
C960 C 0.12333 0.6542 0.69192 0.0
C961 C 0.1063 0.67641 0.68456 0.0
C962 C 0.10103 0.70339 0.69294 0.0
C963 C 0.11293 0.70741 0.7094 0.0
C964 C 0.12916 0.68428 0.71729 0.0
C965 C 0.13476 0.65764 0.70837 0.0
H966 H 0.42694 0.62882 0.89482 0.0
H967 H 0.36158 0.55865 0.88637 0.0
H968 H 0.33357 0.57607 0.91138 0.0
H969 H 0.4326 0.61548 0.93779 0.0
H970 H 0.43872 0.6537 0.94393 0.0
H971 H 0.44941 0.64112 0.92304 0.0
H972 H 0.41675 0.68232 0.90939 0.0
H973 H 0.40596 0.69509 0.93031 0.0
H974 H 0.37775 0.68503 0.9149 0.0
H975 H 0.31536 0.5976 0.93928 0.0
H976 H 0.31197 0.61753 0.96876 0.0
H977 H 0.3936 0.66733 0.961 0.0
C978 C 0.40671 0.61699 0.89803 0.0
C979 C 0.39674 0.59221 0.88835 0.0
C980 C 0.36963 0.57811 0.89311 0.0
C981 C 0.35351 0.58776 0.90745 0.0
C982 C 0.36485 0.61133 0.91707 0.0
C983 C 0.39101 0.62557 0.91261 0.0
C984 C 0.40107 0.64711 0.92636 0.0
C985 C 0.43228 0.63884 0.93318 0.0
C986 C 0.40033 0.6793 0.91985 0.0
C987 C 0.37711 0.64193 0.93956 0.0
C988 C 0.35578 0.62205 0.93374 0.0
C989 C 0.33182 0.61332 0.94391 0.0
C990 C 0.33004 0.62471 0.96058 0.0
C991 C 0.35259 0.64377 0.96697 0.0
C992 C 0.37612 0.65277 0.95628 0.0
H993 H 0.49181 0.91168 0.15488 0.0
H994 H 0.43546 0.87263 0.11568 0.0
H995 H 0.40575 0.84742 0.13792 0.0
H996 H 0.49049 0.84785 0.1845 0.0
H997 H 0.48944 0.87185 0.20296 0.0
H998 H 0.50813 0.88388 0.18387 0.0
H999 H 0.4753 0.93142 0.18336 0.0
H1000 H 0.45647 0.91951 0.20237 0.0
H1001 H 0.43518 0.92783 0.18345 0.0
H1002 H 0.37982 0.83002 0.16459 0.0
H1003 H 0.35911 0.82282 0.19348 0.0
H1004 H 0.43283 0.87341 0.21491 0.0
C1005 C 0.47376 0.89715 0.15094 0.0
C1006 C 0.46607 0.89387 0.13357 0.0
C1007 C 0.44166 0.87545 0.12895 0.0
C1008 C 0.42481 0.86091 0.14146 0.0
C1009 C 0.43275 0.865 0.1585 0.0
C1010 C 0.45672 0.88261 0.16323 0.0
C1011 C 0.45927 0.88531 0.1824 0.0
C1012 C 0.48857 0.87138 0.18881 0.0
C1013 C 0.45637 0.91795 0.18823 0.0
C1014 C 0.43253 0.86711 0.18774 0.0
C1015 C 0.41771 0.85524 0.17381 0.0
C1016 C 0.39144 0.8389 0.1756 0.0
C1017 C 0.37984 0.83496 0.19204 0.0
C1018 C 0.39441 0.84753 0.2064 0.0
C1019 C 0.42132 0.86336 0.20418 0.0
H1020 H 0.10709 0.59458 0.85937 0.0
H1021 H 0.0715 0.6705 0.88736 0.0
H1022 H 0.09896 0.70413 0.86849 0.0
H1023 H 0.17897 0.62664 0.84613 0.0
H1024 H 0.17637 0.61028 0.82515 0.0
H1025 H 0.1597 0.59179 0.84312 0.0
H1026 H 0.10855 0.59102 0.82751 0.0
H1027 H 0.12508 0.60934 0.80954 0.0
H1028 H 0.0929 0.62544 0.81986 0.0
H1029 H 0.12683 0.73003 0.84493 0.0
H1030 H 0.14715 0.74545 0.81692 0.0
H1031 H 0.15715 0.65294 0.80237 0.0
C1032 C 0.10491 0.61822 0.8617 0.0
C1033 C 0.08703 0.62953 0.87512 0.0
C1034 C 0.08557 0.66084 0.87761 0.0
C1035 C 0.10104 0.6803 0.86684 0.0
C1036 C 0.1176 0.66828 0.85348 0.0
C1037 C 0.1193 0.63794 0.85077 0.0
C1038 C 0.13482 0.63067 0.83415 0.0
C1039 C 0.16421 0.61385 0.83734 0.0
C1040 C 0.11409 0.6131 0.82206 0.0
C1041 C 0.14067 0.6617 0.82764 0.0
C1042 C 0.13158 0.68312 0.83923 0.0
C1043 C 0.13419 0.71345 0.83581 0.0
C1044 C 0.14575 0.72201 0.81996 0.0
C1045 C 0.15358 0.70027 0.80769 0.0
C1046 C 0.15138 0.66987 0.81164 0.0
H1047 H 0.44183 0.58063 0.10682 0.0
H1048 H 0.38415 0.61135 0.14762 0.0
H1049 H 0.3547 0.64061 0.12682 0.0
H1050 H 0.44103 0.64912 0.08149 0.0
H1051 H 0.44032 0.62901 0.06155 0.0
H1052 H 0.45837 0.613 0.0799 0.0
H1053 H 0.42516 0.56601 0.07693 0.0
H1054 H 0.40698 0.58188 0.05863 0.0
H1055 H 0.38508 0.57002 0.07661 0.0
H1056 H 0.33024 0.66438 0.10126 0.0
H1057 H 0.31124 0.67897 0.0729 0.0
H1058 H 0.38449 0.63137 0.04893 0.0
C1059 C 0.42341 0.59406 0.11143 0.0
C1060 C 0.4154 0.59408 0.12882 0.0
C1061 C 0.39061 0.61116 0.13433 0.0
C1062 C 0.3739 0.62791 0.12263 0.0
C1063 C 0.38225 0.62717 0.10552 0.0
C1064 C 0.40639 0.61061 0.09993 0.0
C1065 C 0.40947 0.6118 0.08074 0.0
C1066 C 0.43906 0.62662 0.07562 0.0
C1067 C 0.40648 0.58058 0.07277 0.0
C1068 C 0.38299 0.63123 0.07634 0.0
C1069 C 0.36778 0.6402 0.0908 0.0
C1070 C 0.34208 0.65763 0.08986 0.0
C1071 C 0.33146 0.6658 0.07371 0.0
C1072 C 0.34639 0.65626 0.05874 0.0
C1073 C 0.37265 0.63905 0.06015 0.0
H1074 H 0.47417 0.94236 0.36099 0.0
H1075 H 0.38746 0.97892 0.3739 0.0
H1076 H 0.36459 0.9506 0.34998 0.0
H1077 H 0.46553 0.94849 0.31679 0.0
H1078 H 0.48559 0.91481 0.31173 0.0
H1079 H 0.49415 0.93497 0.33099 0.0
H1080 H 0.48421 0.88756 0.34878 0.0
H1081 H 0.47565 0.86719 0.32953 0.0
H1082 H 0.44891 0.86857 0.34667 0.0
H1083 H 0.35191 0.91957 0.32382 0.0
H1084 H 0.35103 0.8921 0.29641 0.0
H1085 H 0.44686 0.87852 0.30009 0.0
C1086 C 0.45026 0.94385 0.35898 0.0
C1087 C 0.4324 0.96237 0.36935 0.0
C1088 C 0.40138 0.96462 0.36609 0.0
C1089 C 0.38825 0.94854 0.35262 0.0
C1090 C 0.40657 0.93062 0.34249 0.0
C1091 C 0.43696 0.92839 0.34547 0.0
C1092 C 0.45222 0.90978 0.33193 0.0
C1093 C 0.47575 0.92812 0.32229 0.0
C1094 C 0.46605 0.8816 0.3397 0.0
C1095 C 0.4258 0.90227 0.32067 0.0
C1096 C 0.39955 0.91397 0.32711 0.0
C1097 C 0.37232 0.91023 0.3187 0.0
C1098 C 0.37203 0.89454 0.30317 0.0
C1099 C 0.3989 0.88329 0.29609 0.0
C1100 C 0.42598 0.88696 0.30513 0.0
H1101 H 0.1324 0.98937 0.60542 0.0
H1102 H 0.14288 0.91464 0.63972 0.0
H1103 H 0.16019 0.88343 0.61554 0.0
H1104 H 0.10431 0.94965 0.5707 0.0
H1105 H 0.12351 0.97142 0.5549 0.0
H1106 H 0.11386 0.9879 0.57509 0.0
H1107 H 0.16932 0.00214 0.58025 0.0
H1108 H 0.17914 0.98591 0.55998 0.0
H1109 H 0.1977 0.97372 0.57913 0.0
H1110 H 0.17441 0.86006 0.5867 0.0
H1111 H 0.18402 0.84718 0.55644 0.0
H1112 H 0.16439 0.93841 0.54225 0.0
C1113 C 0.13906 0.96668 0.60803 0.0
C1114 C 0.13658 0.95458 0.62453 0.0
C1115 C 0.14454 0.9244 0.62717 0.0
C1116 C 0.15452 0.90656 0.61354 0.0
C1117 C 0.15645 0.91929 0.59739 0.0
C1118 C 0.14905 0.94875 0.59468 0.0
C1119 C 0.15187 0.95711 0.57616 0.0
C1120 C 0.12158 0.9671 0.56879 0.0
C1121 C 0.17594 0.98113 0.57374 0.0
C1122 C 0.16161 0.92766 0.56872 0.0
C1123 C 0.16435 0.90605 0.58108 0.0
C1124 C 0.1725 0.87691 0.57695 0.0
C1125 C 0.17791 0.8698 0.55973 0.0
C1126 C 0.17494 0.89174 0.54691 0.0
C1127 C 0.16684 0.921 0.55164 0.0
H1128 H 0.57896 0.45817 0.90447 0.0
H1129 H 0.61911 0.41108 0.86188 0.0
H1130 H 0.64662 0.37889 0.88203 0.0
H1131 H 0.64432 0.45483 0.93318 0.0
H1132 H 0.62136 0.44947 0.95176 0.0
H1133 H 0.60725 0.47051 0.93398 0.0
H1134 H 0.56125 0.4356 0.93219 0.0
H1135 H 0.57528 0.41436 0.94985 0.0
H1136 H 0.56689 0.39606 0.92991 0.0
H1137 H 0.66697 0.34978 0.90682 0.0
H1138 H 0.67834 0.32573 0.93435 0.0
H1139 H 0.62449 0.39194 0.96055 0.0
C1140 C 0.59413 0.44159 0.89939 0.0
C1141 C 0.59709 0.4372 0.88163 0.0
C1142 C 0.61649 0.41471 0.87546 0.0
C1143 C 0.63229 0.39645 0.88679 0.0
C1144 C 0.62846 0.40105 0.90423 0.0
C1145 C 0.60994 0.42314 0.91049 0.0
C1146 C 0.60822 0.42231 0.92975 0.0
C1147 C 0.62106 0.45098 0.93763 0.0
C1148 C 0.576 0.41674 0.93577 0.0
C1149 C 0.62815 0.39588 0.93333 0.0
C1150 C 0.63988 0.3841 0.91847 0.0
C1151 C 0.65812 0.35896 0.91855 0.0
C1152 C 0.66441 0.34544 0.93423 0.0
C1153 C 0.65229 0.35699 0.94955 0.0
C1154 C 0.63415 0.38267 0.94904 0.0
H1155 H 0.62837 0.04723 0.14951 0.0
H1156 H 0.63296 0.12549 0.11747 0.0
H1157 H 0.65422 0.1542 0.1417 0.0
H1158 H 0.60677 0.08322 0.18714 0.0
H1159 H 0.62869 0.05963 0.20085 0.0
H1160 H 0.61512 0.04553 0.18078 0.0
H1161 H 0.66921 0.03176 0.17186 0.0
H1162 H 0.68295 0.04569 0.19196 0.0
H1163 H 0.69784 0.05996 0.17231 0.0
H1164 H 0.67378 0.17442 0.17047 0.0
H1165 H 0.68908 0.1838 0.20042 0.0
H1166 H 0.67202 0.09102 0.21214 0.0
C1167 C 0.63445 0.07021 0.14736 0.0
C1168 C 0.6293 0.08397 0.1315 0.0
C1169 C 0.63664 0.11446 0.12953 0.0
C1170 C 0.64886 0.13089 0.14318 0.0
C1171 C 0.65361 0.11646 0.15867 0.0
C1172 C 0.64667 0.08674 0.16072 0.0
C1173 C 0.65295 0.07629 0.17861 0.0
C1174 C 0.62417 0.06555 0.18735 0.0
C1175 C 0.67718 0.052 0.17868 0.0
C1176 C 0.66425 0.10484 0.18648 0.0
C1177 C 0.66466 0.12785 0.17487 0.0
C1178 C 0.67369 0.15646 0.1796 0.0
C1179 C 0.68236 0.16158 0.19663 0.0
C1180 C 0.6818 0.13818 0.20869 0.0
C1181 C 0.67279 0.1095 0.20335 0.0
H1182 H 0.95256 0.14589 0.38171 0.0
H1183 H 0.92342 0.05424 0.38589 0.0
H1184 H 0.88984 0.06832 0.40952 0.0
H1185 H 0.95714 0.16108 0.42431 0.0
H1186 H 0.94332 0.19871 0.4234 0.0
H1187 H 0.96122 0.18251 0.40509 0.0
H1188 H 0.91446 0.1938 0.38669 0.0
H1189 H 0.89637 0.21019 0.40499 0.0
H1190 H 0.87839 0.18044 0.39339 0.0
H1191 H 0.86771 0.09004 0.43587 0.0
H1192 H 0.85513 0.11909 0.46176 0.0
H1193 H 0.89502 0.19754 0.43951 0.0
C1194 C 0.9385 0.129 0.38735 0.0
C1195 C 0.94041 0.09903 0.38197 0.0
C1196 C 0.92193 0.0774 0.38968 0.0
C1197 C 0.90284 0.08518 0.40312 0.0
C1198 C 0.90206 0.11479 0.40845 0.0
C1199 C 0.91897 0.1365 0.40061 0.0
C1200 C 0.9157 0.16623 0.4096 0.0
C1201 C 0.94615 0.17779 0.41598 0.0
C1202 C 0.90031 0.18901 0.39797 0.0
C1203 C 0.89562 0.15748 0.42426 0.0
C1204 C 0.88785 0.12772 0.42329 0.0
C1205 C 0.87275 0.11356 0.4365 0.0
C1206 C 0.86578 0.13013 0.45114 0.0
C1207 C 0.87349 0.16055 0.4523 0.0
C1208 C 0.88794 0.17454 0.43856 0.0
H1209 H 0.93669 0.44652 0.65041 0.0
H1210 H 0.89009 0.40451 0.60815 0.0
H1211 H 0.85707 0.37853 0.62864 0.0
H1212 H 0.9349 0.38363 0.67895 0.0
H1213 H 0.92963 0.40682 0.69751 0.0
H1214 H 0.94972 0.42091 0.6794 0.0
H1215 H 0.91339 0.46582 0.67783 0.0
H1216 H 0.89316 0.45184 0.69589 0.0
H1217 H 0.87376 0.45918 0.6762 0.0
H1218 H 0.82845 0.35801 0.6545 0.0
H1219 H 0.80695 0.34599 0.68281 0.0
H1220 H 0.87378 0.40197 0.70703 0.0
C1221 C 0.91997 0.4314 0.6454 0.0
C1222 C 0.91622 0.42723 0.62769 0.0
C1223 C 0.89335 0.40801 0.62169 0.0
C1224 C 0.87461 0.39309 0.63323 0.0
C1225 C 0.87907 0.39774 0.65065 0.0
C1226 C 0.90127 0.41647 0.65664 0.0
C1227 C 0.90119 0.41867 0.67583 0.0
C1228 C 0.9306 0.40679 0.68336 0.0
C1229 C 0.895 0.45078 0.68178 0.0
C1230 C 0.87534 0.39838 0.67982 0.0
C1231 C 0.86281 0.38633 0.66523 0.0
C1232 C 0.83821 0.36727 0.66599 0.0
C1233 C 0.82616 0.36057 0.68208 0.0
C1234 C 0.83872 0.37303 0.69708 0.0
C1235 C 0.86368 0.39199 0.69582 0.0
H1236 H 0.61654 0.15893 0.37207 0.0
H1237 H 0.64745 0.06744 0.37271 0.0
H1238 H 0.67861 0.07708 0.34749 0.0
H1239 H 0.60791 0.16493 0.329 0.0
H1240 H 0.62102 0.20266 0.32698 0.0
H1241 H 0.60513 0.19041 0.34676 0.0
H1242 H 0.65321 0.20616 0.36288 0.0
H1243 H 0.66922 0.21877 0.34312 0.0
H1244 H 0.6889 0.19199 0.35597 0.0
H1245 H 0.69751 0.0931 0.31946 0.0
H1246 H 0.70793 0.11647 0.29177 0.0
H1247 H 0.66874 0.19901 0.30971 0.0
C1248 C 0.63054 0.14122 0.36715 0.0
C1249 C 0.62977 0.1125 0.3744 0.0
C1250 C 0.64812 0.08974 0.36755 0.0
C1251 C 0.66581 0.09497 0.35319 0.0
C1252 C 0.66533 0.12323 0.34601 0.0
C1253 C 0.64869 0.1462 0.35292 0.0
C1254 C 0.6505 0.17384 0.34197 0.0
C1255 C 0.61929 0.1835 0.33581 0.0
C1256 C 0.66641 0.19919 0.35156 0.0
C1257 C 0.66942 0.16228 0.32736 0.0
C1258 C 0.6778 0.13304 0.33002 0.0
C1259 C 0.69204 0.11628 0.31746 0.0
C1260 C 0.69776 0.12968 0.30175 0.0
C1261 C 0.6898 0.15966 0.29885 0.0
C1262 C 0.67593 0.17633 0.3119 0.0
H1263 H 0.98916 0.10362 0.59965 0.0
H1264 H 0.94322 0.16403 0.63393 0.0
H1265 H 0.91343 0.18336 0.60962 0.0
H1266 H 0.99241 0.15181 0.56299 0.0
H1267 H 0.98567 0.12191 0.54807 0.0
H1268 H 0.00421 0.11451 0.568 0.0
H1269 H 0.96439 0.07455 0.57508 0.0
H1270 H 0.94574 0.08184 0.5552 0.0
H1271 H 0.92538 0.0846 0.57494 0.0
H1272 H 0.88928 0.19617 0.581 0.0
H1273 H 0.86988 0.1982 0.55139 0.0
H1274 H 0.93016 0.12683 0.53694 0.0
C1275 C 0.97309 0.12121 0.60198 0.0
C1276 C 0.96867 0.13274 0.61852 0.0
C1277 C 0.94694 0.15513 0.62126 0.0
C1278 C 0.93006 0.16624 0.60755 0.0
C1279 C 0.93503 0.15436 0.59133 0.0
C1280 C 0.95585 0.13211 0.58857 0.0
C1281 C 0.95594 0.12182 0.57022 0.0
C1282 C 0.98636 0.12789 0.56183 0.0
C1283 C 0.94734 0.08875 0.56879 0.0
C1284 C 0.93186 0.14166 0.563 0.0
C1285 C 0.92029 0.16061 0.57525 0.0
C1286 C 0.89809 0.18131 0.57134 0.0
C1287 C 0.88727 0.18237 0.55451 0.0
C1288 C 0.89833 0.16248 0.54196 0.0
C1289 C 0.921 0.14205 0.54632 0.0
H1290 H 0.91502 0.48513 0.84351 0.0
H1291 H 0.87021 0.42806 0.87978 0.0
H1292 H 0.84566 0.40114 0.85589 0.0
H1293 H 0.85407 0.48968 0.81246 0.0
H1294 H 0.87943 0.48905 0.79465 0.0
H1295 H 0.8911 0.505 0.8147 0.0
H1296 H 0.93684 0.46954 0.81526 0.0
H1297 H 0.92529 0.45345 0.79528 0.0
H1298 H 0.93099 0.42995 0.81354 0.0
H1299 H 0.82783 0.3792 0.82739 0.0
H1300 H 0.82074 0.36298 0.79738 0.0
H1301 H 0.87824 0.43489 0.78074 0.0
C1302 C 0.89948 0.46745 0.84649 0.0
C1303 C 0.89422 0.45892 0.8635 0.0
C1304 C 0.87451 0.43496 0.86682 0.0
C1305 C 0.86037 0.41969 0.85335 0.0
C1306 C 0.86624 0.42866 0.83668 0.0
C1307 C 0.88539 0.45201 0.83328 0.0
C1308 C 0.88968 0.45628 0.81437 0.0
C1309 C 0.87785 0.48681 0.80872 0.0
C1310 C 0.92265 0.45203 0.80933 0.0
C1311 C 0.87038 0.43135 0.80758 0.0
C1312 C 0.85666 0.41582 0.82055 0.0
C1313 C 0.83836 0.39134 0.81715 0.0
C1314 C 0.83441 0.38232 0.80009 0.0
C1315 C 0.84906 0.39755 0.78673 0.0
C1316 C 0.86684 0.42262 0.79064 0.0
H1317 H 0.60731 0.43264 0.11031 0.0
H1318 H 0.55074 0.35637 0.12056 0.0
H1319 H 0.57416 0.32937 0.09657 0.0
H1320 H 0.59647 0.43095 0.06727 0.0
H1321 H 0.63351 0.44322 0.06167 0.0
H1322 H 0.61785 0.45355 0.08191 0.0
H1323 H 0.66348 0.43043 0.09739 0.0
H1324 H 0.67935 0.42002 0.07711 0.0
H1325 H 0.67347 0.39222 0.09324 0.0
H1326 H 0.59938 0.31311 0.0691 0.0
H1327 H 0.62047 0.31105 0.03988 0.0
H1328 H 0.65559 0.40018 0.04644 0.0
C1329 C 0.59995 0.41013 0.1077 0.0
C1330 C 0.57705 0.39675 0.11737 0.0
C1331 C 0.56856 0.36705 0.11357 0.0
C1332 C 0.58171 0.35152 0.09991 0.0
C1333 C 0.60331 0.36598 0.09019 0.0
C1334 C 0.61229 0.39469 0.09394 0.0
C1335 C 0.63259 0.407 0.08032 0.0
C1336 C 0.61929 0.43533 0.07232 0.0
C1337 C 0.66409 0.41274 0.08745 0.0
C1338 C 0.63258 0.38126 0.06787 0.0
C1339 C 0.61645 0.35737 0.07399 0.0
C1340 C 0.61233 0.33157 0.06428 0.0
C1341 C 0.62438 0.33054 0.04775 0.0
C1342 C 0.6395 0.3555 0.04105 0.0
C1343 C 0.64413 0.38082 0.05137 0.0
loop_
_geom_bond_atom_site_label_1
_geom_bond_atom_site_label_2
_geom_bond_distance
_geom_bond_site_symmetry_2
_ccdc_geom_bond_type
C0 C1 1.384 . S
C0 C2 1.384 . S
C0 H28 0.931 . S
C1 C0 1.384 . S
C1 C4 1.366 1_565 S
C2 C0 1.384 . S
C2 C3 1.396 . S
C2 H29 0.930 . S
C3 C2 1.396 . S
C3 C5 1.374 1_565 S
C3 C6 1.480 1_565 S
C4 C1 1.366 1_545 S
C4 C5 1.395 . S
C4 H30 0.939 . S
C5 C3 1.374 1_545 S
C5 C4 1.395 . S
C5 H31 0.931 . S
C6 C3 1.480 1_545 S
C6 C13 1.399 . S
C6 N44 1.343 . S
C7 C8 1.384 . S
C7 C9 1.384 . S
C7 H32 0.931 . S
C8 C7 1.384 . S
C8 C11 1.382 . S
C9 C7 1.384 . S
C9 C10 1.381 . S
C9 H33 0.930 1_565 S
C10 C9 1.381 . S
C10 C12 1.381 . S
C10 C13 1.487 1_565 S
C11 C8 1.382 . S
C11 C12 1.387 . S
C11 H34 0.930 . S
C12 C10 1.381 . S
C12 C11 1.387 . S
C12 H35 0.931 . S
C13 C6 1.399 . S
C13 C10 1.487 1_545 S
C13 N45 1.343 . S
C14 C15 1.384 . S
C14 C16 1.384 . S
C14 H36 0.931 . S
C15 C14 1.384 . S
C15 C18 1.382 . S
C16 C14 1.384 . S
C16 C17 1.381 . S
C16 H37 0.930 . S
C17 C16 1.381 . S
C17 C19 1.381 . S
C17 C20 1.487 1_655 S
C18 C15 1.382 . S
C18 C19 1.387 . S
C18 H38 0.930 . S
C19 C17 1.381 . S
C19 C18 1.387 . S
C19 H39 0.931 . S
C20 C17 1.487 1_455 S
C20 C27 1.399 . S
C20 N45 1.343 . S
C21 C22 1.384 . S
C21 C23 1.384 . S
C21 H40 0.931 . S
C22 C21 1.384 . S
C22 C25 1.382 . S
C23 C21 1.384 . S
C23 C24 1.381 . S
C23 H41 0.930 . S
C24 C23 1.381 . S
C24 C26 1.381 1_655 S
C24 C27 1.487 1_655 S
C25 C22 1.382 . S
C25 C26 1.387 1_655 S
C25 H42 0.930 . S
C26 C24 1.381 1_455 S
C26 C25 1.387 1_455 S
C26 H43 0.931 . S
C27 C20 1.399 . S
C27 C24 1.487 1_455 S
C27 N44 1.343 . S
H28 C0 0.931 . S
H29 C2 0.930 . S
H30 C4 0.939 . S
H31 C5 0.931 . S
H32 C7 0.931 . S
H33 C9 0.930 1_545 S
H34 C11 0.930 . S
H35 C12 0.931 . S
H36 C14 0.931 . S
H37 C16 0.930 . S
H38 C18 0.930 . S
H39 C19 0.931 . S
H40 C21 0.931 . S
H41 C23 0.930 . S
H42 C25 0.930 . S
H43 C26 0.931 . S
N44 C6 1.343 . S
N44 C27 1.343 . S
N45 C13 1.343 . S
N45 C20 1.343 . S
C46 C47 1.384 . S
C46 C48 1.384 . S
C46 H74 0.931 . S
C47 C46 1.384 . S
C47 C50 1.382 . S
C48 C46 1.384 . S
C48 C49 1.381 . S
C48 H75 0.930 . S
C49 C48 1.381 . S
C49 C51 1.381 . S
C49 C52 1.487 . S
C50 C47 1.382 . S
C50 C51 1.387 . S
C50 H76 0.930 . S
C51 C49 1.381 . S
C51 C50 1.387 . S
C51 H77 0.931 1_655 S
C52 C49 1.487 . S
C52 C59 1.399 . S
C52 N90 1.343 1_655 S
C53 C54 1.384 . S
C53 C55 1.384 . S
C53 H78 0.931 . S
C54 C53 1.384 . S
C54 C57 1.382 . S
C55 C53 1.384 . S
C55 C56 1.381 . S
C55 H79 0.930 . S
C56 C55 1.381 . S
C56 C58 1.381 . S
C56 C59 1.487 . S
C57 C54 1.382 . S
C57 C58 1.387 . S
C57 H80 0.930 . S
C58 C56 1.381 . S
C58 C57 1.387 . S
C58 H81 0.931 . S
C59 C52 1.399 . S
C59 C56 1.487 . S
C59 N91 1.343 1_655 S
C60 C61 1.384 . S
C60 C62 1.384 . S
C60 H82 0.931 . S
C61 C60 1.384 . S
C61 C64 1.382 . S
C62 C60 1.384 . S
C62 C63 1.381 . S
C62 H83 0.930 . S
C63 C62 1.381 . S
C63 C65 1.381 . S
C63 C66 1.487 . S
C64 C61 1.382 . S
C64 C65 1.387 . S
C64 H84 0.930 . S
C65 C63 1.381 . S
C65 C64 1.387 . S
C65 H85 0.931 . S
C66 C63 1.487 . S
C66 C73 1.399 . S
C66 N91 1.343 . S
C67 C68 1.384 . S
C67 C69 1.384 . S
C67 H86 0.931 . S
C68 C67 1.384 . S
C68 C71 1.382 . S
C69 C67 1.384 . S
C69 C70 1.381 . S
C69 H87 0.930 . S
C70 C69 1.381 . S
C70 C72 1.381 . S
C70 C73 1.487 . S
C71 C68 1.382 . S
C71 C72 1.387 . S
C71 H88 0.930 . S
C72 C70 1.381 . S
C72 C71 1.387 . S
C72 H89 0.931 . S
C73 C66 1.399 . S
C73 C70 1.487 . S
C73 N90 1.343 . S
H74 C46 0.931 . S
H75 C48 0.930 . S
H76 C50 0.930 . S
H77 C51 0.931 1_455 S
H78 C53 0.931 . S
H79 C55 0.930 . S
H80 C57 0.930 . S
H81 C58 0.931 . S
H82 C60 0.931 . S
H83 C62 0.930 . S
H84 C64 0.930 . S
H85 C65 0.931 . S
H86 C67 0.931 . S
H87 C69 0.930 . S
H88 C71 0.930 . S
H89 C72 0.931 . S
N90 C52 1.343 1_455 S
N90 C73 1.343 . S
N91 C59 1.343 1_455 S
N91 C66 1.343 . S
C92 C93 1.384 . S
C92 C94 1.384 . S
C92 H120 0.931 . S
C93 C92 1.384 . S
C93 C96 1.382 . S
C94 C92 1.384 . S
C94 C95 1.381 . S
C94 H121 0.930 . S
C95 C94 1.381 . S
C95 C97 1.381 . S
C95 C98 1.487 . S
C96 C93 1.382 . S
C96 C97 1.387 . S
C96 H122 0.930 . S
C97 C95 1.381 . S
C97 C96 1.387 . S
C97 H123 0.931 . S
C98 C95 1.487 . S
C98 C105 1.399 . S
C98 N136 1.343 . S
C99 C100 1.384 . S
C99 C101 1.384 . S
C99 H124 0.931 . S
C100 C99 1.384 . S
C100 C103 1.382 . S
C101 C99 1.384 . S
C101 C102 1.381 . S
C101 H125 0.930 . S
C102 C101 1.381 . S
C102 C104 1.381 . S
C102 C105 1.487 . S
C103 C100 1.382 . S
C103 C104 1.387 . S
C103 H126 0.930 . S
C104 C102 1.381 . S
C104 C103 1.387 . S
C104 H127 0.931 . S
C105 C98 1.399 . S
C105 C102 1.487 . S
C105 N137 1.343 . S
C106 C107 1.384 . S
C106 C108 1.384 . S
C106 H128 0.931 . S
C107 C106 1.384 . S
C107 C110 1.382 . S
C108 C106 1.384 . S
C108 C109 1.381 . S
C108 H129 0.930 . S
C109 C108 1.381 . S
C109 C111 1.381 . S
C109 C112 1.487 . S
C110 C107 1.382 . S
C110 C111 1.387 . S
C110 H130 0.930 . S
C111 C109 1.381 . S
C111 C110 1.387 . S
C111 H131 0.931 . S
C112 C109 1.487 . S
C112 C119 1.399 . S
C112 N137 1.343 . S
C113 C114 1.384 . S
C113 C115 1.384 . S
C113 H132 0.931 . S
C114 C113 1.384 . S
C114 C117 1.382 . S
C115 C113 1.384 . S
C115 C116 1.381 . S
C115 H133 0.930 . S
C116 C115 1.381 . S
C116 C118 1.381 . S
C116 C119 1.487 . S
C117 C114 1.382 . S
C117 C118 1.387 . S
C117 H134 0.930 . S
C118 C116 1.381 . S
C118 C117 1.387 . S
C118 H135 0.931 . S
C119 C112 1.399 . S
C119 C116 1.487 . S
C119 N136 1.343 . S
H120 C92 0.931 . S
H121 C94 0.930 . S
H122 C96 0.930 . S
H123 C97 0.931 . S
H124 C99 0.931 . S
H125 C101 0.930 . S
H126 C103 0.930 . S
H127 C104 0.931 . S
H128 C106 0.931 . S
H129 C108 0.930 . S
H130 C110 0.930 . S
H131 C111 0.931 . S
H132 C113 0.931 . S
H133 C115 0.930 . S
H134 C117 0.930 . S
H135 C118 0.931 . S
N136 C98 1.343 . S
N136 C119 1.343 . S
N137 C105 1.343 . S
N137 C112 1.343 . S
C138 C139 1.384 . S
C138 C140 1.384 . S
C138 H166 0.931 . S
C139 C138 1.384 . S
C139 C142 1.382 . S
C140 C138 1.384 . S
C140 C141 1.381 . S
C140 H167 0.930 . S
C141 C140 1.381 . S
C141 C143 1.381 . S
C141 C144 1.487 . S
C142 C139 1.382 . S
C142 C143 1.387 . S
C142 H168 0.930 . S
C143 C141 1.381 . S
C143 C142 1.387 . S
C143 H169 0.931 . S
C144 C141 1.487 . S
C144 C151 1.399 . S
C144 N182 1.343 1_565 S
C145 C146 1.384 . S
C145 C147 1.384 . S
C145 H170 0.931 . S
C146 C145 1.384 . S
C146 C149 1.382 . S
C147 C145 1.384 . S
C147 C148 1.381 . S
C147 H171 0.930 . S
C148 C147 1.381 . S
C148 C150 1.381 . S
C148 C151 1.487 . S
C149 C146 1.382 . S
C149 C150 1.387 . S
C149 H172 0.930 . S
C150 C148 1.381 . S
C150 C149 1.387 . S
C150 H173 0.931 . S
C151 C144 1.399 . S
C151 C148 1.487 . S
C151 N183 1.343 . S
C152 C153 1.384 . S
C152 C154 1.384 . S
C152 H174 0.931 . S
C153 C152 1.384 . S
C153 C156 1.382 . S
C154 C152 1.384 . S
C154 C155 1.381 . S
C154 H175 0.930 . S
C155 C154 1.381 . S
C155 C157 1.381 . S
C155 C158 1.487 . S
C156 C153 1.382 . S
C156 C157 1.387 . S
C156 H176 0.930 . S
C157 C155 1.381 . S
C157 C156 1.387 . S
C157 H177 0.931 . S
C158 C155 1.487 . S
C158 C165 1.399 . S
C158 N183 1.343 1_545 S
C159 C160 1.384 . S
C159 C161 1.384 . S
C159 H178 0.931 . S
C160 C159 1.384 . S
C160 C163 1.382 . S
C161 C159 1.384 . S
C161 C162 1.381 . S
C161 H179 0.930 . S
C162 C161 1.381 . S
C162 C164 1.381 . S
C162 C165 1.487 . S
C163 C160 1.382 . S
C163 C164 1.387 . S
C163 H180 0.930 . S
C164 C162 1.381 . S
C164 C163 1.387 . S
C164 H181 0.931 . S
C165 C158 1.399 . S
C165 C162 1.487 . S
C165 N182 1.343 . S
H166 C138 0.931 . S
H167 C140 0.930 . S
H168 C142 0.930 . S
H169 C143 0.931 . S
H170 C145 0.931 . S
H171 C147 0.930 . S
H172 C149 0.930 . S
H173 C150 0.931 . S
H174 C152 0.931 . S
H175 C154 0.930 . S
H176 C156 0.930 . S
H177 C157 0.931 . S
H178 C159 0.931 . S
H179 C161 0.930 . S
H180 C163 0.930 . S
H181 C164 0.931 . S
N182 C144 1.343 1_545 S
N182 C165 1.343 . S
N183 C151 1.343 . S
N183 C158 1.343 1_565 S
C184 C185 1.384 . S
C184 C186 1.384 . S
C184 H212 0.931 . S
C185 C184 1.384 . S
C185 C188 1.382 . S
C186 C184 1.384 . S
C186 C187 1.381 . S
C186 H213 0.930 . S
C187 C186 1.381 . S
C187 C189 1.381 . S
C187 C190 1.487 . S
C188 C185 1.382 . S
C188 C189 1.387 . S
C188 H214 0.930 . S
C189 C187 1.381 . S
C189 C188 1.387 . S
C189 H215 0.931 . S
C190 C187 1.487 . S
C190 C197 1.399 . S
C190 N228 1.343 . S
C191 C192 1.384 . S
C191 C193 1.384 . S
C191 H216 0.931 . S
C192 C191 1.384 . S
C192 C195 1.382 . S
C193 C191 1.384 . S
C193 C194 1.381 . S
C193 H217 0.930 . S
C194 C193 1.381 . S
C194 C196 1.381 . S
C194 C197 1.487 . S
C195 C192 1.382 . S
C195 C196 1.387 . S
C195 H218 0.930 . S
C196 C194 1.381 . S
C196 C195 1.387 . S
C196 H219 0.931 . S
C197 C190 1.399 . S
C197 C194 1.487 . S
C197 N229 1.356 . S
C198 C199 1.384 . S
C198 C200 1.384 . S
C198 H220 0.931 . S
C199 C198 1.384 . S
C199 C202 1.382 . S
C200 C198 1.384 . S
C200 C201 1.381 . S
C200 H221 0.930 . S
C201 C200 1.381 . S
C201 C203 1.381 . S
C201 C204 1.487 . S
C202 C199 1.382 . S
C202 C203 1.387 . S
C202 H222 0.930 . S
C203 C201 1.381 . S
C203 C202 1.387 . S
C203 H223 0.931 . S
C204 C201 1.487 . S
C204 C211 1.399 . S
C204 N229 1.332 1_655 S
C205 C206 1.384 . S
C205 C207 1.384 . S
C205 H224 0.931 . S
C206 C205 1.384 . S
C206 C209 1.382 . S
C207 C205 1.384 . S
C207 C208 1.381 . S
C207 H225 0.930 . S
C208 C207 1.381 . S
C208 C210 1.381 . S
C208 C211 1.487 . S
C209 C206 1.382 . S
C209 C210 1.387 . S
C209 H226 0.930 . S
C210 C208 1.381 . S
C210 C209 1.387 . S
C210 H227 0.931 . S
C211 C204 1.399 . S
C211 C208 1.487 . S
C211 N228 1.343 1_655 S
H212 C184 0.931 . S
H213 C186 0.930 . S
H214 C188 0.930 . S
H215 C189 0.931 . S
H216 C191 0.931 . S
H217 C193 0.930 . S
H218 C195 0.930 . S
H219 C196 0.931 . S
H220 C198 0.931 . S
H221 C200 0.930 . S
H222 C202 0.930 . S
H223 C203 0.931 . S
H224 C205 0.931 . S
H225 C207 0.930 . S
H226 C209 0.930 . S
H227 C210 0.931 . S
N228 C190 1.343 . S
N228 C211 1.343 1_455 S
N229 C197 1.356 . S
N229 C204 1.332 1_455 S
C230 C231 1.384 . S
C230 C232 1.384 . S
C230 H258 0.931 . S
C231 C230 1.384 . S
C231 C234 1.382 . S
C232 C230 1.384 . S
C232 C233 1.381 . S
C232 H259 0.930 . S
C233 C232 1.381 . S
C233 C235 1.381 . S
C233 C236 1.487 . S
C234 C231 1.382 . S
C234 C235 1.387 . S
C234 H260 0.930 . S
C235 C233 1.381 . S
C235 C234 1.387 . S
C235 H261 0.931 . S
C236 C233 1.487 . S
C236 C243 1.399 . S
C236 N274 1.343 . S
C237 C238 1.384 . S
C237 C239 1.384 . S
C237 H262 0.931 . S
C238 C237 1.384 . S
C238 C241 1.382 . S
C239 C237 1.384 . S
C239 C240 1.381 . S
C239 H263 0.930 . S
C240 C239 1.381 . S
C240 C242 1.381 . S
C240 C243 1.487 . S
C241 C238 1.382 . S
C241 C242 1.387 . S
C241 H264 0.930 . S
C242 C240 1.381 . S
C242 C241 1.387 . S
C242 H265 0.931 . S
C243 C236 1.399 . S
C243 C240 1.487 . S
C243 N275 1.343 . S
C244 C245 1.384 . S
C244 C246 1.384 . S
C244 H266 0.931 . S
C245 C244 1.384 . S
C245 C248 1.382 . S
C246 C244 1.384 . S
C246 C247 1.381 . S
C246 H267 0.930 . S
C247 C246 1.381 . S
C247 C249 1.381 . S
C247 C250 1.487 . S
C248 C245 1.382 . S
C248 C249 1.387 . S
C248 H268 0.930 . S
C249 C247 1.381 . S
C249 C248 1.387 . S
C249 H269 0.931 . S
C250 C247 1.487 . S
C250 C257 1.399 . S
C250 N275 1.343 . S
C251 C252 1.384 . S
C251 C253 1.384 . S
C251 H270 0.931 . S
C252 C251 1.384 . S
C252 C255 1.382 . S
C253 C251 1.384 . S
C253 C254 1.381 . S
C253 H271 0.930 . S
C254 C253 1.381 . S
C254 C256 1.381 . S
C254 C257 1.487 . S
C255 C252 1.382 . S
C255 C256 1.387 . S
C255 H272 0.930 . S
C256 C254 1.381 . S
C256 C255 1.387 . S
C256 H273 0.931 . S
C257 C250 1.399 . S
C257 C254 1.487 . S
C257 N274 1.343 . S
H258 C230 0.931 . S
H259 C232 0.930 . S
H260 C234 0.930 . S
H261 C235 0.931 . S
H262 C237 0.931 . S
H263 C239 0.930 . S
H264 C241 0.930 . S
H265 C242 0.931 . S
H266 C244 0.931 . S
H267 C246 0.930 . S
H268 C248 0.930 . S
H269 C249 0.931 . S
H270 C251 0.931 . S
H271 C253 0.930 . S
H272 C255 0.930 . S
H273 C256 0.931 . S
N274 C236 1.343 . S
N274 C257 1.343 . S
N275 C243 1.343 . S
N275 C250 1.343 . S
C276 C277 1.384 . S
C276 C278 1.384 . S
C276 H304 0.931 . S
C277 C276 1.384 . S
C277 C280 1.382 . S
C278 C276 1.384 . S
C278 C279 1.381 . S
C278 H305 0.930 . S
C279 C278 1.381 . S
C279 C281 1.381 . S
C279 C282 1.487 . S
C280 C277 1.382 . S
C280 C281 1.387 . S
C280 H306 0.930 . S
C281 C279 1.381 . S
C281 C280 1.387 . S
C281 H307 0.931 1_565 S
C282 C279 1.487 . S
C282 C289 1.399 . S
C282 N320 1.343 1_565 S
C283 C284 1.384 . S
C283 C285 1.384 . S
C283 H308 0.931 . S
C284 C283 1.384 . S
C284 C287 1.382 . S
C285 C283 1.384 . S
C285 C286 1.381 . S
C285 H309 0.930 . S
C286 C285 1.381 . S
C286 C288 1.381 . S
C286 C289 1.487 . S
C287 C284 1.382 . S
C287 C288 1.387 . S
C287 H310 0.930 . S
C288 C286 1.381 . S
C288 C287 1.387 . S
C288 H311 0.931 . S
C289 C282 1.399 . S
C289 C286 1.487 . S
C289 N321 1.343 1_565 S
C290 C291 1.384 . S
C290 C292 1.384 . S
C290 H312 0.931 . S
C291 C290 1.384 . S
C291 C294 1.382 . S
C292 C290 1.384 . S
C292 C293 1.381 . S
C292 H313 0.930 . S
C293 C292 1.381 . S
C293 C295 1.381 . S
C293 C296 1.487 . S
C294 C291 1.382 . S
C294 C295 1.387 . S
C294 H314 0.930 . S
C295 C293 1.381 . S
C295 C294 1.387 . S
C295 H315 0.931 . S
C296 C293 1.487 . S
C296 C303 1.399 . S
C296 N321 1.343 . S
C297 C298 1.384 . S
C297 C299 1.384 . S
C297 H316 0.931 . S
C298 C297 1.384 . S
C298 C301 1.382 . S
C299 C297 1.384 . S
C299 C300 1.381 . S
C299 H317 0.930 . S
C300 C299 1.381 . S
C300 C302 1.381 . S
C300 C303 1.487 . S
C301 C298 1.382 . S
C301 C302 1.387 . S
C301 H318 0.930 . S
C302 C300 1.381 . S
C302 C301 1.387 . S
C302 H319 0.931 . S
C303 C296 1.399 . S
C303 C300 1.487 . S
C303 N320 1.343 . S
H304 C276 0.931 . S
H305 C278 0.930 . S
H306 C280 0.930 . S
H307 C281 0.931 1_545 S
H308 C283 0.931 . S
H309 C285 0.930 . S
H310 C287 0.930 . S
H311 C288 0.931 . S
H312 C290 0.931 . S
H313 C292 0.930 . S
H314 C294 0.930 . S
H315 C295 0.931 . S
H316 C297 0.931 . S
H317 C299 0.930 . S
H318 C301 0.930 . S
H319 C302 0.931 . S
N320 C282 1.343 1_545 S
N320 C303 1.343 . S
N321 C289 1.343 1_545 S
N321 C296 1.343 . S
C322 C323 1.384 . S
C322 C324 1.384 . S
C322 H350 0.931 . S
C323 C322 1.384 . S
C323 C326 1.382 . S
C324 C322 1.384 . S
C324 C325 1.381 . S
C324 H351 0.930 1_565 S
C325 C324 1.381 . S
C325 C327 1.381 . S
C325 C328 1.487 1_565 S
C326 C323 1.382 . S
C326 C327 1.387 . S
C326 H352 0.930 . S
C327 C325 1.381 . S
C327 C326 1.387 . S
C327 H353 0.931 . S
C328 C325 1.487 1_545 S
C328 C335 1.399 . S
C328 N366 1.343 . S
C329 C330 1.384 . S
C329 C331 1.384 . S
C329 H354 0.931 . S
C330 C329 1.384 . S
C330 C333 1.382 . S
C331 C329 1.384 . S
C331 C332 1.401 . S
C331 H355 0.930 . S
C332 C331 1.401 . S
C332 C334 1.375 1_565 S
C332 C335 1.474 1_565 S
C333 C330 1.382 . S
C333 C334 1.387 1_565 S
C333 H356 0.930 . S
C334 C332 1.375 1_545 S
C334 C333 1.387 1_545 S
C334 H357 0.931 . S
C335 C328 1.399 . S
C335 C332 1.474 1_545 S
C335 N367 1.343 . S
C336 C337 1.384 . S
C336 C338 1.384 . S
C336 H358 0.931 . S
C337 C336 1.384 . S
C337 C340 1.353 1_655 S
C338 C336 1.384 . S
C338 C339 1.381 1_655 S
C338 H359 0.930 . S
C339 C338 1.381 1_455 S
C339 C341 1.381 . S
C339 C342 1.487 . S
C340 C337 1.353 1_455 S
C340 C341 1.403 . S
C340 H360 0.945 . S
C341 C339 1.381 . S
C341 C340 1.403 . S
C341 H361 0.931 . S
C342 C339 1.487 . S
C342 C349 1.399 . S
C342 N367 1.343 . S
C343 C344 1.384 . S
C343 C345 1.384 1_655 S
C343 H362 0.931 . S
C344 C343 1.384 . S
C344 C347 1.382 . S
C345 C343 1.384 1_455 S
C345 C346 1.381 . S
C345 H363 0.930 . S
C346 C345 1.381 . S
C346 C348 1.381 1_455 S
C346 C349 1.487 . S
C347 C344 1.382 . S
C347 C348 1.387 . S
C347 H364 0.930 . S
C348 C346 1.381 1_655 S
C348 C347 1.387 . S
C348 H365 0.931 . S
C349 C342 1.399 . S
C349 C346 1.487 . S
C349 N366 1.343 . S
H350 C322 0.931 . S
H351 C324 0.930 1_545 S
H352 C326 0.930 . S
H353 C327 0.931 . S
H354 C329 0.931 . S
H355 C331 0.930 . S
H356 C333 0.930 . S
H357 C334 0.931 . S
H358 C336 0.931 . S
H359 C338 0.930 . S
H360 C340 0.945 . S
H361 C341 0.931 . S
H362 C343 0.931 . S
H363 C345 0.930 . S
H364 C347 0.930 . S
H365 C348 0.931 . S
N366 C328 1.343 . S
N366 C349 1.343 . S
N367 C335 1.343 . S
N367 C342 1.343 . S
Co368 O369 2.216 . S
Co368 O370 2.091 . S
Co368 O372 2.004 . S
Co368 O378 2.021 1_554 S
Co368 O380 2.137 . S
Co368 O381 2.244 . S
O369 Co368 2.216 . S
O369 C376 1.249 . S
O370 Co368 2.091 . S
O370 C376 1.264 . S
C371 O380 1.247 . S
C371 O381 1.272 . S
O372 Co368 2.004 . S
O372 C377 1.259 . S
Co373 O374 2.061 . S
Co373 O379 2.052 1_554 S
Co373 O381 2.135 . S
O374 Co373 2.061 . S
O374 C377 1.235 . S
C375 O378 1.238 . S
C375 O379 1.241 . S
C376 O369 1.249 . S
C376 O370 1.264 . S
C377 O372 1.259 . S
C377 O374 1.235 . S
O378 Co368 2.021 1_556 S
O378 C375 1.238 . S
O379 Co373 2.052 1_556 S
O379 C375 1.241 . S
O380 Co368 2.137 . S
O380 C371 1.247 . S
O381 Co368 2.244 . S
O381 C371 1.272 . S
O381 Co373 2.135 . S
Co382 O383 2.216 . S
Co382 O384 2.091 . S
Co382 O386 2.004 . S
Co382 O392 2.021 . S
Co382 O394 2.137 . S
Co382 O395 2.244 . S
O383 Co382 2.216 . S
O383 C390 1.247 . S
O384 Co382 2.091 . S
O384 C390 1.261 . S
C385 O394 1.247 . S
C385 O395 1.272 . S
O386 Co382 2.004 . S
O386 C391 1.259 . S
Co387 O388 2.061 . S
Co387 O393 2.052 . S
Co387 O395 2.135 . S
O388 Co387 2.061 . S
O388 C391 1.235 . S
C389 O392 1.238 . S
C389 O393 1.241 . S
C390 O383 1.247 . S
C390 O384 1.261 . S
C391 O386 1.259 . S
C391 O388 1.235 . S
O392 Co382 2.021 . S
O392 C389 1.238 . S
O393 Co387 2.052 . S
O393 C389 1.241 . S
O394 Co382 2.137 . S
O394 C385 1.247 . S
O395 Co382 2.244 . S
O395 C385 1.272 . S
O395 Co387 2.135 . S
Co396 O397 2.216 . S
Co396 O398 2.091 . S
Co396 O400 2.004 . S
Co396 O406 2.021 . S
Co396 O408 2.137 . S
Co396 O409 2.244 . S
O397 Co396 2.216 . S
O397 C404 1.247 . S
O398 Co396 2.091 . S
O398 C404 1.261 . S
C399 O408 1.247 . S
C399 O409 1.272 . S
O400 Co396 2.004 . S
O400 C405 1.259 . S
Co401 O402 2.061 . S
Co401 O407 2.052 . S
Co401 O409 2.135 . S
O402 Co401 2.061 . S
O402 C405 1.235 . S
C403 O406 1.238 . S
C403 O407 1.241 . S
C404 O397 1.247 . S
C404 O398 1.261 . S
C405 O400 1.259 . S
C405 O402 1.235 . S
O406 Co396 2.021 . S
O406 C403 1.238 . S
O407 Co401 2.052 . S
O407 C403 1.241 . S
O408 Co396 2.137 . S
O408 C399 1.247 . S
O409 Co396 2.244 . S
O409 C399 1.272 . S
O409 Co401 2.135 . S
Co410 O411 2.216 . S
Co410 O412 2.091 . S
Co410 O414 2.004 . S
Co410 O420 2.021 . S
Co410 O422 2.137 . S
Co410 O423 2.244 . S
O411 Co410 2.216 . S
O411 C418 1.247 . S
O412 Co410 2.091 . S
O412 C418 1.261 . S
C413 O422 1.247 . S
C413 O423 1.272 . S
O414 Co410 2.004 . S
O414 C419 1.259 . S
Co415 O416 2.061 . S
Co415 O421 2.052 . S
Co415 O423 2.135 . S
O416 Co415 2.061 . S
O416 C419 1.235 . S
C417 O420 1.238 . S
C417 O421 1.241 . S
C418 O411 1.247 . S
C418 O412 1.261 . S
C419 O414 1.259 . S
C419 O416 1.235 . S
O420 Co410 2.021 . S
O420 C417 1.238 . S
O421 Co415 2.052 . S
O421 C417 1.241 . S
O422 Co410 2.137 . S
O422 C413 1.247 . S
O423 Co410 2.244 . S
O423 C413 1.272 . S
O423 Co415 2.135 . S
Co424 O425 2.216 . S
Co424 O426 2.091 . S
Co424 O428 2.004 . S
Co424 O434 2.021 . S
Co424 O436 2.137 . S
Co424 O437 2.244 . S
O425 Co424 2.216 . S
O425 C432 1.247 . S
O426 Co424 2.091 . S
O426 C432 1.261 . S
C427 O436 1.247 . S
C427 O437 1.272 . S
O428 Co424 2.004 . S
O428 C433 1.259 . S
Co429 O430 2.061 . S
Co429 O435 2.052 . S
Co429 O437 2.135 . S
O430 Co429 2.061 . S
O430 C433 1.235 . S
C431 O434 1.238 . S
C431 O435 1.241 . S
C432 O425 1.247 . S
C432 O426 1.261 . S
C433 O428 1.259 . S
C433 O430 1.235 . S
O434 Co424 2.021 . S
O434 C431 1.238 . S
O435 Co429 2.052 . S
O435 C431 1.241 . S
O436 Co424 2.137 . S
O436 C427 1.247 . S
O437 Co424 2.244 . S
O437 C427 1.272 . S
O437 Co429 2.135 . S
Co438 O439 2.216 . S
Co438 O440 2.091 . S
Co438 O442 2.004 . S
Co438 O448 2.021 . S
Co438 O450 2.137 . S
Co438 O451 2.244 . S
O439 Co438 2.216 . S
O439 C446 1.247 . S
O440 Co438 2.091 . S
O440 C446 1.261 . S
C441 O450 1.247 . S
C441 O451 1.272 . S
O442 Co438 2.004 . S
O442 C447 1.259 . S
Co443 O444 2.061 . S
Co443 O449 2.052 . S
Co443 O451 2.135 . S
O444 Co443 2.061 . S
O444 C447 1.235 . S
C445 O448 1.238 . S
C445 O449 1.241 . S
C446 O439 1.247 . S
C446 O440 1.261 . S
C447 O442 1.259 . S
C447 O444 1.235 . S
O448 Co438 2.021 . S
O448 C445 1.238 . S
O449 Co443 2.052 . S
O449 C445 1.241 . S
O450 Co438 2.137 . S
O450 C441 1.247 . S
O451 Co438 2.244 . S
O451 C441 1.272 . S
O451 Co443 2.135 . S
Co452 O453 2.216 1_556 S
Co452 O454 2.091 1_556 S
Co452 O456 2.004 . S
Co452 O462 2.021 1_556 S
Co452 O464 2.137 . S
Co452 O465 2.244 . S
O453 Co452 2.216 1_554 S
O453 C460 1.247 . S
O454 Co452 2.091 1_554 S
O454 C460 1.261 . S
C455 O464 1.247 . S
C455 O465 1.272 . S
O456 Co452 2.004 . S
O456 C461 1.259 . S
Co457 O458 2.061 . S
Co457 O463 2.052 1_556 S
Co457 O465 2.135 . S
O458 Co457 2.061 . S
O458 C461 1.235 . S
C459 O462 1.238 . S
C459 O463 1.241 . S
C460 O453 1.247 . S
C460 O454 1.261 . S
C461 O456 1.259 . S
C461 O458 1.235 . S
O462 Co452 2.021 1_554 S
O462 C459 1.238 . S
O463 Co457 2.052 1_554 S
O463 C459 1.241 . S
O464 Co452 2.137 . S
O464 C455 1.247 . S
O465 Co452 2.244 . S
O465 C455 1.272 . S
O465 Co457 2.135 . S
Co466 O467 2.216 . S
Co466 O468 2.091 . S
Co466 O470 2.004 . S
Co466 O476 2.021 . S
Co466 O478 2.137 . S
Co466 O479 2.244 . S
O467 Co466 2.216 . S
O467 C474 1.247 . S
O468 Co466 2.091 . S
O468 C474 1.261 . S
C469 O478 1.247 . S
C469 O479 1.272 . S
O470 Co466 2.004 . S
O470 C475 1.259 . S
Co471 O472 2.061 . S
Co471 O477 2.052 . S
Co471 O479 2.135 . S
O472 Co471 2.061 . S
O472 C475 1.235 . S
C473 O476 1.238 . S
C473 O477 1.241 . S
C474 O467 1.247 . S
C474 O468 1.261 . S
C475 O470 1.259 . S
C475 O472 1.235 . S
O476 Co466 2.021 . S
O476 C473 1.238 . S
O477 Co471 2.052 . S
O477 C473 1.241 . S
O478 Co466 2.137 . S
O478 C469 1.247 . S
O479 Co466 2.244 . S
O479 C469 1.272 . S
O479 Co471 2.135 . S
H480 C492 0.930 . S
H481 C494 0.930 . S
H482 C495 0.930 . S
H483 C499 0.959 . S
H484 C499 0.959 . S
H485 C499 0.961 . S
H486 C500 0.960 . S
H487 C500 0.961 . S
H488 C500 0.959 . S
H489 C503 0.929 . S
H490 C504 0.931 . S
H491 C506 0.930 . S
C492 H480 0.930 . S
C492 C493 1.399 . S
C492 C497 1.399 . S
C493 C492 1.399 . S
C493 C494 1.376 . S
C494 H481 0.930 . S
C494 C493 1.376 . S
C494 C495 1.388 . S
C495 H482 0.930 . S
C495 C494 1.388 . S
C495 C496 1.390 . S
C496 C495 1.390 . S
C496 C497 1.394 . S
C496 C502 1.465 . S
C497 C492 1.399 . S
C497 C496 1.394 . S
C497 C498 1.516 . S
C498 C497 1.516 . S
C498 C499 1.502 . S
C498 C500 1.561 . S
C498 C501 1.526 . S
C499 H483 0.959 . S
C499 H484 0.959 . S
C499 H485 0.961 . S
C499 C498 1.502 . S
C500 H486 0.960 . S
C500 H487 0.961 . S
C500 H488 0.959 . S
C500 C498 1.561 . S
C501 C498 1.526 . S
C501 C502 1.396 . S
C501 C506 1.390 . S
C502 C496 1.465 . S
C502 C501 1.396 . S
C502 C503 1.399 . S
C503 H489 0.929 . S
C503 C502 1.399 . S
C503 C504 1.385 . S
C504 H490 0.931 . S
C504 C503 1.385 . S
C504 C505 1.389 . S
C505 C504 1.389 . S
C505 C506 1.387 . S
C506 H491 0.930 . S
C506 C501 1.390 . S
C506 C505 1.387 . S
H507 C519 0.930 . S
H508 C521 0.930 . S
H509 C522 0.930 . S
H510 C526 0.959 . S
H511 C526 0.959 . S
H512 C526 0.961 . S
H513 C527 0.960 . S
H514 C527 0.961 . S
H515 C527 0.959 . S
H516 C530 0.929 . S
H517 C531 0.931 . S
H518 C533 0.930 . S
C519 H507 0.930 . S
C519 C520 1.399 . S
C519 C524 1.399 . S
C520 C519 1.399 . S
C520 C521 1.376 . S
C521 H508 0.930 . S
C521 C520 1.376 . S
C521 C522 1.388 . S
C522 H509 0.930 . S
C522 C521 1.388 . S
C522 C523 1.390 . S
C523 C522 1.390 . S
C523 C524 1.394 . S
C523 C529 1.465 . S
C524 C519 1.399 . S
C524 C523 1.394 . S
C524 C525 1.516 . S
C525 C524 1.516 . S
C525 C526 1.502 . S
C525 C527 1.561 . S
C525 C528 1.526 . S
C526 H510 0.959 . S
C526 H511 0.959 . S
C526 H512 0.961 . S
C526 C525 1.502 . S
C527 H513 0.960 . S
C527 H514 0.961 . S
C527 H515 0.959 . S
C527 C525 1.561 . S
C528 C525 1.526 . S
C528 C529 1.396 . S
C528 C533 1.390 . S
C529 C523 1.465 . S
C529 C528 1.396 . S
C529 C530 1.399 . S
C530 H516 0.929 . S
C530 C529 1.399 . S
C530 C531 1.385 . S
C531 H517 0.931 . S
C531 C530 1.385 . S
C531 C532 1.389 . S
C532 C531 1.389 . S
C532 C533 1.387 . S
C533 H518 0.930 . S
C533 C528 1.390 . S
C533 C532 1.387 . S
H534 C546 0.930 . S
H535 C548 0.930 . S
H536 C549 0.930 . S
H537 C553 0.959 . S
H538 C553 0.959 . S
H539 C553 0.961 . S
H540 C554 0.960 . S
H541 C554 0.961 . S
H542 C554 0.959 . S
H543 C557 0.929 . S
H544 C558 0.931 . S
H545 C560 0.930 . S
C546 H534 0.930 . S
C546 C547 1.399 . S
C546 C551 1.399 . S
C547 C546 1.399 . S
C547 C548 1.376 . S
C548 H535 0.930 . S
C548 C547 1.376 . S
C548 C549 1.388 . S
C549 H536 0.930 . S
C549 C548 1.388 . S
C549 C550 1.390 . S
C550 C549 1.390 . S
C550 C551 1.394 . S
C550 C556 1.465 . S
C551 C546 1.399 . S
C551 C550 1.394 . S
C551 C552 1.516 . S
C552 C551 1.516 . S
C552 C553 1.502 . S
C552 C554 1.561 . S
C552 C555 1.526 . S
C553 H537 0.959 . S
C553 H538 0.959 . S
C553 H539 0.961 . S
C553 C552 1.502 . S
C554 H540 0.960 . S
C554 H541 0.961 . S
C554 H542 0.959 . S
C554 C552 1.561 . S
C555 C552 1.526 . S
C555 C556 1.396 . S
C555 C560 1.390 . S
C556 C550 1.465 . S
C556 C555 1.396 . S
C556 C557 1.399 . S
C557 H543 0.929 . S
C557 C556 1.399 . S
C557 C558 1.385 . S
C558 H544 0.931 . S
C558 C557 1.385 . S
C558 C559 1.389 . S
C559 C558 1.389 . S
C559 C560 1.387 . S
C560 H545 0.930 . S
C560 C555 1.390 . S
C560 C559 1.387 . S
H561 C573 0.930 . S
H562 C575 0.930 . S
H563 C576 0.930 . S
H564 C580 0.959 . S
H565 C580 0.959 1_556 S
H566 C580 0.964 . S
H567 C581 0.960 . S
H568 C581 0.961 . S
H569 C581 0.959 . S
H570 C584 0.929 . S
H571 C585 0.931 . S
H572 C587 0.930 1_556 S
C573 H561 0.930 . S
C573 C574 1.399 . S
C573 C578 1.399 . S
C574 C573 1.399 . S
C574 C575 1.376 . S
C575 H562 0.930 . S
C575 C574 1.376 . S
C575 C576 1.388 . S
C576 H563 0.930 . S
C576 C575 1.388 . S
C576 C577 1.390 . S
C577 C576 1.390 . S
C577 C578 1.394 . S
C577 C583 1.465 . S
C578 C573 1.399 . S
C578 C577 1.394 . S
C578 C579 1.516 . S
C579 C578 1.516 . S
C579 C580 1.502 . S
C579 C581 1.561 1_554 S
C579 C582 1.526 . S
C580 H564 0.959 . S
C580 H565 0.959 1_554 S
C580 H566 0.964 . S
C580 C579 1.502 . S
C581 H567 0.960 . S
C581 H568 0.961 . S
C581 H569 0.959 . S
C581 C579 1.561 1_556 S
C582 C579 1.526 . S
C582 C583 1.396 . S
C582 C587 1.390 . S
C583 C577 1.465 . S
C583 C582 1.396 . S
C583 C584 1.399 . S
C584 H570 0.929 . S
C584 C583 1.399 . S
C584 C585 1.385 . S
C585 H571 0.931 . S
C585 C584 1.385 . S
C585 C586 1.389 . S
C586 C585 1.389 . S
C586 C587 1.387 . S
C587 H572 0.930 1_554 S
C587 C582 1.390 . S
C587 C586 1.387 . S
H588 C600 0.930 . S
H589 C602 0.930 . S
H590 C603 0.930 1_554 S
H591 C607 0.959 . S
H592 C607 0.959 . S
H593 C607 0.961 . S
H594 C608 0.960 . S
H595 C608 0.961 . S
H596 C608 0.959 . S
H597 C611 0.929 . S
H598 C612 0.931 . S
H599 C614 0.930 . S
C600 H588 0.930 . S
C600 C601 1.399 . S
C600 C605 1.399 . S
C601 C600 1.399 . S
C601 C602 1.376 . S
C602 H589 0.930 . S
C602 C601 1.376 . S
C602 C603 1.388 . S
C603 H590 0.930 1_556 S
C603 C602 1.388 . S
C603 C604 1.390 . S
C604 C603 1.390 . S
C604 C605 1.394 . S
C604 C610 1.465 . S
C605 C600 1.399 . S
C605 C604 1.394 . S
C605 C606 1.516 . S
C606 C605 1.516 . S
C606 C607 1.502 . S
C606 C608 1.561 . S
C606 C609 1.526 . S
C607 H591 0.959 . S
C607 H592 0.959 . S
C607 H593 0.961 . S
C607 C606 1.502 . S
C608 H594 0.960 . S
C608 H595 0.961 . S
C608 H596 0.959 . S
C608 C606 1.561 . S
C609 C606 1.526 . S
C609 C610 1.396 . S
C609 C614 1.390 . S
C610 C604 1.465 . S
C610 C609 1.396 . S
C610 C611 1.399 1_556 S
C611 H597 0.929 . S
C611 C610 1.399 1_554 S
C611 C612 1.385 . S
C612 H598 0.931 . S
C612 C611 1.385 . S
C612 C613 1.389 1_554 S
C613 C612 1.389 1_556 S
C613 C614 1.387 . S
C614 H599 0.930 . S
C614 C609 1.390 . S
C614 C613 1.387 . S
H615 C627 0.930 . S
H616 C629 0.930 . S
H617 C630 0.930 . S
H618 C634 0.959 . S
H619 C634 0.959 . S
H620 C634 0.961 . S
H621 C635 0.960 . S
H622 C635 0.961 . S
H623 C635 0.959 . S
H624 C638 0.929 . S
H625 C639 0.931 . S
H626 C641 0.930 . S
C627 H615 0.930 . S
C627 C628 1.399 . S
C627 C632 1.399 . S
C628 C627 1.399 . S
C628 C629 1.376 . S
C629 H616 0.930 . S
C629 C628 1.376 . S
C629 C630 1.388 . S
C630 H617 0.930 . S
C630 C629 1.388 . S
C630 C631 1.390 . S
C631 C630 1.390 . S
C631 C632 1.394 . S
C631 C637 1.465 . S
C632 C627 1.399 . S
C632 C631 1.394 . S
C632 C633 1.516 . S
C633 C632 1.516 . S
C633 C634 1.502 . S
C633 C635 1.561 . S
C633 C636 1.526 . S
C634 H618 0.959 . S
C634 H619 0.959 . S
C634 H620 0.961 . S
C634 C633 1.502 . S
C635 H621 0.960 . S
C635 H622 0.961 . S
C635 H623 0.959 . S
C635 C633 1.561 . S
C636 C633 1.526 . S
C636 C637 1.396 . S
C636 C641 1.390 . S
C637 C631 1.465 . S
C637 C636 1.396 . S
C637 C638 1.399 . S
C638 H624 0.929 . S
C638 C637 1.399 . S
C638 C639 1.385 . S
C639 H625 0.931 . S
C639 C638 1.385 . S
C639 C640 1.389 . S
C640 C639 1.389 . S
C640 C641 1.387 . S
C641 H626 0.930 . S
C641 C636 1.390 . S
C641 C640 1.387 . S
H642 C654 0.930 . S
H643 C656 0.930 . S
H644 C657 0.930 . S
H645 C661 0.959 . S
H646 C661 0.959 . S
H647 C661 0.961 . S
H648 C662 0.960 . S
H649 C662 0.961 . S
H650 C662 0.959 . S
H651 C665 0.929 . S
H652 C666 0.931 . S
H653 C668 0.930 . S
C654 H642 0.930 . S
C654 C655 1.399 . S
C654 C659 1.399 . S
C655 C654 1.399 . S
C655 C656 1.376 . S
C656 H643 0.930 . S
C656 C655 1.376 . S
C656 C657 1.388 . S
C657 H644 0.930 . S
C657 C656 1.388 . S
C657 C658 1.390 . S
C658 C657 1.390 . S
C658 C659 1.394 . S
C658 C664 1.465 . S
C659 C654 1.399 . S
C659 C658 1.394 . S
C659 C660 1.516 . S
C660 C659 1.516 . S
C660 C661 1.502 . S
C660 C662 1.561 . S
C660 C663 1.526 . S
C661 H645 0.959 . S
C661 H646 0.959 . S
C661 H647 0.961 . S
C661 C660 1.502 . S
C662 H648 0.960 . S
C662 H649 0.961 . S
C662 H650 0.959 . S
C662 C660 1.561 . S
C663 C660 1.526 . S
C663 C664 1.396 . S
C663 C668 1.390 . S
C664 C658 1.465 . S
C664 C663 1.396 . S
C664 C665 1.399 . S
C665 H651 0.929 . S
C665 C664 1.399 . S
C665 C666 1.385 . S
C666 H652 0.931 . S
C666 C665 1.385 . S
C666 C667 1.389 . S
C667 C666 1.389 . S
C667 C668 1.387 . S
C668 H653 0.930 . S
C668 C663 1.390 . S
C668 C667 1.387 . S
H669 C681 0.930 . S
H670 C683 0.930 . S
H671 C684 0.930 . S
H672 C688 0.959 . S
H673 C688 0.959 . S
H674 C688 0.961 . S
H675 C689 0.960 . S
H676 C689 0.961 . S
H677 C689 0.959 . S
H678 C692 0.929 . S
H679 C693 0.931 . S
H680 C695 0.930 . S
C681 H669 0.930 . S
C681 C682 1.399 . S
C681 C686 1.399 . S
C682 C681 1.399 . S
C682 C683 1.376 . S
C683 H670 0.930 . S
C683 C682 1.376 . S
C683 C684 1.388 . S
C684 H671 0.930 . S
C684 C683 1.388 . S
C684 C685 1.390 . S
C685 C684 1.390 . S
C685 C686 1.394 . S
C685 C691 1.465 . S
C686 C681 1.399 . S
C686 C685 1.394 . S
C686 C687 1.516 . S
C687 C686 1.516 . S
C687 C688 1.502 . S
C687 C689 1.561 . S
C687 C690 1.526 . S
C688 H672 0.959 . S
C688 H673 0.959 . S
C688 H674 0.961 . S
C688 C687 1.502 . S
C689 H675 0.960 . S
C689 H676 0.961 . S
C689 H677 0.959 . S
C689 C687 1.561 . S
C690 C687 1.526 . S
C690 C691 1.396 . S
C690 C695 1.390 . S
C691 C685 1.465 . S
C691 C690 1.396 . S
C691 C692 1.399 . S
C692 H678 0.929 . S
C692 C691 1.399 . S
C692 C693 1.385 . S
C693 H679 0.931 . S
C693 C692 1.385 . S
C693 C694 1.389 . S
C694 C693 1.389 . S
C694 C695 1.387 . S
C695 H680 0.930 . S
C695 C690 1.390 . S
C695 C694 1.387 . S
H696 C708 0.930 . S
H697 C710 0.930 . S
H698 C711 0.930 . S
H699 C715 0.959 . S
H700 C715 0.959 . S
H701 C715 0.961 . S
H702 C716 0.960 . S
H703 C716 0.961 . S
H704 C716 0.959 . S
H705 C719 0.929 . S
H706 C720 0.931 . S
H707 C722 0.930 . S
C708 H696 0.930 . S
C708 C709 1.399 . S
C708 C713 1.399 . S
C709 C708 1.399 . S
C709 C710 1.376 . S
C710 H697 0.930 . S
C710 C709 1.376 . S
C710 C711 1.388 . S
C711 H698 0.930 . S
C711 C710 1.388 . S
C711 C712 1.390 . S
C712 C711 1.390 . S
C712 C713 1.394 . S
C712 C718 1.465 . S
C713 C708 1.399 . S
C713 C712 1.394 . S
C713 C714 1.516 . S
C714 C713 1.516 . S
C714 C715 1.502 . S
C714 C716 1.561 . S
C714 C717 1.526 . S
C715 H699 0.959 . S
C715 H700 0.959 . S
C715 H701 0.961 . S
C715 C714 1.502 . S
C716 H702 0.960 . S
C716 H703 0.961 . S
C716 H704 0.959 . S
C716 C714 1.561 . S
C717 C714 1.526 . S
C717 C718 1.396 . S
C717 C722 1.390 . S
C718 C712 1.465 . S
C718 C717 1.396 . S
C718 C719 1.399 . S
C719 H705 0.929 . S
C719 C718 1.399 . S
C719 C720 1.385 . S
C720 H706 0.931 . S
C720 C719 1.385 . S
C720 C721 1.389 . S
C721 C720 1.389 . S
C721 C722 1.387 . S
C722 H707 0.930 . S
C722 C717 1.390 . S
C722 C721 1.387 . S
H723 C735 0.930 . S
H724 C737 0.930 . S
H725 C738 0.930 . S
H726 C742 0.959 . S
H727 C742 0.959 . S
H728 C742 0.961 . S
H729 C743 0.960 . S
H730 C743 0.961 . S
H731 C743 0.959 . S
H732 C746 0.906 1_556 S
H733 C747 0.931 . S
H734 C749 0.930 . S
C735 H723 0.930 . S
C735 C736 1.399 . S
C735 C740 1.399 . S
C736 C735 1.399 . S
C736 C737 1.376 . S
C737 H724 0.930 . S
C737 C736 1.376 . S
C737 C738 1.388 . S
C738 H725 0.930 . S
C738 C737 1.388 . S
C738 C739 1.390 . S
C739 C738 1.390 . S
C739 C740 1.394 . S
C739 C745 1.465 . S
C740 C735 1.399 . S
C740 C739 1.394 . S
C740 C741 1.516 . S
C741 C740 1.516 . S
C741 C742 1.502 . S
C741 C743 1.561 . S
C741 C744 1.526 . S
C742 H726 0.959 . S
C742 H727 0.959 . S
C742 H728 0.961 . S
C742 C741 1.502 . S
C743 H729 0.960 . S
C743 H730 0.961 . S
C743 H731 0.959 . S
C743 C741 1.561 . S
C744 C741 1.526 . S
C744 C745 1.396 . S
C744 C749 1.390 . S
C745 C739 1.465 . S
C745 C744 1.396 . S
C745 C746 1.429 . S
C746 H732 0.906 1_554 S
C746 C745 1.429 . S
C746 C747 1.381 1_554 S
C747 H733 0.931 . S
C747 C746 1.381 1_556 S
C747 C748 1.389 1_556 S
C748 C747 1.389 1_554 S
C748 C749 1.387 . S
C749 H734 0.930 . S
C749 C744 1.390 . S
C749 C748 1.387 . S
H750 C762 0.930 . S
H751 C764 0.930 . S
H752 C765 0.930 . S
H753 C769 0.959 . S
H754 C769 0.959 . S
H755 C769 0.961 . S
H756 C770 0.960 . S
H757 C770 0.961 . S
H758 C770 0.959 . S
H759 C773 0.929 . S
H760 C774 0.931 . S
H761 C776 0.930 . S
C762 H750 0.930 . S
C762 C763 1.399 . S
C762 C767 1.399 . S
C763 C762 1.399 . S
C763 C764 1.376 . S
C764 H751 0.930 . S
C764 C763 1.376 . S
C764 C765 1.388 . S
C765 H752 0.930 . S
C765 C764 1.388 . S
C765 C766 1.390 . S
C766 C765 1.390 . S
C766 C767 1.394 . S
C766 C772 1.465 . S
C767 C762 1.399 . S
C767 C766 1.394 . S
C767 C768 1.516 . S
C768 C767 1.516 . S
C768 C769 1.502 . S
C768 C770 1.561 . S
C768 C771 1.526 . S
C769 H753 0.959 . S
C769 H754 0.959 . S
C769 H755 0.961 . S
C769 C768 1.502 . S
C770 H756 0.960 . S
C770 H757 0.961 . S
C770 H758 0.959 . S
C770 C768 1.561 . S
C771 C768 1.526 . S
C771 C772 1.396 . S
C771 C776 1.390 . S
C772 C766 1.465 . S
C772 C771 1.396 . S
C772 C773 1.399 . S
C773 H759 0.929 . S
C773 C772 1.399 . S
C773 C774 1.385 . S
C774 H760 0.931 . S
C774 C773 1.385 . S
C774 C775 1.389 . S
C775 C774 1.389 . S
C775 C776 1.387 . S
C776 H761 0.930 . S
C776 C771 1.390 . S
C776 C775 1.387 . S
H777 C789 0.930 . S
H778 C791 0.930 . S
H779 C792 0.930 . S
H780 C796 0.959 . S
H781 C796 0.959 . S
H782 C796 0.961 . S
H783 C797 0.960 . S
H784 C797 0.961 . S
H785 C797 0.959 . S
H786 C800 0.929 . S
H787 C801 0.931 . S
H788 C803 0.930 . S
C789 H777 0.930 . S
C789 C790 1.399 . S
C789 C794 1.399 . S
C790 C789 1.399 . S
C790 C791 1.376 . S
C791 H778 0.930 . S
C791 C790 1.376 . S
C791 C792 1.388 . S
C792 H779 0.930 . S
C792 C791 1.388 . S
C792 C793 1.390 . S
C793 C792 1.390 . S
C793 C794 1.394 . S
C793 C799 1.465 . S
C794 C789 1.399 . S
C794 C793 1.394 . S
C794 C795 1.516 . S
C795 C794 1.516 . S
C795 C796 1.502 . S
C795 C797 1.561 . S
C795 C798 1.526 . S
C796 H780 0.959 . S
C796 H781 0.959 . S
C796 H782 0.961 . S
C796 C795 1.502 . S
C797 H783 0.960 . S
C797 H784 0.961 . S
C797 H785 0.959 . S
C797 C795 1.561 . S
C798 C795 1.526 . S
C798 C799 1.396 . S
C798 C803 1.390 . S
C799 C793 1.465 . S
C799 C798 1.396 . S
C799 C800 1.399 . S
C800 H786 0.929 . S
C800 C799 1.399 . S
C800 C801 1.385 . S
C801 H787 0.931 . S
C801 C800 1.385 . S
C801 C802 1.389 . S
C802 C801 1.389 . S
C802 C803 1.387 . S
C803 H788 0.930 . S
C803 C798 1.390 . S
C803 C802 1.387 . S
H804 C816 0.930 . S
H805 C818 0.930 . S
H806 C819 0.930 . S
H807 C823 0.959 . S
H808 C823 0.959 . S
H809 C823 0.961 . S
H810 C824 0.960 . S
H811 C824 0.961 . S
H812 C824 0.959 . S
H813 C827 0.929 . S
H814 C828 0.931 . S
H815 C830 0.930 . S
C816 H804 0.930 . S
C816 C817 1.399 . S
C816 C821 1.399 . S
C817 C816 1.399 . S
C817 C818 1.376 . S
C818 H805 0.930 . S
C818 C817 1.376 . S
C818 C819 1.388 . S
C819 H806 0.930 . S
C819 C818 1.388 . S
C819 C820 1.390 . S
C820 C819 1.390 . S
C820 C821 1.394 . S
C820 C826 1.465 . S
C821 C816 1.399 . S
C821 C820 1.394 . S
C821 C822 1.516 . S
C822 C821 1.516 . S
C822 C823 1.502 . S
C822 C824 1.561 . S
C822 C825 1.526 . S
C823 H807 0.959 . S
C823 H808 0.959 . S
C823 H809 0.961 . S
C823 C822 1.502 . S
C824 H810 0.960 . S
C824 H811 0.961 . S
C824 H812 0.959 . S
C824 C822 1.561 . S
C825 C822 1.526 . S
C825 C826 1.396 . S
C825 C830 1.390 . S
C826 C820 1.465 . S
C826 C825 1.396 . S
C826 C827 1.399 . S
C827 H813 0.929 . S
C827 C826 1.399 . S
C827 C828 1.385 . S
C828 H814 0.931 . S
C828 C827 1.385 . S
C828 C829 1.389 . S
C829 C828 1.389 . S
C829 C830 1.387 . S
C830 H815 0.930 . S
C830 C825 1.390 . S
C830 C829 1.387 . S
H831 C843 0.930 . S
H832 C845 0.930 . S
H833 C846 0.930 . S
H834 C850 0.959 . S
H835 C850 0.959 . S
H836 C850 0.961 . S
H837 C851 0.960 . S
H838 C851 0.961 . S
H839 C851 0.959 . S
H840 C854 0.929 . S
H841 C855 0.931 . S
H842 C857 0.930 . S
C843 H831 0.930 . S
C843 C844 1.399 . S
C843 C848 1.399 . S
C844 C843 1.399 . S
C844 C845 1.376 . S
C845 H832 0.930 . S
C845 C844 1.376 . S
C845 C846 1.388 . S
C846 H833 0.930 . S
C846 C845 1.388 . S
C846 C847 1.390 . S
C847 C846 1.390 . S
C847 C848 1.394 . S
C847 C853 1.465 . S
C848 C843 1.399 . S
C848 C847 1.394 . S
C848 C849 1.516 . S
C849 C848 1.516 . S
C849 C850 1.502 . S
C849 C851 1.561 . S
C849 C852 1.526 . S
C850 H834 0.959 . S
C850 H835 0.959 . S
C850 H836 0.961 . S
C850 C849 1.502 . S
C851 H837 0.960 . S
C851 H838 0.961 . S
C851 H839 0.959 . S
C851 C849 1.561 . S
C852 C849 1.526 . S
C852 C853 1.396 . S
C852 C857 1.390 . S
C853 C847 1.465 . S
C853 C852 1.396 . S
C853 C854 1.399 . S
C854 H840 0.929 . S
C854 C853 1.399 . S
C854 C855 1.385 . S
C855 H841 0.931 . S
C855 C854 1.385 . S
C855 C856 1.389 . S
C856 C855 1.389 . S
C856 C857 1.387 . S
C857 H842 0.930 . S
C857 C852 1.390 . S
C857 C856 1.387 . S
H858 C870 0.930 . S
H859 C872 0.930 . S
H860 C873 0.930 . S
H861 C877 0.959 . S
H862 C877 0.959 . S
H863 C877 0.961 . S
H864 C878 0.960 . S
H865 C878 0.961 . S
H866 C878 0.959 . S
H867 C881 0.929 . S
H868 C882 0.931 . S
H869 C884 0.930 1_554 S
C870 H858 0.930 . S
C870 C871 1.399 . S
C870 C875 1.399 . S
C871 C870 1.399 . S
C871 C872 1.376 . S
C872 H859 0.930 . S
C872 C871 1.376 . S
C872 C873 1.388 . S
C873 H860 0.930 . S
C873 C872 1.388 . S
C873 C874 1.390 . S
C874 C873 1.390 . S
C874 C875 1.394 . S
C874 C880 1.465 . S
C875 C870 1.399 . S
C875 C874 1.394 . S
C875 C876 1.473 1_556 S
C876 C875 1.473 1_554 S
C876 C877 1.540 . S
C876 C878 1.587 . S
C876 C879 1.501 1_554 S
C877 H861 0.959 . S
C877 H862 0.959 . S
C877 H863 0.961 . S
C877 C876 1.540 . S
C878 H864 0.960 . S
C878 H865 0.961 . S
C878 H866 0.959 . S
C878 C876 1.587 . S
C879 C876 1.501 1_556 S
C879 C880 1.396 . S
C879 C884 1.390 . S
C880 C874 1.465 . S
C880 C879 1.396 . S
C880 C881 1.399 . S
C881 H867 0.929 . S
C881 C880 1.399 . S
C881 C882 1.385 . S
C882 H868 0.931 . S
C882 C881 1.385 . S
C882 C883 1.389 . S
C883 C882 1.389 . S
C883 C884 1.387 . S
C884 H869 0.930 1_556 S
C884 C879 1.390 . S
C884 C883 1.387 . S
H885 C897 0.930 . S
H886 C899 0.930 . S
H887 C900 0.930 . S
H888 C904 0.959 . S
H889 C904 0.959 . S
H890 C904 0.961 . S
H891 C905 0.960 . S
H892 C905 0.961 . S
H893 C905 0.959 . S
H894 C908 0.929 . S
H895 C909 0.931 . S
H896 C911 0.930 . S
C897 H885 0.930 . S
C897 C898 1.399 . S
C897 C902 1.399 . S
C898 C897 1.399 . S
C898 C899 1.376 . S
C899 H886 0.930 . S
C899 C898 1.376 . S
C899 C900 1.388 . S
C900 H887 0.930 . S
C900 C899 1.388 . S
C900 C901 1.390 . S
C901 C900 1.390 . S
C901 C902 1.394 . S
C901 C907 1.465 . S
C902 C897 1.399 . S
C902 C901 1.394 . S
C902 C903 1.516 . S
C903 C902 1.516 . S
C903 C904 1.502 . S
C903 C905 1.561 . S
C903 C906 1.526 . S
C904 H888 0.959 . S
C904 H889 0.959 . S
C904 H890 0.961 . S
C904 C903 1.502 . S
C905 H891 0.960 . S
C905 H892 0.961 . S
C905 H893 0.959 . S
C905 C903 1.561 . S
C906 C903 1.526 . S
C906 C907 1.396 . S
C906 C911 1.390 . S
C907 C901 1.465 . S
C907 C906 1.396 . S
C907 C908 1.399 . S
C908 H894 0.929 . S
C908 C907 1.399 . S
C908 C909 1.385 . S
C909 H895 0.931 . S
C909 C908 1.385 . S
C909 C910 1.389 . S
C910 C909 1.389 . S
C910 C911 1.387 . S
C911 H896 0.930 . S
C911 C906 1.390 . S
C911 C910 1.387 . S
H912 C924 0.930 . S
H913 C926 0.930 . S
H914 C927 0.930 . S
H915 C931 0.959 . S
H916 C931 0.959 . S
H917 C931 0.961 . S
H918 C932 0.960 . S
H919 C932 0.961 . S
H920 C932 0.959 . S
H921 C935 0.929 . S
H922 C936 0.931 . S
H923 C938 0.930 . S
C924 H912 0.930 . S
C924 C925 1.399 . S
C924 C929 1.399 . S
C925 C924 1.399 . S
C925 C926 1.376 . S
C926 H913 0.930 . S
C926 C925 1.376 . S
C926 C927 1.388 . S
C927 H914 0.930 . S
C927 C926 1.388 . S
C927 C928 1.390 . S
C928 C927 1.390 . S
C928 C929 1.394 . S
C928 C934 1.465 . S
C929 C924 1.399 . S
C929 C928 1.394 . S
C929 C930 1.516 . S
C930 C929 1.516 . S
C930 C931 1.502 . S
C930 C932 1.561 . S
C930 C933 1.526 . S
C931 H915 0.959 . S
C931 H916 0.959 . S
C931 H917 0.961 . S
C931 C930 1.502 . S
C932 H918 0.960 . S
C932 H919 0.961 . S
C932 H920 0.959 . S
C932 C930 1.561 . S
C933 C930 1.526 . S
C933 C934 1.396 . S
C933 C938 1.390 . S
C934 C928 1.465 . S
C934 C933 1.396 . S
C934 C935 1.399 . S
C935 H921 0.929 . S
C935 C934 1.399 . S
C935 C936 1.385 . S
C936 H922 0.931 . S
C936 C935 1.385 . S
C936 C937 1.389 . S
C937 C936 1.389 . S
C937 C938 1.387 . S
C938 H923 0.930 . S
C938 C933 1.390 . S
C938 C937 1.387 . S
H939 C951 0.930 . S
H940 C953 0.930 . S
H941 C954 0.930 . S
H942 C958 0.959 . S
H943 C958 0.959 . S
H944 C958 0.961 . S
H945 C959 0.960 . S
H946 C959 0.961 . S
H947 C959 0.959 . S
H948 C962 0.929 . S
H949 C963 0.931 . S
H950 C965 0.930 . S
C951 H939 0.930 . S
C951 C952 1.399 . S
C951 C956 1.399 . S
C952 C951 1.399 . S
C952 C953 1.376 . S
C953 H940 0.930 . S
C953 C952 1.376 . S
C953 C954 1.388 . S
C954 H941 0.930 . S
C954 C953 1.388 . S
C954 C955 1.390 . S
C955 C954 1.390 . S
C955 C956 1.394 . S
C955 C961 1.465 . S
C956 C951 1.399 . S
C956 C955 1.394 . S
C956 C957 1.516 . S
C957 C956 1.516 . S
C957 C958 1.502 . S
C957 C959 1.561 . S
C957 C960 1.526 . S
C958 H942 0.959 . S
C958 H943 0.959 . S
C958 H944 0.961 . S
C958 C957 1.502 . S
C959 H945 0.960 . S
C959 H946 0.961 . S
C959 H947 0.959 . S
C959 C957 1.561 . S
C960 C957 1.526 . S
C960 C961 1.396 . S
C960 C965 1.390 . S
C961 C955 1.465 . S
C961 C960 1.396 . S
C961 C962 1.399 . S
C962 H948 0.929 . S
C962 C961 1.399 . S
C962 C963 1.385 . S
C963 H949 0.931 . S
C963 C962 1.385 . S
C963 C964 1.389 . S
C964 C963 1.389 . S
C964 C965 1.387 . S
C965 H950 0.930 . S
C965 C960 1.390 . S
C965 C964 1.387 . S
H966 C978 0.930 . S
H967 C980 0.930 . S
H968 C981 0.930 . S
H969 C985 0.959 . S
H970 C985 0.959 . S
H971 C985 0.961 . S
H972 C986 0.960 . S
H973 C986 0.961 . S
H974 C986 0.959 . S
H975 C989 0.929 . S
H976 C990 0.931 . S
H977 C992 0.930 . S
C978 H966 0.930 . S
C978 C979 1.399 . S
C978 C983 1.399 . S
C979 C978 1.399 . S
C979 C980 1.376 . S
C980 H967 0.930 . S
C980 C979 1.376 . S
C980 C981 1.388 . S
C981 H968 0.930 . S
C981 C980 1.388 . S
C981 C982 1.390 . S
C982 C981 1.390 . S
C982 C983 1.394 . S
C982 C988 1.465 . S
C983 C978 1.399 . S
C983 C982 1.394 . S
C983 C984 1.516 . S
C984 C983 1.516 . S
C984 C985 1.502 . S
C984 C986 1.561 . S
C984 C987 1.526 . S
C985 H969 0.959 . S
C985 H970 0.959 . S
C985 H971 0.961 . S
C985 C984 1.502 . S
C986 H972 0.960 . S
C986 H973 0.961 . S
C986 H974 0.959 . S
C986 C984 1.561 . S
C987 C984 1.526 . S
C987 C988 1.396 . S
C987 C992 1.390 . S
C988 C982 1.465 . S
C988 C987 1.396 . S
C988 C989 1.399 . S
C989 H975 0.929 . S
C989 C988 1.399 . S
C989 C990 1.385 . S
C990 H976 0.931 . S
C990 C989 1.385 . S
C990 C991 1.389 . S
C991 C990 1.389 . S
C991 C992 1.387 . S
C992 H977 0.930 . S
C992 C987 1.390 . S
C992 C991 1.387 . S
H993 C1005 0.930 . S
H994 C1007 0.930 . S
H995 C1008 0.930 . S
H996 C1012 0.959 . S
H997 C1012 0.959 . S
H998 C1012 0.961 . S
H999 C1013 0.960 . S
H1000 C1013 0.961 . S
H1001 C1013 0.959 . S
H1002 C1016 0.929 . S
H1003 C1017 0.931 . S
H1004 C1019 0.930 . S
C1005 H993 0.930 . S
C1005 C1006 1.399 . S
C1005 C1010 1.399 . S
C1006 C1005 1.399 . S
C1006 C1007 1.376 . S
C1007 H994 0.930 . S
C1007 C1006 1.376 . S
C1007 C1008 1.388 . S
C1008 H995 0.930 . S
C1008 C1007 1.388 . S
C1008 C1009 1.390 . S
C1009 C1008 1.390 . S
C1009 C1010 1.394 . S
C1009 C1015 1.465 . S
C1010 C1005 1.399 . S
C1010 C1009 1.394 . S
C1010 C1011 1.516 . S
C1011 C1010 1.516 . S
C1011 C1012 1.502 . S
C1011 C1013 1.561 . S
C1011 C1014 1.526 . S
C1012 H996 0.959 . S
C1012 H997 0.959 . S
C1012 H998 0.961 . S
C1012 C1011 1.502 . S
C1013 H999 0.960 . S
C1013 H1000 0.961 . S
C1013 H1001 0.959 . S
C1013 C1011 1.561 . S
C1014 C1011 1.526 . S
C1014 C1015 1.396 . S
C1014 C1019 1.390 . S
C1015 C1009 1.465 . S
C1015 C1014 1.396 . S
C1015 C1016 1.399 . S
C1016 H1002 0.929 . S
C1016 C1015 1.399 . S
C1016 C1017 1.385 . S
C1017 H1003 0.931 . S
C1017 C1016 1.385 . S
C1017 C1018 1.389 . S
C1018 C1017 1.389 . S
C1018 C1019 1.387 . S
C1019 H1004 0.930 . S
C1019 C1014 1.390 . S
C1019 C1018 1.387 . S
H1020 C1032 0.930 . S
H1021 C1034 0.930 . S
H1022 C1035 0.930 . S
H1023 C1039 0.959 . S
H1024 C1039 0.959 . S
H1025 C1039 0.961 . S
H1026 C1040 0.960 . S
H1027 C1040 0.961 . S
H1028 C1040 0.959 . S
H1029 C1043 0.929 . S
H1030 C1044 0.931 . S
H1031 C1046 0.930 . S
C1032 H1020 0.930 . S
C1032 C1033 1.399 . S
C1032 C1037 1.399 . S
C1033 C1032 1.399 . S
C1033 C1034 1.376 . S
C1034 H1021 0.930 . S
C1034 C1033 1.376 . S
C1034 C1035 1.388 . S
C1035 H1022 0.930 . S
C1035 C1034 1.388 . S
C1035 C1036 1.390 . S
C1036 C1035 1.390 . S
C1036 C1037 1.394 . S
C1036 C1042 1.465 . S
C1037 C1032 1.399 . S
C1037 C1036 1.394 . S
C1037 C1038 1.516 . S
C1038 C1037 1.516 . S
C1038 C1039 1.502 . S
C1038 C1040 1.561 . S
C1038 C1041 1.526 . S
C1039 H1023 0.959 . S
C1039 H1024 0.959 . S
C1039 H1025 0.961 . S
C1039 C1038 1.502 . S
C1040 H1026 0.960 . S
C1040 H1027 0.961 . S
C1040 H1028 0.959 . S
C1040 C1038 1.561 . S
C1041 C1038 1.526 . S
C1041 C1042 1.396 . S
C1041 C1046 1.390 . S
C1042 C1036 1.465 . S
C1042 C1041 1.396 . S
C1042 C1043 1.399 . S
C1043 H1029 0.929 . S
C1043 C1042 1.399 . S
C1043 C1044 1.385 . S
C1044 H1030 0.931 . S
C1044 C1043 1.385 . S
C1044 C1045 1.389 . S
C1045 C1044 1.389 . S
C1045 C1046 1.387 . S
C1046 H1031 0.930 . S
C1046 C1041 1.390 . S
C1046 C1045 1.387 . S
H1047 C1059 0.930 . S
H1048 C1061 0.930 . S
H1049 C1062 0.930 . S
H1050 C1066 0.959 . S
H1051 C1066 0.959 . S
H1052 C1066 0.961 . S
H1053 C1067 0.960 . S
H1054 C1067 0.961 . S
H1055 C1067 0.959 . S
H1056 C1070 0.929 . S
H1057 C1071 0.931 . S
H1058 C1073 0.930 . S
C1059 H1047 0.930 . S
C1059 C1060 1.399 . S
C1059 C1064 1.399 . S
C1060 C1059 1.399 . S
C1060 C1061 1.376 . S
C1061 H1048 0.930 . S
C1061 C1060 1.376 . S
C1061 C1062 1.388 . S
C1062 H1049 0.930 . S
C1062 C1061 1.388 . S
C1062 C1063 1.390 . S
C1063 C1062 1.390 . S
C1063 C1064 1.394 . S
C1063 C1069 1.465 . S
C1064 C1059 1.399 . S
C1064 C1063 1.394 . S
C1064 C1065 1.516 . S
C1065 C1064 1.516 . S
C1065 C1066 1.502 . S
C1065 C1067 1.561 . S
C1065 C1068 1.526 . S
C1066 H1050 0.959 . S
C1066 H1051 0.959 . S
C1066 H1052 0.961 . S
C1066 C1065 1.502 . S
C1067 H1053 0.960 . S
C1067 H1054 0.961 . S
C1067 H1055 0.959 . S
C1067 C1065 1.561 . S
C1068 C1065 1.526 . S
C1068 C1069 1.396 . S
C1068 C1073 1.390 . S
C1069 C1063 1.465 . S
C1069 C1068 1.396 . S
C1069 C1070 1.399 . S
C1070 H1056 0.929 . S
C1070 C1069 1.399 . S
C1070 C1071 1.385 . S
C1071 H1057 0.931 . S
C1071 C1070 1.385 . S
C1071 C1072 1.389 . S
C1072 C1071 1.389 . S
C1072 C1073 1.387 . S
C1073 H1058 0.930 . S
C1073 C1068 1.390 . S
C1073 C1072 1.387 . S
H1074 C1086 0.930 . S
H1075 C1088 0.930 . S
H1076 C1089 0.930 . S
H1077 C1093 0.959 . S
H1078 C1093 0.959 . S
H1079 C1093 0.961 . S
H1080 C1094 0.960 . S
H1081 C1094 0.961 . S
H1082 C1094 0.959 . S
H1083 C1097 0.929 . S
H1084 C1098 0.931 . S
H1085 C1100 0.930 . S
C1086 H1074 0.930 . S
C1086 C1087 1.399 . S
C1086 C1091 1.399 . S
C1087 C1086 1.399 . S
C1087 C1088 1.376 . S
C1088 H1075 0.930 . S
C1088 C1087 1.376 . S
C1088 C1089 1.388 . S
C1089 H1076 0.930 . S
C1089 C1088 1.388 . S
C1089 C1090 1.390 . S
C1090 C1089 1.390 . S
C1090 C1091 1.394 . S
C1090 C1096 1.465 . S
C1091 C1086 1.399 . S
C1091 C1090 1.394 . S
C1091 C1092 1.516 . S
C1092 C1091 1.516 . S
C1092 C1093 1.502 . S
C1092 C1094 1.561 . S
C1092 C1095 1.526 . S
C1093 H1077 0.959 . S
C1093 H1078 0.959 . S
C1093 H1079 0.961 . S
C1093 C1092 1.502 . S
C1094 H1080 0.960 . S
C1094 H1081 0.961 . S
C1094 H1082 0.959 . S
C1094 C1092 1.561 . S
C1095 C1092 1.526 . S
C1095 C1096 1.396 . S
C1095 C1100 1.390 . S
C1096 C1090 1.465 . S
C1096 C1095 1.396 . S
C1096 C1097 1.399 . S
C1097 H1083 0.929 . S
C1097 C1096 1.399 . S
C1097 C1098 1.385 . S
C1098 H1084 0.931 . S
C1098 C1097 1.385 . S
C1098 C1099 1.389 . S
C1099 C1098 1.389 . S
C1099 C1100 1.387 . S
C1100 H1085 0.930 . S
C1100 C1095 1.390 . S
C1100 C1099 1.387 . S
H1101 C1113 0.930 . S
H1102 C1115 0.930 . S
H1103 C1116 0.930 . S
H1104 C1120 0.959 . S
H1105 C1120 0.959 . S
H1106 C1120 0.961 . S
H1107 C1121 0.960 . S
H1108 C1121 0.961 . S
H1109 C1121 0.959 . S
H1110 C1124 0.929 . S
H1111 C1125 0.931 . S
H1112 C1127 0.930 . S
C1113 H1101 0.930 . S
C1113 C1114 1.399 . S
C1113 C1118 1.399 . S
C1114 C1113 1.399 . S
C1114 C1115 1.376 . S
C1115 H1102 0.930 . S
C1115 C1114 1.376 . S
C1115 C1116 1.388 . S
C1116 H1103 0.930 . S
C1116 C1115 1.388 . S
C1116 C1117 1.390 . S
C1117 C1116 1.390 . S
C1117 C1118 1.394 . S
C1117 C1123 1.465 . S
C1118 C1113 1.399 . S
C1118 C1117 1.394 . S
C1118 C1119 1.516 . S
C1119 C1118 1.516 . S
C1119 C1120 1.502 . S
C1119 C1121 1.561 . S
C1119 C1122 1.526 . S
C1120 H1104 0.959 . S
C1120 H1105 0.959 . S
C1120 H1106 0.961 . S
C1120 C1119 1.502 . S
C1121 H1107 0.960 . S
C1121 H1108 0.961 . S
C1121 H1109 0.959 . S
C1121 C1119 1.561 . S
C1122 C1119 1.526 . S
C1122 C1123 1.396 . S
C1122 C1127 1.390 . S
C1123 C1117 1.465 . S
C1123 C1122 1.396 . S
C1123 C1124 1.399 . S
C1124 H1110 0.929 . S
C1124 C1123 1.399 . S
C1124 C1125 1.385 . S
C1125 H1111 0.931 . S
C1125 C1124 1.385 . S
C1125 C1126 1.389 . S
C1126 C1125 1.389 . S
C1126 C1127 1.387 . S
C1127 H1112 0.930 . S
C1127 C1122 1.390 . S
C1127 C1126 1.387 . S
H1128 C1140 0.930 . S
H1129 C1142 0.930 . S
H1130 C1143 0.930 . S
H1131 C1147 0.959 . S
H1132 C1147 0.959 . S
H1133 C1147 0.961 . S
H1134 C1148 0.960 . S
H1135 C1148 0.961 . S
H1136 C1148 0.959 . S
H1137 C1151 0.929 . S
H1138 C1152 0.931 . S
H1139 C1154 0.930 . S
C1140 H1128 0.930 . S
C1140 C1141 1.399 . S
C1140 C1145 1.399 . S
C1141 C1140 1.399 . S
C1141 C1142 1.376 . S
C1142 H1129 0.930 . S
C1142 C1141 1.376 . S
C1142 C1143 1.388 . S
C1143 H1130 0.930 . S
C1143 C1142 1.388 . S
C1143 C1144 1.390 . S
C1144 C1143 1.390 . S
C1144 C1145 1.394 . S
C1144 C1150 1.465 . S
C1145 C1140 1.399 . S
C1145 C1144 1.394 . S
C1145 C1146 1.516 . S
C1146 C1145 1.516 . S
C1146 C1147 1.502 . S
C1146 C1148 1.561 . S
C1146 C1149 1.526 . S
C1147 H1131 0.959 . S
C1147 H1132 0.959 . S
C1147 H1133 0.961 . S
C1147 C1146 1.502 . S
C1148 H1134 0.960 . S
C1148 H1135 0.961 . S
C1148 H1136 0.959 . S
C1148 C1146 1.561 . S
C1149 C1146 1.526 . S
C1149 C1150 1.396 . S
C1149 C1154 1.390 . S
C1150 C1144 1.465 . S
C1150 C1149 1.396 . S
C1150 C1151 1.399 . S
C1151 H1137 0.929 . S
C1151 C1150 1.399 . S
C1151 C1152 1.385 . S
C1152 H1138 0.931 . S
C1152 C1151 1.385 . S
C1152 C1153 1.389 . S
C1153 C1152 1.389 . S
C1153 C1154 1.387 . S
C1154 H1139 0.930 . S
C1154 C1149 1.390 . S
C1154 C1153 1.387 . S
H1155 C1167 0.930 . S
H1156 C1169 0.930 . S
H1157 C1170 0.930 . S
H1158 C1174 0.959 . S
H1159 C1174 0.959 . S
H1160 C1174 0.961 . S
H1161 C1175 0.960 . S
H1162 C1175 0.961 . S
H1163 C1175 0.959 . S
H1164 C1178 0.929 . S
H1165 C1179 0.931 . S
H1166 C1181 0.930 . S
C1167 H1155 0.930 . S
C1167 C1168 1.399 . S
C1167 C1172 1.399 . S
C1168 C1167 1.399 . S
C1168 C1169 1.376 . S
C1169 H1156 0.930 . S
C1169 C1168 1.376 . S
C1169 C1170 1.388 . S
C1170 H1157 0.930 . S
C1170 C1169 1.388 . S
C1170 C1171 1.390 . S
C1171 C1170 1.390 . S
C1171 C1172 1.394 . S
C1171 C1177 1.465 . S
C1172 C1167 1.399 . S
C1172 C1171 1.394 . S
C1172 C1173 1.516 . S
C1173 C1172 1.516 . S
C1173 C1174 1.502 . S
C1173 C1175 1.561 . S
C1173 C1176 1.526 . S
C1174 H1158 0.959 . S
C1174 H1159 0.959 . S
C1174 H1160 0.961 . S
C1174 C1173 1.502 . S
C1175 H1161 0.960 . S
C1175 H1162 0.961 . S
C1175 H1163 0.959 . S
C1175 C1173 1.561 . S
C1176 C1173 1.526 . S
C1176 C1177 1.396 . S
C1176 C1181 1.390 . S
C1177 C1171 1.465 . S
C1177 C1176 1.396 . S
C1177 C1178 1.399 . S
C1178 H1164 0.929 . S
C1178 C1177 1.399 . S
C1178 C1179 1.385 . S
C1179 H1165 0.931 . S
C1179 C1178 1.385 . S
C1179 C1180 1.389 . S
C1180 C1179 1.389 . S
C1180 C1181 1.387 . S
C1181 H1166 0.930 . S
C1181 C1176 1.390 . S
C1181 C1180 1.387 . S
H1182 C1194 0.930 . S
H1183 C1196 0.930 . S
H1184 C1197 0.930 . S
H1185 C1201 0.959 . S
H1186 C1201 0.959 . S
H1187 C1201 0.961 . S
H1188 C1202 0.960 . S
H1189 C1202 0.961 . S
H1190 C1202 0.959 . S
H1191 C1205 0.929 . S
H1192 C1206 0.931 . S
H1193 C1208 0.930 . S
C1194 H1182 0.930 . S
C1194 C1195 1.399 . S
C1194 C1199 1.399 . S
C1195 C1194 1.399 . S
C1195 C1196 1.376 . S
C1196 H1183 0.930 . S
C1196 C1195 1.376 . S
C1196 C1197 1.388 . S
C1197 H1184 0.930 . S
C1197 C1196 1.388 . S
C1197 C1198 1.390 . S
C1198 C1197 1.390 . S
C1198 C1199 1.394 . S
C1198 C1204 1.465 . S
C1199 C1194 1.399 . S
C1199 C1198 1.394 . S
C1199 C1200 1.516 . S
C1200 C1199 1.516 . S
C1200 C1201 1.502 . S
C1200 C1202 1.561 . S
C1200 C1203 1.526 . S
C1201 H1185 0.959 . S
C1201 H1186 0.959 . S
C1201 H1187 0.961 . S
C1201 C1200 1.502 . S
C1202 H1188 0.960 . S
C1202 H1189 0.961 . S
C1202 H1190 0.959 . S
C1202 C1200 1.561 . S
C1203 C1200 1.526 . S
C1203 C1204 1.396 . S
C1203 C1208 1.390 . S
C1204 C1198 1.465 . S
C1204 C1203 1.396 . S
C1204 C1205 1.399 . S
C1205 H1191 0.929 . S
C1205 C1204 1.399 . S
C1205 C1206 1.385 . S
C1206 H1192 0.931 . S
C1206 C1205 1.385 . S
C1206 C1207 1.389 . S
C1207 C1206 1.389 . S
C1207 C1208 1.387 . S
C1208 H1193 0.930 . S
C1208 C1203 1.390 . S
C1208 C1207 1.387 . S
H1209 C1221 0.930 . S
H1210 C1223 0.930 . S
H1211 C1224 0.930 . S
H1212 C1228 0.959 . S
H1213 C1228 0.959 . S
H1214 C1228 0.961 . S
H1215 C1229 0.960 . S
H1216 C1229 0.961 . S
H1217 C1229 0.959 . S
H1218 C1232 0.929 . S
H1219 C1233 0.931 . S
H1220 C1235 0.930 . S
C1221 H1209 0.930 . S
C1221 C1222 1.399 . S
C1221 C1226 1.399 . S
C1222 C1221 1.399 . S
C1222 C1223 1.376 . S
C1223 H1210 0.930 . S
C1223 C1222 1.376 . S
C1223 C1224 1.388 . S
C1224 H1211 0.930 . S
C1224 C1223 1.388 . S
C1224 C1225 1.390 . S
C1225 C1224 1.390 . S
C1225 C1226 1.394 . S
C1225 C1231 1.465 . S
C1226 C1221 1.399 . S
C1226 C1225 1.394 . S
C1226 C1227 1.516 . S
C1227 C1226 1.516 . S
C1227 C1228 1.502 . S
C1227 C1229 1.561 . S
C1227 C1230 1.526 . S
C1228 H1212 0.959 . S
C1228 H1213 0.959 . S
C1228 H1214 0.961 . S
C1228 C1227 1.502 . S
C1229 H1215 0.960 . S
C1229 H1216 0.961 . S
C1229 H1217 0.959 . S
C1229 C1227 1.561 . S
C1230 C1227 1.526 . S
C1230 C1231 1.396 . S
C1230 C1235 1.390 . S
C1231 C1225 1.465 . S
C1231 C1230 1.396 . S
C1231 C1232 1.399 . S
C1232 H1218 0.929 . S
C1232 C1231 1.399 . S
C1232 C1233 1.385 . S
C1233 H1219 0.931 . S
C1233 C1232 1.385 . S
C1233 C1234 1.389 . S
C1234 C1233 1.389 . S
C1234 C1235 1.387 . S
C1235 H1220 0.930 . S
C1235 C1230 1.390 . S
C1235 C1234 1.387 . S
H1236 C1248 0.930 . S
H1237 C1250 0.930 . S
H1238 C1251 0.930 . S
H1239 C1255 0.959 . S
H1240 C1255 0.959 . S
H1241 C1255 0.961 . S
H1242 C1256 0.960 . S
H1243 C1256 0.961 . S
H1244 C1256 0.959 . S
H1245 C1259 0.929 . S
H1246 C1260 0.931 . S
H1247 C1262 0.930 . S
C1248 H1236 0.930 . S
C1248 C1249 1.399 . S
C1248 C1253 1.399 . S
C1249 C1248 1.399 . S
C1249 C1250 1.376 . S
C1250 H1237 0.930 . S
C1250 C1249 1.376 . S
C1250 C1251 1.388 . S
C1251 H1238 0.930 . S
C1251 C1250 1.388 . S
C1251 C1252 1.390 . S
C1252 C1251 1.390 . S
C1252 C1253 1.394 . S
C1252 C1258 1.465 . S
C1253 C1248 1.399 . S
C1253 C1252 1.394 . S
C1253 C1254 1.516 . S
C1254 C1253 1.516 . S
C1254 C1255 1.502 . S
C1254 C1256 1.561 . S
C1254 C1257 1.526 . S
C1255 H1239 0.959 . S
C1255 H1240 0.959 . S
C1255 H1241 0.961 . S
C1255 C1254 1.502 . S
C1256 H1242 0.960 . S
C1256 H1243 0.961 . S
C1256 H1244 0.959 . S
C1256 C1254 1.561 . S
C1257 C1254 1.526 . S
C1257 C1258 1.396 . S
C1257 C1262 1.390 . S
C1258 C1252 1.465 . S
C1258 C1257 1.396 . S
C1258 C1259 1.399 . S
C1259 H1245 0.929 . S
C1259 C1258 1.399 . S
C1259 C1260 1.385 . S
C1260 H1246 0.931 . S
C1260 C1259 1.385 . S
C1260 C1261 1.389 . S
C1261 C1260 1.389 . S
C1261 C1262 1.387 . S
C1262 H1247 0.930 . S
C1262 C1257 1.390 . S
C1262 C1261 1.387 . S
H1263 C1275 0.930 . S
H1264 C1277 0.930 . S
H1265 C1278 0.930 . S
H1266 C1282 0.959 . S
H1267 C1282 0.959 . S
H1268 C1282 0.961 . S
H1269 C1283 0.960 . S
H1270 C1283 0.961 . S
H1271 C1283 0.959 . S
H1272 C1286 0.929 . S
H1273 C1287 0.931 . S
H1274 C1289 0.930 . S
C1275 H1263 0.930 . S
C1275 C1276 1.399 . S
C1275 C1280 1.399 . S
C1276 C1275 1.399 . S
C1276 C1277 1.376 . S
C1277 H1264 0.930 . S
C1277 C1276 1.376 . S
C1277 C1278 1.388 . S
C1278 H1265 0.930 . S
C1278 C1277 1.388 . S
C1278 C1279 1.390 . S
C1279 C1278 1.390 . S
C1279 C1280 1.394 . S
C1279 C1285 1.465 . S
C1280 C1275 1.399 . S
C1280 C1279 1.394 . S
C1280 C1281 1.516 . S
C1281 C1280 1.516 . S
C1281 C1282 1.502 . S
C1281 C1283 1.561 . S
C1281 C1284 1.526 . S
C1282 H1266 0.959 . S
C1282 H1267 0.959 . S
C1282 H1268 0.961 . S
C1282 C1281 1.502 . S
C1283 H1269 0.960 . S
C1283 H1270 0.961 . S
C1283 H1271 0.959 . S
C1283 C1281 1.561 . S
C1284 C1281 1.526 . S
C1284 C1285 1.396 . S
C1284 C1289 1.390 . S
C1285 C1279 1.465 . S
C1285 C1284 1.396 . S
C1285 C1286 1.399 . S
C1286 H1272 0.929 . S
C1286 C1285 1.399 . S
C1286 C1287 1.385 . S
C1287 H1273 0.931 . S
C1287 C1286 1.385 . S
C1287 C1288 1.389 . S
C1288 C1287 1.389 . S
C1288 C1289 1.387 . S
C1289 H1274 0.930 . S
C1289 C1284 1.390 . S
C1289 C1288 1.387 . S
H1290 C1302 0.930 . S
H1291 C1304 0.930 . S
H1292 C1305 0.930 . S
H1293 C1309 0.959 . S
H1294 C1309 0.959 . S
H1295 C1309 0.961 . S
H1296 C1310 0.960 . S
H1297 C1310 0.961 . S
H1298 C1310 0.959 . S
H1299 C1313 0.929 . S
H1300 C1314 0.931 . S
H1301 C1316 0.930 . S
C1302 H1290 0.930 . S
C1302 C1303 1.399 . S
C1302 C1307 1.399 . S
C1303 C1302 1.399 . S
C1303 C1304 1.376 . S
C1304 H1291 0.930 . S
C1304 C1303 1.376 . S
C1304 C1305 1.388 . S
C1305 H1292 0.930 . S
C1305 C1304 1.388 . S
C1305 C1306 1.390 . S
C1306 C1305 1.390 . S
C1306 C1307 1.394 . S
C1306 C1312 1.465 . S
C1307 C1302 1.399 . S
C1307 C1306 1.394 . S
C1307 C1308 1.516 . S
C1308 C1307 1.516 . S
C1308 C1309 1.502 . S
C1308 C1310 1.561 . S
C1308 C1311 1.526 . S
C1309 H1293 0.959 . S
C1309 H1294 0.959 . S
C1309 H1295 0.961 . S
C1309 C1308 1.502 . S
C1310 H1296 0.960 . S
C1310 H1297 0.961 . S
C1310 H1298 0.959 . S
C1310 C1308 1.561 . S
C1311 C1308 1.526 . S
C1311 C1312 1.396 . S
C1311 C1316 1.390 . S
C1312 C1306 1.465 . S
C1312 C1311 1.396 . S
C1312 C1313 1.399 . S
C1313 H1299 0.929 . S
C1313 C1312 1.399 . S
C1313 C1314 1.385 . S
C1314 H1300 0.931 . S
C1314 C1313 1.385 . S
C1314 C1315 1.389 . S
C1315 C1314 1.389 . S
C1315 C1316 1.387 . S
C1316 H1301 0.930 . S
C1316 C1311 1.390 . S
C1316 C1315 1.387 . S
H1317 C1329 0.930 . S
H1318 C1331 0.930 . S
H1319 C1332 0.930 . S
H1320 C1336 0.959 . S
H1321 C1336 0.959 . S
H1322 C1336 0.961 . S
H1323 C1337 0.960 . S
H1324 C1337 0.961 . S
H1325 C1337 0.959 . S
H1326 C1340 0.929 . S
H1327 C1341 0.931 . S
H1328 C1343 0.930 . S
C1329 H1317 0.930 . S
C1329 C1330 1.399 . S
C1329 C1334 1.399 . S
C1330 C1329 1.399 . S
C1330 C1331 1.376 . S
C1331 H1318 0.930 . S
C1331 C1330 1.376 . S
C1331 C1332 1.388 . S
C1332 H1319 0.930 . S
C1332 C1331 1.388 . S
C1332 C1333 1.390 . S
C1333 C1332 1.390 . S
C1333 C1334 1.394 . S
C1333 C1339 1.465 . S
C1334 C1329 1.399 . S
C1334 C1333 1.394 . S
C1334 C1335 1.516 . S
C1335 C1334 1.516 . S
C1335 C1336 1.502 . S
C1335 C1337 1.561 . S
C1335 C1338 1.526 . S
C1336 H1320 0.959 . S
C1336 H1321 0.959 . S
C1336 H1322 0.961 . S
C1336 C1335 1.502 . S
C1337 H1323 0.960 . S
C1337 H1324 0.961 . S
C1337 H1325 0.959 . S
C1337 C1335 1.561 . S
C1338 C1335 1.526 . S
C1338 C1339 1.396 . S
C1338 C1343 1.390 . S
C1339 C1333 1.465 . S
C1339 C1338 1.396 . S
C1339 C1340 1.399 . S
C1340 H1326 0.929 . S
C1340 C1339 1.399 . S
C1340 C1341 1.385 . S
C1341 H1327 0.931 . S
C1341 C1340 1.385 . S
C1341 C1342 1.389 . S
C1342 C1341 1.389 . S
C1342 C1343 1.387 . S
C1343 H1328 0.930 . S
C1343 C1338 1.390 . S
C1343 C1342 1.387 . S
C505 C390 1.316 . S
C493 C8 1.327 . S
C532 C404 1.330 . S
C520 C61 1.324 . S
C559 C419 1.270 . S
C547 C107 1.320 . S
C574 C139 1.278 . S
C586 C377 1.263 . S
C601 C192 1.273 . S
C613 C376 1.292 1_556 S
C628 C238 1.272 . S
C640 C391 1.291 . S
C667 C405 1.309 . S
C655 C284 1.342 . S
C694 C418 1.319 . S
C682 C330 1.253 . S
C709 C100 1.221 . S
C721 C446 1.291 . S
C748 C460 1.339 . S
C736 C160 1.322 . S
C763 C15 1.268 . S
C775 C475 1.301 . S
C802 C432 1.259 . S
C790 C54 1.219 . S
C817 C291 1.315 . S
C829 C433 1.263 . S
C844 C337 1.286 . S
C856 C447 1.280 . S
C883 C461 1.297 . S
C871 C199 1.273 . S
C898 C245 1.319 . S
C910 C474 1.355 . S
C937 C399 1.725 . S
C925 C1 1.699 . S
C964 C417 1.649 . S
C952 C68 1.705 . S
C979 C114 1.728 . S
C991 C375 1.693 . S
C1006 C146 1.741 . S
C1018 C385 1.722 . S
C1033 C185 1.624 . S
C1045 C413 1.638 . S
C1072 C371 1.643 . S
C1060 C231 1.658 . S
C1099 C389 1.586 . S
C1087 C277 1.644 . S
C1126 C403 1.634 . S
C1114 C323 1.654 . S
C1153 C455 1.636 . S
C1141 C93 1.652 . S
C1180 C473 1.630 . S
C1168 C153 1.643 . S
C1195 C22 1.645 . S
C1207 C427 1.617 . S
C1234 C441 1.644 . S
C1222 C47 1.642 . S
C1261 C469 1.713 . S
C1249 C298 1.714 . S
C1276 C344 1.690 . S
C1288 C431 1.681 . S
C1315 C445 1.700 . S
C1303 C206 1.684 . S
C1342 C459 1.693 . S
C1330 C252 1.717 . S
