# Generated by pormake.
# Topology pto, (3,4)-cn, num edge types: 1
# Building blocks:
#     Node 0, Type 0, BuildingBlock: OLANEW_clean_sbu_2, # of connection points: 3
#     Node 1, Type 0, BuildingBlock: OLANEW_clean_sbu_2, # of connection points: 3
#     Node 2, Type 0, BuildingBlock: OLANEW_clean_sbu_2, # of connection points: 3
#     Node 3, Type 0, BuildingBlock: OLANEW_clean_sbu_2, # of connection points: 3
#     Node 4, Type 0, BuildingBlock: OLANEW_clean_sbu_2, # of connection points: 3
#     Node 5, Type 0, BuildingBlock: OLANEW_clean_sbu_2, # of connection points: 3
#     Node 6, Type 0, BuildingBlock: OLANEW_clean_sbu_2, # of connection points: 3
#     Node 7, Type 0, BuildingBlock: OLANEW_clean_sbu_2, # of connection points: 3
#     Node 8, Type 1, BuildingBlock: NAHDIM_clean_linker_0, # of connection points: 4
#     Node 9, Type 1, BuildingBlock: NAHDIM_clean_linker_0, # of connection points: 4
#     Node 10, Type 1, BuildingBlock: NAHDIM_clean_linker_0, # of connection points: 4
#     Node 11, Type 1, BuildingBlock: NAHDIM_clean_linker_0, # of connection points: 4
#     Node 12, Type 1, BuildingBlock: NAHDIM_clean_linker_0, # of connection points: 4
#     Node 13, Type 1, BuildingBlock: NAHDIM_clean_linker_0, # of connection points: 4
#     Edge 14, Type (0, 1), None
#     Edge 15, Type (0, 1), None
#     Edge 16, Type (0, 1), None
#     Edge 17, Type (0, 1), None
#     Edge 18, Type (0, 1), None
#     Edge 19, Type (0, 1), None
#     Edge 20, Type (0, 1), None
#     Edge 21, Type (0, 1), None
#     Edge 22, Type (0, 1), None
#     Edge 23, Type (0, 1), None
#     Edge 24, Type (0, 1), None
#     Edge 25, Type (0, 1), None
#     Edge 26, Type (0, 1), None
#     Edge 27, Type (0, 1), None
#     Edge 28, Type (0, 1), None
#     Edge 29, Type (0, 1), None
#     Edge 30, Type (0, 1), None
#     Edge 31, Type (0, 1), None
#     Edge 32, Type (0, 1), None
#     Edge 33, Type (0, 1), None
#     Edge 34, Type (0, 1), None
#     Edge 35, Type (0, 1), None
#     Edge 36, Type (0, 1), None
#     Edge 37, Type (0, 1), None
# Relax obj value: 0.015
# Max RMSD: 0.129
# Mean RMSD: 0.066
data_MOF--net-pto--node1-OLANEW_clean_sbu_2--node2-NAHDIM_clean_linker_0--edge1-none
_symmetry_space_group_name_H-M    P1
_symmetry_Int_Tables_number       1
_symmetry_cell_setting            triclinic
loop_
_symmetry_equiv_pos_as_xyz
'x, y, z'
_cell_length_a     37.039405
_cell_length_b     37.10806
_cell_length_c     34.256268
_cell_angle_alpha  92.442088
_cell_angle_beta   91.480742
_cell_angle_gamma 103.96262
loop_
_atom_site_label
_atom_site_type_symbol
_atom_site_fract_x
_atom_site_fract_y
_atom_site_fract_z
_atom_type_partial_charge
O0 O 0.31008 0.26765 0.22219 0.0
Cd1 Cd 0.36395 0.24274 0.23915 0.0
O2 O 0.28349 0.31269 0.20873 0.0
Cd3 Cd 0.28689 0.37123 0.20012 0.0
O4 O 0.2914 0.43023 0.1935 0.0
C5 C 0.29755 0.45287 0.22319 0.0
O6 O 0.30129 0.44061 0.25809 0.0
C7 C 0.31284 0.30169 0.21563 0.0
C8 C 0.39846 0.27645 0.30924 0.0
O9 O 0.41073 0.28841 0.27639 0.0
O10 O 0.37083 0.24796 0.30887 0.0
O11 O 0.2571 0.9047 0.87021 0.0
Cd12 Cd 0.21458 0.89622 0.81309 0.0
O13 O 0.2955 0.87667 0.84022 0.0
Cd14 Cd 0.25667 0.85255 0.7918 0.0
O15 O 0.22232 0.80876 0.75301 0.0
C16 C 0.22109 0.77582 0.76266 0.0
O17 O 0.23954 0.77072 0.7944 0.0
C18 C 0.28787 0.89517 0.86963 0.0
C19 C 0.24545 0.95085 0.76204 0.0
O20 O 0.22313 0.957 0.78804 0.0
O21 O 0.25225 0.91858 0.75943 0.0
O22 O 0.86706 0.81841 0.28313 0.0
Cd23 Cd 0.91789 0.78659 0.28191 0.0
O24 O 0.82778 0.84936 0.30491 0.0
Cd25 Cd 0.80008 0.84416 0.24737 0.0
O26 O 0.76753 0.84545 0.1938 0.0
C27 C 0.78188 0.86541 0.1663 0.0
O28 O 0.81609 0.88594 0.1711 0.0
C29 C 0.85541 0.83553 0.3113 0.0
C30 C 0.8914 0.71203 0.25833 0.0
O31 O 0.90239 0.73662 0.23324 0.0
O32 O 0.89303 0.72252 0.29458 0.0
O33 O 0.82268 0.28799 0.79755 0.0
Cd34 Cd 0.81605 0.26499 0.72907 0.0
O35 O 0.81616 0.32622 0.84595 0.0
Cd36 Cd 0.79774 0.37421 0.86906 0.0
O37 O 0.76866 0.41589 0.88833 0.0
C38 C 0.75503 0.43324 0.86287 0.0
O39 O 0.75903 0.42584 0.8256 0.0
C40 C 0.81162 0.31613 0.80988 0.0
C41 C 0.76617 0.19543 0.72195 0.0
O42 O 0.8005 0.19881 0.73162 0.0
O43 O 0.75531 0.22483 0.71483 0.0
O44 O 0.8093 0.81195 0.65102 0.0
Cd45 Cd 0.79545 0.75583 0.60802 0.0
O46 O 0.7556 0.79073 0.67771 0.0
Cd47 Cd 0.71516 0.79483 0.722 0.0
O48 O 0.67656 0.79378 0.76934 0.0
C49 C 0.64671 0.7682 0.76897 0.0
O50 O 0.63983 0.74248 0.74037 0.0
C51 C 0.78582 0.81559 0.67635 0.0
C52 C 0.81385 0.69762 0.64638 0.0
O53 O 0.83759 0.71894 0.62574 0.0
O54 O 0.78153 0.7041 0.64926 0.0
O55 O 0.8691 0.29268 0.25939 0.0
Cd56 Cd 0.80697 0.25401 0.24217 0.0
O57 O 0.86079 0.34249 0.23117 0.0
Cd58 Cd 0.80673 0.31342 0.20448 0.0
O59 O 0.76103 0.28167 0.16568 0.0
C60 C 0.72589 0.27697 0.16747 0.0
O61 O 0.70455 0.25549 0.14026 0.0
C62 C 0.88109 0.32659 0.25146 0.0
C63 C 0.7791 0.21019 0.304 0.0
O64 O 0.77488 0.24334 0.30195 0.0
O65 O 0.79675 0.19769 0.27695 0.0
O66 O 0.30778 0.46044 0.84095 0.0
Cd67 Cd 0.25966 0.45032 0.7887 0.0
O68 O 0.32628 0.40957 0.82582 0.0
Cd69 Cd 0.28801 0.39284 0.77504 0.0
O70 O 0.24643 0.36514 0.73005 0.0
C71 C 0.22554 0.33393 0.73782 0.0
O72 O 0.23002 0.31984 0.77161 0.0
C73 C 0.32854 0.43853 0.84793 0.0
C74 C 0.19179 0.41113 0.81577 0.0
O75 O 0.20132 0.44672 0.81927 0.0
O76 O 0.21409 0.39422 0.79933 0.0
O77 O 0.46013 0.93322 0.30319 0.0
Cd78 Cd 0.438 0.98724 0.32458 0.0
O79 O 0.40276 0.90676 0.28333 0.0
Cd80 Cd 0.35919 0.85921 0.26069 0.0
O81 O 0.31363 0.81291 0.23954 0.0
C82 C 0.29521 0.81492 0.20822 0.0
O83 O 0.30444 0.84473 0.18782 0.0
C84 C 0.43642 0.90505 0.28834 0.0
C85 C 0.41325 0.97604 0.40005 0.0
O86 O 0.3909 0.96507 0.37041 0.0
O87 O 0.44697 0.99304 0.39415 0.0
C88 C 0.94017 0.32459 0.28892 0.0
C89 C 0.91934 0.34831 0.26565 0.0
C90 C 0.96844 0.39203 0.23232 0.0
C91 C 0.98482 0.41339 0.26599 0.0
C92 C 0.01524 0.44411 0.26327 0.0
C93 C 0.02915 0.45412 0.22614 0.0
C94 C 0.01268 0.43279 0.19223 0.0
C95 C 0.98268 0.40189 0.19586 0.0
C96 C 0.03253 0.46592 0.30012 0.0
C97 C 0.02664 0.4428 0.15216 0.0
C98 C 0.3394 0.51098 0.20253 0.0
C99 C 0.30121 0.49356 0.2182 0.0
C100 C 0.23817 0.49842 0.19873 0.0
C101 C 0.2157 0.50396 0.16732 0.0
C102 C 0.17888 0.50621 0.17251 0.0
C103 C 0.16442 0.5036 0.2104 0.0
C104 C 0.18648 0.49662 0.24219 0.0
C105 C 0.22305 0.49369 0.236 0.0
C106 C 0.15583 0.5125 0.13762 0.0
C107 C 0.17177 0.49339 0.28289 0.0
C108 C 0.20791 0.74586 0.22206 0.0
C109 C 0.18859 0.73199 0.18655 0.0
C110 C 0.15499 0.70456 0.18612 0.0
C111 C 0.14032 0.69098 0.22183 0.0
C112 C 0.15861 0.70634 0.25763 0.0
C113 C 0.19221 0.73361 0.25722 0.0
C114 C 0.13584 0.68902 0.14748 0.0
C115 C 0.14341 0.69286 0.29625 0.0
C116 C 0.83621 0.66519 0.2309 0.0
C117 C 0.87669 0.67179 0.24554 0.0
C118 C 0.93197 0.65582 0.21847 0.0
C119 C 0.9481 0.6468 0.18416 0.0
C120 C 0.98374 0.63999 0.18491 0.0
C121 C 0.00358 0.64193 0.22109 0.0
C122 C 0.98757 0.6512 0.256 0.0
C123 C 0.95197 0.65821 0.25437 0.0
C124 C 0.00017 0.63062 0.14705 0.0
C125 C 0.00804 0.65347 0.29504 0.0
C126 C 0.0607 0.48711 0.22283 0.0
C127 C 0.09649 0.48137 0.21938 0.0
C128 C 0.12746 0.51131 0.21705 0.0
C129 C 0.1229 0.54809 0.21924 0.0
C130 C 0.15368 0.57887 0.21892 0.0
C131 C 0.14894 0.6149 0.22002 0.0
C132 C 0.11319 0.62162 0.22125 0.0
C133 C 0.1081 0.65819 0.22168 0.0
C134 C 0.07219 0.66393 0.22197 0.0
C135 C 0.04096 0.63394 0.22235 0.0
C136 C 0.04554 0.59719 0.22297 0.0
C137 C 0.01483 0.56644 0.22435 0.0
C138 C 0.01968 0.53039 0.22448 0.0
C139 C 0.05542 0.52365 0.22303 0.0
C140 C 0.08671 0.55423 0.22155 0.0
C141 C 0.08181 0.59104 0.22201 0.0
C142 C 0.28198 0.75134 0.17736 0.0
C143 C 0.26475 0.7824 0.19336 0.0
O144 O 0.9393 0.36169 0.23346 0.0
O145 O 0.89735 0.66216 0.21544 0.0
O146 O 0.24189 0.7703 0.22396 0.0
O147 O 0.2741 0.49824 0.19163 0.0
H148 H 0.91519 0.37192 0.28466 0.0
H149 H 0.96809 0.34126 0.2992 0.0
H150 H 0.94391 0.30054 0.27037 0.0
H151 H 0.92444 0.31421 0.31501 0.0
H152 H 0.97434 0.40626 0.29452 0.0
H153 H 0.96997 0.38528 0.17005 0.0
H154 H 0.0631 0.46882 0.30117 0.0
H155 H 0.02076 0.45263 0.32695 0.0
H156 H 0.02776 0.49433 0.30008 0.0
H157 H 0.00924 0.4249 0.12849 0.0
H158 H 0.05567 0.43984 0.15018 0.0
H159 H 0.027 0.47229 0.14734 0.0
H160 H 0.29954 0.50833 0.24679 0.0
H161 H 0.36185 0.50767 0.22324 0.0
H162 H 0.34228 0.54118 0.19914 0.0
H163 H 0.34297 0.49783 0.17358 0.0
H164 H 0.22736 0.50703 0.1386 0.0
H165 H 0.23965 0.48832 0.2605 0.0
H166 H 0.12751 0.49368 0.1375 0.0
H167 H 0.16884 0.5079 0.10957 0.0
H168 H 0.15273 0.54153 0.13945 0.0
H169 H 0.19266 0.48872 0.30472 0.0
H170 H 0.14665 0.46995 0.28306 0.0
H171 H 0.16329 0.51916 0.29194 0.0
H172 H 0.24871 0.79184 0.16961 0.0
H173 H 0.19985 0.74176 0.15906 0.0
H174 H 0.207 0.74478 0.28447 0.0
H175 H 0.136 0.6592 0.14348 0.0
H176 H 0.14953 0.70399 0.12235 0.0
H177 H 0.10631 0.6907 0.14733 0.0
H178 H 0.15925 0.70968 0.32153 0.0
H179 H 0.14465 0.66346 0.29884 0.0
H180 H 0.11374 0.69385 0.29764 0.0
H181 H 0.87695 0.65371 0.2706 0.0
H182 H 0.8188 0.67243 0.25453 0.0
H183 H 0.82515 0.63539 0.22173 0.0
H184 H 0.83394 0.68222 0.20542 0.0
H185 H 0.93257 0.64517 0.15662 0.0
H186 H 0.94009 0.66548 0.28122 0.0
H187 H 0.00419 0.60194 0.14739 0.0
H188 H 0.02795 0.64977 0.14398 0.0
H189 H 0.98215 0.63249 0.12116 0.0
H190 H 0.9912 0.65953 0.31974 0.0
H191 H 0.03423 0.67565 0.29518 0.0
H192 H 0.01577 0.62683 0.29976 0.0
H193 H 0.10025 0.45324 0.21818 0.0
H194 H 0.18188 0.57551 0.21788 0.0
H195 H 0.17372 0.63739 0.21959 0.0
H196 H 0.06849 0.69205 0.22174 0.0
H197 H 0.98666 0.56991 0.22538 0.0
H198 H 0.995 0.50783 0.22544 0.0
H199 H 0.29758 0.74125 0.20101 0.0
H200 H 0.30132 0.76168 0.1538 0.0
H201 H 0.26011 0.72745 0.16481 0.0
C202 C 0.16463 0.3663 0.8652 0.0
C203 C 0.15611 0.38936 0.83179 0.0
C204 C 0.10928 0.42614 0.82598 0.0
C205 C 0.10409 0.42195 0.78505 0.0
C206 C 0.07612 0.43511 0.76594 0.0
C207 C 0.05326 0.45308 0.78812 0.0
C208 C 0.05915 0.45819 0.82916 0.0
C209 C 0.08716 0.44468 0.84748 0.0
C210 C 0.07086 0.42976 0.72208 0.0
C211 C 0.03557 0.47755 0.85375 0.0
C212 C 0.75623 0.31475 0.76663 0.0
C213 C 0.79422 0.33788 0.78192 0.0
C214 C 0.85014 0.37292 0.75122 0.0
C215 C 0.86396 0.39664 0.78419 0.0
C216 C 0.89847 0.42251 0.78383 0.0
C217 C 0.91984 0.42456 0.75001 0.0
C218 C 0.90608 0.40082 0.71677 0.0
C219 C 0.87125 0.37543 0.71778 0.0
C220 C 0.91221 0.44754 0.81977 0.0
C221 C 0.92825 0.40231 0.68031 0.0
C222 C 0.87987 0.64177 0.6653 0.0
C223 C 0.88442 0.6372 0.70557 0.0
C224 C 0.91436 0.62401 0.7201 0.0
C225 C 0.93974 0.61435 0.69381 0.0
C226 C 0.93486 0.61826 0.65327 0.0
C227 C 0.90504 0.63207 0.63961 0.0
C228 C 0.91892 0.62043 0.76358 0.0
C229 C 0.9612 0.60789 0.62439 0.0
C230 C 0.22302 0.71881 0.72331 0.0
C231 C 0.19785 0.74294 0.73919 0.0
C232 C 0.13955 0.69803 0.75391 0.0
C233 C 0.11666 0.68383 0.78418 0.0
C234 C 0.08275 0.6576 0.77659 0.0
C235 C 0.0721 0.64426 0.73763 0.0
C236 C 0.09494 0.65875 0.70669 0.0
C237 C 0.12821 0.68589 0.71508 0.0
C238 C 0.05849 0.6441 0.81034 0.0
C239 C 0.08439 0.64533 0.66478 0.0
C240 C 0.02251 0.46574 0.76874 0.0
C241 C 0.98761 0.44071 0.76475 0.0
C242 C 0.95662 0.45153 0.74973 0.0
C243 C 0.96043 0.48823 0.73783 0.0
C244 C 0.92983 0.5 0.72253 0.0
C245 C 0.93356 0.53654 0.71222 0.0
C246 C 0.9679 0.56287 0.71742 0.0
C247 C 0.97161 0.60048 0.70873 0.0
C248 C 0.00596 0.62608 0.71507 0.0
C249 C 0.03712 0.61512 0.72941 0.0
C250 C 0.03419 0.57745 0.73743 0.0
C251 C 0.06516 0.56523 0.75102 0.0
C252 C 0.06155 0.52855 0.76082 0.0
C253 C 0.02687 0.50262 0.75713 0.0
C254 C 0.99561 0.51397 0.74198 0.0
C255 C 0.99929 0.5514 0.73203 0.0
C256 C 0.7918 0.63601 0.67666 0.0
C257 C 0.82514 0.66842 0.66972 0.0
O258 O 0.13521 0.41303 0.84599 0.0
O259 O 0.17232 0.72284 0.7638 0.0
O260 O 0.85182 0.65522 0.64983 0.0
O261 O 0.81697 0.34716 0.75058 0.0
H262 H 0.14011 0.36948 0.80867 0.0
H263 H 0.13821 0.35041 0.87709 0.0
H264 H 0.18116 0.38459 0.88917 0.0
H265 H 0.18044 0.34612 0.85456 0.0
H266 H 0.12171 0.4086 0.76783 0.0
H267 H 0.09165 0.44813 0.87895 0.0
H268 H 0.04249 0.41238 0.71442 0.0
H269 H 0.0916 0.4162 0.70882 0.0
H270 H 0.0732 0.45709 0.70907 0.0
H271 H 0.04405 0.47974 0.88527 0.0
H272 H 0.00594 0.46209 0.85032 0.0
H273 H 0.03764 0.50596 0.84355 0.0
H274 H 0.78925 0.36336 0.79679 0.0
H275 H 0.7374 0.30706 0.79128 0.0
H276 H 0.75894 0.28905 0.75052 0.0
H277 H 0.74339 0.33117 0.74646 0.0
H278 H 0.84814 0.39524 0.81039 0.0
H279 H 0.86045 0.35707 0.69249 0.0
H280 H 0.9379 0.4412 0.83196 0.0
H281 H 0.8913 0.4441 0.84285 0.0
H282 H 0.91939 0.47708 0.81189 0.0
H283 H 0.91395 0.38158 0.6571 0.0
H284 H 0.95591 0.39714 0.68749 0.0
H285 H 0.9331 0.43051 0.66873 0.0
H286 H 0.8367 0.68252 0.69817 0.0
H287 H 0.86486 0.64376 0.72594 0.0
H288 H 0.90124 0.63543 0.60861 0.0
H289 H 0.91505 0.59068 0.76989 0.0
H290 H 0.8986 0.63185 0.78042 0.0
H291 H 0.94752 0.63519 0.774 0.0
H292 H 0.95212 0.61014 0.59361 0.0
H293 H 0.96344 0.57897 0.62846 0.0
H294 H 0.98939 0.62649 0.62981 0.0
H295 H 0.18341 0.75308 0.71458 0.0
H296 H 0.24438 0.7353 0.70465 0.0
H297 H 0.20659 0.69463 0.70522 0.0
H298 H 0.23723 0.70813 0.74765 0.0
H299 H 0.12547 0.69358 0.814 0.0
H300 H 0.14527 0.69699 0.69119 0.0
H301 H 0.06004 0.61536 0.81637 0.0
H302 H 0.02895 0.64347 0.80301 0.0
H303 H 0.06738 0.6619 0.83745 0.0
H304 H 0.10717 0.65595 0.64467 0.0
H305 H 0.05952 0.65486 0.65522 0.0
H306 H 0.07699 0.61447 0.6622 0.0
H307 H 0.98428 0.41271 0.77457 0.0
H308 H 0.90258 0.48111 0.71848 0.0
H309 H 0.90903 0.54403 0.70067 0.0
H310 H 0.00835 0.65506 0.70921 0.0
H311 H 0.09251 0.584 0.75463 0.0
H312 H 0.08622 0.52085 0.77164 0.0
H313 H 0.77079 0.64586 0.694 0.0
H314 H 0.80103 0.61459 0.69329 0.0
H315 H 0.77864 0.62293 0.64835 0.0
C316 C 0.16413 0.33433 0.70749 0.0
C317 C 0.1951 0.31364 0.70945 0.0
C318 C 0.22247 0.28216 0.6592 0.0
C319 C 0.25255 0.27311 0.67871 0.0
C320 C 0.2666 0.24326 0.66491 0.0
C321 C 0.24954 0.22146 0.6314 0.0
C322 C 0.21912 0.23064 0.61166 0.0
C323 C 0.20655 0.26151 0.62537 0.0
C324 C 0.29953 0.23491 0.68636 0.0
C325 C 0.19944 0.20754 0.57654 0.0
C326 C 0.2908 0.9688 0.70844 0.0
C327 C 0.26501 0.98176 0.73745 0.0
C328 C 0.24482 0.02855 0.69941 0.0
C329 C 0.21723 0.0338 0.67318 0.0
C330 C 0.22282 0.06562 0.65116 0.0
C331 C 0.25669 0.0931 0.65609 0.0
C332 C 0.28394 0.08897 0.6841 0.0
C333 C 0.27788 0.05667 0.70526 0.0
C334 C 0.19315 0.06929 0.62164 0.0
C335 C 0.32005 0.11819 0.69079 0.0
C336 C 0.39975 0.02875 0.47173 0.0
C337 C 0.36822 0.03339 0.45061 0.0
C338 C 0.35333 0.06414 0.45891 0.0
C339 C 0.37064 0.09104 0.48841 0.0
C340 C 0.40307 0.08708 0.50877 0.0
C341 C 0.41703 0.05583 0.50028 0.0
C342 C 0.31882 0.0677 0.43654 0.0
C343 C 0.42276 0.11568 0.5398 0.0
C344 C 0.43725 0.3354 0.34292 0.0
C345 C 0.41549 0.29524 0.3475 0.0
C346 C 0.37867 0.27047 0.40204 0.0
C347 C 0.34207 0.24948 0.40369 0.0
C348 C 0.3323 0.22205 0.43106 0.0
C349 C 0.35966 0.21684 0.4585 0.0
C350 C 0.39638 0.23952 0.45816 0.0
C351 C 0.40557 0.26593 0.42963 0.0
C352 C 0.29308 0.19789 0.42972 0.0
C353 C 0.42609 0.23542 0.48745 0.0
C354 C 0.26267 0.18832 0.6181 0.0
C355 C 0.25296 0.15657 0.6399 0.0
C356 C 0.26512 0.12469 0.62992 0.0
C357 C 0.28678 0.12382 0.59669 0.0
C358 C 0.29881 0.09186 0.58546 0.0
C359 C 0.32088 0.09147 0.55335 0.0
C360 C 0.33161 0.12296 0.53105 0.0
C361 C 0.35449 0.12296 0.49868 0.0
C362 C 0.36319 0.15402 0.47597 0.0
C363 C 0.35062 0.18584 0.48537 0.0
C364 C 0.3293 0.18711 0.51887 0.0
C365 C 0.31805 0.21937 0.53063 0.0
C366 C 0.29653 0.22001 0.56331 0.0
C367 C 0.28512 0.18829 0.58524 0.0
C368 C 0.29689 0.15576 0.57436 0.0
C369 C 0.31922 0.15526 0.54136 0.0
C370 C 0.41499 0.93556 0.4553 0.0
C371 C 0.40054 0.96802 0.44073 0.0
O372 O 0.20858 0.31086 0.67238 0.0
O373 O 0.38741 0.29493 0.37353 0.0
O374 O 0.41446 0.99885 0.4657 0.0
O375 O 0.23871 0.99583 0.71768 0.0
H376 H 0.18267 0.28541 0.71984 0.0
H377 H 0.14124 0.31882 0.68717 0.0
H378 H 0.17477 0.36267 0.69678 0.0
H379 H 0.15257 0.33673 0.73685 0.0
H380 H 0.26543 0.28965 0.7044 0.0
H381 H 0.18342 0.26895 0.61045 0.0
H382 H 0.28998 0.20936 0.70272 0.0
H383 H 0.31338 0.25793 0.70752 0.0
H384 H 0.3203 0.22976 0.66537 0.0
H385 H 0.17309 0.21504 0.56823 0.0
H386 H 0.19307 0.17752 0.58249 0.0
H387 H 0.21784 0.21184 0.55125 0.0
H388 H 0.28171 0.00342 0.75845 0.0
H389 H 0.31205 0.95778 0.72432 0.0
H390 H 0.30572 0.99237 0.69154 0.0
H391 H 0.27445 0.94679 0.68754 0.0
H392 H 0.19168 0.01221 0.66906 0.0
H393 H 0.29943 0.05359 0.72581 0.0
H394 H 0.20458 0.07076 0.59194 0.0
H395 H 0.1846 0.09555 0.62809 0.0
H396 H 0.16816 0.04565 0.62156 0.0
H397 H 0.33623 0.1132 0.71691 0.0
H398 H 0.3145 0.14622 0.6945 0.0
H399 H 0.3374 0.11821 0.66484 0.0
H400 H 0.36962 0.95935 0.44106 0.0
H401 H 0.35496 0.01317 0.42775 0.0
H402 H 0.44152 0.05224 0.51613 0.0
H403 H 0.29692 0.07034 0.45725 0.0
H404 H 0.30758 0.04351 0.41579 0.0
H405 H 0.32535 0.09333 0.41985 0.0
H406 H 0.44958 0.11039 0.55022 0.0
H407 H 0.40465 0.11538 0.56515 0.0
H408 H 0.42824 0.14394 0.52825 0.0
H409 H 0.43542 0.27948 0.3584 0.0
H410 H 0.44889 0.34816 0.37188 0.0
H411 H 0.41874 0.35207 0.33084 0.0
H412 H 0.46075 0.33624 0.32319 0.0
H413 H 0.32151 0.25363 0.38236 0.0
H414 H 0.4337 0.28308 0.42881 0.0
H415 H 0.27866 0.20418 0.45621 0.0
H416 H 0.29351 0.16806 0.42952 0.0
H417 H 0.27664 0.20244 0.40359 0.0
H418 H 0.45102 0.25913 0.48767 0.0
H419 H 0.43485 0.20946 0.48001 0.0
H420 H 0.41501 0.23325 0.51731 0.0
H421 H 0.2363 0.15693 0.66544 0.0
H422 H 0.29139 0.06672 0.60142 0.0
H423 H 0.32934 0.06609 0.54617 0.0
H424 H 0.38006 0.15343 0.45063 0.0
H425 H 0.32588 0.24452 0.51474 0.0
H426 H 0.28883 0.24567 0.57108 0.0
H427 H 0.40424 0.91025 0.43587 0.0
H428 H 0.40532 0.92931 0.48525 0.0
H429 H 0.44593 0.94242 0.4562 0.0
C430 C 0.43368 0.84243 0.31278 0.0
C431 C 0.44758 0.86917 0.28067 0.0
C432 C 0.45223 0.85303 0.21174 0.0
C433 C 0.47964 0.88433 0.20218 0.0
C434 C 0.50023 0.88355 0.16845 0.0
C435 C 0.49377 0.85049 0.14434 0.0
C436 C 0.4657 0.81906 0.15375 0.0
C437 C 0.44468 0.82113 0.1869 0.0
C438 C 0.52914 0.91795 0.15888 0.0
C439 C 0.45845 0.78293 0.12947 0.0
C440 C 0.77876 0.87372 0.09419 0.0
C441 C 0.7577 0.87085 0.13224 0.0
C442 C 0.69117 0.84215 0.11778 0.0
C443 C 0.663 0.80987 0.12123 0.0
C444 C 0.62574 0.80881 0.11132 0.0
C445 C 0.61647 0.8411 0.098 0.0
C446 C 0.64484 0.8739 0.09427 0.0
C447 C 0.68195 0.8739 0.10351 0.0
C448 C 0.59633 0.7732 0.115 0.0
C449 C 0.63598 0.90907 0.08055 0.0
C450 C 0.59215 0.80657 0.84072 0.0
C451 C 0.56394 0.77874 0.85588 0.0
C452 C 0.54048 0.78766 0.88432 0.0
C453 C 0.54499 0.82514 0.89762 0.0
C454 C 0.5721 0.8534 0.88111 0.0
C455 C 0.59536 0.84368 0.85286 0.0
C456 C 0.51153 0.75689 0.90106 0.0
C457 C 0.57729 0.89369 0.89427 0.0
C458 C 0.30238 0.92588 0.93754 0.0
C459 C 0.3161 0.90584 0.90304 0.0
C460 C 0.35931 0.86891 0.92456 0.0
C461 C 0.3632 0.83251 0.92648 0.0
C462 C 0.3978 0.8252 0.93553 0.0
C463 C 0.42931 0.85522 0.94285 0.0
C464 C 0.4256 0.8922 0.94132 0.0
C465 C 0.39055 0.89872 0.93264 0.0
C466 C 0.40069 0.78545 0.93746 0.0
C467 C 0.45865 0.92485 0.94922 0.0
C468 C 0.5175 0.84814 0.11045 0.0
C469 C 0.5538 0.84485 0.11814 0.0
C470 C 0.57721 0.8408 0.08778 0.0
C471 C 0.56372 0.83843 0.04857 0.0
C472 C 0.58561 0.83167 0.01746 0.0
C473 C 0.57232 0.82996 0.97893 0.0
C474 C 0.53684 0.83552 0.96998 0.0
C475 C 0.52327 0.83431 0.93085 0.0
C476 C 0.48826 0.84085 0.92293 0.0
C477 C 0.46595 0.84797 0.95325 0.0
C478 C 0.47857 0.8482 0.99261 0.0
C479 C 0.45641 0.85421 0.02381 0.0
C480 C 0.46909 0.85434 0.06243 0.0
C481 C 0.50444 0.8485 0.07133 0.0
C482 C 0.52746 0.84301 0.04031 0.0
C483 C 0.51429 0.84227 0.00093 0.0
C484 C 0.64058 0.74789 0.83684 0.0
C485 C 0.62223 0.76433 0.80353 0.0
O486 O 0.43288 0.85261 0.24488 0.0
O487 O 0.32496 0.8738 0.91527 0.0
O488 O 0.61719 0.79899 0.81513 0.0
O489 O 0.72657 0.84122 0.12844 0.0
H490 H 0.47855 0.87462 0.2816 0.0
H491 H 0.44269 0.81625 0.30735 0.0
H492 H 0.40279 0.83556 0.31333 0.0
H493 H 0.44544 0.85496 0.34181 0.0
H494 H 0.48486 0.90942 0.22095 0.0
H495 H 0.42321 0.79726 0.19447 0.0
H496 H 0.55733 0.91362 0.16496 0.0
H497 H 0.52637 0.94292 0.17649 0.0
H498 H 0.52693 0.92333 0.12736 0.0
H499 H 0.43996 0.7597 0.14413 0.0
H500 H 0.48504 0.7753 0.12337 0.0
H501 H 0.44494 0.78622 0.10101 0.0
H502 H 0.7499 0.89742 0.13919 0.0
H503 H 0.80305 0.89816 0.09612 0.0
H504 H 0.76014 0.87724 0.06946 0.0
H505 H 0.78861 0.84811 0.08796 0.0
H506 H 0.67036 0.78539 0.13187 0.0
H507 H 0.70338 0.89881 0.09931 0.0
H508 H 0.57947 0.76583 0.08724 0.0
H509 H 0.57721 0.77722 0.13833 0.0
H510 H 0.6085 0.74962 0.12228 0.0
H511 H 0.66027 0.93342 0.0843 0.0
H512 H 0.6125 0.91529 0.09688 0.0
H513 H 0.6273 0.90519 0.0491 0.0
H514 H 0.59505 0.74521 0.79429 0.0
H515 H 0.56041 0.74992 0.8463 0.0
H516 H 0.61686 0.86504 0.84076 0.0
H517 H 0.51734 0.75605 0.93293 0.0
H518 H 0.51088 0.72919 0.887 0.0
H519 H 0.48357 0.76251 0.89725 0.0
H520 H 0.59756 0.91259 0.87645 0.0
H521 H 0.5874 0.89781 0.92532 0.0
H522 H 0.55021 0.90152 0.89246 0.0
H523 H 0.34072 0.92484 0.89093 0.0
H524 H 0.29582 0.95197 0.92818 0.0
H525 H 0.32441 0.93324 0.96113 0.0
H526 H 0.27713 0.90772 0.94948 0.0
H527 H 0.33889 0.80972 0.92061 0.0
H528 H 0.38782 0.92708 0.93269 0.0
H529 H 0.41288 0.78121 0.96637 0.0
H530 H 0.41962 0.77946 0.9148 0.0
H531 H 0.37323 0.76527 0.93281 0.0
H532 H 0.45182 0.95181 0.94387 0.0
H533 H 0.48184 0.92186 0.93042 0.0
H534 H 0.46867 0.92538 0.98011 0.0
H535 H 0.56409 0.84569 0.1482 0.0
H536 H 0.6132 0.82738 0.02258 0.0
H537 H 0.59041 0.82454 0.95626 0.0
H538 H 0.47817 0.84021 0.89283 0.0
H539 H 0.42892 0.85877 0.01876 0.0
H540 H 0.45089 0.85923 0.08524 0.0
H541 H 0.64551 0.72061 0.827 0.0
H542 H 0.62244 0.74332 0.86232 0.0
H543 H 0.66762 0.76698 0.84658 0.0
C544 C 0.70633 0.15832 0.74598 0.0
C545 C 0.73927 0.1579 0.72011 0.0
C546 C 0.73935 0.12559 0.65687 0.0
C547 C 0.77745 0.12674 0.65606 0.0
C548 C 0.79051 0.10193 0.63141 0.0
C549 C 0.76482 0.07487 0.6077 0.0
C550 C 0.72646 0.07434 0.60761 0.0
C551 C 0.71434 0.10034 0.63169 0.0
C552 C 0.83171 0.10394 0.63167 0.0
C553 C 0.69816 0.04546 0.58332 0.0
C554 C 0.80894 0.8372 0.7439 0.0
C555 C 0.79405 0.84834 0.70539 0.0
C556 C 0.8143 0.90304 0.66627 0.0
C557 C 0.78001 0.89939 0.64597 0.0
C558 C 0.77477 0.92658 0.62063 0.0
C559 C 0.80434 0.95799 0.61549 0.0
C560 C 0.83904 0.96144 0.63537 0.0
C561 C 0.84358 0.93376 0.66037 0.0
C562 C 0.73753 0.92193 0.59951 0.0
C563 C 0.87115 0.99458 0.63049 0.0
C564 C 0.87339 0.90387 0.37626 0.0
C565 C 0.83496 0.89733 0.38236 0.0
C566 C 0.81962 0.92558 0.39816 0.0
C567 C 0.84324 0.96077 0.40912 0.0
C568 C 0.88182 0.96756 0.40278 0.0
C569 C 0.89629 0.93906 0.38612 0.0
C570 C 0.77818 0.91763 0.4037 0.0
C571 C 0.90783 0.00472 0.41423 0.0
C572 C 0.72701 0.19271 0.35016 0.0
C573 C 0.76484 0.18711 0.33799 0.0
C574 C 0.77275 0.12524 0.35105 0.0
C575 C 0.74942 0.08979 0.35341 0.0
C576 C 0.75936 0.06353 0.3771 0.0
C577 C 0.79405 0.07277 0.3981 0.0
C578 C 0.81853 0.10813 0.39449 0.0
C579 C 0.80755 0.13411 0.37108 0.0
C580 C 0.73267 0.02601 0.37995 0.0
C581 C 0.85622 0.11842 0.4154 0.0
C582 C 0.77784 0.04512 0.58617 0.0
C583 C 0.78442 0.01611 0.60778 0.0
C584 C 0.79847 0.98789 0.59045 0.0
C585 C 0.80637 0.98843 0.55033 0.0
C586 C 0.82137 0.96092 0.53222 0.0
C587 C 0.82899 0.96164 0.4927 0.0
C588 C 0.82119 0.98948 0.46956 0.0
C589 C 0.82788 0.9898 0.4291 0.0
C590 C 0.81936 0.01758 0.40684 0.0
C591 C 0.80442 0.04542 0.42394 0.0
C592 C 0.79816 0.04594 0.46454 0.0
C593 C 0.78385 0.07389 0.48293 0.0
C594 C 0.77778 0.0741 0.52289 0.0
C595 C 0.78473 0.04576 0.54575 0.0
C596 C 0.7991 0.01728 0.52781 0.0
C597 C 0.80624 0.01763 0.48729 0.0
C598 C 0.9029 0.81822 0.35689 0.0
C599 C 0.87327 0.84022 0.35197 0.0
O600 O 0.72587 0.14796 0.68205 0.0
O601 O 0.76137 0.14974 0.32826 0.0
O602 O 0.88962 0.87749 0.36082 0.0
O603 O 0.82043 0.8777 0.69159 0.0
H604 H 0.75336 0.13688 0.73146 0.0
H605 H 0.68729 0.13011 0.74528 0.0
H606 H 0.69043 0.17813 0.73551 0.0
H607 H 0.71624 0.16642 0.77674 0.0
H608 H 0.79707 0.14684 0.67478 0.0
H609 H 0.685 0.09994 0.63231 0.0
H610 H 0.8373 0.08032 0.64762 0.0
H611 H 0.84843 0.13023 0.64622 0.0
H612 H 0.84114 0.10159 0.60136 0.0
H613 H 0.66918 0.04749 0.58831 0.0
H614 H 0.70063 0.01717 0.59027 0.0
H615 H 0.70364 0.04886 0.55183 0.0
H616 H 0.76798 0.85691 0.71208 0.0
H617 H 0.78804 0.81414 0.75617 0.0
H618 H 0.81481 0.86127 0.7655 0.0
H619 H 0.83512 0.82817 0.73945 0.0
H620 H 0.75723 0.87545 0.64969 0.0
H621 H 0.86999 0.93621 0.67591 0.0
H622 H 0.72502 0.94514 0.60872 0.0
H623 H 0.71777 0.89522 0.60542 0.0
H624 H 0.74136 0.92319 0.56751 0.0
H625 H 0.89649 0.99294 0.64769 0.0
H626 H 0.86308 0.02045 0.63993 0.0
H627 H 0.87794 0.99662 0.59916 0.0
H628 H 0.8516 0.82924 0.3732 0.0
H629 H 0.8166 0.87041 0.37491 0.0
H630 H 0.92584 0.94397 0.3812 0.0
H631 H 0.77271 0.91663 0.43539 0.0
H632 H 0.76306 0.89074 0.38906 0.0
H633 H 0.76676 0.94021 0.392 0.0
H634 H 0.93733 0.00517 0.40856 0.0
H635 H 0.90547 0.01159 0.44579 0.0
H636 H 0.89974 0.02675 0.39757 0.0
H637 H 0.78477 0.19709 0.3632 0.0
H638 H 0.72931 0.22214 0.35995 0.0
H639 H 0.71696 0.175 0.3749 0.0
H640 H 0.7062 0.18487 0.32539 0.0
H641 H 0.72291 0.08304 0.33725 0.0
H642 H 0.8264 0.16101 0.36793 0.0
H643 H 0.72685 0.02052 0.41107 0.0
H644 H 0.74554 0.00397 0.36805 0.0
H645 H 0.70588 0.02395 0.36361 0.0
H646 H 0.87313 0.1459 0.4073 0.0
H647 H 0.87175 0.09694 0.4085 0.0
H648 H 0.85266 0.11928 0.44747 0.0
H649 H 0.77878 0.01564 0.63872 0.0
H650 H 0.82754 0.93859 0.54845 0.0
H651 H 0.84079 0.93985 0.48047 0.0
H652 H 0.82403 0.01729 0.3757 0.0
H653 H 0.77741 0.09609 0.4667 0.0
H654 H 0.76711 0.0965 0.53555 0.0
H655 H 0.891 0.78825 0.3491 0.0
H656 H 0.91316 0.82088 0.38789 0.0
H657 H 0.92698 0.82931 0.33855 0.0
C658 C 0.35853 0.3477 0.25795 0.0
C659 C 0.35026 0.32889 0.21695 0.0
C660 C 0.40797 0.32203 0.18688 0.0
C661 C 0.42528 0.35988 0.18409 0.0
C662 C 0.45811 0.37095 0.16341 0.0
C663 C 0.47305 0.34363 0.14397 0.0
C664 C 0.45537 0.30551 0.14663 0.0
C665 C 0.42354 0.2953 0.16875 0.0
C666 C 0.47684 0.4118 0.1625 0.0
C667 C 0.4701 0.27531 0.1265 0.0
C668 C 0.73115 0.30126 0.23815 0.0
C669 C 0.70788 0.2945 0.19984 0.0
C670 C 0.67076 0.33407 0.17049 0.0
C671 C 0.64309 0.3053 0.15186 0.0
C672 C 0.61171 0.31277 0.13317 0.0
C673 C 0.60722 0.3496 0.13401 0.0
C674 C 0.63492 0.37864 0.15283 0.0
C675 C 0.66659 0.37051 0.1703 0.0
C676 C 0.58321 0.28109 0.11276 0.0
C677 C 0.63097 0.4182 0.15468 0.0
C678 C 0.66425 0.43148 0.88982 0.0
C679 C 0.63681 0.39836 0.88439 0.0
C680 C 0.60614 0.39048 0.90848 0.0
C681 C 0.60238 0.41706 0.938 0.0
C682 C 0.62953 0.45123 0.94289 0.0
C683 C 0.66041 0.45799 0.9189 0.0
C684 C 0.57775 0.35379 0.90225 0.0
C685 C 0.62571 0.48072 0.97314 0.0
C686 C 0.33601 0.45571 0.91946 0.0
C687 C 0.3556 0.44672 0.88265 0.0
C688 C 0.40248 0.41519 0.90753 0.0
C689 C 0.41186 0.38097 0.9084 0.0
C690 C 0.44454 0.37748 0.92785 0.0
C691 C 0.46824 0.40911 0.94737 0.0
C692 C 0.45898 0.4439 0.94674 0.0
C693 C 0.42627 0.44668 0.92667 0.0
C694 C 0.45379 0.34003 0.9274 0.0
C695 C 0.48369 0.47812 0.96733 0.0
C696 C 0.50705 0.35468 0.12081 0.0
C697 C 0.54064 0.35002 0.13689 0.0
C698 C 0.57321 0.35746 0.11576 0.0
C699 C 0.57256 0.3705 0.07758 0.0
C700 C 0.60459 0.3777 0.0552 0.0
C701 C 0.60366 0.39046 0.01765 0.0
C702 C 0.57065 0.39647 0.00097 0.0
C703 C 0.56939 0.40943 0.96282 0.0
C704 C 0.53585 0.4141 0.94677 0.0
C705 C 0.50318 0.40584 0.96756 0.0
C706 C 0.50394 0.39335 0.00594 0.0
C707 C 0.4716 0.38489 0.02771 0.0
C708 C 0.47248 0.37201 0.06519 0.0
C709 C 0.50587 0.36765 0.08264 0.0
C710 C 0.53882 0.37588 0.06113 0.0
C711 C 0.53785 0.38877 0.02274 0.0
C712 C 0.73764 0.49348 0.85392 0.0
C713 C 0.72949 0.4571 0.87512 0.0
O714 O 0.37697 0.30989 0.20756 0.0
O715 O 0.37023 0.41618 0.88815 0.0
O716 O 0.69341 0.43719 0.86577 0.0
O717 O 0.7019 0.32812 0.18853 0.0
H718 H 0.34939 0.3505 0.19561 0.0
H719 H 0.38715 0.36587 0.26027 0.0
H720 H 0.35596 0.32667 0.28049 0.0
H721 H 0.33864 0.36516 0.26417 0.0
H722 H 0.41377 0.38083 0.19856 0.0
H723 H 0.41017 0.26616 0.17148 0.0
H724 H 0.50725 0.41655 0.16868 0.0
H725 H 0.46531 0.42886 0.18403 0.0
H726 H 0.47287 0.4216 0.13291 0.0
H727 H 0.4489 0.24836 0.12398 0.0
H728 H 0.49436 0.27133 0.14391 0.0
H729 H 0.47945 0.28305 0.09679 0.0
H730 H 0.68092 0.27512 0.20611 0.0
H731 H 0.74082 0.27614 0.2453 0.0
H732 H 0.71391 0.30769 0.26232 0.0
H733 H 0.75537 0.32541 0.23649 0.0
H734 H 0.64574 0.27695 0.15142 0.0
H735 H 0.68806 0.39261 0.18457 0.0
H736 H 0.57479 0.28905 0.08364 0.0
H737 H 0.55806 0.27445 0.13048 0.0
H738 H 0.59372 0.2556 0.10887 0.0
H739 H 0.65354 0.43709 0.17294 0.0
H740 H 0.60372 0.41934 0.1668 0.0
H741 H 0.63157 0.42855 0.12473 0.0
H742 H 0.73379 0.46349 0.90722 0.0
H743 H 0.63986 0.37832 0.86152 0.0
H744 H 0.68101 0.48423 0.9224 0.0
H745 H 0.57183 0.34034 0.93051 0.0
H746 H 0.58713 0.33436 0.88154 0.0
H747 H 0.5513 0.35872 0.89033 0.0
H748 H 0.64743 0.50699 0.97096 0.0
H749 H 0.62794 0.47041 0.00283 0.0
H750 H 0.59786 0.48673 0.96978 0.0
H751 H 0.37788 0.47142 0.87598 0.0
H752 H 0.35559 0.46099 0.9453 0.0
H753 H 0.31228 0.43207 0.92539 0.0
H754 H 0.3255 0.48104 0.91585 0.0
H755 H 0.39341 0.35685 0.89354 0.0
H756 H 0.41954 0.47344 0.92631 0.0
H757 H 0.4542 0.33059 0.95769 0.0
H758 H 0.48198 0.34229 0.91595 0.0
H759 H 0.43341 0.31859 0.90922 0.0
H760 H 0.47158 0.5027 0.96609 0.0
H761 H 0.5112 0.48479 0.95363 0.0
H762 H 0.4885 0.47271 0.99844 0.0
H763 H 0.54127 0.33971 0.16601 0.0
H764 H 0.63078 0.37354 0.06646 0.0
H765 H 0.62918 0.3955 0.00182 0.0
H766 H 0.535 0.42356 0.91729 0.0
H767 H 0.44516 0.38797 0.01594 0.0
H768 H 0.44658 0.36557 0.08032 0.0
H769 H 0.73293 0.48801 0.82181 0.0
H770 H 0.76692 0.5092 0.8602 0.0
H771 H 0.71899 0.51099 0.86421 0.0
loop_
_geom_bond_atom_site_label_1
_geom_bond_atom_site_label_2
_geom_bond_distance
_geom_bond_site_symmetry_2
_ccdc_geom_bond_type
O0 Cd1 2.300 . S
O0 C7 1.275 . S
Cd1 O0 2.300 . S
Cd1 O9 2.381 . S
Cd1 O10 2.378 . S
O2 Cd3 2.385 . S
O2 C7 1.255 . S
Cd3 O2 2.385 . S
Cd3 O4 2.317 . S
O4 Cd3 2.317 . S
O4 C5 1.232 . S
C5 O4 1.232 . S
C5 O6 1.218 . S
O6 C5 1.218 . S
C7 O0 1.275 . S
C7 O2 1.255 . S
C8 O9 1.258 . S
C8 O10 1.256 . S
O9 Cd1 2.381 . S
O9 C8 1.258 . S
O10 Cd1 2.378 . S
O10 C8 1.256 . S
O11 Cd12 2.300 . S
O11 C18 1.275 . S
Cd12 O11 2.300 . S
Cd12 O20 2.381 . S
Cd12 O21 2.378 . S
O13 Cd14 2.385 . S
O13 C18 1.255 . S
Cd14 O13 2.385 . S
Cd14 O15 2.317 . S
O15 Cd14 2.317 . S
O15 C16 1.232 . S
C16 O15 1.232 . S
C16 O17 1.218 . S
O17 C16 1.218 . S
C18 O11 1.275 . S
C18 O13 1.255 . S
C19 O20 1.258 . S
C19 O21 1.256 . S
O20 Cd12 2.381 . S
O20 C19 1.258 . S
O21 Cd12 2.378 . S
O21 C19 1.256 . S
O22 Cd23 2.300 . S
O22 C29 1.275 . S
Cd23 O22 2.300 . S
Cd23 O31 2.381 . S
Cd23 O32 2.378 . S
O24 Cd25 2.385 . S
O24 C29 1.255 . S
Cd25 O24 2.385 . S
Cd25 O26 2.317 . S
O26 Cd25 2.317 . S
O26 C27 1.232 . S
C27 O26 1.232 . S
C27 O28 1.218 . S
O28 C27 1.218 . S
C29 O22 1.275 . S
C29 O24 1.255 . S
C30 O31 1.258 . S
C30 O32 1.256 . S
O31 Cd23 2.381 . S
O31 C30 1.258 . S
O32 Cd23 2.378 . S
O32 C30 1.256 . S
O33 Cd34 2.300 . S
O33 C40 1.275 . S
Cd34 O33 2.300 . S
Cd34 O42 2.381 . S
Cd34 O43 2.378 . S
O35 Cd36 2.385 . S
O35 C40 1.255 . S
Cd36 O35 2.385 . S
Cd36 O37 2.317 . S
O37 Cd36 2.317 . S
O37 C38 1.232 . S
C38 O37 1.232 . S
C38 O39 1.218 . S
O39 C38 1.218 . S
C40 O33 1.275 . S
C40 O35 1.255 . S
C41 O42 1.258 . S
C41 O43 1.256 . S
O42 Cd34 2.381 . S
O42 C41 1.258 . S
O43 Cd34 2.378 . S
O43 C41 1.256 . S
O44 Cd45 2.300 . S
O44 C51 1.275 . S
Cd45 O44 2.300 . S
Cd45 O53 2.381 . S
Cd45 O54 2.378 . S
O46 Cd47 2.385 . S
O46 C51 1.255 . S
Cd47 O46 2.385 . S
Cd47 O48 2.317 . S
O48 Cd47 2.317 . S
O48 C49 1.232 . S
C49 O48 1.232 . S
C49 O50 1.218 . S
O50 C49 1.218 . S
C51 O44 1.275 . S
C51 O46 1.255 . S
C52 O53 1.258 . S
C52 O54 1.256 . S
O53 Cd45 2.381 . S
O53 C52 1.258 . S
O54 Cd45 2.378 . S
O54 C52 1.256 . S
O55 Cd56 2.300 . S
O55 C62 1.275 . S
Cd56 O55 2.300 . S
Cd56 O64 2.381 . S
Cd56 O65 2.378 . S
O57 Cd58 2.385 . S
O57 C62 1.255 . S
Cd58 O57 2.385 . S
Cd58 O59 2.317 . S
O59 Cd58 2.317 . S
O59 C60 1.232 . S
C60 O59 1.232 . S
C60 O61 1.218 . S
O61 C60 1.218 . S
C62 O55 1.275 . S
C62 O57 1.255 . S
C63 O64 1.258 . S
C63 O65 1.256 . S
O64 Cd56 2.381 . S
O64 C63 1.258 . S
O65 Cd56 2.378 . S
O65 C63 1.256 . S
O66 Cd67 2.300 . S
O66 C73 1.275 . S
Cd67 O66 2.300 . S
Cd67 O75 2.381 . S
Cd67 O76 2.378 . S
O68 Cd69 2.385 . S
O68 C73 1.255 . S
Cd69 O68 2.385 . S
Cd69 O70 2.317 . S
O70 Cd69 2.317 . S
O70 C71 1.232 . S
C71 O70 1.232 . S
C71 O72 1.218 . S
O72 C71 1.218 . S
C73 O66 1.275 . S
C73 O68 1.255 . S
C74 O75 1.258 . S
C74 O76 1.256 . S
O75 Cd67 2.381 . S
O75 C74 1.258 . S
O76 Cd67 2.378 . S
O76 C74 1.256 . S
O77 Cd78 2.300 . S
O77 C84 1.275 . S
Cd78 O77 2.300 . S
Cd78 O86 2.381 . S
Cd78 O87 2.378 . S
O79 Cd80 2.385 . S
O79 C84 1.255 . S
Cd80 O79 2.385 . S
Cd80 O81 2.317 . S
O81 Cd80 2.317 . S
O81 C82 1.232 . S
C82 O81 1.232 . S
C82 O83 1.218 . S
O83 C82 1.218 . S
C84 O77 1.275 . S
C84 O79 1.255 . S
C85 O86 1.258 . S
C85 O87 1.256 . S
O86 Cd78 2.381 . S
O86 C85 1.258 . S
O87 Cd78 2.378 . S
O87 C85 1.256 . S
C88 C89 1.560 . S
C88 H149 0.959 . S
C88 H150 0.959 . S
C88 H151 0.960 . S
C89 C88 1.560 . S
C89 O144 1.426 . S
C89 H148 0.980 . S
C90 C91 1.407 . S
C90 C95 1.418 . S
C90 O144 1.334 . S
C91 C90 1.407 . S
C91 C92 1.360 . S
C91 H152 0.929 . S
C92 C91 1.360 . S
C92 C93 1.401 . S
C92 C96 1.527 . S
C93 C92 1.401 . S
C93 C94 1.405 . S
C93 C126 1.587 1_655 S
C94 C93 1.405 . S
C94 C95 1.332 . S
C94 C97 1.496 . S
C95 C90 1.418 . S
C95 C94 1.332 . S
C95 H153 0.929 . S
C96 C92 1.527 . S
C96 H154 0.959 . S
C96 H155 0.961 . S
C96 H156 0.961 . S
C97 C94 1.496 . S
C97 H157 0.960 . S
C97 H158 0.960 1_655 S
C97 H159 0.961 . S
C98 C99 1.517 . S
C98 H161 0.961 . S
C98 H162 0.960 . S
C98 H163 0.959 . S
C99 C98 1.517 . S
C99 O147 1.468 . S
C99 H160 0.980 . S
C100 C101 1.349 . S
C100 C105 1.367 . S
C100 O147 1.408 . S
C101 C100 1.349 . S
C101 C102 1.407 . S
C101 H164 0.930 . S
C102 C101 1.407 . S
C102 C103 1.449 . S
C102 C106 1.535 . S
C103 C102 1.449 . S
C103 C104 1.384 . S
C103 C128 1.553 . S
C104 C103 1.384 . S
C104 C105 1.364 . S
C104 C107 1.450 . S
C105 C100 1.367 . S
C105 C104 1.364 . S
C105 H165 0.931 . S
C106 C102 1.535 . S
C106 H166 0.959 . S
C106 H167 0.961 . S
C106 H168 0.959 . S
C107 C104 1.450 . S
C107 H169 0.960 . S
C107 H170 0.960 . S
C107 H171 0.960 . S
C108 C109 1.309 . S
C108 C113 1.304 . S
C108 O146 1.435 . S
C109 C108 1.309 . S
C109 C110 1.476 . S
C109 H173 0.930 . S
C110 C109 1.476 . S
C110 C111 1.400 . S
C110 C114 1.567 . S
C111 C110 1.400 . S
C111 C112 1.373 . S
C111 C133 1.432 . S
C112 C111 1.373 . S
C112 C113 1.339 . S
C112 C115 1.530 . S
C113 C108 1.304 . S
C113 C112 1.339 . S
C113 H174 0.930 . S
C114 C110 1.567 . S
C114 H175 0.961 . S
C114 H176 0.960 . S
C114 H177 0.958 . S
C115 C112 1.530 . S
C115 H178 0.961 . S
C115 H179 0.960 . S
C115 H180 0.960 . S
C116 C117 1.530 . S
C116 H182 0.961 . S
C116 H183 0.961 . S
C116 H184 0.959 . S
C117 C116 1.530 . S
C117 O145 1.412 . S
C117 H181 0.980 . S
C118 C119 1.288 . S
C118 C123 1.377 . S
C118 O145 1.393 . S
C119 C118 1.288 . S
C119 C120 1.369 . S
C119 H185 0.932 . S
C120 C119 1.369 . S
C120 C121 1.398 . S
C120 C124 1.527 1_655 S
C121 C120 1.398 . S
C121 C122 1.380 . S
C121 C135 1.497 1_655 S
C122 C121 1.380 . S
C122 C123 1.383 . S
C122 C125 1.603 . S
C123 C118 1.377 . S
C123 C122 1.383 . S
C123 H186 0.929 . S
C124 C120 1.527 1_455 S
C124 H187 0.961 . S
C124 H188 0.959 . S
C124 H189 0.959 1_455 S
C125 C122 1.603 . S
C125 H190 0.960 . S
C125 H191 0.962 . S
C125 H192 0.961 . S
C126 C93 1.587 1_455 S
C126 C127 1.360 . S
C126 C139 1.412 . S
C127 C126 1.360 . S
C127 C128 1.365 . S
C127 H193 0.929 . S
C128 C103 1.553 . S
C128 C127 1.365 . S
C128 C129 1.404 . S
C129 C128 1.404 . S
C129 C130 1.395 . S
C129 C140 1.451 . S
C130 C129 1.395 . S
C130 C131 1.322 . S
C130 H194 0.930 . S
C131 C130 1.322 . S
C131 C132 1.459 . S
C131 H195 0.929 . S
C132 C131 1.459 . S
C132 C133 1.445 . S
C132 C141 1.395 . S
C133 C111 1.432 . S
C133 C132 1.445 . S
C133 C134 1.370 . S
C134 C133 1.370 . S
C134 C135 1.438 . S
C134 H196 0.930 . S
C135 C121 1.497 1_455 S
C135 C134 1.438 . S
C135 C136 1.360 . S
C136 C135 1.360 . S
C136 C137 1.401 1_455 S
C136 C141 1.446 . S
C137 C136 1.401 1_655 S
C137 C138 1.347 . S
C137 H197 0.929 . S
C138 C137 1.347 . S
C138 C139 1.455 1_655 S
C138 H198 0.930 . S
C139 C126 1.412 . S
C139 C138 1.455 1_455 S
C139 C140 1.331 . S
C140 C129 1.451 . S
C140 C139 1.331 . S
C140 C141 1.497 . S
C141 C132 1.395 . S
C141 C136 1.446 . S
C141 C140 1.497 . S
C142 C143 1.582 . S
C142 H199 0.962 . S
C142 H200 0.959 . S
C142 H201 0.958 . S
C143 C142 1.582 . S
C143 O146 1.458 . S
C143 H172 0.980 . S
O144 C89 1.426 . S
O144 C90 1.334 . S
O145 C117 1.412 . S
O145 C118 1.393 . S
O146 C108 1.435 . S
O146 C143 1.458 . S
O147 C99 1.468 . S
O147 C100 1.408 . S
H148 C89 0.980 . S
H149 C88 0.959 . S
H150 C88 0.959 . S
H151 C88 0.960 . S
H152 C91 0.929 . S
H153 C95 0.929 . S
H154 C96 0.959 . S
H155 C96 0.961 . S
H156 C96 0.961 . S
H157 C97 0.960 . S
H158 C97 0.960 1_455 S
H159 C97 0.961 . S
H160 C99 0.980 . S
H161 C98 0.961 . S
H162 C98 0.960 . S
H163 C98 0.959 . S
H164 C101 0.930 . S
H165 C105 0.931 . S
H166 C106 0.959 . S
H167 C106 0.961 . S
H168 C106 0.959 . S
H169 C107 0.960 . S
H170 C107 0.960 . S
H171 C107 0.960 . S
H172 C143 0.980 . S
H173 C109 0.930 . S
H174 C113 0.930 . S
H175 C114 0.961 . S
H176 C114 0.960 . S
H177 C114 0.958 . S
H178 C115 0.961 . S
H179 C115 0.960 . S
H180 C115 0.960 . S
H181 C117 0.980 . S
H182 C116 0.961 . S
H183 C116 0.961 . S
H184 C116 0.959 . S
H185 C119 0.932 . S
H186 C123 0.929 . S
H187 C124 0.961 . S
H188 C124 0.959 . S
H189 C124 0.959 1_655 S
H190 C125 0.960 . S
H191 C125 0.962 . S
H192 C125 0.961 . S
H193 C127 0.929 . S
H194 C130 0.930 . S
H195 C131 0.929 . S
H196 C134 0.930 . S
H197 C137 0.929 . S
H198 C138 0.930 . S
H199 C142 0.962 . S
H200 C142 0.959 . S
H201 C142 0.958 . S
C202 C203 1.560 . S
C202 H263 0.959 . S
C202 H264 0.959 . S
C202 H265 0.960 . S
C203 C202 1.560 . S
C203 O258 1.426 . S
C203 H262 0.980 . S
C204 C205 1.407 . S
C204 C209 1.418 . S
C204 O258 1.334 . S
C205 C204 1.407 . S
C205 C206 1.360 . S
C205 H266 0.929 . S
C206 C205 1.360 . S
C206 C207 1.401 . S
C206 C210 1.527 . S
C207 C206 1.401 . S
C207 C208 1.405 . S
C207 C240 1.587 . S
C208 C207 1.405 . S
C208 C209 1.332 . S
C208 C211 1.496 . S
C209 C204 1.418 . S
C209 C208 1.332 . S
C209 H267 0.929 . S
C210 C206 1.527 . S
C210 H268 0.959 . S
C210 H269 0.961 . S
C210 H270 0.961 . S
C211 C208 1.496 . S
C211 H271 0.960 . S
C211 H272 0.960 . S
C211 H273 0.961 . S
C212 C213 1.517 . S
C212 H275 0.961 . S
C212 H276 0.960 . S
C212 H277 0.959 . S
C213 C212 1.517 . S
C213 O261 1.468 . S
C213 H274 0.980 . S
C214 C215 1.349 . S
C214 C219 1.367 . S
C214 O261 1.408 . S
C215 C214 1.349 . S
C215 C216 1.407 . S
C215 H278 0.930 . S
C216 C215 1.407 . S
C216 C217 1.449 . S
C216 C220 1.535 . S
C217 C216 1.449 . S
C217 C218 1.384 . S
C217 C242 1.553 . S
C218 C217 1.384 . S
C218 C219 1.364 . S
C218 C221 1.450 . S
C219 C214 1.367 . S
C219 C218 1.364 . S
C219 H279 0.931 . S
C220 C216 1.535 . S
C220 H280 0.959 . S
C220 H281 0.961 . S
C220 H282 0.959 . S
C221 C218 1.450 . S
C221 H283 0.960 . S
C221 H284 0.960 . S
C221 H285 0.960 . S
C222 C223 1.309 . S
C222 C227 1.304 . S
C222 O260 1.435 . S
C223 C222 1.309 . S
C223 C224 1.476 . S
C223 H287 0.930 . S
C224 C223 1.476 . S
C224 C225 1.400 . S
C224 C228 1.567 . S
C225 C224 1.400 . S
C225 C226 1.373 . S
C225 C247 1.432 . S
C226 C225 1.373 . S
C226 C227 1.339 . S
C226 C229 1.530 . S
C227 C222 1.304 . S
C227 C226 1.339 . S
C227 H288 0.930 . S
C228 C224 1.567 . S
C228 H289 0.961 . S
C228 H290 0.960 . S
C228 H291 0.958 . S
C229 C226 1.530 . S
C229 H292 0.961 . S
C229 H293 0.960 . S
C229 H294 0.960 . S
C230 C231 1.530 . S
C230 H296 0.961 . S
C230 H297 0.961 . S
C230 H298 0.959 . S
C231 C230 1.530 . S
C231 O259 1.412 . S
C231 H295 0.980 . S
C232 C233 1.288 . S
C232 C237 1.377 . S
C232 O259 1.393 . S
C233 C232 1.288 . S
C233 C234 1.369 . S
C233 H299 0.932 . S
C234 C233 1.369 . S
C234 C235 1.398 . S
C234 C238 1.527 . S
C235 C234 1.398 . S
C235 C236 1.380 . S
C235 C249 1.497 . S
C236 C235 1.380 . S
C236 C237 1.383 . S
C236 C239 1.603 . S
C237 C232 1.377 . S
C237 C236 1.383 . S
C237 H300 0.929 . S
C238 C234 1.527 . S
C238 H301 0.961 . S
C238 H302 0.959 . S
C238 H303 0.959 . S
C239 C236 1.603 . S
C239 H304 0.960 . S
C239 H305 0.962 . S
C239 H306 0.961 . S
C240 C207 1.587 . S
C240 C241 1.360 . S
C240 C253 1.412 . S
C241 C240 1.360 . S
C241 C242 1.365 1_455 S
C241 H307 0.929 . S
C242 C217 1.553 . S
C242 C241 1.365 1_655 S
C242 C243 1.404 . S
C243 C242 1.404 . S
C243 C244 1.395 . S
C243 C254 1.451 1_655 S
C244 C243 1.395 . S
C244 C245 1.322 . S
C244 H308 0.930 . S
C245 C244 1.322 . S
C245 C246 1.459 . S
C245 H309 0.929 . S
C246 C245 1.459 . S
C246 C247 1.445 . S
C246 C255 1.395 1_655 S
C247 C225 1.432 . S
C247 C246 1.445 . S
C247 C248 1.370 1_655 S
C248 C247 1.370 1_455 S
C248 C249 1.438 . S
C248 H310 0.930 . S
C249 C235 1.497 . S
C249 C248 1.438 . S
C249 C250 1.360 . S
C250 C249 1.360 . S
C250 C251 1.401 . S
C250 C255 1.446 . S
C251 C250 1.401 . S
C251 C252 1.347 . S
C251 H311 0.929 . S
C252 C251 1.347 . S
C252 C253 1.455 . S
C252 H312 0.930 . S
C253 C240 1.412 . S
C253 C252 1.455 . S
C253 C254 1.331 . S
C254 C243 1.451 1_455 S
C254 C253 1.331 . S
C254 C255 1.497 . S
C255 C246 1.395 1_455 S
C255 C250 1.446 . S
C255 C254 1.497 . S
C256 C257 1.582 . S
C256 H313 0.962 . S
C256 H314 0.959 . S
C256 H315 0.958 . S
C257 C256 1.582 . S
C257 O260 1.458 . S
C257 H286 0.980 . S
O258 C203 1.426 . S
O258 C204 1.334 . S
O259 C231 1.412 . S
O259 C232 1.393 . S
O260 C222 1.435 . S
O260 C257 1.458 . S
O261 C213 1.468 . S
O261 C214 1.408 . S
H262 C203 0.980 . S
H263 C202 0.959 . S
H264 C202 0.959 . S
H265 C202 0.960 . S
H266 C205 0.929 . S
H267 C209 0.929 . S
H268 C210 0.959 . S
H269 C210 0.961 . S
H270 C210 0.961 . S
H271 C211 0.960 . S
H272 C211 0.960 . S
H273 C211 0.961 . S
H274 C213 0.980 . S
H275 C212 0.961 . S
H276 C212 0.960 . S
H277 C212 0.959 . S
H278 C215 0.930 . S
H279 C219 0.931 . S
H280 C220 0.959 . S
H281 C220 0.961 . S
H282 C220 0.959 . S
H283 C221 0.960 . S
H284 C221 0.960 . S
H285 C221 0.960 . S
H286 C257 0.980 . S
H287 C223 0.930 . S
H288 C227 0.930 . S
H289 C228 0.961 . S
H290 C228 0.960 . S
H291 C228 0.958 . S
H292 C229 0.961 . S
H293 C229 0.960 . S
H294 C229 0.960 . S
H295 C231 0.980 . S
H296 C230 0.961 . S
H297 C230 0.961 . S
H298 C230 0.959 . S
H299 C233 0.932 . S
H300 C237 0.929 . S
H301 C238 0.961 . S
H302 C238 0.959 . S
H303 C238 0.959 . S
H304 C239 0.960 . S
H305 C239 0.962 . S
H306 C239 0.961 . S
H307 C241 0.929 . S
H308 C244 0.930 . S
H309 C245 0.929 . S
H310 C248 0.930 . S
H311 C251 0.929 . S
H312 C252 0.930 . S
H313 C256 0.962 . S
H314 C256 0.959 . S
H315 C256 0.958 . S
C316 C317 1.560 . S
C316 H377 0.959 . S
C316 H378 0.959 . S
C316 H379 0.960 . S
C317 C316 1.560 . S
C317 O372 1.426 . S
C317 H376 0.980 . S
C318 C319 1.407 . S
C318 C323 1.418 . S
C318 O372 1.334 . S
C319 C318 1.407 . S
C319 C320 1.360 . S
C319 H380 0.929 . S
C320 C319 1.360 . S
C320 C321 1.401 . S
C320 C324 1.527 . S
C321 C320 1.401 . S
C321 C322 1.405 . S
C321 C354 1.587 . S
C322 C321 1.405 . S
C322 C323 1.332 . S
C322 C325 1.496 . S
C323 C318 1.418 . S
C323 C322 1.332 . S
C323 H381 0.929 . S
C324 C320 1.527 . S
C324 H382 0.959 . S
C324 H383 0.961 . S
C324 H384 0.961 . S
C325 C322 1.496 . S
C325 H385 0.960 . S
C325 H386 0.960 . S
C325 H387 0.961 . S
C326 C327 1.517 . S
C326 H389 0.961 . S
C326 H390 0.960 . S
C326 H391 0.959 . S
C327 C326 1.517 . S
C327 O375 1.468 . S
C327 H388 0.980 . S
C328 C329 1.349 . S
C328 C333 1.367 . S
C328 O375 1.408 1_545 S
C329 C328 1.349 . S
C329 C330 1.407 . S
C329 H392 0.930 . S
C330 C329 1.407 . S
C330 C331 1.449 . S
C330 C334 1.535 . S
C331 C330 1.449 . S
C331 C332 1.384 . S
C331 C356 1.553 . S
C332 C331 1.384 . S
C332 C333 1.364 . S
C332 C335 1.450 . S
C333 C328 1.367 . S
C333 C332 1.364 . S
C333 H393 0.931 . S
C334 C330 1.535 . S
C334 H394 0.959 . S
C334 H395 0.961 . S
C334 H396 0.959 . S
C335 C332 1.450 . S
C335 H397 0.960 . S
C335 H398 0.960 . S
C335 H399 0.960 . S
C336 C337 1.309 . S
C336 C341 1.304 . S
C336 O374 1.435 1_545 S
C337 C336 1.309 . S
C337 C338 1.476 . S
C337 H401 0.930 1_545 S
C338 C337 1.476 . S
C338 C339 1.400 . S
C338 C342 1.567 . S
C339 C338 1.400 . S
C339 C340 1.373 . S
C339 C361 1.432 . S
C340 C339 1.373 . S
C340 C341 1.339 . S
C340 C343 1.530 . S
C341 C336 1.304 . S
C341 C340 1.339 . S
C341 H402 0.930 . S
C342 C338 1.567 . S
C342 H403 0.961 . S
C342 H404 0.960 . S
C342 H405 0.958 . S
C343 C340 1.530 . S
C343 H406 0.961 . S
C343 H407 0.960 . S
C343 H408 0.960 . S
C344 C345 1.530 . S
C344 H410 0.961 . S
C344 H411 0.961 . S
C344 H412 0.959 . S
C345 C344 1.530 . S
C345 O373 1.412 . S
C345 H409 0.980 . S
C346 C347 1.288 . S
C346 C351 1.377 . S
C346 O373 1.393 . S
C347 C346 1.288 . S
C347 C348 1.369 . S
C347 H413 0.932 . S
C348 C347 1.369 . S
C348 C349 1.398 . S
C348 C352 1.527 . S
C349 C348 1.398 . S
C349 C350 1.380 . S
C349 C363 1.497 . S
C350 C349 1.380 . S
C350 C351 1.383 . S
C350 C353 1.603 . S
C351 C346 1.377 . S
C351 C350 1.383 . S
C351 H414 0.929 . S
C352 C348 1.527 . S
C352 H415 0.961 . S
C352 H416 0.959 . S
C352 H417 0.959 . S
C353 C350 1.603 . S
C353 H418 0.960 . S
C353 H419 0.962 . S
C353 H420 0.961 . S
C354 C321 1.587 . S
C354 C355 1.360 . S
C354 C367 1.412 . S
C355 C354 1.360 . S
C355 C356 1.365 . S
C355 H421 0.929 . S
C356 C331 1.553 . S
C356 C355 1.365 . S
C356 C357 1.404 . S
C357 C356 1.404 . S
C357 C358 1.395 . S
C357 C368 1.451 . S
C358 C357 1.395 . S
C358 C359 1.322 . S
C358 H422 0.930 . S
C359 C358 1.322 . S
C359 C360 1.459 . S
C359 H423 0.929 . S
C360 C359 1.459 . S
C360 C361 1.445 . S
C360 C369 1.395 . S
C361 C339 1.432 . S
C361 C360 1.445 . S
C361 C362 1.370 . S
C362 C361 1.370 . S
C362 C363 1.438 . S
C362 H424 0.930 . S
C363 C349 1.497 . S
C363 C362 1.438 . S
C363 C364 1.360 . S
C364 C363 1.360 . S
C364 C365 1.401 . S
C364 C369 1.446 . S
C365 C364 1.401 . S
C365 C366 1.347 . S
C365 H425 0.929 . S
C366 C365 1.347 . S
C366 C367 1.455 . S
C366 H426 0.930 . S
C367 C354 1.412 . S
C367 C366 1.455 . S
C367 C368 1.331 . S
C368 C357 1.451 . S
C368 C367 1.331 . S
C368 C369 1.497 . S
C369 C360 1.395 . S
C369 C364 1.446 . S
C369 C368 1.497 . S
C370 C371 1.582 . S
C370 H427 0.962 . S
C370 H428 0.959 . S
C370 H429 0.958 . S
C371 C370 1.582 . S
C371 O374 1.458 . S
C371 H400 0.980 . S
O372 C317 1.426 . S
O372 C318 1.334 . S
O373 C345 1.412 . S
O373 C346 1.393 . S
O374 C336 1.435 1_565 S
O374 C371 1.458 . S
O375 C327 1.468 . S
O375 C328 1.408 1_565 S
H376 C317 0.980 . S
H377 C316 0.959 . S
H378 C316 0.959 . S
H379 C316 0.960 . S
H380 C319 0.929 . S
H381 C323 0.929 . S
H382 C324 0.959 . S
H383 C324 0.961 . S
H384 C324 0.961 . S
H385 C325 0.960 . S
H386 C325 0.960 . S
H387 C325 0.961 . S
H388 C327 0.980 . S
H389 C326 0.961 . S
H390 C326 0.960 . S
H391 C326 0.959 . S
H392 C329 0.930 . S
H393 C333 0.931 . S
H394 C334 0.959 . S
H395 C334 0.961 . S
H396 C334 0.959 . S
H397 C335 0.960 . S
H398 C335 0.960 . S
H399 C335 0.960 . S
H400 C371 0.980 . S
H401 C337 0.930 1_565 S
H402 C341 0.930 . S
H403 C342 0.961 . S
H404 C342 0.960 . S
H405 C342 0.958 . S
H406 C343 0.961 . S
H407 C343 0.960 . S
H408 C343 0.960 . S
H409 C345 0.980 . S
H410 C344 0.961 . S
H411 C344 0.961 . S
H412 C344 0.959 . S
H413 C347 0.932 . S
H414 C351 0.929 . S
H415 C352 0.961 . S
H416 C352 0.959 . S
H417 C352 0.959 . S
H418 C353 0.960 . S
H419 C353 0.962 . S
H420 C353 0.961 . S
H421 C355 0.929 . S
H422 C358 0.930 . S
H423 C359 0.929 . S
H424 C362 0.930 . S
H425 C365 0.929 . S
H426 C366 0.930 . S
H427 C370 0.962 . S
H428 C370 0.959 . S
H429 C370 0.958 . S
C430 C431 1.560 . S
C430 H491 0.959 . S
C430 H492 0.959 . S
C430 H493 0.960 . S
C431 C430 1.560 . S
C431 O486 1.426 . S
C431 H490 0.980 . S
C432 C433 1.407 . S
C432 C437 1.418 . S
C432 O486 1.334 . S
C433 C432 1.407 . S
C433 C434 1.360 . S
C433 H494 0.929 . S
C434 C433 1.360 . S
C434 C435 1.401 . S
C434 C438 1.527 . S
C435 C434 1.401 . S
C435 C436 1.405 . S
C435 C468 1.587 . S
C436 C435 1.405 . S
C436 C437 1.332 . S
C436 C439 1.496 . S
C437 C432 1.418 . S
C437 C436 1.332 . S
C437 H495 0.929 . S
C438 C434 1.527 . S
C438 H496 0.959 . S
C438 H497 0.961 . S
C438 H498 0.961 . S
C439 C436 1.496 . S
C439 H499 0.960 . S
C439 H500 0.960 . S
C439 H501 0.961 . S
C440 C441 1.517 . S
C440 H503 0.961 . S
C440 H504 0.960 . S
C440 H505 0.959 . S
C441 C440 1.517 . S
C441 O489 1.468 . S
C441 H502 0.980 . S
C442 C443 1.349 . S
C442 C447 1.367 . S
C442 O489 1.408 . S
C443 C442 1.349 . S
C443 C444 1.407 . S
C443 H506 0.930 . S
C444 C443 1.407 . S
C444 C445 1.449 . S
C444 C448 1.535 . S
C445 C444 1.449 . S
C445 C446 1.384 . S
C445 C470 1.553 . S
C446 C445 1.384 . S
C446 C447 1.364 . S
C446 C449 1.450 . S
C447 C442 1.367 . S
C447 C446 1.364 . S
C447 H507 0.931 . S
C448 C444 1.535 . S
C448 H508 0.959 . S
C448 H509 0.961 . S
C448 H510 0.959 . S
C449 C446 1.450 . S
C449 H511 0.960 . S
C449 H512 0.960 . S
C449 H513 0.960 . S
C450 C451 1.309 . S
C450 C455 1.304 . S
C450 O488 1.435 . S
C451 C450 1.309 . S
C451 C452 1.476 . S
C451 H515 0.930 . S
C452 C451 1.476 . S
C452 C453 1.400 . S
C452 C456 1.567 . S
C453 C452 1.400 . S
C453 C454 1.373 . S
C453 C475 1.432 . S
C454 C453 1.373 . S
C454 C455 1.339 . S
C454 C457 1.530 . S
C455 C450 1.304 . S
C455 C454 1.339 . S
C455 H516 0.930 . S
C456 C452 1.567 . S
C456 H517 0.961 . S
C456 H518 0.960 . S
C456 H519 0.958 . S
C457 C454 1.530 . S
C457 H520 0.961 . S
C457 H521 0.960 . S
C457 H522 0.960 . S
C458 C459 1.530 . S
C458 H524 0.961 . S
C458 H525 0.961 . S
C458 H526 0.959 . S
C459 C458 1.530 . S
C459 O487 1.412 . S
C459 H523 0.980 . S
C460 C461 1.288 . S
C460 C465 1.377 . S
C460 O487 1.393 . S
C461 C460 1.288 . S
C461 C462 1.369 . S
C461 H527 0.932 . S
C462 C461 1.369 . S
C462 C463 1.398 . S
C462 C466 1.527 . S
C463 C462 1.398 . S
C463 C464 1.380 . S
C463 C477 1.497 . S
C464 C463 1.380 . S
C464 C465 1.383 . S
C464 C467 1.603 . S
C465 C460 1.377 . S
C465 C464 1.383 . S
C465 H528 0.929 . S
C466 C462 1.527 . S
C466 H529 0.961 . S
C466 H530 0.959 . S
C466 H531 0.959 . S
C467 C464 1.603 . S
C467 H532 0.960 . S
C467 H533 0.962 . S
C467 H534 0.961 . S
C468 C435 1.587 . S
C468 C469 1.360 . S
C468 C481 1.412 . S
C469 C468 1.360 . S
C469 C470 1.365 . S
C469 H535 0.929 . S
C470 C445 1.553 . S
C470 C469 1.365 . S
C470 C471 1.404 . S
C471 C470 1.404 . S
C471 C472 1.395 . S
C471 C482 1.451 . S
C472 C471 1.395 . S
C472 C473 1.322 1_554 S
C472 H536 0.930 . S
C473 C472 1.322 1_556 S
C473 C474 1.459 . S
C473 H537 0.929 . S
C474 C473 1.459 . S
C474 C475 1.445 . S
C474 C483 1.395 . S
C475 C453 1.432 . S
C475 C474 1.445 . S
C475 C476 1.370 . S
C476 C475 1.370 . S
C476 C477 1.438 . S
C476 H538 0.930 . S
C477 C463 1.497 . S
C477 C476 1.438 . S
C477 C478 1.360 . S
C478 C477 1.360 . S
C478 C479 1.407 . S
C478 C483 1.446 . S
C479 C478 1.407 . S
C479 C480 1.336 1_556 S
C479 H539 0.934 . S
C480 C479 1.336 1_554 S
C480 C481 1.455 . S
C480 H540 0.930 . S
C481 C468 1.412 . S
C481 C480 1.455 . S
C481 C482 1.331 . S
C482 C471 1.451 . S
C482 C481 1.331 . S
C482 C483 1.497 1_554 S
C483 C474 1.395 . S
C483 C478 1.446 . S
C483 C482 1.497 1_556 S
C484 C485 1.582 . S
C484 H541 0.962 . S
C484 H542 0.959 . S
C484 H543 0.958 . S
C485 C484 1.582 . S
C485 O488 1.458 . S
C485 H514 0.980 . S
O486 C431 1.426 . S
O486 C432 1.334 . S
O487 C459 1.412 . S
O487 C460 1.393 . S
O488 C450 1.435 . S
O488 C485 1.458 . S
O489 C441 1.468 . S
O489 C442 1.408 . S
H490 C431 0.980 . S
H491 C430 0.959 . S
H492 C430 0.959 . S
H493 C430 0.960 . S
H494 C433 0.929 . S
H495 C437 0.929 . S
H496 C438 0.959 . S
H497 C438 0.961 . S
H498 C438 0.961 . S
H499 C439 0.960 . S
H500 C439 0.960 . S
H501 C439 0.961 . S
H502 C441 0.980 . S
H503 C440 0.961 . S
H504 C440 0.960 . S
H505 C440 0.959 . S
H506 C443 0.930 . S
H507 C447 0.931 . S
H508 C448 0.959 . S
H509 C448 0.961 . S
H510 C448 0.959 . S
H511 C449 0.960 . S
H512 C449 0.960 . S
H513 C449 0.960 . S
H514 C485 0.980 . S
H515 C451 0.930 . S
H516 C455 0.930 . S
H517 C456 0.961 . S
H518 C456 0.960 . S
H519 C456 0.958 . S
H520 C457 0.961 . S
H521 C457 0.960 . S
H522 C457 0.960 . S
H523 C459 0.980 . S
H524 C458 0.961 . S
H525 C458 0.961 . S
H526 C458 0.959 . S
H527 C461 0.932 . S
H528 C465 0.929 . S
H529 C466 0.961 . S
H530 C466 0.959 . S
H531 C466 0.959 . S
H532 C467 0.960 . S
H533 C467 0.962 . S
H534 C467 0.961 . S
H535 C469 0.929 . S
H536 C472 0.930 . S
H537 C473 0.929 . S
H538 C476 0.930 . S
H539 C479 0.934 . S
H540 C480 0.930 . S
H541 C484 0.962 . S
H542 C484 0.959 . S
H543 C484 0.958 . S
C544 C545 1.560 . S
C544 H605 0.959 . S
C544 H606 0.959 . S
C544 H607 0.960 . S
C545 C544 1.560 . S
C545 O600 1.426 . S
C545 H604 0.980 . S
C546 C547 1.407 . S
C546 C551 1.418 . S
C546 O600 1.334 . S
C547 C546 1.407 . S
C547 C548 1.360 . S
C547 H608 0.929 . S
C548 C547 1.360 . S
C548 C549 1.401 . S
C548 C552 1.527 . S
C549 C548 1.401 . S
C549 C550 1.405 . S
C549 C582 1.587 . S
C550 C549 1.405 . S
C550 C551 1.332 . S
C550 C553 1.496 . S
C551 C546 1.418 . S
C551 C550 1.332 . S
C551 H609 0.929 . S
C552 C548 1.527 . S
C552 H610 0.959 . S
C552 H611 0.961 . S
C552 H612 0.961 . S
C553 C550 1.496 . S
C553 H613 0.960 . S
C553 H614 0.960 . S
C553 H615 0.961 . S
C554 C555 1.517 . S
C554 H617 0.961 . S
C554 H618 0.960 . S
C554 H619 0.959 . S
C555 C554 1.517 . S
C555 O603 1.468 . S
C555 H616 0.980 . S
C556 C557 1.349 . S
C556 C561 1.367 . S
C556 O603 1.408 . S
C557 C556 1.349 . S
C557 C558 1.407 . S
C557 H620 0.930 . S
C558 C557 1.407 . S
C558 C559 1.449 . S
C558 C562 1.535 . S
C559 C558 1.449 . S
C559 C560 1.384 . S
C559 C584 1.553 . S
C560 C559 1.384 . S
C560 C561 1.364 . S
C560 C563 1.450 . S
C561 C556 1.367 . S
C561 C560 1.364 . S
C561 H621 0.931 . S
C562 C558 1.535 . S
C562 H622 0.959 . S
C562 H623 0.961 . S
C562 H624 0.959 . S
C563 C560 1.450 . S
C563 H625 0.960 . S
C563 H626 0.960 . S
C563 H627 0.960 . S
C564 C565 1.309 . S
C564 C569 1.304 . S
C564 O602 1.435 . S
C565 C564 1.309 . S
C565 C566 1.476 . S
C565 H629 0.930 . S
C566 C565 1.476 . S
C566 C567 1.400 . S
C566 C570 1.567 . S
C567 C566 1.400 . S
C567 C568 1.373 . S
C567 C589 1.432 . S
C568 C567 1.373 . S
C568 C569 1.339 . S
C568 C571 1.530 . S
C569 C564 1.304 . S
C569 C568 1.339 . S
C569 H630 0.930 . S
C570 C566 1.567 . S
C570 H631 0.961 . S
C570 H632 0.960 . S
C570 H633 0.958 . S
C571 C568 1.530 . S
C571 H634 0.961 . S
C571 H635 0.960 . S
C571 H636 0.960 . S
C572 C573 1.530 . S
C572 H638 0.961 . S
C572 H639 0.961 . S
C572 H640 0.959 . S
C573 C572 1.530 . S
C573 O601 1.412 . S
C573 H637 0.980 . S
C574 C575 1.288 . S
C574 C579 1.377 . S
C574 O601 1.393 . S
C575 C574 1.288 . S
C575 C576 1.369 . S
C575 H641 0.932 . S
C576 C575 1.369 . S
C576 C577 1.398 . S
C576 C580 1.527 . S
C577 C576 1.398 . S
C577 C578 1.380 . S
C577 C591 1.497 . S
C578 C577 1.380 . S
C578 C579 1.383 . S
C578 C581 1.603 . S
C579 C574 1.377 . S
C579 C578 1.383 . S
C579 H642 0.929 . S
C580 C576 1.527 . S
C580 H643 0.961 . S
C580 H644 0.959 . S
C580 H645 0.959 . S
C581 C578 1.603 . S
C581 H646 0.960 . S
C581 H647 0.962 . S
C581 H648 0.961 . S
C582 C549 1.587 . S
C582 C583 1.360 . S
C582 C595 1.412 . S
C583 C582 1.360 . S
C583 C584 1.365 1_545 S
C583 H649 0.929 . S
C584 C559 1.553 . S
C584 C583 1.365 1_565 S
C584 C585 1.404 . S
C585 C584 1.404 . S
C585 C586 1.395 . S
C585 C596 1.451 1_565 S
C586 C585 1.395 . S
C586 C587 1.322 . S
C586 H650 0.930 . S
C587 C586 1.322 . S
C587 C588 1.459 . S
C587 H651 0.929 . S
C588 C587 1.459 . S
C588 C589 1.445 . S
C588 C597 1.395 1_565 S
C589 C567 1.432 . S
C589 C588 1.445 . S
C589 C590 1.368 . S
C590 C589 1.368 . S
C590 C591 1.440 1_565 S
C590 H652 0.930 . S
C591 C577 1.497 . S
C591 C590 1.440 1_545 S
C591 C592 1.360 . S
C592 C591 1.360 . S
C592 C593 1.401 . S
C592 C597 1.446 . S
C593 C592 1.401 . S
C593 C594 1.347 . S
C593 H653 0.929 . S
C594 C593 1.347 . S
C594 C595 1.455 . S
C594 H654 0.930 . S
C595 C582 1.412 . S
C595 C594 1.455 . S
C595 C596 1.331 . S
C596 C585 1.451 1_545 S
C596 C595 1.331 . S
C596 C597 1.497 . S
C597 C588 1.395 1_545 S
C597 C592 1.446 . S
C597 C596 1.497 . S
C598 C599 1.582 . S
C598 H655 0.962 . S
C598 H656 0.959 . S
C598 H657 0.958 . S
C599 C598 1.582 . S
C599 O602 1.458 . S
C599 H628 0.980 . S
O600 C545 1.426 . S
O600 C546 1.334 . S
O601 C573 1.412 . S
O601 C574 1.393 . S
O602 C564 1.435 . S
O602 C599 1.458 . S
O603 C555 1.468 . S
O603 C556 1.408 . S
H604 C545 0.980 . S
H605 C544 0.959 . S
H606 C544 0.959 . S
H607 C544 0.960 . S
H608 C547 0.929 . S
H609 C551 0.929 . S
H610 C552 0.959 . S
H611 C552 0.961 . S
H612 C552 0.961 . S
H613 C553 0.960 . S
H614 C553 0.960 . S
H615 C553 0.961 . S
H616 C555 0.980 . S
H617 C554 0.961 . S
H618 C554 0.960 . S
H619 C554 0.959 . S
H620 C557 0.930 . S
H621 C561 0.931 . S
H622 C562 0.959 . S
H623 C562 0.961 . S
H624 C562 0.959 . S
H625 C563 0.960 . S
H626 C563 0.960 . S
H627 C563 0.960 . S
H628 C599 0.980 . S
H629 C565 0.930 . S
H630 C569 0.930 . S
H631 C570 0.961 . S
H632 C570 0.960 . S
H633 C570 0.958 . S
H634 C571 0.961 . S
H635 C571 0.960 . S
H636 C571 0.960 . S
H637 C573 0.980 . S
H638 C572 0.961 . S
H639 C572 0.961 . S
H640 C572 0.959 . S
H641 C575 0.932 . S
H642 C579 0.929 . S
H643 C580 0.961 . S
H644 C580 0.959 . S
H645 C580 0.959 . S
H646 C581 0.960 . S
H647 C581 0.962 . S
H648 C581 0.961 . S
H649 C583 0.929 . S
H650 C586 0.930 . S
H651 C587 0.929 . S
H652 C590 0.930 . S
H653 C593 0.929 . S
H654 C594 0.930 . S
H655 C598 0.962 . S
H656 C598 0.959 . S
H657 C598 0.958 . S
C658 C659 1.560 . S
C658 H719 0.959 . S
C658 H720 0.959 . S
C658 H721 0.960 . S
C659 C658 1.560 . S
C659 O714 1.426 . S
C659 H718 0.980 . S
C660 C661 1.407 . S
C660 C665 1.418 . S
C660 O714 1.334 . S
C661 C660 1.407 . S
C661 C662 1.360 . S
C661 H722 0.929 . S
C662 C661 1.360 . S
C662 C663 1.401 . S
C662 C666 1.527 . S
C663 C662 1.401 . S
C663 C664 1.405 . S
C663 C696 1.587 . S
C664 C663 1.405 . S
C664 C665 1.332 . S
C664 C667 1.496 . S
C665 C660 1.418 . S
C665 C664 1.332 . S
C665 H723 0.929 . S
C666 C662 1.527 . S
C666 H724 0.959 . S
C666 H725 0.961 . S
C666 H726 0.961 . S
C667 C664 1.496 . S
C667 H727 0.960 . S
C667 H728 0.960 . S
C667 H729 0.961 . S
C668 C669 1.517 . S
C668 H731 0.961 . S
C668 H732 0.960 . S
C668 H733 0.959 . S
C669 C668 1.517 . S
C669 O717 1.468 . S
C669 H730 0.980 . S
C670 C671 1.349 . S
C670 C675 1.367 . S
C670 O717 1.408 . S
C671 C670 1.349 . S
C671 C672 1.407 . S
C671 H734 0.930 . S
C672 C671 1.407 . S
C672 C673 1.449 . S
C672 C676 1.535 . S
C673 C672 1.449 . S
C673 C674 1.384 . S
C673 C698 1.553 . S
C674 C673 1.384 . S
C674 C675 1.364 . S
C674 C677 1.450 . S
C675 C670 1.367 . S
C675 C674 1.364 . S
C675 H735 0.931 . S
C676 C672 1.535 . S
C676 H736 0.959 . S
C676 H737 0.961 . S
C676 H738 0.959 . S
C677 C674 1.450 . S
C677 H739 0.960 . S
C677 H740 0.960 . S
C677 H741 0.960 . S
C678 C679 1.309 . S
C678 C683 1.304 . S
C678 O716 1.435 . S
C679 C678 1.309 . S
C679 C680 1.476 . S
C679 H743 0.930 . S
C680 C679 1.476 . S
C680 C681 1.400 . S
C680 C684 1.567 . S
C681 C680 1.400 . S
C681 C682 1.373 . S
C681 C703 1.432 . S
C682 C681 1.373 . S
C682 C683 1.339 . S
C682 C685 1.530 . S
C683 C678 1.304 . S
C683 C682 1.339 . S
C683 H744 0.930 . S
C684 C680 1.567 . S
C684 H745 0.961 . S
C684 H746 0.960 . S
C684 H747 0.958 . S
C685 C682 1.530 . S
C685 H748 0.961 . S
C685 H749 0.960 . S
C685 H750 0.960 . S
C686 C687 1.530 . S
C686 H752 0.961 . S
C686 H753 0.961 . S
C686 H754 0.959 . S
C687 C686 1.530 . S
C687 O715 1.412 . S
C687 H751 0.980 . S
C688 C689 1.288 . S
C688 C693 1.377 . S
C688 O715 1.393 . S
C689 C688 1.288 . S
C689 C690 1.369 . S
C689 H755 0.932 . S
C690 C689 1.369 . S
C690 C691 1.398 . S
C690 C694 1.527 . S
C691 C690 1.398 . S
C691 C692 1.380 . S
C691 C705 1.497 . S
C692 C691 1.380 . S
C692 C693 1.383 . S
C692 C695 1.603 . S
C693 C688 1.377 . S
C693 C692 1.383 . S
C693 H756 0.929 . S
C694 C690 1.527 . S
C694 H757 0.961 . S
C694 H758 0.959 . S
C694 H759 0.959 . S
C695 C692 1.603 . S
C695 H760 0.960 . S
C695 H761 0.962 . S
C695 H762 0.961 . S
C696 C663 1.587 . S
C696 C697 1.360 . S
C696 C709 1.412 . S
C697 C696 1.360 . S
C697 C698 1.365 . S
C697 H763 0.929 . S
C698 C673 1.553 . S
C698 C697 1.365 . S
C698 C699 1.404 . S
C699 C698 1.404 . S
C699 C700 1.395 . S
C699 C710 1.451 . S
C700 C699 1.395 . S
C700 C701 1.322 . S
C700 H764 0.930 . S
C701 C700 1.322 . S
C701 C702 1.459 1_554 S
C701 H765 0.929 1_554 S
C702 C701 1.459 1_556 S
C702 C703 1.445 . S
C702 C711 1.395 1_556 S
C703 C681 1.432 . S
C703 C702 1.445 . S
C703 C704 1.370 . S
C704 C703 1.370 . S
C704 C705 1.438 . S
C704 H766 0.930 . S
C705 C691 1.497 . S
C705 C704 1.438 . S
C705 C706 1.360 . S
C706 C705 1.360 . S
C706 C707 1.401 1_556 S
C706 C711 1.446 1_556 S
C707 C706 1.401 1_554 S
C707 C708 1.347 . S
C707 H767 0.929 1_554 S
C708 C707 1.347 . S
C708 C709 1.455 . S
C708 H768 0.930 . S
C709 C696 1.412 . S
C709 C708 1.455 . S
C709 C710 1.331 . S
C710 C699 1.451 . S
C710 C709 1.331 . S
C710 C711 1.497 . S
C711 C702 1.395 1_554 S
C711 C706 1.446 1_554 S
C711 C710 1.497 . S
C712 C713 1.582 . S
C712 H769 0.962 . S
C712 H770 0.959 . S
C712 H771 0.958 . S
C713 C712 1.582 . S
C713 O716 1.458 . S
C713 H742 0.980 . S
O714 C659 1.426 . S
O714 C660 1.334 . S
O715 C687 1.412 . S
O715 C688 1.393 . S
O716 C678 1.435 . S
O716 C713 1.458 . S
O717 C669 1.468 . S
O717 C670 1.408 . S
H718 C659 0.980 . S
H719 C658 0.959 . S
H720 C658 0.959 . S
H721 C658 0.960 . S
H722 C661 0.929 . S
H723 C665 0.929 . S
H724 C666 0.959 . S
H725 C666 0.961 . S
H726 C666 0.961 . S
H727 C667 0.960 . S
H728 C667 0.960 . S
H729 C667 0.961 . S
H730 C669 0.980 . S
H731 C668 0.961 . S
H732 C668 0.960 . S
H733 C668 0.959 . S
H734 C671 0.930 . S
H735 C675 0.931 . S
H736 C676 0.959 . S
H737 C676 0.961 . S
H738 C676 0.959 . S
H739 C677 0.960 . S
H740 C677 0.960 . S
H741 C677 0.960 . S
H742 C713 0.980 . S
H743 C679 0.930 . S
H744 C683 0.930 . S
H745 C684 0.961 . S
H746 C684 0.960 . S
H747 C684 0.958 . S
H748 C685 0.961 . S
H749 C685 0.960 . S
H750 C685 0.960 . S
H751 C687 0.980 . S
H752 C686 0.961 . S
H753 C686 0.961 . S
H754 C686 0.959 . S
H755 C689 0.932 . S
H756 C693 0.929 . S
H757 C694 0.961 . S
H758 C694 0.959 . S
H759 C694 0.959 . S
H760 C695 0.960 . S
H761 C695 0.962 . S
H762 C695 0.961 . S
H763 C697 0.929 . S
H764 C700 0.930 . S
H765 C701 0.929 1_556 S
H766 C704 0.930 . S
H767 C707 0.929 1_556 S
H768 C708 0.930 . S
H769 C712 0.962 . S
H770 C712 0.959 . S
H771 C712 0.958 . S
C99 C5 1.864 . S
C231 C16 1.472 . S
C117 C30 2.743 . S
C213 C40 0.879 . S
C345 C8 1.629 . S
C459 C18 1.057 . S
C29 C599 1.676 . S
C713 C38 1.874 . S
C327 C19 2.512 . S
C27 C441 1.839 . S
C545 C41 1.576 . S
C659 C7 0.999 . S
C52 C257 1.693 . S
C89 C62 2.556 . S
C74 C203 1.972 . S
C82 C143 1.195 . S
C555 C51 1.614 . S
C669 C60 2.581 . S
C317 C71 1.219 . S
C84 C431 0.754 . S
C573 C63 1.275 . S
C687 C73 1.795 . S
C371 C85 2.359 . S
C49 C485 1.306 . S
