# Generated by pormake.
# Topology csq, (4,8)-cn, num edge types: 1
# Building blocks:
#     Node 0, Type 0, BuildingBlock: NAWXER_clean_linker_0, # of connection points: 4
#     Node 1, Type 0, BuildingBlock: NAWXER_clean_linker_0, # of connection points: 4
#     Node 2, Type 0, BuildingBlock: NAWXER_clean_linker_0, # of connection points: 4
#     Node 3, Type 0, BuildingBlock: NAWXER_clean_linker_0, # of connection points: 4
#     Node 4, Type 0, BuildingBlock: NAWXER_clean_linker_0, # of connection points: 4
#     Node 5, Type 0, BuildingBlock: NAWXER_clean_linker_0, # of connection points: 4
#     Node 6, Type 1, BuildingBlock: TAGTUT_clean_sbu_1, # of connection points: 8
#     Node 7, Type 1, BuildingBlock: TAGTUT_clean_sbu_1, # of connection points: 8
#     Node 8, Type 1, BuildingBlock: TAGTUT_clean_sbu_1, # of connection points: 8
#     Edge 9, Type (0, 1), None
#     Edge 10, Type (0, 1), None
#     Edge 11, Type (0, 1), None
#     Edge 12, Type (0, 1), None
#     Edge 13, Type (0, 1), None
#     Edge 14, Type (0, 1), None
#     Edge 15, Type (0, 1), None
#     Edge 16, Type (0, 1), None
#     Edge 17, Type (0, 1), None
#     Edge 18, Type (0, 1), None
#     Edge 19, Type (0, 1), None
#     Edge 20, Type (0, 1), None
#     Edge 21, Type (0, 1), None
#     Edge 22, Type (0, 1), None
#     Edge 23, Type (0, 1), None
#     Edge 24, Type (0, 1), None
#     Edge 25, Type (0, 1), None
#     Edge 26, Type (0, 1), None
#     Edge 27, Type (0, 1), None
#     Edge 28, Type (0, 1), None
#     Edge 29, Type (0, 1), None
#     Edge 30, Type (0, 1), None
#     Edge 31, Type (0, 1), None
#     Edge 32, Type (0, 1), None
# Relax obj value: 0.034
# Max RMSD: 0.119
# Mean RMSD: 0.039
data_MOF--net-csq--node1-TAGTUT_clean_sbu_1--node2-NAWXER_clean_linker_0--edge1-none
_symmetry_space_group_name_H-M    P1
_symmetry_Int_Tables_number       1
_symmetry_cell_setting            triclinic
loop_
_symmetry_equiv_pos_as_xyz
'x, y, z'
_cell_length_a     35.645685
_cell_length_b     34.963314
_cell_length_c     12.454807
_cell_angle_alpha  94.736236
_cell_angle_beta   91.633841
_cell_angle_gamma 119.43955
loop_
_atom_site_label
_atom_site_type_symbol
_atom_site_fract_x
_atom_site_fract_y
_atom_site_fract_z
_atom_type_partial_charge
C0 C 0.35558 0.47902 0.07501 0.0
C1 C 0.34327 0.44933 0.97967 0.0
C2 C 0.32502 0.47652 0.1471 0.0
C3 C 0.28131 0.444 0.1264 0.0
C4 C 0.29954 0.41684 0.95936 0.0
C5 C 0.26909 0.41435 0.03141 0.0
C6 C 0.24688 0.44518 0.19008 0.0
C7 C 0.32864 0.42639 0.43089 0.0
C8 C 0.35318 0.46444 0.50385 0.0
C9 C 0.29349 0.42176 0.36786 0.0
C10 C 0.2824 0.45506 0.37773 0.0
C11 C 0.33957 0.49563 0.52135 0.0
C12 C 0.30392 0.49069 0.45908 0.0
C13 C 0.2483 0.45279 0.30419 0.0
C14 C 0.07125 0.43413 0.36748 0.0
C15 C 0.08194 0.46508 0.45913 0.0
C16 C 0.10318 0.42988 0.31382 0.0
C17 C 0.14706 0.45716 0.34876 0.0
C18 C 0.12546 0.49043 0.49891 0.0
C19 C 0.15768 0.48637 0.44441 0.0
C20 C 0.18166 0.45383 0.28983 0.0
C21 C 0.12269 0.49028 0.015 0.0
C22 C 0.1013 0.45615 0.92938 0.0
C23 C 0.14653 0.48599 0.09887 0.0
C24 C 0.14994 0.44782 0.0979 0.0
C25 C 0.10644 0.41883 0.92622 0.0
C26 C 0.13085 0.41488 0.00965 0.0
C27 C 0.18053 0.44617 0.17573 0.0
H28 H 0.38898 0.50444 0.0942 0.0
H29 H 0.33546 0.501 0.21687 0.0
H30 H 0.28877 0.39306 0.88803 0.0
H31 H 0.23552 0.38939 0.01186 0.0
H32 H 0.33924 0.40237 0.41512 0.0
H33 H 0.2763 0.39327 0.30804 0.0
H34 H 0.35878 0.5257 0.57522 0.0
H35 H 0.29506 0.51624 0.46915 0.0
H36 H 0.03793 0.41406 0.33477 0.0
H37 H 0.09332 0.40538 0.2443 0.0
H38 H 0.13481 0.51507 0.56803 0.0
H39 H 0.19114 0.50728 0.47501 0.0
H40 H 0.11952 0.51964 0.0196 0.0
H41 H 0.16284 0.51273 0.16347 0.0
H42 H 0.09002 0.39181 0.86236 0.0
H43 H 0.13463 0.38588 1.00585 0.0
N44 N 0.21282 0.44208 0.13176 0.0
N45 N 0.21586 0.45692 0.34916 0.0
C46 C 0.6209 0.15042 0.38305 0.0
C47 C 0.63345 0.12802 0.45252 0.0
C48 C 0.64748 0.17363 0.30457 0.0
C49 C 0.68735 0.17562 0.29617 0.0
C50 C 0.67478 0.13281 0.44842 0.0
C51 C 0.70157 0.15663 0.37101 0.0
C52 C 0.71815 0.20462 0.22504 0.0
C53 C 0.62036 0.08445 1.00508 0.0
C54 C 0.60313 0.09197 0.91079 0.0
C55 C 0.65558 0.1189 0.0691 0.0
C56 C 0.6745 0.16246 0.04242 0.0
C57 C 0.62336 0.13501 0.88025 0.0
C58 C 0.65866 0.1698 0.9453 0.0
C59 C 0.7126 0.19976 0.10976 0.0
C60 C 0.88643 0.31079 0.98686 0.0
C61 C 0.89858 0.35575 0.99482 0.0
C62 C 0.84616 0.28004 0.01668 0.0
C63 C 0.81757 0.29395 0.05295 0.0
C64 C 0.86967 0.36945 0.03085 0.0
C65 C 0.82912 0.33857 0.05838 0.0
C66 C 0.78154 0.26452 0.11114 0.0
C67 C 0.86668 0.37796 0.38215 0.0
C68 C 0.89947 0.36923 0.41607 0.0
C69 C 0.82992 0.34542 0.31914 0.0
C70 C 0.82583 0.30408 0.28694 0.0
C71 C 0.89584 0.32823 0.38003 0.0
C72 C 0.85936 0.29598 0.31569 0.0
C73 C 0.78633 0.26904 0.22402 0.0
H74 H 0.58925 0.14761 0.38463 0.0
H75 H 0.63706 0.19006 0.25093 0.0
H76 H 0.68533 0.11581 0.49983 0.0
H77 H 0.73325 0.1596 0.36808 0.0
H78 H 0.60608 0.05161 0.03065 0.0
H79 H 0.66811 0.11102 0.1389 0.0
H80 H 0.6109 0.14214 0.80884 0.0
H81 H 0.67304 0.20278 0.92068 0.0
H82 H 0.90797 0.2995 0.95694 0.0
H83 H 0.83794 0.24575 0.01535 0.0
H84 H 0.87773 0.40374 0.03414 0.0
H85 H 0.80743 0.34967 0.08828 0.0
H86 H 0.86817 0.40896 0.40933 0.0
H87 H 0.8043 0.35219 0.29718 0.0
H88 H 0.92048 0.32046 0.40482 0.0
H89 H 0.8568 0.26431 0.29053 0.0
N90 N 0.75464 0.23889 0.27686 0.0
N91 N 0.74526 0.23027 0.05719 0.0
C92 C 0.56065 0.65895 0.92584 0.0
C93 C 0.52445 0.61922 0.88214 0.0
C94 C 0.55571 0.69447 0.96556 0.0
C95 C 0.51473 0.6908 0.95963 0.0
C96 C 0.4831 0.61501 0.88213 0.0
C97 C 0.47839 0.65094 0.91894 0.0
C98 C 0.50977 0.72747 1.00685 0.0
C99 C 0.48232 0.62794 0.23441 0.0
C100 C 0.51909 0.64048 0.30421 0.0
C101 C 0.47837 0.65945 0.18003 0.0
C102 C 0.51157 0.7039 0.19184 0.0
C103 C 0.5514 0.68541 0.31949 0.0
C104 C 0.54773 0.71672 0.26362 0.0
C105 C 0.51094 0.73552 0.11986 0.0
C106 C 0.50089 0.90108 0.18747 0.0
C107 C 0.54236 0.93145 0.23558 0.0
C108 C 0.49173 0.8591 0.14459 0.0
C109 C 0.52424 0.84766 0.14654 0.0
C110 C 0.57547 0.9207 0.23086 0.0
C111 C 0.5664 0.87894 0.18651 0.0
C112 C 0.51544 0.80435 0.09792 0.0
C113 C 0.55911 0.89739 0.83837 0.0
C114 C 0.52247 0.90143 0.8142 0.0
C115 C 0.55534 0.86142 0.88874 0.0
C116 C 0.51481 0.82842 0.91424 0.0
C117 C 0.48185 0.86807 0.83955 0.0
C118 C 0.47805 0.83175 0.88819 0.0
C119 C 0.51202 0.79521 0.98497 0.0
H120 H 0.59281 0.66305 0.92473 0.0
H121 H 0.58388 0.72508 0.99921 0.0
H122 H 0.45473 0.58501 0.84652 0.0
H123 H 0.44651 0.64764 0.91618 0.0
H124 H 0.45639 0.59392 0.22264 0.0
H125 H 0.44968 0.64892 0.12679 0.0
H126 H 0.58003 0.69635 0.37339 0.0
H127 H 0.57384 0.75067 0.27365 0.0
H128 H 0.47461 0.90823 0.19157 0.0
H129 H 0.45911 0.83522 0.11245 0.0
H130 H 0.60761 0.94352 0.26816 0.0
H131 H 0.592 0.8707 0.18543 0.0
H132 H 0.59081 0.92227 0.81924 0.0
H133 H 0.58421 0.85995 0.91051 0.0
H134 H 0.45284 0.86966 0.8205 0.0
H135 H 0.44658 0.807 0.90897 0.0
N136 N 0.51021 0.75728 0.94241 0.0
N137 N 0.51496 0.77452 0.16237 0.0
C138 C 0.89864 0.55395 0.9465 0.0
C139 C 0.88772 0.52305 0.85459 0.0
C140 C 0.86691 0.55832 1.00089 0.0
C141 C 0.82296 0.53129 0.9663 0.0
C142 C 0.84412 0.49789 0.81529 0.0
C143 C 0.81209 0.50213 0.87041 0.0
C144 C 0.78859 0.53494 0.02566 0.0
C145 C 0.84643 0.49741 0.30113 0.0
C146 C 0.86797 0.53146 0.38686 0.0
C147 C 0.82305 0.50211 0.21682 0.0
C148 C 0.82024 0.54059 0.2175 0.0
C149 C 0.86342 0.56913 0.38968 0.0
C150 C 0.83947 0.57348 0.30584 0.0
C151 C 0.78982 0.54258 0.13981 0.0
C152 C 0.61532 0.5113 0.24163 0.0
C153 C 0.62785 0.54087 0.33727 0.0
C154 C 0.64575 0.51359 0.16933 0.0
C155 C 0.68957 0.54576 0.1901 0.0
C156 C 0.67169 0.57302 0.35766 0.0
C157 C 0.70203 0.57528 0.28542 0.0
C158 C 0.72382 0.54429 0.12607 0.0
C159 C 0.64276 0.56446 0.88644 0.0
C160 C 0.61807 0.52666 0.81284 0.0
C161 C 0.67772 0.56861 0.94929 0.0
C162 C 0.68847 0.53507 0.9386 0.0
C163 C 0.63142 0.4953 0.79441 0.0
C164 C 0.66687 0.49975 0.85654 0.0
C165 C 0.72235 0.5368 0.0119 0.0
H166 H 0.93202 0.57386 0.97894 0.0
H167 H 0.87698 0.58275 0.07061 0.0
H168 H 0.83455 0.47328 0.74604 0.0
H169 H 0.77858 0.48141 0.84007 0.0
H170 H 0.8492 0.46781 0.29673 0.0
H171 H 0.8066 0.47541 0.15217 0.0
H172 H 0.88 0.59611 0.45356 0.0
H173 H 0.83612 0.60273 0.30945 0.0
H174 H 0.58183 0.48614 0.22233 0.0
H175 H 0.63511 0.4892 0.09931 0.0
H176 H 0.68266 0.5967 0.42922 0.0
H177 H 0.73568 0.59997 0.30506 0.0
H178 H 0.63236 0.58862 0.90287 0.0
H179 H 0.69502 0.59689 0.00961 0.0
H180 H 0.6121 0.46543 0.73997 0.0
H181 H 0.67549 0.47404 0.8458 0.0
N182 N 0.75454 0.5323 0.96663 0.0
N183 N 0.75775 0.54699 0.18407 0.0
C184 C 0.30047 0.87282 0.9203 0.0
C185 C 0.32942 0.86406 0.86377 0.0
C186 C 0.27845 0.84725 1.00138 0.0
C187 C 0.28454 0.81221 0.02559 0.0
C188 C 0.33424 0.82787 0.88549 0.0
C189 C 0.31114 0.80148 0.96439 0.0
C190 C 0.2546 0.78046 0.09318 0.0
C191 C 0.37272 0.8689 0.31744 0.0
C192 C 0.36735 0.88995 0.4124 0.0
C193 C 0.33722 0.83572 0.25198 0.0
C194 C 0.29487 0.823 0.27776 0.0
C195 C 0.32523 0.87588 0.44225 0.0
C196 C 0.28936 0.84267 0.37557 0.0
C197 C 0.25663 0.7871 0.20818 0.0
C198 C 0.09716 0.61826 0.27659 0.0
C199 C 0.06892 0.63216 0.31652 0.0
C200 C 0.13748 0.64904 0.24804 0.0
C201 C 0.14948 0.69384 0.25581 0.0
C202 C 0.08139 0.67726 0.32628 0.0
C203 C 0.12148 0.70799 0.29519 0.0
C204 C 0.18657 0.72364 0.20092 0.0
C205 C 0.07487 0.65809 0.93703 0.0
C206 C 0.07189 0.61801 0.89511 0.0
C207 C 0.11168 0.69006 1.00075 0.0
C208 C 0.14635 0.68278 0.0222 0.0
C209 C 0.10596 0.61004 0.92126 0.0
C210 C 0.14314 0.64244 0.98322 0.0
C211 C 0.18537 0.71706 0.08824 0.0
H212 H 0.29724 0.90138 0.9074 0.0
H213 H 0.25626 0.85447 0.04442 0.0
H214 H 0.35733 0.82133 0.84491 0.0
H215 H 0.31443 0.77309 0.97885 0.0
H216 H 0.40482 0.87869 0.29265 0.0
H217 H 0.34325 0.8198 0.18181 0.0
H218 H 0.31999 0.89173 0.51413 0.0
H219 H 0.25719 0.83302 0.39942 0.0
H220 H 0.08892 0.58388 0.27165 0.0
H221 H 0.15882 0.63779 0.2164 0.0
H222 H 0.06035 0.68868 0.35909 0.0
H223 H 0.13012 0.74246 0.29883 0.0
H224 H 0.04925 0.66522 0.918 0.0
H225 H 0.11351 0.72088 0.03157 0.0
H226 H 0.10492 0.57974 0.88921 0.0
H227 H 0.16947 0.63616 1.00028 0.0
N228 N 0.21924 0.74584 0.03821 0.0
N229 N 0.22181 0.75814 0.25771 0.0
C230 C 0.46981 0.08984 0.13101 0.0
C231 C 0.42736 0.05887 0.09033 0.0
C232 C 0.4798 0.13232 0.17194 0.0
C233 C 0.44724 0.14365 0.17519 0.0
C234 C 0.39439 0.06957 0.10084 0.0
C235 C 0.40433 0.11183 0.14322 0.0
C236 C 0.45686 0.18736 0.2225 0.0
C237 C 0.41023 0.09623 0.48866 0.0
C238 C 0.44551 0.08938 0.50777 0.0
C239 C 0.41535 0.13263 0.43794 0.0
C240 C 0.45592 0.16323 0.40673 0.0
C241 C 0.48621 0.12043 0.47704 0.0
C242 C 0.49138 0.15711 0.42776 0.0
C243 C 0.45952 0.19655 0.33525 0.0
C244 C 0.41084 0.33251 0.39071 0.0
C245 C 0.44696 0.3724 0.43395 0.0
C246 C 0.41598 0.29707 0.35136 0.0
C247 C 0.45708 0.30105 0.35716 0.0
C248 C 0.48844 0.37696 0.43327 0.0
C249 C 0.49334 0.34113 0.39688 0.0
C250 C 0.4622 0.26434 0.31132 0.0
C251 C 0.49012 0.36344 0.08229 0.0
C252 C 0.45324 0.35073 0.01271 0.0
C253 C 0.49425 0.33207 0.13692 0.0
C254 C 0.46112 0.28759 0.1256 0.0
C255 C 0.42104 0.30575 0.99779 0.0
C256 C 0.42488 0.27459 0.05394 0.0
C257 C 0.46171 0.25621 0.19854 0.0
H258 H 0.49597 0.0827 0.12187 0.0
H259 H 0.51297 0.15658 0.19867 0.0
H260 H 0.36155 0.04629 0.06889 0.0
H261 H 0.37877 0.12003 0.14875 0.0
H262 H 0.37853 0.07324 0.51212 0.0
H263 H 0.38738 0.13622 0.42017 0.0
H264 H 0.51427 0.1168 0.49244 0.0
H265 H 0.52286 0.18002 0.40286 0.0
H266 H 0.3786 0.32816 0.39228 0.0
H267 H 0.38787 0.26629 0.31838 0.0
H268 H 0.51676 0.40711 0.46841 0.0
H269 H 0.52531 0.34464 0.39951 0.0
H270 H 0.51597 0.39751 0.09379 0.0
H271 H 0.52298 0.34275 0.19013 0.0
H272 H 0.39234 0.29467 0.94407 0.0
H273 H 0.39881 0.24062 0.04433 0.0
N274 N 0.45781 0.21713 0.15709 0.0
N275 N 0.46114 0.23452 0.37664 0.0
C276 C 0.93637 0.38647 0.9433 0.0
C277 C 0.06626 0.45527 0.86196 0.0
C278 C 0.0375 0.58836 0.81037 0.0
Mg279 Mg -0.01963 0.40504 0.72962 0.0
O280 O 0.9674 0.45079 0.76144 0.0
Mg281 Mg -0.00416 0.49196 0.89673 0.0
Mg282 Mg -0.01531 0.49372 0.65665 0.0
O283 O 0.00205 0.53679 0.5522 0.0
Mg284 Mg -0.01091 0.58253 0.58527 0.0
Mg285 Mg 0.97337 0.49566 0.41711 0.0
C286 C 0.93281 0.39913 0.50286 0.0
C287 C 0.04863 0.4763 0.494 0.0
O288 O 0.9538 0.4281 0.97468 0.0
O289 O 0.94343 0.37089 0.85438 0.0
O290 O 0.05025 0.4779 0.90297 0.0
O291 O 0.0467 0.42581 0.78169 0.0
O292 O 0.94822 0.38186 0.5657 0.0
O293 O 0.93939 0.43864 0.52511 0.0
C294 C 0.92085 0.51158 0.81932 0.0
O295 O 0.92872 0.5075 0.71977 0.0
O296 O 0.94221 0.50688 0.89536 0.0
O297 O 0.01462 0.55968 0.33899 0.0
O298 O 0.02517 0.61688 0.45952 0.0
O299 O 0.91883 0.50947 0.41241 0.0
C300 C 0.03179 0.60132 0.36993 0.0
O301 O 0.92255 0.56143 0.53452 0.0
O302 O 0.02213 0.60596 0.74853 0.0
C303 C 0.90286 0.53203 0.45417 0.0
O304 O 0.03016 0.54862 0.78786 0.0
O305 O 0.04058 0.48007 0.5935 0.0
O306 O 0.02735 0.48112 0.41789 0.0
C307 C 0.42115 0.02396 1.00706 0.0
C308 C 0.36403 0.90044 0.8157 0.0
C309 C 0.5258 0.93753 0.75287 0.0
Mg310 Mg 0.39944 -0.00578 0.7616 0.0
O311 O 0.45638 0.0053 0.78622 0.0
Mg312 Mg 0.46898 0.97134 0.88991 0.0
Mg313 Mg 0.48293 -0.00554 0.66117 0.0
O314 O 0.50997 0.98393 0.53628 0.0
Mg315 Mg 0.56778 -0.00197 0.56291 0.0
Mg316 Mg 0.49607 0.01615 0.43034 0.0
C317 C 0.44103 0.05298 0.56976 0.0
C318 C 0.40597 0.9303 0.46625 0.0
O319 O 0.44544 0.00643 0.0137 0.0
O320 O 0.40036 0.02199 0.91936 0.0
O321 O 0.40142 0.91405 0.86142 0.0
O322 O 0.35533 0.92474 0.76069 0.0
O323 O 0.4094 0.03602 0.63033 0.0
O324 O 0.47147 0.0433 0.57273 0.0
C325 C 0.56108 0.05564 0.85707 0.0
O326 O 0.54975 0.05168 0.75543 0.0
O327 O 0.53583 0.02867 0.91896 0.0
O328 O 0.52123 0.98195 0.30913 0.0
O329 O 0.56818 0.96982 0.40626 0.0
O330 O 0.56203 0.0744 0.45549 0.0
C331 C 0.54687 0.96608 0.31777 0.0
O332 O 0.60968 0.06838 0.56149 0.0
O333 O 0.55822 0.95653 0.69534 0.0
C334 C 0.59972 0.09053 0.50149 0.0
O335 O 0.49396 0.94506 0.74757 0.0
O336 O 0.41633 0.93676 0.5689 0.0
O337 O 0.43083 0.95662 0.40279 0.0
C338 C 0.52287 0.60786 0.36647 0.0
C339 C 0.59462 0.54082 0.40829 0.0
C340 C 0.44114 0.40371 0.50641 0.0
Mg341 Mg 0.56088 0.5872 0.56787 0.0
O342 O 0.50392 0.53983 0.55157 0.0
Mg343 Mg 0.48638 0.5009 0.41217 0.0
Mg344 Mg 0.48563 0.49564 0.65868 0.0
O345 O 0.46741 0.4514 0.76558 0.0
Mg346 Mg 0.4107 0.40358 0.74936 0.0
Mg347 Mg 0.48496 0.4902 0.90505 0.0
C348 C 0.53015 0.58756 0.8106 0.0
C349 C 0.57262 0.51303 0.79252 0.0
O350 O 0.49982 0.56599 0.33527 0.0
O351 O 0.54811 0.62291 0.45345 0.0
O352 O 0.5549 0.51553 0.376 0.0
O353 O 0.60564 0.56936 0.4913 0.0
O354 O 0.55807 0.60501 0.74034 0.0
O355 O 0.49838 0.54771 0.79574 0.0
C356 C 0.3987 0.47834 0.52451 0.0
O357 O 0.41541 0.48059 0.61887 0.0
O358 O 0.4199 0.48557 0.44106 0.0
O359 O 0.47194 0.42511 0.98172 0.0
O360 O 0.42393 0.36804 0.86347 0.0
O361 O 0.41632 0.47516 0.94118 0.0
C362 C 0.44917 0.38322 0.95044 0.0
O363 O 0.36577 0.42104 0.82603 0.0
O364 O 0.41333 0.38594 0.57671 0.0
C365 C 0.37663 0.44962 0.90888 0.0
O366 O 0.47278 0.44359 0.52194 0.0
O367 O 0.55582 0.51065 0.69819 0.0
O368 O 0.55148 0.50584 0.87606 0.0
loop_
_geom_bond_atom_site_label_1
_geom_bond_atom_site_label_2
_geom_bond_distance
_geom_bond_site_symmetry_2
_ccdc_geom_bond_type
C0 C1 1.384 1_554 S
C0 C2 1.384 . S
C0 H28 0.931 . S
C1 C0 1.384 1_556 S
C1 C4 1.382 . S
C2 C0 1.384 . S
C2 C3 1.381 . S
C2 H29 0.930 . S
C3 C2 1.381 . S
C3 C5 1.381 . S
C3 C6 1.487 . S
C4 C1 1.382 . S
C4 C5 1.387 1_556 S
C4 H30 0.930 . S
C5 C3 1.381 . S
C5 C4 1.387 1_554 S
C5 H31 0.931 1_554 S
C6 C3 1.487 . S
C6 C13 1.399 . S
C6 N44 1.343 . S
C7 C8 1.384 . S
C7 C9 1.384 . S
C7 H32 0.931 . S
C8 C7 1.384 . S
C8 C11 1.382 . S
C9 C7 1.384 . S
C9 C10 1.381 . S
C9 H33 0.930 . S
C10 C9 1.381 . S
C10 C12 1.381 . S
C10 C13 1.487 . S
C11 C8 1.382 . S
C11 C12 1.387 . S
C11 H34 0.930 . S
C12 C10 1.381 . S
C12 C11 1.387 . S
C12 H35 0.931 . S
C13 C6 1.399 . S
C13 C10 1.487 . S
C13 N45 1.343 . S
C14 C15 1.384 . S
C14 C16 1.384 . S
C14 H36 0.931 . S
C15 C14 1.384 . S
C15 C18 1.382 . S
C16 C14 1.384 . S
C16 C17 1.381 . S
C16 H37 0.930 . S
C17 C16 1.381 . S
C17 C19 1.381 . S
C17 C20 1.487 . S
C18 C15 1.382 . S
C18 C19 1.387 . S
C18 H38 0.930 . S
C19 C17 1.381 . S
C19 C18 1.387 . S
C19 H39 0.931 . S
C20 C17 1.487 . S
C20 C27 1.399 . S
C20 N45 1.343 . S
C21 C22 1.384 1_554 S
C21 C23 1.384 . S
C21 H40 0.931 . S
C22 C21 1.384 1_556 S
C22 C25 1.382 . S
C23 C21 1.384 . S
C23 C24 1.381 . S
C23 H41 0.930 . S
C24 C23 1.381 . S
C24 C26 1.381 . S
C24 C27 1.487 . S
C25 C22 1.382 . S
C25 C26 1.387 1_556 S
C25 H42 0.930 . S
C26 C24 1.381 . S
C26 C25 1.387 1_554 S
C26 H43 0.931 1_554 S
C27 C20 1.399 . S
C27 C24 1.487 . S
C27 N44 1.343 . S
H28 C0 0.931 . S
H29 C2 0.930 . S
H30 C4 0.930 . S
H31 C5 0.931 1_556 S
H32 C7 0.931 . S
H33 C9 0.930 . S
H34 C11 0.930 . S
H35 C12 0.931 . S
H36 C14 0.931 . S
H37 C16 0.930 . S
H38 C18 0.930 . S
H39 C19 0.931 . S
H40 C21 0.931 . S
H41 C23 0.930 . S
H42 C25 0.930 . S
H43 C26 0.931 1_556 S
N44 C6 1.343 . S
N44 C27 1.343 . S
N45 C13 1.343 . S
N45 C20 1.343 . S
C46 C47 1.384 . S
C46 C48 1.384 . S
C46 H74 0.931 . S
C47 C46 1.384 . S
C47 C50 1.382 . S
C48 C46 1.384 . S
C48 C49 1.381 . S
C48 H75 0.930 . S
C49 C48 1.381 . S
C49 C51 1.381 . S
C49 C52 1.487 . S
C50 C47 1.382 . S
C50 C51 1.387 . S
C50 H76 0.930 . S
C51 C49 1.381 . S
C51 C50 1.387 . S
C51 H77 0.931 . S
C52 C49 1.487 . S
C52 C59 1.399 . S
C52 N90 1.343 . S
C53 C54 1.384 . S
C53 C55 1.384 1_556 S
C53 H78 0.931 . S
C54 C53 1.384 . S
C54 C57 1.382 . S
C55 C53 1.384 1_554 S
C55 C56 1.381 . S
C55 H79 0.930 . S
C56 C55 1.381 . S
C56 C58 1.381 1_554 S
C56 C59 1.487 . S
C57 C54 1.382 . S
C57 C58 1.387 . S
C57 H80 0.930 . S
C58 C56 1.381 1_556 S
C58 C57 1.387 . S
C58 H81 0.931 . S
C59 C52 1.399 . S
C59 C56 1.487 . S
C59 N91 1.343 . S
C60 C61 1.384 1_554 S
C60 C62 1.384 . S
C60 H82 0.931 . S
C61 C60 1.384 1_556 S
C61 C64 1.382 . S
C62 C60 1.384 . S
C62 C63 1.381 . S
C62 H83 0.930 . S
C63 C62 1.381 . S
C63 C65 1.381 1_554 S
C63 C66 1.487 . S
C64 C61 1.382 . S
C64 C65 1.387 . S
C64 H84 0.930 . S
C65 C63 1.381 1_556 S
C65 C64 1.387 . S
C65 H85 0.931 . S
C66 C63 1.487 . S
C66 C73 1.399 . S
C66 N91 1.343 . S
C67 C68 1.384 . S
C67 C69 1.384 . S
C67 H86 0.931 . S
C68 C67 1.384 . S
C68 C71 1.382 . S
C69 C67 1.384 . S
C69 C70 1.381 . S
C69 H87 0.930 . S
C70 C69 1.381 . S
C70 C72 1.381 . S
C70 C73 1.487 . S
C71 C68 1.382 . S
C71 C72 1.387 . S
C71 H88 0.930 . S
C72 C70 1.381 . S
C72 C71 1.387 . S
C72 H89 0.931 . S
C73 C66 1.399 . S
C73 C70 1.487 . S
C73 N90 1.343 . S
H74 C46 0.931 . S
H75 C48 0.930 . S
H76 C50 0.930 . S
H77 C51 0.931 . S
H78 C53 0.931 . S
H79 C55 0.930 . S
H80 C57 0.930 . S
H81 C58 0.931 . S
H82 C60 0.931 . S
H83 C62 0.930 . S
H84 C64 0.930 . S
H85 C65 0.931 . S
H86 C67 0.931 . S
H87 C69 0.930 . S
H88 C71 0.930 . S
H89 C72 0.931 . S
N90 C52 1.343 . S
N90 C73 1.343 . S
N91 C59 1.343 . S
N91 C66 1.343 . S
C92 C93 1.384 . S
C92 C94 1.384 . S
C92 H120 0.931 . S
C93 C92 1.384 . S
C93 C96 1.382 . S
C94 C92 1.384 . S
C94 C95 1.381 . S
C94 H121 0.930 . S
C95 C94 1.381 . S
C95 C97 1.381 . S
C95 C98 1.487 . S
C96 C93 1.382 . S
C96 C97 1.387 . S
C96 H122 0.930 . S
C97 C95 1.381 . S
C97 C96 1.387 . S
C97 H123 0.931 . S
C98 C95 1.487 . S
C98 C105 1.399 1_556 S
C98 N136 1.343 . S
C99 C100 1.384 . S
C99 C101 1.384 . S
C99 H124 0.931 . S
C100 C99 1.384 . S
C100 C103 1.382 . S
C101 C99 1.384 . S
C101 C102 1.381 . S
C101 H125 0.930 . S
C102 C101 1.381 . S
C102 C104 1.381 . S
C102 C105 1.487 . S
C103 C100 1.382 . S
C103 C104 1.387 . S
C103 H126 0.930 . S
C104 C102 1.381 . S
C104 C103 1.387 . S
C104 H127 0.931 . S
C105 C98 1.399 1_554 S
C105 C102 1.487 . S
C105 N137 1.343 . S
C106 C107 1.384 . S
C106 C108 1.384 . S
C106 H128 0.931 . S
C107 C106 1.384 . S
C107 C110 1.382 . S
C108 C106 1.384 . S
C108 C109 1.381 . S
C108 H129 0.930 . S
C109 C108 1.381 . S
C109 C111 1.381 . S
C109 C112 1.487 . S
C110 C107 1.382 . S
C110 C111 1.387 . S
C110 H130 0.930 . S
C111 C109 1.381 . S
C111 C110 1.387 . S
C111 H131 0.931 . S
C112 C109 1.487 . S
C112 C119 1.399 1_554 S
C112 N137 1.343 . S
C113 C114 1.384 . S
C113 C115 1.384 . S
C113 H132 0.931 . S
C114 C113 1.384 . S
C114 C117 1.382 . S
C115 C113 1.384 . S
C115 C116 1.381 . S
C115 H133 0.930 . S
C116 C115 1.381 . S
C116 C118 1.381 . S
C116 C119 1.487 . S
C117 C114 1.382 . S
C117 C118 1.387 . S
C117 H134 0.930 . S
C118 C116 1.381 . S
C118 C117 1.387 . S
C118 H135 0.931 . S
C119 C112 1.399 1_556 S
C119 C116 1.487 . S
C119 N136 1.343 . S
H120 C92 0.931 . S
H121 C94 0.930 . S
H122 C96 0.930 . S
H123 C97 0.931 . S
H124 C99 0.931 . S
H125 C101 0.930 . S
H126 C103 0.930 . S
H127 C104 0.931 . S
H128 C106 0.931 . S
H129 C108 0.930 . S
H130 C110 0.930 . S
H131 C111 0.931 . S
H132 C113 0.931 . S
H133 C115 0.930 . S
H134 C117 0.930 . S
H135 C118 0.931 . S
N136 C98 1.343 . S
N136 C119 1.343 . S
N137 C105 1.343 . S
N137 C112 1.343 . S
C138 C139 1.384 . S
C138 C140 1.384 . S
C138 H166 0.931 . S
C139 C138 1.384 . S
C139 C142 1.382 . S
C140 C138 1.384 . S
C140 C141 1.381 . S
C140 H167 0.930 1_556 S
C141 C140 1.381 . S
C141 C143 1.381 . S
C141 C144 1.487 1_556 S
C142 C139 1.382 . S
C142 C143 1.387 . S
C142 H168 0.930 . S
C143 C141 1.381 . S
C143 C142 1.387 . S
C143 H169 0.931 . S
C144 C141 1.487 1_554 S
C144 C151 1.399 . S
C144 N182 1.343 1_554 S
C145 C146 1.384 . S
C145 C147 1.384 . S
C145 H170 0.931 . S
C146 C145 1.384 . S
C146 C149 1.382 . S
C147 C145 1.384 . S
C147 C148 1.381 . S
C147 H171 0.930 . S
C148 C147 1.381 . S
C148 C150 1.381 . S
C148 C151 1.487 . S
C149 C146 1.382 . S
C149 C150 1.387 . S
C149 H172 0.930 . S
C150 C148 1.381 . S
C150 C149 1.387 . S
C150 H173 0.931 . S
C151 C144 1.399 . S
C151 C148 1.487 . S
C151 N183 1.343 . S
C152 C153 1.384 . S
C152 C154 1.384 . S
C152 H174 0.931 . S
C153 C152 1.384 . S
C153 C156 1.382 . S
C154 C152 1.384 . S
C154 C155 1.381 . S
C154 H175 0.930 . S
C155 C154 1.381 . S
C155 C157 1.381 . S
C155 C158 1.487 . S
C156 C153 1.382 . S
C156 C157 1.387 . S
C156 H176 0.930 . S
C157 C155 1.381 . S
C157 C156 1.387 . S
C157 H177 0.931 . S
C158 C155 1.487 . S
C158 C165 1.399 . S
C158 N183 1.343 . S
C159 C160 1.384 . S
C159 C161 1.384 . S
C159 H178 0.931 . S
C160 C159 1.384 . S
C160 C163 1.382 . S
C161 C159 1.384 . S
C161 C162 1.381 . S
C161 H179 0.930 1_556 S
C162 C161 1.381 . S
C162 C164 1.381 . S
C162 C165 1.487 1_556 S
C163 C160 1.382 . S
C163 C164 1.387 . S
C163 H180 0.930 . S
C164 C162 1.381 . S
C164 C163 1.387 . S
C164 H181 0.931 . S
C165 C158 1.399 . S
C165 C162 1.487 1_554 S
C165 N182 1.343 1_554 S
H166 C138 0.931 . S
H167 C140 0.930 1_554 S
H168 C142 0.930 . S
H169 C143 0.931 . S
H170 C145 0.931 . S
H171 C147 0.930 . S
H172 C149 0.930 . S
H173 C150 0.931 . S
H174 C152 0.931 . S
H175 C154 0.930 . S
H176 C156 0.930 . S
H177 C157 0.931 . S
H178 C159 0.931 . S
H179 C161 0.930 1_554 S
H180 C163 0.930 . S
H181 C164 0.931 . S
N182 C144 1.343 1_556 S
N182 C165 1.343 1_556 S
N183 C151 1.343 . S
N183 C158 1.343 . S
C184 C185 1.384 . S
C184 C186 1.384 1_556 S
C184 H212 0.931 . S
C185 C184 1.384 . S
C185 C188 1.382 . S
C186 C184 1.384 1_554 S
C186 C187 1.381 . S
C186 H213 0.930 . S
C187 C186 1.381 . S
C187 C189 1.381 1_554 S
C187 C190 1.487 . S
C188 C185 1.382 . S
C188 C189 1.387 . S
C188 H214 0.930 . S
C189 C187 1.381 1_556 S
C189 C188 1.387 . S
C189 H215 0.931 . S
C190 C187 1.487 . S
C190 C197 1.399 . S
C190 N228 1.343 . S
C191 C192 1.384 . S
C191 C193 1.384 . S
C191 H216 0.931 . S
C192 C191 1.384 . S
C192 C195 1.382 . S
C193 C191 1.384 . S
C193 C194 1.381 . S
C193 H217 0.930 . S
C194 C193 1.381 . S
C194 C196 1.381 . S
C194 C197 1.487 . S
C195 C192 1.382 . S
C195 C196 1.387 . S
C195 H218 0.930 . S
C196 C194 1.381 . S
C196 C195 1.387 . S
C196 H219 0.931 . S
C197 C190 1.399 . S
C197 C194 1.487 . S
C197 N229 1.343 . S
C198 C199 1.384 . S
C198 C200 1.384 . S
C198 H220 0.931 . S
C199 C198 1.384 . S
C199 C202 1.382 . S
C200 C198 1.384 . S
C200 C201 1.381 . S
C200 H221 0.930 . S
C201 C200 1.381 . S
C201 C203 1.381 . S
C201 C204 1.487 . S
C202 C199 1.382 . S
C202 C203 1.387 . S
C202 H222 0.930 . S
C203 C201 1.381 . S
C203 C202 1.387 . S
C203 H223 0.931 . S
C204 C201 1.487 . S
C204 C211 1.399 . S
C204 N229 1.343 . S
C205 C206 1.384 . S
C205 C207 1.384 . S
C205 H224 0.931 . S
C206 C205 1.384 . S
C206 C209 1.382 . S
C207 C205 1.384 . S
C207 C208 1.381 . S
C207 H225 0.930 1_556 S
C208 C207 1.381 . S
C208 C210 1.381 . S
C208 C211 1.487 1_556 S
C209 C206 1.382 . S
C209 C210 1.387 . S
C209 H226 0.930 . S
C210 C208 1.381 . S
C210 C209 1.387 . S
C210 H227 0.931 . S
C211 C204 1.399 . S
C211 C208 1.487 1_554 S
C211 N228 1.343 . S
H212 C184 0.931 . S
H213 C186 0.930 . S
H214 C188 0.930 . S
H215 C189 0.931 . S
H216 C191 0.931 . S
H217 C193 0.930 . S
H218 C195 0.930 . S
H219 C196 0.931 . S
H220 C198 0.931 . S
H221 C200 0.930 . S
H222 C202 0.930 . S
H223 C203 0.931 . S
H224 C205 0.931 . S
H225 C207 0.930 1_554 S
H226 C209 0.930 . S
H227 C210 0.931 . S
N228 C190 1.343 . S
N228 C211 1.343 . S
N229 C197 1.343 . S
N229 C204 1.343 . S
C230 C231 1.384 . S
C230 C232 1.384 . S
C230 H258 0.931 . S
C231 C230 1.384 . S
C231 C234 1.382 1_554 S
C232 C230 1.384 . S
C232 C233 1.381 . S
C232 H259 0.930 . S
C233 C232 1.381 . S
C233 C235 1.381 . S
C233 C236 1.487 . S
C234 C231 1.382 1_556 S
C234 C235 1.387 1_556 S
C234 H260 0.930 . S
C235 C233 1.381 . S
C235 C234 1.387 1_554 S
C235 H261 0.931 . S
C236 C233 1.487 . S
C236 C243 1.399 . S
C236 N274 1.343 . S
C237 C238 1.384 . S
C237 C239 1.384 . S
C237 H262 0.931 . S
C238 C237 1.384 . S
C238 C241 1.382 . S
C239 C237 1.384 . S
C239 C240 1.381 . S
C239 H263 0.930 . S
C240 C239 1.381 . S
C240 C242 1.381 . S
C240 C243 1.487 . S
C241 C238 1.382 . S
C241 C242 1.387 . S
C241 H264 0.930 . S
C242 C240 1.381 . S
C242 C241 1.387 . S
C242 H265 0.931 . S
C243 C236 1.399 . S
C243 C240 1.487 . S
C243 N275 1.343 . S
C244 C245 1.384 . S
C244 C246 1.384 . S
C244 H266 0.931 . S
C245 C244 1.384 . S
C245 C248 1.382 . S
C246 C244 1.384 . S
C246 C247 1.381 . S
C246 H267 0.930 . S
C247 C246 1.381 . S
C247 C249 1.381 . S
C247 C250 1.487 . S
C248 C245 1.382 . S
C248 C249 1.387 . S
C248 H268 0.930 . S
C249 C247 1.381 . S
C249 C248 1.387 . S
C249 H269 0.931 . S
C250 C247 1.487 . S
C250 C257 1.399 . S
C250 N275 1.343 . S
C251 C252 1.384 . S
C251 C253 1.384 . S
C251 H270 0.931 . S
C252 C251 1.384 . S
C252 C255 1.382 . S
C253 C251 1.384 . S
C253 C254 1.381 . S
C253 H271 0.930 . S
C254 C253 1.381 . S
C254 C256 1.381 . S
C254 C257 1.487 . S
C255 C252 1.382 . S
C255 C256 1.388 . S
C255 H272 0.930 1_554 S
C256 C254 1.381 . S
C256 C255 1.388 . S
C256 H273 0.931 . S
C257 C250 1.399 . S
C257 C254 1.487 . S
C257 N274 1.343 . S
H258 C230 0.931 . S
H259 C232 0.930 . S
H260 C234 0.930 . S
H261 C235 0.931 . S
H262 C237 0.931 . S
H263 C239 0.930 . S
H264 C241 0.930 . S
H265 C242 0.931 . S
H266 C244 0.931 . S
H267 C246 0.930 . S
H268 C248 0.930 . S
H269 C249 0.931 . S
H270 C251 0.931 . S
H271 C253 0.930 . S
H272 C255 0.930 1_556 S
H273 C256 0.931 . S
N274 C236 1.343 . S
N274 C257 1.343 . S
N275 C243 1.343 . S
N275 C250 1.343 . S
C276 O288 1.241 . S
C276 O289 1.280 . S
C277 O290 1.277 . S
C277 O291 1.245 . S
C278 O302 1.247 . S
C278 O304 1.289 . S
Mg279 O280 1.926 . S
Mg279 O289 1.984 . S
Mg279 O291 1.988 1_655 S
Mg279 O292 2.061 . S
O280 Mg279 1.926 . S
O280 Mg281 1.986 1_655 S
O280 Mg282 1.917 1_655 S
Mg281 O280 1.986 1_455 S
Mg281 O288 2.042 1_455 S
Mg281 O290 2.041 . S
Mg281 O296 2.038 1_455 S
Mg281 O304 2.238 . S
Mg282 O280 1.917 1_455 S
Mg282 O283 1.917 . S
Mg282 O293 2.106 1_455 S
Mg282 O295 2.079 1_455 S
Mg282 O304 2.106 . S
Mg282 O305 2.079 . S
O283 Mg282 1.917 . S
O283 Mg284 1.926 . S
O283 Mg285 1.986 . S
Mg284 O283 1.926 . S
Mg284 O298 1.984 . S
Mg284 O301 1.988 1_455 S
Mg284 O302 2.061 . S
Mg285 O283 1.986 . S
Mg285 O293 2.238 1_455 S
Mg285 O297 2.042 . S
Mg285 O299 2.041 1_455 S
Mg285 O306 2.038 . S
C286 O292 1.247 . S
C286 O293 1.289 . S
C287 O305 1.245 . S
C287 O306 1.274 . S
O288 C276 1.241 . S
O288 Mg281 2.042 1_655 S
O289 C276 1.280 . S
O289 Mg279 1.984 . S
O290 C277 1.277 . S
O290 Mg281 2.041 . S
O291 C277 1.245 . S
O291 Mg279 1.988 1_455 S
O292 Mg279 2.061 . S
O292 C286 1.247 . S
O293 Mg282 2.106 1_655 S
O293 Mg285 2.238 1_655 S
O293 C286 1.289 . S
C294 O295 1.245 . S
C294 O296 1.274 . S
O295 Mg282 2.079 1_655 S
O295 C294 1.245 . S
O296 Mg281 2.038 1_655 S
O296 C294 1.274 . S
O297 Mg285 2.042 . S
O297 C300 1.241 . S
O298 Mg284 1.984 . S
O298 C300 1.280 . S
O299 Mg285 2.041 1_655 S
O299 C303 1.277 . S
C300 O297 1.241 . S
C300 O298 1.280 . S
O301 Mg284 1.988 1_655 S
O301 C303 1.245 . S
O302 C278 1.247 . S
O302 Mg284 2.061 . S
C303 O299 1.277 . S
C303 O301 1.245 . S
O304 C278 1.289 . S
O304 Mg281 2.238 . S
O304 Mg282 2.106 . S
O305 Mg282 2.079 . S
O305 C287 1.245 . S
O306 Mg285 2.038 . S
O306 C287 1.274 . S
C307 O319 1.241 . S
C307 O320 1.280 . S
C308 O321 1.277 . S
C308 O322 1.245 . S
C309 O333 1.247 . S
C309 O335 1.289 . S
Mg310 O311 1.926 . S
Mg310 O320 1.984 . S
Mg310 O322 1.988 1_545 S
Mg310 O323 2.061 . S
O311 Mg310 1.926 . S
O311 Mg312 1.986 . S
O311 Mg313 1.917 . S
Mg312 O311 1.986 . S
Mg312 O319 2.042 . S
Mg312 O321 2.041 1_545 S
Mg312 O327 2.038 . S
Mg312 O335 2.238 1_545 S
Mg313 O311 1.917 . S
Mg313 O314 1.917 1_545 S
Mg313 O324 2.106 . S
Mg313 O326 2.079 . S
Mg313 O335 2.106 1_545 S
Mg313 O336 2.079 1_545 S
O314 Mg313 1.917 1_565 S
O314 Mg315 1.926 . S
O314 Mg316 1.986 1_565 S
Mg315 O314 1.926 . S
Mg315 O329 1.984 . S
Mg315 O332 1.988 1_565 S
Mg315 O333 2.061 . S
Mg316 O314 1.986 1_545 S
Mg316 O324 2.238 . S
Mg316 O328 2.042 1_545 S
Mg316 O330 2.041 . S
Mg316 O337 2.038 1_545 S
C317 O323 1.247 . S
C317 O324 1.289 . S
C318 O336 1.245 . S
C318 O337 1.274 . S
O319 C307 1.241 . S
O319 Mg312 2.042 . S
O320 C307 1.280 . S
O320 Mg310 1.984 . S
O321 C308 1.277 . S
O321 Mg312 2.041 1_565 S
O322 C308 1.245 . S
O322 Mg310 1.988 1_565 S
O323 Mg310 2.061 . S
O323 C317 1.247 . S
O324 Mg313 2.106 . S
O324 Mg316 2.238 . S
O324 C317 1.289 . S
C325 O326 1.245 . S
C325 O327 1.274 . S
O326 Mg313 2.079 . S
O326 C325 1.245 . S
O327 Mg312 2.038 . S
O327 C325 1.274 . S
O328 Mg316 2.042 1_565 S
O328 C331 1.241 . S
O329 Mg315 1.984 . S
O329 C331 1.280 . S
O330 Mg316 2.041 . S
O330 C334 1.277 . S
C331 O328 1.241 . S
C331 O329 1.280 . S
O332 Mg315 1.988 1_545 S
O332 C334 1.245 . S
O333 C309 1.247 . S
O333 Mg315 2.061 . S
C334 O330 1.277 . S
C334 O332 1.245 . S
O335 C309 1.289 . S
O335 Mg312 2.238 1_565 S
O335 Mg313 2.106 1_565 S
O336 Mg313 2.079 1_565 S
O336 C318 1.245 . S
O337 Mg316 2.038 1_565 S
O337 C318 1.274 . S
C338 O350 1.241 . S
C338 O351 1.280 . S
C339 O352 1.277 . S
C339 O353 1.245 . S
C340 O364 1.247 . S
C340 O366 1.289 . S
Mg341 O342 1.926 . S
Mg341 O351 1.984 . S
Mg341 O353 1.988 . S
Mg341 O354 2.061 . S
O342 Mg341 1.926 . S
O342 Mg343 1.986 . S
O342 Mg344 1.917 . S
Mg343 O342 1.986 . S
Mg343 O350 2.042 . S
Mg343 O352 2.041 . S
Mg343 O358 2.038 . S
Mg343 O366 2.238 . S
Mg344 O342 1.917 . S
Mg344 O345 1.917 . S
Mg344 O355 2.106 . S
Mg344 O357 2.079 . S
Mg344 O366 2.106 . S
Mg344 O367 2.079 . S
O345 Mg344 1.917 . S
O345 Mg346 1.926 . S
O345 Mg347 1.986 . S
Mg346 O345 1.926 . S
Mg346 O360 1.984 . S
Mg346 O363 1.988 . S
Mg346 O364 2.061 . S
Mg347 O345 1.986 . S
Mg347 O355 2.238 . S
Mg347 O359 2.042 . S
Mg347 O361 2.041 . S
Mg347 O368 2.038 . S
C348 O354 1.247 . S
C348 O355 1.289 . S
C349 O367 1.245 . S
C349 O368 1.274 . S
O350 C338 1.241 . S
O350 Mg343 2.042 . S
O351 C338 1.280 . S
O351 Mg341 1.984 . S
O352 C339 1.277 . S
O352 Mg343 2.041 . S
O353 C339 1.245 . S
O353 Mg341 1.988 . S
O354 Mg341 2.061 . S
O354 C348 1.247 . S
O355 Mg344 2.106 . S
O355 Mg347 2.238 . S
O355 C348 1.289 . S
C356 O357 1.245 . S
C356 O358 1.274 . S
O357 Mg344 2.079 . S
O357 C356 1.245 . S
O358 Mg343 2.038 . S
O358 C356 1.274 . S
O359 Mg347 2.042 . S
O359 C362 1.241 . S
O360 Mg346 1.984 . S
O360 C362 1.280 . S
O361 Mg347 2.041 . S
O361 C365 1.277 . S
C362 O359 1.241 . S
C362 O360 1.280 . S
O363 Mg346 1.988 . S
O363 C365 1.245 . S
O364 C340 1.247 . S
O364 Mg346 2.061 . S
C365 O361 1.277 . S
C365 O363 1.245 . S
O366 C340 1.289 . S
O366 Mg343 2.238 . S
O366 Mg344 2.106 . S
O367 Mg344 2.079 . S
O367 C349 1.245 . S
O368 Mg347 2.038 . S
O368 C349 1.274 . S
C15 C287 2.378 . S
C47 C334 1.577 . S
C338 C100 1.846 . S
C303 C146 1.406 . S
C192 C318 2.346 . S
C340 C245 1.260 . S
C309 C114 1.819 . S
C160 C349 1.797 . S
C278 C206 1.668 . S
C231 C307 1.258 1_554 S
C1 C365 2.004 . S
C276 C61 1.534 . S
C294 C139 2.378 . S
C308 C185 1.559 . S
C362 C252 1.846 1_556 S
C277 C22 1.406 . S
C325 C54 2.295 . S
C93 C348 1.260 . S
C317 C238 1.819 . S
C356 C8 1.797 . S
C286 C68 1.716 . S
C331 C107 1.258 . S
C153 C339 2.004 . S
C199 C300 1.566 . S
