# Generated by pormake.
# Topology anh, (6,3)-cn, num edge types: 1
# Building blocks:
#     Node 0, Type 0, BuildingBlock: CUWYAW_clean_sbu_0, # of connection points: 6
#     Node 1, Type 0, BuildingBlock: CUWYAW_clean_sbu_0, # of connection points: 6
#     Node 2, Type 0, BuildingBlock: CUWYAW_clean_sbu_0, # of connection points: 6
#     Node 3, Type 1, BuildingBlock: BELTOD_clean_linker_0, # of connection points: 3
#     Node 4, Type 1, BuildingBlock: BELTOD_clean_linker_0, # of connection points: 3
#     Node 5, Type 1, BuildingBlock: BELTOD_clean_linker_0, # of connection points: 3
#     Node 6, Type 1, BuildingBlock: BELTOD_clean_linker_0, # of connection points: 3
#     Node 7, Type 1, BuildingBlock: BELTOD_clean_linker_0, # of connection points: 3
#     Node 8, Type 1, BuildingBlock: BELTOD_clean_linker_0, # of connection points: 3
#     Edge 9, Type (0, 1), BuildingBlock: OJICUG_clean_linker_0, # of connection points: 2
#     Edge 10, Type (0, 1), BuildingBlock: OJICUG_clean_linker_0, # of connection points: 2
#     Edge 11, Type (0, 1), BuildingBlock: OJICUG_clean_linker_0, # of connection points: 2
#     Edge 12, Type (0, 1), BuildingBlock: OJICUG_clean_linker_0, # of connection points: 2
#     Edge 13, Type (0, 1), BuildingBlock: OJICUG_clean_linker_0, # of connection points: 2
#     Edge 14, Type (0, 1), BuildingBlock: OJICUG_clean_linker_0, # of connection points: 2
#     Edge 15, Type (0, 1), BuildingBlock: OJICUG_clean_linker_0, # of connection points: 2
#     Edge 16, Type (0, 1), BuildingBlock: OJICUG_clean_linker_0, # of connection points: 2
#     Edge 17, Type (0, 1), BuildingBlock: OJICUG_clean_linker_0, # of connection points: 2
#     Edge 18, Type (0, 1), BuildingBlock: OJICUG_clean_linker_0, # of connection points: 2
#     Edge 19, Type (0, 1), BuildingBlock: OJICUG_clean_linker_0, # of connection points: 2
#     Edge 20, Type (0, 1), BuildingBlock: OJICUG_clean_linker_0, # of connection points: 2
#     Edge 21, Type (0, 1), BuildingBlock: OJICUG_clean_linker_0, # of connection points: 2
#     Edge 22, Type (0, 1), BuildingBlock: OJICUG_clean_linker_0, # of connection points: 2
#     Edge 23, Type (0, 1), BuildingBlock: OJICUG_clean_linker_0, # of connection points: 2
#     Edge 24, Type (0, 1), BuildingBlock: OJICUG_clean_linker_0, # of connection points: 2
#     Edge 25, Type (0, 1), BuildingBlock: OJICUG_clean_linker_0, # of connection points: 2
#     Edge 26, Type (0, 1), BuildingBlock: OJICUG_clean_linker_0, # of connection points: 2
# Relax obj value: 0.334
# Max RMSD: 0.192
# Mean RMSD: 0.159
data_MOF--net-anh--node1-CUWYAW_clean_sbu_0--node2-BELTOD_clean_linker_0--edge1-OJICUG_clean_linker_0
_symmetry_space_group_name_H-M    P1
_symmetry_Int_Tables_number       1
_symmetry_cell_setting            triclinic
loop_
_symmetry_equiv_pos_as_xyz
'x, y, z'
_cell_length_a     27.309678
_cell_length_b     27.359482
_cell_length_c     46.35472
_cell_angle_alpha  90.492512
_cell_angle_beta   89.322049
_cell_angle_gamma 120.26469
loop_
_atom_site_label
_atom_site_type_symbol
_atom_site_fract_x
_atom_site_fract_y
_atom_site_fract_z
_atom_type_partial_charge
C0 C 0.96613 0.42214 0.13021 0.0
Eu1 Eu 1.02391 0.5244 0.15128 0.0
C2 C 0.96628 0.36963 0.13593 0.0
C3 C 1.00427 0.36933 0.15594 0.0
C4 C 0.9988 0.3182 0.16486 0.0
C5 C 0.95551 0.26669 0.15371 0.0
C6 C 0.91981 0.26745 0.13231 0.0
C7 C 0.92501 0.31866 0.12359 0.0
C8 C 1.04266 0.53366 0.20989 0.0
C9 C 0.94251 0.58307 0.15515 0.0
C10 C 0.1409 0.72862 0.19797 0.0
Eu11 Eu 1.0754 0.6355 0.17043 0.0
C12 C 0.20304 0.75801 0.19957 0.0
C13 C 0.22961 0.77421 0.22644 0.0
C14 C 0.28681 0.79055 0.22892 0.0
C15 C 0.31814 0.79082 0.20454 0.0
C16 C 0.29212 0.77742 0.17744 0.0
C17 C 0.23508 0.761 0.17498 0.0
C18 C 1.06381 0.63186 0.11261 0.0
C19 C 0.16013 0.58196 0.15198 0.0
O20 O 0.94854 0.4406 0.15169 0.0
O21 O 1.01159 0.46256 0.11786 0.0
O22 O 1.05365 0.50317 0.19254 0.0
O23 O 1.02219 0.55831 0.1957 0.0
O24 O 0.95158 0.54449 0.14236 0.0
O25 O 0.9841 0.62208 0.17133 0.0
O26 O 0.11494 0.67922 0.21054 0.0
O27 O 0.11987 0.72762 0.17268 0.0
O28 O 1.05193 0.66203 0.12983 0.0
O29 O 1.07997 0.6033 0.12684 0.0
O30 O 0.15575 0.6237 0.16482 0.0
O31 O 0.11279 0.53774 0.14267 0.0
H32 H 1.03662 0.40843 0.16555 0.0
H33 H 1.02701 0.31875 0.18126 0.0
H34 H 0.88568 0.22831 0.12361 0.0
H35 H 0.8953 0.31826 0.10817 0.0
H36 H 0.20548 0.77153 0.24569 0.0
H37 H 0.30613 0.80149 0.25003 0.0
H38 H 0.31495 0.7766 0.15834 0.0
H39 H 0.21541 0.74767 0.15402 0.0
C40 C 0.51803 0.12099 0.45918 0.0
Eu41 Eu 0.54953 1.05547 0.48312 0.0
C42 C 0.54741 0.1833 0.45666 0.0
C43 C 0.52811 0.21383 0.473 0.0
C44 C 0.56294 0.27213 0.47696 0.0
C45 C 0.61748 0.30063 0.46458 0.0
C46 C 0.63408 0.27133 0.44562 0.0
C47 C 0.59936 0.21309 0.44166 0.0
C48 C 0.54827 1.04336 0.54219 0.0
C49 C 0.69128 0.13657 0.48781 0.0
C50 C 0.64845 0.94692 0.53017 0.0
Eu51 Eu 0.6096 1.00208 0.50214 0.0
C52 C 0.70265 0.94911 0.53503 0.0
C53 C 0.7153 0.93912 0.5628 0.0
C54 C 0.76141 0.9313 0.56713 0.0
C55 C 0.79522 0.93286 0.54365 0.0
C56 C 0.78499 0.94707 0.51621 0.0
C57 C 0.7392 0.95544 0.51194 0.0
C58 C 0.62176 1.0194 0.44505 0.0
C59 C 0.47044 0.92023 0.48533 0.0
O60 O 0.54 0.09534 0.44473 0.0
O61 O 0.50317 0.10116 0.48534 0.0
O62 O 0.50381 1.03157 0.5272 0.0
O63 O 0.59027 1.06027 0.52545 0.0
O64 O 0.64251 0.13143 0.47919 0.0
O65 O 0.68996 0.09169 0.49962 0.0
O66 O 0.62789 0.93377 0.50413 0.0
O67 O 0.64165 0.98664 0.54205 0.0
O68 O 0.66234 1.02741 0.46217 0.0
O69 O 0.57517 1.00106 0.45872 0.0
O70 O 0.51463 0.9253 0.50023 0.0
O71 O 0.47554 0.96651 0.47363 0.0
H72 H 0.488 0.19198 0.48452 0.0
H73 H 0.54919 0.29386 0.49171 0.0
H74 H 0.67571 0.29276 0.43555 0.0
H75 H 0.61528 0.19106 0.42856 0.0
H76 H 0.68771 0.93429 0.58088 0.0
H77 H 0.76791 0.91979 0.58845 0.0
H78 H 0.81064 0.94878 0.49781 0.0
H79 H 0.73075 0.96392 0.49033 0.0
C80 C 0.74644 0.63118 0.81687 0.0
Eu81 Eu 0.63771 0.58856 0.82455 0.0
C82 C 0.8003 0.68259 0.82304 0.0
C83 C 0.80332 0.72374 0.84236 0.0
C84 C 0.85612 0.76911 0.8504 0.0
C85 C 0.90648 0.77375 0.83922 0.0
C86 C 0.90263 0.73349 0.81887 0.0
C87 C 0.85001 0.68842 0.81086 0.0
C88 C 0.5922 0.58263 0.8781 0.0
C89 C 0.57175 0.4453 0.81805 0.0
C90 C 0.41065 0.49313 0.83455 0.0
Eu91 Eu 0.5156 0.52477 0.82332 0.0
C92 C 0.387 0.53002 0.84164 0.0
C93 C 0.38016 0.56187 0.81999 0.0
C94 C 0.37288 0.60747 0.82732 0.0
C95 C 0.3727 0.62219 0.85638 0.0
C96 C 0.37431 0.58727 0.87795 0.0
C97 C 0.38103 0.54144 0.87066 0.0
C98 C 0.56526 0.53793 0.77106 0.0
C99 C 0.58021 0.66749 0.81734 0.0
O100 O 0.71836 0.6006 0.83917 0.0
O101 O 0.71375 0.63524 0.79787 0.0
O102 O 0.63491 0.62745 0.8671 0.0
O103 O 0.57473 0.54174 0.8602 0.0
O104 O 0.61925 0.49563 0.81526 0.0
O105 O 0.52369 0.44467 0.82412 0.0
O106 O 0.44493 0.4923 0.85382 0.0
O107 O 0.4301 0.49683 0.80825 0.0
O108 O 0.52151 0.49045 0.77913 0.0
O109 O 0.57851 0.575 0.79023 0.0
O110 O 0.53243 0.61843 0.82243 0.0
O111 O 0.62859 0.66685 0.81552 0.0
H112 H 0.76505 0.71978 0.85187 0.0
H113 H 0.85758 0.79963 0.8659 0.0
H114 H 0.94033 0.73492 0.81021 0.0
H115 H 0.84826 0.65683 0.79597 0.0
H116 H 0.38405 0.55398 0.79738 0.0
H117 H 0.37123 0.63339 0.81026 0.0
H118 H 0.37243 0.59665 0.90056 0.0
H119 H 0.3853 0.51726 0.88783 0.0
P120 P 0.7234 0.89492 0.25478 0.0
H121 H 0.62455 0.78204 0.24572 0.0
H122 H 0.52835 0.75241 0.22964 0.0
H123 H 0.58129 0.92627 0.2097 0.0
H124 H 0.67666 0.95519 0.22547 0.0
H125 H 0.74109 0.92431 0.19329 0.0
H126 H 0.80955 1.01005 0.1687 0.0
H127 H 0.9078 0.06956 0.24697 0.0
H128 H 0.83619 0.98472 0.27198 0.0
H129 H 0.74113 1.00623 0.27117 0.0
H130 H 0.67079 0.84091 0.30942 0.0
O131 O 0.7352 0.84188 0.26133 0.0
H132 H 0.71003 1.03877 0.31294 0.0
H133 H 0.6393 0.87322 0.35138 0.0
C134 C 0.65801 0.87054 0.23604 0.0
C135 C 0.6158 0.81336 0.23693 0.0
C136 C 0.56079 0.79662 0.22804 0.0
C137 C 0.54735 0.83707 0.21842 0.0
C138 C 0.59049 0.89396 0.21646 0.0
C139 C 0.64516 0.91055 0.22543 0.0
C140 C 0.78209 0.94975 0.23483 0.0
C141 C 0.77744 0.95567 0.20517 0.0
C142 C 0.81741 1.00465 0.19094 0.0
C143 C 0.8637 1.04786 0.206 0.0
C144 C 0.87166 1.03823 0.23493 0.0
C145 C 0.83101 0.98955 0.24925 0.0
C146 C 0.71051 0.92181 0.28778 0.0
C147 C 0.72044 0.97734 0.28893 0.0
C148 C 0.70197 0.99573 0.31265 0.0
C149 C 0.67207 0.95851 0.33538 0.0
C150 C 0.66173 0.90271 0.33404 0.0
C151 C 0.68066 0.88451 0.31037 0.0
P152 P 0.85438 0.62525 0.60444 0.0
H153 H 0.89414 0.57518 0.56051 0.0
H154 H 0.84619 0.5091 0.52078 0.0
H155 H 0.68993 0.5042 0.54429 0.0
H156 H 0.73865 0.57215 0.58222 0.0
H157 H 0.8783 0.72893 0.63502 0.0
H158 H 0.8864 0.81597 0.61763 0.0
H159 H 0.90555 0.77018 0.53029 0.0
H160 H 0.89194 0.68058 0.54788 0.0
H161 H 0.82149 0.54937 0.65442 0.0
H162 H 0.76957 0.65871 0.6157 0.0
O163 O 0.90827 0.61869 0.61622 0.0
H164 H 0.74904 0.52416 0.69236 0.0
H165 H 0.69848 0.63462 0.65352 0.0
C166 C 0.8196 0.57714 0.57498 0.0
C167 C 0.84959 0.55985 0.55694 0.0
C168 C 0.82204 0.52204 0.53424 0.0
C169 C 0.76386 0.50066 0.52936 0.0
C170 C 0.7348 0.52006 0.54695 0.0
C171 C 0.76257 0.55839 0.56922 0.0
C172 C 0.88065 0.69677 0.59256 0.0
C173 C 0.88462 0.73784 0.61213 0.0
C174 C 0.8902 0.78834 0.60207 0.0
C175 C 0.89426 0.79952 0.57224 0.0
C176 C 0.89953 0.7619 0.55323 0.0
C177 C 0.89209 0.71059 0.56329 0.0
C178 C 0.80256 0.60772 0.63293 0.0
C179 C 0.79505 0.56841 0.65425 0.0
C180 C 0.75335 0.5536 0.67569 0.0
C181 C 0.71871 0.578 0.67599 0.0
C182 C 0.72533 0.61602 0.6541 0.0
C183 C 0.76642 0.63025 0.63264 0.0
P184 P 0.27111 0.89955 0.94291 0.0
H185 H 0.31826 0.90897 0.88406 0.0
H186 H 0.35565 0.85429 0.85976 0.0
H187 H 0.35746 0.78058 0.94151 0.0
H188 H 0.31975 0.83377 0.96527 0.0
H189 H 0.21113 0.96257 0.94457 0.0
H190 H 0.12887 0.95119 0.9178 0.0
H191 H 0.13629 0.82684 0.86292 0.0
H192 H 0.21539 0.83583 0.89031 0.0
H193 H 0.29183 0.89623 0.00457 0.0
H194 H 0.16165 0.79367 0.94329 0.0
O195 O 0.31403 0.9639 0.9564 0.0
H196 H 0.24087 0.8243 0.04178 0.0
H197 H 0.1101 0.72309 0.98054 0.0
C198 C 0.31283 0.87273 0.92616 0.0
C199 C 0.32711 0.88128 0.89672 0.0
C200 C 0.34861 0.85026 0.88288 0.0
C201 C 0.35826 0.8123 0.89866 0.0
C202 C 0.3502 0.80923 0.9287 0.0
C203 C 0.32789 0.83934 0.94232 0.0
C204 C 0.22116 0.90189 0.91874 0.0
C205 C 0.19618 0.9343 0.92614 0.0
C206 C 0.14918 0.92768 0.91097 0.0
C207 C 0.12706 0.88896 0.88799 0.0
C208 C 0.15358 0.85827 0.87996 0.0
C209 C 0.19946 0.8639 0.89551 0.0
C210 C 0.22993 0.85113 0.97134 0.0
C211 C 0.25184 0.85895 0.99927 0.0
C212 C 0.22315 0.81761 0.02035 0.0
C213 C 0.17179 0.76826 0.01385 0.0
C214 C 0.14952 0.76091 0.98603 0.0
C215 C 0.17881 0.80162 0.96483 0.0
P216 P 1.09072 0.51627 0.43523 0.0
H217 H 0.20786 0.55365 0.45665 0.0
H218 H 0.29139 0.64304 0.46824 0.0
H219 H 0.19553 0.72773 0.45891 0.0
H220 H 0.11088 0.63667 0.44683 0.0
H221 H 1.05405 0.43151 0.48369 0.0
H222 H 0.9646 0.3466 0.49658 0.0
H223 H 0.87858 0.38979 0.43307 0.0
H224 H 0.96771 0.4751 0.42115 0.0
H225 H 0.11105 0.6133 0.39621 0.0
H226 H 1.04318 0.43347 0.38865 0.0
O227 O 0.12173 0.47707 0.43331 0.0
H228 H 0.09895 0.6187 0.34427 0.0
H229 H 1.03043 0.43842 0.33704 0.0
C230 C 0.15045 0.58567 0.45051 0.0
C231 C 0.20338 0.59072 0.45735 0.0
C232 C 0.25265 0.64339 0.46422 0.0
C233 C 0.25297 0.69539 0.46469 0.0
C234 C 0.19943 0.69031 0.45859 0.0
C235 C 0.14969 0.63709 0.45183 0.0
C236 C 1.01973 0.46256 0.45161 0.0
C237 C 1.01579 0.42411 0.47307 0.0
C238 C 0.96358 0.37378 0.4801 0.0
C239 C 0.91169 0.35822 0.46596 0.0
C240 C 0.9156 0.39814 0.44519 0.0
C241 C 0.9678 0.44846 0.43825 0.0
C242 C 1.07858 0.52292 0.39683 0.0
C243 C 1.0932 0.5748 0.38366 0.0
C244 C 1.08598 0.57783 0.35368 0.0
C245 C 1.06425 0.52913 0.33597 0.0
C246 C 1.04843 0.47721 0.34951 0.0
C247 C 1.05542 0.47425 0.3793 0.0
P248 P 0.59708 0.06764 0.76911 0.0
H249 H 0.65124 0.16126 0.81321 0.0
H250 H 0.64568 0.24606 0.82414 0.0
H251 H 0.50183 0.18617 0.76818 0.0
H252 H 0.50847 0.10162 0.75681 0.0
H253 H 0.67394 1.03196 0.79596 0.0
H254 H 0.66889 0.94346 0.80716 0.0
H255 H 0.49149 0.85315 0.78591 0.0
H256 H 0.49651 0.94359 0.77536 0.0
H257 H 0.65812 0.14154 0.72021 0.0
H258 H 0.50267 0.98268 0.73117 0.0
O259 O 0.66779 0.10639 0.76953 0.0
H260 H 0.64489 0.13483 0.66828 0.0
H261 H 0.48952 0.97521 0.67875 0.0
C262 C 0.57969 0.12212 0.78437 0.0
C263 C 0.61732 0.16498 0.80362 0.0
C264 C 0.61463 0.21501 0.80963 0.0
C265 C 0.57357 0.2255 0.79709 0.0
C266 C 0.53426 0.18136 0.77876 0.0
C267 C 0.53765 0.13164 0.77233 0.0
C268 C 0.58596 0.99751 0.78403 0.0
C269 C 0.63318 0.99384 0.79373 0.0
C270 C 0.63042 0.94149 0.79997 0.0
C271 C 0.58009 0.88817 0.79703 0.0
C272 C 0.53182 0.89168 0.78855 0.0
C273 C 0.53468 0.94461 0.78223 0.0
C274 C 0.58263 1.06166 0.73014 0.0
C275 C 0.62126 0.10462 0.71157 0.0
C276 C 0.6137 0.10067 0.68154 0.0
C277 C 0.5667 1.05383 0.6688 0.0
C278 C 0.5265 1.01187 0.68749 0.0
C279 C 0.53431 1.01581 0.71773 0.0
P280 P 0.53915 0.55479 0.10539 0.0
H281 H 0.5766 0.48761 0.14037 0.0
H282 H 0.66726 0.49522 0.15113 0.0
H283 H 0.75479 0.66235 0.11465 0.0
H284 H 0.66264 0.65367 0.10274 0.0
H285 H 0.44233 0.54733 0.07351 0.0
H286 H 0.36011 0.55604 0.08468 0.0
H287 H 0.4217 0.61046 0.17083 0.0
H288 H 0.50568 0.60133 0.15925 0.0
H289 H 0.54483 0.48057 0.06053 0.0
H290 H 0.55906 0.64456 0.06317 0.0
O291 O 0.49916 0.48507 0.11035 0.0
H292 H 0.55428 0.48598 0.00805 0.0
H293 H 0.5673 0.65 0.01043 0.0
C294 C 0.61005 0.57032 0.12093 0.0
C295 C 0.61466 0.5268 0.13489 0.0
C296 C 0.6678 0.53091 0.14091 0.0
C297 C 0.72056 0.57928 0.13382 0.0
C298 C 0.71634 0.6241 0.12086 0.0
C299 C 0.6627 0.6194 0.1142 0.0
C300 C 0.48394 0.57583 0.11476 0.0
C301 C 0.4401 0.56292 0.09472 0.0
C302 C 0.39119 0.56692 0.10146 0.0
C303 C 0.38173 0.58378 0.12897 0.0
C304 C 0.42599 0.59775 0.14921 0.0
C305 C 0.47519 0.59292 0.14246 0.0
C306 C 0.55036 0.5618 0.06612 0.0
C307 C 0.54973 0.51783 0.04985 0.0
C308 C 0.5547 0.52079 0.01955 0.0
C309 C 0.56095 0.56813 0.0044 0.0
C310 C 0.56298 0.61284 0.02094 0.0
C311 C 0.55807 0.60981 0.05131 0.0
C312 C 0.22142 0.54414 0.12853 0.0
C313 C 0.2179 0.58404 0.1469 0.0
H314 H 0.27164 0.51216 0.10887 0.0
C315 C 0.27 0.62413 0.15989 0.0
H316 H 0.18355 0.51206 0.1179 0.0
C317 C 0.32205 0.62387 0.1548 0.0
C318 C 0.32545 0.58419 0.13596 0.0
H319 H 0.27068 0.65582 0.1743 0.0
H320 H 0.3601 0.65578 0.16536 0.0
C321 C 0.27316 0.54442 0.12312 0.0
C322 C 0.74933 0.24089 0.47037 0.0
C323 C 0.74799 0.19326 0.48302 0.0
H324 H 0.79744 0.32714 0.45577 0.0
C325 C 0.80183 0.2011 0.49026 0.0
H326 H 0.70991 0.23798 0.46433 0.0
C327 C 0.8536 0.2533 0.48505 0.0
C328 C 0.85504 0.30124 0.47226 0.0
H329 H 0.80425 0.16645 0.49985 0.0
H330 H 0.89281 0.25525 0.49076 0.0
C331 C 0.80083 0.29299 0.4652 0.0
C332 C 0.52947 0.72743 0.81482 0.0
C333 C 0.57947 0.72369 0.81261 0.0
H334 H 0.48942 0.77837 0.81231 0.0
C335 C 0.62916 0.7751 0.80517 0.0
H336 H 0.4899 0.69 0.82049 0.0
C337 C 0.62903 0.82664 0.80024 0.0
C338 C 0.57918 0.83085 0.80244 0.0
H339 H 0.66894 0.77568 0.80286 0.0
H340 H 0.66887 0.86333 0.79412 0.0
C341 C 0.52926 0.77915 0.80988 0.0
C342 C 0.83634 0.53398 0.14022 0.0
C343 C 0.88595 0.58295 0.15011 0.0
H344 H 0.74826 0.49383 0.12791 0.0
C345 C 0.88012 0.63133 0.15434 0.0
H346 H 0.83749 0.49548 0.13641 0.0
C347 C 0.82815 0.63076 0.14872 0.0
C348 C 0.77821 0.58136 0.13927 0.0
H349 H 0.91629 0.67039 0.16171 0.0
H350 H 0.82698 0.6693 0.15233 0.0
C351 C 0.78417 0.53301 0.13535 0.0
C352 C 0.40636 0.81029 0.49143 0.0
C353 C 0.41458 0.86247 0.48098 0.0
H354 H 0.35223 0.71982 0.49547 0.0
C355 C 0.36804 0.85849 0.46552 0.0
H356 H 0.4399 0.80992 0.50346 0.0
C357 C 0.3168 0.80592 0.46069 0.0
C358 C 0.30845 0.75338 0.47086 0.0
H359 H 0.37116 0.89653 0.45678 0.0
H360 H 0.28395 0.80677 0.44828 0.0
C361 C 0.35509 0.75756 0.48652 0.0
C362 C 0.5217 0.33603 0.80868 0.0
C363 C 0.57212 0.38889 0.81298 0.0
H364 H 0.48183 0.24598 0.8003 0.0
C365 C 0.6229 0.38657 0.81188 0.0
H366 H 0.48126 0.33439 0.8091 0.0
C367 C 0.62321 0.33483 0.80717 0.0
C368 C 0.57284 0.28191 0.80263 0.0
H369 H 0.6631 0.42517 0.81486 0.0
H370 H 0.66379 0.33679 0.80658 0.0
C371 C 0.52208 0.28444 0.80339 0.0
C372 C 0.82645 0.8654 0.52874 0.0
C373 C 0.83329 0.90949 0.54701 0.0
H374 H 0.83928 0.79575 0.52246 0.0
C375 C 0.86932 0.92388 0.57083 0.0
H376 H 0.79843 0.85295 0.51037 0.0
C377 C 0.89434 0.89165 0.57755 0.0
C378 C 0.88248 0.84351 0.56099 0.0
H379 H 0.87578 0.95821 0.58506 0.0
H380 H 0.92025 0.90262 0.59666 0.0
C381 C 0.85037 0.83257 0.53572 0.0
C382 C 1.01122 0.83973 0.83301 0.0
C383 C 0.96277 0.81586 0.85093 0.0
H384 H 0.10195 0.88247 0.83083 0.0
C385 C 0.96968 0.82609 0.88082 0.0
H386 H 1.00735 0.8338 0.80984 0.0
C387 C 1.02387 0.85493 0.89272 0.0
C388 C 1.07199 0.87361 0.87497 0.0
H389 H 0.93344 0.80802 0.89532 0.0
H390 H 1.0279 0.85833 0.91598 0.0
C391 C 1.06534 0.86793 0.84494 0.0
C392 C 0.39013 0.77673 0.23013 0.0
C393 C 0.37666 0.80163 0.20751 0.0
H394 H 0.45461 0.76821 0.25119 0.0
C395 C 0.41899 0.83549 0.1874 0.0
H396 H 0.35808 0.74951 0.24562 0.0
C397 C 0.47409 0.84543 0.19031 0.0
C398 C 0.48784 0.82157 0.21333 0.0
H399 H 0.40978 0.85518 0.16973 0.0
H400 H 0.50611 0.87233 0.17473 0.0
C401 C 0.44515 0.78659 0.23301 0.0
C402 C 0.64838 0.40094 0.47814 0.0
C403 C 0.66004 0.35669 0.47587 0.0
H404 H 0.67379 0.48285 0.49555 0.0
C405 C 0.70968 0.3632 0.48822 0.0
H406 H 0.61038 0.39685 0.46869 0.0
C407 C 0.74517 0.41146 0.50419 0.0
C408 C 0.73205 0.45464 0.508 0.0
H409 H 0.71895 0.32914 0.48731 0.0
H410 H 0.78073 0.41292 0.51509 0.0
C411 C 0.68447 0.44983 0.49374 0.0
C412 C 0.41089 0.71029 0.88606 0.0
C413 C 0.374 0.67531 0.8644 0.0
H414 H 0.4361 0.78244 0.91333 0.0
C415 C 0.3378 0.69079 0.85121 0.0
H416 H 0.44052 0.70032 0.89599 0.0
C417 C 0.33566 0.73816 0.86098 0.0
C418 C 0.36977 0.77079 0.88405 0.0
H419 H 0.30915 0.66473 0.83435 0.0
H420 H 0.3048 0.74711 0.85171 0.0
C421 C 0.40878 0.75752 0.89581 0.0
C422 C 0.93685 0.20669 0.19715 0.0
C423 C 0.94248 0.21244 0.16706 0.0
H424 H 0.90693 0.15057 0.23295 0.0
C425 C 0.92934 0.16473 0.15006 0.0
H426 H 0.94601 0.24265 0.21077 0.0
C427 C 0.90788 0.1116 0.16286 0.0
C428 C 0.89804 0.10502 0.19286 0.0
H429 H 0.93394 0.16825 0.1268 0.0
H430 H 0.8969 0.07541 0.1491 0.0
C431 C 0.91461 0.15364 0.2099 0.0
C432 C 0.14074 0.66693 0.07558 0.0
C433 C 1.08598 0.65449 0.08376 0.0
H434 H 0.21151 0.71411 0.04703 0.0
C435 C 1.05758 0.67477 0.06701 0.0
H436 H 0.16385 0.65255 0.08849 0.0
C437 C 1.08454 0.70939 0.04323 0.0
C438 C 0.1408 0.7253 0.03632 0.0
H439 H 1.01561 0.66625 0.07322 0.0
H440 H 1.06265 0.72642 0.0313 0.0
C441 C 0.16822 0.70266 0.05218 0.0
C442 C 0.67951 1.04557 0.40056 0.0
C443 C 0.62731 1.01025 0.41422 0.0
H444 H 0.73449 1.05684 0.36491 0.0
C445 C 0.58684 0.9608 0.40023 0.0
H446 H 0.71151 0.08367 0.41117 0.0
C447 C 0.60036 0.94483 0.37386 0.0
C448 C 0.65415 0.97853 0.36106 0.0
H449 H 0.54661 0.93255 0.4106 0.0
H450 H 0.56958 0.90519 0.364 0.0
C451 C 0.6927 1.0301 0.37414 0.0
C452 C 0.63923 0.60188 0.73643 0.0
C453 C 0.60093 0.54648 0.74543 0.0
H454 H 0.70641 0.65499 0.70749 0.0
C455 C 0.60055 0.50081 0.73118 0.0
H456 H 0.64054 0.63784 0.7472 0.0
C457 C 0.63899 0.51071 0.70858 0.0
C458 C 0.67749 0.56634 0.6997 0.0
H459 H 0.57176 0.45774 0.73802 0.0
H460 H 0.63855 0.47505 0.69799 0.0
C461 C 0.67686 0.6117 0.71371 0.0
C462 C 0.50335 1.02546 0.59231 0.0
C463 C 0.55177 1.04434 0.57455 0.0
H464 H 0.46961 1.01347 0.63556 0.0
C465 C 0.60449 0.06494 0.58808 0.0
H466 H 0.46201 1.00924 0.58272 0.0
C467 C 0.60893 0.06739 0.61831 0.0
C468 C 0.56077 1.04918 0.63628 0.0
H469 H 0.64274 0.07965 0.57523 0.0
H470 H 0.65045 0.08332 0.62763 0.0
C471 C 0.50773 1.02762 0.62271 0.0
C472 C 0.54448 0.52579 0.92371 0.0
C473 C 0.58049 0.57777 0.91007 0.0
H474 H 0.50942 0.48175 0.96363 0.0
C475 C 0.60841 0.62639 0.92764 0.0
H476 H 0.52215 0.48745 0.91099 0.0
C477 C 0.60162 0.62326 0.9578 0.0
C478 C 0.56647 0.57129 0.97174 0.0
H479 H 0.6366 0.66729 0.91807 0.0
H480 H 0.62534 0.66175 0.97023 0.0
C481 C 0.53763 0.52258 0.95406 0.0
C482 C 1.03635 0.56814 0.2604 0.0
C483 C 1.04819 0.53387 0.24213 0.0
H484 H 1.03198 0.59384 0.30399 0.0
C485 C 1.06616 0.4992 0.25498 0.0
H486 H 1.02259 0.59553 0.25133 0.0
C487 C 1.0715 0.49812 0.28506 0.0
C488 C 1.05932 0.53189 0.30356 0.0
H489 H 1.07611 0.4725 0.24172 0.0
H490 H 1.08592 0.47101 0.29378 0.0
C491 C 1.04209 0.56736 0.29066 0.0
loop_
_geom_bond_atom_site_label_1
_geom_bond_atom_site_label_2
_geom_bond_distance
_geom_bond_site_symmetry_2
_ccdc_geom_bond_type
C0 Eu1 2.835 . S
C0 C2 1.500 . S
C0 O20 1.257 . S
C0 O21 1.260 . S
Eu1 C0 2.835 . S
Eu1 O20 2.473 . S
Eu1 O21 2.480 . S
Eu1 O22 2.430 1_655 S
Eu1 O23 2.670 1_655 S
Eu1 O24 2.394 . S
Eu1 O29 2.355 1_655 S
Eu1 O31 2.374 1_655 S
C2 C0 1.500 . S
C2 C3 1.377 . S
C2 C7 1.377 . S
C3 C2 1.377 . S
C3 C4 1.395 . S
C3 H32 0.931 . S
C4 C3 1.395 . S
C4 C5 1.383 . S
C4 H33 0.931 . S
C5 C4 1.383 . S
C5 C6 1.394 . S
C6 C5 1.394 . S
C6 C7 1.378 . S
C6 H34 0.931 . S
C7 C2 1.377 . S
C7 C6 1.378 . S
C7 H35 0.931 . S
C8 O22 1.259 . S
C8 O23 1.270 . S
C9 O24 1.251 . S
C9 O25 1.251 . S
C10 Eu11 2.835 . S
C10 C12 1.500 . S
C10 O26 1.257 . S
C10 O27 1.260 . S
Eu11 C10 2.835 . S
Eu11 O23 2.355 . S
Eu11 O25 2.374 1_455 S
Eu11 O26 2.473 . S
Eu11 O27 2.480 . S
Eu11 O28 2.430 . S
Eu11 O29 2.670 . S
Eu11 O30 2.394 . S
C12 C10 1.500 . S
C12 C13 1.377 . S
C12 C17 1.377 . S
C13 C12 1.377 . S
C13 C14 1.395 . S
C13 H36 0.931 . S
C14 C13 1.395 . S
C14 C15 1.383 . S
C14 H37 0.931 . S
C15 C14 1.383 . S
C15 C16 1.394 . S
C16 C15 1.394 . S
C16 C17 1.378 . S
C16 H38 0.931 . S
C17 C12 1.377 . S
C17 C16 1.378 . S
C17 H39 0.931 . S
C18 O28 1.259 . S
C18 O29 1.270 . S
C19 O30 1.251 . S
C19 O31 1.251 . S
O20 C0 1.257 . S
O20 Eu1 2.473 . S
O21 C0 1.260 . S
O21 Eu1 2.480 . S
O22 Eu1 2.430 1_455 S
O22 C8 1.259 . S
O23 Eu1 2.670 1_455 S
O23 C8 1.270 . S
O23 Eu11 2.355 . S
O24 Eu1 2.394 . S
O24 C9 1.251 . S
O25 C9 1.251 . S
O25 Eu11 2.374 1_655 S
O26 C10 1.257 . S
O26 Eu11 2.473 . S
O27 C10 1.260 . S
O27 Eu11 2.480 . S
O28 Eu11 2.430 . S
O28 C18 1.259 . S
O29 Eu1 2.355 1_455 S
O29 Eu11 2.670 . S
O29 C18 1.270 . S
O30 Eu11 2.394 . S
O30 C19 1.251 . S
O31 Eu1 2.374 1_455 S
O31 C19 1.251 . S
H32 C3 0.931 . S
H33 C4 0.931 . S
H34 C6 0.931 . S
H35 C7 0.931 . S
H36 C13 0.931 . S
H37 C14 0.931 . S
H38 C16 0.931 . S
H39 C17 0.931 . S
C40 Eu41 2.835 . S
C40 C42 1.500 . S
C40 O60 1.257 . S
C40 O61 1.260 . S
Eu41 C40 2.835 . S
Eu41 O60 2.473 . S
Eu41 O61 2.480 . S
Eu41 O62 2.430 . S
Eu41 O63 2.670 . S
Eu41 O64 2.394 . S
Eu41 O69 2.355 . S
Eu41 O71 2.374 1_545 S
C42 C40 1.500 . S
C42 C43 1.377 . S
C42 C47 1.377 . S
C43 C42 1.377 . S
C43 C44 1.395 . S
C43 H72 0.931 . S
C44 C43 1.395 . S
C44 C45 1.383 . S
C44 H73 0.931 . S
C45 C44 1.383 . S
C45 C46 1.394 . S
C46 C45 1.394 . S
C46 C47 1.378 . S
C46 H74 0.931 . S
C47 C42 1.377 . S
C47 C46 1.378 . S
C47 H75 0.931 . S
C48 O62 1.259 . S
C48 O63 1.270 . S
C49 O64 1.251 . S
C49 O65 1.251 . S
C50 Eu51 2.835 . S
C50 C52 1.500 . S
C50 O66 1.257 . S
C50 O67 1.260 . S
Eu51 C50 2.835 . S
Eu51 O63 2.355 1_565 S
Eu51 O65 2.374 1_565 S
Eu51 O66 2.473 . S
Eu51 O67 2.480 . S
Eu51 O68 2.430 1_565 S
Eu51 O69 2.670 1_565 S
Eu51 O70 2.394 . S
C52 C50 1.500 . S
C52 C53 1.377 . S
C52 C57 1.377 . S
C53 C52 1.377 . S
C53 C54 1.395 . S
C53 H76 0.931 . S
C54 C53 1.395 . S
C54 C55 1.383 . S
C54 H77 0.931 . S
C55 C54 1.383 . S
C55 C56 1.394 . S
C56 C55 1.394 . S
C56 C57 1.378 . S
C56 H78 0.931 . S
C57 C52 1.377 . S
C57 C56 1.378 . S
C57 H79 0.931 . S
C58 O68 1.259 . S
C58 O69 1.270 . S
C59 O70 1.251 . S
C59 O71 1.251 . S
O60 C40 1.257 . S
O60 Eu41 2.473 . S
O61 C40 1.260 . S
O61 Eu41 2.480 . S
O62 Eu41 2.430 . S
O62 C48 1.259 . S
O63 Eu41 2.670 . S
O63 C48 1.270 . S
O63 Eu51 2.355 1_545 S
O64 Eu41 2.394 . S
O64 C49 1.251 . S
O65 C49 1.251 . S
O65 Eu51 2.374 1_545 S
O66 C50 1.257 . S
O66 Eu51 2.473 . S
O67 C50 1.260 . S
O67 Eu51 2.480 . S
O68 Eu51 2.430 1_545 S
O68 C58 1.259 . S
O69 Eu41 2.355 . S
O69 Eu51 2.670 1_545 S
O69 C58 1.270 . S
O70 Eu51 2.394 . S
O70 C59 1.251 . S
O71 Eu41 2.374 1_565 S
O71 C59 1.251 . S
H72 C43 0.931 . S
H73 C44 0.931 . S
H74 C46 0.931 . S
H75 C47 0.931 . S
H76 C53 0.931 . S
H77 C54 0.931 . S
H78 C56 0.931 . S
H79 C57 0.931 . S
C80 Eu81 2.835 . S
C80 C82 1.500 . S
C80 O100 1.257 . S
C80 O101 1.260 . S
Eu81 C80 2.835 . S
Eu81 O100 2.473 . S
Eu81 O101 2.480 . S
Eu81 O102 2.430 . S
Eu81 O103 2.670 . S
Eu81 O104 2.394 . S
Eu81 O109 2.355 . S
Eu81 O111 2.374 . S
C82 C80 1.500 . S
C82 C83 1.377 . S
C82 C87 1.377 . S
C83 C82 1.377 . S
C83 C84 1.395 . S
C83 H112 0.931 . S
C84 C83 1.395 . S
C84 C85 1.383 . S
C84 H113 0.931 . S
C85 C84 1.383 . S
C85 C86 1.394 . S
C86 C85 1.394 . S
C86 C87 1.378 . S
C86 H114 0.931 . S
C87 C82 1.377 . S
C87 C86 1.378 . S
C87 H115 0.931 . S
C88 O102 1.259 . S
C88 O103 1.270 . S
C89 O104 1.251 . S
C89 O105 1.251 . S
C90 Eu91 2.835 . S
C90 C92 1.500 . S
C90 O106 1.257 . S
C90 O107 1.260 . S
Eu91 C90 2.835 . S
Eu91 O103 2.355 . S
Eu91 O105 2.374 . S
Eu91 O106 2.473 . S
Eu91 O107 2.480 . S
Eu91 O108 2.430 . S
Eu91 O109 2.670 . S
Eu91 O110 2.394 . S
C92 C90 1.500 . S
C92 C93 1.377 . S
C92 C97 1.377 . S
C93 C92 1.377 . S
C93 C94 1.395 . S
C93 H116 0.931 . S
C94 C93 1.395 . S
C94 C95 1.383 . S
C94 H117 0.931 . S
C95 C94 1.383 . S
C95 C96 1.394 . S
C96 C95 1.394 . S
C96 C97 1.378 . S
C96 H118 0.931 . S
C97 C92 1.377 . S
C97 C96 1.378 . S
C97 H119 0.931 . S
C98 O108 1.259 . S
C98 O109 1.270 . S
C99 O110 1.251 . S
C99 O111 1.251 . S
O100 C80 1.257 . S
O100 Eu81 2.473 . S
O101 C80 1.260 . S
O101 Eu81 2.480 . S
O102 Eu81 2.430 . S
O102 C88 1.259 . S
O103 Eu81 2.670 . S
O103 C88 1.270 . S
O103 Eu91 2.355 . S
O104 Eu81 2.394 . S
O104 C89 1.251 . S
O105 C89 1.251 . S
O105 Eu91 2.374 . S
O106 C90 1.257 . S
O106 Eu91 2.473 . S
O107 C90 1.260 . S
O107 Eu91 2.480 . S
O108 Eu91 2.430 . S
O108 C98 1.259 . S
O109 Eu81 2.355 . S
O109 Eu91 2.670 . S
O109 C98 1.270 . S
O110 Eu91 2.394 . S
O110 C99 1.251 . S
O111 Eu81 2.374 . S
O111 C99 1.251 . S
H112 C83 0.931 . S
H113 C84 0.931 . S
H114 C86 0.931 . S
H115 C87 0.931 . S
H116 C93 0.931 . S
H117 C94 0.931 . S
H118 C96 0.931 . S
H119 C97 0.931 . S
P120 O131 1.490 1_545 S
P120 C134 1.812 1_545 S
P120 C140 1.803 . S
P120 C146 1.819 . S
H121 C135 0.941 . S
H122 C136 0.939 . S
H123 C138 0.940 . S
H124 C139 0.940 1_545 S
H125 C141 0.939 . S
H126 C142 0.942 . S
H127 C144 0.940 . S
H128 C145 0.939 . S
H129 C147 0.941 . S
H130 C151 0.939 . S
O131 P120 1.490 1_565 S
H132 C148 0.939 . S
H133 C150 0.940 . S
C134 P120 1.812 1_565 S
C134 C135 1.389 . S
C134 C139 1.391 . S
C135 H121 0.941 . S
C135 C134 1.389 . S
C135 C136 1.397 . S
C136 H122 0.939 . S
C136 C135 1.397 . S
C136 C137 1.378 . S
C137 C136 1.378 . S
C137 C138 1.378 . S
C138 H123 0.940 . S
C138 C137 1.378 . S
C138 C139 1.396 . S
C139 H124 0.940 1_565 S
C139 C134 1.391 . S
C139 C138 1.396 . S
C140 P120 1.803 . S
C140 C141 1.378 . S
C140 C145 1.400 . S
C141 H125 0.939 . S
C141 C140 1.378 . S
C141 C142 1.361 . S
C142 H126 0.942 . S
C142 C141 1.361 . S
C142 C143 1.369 . S
C143 C142 1.369 . S
C143 C144 1.404 . S
C144 H127 0.940 . S
C144 C143 1.404 . S
C144 C145 1.389 . S
C145 H128 0.939 . S
C145 C140 1.400 . S
C145 C144 1.389 . S
C146 P120 1.819 . S
C146 C147 1.391 1_545 S
C146 C151 1.391 . S
C147 H129 0.941 . S
C147 C146 1.391 1_565 S
C147 C148 1.396 . S
C148 H132 0.939 . S
C148 C147 1.396 . S
C148 C149 1.397 1_565 S
C149 C148 1.397 1_545 S
C149 C150 1.385 . S
C150 H133 0.940 . S
C150 C149 1.385 . S
C150 C151 1.388 . S
C151 H130 0.939 . S
C151 C146 1.391 . S
C151 C150 1.388 . S
P152 O163 1.490 . S
P152 C166 1.812 . S
P152 C172 1.803 . S
P152 C178 1.819 . S
H153 C167 0.941 . S
H154 C168 0.939 . S
H155 C170 0.940 . S
H156 C171 0.940 . S
H157 C173 0.939 . S
H158 C174 0.942 . S
H159 C176 0.940 . S
H160 C177 0.939 . S
H161 C179 0.941 . S
H162 C183 0.939 . S
O163 P152 1.490 . S
H164 C180 0.939 . S
H165 C182 0.940 . S
C166 P152 1.812 . S
C166 C167 1.389 . S
C166 C171 1.391 . S
C167 H153 0.941 . S
C167 C166 1.389 . S
C167 C168 1.397 . S
C168 H154 0.939 . S
C168 C167 1.397 . S
C168 C169 1.378 . S
C169 C168 1.378 . S
C169 C170 1.378 . S
C170 H155 0.940 . S
C170 C169 1.378 . S
C170 C171 1.396 . S
C171 H156 0.940 . S
C171 C166 1.391 . S
C171 C170 1.396 . S
C172 P152 1.803 . S
C172 C173 1.378 . S
C172 C177 1.400 . S
C173 H157 0.939 . S
C173 C172 1.378 . S
C173 C174 1.361 . S
C174 H158 0.942 . S
C174 C173 1.361 . S
C174 C175 1.369 . S
C175 C174 1.369 . S
C175 C176 1.404 . S
C176 H159 0.940 . S
C176 C175 1.404 . S
C176 C177 1.389 . S
C177 H160 0.939 . S
C177 C172 1.400 . S
C177 C176 1.389 . S
C178 P152 1.819 . S
C178 C179 1.391 . S
C178 C183 1.391 . S
C179 H161 0.941 . S
C179 C178 1.391 . S
C179 C180 1.396 . S
C180 H164 0.939 . S
C180 C179 1.396 . S
C180 C181 1.397 . S
C181 C180 1.397 . S
C181 C182 1.385 . S
C182 H165 0.940 . S
C182 C181 1.385 . S
C182 C183 1.388 . S
C183 H162 0.939 . S
C183 C178 1.391 . S
C183 C182 1.388 . S
P184 O195 1.490 . S
P184 C198 1.812 . S
P184 C204 1.803 1_455 S
P184 C210 1.819 . S
H185 C199 0.941 . S
H186 C200 0.939 . S
H187 C202 0.940 . S
H188 C203 0.940 . S
H189 C205 0.939 . S
H190 C206 0.942 . S
H191 C208 0.940 . S
H192 C209 0.939 . S
H193 C211 0.941 . S
H194 C215 0.939 . S
O195 P184 1.490 . S
H196 C212 0.939 1_554 S
H197 C214 0.940 . S
C198 P184 1.812 . S
C198 C199 1.389 . S
C198 C203 1.391 . S
C199 H185 0.941 . S
C199 C198 1.389 . S
C199 C200 1.397 . S
C200 H186 0.939 . S
C200 C199 1.397 . S
C200 C201 1.378 . S
C201 C200 1.378 . S
C201 C202 1.378 . S
C202 H187 0.940 . S
C202 C201 1.378 . S
C202 C203 1.396 . S
C203 H188 0.940 . S
C203 C198 1.391 . S
C203 C202 1.396 . S
C204 P184 1.803 1_655 S
C204 C205 1.378 . S
C204 C209 1.400 . S
C205 H189 0.939 . S
C205 C204 1.378 . S
C205 C206 1.361 . S
C206 H190 0.942 . S
C206 C205 1.361 . S
C206 C207 1.369 . S
C207 C206 1.369 . S
C207 C208 1.404 . S
C208 H191 0.940 . S
C208 C207 1.404 . S
C208 C209 1.389 . S
C209 H192 0.939 . S
C209 C204 1.400 . S
C209 C208 1.389 . S
C210 P184 1.819 . S
C210 C211 1.391 . S
C210 C215 1.391 1_455 S
C211 H193 0.941 . S
C211 C210 1.391 . S
C211 C212 1.396 . S
C212 H196 0.939 1_556 S
C212 C211 1.396 . S
C212 C213 1.397 1_556 S
C213 C212 1.397 1_554 S
C213 C214 1.385 1_454 S
C214 H197 0.940 . S
C214 C213 1.385 1_656 S
C214 C215 1.388 . S
C215 H194 0.939 . S
C215 C210 1.391 1_655 S
C215 C214 1.388 . S
P216 O227 1.490 . S
P216 C230 1.812 . S
P216 C236 1.803 . S
P216 C242 1.819 . S
H217 C231 0.941 . S
H218 C232 0.939 . S
H219 C234 0.940 . S
H220 C235 0.940 . S
H221 C237 0.939 1_455 S
H222 C238 0.942 . S
H223 C240 0.940 . S
H224 C241 0.939 1_455 S
H225 C243 0.941 . S
H226 C247 0.939 1_655 S
O227 P216 1.490 . S
H228 C244 0.939 . S
H229 C246 0.940 1_655 S
C230 P216 1.812 . S
C230 C231 1.389 . S
C230 C235 1.391 . S
C231 H217 0.941 . S
C231 C230 1.389 . S
C231 C232 1.397 . S
C232 H218 0.939 . S
C232 C231 1.397 . S
C232 C233 1.378 . S
C233 C232 1.378 . S
C233 C234 1.378 . S
C234 H219 0.940 . S
C234 C233 1.378 . S
C234 C235 1.396 . S
C235 H220 0.940 . S
C235 C230 1.391 . S
C235 C234 1.396 . S
C236 P216 1.803 . S
C236 C237 1.378 1_455 S
C236 C241 1.400 1_455 S
C237 H221 0.939 1_655 S
C237 C236 1.378 1_655 S
C237 C238 1.361 . S
C238 H222 0.942 . S
C238 C237 1.361 . S
C238 C239 1.369 . S
C239 C238 1.369 . S
C239 C240 1.404 . S
C240 H223 0.940 . S
C240 C239 1.404 . S
C240 C241 1.389 . S
C241 H224 0.939 1_655 S
C241 C236 1.400 1_655 S
C241 C240 1.389 . S
C242 P216 1.819 . S
C242 C243 1.391 . S
C242 C247 1.391 . S
C243 H225 0.941 . S
C243 C242 1.391 . S
C243 C244 1.396 . S
C244 H228 0.939 . S
C244 C243 1.396 . S
C244 C245 1.397 . S
C245 C244 1.397 . S
C245 C246 1.385 . S
C246 H229 0.940 1_455 S
C246 C245 1.385 . S
C246 C247 1.388 . S
C247 H226 0.939 1_455 S
C247 C242 1.391 . S
C247 C246 1.388 . S
P248 O259 1.490 . S
P248 C262 1.812 . S
P248 C268 1.803 1_545 S
P248 C274 1.819 . S
H249 C263 0.941 . S
H250 C264 0.939 . S
H251 C266 0.940 . S
H252 C267 0.940 . S
H253 C269 0.939 . S
H254 C270 0.942 . S
H255 C272 0.940 . S
H256 C273 0.939 . S
H257 C275 0.941 . S
H258 C279 0.939 . S
O259 P248 1.490 . S
H260 C276 0.939 . S
H261 C278 0.940 . S
C262 P248 1.812 . S
C262 C263 1.389 . S
C262 C267 1.391 . S
C263 H249 0.941 . S
C263 C262 1.389 . S
C263 C264 1.397 . S
C264 H250 0.939 . S
C264 C263 1.397 . S
C264 C265 1.378 . S
C265 C264 1.378 . S
C265 C266 1.378 . S
C266 H251 0.940 . S
C266 C265 1.378 . S
C266 C267 1.396 . S
C267 H252 0.940 . S
C267 C262 1.391 . S
C267 C266 1.396 . S
C268 P248 1.803 1_565 S
C268 C269 1.378 . S
C268 C273 1.400 . S
C269 H253 0.939 . S
C269 C268 1.378 . S
C269 C270 1.361 . S
C270 H254 0.942 . S
C270 C269 1.361 . S
C270 C271 1.369 . S
C271 C270 1.369 . S
C271 C272 1.404 . S
C272 H255 0.940 . S
C272 C271 1.404 . S
C272 C273 1.389 . S
C273 H256 0.939 . S
C273 C268 1.400 . S
C273 C272 1.389 . S
C274 P248 1.819 . S
C274 C275 1.391 . S
C274 C279 1.391 1_545 S
C275 H257 0.941 . S
C275 C274 1.391 . S
C275 C276 1.396 . S
C276 H260 0.939 . S
C276 C275 1.396 . S
C276 C277 1.397 . S
C277 C276 1.397 . S
C277 C278 1.385 1_545 S
C278 H261 0.940 . S
C278 C277 1.385 1_565 S
C278 C279 1.388 . S
C279 H258 0.939 . S
C279 C274 1.391 1_565 S
C279 C278 1.388 . S
P280 O291 1.490 . S
P280 C294 1.812 . S
P280 C300 1.803 . S
P280 C306 1.819 . S
H281 C295 0.941 . S
H282 C296 0.939 . S
H283 C298 0.940 . S
H284 C299 0.940 . S
H285 C301 0.939 . S
H286 C302 0.942 . S
H287 C304 0.940 . S
H288 C305 0.939 . S
H289 C307 0.941 . S
H290 C311 0.939 . S
O291 P280 1.490 . S
H292 C308 0.939 . S
H293 C310 0.940 . S
C294 P280 1.812 . S
C294 C295 1.389 . S
C294 C299 1.391 . S
C295 H281 0.941 . S
C295 C294 1.389 . S
C295 C296 1.397 . S
C296 H282 0.939 . S
C296 C295 1.397 . S
C296 C297 1.378 . S
C297 C296 1.378 . S
C297 C298 1.378 . S
C298 H283 0.940 . S
C298 C297 1.378 . S
C298 C299 1.396 . S
C299 H284 0.940 . S
C299 C294 1.391 . S
C299 C298 1.396 . S
C300 P280 1.803 . S
C300 C301 1.378 . S
C300 C305 1.400 . S
C301 H285 0.939 . S
C301 C300 1.378 . S
C301 C302 1.361 . S
C302 H286 0.942 . S
C302 C301 1.361 . S
C302 C303 1.369 . S
C303 C302 1.369 . S
C303 C304 1.404 . S
C304 H287 0.940 . S
C304 C303 1.404 . S
C304 C305 1.389 . S
C305 H288 0.939 . S
C305 C300 1.400 . S
C305 C304 1.389 . S
C306 P280 1.819 . S
C306 C307 1.391 . S
C306 C311 1.391 . S
C307 H289 0.941 . S
C307 C306 1.391 . S
C307 C308 1.396 . S
C308 H292 0.939 . S
C308 C307 1.396 . S
C308 C309 1.397 . S
C309 C308 1.397 . S
C309 C310 1.385 . S
C310 H293 0.940 . S
C310 C309 1.385 . S
C310 C311 1.388 . S
C311 H290 0.939 . S
C311 C306 1.391 . S
C311 C310 1.388 . S
C312 C313 1.387 . S
C312 H316 0.950 . S
C312 C321 1.390 . S
C313 C312 1.387 . S
C313 C315 1.387 . S
H314 C321 0.950 . S
C315 C313 1.387 . S
C315 C317 1.390 . S
C315 H319 0.950 . S
H316 C312 0.950 . S
C317 C315 1.390 . S
C317 C318 1.387 . S
C317 H320 0.950 . S
C318 C317 1.387 . S
C318 C321 1.387 . S
H319 C315 0.950 . S
H320 C317 0.950 . S
C321 C312 1.390 . S
C321 H314 0.950 . S
C321 C318 1.387 . S
C322 C323 1.387 . S
C322 H326 0.950 . S
C322 C331 1.390 . S
C323 C322 1.387 . S
C323 C325 1.387 . S
H324 C331 0.950 . S
C325 C323 1.387 . S
C325 C327 1.390 . S
C325 H329 0.950 . S
H326 C322 0.950 . S
C327 C325 1.390 . S
C327 C328 1.387 . S
C327 H330 0.950 . S
C328 C327 1.387 . S
C328 C331 1.387 . S
H329 C325 0.950 . S
H330 C327 0.950 . S
C331 C322 1.390 . S
C331 H324 0.950 . S
C331 C328 1.387 . S
C332 C333 1.387 . S
C332 H336 0.950 . S
C332 C341 1.390 . S
C333 C332 1.387 . S
C333 C335 1.387 . S
H334 C341 0.950 . S
C335 C333 1.387 . S
C335 C337 1.390 . S
C335 H339 0.950 . S
H336 C332 0.950 . S
C337 C335 1.390 . S
C337 C338 1.387 . S
C337 H340 0.950 . S
C338 C337 1.387 . S
C338 C341 1.387 . S
H339 C335 0.950 . S
H340 C337 0.950 . S
C341 C332 1.390 . S
C341 H334 0.950 . S
C341 C338 1.387 . S
C342 C343 1.387 . S
C342 H346 0.950 . S
C342 C351 1.390 . S
C343 C342 1.387 . S
C343 C345 1.387 . S
H344 C351 0.950 . S
C345 C343 1.387 . S
C345 C347 1.390 . S
C345 H349 0.950 . S
H346 C342 0.950 . S
C347 C345 1.390 . S
C347 C348 1.387 . S
C347 H350 0.950 . S
C348 C347 1.387 . S
C348 C351 1.387 . S
H349 C345 0.950 . S
H350 C347 0.950 . S
C351 C342 1.390 . S
C351 H344 0.950 . S
C351 C348 1.387 . S
C352 C353 1.387 . S
C352 H356 0.950 . S
C352 C361 1.390 . S
C353 C352 1.387 . S
C353 C355 1.387 . S
H354 C361 0.950 . S
C355 C353 1.387 . S
C355 C357 1.390 . S
C355 H359 0.950 . S
H356 C352 0.950 . S
C357 C355 1.390 . S
C357 C358 1.387 . S
C357 H360 0.950 . S
C358 C357 1.387 . S
C358 C361 1.387 . S
H359 C355 0.950 . S
H360 C357 0.950 . S
C361 C352 1.390 . S
C361 H354 0.950 . S
C361 C358 1.387 . S
C362 C363 1.387 . S
C362 H366 0.950 . S
C362 C371 1.390 . S
C363 C362 1.387 . S
C363 C365 1.387 . S
H364 C371 0.950 . S
C365 C363 1.387 . S
C365 C367 1.390 . S
C365 H369 0.950 . S
H366 C362 0.950 . S
C367 C365 1.390 . S
C367 C368 1.387 . S
C367 H370 0.950 . S
C368 C367 1.387 . S
C368 C371 1.387 . S
H369 C365 0.950 . S
H370 C367 0.950 . S
C371 C362 1.390 . S
C371 H364 0.950 . S
C371 C368 1.387 . S
C372 C373 1.387 . S
C372 H376 0.950 . S
C372 C381 1.390 . S
C373 C372 1.387 . S
C373 C375 1.387 . S
H374 C381 0.950 . S
C375 C373 1.387 . S
C375 C377 1.390 . S
C375 H379 0.950 . S
H376 C372 0.950 . S
C377 C375 1.390 . S
C377 C378 1.387 . S
C377 H380 0.950 . S
C378 C377 1.387 . S
C378 C381 1.387 . S
H379 C375 0.950 . S
H380 C377 0.950 . S
C381 C372 1.390 . S
C381 H374 0.950 . S
C381 C378 1.387 . S
C382 C383 1.387 . S
C382 H386 0.950 . S
C382 C391 1.390 . S
C383 C382 1.387 . S
C383 C385 1.387 . S
H384 C391 0.950 . S
C385 C383 1.387 . S
C385 C387 1.390 . S
C385 H389 0.950 . S
H386 C382 0.950 . S
C387 C385 1.390 . S
C387 C388 1.387 . S
C387 H390 0.950 . S
C388 C387 1.387 . S
C388 C391 1.387 . S
H389 C385 0.950 . S
H390 C387 0.950 . S
C391 C382 1.390 . S
C391 H384 0.950 . S
C391 C388 1.387 . S
C392 C393 1.387 . S
C392 H396 0.950 . S
C392 C401 1.390 . S
C393 C392 1.387 . S
C393 C395 1.387 . S
H394 C401 0.950 . S
C395 C393 1.387 . S
C395 C397 1.390 . S
C395 H399 0.950 . S
H396 C392 0.950 . S
C397 C395 1.390 . S
C397 C398 1.387 . S
C397 H400 0.950 . S
C398 C397 1.387 . S
C398 C401 1.387 . S
H399 C395 0.950 . S
H400 C397 0.950 . S
C401 C392 1.390 . S
C401 H394 0.950 . S
C401 C398 1.387 . S
C402 C403 1.387 . S
C402 H406 0.950 . S
C402 C411 1.390 . S
C403 C402 1.387 . S
C403 C405 1.387 . S
H404 C411 0.950 . S
C405 C403 1.387 . S
C405 C407 1.390 . S
C405 H409 0.950 . S
H406 C402 0.950 . S
C407 C405 1.390 . S
C407 C408 1.387 . S
C407 H410 0.950 . S
C408 C407 1.387 . S
C408 C411 1.387 . S
H409 C405 0.950 . S
H410 C407 0.950 . S
C411 C402 1.390 . S
C411 H404 0.950 . S
C411 C408 1.387 . S
C412 C413 1.387 . S
C412 H416 0.950 . S
C412 C421 1.390 . S
C413 C412 1.387 . S
C413 C415 1.387 . S
H414 C421 0.950 . S
C415 C413 1.387 . S
C415 C417 1.390 . S
C415 H419 0.950 . S
H416 C412 0.950 . S
C417 C415 1.390 . S
C417 C418 1.387 . S
C417 H420 0.950 . S
C418 C417 1.387 . S
C418 C421 1.387 . S
H419 C415 0.950 . S
H420 C417 0.950 . S
C421 C412 1.390 . S
C421 H414 0.950 . S
C421 C418 1.387 . S
C422 C423 1.387 . S
C422 H426 0.950 . S
C422 C431 1.390 . S
C423 C422 1.387 . S
C423 C425 1.387 . S
H424 C431 0.950 . S
C425 C423 1.387 . S
C425 C427 1.390 . S
C425 H429 0.950 . S
H426 C422 0.950 . S
C427 C425 1.390 . S
C427 C428 1.387 . S
C427 H430 0.950 . S
C428 C427 1.387 . S
C428 C431 1.387 . S
H429 C425 0.950 . S
H430 C427 0.950 . S
C431 C422 1.390 . S
C431 H424 0.950 . S
C431 C428 1.387 . S
C432 C433 1.387 . S
C432 H436 0.950 . S
C432 C441 1.390 . S
C433 C432 1.387 . S
C433 C435 1.387 . S
H434 C441 0.950 . S
C435 C433 1.387 . S
C435 C437 1.390 . S
C435 H439 0.950 . S
H436 C432 0.950 . S
C437 C435 1.390 . S
C437 C438 1.387 . S
C437 H440 0.950 1_455 S
C438 C437 1.387 . S
C438 C441 1.387 . S
H439 C435 0.950 . S
H440 C437 0.950 1_655 S
C441 C432 1.390 . S
C441 H434 0.950 . S
C441 C438 1.387 . S
C442 C443 1.387 1_565 S
C442 H446 0.950 . S
C442 C451 1.390 1_565 S
C443 C442 1.387 1_545 S
C443 C445 1.387 . S
H444 C451 0.949 1_565 S
C445 C443 1.387 . S
C445 C447 1.390 . S
C445 H449 0.950 . S
H446 C442 0.950 . S
C447 C445 1.390 . S
C447 C448 1.387 . S
C447 H450 0.950 . S
C448 C447 1.387 . S
C448 C451 1.388 . S
H449 C445 0.950 . S
H450 C447 0.950 . S
C451 C442 1.390 1_545 S
C451 H444 0.949 1_545 S
C451 C448 1.388 . S
C452 C453 1.387 . S
C452 H456 0.950 . S
C452 C461 1.390 . S
C453 C452 1.387 . S
C453 C455 1.387 . S
H454 C461 0.950 . S
C455 C453 1.387 . S
C455 C457 1.390 . S
C455 H459 0.950 . S
H456 C452 0.950 . S
C457 C455 1.390 . S
C457 C458 1.387 . S
C457 H460 0.950 . S
C458 C457 1.387 . S
C458 C461 1.387 . S
H459 C455 0.950 . S
H460 C457 0.950 . S
C461 C452 1.390 . S
C461 H454 0.950 . S
C461 C458 1.387 . S
C462 C463 1.387 1_565 S
C462 H466 0.950 . S
C462 C471 1.390 . S
C463 C462 1.387 1_545 S
C463 C465 1.387 . S
H464 C471 0.950 . S
C465 C463 1.387 . S
C465 C467 1.390 . S
C465 H469 0.950 . S
H466 C462 0.950 . S
C467 C465 1.390 . S
C467 C468 1.387 . S
C467 H470 0.950 . S
C468 C467 1.387 . S
C468 C471 1.387 1_545 S
H469 C465 0.950 . S
H470 C467 0.950 . S
C471 C462 1.390 . S
C471 H464 0.950 . S
C471 C468 1.387 1_565 S
C472 C473 1.387 . S
C472 H476 0.950 . S
C472 C481 1.390 . S
C473 C472 1.387 . S
C473 C475 1.387 . S
H474 C481 0.950 . S
C475 C473 1.387 . S
C475 C477 1.390 . S
C475 H479 0.950 . S
H476 C472 0.950 . S
C477 C475 1.390 . S
C477 C478 1.387 . S
C477 H480 0.950 . S
C478 C477 1.387 . S
C478 C481 1.387 . S
H479 C475 0.950 . S
H480 C477 0.950 . S
C481 C472 1.390 . S
C481 H474 0.950 . S
C481 C478 1.387 . S
C482 C483 1.387 . S
C482 H486 0.950 . S
C482 C491 1.390 . S
C483 C482 1.387 . S
C483 C485 1.387 . S
H484 C491 0.950 . S
C485 C483 1.387 . S
C485 C487 1.390 . S
C485 H489 0.950 1_455 S
H486 C482 0.950 . S
C487 C485 1.390 . S
C487 C488 1.387 . S
C487 H490 0.950 1_455 S
C488 C487 1.387 . S
C488 C491 1.387 . S
H489 C485 0.950 1_655 S
H490 C487 0.950 1_655 S
C491 C482 1.390 . S
C491 H484 0.950 . S
C491 C488 1.387 . S
C313 C19 3.031 . S
C318 C303 2.965 . S
C323 C49 3.122 . S
C328 C239 3.048 . S
C333 C99 3.049 . S
C338 C271 2.987 . S
C343 C9 3.127 . S
C348 C297 3.067 . S
C358 C233 2.976 . S
C353 C59 3.035 . S
C368 C265 3.044 . S
C363 C89 3.106 . S
C373 C55 0.708 . S
C378 C175 0.687 . S
C383 C85 0.730 . S
C388 C207 0.715 . S
C393 C15 0.674 . S
C398 C137 0.681 . S
C408 C169 0.726 . S
C403 C45 0.742 . S
C418 C201 0.699 . S
C413 C95 0.690 . S
C423 C5 0.728 . S
C428 C143 0.718 . S
C438 C213 0.982 . S
C433 C18 1.019 . S
C443 C58 1.002 . S
C448 C149 0.974 . S
C453 C98 1.021 . S
C458 C181 1.028 . S
C468 C277 1.775 . S
C463 C48 1.726 . S
C478 C309 1.780 1_556 S
C473 C88 1.727 . S
C483 C8 1.729 . S
C488 C245 1.798 . S
