# Generated by pormake.
# Topology rtl, (3,6)-cn, num edge types: 1
# Building blocks:
#     Node 0, Type 0, BuildingBlock: QEWDON_clean_linker_0, # of connection points: 3
#     Node 1, Type 0, BuildingBlock: QEWDON_clean_linker_0, # of connection points: 3
#     Node 2, Type 0, BuildingBlock: QEWDON_clean_linker_0, # of connection points: 3
#     Node 3, Type 0, BuildingBlock: QEWDON_clean_linker_0, # of connection points: 3
#     Node 4, Type 1, BuildingBlock: VOLQOD_clean_sbu_1, # of connection points: 6
#     Node 5, Type 1, BuildingBlock: VOLQOD_clean_sbu_1, # of connection points: 6
#     Edge 6, Type (0, 1), BuildingBlock: ZUJKAS_clean_linker_0, # of connection points: 2
#     Edge 7, Type (0, 1), BuildingBlock: ZUJKAS_clean_linker_0, # of connection points: 2
#     Edge 8, Type (0, 1), BuildingBlock: ZUJKAS_clean_linker_0, # of connection points: 2
#     Edge 9, Type (0, 1), BuildingBlock: ZUJKAS_clean_linker_0, # of connection points: 2
#     Edge 10, Type (0, 1), BuildingBlock: ZUJKAS_clean_linker_0, # of connection points: 2
#     Edge 11, Type (0, 1), BuildingBlock: ZUJKAS_clean_linker_0, # of connection points: 2
#     Edge 12, Type (0, 1), BuildingBlock: ZUJKAS_clean_linker_0, # of connection points: 2
#     Edge 13, Type (0, 1), BuildingBlock: ZUJKAS_clean_linker_0, # of connection points: 2
#     Edge 14, Type (0, 1), BuildingBlock: ZUJKAS_clean_linker_0, # of connection points: 2
#     Edge 15, Type (0, 1), BuildingBlock: ZUJKAS_clean_linker_0, # of connection points: 2
#     Edge 16, Type (0, 1), BuildingBlock: ZUJKAS_clean_linker_0, # of connection points: 2
#     Edge 17, Type (0, 1), BuildingBlock: ZUJKAS_clean_linker_0, # of connection points: 2
# Relax obj value: 0.048
# Max RMSD: 0.148
# Mean RMSD: 0.140
data_MOF--net-rtl--node1-VOLQOD_clean_sbu_1--node2-QEWDON_clean_linker_0--edge1-ZUJKAS_clean_linker_0
_symmetry_space_group_name_H-M    P1
_symmetry_Int_Tables_number       1
_symmetry_cell_setting            triclinic
loop_
_symmetry_equiv_pos_as_xyz
'x, y, z'
_cell_length_a     50.579478
_cell_length_b     51.140255
_cell_length_c     27.639326
_cell_angle_alpha  91.332597
_cell_angle_beta   91.915236
_cell_angle_gamma 90.038482
loop_
_atom_site_label
_atom_site_type_symbol
_atom_site_fract_x
_atom_site_fract_y
_atom_site_fract_z
_atom_type_partial_charge
H0 H 0.23117 0.83676 0.08179 0.0
C1 C 0.22065 0.83813 0.04711 0.0
C2 C 0.1937 0.84479 0.04529 0.0
C3 C 0.23435 0.83431 0.00419 0.0
H4 H 0.16016 0.85361 -0.0015 0.0
C5 C 0.18059 0.84719 6e-05 0.0
C6 C 0.19418 0.84398 0.95689 0.0
C7 C 0.22115 0.83742 0.95921 0.0
C8 C 0.26319 0.83032 0.00641 0.0
H9 H 0.23205 0.83547 0.9262 0.0
C10 C 0.27403 0.80507 0.00912 0.0
C11 C 0.30169 0.80159 0.01053 0.0
C12 C 0.27996 0.8521 0.00547 0.0
H13 H 0.27183 0.87166 0.00341 0.0
C14 C 0.30732 0.84881 0.0073 0.0
H15 H 0.26095 0.78828 0.00926 0.0
C16 C 0.31816 0.82378 0.00982 0.0
H17 H 0.33949 0.82182 0.01174 0.0
H18 H 0.32019 0.86572 0.00681 0.0
H19 H 0.72453 0.6923 0.48406 0.0
C20 C 0.71211 0.69139 0.51519 0.0
C21 C 0.68642 0.68099 0.50986 0.0
C22 C 0.72259 0.69829 0.56153 0.0
H23 H 0.65122 0.67063 0.54662 0.0
C24 C 0.67088 0.67903 0.55072 0.0
C25 C 0.68106 0.68576 0.59709 0.0
C26 C 0.70699 0.69539 0.60224 0.0
C27 C 0.75086 0.70516 0.56863 0.0
H28 H 0.71533 0.70005 0.63807 0.0
C29 C 0.76154 0.72752 0.54785 0.0
C30 C 0.78841 0.73409 0.55643 0.0
C31 C 0.76722 0.6892 0.59742 0.0
H32 H 0.75936 0.67187 0.61361 0.0
C33 C 0.79385 0.69539 0.60542 0.0
H34 H 0.7489 0.73986 0.52568 0.0
C35 C 0.8044 0.71768 0.58529 0.0
H36 H 0.82498 0.72239 0.59331 0.0
H37 H 0.80631 0.68301 0.62775 0.0
H38 H 0.77756 0.19605 0.07085 0.0
C39 C 0.79041 0.19244 0.04079 0.0
C40 C 0.81549 0.18141 0.04924 0.0
C41 C 0.78096 0.19633 0.99301 0.0
H42 H 0.85085 0.167 0.01708 0.0
C43 C 0.83151 0.17555 0.01012 0.0
C44 C 0.82225 0.17879 0.96233 0.0
C45 C 0.79705 0.18959 0.95403 0.0
C46 C 0.753 0.20352 0.98315 0.0
H47 H 0.78928 0.19139 0.91723 0.0
C48 C 0.74227 0.22688 0.00196 0.0
C49 C 0.71559 0.23332 0.99159 0.0
C50 C 0.73685 0.18658 0.95438 0.0
H51 H 0.74466 0.16842 0.93985 0.0
C52 C 0.71044 0.19275 0.94447 0.0
H53 H 0.75466 0.24 0.02416 0.0
C54 C 0.69985 0.21595 0.96279 0.0
H55 H 0.67942 0.22053 0.95355 0.0
H56 H 0.69816 0.17959 0.92222 0.0
H57 H 0.31947 0.28822 0.59223 0.0
C58 C 0.32144 0.29952 0.55983 0.0
C59 C 0.32759 0.32629 0.56371 0.0
C60 C 0.3189 0.287 0.51418 0.0
H61 H 0.3372 0.36062 0.52424 0.0
C62 C 0.33093 0.34036 0.52131 0.0
C63 C 0.32879 0.32804 0.47542 0.0
C64 C 0.32258 0.30126 0.47215 0.0
C65 C 0.31608 0.25835 0.51064 0.0
H66 H 0.32142 0.29128 0.4371 0.0
C67 C 0.29101 0.24644 0.50767 0.0
C68 C 0.28875 0.21898 0.50359 0.0
C69 C 0.3389 0.24285 0.50982 0.0
H70 H 0.35834 0.25181 0.51208 0.0
C71 C 0.33681 0.2157 0.50614 0.0
H72 H 0.27342 0.25854 0.5078 0.0
C73 C 0.31197 0.2038 0.50306 0.0
H74 H 0.31094 0.18265 0.50087 0.0
H75 H 0.35451 0.20382 0.50575 0.0
O76 O 0.943 0.98105 0.49618 0.0
Zn77 Zn 0.96386 0.01482 0.4995 0.0
O78 O 1.00193 0.00929 0.49756 0.0
Zn79 Zn 0.01913 0.02456 0.5565 0.0
Zn80 Zn 0.00834 0.97167 0.49475 0.0
Zn81 Zn 0.01578 0.02567 0.43977 0.0
O82 O 0.04688 0.05085 0.53945 0.0
O83 O 0.04429 0.05201 0.45917 0.0
O84 O 0.95451 0.03477 0.55937 0.0
O85 O 0.99266 0.0432 0.59865 0.0
O86 O 0.0376 0.99671 0.59585 0.0
O87 O 0.03003 0.96017 0.55267 0.0
O88 O 0.02853 0.96176 0.43604 0.0
O89 O 0.95145 0.03734 0.44532 0.0
O90 O 0.03289 0.99859 0.39602 0.0
O91 O 0.98683 0.04505 0.40233 0.0
C92 C 0.95007 0.95719 0.49311 0.0
C93 C 0.05461 0.05982 0.49967 0.0
C94 C 0.04032 0.97209 0.58962 0.0
C95 C 0.96757 0.04531 0.59479 0.0
C96 C 0.0368 0.97408 0.40002 0.0
C97 C 0.96228 0.0481 0.40997 0.0
O98 O 0.97441 0.95094 0.49205 0.0
O99 O 0.55978 0.48212 0.03284 0.0
Zn100 Zn 0.53929 0.51605 0.03268 0.0
O101 O 0.50112 0.51064 0.03517 0.0
Zn102 Zn 0.48354 0.52559 0.97781 0.0
Zn103 Zn 0.49452 0.47306 0.03554 0.0
Zn104 Zn 0.4875 0.52739 0.09418 0.0
O105 O 0.45744 0.55337 -0.00301 0.0
O106 O 0.46098 0.55568 0.07722 0.0
O107 O 0.54849 0.53594 0.97396 0.0
O108 O 0.50996 0.54327 0.93594 0.0
O109 O 0.46374 0.49786 0.93772 0.0
O110 O 0.4725 0.46137 0.97716 0.0
O111 O 0.47423 0.46364 0.0936 0.0
O112 O 0.55235 0.53777 0.0897 0.0
O113 O 0.46873 0.50095 0.13475 0.0
O114 O 0.51724 0.54479 0.13435 0.0
C115 C 0.55264 0.45831 0.0351 0.0
C116 C 0.45083 0.56353 0.03731 0.0
C117 C 0.46136 0.4732 0.94196 0.0
C118 C 0.53502 0.54579 0.93921 0.0
C119 C 0.46516 0.47634 0.12954 0.0
C120 C 0.54183 0.54769 0.12705 0.0
O121 O 0.52829 0.45215 0.03668 0.0
H122 H 0.27345 0.17779 0.44442 0.0
H123 H 0.23163 0.15383 0.44341 0.0
H124 H 0.20262 0.20639 0.55368 0.0
H125 H 0.24463 0.2304 0.5553 0.0
H126 H 0.2112 0.12872 0.52377 0.0
H127 H 0.14147 0.20302 0.45024 0.0
H128 H 0.17685 0.20536 0.44431 0.0
H129 H 0.16225 0.21377 0.50091 0.0
C130 C 0.25817 0.18431 0.46845 0.0
C131 C 0.26245 0.20591 0.5002 0.0
C132 C 0.23424 0.17066 0.46763 0.0
C133 C 0.21398 0.17842 0.49822 0.0
C134 C 0.21785 0.20034 0.52919 0.0
H135 H 0.08362 0.07868 0.57845 0.0
H136 H 0.12142 0.10851 0.57915 0.0
C137 C 0.24186 0.21404 0.53006 0.0
C138 C 0.18954 0.16247 0.4996 0.0
H139 H 0.12271 0.16364 0.47709 0.0
C140 C 0.19184 0.13635 0.51363 0.0
C141 C 0.16437 0.17246 0.486 0.0
C142 C 0.16095 0.20012 0.46911 0.0
C143 C 0.16965 0.11993 0.51457 0.0
C144 C 0.14442 0.13 0.50165 0.0
C145 C 0.14208 0.15608 0.48735 0.0
C146 C 0.12041 0.11338 0.50159 0.0
C147 C 0.17343 0.09177 0.52843 0.0
C148 C 0.10691 0.1068 0.45786 0.0
C149 C 0.08527 0.08973 0.45725 0.0
C150 C 0.07663 0.07906 0.50049 0.0
C151 C 0.08978 0.08638 0.54444 0.0
C152 C 0.11145 0.10339 0.54494 0.0
H153 H 0.1945 0.08572 0.52735 0.0
H154 H 0.1667 0.08923 0.56584 0.0
H155 H 0.16148 0.07854 0.5039 0.0
H156 H 0.11351 0.11439 0.42403 0.0
H157 H 0.07557 0.08464 0.42279 0.0
H158 H 0.34373 0.78287 0.96084 0.0
H159 H 0.36542 0.74045 0.96834 0.0
H160 H 0.30857 0.71764 0.07232 0.0
H161 H 0.28679 0.76029 0.06535 0.0
H162 H 0.38805 0.72061 0.05428 0.0
H163 H 0.30946 0.65496 0.97499 0.0
H164 H 0.30954 0.68981 0.96582 0.0
H165 H 0.29947 0.67714 0.02238 0.0
C166 C 0.3358 0.76886 0.98535 0.0
C167 C 0.31361 0.77503 0.01273 0.0
C168 C 0.34816 0.74458 0.9894 0.0
C169 C 0.33852 0.72585 0.02064 0.0
C170 C 0.31608 0.73167 0.04741 0.0
H171 H 0.43398 0.59242 0.11535 0.0
H172 H 0.40508 0.63079 0.11435 0.0
C173 C 0.30365 0.75603 0.04337 0.0
C174 C 0.35293 0.70083 0.02666 0.0
H175 H 0.348 0.63475 0.00733 0.0
C176 C 0.37927 0.70181 0.04425 0.0
C177 C 0.34144 0.6764 0.01321 0.0
C178 C 0.31349 0.67435 0.99267 0.0
C179 C 0.39456 0.67904 0.04837 0.0
C180 C 0.38306 0.65457 0.03517 0.0
C181 C 0.35666 0.65354 0.01783 0.0
C182 C 0.39871 0.63008 0.03654 0.0
C183 C 0.42315 0.68143 0.06538 0.0
C184 C 0.404 0.61651 0.99329 0.0
C185 C 0.42045 0.59456 0.99368 0.0
C186 C 0.43185 0.58566 0.03745 0.0
C187 C 0.4257 0.5988 0.08096 0.0
C188 C 0.40926 0.62079 0.08048 0.0
H189 H 0.43038 0.70193 0.06443 0.0
H190 H 0.42524 0.67481 0.10325 0.0
H191 H 0.43597 0.66891 0.04269 0.0
H192 H 0.39598 0.62333 0.95901 0.0
H193 H 0.4246 0.58488 0.9595 0.0
H194 H 0.83667 0.7405 0.51664 0.0
H195 H 0.85817 0.78153 0.49728 0.0
H196 H 0.78751 0.82399 0.53275 0.0
H197 H 0.76613 0.783 0.55406 0.0
H198 H 0.84649 0.82105 0.43301 0.0
H199 H 0.84346 0.85761 0.624 0.0
H200 H 0.83586 0.82415 0.60671 0.0
H201 H 0.81198 0.84948 0.59557 0.0
C202 C 0.82566 0.75856 0.52029 0.0
C203 C 0.79984 0.75852 0.53768 0.0
C204 C 0.83792 0.78198 0.50887 0.0
C205 C 0.82464 0.80587 0.51454 0.0
C206 C 0.7983 0.80581 0.52909 0.0
H207 H 0.89659 0.96207 0.5049 0.0
H208 H 0.86358 0.92699 0.50526 0.0
C209 C 0.78601 0.78234 0.5407 0.0
C210 C 0.83911 0.83068 0.5076 0.0
H211 H 0.86437 0.88436 0.5689 0.0
C212 C 0.85019 0.83502 0.46258 0.0
C213 C 0.84393 0.84891 0.54627 0.0
C214 C 0.8334 0.84482 0.59601 0.0
C215 C 0.86642 0.8568 0.45546 0.0
C216 C 0.87194 0.8745 0.49457 0.0
C217 C 0.86006 0.87074 0.53901 0.0
C218 C 0.89151 0.89593 0.49132 0.0
C219 C 0.87772 0.86057 0.40629 0.0
C220 C 0.91815 0.89004 0.48373 0.0
C221 C 0.93707 0.90995 0.48376 0.0
C222 C 0.92973 0.93622 0.4915 0.0
C223 C 0.90293 0.94208 0.49868 0.0
C224 C 0.88403 0.92208 0.4989 0.0
H225 H 0.86585 0.8501 0.37735 0.0
H226 H 0.87866 0.88163 0.39759 0.0
H227 H 0.89812 0.85259 0.4062 0.0
H228 H 0.92444 0.86993 0.47881 0.0
H229 H 0.9575 0.90468 0.47818 0.0
H230 H 0.73738 0.28237 0.98978 0.0
H231 H 0.71558 0.32415 0.00791 0.0
H232 H 0.64555 0.28268 0.04756 0.0
H233 H 0.66738 0.24107 0.03092 0.0
H234 H 0.6709 0.34134 0.96033 0.0
H235 H 0.65258 0.33692 0.15597 0.0
H236 H 0.67589 0.31562 0.12655 0.0
H237 H 0.64109 0.308 0.12386 0.0
C238 C 0.71761 0.28219 0.00368 0.0
C239 C 0.70405 0.25845 0.00877 0.0
C240 C 0.70513 0.30606 0.01374 0.0
C241 C 0.67903 0.30655 0.02959 0.0
C242 C 0.66586 0.28283 0.03635 0.0
H243 H 0.54494 0.40581 0.04566 0.0
H244 H 0.57819 0.3712 0.04622 0.0
C245 C 0.67827 0.25904 0.02629 0.0
C246 C 0.66445 0.33161 0.0344 0.0
H247 H 0.62469 0.36628 0.11 0.0
C248 C 0.66122 0.34711 0.99333 0.0
C249 C 0.65181 0.33909 0.07747 0.0
C250 C 0.65574 0.32416 0.12359 0.0
C251 C 0.64454 0.36905 0.99337 0.0
C252 C 0.63098 0.3758 0.03579 0.0
C253 C 0.635 0.36094 0.07743 0.0
C254 C 0.61125 0.3972 0.03666 0.0
C255 C 0.64052 0.3841 0.94739 0.0
C256 C 0.61889 0.42334 0.03156 0.0
C257 C 0.5999 0.44325 0.03122 0.0
C258 C 0.57293 0.43735 0.03599 0.0
C259 C 0.56548 0.4111 0.04168 0.0
C260 C 0.58446 0.39128 0.04217 0.0
H261 H 0.64889 0.37372 0.91565 0.0
H262 H 0.61913 0.3876 0.93976 0.0
H263 H 0.65042 0.40342 0.9518 0.0
H264 H 0.63952 0.42834 0.02785 0.0
H265 H 0.60638 0.46324 0.02699 0.0
H266 H 0.14425 0.83025 0.07115 0.0
H267 H 0.11813 0.84986 0.13559 0.0
H268 H 0.18501 0.89741 0.1827 0.0
H269 H 0.21128 0.87776 0.11854 0.0
H270 H 0.15611 0.8783 0.25942 0.0
H271 H 0.09103 0.92498 0.12066 0.0
H272 H 0.09301 0.89002 0.11438 0.0
H273 H 0.12197 0.90961 0.10622 0.0
C274 C 0.15348 0.84458 0.09578 0.0
C275 C 0.17971 0.85264 0.08963 0.0
C276 C 0.13853 0.85584 0.13236 0.0
C277 C 0.14946 0.87552 0.16307 0.0
C278 C 0.17617 0.88235 0.15912 0.0
H279 H 0.06332 0.99394 0.32394 0.0
H280 H 0.09115 0.96999 0.26727 0.0
C281 C 0.1912 0.871 0.12266 0.0
C282 C 0.13267 0.8901 0.1973 0.0
H283 H 0.07857 0.92988 0.2022 0.0
C284 C 0.13915 0.88958 0.247 0.0
C285 C 0.11088 0.90522 0.18081 0.0
C286 C 0.10389 0.90777 0.12759 0.0
C287 C 0.1241 0.90342 0.28083 0.0
C288 C 0.10175 0.91779 0.26444 0.0
C289 C 0.09556 0.91865 0.21467 0.0
C290 C 0.08457 0.93216 0.29832 0.0
C291 C 0.13255 0.90293 0.33368 0.0
C292 C 0.07118 0.91875 0.33378 0.0
C293 C 0.05533 0.93234 0.3662 0.0
C294 C 0.05234 0.95964 0.36355 0.0
C295 C 0.06519 0.97294 0.32705 0.0
C296 C 0.08114 0.9593 0.29469 0.0
H297 H 0.15365 0.89723 0.33863 0.0
H298 H 0.12965 0.92232 0.35162 0.0
H299 H 0.12039 0.88837 0.35215 0.0
H300 H 0.07301 0.89772 0.33641 0.0
H301 H 0.04556 0.9214 0.39356 0.0
H302 H 0.69838 0.66089 0.67852 0.0
H303 H 0.67113 0.64222 0.74058 0.0
H304 H 0.60143 0.67605 0.6734 0.0
H305 H 0.62859 0.695 0.61132 0.0
H306 H 0.63237 0.66377 0.80691 0.0
H307 H 0.5892 0.59537 0.6658 0.0
H308 H 0.61872 0.61421 0.65655 0.0
H309 H 0.58685 0.62963 0.65321 0.0
C310 C 0.67738 0.66504 0.67778 0.0
C311 C 0.66557 0.67921 0.63981 0.0
C312 C 0.66182 0.65423 0.71308 0.0
C313 C 0.63427 0.65737 0.71087 0.0
C314 C 0.62264 0.67306 0.67511 0.0
H315 H 0.51302 0.57465 0.86571 0.0
H316 H 0.53597 0.60337 0.81118 0.0
C317 C 0.63816 0.68387 0.63981 0.0
C318 C 0.61764 0.64249 0.74356 0.0
H319 H 0.57422 0.59139 0.74493 0.0
C320 C 0.61954 0.64803 0.79346 0.0
C321 C 0.60095 0.62199 0.72569 0.0
C322 C 0.59884 0.61471 0.67245 0.0
C323 C 0.60515 0.63352 0.82615 0.0
C324 C 0.58896 0.61259 0.80839 0.0
C325 C 0.58666 0.60743 0.75838 0.0
C326 C 0.57506 0.59515 0.84119 0.0
C327 C 0.60729 0.64083 0.87933 0.0
C328 C 0.58951 0.5805 0.87519 0.0
C329 C 0.57652 0.56409 0.90632 0.0
C330 C 0.54878 0.56181 0.90379 0.0
C331 C 0.53439 0.57595 0.86869 0.0
C332 C 0.54745 0.59244 0.8376 0.0
H333 H 0.61384 0.66144 0.88524 0.0
H334 H 0.58808 0.63818 0.89692 0.0
H335 H 0.62215 0.62806 0.89739 0.0
H336 H 0.6109 0.58175 0.87765 0.0
H337 H 0.58826 0.55336 0.93263 0.0
H338 H 0.8236 0.13118 0.07127 0.0
H339 H 0.84431 0.11402 0.1447 0.0
H340 H 0.84769 0.19187 0.20835 0.0
H341 H 0.82711 0.2093 0.13353 0.0
H342 H 0.89544 0.16665 0.21436 0.0
H343 H 0.81794 0.10114 0.27785 0.0
H344 H 0.82357 0.09473 0.21503 0.0
H345 H 0.81099 0.12615 0.23418 0.0
C346 C 0.82823 0.14455 0.10138 0.0
C347 C 0.82377 0.17149 0.0971 0.0
C348 C 0.83992 0.13472 0.14342 0.0
C349 C 0.84718 0.15158 0.18234 0.0
C350 C 0.842 0.17851 0.17883 0.0
H351 H 0.91535 0.07077 0.43168 0.0
H352 H 0.88809 0.09951 0.38179 0.0
C353 C 0.83016 0.18843 0.13643 0.0
C354 C 0.8624 0.14091 0.22416 0.0
H355 H 0.86312 0.08951 0.30052 0.0
C356 C 0.88822 0.15013 0.23402 0.0
C357 C 0.85287 0.11961 0.2503 0.0
C358 C 0.82471 0.11005 0.24413 0.0
C359 C 0.90528 0.13759 0.26723 0.0
C360 C 0.89648 0.11482 0.29009 0.0
C361 C 0.87013 0.10663 0.28236 0.0
C362 C 0.91423 0.09878 0.32136 0.0
C363 C 0.93257 0.14882 0.27716 0.0
C364 C 0.93807 0.08866 0.30404 0.0
C365 C 0.95396 0.0724 0.33285 0.0
C366 C 0.94595 0.06547 0.37903 0.0
C367 C 0.92202 0.07553 0.39609 0.0
C368 C 0.90641 0.09206 0.36766 0.0
H369 H 0.93293 0.17019 0.27072 0.0
H370 H 0.93959 0.14544 0.31499 0.0
H371 H 0.9466 0.13936 0.25221 0.0
H372 H 0.94416 0.09289 0.26786 0.0
H373 H 0.9722 0.06484 0.31861 0.0
H374 H 0.31242 0.37487 0.59536 0.0
H375 H 0.33063 0.39961 0.66572 0.0
H376 H 0.37562 0.33214 0.7096 0.0
H377 H 0.35786 0.30734 0.63891 0.0
H378 H 0.34919 0.3662 0.78821 0.0
H379 H 0.41298 0.41821 0.66098 0.0
H380 H 0.37813 0.41661 0.6458 0.0
H381 H 0.39745 0.38721 0.64539 0.0
C382 C 0.32584 0.36517 0.62046 0.0
C383 C 0.33393 0.33925 0.61133 0.0
C384 C 0.33616 0.3793 0.66059 0.0
C385 C 0.35467 0.36774 0.6923 0.0
C386 C 0.36133 0.34134 0.68539 0.0
H387 H 0.45633 0.42001 0.93345 0.0
H388 H 0.42916 0.39489 0.87442 0.0
C389 C 0.35105 0.32717 0.64515 0.0
C390 C 0.36904 0.38389 0.7296 0.0
H391 H 0.41672 0.43095 0.74317 0.0
C392 C 0.36393 0.38041 0.77855 0.0
C393 C 0.38818 0.40237 0.7166 0.0
C394 C 0.39476 0.40634 0.6644 0.0
C395 C 0.37738 0.39524 0.81509 0.0
C396 C 0.39687 0.41348 0.80213 0.0
C397 C 0.40177 0.417 0.75304 0.0
C398 C 0.41286 0.42879 0.83875 0.0
C399 C 0.37026 0.39155 0.86706 0.0
C400 C 0.41343 0.45621 0.83737 0.0
C401 C 0.42929 0.47068 0.87064 0.0
C402 C 0.44491 0.45797 0.90597 0.0
C403 C 0.44441 0.43047 0.90701 0.0
C404 C 0.42868 0.41604 0.87353 0.0
H405 H 0.35008 0.3832 0.86965 0.0
H406 H 0.38444 0.37772 0.88413 0.0
H407 H 0.37125 0.41034 0.88799 0.0
H408 H 0.40154 0.46644 0.81053 0.0
H409 H 0.42917 0.49181 0.86882 0.0
H410 H 0.68518 0.70209 0.41901 0.0
H411 H 0.66487 0.6825 0.34432 0.0
H412 H 0.64494 0.61358 0.4226 0.0
H413 H 0.66553 0.63259 0.49612 0.0
H414 H 0.6652 0.60218 0.3329 0.0
H415 H 0.58409 0.67561 0.32146 0.0
H416 H 0.61739 0.68803 0.32252 0.0
H417 H 0.60522 0.6725 0.37493 0.0
C418 C 0.67669 0.68267 0.41986 0.0
C419 C 0.67648 0.66903 0.46339 0.0
C420 C 0.66494 0.6716 0.37745 0.0
C421 C 0.65299 0.64678 0.37823 0.0
C422 C 0.65387 0.63281 0.42124 0.0
H423 H 0.52913 0.56705 0.21679 0.0
H424 H 0.55752 0.59245 0.27397 0.0
C425 C 0.66549 0.64377 0.46329 0.0
C426 C 0.6388 0.63513 0.3352 0.0
H427 H 0.58223 0.64046 0.26515 0.0
C428 C 0.64724 0.61068 0.31756 0.0
C429 C 0.61518 0.64614 0.3159 0.0
C430 C 0.6047 0.67192 0.33472 0.0
C431 C 0.6323 0.59653 0.2822 0.0
C432 C 0.60855 0.60742 0.26317 0.0
C433 C 0.60047 0.63221 0.27979 0.0
C434 C 0.5912 0.59283 0.22768 0.0
C435 C 0.64147 0.56952 0.26727 0.0
C436 C 0.60061 0.58493 0.18252 0.0
C437 C 0.58458 0.5702 0.15006 0.0
C438 C 0.55864 0.56335 0.16184 0.0
C439 C 0.54902 0.57187 0.20667 0.0
C440 C 0.56519 0.58646 0.2393 0.0
H441 H 0.65627 0.56159 0.29365 0.0
H442 H 0.62455 0.55569 0.26365 0.0
H443 H 0.65086 0.57045 0.23165 0.0
H444 H 0.6204 0.59012 0.17237 0.0
H445 H 0.59254 0.56429 0.11559 0.0
H446 H 0.83059 0.19992 0.87337 0.0
H447 H 0.85476 0.17997 0.80617 0.0
H448 H 0.87286 0.11308 0.89342 0.0
H449 H 0.84814 0.13214 0.9594 0.0
H450 H 0.9083 0.16297 0.8026 0.0
H451 H 0.83791 0.08089 0.77046 0.0
H452 H 0.82994 0.10963 0.8062 0.0
H453 H 0.84949 0.08386 0.83242 0.0
C454 C 0.83963 0.18091 0.878 0.0
C455 C 0.83756 0.1677 0.92179 0.0
C456 C 0.85352 0.16964 0.83979 0.0
C457 C 0.86528 0.14494 0.84476 0.0
C458 C 0.8636 0.13199 0.88864 0.0
H459 H 0.98594 0.06499 0.683 0.0
H460 H 0.96127 0.09097 0.74182 0.0
C461 C 0.84973 0.14312 0.92657 0.0
C462 C 0.87922 0.13227 0.80432 0.0
H463 H 0.88017 0.07618 0.73531 0.0
C464 C 0.90205 0.14413 0.78741 0.0
C465 C 0.87079 0.10787 0.78423 0.0
C466 C 0.84554 0.09492 0.79889 0.0
C467 C 0.91723 0.13174 0.75193 0.0
C468 C 0.90955 0.10666 0.73378 0.0
C469 C 0.88624 0.09525 0.74969 0.0
C470 C 0.92506 0.09186 0.69779 0.0
C471 C 0.94115 0.14571 0.73398 0.0
C472 C 0.91271 0.08317 0.65418 0.0
C473 C 0.92655 0.06797 0.62106 0.0
C474 C 0.95312 0.06117 0.63073 0.0
C475 C 0.96555 0.06998 0.67438 0.0
C476 C 0.95155 0.08504 0.70782 0.0
H477 H 0.93987 0.16718 0.7406 0.0
H478 H 0.95912 0.13857 0.75363 0.0
H479 H 0.9435 0.14189 0.69465 0.0
H480 H 0.89226 0.08811 0.64578 0.0
H481 H 0.91637 0.06168 0.58768 0.0
H482 H 0.35984 0.31144 0.40152 0.0
H483 H 0.37832 0.33814 0.3385 0.0
H484 H 0.33442 0.40485 0.38976 0.0
H485 H 0.31535 0.3782 0.45232 0.0
H486 H 0.35189 0.37352 0.26372 0.0
H487 H 0.41642 0.42365 0.40452 0.0
H488 H 0.40098 0.39245 0.41438 0.0
H489 H 0.3816 0.4218 0.41552 0.0
C490 C 0.35347 0.33157 0.39853 0.0
C491 C 0.33627 0.34276 0.43219 0.0
C492 C 0.3642 0.34683 0.36271 0.0
C493 C 0.35799 0.37348 0.36011 0.0
C494 C 0.33966 0.38436 0.3917 0.0
H495 H 0.43509 0.49682 0.20216 0.0
H496 H 0.40728 0.47282 0.25696 0.0
C497 C 0.32884 0.36912 0.42738 0.0
C498 C 0.37216 0.39028 0.3267 0.0
H499 H 0.42058 0.43669 0.32414 0.0
C500 C 0.36684 0.38742 0.27678 0.0
C501 C 0.39151 0.40843 0.34412 0.0
C502 C 0.39822 0.4118 0.39752 0.0
C503 C 0.38047 0.40233 0.2436 0.0
C504 C 0.40042 0.41998 0.2609 0.0
C505 C 0.40533 0.42314 0.31096 0.0
C506 C 0.41714 0.43457 0.22768 0.0
C507 C 0.37317 0.39921 0.19039 0.0
C508 C 0.43238 0.42101 0.19389 0.0
C509 C 0.44817 0.43461 0.16252 0.0
C510 C 0.44935 0.46211 0.16468 0.0
C511 C 0.43463 0.47566 0.19951 0.0
C512 C 0.41867 0.46199 0.23075 0.0
H513 H 0.35265 0.39172 0.1846 0.0
H514 H 0.37492 0.41804 0.17155 0.0
H515 H 0.38671 0.38486 0.17352 0.0
H516 H 0.43216 0.39983 0.19188 0.0
H517 H 0.45945 0.4235 0.13652 0.0
H518 H 0.21234 0.8756 0.887 0.0
H519 H 0.18662 0.89386 0.8192 0.0
H520 H 0.11957 0.84677 0.8549 0.0
H521 H 0.14513 0.82856 0.92297 0.0
H522 H 0.158 0.87331 0.73734 0.0
H523 H 0.09264 0.92228 0.86918 0.0
H524 H 0.12351 0.90712 0.8872 0.0
H525 H 0.09459 0.88738 0.87427 0.0
C526 C 0.19236 0.86861 0.87959 0.0
C527 C 0.18064 0.85084 0.91049 0.0
C528 C 0.17765 0.87916 0.84103 0.0
C529 C 0.15104 0.87209 0.8328 0.0
C530 C 0.13991 0.85291 0.86137 0.0
H531 H 0.04845 0.91916 0.59062 0.0
H532 H 0.07546 0.89454 0.64855 0.0
C533 C 0.15454 0.84245 0.90005 0.0
C534 C 0.13444 0.88618 0.79676 0.0
H535 H 0.08105 0.92672 0.78626 0.0
C536 C 0.14113 0.88495 0.74791 0.0
C537 C 0.11276 0.90174 0.81092 0.0
C538 C 0.10552 0.90498 0.86327 0.0
C539 C 0.12649 0.89867 0.71265 0.0
C540 C 0.10439 0.91366 0.72667 0.0
C541 C 0.09787 0.91504 0.77558 0.0
C542 C 0.088 0.92854 0.69141 0.0
C543 C 0.13519 0.89748 0.66095 0.0
C544 C 0.08545 0.95575 0.69711 0.0
C545 C 0.0698 0.9699 0.66434 0.0
C546 C 0.05632 0.95707 0.62527 0.0
C547 C 0.05868 0.92972 0.62008 0.0
C548 C 0.07427 0.9156 0.65295 0.0
H549 H 0.15606 0.89095 0.65851 0.0
H550 H 0.12254 0.8833 0.63983 0.0
H551 H 0.13313 0.91686 0.64392 0.0
H552 H 0.09575 0.96609 0.72676 0.0
H553 H 0.06844 0.99091 0.66949 0.0
loop_
_geom_bond_atom_site_label_1
_geom_bond_atom_site_label_2
_geom_bond_distance
_geom_bond_site_symmetry_2
_ccdc_geom_bond_type
H0 C1 0.949 . S
C1 H0 0.949 . S
C1 C2 1.395 . S
C1 C3 1.391 . S
C2 C1 1.395 . S
C2 C5 1.390 . S
C3 C1 1.391 . S
C3 C7 1.387 1_554 S
C3 C8 1.491 . S
H4 C5 0.950 . S
C5 C2 1.390 . S
C5 H4 0.950 . S
C5 C6 1.378 1_554 S
C6 C5 1.378 1_556 S
C6 C7 1.409 . S
C7 C3 1.387 1_556 S
C7 C6 1.409 . S
C7 H9 0.951 . S
C8 C3 1.491 . S
C8 C10 1.382 . S
C8 C12 1.404 1_554 S
H9 C7 0.951 . S
C10 C8 1.382 . S
C10 C11 1.390 . S
C10 H15 0.949 . S
C11 C10 1.390 . S
C11 C16 1.399 1_554 S
C12 C8 1.404 1_556 S
C12 H13 0.950 . S
C12 C14 1.375 . S
H13 C12 0.950 . S
C14 C12 1.375 . S
C14 C16 1.382 . S
C14 H18 0.950 . S
H15 C10 0.949 . S
C16 C11 1.399 1_556 S
C16 C14 1.382 . S
C16 H17 0.952 . S
H17 C16 0.952 . S
H18 C14 0.950 . S
H19 C20 0.949 . S
C20 H19 0.949 . S
C20 C21 1.395 . S
C20 C22 1.391 . S
C21 C20 1.395 . S
C21 C24 1.390 . S
C22 C20 1.391 . S
C22 C26 1.387 . S
C22 C27 1.491 . S
H23 C24 0.950 . S
C24 C21 1.390 . S
C24 H23 0.950 . S
C24 C25 1.378 . S
C25 C24 1.378 . S
C25 C26 1.409 . S
C26 C22 1.387 . S
C26 C25 1.409 . S
C26 H28 0.951 . S
C27 C22 1.491 . S
C27 C29 1.382 . S
C27 C31 1.404 . S
H28 C26 0.951 . S
C29 C27 1.382 . S
C29 C30 1.390 . S
C29 H34 0.949 . S
C30 C29 1.390 . S
C30 C35 1.399 . S
C31 C27 1.404 . S
C31 H32 0.950 . S
C31 C33 1.375 . S
H32 C31 0.950 . S
C33 C31 1.375 . S
C33 C35 1.382 . S
C33 H37 0.950 . S
H34 C29 0.949 . S
C35 C30 1.399 . S
C35 C33 1.382 . S
C35 H36 0.952 . S
H36 C35 0.952 . S
H37 C33 0.950 . S
H38 C39 0.949 . S
C39 H38 0.949 . S
C39 C40 1.395 . S
C39 C41 1.391 . S
C40 C39 1.395 . S
C40 C43 1.390 . S
C41 C39 1.391 . S
C41 C45 1.387 1_554 S
C41 C46 1.491 1_554 S
H42 C43 0.950 . S
C43 C40 1.390 . S
C43 H42 0.950 . S
C43 C44 1.378 1_554 S
C44 C43 1.378 1_556 S
C44 C45 1.409 . S
C45 C41 1.387 1_556 S
C45 C44 1.409 . S
C45 H47 0.951 . S
C46 C41 1.491 1_556 S
C46 C48 1.382 1_556 S
C46 C50 1.404 . S
H47 C45 0.951 . S
C48 C46 1.382 1_554 S
C48 C49 1.390 . S
C48 H53 0.949 . S
C49 C48 1.390 . S
C49 C54 1.399 1_554 S
C50 C46 1.404 . S
C50 H51 0.950 . S
C50 C52 1.375 . S
H51 C50 0.950 . S
C52 C50 1.375 . S
C52 C54 1.382 . S
C52 H56 0.950 . S
H53 C48 0.949 . S
C54 C49 1.399 1_556 S
C54 C52 1.382 . S
C54 H55 0.952 . S
H55 C54 0.952 . S
H56 C52 0.950 . S
H57 C58 0.949 . S
C58 H57 0.949 . S
C58 C59 1.395 . S
C58 C60 1.391 . S
C59 C58 1.395 . S
C59 C62 1.390 . S
C60 C58 1.391 . S
C60 C64 1.387 . S
C60 C65 1.491 . S
H61 C62 0.950 . S
C62 C59 1.390 . S
C62 H61 0.950 . S
C62 C63 1.378 . S
C63 C62 1.378 . S
C63 C64 1.409 . S
C64 C60 1.387 . S
C64 C63 1.409 . S
C64 H66 0.951 . S
C65 C60 1.491 . S
C65 C67 1.382 . S
C65 C69 1.404 . S
H66 C64 0.951 . S
C67 C65 1.382 . S
C67 C68 1.390 . S
C67 H72 0.949 . S
C68 C67 1.390 . S
C68 C73 1.399 . S
C69 C65 1.404 . S
C69 H70 0.950 . S
C69 C71 1.375 . S
H70 C69 0.950 . S
C71 C69 1.375 . S
C71 C73 1.382 . S
C71 H75 0.950 . S
H72 C67 0.949 . S
C73 C68 1.399 . S
C73 C71 1.382 . S
C73 H74 0.952 . S
H74 C73 0.952 . S
H75 C71 0.950 . S
O76 Zn77 1.953 1_565 S
O76 C92 1.225 . S
Zn77 O76 1.953 1_545 S
Zn77 O78 1.949 1_655 S
Zn77 O84 1.919 . S
Zn77 O89 1.924 . S
O78 Zn77 1.949 1_455 S
O78 Zn79 1.923 . S
O78 Zn80 1.950 1_545 S
O78 Zn81 1.945 . S
Zn79 O78 1.923 . S
Zn79 O82 1.933 . S
Zn79 O85 1.941 1_455 S
Zn79 O86 1.965 1_545 S
Zn80 O78 1.950 1_565 S
Zn80 O87 1.938 . S
Zn80 O88 1.906 . S
Zn80 O98 1.953 1_455 S
Zn81 O78 1.945 . S
Zn81 O83 1.932 . S
Zn81 O90 1.987 . S
Zn81 O91 1.910 1_455 S
O82 Zn79 1.933 . S
O82 C93 1.226 . S
O83 Zn81 1.932 . S
O83 C93 1.307 . S
O84 Zn77 1.919 . S
O84 C95 1.253 . S
O85 Zn79 1.941 1_655 S
O85 C95 1.283 . S
O86 Zn79 1.965 1_565 S
O86 C94 1.303 . S
O87 Zn80 1.938 . S
O87 C94 1.247 . S
O88 Zn80 1.906 . S
O88 C96 1.304 . S
O89 Zn77 1.924 . S
O89 C97 1.311 . S
O90 Zn81 1.987 . S
O90 C96 1.256 1_545 S
O91 Zn81 1.910 1_655 S
O91 C97 1.231 . S
C92 O76 1.225 . S
C92 O98 1.298 . S
C93 O82 1.226 . S
C93 O83 1.307 . S
C94 O86 1.303 . S
C94 O87 1.247 . S
C95 O84 1.253 . S
C95 O85 1.283 . S
C96 O88 1.304 . S
C96 O90 1.256 1_565 S
C97 O89 1.311 . S
C97 O91 1.231 . S
O98 Zn80 1.953 1_655 S
O98 C92 1.298 . S
O99 Zn100 1.953 . S
O99 C115 1.225 . S
Zn100 O99 1.953 . S
Zn100 O101 1.949 . S
Zn100 O107 1.919 1_554 S
Zn100 O112 1.924 . S
O101 Zn100 1.949 . S
O101 Zn102 1.923 1_554 S
O101 Zn103 1.950 . S
O101 Zn104 1.945 . S
Zn102 O101 1.923 1_556 S
Zn102 O105 1.933 . S
Zn102 O108 1.941 . S
Zn102 O109 1.965 . S
Zn103 O101 1.950 . S
Zn103 O110 1.938 1_554 S
Zn103 O111 1.906 . S
Zn103 O121 1.953 . S
Zn104 O101 1.945 . S
Zn104 O106 1.932 . S
Zn104 O113 1.977 . S
Zn104 O114 1.910 . S
O105 Zn102 1.933 . S
O105 C116 1.226 1_556 S
O106 Zn104 1.932 . S
O106 C116 1.307 . S
O107 Zn100 1.919 1_556 S
O107 C118 1.253 . S
O108 Zn102 1.941 . S
O108 C118 1.283 . S
O109 Zn102 1.965 . S
O109 C117 1.303 . S
O110 Zn103 1.938 1_556 S
O110 C117 1.247 . S
O111 Zn103 1.906 . S
O111 C119 1.304 . S
O112 Zn100 1.924 . S
O112 C120 1.311 . S
O113 Zn104 1.977 . S
O113 C119 1.272 . S
O114 Zn104 1.910 . S
O114 C120 1.231 . S
C115 O99 1.225 . S
C115 O121 1.298 . S
C116 O105 1.226 1_554 S
C116 O106 1.307 . S
C117 O109 1.303 . S
C117 O110 1.247 . S
C118 O107 1.253 . S
C118 O108 1.283 . S
C119 O111 1.304 . S
C119 O113 1.272 . S
C120 O112 1.311 . S
C120 O114 1.231 . S
O121 Zn103 1.953 . S
O121 C115 1.298 . S
H122 C130 0.929 . S
H123 C132 0.930 . S
H124 C134 0.930 . S
H125 C137 0.929 . S
H126 C140 0.930 . S
H127 C142 0.960 . S
H128 C142 0.960 . S
H129 C142 0.960 . S
C130 H122 0.929 . S
C130 C131 1.377 . S
C130 C132 1.384 . S
C131 C130 1.377 . S
C131 C137 1.390 . S
C132 H123 0.930 . S
C132 C130 1.384 . S
C132 C133 1.372 . S
C133 C132 1.372 . S
C133 C134 1.400 . S
C133 C138 1.490 . S
C134 H124 0.930 . S
C134 C133 1.400 . S
C134 C137 1.386 . S
H135 C151 0.930 . S
H136 C152 0.931 . S
C137 H125 0.929 . S
C137 C131 1.390 . S
C137 C134 1.386 . S
C138 C133 1.490 . S
C138 C140 1.395 . S
C138 C141 1.403 . S
H139 C145 0.930 . S
C140 H126 0.930 . S
C140 C138 1.395 . S
C140 C143 1.403 . S
C141 C138 1.403 . S
C141 C142 1.524 . S
C141 C145 1.400 . S
C142 H127 0.960 . S
C142 H128 0.960 . S
C142 H129 0.960 . S
C142 C141 1.524 . S
C143 C140 1.403 . S
C143 C144 1.392 . S
C143 C147 1.495 . S
C144 C143 1.392 . S
C144 C145 1.385 . S
C144 C146 1.478 . S
C145 H139 0.930 . S
C145 C141 1.400 . S
C145 C144 1.385 . S
C146 C144 1.478 . S
C146 C148 1.381 . S
C146 C152 1.383 . S
C147 C143 1.495 . S
C147 H153 0.959 . S
C147 H154 0.961 . S
C147 H155 0.960 . S
C148 C146 1.381 . S
C148 C149 1.394 . S
C148 H156 0.930 . S
C149 C148 1.394 . S
C149 C150 1.383 . S
C149 H157 0.929 . S
C150 C149 1.383 . S
C150 C151 1.377 . S
C151 H135 0.930 . S
C151 C150 1.377 . S
C151 C152 1.379 . S
C152 H136 0.931 . S
C152 C146 1.383 . S
C152 C151 1.379 . S
H153 C147 0.959 . S
H154 C147 0.961 . S
H155 C147 0.960 . S
H156 C148 0.930 . S
H157 C149 0.929 . S
H158 C166 0.929 . S
H159 C168 0.930 . S
H160 C170 0.930 . S
H161 C173 0.929 . S
H162 C176 0.930 . S
H163 C178 0.960 . S
H164 C178 0.960 . S
H165 C178 0.960 . S
C166 H158 0.929 . S
C166 C167 1.377 1_556 S
C166 C168 1.384 . S
C167 C166 1.377 1_554 S
C167 C173 1.390 . S
C168 H159 0.930 . S
C168 C166 1.384 . S
C168 C169 1.372 1_556 S
C169 C168 1.372 1_554 S
C169 C170 1.400 . S
C169 C174 1.490 . S
C170 H160 0.930 . S
C170 C169 1.400 . S
C170 C173 1.386 . S
H171 C187 0.930 . S
H172 C188 0.931 . S
C173 H161 0.929 . S
C173 C167 1.390 . S
C173 C170 1.386 . S
C174 C169 1.490 . S
C174 C176 1.395 . S
C174 C177 1.403 . S
H175 C181 0.930 . S
C176 H162 0.930 . S
C176 C174 1.395 . S
C176 C179 1.403 . S
C177 C174 1.403 . S
C177 C178 1.524 . S
C177 C181 1.400 . S
C178 H163 0.960 . S
C178 H164 0.960 . S
C178 H165 0.960 . S
C178 C177 1.524 . S
C179 C176 1.403 . S
C179 C180 1.392 . S
C179 C183 1.495 . S
C180 C179 1.392 . S
C180 C181 1.385 . S
C180 C182 1.478 . S
C181 H175 0.930 . S
C181 C177 1.400 . S
C181 C180 1.385 . S
C182 C180 1.478 . S
C182 C184 1.381 1_554 S
C182 C188 1.383 . S
C183 C179 1.495 . S
C183 H189 0.959 . S
C183 H190 0.961 . S
C183 H191 0.960 . S
C184 C182 1.381 1_556 S
C184 C185 1.394 . S
C184 H192 0.930 . S
C185 C184 1.394 . S
C185 C186 1.383 1_556 S
C185 H193 0.929 . S
C186 C185 1.383 1_554 S
C186 C187 1.377 . S
C187 H171 0.930 . S
C187 C186 1.377 . S
C187 C188 1.379 . S
C188 H172 0.931 . S
C188 C182 1.383 . S
C188 C187 1.379 . S
H189 C183 0.959 . S
H190 C183 0.961 . S
H191 C183 0.960 . S
H192 C184 0.930 . S
H193 C185 0.929 . S
H194 C202 0.929 . S
H195 C204 0.930 . S
H196 C206 0.930 . S
H197 C209 0.929 . S
H198 C212 0.930 . S
H199 C214 0.960 . S
H200 C214 0.960 . S
H201 C214 0.960 . S
C202 H194 0.929 . S
C202 C203 1.377 . S
C202 C204 1.384 . S
C203 C202 1.377 . S
C203 C209 1.390 . S
C204 H195 0.930 . S
C204 C202 1.384 . S
C204 C205 1.372 . S
C205 C204 1.372 . S
C205 C206 1.400 . S
C205 C210 1.490 . S
C206 H196 0.930 . S
C206 C205 1.400 . S
C206 C209 1.386 . S
H207 C223 0.930 . S
H208 C224 0.931 . S
C209 H197 0.929 . S
C209 C203 1.390 . S
C209 C206 1.386 . S
C210 C205 1.490 . S
C210 C212 1.395 . S
C210 C213 1.403 . S
H211 C217 0.930 . S
C212 H198 0.930 . S
C212 C210 1.395 . S
C212 C215 1.403 . S
C213 C210 1.403 . S
C213 C214 1.524 . S
C213 C217 1.400 . S
C214 H199 0.960 . S
C214 H200 0.960 . S
C214 H201 0.960 . S
C214 C213 1.524 . S
C215 C212 1.403 . S
C215 C216 1.392 . S
C215 C219 1.495 . S
C216 C215 1.392 . S
C216 C217 1.385 . S
C216 C218 1.478 . S
C217 H211 0.930 . S
C217 C213 1.400 . S
C217 C216 1.385 . S
C218 C216 1.478 . S
C218 C220 1.381 . S
C218 C224 1.383 . S
C219 C215 1.495 . S
C219 H225 0.959 . S
C219 H226 0.961 . S
C219 H227 0.960 . S
C220 C218 1.381 . S
C220 C221 1.394 . S
C220 H228 0.930 . S
C221 C220 1.394 . S
C221 C222 1.383 . S
C221 H229 0.929 . S
C222 C221 1.383 . S
C222 C223 1.377 . S
C223 H207 0.930 . S
C223 C222 1.377 . S
C223 C224 1.379 . S
C224 H208 0.931 . S
C224 C218 1.383 . S
C224 C223 1.379 . S
H225 C219 0.959 . S
H226 C219 0.961 . S
H227 C219 0.960 . S
H228 C220 0.930 . S
H229 C221 0.929 . S
H230 C238 0.929 1_556 S
H231 C240 0.930 1_556 S
H232 C242 0.930 . S
H233 C245 0.929 . S
H234 C248 0.930 . S
H235 C250 0.960 . S
H236 C250 0.960 . S
H237 C250 0.960 . S
C238 H230 0.929 1_554 S
C238 C239 1.377 . S
C238 C240 1.384 . S
C239 C238 1.377 . S
C239 C245 1.390 . S
C240 H231 0.930 1_554 S
C240 C238 1.384 . S
C240 C241 1.372 . S
C241 C240 1.372 . S
C241 C242 1.400 . S
C241 C246 1.490 . S
C242 H232 0.930 . S
C242 C241 1.400 . S
C242 C245 1.386 . S
H243 C259 0.930 . S
H244 C260 0.931 . S
C245 H233 0.929 . S
C245 C239 1.390 . S
C245 C242 1.386 . S
C246 C241 1.490 . S
C246 C248 1.395 1_554 S
C246 C249 1.403 . S
H247 C253 0.930 . S
C248 H234 0.930 . S
C248 C246 1.395 1_556 S
C248 C251 1.403 . S
C249 C246 1.403 . S
C249 C250 1.524 . S
C249 C253 1.400 . S
C250 H235 0.960 . S
C250 H236 0.960 . S
C250 H237 0.960 . S
C250 C249 1.524 . S
C251 C248 1.403 . S
C251 C252 1.392 1_556 S
C251 C255 1.495 . S
C252 C251 1.392 1_554 S
C252 C253 1.385 . S
C252 C254 1.478 . S
C253 H247 0.930 . S
C253 C249 1.400 . S
C253 C252 1.385 . S
C254 C252 1.478 . S
C254 C256 1.381 . S
C254 C260 1.383 . S
C255 C251 1.495 . S
C255 H261 0.959 . S
C255 H262 0.961 . S
C255 H263 0.960 . S
C256 C254 1.381 . S
C256 C257 1.394 . S
C256 H264 0.930 1_554 S
C257 C256 1.394 . S
C257 C258 1.383 . S
C257 H265 0.929 1_554 S
C258 C257 1.383 . S
C258 C259 1.377 . S
C259 H243 0.930 . S
C259 C258 1.377 . S
C259 C260 1.379 . S
C260 H244 0.931 . S
C260 C254 1.383 . S
C260 C259 1.379 . S
H261 C255 0.959 . S
H262 C255 0.961 . S
H263 C255 0.960 . S
H264 C256 0.930 1_556 S
H265 C257 0.929 1_556 S
H266 C274 0.929 . S
H267 C276 0.930 . S
H268 C278 0.930 . S
H269 C281 0.929 . S
H270 C284 0.930 . S
H271 C286 0.960 . S
H272 C286 0.960 . S
H273 C286 0.960 . S
C274 H266 0.929 . S
C274 C275 1.377 . S
C274 C276 1.384 . S
C275 C274 1.377 . S
C275 C281 1.390 . S
C276 H267 0.930 . S
C276 C274 1.384 . S
C276 C277 1.372 . S
C277 C276 1.372 . S
C277 C278 1.400 . S
C277 C282 1.490 . S
C278 H268 0.930 . S
C278 C277 1.400 . S
C278 C281 1.386 . S
H279 C295 0.930 . S
H280 C296 0.931 . S
C281 H269 0.929 . S
C281 C275 1.390 . S
C281 C278 1.386 . S
C282 C277 1.490 . S
C282 C284 1.395 . S
C282 C285 1.403 . S
H283 C289 0.930 . S
C284 H270 0.930 . S
C284 C282 1.395 . S
C284 C287 1.403 . S
C285 C282 1.403 . S
C285 C286 1.524 . S
C285 C289 1.400 . S
C286 H271 0.960 . S
C286 H272 0.960 . S
C286 H273 0.960 . S
C286 C285 1.524 . S
C287 C284 1.403 . S
C287 C288 1.392 . S
C287 C291 1.495 . S
C288 C287 1.392 . S
C288 C289 1.385 . S
C288 C290 1.478 . S
C289 H283 0.930 . S
C289 C285 1.400 . S
C289 C288 1.385 . S
C290 C288 1.478 . S
C290 C292 1.381 . S
C290 C296 1.383 . S
C291 C287 1.495 . S
C291 H297 0.959 . S
C291 H298 0.961 . S
C291 H299 0.960 . S
C292 C290 1.381 . S
C292 C293 1.394 . S
C292 H300 0.930 . S
C293 C292 1.394 . S
C293 C294 1.383 . S
C293 H301 0.929 . S
C294 C293 1.383 . S
C294 C295 1.377 . S
C295 H279 0.930 . S
C295 C294 1.377 . S
C295 C296 1.379 . S
C296 H280 0.931 . S
C296 C290 1.383 . S
C296 C295 1.379 . S
H297 C291 0.959 . S
H298 C291 0.961 . S
H299 C291 0.960 . S
H300 C292 0.930 . S
H301 C293 0.929 . S
H302 C310 0.929 . S
H303 C312 0.930 . S
H304 C314 0.930 . S
H305 C317 0.929 . S
H306 C320 0.930 . S
H307 C322 0.960 . S
H308 C322 0.960 . S
H309 C322 0.960 . S
C310 H302 0.929 . S
C310 C311 1.377 . S
C310 C312 1.384 . S
C311 C310 1.377 . S
C311 C317 1.390 . S
C312 H303 0.930 . S
C312 C310 1.384 . S
C312 C313 1.372 . S
C313 C312 1.372 . S
C313 C314 1.400 . S
C313 C318 1.490 . S
C314 H304 0.930 . S
C314 C313 1.400 . S
C314 C317 1.386 . S
H315 C331 0.930 . S
H316 C332 0.931 . S
C317 H305 0.929 . S
C317 C311 1.390 . S
C317 C314 1.386 . S
C318 C313 1.490 . S
C318 C320 1.395 . S
C318 C321 1.403 . S
H319 C325 0.930 . S
C320 H306 0.930 . S
C320 C318 1.395 . S
C320 C323 1.403 . S
C321 C318 1.403 . S
C321 C322 1.524 . S
C321 C325 1.400 . S
C322 H307 0.960 . S
C322 H308 0.960 . S
C322 H309 0.960 . S
C322 C321 1.524 . S
C323 C320 1.403 . S
C323 C324 1.392 . S
C323 C327 1.495 . S
C324 C323 1.392 . S
C324 C325 1.385 . S
C324 C326 1.478 . S
C325 H319 0.930 . S
C325 C321 1.400 . S
C325 C324 1.385 . S
C326 C324 1.478 . S
C326 C328 1.381 . S
C326 C332 1.383 . S
C327 C323 1.495 . S
C327 H333 0.959 . S
C327 H334 0.961 . S
C327 H335 0.960 . S
C328 C326 1.381 . S
C328 C329 1.394 . S
C328 H336 0.930 . S
C329 C328 1.394 . S
C329 C330 1.383 . S
C329 H337 0.929 . S
C330 C329 1.383 . S
C330 C331 1.377 . S
C331 H315 0.930 . S
C331 C330 1.377 . S
C331 C332 1.379 . S
C332 H316 0.931 . S
C332 C326 1.383 . S
C332 C331 1.379 . S
H333 C327 0.959 . S
H334 C327 0.961 . S
H335 C327 0.960 . S
H336 C328 0.930 . S
H337 C329 0.929 . S
H338 C346 0.929 . S
H339 C348 0.930 . S
H340 C350 0.930 . S
H341 C353 0.929 . S
H342 C356 0.930 . S
H343 C358 0.960 . S
H344 C358 0.960 . S
H345 C358 0.960 . S
C346 H338 0.929 . S
C346 C347 1.377 . S
C346 C348 1.384 . S
C347 C346 1.377 . S
C347 C353 1.390 . S
C348 H339 0.930 . S
C348 C346 1.384 . S
C348 C349 1.372 . S
C349 C348 1.372 . S
C349 C350 1.400 . S
C349 C354 1.490 . S
C350 H340 0.930 . S
C350 C349 1.400 . S
C350 C353 1.386 . S
H351 C367 0.930 . S
H352 C368 0.931 . S
C353 H341 0.929 . S
C353 C347 1.390 . S
C353 C350 1.386 . S
C354 C349 1.490 . S
C354 C356 1.395 . S
C354 C357 1.403 . S
H355 C361 0.930 . S
C356 H342 0.930 . S
C356 C354 1.395 . S
C356 C359 1.403 . S
C357 C354 1.403 . S
C357 C358 1.524 . S
C357 C361 1.400 . S
C358 H343 0.960 . S
C358 H344 0.960 . S
C358 H345 0.960 . S
C358 C357 1.524 . S
C359 C356 1.403 . S
C359 C360 1.392 . S
C359 C363 1.495 . S
C360 C359 1.392 . S
C360 C361 1.385 . S
C360 C362 1.478 . S
C361 H355 0.930 . S
C361 C357 1.400 . S
C361 C360 1.385 . S
C362 C360 1.478 . S
C362 C364 1.381 . S
C362 C368 1.383 . S
C363 C359 1.495 . S
C363 H369 0.959 . S
C363 H370 0.961 . S
C363 H371 0.960 . S
C364 C362 1.381 . S
C364 C365 1.394 . S
C364 H372 0.930 . S
C365 C364 1.394 . S
C365 C366 1.383 . S
C365 H373 0.929 . S
C366 C365 1.383 . S
C366 C367 1.377 . S
C367 H351 0.930 . S
C367 C366 1.377 . S
C367 C368 1.379 . S
C368 H352 0.931 . S
C368 C362 1.383 . S
C368 C367 1.379 . S
H369 C363 0.959 . S
H370 C363 0.961 . S
H371 C363 0.960 . S
H372 C364 0.930 . S
H373 C365 0.929 . S
H374 C382 0.929 . S
H375 C384 0.930 . S
H376 C386 0.930 . S
H377 C389 0.929 . S
H378 C392 0.930 . S
H379 C394 0.960 . S
H380 C394 0.960 . S
H381 C394 0.960 . S
C382 H374 0.929 . S
C382 C383 1.377 . S
C382 C384 1.384 . S
C383 C382 1.377 . S
C383 C389 1.390 . S
C384 H375 0.930 . S
C384 C382 1.384 . S
C384 C385 1.372 . S
C385 C384 1.372 . S
C385 C386 1.400 . S
C385 C390 1.490 . S
C386 H376 0.930 . S
C386 C385 1.400 . S
C386 C389 1.386 . S
H387 C403 0.930 . S
H388 C404 0.931 . S
C389 H377 0.929 . S
C389 C383 1.390 . S
C389 C386 1.386 . S
C390 C385 1.490 . S
C390 C392 1.395 . S
C390 C393 1.403 . S
H391 C397 0.930 . S
C392 H378 0.930 . S
C392 C390 1.395 . S
C392 C395 1.403 . S
C393 C390 1.403 . S
C393 C394 1.524 . S
C393 C397 1.400 . S
C394 H379 0.960 . S
C394 H380 0.960 . S
C394 H381 0.960 . S
C394 C393 1.524 . S
C395 C392 1.403 . S
C395 C396 1.392 . S
C395 C399 1.495 . S
C396 C395 1.392 . S
C396 C397 1.385 . S
C396 C398 1.478 . S
C397 H391 0.930 . S
C397 C393 1.400 . S
C397 C396 1.385 . S
C398 C396 1.478 . S
C398 C400 1.381 . S
C398 C404 1.383 . S
C399 C395 1.495 . S
C399 H405 0.959 . S
C399 H406 0.961 . S
C399 H407 0.960 . S
C400 C398 1.381 . S
C400 C401 1.394 . S
C400 H408 0.930 . S
C401 C400 1.394 . S
C401 C402 1.383 . S
C401 H409 0.929 . S
C402 C401 1.383 . S
C402 C403 1.377 . S
C403 H387 0.930 . S
C403 C402 1.377 . S
C403 C404 1.379 . S
C404 H388 0.931 . S
C404 C398 1.383 . S
C404 C403 1.379 . S
H405 C399 0.959 . S
H406 C399 0.961 . S
H407 C399 0.960 . S
H408 C400 0.930 . S
H409 C401 0.929 . S
H410 C418 0.929 . S
H411 C420 0.930 . S
H412 C422 0.930 . S
H413 C425 0.929 . S
H414 C428 0.930 . S
H415 C430 0.960 . S
H416 C430 0.960 . S
H417 C430 0.960 . S
C418 H410 0.929 . S
C418 C419 1.377 . S
C418 C420 1.384 . S
C419 C418 1.377 . S
C419 C425 1.390 . S
C420 H411 0.930 . S
C420 C418 1.384 . S
C420 C421 1.372 . S
C421 C420 1.372 . S
C421 C422 1.400 . S
C421 C426 1.490 . S
C422 H412 0.930 . S
C422 C421 1.400 . S
C422 C425 1.386 . S
H423 C439 0.930 . S
H424 C440 0.931 . S
C425 H413 0.929 . S
C425 C419 1.390 . S
C425 C422 1.386 . S
C426 C421 1.490 . S
C426 C428 1.395 . S
C426 C429 1.403 . S
H427 C433 0.930 . S
C428 H414 0.930 . S
C428 C426 1.395 . S
C428 C431 1.403 . S
C429 C426 1.403 . S
C429 C430 1.524 . S
C429 C433 1.400 . S
C430 H415 0.960 . S
C430 H416 0.960 . S
C430 H417 0.960 . S
C430 C429 1.524 . S
C431 C428 1.403 . S
C431 C432 1.392 . S
C431 C435 1.495 . S
C432 C431 1.392 . S
C432 C433 1.385 . S
C432 C434 1.478 . S
C433 H427 0.930 . S
C433 C429 1.400 . S
C433 C432 1.385 . S
C434 C432 1.478 . S
C434 C436 1.381 . S
C434 C440 1.383 . S
C435 C431 1.495 . S
C435 H441 0.959 . S
C435 H442 0.961 . S
C435 H443 0.960 . S
C436 C434 1.381 . S
C436 C437 1.394 . S
C436 H444 0.930 . S
C437 C436 1.394 . S
C437 C438 1.383 . S
C437 H445 0.929 . S
C438 C437 1.383 . S
C438 C439 1.377 . S
C439 H423 0.930 . S
C439 C438 1.377 . S
C439 C440 1.379 . S
C440 H424 0.931 . S
C440 C434 1.383 . S
C440 C439 1.379 . S
H441 C435 0.959 . S
H442 C435 0.961 . S
H443 C435 0.960 . S
H444 C436 0.930 . S
H445 C437 0.929 . S
H446 C454 0.929 . S
H447 C456 0.930 . S
H448 C458 0.930 . S
H449 C461 0.929 . S
H450 C464 0.930 . S
H451 C466 0.960 . S
H452 C466 0.960 . S
H453 C466 0.960 . S
C454 H446 0.929 . S
C454 C455 1.377 . S
C454 C456 1.384 . S
C455 C454 1.377 . S
C455 C461 1.390 . S
C456 H447 0.930 . S
C456 C454 1.384 . S
C456 C457 1.372 . S
C457 C456 1.372 . S
C457 C458 1.400 . S
C457 C462 1.490 . S
C458 H448 0.930 . S
C458 C457 1.400 . S
C458 C461 1.386 . S
H459 C475 0.930 . S
H460 C476 0.931 . S
C461 H449 0.929 . S
C461 C455 1.390 . S
C461 C458 1.386 . S
C462 C457 1.490 . S
C462 C464 1.395 . S
C462 C465 1.403 . S
H463 C469 0.930 . S
C464 H450 0.930 . S
C464 C462 1.395 . S
C464 C467 1.403 . S
C465 C462 1.403 . S
C465 C466 1.524 . S
C465 C469 1.400 . S
C466 H451 0.960 . S
C466 H452 0.960 . S
C466 H453 0.960 . S
C466 C465 1.524 . S
C467 C464 1.403 . S
C467 C468 1.392 . S
C467 C471 1.495 . S
C468 C467 1.392 . S
C468 C469 1.385 . S
C468 C470 1.478 . S
C469 H463 0.930 . S
C469 C465 1.400 . S
C469 C468 1.385 . S
C470 C468 1.478 . S
C470 C472 1.381 . S
C470 C476 1.383 . S
C471 C467 1.495 . S
C471 H477 0.959 . S
C471 H478 0.961 . S
C471 H479 0.960 . S
C472 C470 1.381 . S
C472 C473 1.394 . S
C472 H480 0.930 . S
C473 C472 1.394 . S
C473 C474 1.383 . S
C473 H481 0.929 . S
C474 C473 1.383 . S
C474 C475 1.377 . S
C475 H459 0.930 . S
C475 C474 1.377 . S
C475 C476 1.379 . S
C476 H460 0.931 . S
C476 C470 1.383 . S
C476 C475 1.379 . S
H477 C471 0.959 . S
H478 C471 0.961 . S
H479 C471 0.960 . S
H480 C472 0.930 . S
H481 C473 0.929 . S
H482 C490 0.929 . S
H483 C492 0.930 . S
H484 C494 0.930 . S
H485 C497 0.929 . S
H486 C500 0.930 . S
H487 C502 0.960 . S
H488 C502 0.960 . S
H489 C502 0.960 . S
C490 H482 0.929 . S
C490 C491 1.377 . S
C490 C492 1.384 . S
C491 C490 1.377 . S
C491 C497 1.390 . S
C492 H483 0.930 . S
C492 C490 1.384 . S
C492 C493 1.372 . S
C493 C492 1.372 . S
C493 C494 1.400 . S
C493 C498 1.490 . S
C494 H484 0.930 . S
C494 C493 1.400 . S
C494 C497 1.386 . S
H495 C511 0.930 . S
H496 C512 0.931 . S
C497 H485 0.929 . S
C497 C491 1.390 . S
C497 C494 1.386 . S
C498 C493 1.490 . S
C498 C500 1.395 . S
C498 C501 1.403 . S
H499 C505 0.930 . S
C500 H486 0.930 . S
C500 C498 1.395 . S
C500 C503 1.403 . S
C501 C498 1.403 . S
C501 C502 1.524 . S
C501 C505 1.400 . S
C502 H487 0.960 . S
C502 H488 0.960 . S
C502 H489 0.960 . S
C502 C501 1.524 . S
C503 C500 1.403 . S
C503 C504 1.392 . S
C503 C507 1.495 . S
C504 C503 1.392 . S
C504 C505 1.385 . S
C504 C506 1.478 . S
C505 H499 0.930 . S
C505 C501 1.400 . S
C505 C504 1.385 . S
C506 C504 1.478 . S
C506 C508 1.381 . S
C506 C512 1.383 . S
C507 C503 1.495 . S
C507 H513 0.959 . S
C507 H514 0.961 . S
C507 H515 0.960 . S
C508 C506 1.381 . S
C508 C509 1.394 . S
C508 H516 0.930 . S
C509 C508 1.394 . S
C509 C510 1.383 . S
C509 H517 0.929 . S
C510 C509 1.383 . S
C510 C511 1.377 . S
C511 H495 0.930 . S
C511 C510 1.377 . S
C511 C512 1.379 . S
C512 H496 0.931 . S
C512 C506 1.383 . S
C512 C511 1.379 . S
H513 C507 0.959 . S
H514 C507 0.961 . S
H515 C507 0.960 . S
H516 C508 0.930 . S
H517 C509 0.929 . S
H518 C526 0.929 . S
H519 C528 0.930 . S
H520 C530 0.930 . S
H521 C533 0.929 . S
H522 C536 0.930 . S
H523 C538 0.960 . S
H524 C538 0.960 . S
H525 C538 0.960 . S
C526 H518 0.929 . S
C526 C527 1.377 . S
C526 C528 1.384 . S
C527 C526 1.377 . S
C527 C533 1.390 . S
C528 H519 0.930 . S
C528 C526 1.384 . S
C528 C529 1.372 . S
C529 C528 1.372 . S
C529 C530 1.400 . S
C529 C534 1.490 . S
C530 H520 0.930 . S
C530 C529 1.400 . S
C530 C533 1.386 . S
H531 C547 0.930 . S
H532 C548 0.931 . S
C533 H521 0.929 . S
C533 C527 1.390 . S
C533 C530 1.386 . S
C534 C529 1.490 . S
C534 C536 1.395 . S
C534 C537 1.403 . S
H535 C541 0.930 . S
C536 H522 0.930 . S
C536 C534 1.395 . S
C536 C539 1.403 . S
C537 C534 1.403 . S
C537 C538 1.524 . S
C537 C541 1.400 . S
C538 H523 0.960 . S
C538 H524 0.960 . S
C538 H525 0.960 . S
C538 C537 1.524 . S
C539 C536 1.403 . S
C539 C540 1.392 . S
C539 C543 1.495 . S
C540 C539 1.392 . S
C540 C541 1.385 . S
C540 C542 1.478 . S
C541 H535 0.930 . S
C541 C537 1.400 . S
C541 C540 1.385 . S
C542 C540 1.478 . S
C542 C544 1.381 . S
C542 C548 1.383 . S
C543 C539 1.495 . S
C543 H549 0.959 . S
C543 H550 0.961 . S
C543 H551 0.960 . S
C544 C542 1.381 . S
C544 C545 1.394 . S
C544 H552 0.930 . S
C545 C544 1.394 . S
C545 C546 1.383 . S
C545 H553 0.929 . S
C546 C545 1.383 . S
C546 C547 1.377 . S
C547 H531 0.930 . S
C547 C546 1.377 . S
C547 C548 1.379 . S
C548 H532 0.931 . S
C548 C542 1.383 . S
C548 C547 1.379 . S
H549 C543 0.959 . S
H550 C543 0.961 . S
H551 C543 0.960 . S
H552 C544 0.930 . S
H553 C545 0.929 . S
C150 C93 1.531 . S
C131 C68 1.408 . S
C167 C11 1.411 . S
C186 C116 1.542 . S
C203 C30 1.453 . S
C222 C92 1.579 . S
C239 C49 1.456 . S
C258 C115 1.574 . S
C294 C96 1.509 . S
C275 C2 1.514 . S
C330 C118 1.546 . S
C311 C25 1.596 . S
C347 C40 1.533 . S
C366 C97 1.496 . S
C383 C59 1.548 . S
C402 C117 1.509 . S
C438 C120 1.412 . S
C419 C21 1.420 . S
C474 C95 1.459 . S
C455 C44 1.487 . S
C510 C119 1.414 . S
C491 C63 1.444 . S
C527 C6 1.466 . S
C546 C94 1.389 . S
