# Generated by pormake.
# Topology zzz, (3,6)-cn, num edge types: 1
# Building blocks:
#     Node 0, Type 0, BuildingBlock: ESEHIV_clean_linker_0, # of connection points: 3
#     Node 1, Type 0, BuildingBlock: ESEHIV_clean_linker_0, # of connection points: 3
#     Node 2, Type 0, BuildingBlock: ESEHIV_clean_linker_0, # of connection points: 3
#     Node 3, Type 0, BuildingBlock: ESEHIV_clean_linker_0, # of connection points: 3
#     Node 4, Type 0, BuildingBlock: ESEHIV_clean_linker_0, # of connection points: 3
#     Node 5, Type 0, BuildingBlock: ESEHIV_clean_linker_0, # of connection points: 3
#     Node 6, Type 0, BuildingBlock: ESEHIV_clean_linker_0, # of connection points: 3
#     Node 7, Type 0, BuildingBlock: ESEHIV_clean_linker_0, # of connection points: 3
#     Node 8, Type 1, BuildingBlock: CIFDUS_clean_sbu_1, # of connection points: 6
#     Node 9, Type 1, BuildingBlock: CIFDUS_clean_sbu_1, # of connection points: 6
#     Node 10, Type 1, BuildingBlock: CIFDUS_clean_sbu_1, # of connection points: 6
#     Node 11, Type 1, BuildingBlock: CIFDUS_clean_sbu_1, # of connection points: 6
#     Edge 12, Type (0, 1), BuildingBlock: TEMPAE_clean_linker_10, # of connection points: 2
#     Edge 13, Type (0, 1), BuildingBlock: TEMPAE_clean_linker_10, # of connection points: 2
#     Edge 14, Type (0, 1), BuildingBlock: TEMPAE_clean_linker_10, # of connection points: 2
#     Edge 15, Type (0, 1), BuildingBlock: TEMPAE_clean_linker_10, # of connection points: 2
#     Edge 16, Type (0, 1), BuildingBlock: TEMPAE_clean_linker_10, # of connection points: 2
#     Edge 17, Type (0, 1), BuildingBlock: TEMPAE_clean_linker_10, # of connection points: 2
#     Edge 18, Type (0, 1), BuildingBlock: TEMPAE_clean_linker_10, # of connection points: 2
#     Edge 19, Type (0, 1), BuildingBlock: TEMPAE_clean_linker_10, # of connection points: 2
#     Edge 20, Type (0, 1), BuildingBlock: TEMPAE_clean_linker_10, # of connection points: 2
#     Edge 21, Type (0, 1), BuildingBlock: TEMPAE_clean_linker_10, # of connection points: 2
#     Edge 22, Type (0, 1), BuildingBlock: TEMPAE_clean_linker_10, # of connection points: 2
#     Edge 23, Type (0, 1), BuildingBlock: TEMPAE_clean_linker_10, # of connection points: 2
#     Edge 24, Type (0, 1), BuildingBlock: TEMPAE_clean_linker_10, # of connection points: 2
#     Edge 25, Type (0, 1), BuildingBlock: TEMPAE_clean_linker_10, # of connection points: 2
#     Edge 26, Type (0, 1), BuildingBlock: TEMPAE_clean_linker_10, # of connection points: 2
#     Edge 27, Type (0, 1), BuildingBlock: TEMPAE_clean_linker_10, # of connection points: 2
#     Edge 28, Type (0, 1), BuildingBlock: TEMPAE_clean_linker_10, # of connection points: 2
#     Edge 29, Type (0, 1), BuildingBlock: TEMPAE_clean_linker_10, # of connection points: 2
#     Edge 30, Type (0, 1), BuildingBlock: TEMPAE_clean_linker_10, # of connection points: 2
#     Edge 31, Type (0, 1), BuildingBlock: TEMPAE_clean_linker_10, # of connection points: 2
#     Edge 32, Type (0, 1), BuildingBlock: TEMPAE_clean_linker_10, # of connection points: 2
#     Edge 33, Type (0, 1), BuildingBlock: TEMPAE_clean_linker_10, # of connection points: 2
#     Edge 34, Type (0, 1), BuildingBlock: TEMPAE_clean_linker_10, # of connection points: 2
#     Edge 35, Type (0, 1), BuildingBlock: TEMPAE_clean_linker_10, # of connection points: 2
# Relax obj value: 0.309
# Max RMSD: 0.221
# Mean RMSD: 0.206
data_MOF--net-zzz--node1-CIFDUS_clean_sbu_1--node2-ESEHIV_clean_linker_0--edge1-TEMPAE_clean_linker_10
_symmetry_space_group_name_H-M    P1
_symmetry_Int_Tables_number       1
_symmetry_cell_setting            triclinic
loop_
_symmetry_equiv_pos_as_xyz
'x, y, z'
_cell_length_a     42.451034
_cell_length_b     45.492336
_cell_length_c     16.391147
_cell_angle_alpha  90.091672
_cell_angle_beta   89.83922
_cell_angle_gamma 88.476483
loop_
_atom_site_label
_atom_site_type_symbol
_atom_site_fract_x
_atom_site_fract_y
_atom_site_fract_z
_atom_type_partial_charge
H0 H 0.82667 0.61937 0.14993 0.0
H1 H 0.74076 0.62333 0.02033 0.0
H2 H 0.74319 0.58473 0.26019 0.0
C3 C 0.80123 0.61787 0.15239 0.0
C4 C 0.78709 0.60406 0.21938 0.0
C5 C 0.78499 0.62222 0.07944 0.0
C6 C 0.75248 0.62007 0.07854 0.0
C7 C 0.73689 0.60568 0.14195 0.0
C8 C 0.75452 0.59709 0.21255 0.0
H9 H 0.99062 0.81073 0.21286 0.0
H10 H 0.98712 0.74103 0.03938 0.0
H11 H 0.00627 0.72144 0.29342 0.0
C12 C 0.99146 0.78727 0.20008 0.0
C13 C 0.99901 0.76784 0.26291 0.0
C14 C 0.98764 0.77772 0.12038 0.0
C15 C 0.98965 0.74799 0.10239 0.0
C16 C 0.99526 0.72716 0.16396 0.0
C17 C 1.00077 0.73707 0.2455 0.0
H18 H 0.68237 0.87465 0.16246 0.0
H19 H 0.76344 0.87696 0.0139 0.0
H20 H 0.76438 0.91959 0.24792 0.0
C21 C 0.70737 0.87866 0.15941 0.0
C22 C 0.72168 0.89531 0.22132 0.0
C23 C 0.72076 0.87702 0.08152 0.0
C24 C 0.75305 0.88018 0.07398 0.0
C25 C 0.76872 0.89739 0.1311 0.0
C26 C 0.753 0.90504 0.20562 0.0
H27 H 0.51774 0.69147 0.18445 0.0
H28 H 0.50317 0.77515 0.30469 0.0
H29 H 0.50416 0.76874 0.04088 0.0
C30 C 0.51476 0.71529 0.182 0.0
C31 C 0.51162 0.72875 0.10661 0.0
C32 C 0.51007 0.73109 0.25386 0.0
C33 C 0.50603 0.76222 0.24955 0.0
C34 C 0.50514 0.77608 0.17147 0.0
C35 C 0.50663 0.75878 0.10079 0.0
H36 H 0.1888 0.3695 0.27642 0.0
H37 H 0.27029 0.37164 0.4245 0.0
H38 H 0.26098 0.43153 0.22235 0.0
C39 C 0.21163 0.37858 0.2882 0.0
C40 C 0.22211 0.40166 0.23907 0.0
C41 C 0.22607 0.37287 0.36345 0.0
C42 C 0.25804 0.37853 0.3694 0.0
C43 C 0.2711 0.40026 0.32 0.0
C44 C 0.25244 0.41291 0.25612 0.0
H45 H 0.97847 0.19702 0.22865 0.0
H46 H 0.97913 0.26836 0.39559 0.0
H47 H 0.04883 0.2629 0.20319 0.0
C48 C 0.9871 0.21858 0.24438 0.0
C49 C 0.01283 0.22953 0.20149 0.0
C50 C 0.97791 0.23094 0.31866 0.0
C51 C 0.98776 0.25879 0.33876 0.0
C52 C 0.01443 0.27024 0.3008 0.0
C53 C 0.0273 0.25544 0.23094 0.0
H54 H 0.32756 0.12678 0.24636 0.0
H55 H 0.25915 0.12913 0.43281 0.0
H56 H 0.23679 0.09111 0.1991 0.0
C57 C 0.3029 0.12492 0.26315 0.0
C58 C 0.28295 0.1099 0.21078 0.0
C59 C 0.29512 0.12734 0.34514 0.0
C60 C 0.26361 0.12655 0.36814 0.0
C61 C 0.24123 0.11328 0.31736 0.0
C62 C 0.25182 0.10377 0.23812 0.0
H63 H 0.50092 0.31387 0.27862 0.0
H64 H 0.49893 0.22886 0.16137 0.0
H65 H 0.52212 0.23752 0.41802 0.0
C66 C 0.50239 0.29001 0.28082 0.0
C67 C 0.51164 0.277 0.35366 0.0
C68 C 0.49786 0.27358 0.21005 0.0
C69 C 0.5021 0.24236 0.21501 0.0
C70 C 0.51062 0.229 0.29125 0.0
C71 C 0.51521 0.24691 0.3597 0.0
O72 O 0.01314 0.04022 0.79556 0.0
Mn73 Mn 0.00684 0.0026 0.72047 0.0
O74 O 0.96429 0.05981 0.80884 0.0
Mn75 Mn 0.94494 0.03259 0.74231 0.0
O76 O 0.99765 0.96416 0.64738 0.0
O77 O 0.05405 0.00874 0.6773 0.0
Mn78 Mn 0.06116 0.96973 0.67422 0.0
O79 O 0.01941 0.97701 0.81695 0.0
O80 O 0.04259 0.95202 0.58753 0.0
O81 O 0.99505 0.03 0.62453 0.0
O82 O 0.94406 0.0396 0.63219 0.0
O83 O 0.09885 0.98129 0.6524 0.0
O84 O 0.05908 0.94933 0.7701 0.0
C85 C 0.932 -0.00614 0.79684 0.0
C86 C 0.99364 0.05978 0.82534 0.0
C87 C 0.01348 0.94854 0.59492 0.0
C88 C 0.08431 0.00675 0.65427 0.0
C89 C 0.03907 0.95582 0.82451 0.0
C90 C 0.97021 0.04255 0.59701 0.0
O91 O 0.96086 -0.00279 0.76744 0.0
O92 O 0.91153 0.01498 0.7841 0.0
O93 O 0.53628 -0.00647 0.82325 0.0
Mn94 Mn 0.50486 0.00101 0.7295 0.0
O95 O 0.56413 0.03366 0.83713 0.0
Mn96 Mn 0.56146 0.04108 0.72728 0.0
O97 O 0.47405 0.00829 0.63498 0.0
O98 O 0.48903 0.9599 0.75641 0.0
Mn99 Mn 0.44909 0.96062 0.72633 0.0
O100 O 0.47005 0.01899 0.81111 0.0
O101 O 0.44669 0.96817 0.61611 0.0
O102 O 0.53885 0.98286 0.64778 0.0
O103 O 0.58015 0.01307 0.65712 0.0
O104 O 0.4563 0.92344 0.76445 0.0
O105 O 0.42936 0.98843 0.79444 0.0
C106 C 0.52627 0.06839 0.67316 0.0
C107 C 0.55757 0.0079 0.85913 0.0
C108 C 0.45473 -0.00654 0.59353 0.0
C109 C 0.48385 0.93324 0.78179 0.0
C110 C 0.44136 0.0113 0.82617 0.0
C111 C 0.56708 0.99029 0.62814 0.0
O112 O 0.52109 0.04202 0.70107 0.0
O113 O 0.55394 0.07818 0.68902 0.0
O114 O 0.49088 0.52848 0.82628 0.0
Mn115 Mn 0.50246 0.50098 0.73127 0.0
O116 O 0.44018 0.54139 0.81845 0.0
Mn117 Mn 0.43845 0.52963 0.71156 0.0
O118 O 0.5131 0.47348 0.63459 0.0
O119 O 0.54898 0.50874 0.77374 0.0
Mn120 Mn 0.56357 0.47464 0.73275 0.0
O121 O 0.49941 0.46398 0.80802 0.0
O122 O 0.5637 0.4767 0.62128 0.0
O123 O 0.50566 0.53786 0.65158 0.0
O124 O 0.45589 0.55506 0.6369 0.0
O125 O 0.59808 0.48811 0.77688 0.0
O126 O 0.5466 0.4424 0.78632 0.0
C127 C 0.42757 0.48764 0.67352 0.0
C128 C 0.46667 0.54238 0.85333 0.0
C129 C 0.53795 0.46864 0.59309 0.0
C130 C 0.57908 0.50986 0.79569 0.0
C131 C 0.51923 0.4424 0.81846 0.0
C132 C 0.48516 0.55605 0.62015 0.0
O133 O 0.45612 0.49419 0.69728 0.0
O134 O 0.40588 0.50813 0.67951 0.0
O135 O 0.038 0.48249 0.80894 0.0
Mn136 Mn 0.00651 0.50005 0.71965 0.0
O137 O 0.0809 0.51057 0.79449 0.0
Mn138 Mn 0.06492 0.53645 0.71611 0.0
O139 O 0.97568 0.51824 0.63019 0.0
O140 O 0.98858 0.45841 0.69526 0.0
Mn141 Mn 0.94853 0.4657 0.72225 0.0
O142 O 0.97393 0.51281 0.80775 0.0
O143 O 0.93191 0.49187 0.64506 0.0
O144 O 0.03916 0.48777 0.63219 0.0
O145 O 0.07022 0.52502 0.60904 0.0
O146 O 0.94867 0.4275 0.69766 0.0
O147 O 0.9441 0.47511 0.83054 0.0
C148 C 0.03214 0.56806 0.76088 0.0
C149 C 0.06642 0.48954 0.82857 0.0
C150 C 0.94693 0.51253 0.61131 0.0
C151 C 0.97785 0.43202 0.67906 0.0
C152 C 0.95241 0.50063 0.84867 0.0
C153 C 0.06154 0.49934 0.59274 0.0
O154 O 0.02449 0.54117 0.7414 0.0
O155 O 0.06075 0.57501 0.74303 0.0
C156 C 0.19951 0.1193 0.42847 0.0
C157 C 0.21025 0.10477 0.3567 0.0
C158 C 0.17714 0.10696 0.48077 0.0
C159 C 0.1615 0.08142 0.45647 0.0
C160 C 0.16866 0.06896 0.37886 0.0
C161 C 0.19354 0.08008 0.33128 0.0
C162 C 0.17215 0.11999 0.56485 0.0
C163 C 0.15104 0.04285 0.34804 0.0
C164 C 0.13597 0.027 0.61755 0.0
C165 C 0.10299 0.03133 0.62067 0.0
C166 C 0.15492 0.04314 0.56497 0.0
C167 C 0.14107 0.06556 0.51623 0.0
C168 C 0.10825 0.07224 0.52507 0.0
C169 C 0.08945 0.05481 0.57668 0.0
C170 C 0.18967 0.03507 0.55906 0.0
C171 C 0.09276 0.09737 0.47915 0.0
H172 H 0.2099 0.13967 0.44725 0.0
H173 H 0.20048 0.06856 0.27607 0.0
H174 H 0.14695 0.12607 0.57424 0.0
H175 H 0.17865 0.10336 0.61185 0.0
H176 H 0.18649 0.13971 0.57522 0.0
H177 H 0.15624 0.03811 0.28281 0.0
H178 H 0.15758 0.02311 0.38452 0.0
H179 H 0.12527 0.04687 0.3554 0.0
H180 H 0.14697 0.00934 0.6526 0.0
H181 H 0.06414 0.05857 0.57905 0.0
H182 H 0.204 0.05478 0.56927 0.0
H183 H 0.19529 0.02667 0.49698 0.0
H184 H 0.19698 0.0179 0.6038 0.0
H185 H 0.09728 0.11819 0.51187 0.0
H186 H 0.06682 0.09501 0.47521 0.0
H187 H 0.10255 0.09926 0.4166 0.0
C188 C 0.48678 0.17979 0.30567 0.0
C189 C 0.51372 0.19677 0.30703 0.0
C190 C 0.48473 0.1543 0.35409 0.0
C191 C 0.50984 0.14599 0.40707 0.0
C192 C 0.53835 0.16147 0.40212 0.0
C193 C 0.54017 0.18611 0.35062 0.0
C194 C 0.45417 0.13849 0.35468 0.0
C195 C 0.56621 0.15346 0.45564 0.0
C196 C 0.49811 0.11226 0.61797 0.0
C197 C 0.50891 0.08318 0.60599 0.0
C198 C 0.49591 0.13231 0.55255 0.0
C199 C 0.50558 0.12336 0.47306 0.0
C200 C 0.51441 0.09346 0.45978 0.0
C201 C 0.51555 0.07369 0.52609 0.0
C202 C 0.48619 0.16384 0.57027 0.0
C203 C 0.52546 0.08298 0.37695 0.0
H204 H 0.46614 0.18795 0.27311 0.0
H205 H 0.56119 0.19916 0.35174 0.0
H206 H 0.45766 0.11478 0.36853 0.0
H207 H 0.43895 0.14882 0.40212 0.0
H208 H 0.44176 0.14082 0.29537 0.0
H209 H 0.58564 0.16919 0.44932 0.0
H210 H 0.55897 0.15291 0.52072 0.0
H211 H 0.57538 0.13115 0.43938 0.0
H212 H 0.49405 0.12005 0.67979 0.0
H213 H 0.5251 0.05158 0.51676 0.0
H214 H 0.46897 0.17199 0.52424 0.0
H215 H 0.50717 0.17785 0.56656 0.0
H216 H 0.47559 0.16647 0.63199 0.0
H217 H 0.5081 0.08966 0.32956 0.0
H218 H 0.52916 0.05872 0.37468 0.0
H219 H 0.54803 0.09341 0.36148 0.0
C220 C 0.30081 0.44053 0.3868 0.0
C221 C 0.30107 0.41256 0.35066 0.0
C222 C 0.3252 0.44889 0.43978 0.0
C223 C 0.35049 0.42878 0.45716 0.0
C224 C 0.35122 0.40085 0.41903 0.0
C225 C 0.32674 0.39322 0.36595 0.0
C226 C 0.3232 0.47879 0.47982 0.0
C227 C 0.37674 0.37825 0.43878 0.0
C228 C 0.42517 0.46178 0.54313 0.0
C229 C 0.41908 0.46131 0.62704 0.0
C230 C 0.40361 0.45027 0.48713 0.0
C231 C 0.37596 0.43682 0.51589 0.0
C232 C 0.37197 0.4328 0.6011 0.0
C233 C 0.39345 0.44534 0.65556 0.0
C234 C 0.40877 0.45537 0.39726 0.0
C235 C 0.34345 0.41799 0.63559 0.0
H236 H 0.28049 0.45512 0.37806 0.0
H237 H 0.32648 0.37119 0.34063 0.0
H238 H 0.32338 0.47644 0.54717 0.0
H239 H 0.34411 0.49157 0.46267 0.0
H240 H 0.30157 0.49149 0.46212 0.0
H241 H 0.37478 0.35795 0.40161 0.0
H242 H 0.40034 0.38748 0.4286 0.0
H243 H 0.37521 0.37224 0.50427 0.0
H244 H 0.44449 0.47469 0.52079 0.0
H245 H 0.38825 0.44539 0.72042 0.0
H246 H 0.3905 0.4712 0.37444 0.0
H247 H 0.40631 0.43458 0.3627 0.0
H248 H 0.43236 0.4643 0.38429 0.0
H249 H 0.3235 0.43421 0.6393 0.0
H250 H 0.34803 0.40951 0.69811 0.0
H251 H 0.33607 0.39953 0.59634 0.0
C252 C 0.03609 0.28819 0.43151 0.0
C253 C 0.0302 0.29377 0.34836 0.0
C254 C 0.03426 0.31077 0.49006 0.0
C255 C 0.02998 0.34033 0.46427 0.0
C256 C 0.03035 0.34639 0.37903 0.0
C257 C 0.02916 0.32304 0.32207 0.0
C258 C 0.03214 0.30175 0.57848 0.0
C259 C 0.02882 0.3776 0.34819 0.0
C260 C 0.97371 0.39383 0.5722 0.0
C261 C 0.99336 0.40988 0.6239 0.0
C262 C 0.98531 0.37067 0.52347 0.0
C263 C 0.01797 0.36362 0.52287 0.0
C264 C 0.03785 0.37871 0.57808 0.0
C265 C 0.02546 0.40217 0.62658 0.0
C266 C 0.96205 0.35285 0.47558 0.0
C267 C 0.0714 0.36884 0.5928 0.0
H268 H 0.03712 0.26555 0.45239 0.0
H269 H 0.02483 0.32774 0.25821 0.0
H270 H 0.03538 0.32003 0.62186 0.0
H271 H 0.00853 0.2926 0.58977 0.0
H272 H 0.04987 0.28402 0.59184 0.0
H273 H 0.0368 0.37894 0.28372 0.0
H274 H 1.00422 0.38635 0.35156 0.0
H275 H 0.04362 0.3919 0.38644 0.0
H276 H 0.94866 0.39912 0.57043 0.0
H277 H 0.04057 0.41341 0.66903 0.0
H278 H 0.96718 0.32895 0.4832 0.0
H279 H 0.96391 0.35798 0.40971 0.0
H280 H 0.93731 0.35749 0.49499 0.0
H281 H 0.07318 0.35886 0.65444 0.0
H282 H 0.08659 0.38812 0.59339 0.0
H283 H 0.08037 0.35249 0.54779 0.0
C284 C 0.82757 0.90389 0.12213 0.0
C285 C 0.79704 0.91262 0.09914 0.0
C286 C 0.85415 0.9133 0.07788 0.0
C287 C 0.8503 0.93139 0.0077 0.0
C288 C 0.81931 0.94034 0.98483 0.0
C289 C 0.79334 0.93114 0.03095 0.0
C290 C 0.88622 0.9023 0.10366 0.0
C291 C 0.81341 0.95903 0.91006 0.0
C292 C 0.91307 0.98407 0.93563 0.0
C293 C 0.92258 0.97218 0.85996 0.0
C294 C 0.89085 0.97032 0.98562 0.0
C295 C 0.87829 0.94313 0.96168 0.0
C296 C 0.89015 0.92943 0.88921 0.0
C297 C 0.91172 0.94434 0.83847 0.0
C298 C 0.87855 0.98638 0.06037 0.0
C299 C 0.8788 0.89975 0.86315 0.0
H300 H 0.83061 0.88869 0.17255 0.0
H301 H 0.76972 0.93732 0.0112 0.0
H302 H 0.89362 0.88429 0.0616 0.0
H303 H 0.90372 0.91994 0.0997 0.0
H304 H 0.88616 0.89345 0.16678 0.0
H305 H 0.78799 0.96461 0.90137 0.0
H306 H 0.82651 0.97974 0.91456 0.0
H307 H 0.82217 0.94713 0.855 0.0
H308 H 0.92058 0.00593 0.95181 0.0
H309 H 0.91826 0.93519 0.77951 0.0
H310 H 0.87932 0.97162 0.11419 0.0
H311 H 0.85355 -0.00676 0.05061 0.0
H312 H 0.89217 0.00628 0.07426 0.0
H313 H 0.88541 0.88319 0.91013 0.0
H314 H 0.88906 0.89259 0.80371 0.0
H315 H 0.85272 0.90018 0.85831 0.0
C316 C 0.47715 0.8212 0.12279 0.0
C317 C 0.50452 0.80818 0.1563 0.0
C318 C 0.47881 0.84508 0.06835 0.0
C319 C 0.50862 0.85595 0.04559 0.0
C320 C 0.53605 0.8441 0.08392 0.0
C321 C 0.53351 0.82098 0.14029 0.0
C322 C 0.44884 0.85661 0.02901 0.0
C323 C 0.56848 0.85427 0.06229 0.0
C324 C 0.50791 0.88639 0.82924 0.0
C325 C 0.50279 0.91659 0.84267 0.0
C326 C 0.51224 0.86667 0.89456 0.0
C327 C 0.51095 0.8773 0.97593 0.0
C328 C 0.50864 0.90808 0.98949 0.0
C329 C 0.50466 0.9274 0.92265 0.0
C330 C 0.51542 0.83418 0.87638 0.0
C331 C 0.50721 0.92042 0.07484 0.0
H332 H 0.45477 0.81076 0.13255 0.0
H333 H 0.55478 0.8105 0.16429 0.0
H334 H 0.44825 0.881 0.02758 0.0
H335 H 0.44789 0.84872 0.96498 0.0
H336 H 0.4275 0.84909 0.06145 0.0
H337 H 0.5868 0.83691 0.0741 0.0
H338 H 0.57018 0.86088 0.99737 0.0
H339 H 0.5738 0.8734 0.10134 0.0
H340 H 0.50578 0.87783 0.76774 0.0
H341 H 0.49973 0.95057 0.93378 0.0
H342 H 0.49303 0.82341 0.89187 0.0
H343 H 0.53431 0.8238 0.91407 0.0
H344 H 0.52078 0.82985 0.81099 0.0
H345 H 0.48351 0.91672 0.10102 0.0
H346 H 0.51148 0.9444 0.0757 0.0
H347 H 0.52475 0.90906 0.11471 0.0
C348 C 0.69859 0.56495 0.12024 0.0
C349 C 0.70465 0.59513 0.12122 0.0
C350 C 0.67357 0.55374 0.07359 0.0
C351 C 0.65454 0.57302 0.02506 0.0
C352 C 0.6595 0.60361 0.02986 0.0
C353 C 0.68366 0.61427 0.07949 0.0
C354 C 0.66933 0.52095 0.07076 0.0
C355 C 0.64172 0.62497 0.97568 0.0
C356 C 0.62447 0.54072 0.82589 0.0
C357 C 0.5933 0.53359 0.84499 0.0
C358 C 0.64421 0.55399 0.88296 0.0
C359 C 0.63252 0.56105 0.96176 0.0
C360 C 0.60019 0.55634 0.97927 0.0
C361 C 0.58094 0.54242 0.92089 0.0
C362 C 0.67823 0.55868 0.8601 0.0
C363 C 0.58645 0.56464 0.06122 0.0
H364 H 0.71489 0.54983 0.15045 0.0
H365 H 0.68828 0.63761 0.07883 0.0
H366 H 0.64396 0.51574 0.07412 0.0
H367 H 0.67865 0.51216 0.01204 0.0
H368 H 0.68198 0.50951 0.12128 0.0
H369 H 0.64235 0.64782 0.99948 0.0
H370 H 0.65259 0.62462 0.91402 0.0
H371 H 0.61697 0.61849 0.96879 0.0
H372 H 0.63426 0.53383 0.76748 0.0
H373 H 0.55708 0.53665 0.93681 0.0
H374 H 0.69375 0.54387 0.89683 0.0
H375 H 0.68487 0.58157 0.87373 0.0
H376 H 0.68294 0.55417 0.79448 0.0
H377 H 0.59842 0.55153 0.10963 0.0
H378 H 0.56073 0.56089 0.06442 0.0
H379 H 0.59064 0.58816 0.07432 0.0
C380 C 0.96823 0.68675 0.09416 0.0
C381 C 0.9952 0.69596 0.13554 0.0
C382 C 0.96998 0.66491 0.03338 0.0
C383 C 0.99902 0.64998 0.01723 0.0
C384 C 0.02573 0.65705 0.06502 0.0
C385 C 0.02367 0.68032 0.1224 0.0
C386 C 0.94083 0.65925 0.98416 0.0
C387 C 0.05718 0.64172 0.05049 0.0
C388 C 1.00182 0.57877 0.89043 0.0
C389 C 0.01418 0.5885 0.81603 0.0
C390 C 0.99577 0.59868 0.95548 0.0
C391 C 1.00228 0.62896 0.94625 0.0
C392 C 0.01274 0.63905 0.86919 0.0
C393 C 0.01827 0.6188 0.80543 0.0
C394 C 0.98413 0.58718 0.03589 0.0
C395 C 0.01878 0.67113 0.85316 0.0
H396 H 0.94624 0.69908 0.10289 0.0
H397 H 0.04483 0.68774 0.15206 0.0
H398 H 0.94641 0.65261 0.92048 0.0
H399 H 0.92788 0.64133 0.01393 0.0
H400 H 0.92485 0.67899 0.98227 0.0
H401 H 0.07436 0.64658 0.09938 0.0
H402 H 0.05436 0.61757 0.04675 0.0
H403 H 0.067 0.64908 0.99132 0.0
H404 H 0.99933 0.55541 0.90022 0.0
H405 H 0.02793 0.62653 0.74823 0.0
H406 H 0.96076 0.59744 0.05001 0.0
H407 H 1.00039 0.59338 0.08557 0.0
H408 H 0.98209 0.56292 0.03573 0.0
H409 H 0.99659 0.68197 0.83172 0.0
H410 H 0.03687 0.67375 0.80475 0.0
H411 H 0.0266 0.68295 0.9084 0.0
C412 C 0.00547 0.20093 0.42039 0.0
C413 C 0.97658 0.21002 0.38595 0.0
C414 C 0.00793 0.17528 0.4662 0.0
C415 C 0.98063 0.15891 0.4785 0.0
C416 C 0.95076 0.16995 0.45244 0.0
C417 C 0.94914 0.1953 0.40427 0.0
C418 C 0.04024 0.16466 0.49343 0.0
C419 C 0.92095 0.15379 0.47057 0.0
C420 C 0.98233 0.0762 0.48185 0.0
C421 C 0.97509 0.07156 0.56363 0.0
C422 C 0.98638 0.10494 0.45375 0.0
C423 C 0.98325 0.12877 0.50953 0.0
C424 C 0.97893 0.12365 0.59333 0.0
C425 C 0.97449 0.09502 0.61915 0.0
C426 C 0.99317 0.11001 0.3645 0.0
C427 C 0.9784 0.14832 0.65527 0.0
H428 H 0.02676 0.21245 0.40515 0.0
H429 H 0.92697 0.20266 0.37761 0.0
H430 H 0.03935 0.14935 0.54589 0.0
H431 H 0.05212 0.15304 0.44182 0.0
H432 H 0.05501 0.18354 0.51024 0.0
H433 H 0.8995 0.16651 0.45166 0.0
H434 H 0.92152 0.13235 0.43811 0.0
H435 H 0.91927 0.14914 0.53688 0.0
H436 H 0.98406 0.05768 0.44025 0.0
H437 H 0.97021 0.09097 0.68312 0.0
H438 H 0.01502 0.12266 0.35782 0.0
H439 H 0.97367 0.1233 0.33684 0.0
H440 H 0.99606 0.08909 0.32992 0.0
H441 H 1.00117 0.15973 0.6537 0.0
H442 H 0.97443 0.14033 0.71843 0.0
H443 H 0.95963 0.16483 0.64006 0.0
C444 C 0.31087 0.08058 0.40722 0.0
C445 C 0.31677 0.11063 0.39785 0.0
C446 C 0.33354 0.06145 0.43922 0.0
C447 C 0.36255 0.07279 0.46353 0.0
C448 C 0.3678 0.10336 0.46076 0.0
C449 C 0.34501 0.1221 0.42522 0.0
C450 C 0.32653 0.02913 0.44613 0.0
C451 C 0.39711 0.11597 0.49689 0.0
C452 C 0.40843 0.02495 0.60759 0.0
C453 C 0.43046 0.01144 0.55521 0.0
C454 C 0.38677 0.04576 0.57902 0.0
C455 C 0.38683 0.05252 0.49521 0.0
C456 C 0.4088 0.03861 0.4412 0.0
C457 C 0.43092 0.0182 0.47242 0.0
C458 C 0.3637 0.0597 0.63911 0.0
C459 C 0.40869 0.04518 0.35095 0.0
H460 H 0.28904 0.07171 0.38491 0.0
H461 H 0.34934 0.14531 0.41763 0.0
H462 H 0.3445 0.01578 0.41227 0.0
H463 H 0.32766 0.02231 0.51104 0.0
H464 H 0.30286 0.02395 0.42207 0.0
H465 H 0.39779 0.14017 0.48919 0.0
H466 H 0.39807 0.11105 0.56312 0.0
H467 H 0.41829 0.10524 0.46907 0.0
H468 H 0.40868 0.01973 0.67193 0.0
H469 H 0.4485 0.00783 0.43296 0.0
H470 H 0.34388 0.04465 0.64864 0.0
H471 H 0.35381 0.0812 0.61846 0.0
H472 H 0.37513 0.06305 0.69913 0.0
H473 H 0.38631 0.03784 0.32369 0.0
H474 H 0.42865 0.034 0.31843 0.0
H475 H 0.40993 0.06925 0.34082 0.0
C476 C 0.54794 0.3135 0.39724 0.0
C477 C 0.52226 0.29642 0.41757 0.0
C478 C 0.54969 0.34193 0.42686 0.0
C479 C 0.52753 0.35167 0.486 0.0
C480 C 0.50445 0.33267 0.51653 0.0
C481 C 0.50142 0.30515 0.47968 0.0
C482 C 0.57299 0.36241 0.38828 0.0
C483 C 0.4813 0.34243 0.58184 0.0
C484 C 0.55838 0.41856 0.58391 0.0
C485 C 0.5387 0.4407 0.55092 0.0
C486 C 0.55279 0.38921 0.56885 0.0
C487 C 0.52878 0.38204 0.51382 0.0
C488 C 0.50933 0.40429 0.47784 0.0
C489 C 0.51424 0.43359 0.4984 0.0
C490 C 0.57199 0.36588 0.61365 0.0
C491 C 0.4829 0.3979 0.41944 0.0
H492 H 0.56367 0.3063 0.34839 0.0
H493 H 0.48144 0.29173 0.49424 0.0
H494 H 0.56053 0.38264 0.36621 0.0
H495 H 0.59061 0.36921 0.43382 0.0
H496 H 0.58577 0.3521 0.3359 0.0
H497 H 0.46936 0.32345 0.60973 0.0
H498 H 0.49327 0.35488 0.63057 0.0
H499 H 0.46302 0.35725 0.5545 0.0
H500 H 0.57651 0.424 0.62753 0.0
H501 H 0.49839 0.4508 0.47575 0.0
H502 H 0.5891 0.35505 0.57134 0.0
H503 H 0.5564 0.34865 0.63757 0.0
H504 H 0.58534 0.37518 0.66544 0.0
H505 H 0.48619 0.41048 0.36218 0.0
H506 H 0.46021 0.40579 0.44661 0.0
H507 H 0.48094 0.37432 0.40383 0.0
C508 C 0.17404 0.37219 0.43287 0.0
C509 C 0.20595 0.37912 0.43652 0.0
C510 C 0.151 0.3923 0.46081 0.0
C511 C 0.16033 0.41772 0.50348 0.0
C512 C 0.19243 0.42183 0.5213 0.0
C513 C 0.21491 0.40196 0.4893 0.0
C514 C 0.11763 0.38812 0.43224 0.0
C515 C 0.20338 0.44903 0.56502 0.0
C516 C 0.10139 0.48141 0.49081 0.0
C517 C 0.08619 0.47865 0.56578 0.0
C518 C 0.12653 0.46213 0.47035 0.0
C519 C 0.13657 0.44031 0.52719 0.0
C520 C 0.12237 0.43881 0.60488 0.0
C521 C 0.09705 0.45776 0.62266 0.0
C522 C 0.14196 0.46481 0.3878 0.0
C523 C 0.13385 0.41747 0.66977 0.0
H524 H 0.16693 0.35381 0.39562 0.0
H525 H 0.23952 0.40706 0.49654 0.0
H526 H 0.09991 0.40209 0.46467 0.0
H527 H 0.11622 0.39383 0.36657 0.0
H528 H 0.11136 0.36467 0.43711 0.0
H529 H 0.22943 0.45091 0.56349 0.0
H530 H 0.1927 0.46913 0.53703 0.0
H531 H 0.19577 0.44859 0.62966 0.0
H532 H 0.09348 0.4983 0.44843 0.0
H533 H 0.08607 0.45667 0.68236 0.0
H534 H 0.13447 0.44644 0.34858 0.0
H535 H 0.16802 0.46325 0.39318 0.0
H536 H 0.13527 0.4858 0.35707 0.0
H537 H 0.13951 0.39545 0.64357 0.0
H538 H 0.11623 0.41499 0.71939 0.0
H539 H 0.15565 0.42572 0.69768 0.0
C540 C 0.96864 0.82554 0.06889 0.0
C541 C 0.9869 0.7999 0.05616 0.0
C542 C 0.97742 0.85179 0.0334 0.0
C543 C 1.00274 0.85138 0.97775 0.0
C544 C 0.0187 0.82485 0.95642 0.0
C545 C 0.01082 0.79918 0.99716 0.0
C546 C 0.96128 0.88017 0.06012 0.0
C547 C 0.04559 0.8241 0.89579 0.0
C548 C 1.00406 0.91571 0.83829 0.0
C549 C 0.02856 0.93162 0.87193 0.0
C550 C 0.99593 0.88901 0.87138 0.0
C551 C 0.01213 0.87891 0.94119 0.0
C552 C 0.03618 0.89555 0.97748 0.0
C553 C 0.04464 0.92187 0.94087 0.0
C554 C 0.97067 0.87138 0.83059 0.0
C555 C 0.05248 0.88587 0.05504 0.0
H556 H 0.94996 0.82571 0.11421 0.0
H557 H 0.0251 0.77931 0.98806 0.0
H558 H 0.97881 0.89693 0.07553 0.0
H559 H 0.9467 0.88914 0.00943 0.0
H560 H 0.94626 0.87696 0.11472 0.0
H561 H 0.05359 0.80128 0.88075 0.0
H562 H 0.03847 0.83549 0.83863 0.0
H563 H 0.06583 0.83598 0.92135 0.0
H564 H 0.99224 0.9236 0.78354 0.0
H565 H 0.0637 0.93461 0.96523 0.0
H566 H 0.95049 0.86879 0.87283 0.0
H567 H 0.98007 0.84902 0.81548 0.0
H568 H 0.96181 0.8819 0.77365 0.0
H569 H 0.03568 0.88806 0.10683 0.0
H570 H 0.07332 0.8993 0.06869 0.0
H571 H 0.06016 0.86241 0.0513 0.0
C572 C 0.70075 0.92467 0.03469 0.0
C573 C 0.70251 0.89421 0.02159 0.0
C574 C 0.6785 0.94218 0.99534 0.0
C575 C 0.65879 0.92915 0.93729 0.0
C576 C 0.66306 0.8991 0.91576 0.0
C577 C 0.68456 0.88147 0.96036 0.0
C578 C 0.67417 0.97391 0.02221 0.0
C579 C 0.64392 0.88557 0.84877 0.0
C580 C 0.5794 0.96718 0.94294 0.0
C581 C 0.58396 0.98949 0.88635 0.0
C582 C 0.6032 0.94596 0.95656 0.0
C583 C 0.63125 0.94648 0.90952 0.0
C584 C 0.63511 0.96805 0.849 0.0
C585 C 0.61176 0.98985 0.83983 0.0
C586 C 0.59914 0.92401 0.0242 0.0
C587 C 0.66422 0.96897 0.79593 0.0
H588 H 0.7151 0.93447 0.08153 0.0
H589 H 0.68656 0.85799 0.94948 0.0
H590 H 0.67648 0.98885 0.96938 0.0
H591 H 0.6502 0.97754 0.0482 0.0
H592 H 0.69158 0.98026 0.06912 0.0
H593 H 0.65263 0.86302 0.8331 0.0
H594 H 0.61888 0.88455 0.86783 0.0
H595 H 0.64472 0.8995 0.79328 0.0
H596 H 0.55742 0.96653 0.97662 0.0
H597 H 0.61474 0.00654 0.7935 0.0
H598 H 0.61556 0.9289 0.07472 0.0
H599 H 0.60519 0.90158 0.00199 0.0
H600 H 0.57479 0.92449 0.0488 0.0
H601 H 0.68193 0.98292 0.82557 0.0
H602 H 0.65867 0.97878 0.73544 0.0
H603 H 0.675 0.94673 0.78641 0.0
C604 C 0.53368 0.69328 0.00991 0.0
C605 C 0.50744 0.7095 0.03758 0.0
C606 C 0.53003 0.66509 0.97859 0.0
C607 C 0.49954 0.6535 0.97582 0.0
C608 C 0.47274 0.67099 0.99685 0.0
C609 C 0.47704 0.69927 0.02626 0.0
C610 C 0.5587 0.64745 0.95137 0.0
C611 C 0.43982 0.65912 0.99349 0.0
C612 C 0.47631 0.59385 0.83609 0.0
C613 C 0.47387 0.5702 0.88992 0.0
C614 C 0.48756 0.62053 0.86226 0.0
C615 C 0.49496 0.62383 0.94522 0.0
C616 C 0.49372 0.5997 0.99977 0.0
C617 C 0.48364 0.57259 0.9706 0.0
C618 C 0.49 0.64542 0.80167 0.0
C619 C 0.50205 0.60281 0.08872 0.0
H620 H 0.55708 0.70152 0.0202 0.0
H621 H 0.45699 0.71199 0.04968 0.0
H622 H 0.55906 0.62535 0.97994 0.0
H623 H 0.5579 0.64419 0.88432 0.0
H624 H 0.5808 0.6587 0.96671 0.0
H625 H 0.42163 0.67553 0.01401 0.0
H626 H 0.43423 0.6523 0.93027 0.0
H627 H 0.43837 0.63934 0.03277 0.0
H628 H 0.47001 0.59116 0.77263 0.0
H629 H 0.48302 0.55359 0.01036 0.0
H630 H 0.50813 0.66138 0.81869 0.0
H631 H 0.46693 0.6574 0.798 0.0
H632 H 0.49611 0.63688 0.74024 0.0
H633 H 0.52498 0.61369 0.09535 0.0
H634 H 0.50338 0.58122 0.12031 0.0
H635 H 0.48392 0.61694 0.11958 0.0
C636 C 0.79885 0.58028 0.9952 0.0
C637 C 0.8018 0.61056 0.00795 0.0
C638 C 0.82354 0.56365 0.962 0.0
C639 C 0.85036 0.57823 0.93381 0.0
C640 C 0.85108 0.6093 0.93331 0.0
C641 C 0.82707 0.62533 0.97372 0.0
C642 C 0.82241 0.53046 0.96691 0.0
C643 C 0.87772 0.62524 0.89339 0.0
C644 C 0.92611 0.53351 0.95128 0.0
C645 C 0.92703 0.52049 0.87441 0.0
C646 C 0.90151 0.55345 0.97102 0.0
C647 C 0.87833 0.5605 0.91131 0.0
C648 C 0.8798 0.54773 0.83324 0.0
C649 C 0.90401 0.52758 0.81619 0.0
C650 C 0.89962 0.56622 0.05602 0.0
C651 C 0.85533 0.5547 0.76877 0.0
H652 H 0.77928 0.56894 0.02253 0.0
H653 H 0.82903 0.64878 0.98332 0.0
H654 H 0.82905 0.52007 0.90796 0.0
H655 H 0.83966 0.52241 0.01308 0.0
H656 H 0.79872 0.52282 0.98465 0.0
H657 H 0.87731 0.64901 0.90905 0.0
H658 H 0.90083 0.61518 0.91057 0.0
H659 H 0.87567 0.62306 0.82619 0.0
H660 H 0.94405 0.52768 0.99569 0.0
H661 H 0.90488 0.51728 0.7569 0.0
H662 H 0.87715 0.56008 0.08545 0.0
H663 H 0.89971 0.59059 0.05291 0.0
H664 H 0.91947 0.55844 0.09512 0.0
H665 H 0.83167 0.54821 0.78977 0.0
H666 H 0.86038 0.5432 0.71024 0.0
H667 H 0.85402 0.57876 0.75806 0.0
C668 C 0.01607 0.212 0.0567 0.0
C669 C 0.02626 0.20926 0.13765 0.0
C670 C 0.01678 0.18761 0.00305 0.0
C671 C 0.02711 0.15946 0.03139 0.0
C672 C 0.03938 0.15707 0.11162 0.0
C673 C 0.03926 0.182 0.16299 0.0
C674 C 1.00366 0.19143 0.9182 0.0
C675 C 0.05031 0.12771 0.14569 0.0
C676 C 0.9828 0.09541 0.93932 0.0
C677 C 1.0043 0.08341 0.88205 0.0
C678 C 0.99043 0.11926 0.98959 0.0
C679 C 0.02029 0.13226 0.9822 0.0
C680 C 0.04257 0.11973 0.92638 0.0
C681 C 0.03442 0.09537 0.87733 0.0
C682 C 0.96622 0.13079 0.05027 0.0
C683 C 0.0747 0.13262 0.91676 0.0
H684 H 1.0051 0.23261 0.03728 0.0
H685 H 0.04635 0.17949 0.22619 0.0
H686 H 0.01901 0.17988 0.87285 0.0
H687 H 0.98006 0.18156 0.91509 0.0
H688 H 1.00121 0.21498 0.9009 0.0
H689 H 0.056 0.12895 0.21173 0.0
H690 H 0.03195 0.11107 0.13715 0.0
H691 H 0.07167 0.11978 0.11235 0.0
H692 H 0.95962 0.08613 0.94473 0.0
H693 H 0.0512 0.08639 0.83337 0.0
H694 H 0.95935 0.15384 0.03523 0.0
H695 H 0.9764 0.1308 0.11256 0.0
H696 H 0.94464 0.11749 0.05109 0.0
H697 H 0.07219 0.15526 0.89206 0.0
H698 H 0.09013 0.11934 0.87517 0.0
H699 H 0.08638 0.13424 0.97697 0.0
C700 C 0.30695 0.06518 0.1432 0.0
C701 C 0.29923 0.09536 0.13959 0.0
C702 C 0.33112 0.0525 0.09382 0.0
C703 C 0.34833 0.07036 0.03938 0.0
C704 C 0.34011 0.10072 0.03431 0.0
C705 C 0.31575 0.11273 0.08391 0.0
C706 C 0.33922 0.02018 0.10282 0.0
C707 C 0.35775 0.1208 0.97813 0.0
C708 C 0.42842 0.04159 0.954 0.0
C709 C 0.41942 0.02956 0.87884 0.0
C710 C 0.40574 0.05498 0.0072 0.0
C711 C 0.37343 0.05702 0.98395 0.0
C712 C 0.36472 0.04587 0.90685 0.0
C713 C 0.38749 0.03197 0.85654 0.0
C714 C 0.41618 0.06604 0.08937 0.0
C715 C 0.33096 0.04784 0.87811 0.0
H716 H 0.29551 0.05182 0.18868 0.0
H717 H 0.31084 0.13624 0.08294 0.0
H718 H 0.3397 0.00924 0.04226 0.0
H719 H 0.3631 0.01745 0.12954 0.0
H720 H 0.32221 0.00882 0.14274 0.0
H721 H 0.35028 0.14423 0.9858 0.0
H722 H 0.38346 0.11868 0.98958 0.0
H723 H 0.35374 0.11429 0.9138 0.0
H724 H 0.45282 0.03937 0.97279 0.0
H725 H 0.38005 0.02246 0.79937 0.0
H726 H 0.40627 0.0521 0.13812 0.0
H727 H 0.4071 0.08883 0.09987 0.0
H728 H 0.44225 0.06561 0.09535 0.0
H729 H 0.31602 0.03444 0.91848 0.0
H730 H 0.32832 0.03997 0.81437 0.0
H731 H 0.32186 0.0709 0.88175 0.0
C732 C 0.47175 0.31674 0.14071 0.0
C733 C 0.49174 0.29154 0.13426 0.0
C734 C 0.47525 0.34131 0.08982 0.0
C735 C 0.49646 0.33962 0.02297 0.0
C736 C 0.51358 0.31268 0.0092 0.0
C737 C 0.51183 0.28938 0.06632 0.0
C738 C 0.45752 0.36941 0.11263 0.0
C739 C 0.53528 0.30908 0.9367 0.0
C740 C 0.48468 0.40068 0.86245 0.0
C741 C 0.51177 0.41725 0.873 0.0
C742 C 0.47973 0.37509 0.9094 0.0
C743 C 0.50185 0.36629 0.97031 0.0
C744 C 0.52852 0.38391 0.9833 0.0
C745 C 0.53342 0.4086 0.93345 0.0
C746 C 0.45073 0.35751 0.89382 0.0
C747 C 0.55107 0.378 0.05285 0.0
H748 H 0.45573 0.31867 0.19227 0.0
H749 H 0.52757 0.27035 0.06039 0.0
H750 H 0.46801 0.38935 0.08629 0.0
H751 H 0.43281 0.36812 0.09143 0.0
H752 H 0.45673 0.3721 0.18004 0.0
H753 H 0.54179 0.28561 0.92539 0.0
H754 H 0.52403 0.3184 0.88103 0.0
H755 H 0.55723 0.32115 0.9477 0.0
H756 H 0.46787 0.40719 0.81575 0.0
H757 H 0.55413 0.42164 0.94282 0.0
H758 H 0.43358 0.36141 0.94408 0.0
H759 H 0.45677 0.33362 0.89234 0.0
H760 H 0.43909 0.36379 0.83557 0.0
H761 H 0.53997 0.38608 0.11035 0.0
H762 H 0.57361 0.3895 0.04438 0.0
H763 H 0.55643 0.35422 0.06064 0.0
C764 C 0.16641 0.41662 0.19881 0.0
C765 C 0.19889 0.4153 0.17934 0.0
C766 C 0.14345 0.42642 0.14266 0.0
C767 C 0.15279 0.43639 0.06484 0.0
C768 C 0.18549 0.43619 0.04533 0.0
C769 C 0.20808 0.4256 0.10248 0.0
C770 C 0.10906 0.42575 0.16663 0.0
C771 C 0.19665 0.44742 0.96404 0.0
C772 C 0.09133 0.44408 0.89295 0.0
C773 C 0.08401 0.47431 0.89547 0.0
C774 C 0.11353 0.43128 0.94771 0.0
C775 C 0.12852 0.44908 0.00677 0.0
C776 C 0.12002 0.47937 0.01125 0.0
C777 C 0.09823 0.49154 0.95543 0.0
C778 C 0.12154 0.39888 0.94107 0.0
C779 C 0.13437 0.49916 0.07438 0.0
H780 H 0.15863 0.40983 0.25865 0.0
H781 H 0.23286 0.42493 0.08639 0.0
H782 H 0.09747 0.44763 0.15745 0.0
H783 H 0.09677 0.40993 0.12708 0.0
H784 H 0.10567 0.41913 0.23117 0.0
H785 H 0.22244 0.44395 0.95546 0.0
H786 H 0.18419 0.43631 0.9137 0.0
H787 H 0.19093 0.4713 0.95929 0.0
H788 H 0.08088 0.43074 0.84587 0.0
H789 H 0.09277 0.51496 0.95736 0.0
H790 H 0.1159 0.38779 0.99935 0.0
H791 H 0.1472 0.39552 0.93015 0.0
H792 H 0.1085 0.38816 0.89096 0.0
H793 H 0.12827 0.49144 0.13649 0.0
H794 H 0.12607 0.52241 0.06819 0.0
H795 H 0.16044 0.49822 0.06912 0.0
C796 C 0.98093 0.78788 0.39747 0.0
C797 C 0.00573 0.7829 0.34192 0.0
C798 C 0.97949 0.81334 0.44735 0.0
C799 C 1.00274 0.83506 0.43954 0.0
C800 C 0.02879 0.82927 0.38703 0.0
C801 C 0.03052 0.80291 0.34161 0.0
C802 C 0.95182 0.81799 0.50412 0.0
C803 C 0.0538 0.85185 0.37419 0.0
C804 C 0.98664 0.91686 0.49002 0.0
C805 C 1.00245 0.91971 0.56455 0.0
C806 C 0.98486 0.88913 0.45075 0.0
C807 C 1.00005 0.86383 0.48565 0.0
C808 C 0.01495 0.86667 0.56232 0.0
C809 C 0.01566 0.89432 0.60081 0.0
C810 C 0.9685 0.88729 0.36937 0.0
C811 C 0.03207 0.84087 0.60148 0.0
H812 H 0.96121 0.77322 0.39674 0.0
H813 H 0.04931 0.7998 0.29716 0.0
H814 H 0.95988 0.82527 0.56506 0.0
H815 H 0.93595 0.83559 0.47952 0.0
H816 H 0.93812 0.79769 0.5115 0.0
H817 H 0.07069 0.84539 0.32502 0.0
H818 H 0.04276 0.87344 0.35808 0.0
H819 H 0.06713 0.8549 0.43153 0.0
H820 H 0.97716 0.93644 0.46039 0.0
H821 H 0.02864 0.89651 0.65734 0.0
H822 H 0.95248 0.86841 0.36833 0.0
H823 H 0.98629 0.88354 0.32044 0.0
H824 H 0.95466 0.90771 0.35518 0.0
H825 H 0.01656 0.82165 0.60435 0.0
H826 H 0.04026 0.84602 0.6641 0.0
H827 H 0.0529 0.83439 0.56387 0.0
C828 C 0.70521 0.93442 0.32738 0.0
C829 C 0.70074 0.9068 0.2908 0.0
C830 C 0.68297 0.94686 0.38312 0.0
C831 C 0.65455 0.93227 0.40051 0.0
C832 C 0.64979 0.90455 0.36404 0.0
C833 C 0.67333 0.8917 0.3135 0.0
C834 C 0.68967 0.976 0.42251 0.0
C835 C 0.61903 0.88903 0.37493 0.0
C836 C 0.6082 0.95144 0.59601 0.0
C837 C 0.58594 0.97242 0.56851 0.0
C838 C 0.63015 0.93792 0.5419 0.0
C839 C 0.63011 0.94561 0.45789 0.0
C840 C 0.60686 0.96621 0.42957 0.0
C841 C 0.58538 0.97957 0.4853 0.0
C842 C 0.65407 0.91599 0.57526 0.0
C843 C 0.60512 0.975 0.34091 0.0
H844 H 0.72564 0.94689 0.31118 0.0
H845 H 0.66948 0.86989 0.28974 0.0
H846 H 0.6721 -0.00714 0.40201 0.0
H847 H 0.68746 0.97419 0.48981 0.0
H848 H 0.71361 0.98371 0.40746 0.0
H849 H 0.61915 0.8672 0.34444 0.0
H850 H 0.61365 0.88605 0.44057 0.0
H851 H 0.59958 0.90279 0.34871 0.0
H852 H 0.60907 0.94627 0.66055 0.0
H853 H 0.56866 -0.00371 0.46411 0.0
H854 H 0.67823 0.92361 0.56276 0.0
H855 H 0.65173 0.89447 0.5443 0.0
H856 H 0.65136 0.91267 0.642 0.0
H857 H 0.62328 0.99147 0.32815 0.0
H858 H 0.58174 0.98503 0.32543 0.0
H859 H 0.60975 0.95584 0.30019 0.0
C860 C 0.48012 0.6933 0.32575 0.0
C861 C 0.50579 0.71224 0.32704 0.0
C862 C 0.48082 0.66646 0.36822 0.0
C863 C 0.50685 0.65898 0.41861 0.0
C864 C 0.53226 0.67862 0.42338 0.0
C865 C 0.53173 0.70466 0.37623 0.0
C866 C 0.45423 0.64547 0.35618 0.0
C867 C 0.56062 0.67149 0.47556 0.0
C868 C 0.48181 0.60953 0.59186 0.0
C869 C 0.49489 0.58191 0.57106 0.0
C870 C 0.48767 0.63476 0.54596 0.0
C871 C 0.50533 0.6324 0.47292 0.0
C872 C 0.51842 0.6044 0.44997 0.0
C873 C 0.51359 0.57954 0.50036 0.0
C874 C 0.47406 0.66402 0.57476 0.0
C875 C 0.5356 0.60009 0.36994 0.0
H876 H 0.46071 0.69819 0.28461 0.0
H877 H 0.55232 0.71823 0.37422 0.0
H878 H 0.46388 0.62337 0.33907 0.0
H879 H 0.44094 0.64302 0.41401 0.0
H880 H 0.43753 0.653 0.30802 0.0
H881 H 0.57723 0.68993 0.47787 0.0
H882 H 0.55311 0.66617 0.53864 0.0
H883 H 0.57333 0.6518 0.45069 0.0
H884 H 0.46633 0.61143 0.64423 0.0
H885 H 0.52289 0.55809 0.48205 0.0
H886 H 0.45665 0.67273 0.53003 0.0
H887 H 0.49311 0.68019 0.57948 0.0
H888 H 0.46212 0.66245 0.63487 0.0
H889 H 0.51808 0.5963 0.32113 0.0
H890 H 0.55195 0.58063 0.37198 0.0
H891 H 0.54905 0.6197 0.35272 0.0
C892 C 0.80517 0.56607 0.32557 0.0
C893 C 0.80885 0.59336 0.28701 0.0
C894 C 0.82864 0.55416 0.37834 0.0
C895 C 0.85722 0.56915 0.39068 0.0
C896 C 0.86097 0.59668 0.35246 0.0
C897 C 0.83645 0.60888 0.30464 0.0
C898 C 0.82304 0.52525 0.42006 0.0
C899 C 0.89157 0.61277 0.35889 0.0
C900 C 0.90766 0.55265 0.57973 0.0
C901 C 0.92896 0.53086 0.5514 0.0
C902 C 0.88463 0.5655 0.52801 0.0
C903 C 0.88286 0.55659 0.44515 0.0
C904 C 0.90567 0.53582 0.41503 0.0
C905 C 0.92799 0.52281 0.46883 0.0
C906 C 0.86119 0.5876 0.56336 0.0
C907 C 0.90604 0.52653 0.3266 0.0
H908 H 0.78444 0.5535 0.31278 0.0
H909 H 0.83962 0.63039 0.2781 0.0
H910 H 0.84077 0.50853 0.3992 0.0
H911 H 0.82591 0.52778 0.48699 0.0
H912 H 0.79915 0.51694 0.4076 0.0
H913 H 0.89058 0.63434 0.32724 0.0
H914 H 0.89782 0.61643 0.42367 0.0
H915 H 0.91087 0.59908 0.33134 0.0
H916 H 0.90823 0.55879 0.64359 0.0
H917 H 0.94403 0.5056 0.44685 0.0
H918 H 0.83781 0.57736 0.56824 0.0
H919 H 0.85838 0.60707 0.52325 0.0
H920 H 0.86833 0.59531 0.62466 0.0
H921 H 0.88735 0.51038 0.31622 0.0
H922 H 0.929 0.51602 0.30901 0.0
H923 H 0.90127 0.54559 0.28586 0.0
loop_
_geom_bond_atom_site_label_1
_geom_bond_atom_site_label_2
_geom_bond_distance
_geom_bond_site_symmetry_2
_ccdc_geom_bond_type
H0 C3 0.931 . S
H1 C6 0.928 1_556 S
H2 C8 0.930 . S
C3 H0 0.931 . S
C3 C4 1.413 . S
C3 C5 1.360 . S
C4 C3 1.413 . S
C4 C8 1.429 . S
C5 C3 1.360 . S
C5 C6 1.372 . S
C6 H1 0.928 1_554 S
C6 C5 1.372 . S
C6 C7 1.404 . S
C7 C6 1.404 . S
C7 C8 1.391 . S
C8 H2 0.930 . S
C8 C4 1.429 . S
C8 C7 1.391 . S
H9 C12 0.931 . S
H10 C15 0.928 1_556 S
H11 C17 0.930 . S
C12 H9 0.931 . S
C12 C13 1.413 . S
C12 C14 1.360 . S
C13 C12 1.413 . S
C13 C17 1.429 1_655 S
C14 C12 1.360 . S
C14 C15 1.373 . S
C15 H10 0.928 1_554 S
C15 C14 1.373 . S
C15 C16 1.404 . S
C16 C15 1.404 . S
C16 C17 1.390 1_655 S
C17 H11 0.930 . S
C17 C13 1.429 1_455 S
C17 C16 1.390 1_455 S
H18 C21 0.931 . S
H19 C24 0.928 1_556 S
H20 C26 0.930 . S
C21 H18 0.931 . S
C21 C22 1.413 . S
C21 C23 1.360 . S
C22 C21 1.413 . S
C22 C26 1.429 . S
C23 C21 1.360 . S
C23 C24 1.372 . S
C24 H19 0.928 1_554 S
C24 C23 1.372 . S
C24 C25 1.404 . S
C25 C24 1.404 . S
C25 C26 1.391 . S
C26 H20 0.930 . S
C26 C22 1.429 . S
C26 C25 1.391 . S
H27 C30 0.931 . S
H28 C33 0.928 . S
H29 C35 0.930 1_556 S
C30 H27 0.931 . S
C30 C31 1.413 . S
C30 C32 1.360 . S
C31 C30 1.413 . S
C31 C35 1.429 . S
C32 C30 1.360 . S
C32 C33 1.372 . S
C33 H28 0.928 . S
C33 C32 1.372 . S
C33 C34 1.404 . S
C34 C33 1.404 . S
C34 C35 1.391 . S
C35 H29 0.930 1_554 S
C35 C31 1.429 . S
C35 C34 1.391 . S
H36 C39 0.931 . S
H37 C42 0.928 . S
H38 C44 0.930 . S
C39 H36 0.931 . S
C39 C40 1.413 . S
C39 C41 1.360 . S
C40 C39 1.413 . S
C40 C44 1.429 . S
C41 C39 1.360 . S
C41 C42 1.372 . S
C42 H37 0.928 . S
C42 C41 1.372 . S
C42 C43 1.404 . S
C43 C42 1.404 . S
C43 C44 1.391 . S
C44 H38 0.930 . S
C44 C40 1.429 . S
C44 C43 1.391 . S
H45 C48 0.930 . S
H46 C51 0.928 . S
H47 C53 0.929 . S
C48 H45 0.930 . S
C48 C49 1.413 . S
C48 C50 1.360 . S
C49 C48 1.413 . S
C49 C53 1.429 1_655 S
C50 C48 1.360 . S
C50 C51 1.372 . S
C51 H46 0.928 . S
C51 C50 1.372 . S
C51 C52 1.404 . S
C52 C51 1.404 . S
C52 C53 1.391 1_655 S
C53 H47 0.929 . S
C53 C49 1.429 1_455 S
C53 C52 1.391 1_455 S
H54 C57 0.931 . S
H55 C60 0.928 . S
H56 C62 0.930 . S
C57 H54 0.931 . S
C57 C58 1.413 . S
C57 C59 1.360 . S
C58 C57 1.413 . S
C58 C62 1.429 . S
C59 C57 1.360 . S
C59 C60 1.372 . S
C60 H55 0.928 . S
C60 C59 1.372 . S
C60 C61 1.404 . S
C61 C60 1.404 . S
C61 C62 1.391 . S
C62 H56 0.930 . S
C62 C58 1.429 . S
C62 C61 1.391 . S
H63 C66 0.931 . S
H64 C69 0.928 . S
H65 C71 0.930 . S
C66 H63 0.931 . S
C66 C67 1.413 . S
C66 C68 1.360 . S
C67 C66 1.413 . S
C67 C71 1.429 . S
C68 C66 1.360 . S
C68 C69 1.372 . S
C69 H64 0.928 . S
C69 C68 1.372 . S
C69 C70 1.404 . S
C70 C69 1.404 . S
C70 C71 1.391 . S
C71 H65 0.930 . S
C71 C67 1.429 . S
C71 C70 1.391 . S
O72 Mn73 2.163 1_455 S
O72 C86 1.244 . S
Mn73 O72 2.163 1_655 S
Mn73 O76 2.160 1_545 S
Mn73 O77 2.221 1_655 S
Mn73 O79 2.163 1_645 S
Mn73 O81 2.160 . S
Mn73 O91 2.221 . S
O74 Mn75 2.087 . S
O74 C86 1.256 1_655 S
Mn75 O74 2.087 . S
Mn75 O82 2.089 . S
Mn75 O91 2.290 . S
Mn75 O92 2.251 . S
O76 Mn73 2.160 1_565 S
O76 C87 1.239 . S
O77 Mn73 2.221 1_455 S
O77 Mn78 2.290 1_545 S
O77 C88 1.278 . S
Mn78 O77 2.290 1_565 S
Mn78 O80 2.089 . S
Mn78 O83 2.251 . S
Mn78 O84 2.087 . S
O79 Mn73 2.163 1_465 S
O79 C89 1.244 . S
O80 Mn78 2.089 . S
O80 C87 1.256 1_455 S
O81 Mn73 2.160 . S
O81 C90 1.239 . S
O82 Mn75 2.089 . S
O82 C90 1.256 . S
O83 Mn78 2.251 . S
O83 C88 1.241 1_565 S
O84 Mn78 2.087 . S
O84 C89 1.256 . S
C85 O91 1.278 . S
C85 O92 1.241 . S
C86 O72 1.244 . S
C86 O74 1.256 1_455 S
C87 O76 1.239 . S
C87 O80 1.256 1_655 S
C88 O77 1.278 . S
C88 O83 1.241 1_545 S
C89 O79 1.244 . S
C89 O84 1.256 . S
C90 O81 1.239 . S
C90 O82 1.256 . S
O91 Mn73 2.221 . S
O91 Mn75 2.290 . S
O91 C85 1.278 . S
O92 Mn75 2.251 . S
O92 C85 1.241 . S
O93 Mn94 2.163 1_565 S
O93 C107 1.244 1_565 S
Mn94 O93 2.163 1_545 S
Mn94 O97 2.160 . S
Mn94 O98 2.221 1_545 S
Mn94 O100 2.163 . S
Mn94 O102 2.160 1_545 S
Mn94 O112 2.221 . S
O95 Mn96 2.087 . S
O95 C107 1.256 . S
Mn96 O95 2.087 . S
Mn96 O103 2.066 1_545 S
Mn96 O112 2.290 . S
Mn96 O113 2.251 . S
O97 Mn94 2.160 . S
O97 C108 1.239 . S
O98 Mn94 2.221 1_565 S
O98 Mn99 2.290 . S
O98 C109 1.278 . S
Mn99 O98 2.290 . S
Mn99 O101 2.089 1_565 S
Mn99 O104 2.251 . S
Mn99 O105 2.087 1_565 S
O100 Mn94 2.163 . S
O100 C110 1.244 . S
O101 Mn99 2.089 1_545 S
O101 C108 1.256 . S
O102 Mn94 2.160 1_565 S
O102 C111 1.239 . S
O103 Mn96 2.066 1_565 S
O103 C111 1.272 . S
O104 Mn99 2.251 . S
O104 C109 1.241 . S
O105 Mn99 2.087 1_545 S
O105 C110 1.256 . S
C106 O112 1.278 . S
C106 O113 1.241 . S
C107 O93 1.244 1_545 S
C107 O95 1.256 . S
C108 O97 1.239 . S
C108 O101 1.256 . S
C109 O98 1.278 . S
C109 O104 1.241 . S
C110 O100 1.244 . S
C110 O105 1.256 . S
C111 O102 1.239 . S
C111 O103 1.272 . S
O112 Mn94 2.221 . S
O112 Mn96 2.290 . S
O112 C106 1.278 . S
O113 Mn96 2.251 . S
O113 C106 1.241 . S
O114 Mn115 2.163 . S
O114 C128 1.244 . S
Mn115 O114 2.163 . S
Mn115 O118 2.160 . S
Mn115 O119 2.221 . S
Mn115 O121 2.163 . S
Mn115 O123 2.160 . S
Mn115 O133 2.221 . S
O116 Mn117 2.087 . S
O116 C128 1.256 . S
Mn117 O116 2.087 . S
Mn117 O124 2.089 . S
Mn117 O133 2.290 . S
Mn117 O134 2.251 . S
O118 Mn115 2.160 . S
O118 C129 1.239 . S
O119 Mn115 2.221 . S
O119 Mn120 2.290 . S
O119 C130 1.278 . S
Mn120 O119 2.290 . S
Mn120 O122 2.089 . S
Mn120 O125 2.251 . S
Mn120 O126 2.087 . S
O121 Mn115 2.163 . S
O121 C131 1.244 . S
O122 Mn120 2.089 . S
O122 C129 1.256 . S
O123 Mn115 2.160 . S
O123 C132 1.239 . S
O124 Mn117 2.089 . S
O124 C132 1.256 . S
O125 Mn120 2.251 . S
O125 C130 1.241 . S
O126 Mn120 2.087 . S
O126 C131 1.256 . S
C127 O133 1.278 . S
C127 O134 1.241 . S
C128 O114 1.244 . S
C128 O116 1.256 . S
C129 O118 1.239 . S
C129 O122 1.256 . S
C130 O119 1.278 . S
C130 O125 1.241 . S
C131 O121 1.244 . S
C131 O126 1.256 . S
C132 O123 1.239 . S
C132 O124 1.256 . S
O133 Mn115 2.221 . S
O133 Mn117 2.290 . S
O133 C127 1.278 . S
O134 Mn117 2.251 . S
O134 C127 1.241 . S
O135 Mn136 2.163 . S
O135 C149 1.244 . S
Mn136 O135 2.163 . S
Mn136 O139 2.160 1_455 S
Mn136 O140 2.221 1_455 S
Mn136 O142 2.163 1_455 S
Mn136 O144 2.160 . S
Mn136 O154 2.221 . S
O137 Mn138 2.087 . S
O137 C149 1.256 . S
Mn138 O137 2.087 . S
Mn138 O145 2.089 . S
Mn138 O154 2.290 . S
Mn138 O155 2.251 . S
O139 Mn136 2.160 1_655 S
O139 C150 1.239 . S
O140 Mn136 2.221 1_655 S
O140 Mn141 2.290 . S
O140 C151 1.278 . S
Mn141 O140 2.290 . S
Mn141 O143 2.089 . S
Mn141 O146 2.251 . S
Mn141 O147 2.087 . S
O142 Mn136 2.163 1_655 S
O142 C152 1.244 . S
O143 Mn141 2.089 . S
O143 C150 1.256 . S
O144 Mn136 2.160 . S
O144 C153 1.239 . S
O145 Mn138 2.089 . S
O145 C153 1.256 . S
O146 Mn141 2.251 . S
O146 C151 1.241 . S
O147 Mn141 2.087 . S
O147 C152 1.256 . S
C148 O154 1.278 . S
C148 O155 1.241 . S
C149 O135 1.244 . S
C149 O137 1.256 . S
C150 O139 1.239 . S
C150 O143 1.256 . S
C151 O140 1.278 . S
C151 O146 1.241 . S
C152 O142 1.244 . S
C152 O147 1.256 . S
C153 O144 1.239 . S
C153 O145 1.256 . S
O154 Mn136 2.221 . S
O154 Mn138 2.290 . S
O154 C148 1.278 . S
O155 Mn138 2.251 . S
O155 C148 1.241 . S
C156 C157 1.391 . S
C156 C158 1.394 . S
C156 H172 0.931 . S
C157 C156 1.391 . S
C157 C161 1.376 . S
C158 C156 1.394 . S
C158 C159 1.369 . S
C158 C162 1.531 . S
C159 C158 1.369 . S
C159 C160 1.410 . S
C159 C167 1.503 . S
C160 C159 1.410 . S
C160 C161 1.392 . S
C160 C163 1.511 . S
C161 C157 1.376 . S
C161 C160 1.392 . S
C161 H173 0.929 . S
C162 C158 1.531 . S
C162 H174 0.960 . S
C162 H175 0.962 . S
C162 H176 0.960 . S
C163 C160 1.511 . S
C163 H177 0.961 . S
C163 H178 0.961 . S
C163 H179 0.961 . S
C164 C165 1.370 . S
C164 C166 1.363 . S
C164 H180 0.931 . S
C165 C164 1.370 . S
C165 C169 1.408 . S
C166 C164 1.363 . S
C166 C167 1.370 . S
C166 C170 1.524 . S
C167 C159 1.503 . S
C167 C166 1.370 . S
C167 C168 1.403 . S
C168 C167 1.403 . S
C168 C169 1.404 . S
C168 C171 1.539 . S
C169 C165 1.408 . S
C169 C168 1.404 . S
C169 H181 0.930 . S
C170 C166 1.524 . S
C170 H182 0.956 . S
C170 H183 0.961 . S
C170 H184 0.961 1_545 S
C171 C168 1.539 . S
C171 H185 0.958 . S
C171 H186 0.961 . S
C171 H187 0.960 . S
H172 C156 0.931 . S
H173 C161 0.929 . S
H174 C162 0.960 . S
H175 C162 0.962 . S
H176 C162 0.960 . S
H177 C163 0.961 . S
H178 C163 0.961 . S
H179 C163 0.961 . S
H180 C164 0.931 . S
H181 C169 0.930 . S
H182 C170 0.956 . S
H183 C170 0.961 . S
H184 C170 0.961 1_565 S
H185 C171 0.958 . S
H186 C171 0.961 . S
H187 C171 0.960 . S
C188 C189 1.391 . S
C188 C190 1.394 . S
C188 H204 0.931 . S
C189 C188 1.391 . S
C189 C193 1.376 . S
C190 C188 1.394 . S
C190 C191 1.369 . S
C190 C194 1.531 . S
C191 C190 1.369 . S
C191 C192 1.410 . S
C191 C199 1.503 . S
C192 C191 1.410 . S
C192 C193 1.392 . S
C192 C195 1.511 . S
C193 C189 1.376 . S
C193 C192 1.392 . S
C193 H205 0.929 . S
C194 C190 1.531 . S
C194 H206 0.960 . S
C194 H207 0.962 . S
C194 H208 0.960 . S
C195 C192 1.511 . S
C195 H209 0.961 . S
C195 H210 0.961 . S
C195 H211 0.961 . S
C196 C197 1.370 . S
C196 C198 1.363 . S
C196 H212 0.931 . S
C197 C196 1.370 . S
C197 C201 1.408 . S
C198 C196 1.363 . S
C198 C199 1.370 . S
C198 C202 1.524 . S
C199 C191 1.503 . S
C199 C198 1.370 . S
C199 C200 1.403 . S
C200 C199 1.403 . S
C200 C201 1.404 . S
C200 C203 1.539 . S
C201 C197 1.408 . S
C201 C200 1.404 . S
C201 H213 0.930 . S
C202 C198 1.524 . S
C202 H214 0.956 . S
C202 H215 0.961 . S
C202 H216 0.961 . S
C203 C200 1.539 . S
C203 H217 0.958 . S
C203 H218 0.961 . S
C203 H219 0.960 . S
H204 C188 0.931 . S
H205 C193 0.929 . S
H206 C194 0.960 . S
H207 C194 0.962 . S
H208 C194 0.960 . S
H209 C195 0.961 . S
H210 C195 0.961 . S
H211 C195 0.961 . S
H212 C196 0.931 . S
H213 C201 0.930 . S
H214 C202 0.956 . S
H215 C202 0.961 . S
H216 C202 0.961 . S
H217 C203 0.958 . S
H218 C203 0.961 . S
H219 C203 0.960 . S
C220 C221 1.391 . S
C220 C222 1.394 . S
C220 H236 0.931 . S
C221 C220 1.391 . S
C221 C225 1.376 . S
C222 C220 1.394 . S
C222 C223 1.369 . S
C222 C226 1.531 . S
C223 C222 1.369 . S
C223 C224 1.410 . S
C223 C231 1.503 . S
C224 C223 1.410 . S
C224 C225 1.392 . S
C224 C227 1.511 . S
C225 C221 1.376 . S
C225 C224 1.392 . S
C225 H237 0.929 . S
C226 C222 1.531 . S
C226 H238 0.960 . S
C226 H239 0.962 . S
C226 H240 0.960 . S
C227 C224 1.511 . S
C227 H241 0.961 . S
C227 H242 0.961 . S
C227 H243 0.961 . S
C228 C229 1.370 . S
C228 C230 1.363 . S
C228 H244 0.931 . S
C229 C228 1.370 . S
C229 C233 1.408 . S
C230 C228 1.363 . S
C230 C231 1.370 . S
C230 C234 1.524 . S
C231 C223 1.503 . S
C231 C230 1.370 . S
C231 C232 1.403 . S
C232 C231 1.403 . S
C232 C233 1.404 . S
C232 C235 1.539 . S
C233 C229 1.408 . S
C233 C232 1.404 . S
C233 H245 0.930 . S
C234 C230 1.524 . S
C234 H246 0.956 . S
C234 H247 0.961 . S
C234 H248 0.961 . S
C235 C232 1.539 . S
C235 H249 0.958 . S
C235 H250 0.961 . S
C235 H251 0.960 . S
H236 C220 0.931 . S
H237 C225 0.929 . S
H238 C226 0.960 . S
H239 C226 0.962 . S
H240 C226 0.960 . S
H241 C227 0.961 . S
H242 C227 0.961 . S
H243 C227 0.961 . S
H244 C228 0.931 . S
H245 C233 0.930 . S
H246 C234 0.956 . S
H247 C234 0.961 . S
H248 C234 0.961 . S
H249 C235 0.958 . S
H250 C235 0.961 . S
H251 C235 0.960 . S
C252 C253 1.391 . S
C252 C254 1.394 . S
C252 H268 0.931 . S
C253 C252 1.391 . S
C253 C257 1.376 . S
C254 C252 1.394 . S
C254 C255 1.369 . S
C254 C258 1.531 . S
C255 C254 1.369 . S
C255 C256 1.410 . S
C255 C263 1.503 1_455 S
C256 C255 1.410 . S
C256 C257 1.392 . S
C256 C259 1.511 . S
C257 C253 1.376 . S
C257 C256 1.392 . S
C257 H269 0.929 . S
C258 C254 1.531 . S
C258 H270 0.960 . S
C258 H271 0.962 1_455 S
C258 H272 0.960 . S
C259 C256 1.511 . S
C259 H273 0.961 1_455 S
C259 H274 0.961 1_455 S
C259 H275 0.961 . S
C260 C261 1.370 . S
C260 C262 1.363 . S
C260 H276 0.931 . S
C261 C260 1.370 . S
C261 C265 1.408 1_655 S
C262 C260 1.363 . S
C262 C263 1.375 . S
C262 C266 1.524 . S
C263 C255 1.503 1_655 S
C263 C262 1.375 . S
C263 C264 1.398 1_655 S
C264 C263 1.398 1_455 S
C264 C265 1.404 . S
C264 C267 1.539 . S
C265 C261 1.408 1_455 S
C265 C264 1.404 . S
C265 H277 0.930 . S
C266 C262 1.524 . S
C266 H278 0.956 . S
C266 H279 0.961 . S
C266 H280 0.961 . S
C267 C264 1.539 . S
C267 H281 0.958 . S
C267 H282 0.961 . S
C267 H283 0.960 . S
H268 C252 0.931 . S
H269 C257 0.929 . S
H270 C258 0.960 . S
H271 C258 0.962 1_655 S
H272 C258 0.960 . S
H273 C259 0.961 1_655 S
H274 C259 0.961 1_655 S
H275 C259 0.961 . S
H276 C260 0.931 . S
H277 C265 0.930 . S
H278 C266 0.956 . S
H279 C266 0.961 . S
H280 C266 0.961 . S
H281 C267 0.958 . S
H282 C267 0.961 . S
H283 C267 0.960 . S
C284 C285 1.391 . S
C284 C286 1.394 . S
C284 H300 0.931 . S
C285 C284 1.391 . S
C285 C289 1.376 1_554 S
C286 C284 1.394 . S
C286 C287 1.369 1_554 S
C286 C290 1.531 . S
C287 C286 1.369 1_556 S
C287 C288 1.410 . S
C287 C295 1.503 . S
C288 C287 1.410 . S
C288 C289 1.392 . S
C288 C291 1.511 . S
C289 C285 1.376 1_556 S
C289 C288 1.392 . S
C289 H301 0.929 . S
C290 C286 1.531 . S
C290 H302 0.960 . S
C290 H303 0.962 . S
C290 H304 0.960 . S
C291 C288 1.511 . S
C291 H305 0.961 . S
C291 H306 0.961 . S
C291 H307 0.961 . S
C292 C293 1.370 . S
C292 C294 1.363 . S
C292 H308 0.931 1_565 S
C293 C292 1.370 . S
C293 C297 1.408 . S
C294 C292 1.363 . S
C294 C295 1.370 . S
C294 C298 1.524 . S
C295 C287 1.503 . S
C295 C294 1.370 . S
C295 C296 1.403 . S
C296 C295 1.403 . S
C296 C297 1.404 . S
C296 C299 1.539 . S
C297 C293 1.408 . S
C297 C296 1.404 . S
C297 H309 0.930 . S
C298 C294 1.524 . S
C298 H310 0.956 1_556 S
C298 H311 0.961 . S
C298 H312 0.961 1_565 S
C299 C296 1.539 . S
C299 H313 0.958 . S
C299 H314 0.961 . S
C299 H315 0.960 . S
H300 C284 0.931 . S
H301 C289 0.929 . S
H302 C290 0.960 . S
H303 C290 0.962 . S
H304 C290 0.960 . S
H305 C291 0.961 . S
H306 C291 0.961 . S
H307 C291 0.961 . S
H308 C292 0.931 1_545 S
H309 C297 0.930 . S
H310 C298 0.956 1_554 S
H311 C298 0.961 . S
H312 C298 0.961 1_545 S
H313 C299 0.958 . S
H314 C299 0.961 . S
H315 C299 0.960 . S
C316 C317 1.391 . S
C316 C318 1.394 . S
C316 H332 0.931 . S
C317 C316 1.391 . S
C317 C321 1.376 . S
C318 C316 1.394 . S
C318 C319 1.369 1_554 S
C318 C322 1.531 1_554 S
C319 C318 1.369 1_556 S
C319 C320 1.410 1_556 S
C319 C327 1.503 . S
C320 C319 1.410 1_554 S
C320 C321 1.392 . S
C320 C323 1.511 . S
C321 C317 1.376 . S
C321 C320 1.392 . S
C321 H333 0.929 . S
C322 C318 1.531 1_556 S
C322 H334 0.960 . S
C322 H335 0.962 . S
C322 H336 0.960 1_556 S
C323 C320 1.511 . S
C323 H337 0.961 . S
C323 H338 0.961 1_554 S
C323 H339 0.961 . S
C324 C325 1.370 . S
C324 C326 1.363 . S
C324 H340 0.931 . S
C325 C324 1.370 . S
C325 C329 1.408 . S
C326 C324 1.363 . S
C326 C327 1.370 . S
C326 C330 1.524 . S
C327 C319 1.503 . S
C327 C326 1.370 . S
C327 C328 1.403 . S
C328 C327 1.403 . S
C328 C329 1.404 . S
C328 C331 1.539 1_556 S
C329 C325 1.408 . S
C329 C328 1.404 . S
C329 H341 0.930 . S
C330 C326 1.524 . S
C330 H342 0.956 . S
C330 H343 0.961 . S
C330 H344 0.961 . S
C331 C328 1.539 1_554 S
C331 H345 0.958 . S
C331 H346 0.961 . S
C331 H347 0.960 . S
H332 C316 0.931 . S
H333 C321 0.929 . S
H334 C322 0.960 . S
H335 C322 0.962 . S
H336 C322 0.960 1_554 S
H337 C323 0.961 . S
H338 C323 0.961 1_556 S
H339 C323 0.961 . S
H340 C324 0.931 . S
H341 C329 0.930 . S
H342 C330 0.956 . S
H343 C330 0.961 . S
H344 C330 0.961 . S
H345 C331 0.958 . S
H346 C331 0.961 . S
H347 C331 0.960 . S
C348 C349 1.391 . S
C348 C350 1.394 . S
C348 H364 0.931 . S
C349 C348 1.391 . S
C349 C353 1.376 . S
C350 C348 1.394 . S
C350 C351 1.369 1_554 S
C350 C354 1.531 . S
C351 C350 1.369 1_556 S
C351 C352 1.410 . S
C351 C359 1.503 . S
C352 C351 1.410 . S
C352 C353 1.392 1_556 S
C352 C355 1.511 . S
C353 C349 1.376 . S
C353 C352 1.392 1_554 S
C353 H365 0.929 1_554 S
C354 C350 1.531 . S
C354 H366 0.960 . S
C354 H367 0.962 . S
C354 H368 0.960 . S
C355 C352 1.511 . S
C355 H369 0.961 . S
C355 H370 0.961 . S
C355 H371 0.961 . S
C356 C357 1.370 . S
C356 C358 1.363 . S
C356 H372 0.931 . S
C357 C356 1.370 . S
C357 C361 1.408 . S
C358 C356 1.363 . S
C358 C359 1.370 . S
C358 C362 1.524 . S
C359 C351 1.503 . S
C359 C358 1.370 . S
C359 C360 1.403 . S
C360 C359 1.403 . S
C360 C361 1.404 . S
C360 C363 1.539 1_556 S
C361 C357 1.408 . S
C361 C360 1.404 . S
C361 H373 0.930 . S
C362 C358 1.524 . S
C362 H374 0.956 . S
C362 H375 0.961 . S
C362 H376 0.961 . S
C363 C360 1.539 1_554 S
C363 H377 0.958 . S
C363 H378 0.961 . S
C363 H379 0.960 . S
H364 C348 0.931 . S
H365 C353 0.929 1_556 S
H366 C354 0.960 . S
H367 C354 0.962 . S
H368 C354 0.960 . S
H369 C355 0.961 . S
H370 C355 0.961 . S
H371 C355 0.961 . S
H372 C356 0.931 . S
H373 C361 0.930 . S
H374 C362 0.956 . S
H375 C362 0.961 . S
H376 C362 0.961 . S
H377 C363 0.958 . S
H378 C363 0.961 . S
H379 C363 0.960 . S
C380 C381 1.391 1_655 S
C380 C382 1.394 1_554 S
C380 H396 0.931 . S
C381 C380 1.391 1_455 S
C381 C385 1.376 . S
C382 C380 1.394 1_556 S
C382 C383 1.369 1_655 S
C382 C386 1.531 . S
C383 C382 1.369 1_455 S
C383 C384 1.410 1_556 S
C383 C391 1.503 . S
C384 C383 1.410 1_554 S
C384 C385 1.392 . S
C384 C387 1.511 . S
C385 C381 1.376 . S
C385 C384 1.392 . S
C385 H397 0.929 . S
C386 C382 1.531 . S
C386 H398 0.960 . S
C386 H399 0.962 . S
C386 H400 0.960 . S
C387 C384 1.511 . S
C387 H401 0.961 . S
C387 H402 0.961 . S
C387 H403 0.961 1_554 S
C388 C389 1.370 1_655 S
C388 C390 1.363 . S
C388 H404 0.931 . S
C389 C388 1.370 1_455 S
C389 C393 1.408 . S
C390 C388 1.363 . S
C390 C391 1.370 1_655 S
C390 C394 1.524 1_556 S
C391 C383 1.503 . S
C391 C390 1.370 1_455 S
C391 C392 1.403 . S
C392 C391 1.403 . S
C392 C393 1.404 . S
C392 C395 1.539 . S
C393 C389 1.408 . S
C393 C392 1.404 . S
C393 H405 0.930 . S
C394 C390 1.524 1_554 S
C394 H406 0.956 . S
C394 H407 0.961 . S
C394 H408 0.961 . S
C395 C392 1.539 . S
C395 H409 0.958 . S
C395 H410 0.961 . S
C395 H411 0.960 . S
H396 C380 0.931 . S
H397 C385 0.929 . S
H398 C386 0.960 . S
H399 C386 0.962 . S
H400 C386 0.960 . S
H401 C387 0.961 . S
H402 C387 0.961 . S
H403 C387 0.961 1_556 S
H404 C388 0.931 . S
H405 C393 0.930 . S
H406 C394 0.956 . S
H407 C394 0.961 . S
H408 C394 0.961 . S
H409 C395 0.958 . S
H410 C395 0.961 . S
H411 C395 0.960 . S
C412 C413 1.391 . S
C412 C414 1.394 . S
C412 H428 0.931 . S
C413 C412 1.391 . S
C413 C417 1.376 1_455 S
C414 C412 1.394 . S
C414 C415 1.369 1_455 S
C414 C418 1.531 . S
C415 C414 1.369 1_655 S
C415 C416 1.410 . S
C415 C423 1.503 . S
C416 C415 1.410 . S
C416 C417 1.392 . S
C416 C419 1.511 . S
C417 C413 1.376 1_655 S
C417 C416 1.392 . S
C417 H429 0.929 . S
C418 C414 1.531 . S
C418 H430 0.960 . S
C418 H431 0.962 . S
C418 H432 0.960 . S
C419 C416 1.511 . S
C419 H433 0.961 . S
C419 H434 0.961 . S
C419 H435 0.961 . S
C420 C421 1.370 . S
C420 C422 1.363 . S
C420 H436 0.931 . S
C421 C420 1.370 . S
C421 C425 1.408 . S
C422 C420 1.363 . S
C422 C423 1.370 . S
C422 C426 1.524 . S
C423 C415 1.503 . S
C423 C422 1.370 . S
C423 C424 1.403 . S
C424 C423 1.403 . S
C424 C425 1.404 . S
C424 C427 1.539 . S
C425 C421 1.408 . S
C425 C424 1.404 . S
C425 H437 0.930 . S
C426 C422 1.524 . S
C426 H438 0.956 1_655 S
C426 H439 0.961 . S
C426 H440 0.961 . S
C427 C424 1.539 . S
C427 H441 0.958 1_655 S
C427 H442 0.961 . S
C427 H443 0.960 . S
H428 C412 0.931 . S
H429 C417 0.929 . S
H430 C418 0.960 . S
H431 C418 0.962 . S
H432 C418 0.960 . S
H433 C419 0.961 . S
H434 C419 0.961 . S
H435 C419 0.961 . S
H436 C420 0.931 . S
H437 C425 0.930 . S
H438 C426 0.956 1_455 S
H439 C426 0.961 . S
H440 C426 0.961 . S
H441 C427 0.958 1_455 S
H442 C427 0.961 . S
H443 C427 0.960 . S
C444 C445 1.391 . S
C444 C446 1.394 . S
C444 H460 0.931 . S
C445 C444 1.391 . S
C445 C449 1.376 . S
C446 C444 1.394 . S
C446 C447 1.369 . S
C446 C450 1.531 . S
C447 C446 1.369 . S
C447 C448 1.410 . S
C447 C455 1.503 . S
C448 C447 1.410 . S
C448 C449 1.392 . S
C448 C451 1.511 . S
C449 C445 1.376 . S
C449 C448 1.392 . S
C449 H461 0.929 . S
C450 C446 1.531 . S
C450 H462 0.960 . S
C450 H463 0.962 . S
C450 H464 0.960 . S
C451 C448 1.511 . S
C451 H465 0.961 . S
C451 H466 0.961 . S
C451 H467 0.961 . S
C452 C453 1.370 . S
C452 C454 1.363 . S
C452 H468 0.931 . S
C453 C452 1.370 . S
C453 C457 1.408 . S
C454 C452 1.363 . S
C454 C455 1.370 . S
C454 C458 1.524 . S
C455 C447 1.503 . S
C455 C454 1.370 . S
C455 C456 1.403 . S
C456 C455 1.403 . S
C456 C457 1.404 . S
C456 C459 1.539 . S
C457 C453 1.408 . S
C457 C456 1.404 . S
C457 H469 0.930 . S
C458 C454 1.524 . S
C458 H470 0.956 . S
C458 H471 0.961 . S
C458 H472 0.961 . S
C459 C456 1.539 . S
C459 H473 0.958 . S
C459 H474 0.961 . S
C459 H475 0.960 . S
H460 C444 0.931 . S
H461 C449 0.929 . S
H462 C450 0.960 . S
H463 C450 0.962 . S
H464 C450 0.960 . S
H465 C451 0.961 . S
H466 C451 0.961 . S
H467 C451 0.961 . S
H468 C452 0.931 . S
H469 C457 0.930 . S
H470 C458 0.956 . S
H471 C458 0.961 . S
H472 C458 0.961 . S
H473 C459 0.958 . S
H474 C459 0.961 . S
H475 C459 0.960 . S
C476 C477 1.391 . S
C476 C478 1.394 . S
C476 H492 0.931 . S
C477 C476 1.391 . S
C477 C481 1.376 . S
C478 C476 1.394 . S
C478 C479 1.369 . S
C478 C482 1.531 . S
C479 C478 1.369 . S
C479 C480 1.410 . S
C479 C487 1.503 . S
C480 C479 1.410 . S
C480 C481 1.392 . S
C480 C483 1.511 . S
C481 C477 1.376 . S
C481 C480 1.392 . S
C481 H493 0.929 . S
C482 C478 1.531 . S
C482 H494 0.960 . S
C482 H495 0.962 . S
C482 H496 0.960 . S
C483 C480 1.511 . S
C483 H497 0.961 . S
C483 H498 0.961 . S
C483 H499 0.961 . S
C484 C485 1.370 . S
C484 C486 1.363 . S
C484 H500 0.931 . S
C485 C484 1.370 . S
C485 C489 1.408 . S
C486 C484 1.363 . S
C486 C487 1.370 . S
C486 C490 1.524 . S
C487 C479 1.503 . S
C487 C486 1.370 . S
C487 C488 1.403 . S
C488 C487 1.403 . S
C488 C489 1.404 . S
C488 C491 1.539 . S
C489 C485 1.408 . S
C489 C488 1.404 . S
C489 H501 0.930 . S
C490 C486 1.524 . S
C490 H502 0.956 . S
C490 H503 0.961 . S
C490 H504 0.961 . S
C491 C488 1.539 . S
C491 H505 0.958 . S
C491 H506 0.961 . S
C491 H507 0.960 . S
H492 C476 0.931 . S
H493 C481 0.929 . S
H494 C482 0.960 . S
H495 C482 0.962 . S
H496 C482 0.960 . S
H497 C483 0.961 . S
H498 C483 0.961 . S
H499 C483 0.961 . S
H500 C484 0.931 . S
H501 C489 0.930 . S
H502 C490 0.956 . S
H503 C490 0.961 . S
H504 C490 0.961 . S
H505 C491 0.958 . S
H506 C491 0.961 . S
H507 C491 0.960 . S
C508 C509 1.391 . S
C508 C510 1.394 . S
C508 H524 0.931 . S
C509 C508 1.391 . S
C509 C513 1.376 . S
C510 C508 1.394 . S
C510 C511 1.369 . S
C510 C514 1.531 . S
C511 C510 1.369 . S
C511 C512 1.410 . S
C511 C519 1.503 . S
C512 C511 1.410 . S
C512 C513 1.392 . S
C512 C515 1.511 . S
C513 C509 1.376 . S
C513 C512 1.392 . S
C513 H525 0.929 . S
C514 C510 1.531 . S
C514 H526 0.960 . S
C514 H527 0.962 . S
C514 H528 0.960 . S
C515 C512 1.511 . S
C515 H529 0.961 . S
C515 H530 0.961 . S
C515 H531 0.961 . S
C516 C517 1.370 . S
C516 C518 1.363 . S
C516 H532 0.931 . S
C517 C516 1.370 . S
C517 C521 1.408 . S
C518 C516 1.363 . S
C518 C519 1.370 . S
C518 C522 1.524 . S
C519 C511 1.503 . S
C519 C518 1.370 . S
C519 C520 1.403 . S
C520 C519 1.403 . S
C520 C521 1.404 . S
C520 C523 1.539 . S
C521 C517 1.408 . S
C521 C520 1.404 . S
C521 H533 0.930 . S
C522 C518 1.524 . S
C522 H534 0.956 . S
C522 H535 0.961 . S
C522 H536 0.961 . S
C523 C520 1.539 . S
C523 H537 0.958 . S
C523 H538 0.961 . S
C523 H539 0.960 . S
H524 C508 0.931 . S
H525 C513 0.929 . S
H526 C514 0.960 . S
H527 C514 0.962 . S
H528 C514 0.960 . S
H529 C515 0.961 . S
H530 C515 0.961 . S
H531 C515 0.961 . S
H532 C516 0.931 . S
H533 C521 0.930 . S
H534 C522 0.956 . S
H535 C522 0.961 . S
H536 C522 0.961 . S
H537 C523 0.958 . S
H538 C523 0.961 . S
H539 C523 0.960 . S
C540 C541 1.391 1_655 S
C540 C542 1.394 . S
C540 H556 0.931 . S
C541 C540 1.391 1_455 S
C541 C545 1.376 1_554 S
C542 C540 1.394 . S
C542 C543 1.369 1_654 S
C542 C546 1.531 . S
C543 C542 1.369 1_456 S
C543 C544 1.410 . S
C543 C551 1.503 . S
C544 C543 1.410 . S
C544 C545 1.392 . S
C544 C547 1.511 . S
C545 C541 1.376 1_556 S
C545 C544 1.392 . S
C545 H557 0.929 . S
C546 C542 1.531 . S
C546 H558 0.960 . S
C546 H559 0.962 . S
C546 H560 0.960 . S
C547 C544 1.511 . S
C547 H561 0.961 . S
C547 H562 0.961 . S
C547 H563 0.961 . S
C548 C549 1.370 1_655 S
C548 C550 1.363 . S
C548 H564 0.931 . S
C549 C548 1.370 1_455 S
C549 C553 1.408 . S
C550 C548 1.363 . S
C550 C551 1.370 1_655 S
C550 C554 1.524 . S
C551 C543 1.503 . S
C551 C550 1.370 1_455 S
C551 C552 1.403 . S
C552 C551 1.403 . S
C552 C553 1.404 . S
C552 C555 1.539 1_556 S
C553 C549 1.408 . S
C553 C552 1.404 . S
C553 H565 0.930 . S
C554 C550 1.524 . S
C554 H566 0.956 . S
C554 H567 0.961 . S
C554 H568 0.961 . S
C555 C552 1.539 1_554 S
C555 H569 0.958 . S
C555 H570 0.961 . S
C555 H571 0.960 . S
H556 C540 0.931 . S
H557 C545 0.929 . S
H558 C546 0.960 . S
H559 C546 0.962 . S
H560 C546 0.960 . S
H561 C547 0.961 . S
H562 C547 0.961 . S
H563 C547 0.961 . S
H564 C548 0.931 . S
H565 C553 0.930 . S
H566 C554 0.956 . S
H567 C554 0.961 . S
H568 C554 0.961 . S
H569 C555 0.958 . S
H570 C555 0.961 . S
H571 C555 0.960 . S
C572 C573 1.391 . S
C572 C574 1.394 . S
C572 H588 0.931 . S
C573 C572 1.391 . S
C573 C577 1.376 1_554 S
C574 C572 1.394 . S
C574 C575 1.369 1_554 S
C574 C578 1.531 . S
C575 C574 1.369 1_556 S
C575 C576 1.410 . S
C575 C583 1.503 . S
C576 C575 1.410 . S
C576 C577 1.392 . S
C576 C579 1.511 . S
C577 C573 1.376 1_556 S
C577 C576 1.392 . S
C577 H589 0.929 . S
C578 C574 1.531 . S
C578 H590 0.961 1_565 S
C578 H591 0.962 . S
C578 H592 0.960 . S
C579 C576 1.511 . S
C579 H593 0.961 . S
C579 H594 0.961 . S
C579 H595 0.961 . S
C580 C581 1.370 . S
C580 C582 1.363 . S
C580 H596 0.931 . S
C581 C580 1.370 . S
C581 C585 1.408 1_565 S
C582 C580 1.363 . S
C582 C583 1.370 . S
C582 C586 1.524 . S
C583 C575 1.503 . S
C583 C582 1.370 . S
C583 C584 1.403 . S
C584 C583 1.403 . S
C584 C585 1.404 1_565 S
C584 C587 1.539 . S
C585 C581 1.408 1_545 S
C585 C584 1.404 1_545 S
C585 H597 0.930 . S
C586 C582 1.524 . S
C586 H598 0.956 1_556 S
C586 H599 0.961 . S
C586 H600 0.961 1_556 S
C587 C584 1.539 . S
C587 H601 0.958 1_565 S
C587 H602 0.961 . S
C587 H603 0.960 . S
H588 C572 0.931 . S
H589 C577 0.929 . S
H590 C578 0.961 1_545 S
H591 C578 0.962 . S
H592 C578 0.960 . S
H593 C579 0.961 . S
H594 C579 0.961 . S
H595 C579 0.961 . S
H596 C580 0.931 . S
H597 C585 0.930 . S
H598 C586 0.956 1_554 S
H599 C586 0.961 . S
H600 C586 0.961 1_554 S
H601 C587 0.958 1_545 S
H602 C587 0.961 . S
H603 C587 0.960 . S
C604 C605 1.391 . S
C604 C606 1.394 1_554 S
C604 H620 0.931 . S
C605 C604 1.391 . S
C605 C609 1.376 . S
C606 C604 1.394 1_556 S
C606 C607 1.369 . S
C606 C610 1.531 . S
C607 C606 1.369 . S
C607 C608 1.410 1_556 S
C607 C615 1.503 . S
C608 C607 1.410 1_554 S
C608 C609 1.392 . S
C608 C611 1.511 . S
C609 C605 1.376 . S
C609 C608 1.392 . S
C609 H621 0.929 . S
C610 C606 1.531 . S
C610 H622 0.960 . S
C610 H623 0.962 . S
C610 H624 0.960 . S
C611 C608 1.511 . S
C611 H625 0.961 . S
C611 H626 0.961 1_554 S
C611 H627 0.961 . S
C612 C613 1.370 . S
C612 C614 1.363 . S
C612 H628 0.931 . S
C613 C612 1.370 . S
C613 C617 1.408 . S
C614 C612 1.363 . S
C614 C615 1.370 . S
C614 C618 1.524 . S
C615 C607 1.503 . S
C615 C614 1.370 . S
C615 C616 1.403 . S
C616 C615 1.403 . S
C616 C617 1.404 . S
C616 C619 1.539 1_556 S
C617 C613 1.408 . S
C617 C616 1.404 . S
C617 H629 0.930 . S
C618 C614 1.524 . S
C618 H630 0.956 . S
C618 H631 0.961 . S
C618 H632 0.961 . S
C619 C616 1.539 1_554 S
C619 H633 0.958 . S
C619 H634 0.961 . S
C619 H635 0.960 . S
H620 C604 0.931 . S
H621 C609 0.929 . S
H622 C610 0.960 . S
H623 C610 0.962 . S
H624 C610 0.960 . S
H625 C611 0.961 . S
H626 C611 0.961 1_556 S
H627 C611 0.961 . S
H628 C612 0.931 . S
H629 C617 0.930 . S
H630 C618 0.956 . S
H631 C618 0.961 . S
H632 C618 0.961 . S
H633 C619 0.958 . S
H634 C619 0.961 . S
H635 C619 0.960 . S
C636 C637 1.391 . S
C636 C638 1.394 1_554 S
C636 H652 0.931 . S
C637 C636 1.391 . S
C637 C641 1.376 1_554 S
C638 C636 1.394 1_556 S
C638 C639 1.369 . S
C638 C642 1.531 . S
C639 C638 1.369 . S
C639 C640 1.410 . S
C639 C647 1.503 . S
C640 C639 1.410 . S
C640 C641 1.392 . S
C640 C643 1.511 . S
C641 C637 1.376 1_556 S
C641 C640 1.392 . S
C641 H653 0.929 . S
C642 C638 1.531 . S
C642 H654 0.960 . S
C642 H655 0.962 1_556 S
C642 H656 0.960 . S
C643 C640 1.511 . S
C643 H657 0.961 . S
C643 H658 0.961 . S
C643 H659 0.961 . S
C644 C645 1.370 . S
C644 C646 1.363 . S
C644 H660 0.931 . S
C645 C644 1.370 . S
C645 C649 1.408 . S
C646 C644 1.363 . S
C646 C647 1.370 . S
C646 C650 1.524 1_556 S
C647 C639 1.503 . S
C647 C646 1.370 . S
C647 C648 1.403 . S
C648 C647 1.403 . S
C648 C649 1.404 . S
C648 C651 1.539 . S
C649 C645 1.408 . S
C649 C648 1.404 . S
C649 H661 0.930 . S
C650 C646 1.524 1_554 S
C650 H662 0.956 . S
C650 H663 0.961 . S
C650 H664 0.961 . S
C651 C648 1.539 . S
C651 H665 0.958 . S
C651 H666 0.961 . S
C651 H667 0.960 . S
H652 C636 0.931 . S
H653 C641 0.929 . S
H654 C642 0.960 . S
H655 C642 0.962 1_554 S
H656 C642 0.960 . S
H657 C643 0.961 . S
H658 C643 0.961 . S
H659 C643 0.961 . S
H660 C644 0.931 . S
H661 C649 0.930 . S
H662 C650 0.956 . S
H663 C650 0.961 . S
H664 C650 0.961 . S
H665 C651 0.958 . S
H666 C651 0.961 . S
H667 C651 0.960 . S
C668 C669 1.391 1_655 S
C668 C670 1.394 1_655 S
C668 H684 0.931 . S
C669 C668 1.391 1_455 S
C669 C673 1.376 . S
C670 C668 1.394 1_455 S
C670 C671 1.369 . S
C670 C674 1.531 1_454 S
C671 C670 1.369 . S
C671 C672 1.410 . S
C671 C679 1.503 . S
C672 C671 1.410 . S
C672 C673 1.392 . S
C672 C675 1.511 . S
C673 C669 1.376 . S
C673 C672 1.392 . S
C673 H685 0.929 . S
C674 C670 1.531 1_656 S
C674 H686 0.960 1_655 S
C674 H687 0.962 . S
C674 H688 0.964 . S
C675 C672 1.511 . S
C675 H689 0.961 . S
C675 H690 0.961 . S
C675 H691 0.961 . S
C676 C677 1.370 1_655 S
C676 C678 1.363 . S
C676 H692 0.931 . S
C677 C676 1.370 1_455 S
C677 C681 1.408 . S
C678 C676 1.363 . S
C678 C679 1.370 1_656 S
C678 C682 1.524 1_556 S
C679 C671 1.503 . S
C679 C678 1.370 1_454 S
C679 C680 1.403 1_554 S
C680 C679 1.403 1_556 S
C680 C681 1.404 . S
C680 C683 1.539 . S
C681 C677 1.408 . S
C681 C680 1.404 . S
C681 H693 0.930 . S
C682 C678 1.524 1_554 S
C682 H694 0.956 . S
C682 H695 0.961 . S
C682 H696 0.961 . S
C683 C680 1.539 . S
C683 H697 0.958 . S
C683 H698 0.961 . S
C683 H699 0.960 1_556 S
H684 C668 0.931 . S
H685 C673 0.929 . S
H686 C674 0.960 1_455 S
H687 C674 0.962 . S
H688 C674 0.964 . S
H689 C675 0.961 . S
H690 C675 0.961 . S
H691 C675 0.961 . S
H692 C676 0.931 . S
H693 C681 0.930 . S
H694 C682 0.956 . S
H695 C682 0.961 . S
H696 C682 0.961 . S
H697 C683 0.958 . S
H698 C683 0.961 . S
H699 C683 0.960 1_554 S
C700 C701 1.391 . S
C700 C702 1.394 . S
C700 H716 0.931 . S
C701 C700 1.391 . S
C701 C705 1.376 . S
C702 C700 1.394 . S
C702 C703 1.369 . S
C702 C706 1.531 . S
C703 C702 1.369 . S
C703 C704 1.410 . S
C703 C711 1.503 . S
C704 C703 1.410 . S
C704 C705 1.392 . S
C704 C707 1.511 . S
C705 C701 1.376 . S
C705 C704 1.392 . S
C705 H717 0.929 . S
C706 C702 1.531 . S
C706 H718 0.960 . S
C706 H719 0.962 . S
C706 H720 0.960 . S
C707 C704 1.511 . S
C707 H721 0.961 . S
C707 H722 0.961 1_554 S
C707 H723 0.961 1_554 S
C708 C709 1.370 . S
C708 C710 1.363 1_556 S
C708 H724 0.931 1_556 S
C709 C708 1.370 . S
C709 C713 1.408 . S
C710 C708 1.363 1_554 S
C710 C711 1.370 . S
C710 C714 1.524 . S
C711 C703 1.503 . S
C711 C710 1.370 . S
C711 C712 1.403 1_554 S
C712 C711 1.403 1_556 S
C712 C713 1.404 . S
C712 C715 1.539 . S
C713 C709 1.408 . S
C713 C712 1.404 . S
C713 H725 0.930 . S
C714 C710 1.524 . S
C714 H726 0.956 . S
C714 H727 0.961 . S
C714 H728 0.961 . S
C715 C712 1.539 . S
C715 H729 0.958 . S
C715 H730 0.961 . S
C715 H731 0.960 . S
H716 C700 0.931 . S
H717 C705 0.929 . S
H718 C706 0.960 . S
H719 C706 0.962 . S
H720 C706 0.960 . S
H721 C707 0.961 . S
H722 C707 0.961 1_556 S
H723 C707 0.961 1_556 S
H724 C708 0.931 1_554 S
H725 C713 0.930 . S
H726 C714 0.956 . S
H727 C714 0.961 . S
H728 C714 0.961 . S
H729 C715 0.958 . S
H730 C715 0.961 . S
H731 C715 0.960 . S
C732 C733 1.391 . S
C732 C734 1.394 . S
C732 H748 0.931 . S
C733 C732 1.391 . S
C733 C737 1.376 . S
C734 C732 1.394 . S
C734 C735 1.369 . S
C734 C738 1.531 . S
C735 C734 1.369 . S
C735 C736 1.410 . S
C735 C743 1.503 . S
C736 C735 1.410 . S
C736 C737 1.392 . S
C736 C739 1.511 1_554 S
C737 C733 1.376 . S
C737 C736 1.392 . S
C737 H749 0.929 . S
C738 C734 1.531 . S
C738 H750 0.960 . S
C738 H751 0.962 . S
C738 H752 0.960 . S
C739 C736 1.511 1_556 S
C739 H753 0.961 . S
C739 H754 0.961 . S
C739 H755 0.961 . S
C740 C741 1.370 . S
C740 C742 1.363 . S
C740 H756 0.931 . S
C741 C740 1.370 . S
C741 C745 1.408 . S
C742 C740 1.363 . S
C742 C743 1.370 1_556 S
C742 C746 1.524 . S
C743 C735 1.503 . S
C743 C742 1.370 1_554 S
C743 C744 1.401 1_554 S
C744 C743 1.401 1_556 S
C744 C745 1.410 . S
C744 C747 1.535 1_556 S
C745 C741 1.408 . S
C745 C744 1.410 . S
C745 H757 0.930 . S
C746 C742 1.524 . S
C746 H758 0.956 1_556 S
C746 H759 0.961 . S
C746 H760 0.961 . S
C747 C744 1.535 1_554 S
C747 H761 0.958 . S
C747 H762 0.961 . S
C747 H763 0.960 . S
H748 C732 0.931 . S
H749 C737 0.929 . S
H750 C738 0.960 . S
H751 C738 0.962 . S
H752 C738 0.960 . S
H753 C739 0.961 . S
H754 C739 0.961 . S
H755 C739 0.961 . S
H756 C740 0.931 . S
H757 C745 0.930 . S
H758 C746 0.956 1_554 S
H759 C746 0.961 . S
H760 C746 0.961 . S
H761 C747 0.958 . S
H762 C747 0.961 . S
H763 C747 0.960 . S
C764 C765 1.391 . S
C764 C766 1.394 . S
C764 H780 0.931 . S
C765 C764 1.391 . S
C765 C769 1.376 . S
C766 C764 1.394 . S
C766 C767 1.369 . S
C766 C770 1.531 . S
C767 C766 1.369 . S
C767 C768 1.410 . S
C767 C775 1.503 . S
C768 C767 1.410 . S
C768 C769 1.392 . S
C768 C771 1.511 1_554 S
C769 C765 1.376 . S
C769 C768 1.392 . S
C769 H781 0.929 . S
C770 C766 1.531 . S
C770 H782 0.960 . S
C770 H783 0.962 . S
C770 H784 0.960 . S
C771 C768 1.511 1_556 S
C771 H785 0.961 . S
C771 H786 0.961 . S
C771 H787 0.961 . S
C772 C773 1.370 . S
C772 C774 1.363 . S
C772 H788 0.931 . S
C773 C772 1.370 . S
C773 C777 1.408 . S
C774 C772 1.363 . S
C774 C775 1.370 1_556 S
C774 C778 1.524 . S
C775 C767 1.503 . S
C775 C774 1.370 1_554 S
C775 C776 1.403 . S
C776 C775 1.403 . S
C776 C777 1.404 1_554 S
C776 C779 1.539 . S
C777 C773 1.408 . S
C777 C776 1.404 1_556 S
C777 H789 0.930 . S
C778 C774 1.524 . S
C778 H790 0.956 1_556 S
C778 H791 0.961 . S
C778 H792 0.961 . S
C779 C776 1.539 . S
C779 H793 0.958 . S
C779 H794 0.961 . S
C779 H795 0.960 . S
H780 C764 0.931 . S
H781 C769 0.929 . S
H782 C770 0.960 . S
H783 C770 0.962 . S
H784 C770 0.960 . S
H785 C771 0.961 . S
H786 C771 0.961 . S
H787 C771 0.961 . S
H788 C772 0.931 . S
H789 C777 0.930 . S
H790 C778 0.956 1_554 S
H791 C778 0.961 . S
H792 C778 0.961 . S
H793 C779 0.958 . S
H794 C779 0.961 . S
H795 C779 0.960 . S
C796 C797 1.373 1_655 S
C796 C798 1.394 . S
C796 H812 0.931 . S
C797 C796 1.373 1_455 S
C797 C801 1.395 . S
C798 C796 1.394 . S
C798 C799 1.376 . S
C798 C802 1.531 . S
C799 C798 1.376 . S
C799 C800 1.402 1_655 S
C799 C807 1.504 . S
C800 C799 1.402 1_455 S
C800 C801 1.392 . S
C800 C803 1.511 . S
C801 C797 1.395 . S
C801 C800 1.392 . S
C801 H813 0.929 . S
C802 C798 1.531 . S
C802 H814 0.960 . S
C802 H815 0.962 . S
C802 H816 0.960 . S
C803 C800 1.511 . S
C803 H817 0.961 . S
C803 H818 0.961 . S
C803 H819 0.961 . S
C804 C805 1.370 . S
C804 C806 1.363 . S
C804 H820 0.931 . S
C805 C804 1.370 . S
C805 C809 1.408 1_655 S
C806 C804 1.363 . S
C806 C807 1.370 . S
C806 C810 1.524 . S
C807 C799 1.504 . S
C807 C806 1.370 . S
C807 C808 1.403 1_655 S
C808 C807 1.403 1_455 S
C808 C809 1.404 . S
C808 C811 1.539 . S
C809 C805 1.408 1_455 S
C809 C808 1.404 . S
C809 H821 0.930 . S
C810 C806 1.524 . S
C810 H822 0.956 . S
C810 H823 0.961 . S
C810 H824 0.961 . S
C811 C808 1.539 . S
C811 H825 0.958 . S
C811 H826 0.961 . S
C811 H827 0.960 . S
H812 C796 0.931 . S
H813 C801 0.929 . S
H814 C802 0.960 . S
H815 C802 0.962 . S
H816 C802 0.960 . S
H817 C803 0.961 . S
H818 C803 0.961 . S
H819 C803 0.961 . S
H820 C804 0.931 . S
H821 C809 0.930 . S
H822 C810 0.956 . S
H823 C810 0.961 . S
H824 C810 0.961 . S
H825 C811 0.958 . S
H826 C811 0.961 . S
H827 C811 0.960 . S
C828 C829 1.391 . S
C828 C830 1.394 . S
C828 H844 0.931 . S
C829 C828 1.391 . S
C829 C833 1.376 . S
C830 C828 1.394 . S
C830 C831 1.369 . S
C830 C834 1.531 . S
C831 C830 1.369 . S
C831 C832 1.410 . S
C831 C839 1.503 . S
C832 C831 1.410 . S
C832 C833 1.392 . S
C832 C835 1.511 . S
C833 C829 1.376 . S
C833 C832 1.392 . S
C833 H845 0.929 . S
C834 C830 1.531 . S
C834 H846 0.960 . S
C834 H847 0.962 . S
C834 H848 0.960 . S
C835 C832 1.511 . S
C835 H849 0.961 . S
C835 H850 0.961 . S
C835 H851 0.961 . S
C836 C837 1.370 . S
C836 C838 1.363 . S
C836 H852 0.931 . S
C837 C836 1.370 . S
C837 C841 1.408 . S
C838 C836 1.363 . S
C838 C839 1.370 . S
C838 C842 1.524 . S
C839 C831 1.503 . S
C839 C838 1.370 . S
C839 C840 1.403 . S
C840 C839 1.403 . S
C840 C841 1.404 . S
C840 C843 1.539 . S
C841 C837 1.408 . S
C841 C840 1.404 . S
C841 H853 0.930 . S
C842 C838 1.524 . S
C842 H854 0.956 . S
C842 H855 0.961 . S
C842 H856 0.961 . S
C843 C840 1.539 . S
C843 H857 0.958 1_565 S
C843 H858 0.961 . S
C843 H859 0.960 . S
H844 C828 0.931 . S
H845 C833 0.929 . S
H846 C834 0.960 . S
H847 C834 0.962 . S
H848 C834 0.960 . S
H849 C835 0.961 . S
H850 C835 0.961 . S
H851 C835 0.961 . S
H852 C836 0.931 . S
H853 C841 0.930 . S
H854 C842 0.956 . S
H855 C842 0.961 . S
H856 C842 0.961 . S
H857 C843 0.958 1_545 S
H858 C843 0.961 . S
H859 C843 0.960 . S
C860 C861 1.391 . S
C860 C862 1.394 . S
C860 H876 0.931 . S
C861 C860 1.391 . S
C861 C865 1.376 . S
C862 C860 1.394 . S
C862 C863 1.369 . S
C862 C866 1.531 . S
C863 C862 1.369 . S
C863 C864 1.410 . S
C863 C871 1.503 . S
C864 C863 1.410 . S
C864 C865 1.392 . S
C864 C867 1.511 . S
C865 C861 1.376 . S
C865 C864 1.392 . S
C865 H877 0.929 . S
C866 C862 1.531 . S
C866 H878 0.960 . S
C866 H879 0.962 . S
C866 H880 0.960 . S
C867 C864 1.511 . S
C867 H881 0.961 . S
C867 H882 0.961 . S
C867 H883 0.961 . S
C868 C869 1.370 . S
C868 C870 1.363 . S
C868 H884 0.931 . S
C869 C868 1.370 . S
C869 C873 1.408 . S
C870 C868 1.363 . S
C870 C871 1.370 . S
C870 C874 1.524 . S
C871 C863 1.503 . S
C871 C870 1.370 . S
C871 C872 1.403 . S
C872 C871 1.403 . S
C872 C873 1.404 . S
C872 C875 1.539 . S
C873 C869 1.408 . S
C873 C872 1.404 . S
C873 H885 0.930 . S
C874 C870 1.524 . S
C874 H886 0.956 . S
C874 H887 0.961 . S
C874 H888 0.961 . S
C875 C872 1.539 . S
C875 H889 0.958 . S
C875 H890 0.961 . S
C875 H891 0.960 . S
H876 C860 0.931 . S
H877 C865 0.929 . S
H878 C866 0.960 . S
H879 C866 0.962 . S
H880 C866 0.960 . S
H881 C867 0.961 . S
H882 C867 0.961 . S
H883 C867 0.961 . S
H884 C868 0.931 . S
H885 C873 0.930 . S
H886 C874 0.956 . S
H887 C874 0.961 . S
H888 C874 0.961 . S
H889 C875 0.958 . S
H890 C875 0.961 . S
H891 C875 0.960 . S
C892 C893 1.391 . S
C892 C894 1.394 . S
C892 H908 0.931 . S
C893 C892 1.391 . S
C893 C897 1.376 . S
C894 C892 1.394 . S
C894 C895 1.369 . S
C894 C898 1.531 . S
C895 C894 1.369 . S
C895 C896 1.410 . S
C895 C903 1.503 . S
C896 C895 1.410 . S
C896 C897 1.392 . S
C896 C899 1.511 . S
C897 C893 1.376 . S
C897 C896 1.392 . S
C897 H909 0.929 . S
C898 C894 1.531 . S
C898 H910 0.960 . S
C898 H911 0.962 . S
C898 H912 0.960 . S
C899 C896 1.511 . S
C899 H913 0.961 . S
C899 H914 0.961 . S
C899 H915 0.961 . S
C900 C901 1.370 . S
C900 C902 1.363 . S
C900 H916 0.931 . S
C901 C900 1.370 . S
C901 C905 1.408 . S
C902 C900 1.363 . S
C902 C903 1.370 . S
C902 C906 1.524 . S
C903 C895 1.503 . S
C903 C902 1.370 . S
C903 C904 1.403 . S
C904 C903 1.403 . S
C904 C905 1.404 . S
C904 C907 1.539 . S
C905 C901 1.408 . S
C905 C904 1.404 . S
C905 H917 0.930 . S
C906 C902 1.524 . S
C906 H918 0.956 . S
C906 H919 0.961 . S
C906 H920 0.961 . S
C907 C904 1.539 . S
C907 H921 0.958 . S
C907 H922 0.961 . S
C907 H923 0.960 . S
H908 C892 0.931 . S
H909 C897 0.929 . S
H910 C898 0.960 . S
H911 C898 0.962 . S
H912 C898 0.960 . S
H913 C899 0.961 . S
H914 C899 0.961 . S
H915 C899 0.961 . S
H916 C900 0.931 . S
H917 C905 0.930 . S
H918 C906 0.956 . S
H919 C906 0.961 . S
H920 C906 0.961 . S
H921 C907 0.958 . S
H922 C907 0.961 . S
H923 C907 0.960 . S
C157 C61 1.689 . S
C165 C88 1.568 . S
C197 C106 1.292 . S
C189 C70 1.506 . S
C229 C127 1.549 . S
C221 C43 1.637 . S
C261 C151 1.356 . S
C253 C52 1.492 1_455 S
C293 C85 1.473 1_565 S
C285 C25 1.572 . S
C317 C34 1.388 . S
C325 C109 1.203 . S
C349 C7 1.581 . S
C357 C130 1.444 . S
C381 C16 1.349 1_455 S
C389 C148 1.228 . S
C421 C90 0.424 . S
C413 C50 0.503 1_455 S
C453 C108 0.605 . S
C445 C59 0.545 . S
C485 C129 0.489 . S
C477 C67 0.417 . S
C509 C41 0.684 . S
C517 C153 0.536 . S
C541 C14 0.465 1_455 S
C549 C89 0.518 . S
C581 C107 0.619 1_565 S
C573 C23 0.649 . S
C613 C128 0.545 . S
C605 C31 0.478 . S
C637 C5 0.676 . S
C645 C152 0.609 . S
C669 C49 1.545 1_455 S
C677 C86 1.529 . S
C701 C58 1.704 . S
C709 C110 1.657 . S
C741 C131 1.476 . S
C733 C68 1.513 . S
C773 C149 1.665 . S
C765 C40 1.674 . S
C797 C13 1.437 1_455 S
C805 C87 1.370 . S
C837 C111 1.535 . S
C829 C22 1.522 . S
C869 C132 1.383 . S
C861 C32 1.360 . S
C893 C4 1.538 . S
C901 C150 1.555 . S
