# Generated by pormake.
# Topology nom, (4,4)-cn, num edge types: 1
# Building blocks:
#     Node 0, Type 0, BuildingBlock: MIFKUJ_clean_linker_1, # of connection points: 4
#     Node 1, Type 0, BuildingBlock: MIFKUJ_clean_linker_1, # of connection points: 4
#     Node 2, Type 0, BuildingBlock: MIFKUJ_clean_linker_1, # of connection points: 4
#     Node 3, Type 0, BuildingBlock: MIFKUJ_clean_linker_1, # of connection points: 4
#     Node 4, Type 0, BuildingBlock: MIFKUJ_clean_linker_1, # of connection points: 4
#     Node 5, Type 0, BuildingBlock: MIFKUJ_clean_linker_1, # of connection points: 4
#     Node 6, Type 1, BuildingBlock: KUFVIS_clean_sbu_0, # of connection points: 4
#     Node 7, Type 1, BuildingBlock: KUFVIS_clean_sbu_0, # of connection points: 4
#     Node 8, Type 1, BuildingBlock: KUFVIS_clean_sbu_0, # of connection points: 4
#     Node 9, Type 1, BuildingBlock: KUFVIS_clean_sbu_0, # of connection points: 4
#     Node 10, Type 1, BuildingBlock: KUFVIS_clean_sbu_0, # of connection points: 4
#     Node 11, Type 1, BuildingBlock: KUFVIS_clean_sbu_0, # of connection points: 4
#     Edge 12, Type (0, 1), BuildingBlock: ZUJKAS_clean_linker_0, # of connection points: 2
#     Edge 13, Type (0, 1), BuildingBlock: ZUJKAS_clean_linker_0, # of connection points: 2
#     Edge 14, Type (0, 1), BuildingBlock: ZUJKAS_clean_linker_0, # of connection points: 2
#     Edge 15, Type (0, 1), BuildingBlock: ZUJKAS_clean_linker_0, # of connection points: 2
#     Edge 16, Type (0, 1), BuildingBlock: ZUJKAS_clean_linker_0, # of connection points: 2
#     Edge 17, Type (0, 1), BuildingBlock: ZUJKAS_clean_linker_0, # of connection points: 2
#     Edge 18, Type (0, 1), BuildingBlock: ZUJKAS_clean_linker_0, # of connection points: 2
#     Edge 19, Type (0, 1), BuildingBlock: ZUJKAS_clean_linker_0, # of connection points: 2
#     Edge 20, Type (0, 1), BuildingBlock: ZUJKAS_clean_linker_0, # of connection points: 2
#     Edge 21, Type (0, 1), BuildingBlock: ZUJKAS_clean_linker_0, # of connection points: 2
#     Edge 22, Type (0, 1), BuildingBlock: ZUJKAS_clean_linker_0, # of connection points: 2
#     Edge 23, Type (0, 1), BuildingBlock: ZUJKAS_clean_linker_0, # of connection points: 2
#     Edge 24, Type (0, 1), BuildingBlock: ZUJKAS_clean_linker_0, # of connection points: 2
#     Edge 25, Type (0, 1), BuildingBlock: ZUJKAS_clean_linker_0, # of connection points: 2
#     Edge 26, Type (0, 1), BuildingBlock: ZUJKAS_clean_linker_0, # of connection points: 2
#     Edge 27, Type (0, 1), BuildingBlock: ZUJKAS_clean_linker_0, # of connection points: 2
#     Edge 28, Type (0, 1), BuildingBlock: ZUJKAS_clean_linker_0, # of connection points: 2
#     Edge 29, Type (0, 1), BuildingBlock: ZUJKAS_clean_linker_0, # of connection points: 2
#     Edge 30, Type (0, 1), BuildingBlock: ZUJKAS_clean_linker_0, # of connection points: 2
#     Edge 31, Type (0, 1), BuildingBlock: ZUJKAS_clean_linker_0, # of connection points: 2
#     Edge 32, Type (0, 1), BuildingBlock: ZUJKAS_clean_linker_0, # of connection points: 2
#     Edge 33, Type (0, 1), BuildingBlock: ZUJKAS_clean_linker_0, # of connection points: 2
#     Edge 34, Type (0, 1), BuildingBlock: ZUJKAS_clean_linker_0, # of connection points: 2
#     Edge 35, Type (0, 1), BuildingBlock: ZUJKAS_clean_linker_0, # of connection points: 2
# Relax obj value: 0.001
# Max RMSD: 0.099
# Mean RMSD: 0.062
data_MOF--net-nom--node1-KUFVIS_clean_sbu_0--node2-MIFKUJ_clean_linker_1--edge1-ZUJKAS_clean_linker_0
_symmetry_space_group_name_H-M    P1
_symmetry_Int_Tables_number       1
_symmetry_cell_setting            triclinic
loop_
_symmetry_equiv_pos_as_xyz
'x, y, z'
_cell_length_a     65.904656
_cell_length_b     66.571916
_cell_length_c     70.496052
_cell_angle_alpha  90.637285
_cell_angle_beta   90.636882
_cell_angle_gamma 120.00535
loop_
_atom_site_label
_atom_site_type_symbol
_atom_site_fract_x
_atom_site_fract_y
_atom_site_fract_z
_atom_type_partial_charge
H0 H 0.9856 0.49514 0.28529 0.0
H1 H 0.95837 0.48094 0.25805 0.0
H2 H 0.93192 0.52616 0.27453 0.0
H3 H 0.9594 0.54046 0.30171 0.0
H4 H 0.02082 0.54074 0.2935 0.0
H5 H 0.9481 0.48179 0.3206 0.0
H6 H 0.9066 0.46416 0.32813 0.0
H7 H 0.92164 0.52535 0.36113 0.0
H8 H 0.96279 0.54329 0.35273 0.0
H9 H 0.02732 0.57248 0.37201 0.0
H10 H 0.05395 0.58454 0.39947 0.0
H11 H 0.08733 0.5484 0.37584 0.0
H12 H 0.05987 0.53548 0.34884 0.0
H13 H 0.99502 0.53202 0.36018 0.0
H14 H 0.06492 0.59198 0.33447 0.0
H15 H 0.1058 0.61468 0.32504 0.0
H16 H 0.09684 0.55766 0.28922 0.0
H17 H 0.05605 0.53478 0.299 0.0
C18 C 0.9744 0.51873 0.29557 0.0
C19 C 0.97391 0.50197 0.28303 0.0
C20 C 0.95825 0.49377 0.26757 0.0
C21 C 0.94295 0.50238 0.2642 0.0
C22 C 0.94359 0.51931 0.27671 0.0
C23 C 0.95916 0.52738 0.29229 0.0
C24 C 0.9912 0.52737 0.31188 0.0
C25 C 0.01526 0.53856 0.30813 0.0
C26 C 0.98377 0.52532 0.33087 0.0
C27 C 0.95857 0.51405 0.33583 0.0
C28 C 0.9424 0.49152 0.32925 0.0
C29 C 0.91868 0.48134 0.33377 0.0
C30 C 0.91066 0.49336 0.34516 0.0
C31 C 0.92703 0.51573 0.35202 0.0
C32 C 0.95066 0.52595 0.34738 0.0
C33 C 0.04166 0.55321 0.35825 0.0
C34 C 0.04032 0.56709 0.37277 0.0
C35 C 0.05574 0.57417 0.38839 0.0
C36 C 0.07289 0.56754 0.38987 0.0
C37 C 0.07421 0.55364 0.37528 0.0
C38 C 0.05868 0.54646 0.3597 0.0
C39 C 0.02482 0.54528 0.34189 0.0
C40 C 1.00071 0.5342 0.3456 0.0
C41 C 0.03223 0.54795 0.32282 0.0
C42 C 0.05739 0.56149 0.31766 0.0
C43 C 0.07183 0.58415 0.32488 0.0
C44 C 0.0952 0.59716 0.31943 0.0
C45 C 0.10454 0.58795 0.30639 0.0
C46 C 0.09008 0.5653 0.29916 0.0
C47 C 0.06678 0.5522 0.30477 0.0
H48 H 0.43689 0.97379 0.51896 0.0
H49 H 0.41505 0.93346 0.52847 0.0
H50 H 0.46085 0.9184 0.49536 0.0
H51 H 0.48346 0.95923 0.48671 0.0
H52 H 0.48042 0.0056 0.52612 0.0
H53 H 0.43543 0.96613 0.469 0.0
H54 H 0.42302 0.93964 0.4414 0.0
H55 H 0.49393 0.97506 0.42118 0.0
H56 H 0.50645 1.00098 0.449 0.0
H57 H 0.53524 0.0658 0.46367 0.0
H58 H 0.55224 0.10584 0.45374 0.0
H59 H 0.50874 0.11626 0.49361 0.0
H60 H 0.49031 0.07567 0.50208 0.0
H61 H 0.49496 0.03145 0.45953 0.0
H62 H 0.54151 0.06817 0.51584 0.0
H63 H 0.55671 0.09427 0.54356 0.0
H64 H 0.48631 0.06509 0.56456 0.0
H65 H 0.47137 0.03877 0.53704 0.0
C66 C 0.46171 0.96959 0.50194 0.0
C67 C 0.44231 0.96184 0.51379 0.0
C68 C 0.42966 0.93865 0.51907 0.0
C69 C 0.43599 0.92251 0.51257 0.0
C70 C 0.45554 0.93032 0.50077 0.0
C71 C 0.46834 0.95365 0.49561 0.0
C72 C 0.47513 0.99449 0.49678 0.0
C73 C 0.48341 0.01124 0.51153 0.0
C74 C 0.47984 1.0019 0.47775 0.0
C75 C 0.47197 0.98541 0.46126 0.0
C76 C 0.4484 0.96796 0.45881 0.0
C77 C 0.44129 0.95289 0.44301 0.0
C78 C 0.45752 0.95535 0.42915 0.0
C79 C 0.48102 0.97291 0.43155 0.0
C80 C 0.48817 0.9877 0.44745 0.0
C81 C 0.51163 0.0676 0.48384 0.0
C82 C 0.52926 0.07667 0.47021 0.0
C83 C 0.53923 0.09979 0.4647 0.0
C84 C 0.53204 0.11458 0.47286 0.0
C85 C 0.51457 0.10548 0.48671 0.0
C86 C 0.50427 0.08224 0.4919 0.0
C87 C 0.50014 0.04259 0.48887 0.0
C88 C 0.49217 0.02582 0.47413 0.0
C89 C 0.49607 0.0351 0.50789 0.0
C90 C 0.50529 0.05157 0.52433 0.0
C91 C 0.52936 0.06753 0.52637 0.0
C92 C 0.53801 0.0825 0.54221 0.0
C93 C 0.52275 0.08178 0.55636 0.0
C94 C 0.49863 0.06587 0.55415 0.0
C95 C 0.49003 0.05087 0.53836 0.0
H96 H 0.51434 0.54137 0.70153 0.0
H97 H 0.50261 0.55719 0.728 0.0
H98 H 0.43045 0.51738 0.70873 0.0
H99 H 0.4422 0.50134 0.68248 0.0
H100 H 0.50304 0.49779 0.69225 0.0
H101 H 0.49172 0.5576 0.66244 0.0
H102 H 0.46832 0.57587 0.65493 0.0
H103 H 0.41607 0.51228 0.62727 0.0
H104 H 0.43926 0.49403 0.63513 0.0
H105 H 0.47422 0.46251 0.61518 0.0
H106 H 0.48765 0.44955 0.58799 0.0
H107 H 0.55916 0.49091 0.60866 0.0
H108 H 0.54549 0.50339 0.63601 0.0
H109 H 0.48366 0.50506 0.62542 0.0
H110 H 0.49343 0.44557 0.6518 0.0
H111 H 0.51143 0.42276 0.6613 0.0
H112 H 0.5616 0.48003 0.69656 0.0
H113 H 0.54389 0.50306 0.68668 0.0
C114 C 0.47922 0.52041 0.68984 0.0
C115 C 0.49598 0.53597 0.70305 0.0
C116 C 0.48926 0.54498 0.71818 0.0
C117 C 0.46562 0.53864 0.72038 0.0
C118 C 0.44883 0.5229 0.70723 0.0
C119 C 0.45554 0.51372 0.69221 0.0
C120 C 0.48657 0.51111 0.67369 0.0
C121 C 0.49921 0.49972 0.6776 0.0
C122 C 0.48064 0.51279 0.65464 0.0
C123 C 0.46712 0.52438 0.6495 0.0
C124 C 0.47519 0.5476 0.6548 0.0
C125 C 0.46188 0.55806 0.6504 0.0
C126 C 0.44026 0.54547 0.64062 0.0
C127 C 0.43245 0.52234 0.63508 0.0
C128 C 0.44579 0.51195 0.63941 0.0
C129 C 0.50881 0.48381 0.6277 0.0
C130 C 0.49278 0.46874 0.61386 0.0
C131 C 0.50052 0.46143 0.59826 0.0
C132 C 0.52452 0.46922 0.59606 0.0
C133 C 0.54053 0.48426 0.61002 0.0
C134 C 0.53275 0.49148 0.62566 0.0
C135 C 0.50058 0.4921 0.64393 0.0
C136 C 0.48773 0.50326 0.64004 0.0
C137 C 0.506 0.48985 0.66302 0.0
C138 C 0.51748 0.47623 0.66828 0.0
C139 C 0.50861 0.45345 0.66127 0.0
C140 C 0.51886 0.44036 0.66676 0.0
C141 C 0.53795 0.44961 0.67965 0.0
C142 C 0.54679 0.47237 0.68672 0.0
C143 C 0.53669 0.48555 0.68105 0.0
H144 H 0.02762 0.54732 0.78232 0.0
H145 H 0.05481 0.56125 0.75591 0.0
H146 H 0.0873 0.52304 0.77664 0.0
H147 H 0.05987 0.50889 0.80287 0.0
H148 H 0.99506 0.50399 0.79228 0.0
H149 H 0.06876 0.56597 0.82069 0.0
H150 H 0.11052 0.58396 0.82911 0.0
H151 H 0.0965 0.52278 0.86002 0.0
H152 H 0.05499 0.50496 0.85156 0.0
H153 H 0.99153 0.47697 0.87109 0.0
H154 H 0.96447 0.46458 0.89754 0.0
H155 H 0.93007 0.49921 0.87303 0.0
H156 H 0.9572 0.51158 0.84663 0.0
H157 H 0.02317 0.51747 0.85929 0.0
H158 H 0.95593 0.45394 0.83235 0.0
H159 H 0.91451 0.42878 0.8243 0.0
H160 H 0.91571 0.483 0.79036 0.0
H161 H 0.95718 0.50842 0.79894 0.0
C162 C 0.04187 0.52732 0.79476 0.0
C163 C 0.04053 0.54185 0.78113 0.0
C164 C 0.05606 0.54979 0.76603 0.0
C165 C 0.0733 0.54336 0.76424 0.0
C166 C 0.07448 0.52861 0.7778 0.0
C167 C 0.05879 0.52051 0.7928 0.0
C168 C 0.02546 0.51926 0.81091 0.0
C169 C 1.00122 0.5073 0.80693 0.0
C170 C 0.03346 0.52255 0.83005 0.0
C171 C 0.05875 0.53404 0.83538 0.0
C172 C 0.07473 0.55643 0.82922 0.0
C173 C 0.09858 0.56667 0.83402 0.0
C174 C 0.10683 0.55482 0.84527 0.0
C175 C 0.0907 0.53253 0.85158 0.0
C176 C 0.06695 0.52229 0.84672 0.0
C177 C 0.97633 0.49506 0.85676 0.0
C178 C 0.97823 0.48199 0.87145 0.0
C179 C 0.96276 0.47496 0.8866 0.0
C180 C 0.94507 0.48089 0.88741 0.0
C181 C 0.94325 0.49405 0.87271 0.0
C182 C 0.95878 0.50115 0.8576 0.0
C183 C 0.99282 0.50252 0.84066 0.0
C184 C 0.01702 0.51435 0.84463 0.0
C185 C 0.98482 0.49836 0.82153 0.0
C186 C 0.95962 0.48317 0.81642 0.0
C187 C 0.94725 0.46051 0.82331 0.0
C188 C 0.9236 0.44605 0.81855 0.0
C189 C 0.91179 0.45386 0.80666 0.0
C190 C 0.92422 0.47656 0.79972 0.0
C191 C 0.94796 0.49103 0.80448 0.0
H192 H 0.56586 0.06392 0.02376 0.0
H193 H 0.58845 0.10508 0.03268 0.0
H194 H 0.5454 0.11932 0.99492 0.0
H195 H 0.5219 0.07789 0.98673 0.0
H196 H 0.52334 0.03194 0.02788 0.0
H197 H 0.57015 0.06755 0.97173 0.0
H198 H 0.5839 0.0948 0.94548 0.0
H199 H 0.51254 0.06574 0.9248 0.0
H200 H 0.49891 0.03885 0.95123 0.0
H201 H 0.46904 0.96934 0.96475 0.0
H202 H 0.45267 0.9287 0.95482 0.0
H203 H 0.50197 0.92311 0.99211 0.0
H204 H 0.51859 0.96381 1.00172 0.0
H205 H 0.51042 0.00525 0.96061 0.0
H206 H 0.4644 0.96559 0.01408 0.0
H207 H 0.45055 0.93811 0.04002 0.0
H208 H 0.51935 0.97519 0.06667 0.0
H209 H 0.53337 1.00176 0.04019 0.0
C210 C 0.54234 0.06772 0.00432 0.0
C211 C 0.56102 0.07579 0.01755 0.0
C212 C 0.57396 0.0993 0.02263 0.0
C213 C 0.56869 0.1153 0.0144 0.0
C214 C 0.54992 0.10731 1.0013 0.0
C215 C 0.53661 0.08367 0.99654 0.0
C216 C 0.5291 0.04265 0.99877 0.0
C217 C 0.52075 0.02608 0.01317 0.0
C218 C 0.52493 0.03495 0.97955 0.0
C219 C 0.53348 0.0513 0.96353 0.0
C220 C 0.55748 0.06714 0.96158 0.0
C221 C 0.56532 0.0826 0.94651 0.0
C222 C 0.5493 0.0825 0.93309 0.0
C223 C 0.52529 0.0665 0.93504 0.0
C224 C 0.5175 0.05099 0.95004 0.0
C225 C 0.49485 0.96962 0.98418 0.0
C226 C 0.47634 0.95938 0.97078 0.0
C227 C 0.46703 0.93617 0.96509 0.0
C228 C 0.47598 0.9227 0.97275 0.0
C229 C 0.49447 0.93295 0.98619 0.0
C230 C 0.50394 0.95621 0.99171 0.0
C231 C 0.50523 0.99452 0.98974 0.0
C232 C 0.51293 0.01104 0.97534 0.0
C233 C 0.50878 0.00214 0.00898 0.0
C234 C 0.50005 0.98563 0.02499 0.0
C235 C 0.47659 0.96763 0.02539 0.0
C236 C 0.46861 0.95206 0.04038 0.0
C237 C 0.48382 0.95431 0.05549 0.0
C238 C 0.50721 0.97258 0.05516 0.0
C239 C 0.51521 0.98801 0.0401 0.0
H240 H 0.50204 0.49492 0.20061 0.0
H241 H 0.51388 0.47939 0.22712 0.0
H242 H 0.58601 0.51931 0.21015 0.0
H243 H 0.57413 0.53503 0.18381 0.0
H244 H 0.51302 0.53834 0.19193 0.0
H245 H 0.52719 0.47922 0.16364 0.0
H246 H 0.55107 0.46176 0.15565 0.0
H247 H 0.59821 0.52337 0.12515 0.0
H248 H 0.57509 0.54114 0.13411 0.0
H249 H 0.54167 0.57235 0.1161 0.0
H250 H 0.52844 0.58558 0.08895 0.0
H251 H 0.45683 0.54438 0.10709 0.0
H252 H 0.47031 0.53164 0.13443 0.0
H253 H 0.53194 0.52971 0.12552 0.0
H254 H 0.52337 0.58992 0.15219 0.0
H255 H 0.50491 0.61283 0.15991 0.0
H256 H 0.45337 0.55639 0.19284 0.0
H257 H 0.47165 0.53321 0.18471 0.0
C258 C 0.53713 0.5159 0.19004 0.0
C259 C 0.52042 0.50044 0.20266 0.0
C260 C 0.52721 0.49158 0.21782 0.0
C261 C 0.55087 0.498 0.22066 0.0
C262 C 0.56761 0.51373 0.20815 0.0
C263 C 0.56084 0.52274 0.19309 0.0
C264 C 0.52963 0.5248 0.17373 0.0
C265 C 0.51684 0.53613 0.17738 0.0
C266 C 0.53551 0.52281 0.15478 0.0
C267 C 0.54951 0.51166 0.14972 0.0
C268 C 0.54285 0.48907 0.15545 0.0
C269 C 0.55639 0.47899 0.15066 0.0
C270 C 0.5767 0.49117 0.13981 0.0
C271 C 0.58301 0.51362 0.13384 0.0
C272 C 0.56963 0.52374 0.13878 0.0
C273 C 0.50701 0.55111 0.12735 0.0
C274 C 0.52312 0.56618 0.11421 0.0
C275 C 0.5155 0.57365 0.09865 0.0
C276 C 0.49154 0.56602 0.09578 0.0
C277 C 0.47543 0.55091 0.109 0.0
C278 C 0.4831 0.54352 0.12461 0.0
C279 C 0.51518 0.54298 0.14371 0.0
C280 C 0.52804 0.5318 0.14007 0.0
C281 C 0.50995 0.54569 0.16268 0.0
C282 C 0.49868 0.55962 0.16757 0.0
C283 C 0.50786 0.58226 0.16081 0.0
C284 C 0.4973 0.59538 0.16525 0.0
C285 C 0.47757 0.58634 0.17686 0.0
C286 C 0.46861 0.56384 0.18391 0.0
C287 C 0.47904 0.55059 0.17928 0.0
Mn288 Mn 0.62573 0.38904 0.41196 0.0
Mn289 Mn 0.65342 0.44641 0.42248 0.0
C290 C 0.60929 0.40368 0.43292 0.0
C291 C 0.61915 0.3518 0.41795 0.0
C292 C 0.62629 0.42569 0.3856 0.0
O293 O 0.65898 0.40023 0.40303 0.0
O294 O 0.67605 0.43794 0.41184 0.0
C295 C 0.68398 0.44708 0.45387 0.0
N296 N 0.66725 0.4517 0.44732 0.0
C297 C 0.6654 0.46752 0.47769 0.0
C298 C 0.68272 0.46306 0.48473 0.0
C299 C 0.692 0.45275 0.47278 0.0
C300 C 0.65811 0.46151 0.45873 0.0
H301 H 0.69111 0.43911 0.44473 0.0
C302 C 0.67682 0.4206 0.40454 0.0
O303 O 0.61461 0.35714 0.40139 0.0
O304 O 0.62817 0.36824 0.43075 0.0
N305 N 0.63377 0.45711 0.43296 0.0
C306 C 0.61662 0.45952 0.42414 0.0
C307 C 0.60544 0.46948 0.43416 0.0
C308 C 0.6121 0.47699 0.45307 0.0
C309 C 0.62983 0.47438 0.46183 0.0
C310 C 0.64055 0.46459 0.45106 0.0
H311 H 0.6115 0.45388 0.40959 0.0
O312 O 0.5963 0.38389 0.42426 0.0
O313 O 0.63147 0.41423 0.42908 0.0
O314 O 0.61961 0.40454 0.38924 0.0
O315 O 0.63918 0.44255 0.39695 0.0
C316 C 0.63715 0.48091 0.48086 0.0
C317 C 0.65485 0.47739 0.48881 0.0
H318 H 0.68891 0.46734 0.49932 0.0
H319 H 0.7053 0.44916 0.47813 0.0
H320 H 0.59175 0.47141 0.42731 0.0
H321 H 0.60348 0.48473 0.46071 0.0
H322 H 0.62909 0.4884 0.48958 0.0
H323 H 0.66012 0.48221 0.50353 0.0
Mn324 Mn 0.25823 0.64887 0.57511 0.0
Mn325 Mn 0.22774 0.59156 0.56435 0.0
C326 C 0.22733 0.63461 0.55336 0.0
C327 C 0.28973 0.68593 0.56955 0.0
C328 C 0.2216 0.61238 0.60094 0.0
O329 O 0.27967 0.63727 0.58501 0.0
O330 O 0.25913 0.59992 0.57503 0.0
C331 C 0.25688 0.59038 0.53317 0.0
N332 N 0.23567 0.58601 0.5396 0.0
C333 C 0.21715 0.56993 0.50927 0.0
C334 C 0.23878 0.57413 0.50235 0.0
C335 C 0.25873 0.58445 0.51435 0.0
C336 C 0.21637 0.57615 0.52817 0.0
H337 H 0.27226 0.59837 0.54233 0.0
C338 C 0.27726 0.61709 0.58289 0.0
O339 O 0.27932 0.68076 0.58578 0.0
O340 O 0.28231 0.66941 0.55686 0.0
N341 N 0.19714 0.58111 0.55372 0.0
C342 C 0.17787 0.57926 0.56231 0.0
C343 C 0.15651 0.56962 0.55214 0.0
C344 C 0.15514 0.56187 0.53332 0.0
C345 C 0.17517 0.56387 0.5248 0.0
C346 C 0.19592 0.57338 0.5357 0.0
H347 H 0.17879 0.58514 0.57679 0.0
O348 O 0.23452 0.65446 0.56189 0.0
O349 O 0.23854 0.62381 0.55771 0.0
O350 O 0.23596 0.63358 0.59727 0.0
O351 O 0.21787 0.59553 0.58983 0.0
C352 C 0.17545 0.55711 0.50583 0.0
C353 C 0.19645 0.5602 0.49806 0.0
H354 H 0.2403 0.56967 0.48782 0.0
H355 H 0.27549 0.58784 0.50908 0.0
H356 H 0.14113 0.56819 0.5588 0.0
H357 H 0.13863 0.55448 0.52552 0.0
H358 H 0.15971 0.54983 0.49703 0.0
H359 H 0.19652 0.55523 0.48339 0.0
Mn360 Mn 0.6254 0.26352 0.74265 0.0
Mn361 Mn 0.65388 0.23433 0.73313 0.0
C362 C 0.60934 0.23258 0.72122 0.0
C363 C 0.61866 0.29415 0.73649 0.0
C364 C 0.6269 0.22822 0.76929 0.0
O365 O 0.65857 0.28552 0.75267 0.0
O366 O 0.67641 0.26566 0.74371 0.0
C367 C 0.6835 0.26315 0.70196 0.0
N368 N 0.66709 0.24209 0.70846 0.0
C369 C 0.66482 0.2236 0.67836 0.0
C370 C 0.6818 0.24507 0.67137 0.0
C371 C 0.69114 0.26494 0.68321 0.0
C372 C 0.65792 0.22289 0.69717 0.0
H373 H 0.69068 0.27847 0.71101 0.0
C374 C 0.67679 0.28351 0.75116 0.0
O375 O 0.61395 0.28411 0.75283 0.0
O376 O 0.62781 0.28677 0.72397 0.0
N377 N 0.63426 0.20379 0.72268 0.0
C378 C 0.61737 0.1846 0.73138 0.0
C379 C 0.60608 0.16328 0.72141 0.0
C380 C 0.61236 0.16189 0.70268 0.0
C381 C 0.62985 0.18185 0.69405 0.0
C382 C 0.64067 0.20256 0.70476 0.0
H383 H 0.61255 0.18553 0.74581 0.0
O384 O 0.59615 0.23935 0.72933 0.0
O385 O 0.63148 0.2442 0.72581 0.0
O386 O 0.6193 0.24193 0.76512 0.0
O387 O 0.64037 0.22472 0.75855 0.0
C388 C 0.63681 0.18207 0.67519 0.0
C389 C 0.65421 0.20295 0.66733 0.0
H390 H 0.68768 0.24654 0.6569 0.0
H391 H 0.70417 0.28159 0.67789 0.0
H392 H 0.59258 0.14796 0.72816 0.0
H393 H 0.6036 0.1454 0.69505 0.0
H394 H 0.6287 0.16634 0.66653 0.0
H395 H 0.65919 0.20296 0.65273 0.0
Mn396 Mn 0.39205 0.64878 0.9118 0.0
Mn397 Mn 0.36358 0.59159 0.92123 0.0
C398 C 0.4082 0.63419 0.93308 0.0
C399 C 0.39876 0.68618 0.91793 0.0
C400 C 0.39046 0.61145 0.88506 0.0
O401 O 0.35891 0.63776 0.90185 0.0
O402 O 0.34103 0.60042 0.91071 0.0
C403 C 0.33404 0.5918 0.95247 0.0
N404 N 0.35039 0.58679 0.9459 0.0
C405 C 0.35256 0.57101 0.97591 0.0
C406 C 0.33564 0.57588 0.98297 0.0
C407 C 0.32639 0.58638 0.97121 0.0
C408 C 0.3595 0.57681 0.95712 0.0
H409 H 0.32692 0.59991 0.94348 0.0
C410 C 0.34068 0.61777 0.90332 0.0
O411 O 0.40342 0.6804 0.90158 0.0
O412 O 0.38974 0.6701 0.93051 0.0
N413 N 0.38315 0.58063 0.93158 0.0
C414 C 0.39997 0.57789 0.92282 0.0
C415 C 0.41109 0.56773 0.93267 0.0
C416 C 0.40472 0.56038 0.95135 0.0
C417 C 0.38736 0.56335 0.96007 0.0
C418 C 0.37668 0.57333 0.94947 0.0
H419 H 0.40487 0.58339 0.90843 0.0
O420 O 0.42136 0.65386 0.92499 0.0
O421 O 0.38603 0.62379 0.92859 0.0
O422 O 0.39795 0.63276 0.88926 0.0
O423 O 0.3771 0.59482 0.8958 0.0
C424 C 0.38037 0.55701 0.97891 0.0
C425 C 0.36306 0.56093 0.98685 0.0
H426 H 0.32974 0.57178 0.99742 0.0
H427 H 0.3134 0.59028 0.97658 0.0
H428 H 0.42451 0.56553 0.92586 0.0
H429 H 0.4133 0.55248 0.95886 0.0
H430 H 0.3884 0.54937 0.98749 0.0
H431 H 0.35806 0.55627 1.00142 0.0
Mn432 Mn 0.76076 0.39912 0.07739 0.0
Mn433 Mn 0.79053 0.3707 0.08489 0.0
C434 C 0.79212 0.41427 0.0987 0.0
C435 C 0.72994 0.4057 0.08422 0.0
C436 C 0.79738 0.39994 0.05032 0.0
O437 O 0.73835 0.36682 0.06661 0.0
O438 O 0.75947 0.34944 0.0728 0.0
C439 C 0.75967 0.33822 0.11383 0.0
N440 N 0.78135 0.3549 0.10842 0.0
C441 C 0.79868 0.35281 0.13802 0.0
C442 C 0.77656 0.33551 0.14386 0.0
C443 C 0.75696 0.32824 0.13174 0.0
C444 C 0.8003 0.3621 0.12001 0.0
H445 H 0.74457 0.33259 0.10455 0.0
C446 C 0.74109 0.34916 0.0663 0.0
O447 O 0.74025 0.41111 0.06797 0.0
O448 O 0.73717 0.39599 0.09631 0.0
N449 N 0.82085 0.38874 0.0966 0.0
C450 C 0.84069 0.40644 0.08922 0.0
C451 C 0.86186 0.41585 0.09964 0.0
C452 C 0.86244 0.40684 0.11743 0.0
C453 C 0.84179 0.38873 0.12478 0.0
C454 C 0.82127 0.37986 0.11365 0.0
H455 H 0.84038 0.41326 0.07546 0.0
O456 O 0.78512 0.42748 0.0911 0.0
O457 O 0.78039 0.39238 0.09375 0.0
O458 O 0.78253 0.40614 0.0547 0.0
O459 O 0.80156 0.38671 0.06061 0.0
C460 C 0.84069 0.37932 0.1428 0.0
C461 C 0.81912 0.36145 0.14945 0.0
H462 H 0.77439 0.3278 0.15768 0.0
H463 H 0.73981 0.31497 0.13618 0.0
H464 H 0.87773 0.42992 0.09393 0.0
H465 H 0.87883 0.41402 0.12538 0.0
H466 H 0.85626 0.38591 0.15175 0.0
H467 H 0.81843 0.35457 0.16343 0.0
Mn468 Mn 0.3796 0.77171 0.24482 0.0
Mn469 Mn 0.43757 0.80113 0.25528 0.0
C470 C 0.39465 0.80272 0.26621 0.0
C471 C 0.34197 0.74099 0.25054 0.0
C472 C 0.41665 0.80745 0.21875 0.0
O473 O 0.39067 0.74984 0.23508 0.0
O474 O 0.42852 0.76992 0.24465 0.0
C475 C 0.43806 0.77187 0.2864 0.0
N476 N 0.44301 0.79304 0.27998 0.0
C477 C 0.46026 0.81128 0.31011 0.0
C478 C 0.45549 0.78971 0.31702 0.0
C479 C 0.44427 0.7699 0.30513 0.0
C480 C 0.45362 0.81216 0.29135 0.0
H481 H 0.42944 0.75661 0.27731 0.0
C482 C 0.41096 0.75199 0.23703 0.0
O483 O 0.34734 0.75102 0.2342 0.0
O484 O 0.35863 0.74837 0.26328 0.0
N485 N 0.44887 0.83154 0.26592 0.0
C486 C 0.45121 0.85083 0.25737 0.0
C487 C 0.46166 0.87204 0.26748 0.0
C488 C 0.46984 0.87328 0.28619 0.0
C489 C 0.46743 0.85324 0.29464 0.0
C490 C 0.4569 0.8326 0.28385 0.0
H491 H 0.44512 0.85002 0.24295 0.0
O492 O 0.37456 0.79572 0.25777 0.0
O493 O 0.40518 0.79118 0.26207 0.0
O494 O 0.39522 0.79345 0.22253 0.0
O495 O 0.43371 0.81105 0.22979 0.0
C496 C 0.47485 0.85289 0.3134 0.0
C497 C 0.47112 0.8319 0.32117 0.0
H498 H 0.46024 0.78812 0.33145 0.0
H499 H 0.44044 0.75317 0.31038 0.0
H500 H 0.46346 0.88743 0.26087 0.0
H501 H 0.47788 0.88968 0.29393 0.0
H502 H 0.48327 0.86861 0.32204 0.0
H503 H 0.47657 0.83179 0.3357 0.0
H504 H 0.12068 0.59332 0.27017 0.0
H505 H 0.16107 0.61744 0.25961 0.0
H506 H 0.18419 0.63895 0.3175 0.0
H507 H 0.14385 0.61482 0.3282 0.0
H508 H 0.19126 0.66899 0.26871 0.0
H509 H 0.22754 0.61434 0.29432 0.0
H510 H 0.19663 0.6027 0.28945 0.0
H511 H 0.20989 0.61984 0.31056 0.0
C512 C 0.1344 0.60299 0.28067 0.0
C513 C 0.1291 0.60213 0.30003 0.0
C514 C 0.15742 0.61683 0.2746 0.0
C515 C 0.17557 0.6298 0.2878 0.0
C516 C 0.17041 0.6289 0.30713 0.0
H517 H 0.32495 0.72228 0.28498 0.0
H518 H 0.28441 0.69491 0.29296 0.0
C519 C 0.14737 0.61524 0.3132 0.0
C520 C 0.19984 0.64485 0.28131 0.0
H521 H 0.25444 0.65096 0.28213 0.0
C522 C 0.20509 0.66504 0.2715 0.0
C523 C 0.21777 0.63963 0.28512 0.0
C524 C 0.2128 0.61789 0.29533 0.0
C525 C 0.22804 0.68056 0.26581 0.0
C526 C 0.24606 0.67533 0.26954 0.0
C527 C 0.24065 0.65494 0.2792 0.0
C528 C 0.2708 0.69124 0.26427 0.0
C529 C 0.23286 0.70279 0.2565 0.0
C530 C 0.27682 0.69794 0.24539 0.0
C531 C 0.30002 0.71382 0.2408 0.0
C532 C 0.3177 0.72298 0.25497 0.0
C533 C 0.31177 0.71557 0.27372 0.0
C534 C 0.28857 0.6999 0.27832 0.0
H535 H 0.2189 0.70707 0.25943 0.0
H536 H 0.24993 0.71758 0.26145 0.0
H537 H 0.23347 0.70081 0.24091 0.0
H538 H 0.26355 0.69102 0.23421 0.0
H539 H 0.30407 0.71904 0.2262 0.0
H540 H 0.57705 0.1445 0.46119 0.0
H541 H 0.59315 0.18406 0.45022 0.0
H542 H 0.52732 0.18095 0.46083 0.0
H543 H 0.51039 0.14073 0.47016 0.0
H544 H 0.54314 0.20116 0.42911 0.0
H545 H 0.61658 0.2414 0.48144 0.0
H546 H 0.61787 0.21983 0.4669 0.0
H547 H 0.59375 0.2115 0.48272 0.0
C548 C 0.5658 0.15201 0.46097 0.0
C549 C 0.54233 0.13919 0.46673 0.0
C550 C 0.57524 0.17491 0.455 0.0
C551 C 0.56169 0.18582 0.45512 0.0
C552 C 0.53827 0.17307 0.46075 0.0
H553 H 0.61413 0.33344 0.45303 0.0
H554 H 0.60056 0.29316 0.46097 0.0
C555 C 0.52867 0.15005 0.46635 0.0
C556 C 0.5716 0.21029 0.44901 0.0
H557 H 0.61697 0.26552 0.4567 0.0
C558 C 0.55924 0.21524 0.43521 0.0
C559 C 0.59249 0.22879 0.4571 0.0
C560 C 0.6058 0.22517 0.473 0.0
C561 C 0.567 0.23804 0.4294 0.0
C562 C 0.58833 0.25643 0.43699 0.0
C563 C 0.60078 0.25146 0.45069 0.0
C564 C 0.59736 0.2811 0.43184 0.0
C565 C 0.5517 0.24216 0.41575 0.0
C566 C 0.60057 0.28801 0.4128 0.0
C567 C 0.60789 0.31104 0.4082 0.0
C568 C 0.61279 0.32773 0.42258 0.0
C569 C 0.61055 0.32101 0.44162 0.0
C570 C 0.60278 0.29794 0.44618 0.0
H571 H 0.53322 0.22775 0.41585 0.0
H572 H 0.55196 0.25859 0.41925 0.0
H573 H 0.5582 0.24324 0.40114 0.0
H574 H 0.59729 0.27558 0.40147 0.0
H575 H 0.6097 0.31578 0.39341 0.0
H576 H 0.39291 0.52633 0.64408 0.0
H577 H 0.36869 0.54322 0.6353 0.0
H578 H 0.43042 0.60603 0.61881 0.0
H579 H 0.4548 0.58908 0.62724 0.0
H580 H 0.37139 0.58584 0.64852 0.0
H581 H 0.38622 0.58446 0.57103 0.0
H582 H 0.39257 0.5678 0.58765 0.0
H583 H 0.41192 0.59852 0.58617 0.0
C584 C 0.40134 0.5437 0.6385 0.0
C585 C 0.42576 0.55628 0.63618 0.0
C586 C 0.3875 0.55339 0.63363 0.0
C587 C 0.39774 0.57577 0.62624 0.0
C588 C 0.42216 0.58863 0.62431 0.0
H589 H 0.31673 0.64628 0.60425 0.0
H590 H 0.34774 0.63878 0.61525 0.0
C591 C 0.43606 0.57898 0.62926 0.0
C592 C 0.38263 0.58521 0.62009 0.0
H593 H 0.36159 0.59867 0.58065 0.0
C594 C 0.3694 0.5889 0.63372 0.0
C595 C 0.37998 0.58898 0.60074 0.0
C596 C 0.39326 0.58462 0.58546 0.0
C597 C 0.35327 0.59591 0.62846 0.0
C598 C 0.35043 0.59941 0.60909 0.0
C599 C 0.36397 0.59612 0.5955 0.0
C600 C 0.33205 0.60445 0.60242 0.0
C601 C 0.33871 0.59863 0.64353 0.0
C602 C 0.3132 0.58779 0.59136 0.0
C603 C 0.29551 0.59196 0.58509 0.0
C604 C 0.29634 0.61302 0.58962 0.0
C605 C 0.31547 0.62986 0.60054 0.0
C606 C 0.33316 0.62558 0.6069 0.0
H607 H 0.3405 0.5919 0.65742 0.0
H608 H 0.34439 0.61729 0.64545 0.0
H609 H 0.31992 0.58941 0.63913 0.0
H610 H 0.31205 0.57139 0.58771 0.0
H611 H 0.2812 0.57862 0.57662 0.0
H612 H 0.89031 0.40785 0.79673 0.0
H613 H 0.84898 0.38174 0.78876 0.0
H614 H 0.83501 0.43799 0.79664 0.0
H615 H 0.87646 0.46431 0.80469 0.0
H616 H 0.81027 0.37026 0.81115 0.0
H617 H 0.80549 0.41146 0.7443 0.0
H618 H 0.833 0.41792 0.75534 0.0
H619 H 0.81648 0.43037 0.76484 0.0
C620 C 0.87846 0.41468 0.79684 0.0
C621 C 0.8867 0.43818 0.80136 0.0
C622 C 0.85485 0.39975 0.79221 0.0
C623 C 0.83896 0.40796 0.7919 0.0
C624 C 0.84706 0.43139 0.79641 0.0
H625 H 0.68786 0.32729 0.76364 0.0
H626 H 0.72623 0.35868 0.77495 0.0
C627 C 0.87074 0.4464 0.80102 0.0
C628 C 0.81386 0.39166 0.7873 0.0
H629 H 0.77047 0.37912 0.75437 0.0
C630 C 0.80154 0.37228 0.79879 0.0
C631 C 0.80244 0.3944 0.77124 0.0
C632 C 0.81501 0.41454 0.75809 0.0
C633 C 0.77828 0.35532 0.79446 0.0
C634 C 0.76713 0.35766 0.77807 0.0
C635 C 0.77911 0.37743 0.76693 0.0
C636 C 0.7438 0.33883 0.77146 0.0
C637 C 0.76586 0.33489 0.80735 0.0
C638 C 0.74111 0.31744 0.76557 0.0
C639 C 0.71937 0.29959 0.75906 0.0
C640 C 0.69975 0.30269 0.75828 0.0
C641 C 0.70253 0.32423 0.76415 0.0
C642 C 0.72443 0.3422 0.77057 0.0
H643 H 0.77424 0.33869 0.8217 0.0
H644 H 0.74715 0.32984 0.80878 0.0
H645 H 0.7666 0.31986 0.80119 0.0
H646 H 0.75593 0.31461 0.76587 0.0
H647 H 0.71801 0.28331 0.75464 0.0
H648 H 0.46588 0.90486 0.93652 0.0
H649 H 0.45083 0.86447 0.92623 0.0
H650 H 0.44961 0.84482 0.98444 0.0
H651 H 0.46456 0.88514 0.99487 0.0
H652 H 0.47368 0.83628 0.93615 0.0
H653 H 0.38201 0.79926 0.96051 0.0
H654 H 0.40053 0.82975 0.95579 0.0
H655 H 0.40499 0.81783 0.97707 0.0
C656 C 0.46216 0.89189 0.94714 0.0
C657 C 0.46635 0.89815 0.96651 0.0
C658 C 0.45369 0.86888 0.94123 0.0
C659 C 0.44895 0.8517 0.95459 0.0
C660 C 0.45297 0.85783 0.97394 0.0
H661 H 0.39707 0.70428 0.95238 0.0
H662 H 0.40908 0.74457 0.96035 0.0
C663 C 0.46165 0.88087 0.97985 0.0
C664 C 0.44052 0.82746 0.94829 0.0
H665 H 0.39316 0.77275 0.94903 0.0
C666 C 0.45605 0.82236 0.93882 0.0
C667 C 0.41757 0.80944 0.95195 0.0
C668 C 0.40016 0.81422 0.96178 0.0
C669 C 0.44941 0.79951 0.93331 0.0
C670 C 0.42636 0.7814 0.9369 0.0
C671 C 0.41078 0.78662 0.94623 0.0
C672 C 0.41832 0.75681 0.93169 0.0
C673 C 0.46743 0.79493 0.92435 0.0
C674 C 0.41903 0.75013 0.91284 0.0
C675 C 0.41237 0.72711 0.90827 0.0
C676 C 0.40452 0.71026 0.92242 0.0
C677 C 0.40305 0.71683 0.94115 0.0
C678 C 0.40991 0.73987 0.94573 0.0
H679 H 0.48557 0.80926 0.92742 0.0
H680 H 0.46585 0.77849 0.92944 0.0
H681 H 0.46469 0.79347 0.90872 0.0
H682 H 0.42484 0.76275 0.90167 0.0
H683 H 0.4135 0.72254 0.89368 0.0
H684 H 0.62459 0.51265 0.13797 0.0
H685 H 0.64839 0.49597 0.12797 0.0
H686 H 0.58615 0.42886 0.12114 0.0
H687 H 0.562 0.44569 0.13007 0.0
H688 H 0.65481 0.46317 0.14313 0.0
H689 H 0.61645 0.4346 0.07073 0.0
H690 H 0.61052 0.45336 0.08541 0.0
H691 H 0.59521 0.42256 0.08909 0.0
C692 C 0.61585 0.49442 0.13404 0.0
C693 C 0.59128 0.48062 0.13462 0.0
C694 C 0.62954 0.48485 0.12848 0.0
C695 C 0.61906 0.46124 0.12344 0.0
C696 C 0.59461 0.44724 0.1245 0.0
H697 H 0.70162 0.39168 0.11504 0.0
H698 H 0.67348 0.40356 0.12443 0.0
C699 C 0.58084 0.45685 0.1299 0.0
C700 C 0.6339 0.45139 0.1174 0.0
H701 H 0.64317 0.42273 0.08103 0.0
C702 C 0.65226 0.45433 0.12955 0.0
C703 C 0.63079 0.44013 0.09956 0.0
C704 C 0.61233 0.43765 0.08535 0.0
C705 C 0.66758 0.44637 0.12438 0.0
C706 C 0.66404 0.4345 0.10678 0.0
C707 C 0.64571 0.43158 0.09461 0.0
C708 C 0.67976 0.42581 0.10042 0.0
C709 C 0.68785 0.45147 0.13759 0.0
C710 C 0.69182 0.43344 0.08333 0.0
C711 C 0.70761 0.42635 0.07775 0.0
C712 C 0.71171 0.41154 0.08922 0.0
C713 C 0.69904 0.4033 0.106 0.0
C714 C 0.68307 0.41021 0.11146 0.0
H715 H 0.69187 0.46606 0.14759 0.0
H716 H 0.68328 0.43591 0.14612 0.0
H717 H 0.7039 0.45585 0.12955 0.0
H718 H 0.68946 0.44537 0.07451 0.0
H719 H 0.71708 0.43298 0.06473 0.0
H720 H 0.38842 0.89585 0.51649 0.0
H721 H 0.36605 0.85598 0.52718 0.0
H722 H 0.42949 0.85237 0.53103 0.0
H723 H 0.45227 0.89278 0.52133 0.0
H724 H 0.35978 0.81665 0.51163 0.0
H725 H 0.40231 0.8293 0.58249 0.0
H726 H 0.40677 0.85327 0.56796 0.0
H727 H 0.42251 0.83817 0.56332 0.0
C728 C 0.39775 0.88677 0.51991 0.0
C729 C 0.42225 0.89774 0.51824 0.0
C730 C 0.38486 0.86385 0.52587 0.0
C731 C 0.3961 0.85126 0.53027 0.0
C732 C 0.42047 0.86189 0.52818 0.0
H733 H 0.31797 0.70032 0.53875 0.0
H734 H 0.34516 0.74017 0.52961 0.0
C735 C 0.43344 0.88492 0.52234 0.0
C736 C 0.38208 0.82685 0.53659 0.0
H737 H 0.37577 0.79041 0.5727 0.0
C738 C 0.36329 0.81093 0.52499 0.0
C739 C 0.38643 0.81944 0.55416 0.0
C740 C 0.40545 0.83597 0.5678 0.0
C741 C 0.34878 0.78785 0.53041 0.0
C742 C 0.35357 0.78024 0.54769 0.0
C743 C 0.37229 0.79617 0.55936 0.0
C744 C 0.33885 0.75599 0.55414 0.0
C745 C 0.32803 0.77208 0.51779 0.0
C746 C 0.32719 0.75154 0.57148 0.0
C747 C 0.3119 0.72871 0.57691 0.0
C748 C 0.30796 0.70992 0.56506 0.0
C749 C 0.32043 0.71441 0.54811 0.0
C750 C 0.33587 0.73721 0.54279 0.0
H751 H 0.32307 0.78209 0.50816 0.0
H752 H 0.33261 0.76115 0.50886 0.0
H753 H 0.31256 0.76047 0.52631 0.0
H754 H 0.32935 0.76575 0.58055 0.0
H755 H 0.30258 0.72583 0.59007 0.0
H756 H 0.54966 0.44442 0.71588 0.0
H757 H 0.5654 0.41986 0.72653 0.0
H758 H 0.56481 0.39778 0.66873 0.0
H759 H 0.54911 0.42231 0.65793 0.0
H760 H 0.54215 0.36791 0.71723 0.0
H761 H 0.63352 0.42148 0.69225 0.0
H762 H 0.61498 0.43366 0.69724 0.0
H763 H 0.61014 0.41664 0.67601 0.0
C764 C 0.55314 0.43453 0.70542 0.0
C765 C 0.5482 0.43532 0.68606 0.0
C766 C 0.562 0.42045 0.71154 0.0
C767 C 0.5664 0.40718 0.69839 0.0
C768 C 0.56169 0.40805 0.67906 0.0
H769 H 0.62037 0.31292 0.70195 0.0
H770 H 0.60788 0.34068 0.69368 0.0
C771 C 0.55261 0.42195 0.67294 0.0
C772 C 0.57515 0.39178 0.70494 0.0
H773 H 0.62301 0.38474 0.70453 0.0
C774 C 0.55986 0.3716 0.71459 0.0
C775 C 0.59819 0.39665 0.70132 0.0
C776 C 0.61532 0.41834 0.69124 0.0
C777 C 0.56683 0.35577 0.72034 0.0
C778 C 0.58998 0.36065 0.71682 0.0
C779 C 0.60532 0.38102 0.7073 0.0
C780 C 0.59835 0.34445 0.72224 0.0
C781 C 0.54902 0.33357 0.72948 0.0
C782 C 0.59766 0.33766 0.74114 0.0
C783 C 0.60458 0.32156 0.74589 0.0
C784 C 0.6127 0.31226 0.73187 0.0
C785 C 0.61418 0.31974 0.71309 0.0
C786 C 0.60705 0.33562 0.70834 0.0
H787 H 0.5308 0.32957 0.72633 0.0
H788 H 0.55086 0.31866 0.72458 0.0
H789 H 0.55174 0.33543 0.7451 0.0
H790 H 0.59164 0.3447 0.75222 0.0
H791 H 0.60342 0.3163 0.7605 0.0
H792 H 0.1446 0.5791 0.8224 0.0
H793 H 0.18611 0.59437 0.83045 0.0
H794 H 0.16771 0.56919 0.88734 0.0
H795 H 0.12634 0.55446 0.8796 0.0
H796 H 0.2071 0.61448 0.88551 0.0
H797 H 0.21437 0.55176 0.83724 0.0
H798 H 0.20388 0.56931 0.82651 0.0
H799 H 0.18649 0.5484 0.84388 0.0
C800 C 0.14943 0.57711 0.8367 0.0
C801 C 0.13214 0.56538 0.85032 0.0
C802 C 0.17313 0.58565 0.84122 0.0
C803 C 0.17993 0.5826 0.85941 0.0
C804 C 0.16281 0.57161 0.87319 0.0
H805 H 0.29826 0.57764 0.90324 0.0
H806 H 0.26056 0.57144 0.89169 0.0
C807 C 0.13917 0.56305 0.86869 0.0
C808 C 0.20475 0.5901 0.86407 0.0
H809 H 0.24831 0.57807 0.85458 0.0
C810 C 0.21623 0.60671 0.87865 0.0
C811 C 0.21648 0.57972 0.85519 0.0
C812 C 0.2047 0.56117 0.83993 0.0
C813 C 0.23903 0.61297 0.88479 0.0
C814 C 0.25069 0.60249 0.87599 0.0
C815 C 0.23936 0.58618 0.8612 0.0
C816 C 0.2739 0.6068 0.88287 0.0
C817 C 0.25013 0.63005 0.90114 0.0
C818 C 0.29402 0.62877 0.88163 0.0
C819 C 0.31577 0.63245 0.88825 0.0
C820 C 0.31776 0.61417 0.89619 0.0
C821 C 0.2975 0.59217 0.89726 0.0
C822 C 0.27587 0.58854 0.89063 0.0
H823 H 0.23724 0.63329 0.90858 0.0
H824 H 0.25828 0.62368 0.91155 0.0
H825 H 0.26414 0.64682 0.89571 0.0
H826 H 0.29292 0.64302 0.87544 0.0
H827 H 0.33097 0.64959 0.88713 0.0
H828 H 0.57883 0.13542 0.04965 0.0
H829 H 0.60465 0.17644 0.05802 0.0
H830 H 0.61817 0.19215 0.99867 0.0
H831 H 0.59142 0.15129 0.9903 0.0
H832 H 0.6488 0.20127 0.05367 0.0
H833 H 0.60827 0.24393 0.01426 0.0
H834 H 0.5936 0.21292 0.01703 0.0
H835 H 0.61481 0.22656 0.99868 0.0
C836 C 0.58706 0.14776 0.03842 0.0
C837 C 0.5831 0.1403 0.01934 0.0
C838 C 0.6018 0.17117 0.04318 0.0
C839 C 0.61316 0.18757 0.02899 0.0
C840 C 0.6091 0.18008 0.00988 0.0
H841 H 0.74484 0.31394 0.05004 0.0
H842 H 0.71323 0.27551 0.04031 0.0
C843 C 0.59396 0.1567 0.0051 0.0
C844 C 0.63064 0.21202 0.03432 0.0
H845 H 0.6481 0.26863 0.02503 0.0
C846 C 0.64843 0.21596 0.04752 0.0
C847 C 0.6301 0.23131 0.02658 0.0
C848 C 0.6105 0.22847 0.01352 0.0
C849 C 0.66588 0.23847 0.05289 0.0
C850 C 0.66622 0.25773 0.04423 0.0
C851 C 0.64811 0.25389 0.03141 0.0
C852 C 0.68531 0.28191 0.04832 0.0
C853 C 0.68351 0.24129 0.06808 0.0
C854 C 0.68019 0.29886 0.05492 0.0
C855 C 0.69832 0.32114 0.06004 0.0
C856 C 0.72185 0.32673 0.05882 0.0
C857 C 0.72688 0.31003 0.05144 0.0
C858 C 0.70881 0.28799 0.04601 0.0
H859 H 0.67639 0.22599 0.07742 0.0
H860 H 0.69934 0.24288 0.06129 0.0
H861 H 0.68882 0.25702 0.07706 0.0
H862 H 0.66218 0.29465 0.05666 0.0
H863 H 0.69391 0.33365 0.06568 0.0
H864 H 0.46735 0.61261 0.15333 0.0
H865 H 0.45228 0.63836 0.16204 0.0
H866 H 0.44883 0.61857 0.22047 0.0
H867 H 0.46356 0.5925 0.2118 0.0
H868 H 0.41044 0.6218 0.20951 0.0
H869 H 0.49246 0.70042 0.18872 0.0
H870 H 0.47868 0.67929 0.16988 0.0
H871 H 0.49022 0.67238 0.19047 0.0
C872 C 0.46336 0.61375 0.16803 0.0
C873 C 0.46687 0.60071 0.18192 0.0
C874 C 0.45479 0.62849 0.17299 0.0
C875 C 0.44989 0.63077 0.19197 0.0
C876 C 0.45257 0.61715 0.20575 0.0
H877 H 0.44825 0.74624 0.2453 0.0
H878 H 0.45554 0.7158 0.23405 0.0
C879 C 0.46095 0.60224 0.20077 0.0
C880 C 0.44278 0.64792 0.19762 0.0
H881 H 0.46126 0.70587 0.19813 0.0
C882 C 0.42151 0.64018 0.207 0.0
C883 C 0.45738 0.67195 0.19453 0.0
C884 C 0.48106 0.68159 0.18552 0.0
C885 C 0.41449 0.65582 0.21344 0.0
C886 C 0.42894 0.6798 0.21009 0.0
C887 C 0.4501 0.68747 0.20057 0.0
C888 C 0.42342 0.69754 0.21738 0.0
C889 C 0.39207 0.64662 0.22432 0.0
C890 C 0.40282 0.69744 0.21182 0.0
C891 C 0.39845 0.71487 0.21838 0.0
C892 C 0.41478 0.73288 0.23041 0.0
C893 C 0.43532 0.73279 0.23596 0.0
C894 C 0.43954 0.71534 0.22954 0.0
H895 H 0.38606 0.62889 0.22961 0.0
H896 H 0.39433 0.6582 0.2366 0.0
H897 H 0.37811 0.64578 0.21484 0.0
H898 H 0.39032 0.68414 0.20214 0.0
H899 H 0.38252 0.71447 0.21374 0.0
H900 H 0.88442 0.51475 0.34748 0.0
H901 H 0.84357 0.49791 0.35652 0.0
H902 H 0.83811 0.43088 0.36148 0.0
H903 H 0.87941 0.44784 0.35337 0.0
H904 H 0.80379 0.46391 0.33968 0.0
H905 H 0.81364 0.43743 0.41216 0.0
H906 H 0.83849 0.45633 0.39807 0.0
H907 H 0.82292 0.42556 0.39342 0.0
C908 C 0.8747 0.49649 0.35077 0.0
C909 C 0.88539 0.48275 0.34991 0.0
C910 C 0.85124 0.48683 0.35577 0.0
C911 C 0.83785 0.46321 0.36 0.0
C912 C 0.84822 0.44926 0.35869 0.0
H913 H 0.68952 0.38856 0.39366 0.0
H914 H 0.72768 0.3964 0.3818 0.0
C915 C 0.87178 0.45895 0.3538 0.0
C916 C 0.81304 0.4534 0.36565 0.0
H917 H 0.77549 0.42795 0.40226 0.0
C918 C 0.79759 0.45592 0.35332 0.0
C919 C 0.80491 0.44292 0.38345 0.0
C920 C 0.82086 0.44053 0.39764 0.0
C921 C 0.77446 0.44871 0.35846 0.0
C922 C 0.76656 0.43877 0.37638 0.0
C923 C 0.78165 0.43549 0.38847 0.0
C924 C 0.74344 0.43371 0.38347 0.0
C925 C 0.75866 0.45211 0.34483 0.0
C926 C 0.73986 0.45211 0.38849 0.0
C927 C 0.71829 0.44776 0.39538 0.0
C928 C 0.69972 0.42486 0.39732 0.0
C929 C 0.70338 0.40639 0.39228 0.0
C930 C 0.72515 0.41081 0.38553 0.0
H931 H 0.7656 0.45543 0.33021 0.0
H932 H 0.74079 0.43664 0.34449 0.0
H933 H 0.75716 0.46723 0.34968 0.0
H934 H 0.75385 0.4699 0.38715 0.0
H935 H 0.71618 0.46244 0.39907 0.0
H936 H 0.08855 0.54212 0.40912 0.0
H937 H 0.11496 0.55419 0.43679 0.0
H938 H 0.11966 0.62117 0.43686 0.0
H939 H 0.09413 0.60964 0.40867 0.0
H940 H 0.16226 0.6248 0.44205 0.0
H941 H 0.09836 0.55992 0.49098 0.0
H942 H 0.10257 0.54722 0.46988 0.0
H943 H 0.0898 0.56554 0.46813 0.0
C944 C 0.09537 0.55951 0.41488 0.0
C945 C 0.08909 0.57486 0.40667 0.0
C946 C 0.11022 0.56627 0.43088 0.0
C947 C 0.11891 0.58842 0.43913 0.0
C948 C 0.11298 0.60391 0.43083 0.0
H949 H 0.18448 0.63124 0.55162 0.0
H950 H 0.15836 0.62117 0.52363 0.0
C951 C 0.09823 0.59721 0.41479 0.0
C952 C 0.13453 0.59565 0.45621 0.0
H953 H 0.13787 0.5815 0.50209 0.0
C954 C 0.15691 0.61537 0.4552 0.0
C955 C 0.12741 0.58354 0.47345 0.0
C956 C 0.10314 0.56302 0.4758 0.0
C957 C 0.17251 0.62308 0.47085 0.0
C958 C 0.16571 0.61044 0.48786 0.0
C959 C 0.14318 0.59099 0.48898 0.0
C960 C 0.1817 0.61705 0.50466 0.0
C961 C 0.19595 0.64492 0.4691 0.0
C962 C 0.20343 0.61805 0.50328 0.0
C963 C 0.21823 0.62378 0.5192 0.0
C964 C 0.21131 0.62801 0.53684 0.0
C965 C 0.18988 0.62755 0.53819 0.0
C966 C 0.17502 0.62181 0.52225 0.0
H967 H 0.19563 0.65605 0.4576 0.0
H968 H 0.20131 0.65519 0.48259 0.0
H969 H 0.20942 0.64019 0.46559 0.0
H970 H 0.20881 0.61409 0.48996 0.0
H971 H 0.23505 0.62476 0.51776 0.0
H972 H 0.55771 0.12743 0.55844 0.0
H973 H 0.57286 0.15263 0.5867 0.0
H974 H 0.52301 0.09696 0.62106 0.0
H975 H 0.50853 0.07135 0.59312 0.0
H976 H 0.55042 0.16697 0.6107 0.0
H977 H 0.58331 0.11738 0.65053 0.0
H978 H 0.57491 0.11171 0.62575 0.0
H979 H 0.55296 0.10015 0.64372 0.0
C980 C 0.55022 0.12041 0.57205 0.0
C981 C 0.53194 0.09729 0.57348 0.0
C982 C 0.55879 0.1349 0.58817 0.0
C983 C 0.54934 0.12658 0.60605 0.0
C984 C 0.53094 0.10363 0.60749 0.0
H985 H 0.57114 0.18916 0.71907 0.0
H986 H 0.55594 0.16344 0.69083 0.0
C987 C 0.52244 0.08909 0.59142 0.0
C988 C 0.55822 0.14211 0.62309 0.0
H989 H 0.58128 0.1473 0.66769 0.0
C990 C 0.55735 0.16276 0.62311 0.0
C991 C 0.56724 0.13659 0.63929 0.0
C992 C 0.5699 0.11537 0.6398 0.0
C993 C 0.56488 0.17784 0.63899 0.0
C994 C 0.57367 0.17218 0.65522 0.0
C995 C 0.5745 0.15155 0.65524 0.0
C996 C 0.58257 0.18773 0.67218 0.0
C997 C 0.563 0.1995 0.63844 0.0
C998 C 0.60257 0.20977 0.671 0.0
C999 C 0.61129 0.22426 0.68707 0.0
C1000 C 0.60037 0.2168 0.7046 0.0
C1001 C 0.58005 0.19501 0.70572 0.0
C1002 C 0.5714 0.1804 0.68966 0.0
H1003 H 0.55093 0.19859 0.6269 0.0
H1004 H 0.55675 0.2025 0.65217 0.0
H1005 H 0.58058 0.21466 0.63589 0.0
H1006 H 0.61159 0.21566 0.6577 0.0
H1007 H 0.62664 0.2413 0.68582 0.0
H1008 H 0.43527 0.55542 0.71946 0.0
H1009 H 0.42319 0.5708 0.74605 0.0
H1010 H 0.46727 0.55838 0.78413 0.0
H1011 H 0.47963 0.54331 0.7576 0.0
H1012 H 0.40034 0.54976 0.77741 0.0
H1013 H 0.48669 0.62448 0.79819 0.0
H1014 H 0.48181 0.60861 0.7761 0.0
H1015 H 0.48701 0.5977 0.79777 0.0
C1016 C 0.4424 0.55601 0.73351 0.0
C1017 C 0.45848 0.54825 0.73643 0.0
C1018 C 0.43556 0.56488 0.74867 0.0
C1019 C 0.44465 0.56616 0.76704 0.0
C1020 C 0.46054 0.55822 0.77001 0.0
H1021 H 0.3834 0.56906 0.87338 0.0
H1022 H 0.39616 0.55928 0.84415 0.0
C1023 C 0.46753 0.54952 0.75484 0.0
C1024 C 0.43664 0.57472 0.78325 0.0
H1025 H 0.45615 0.613 0.82085 0.0
C1026 C 0.41254 0.56374 0.7868 0.0
C1027 C 0.45249 0.59324 0.79533 0.0
C1028 C 0.47841 0.60686 0.79155 0.0
C1029 C 0.40394 0.57021 0.80245 0.0
C1030 C 0.41991 0.58776 0.81517 0.0
C1031 C 0.44393 0.59933 0.81125 0.0
C1032 C 0.41211 0.5939 0.8329 0.0
C1033 C 0.37778 0.55823 0.8051 0.0
C1034 C 0.41745 0.61682 0.83662 0.0
C1035 C 0.41039 0.62259 0.8535 0.0
C1036 C 0.39787 0.60553 0.86701 0.0
C1037 C 0.39275 0.58263 0.86325 0.0
C1038 C 0.39992 0.57694 0.84646 0.0
H1039 H 0.36806 0.55101 0.79146 0.0
H1040 H 0.37249 0.54359 0.81492 0.0
H1041 H 0.37245 0.57029 0.81124 0.0
H1042 H 0.42699 0.63023 0.82641 0.0
H1043 H 0.4147 0.6404 0.85592 0.0
H1044 H 0.95535 0.48089 0.92515 0.0
H1045 H 0.92823 0.46771 0.95161 0.0
H1046 H 0.87072 0.45152 0.91291 0.0
H1047 H 0.89764 0.46413 0.88627 0.0
H1048 H 0.89779 0.48374 0.96398 0.0
H1049 H 0.84918 0.39067 0.94176 0.0
H1050 H 0.87718 0.41111 0.93208 0.0
H1051 H 0.85103 0.41077 0.92411 0.0
C1052 C 0.9369 0.47433 0.92223 0.0
C1053 C 0.92865 0.47341 0.90356 0.0
C1054 C 0.92146 0.46697 0.93738 0.0
C1055 C 0.89744 0.45841 0.9342 0.0
C1056 C 0.88915 0.45779 0.91565 0.0
H1057 H 0.79681 0.43094 0.02504 0.0
H1058 H 0.81998 0.44566 0.99631 0.0
C1059 C 0.9046 0.4652 0.90047 0.0
C1060 C 0.88114 0.45002 0.95034 0.0
H1061 H 0.8357 0.40126 0.96885 0.0
C1062 C 0.88412 0.46574 0.96502 0.0
C1063 C 0.86347 0.42648 0.9517 0.0
C1064 C 0.86004 0.40867 0.93668 0.0
C1065 C 0.86996 0.45851 0.98111 0.0
C1066 C 0.85224 0.435 0.98244 0.0
C1067 C 0.84917 0.41932 0.9677 0.0
C1068 C 0.83776 0.42597 0.99959 0.0
C1069 C 0.87454 0.47591 0.99685 0.0
C1070 C 0.83974 0.4097 0.01073 0.0
C1071 C 0.82655 0.40124 0.02708 0.0
C1072 C 0.8109 0.40872 0.03263 0.0
C1073 C 0.8087 0.42481 0.02125 0.0
C1074 C 0.82201 0.43335 0.00487 0.0
H1075 H 0.89157 0.49217 0.99525 0.0
H1076 H 0.86042 0.48037 0.99668 0.0
H1077 H 0.87449 0.46847 0.01089 0.0
H1078 H 0.85175 0.40375 0.00688 0.0
H1079 H 0.82875 0.38886 0.03541 0.0
H1080 H 0.50753 0.93654 0.07488 0.0
H1081 H 0.49425 0.91076 0.102 0.0
H1082 H 0.42765 0.9082 0.09947 0.0
H1083 H 0.44097 0.93464 0.07271 0.0
H1084 H 0.47586 0.9203 0.1381 0.0
H1085 H 0.41321 0.83819 0.09995 0.0
H1086 H 0.43702 0.86219 0.08808 0.0
H1087 H 0.41173 0.86386 0.09475 0.0
C1088 C 0.49012 0.93071 0.08014 0.0
C1089 C 0.47538 0.93782 0.07157 0.0
C1090 C 0.48251 0.91582 0.09557 0.0
C1091 C 0.45993 0.90746 0.10261 0.0
C1092 C 0.44505 0.91424 0.09406 0.0
H1093 H 0.38651 0.81269 0.19473 0.0
H1094 H 0.3965 0.83707 0.16672 0.0
C1095 C 0.45269 0.92929 0.0787 0.0
C1096 C 0.45235 0.89233 0.11938 0.0
H1097 H 0.41624 0.83663 0.1332 0.0
C1098 C 0.46283 0.902 0.13707 0.0
C1099 C 0.43517 0.86856 0.11797 0.0
C1100 C 0.42362 0.8574 0.09919 0.0
C1101 C 0.45657 0.88853 0.15346 0.0
C1102 C 0.43986 0.86454 0.15201 0.0
C1103 C 0.42911 0.85496 0.13431 0.0
C1104 C 0.43365 0.8491 0.16863 0.0
C1105 C 0.4676 0.90029 0.17223 0.0
C1106 C 0.45109 0.84726 0.17876 0.0
C1107 C 0.44549 0.83352 0.19484 0.0
C1108 C 0.42221 0.82094 0.20101 0.0
C1109 C 0.40461 0.82213 0.19042 0.0
C1110 C 0.41029 0.83608 0.1744 0.0
H1111 H 0.47397 0.91921 0.17191 0.0
H1112 H 0.45503 0.89267 0.18397 0.0
H1113 H 0.48291 0.89809 0.17534 0.0
H1114 H 0.46912 0.85656 0.17427 0.0
H1115 H 0.45948 0.83284 0.20247 0.0
H1116 H 0.58145 0.48146 0.22004 0.0
H1117 H 0.59342 0.4659 0.24648 0.0
H1118 H 0.54892 0.47772 0.28388 0.0
H1119 H 0.53667 0.49299 0.25748 0.0
H1120 H 0.616 0.48656 0.27887 0.0
H1121 H 0.52966 0.4116 0.29587 0.0
H1122 H 0.5346 0.42764 0.2743 0.0
H1123 H 0.52925 0.43833 0.29616 0.0
C1124 C 0.5742 0.48072 0.23391 0.0
C1125 C 0.55803 0.48837 0.23665 0.0
C1126 C 0.58098 0.47173 0.24898 0.0
C1127 C 0.57174 0.4702 0.26711 0.0
C1128 C 0.55576 0.47805 0.26992 0.0
H1129 H 0.63241 0.46766 0.37478 0.0
H1130 H 0.61947 0.47699 0.3454 0.0
C1131 C 0.54885 0.48688 0.25483 0.0
C1132 C 0.57969 0.46152 0.28328 0.0
H1133 H 0.56007 0.42303 0.31955 0.0
C1134 C 0.60377 0.47251 0.28765 0.0
C1135 C 0.56381 0.4429 0.29456 0.0
C1136 C 0.53792 0.42927 0.28987 0.0
C1137 C 0.61232 0.466 0.30334 0.0
C1138 C 0.59631 0.44837 0.3153 0.0
C1139 C 0.57232 0.43675 0.31054 0.0
C1140 C 0.60407 0.44237 0.33318 0.0
C1141 C 0.63846 0.47804 0.30691 0.0
C1142 C 0.59906 0.41957 0.33641 0.0
C1143 C 0.60625 0.41404 0.35339 0.0
C1144 C 0.61855 0.43123 0.36749 0.0
C1145 C 0.62325 0.45398 0.36422 0.0
C1146 C 0.61597 0.45943 0.34733 0.0
H1147 H 0.64825 0.4853 0.29365 0.0
H1148 H 0.64364 0.49266 0.31714 0.0
H1149 H 0.6438 0.46601 0.31295 0.0
H1150 H 0.58971 0.40608 0.32574 0.0
H1151 H 0.60224 0.39633 0.35542 0.0
H1152 H 0.4309 0.90801 0.42765 0.0
H1153 H 0.42023 0.88248 0.39952 0.0
H1154 H 0.45592 0.94233 0.36411 0.0
H1155 H 0.46718 0.96779 0.39221 0.0
H1156 H 0.39471 0.87767 0.3683 0.0
H1157 H 0.48568 0.90563 0.34726 0.0
H1158 H 0.47905 0.9138 0.36983 0.0
H1159 H 0.48019 0.92939 0.34877 0.0
C1160 C 0.43641 0.91566 0.41384 0.0
C1161 C 0.45007 0.93985 0.41211 0.0
C1162 C 0.43035 0.90109 0.39779 0.0
C1163 C 0.43772 0.91044 0.37972 0.0
C1164 C 0.45067 0.93465 0.37793 0.0
H1165 H 0.39846 0.84534 0.26696 0.0
H1166 H 0.40855 0.8719 0.29454 0.0
C1167 C 0.457 0.94919 0.39398 0.0
C1168 C 0.43171 0.89491 0.36275 0.0
H1169 H 0.45545 0.88234 0.32477 0.0
C1170 C 0.40804 0.87859 0.35888 0.0
C1171 C 0.44909 0.89599 0.35045 0.0
C1172 C 0.47493 0.91198 0.35437 0.0
C1173 C 0.40134 0.86357 0.34297 0.0
C1174 C 0.41869 0.86505 0.33059 0.0
C1175 C 0.44226 0.88131 0.33435 0.0
C1176 C 0.41269 0.84924 0.31397 0.0
C1177 C 0.37581 0.84613 0.33939 0.0
C1178 C 0.41173 0.82784 0.3159 0.0
C1179 C 0.40612 0.81283 0.30023 0.0
C1180 C 0.4018 0.81919 0.28237 0.0
C1181 C 0.40226 0.84038 0.28054 0.0
C1182 C 0.40796 0.85546 0.29622 0.0
H1183 H 0.36434 0.84746 0.35016 0.0
H1184 H 0.37033 0.84875 0.32511 0.0
H1185 H 0.37322 0.82832 0.33953 0.0
H1186 H 0.41524 0.82275 0.32954 0.0
H1187 H 0.40503 0.79618 0.30207 0.0
H1188 H 0.55944 0.45817 0.59442 0.0
H1189 H 0.57361 0.44729 0.56641 0.0
H1190 H 0.52194 0.45185 0.53154 0.0
H1191 H 0.50841 0.46379 0.55925 0.0
H1192 H 0.55083 0.41012 0.54222 0.0
H1193 H 0.58113 0.49145 0.50265 0.0
H1194 H 0.57352 0.48909 0.52735 0.0
H1195 H 0.55095 0.47819 0.50917 0.0
C1196 C 0.5513 0.45721 0.58075 0.0
C1197 C 0.53285 0.46202 0.57912 0.0
C1198 C 0.55931 0.4508 0.56477 0.0
C1199 C 0.5491 0.44913 0.54681 0.0
C1200 C 0.53043 0.45352 0.54517 0.0
H1201 H 0.57055 0.40836 0.43409 0.0
H1202 H 0.55509 0.41854 0.46196 0.0
C1203 C 0.52249 0.46003 0.56111 0.0
C1204 C 0.55766 0.44232 0.52988 0.0
H1205 H 0.57964 0.45969 0.48566 0.0
C1206 C 0.55729 0.42104 0.5299 0.0
C1207 C 0.56608 0.45657 0.51379 0.0
C1208 C 0.56819 0.4802 0.51325 0.0
C1209 C 0.56478 0.41348 0.51418 0.0
C1210 C 0.57302 0.42767 0.49808 0.0
C1211 C 0.57329 0.44886 0.49801 0.0
C1212 C 0.58202 0.42111 0.48134 0.0
C1213 C 0.56346 0.39021 0.51477 0.0
C1214 C 0.60228 0.4193 0.48304 0.0
C1215 C 0.61115 0.41373 0.46719 0.0
C1216 C 0.60012 0.41023 0.44934 0.0
C1217 C 0.57954 0.41145 0.44769 0.0
C1218 C 0.57074 0.41722 0.46354 0.0
H1219 H 0.55156 0.3791 0.526 0.0
H1220 H 0.55729 0.38088 0.5009 0.0
H1221 H 0.58119 0.39287 0.51786 0.0
H1222 H 0.6114 0.42249 0.49659 0.0
H1223 H 0.6267 0.41222 0.46884 0.0
H1224 H 0.06334 0.5458 0.72684 0.0
H1225 H 0.09044 0.55924 0.70037 0.0
H1226 H 0.14778 0.57397 0.73884 0.0
H1227 H 0.12069 0.56027 0.76536 0.0
H1228 H 0.12872 0.6011 0.6936 0.0
H1229 H 0.15454 0.53374 0.69889 0.0
H1230 H 0.13014 0.53204 0.7116 0.0
H1231 H 0.15963 0.55051 0.72033 0.0
C1232 C 0.08174 0.55198 0.72968 0.0
C1233 C 0.08984 0.55183 0.74819 0.0
C1234 C 0.0972 0.55962 0.71453 0.0
C1235 C 0.1211 0.56727 0.71754 0.0
C1236 C 0.12934 0.56759 0.73607 0.0
H1237 H 0.22674 0.64165 0.63086 0.0
H1238 H 0.20364 0.63194 0.65976 0.0
C1239 C 0.11384 0.55979 0.75122 0.0
C1240 C 0.13728 0.57495 0.70125 0.0
H1241 H 0.17498 0.56351 0.67686 0.0
C1242 C 0.13887 0.59291 0.68995 0.0
C1243 C 0.15033 0.56409 0.69637 0.0
C1244 C 0.14847 0.54388 0.7073 0.0
C1245 C 0.15305 0.60023 0.67386 0.0
C1246 C 0.16642 0.58964 0.66918 0.0
C1247 C 0.16491 0.57177 0.68055 0.0
C1248 C 0.18096 0.59579 0.65191 0.0
C1249 C 0.15295 0.61869 0.66169 0.0
C1250 C 0.17638 0.5786 0.63813 0.0
C1251 C 0.1897 0.584 0.62175 0.0
C1252 C 0.20798 0.60679 0.6187 0.0
C1253 C 0.21272 0.62397 0.63264 0.0
C1254 C 0.19942 0.61848 0.64914 0.0
H1255 H 0.13755 0.62079 0.66448 0.0
H1256 H 0.169 0.63555 0.66489 0.0
H1257 H 0.15284 0.61453 0.64638 0.0
H1258 H 0.16226 0.56096 0.63996 0.0
H1259 H 0.18544 0.57027 0.61137 0.0
H1260 H 0.53016 0.10769 0.91901 0.0
H1261 H 0.54299 0.13337 0.89169 0.0
H1262 H 0.60002 0.12012 0.88356 0.0
H1263 H 0.58712 0.09416 0.91065 0.0
H1264 H 0.58875 0.17417 0.88533 0.0
H1265 H 0.56437 0.10392 0.83138 0.0
H1266 H 0.55302 0.09834 0.85512 0.0
H1267 H 0.58226 0.1041 0.85089 0.0
C1268 C 0.54536 0.11014 0.91134 0.0
C1269 C 0.55754 0.09877 0.91694 0.0
C1270 C 0.55274 0.12492 0.89582 0.0
C1271 C 0.57228 0.12842 0.88549 0.0
C1272 C 0.58472 0.11742 0.89121 0.0
H1273 H 0.64272 0.20101 0.78489 0.0
H1274 H 0.62939 0.1781 0.81351 0.0
C1275 C 0.57744 0.10275 0.90679 0.0
C1276 C 0.57962 0.14345 0.86864 0.0
H1277 H 0.58586 0.1425 0.82069 0.0
C1278 C 0.58803 0.16729 0.87116 0.0
C1279 C 0.5786 0.13437 0.85021 0.0
C1280 C 0.5689 0.10876 0.84661 0.0
C1281 C 0.59613 0.18245 0.85577 0.0
C1282 C 0.5953 0.17339 0.83732 0.0
C1283 C 0.58656 0.14946 0.83483 0.0
C1284 C 0.60393 0.18837 0.82042 0.0
C1285 C 0.60619 0.20809 0.8595 0.0
C1286 C 0.59405 0.20183 0.81472 0.0
C1287 C 0.60177 0.21516 0.79833 0.0
C1288 C 0.61933 0.21506 0.78721 0.0
C1289 C 0.62918 0.20156 0.79304 0.0
C1290 C 0.62155 0.18839 0.80943 0.0
H1291 H 0.61124 0.21282 0.87468 0.0
H1292 H 0.62182 0.21846 0.85073 0.0
H1293 H 0.5928 0.21292 0.85578 0.0
H1294 H 0.58005 0.20169 0.82272 0.0
H1295 H 0.59364 0.22516 0.79421 0.0
H1296 H 0.45696 0.57754 0.09389 0.0
H1297 H 0.44309 0.58901 0.06598 0.0
H1298 H 0.49447 0.58422 0.03187 0.0
H1299 H 0.50769 0.57168 0.05943 0.0
H1300 H 0.46634 0.62645 0.0433 0.0
H1301 H 0.43513 0.54536 1.00083 0.0
H1302 H 0.44267 0.54739 0.02574 0.0
H1303 H 0.46527 0.55821 0.00828 0.0
C1304 C 0.46509 0.57857 0.0804 0.0
C1305 C 0.48336 0.57352 0.07892 0.0
C1306 C 0.45725 0.58532 0.06448 0.0
C1307 C 0.46747 0.5871 0.04676 0.0
C1308 C 0.48597 0.58247 0.0453 0.0
H1309 H 0.44645 0.62872 0.93474 0.0
H1310 H 0.46181 0.61829 0.96263 0.0
C1311 C 0.49373 0.57562 0.06116 0.0
C1312 C 0.4591 0.59424 0.0299 0.0
H1313 H 0.43713 0.5775 0.98481 0.0
C1314 C 0.45979 0.61567 0.03055 0.0
C1315 C 0.45057 0.58017 0.01326 0.0
C1316 C 0.44812 0.5564 0.012 0.0
C1317 C 0.45249 0.62354 0.01492 0.0
C1318 C 0.44412 0.60952 0.99827 0.0
C1319 C 0.44356 0.58819 0.99757 0.0
C1320 C 0.43529 0.61638 0.98157 0.0
C1321 C 0.45418 0.64697 0.01621 0.0
C1322 C 0.41531 0.61865 0.98301 0.0
C1323 C 0.40651 0.62437 0.96714 0.0
C1324 C 0.41731 0.62755 0.94952 0.0
C1325 C 0.43764 0.62589 0.94815 0.0
C1326 C 0.44637 0.61998 0.96402 0.0
H1327 H 0.46627 0.65792 0.02788 0.0
H1328 H 0.46031 0.65634 0.00268 0.0
H1329 H 0.43657 0.64455 0.01906 0.0
H1330 H 0.40632 0.61566 0.99635 0.0
H1331 H 0.39116 0.62621 0.96859 0.0
H1332 H 0.93402 0.52806 0.23896 0.0
H1333 H 0.90816 0.51402 0.21074 0.0
H1334 H 0.88947 0.44373 0.22347 0.0
H1335 H 0.91522 0.45756 0.25171 0.0
H1336 H 0.91164 0.47934 0.17993 0.0
H1337 H 0.82638 0.45061 0.21504 0.0
H1338 H 0.85363 0.47415 0.22457 0.0
H1339 H 0.84761 0.44486 0.22632 0.0
C1340 C 0.9242 0.5096 0.23585 0.0
C1341 C 0.92665 0.4939 0.24753 0.0
C1342 C 0.90956 0.50164 0.21971 0.0
C1343 C 0.89694 0.47788 0.21514 0.0
C1344 C 0.89907 0.46214 0.22685 0.0
H1345 H 0.78814 0.39419 0.13278 0.0
H1346 H 0.81513 0.4097 0.16007 0.0
C1347 C 0.91385 0.47007 0.24289 0.0
C1348 C 0.88204 0.46949 0.19779 0.0
H1349 H 0.82517 0.44296 0.18229 0.0
C1350 C 0.89271 0.47138 0.18033 0.0
C1351 C 0.85747 0.45915 0.19853 0.0
C1352 C 0.84541 0.45705 0.21706 0.0
C1353 C 0.87935 0.46262 0.16348 0.0
C1354 C 0.85457 0.45217 0.1641 0.0
C1355 C 0.84405 0.45071 0.18169 0.0
C1356 C 0.83908 0.44227 0.14691 0.0
C1357 C 0.89217 0.46433 0.14544 0.0
C1358 C 0.84327 0.45525 0.13034 0.0
C1359 C 0.82845 0.44577 0.1144 0.0
C1360 C 0.8089 0.42334 0.11484 0.0
C1361 C 0.80393 0.4109 0.1317 0.0
C1362 C 0.81912 0.42002 0.14742 0.0
H1363 H 0.9086 0.46399 0.14839 0.0
H1364 H 0.88129 0.45009 0.13526 0.0
H1365 H 0.8971 0.48108 0.13865 0.0
H1366 H 0.85782 0.47284 0.12976 0.0
H1367 H 0.83208 0.45609 0.10178 0.0
loop_
_geom_bond_atom_site_label_1
_geom_bond_atom_site_label_2
_geom_bond_distance
_geom_bond_site_symmetry_2
_ccdc_geom_bond_type
H0 C19 0.949 . S
H1 C20 0.950 . S
H2 C22 0.950 . S
H3 C23 0.950 . S
H4 C25 0.950 . S
H5 C28 0.950 . S
H6 C29 0.950 . S
H7 C31 0.951 . S
H8 C32 0.949 . S
H9 C34 0.949 . S
H10 C35 0.950 . S
H11 C37 0.950 . S
H12 C38 0.950 . S
H13 C40 0.950 . S
H14 C43 0.950 . S
H15 C44 0.950 . S
H16 C46 0.951 . S
H17 C47 0.949 . S
C18 C19 1.376 . S
C18 C23 1.386 . S
C18 C24 1.483 . S
C19 H0 0.949 . S
C19 C18 1.376 . S
C19 C20 1.397 . S
C20 H1 0.950 . S
C20 C19 1.397 . S
C20 C21 1.391 . S
C21 C20 1.391 . S
C21 C22 1.405 . S
C22 H2 0.950 . S
C22 C21 1.405 . S
C22 C23 1.367 . S
C23 H3 0.950 . S
C23 C18 1.386 . S
C23 C22 1.367 . S
C24 C18 1.483 . S
C24 C25 1.382 1_655 S
C24 C26 1.403 . S
C25 H4 0.950 . S
C25 C24 1.382 1_455 S
C25 C41 1.411 . S
C26 C24 1.403 . S
C26 C27 1.489 . S
C26 C40 1.411 . S
C27 C26 1.489 . S
C27 C28 1.383 . S
C27 C32 1.382 . S
C28 H5 0.950 . S
C28 C27 1.383 . S
C28 C29 1.395 . S
C29 H6 0.950 . S
C29 C28 1.395 . S
C29 C30 1.288 . S
C30 C29 1.288 . S
C30 C31 1.392 . S
C31 H7 0.951 . S
C31 C30 1.392 . S
C31 C32 1.392 . S
C32 H8 0.949 . S
C32 C27 1.382 . S
C32 C31 1.392 . S
C33 C34 1.376 . S
C33 C38 1.386 . S
C33 C39 1.483 . S
C34 H9 0.949 . S
C34 C33 1.376 . S
C34 C35 1.397 . S
C35 H10 0.950 . S
C35 C34 1.397 . S
C35 C36 1.391 . S
C36 C35 1.391 . S
C36 C37 1.405 . S
C37 H11 0.950 . S
C37 C36 1.405 . S
C37 C38 1.367 . S
C38 H12 0.950 . S
C38 C33 1.386 . S
C38 C37 1.367 . S
C39 C33 1.483 . S
C39 C40 1.382 1_455 S
C39 C41 1.403 . S
C40 H13 0.950 . S
C40 C26 1.411 . S
C40 C39 1.382 1_655 S
C41 C25 1.411 . S
C41 C39 1.403 . S
C41 C42 1.489 . S
C42 C41 1.489 . S
C42 C43 1.383 . S
C42 C47 1.382 . S
C43 H14 0.950 . S
C43 C42 1.383 . S
C43 C44 1.395 . S
C44 H15 0.950 . S
C44 C43 1.395 . S
C44 C45 1.288 . S
C45 C44 1.288 . S
C45 C46 1.392 . S
C46 H16 0.951 . S
C46 C45 1.392 . S
C46 C47 1.392 . S
C47 H17 0.949 . S
C47 C42 1.382 . S
C47 C46 1.392 . S
H48 C67 0.949 . S
H49 C68 0.950 . S
H50 C70 0.950 . S
H51 C71 0.950 . S
H52 C73 0.950 . S
H53 C76 0.950 . S
H54 C77 0.950 . S
H55 C79 0.951 . S
H56 C80 0.949 . S
H57 C82 0.949 . S
H58 C83 0.950 . S
H59 C85 0.950 . S
H60 C86 0.950 . S
H61 C88 0.950 . S
H62 C91 0.950 . S
H63 C92 0.950 . S
H64 C94 0.951 . S
H65 C95 0.949 . S
C66 C67 1.376 . S
C66 C71 1.386 . S
C66 C72 1.483 . S
C67 H48 0.949 . S
C67 C66 1.376 . S
C67 C68 1.397 . S
C68 H49 0.950 . S
C68 C67 1.397 . S
C68 C69 1.391 . S
C69 C68 1.391 . S
C69 C70 1.405 . S
C70 H50 0.950 . S
C70 C69 1.405 . S
C70 C71 1.367 . S
C71 H51 0.950 . S
C71 C66 1.386 . S
C71 C70 1.367 . S
C72 C66 1.483 . S
C72 C73 1.382 1_565 S
C72 C74 1.401 1_565 S
C73 H52 0.950 . S
C73 C72 1.382 1_545 S
C73 C89 1.411 . S
C74 C72 1.401 1_545 S
C74 C75 1.483 1_545 S
C74 C88 1.419 . S
C75 C74 1.483 1_565 S
C75 C76 1.383 . S
C75 C80 1.382 . S
C76 H53 0.950 . S
C76 C75 1.383 . S
C76 C77 1.395 . S
C77 H54 0.950 . S
C77 C76 1.395 . S
C77 C78 1.288 . S
C78 C77 1.288 . S
C78 C79 1.392 . S
C79 H55 0.951 . S
C79 C78 1.392 . S
C79 C80 1.392 . S
C80 H56 0.949 . S
C80 C75 1.382 . S
C80 C79 1.392 . S
C81 C82 1.376 . S
C81 C86 1.386 . S
C81 C87 1.483 . S
C82 H57 0.949 . S
C82 C81 1.376 . S
C82 C83 1.397 . S
C83 H58 0.950 . S
C83 C82 1.397 . S
C83 C84 1.391 . S
C84 C83 1.391 . S
C84 C85 1.405 . S
C85 H59 0.950 . S
C85 C84 1.405 . S
C85 C86 1.367 . S
C86 H60 0.950 . S
C86 C81 1.386 . S
C86 C85 1.367 . S
C87 C81 1.483 . S
C87 C88 1.382 . S
C87 C89 1.403 . S
C88 H61 0.950 . S
C88 C74 1.419 . S
C88 C87 1.382 . S
C89 C73 1.411 . S
C89 C87 1.403 . S
C89 C90 1.489 . S
C90 C89 1.489 . S
C90 C91 1.383 . S
C90 C95 1.382 . S
C91 H62 0.950 . S
C91 C90 1.383 . S
C91 C92 1.395 . S
C92 H63 0.950 . S
C92 C91 1.395 . S
C92 C93 1.288 . S
C93 C92 1.288 . S
C93 C94 1.392 . S
C94 H64 0.951 . S
C94 C93 1.392 . S
C94 C95 1.392 . S
C95 H65 0.949 . S
C95 C90 1.382 . S
C95 C94 1.392 . S
H96 C115 0.949 . S
H97 C116 0.950 . S
H98 C118 0.950 . S
H99 C119 0.950 . S
H100 C121 0.950 . S
H101 C124 0.950 . S
H102 C125 0.950 . S
H103 C127 0.951 . S
H104 C128 0.949 . S
H105 C130 0.949 . S
H106 C131 0.950 . S
H107 C133 0.950 . S
H108 C134 0.950 . S
H109 C136 0.950 . S
H110 C139 0.950 . S
H111 C140 0.950 . S
H112 C142 0.951 . S
H113 C143 0.949 . S
C114 C115 1.376 . S
C114 C119 1.386 . S
C114 C120 1.483 . S
C115 H96 0.949 . S
C115 C114 1.376 . S
C115 C116 1.397 . S
C116 H97 0.950 . S
C116 C115 1.397 . S
C116 C117 1.391 . S
C117 C116 1.391 . S
C117 C118 1.405 . S
C118 H98 0.950 . S
C118 C117 1.405 . S
C118 C119 1.367 . S
C119 H99 0.950 . S
C119 C114 1.386 . S
C119 C118 1.367 . S
C120 C114 1.483 . S
C120 C121 1.382 . S
C120 C122 1.403 . S
C121 H100 0.950 . S
C121 C120 1.382 . S
C121 C137 1.411 . S
C122 C120 1.403 . S
C122 C123 1.489 . S
C122 C136 1.411 . S
C123 C122 1.489 . S
C123 C124 1.383 . S
C123 C128 1.382 . S
C124 H101 0.950 . S
C124 C123 1.383 . S
C124 C125 1.395 . S
C125 H102 0.950 . S
C125 C124 1.395 . S
C125 C126 1.288 . S
C126 C125 1.288 . S
C126 C127 1.392 . S
C127 H103 0.951 . S
C127 C126 1.392 . S
C127 C128 1.392 . S
C128 H104 0.949 . S
C128 C123 1.382 . S
C128 C127 1.392 . S
C129 C130 1.376 . S
C129 C134 1.386 . S
C129 C135 1.483 . S
C130 H105 0.949 . S
C130 C129 1.376 . S
C130 C131 1.397 . S
C131 H106 0.950 . S
C131 C130 1.397 . S
C131 C132 1.391 . S
C132 C131 1.391 . S
C132 C133 1.405 . S
C133 H107 0.950 . S
C133 C132 1.405 . S
C133 C134 1.367 . S
C134 H108 0.950 . S
C134 C129 1.386 . S
C134 C133 1.367 . S
C135 C129 1.483 . S
C135 C136 1.382 . S
C135 C137 1.403 . S
C136 H109 0.950 . S
C136 C122 1.411 . S
C136 C135 1.382 . S
C137 C121 1.411 . S
C137 C135 1.403 . S
C137 C138 1.489 . S
C138 C137 1.489 . S
C138 C139 1.383 . S
C138 C143 1.382 . S
C139 H110 0.950 . S
C139 C138 1.383 . S
C139 C140 1.395 . S
C140 H111 0.950 . S
C140 C139 1.395 . S
C140 C141 1.288 . S
C141 C140 1.288 . S
C141 C142 1.392 . S
C142 H112 0.951 . S
C142 C141 1.392 . S
C142 C143 1.392 . S
C143 H113 0.949 . S
C143 C138 1.382 . S
C143 C142 1.392 . S
H144 C163 0.949 . S
H145 C164 0.950 . S
H146 C166 0.950 . S
H147 C167 0.950 . S
H148 C169 0.950 . S
H149 C172 0.950 . S
H150 C173 0.950 . S
H151 C175 0.951 . S
H152 C176 0.949 . S
H153 C178 0.949 . S
H154 C179 0.950 . S
H155 C181 0.950 . S
H156 C182 0.950 . S
H157 C184 0.950 . S
H158 C187 0.950 . S
H159 C188 0.950 . S
H160 C190 0.951 . S
H161 C191 0.949 . S
C162 C163 1.376 . S
C162 C167 1.386 . S
C162 C168 1.483 . S
C163 H144 0.949 . S
C163 C162 1.376 . S
C163 C164 1.397 . S
C164 H145 0.950 . S
C164 C163 1.397 . S
C164 C165 1.391 . S
C165 C164 1.391 . S
C165 C166 1.405 . S
C166 H146 0.950 . S
C166 C165 1.405 . S
C166 C167 1.367 . S
C167 H147 0.950 . S
C167 C162 1.386 . S
C167 C166 1.367 . S
C168 C162 1.483 . S
C168 C169 1.382 1_455 S
C168 C170 1.403 . S
C169 H148 0.950 . S
C169 C168 1.382 1_655 S
C169 C185 1.411 . S
C170 C168 1.403 . S
C170 C171 1.489 . S
C170 C184 1.411 . S
C171 C170 1.489 . S
C171 C172 1.383 . S
C171 C176 1.382 . S
C172 H149 0.950 . S
C172 C171 1.383 . S
C172 C173 1.395 . S
C173 H150 0.950 . S
C173 C172 1.395 . S
C173 C174 1.288 . S
C174 C173 1.288 . S
C174 C175 1.392 . S
C175 H151 0.951 . S
C175 C174 1.392 . S
C175 C176 1.392 . S
C176 H152 0.949 . S
C176 C171 1.382 . S
C176 C175 1.392 . S
C177 C178 1.376 . S
C177 C182 1.386 . S
C177 C183 1.483 . S
C178 H153 0.949 . S
C178 C177 1.376 . S
C178 C179 1.397 . S
C179 H154 0.950 . S
C179 C178 1.397 . S
C179 C180 1.391 . S
C180 C179 1.391 . S
C180 C181 1.405 . S
C181 H155 0.950 . S
C181 C180 1.405 . S
C181 C182 1.367 . S
C182 H156 0.950 . S
C182 C177 1.386 . S
C182 C181 1.367 . S
C183 C177 1.483 . S
C183 C184 1.382 1_655 S
C183 C185 1.403 . S
C184 H157 0.950 . S
C184 C170 1.411 . S
C184 C183 1.382 1_455 S
C185 C169 1.411 . S
C185 C183 1.403 . S
C185 C186 1.489 . S
C186 C185 1.489 . S
C186 C187 1.383 . S
C186 C191 1.382 . S
C187 H158 0.950 . S
C187 C186 1.383 . S
C187 C188 1.395 . S
C188 H159 0.950 . S
C188 C187 1.395 . S
C188 C189 1.288 . S
C189 C188 1.288 . S
C189 C190 1.392 . S
C190 H160 0.951 . S
C190 C189 1.392 . S
C190 C191 1.392 . S
C191 H161 0.949 . S
C191 C186 1.382 . S
C191 C190 1.392 . S
H192 C211 0.949 . S
H193 C212 0.950 . S
H194 C214 0.950 . S
H195 C215 0.950 . S
H196 C217 0.950 . S
H197 C220 0.950 . S
H198 C221 0.950 . S
H199 C223 0.951 . S
H200 C224 0.949 . S
H201 C226 0.949 . S
H202 C227 0.950 . S
H203 C229 0.950 . S
H204 C230 0.950 . S
H205 C232 0.950 . S
H206 C235 0.950 . S
H207 C236 0.950 . S
H208 C238 0.951 . S
H209 C239 0.949 1_545 S
C210 C211 1.376 . S
C210 C215 1.386 1_554 S
C210 C216 1.483 1_554 S
C211 H192 0.949 . S
C211 C210 1.376 . S
C211 C212 1.397 . S
C212 H193 0.950 . S
C212 C211 1.397 . S
C212 C213 1.391 . S
C213 C212 1.391 . S
C213 C214 1.405 . S
C214 H194 0.950 . S
C214 C213 1.405 . S
C214 C215 1.367 1_554 S
C215 H195 0.950 . S
C215 C210 1.386 1_556 S
C215 C214 1.367 1_556 S
C216 C210 1.483 1_556 S
C216 C217 1.382 1_556 S
C216 C218 1.403 . S
C217 H196 0.950 . S
C217 C216 1.382 1_554 S
C217 C233 1.411 . S
C218 C216 1.403 . S
C218 C219 1.489 . S
C218 C232 1.411 . S
C219 C218 1.489 . S
C219 C220 1.383 . S
C219 C224 1.382 . S
C220 H197 0.950 . S
C220 C219 1.383 . S
C220 C221 1.395 . S
C221 H198 0.950 . S
C221 C220 1.395 . S
C221 C222 1.288 . S
C222 C221 1.288 . S
C222 C223 1.392 . S
C223 H199 0.951 . S
C223 C222 1.392 . S
C223 C224 1.392 . S
C224 H200 0.949 . S
C224 C219 1.382 . S
C224 C223 1.392 . S
C225 C226 1.376 . S
C225 C230 1.386 . S
C225 C231 1.483 . S
C226 H201 0.949 . S
C226 C225 1.376 . S
C226 C227 1.397 . S
C227 H202 0.950 . S
C227 C226 1.397 . S
C227 C228 1.391 . S
C228 C227 1.391 . S
C228 C229 1.405 . S
C229 H203 0.950 . S
C229 C228 1.405 . S
C229 C230 1.367 . S
C230 H204 0.950 . S
C230 C225 1.386 . S
C230 C229 1.367 . S
C231 C225 1.483 . S
C231 C232 1.382 1_565 S
C231 C233 1.403 1_566 S
C232 H205 0.950 . S
C232 C218 1.411 . S
C232 C231 1.382 1_545 S
C233 C217 1.411 . S
C233 C231 1.403 1_544 S
C233 C234 1.489 1_545 S
C234 C233 1.489 1_565 S
C234 C235 1.383 . S
C234 C239 1.382 . S
C235 H206 0.950 . S
C235 C234 1.383 . S
C235 C236 1.395 . S
C236 H207 0.950 . S
C236 C235 1.395 . S
C236 C237 1.288 . S
C237 C236 1.288 . S
C237 C238 1.392 . S
C238 H208 0.951 . S
C238 C237 1.392 . S
C238 C239 1.392 . S
C239 H209 0.949 1_565 S
C239 C234 1.382 . S
C239 C238 1.392 . S
H240 C259 0.949 . S
H241 C260 0.950 . S
H242 C262 0.950 . S
H243 C263 0.950 . S
H244 C265 0.950 . S
H245 C268 0.950 . S
H246 C269 0.950 . S
H247 C271 0.951 . S
H248 C272 0.949 . S
H249 C274 0.949 . S
H250 C275 0.950 . S
H251 C277 0.950 . S
H252 C278 0.950 . S
H253 C280 0.950 . S
H254 C283 0.950 . S
H255 C284 0.950 . S
H256 C286 0.951 . S
H257 C287 0.949 . S
C258 C259 1.376 . S
C258 C263 1.386 . S
C258 C264 1.483 . S
C259 H240 0.949 . S
C259 C258 1.376 . S
C259 C260 1.397 . S
C260 H241 0.950 . S
C260 C259 1.397 . S
C260 C261 1.391 . S
C261 C260 1.391 . S
C261 C262 1.405 . S
C262 H242 0.950 . S
C262 C261 1.405 . S
C262 C263 1.367 . S
C263 H243 0.950 . S
C263 C258 1.386 . S
C263 C262 1.367 . S
C264 C258 1.483 . S
C264 C265 1.382 . S
C264 C266 1.403 . S
C265 H244 0.950 . S
C265 C264 1.382 . S
C265 C281 1.411 . S
C266 C264 1.403 . S
C266 C267 1.489 . S
C266 C280 1.411 . S
C267 C266 1.489 . S
C267 C268 1.383 . S
C267 C272 1.382 . S
C268 H245 0.950 . S
C268 C267 1.383 . S
C268 C269 1.395 . S
C269 H246 0.950 . S
C269 C268 1.395 . S
C269 C270 1.288 . S
C270 C269 1.288 . S
C270 C271 1.392 . S
C271 H247 0.951 . S
C271 C270 1.392 . S
C271 C272 1.392 . S
C272 H248 0.949 . S
C272 C267 1.382 . S
C272 C271 1.392 . S
C273 C274 1.376 . S
C273 C278 1.386 . S
C273 C279 1.483 . S
C274 H249 0.949 . S
C274 C273 1.376 . S
C274 C275 1.397 . S
C275 H250 0.950 . S
C275 C274 1.397 . S
C275 C276 1.391 . S
C276 C275 1.391 . S
C276 C277 1.405 . S
C277 H251 0.950 . S
C277 C276 1.405 . S
C277 C278 1.367 . S
C278 H252 0.950 . S
C278 C273 1.386 . S
C278 C277 1.367 . S
C279 C273 1.483 . S
C279 C280 1.382 . S
C279 C281 1.403 . S
C280 H253 0.950 . S
C280 C266 1.411 . S
C280 C279 1.382 . S
C281 C265 1.411 . S
C281 C279 1.403 . S
C281 C282 1.489 . S
C282 C281 1.489 . S
C282 C283 1.383 . S
C282 C287 1.382 . S
C283 H254 0.950 . S
C283 C282 1.383 . S
C283 C284 1.395 . S
C284 H255 0.950 . S
C284 C283 1.395 . S
C284 C285 1.288 . S
C285 C284 1.288 . S
C285 C286 1.392 . S
C286 H256 0.951 . S
C286 C285 1.392 . S
C286 C287 1.392 . S
C287 H257 0.949 . S
C287 C282 1.382 . S
C287 C286 1.392 . S
Mn288 O293 2.095 . S
Mn288 O303 2.162 . S
Mn288 O304 2.297 . S
Mn288 O312 2.385 . S
Mn288 O313 2.209 . S
Mn288 O314 2.094 . S
Mn289 O294 2.121 . S
Mn289 N296 2.257 . S
Mn289 N305 2.282 . S
Mn289 O313 2.215 . S
Mn289 O315 2.117 . S
C290 O312 1.234 . S
C290 O313 1.283 . S
C291 O303 1.281 . S
C291 O304 1.236 . S
C292 O314 1.240 . S
C292 O315 1.264 . S
O293 Mn288 2.095 . S
O293 C302 1.250 . S
O294 Mn289 2.121 . S
O294 C302 1.258 . S
C295 N296 1.326 . S
C295 C299 1.460 . S
C295 H301 0.929 . S
N296 Mn289 2.257 . S
N296 C295 1.326 . S
N296 C300 1.362 . S
C297 C298 1.258 . S
C297 C300 1.431 . S
C297 C317 1.449 . S
C298 C297 1.258 . S
C298 C299 1.477 . S
C298 H318 0.931 . S
C299 C295 1.460 . S
C299 C298 1.477 . S
C299 H319 0.930 . S
C300 N296 1.362 . S
C300 C297 1.431 . S
C300 C310 1.476 . S
H301 C295 0.929 . S
C302 O293 1.250 . S
C302 O294 1.258 . S
O303 Mn288 2.162 . S
O303 C291 1.281 . S
O304 Mn288 2.297 . S
O304 C291 1.236 . S
N305 Mn289 2.282 . S
N305 C306 1.328 . S
N305 C310 1.318 . S
C306 N305 1.328 . S
C306 C307 1.457 . S
C306 H311 0.929 . S
C307 C306 1.457 . S
C307 C308 1.291 . S
C307 H320 0.931 . S
C308 C307 1.291 . S
C308 C309 1.373 . S
C308 H321 0.929 . S
C309 C308 1.373 . S
C309 C310 1.396 . S
C309 C316 1.403 . S
C310 C300 1.476 . S
C310 N305 1.318 . S
C310 C309 1.396 . S
H311 C306 0.929 . S
O312 Mn288 2.385 . S
O312 C290 1.234 . S
O313 Mn288 2.209 . S
O313 Mn289 2.215 . S
O313 C290 1.283 . S
O314 Mn288 2.094 . S
O314 C292 1.240 . S
O315 Mn289 2.117 . S
O315 C292 1.264 . S
C316 C309 1.403 . S
C316 C317 1.399 . S
C316 H322 0.929 . S
C317 C297 1.449 . S
C317 C316 1.399 . S
C317 H323 0.930 . S
H318 C298 0.931 . S
H319 C299 0.930 . S
H320 C307 0.931 . S
H321 C308 0.929 . S
H322 C316 0.929 . S
H323 C317 0.930 . S
Mn324 O329 2.095 . S
Mn324 O339 2.162 . S
Mn324 O340 2.297 . S
Mn324 O348 2.385 . S
Mn324 O349 2.209 . S
Mn324 O350 2.094 . S
Mn325 O330 2.121 . S
Mn325 N332 2.257 . S
Mn325 N341 2.282 . S
Mn325 O349 2.215 . S
Mn325 O351 2.117 . S
C326 O348 1.234 . S
C326 O349 1.283 . S
C327 O339 1.281 . S
C327 O340 1.236 . S
C328 O350 1.240 . S
C328 O351 1.264 . S
O329 Mn324 2.095 . S
O329 C338 1.250 . S
O330 Mn325 2.121 . S
O330 C338 1.258 . S
C331 N332 1.326 . S
C331 C335 1.460 . S
C331 H337 0.929 . S
N332 Mn325 2.257 . S
N332 C331 1.326 . S
N332 C336 1.362 . S
C333 C334 1.258 . S
C333 C336 1.431 . S
C333 C353 1.449 . S
C334 C333 1.258 . S
C334 C335 1.477 . S
C334 H354 0.931 . S
C335 C331 1.460 . S
C335 C334 1.477 . S
C335 H355 0.930 . S
C336 N332 1.362 . S
C336 C333 1.431 . S
C336 C346 1.476 . S
H337 C331 0.929 . S
C338 O329 1.250 . S
C338 O330 1.258 . S
O339 Mn324 2.162 . S
O339 C327 1.281 . S
O340 Mn324 2.297 . S
O340 C327 1.236 . S
N341 Mn325 2.282 . S
N341 C342 1.328 . S
N341 C346 1.318 . S
C342 N341 1.328 . S
C342 C343 1.457 . S
C342 H347 0.929 . S
C343 C342 1.457 . S
C343 C344 1.291 . S
C343 H356 0.931 . S
C344 C343 1.291 . S
C344 C345 1.373 . S
C344 H357 0.929 . S
C345 C344 1.373 . S
C345 C346 1.396 . S
C345 C352 1.403 . S
C346 C336 1.476 . S
C346 N341 1.318 . S
C346 C345 1.396 . S
H347 C342 0.929 . S
O348 Mn324 2.385 . S
O348 C326 1.234 . S
O349 Mn324 2.209 . S
O349 Mn325 2.215 . S
O349 C326 1.283 . S
O350 Mn324 2.094 . S
O350 C328 1.240 . S
O351 Mn325 2.117 . S
O351 C328 1.264 . S
C352 C345 1.403 . S
C352 C353 1.399 . S
C352 H358 0.929 . S
C353 C333 1.449 . S
C353 C352 1.399 . S
C353 H359 0.930 . S
H354 C334 0.931 . S
H355 C335 0.930 . S
H356 C343 0.931 . S
H357 C344 0.929 . S
H358 C352 0.929 . S
H359 C353 0.930 . S
Mn360 O365 2.095 . S
Mn360 O375 2.162 . S
Mn360 O376 2.297 . S
Mn360 O384 2.385 . S
Mn360 O385 2.209 . S
Mn360 O386 2.094 . S
Mn361 O366 2.121 . S
Mn361 N368 2.257 . S
Mn361 N377 2.282 . S
Mn361 O385 2.215 . S
Mn361 O387 2.117 . S
C362 O384 1.234 . S
C362 O385 1.283 . S
C363 O375 1.281 . S
C363 O376 1.236 . S
C364 O386 1.240 . S
C364 O387 1.264 . S
O365 Mn360 2.095 . S
O365 C374 1.250 . S
O366 Mn361 2.121 . S
O366 C374 1.258 . S
C367 N368 1.326 . S
C367 C371 1.460 . S
C367 H373 0.929 . S
N368 Mn361 2.257 . S
N368 C367 1.326 . S
N368 C372 1.362 . S
C369 C370 1.258 . S
C369 C372 1.431 . S
C369 C389 1.449 . S
C370 C369 1.258 . S
C370 C371 1.477 . S
C370 H390 0.931 . S
C371 C367 1.460 . S
C371 C370 1.477 . S
C371 H391 0.930 . S
C372 N368 1.362 . S
C372 C369 1.431 . S
C372 C382 1.476 . S
H373 C367 0.929 . S
C374 O365 1.250 . S
C374 O366 1.258 . S
O375 Mn360 2.162 . S
O375 C363 1.281 . S
O376 Mn360 2.297 . S
O376 C363 1.236 . S
N377 Mn361 2.282 . S
N377 C378 1.328 . S
N377 C382 1.318 . S
C378 N377 1.328 . S
C378 C379 1.457 . S
C378 H383 0.929 . S
C379 C378 1.457 . S
C379 C380 1.291 . S
C379 H392 0.931 . S
C380 C379 1.291 . S
C380 C381 1.373 . S
C380 H393 0.929 . S
C381 C380 1.373 . S
C381 C382 1.396 . S
C381 C388 1.403 . S
C382 C372 1.476 . S
C382 N377 1.318 . S
C382 C381 1.396 . S
H383 C378 0.929 . S
O384 Mn360 2.385 . S
O384 C362 1.234 . S
O385 Mn360 2.209 . S
O385 Mn361 2.215 . S
O385 C362 1.283 . S
O386 Mn360 2.094 . S
O386 C364 1.240 . S
O387 Mn361 2.117 . S
O387 C364 1.264 . S
C388 C381 1.403 . S
C388 C389 1.399 . S
C388 H394 0.929 . S
C389 C369 1.449 . S
C389 C388 1.399 . S
C389 H395 0.930 . S
H390 C370 0.931 . S
H391 C371 0.930 . S
H392 C379 0.931 . S
H393 C380 0.929 . S
H394 C388 0.929 . S
H395 C389 0.930 . S
Mn396 O401 2.095 . S
Mn396 O411 2.162 . S
Mn396 O412 2.297 . S
Mn396 O420 2.385 . S
Mn396 O421 2.209 . S
Mn396 O422 2.094 . S
Mn397 O402 2.121 . S
Mn397 N404 2.257 . S
Mn397 N413 2.282 . S
Mn397 O421 2.215 . S
Mn397 O423 2.117 . S
C398 O420 1.234 . S
C398 O421 1.283 . S
C399 O411 1.281 . S
C399 O412 1.236 . S
C400 O422 1.240 . S
C400 O423 1.264 . S
O401 Mn396 2.095 . S
O401 C410 1.250 . S
O402 Mn397 2.121 . S
O402 C410 1.258 . S
C403 N404 1.326 . S
C403 C407 1.460 . S
C403 H409 0.929 . S
N404 Mn397 2.257 . S
N404 C403 1.326 . S
N404 C408 1.362 . S
C405 C406 1.258 . S
C405 C408 1.431 . S
C405 C425 1.449 . S
C406 C405 1.258 . S
C406 C407 1.477 . S
C406 H426 0.931 . S
C407 C403 1.460 . S
C407 C406 1.477 . S
C407 H427 0.930 . S
C408 N404 1.362 . S
C408 C405 1.431 . S
C408 C418 1.476 . S
H409 C403 0.929 . S
C410 O401 1.250 . S
C410 O402 1.258 . S
O411 Mn396 2.162 . S
O411 C399 1.281 . S
O412 Mn396 2.297 . S
O412 C399 1.236 . S
N413 Mn397 2.282 . S
N413 C414 1.328 . S
N413 C418 1.318 . S
C414 N413 1.328 . S
C414 C415 1.457 . S
C414 H419 0.929 . S
C415 C414 1.457 . S
C415 C416 1.291 . S
C415 H428 0.931 . S
C416 C415 1.291 . S
C416 C417 1.373 . S
C416 H429 0.929 . S
C417 C416 1.373 . S
C417 C418 1.396 . S
C417 C424 1.403 . S
C418 C408 1.476 . S
C418 N413 1.318 . S
C418 C417 1.396 . S
H419 C414 0.929 . S
O420 Mn396 2.385 . S
O420 C398 1.234 . S
O421 Mn396 2.209 . S
O421 Mn397 2.215 . S
O421 C398 1.283 . S
O422 Mn396 2.094 . S
O422 C400 1.240 . S
O423 Mn397 2.117 . S
O423 C400 1.264 . S
C424 C417 1.403 . S
C424 C425 1.399 . S
C424 H430 0.929 . S
C425 C405 1.449 . S
C425 C424 1.399 . S
C425 H431 0.930 . S
H426 C406 0.931 . S
H427 C407 0.930 . S
H428 C415 0.931 . S
H429 C416 0.929 . S
H430 C424 0.929 . S
H431 C425 0.930 . S
Mn432 O437 2.095 . S
Mn432 O447 2.162 . S
Mn432 O448 2.297 . S
Mn432 O456 2.385 . S
Mn432 O457 2.209 . S
Mn432 O458 2.094 . S
Mn433 O438 2.121 . S
Mn433 N440 2.257 . S
Mn433 N449 2.282 . S
Mn433 O457 2.215 . S
Mn433 O459 2.117 . S
C434 O456 1.234 . S
C434 O457 1.283 . S
C435 O447 1.281 . S
C435 O448 1.236 . S
C436 O458 1.240 . S
C436 O459 1.264 . S
O437 Mn432 2.095 . S
O437 C446 1.250 . S
O438 Mn433 2.121 . S
O438 C446 1.258 . S
C439 N440 1.326 . S
C439 C443 1.460 . S
C439 H445 0.929 . S
N440 Mn433 2.257 . S
N440 C439 1.326 . S
N440 C444 1.362 . S
C441 C442 1.258 . S
C441 C444 1.431 . S
C441 C461 1.449 . S
C442 C441 1.258 . S
C442 C443 1.477 . S
C442 H462 0.931 . S
C443 C439 1.460 . S
C443 C442 1.477 . S
C443 H463 0.930 . S
C444 N440 1.362 . S
C444 C441 1.431 . S
C444 C454 1.476 . S
H445 C439 0.929 . S
C446 O437 1.250 . S
C446 O438 1.258 . S
O447 Mn432 2.162 . S
O447 C435 1.281 . S
O448 Mn432 2.297 . S
O448 C435 1.236 . S
N449 Mn433 2.282 . S
N449 C450 1.328 . S
N449 C454 1.318 . S
C450 N449 1.328 . S
C450 C451 1.457 . S
C450 H455 0.929 . S
C451 C450 1.457 . S
C451 C452 1.291 . S
C451 H464 0.931 . S
C452 C451 1.291 . S
C452 C453 1.373 . S
C452 H465 0.929 . S
C453 C452 1.373 . S
C453 C454 1.396 . S
C453 C460 1.403 . S
C454 C444 1.476 . S
C454 N449 1.318 . S
C454 C453 1.396 . S
H455 C450 0.929 . S
O456 Mn432 2.385 . S
O456 C434 1.234 . S
O457 Mn432 2.209 . S
O457 Mn433 2.215 . S
O457 C434 1.283 . S
O458 Mn432 2.094 . S
O458 C436 1.240 . S
O459 Mn433 2.117 . S
O459 C436 1.264 . S
C460 C453 1.403 . S
C460 C461 1.399 . S
C460 H466 0.929 . S
C461 C441 1.449 . S
C461 C460 1.399 . S
C461 H467 0.930 . S
H462 C442 0.931 . S
H463 C443 0.930 . S
H464 C451 0.931 . S
H465 C452 0.929 . S
H466 C460 0.929 . S
H467 C461 0.930 . S
Mn468 O473 2.095 . S
Mn468 O483 2.162 . S
Mn468 O484 2.297 . S
Mn468 O492 2.385 . S
Mn468 O493 2.209 . S
Mn468 O494 2.094 . S
Mn469 O474 2.121 . S
Mn469 N476 2.257 . S
Mn469 N485 2.282 . S
Mn469 O493 2.215 . S
Mn469 O495 2.117 . S
C470 O492 1.234 . S
C470 O493 1.283 . S
C471 O483 1.281 . S
C471 O484 1.236 . S
C472 O494 1.240 . S
C472 O495 1.264 . S
O473 Mn468 2.095 . S
O473 C482 1.250 . S
O474 Mn469 2.121 . S
O474 C482 1.258 . S
C475 N476 1.326 . S
C475 C479 1.460 . S
C475 H481 0.929 . S
N476 Mn469 2.257 . S
N476 C475 1.326 . S
N476 C480 1.362 . S
C477 C478 1.258 . S
C477 C480 1.431 . S
C477 C497 1.449 . S
C478 C477 1.258 . S
C478 C479 1.477 . S
C478 H498 0.931 . S
C479 C475 1.460 . S
C479 C478 1.477 . S
C479 H499 0.930 . S
C480 N476 1.362 . S
C480 C477 1.431 . S
C480 C490 1.476 . S
H481 C475 0.929 . S
C482 O473 1.250 . S
C482 O474 1.258 . S
O483 Mn468 2.162 . S
O483 C471 1.281 . S
O484 Mn468 2.297 . S
O484 C471 1.236 . S
N485 Mn469 2.282 . S
N485 C486 1.328 . S
N485 C490 1.318 . S
C486 N485 1.328 . S
C486 C487 1.457 . S
C486 H491 0.929 . S
C487 C486 1.457 . S
C487 C488 1.291 . S
C487 H500 0.931 . S
C488 C487 1.291 . S
C488 C489 1.373 . S
C488 H501 0.929 . S
C489 C488 1.373 . S
C489 C490 1.396 . S
C489 C496 1.403 . S
C490 C480 1.476 . S
C490 N485 1.318 . S
C490 C489 1.396 . S
H491 C486 0.929 . S
O492 Mn468 2.385 . S
O492 C470 1.234 . S
O493 Mn468 2.209 . S
O493 Mn469 2.215 . S
O493 C470 1.283 . S
O494 Mn468 2.094 . S
O494 C472 1.240 . S
O495 Mn469 2.117 . S
O495 C472 1.264 . S
C496 C489 1.403 . S
C496 C497 1.399 . S
C496 H502 0.929 . S
C497 C477 1.449 . S
C497 C496 1.399 . S
C497 H503 0.930 . S
H498 C478 0.931 . S
H499 C479 0.930 . S
H500 C487 0.931 . S
H501 C488 0.929 . S
H502 C496 0.929 . S
H503 C497 0.930 . S
H504 C512 0.929 . S
H505 C514 0.930 . S
H506 C516 0.930 . S
H507 C519 0.929 . S
H508 C522 0.930 . S
H509 C524 0.960 . S
H510 C524 0.960 . S
H511 C524 0.960 . S
C512 H504 0.929 . S
C512 C513 1.377 . S
C512 C514 1.384 . S
C513 C512 1.377 . S
C513 C519 1.390 . S
C514 H505 0.930 . S
C514 C512 1.384 . S
C514 C515 1.372 . S
C515 C514 1.372 . S
C515 C516 1.400 . S
C515 C520 1.490 . S
C516 H506 0.930 . S
C516 C515 1.400 . S
C516 C519 1.386 . S
H517 C533 0.930 . S
H518 C534 0.931 . S
C519 H507 0.929 . S
C519 C513 1.390 . S
C519 C516 1.386 . S
C520 C515 1.490 . S
C520 C522 1.395 . S
C520 C523 1.403 . S
H521 C527 0.930 . S
C522 H508 0.930 . S
C522 C520 1.395 . S
C522 C525 1.403 . S
C523 C520 1.403 . S
C523 C524 1.524 . S
C523 C527 1.400 . S
C524 H509 0.960 . S
C524 H510 0.960 . S
C524 H511 0.960 . S
C524 C523 1.524 . S
C525 C522 1.403 . S
C525 C526 1.392 . S
C525 C529 1.495 . S
C526 C525 1.392 . S
C526 C527 1.385 . S
C526 C528 1.478 . S
C527 H521 0.930 . S
C527 C523 1.400 . S
C527 C526 1.385 . S
C528 C526 1.478 . S
C528 C530 1.381 . S
C528 C534 1.383 . S
C529 C525 1.495 . S
C529 H535 0.959 . S
C529 H536 0.961 . S
C529 H537 0.960 . S
C530 C528 1.381 . S
C530 C531 1.394 . S
C530 H538 0.930 . S
C531 C530 1.394 . S
C531 C532 1.383 . S
C531 H539 0.929 . S
C532 C531 1.383 . S
C532 C533 1.377 . S
C533 H517 0.930 . S
C533 C532 1.377 . S
C533 C534 1.379 . S
C534 H518 0.931 . S
C534 C528 1.383 . S
C534 C533 1.379 . S
H535 C529 0.959 . S
H536 C529 0.961 . S
H537 C529 0.960 . S
H538 C530 0.930 . S
H539 C531 0.929 . S
H540 C548 0.929 . S
H541 C550 0.930 . S
H542 C552 0.930 . S
H543 C555 0.929 . S
H544 C558 0.930 . S
H545 C560 0.960 . S
H546 C560 0.960 . S
H547 C560 0.960 . S
C548 H540 0.929 . S
C548 C549 1.377 . S
C548 C550 1.384 . S
C549 C548 1.377 . S
C549 C555 1.390 . S
C550 H541 0.930 . S
C550 C548 1.384 . S
C550 C551 1.372 . S
C551 C550 1.372 . S
C551 C552 1.400 . S
C551 C556 1.490 . S
C552 H542 0.930 . S
C552 C551 1.400 . S
C552 C555 1.386 . S
H553 C569 0.930 . S
H554 C570 0.931 . S
C555 H543 0.929 . S
C555 C549 1.390 . S
C555 C552 1.386 . S
C556 C551 1.490 . S
C556 C558 1.395 . S
C556 C559 1.403 . S
H557 C563 0.930 . S
C558 H544 0.930 . S
C558 C556 1.395 . S
C558 C561 1.403 . S
C559 C556 1.403 . S
C559 C560 1.524 . S
C559 C563 1.400 . S
C560 H545 0.960 . S
C560 H546 0.960 . S
C560 H547 0.960 . S
C560 C559 1.524 . S
C561 C558 1.403 . S
C561 C562 1.392 . S
C561 C565 1.495 . S
C562 C561 1.392 . S
C562 C563 1.385 . S
C562 C564 1.478 . S
C563 H557 0.930 . S
C563 C559 1.400 . S
C563 C562 1.385 . S
C564 C562 1.478 . S
C564 C566 1.381 . S
C564 C570 1.383 . S
C565 C561 1.495 . S
C565 H571 0.959 . S
C565 H572 0.961 . S
C565 H573 0.960 . S
C566 C564 1.381 . S
C566 C567 1.394 . S
C566 H574 0.930 . S
C567 C566 1.394 . S
C567 C568 1.383 . S
C567 H575 0.929 . S
C568 C567 1.383 . S
C568 C569 1.377 . S
C569 H553 0.930 . S
C569 C568 1.377 . S
C569 C570 1.379 . S
C570 H554 0.931 . S
C570 C564 1.383 . S
C570 C569 1.379 . S
H571 C565 0.959 . S
H572 C565 0.961 . S
H573 C565 0.960 . S
H574 C566 0.930 . S
H575 C567 0.929 . S
H576 C584 0.929 . S
H577 C586 0.930 . S
H578 C588 0.930 . S
H579 C591 0.929 . S
H580 C594 0.930 . S
H581 C596 0.960 . S
H582 C596 0.960 . S
H583 C596 0.960 . S
C584 H576 0.929 . S
C584 C585 1.377 . S
C584 C586 1.384 . S
C585 C584 1.377 . S
C585 C591 1.390 . S
C586 H577 0.930 . S
C586 C584 1.384 . S
C586 C587 1.372 . S
C587 C586 1.372 . S
C587 C588 1.400 . S
C587 C592 1.490 . S
C588 H578 0.930 . S
C588 C587 1.400 . S
C588 C591 1.386 . S
H589 C605 0.930 . S
H590 C606 0.931 . S
C591 H579 0.929 . S
C591 C585 1.390 . S
C591 C588 1.386 . S
C592 C587 1.490 . S
C592 C594 1.395 . S
C592 C595 1.403 . S
H593 C599 0.930 . S
C594 H580 0.930 . S
C594 C592 1.395 . S
C594 C597 1.403 . S
C595 C592 1.403 . S
C595 C596 1.524 . S
C595 C599 1.400 . S
C596 H581 0.960 . S
C596 H582 0.960 . S
C596 H583 0.960 . S
C596 C595 1.524 . S
C597 C594 1.403 . S
C597 C598 1.392 . S
C597 C601 1.495 . S
C598 C597 1.392 . S
C598 C599 1.385 . S
C598 C600 1.478 . S
C599 H593 0.930 . S
C599 C595 1.400 . S
C599 C598 1.385 . S
C600 C598 1.478 . S
C600 C602 1.381 . S
C600 C606 1.383 . S
C601 C597 1.495 . S
C601 H607 0.959 . S
C601 H608 0.961 . S
C601 H609 0.960 . S
C602 C600 1.381 . S
C602 C603 1.394 . S
C602 H610 0.930 . S
C603 C602 1.394 . S
C603 C604 1.383 . S
C603 H611 0.929 . S
C604 C603 1.383 . S
C604 C605 1.377 . S
C605 H589 0.930 . S
C605 C604 1.377 . S
C605 C606 1.379 . S
C606 H590 0.931 . S
C606 C600 1.383 . S
C606 C605 1.379 . S
H607 C601 0.959 . S
H608 C601 0.961 . S
H609 C601 0.960 . S
H610 C602 0.930 . S
H611 C603 0.929 . S
H612 C620 0.929 . S
H613 C622 0.930 . S
H614 C624 0.930 . S
H615 C627 0.929 . S
H616 C630 0.930 . S
H617 C632 0.960 . S
H618 C632 0.960 . S
H619 C632 0.960 . S
C620 H612 0.929 . S
C620 C621 1.377 . S
C620 C622 1.384 . S
C621 C620 1.377 . S
C621 C627 1.390 . S
C622 H613 0.930 . S
C622 C620 1.384 . S
C622 C623 1.372 . S
C623 C622 1.372 . S
C623 C624 1.400 . S
C623 C628 1.490 . S
C624 H614 0.930 . S
C624 C623 1.400 . S
C624 C627 1.386 . S
H625 C641 0.930 . S
H626 C642 0.931 . S
C627 H615 0.929 . S
C627 C621 1.390 . S
C627 C624 1.386 . S
C628 C623 1.490 . S
C628 C630 1.395 . S
C628 C631 1.403 . S
H629 C635 0.930 . S
C630 H616 0.930 . S
C630 C628 1.395 . S
C630 C633 1.403 . S
C631 C628 1.403 . S
C631 C632 1.524 . S
C631 C635 1.400 . S
C632 H617 0.960 . S
C632 H618 0.960 . S
C632 H619 0.960 . S
C632 C631 1.524 . S
C633 C630 1.403 . S
C633 C634 1.392 . S
C633 C637 1.495 . S
C634 C633 1.392 . S
C634 C635 1.385 . S
C634 C636 1.478 . S
C635 H629 0.930 . S
C635 C631 1.400 . S
C635 C634 1.385 . S
C636 C634 1.478 . S
C636 C638 1.381 . S
C636 C642 1.383 . S
C637 C633 1.495 . S
C637 H643 0.959 . S
C637 H644 0.961 . S
C637 H645 0.960 . S
C638 C636 1.381 . S
C638 C639 1.394 . S
C638 H646 0.930 . S
C639 C638 1.394 . S
C639 C640 1.383 . S
C639 H647 0.929 . S
C640 C639 1.383 . S
C640 C641 1.377 . S
C641 H625 0.930 . S
C641 C640 1.377 . S
C641 C642 1.379 . S
C642 H626 0.931 . S
C642 C636 1.383 . S
C642 C641 1.379 . S
H643 C637 0.959 . S
H644 C637 0.961 . S
H645 C637 0.960 . S
H646 C638 0.930 . S
H647 C639 0.929 . S
H648 C656 0.929 . S
H649 C658 0.930 . S
H650 C660 0.930 . S
H651 C663 0.929 . S
H652 C666 0.930 . S
H653 C668 0.960 . S
H654 C668 0.960 . S
H655 C668 0.960 . S
C656 H648 0.929 . S
C656 C657 1.377 . S
C656 C658 1.384 . S
C657 C656 1.377 . S
C657 C663 1.390 . S
C658 H649 0.930 . S
C658 C656 1.384 . S
C658 C659 1.372 . S
C659 C658 1.372 . S
C659 C660 1.400 . S
C659 C664 1.490 . S
C660 H650 0.930 . S
C660 C659 1.400 . S
C660 C663 1.386 . S
H661 C677 0.930 . S
H662 C678 0.931 . S
C663 H651 0.929 . S
C663 C657 1.390 . S
C663 C660 1.386 . S
C664 C659 1.490 . S
C664 C666 1.395 . S
C664 C667 1.403 . S
H665 C671 0.930 . S
C666 H652 0.930 . S
C666 C664 1.395 . S
C666 C669 1.403 . S
C667 C664 1.403 . S
C667 C668 1.524 . S
C667 C671 1.400 . S
C668 H653 0.960 . S
C668 H654 0.960 . S
C668 H655 0.960 . S
C668 C667 1.524 . S
C669 C666 1.403 . S
C669 C670 1.392 . S
C669 C673 1.495 . S
C670 C669 1.392 . S
C670 C671 1.385 . S
C670 C672 1.478 . S
C671 H665 0.930 . S
C671 C667 1.400 . S
C671 C670 1.385 . S
C672 C670 1.478 . S
C672 C674 1.381 . S
C672 C678 1.383 . S
C673 C669 1.495 . S
C673 H679 0.959 . S
C673 H680 0.961 . S
C673 H681 0.960 . S
C674 C672 1.381 . S
C674 C675 1.394 . S
C674 H682 0.930 . S
C675 C674 1.394 . S
C675 C676 1.383 . S
C675 H683 0.929 . S
C676 C675 1.383 . S
C676 C677 1.377 . S
C677 H661 0.930 . S
C677 C676 1.377 . S
C677 C678 1.379 . S
C678 H662 0.931 . S
C678 C672 1.383 . S
C678 C677 1.379 . S
H679 C673 0.959 . S
H680 C673 0.961 . S
H681 C673 0.960 . S
H682 C674 0.930 . S
H683 C675 0.929 . S
H684 C692 0.929 . S
H685 C694 0.930 . S
H686 C696 0.930 . S
H687 C699 0.929 . S
H688 C702 0.930 . S
H689 C704 0.960 . S
H690 C704 0.960 . S
H691 C704 0.960 . S
C692 H684 0.929 . S
C692 C693 1.377 . S
C692 C694 1.384 . S
C693 C692 1.377 . S
C693 C699 1.390 . S
C694 H685 0.930 . S
C694 C692 1.384 . S
C694 C695 1.372 . S
C695 C694 1.372 . S
C695 C696 1.400 . S
C695 C700 1.490 . S
C696 H686 0.930 . S
C696 C695 1.400 . S
C696 C699 1.386 . S
H697 C713 0.930 . S
H698 C714 0.931 . S
C699 H687 0.929 . S
C699 C693 1.390 . S
C699 C696 1.386 . S
C700 C695 1.490 . S
C700 C702 1.395 . S
C700 C703 1.403 . S
H701 C707 0.930 . S
C702 H688 0.930 . S
C702 C700 1.395 . S
C702 C705 1.403 . S
C703 C700 1.403 . S
C703 C704 1.524 . S
C703 C707 1.400 . S
C704 H689 0.960 . S
C704 H690 0.960 . S
C704 H691 0.960 . S
C704 C703 1.524 . S
C705 C702 1.403 . S
C705 C706 1.392 . S
C705 C709 1.495 . S
C706 C705 1.392 . S
C706 C707 1.385 . S
C706 C708 1.478 . S
C707 H701 0.930 . S
C707 C703 1.400 . S
C707 C706 1.385 . S
C708 C706 1.478 . S
C708 C710 1.381 . S
C708 C714 1.383 . S
C709 C705 1.495 . S
C709 H715 0.959 . S
C709 H716 0.961 . S
C709 H717 0.960 . S
C710 C708 1.381 . S
C710 C711 1.394 . S
C710 H718 0.930 . S
C711 C710 1.394 . S
C711 C712 1.383 . S
C711 H719 0.929 . S
C712 C711 1.383 . S
C712 C713 1.377 . S
C713 H697 0.930 . S
C713 C712 1.377 . S
C713 C714 1.379 . S
C714 H698 0.931 . S
C714 C708 1.383 . S
C714 C713 1.379 . S
H715 C709 0.959 . S
H716 C709 0.961 . S
H717 C709 0.960 . S
H718 C710 0.930 . S
H719 C711 0.929 . S
H720 C728 0.929 . S
H721 C730 0.930 . S
H722 C732 0.930 . S
H723 C735 0.929 . S
H724 C738 0.930 . S
H725 C740 0.960 . S
H726 C740 0.960 . S
H727 C740 0.960 . S
C728 H720 0.929 . S
C728 C729 1.377 . S
C728 C730 1.384 . S
C729 C728 1.377 . S
C729 C735 1.390 . S
C730 H721 0.930 . S
C730 C728 1.384 . S
C730 C731 1.372 . S
C731 C730 1.372 . S
C731 C732 1.400 . S
C731 C736 1.490 . S
C732 H722 0.930 . S
C732 C731 1.400 . S
C732 C735 1.386 . S
H733 C749 0.930 . S
H734 C750 0.931 . S
C735 H723 0.929 . S
C735 C729 1.390 . S
C735 C732 1.386 . S
C736 C731 1.490 . S
C736 C738 1.395 . S
C736 C739 1.403 . S
H737 C743 0.930 . S
C738 H724 0.930 . S
C738 C736 1.395 . S
C738 C741 1.403 . S
C739 C736 1.403 . S
C739 C740 1.524 . S
C739 C743 1.400 . S
C740 H725 0.960 . S
C740 H726 0.960 . S
C740 H727 0.960 . S
C740 C739 1.524 . S
C741 C738 1.403 . S
C741 C742 1.392 . S
C741 C745 1.495 . S
C742 C741 1.392 . S
C742 C743 1.385 . S
C742 C744 1.478 . S
C743 H737 0.930 . S
C743 C739 1.400 . S
C743 C742 1.385 . S
C744 C742 1.478 . S
C744 C746 1.381 . S
C744 C750 1.383 . S
C745 C741 1.495 . S
C745 H751 0.959 . S
C745 H752 0.961 . S
C745 H753 0.960 . S
C746 C744 1.381 . S
C746 C747 1.394 . S
C746 H754 0.930 . S
C747 C746 1.394 . S
C747 C748 1.383 . S
C747 H755 0.929 . S
C748 C747 1.383 . S
C748 C749 1.377 . S
C749 H733 0.930 . S
C749 C748 1.377 . S
C749 C750 1.379 . S
C750 H734 0.931 . S
C750 C744 1.383 . S
C750 C749 1.379 . S
H751 C745 0.959 . S
H752 C745 0.961 . S
H753 C745 0.960 . S
H754 C746 0.930 . S
H755 C747 0.929 . S
H756 C764 0.929 . S
H757 C766 0.930 . S
H758 C768 0.930 . S
H759 C771 0.929 . S
H760 C774 0.930 . S
H761 C776 0.960 . S
H762 C776 0.960 . S
H763 C776 0.960 . S
C764 H756 0.929 . S
C764 C765 1.377 . S
C764 C766 1.384 . S
C765 C764 1.377 . S
C765 C771 1.390 . S
C766 H757 0.930 . S
C766 C764 1.384 . S
C766 C767 1.372 . S
C767 C766 1.372 . S
C767 C768 1.400 . S
C767 C772 1.490 . S
C768 H758 0.930 . S
C768 C767 1.400 . S
C768 C771 1.386 . S
H769 C785 0.930 . S
H770 C786 0.931 . S
C771 H759 0.929 . S
C771 C765 1.390 . S
C771 C768 1.386 . S
C772 C767 1.490 . S
C772 C774 1.395 . S
C772 C775 1.403 . S
H773 C779 0.930 . S
C774 H760 0.930 . S
C774 C772 1.395 . S
C774 C777 1.403 . S
C775 C772 1.403 . S
C775 C776 1.524 . S
C775 C779 1.400 . S
C776 H761 0.960 . S
C776 H762 0.960 . S
C776 H763 0.960 . S
C776 C775 1.524 . S
C777 C774 1.403 . S
C777 C778 1.392 . S
C777 C781 1.495 . S
C778 C777 1.392 . S
C778 C779 1.385 . S
C778 C780 1.478 . S
C779 H773 0.930 . S
C779 C775 1.400 . S
C779 C778 1.385 . S
C780 C778 1.478 . S
C780 C782 1.381 . S
C780 C786 1.383 . S
C781 C777 1.495 . S
C781 H787 0.959 . S
C781 H788 0.961 . S
C781 H789 0.960 . S
C782 C780 1.381 . S
C782 C783 1.394 . S
C782 H790 0.930 . S
C783 C782 1.394 . S
C783 C784 1.383 . S
C783 H791 0.929 . S
C784 C783 1.383 . S
C784 C785 1.377 . S
C785 H769 0.930 . S
C785 C784 1.377 . S
C785 C786 1.379 . S
C786 H770 0.931 . S
C786 C780 1.383 . S
C786 C785 1.379 . S
H787 C781 0.959 . S
H788 C781 0.961 . S
H789 C781 0.960 . S
H790 C782 0.930 . S
H791 C783 0.929 . S
H792 C800 0.929 . S
H793 C802 0.930 . S
H794 C804 0.930 . S
H795 C807 0.929 . S
H796 C810 0.930 . S
H797 C812 0.960 . S
H798 C812 0.960 . S
H799 C812 0.960 . S
C800 H792 0.929 . S
C800 C801 1.377 . S
C800 C802 1.384 . S
C801 C800 1.377 . S
C801 C807 1.390 . S
C802 H793 0.930 . S
C802 C800 1.384 . S
C802 C803 1.372 . S
C803 C802 1.372 . S
C803 C804 1.400 . S
C803 C808 1.490 . S
C804 H794 0.930 . S
C804 C803 1.400 . S
C804 C807 1.386 . S
H805 C821 0.930 . S
H806 C822 0.931 . S
C807 H795 0.929 . S
C807 C801 1.390 . S
C807 C804 1.386 . S
C808 C803 1.490 . S
C808 C810 1.395 . S
C808 C811 1.403 . S
H809 C815 0.930 . S
C810 H796 0.930 . S
C810 C808 1.395 . S
C810 C813 1.403 . S
C811 C808 1.403 . S
C811 C812 1.524 . S
C811 C815 1.400 . S
C812 H797 0.960 . S
C812 H798 0.960 . S
C812 H799 0.960 . S
C812 C811 1.524 . S
C813 C810 1.403 . S
C813 C814 1.392 . S
C813 C817 1.495 . S
C814 C813 1.392 . S
C814 C815 1.385 . S
C814 C816 1.478 . S
C815 H809 0.930 . S
C815 C811 1.400 . S
C815 C814 1.385 . S
C816 C814 1.478 . S
C816 C818 1.381 . S
C816 C822 1.383 . S
C817 C813 1.495 . S
C817 H823 0.959 . S
C817 H824 0.961 . S
C817 H825 0.960 . S
C818 C816 1.381 . S
C818 C819 1.394 . S
C818 H826 0.930 . S
C819 C818 1.394 . S
C819 C820 1.383 . S
C819 H827 0.929 . S
C820 C819 1.383 . S
C820 C821 1.377 . S
C821 H805 0.930 . S
C821 C820 1.377 . S
C821 C822 1.379 . S
C822 H806 0.931 . S
C822 C816 1.383 . S
C822 C821 1.379 . S
H823 C817 0.959 . S
H824 C817 0.961 . S
H825 C817 0.960 . S
H826 C818 0.930 . S
H827 C819 0.929 . S
H828 C836 0.929 . S
H829 C838 0.930 . S
H830 C840 0.930 . S
H831 C843 0.929 1_556 S
H832 C846 0.930 . S
H833 C848 0.960 . S
H834 C848 0.960 . S
H835 C848 0.960 . S
C836 H828 0.929 . S
C836 C837 1.377 . S
C836 C838 1.384 . S
C837 C836 1.377 . S
C837 C843 1.390 . S
C838 H829 0.930 . S
C838 C836 1.384 . S
C838 C839 1.372 . S
C839 C838 1.372 . S
C839 C840 1.400 . S
C839 C844 1.490 . S
C840 H830 0.930 . S
C840 C839 1.400 . S
C840 C843 1.386 . S
H841 C857 0.930 . S
H842 C858 0.931 . S
C843 H831 0.929 1_554 S
C843 C837 1.390 . S
C843 C840 1.386 . S
C844 C839 1.490 . S
C844 C846 1.395 . S
C844 C847 1.403 . S
H845 C851 0.930 . S
C846 H832 0.930 . S
C846 C844 1.395 . S
C846 C849 1.403 . S
C847 C844 1.403 . S
C847 C848 1.524 . S
C847 C851 1.400 . S
C848 H833 0.960 . S
C848 H834 0.960 . S
C848 H835 0.960 . S
C848 C847 1.524 . S
C849 C846 1.403 . S
C849 C850 1.392 . S
C849 C853 1.495 . S
C850 C849 1.392 . S
C850 C851 1.385 . S
C850 C852 1.478 . S
C851 H845 0.930 . S
C851 C847 1.400 . S
C851 C850 1.385 . S
C852 C850 1.478 . S
C852 C854 1.381 . S
C852 C858 1.383 . S
C853 C849 1.495 . S
C853 H859 0.959 . S
C853 H860 0.961 . S
C853 H861 0.960 . S
C854 C852 1.381 . S
C854 C855 1.394 . S
C854 H862 0.930 . S
C855 C854 1.394 . S
C855 C856 1.383 . S
C855 H863 0.929 . S
C856 C855 1.383 . S
C856 C857 1.377 . S
C857 H841 0.930 . S
C857 C856 1.377 . S
C857 C858 1.379 . S
C858 H842 0.931 . S
C858 C852 1.383 . S
C858 C857 1.379 . S
H859 C853 0.959 . S
H860 C853 0.961 . S
H861 C853 0.960 . S
H862 C854 0.930 . S
H863 C855 0.929 . S
H864 C872 0.929 . S
H865 C874 0.930 . S
H866 C876 0.930 . S
H867 C879 0.929 . S
H868 C882 0.930 . S
H869 C884 0.960 . S
H870 C884 0.960 . S
H871 C884 0.960 . S
C872 H864 0.929 . S
C872 C873 1.377 . S
C872 C874 1.384 . S
C873 C872 1.377 . S
C873 C879 1.390 . S
C874 H865 0.930 . S
C874 C872 1.384 . S
C874 C875 1.372 . S
C875 C874 1.372 . S
C875 C876 1.400 . S
C875 C880 1.490 . S
C876 H866 0.930 . S
C876 C875 1.400 . S
C876 C879 1.386 . S
H877 C893 0.930 . S
H878 C894 0.931 . S
C879 H867 0.929 . S
C879 C873 1.390 . S
C879 C876 1.386 . S
C880 C875 1.490 . S
C880 C882 1.395 . S
C880 C883 1.403 . S
H881 C887 0.930 . S
C882 H868 0.930 . S
C882 C880 1.395 . S
C882 C885 1.403 . S
C883 C880 1.403 . S
C883 C884 1.524 . S
C883 C887 1.400 . S
C884 H869 0.960 . S
C884 H870 0.960 . S
C884 H871 0.960 . S
C884 C883 1.524 . S
C885 C882 1.403 . S
C885 C886 1.392 . S
C885 C889 1.495 . S
C886 C885 1.392 . S
C886 C887 1.385 . S
C886 C888 1.478 . S
C887 H881 0.930 . S
C887 C883 1.400 . S
C887 C886 1.385 . S
C888 C886 1.478 . S
C888 C890 1.381 . S
C888 C894 1.383 . S
C889 C885 1.495 . S
C889 H895 0.959 . S
C889 H896 0.961 . S
C889 H897 0.960 . S
C890 C888 1.381 . S
C890 C891 1.394 . S
C890 H898 0.930 . S
C891 C890 1.394 . S
C891 C892 1.383 . S
C891 H899 0.929 . S
C892 C891 1.383 . S
C892 C893 1.377 . S
C893 H877 0.930 . S
C893 C892 1.377 . S
C893 C894 1.379 . S
C894 H878 0.931 . S
C894 C888 1.383 . S
C894 C893 1.379 . S
H895 C889 0.959 . S
H896 C889 0.961 . S
H897 C889 0.960 . S
H898 C890 0.930 . S
H899 C891 0.929 . S
H900 C908 0.929 . S
H901 C910 0.930 . S
H902 C912 0.930 . S
H903 C915 0.929 . S
H904 C918 0.930 . S
H905 C920 0.960 . S
H906 C920 0.960 . S
H907 C920 0.960 . S
C908 H900 0.929 . S
C908 C909 1.377 . S
C908 C910 1.384 . S
C909 C908 1.377 . S
C909 C915 1.390 . S
C910 H901 0.930 . S
C910 C908 1.384 . S
C910 C911 1.372 . S
C911 C910 1.372 . S
C911 C912 1.400 . S
C911 C916 1.490 . S
C912 H902 0.930 . S
C912 C911 1.400 . S
C912 C915 1.386 . S
H913 C929 0.930 . S
H914 C930 0.931 . S
C915 H903 0.929 . S
C915 C909 1.390 . S
C915 C912 1.386 . S
C916 C911 1.490 . S
C916 C918 1.395 . S
C916 C919 1.403 . S
H917 C923 0.930 . S
C918 H904 0.930 . S
C918 C916 1.395 . S
C918 C921 1.403 . S
C919 C916 1.403 . S
C919 C920 1.524 . S
C919 C923 1.400 . S
C920 H905 0.960 . S
C920 H906 0.960 . S
C920 H907 0.960 . S
C920 C919 1.524 . S
C921 C918 1.403 . S
C921 C922 1.392 . S
C921 C925 1.495 . S
C922 C921 1.392 . S
C922 C923 1.385 . S
C922 C924 1.478 . S
C923 H917 0.930 . S
C923 C919 1.400 . S
C923 C922 1.385 . S
C924 C922 1.478 . S
C924 C926 1.381 . S
C924 C930 1.383 . S
C925 C921 1.495 . S
C925 H931 0.959 . S
C925 H932 0.961 . S
C925 H933 0.960 . S
C926 C924 1.381 . S
C926 C927 1.394 . S
C926 H934 0.930 . S
C927 C926 1.394 . S
C927 C928 1.383 . S
C927 H935 0.929 . S
C928 C927 1.383 . S
C928 C929 1.377 . S
C929 H913 0.930 . S
C929 C928 1.377 . S
C929 C930 1.379 . S
C930 H914 0.931 . S
C930 C924 1.383 . S
C930 C929 1.379 . S
H931 C925 0.959 . S
H932 C925 0.961 . S
H933 C925 0.960 . S
H934 C926 0.930 . S
H935 C927 0.929 . S
H936 C944 0.929 . S
H937 C946 0.930 . S
H938 C948 0.930 . S
H939 C951 0.929 . S
H940 C954 0.930 . S
H941 C956 0.960 . S
H942 C956 0.960 . S
H943 C956 0.960 . S
C944 H936 0.929 . S
C944 C945 1.377 . S
C944 C946 1.384 . S
C945 C944 1.377 . S
C945 C951 1.390 . S
C946 H937 0.930 . S
C946 C944 1.384 . S
C946 C947 1.372 . S
C947 C946 1.372 . S
C947 C948 1.400 . S
C947 C952 1.490 . S
C948 H938 0.930 . S
C948 C947 1.400 . S
C948 C951 1.386 . S
H949 C965 0.930 . S
H950 C966 0.931 . S
C951 H939 0.929 . S
C951 C945 1.390 . S
C951 C948 1.386 . S
C952 C947 1.490 . S
C952 C954 1.395 . S
C952 C955 1.403 . S
H953 C959 0.930 . S
C954 H940 0.930 . S
C954 C952 1.395 . S
C954 C957 1.403 . S
C955 C952 1.403 . S
C955 C956 1.524 . S
C955 C959 1.400 . S
C956 H941 0.960 . S
C956 H942 0.960 . S
C956 H943 0.960 . S
C956 C955 1.524 . S
C957 C954 1.403 . S
C957 C958 1.392 . S
C957 C961 1.495 . S
C958 C957 1.392 . S
C958 C959 1.385 . S
C958 C960 1.478 . S
C959 H953 0.930 . S
C959 C955 1.400 . S
C959 C958 1.385 . S
C960 C958 1.478 . S
C960 C962 1.381 . S
C960 C966 1.383 . S
C961 C957 1.495 . S
C961 H967 0.959 . S
C961 H968 0.961 . S
C961 H969 0.960 . S
C962 C960 1.381 . S
C962 C963 1.394 . S
C962 H970 0.930 . S
C963 C962 1.394 . S
C963 C964 1.383 . S
C963 H971 0.929 . S
C964 C963 1.383 . S
C964 C965 1.377 . S
C965 H949 0.930 . S
C965 C964 1.377 . S
C965 C966 1.379 . S
C966 H950 0.931 . S
C966 C960 1.383 . S
C966 C965 1.379 . S
H967 C961 0.959 . S
H968 C961 0.961 . S
H969 C961 0.960 . S
H970 C962 0.930 . S
H971 C963 0.929 . S
H972 C980 0.929 . S
H973 C982 0.930 . S
H974 C984 0.930 . S
H975 C987 0.929 . S
H976 C990 0.930 . S
H977 C992 0.960 . S
H978 C992 0.960 . S
H979 C992 0.960 . S
C980 H972 0.929 . S
C980 C981 1.377 . S
C980 C982 1.384 . S
C981 C980 1.377 . S
C981 C987 1.390 . S
C982 H973 0.930 . S
C982 C980 1.384 . S
C982 C983 1.372 . S
C983 C982 1.372 . S
C983 C984 1.400 . S
C983 C988 1.490 . S
C984 H974 0.930 . S
C984 C983 1.400 . S
C984 C987 1.386 . S
H985 C1001 0.930 . S
H986 C1002 0.931 . S
C987 H975 0.929 . S
C987 C981 1.390 . S
C987 C984 1.386 . S
C988 C983 1.490 . S
C988 C990 1.395 . S
C988 C991 1.403 . S
H989 C995 0.930 . S
C990 H976 0.930 . S
C990 C988 1.395 . S
C990 C993 1.403 . S
C991 C988 1.403 . S
C991 C992 1.524 . S
C991 C995 1.400 . S
C992 H977 0.960 . S
C992 H978 0.960 . S
C992 H979 0.960 . S
C992 C991 1.524 . S
C993 C990 1.403 . S
C993 C994 1.392 . S
C993 C997 1.495 . S
C994 C993 1.392 . S
C994 C995 1.385 . S
C994 C996 1.478 . S
C995 H989 0.930 . S
C995 C991 1.400 . S
C995 C994 1.385 . S
C996 C994 1.478 . S
C996 C998 1.381 . S
C996 C1002 1.383 . S
C997 C993 1.495 . S
C997 H1003 0.959 . S
C997 H1004 0.961 . S
C997 H1005 0.960 . S
C998 C996 1.381 . S
C998 C999 1.394 . S
C998 H1006 0.930 . S
C999 C998 1.394 . S
C999 C1000 1.383 . S
C999 H1007 0.929 . S
C1000 C999 1.383 . S
C1000 C1001 1.377 . S
C1001 H985 0.930 . S
C1001 C1000 1.377 . S
C1001 C1002 1.379 . S
C1002 H986 0.931 . S
C1002 C996 1.383 . S
C1002 C1001 1.379 . S
H1003 C997 0.959 . S
H1004 C997 0.961 . S
H1005 C997 0.960 . S
H1006 C998 0.930 . S
H1007 C999 0.929 . S
H1008 C1016 0.929 . S
H1009 C1018 0.930 . S
H1010 C1020 0.930 . S
H1011 C1023 0.929 . S
H1012 C1026 0.930 . S
H1013 C1028 0.960 . S
H1014 C1028 0.960 . S
H1015 C1028 0.960 . S
C1016 H1008 0.929 . S
C1016 C1017 1.377 . S
C1016 C1018 1.384 . S
C1017 C1016 1.377 . S
C1017 C1023 1.390 . S
C1018 H1009 0.930 . S
C1018 C1016 1.384 . S
C1018 C1019 1.372 . S
C1019 C1018 1.372 . S
C1019 C1020 1.400 . S
C1019 C1024 1.490 . S
C1020 H1010 0.930 . S
C1020 C1019 1.400 . S
C1020 C1023 1.386 . S
H1021 C1037 0.930 . S
H1022 C1038 0.931 . S
C1023 H1011 0.929 . S
C1023 C1017 1.390 . S
C1023 C1020 1.386 . S
C1024 C1019 1.490 . S
C1024 C1026 1.395 . S
C1024 C1027 1.403 . S
H1025 C1031 0.930 . S
C1026 H1012 0.930 . S
C1026 C1024 1.395 . S
C1026 C1029 1.403 . S
C1027 C1024 1.403 . S
C1027 C1028 1.524 . S
C1027 C1031 1.400 . S
C1028 H1013 0.960 . S
C1028 H1014 0.960 . S
C1028 H1015 0.960 . S
C1028 C1027 1.524 . S
C1029 C1026 1.403 . S
C1029 C1030 1.392 . S
C1029 C1033 1.495 . S
C1030 C1029 1.392 . S
C1030 C1031 1.385 . S
C1030 C1032 1.478 . S
C1031 H1025 0.930 . S
C1031 C1027 1.400 . S
C1031 C1030 1.385 . S
C1032 C1030 1.478 . S
C1032 C1034 1.381 . S
C1032 C1038 1.383 . S
C1033 C1029 1.495 . S
C1033 H1039 0.959 . S
C1033 H1040 0.961 . S
C1033 H1041 0.960 . S
C1034 C1032 1.381 . S
C1034 C1035 1.394 . S
C1034 H1042 0.930 . S
C1035 C1034 1.394 . S
C1035 C1036 1.383 . S
C1035 H1043 0.929 . S
C1036 C1035 1.383 . S
C1036 C1037 1.377 . S
C1037 H1021 0.930 . S
C1037 C1036 1.377 . S
C1037 C1038 1.379 . S
C1038 H1022 0.931 . S
C1038 C1032 1.383 . S
C1038 C1037 1.379 . S
H1039 C1033 0.959 . S
H1040 C1033 0.961 . S
H1041 C1033 0.960 . S
H1042 C1034 0.930 . S
H1043 C1035 0.929 . S
H1044 C1052 0.929 . S
H1045 C1054 0.930 . S
H1046 C1056 0.930 . S
H1047 C1059 0.929 . S
H1048 C1062 0.930 . S
H1049 C1064 0.960 . S
H1050 C1064 0.960 . S
H1051 C1064 0.960 . S
C1052 H1044 0.929 . S
C1052 C1053 1.377 . S
C1052 C1054 1.384 . S
C1053 C1052 1.377 . S
C1053 C1059 1.390 . S
C1054 H1045 0.930 . S
C1054 C1052 1.384 . S
C1054 C1055 1.372 . S
C1055 C1054 1.372 . S
C1055 C1056 1.400 . S
C1055 C1060 1.490 . S
C1056 H1046 0.930 . S
C1056 C1055 1.400 . S
C1056 C1059 1.386 . S
H1057 C1073 0.930 . S
H1058 C1074 0.931 . S
C1059 H1047 0.929 . S
C1059 C1053 1.390 . S
C1059 C1056 1.386 . S
C1060 C1055 1.490 . S
C1060 C1062 1.395 . S
C1060 C1063 1.403 . S
H1061 C1067 0.930 . S
C1062 H1048 0.930 . S
C1062 C1060 1.395 . S
C1062 C1065 1.403 . S
C1063 C1060 1.403 . S
C1063 C1064 1.524 . S
C1063 C1067 1.400 . S
C1064 H1049 0.960 . S
C1064 H1050 0.960 . S
C1064 H1051 0.960 . S
C1064 C1063 1.524 . S
C1065 C1062 1.403 . S
C1065 C1066 1.392 . S
C1065 C1069 1.495 1_556 S
C1066 C1065 1.392 . S
C1066 C1067 1.385 . S
C1066 C1068 1.484 . S
C1067 H1061 0.930 . S
C1067 C1063 1.400 . S
C1067 C1066 1.385 . S
C1068 C1066 1.484 . S
C1068 C1070 1.374 1_556 S
C1068 C1074 1.383 . S
C1069 C1065 1.495 1_554 S
C1069 H1075 0.960 . S
C1069 H1076 0.961 . S
C1069 H1077 0.960 . S
C1070 C1068 1.374 1_554 S
C1070 C1071 1.394 . S
C1070 H1078 0.930 . S
C1071 C1070 1.394 . S
C1071 C1072 1.383 . S
C1071 H1079 0.929 . S
C1072 C1071 1.383 . S
C1072 C1073 1.377 . S
C1073 H1057 0.930 . S
C1073 C1072 1.377 . S
C1073 C1074 1.379 1_554 S
C1074 H1058 0.931 . S
C1074 C1068 1.383 . S
C1074 C1073 1.379 1_556 S
H1075 C1069 0.960 . S
H1076 C1069 0.961 . S
H1077 C1069 0.960 . S
H1078 C1070 0.930 . S
H1079 C1071 0.929 . S
H1080 C1088 0.929 . S
H1081 C1090 0.930 . S
H1082 C1092 0.930 . S
H1083 C1095 0.929 . S
H1084 C1098 0.930 . S
H1085 C1100 0.960 . S
H1086 C1100 0.960 . S
H1087 C1100 0.960 . S
C1088 H1080 0.929 . S
C1088 C1089 1.377 . S
C1088 C1090 1.384 . S
C1089 C1088 1.377 . S
C1089 C1095 1.390 . S
C1090 H1081 0.930 . S
C1090 C1088 1.384 . S
C1090 C1091 1.372 . S
C1091 C1090 1.372 . S
C1091 C1092 1.400 . S
C1091 C1096 1.490 . S
C1092 H1082 0.930 . S
C1092 C1091 1.400 . S
C1092 C1095 1.386 . S
H1093 C1109 0.930 . S
H1094 C1110 0.931 . S
C1095 H1083 0.929 . S
C1095 C1089 1.390 . S
C1095 C1092 1.386 . S
C1096 C1091 1.490 . S
C1096 C1098 1.395 . S
C1096 C1099 1.403 . S
H1097 C1103 0.930 . S
C1098 H1084 0.930 . S
C1098 C1096 1.395 . S
C1098 C1101 1.403 . S
C1099 C1096 1.403 . S
C1099 C1100 1.524 . S
C1099 C1103 1.400 . S
C1100 H1085 0.960 . S
C1100 H1086 0.960 . S
C1100 H1087 0.960 . S
C1100 C1099 1.524 . S
C1101 C1098 1.403 . S
C1101 C1102 1.392 . S
C1101 C1105 1.495 . S
C1102 C1101 1.392 . S
C1102 C1103 1.385 . S
C1102 C1104 1.478 . S
C1103 H1097 0.930 . S
C1103 C1099 1.400 . S
C1103 C1102 1.385 . S
C1104 C1102 1.478 . S
C1104 C1106 1.381 . S
C1104 C1110 1.383 . S
C1105 C1101 1.495 . S
C1105 H1111 0.959 . S
C1105 H1112 0.961 . S
C1105 H1113 0.960 . S
C1106 C1104 1.381 . S
C1106 C1107 1.394 . S
C1106 H1114 0.930 . S
C1107 C1106 1.394 . S
C1107 C1108 1.383 . S
C1107 H1115 0.929 . S
C1108 C1107 1.383 . S
C1108 C1109 1.377 . S
C1109 H1093 0.930 . S
C1109 C1108 1.377 . S
C1109 C1110 1.379 . S
C1110 H1094 0.931 . S
C1110 C1104 1.383 . S
C1110 C1109 1.379 . S
H1111 C1105 0.959 . S
H1112 C1105 0.961 . S
H1113 C1105 0.960 . S
H1114 C1106 0.930 . S
H1115 C1107 0.929 . S
H1116 C1124 0.929 . S
H1117 C1126 0.930 . S
H1118 C1128 0.930 . S
H1119 C1131 0.929 . S
H1120 C1134 0.930 . S
H1121 C1136 0.960 . S
H1122 C1136 0.960 . S
H1123 C1136 0.960 . S
C1124 H1116 0.929 . S
C1124 C1125 1.377 . S
C1124 C1126 1.384 . S
C1125 C1124 1.377 . S
C1125 C1131 1.390 . S
C1126 H1117 0.930 . S
C1126 C1124 1.384 . S
C1126 C1127 1.372 . S
C1127 C1126 1.372 . S
C1127 C1128 1.400 . S
C1127 C1132 1.490 . S
C1128 H1118 0.930 . S
C1128 C1127 1.400 . S
C1128 C1131 1.386 . S
H1129 C1145 0.930 . S
H1130 C1146 0.931 . S
C1131 H1119 0.929 . S
C1131 C1125 1.390 . S
C1131 C1128 1.386 . S
C1132 C1127 1.490 . S
C1132 C1134 1.395 . S
C1132 C1135 1.403 . S
H1133 C1139 0.930 . S
C1134 H1120 0.930 . S
C1134 C1132 1.395 . S
C1134 C1137 1.403 . S
C1135 C1132 1.403 . S
C1135 C1136 1.524 . S
C1135 C1139 1.400 . S
C1136 H1121 0.960 . S
C1136 H1122 0.960 . S
C1136 H1123 0.960 . S
C1136 C1135 1.524 . S
C1137 C1134 1.403 . S
C1137 C1138 1.392 . S
C1137 C1141 1.495 . S
C1138 C1137 1.392 . S
C1138 C1139 1.385 . S
C1138 C1140 1.478 . S
C1139 H1133 0.930 . S
C1139 C1135 1.400 . S
C1139 C1138 1.385 . S
C1140 C1138 1.478 . S
C1140 C1142 1.381 . S
C1140 C1146 1.383 . S
C1141 C1137 1.495 . S
C1141 H1147 0.959 . S
C1141 H1148 0.961 . S
C1141 H1149 0.960 . S
C1142 C1140 1.381 . S
C1142 C1143 1.394 . S
C1142 H1150 0.930 . S
C1143 C1142 1.394 . S
C1143 C1144 1.383 . S
C1143 H1151 0.929 . S
C1144 C1143 1.383 . S
C1144 C1145 1.377 . S
C1145 H1129 0.930 . S
C1145 C1144 1.377 . S
C1145 C1146 1.379 . S
C1146 H1130 0.931 . S
C1146 C1140 1.383 . S
C1146 C1145 1.379 . S
H1147 C1141 0.959 . S
H1148 C1141 0.961 . S
H1149 C1141 0.960 . S
H1150 C1142 0.930 . S
H1151 C1143 0.929 . S
H1152 C1160 0.929 . S
H1153 C1162 0.930 . S
H1154 C1164 0.930 . S
H1155 C1167 0.929 . S
H1156 C1170 0.930 . S
H1157 C1172 0.960 . S
H1158 C1172 0.960 . S
H1159 C1172 0.960 . S
C1160 H1152 0.929 . S
C1160 C1161 1.377 . S
C1160 C1162 1.384 . S
C1161 C1160 1.377 . S
C1161 C1167 1.390 . S
C1162 H1153 0.930 . S
C1162 C1160 1.384 . S
C1162 C1163 1.372 . S
C1163 C1162 1.372 . S
C1163 C1164 1.400 . S
C1163 C1168 1.490 . S
C1164 H1154 0.930 . S
C1164 C1163 1.400 . S
C1164 C1167 1.386 . S
H1165 C1181 0.930 . S
H1166 C1182 0.931 . S
C1167 H1155 0.929 . S
C1167 C1161 1.390 . S
C1167 C1164 1.386 . S
C1168 C1163 1.490 . S
C1168 C1170 1.395 . S
C1168 C1171 1.403 . S
H1169 C1175 0.930 . S
C1170 H1156 0.930 . S
C1170 C1168 1.395 . S
C1170 C1173 1.403 . S
C1171 C1168 1.403 . S
C1171 C1172 1.524 . S
C1171 C1175 1.400 . S
C1172 H1157 0.960 . S
C1172 H1158 0.960 . S
C1172 H1159 0.960 . S
C1172 C1171 1.524 . S
C1173 C1170 1.403 . S
C1173 C1174 1.392 . S
C1173 C1177 1.495 . S
C1174 C1173 1.392 . S
C1174 C1175 1.385 . S
C1174 C1176 1.478 . S
C1175 H1169 0.930 . S
C1175 C1171 1.400 . S
C1175 C1174 1.385 . S
C1176 C1174 1.478 . S
C1176 C1178 1.381 . S
C1176 C1182 1.383 . S
C1177 C1173 1.495 . S
C1177 H1183 0.959 . S
C1177 H1184 0.961 . S
C1177 H1185 0.960 . S
C1178 C1176 1.381 . S
C1178 C1179 1.394 . S
C1178 H1186 0.930 . S
C1179 C1178 1.394 . S
C1179 C1180 1.383 . S
C1179 H1187 0.929 . S
C1180 C1179 1.383 . S
C1180 C1181 1.377 . S
C1181 H1165 0.930 . S
C1181 C1180 1.377 . S
C1181 C1182 1.379 . S
C1182 H1166 0.931 . S
C1182 C1176 1.383 . S
C1182 C1181 1.379 . S
H1183 C1177 0.959 . S
H1184 C1177 0.961 . S
H1185 C1177 0.960 . S
H1186 C1178 0.930 . S
H1187 C1179 0.929 . S
H1188 C1196 0.929 . S
H1189 C1198 0.930 . S
H1190 C1200 0.930 . S
H1191 C1203 0.929 . S
H1192 C1206 0.930 . S
H1193 C1208 0.960 . S
H1194 C1208 0.960 . S
H1195 C1208 0.960 . S
C1196 H1188 0.929 . S
C1196 C1197 1.377 . S
C1196 C1198 1.384 . S
C1197 C1196 1.377 . S
C1197 C1203 1.390 . S
C1198 H1189 0.930 . S
C1198 C1196 1.384 . S
C1198 C1199 1.372 . S
C1199 C1198 1.372 . S
C1199 C1200 1.400 . S
C1199 C1204 1.490 . S
C1200 H1190 0.930 . S
C1200 C1199 1.400 . S
C1200 C1203 1.386 . S
H1201 C1217 0.930 . S
H1202 C1218 0.931 . S
C1203 H1191 0.929 . S
C1203 C1197 1.390 . S
C1203 C1200 1.386 . S
C1204 C1199 1.490 . S
C1204 C1206 1.395 . S
C1204 C1207 1.403 . S
H1205 C1211 0.930 . S
C1206 H1192 0.930 . S
C1206 C1204 1.395 . S
C1206 C1209 1.403 . S
C1207 C1204 1.403 . S
C1207 C1208 1.524 . S
C1207 C1211 1.400 . S
C1208 H1193 0.960 . S
C1208 H1194 0.960 . S
C1208 H1195 0.960 . S
C1208 C1207 1.524 . S
C1209 C1206 1.403 . S
C1209 C1210 1.392 . S
C1209 C1213 1.495 . S
C1210 C1209 1.392 . S
C1210 C1211 1.385 . S
C1210 C1212 1.478 . S
C1211 H1205 0.930 . S
C1211 C1207 1.400 . S
C1211 C1210 1.385 . S
C1212 C1210 1.478 . S
C1212 C1214 1.381 . S
C1212 C1218 1.383 . S
C1213 C1209 1.495 . S
C1213 H1219 0.959 . S
C1213 H1220 0.961 . S
C1213 H1221 0.960 . S
C1214 C1212 1.381 . S
C1214 C1215 1.394 . S
C1214 H1222 0.930 . S
C1215 C1214 1.394 . S
C1215 C1216 1.383 . S
C1215 H1223 0.929 . S
C1216 C1215 1.383 . S
C1216 C1217 1.377 . S
C1217 H1201 0.930 . S
C1217 C1216 1.377 . S
C1217 C1218 1.379 . S
C1218 H1202 0.931 . S
C1218 C1212 1.383 . S
C1218 C1217 1.379 . S
H1219 C1213 0.959 . S
H1220 C1213 0.961 . S
H1221 C1213 0.960 . S
H1222 C1214 0.930 . S
H1223 C1215 0.929 . S
H1224 C1232 0.929 . S
H1225 C1234 0.930 . S
H1226 C1236 0.930 . S
H1227 C1239 0.929 . S
H1228 C1242 0.930 . S
H1229 C1244 0.960 . S
H1230 C1244 0.960 . S
H1231 C1244 0.960 . S
C1232 H1224 0.929 . S
C1232 C1233 1.377 . S
C1232 C1234 1.384 . S
C1233 C1232 1.377 . S
C1233 C1239 1.390 . S
C1234 H1225 0.930 . S
C1234 C1232 1.384 . S
C1234 C1235 1.372 . S
C1235 C1234 1.372 . S
C1235 C1236 1.400 . S
C1235 C1240 1.490 . S
C1236 H1226 0.930 . S
C1236 C1235 1.400 . S
C1236 C1239 1.386 . S
H1237 C1253 0.930 . S
H1238 C1254 0.931 . S
C1239 H1227 0.929 . S
C1239 C1233 1.390 . S
C1239 C1236 1.386 . S
C1240 C1235 1.490 . S
C1240 C1242 1.395 . S
C1240 C1243 1.403 . S
H1241 C1247 0.930 . S
C1242 H1228 0.930 . S
C1242 C1240 1.395 . S
C1242 C1245 1.403 . S
C1243 C1240 1.403 . S
C1243 C1244 1.524 . S
C1243 C1247 1.400 . S
C1244 H1229 0.960 . S
C1244 H1230 0.960 . S
C1244 H1231 0.960 . S
C1244 C1243 1.524 . S
C1245 C1242 1.403 . S
C1245 C1246 1.392 . S
C1245 C1249 1.495 . S
C1246 C1245 1.392 . S
C1246 C1247 1.385 . S
C1246 C1248 1.478 . S
C1247 H1241 0.930 . S
C1247 C1243 1.400 . S
C1247 C1246 1.385 . S
C1248 C1246 1.478 . S
C1248 C1250 1.381 . S
C1248 C1254 1.383 . S
C1249 C1245 1.495 . S
C1249 H1255 0.959 . S
C1249 H1256 0.961 . S
C1249 H1257 0.960 . S
C1250 C1248 1.381 . S
C1250 C1251 1.394 . S
C1250 H1258 0.930 . S
C1251 C1250 1.394 . S
C1251 C1252 1.383 . S
C1251 H1259 0.929 . S
C1252 C1251 1.383 . S
C1252 C1253 1.377 . S
C1253 H1237 0.930 . S
C1253 C1252 1.377 . S
C1253 C1254 1.379 . S
C1254 H1238 0.931 . S
C1254 C1248 1.383 . S
C1254 C1253 1.379 . S
H1255 C1249 0.959 . S
H1256 C1249 0.961 . S
H1257 C1249 0.960 . S
H1258 C1250 0.930 . S
H1259 C1251 0.929 . S
H1260 C1268 0.929 . S
H1261 C1270 0.930 . S
H1262 C1272 0.930 . S
H1263 C1275 0.929 . S
H1264 C1278 0.930 . S
H1265 C1280 0.960 . S
H1266 C1280 0.960 . S
H1267 C1280 0.960 . S
C1268 H1260 0.929 . S
C1268 C1269 1.377 . S
C1268 C1270 1.384 . S
C1269 C1268 1.377 . S
C1269 C1275 1.390 . S
C1270 H1261 0.930 . S
C1270 C1268 1.384 . S
C1270 C1271 1.372 . S
C1271 C1270 1.372 . S
C1271 C1272 1.400 . S
C1271 C1276 1.490 . S
C1272 H1262 0.930 . S
C1272 C1271 1.400 . S
C1272 C1275 1.386 . S
H1273 C1289 0.930 . S
H1274 C1290 0.931 . S
C1275 H1263 0.929 . S
C1275 C1269 1.390 . S
C1275 C1272 1.386 . S
C1276 C1271 1.490 . S
C1276 C1278 1.395 . S
C1276 C1279 1.403 . S
H1277 C1283 0.930 . S
C1278 H1264 0.930 . S
C1278 C1276 1.395 . S
C1278 C1281 1.403 . S
C1279 C1276 1.403 . S
C1279 C1280 1.524 . S
C1279 C1283 1.400 . S
C1280 H1265 0.960 . S
C1280 H1266 0.960 . S
C1280 H1267 0.960 . S
C1280 C1279 1.524 . S
C1281 C1278 1.403 . S
C1281 C1282 1.392 . S
C1281 C1285 1.495 . S
C1282 C1281 1.392 . S
C1282 C1283 1.385 . S
C1282 C1284 1.478 . S
C1283 H1277 0.930 . S
C1283 C1279 1.400 . S
C1283 C1282 1.385 . S
C1284 C1282 1.478 . S
C1284 C1286 1.381 . S
C1284 C1290 1.383 . S
C1285 C1281 1.495 . S
C1285 H1291 0.959 . S
C1285 H1292 0.961 . S
C1285 H1293 0.960 . S
C1286 C1284 1.381 . S
C1286 C1287 1.394 . S
C1286 H1294 0.930 . S
C1287 C1286 1.394 . S
C1287 C1288 1.383 . S
C1287 H1295 0.929 . S
C1288 C1287 1.383 . S
C1288 C1289 1.377 . S
C1289 H1273 0.930 . S
C1289 C1288 1.377 . S
C1289 C1290 1.379 . S
C1290 H1274 0.931 . S
C1290 C1284 1.383 . S
C1290 C1289 1.379 . S
H1291 C1285 0.959 . S
H1292 C1285 0.961 . S
H1293 C1285 0.960 . S
H1294 C1286 0.930 . S
H1295 C1287 0.929 . S
H1296 C1304 0.929 . S
H1297 C1306 0.930 . S
H1298 C1308 0.930 . S
H1299 C1311 0.929 . S
H1300 C1314 0.930 . S
H1301 C1316 0.960 1_556 S
H1302 C1316 0.960 . S
H1303 C1316 0.960 . S
C1304 H1296 0.929 . S
C1304 C1305 1.377 . S
C1304 C1306 1.384 . S
C1305 C1304 1.377 . S
C1305 C1311 1.390 . S
C1306 H1297 0.930 . S
C1306 C1304 1.384 . S
C1306 C1307 1.372 . S
C1307 C1306 1.372 . S
C1307 C1308 1.400 . S
C1307 C1312 1.490 . S
C1308 H1298 0.930 . S
C1308 C1307 1.400 . S
C1308 C1311 1.386 . S
H1309 C1325 0.930 . S
H1310 C1326 0.931 . S
C1311 H1299 0.929 . S
C1311 C1305 1.390 . S
C1311 C1308 1.386 . S
C1312 C1307 1.490 . S
C1312 C1314 1.395 . S
C1312 C1315 1.403 . S
H1313 C1319 0.930 . S
C1314 H1300 0.930 . S
C1314 C1312 1.395 . S
C1314 C1317 1.403 . S
C1315 C1312 1.403 . S
C1315 C1316 1.524 . S
C1315 C1319 1.400 1_554 S
C1316 H1301 0.960 1_554 S
C1316 H1302 0.960 . S
C1316 H1303 0.960 . S
C1316 C1315 1.524 . S
C1317 C1314 1.403 . S
C1317 C1318 1.398 . S
C1317 C1321 1.495 . S
C1318 C1317 1.398 . S
C1318 C1319 1.384 1_554 S
C1318 C1320 1.473 1_554 S
C1319 H1313 0.930 . S
C1319 C1315 1.400 1_556 S
C1319 C1318 1.384 1_556 S
C1320 C1318 1.473 1_556 S
C1320 C1322 1.381 . S
C1320 C1326 1.383 . S
C1321 C1317 1.495 . S
C1321 H1327 0.959 . S
C1321 H1328 0.961 . S
C1321 H1329 0.960 . S
C1322 C1320 1.381 . S
C1322 C1323 1.394 . S
C1322 H1330 0.930 . S
C1323 C1322 1.394 . S
C1323 C1324 1.383 . S
C1323 H1331 0.929 . S
C1324 C1323 1.383 . S
C1324 C1325 1.377 . S
C1325 H1309 0.930 . S
C1325 C1324 1.377 . S
C1325 C1326 1.379 . S
C1326 H1310 0.931 . S
C1326 C1320 1.383 . S
C1326 C1325 1.379 . S
H1327 C1321 0.959 . S
H1328 C1321 0.961 . S
H1329 C1321 0.960 . S
H1330 C1322 0.930 . S
H1331 C1323 0.929 . S
H1332 C1340 0.929 . S
H1333 C1342 0.930 . S
H1334 C1344 0.930 . S
H1335 C1347 0.929 . S
H1336 C1350 0.930 . S
H1337 C1352 0.960 . S
H1338 C1352 0.960 . S
H1339 C1352 0.960 . S
C1340 H1332 0.929 . S
C1340 C1341 1.377 . S
C1340 C1342 1.384 . S
C1341 C1340 1.377 . S
C1341 C1347 1.390 . S
C1342 H1333 0.930 . S
C1342 C1340 1.384 . S
C1342 C1343 1.372 . S
C1343 C1342 1.372 . S
C1343 C1344 1.400 . S
C1343 C1348 1.490 . S
C1344 H1334 0.930 . S
C1344 C1343 1.400 . S
C1344 C1347 1.386 . S
H1345 C1361 0.930 . S
H1346 C1362 0.931 . S
C1347 H1335 0.929 . S
C1347 C1341 1.390 . S
C1347 C1344 1.386 . S
C1348 C1343 1.490 . S
C1348 C1350 1.395 . S
C1348 C1351 1.403 . S
H1349 C1355 0.930 . S
C1350 H1336 0.930 . S
C1350 C1348 1.395 . S
C1350 C1353 1.403 . S
C1351 C1348 1.403 . S
C1351 C1352 1.524 . S
C1351 C1355 1.400 . S
C1352 H1337 0.960 . S
C1352 H1338 0.960 . S
C1352 H1339 0.960 . S
C1352 C1351 1.524 . S
C1353 C1350 1.403 . S
C1353 C1354 1.392 . S
C1353 C1357 1.495 . S
C1354 C1353 1.392 . S
C1354 C1355 1.385 . S
C1354 C1356 1.478 . S
C1355 H1349 0.930 . S
C1355 C1351 1.400 . S
C1355 C1354 1.385 . S
C1356 C1354 1.478 . S
C1356 C1358 1.381 . S
C1356 C1362 1.383 . S
C1357 C1353 1.495 . S
C1357 H1363 0.959 . S
C1357 H1364 0.961 . S
C1357 H1365 0.960 . S
C1358 C1356 1.381 . S
C1358 C1359 1.394 . S
C1358 H1366 0.930 . S
C1359 C1358 1.394 . S
C1359 C1360 1.383 . S
C1359 H1367 0.929 . S
C1360 C1359 1.383 . S
C1360 C1361 1.377 . S
C1361 H1345 0.930 . S
C1361 C1360 1.377 . S
C1361 C1362 1.379 . S
C1362 H1346 0.931 . S
C1362 C1356 1.383 . S
C1362 C1361 1.379 . S
H1363 C1357 0.959 . S
H1364 C1357 0.961 . S
H1365 C1357 0.960 . S
H1366 C1358 0.930 . S
H1367 C1359 0.929 . S
C532 C471 1.603 . S
C513 C45 1.611 . S
C549 C84 1.645 . S
C568 C291 1.643 . S
C585 C126 1.580 . S
C604 C338 1.584 . S
C621 C189 1.555 . S
C640 C374 1.513 . S
C676 C399 1.584 . S
C657 C228 1.585 . S
C693 C270 1.566 . S
C712 C435 1.600 . S
C729 C69 1.619 . S
C748 C327 1.642 . S
C765 C141 1.589 . S
C784 C363 1.586 . S
C801 C174 1.518 . S
C820 C410 1.530 . S
C856 C446 1.547 . S
C837 C213 1.577 . S
C892 C482 1.583 . S
C873 C285 1.599 . S
C928 C302 1.572 . S
C909 C30 1.581 . S
C945 C36 1.488 . S
C964 C326 1.485 . S
C981 C93 1.502 . S
C1000 C362 1.487 . S
C1036 C400 1.489 . S
C1017 C117 1.500 . S
C1053 C180 1.505 . S
C1072 C436 1.495 . S
C1108 C472 1.453 . S
C1089 C237 1.470 . S
C1144 C292 1.445 . S
C1125 C261 1.455 . S
C1180 C470 1.463 . S
C1161 C78 1.475 . S
C1197 C132 1.483 . S
C1216 C290 1.459 . S
C1252 C328 1.475 . S
C1233 C165 1.482 . S
C1269 C222 1.489 . S
C1288 C364 1.491 . S
C1305 C276 1.533 . S
C1324 C398 1.520 . S
C1341 C21 1.509 . S
C1360 C434 1.485 . S
