# Generated by pormake.
# Topology sqc, (4,8)-cn, num edge types: 1
# Building blocks:
#     Node 0, Type 0, BuildingBlock: NAWXER_clean_linker_0, # of connection points: 4
#     Node 1, Type 0, BuildingBlock: NAWXER_clean_linker_0, # of connection points: 4
#     Node 2, Type 0, BuildingBlock: NAWXER_clean_linker_0, # of connection points: 4
#     Node 3, Type 0, BuildingBlock: NAWXER_clean_linker_0, # of connection points: 4
#     Node 4, Type 0, BuildingBlock: NAWXER_clean_linker_0, # of connection points: 4
#     Node 5, Type 0, BuildingBlock: NAWXER_clean_linker_0, # of connection points: 4
#     Node 6, Type 0, BuildingBlock: NAWXER_clean_linker_0, # of connection points: 4
#     Node 7, Type 0, BuildingBlock: NAWXER_clean_linker_0, # of connection points: 4
#     Node 8, Type 1, BuildingBlock: TAGTUT_clean_sbu_3, # of connection points: 8
#     Node 9, Type 1, BuildingBlock: TAGTUT_clean_sbu_3, # of connection points: 8
#     Node 10, Type 1, BuildingBlock: TAGTUT_clean_sbu_3, # of connection points: 8
#     Node 11, Type 1, BuildingBlock: TAGTUT_clean_sbu_3, # of connection points: 8
#     Edge 12, Type (0, 1), BuildingBlock: XUDNAN_clean_linker_2, # of connection points: 2
#     Edge 13, Type (0, 1), BuildingBlock: XUDNAN_clean_linker_2, # of connection points: 2
#     Edge 14, Type (0, 1), BuildingBlock: XUDNAN_clean_linker_2, # of connection points: 2
#     Edge 15, Type (0, 1), BuildingBlock: XUDNAN_clean_linker_2, # of connection points: 2
#     Edge 16, Type (0, 1), BuildingBlock: XUDNAN_clean_linker_2, # of connection points: 2
#     Edge 17, Type (0, 1), BuildingBlock: XUDNAN_clean_linker_2, # of connection points: 2
#     Edge 18, Type (0, 1), BuildingBlock: XUDNAN_clean_linker_2, # of connection points: 2
#     Edge 19, Type (0, 1), BuildingBlock: XUDNAN_clean_linker_2, # of connection points: 2
#     Edge 20, Type (0, 1), BuildingBlock: XUDNAN_clean_linker_2, # of connection points: 2
#     Edge 21, Type (0, 1), BuildingBlock: XUDNAN_clean_linker_2, # of connection points: 2
#     Edge 22, Type (0, 1), BuildingBlock: XUDNAN_clean_linker_2, # of connection points: 2
#     Edge 23, Type (0, 1), BuildingBlock: XUDNAN_clean_linker_2, # of connection points: 2
#     Edge 24, Type (0, 1), BuildingBlock: XUDNAN_clean_linker_2, # of connection points: 2
#     Edge 25, Type (0, 1), BuildingBlock: XUDNAN_clean_linker_2, # of connection points: 2
#     Edge 26, Type (0, 1), BuildingBlock: XUDNAN_clean_linker_2, # of connection points: 2
#     Edge 27, Type (0, 1), BuildingBlock: XUDNAN_clean_linker_2, # of connection points: 2
#     Edge 28, Type (0, 1), BuildingBlock: XUDNAN_clean_linker_2, # of connection points: 2
#     Edge 29, Type (0, 1), BuildingBlock: XUDNAN_clean_linker_2, # of connection points: 2
#     Edge 30, Type (0, 1), BuildingBlock: XUDNAN_clean_linker_2, # of connection points: 2
#     Edge 31, Type (0, 1), BuildingBlock: XUDNAN_clean_linker_2, # of connection points: 2
#     Edge 32, Type (0, 1), BuildingBlock: XUDNAN_clean_linker_2, # of connection points: 2
#     Edge 33, Type (0, 1), BuildingBlock: XUDNAN_clean_linker_2, # of connection points: 2
#     Edge 34, Type (0, 1), BuildingBlock: XUDNAN_clean_linker_2, # of connection points: 2
#     Edge 35, Type (0, 1), BuildingBlock: XUDNAN_clean_linker_2, # of connection points: 2
#     Edge 36, Type (0, 1), BuildingBlock: XUDNAN_clean_linker_2, # of connection points: 2
#     Edge 37, Type (0, 1), BuildingBlock: XUDNAN_clean_linker_2, # of connection points: 2
#     Edge 38, Type (0, 1), BuildingBlock: XUDNAN_clean_linker_2, # of connection points: 2
#     Edge 39, Type (0, 1), BuildingBlock: XUDNAN_clean_linker_2, # of connection points: 2
#     Edge 40, Type (0, 1), BuildingBlock: XUDNAN_clean_linker_2, # of connection points: 2
#     Edge 41, Type (0, 1), BuildingBlock: XUDNAN_clean_linker_2, # of connection points: 2
#     Edge 42, Type (0, 1), BuildingBlock: XUDNAN_clean_linker_2, # of connection points: 2
#     Edge 43, Type (0, 1), BuildingBlock: XUDNAN_clean_linker_2, # of connection points: 2
# Relax obj value: 0.135
# Max RMSD: 0.256
# Mean RMSD: 0.159
data_MOF--net-sqc--node1-TAGTUT_clean_sbu_3--node2-NAWXER_clean_linker_0--edge1-XUDNAN_clean_linker_2
_symmetry_space_group_name_H-M    P1
_symmetry_Int_Tables_number       1
_symmetry_cell_setting            triclinic
loop_
_symmetry_equiv_pos_as_xyz
'x, y, z'
_cell_length_a     28.023313
_cell_length_b     27.942333
_cell_length_c     86.168713
_cell_angle_alpha  90.797827
_cell_angle_beta   89.980954
_cell_angle_gamma 89.924289
loop_
_atom_site_label
_atom_site_type_symbol
_atom_site_fract_x
_atom_site_fract_y
_atom_site_fract_z
_atom_type_partial_charge
C0 C 0.22958 0.03336 0.47061 0.0
C1 C 0.23459 0.98802 0.4633 0.0
C2 C 0.18611 0.04798 0.47704 0.0
C3 C 0.14723 0.01645 0.47754 0.0
C4 C 0.19378 0.95846 0.46254 0.0
C5 C 0.15111 0.97217 0.46976 0.0
C6 C 0.10247 0.0285 0.48608 0.0
C7 C 0.22486 0.05118 0.51844 0.0
C8 C 0.2308 0.10008 0.52207 0.0
C9 C 0.18185 0.03446 0.51227 0.0
C10 C 0.14452 0.06653 0.50927 0.0
C11 C 0.19222 0.13151 0.51985 0.0
C12 C 0.14944 0.11483 0.51353 0.0
C13 C 0.10129 0.05081 0.50093 0.0
C14 C 0.8997 0.01557 0.52179 0.0
C15 C 0.8903 0.05873 0.52984 0.0
C16 C 0.94063 0.01055 0.51262 0.0
C17 C 0.97248 0.04898 0.51096 0.0
C18 C 0.92294 0.09672 0.52843 0.0
C19 C 0.96354 0.09184 0.51912 0.0
C20 C 0.01641 0.04404 0.50146 0.0
C21 C 0.8923 0.02213 0.46922 0.0
C22 C 0.89305 0.9789 0.46065 0.0
C23 C 0.93274 0.03743 0.47738 0.0
C24 C 0.97411 0.0089 0.47763 0.0
C25 C 0.93547 0.95186 0.46029 0.0
C26 C 0.97525 0.96647 0.46877 0.0
C27 C 0.01733 0.02339 0.48638 0.0
H28 H 0.25912 0.05789 0.47177 0.0
H29 H 0.18358 0.08367 0.48201 0.0
H30 H 0.19416 0.9244 0.45647 0.0
H31 H 0.12125 0.94758 0.46946 0.0
H32 H 0.2538 0.02598 0.51999 0.0
H33 H 0.17835 0.99684 0.50928 0.0
H34 H 0.19505 0.16908 0.52296 0.0
H35 H 0.12071 0.13997 0.51149 0.0
H36 H 0.87541 0.9856 0.52253 0.0
H37 H 0.94743 0.97652 0.50687 0.0
H38 H 0.91769 0.13007 0.53476 0.0
H39 H 0.98801 0.12168 0.51827 0.0
H40 H 0.86045 0.04404 0.46977 0.0
H41 H 0.93149 0.07149 0.48351 0.0
H42 H 0.93834 0.91939 0.45336 0.0
H43 H 0.00701 0.9443 0.46843 0.0
N44 N 0.06033 0.01587 0.47945 0.0
N45 N 0.05843 0.05778 0.508 0.0
C46 C 0.38195 0.56866 0.72892 0.0
C47 C 0.37479 0.55667 0.71318 0.0
C48 C 0.35609 0.60597 0.73593 0.0
C49 C 0.32204 0.63157 0.7274 0.0
C50 C 0.34034 0.5821 0.70474 0.0
C51 C 0.31438 0.61913 0.71177 0.0
C52 C 0.29825 0.67464 0.73401 0.0
C53 C 0.24478 0.55283 0.76211 0.0
C54 C 0.25849 0.55382 0.77781 0.0
C55 C 0.25155 0.59283 0.75281 0.0
C56 C 0.27257 0.63464 0.75894 0.0
C57 C 0.27941 0.59584 0.78393 0.0
C58 C 0.28606 0.63592 0.77461 0.0
C59 C 0.27892 0.6774 0.74915 0.0
C60 C 0.18897 0.87365 0.75097 0.0
C61 C 0.20645 0.8917 0.76517 0.0
C62 C 0.20725 0.83112 0.74459 0.0
C63 C 0.24325 0.80577 0.75232 0.0
C64 C 0.24233 0.86611 0.77291 0.0
C65 C 0.26024 0.82333 0.7666 0.0
C66 C 0.26284 0.76069 0.74569 0.0
C67 C 0.31975 0.87363 0.71256 0.0
C68 C 0.30517 0.8666 0.69706 0.0
C69 C 0.3092 0.83946 0.72378 0.0
C70 C 0.28369 0.79795 0.71968 0.0
C71 C 0.27718 0.8264 0.69328 0.0
C72 C 0.2669 0.79227 0.70444 0.0
C73 C 0.28032 0.75719 0.73036 0.0
H74 H 0.40795 0.54961 0.73579 0.0
H75 H 0.36387 0.6157 0.74787 0.0
H76 H 0.33446 0.57451 0.69254 0.0
H77 H 0.28886 0.63877 0.70487 0.0
H78 H 0.22754 0.52161 0.75709 0.0
H79 H 0.23955 0.59133 0.74087 0.0
H80 H 0.29075 0.59777 0.79594 0.0
H81 H 0.30213 0.66783 0.77962 0.0
H82 H 0.16133 0.89255 0.74475 0.0
H83 H 0.19295 0.81781 0.73368 0.0
H84 H 0.25594 0.87871 0.784 0.0
H85 H 0.28774 0.80417 0.77281 0.0
H86 H 0.34179 0.90396 0.71581 0.0
H87 H 0.32336 0.84413 0.73539 0.0
H88 H 0.26472 0.82037 0.68152 0.0
H89 H 0.24723 0.76046 0.70104 0.0
N90 N 0.29753 0.71447 0.7252 0.0
N91 N 0.26259 0.72056 0.75451 0.0
C92 C 0.47677 0.99841 0.95854 0.0
C93 C 0.47834 0.04371 0.95163 0.0
C94 C 0.5076 0.98757 0.9708 0.0
C95 C 0.54001 0.02208 0.97635 0.0
C96 C 0.50879 0.07887 0.95787 0.0
C97 C 0.53942 0.06808 0.97005 0.0
C98 C 0.57988 0.00902 0.98664 0.0
C99 C 0.45473 0.00118 0.01946 0.0
C100 C 0.45201 0.96037 0.02881 0.0
C101 C 0.49324 0.00757 0.00941 0.0
C102 C 0.52917 0.9726 0.00815 0.0
C103 C 0.48675 0.92438 0.02693 0.0
C104 C 0.52471 0.93039 0.01668 0.0
C105 C 0.57525 0.98299 0.0005 0.0
C106 C 0.77239 0.99488 0.02746 0.0
C107 C 0.78002 0.94731 0.03199 0.0
C108 C 0.73321 0.00672 0.0183 0.0
C109 C 0.70106 0.97119 0.0134 0.0
C110 C 0.74676 0.91208 0.02754 0.0
C111 C 0.70745 0.92402 0.01838 0.0
C112 C 0.66006 0.98332 0.00344 0.0
C113 C 0.79014 0.00662 0.97355 0.0
C114 C 0.79466 0.05336 0.9679 0.0
C115 C 0.74824 0.99239 0.98094 0.0
C116 C 0.71048 0.02493 0.98302 0.0
C117 C 0.75688 0.08583 0.97003 0.0
C118 C 0.71515 0.07168 0.97748 0.0
C119 C 0.66447 0.00987 0.98972 0.0
H120 H 0.45363 0.97064 0.95393 0.0
H121 H 0.50804 0.95157 0.97529 0.0
H122 H 0.50995 0.11442 0.95303 0.0
H123 H 0.56411 0.09526 0.97416 0.0
H124 H 0.42817 0.02926 0.02038 0.0
H125 H 0.4962 0.04125 0.00344 0.0
H126 H 0.48641 0.89271 0.03402 0.0
H127 H 0.55212 0.90303 0.01605 0.0
H128 H 0.79669 0.02306 0.03102 0.0
H129 H 0.72807 0.04367 0.01504 0.0
H130 H 0.75174 0.87512 0.03081 0.0
H131 H 0.68262 0.89621 0.01488 0.0
H132 H 0.81843 0.98062 0.97184 0.0
H133 H 0.74492 0.95567 0.98465 0.0
H134 H 0.75957 0.1222 0.96592 0.0
H135 H 0.68631 0.09727 0.97886 0.0
N136 N 0.62426 0.0215 0.98191 0.0
N137 N 0.6157 0.97093 0.00827 0.0
C138 C 0.34822 0.12372 0.22041 0.0
C139 C 0.29855 0.11924 0.21853 0.0
C140 C 0.36824 0.16706 0.2254 0.0
C141 C 0.33901 0.20678 0.22872 0.0
C142 C 0.26951 0.15947 0.22157 0.0
C143 C 0.28959 0.20285 0.22651 0.0
C144 C 0.35954 0.25197 0.23492 0.0
C145 C 0.37897 0.14866 0.27477 0.0
C146 C 0.42604 0.1448 0.28019 0.0
C147 C 0.36757 0.182 0.2634 0.0
C148 C 0.40333 0.21116 0.25709 0.0
C149 C 0.46203 0.17226 0.27333 0.0
C150 C 0.45074 0.20518 0.2619 0.0
C151 C 0.39103 0.25315 0.24768 0.0
C152 C 0.39054 0.45202 0.2703 0.0
C153 C 0.43671 0.45254 0.27665 0.0
C154 C 0.37762 0.41674 0.25943 0.0
C155 C 0.41101 0.38211 0.25453 0.0
C156 C 0.47078 0.41971 0.27105 0.0
C157 C 0.45801 0.38481 0.26011 0.0
C158 C 0.39552 0.3382 0.24619 0.0
C159 C 0.36815 0.45872 0.21375 0.0
C160 C 0.32108 0.46265 0.20838 0.0
C161 C 0.38274 0.41792 0.2217 0.0
C162 C 0.35006 0.38102 0.22485 0.0
C163 C 0.28868 0.42552 0.21129 0.0
C164 C 0.30301 0.38518 0.21946 0.0
C165 C 0.36462 0.33731 0.23323 0.0
H166 H 0.37178 0.09392 0.21781 0.0
H167 H 0.40661 0.16952 0.2267 0.0
H168 H 0.23111 0.15726 0.22036 0.0
H169 H 0.26637 0.23302 0.22901 0.0
H170 H 0.35058 0.12817 0.28002 0.0
H171 H 0.3305 0.18693 0.26026 0.0
H172 H 0.49867 0.16956 0.27724 0.0
H173 H 0.47879 0.22755 0.25729 0.0
H174 H 0.36354 0.47669 0.27456 0.0
H175 H 0.34079 0.41469 0.25568 0.0
H176 H 0.50674 0.41971 0.27568 0.0
H177 H 0.48426 0.35828 0.25659 0.0
H178 H 0.39394 0.48654 0.21139 0.0
H179 H 0.41974 0.415 0.22517 0.0
H180 H 0.25212 0.42779 0.20728 0.0
H181 H 0.27714 0.35726 0.22161 0.0
N182 N 0.3475 0.29411 0.22817 0.0
N183 N 0.40765 0.29609 0.25273 0.0
C184 C 0.87975 0.05966 0.23306 0.0
C185 C 0.87426 0.04627 0.21741 0.0
C186 C 0.8549 0.09897 0.23914 0.0
C187 C 0.82309 0.12469 0.22978 0.0
C188 C 0.84308 0.07241 0.20798 0.0
C189 C 0.81774 0.11128 0.21412 0.0
C190 C 0.79875 0.1682 0.23573 0.0
C191 C 0.74363 0.04686 0.2632 0.0
C192 C 0.7621 0.04609 0.27835 0.0
C193 C 0.74752 0.088 0.25426 0.0
C194 C 0.76983 0.1292 0.26031 0.0
C195 C 0.78349 0.08772 0.28451 0.0
C196 C 0.7869 0.1291 0.27561 0.0
C197 C 0.77694 0.17155 0.25045 0.0
C198 C 0.6938 0.37108 0.25173 0.0
C199 C 0.70873 0.38585 0.26661 0.0
C200 C 0.71163 0.32873 0.24504 0.0
C201 C 0.74444 0.30043 0.25318 0.0
C202 C 0.74131 0.35722 0.27472 0.0
C203 C 0.7587 0.31482 0.26811 0.0
C204 C 0.76296 0.25494 0.24659 0.0
C205 C 0.83154 0.36546 0.21485 0.0
C206 C 0.82426 0.35677 0.19891 0.0
C207 C 0.81517 0.33276 0.2258 0.0
C208 C 0.79062 0.29135 0.22097 0.0
C209 C 0.79741 0.31678 0.1942 0.0
C210 C 0.78082 0.28441 0.20512 0.0
C211 C 0.7831 0.25094 0.23159 0.0
H212 H 0.90411 0.0404 0.24048 0.0
H213 H 0.86144 0.10981 0.25106 0.0
H214 H 0.83799 0.06251 0.1959 0.0
H215 H 0.79397 0.13097 0.20662 0.0
H216 H 0.72694 0.01534 0.25815 0.0
H217 H 0.73358 0.08748 0.24253 0.0
H218 H 0.79732 0.08837 0.29624 0.0
H219 H 0.80404 0.16058 0.28051 0.0
H220 H 0.66861 0.3924 0.24525 0.0
H221 H 0.69935 0.3178 0.23361 0.0
H222 H 0.75279 0.36721 0.28633 0.0
H223 H 0.78361 0.29333 0.27466 0.0
H224 H 0.8525 0.39584 0.21877 0.0
H225 H 0.82445 0.33832 0.23789 0.0
H226 H 0.79077 0.30956 0.18201 0.0
H227 H 0.76223 0.25259 0.2011 0.0
N228 N 0.80031 0.20778 0.22684 0.0
N229 N 0.76049 0.21496 0.25545 0.0
C230 C 0.74676 0.94024 0.73679 0.0
C231 C 0.76539 0.93949 0.72165 0.0
C232 C 0.751 0.90028 0.74621 0.0
C233 C 0.77447 0.85886 0.74079 0.0
C234 C 0.78814 0.89763 0.71613 0.0
C235 C 0.79243 0.85758 0.7256 0.0
C236 C 0.78053 0.81726 0.75106 0.0
C237 C 0.87716 0.9307 0.77083 0.0
C238 C 0.86342 0.94829 0.78553 0.0
C239 C 0.85508 0.89029 0.76442 0.0
C240 C 0.81866 0.86696 0.77255 0.0
C241 C 0.82668 0.92496 0.79357 0.0
C242 C 0.8048 0.88442 0.78719 0.0
C243 C 0.79755 0.82229 0.76636 0.0
C244 C 0.83057 0.62761 0.78982 0.0
C245 C 0.81587 0.63613 0.80522 0.0
C246 C 0.81822 0.65966 0.77815 0.0
C247 C 0.79017 0.70004 0.78169 0.0
C248 C 0.78628 0.67543 0.80858 0.0
C249 C 0.77356 0.70706 0.79693 0.0
C250 C 0.78448 0.73925 0.77054 0.0
C251 C 0.71485 0.60979 0.74854 0.0
C252 C 0.73026 0.5992 0.73337 0.0
C253 C 0.72686 0.65354 0.75565 0.0
C254 C 0.75579 0.68668 0.74786 0.0
C255 C 0.7583 0.63267 0.72551 0.0
C256 C 0.77098 0.67585 0.73269 0.0
C257 C 0.76935 0.73343 0.75495 0.0
H258 H 0.7279 0.97136 0.74125 0.0
H259 H 0.7357 0.90169 0.75776 0.0
H260 H 0.80293 0.89595 0.70452 0.0
H261 H 0.81052 0.82594 0.72117 0.0
H262 H 0.90588 0.94734 0.76446 0.0
H263 H 0.86731 0.87657 0.75329 0.0
H264 H 0.81478 0.93802 0.80482 0.0
H265 H 0.77699 0.86668 0.79368 0.0
H266 H 0.85389 0.5978 0.78699 0.0
H267 H 0.83266 0.65422 0.7666 0.0
H268 H 0.77424 0.68253 0.82034 0.0
H269 H 0.75225 0.73823 0.79994 0.0
H270 H 0.6926 0.58477 0.75473 0.0
H271 H 0.713 0.66158 0.76712 0.0
H272 H 0.77078 0.62524 0.71382 0.0
H273 H 0.79302 0.70075 0.72636 0.0
N274 N 0.76772 0.77294 0.74584 0.0
N275 N 0.79814 0.78339 0.77554 0.0
C276 C 0.71788 0.44046 0.98318 0.0
C277 C 0.72613 0.3909 0.98148 0.0
C278 C 0.6748 0.45766 0.98926 0.0
C279 C 0.63962 0.42578 0.99438 0.0
C280 C 0.68999 0.35915 0.98611 0.0
C281 C 0.64733 0.37642 0.9925 0.0
C282 C 0.59418 0.44324 0.00129 0.0
C283 C 0.71485 0.4993 0.03019 0.0
C284 C 0.71605 0.54945 0.03127 0.0
C285 C 0.67384 0.47591 0.02487 0.0
C286 C 0.63407 0.50245 0.01998 0.0
C287 C 0.67545 0.57585 0.02719 0.0
C288 C 0.63485 0.55254 0.02154 0.0
C289 C 0.59159 0.47887 0.01311 0.0
C290 C 0.38009 0.47968 0.02918 0.0
C291 C 0.37651 0.52769 0.03428 0.0
C292 C 0.42199 0.46222 0.02238 0.0
C293 C 0.46065 0.49274 0.01943 0.0
C294 C 0.41605 0.55787 0.03178 0.0
C295 C 0.45712 0.54078 0.02431 0.0
C296 C 0.50631 0.47466 0.01261 0.0
C297 C 0.40851 0.42969 0.97174 0.0
C298 C 0.38884 0.3845 0.97516 0.0
C299 C 0.44664 0.4482 0.98037 0.0
C300 C 0.46711 0.42138 0.99223 0.0
C301 C 0.40943 0.35844 0.98741 0.0
C302 C 0.44916 0.37592 0.99542 0.0
C303 C 0.50912 0.43967 0.00062 0.0
H304 H 0.74474 0.4662 0.97988 0.0
H305 H 0.66921 0.49597 0.99007 0.0
H306 H 0.69419 0.32086 0.98461 0.0
H307 H 0.62037 0.35108 0.99607 0.0
H308 H 0.74549 0.47824 0.03361 0.0
H309 H 0.6735 0.43717 0.02436 0.0
H310 H 0.67555 0.61458 0.02805 0.0
H311 H 0.60441 0.57377 0.01803 0.0
H312 H 0.35091 0.45486 0.03058 0.0
H313 H 0.42423 0.42434 0.02002 0.0
H314 H 0.41626 0.59459 0.0359 0.0
H315 H 0.48662 0.56518 0.02259 0.0
H316 H 0.39555 0.45076 0.9622 0.0
H317 H 0.461 0.48298 0.97752 0.0
H318 H 0.39519 0.32444 0.991 0.0
H319 H 0.46495 0.35461 0.00449 0.0
N320 N 0.55274 0.42511 0.99554 0.0
N321 N 0.54785 0.49311 0.01823 0.0
C322 C 0.97559 0.44007 0.52156 0.0
C323 C 0.98329 0.39523 0.52846 0.0
C324 C 0.01105 0.46103 0.51244 0.0
C325 C 0.05421 0.43682 0.50964 0.0
C326 C 0.02601 0.37067 0.52512 0.0
C327 C 0.06067 0.39101 0.51574 0.0
C328 C 0.09592 0.46081 0.50271 0.0
C329 C 0.98417 0.46718 0.4647 0.0
C330 C 0.97896 0.51145 0.45721 0.0
C331 C 0.02109 0.45986 0.47536 0.0
C332 C 0.05254 0.49724 0.47931 0.0
C333 C 0.01085 0.54856 0.46114 0.0
C334 C 0.04672 0.54165 0.4721 0.0
C335 C 0.09492 0.48979 0.48937 0.0
C336 C 0.3031 0.52405 0.47667 0.0
C337 C 0.30008 0.57132 0.47143 0.0
C338 C 0.26374 0.50238 0.48356 0.0
C339 C 0.22114 0.52816 0.48577 0.0
C340 C 0.25718 0.5967 0.47325 0.0
C341 C 0.21807 0.5753 0.48039 0.0
C342 C 0.17846 0.50542 0.49252 0.0
C343 C 0.29302 0.49572 0.5292 0.0
C344 C 0.30244 0.449 0.53424 0.0
C345 C 0.25289 0.5052 0.52008 0.0
C346 C 0.22222 0.46786 0.51549 0.0
C347 C 0.27079 0.41208 0.53013 0.0
C348 C 0.23113 0.42142 0.52084 0.0
C349 C 0.17931 0.47658 0.50585 0.0
H350 H 0.94287 0.45981 0.52358 0.0
H351 H 0.0055 0.49689 0.50819 0.0
H352 H 0.03423 0.33672 0.53038 0.0
H353 H 0.09383 0.37173 0.51389 0.0
H354 H 0.96017 0.43775 0.46224 0.0
H355 H 0.02561 0.42453 0.48012 0.0
H356 H 0.00931 0.58278 0.45544 0.0
H357 H 0.07084 0.57099 0.47467 0.0
H358 H 0.33557 0.50346 0.47509 0.0
H359 H 0.26647 0.46531 0.48695 0.0
H360 H 0.25406 0.63316 0.46925 0.0
H361 H 0.18533 0.59562 0.48173 0.0
H362 H 0.31656 0.52495 0.53239 0.0
H363 H 0.24588 0.54169 0.51667 0.0
H364 H 0.27737 0.3757 0.53376 0.0
H365 H 0.20771 0.39208 0.51765 0.0
N366 N 0.13807 0.45551 0.51028 0.0
N367 N 0.13635 0.51093 0.48494 0.0
C368 C 0.14599 0.6752 0.14052 0.0
C369 C 0.97611 0.60242 0.1352 0.0
C370 C 0.96587 0.68921 0.09436 0.0
Mg371 Mg 0.18974 0.77634 0.12939 0.0
Mg372 Mg 0.12341 0.87082 0.1228 0.0
O373 O 0.1332 0.80574 0.11903 0.0
Mg374 Mg 0.08345 0.75718 0.12376 0.0
O375 O 0.03833 0.70393 0.12837 0.0
Mg376 Mg 0.06425 0.65302 0.11412 0.0
Mg377 Mg 0.97227 0.71136 0.12914 0.0
C378 C 0.02941 0.84417 0.10429 0.0
O379 O 0.04834 0.80006 0.14388 0.0
O380 O 0.23507 0.83305 0.11661 0.0
O381 O 0.97242 0.77237 0.14484 0.0
O382 O 0.1844 0.82802 0.15113 0.0
O383 O 0.18748 0.89634 0.11214 0.0
O384 O 0.1285 0.88348 0.14708 0.0
O385 O 0.11412 0.71079 0.10406 0.0
O386 O 0.19148 0.72753 0.10789 0.0
C387 C 0.15829 0.70558 0.10047 0.0
C388 C 0.22765 0.87476 0.11101 0.0
O389 O 0.03271 0.79915 0.10721 0.0
O390 O 0.01352 0.59937 0.12658 0.0
O391 O 0.05754 0.87582 0.11014 0.0
O392 O 0.0052 0.66623 0.09578 0.0
O393 O 0.95526 0.64232 0.13813 0.0
O394 O 0.94784 0.71338 0.10561 0.0
O395 O 0.13773 0.72039 0.13976 0.0
O396 O 0.1216 0.64484 0.13253 0.0
C397 C 0.15976 0.8643 0.15576 0.0
C398 C 0.00583 0.80045 0.14952 0.0
C399 C 0.67957 0.80268 0.39223 0.0
C400 C 0.73284 0.62201 0.38489 0.0
C401 C 0.64539 0.63282 0.34309 0.0
Mg402 Mg 0.58597 0.85689 0.37924 0.0
Mg403 Mg 0.48417 0.80185 0.36989 0.0
O404 O 0.55105 0.80321 0.36851 0.0
Mg405 Mg 0.59447 0.74935 0.37412 0.0
O406 O 0.64226 0.69888 0.37945 0.0
Mg407 Mg 0.69607 0.71935 0.36564 0.0
Mg408 Mg 0.62463 0.63451 0.37768 0.0
C409 C 0.50493 0.69894 0.35479 0.0
O410 O 0.54767 0.72016 0.39384 0.0
O411 O 0.53604 0.90793 0.36634 0.0
O412 O 0.56429 0.64077 0.39339 0.0
O413 O 0.53264 0.85803 0.39958 0.0
O414 O 0.4714 0.86806 0.35764 0.0
O415 O 0.46732 0.81512 0.39415 0.0
O416 O 0.64464 0.77443 0.35474 0.0
O417 O 0.63611 0.85336 0.35867 0.0
C418 C 0.65489 0.81784 0.35142 0.0
C419 C 0.49676 0.90618 0.35871 0.0
O420 O 0.54931 0.70095 0.35846 0.0
O421 O 0.7415 0.66219 0.37837 0.0
O422 O 0.47436 0.73155 0.35853 0.0
O423 O 0.67775 0.66402 0.34598 0.0
O424 O 0.69088 0.60404 0.38565 0.0
O425 O 0.61593 0.61945 0.35343 0.0
O426 O 0.63446 0.79982 0.3901 0.0
O427 O 0.70902 0.77492 0.38508 0.0
C428 C 0.49163 0.84177 0.40338 0.0
C429 C 0.54125 0.6773 0.39866 0.0
C430 C 0.63674 0.15888 0.64602 0.0
C431 C 0.4606 0.10953 0.63394 0.0
C432 C 0.4837 0.18885 0.59199 0.0
Mg433 Mg 0.6988 0.24793 0.63464 0.0
Mg434 Mg 0.6557 0.34869 0.62024 0.0
O435 O 0.65189 0.28232 0.62115 0.0
Mg436 Mg 0.59351 0.24381 0.62513 0.0
O437 O 0.53957 0.1992 0.62921 0.0
Mg438 Mg 0.56352 0.1424 0.61686 0.0
Mg439 Mg 0.47593 0.217 0.62631 0.0
C440 C 0.55966 0.33117 0.60119 0.0
O441 O 0.55852 0.29664 0.6427 0.0
O442 O 0.7582 0.28986 0.62204 0.0
O443 O 0.47944 0.283 0.64004 0.0
O444 O 0.69189 0.30712 0.65422 0.0
O445 O 0.72574 0.3534 0.6103 0.0
O446 O 0.65674 0.37116 0.64385 0.0
O447 O 0.62424 0.18941 0.6076 0.0
O448 O 0.7009 0.19273 0.61497 0.0
C449 C 0.66772 0.17544 0.60638 0.0
C450 C 0.76113 0.32569 0.61293 0.0
O451 O 0.55429 0.28816 0.60612 0.0
O452 O 0.50098 0.10033 0.6275 0.0
O453 O 0.59355 0.35888 0.60574 0.0
O454 O 0.51573 0.15885 0.59594 0.0
O455 O 0.44402 0.1522 0.63536 0.0
O456 O 0.46556 0.2189 0.6016 0.0
O457 O 0.63528 0.20432 0.64399 0.0
O458 O 0.6115 0.13006 0.63773 0.0
C459 C 0.6747 0.34966 0.65544 0.0
C460 C 0.51467 0.30662 0.64587 0.0
C461 C 0.16546 0.29761 0.8935 0.0
C462 C 0.23626 0.13594 0.87703 0.0
C463 C 0.13748 0.14577 0.83781 0.0
Mg464 Mg 0.06341 0.34802 0.88559 0.0
Mg465 Mg 0.96851 0.28426 0.87544 0.0
O466 O 0.03279 0.29828 0.87193 0.0
Mg467 Mg 0.082 0.24762 0.8736 0.0
O468 O 0.13525 0.20098 0.8753 0.0
Mg469 Mg 0.18304 0.23302 0.8616 0.0
Mg470 Mg 0.1265 0.1353 0.87292 0.0
C471 C 0.99595 0.19993 0.85233 0.0
O472 O 0.04077 0.20365 0.8918 0.0
O473 O 0.00419 0.39916 0.87672 0.0
O474 O 0.06886 0.12807 0.88938 0.0
O475 O 0.0147 0.33088 0.90666 0.0
O476 O 0.94248 0.35339 0.8687 0.0
O477 O 0.95945 0.27675 0.9 0.0
O478 O 0.1251 0.2882 0.85534 0.0
O479 O 0.11037 0.36196 0.86452 0.0
C480 C 0.13103 0.33374 0.85476 0.0
C481 C 0.96262 0.39424 0.87058 0.0
O482 O 0.04064 0.20529 0.85505 0.0
O483 O 0.23773 0.17678 0.87036 0.0
O484 O 0.9631 0.22335 0.85953 0.0
O485 O 0.16449 0.18224 0.84031 0.0
O486 O 0.19709 0.1137 0.87943 0.0
O487 O 0.11555 0.12464 0.84872 0.0
O488 O 0.12022 0.2911 0.8924 0.0
O489 O 0.19461 0.2797 0.88346 0.0
C490 C 0.98021 0.30302 0.91014 0.0
C491 C 0.04097 0.15934 0.89558 0.0
H492 H 0.26554 0.89491 0.45594 0.0
H493 H 0.31241 0.04361 0.45446 0.0
H494 H 0.38924 0.01716 0.44438 0.0
H495 H 0.38062 0.83964 0.46314 0.0
H496 H 0.37139 0.79043 0.44984 0.0
H497 H 0.32118 0.81728 0.45974 0.0
H498 H 0.27858 0.83511 0.43397 0.0
H499 H 0.32654 0.80637 0.42357 0.0
H500 H 0.30992 0.8669 0.41903 0.0
H501 H 0.4602 0.97644 0.4334 0.0
H502 H 0.5121 0.92812 0.41647 0.0
H503 H 0.41475 0.80797 0.42025 0.0
C504 C 0.29122 0.92257 0.45351 0.0
C505 C 0.28174 0.97181 0.45662 0.0
C506 C 0.31804 0.00556 0.45311 0.0
C507 C 0.36234 0.99092 0.44721 0.0
C508 C 0.37001 0.94243 0.44437 0.0
C509 C 0.33501 0.9089 0.44696 0.0
C510 C 0.3499 0.85997 0.44077 0.0
C511 C 0.35609 0.82473 0.45416 0.0
C512 C 0.31412 0.841 0.42861 0.0
C513 C 0.39766 0.87202 0.43351 0.0
C514 C 0.40947 0.91927 0.43649 0.0
C515 C 0.45137 0.9394 0.43095 0.0
C516 C 0.48081 0.91138 0.42138 0.0
C517 C 0.46741 0.86422 0.41693 0.0
C518 C 0.426 0.8438 0.4235 0.0
H519 H 0.31389 0.96514 0.69731 0.0
H520 H 0.33965 0.83828 0.66883 0.0
H521 H 0.37569 0.88811 0.64867 0.0
H522 H 0.28772 0.04667 0.66495 0.0
H523 H 0.31785 0.09651 0.67411 0.0
H524 H 0.28981 0.05157 0.68582 0.0
H525 H 0.36981 0.03728 0.70011 0.0
H526 H 0.39807 0.08206 0.68845 0.0
H527 H 0.42241 0.02236 0.68899 0.0
H528 H 0.41646 0.94913 0.63295 0.0
H529 H 0.457 0.01927 0.62196 0.0
H530 H 0.40364 0.10804 0.65989 0.0
C531 C 0.32661 0.948 0.68674 0.0
C532 C 0.32338 0.89783 0.68458 0.0
C533 C 0.34067 0.87671 0.67062 0.0
C534 C 0.36147 0.90467 0.65911 0.0
C535 C 0.36452 0.95383 0.66166 0.0
C536 C 0.34729 0.97551 0.67504 0.0
C537 C 0.35716 0.02888 0.67511 0.0
C538 C 0.31034 0.0576 0.67499 0.0
C539 C 0.38875 0.04348 0.68899 0.0
C540 C 0.38373 0.03344 0.65987 0.0
C541 C 0.3874 0.98964 0.65231 0.0
C542 C 0.41319 0.9838 0.6386 0.0
C543 C 0.43623 0.02375 0.63249 0.0
C544 C 0.43299 0.069 0.64001 0.0
C545 C 0.4058 0.07401 0.65375 0.0
H546 H 0.38423 0.02287 0.94564 0.0
H547 H 0.51001 0.08811 0.92561 0.0
H548 H 0.46327 0.11078 0.90261 0.0
H549 H 0.33256 0.97776 0.9085 0.0
H550 H 0.2724 0.99098 0.91462 0.0
H551 H 0.31691 0.97522 0.92877 0.0
H552 H 0.29967 0.05395 0.94406 0.0
H553 H 0.25513 0.06978 0.93002 0.0
H554 H 0.30357 0.11031 0.93421 0.0
H555 H 0.40153 0.1344 0.88336 0.0
H556 H 0.32854 0.15708 0.86914 0.0
H557 H 0.24353 0.07393 0.90109 0.0
C558 C 0.40209 0.04095 0.93624 0.0
C559 C 0.45061 0.05397 0.93742 0.0
C560 C 0.47265 0.0784 0.92502 0.0
C561 C 0.44655 0.09102 0.91185 0.0
C562 C 0.39855 0.07853 0.91117 0.0
C563 C 0.37653 0.05382 0.92298 0.0
C564 C 0.3237 0.04792 0.91988 0.0
C565 C 0.31064 0.9948 0.91782 0.0
C566 C 0.29378 0.07194 0.93281 0.0
C567 C 0.31931 0.07436 0.90472 0.0
C568 C 0.36296 0.0914 0.89982 0.0
C569 C 0.36724 0.12047 0.88688 0.0
C570 C 0.32564 0.13324 0.8789 0.0
C571 C 0.28049 0.11679 0.88388 0.0
C572 C 0.27763 0.08608 0.89675 0.0
H573 H 0.22529 0.10659 0.19783 0.0
H574 H 0.32431 0.02761 0.22653 0.0
H575 H 0.29201 0.95153 0.216 0.0
H576 H 0.12325 0.02156 0.20029 0.0
H577 H 0.10801 0.03449 0.18044 0.0
H578 H 0.1363 0.07947 0.19234 0.0
H579 H 0.20105 0.08575 0.17057 0.0
H580 H 0.1731 0.03831 0.15962 0.0
H581 H 0.23484 0.03312 0.1652 0.0
H582 H 0.25489 0.88448 0.19991 0.0
H583 H 0.21707 0.83351 0.17966 0.0
H584 H 0.13855 0.95693 0.16329 0.0
C585 C 0.23937 0.07337 0.20226 0.0
C586 C 0.27727 0.07322 0.21306 0.0
C587 C 0.29559 0.02875 0.21814 0.0
C588 C 0.27714 0.98531 0.21235 0.0
C589 C 0.24001 0.98686 0.2016 0.0
C590 C 0.22124 0.02985 0.19669 0.0
C591 C 0.18401 0.02226 0.18423 0.0
C592 C 0.13497 0.04047 0.18968 0.0
C593 C 0.19919 0.04626 0.16901 0.0
C594 C 0.18506 0.96824 0.1827 0.0
C595 C 0.21758 0.94831 0.19279 0.0
C596 C 0.22854 0.89955 0.1922 0.0
C597 C 0.20683 0.87081 0.18068 0.0
C598 C 0.17434 0.89092 0.16999 0.0
C599 C 0.16225 0.93996 0.17148 0.0
H600 H 0.28941 0.05661 0.54304 0.0
H601 H 0.27561 0.18504 0.51563 0.0
H602 H 0.3481 0.21798 0.52801 0.0
H603 H 0.32219 0.11088 0.57691 0.0
H604 H 0.3643 0.06584 0.58281 0.0
H605 H 0.31575 0.04983 0.57019 0.0
H606 H 0.37568 0.01555 0.54995 0.0
H607 H 0.42461 0.03155 0.56257 0.0
H608 H 0.4232 0.05291 0.54293 0.0
H609 H 0.41495 0.24123 0.54599 0.0
H610 H 0.46824 0.25333 0.56879 0.0
H611 H 0.44206 0.10743 0.58267 0.0
C612 C 0.30243 0.09097 0.53923 0.0
C613 C 0.27673 0.11821 0.52838 0.0
C614 C 0.29431 0.16372 0.52409 0.0
C615 C 0.33581 0.1825 0.5309 0.0
C616 C 0.3598 0.15497 0.54177 0.0
C617 C 0.34394 0.10996 0.54579 0.0
C618 C 0.37334 0.08936 0.55878 0.0
C619 C 0.34203 0.07838 0.573 0.0
C620 C 0.40085 0.0447 0.55322 0.0
C621 C 0.40674 0.13073 0.56197 0.0
C622 C 0.39897 0.16805 0.55191 0.0
C623 C 0.42192 0.21206 0.5538 0.0
C624 C 0.45202 0.21868 0.56669 0.0
C625 C 0.45947 0.18098 0.57715 0.0
C626 C 0.43781 0.13621 0.57448 0.0
H627 H 0.25494 0.9669 0.77854 0.0
H628 H 0.11224 0.91593 0.76814 0.0
H629 H 0.07818 0.9859 0.78207 0.0
H630 H 0.233 0.00334 0.81611 0.0
H631 H 0.27051 0.05568 0.8158 0.0
H632 H 0.28314 0.0059 0.80303 0.0
H633 H 0.27933 0.06226 0.77941 0.0
H634 H 0.26624 0.11228 0.79217 0.0
H635 H 0.22665 0.09796 0.7763 0.0
H636 H 0.06013 0.05201 0.80095 0.0
H637 H 0.05999 0.11005 0.82281 0.0
H638 H 0.21351 0.12263 0.81965 0.0
C639 C 0.21653 0.971 0.77896 0.0
C640 C 0.1862 0.9361 0.77222 0.0
C641 C 0.13612 0.94257 0.77303 0.0
C642 C 0.11647 0.98221 0.78092 0.0
C643 C 0.14737 0.01556 0.78768 0.0
C644 C 0.19636 0.01067 0.78662 0.0
C645 C 0.22169 0.04928 0.79598 0.0
C646 C 0.25395 0.02722 0.80847 0.0
C647 C 0.25016 0.08241 0.78533 0.0
C648 C 0.17934 0.07522 0.80312 0.0
C649 C 0.13672 0.0555 0.79804 0.0
C650 C 0.0931 0.06891 0.80458 0.0
C651 C 0.09323 0.10211 0.81692 0.0
C652 C 0.13647 0.1221 0.82244 0.0
C653 C 0.17983 0.10961 0.81511 0.0
H654 H 0.40627 0.87996 0.03964 0.0
H655 H 0.41758 0.03369 0.0472 0.0
H656 H 0.36281 0.02822 0.0694 0.0
H657 H 0.28316 0.868 0.05049 0.0
H658 H 0.29167 0.81203 0.06023 0.0
H659 H 0.32998 0.82769 0.04432 0.0
H660 H 0.40441 0.81692 0.06167 0.0
H661 H 0.36664 0.8008 0.07768 0.0
H662 H 0.4085 0.84939 0.07985 0.0
H663 H 0.30619 0.00648 0.09065 0.0
H664 H 0.25155 0.9691 0.10954 0.0
H665 H 0.28381 0.82921 0.08976 0.0
C666 C 0.39747 0.91254 0.04596 0.0
C667 C 0.41613 0.95732 0.04149 0.0
C668 C 0.40298 0.99906 0.05005 0.0
C669 C 0.37228 0.99631 0.06283 0.0
C670 C 0.35543 0.95154 0.06706 0.0
C671 C 0.36754 0.91038 0.0589 0.0
C672 C 0.34516 0.86657 0.06604 0.0
C673 C 0.31044 0.84215 0.05459 0.0
C674 C 0.38348 0.83136 0.07164 0.0
C675 C 0.31886 0.8896 0.07954 0.0
C676 C 0.32483 0.9387 0.07983 0.0
C677 C 0.30169 0.96802 0.09068 0.0
C678 C 0.27094 0.94659 0.10136 0.0
C679 C 0.26453 0.89639 0.10125 0.0
C680 C 0.28933 0.86757 0.09036 0.0
H681 H 0.40245 0.05106 0.28577 0.0
H682 H 0.474 0.17483 0.30584 0.0
H683 H 0.49325 0.12857 0.32918 0.0
H684 H 0.35301 0.00493 0.32198 0.0
H685 H 0.36347 0.94322 0.31662 0.0
H686 H 0.3522 0.98678 0.30182 0.0
H687 H 0.43153 0.96348 0.28815 0.0
H688 H 0.44275 0.91967 0.30283 0.0
H689 H 0.48645 0.96532 0.29904 0.0
H690 H 0.50838 0.06916 0.34948 0.0
H691 H 0.52229 0.99798 0.36537 0.0
H692 H 0.4412 0.91148 0.33248 0.0
C693 C 0.42171 0.06836 0.29518 0.0
C694 C 0.43694 0.11634 0.29406 0.0
C695 C 0.46256 0.13788 0.30646 0.0
C696 C 0.47327 0.11208 0.31979 0.0
C697 C 0.45808 0.0648 0.32053 0.0
C698 C 0.43309 0.04293 0.30857 0.0
C699 C 0.42371 0.99072 0.312 0.0
C700 C 0.36989 0.98085 0.31318 0.0
C701 C 0.44754 0.95788 0.29978 0.0
C702 C 0.44783 0.98668 0.32767 0.0
C703 C 0.46701 0.03004 0.33238 0.0
C704 C 0.4932 0.03506 0.34601 0.0
C705 C 0.50096 0.99441 0.35493 0.0
C706 C 0.48262 0.94931 0.35018 0.0
C707 C 0.45489 0.94567 0.33653 0.0
H708 H 0.83419 0.13858 0.5345 0.0
H709 H 0.85024 0.99094 0.54871 0.0
H710 H 0.78313 0.00132 0.56695 0.0
H711 H 0.8168 0.1846 0.57166 0.0
H712 H 0.77489 0.23013 0.56601 0.0
H713 H 0.81854 0.20849 0.55234 0.0
H714 H 0.7507 0.18673 0.53298 0.0
H715 H 0.70679 0.20787 0.54676 0.0
H716 H 0.70318 0.14772 0.53902 0.0
H717 H 0.72214 0.03081 0.58628 0.0
H718 H 0.67534 0.07827 0.60552 0.0
H719 H 0.69981 0.20611 0.57895 0.0
C720 C 0.8234 0.10818 0.54131 0.0
C721 C 0.84752 0.06382 0.54003 0.0
C722 C 0.83187 0.02504 0.54918 0.0
C723 C 0.79376 0.0306 0.55963 0.0
C724 C 0.7714 0.07508 0.56078 0.0
C725 C 0.78571 0.11321 0.55185 0.0
C726 C 0.75942 0.15863 0.5564 0.0
C727 C 0.79449 0.19773 0.56193 0.0
C728 C 0.72816 0.17626 0.54299 0.0
C729 C 0.7292 0.1405 0.56963 0.0
C730 C 0.73595 0.09202 0.57185 0.0
C731 C 0.71552 0.06845 0.5844 0.0
C732 C 0.68878 0.09544 0.5952 0.0
C733 C 0.68278 0.14516 0.59327 0.0
C734 C 0.7023 0.16765 0.5802 0.0
H735 H 0.68352 0.98983 0.28242 0.0
H736 H 0.83189 0.00425 0.29586 0.0
H737 H 0.8241 0.93369 0.31271 0.0
H738 H 0.64094 0.96442 0.31883 0.0
H739 H 0.5958 0.9228 0.31236 0.0
H740 H 0.61582 0.96895 0.29964 0.0
H741 H 0.63702 0.90441 0.27881 0.0
H742 H 0.61767 0.85793 0.29168 0.0
H743 H 0.67709 0.85636 0.28366 0.0
H744 H 0.79728 0.86865 0.33061 0.0
H745 H 0.75181 0.8206 0.34952 0.0
H746 H 0.62179 0.84802 0.32415 0.0
C747 C 0.7147 0.97728 0.28858 0.0
C748 C 0.7584 0.00217 0.28776 0.0
C749 C 0.79804 0.98566 0.29637 0.0
C750 C 0.79407 0.94534 0.30583 0.0
C751 C 0.75027 0.92181 0.3065 0.0
C752 C 0.71122 0.93736 0.29813 0.0
C753 C 0.66671 0.90974 0.30227 0.0
C754 C 0.62756 0.94347 0.30866 0.0
C755 C 0.64857 0.88036 0.28827 0.0
C756 C 0.68632 0.87751 0.31473 0.0
C757 C 0.73484 0.88412 0.31678 0.0
C758 C 0.75962 0.86213 0.32882 0.0
C759 C 0.73375 0.83451 0.33942 0.0
C760 C 0.68387 0.82941 0.33785 0.0
C761 C 0.66031 0.84976 0.32509 0.0
H762 H 0.7876 0.88596 0.05671 0.0
H763 H 0.87057 0.9796 0.02731 0.0
H764 H 0.94275 0.96093 0.04233 0.0
H765 H 0.84726 0.91485 0.09225 0.0
H766 H 0.84574 0.85484 0.09963 0.0
H767 H 0.80014 0.87453 0.08644 0.0
H768 H 0.81958 0.80413 0.0675 0.0
H769 H 0.86349 0.7838 0.0812 0.0
H770 H 0.88035 0.79432 0.06134 0.0
H771 H 0.00431 0.93605 0.0608 0.0
H772 H 0.05433 0.90388 0.08163 0.0
H773 H 0.93428 0.82194 0.09875 0.0
C774 C 0.82108 0.90208 0.05334 0.0
C775 C 0.82337 0.93458 0.0409 0.0
C776 C 0.86775 0.95534 0.03695 0.0
C777 C 0.90902 0.94469 0.04534 0.0
C778 C 0.90544 0.91293 0.05758 0.0
C779 C 0.86283 0.8917 0.06157 0.0
C780 C 0.86915 0.85936 0.07544 0.0
C781 C 0.83877 0.87697 0.08926 0.0
C782 C 0.8575 0.80724 0.07109 0.0
C783 C 0.92197 0.86587 0.07861 0.0
C784 C 0.94187 0.89724 0.06815 0.0
C785 C 0.98934 0.91115 0.06898 0.0
C786 C 0.01733 0.89283 0.08089 0.0
C787 C -0.00197 0.86053 0.09174 0.0
C788 C 0.94987 0.84623 0.09048 0.0
H789 H 0.89007 0.96076 0.8159 0.0
H790 H 0.89199 0.0306 0.7712 0.0
H791 H 0.93129 0.10092 0.78324 0.0
H792 H 0.86 0.06307 0.83816 0.0
H793 H 0.8967 0.04762 0.85453 0.0
H794 H 0.87277 0.00118 0.84213 0.0
H795 H 0.95821 0.96826 0.83722 0.0
H796 H 0.98233 0.01461 0.84966 0.0
H797 H 0.00371 0.00778 0.83002 0.0
H798 H 0.96665 0.16507 0.8004 0.0
H799 H 0.99412 0.21899 0.8217 0.0
H800 H 0.9659 0.10825 0.85513 0.0
C801 C 0.8986 0.99086 0.80862 0.0
C802 C 0.88792 0.9902 0.7926 0.0
C803 C 0.90038 0.03006 0.78346 0.0
C804 C 0.92257 0.07019 0.7902 0.0
C805 C 0.93207 0.06979 0.80606 0.0
C806 C 0.92052 0.03115 0.81515 0.0
C807 C 0.93268 0.04042 0.83202 0.0
C808 C 0.88786 0.03794 0.84231 0.0
C809 C 0.97155 0.00569 0.83755 0.0
C810 C 0.95157 0.09088 0.83109 0.0
C811 C 0.95161 0.10697 0.81598 0.0
C812 C 0.96693 0.15284 0.81226 0.0
C813 C 0.98236 0.1831 0.82435 0.0
C814 C 0.9818 0.16726 0.83984 0.0
C815 C 0.96652 0.12072 0.84328 0.0
H816 H 0.8646 0.88607 0.4557 0.0
H817 H 0.82497 0.03275 0.44554 0.0
H818 H 0.75804 0.00304 0.42953 0.0
H819 H 0.85089 0.84479 0.41778 0.0
H820 H 0.82978 0.78632 0.42307 0.0
H821 H 0.86837 0.81917 0.436 0.0
H822 H 0.8057 0.81183 0.45801 0.0
H823 H 0.76689 0.77899 0.44505 0.0
H824 H 0.74551 0.83231 0.45482 0.0
H825 H 0.69885 0.9566 0.41285 0.0
H826 H 0.65838 0.898 0.39537 0.0
H827 H 0.74434 0.78397 0.41438 0.0
C828 C 0.842 0.91224 0.45017 0.0
C829 C 0.85033 0.96186 0.45195 0.0
C830 C 0.81901 0.99455 0.44466 0.0
C831 C 0.78091 0.97802 0.43547 0.0
C832 C 0.7748 0.92878 0.43362 0.0
C833 C 0.80482 0.89645 0.4407 0.0
C834 C 0.7946 0.84564 0.43552 0.0
C835 C 0.8385 0.82267 0.42762 0.0
C836 C 0.77712 0.81542 0.44917 0.0
C837 C 0.75501 0.85448 0.42405 0.0
C838 C 0.74301 0.90242 0.42339 0.0
C839 C 0.70781 0.91897 0.41333 0.0
C840 C 0.68502 0.88563 0.40349 0.0
C841 C 0.69872 0.83695 0.40361 0.0
C842 C 0.73356 0.82121 0.41412 0.0
H843 H 0.92574 0.04232 0.19047 0.0
H844 H 0.88107 0.95696 0.22953 0.0
H845 H 0.91908 0.88567 0.21752 0.0
H846 H 0.90331 0.95867 0.16155 0.0
H847 H 0.95464 0.97218 0.14979 0.0
H848 H 0.92942 0.01761 0.16231 0.0
H849 H 0.01163 0.02947 0.17574 0.0
H850 H 0.0371 0.98413 0.16313 0.0
H851 H 0.04157 0.97845 0.18388 0.0
H852 H 0.95077 0.82255 0.19975 0.0
H853 H 0.97832 0.7717 0.1778 0.0
H854 H 0.00688 0.89808 0.15079 0.0
C855 C 0.92464 0.0087 0.19657 0.0
C856 C 0.90057 0.00485 0.21089 0.0
C857 C 0.89979 0.96052 0.21861 0.0
C858 C 0.92123 0.91996 0.21188 0.0
C859 C 0.94393 0.92472 0.19759 0.0
C860 C 0.94638 0.96805 0.19011 0.0
C861 C 0.97067 0.96289 0.17447 0.0
C862 C 0.93752 0.97876 0.16125 0.0
C863 C 0.01805 0.99041 0.17429 0.0
C864 C 0.97928 0.90946 0.17397 0.0
C865 C 0.96398 0.88823 0.18751 0.0
C866 C 0.964 0.8388 0.18927 0.0
C867 C 0.97952 0.81029 0.17678 0.0
C868 C 0.99523 0.83141 0.16288 0.0
C869 C 0.99608 0.88151 0.16153 0.0
H870 H 0.79993 0.10363 0.94087 0.0
H871 H 0.88737 0.03545 0.97581 0.0
H872 H 0.95996 0.05818 0.96142 0.0
H873 H 0.87249 0.06807 0.90819 0.0
H874 H 0.86289 0.12307 0.89795 0.0
H875 H 0.81806 0.10145 0.91108 0.0
H876 H 0.82017 0.18225 0.92526 0.0
H877 H 0.86813 0.20491 0.91351 0.0
H878 H 0.87427 0.20255 0.93431 0.0
H879 H 0.02201 0.08356 0.94269 0.0
H880 H 0.071 0.11322 0.92101 0.0
H881 H 0.94423 0.16973 0.89898 0.0
C882 C 0.8344 0.09401 0.94559 0.0
C883 C 0.83817 0.06788 0.95947 0.0
C884 C 0.88378 0.05511 0.96513 0.0
C885 C 0.92513 0.06806 0.95709 0.0
C886 C 0.92013 0.0937 0.94344 0.0
C887 C 0.876 0.10652 0.93769 0.0
C888 C 0.8806 0.13304 0.92254 0.0
C889 C 0.85713 0.1047 0.90915 0.0
C890 C 0.8596 0.18374 0.92397 0.0
C891 C 0.93438 0.13386 0.92081 0.0
C892 C 0.95633 0.11026 0.93289 0.0
C893 C 0.0054 0.10271 0.93328 0.0
C894 C 0.03283 0.11945 0.92094 0.0
C895 C 0.01117 0.14402 0.90856 0.0
C896 C 0.96147 0.15186 0.90855 0.0
H897 H 0.73963 0.93844 0.69109 0.0
H898 H 0.77406 0.03507 0.72928 0.0
H899 H 0.75375 0.1042 0.7129 0.0
H900 H 0.7828 0.01671 0.65938 0.0
H901 H 0.73479 0.99814 0.64676 0.0
H902 H 0.7584 0.95728 0.66084 0.0
H903 H 0.6735 0.94592 0.67219 0.0
H904 H 0.64973 0.98673 0.65824 0.0
H905 H 0.64012 0.99768 0.67866 0.0
H906 H 0.72116 0.16236 0.69295 0.0
H907 H 0.67756 0.20265 0.67172 0.0
H908 H 0.66648 0.06663 0.64707 0.0
C909 C 0.74442 0.97415 0.69588 0.0
C910 C 0.75861 0.98133 0.71143 0.0
C911 C 0.76293 0.0287 0.7174 0.0
C912 C 0.75187 0.0682 0.70815 0.0
C913 C 0.73693 0.05974 0.69293 0.0
C914 C 0.73356 0.01378 0.68684 0.0
C915 C 0.71272 0.01366 0.67068 0.0
C916 C 0.74938 0.99537 0.65871 0.0
C917 C 0.66627 0.98429 0.66991 0.0
C918 C 0.7032 0.06649 0.66883 0.0
C919 C 0.71804 0.09283 0.68162 0.0
C920 C 0.71001 0.14213 0.68279 0.0
C921 C 0.68528 0.16474 0.67069 0.0
C922 C 0.66843 0.13774 0.6578 0.0
C923 C 0.67875 0.08832 0.65679 0.0
H924 H 0.77971 0.43139 0.95832 0.0
H925 H 0.77537 0.30808 0.98844 0.0
H926 H 0.84659 0.27509 0.97527 0.0
H927 H 0.81244 0.37248 0.92466 0.0
H928 H 0.85169 0.41869 0.91782 0.0
H929 H 0.80288 0.43399 0.93048 0.0
H930 H 0.86181 0.47443 0.94978 0.0
H931 H 0.91094 0.45912 0.93714 0.0
H932 H 0.91164 0.44072 0.95711 0.0
H933 H 0.91285 0.25121 0.95651 0.0
H934 H 0.96754 0.23996 0.934 0.0
H935 H 0.9333 0.38257 0.91849 0.0
C936 C 0.79432 0.39816 0.96255 0.0
C937 C 0.77144 0.37247 0.97445 0.0
C938 C 0.79145 0.32827 0.97918 0.0
C939 C 0.83235 0.30942 0.97189 0.0
C940 C 0.85358 0.33559 0.9601 0.0
C941 C 0.83546 0.37931 0.95561 0.0
C942 C 0.86314 0.39937 0.94213 0.0
C943 C 0.8306 0.40651 0.92794 0.0
C944 C 0.88839 0.44618 0.94683 0.0
C945 C 0.89867 0.35941 0.93935 0.0
C946 C 0.89293 0.3229 0.94986 0.0
C947 C 0.91851 0.28007 0.94847 0.0
C948 C 0.9495 0.27393 0.93573 0.0
C949 C 0.95537 0.31102 0.92493 0.0
C950 C 0.93054 0.35448 0.92699 0.0
H951 H 0.82773 0.45494 0.19747 0.0
H952 H 0.87599 0.3253 0.17401 0.0
H953 H 0.91928 0.37377 0.15486 0.0
H954 H 0.81 0.52417 0.16258 0.0
H955 H 0.83042 0.57926 0.17144 0.0
H956 H 0.80265 0.53425 0.18316 0.0
H957 H 0.87691 0.53309 0.20108 0.0
H958 H 0.90492 0.57801 0.1894 0.0
H959 H 0.93499 0.52204 0.19276 0.0
H960 H 0.96063 0.43628 0.13903 0.0
H961 H 0.99321 0.5088 0.12678 0.0
H962 H 0.91571 0.59741 0.16007 0.0
C963 C 0.84733 0.43688 0.18827 0.0
C964 C 0.84836 0.38645 0.18715 0.0
C965 C 0.87422 0.36396 0.17493 0.0
C966 C 0.89913 0.39114 0.16406 0.0
C967 C 0.89753 0.44079 0.1655 0.0
C968 C 0.87198 0.46348 0.17721 0.0
C969 C 0.87594 0.51733 0.17609 0.0
C970 C 0.82683 0.54008 0.17314 0.0
C971 C 0.89961 0.53887 0.1907 0.0
C972 C 0.90808 0.52128 0.16204 0.0
C973 C 0.92035 0.47676 0.15614 0.0
C974 C 0.95097 0.4714 0.14347 0.0
C975 C 0.96939 0.51274 0.13662 0.0
C976 C 0.95676 0.55875 0.14238 0.0
C977 C 0.92562 0.56279 0.15525 0.0
H978 H 0.93177 0.59512 0.44961 0.0
H979 H 0.94174 0.44438 0.43666 0.0
H980 H 0.88097 0.45649 0.41653 0.0
H981 H 0.80816 0.61167 0.44304 0.0
H982 H 0.81487 0.67022 0.43479 0.0
H983 H 0.85766 0.64918 0.4487 0.0
H984 H 0.92596 0.66415 0.42907 0.0
H985 H 0.88319 0.68508 0.4151 0.0
H986 H 0.92321 0.63678 0.41002 0.0
H987 H 0.81576 0.48423 0.39859 0.0
H988 H 0.75491 0.52711 0.38318 0.0
H989 H 0.79585 0.66087 0.40543 0.0
C990 C 0.92202 0.56455 0.44246 0.0
C991 C 0.94175 0.51858 0.44501 0.0
C992 C 0.9266 0.47974 0.43541 0.0
C993 C 0.89237 0.48632 0.42375 0.0
C994 C 0.8742 0.53212 0.42155 0.0
C995 C 0.88892 0.57067 0.43051 0.0
C996 C 0.86476 0.61651 0.42553 0.0
C997 C 0.83456 0.63814 0.43881 0.0
C998 C 0.90148 0.65276 0.41957 0.0
C999 C 0.83366 0.59754 0.41248 0.0
C1000 C 0.83924 0.54867 0.41046 0.0
C1001 C 0.81172 0.5226 0.39985 0.0
C1002 C 0.77737 0.54713 0.39117 0.0
C1003 C 0.77173 0.5972 0.39293 0.0
C1004 C 0.8006 0.62273 0.40358 0.0
H1005 H 0.68901 0.5894 0.70501 0.0
H1006 H 0.7418 0.50748 0.74373 0.0
H1007 H 0.72676 0.43214 0.7289 0.0
H1008 H 0.59542 0.50432 0.69296 0.0
H1009 H 0.60448 0.51548 0.67264 0.0
H1010 H 0.61528 0.56231 0.68681 0.0
H1011 H 0.70162 0.57244 0.67666 0.0
H1012 H 0.69131 0.52628 0.66232 0.0
H1013 H 0.74058 0.52109 0.67564 0.0
H1014 H 0.71476 0.36651 0.70817 0.0
H1015 H 0.70314 0.31743 0.68425 0.0
H1016 H 0.65531 0.44419 0.66015 0.0
C1017 C 0.6967 0.55552 0.71044 0.0
C1018 C 0.7166 0.55397 0.72544 0.0
C1019 C 0.72618 0.50916 0.73225 0.0
C1020 C 0.71784 0.46633 0.72391 0.0
C1021 C 0.69915 0.46916 0.70894 0.0
C1022 C 0.68808 0.51273 0.70239 0.0
C1023 C 0.67045 0.50672 0.68593 0.0
C1024 C 0.6183 0.5232 0.6845 0.0
C1025 C 0.70294 0.53318 0.67447 0.0
C1026 C 0.67472 0.4531 0.684 0.0
C1027 C 0.69112 0.43176 0.69734 0.0
C1028 C 0.7011 0.38279 0.69775 0.0
C1029 C 0.69454 0.35522 0.68411 0.0
C1030 C 0.67812 0.3768 0.67031 0.0
C1031 C 0.66739 0.42622 0.67049 0.0
H1032 H 0.72291 0.61232 0.05555 0.0
H1033 H 0.8065 0.54089 0.01981 0.0
H1034 H 0.87962 0.58047 0.02981 0.0
H1035 H 0.79016 0.72513 0.05771 0.0
H1036 H 0.78463 0.72886 0.07858 0.0
H1037 H 0.73889 0.69995 0.06719 0.0
H1038 H 0.74872 0.62327 0.08348 0.0
H1039 H 0.79438 0.65221 0.09484 0.0
H1040 H 0.80686 0.59607 0.0851 0.0
H1041 H 0.94399 0.62162 0.0452 0.0
H1042 H 0.99539 0.65496 0.06596 0.0
H1043 H 0.86935 0.69869 0.09178 0.0
C1044 C 0.75654 0.60594 0.04966 0.0
C1045 C 0.75936 0.57421 0.03684 0.0
C1046 C 0.80393 0.56535 0.02964 0.0
C1047 C 0.84541 0.58792 0.03516 0.0
C1048 C 0.84155 0.61895 0.04792 0.0
C1049 C 0.79827 0.62757 0.05516 0.0
C1050 C 0.80435 0.65793 0.06968 0.0
C1051 C 0.77798 0.70586 0.06819 0.0
C1052 C 0.78762 0.63073 0.08412 0.0
C1053 C 0.85796 0.66462 0.06962 0.0
C1054 C 0.87873 0.64239 0.05687 0.0
C1055 C 0.92813 0.63984 0.0551 0.0
C1056 C 0.95705 0.65892 0.06694 0.0
C1057 C 0.93644 0.68001 0.0804 0.0
C1058 C 0.88627 0.68412 0.08145 0.0
H1059 H 0.75931 0.45482 0.2821 0.0
H1060 H 0.61559 0.41601 0.26825 0.0
H1061 H 0.58375 0.48461 0.28354 0.0
H1062 H 0.73361 0.48118 0.32007 0.0
H1063 H 0.77447 0.53065 0.32206 0.0
H1064 H 0.78602 0.48406 0.30798 0.0
H1065 H 0.78993 0.54707 0.28621 0.0
H1066 H 0.77836 0.59402 0.30028 0.0
H1067 H 0.74049 0.58742 0.28348 0.0
H1068 H 0.5673 0.54971 0.3034 0.0
H1069 H 0.56807 0.60555 0.32598 0.0
H1070 H 0.72233 0.60157 0.32663 0.0
C1071 C 0.72121 0.46138 0.28203 0.0
C1072 C 0.68989 0.43027 0.27399 0.0
C1073 C 0.64024 0.43985 0.27417 0.0
C1074 C 0.62188 0.47868 0.28283 0.0
C1075 C 0.65376 0.50794 0.29099 0.0
C1076 C 0.70246 0.49999 0.29051 0.0
C1077 C 0.72889 0.53364 0.30139 0.0
C1078 C 0.75738 0.5057 0.31359 0.0
C1079 C 0.76133 0.56756 0.29229 0.0
C1080 C 0.68738 0.56037 0.30864 0.0
C1081 C 0.64433 0.54558 0.30234 0.0
C1082 C 0.60084 0.56203 0.30822 0.0
C1083 C 0.60147 0.5933 0.3211 0.0
C1084 C 0.64511 0.60753 0.32797 0.0
C1085 C 0.68852 0.59204 0.32135 0.0
H1086 H 0.92542 0.44538 0.54905 0.0
H1087 H 0.96348 0.30051 0.53452 0.0
H1088 H 0.91794 0.26877 0.55645 0.0
H1089 H 0.92558 0.43005 0.58959 0.0
H1090 H 0.87279 0.46541 0.59321 0.0
H1091 H 0.91004 0.47793 0.57672 0.0
H1092 H 0.8378 0.4678 0.55818 0.0
H1093 H 0.80009 0.45652 0.57465 0.0
H1094 H 0.80286 0.41373 0.55883 0.0
H1095 H 0.87368 0.25298 0.58098 0.0
H1096 H 0.81616 0.25181 0.60258 0.0
H1097 H 0.79828 0.4057 0.59924 0.0
C1098 C 0.92365 0.40692 0.55018 0.0
C1099 C 0.94951 0.37572 0.54016 0.0
C1100 C 0.94581 0.32555 0.54231 0.0
C1101 C 0.91982 0.30702 0.55472 0.0
C1102 C 0.89657 0.33894 0.56468 0.0
C1103 C 0.89677 0.38765 0.56224 0.0
C1104 C 0.86571 0.4138 0.57401 0.0
C1105 C 0.89532 0.44887 0.58397 0.0
C1106 C 0.82414 0.43946 0.56593 0.0
C1107 C 0.84833 0.37209 0.58349 0.0
C1108 C 0.86759 0.32941 0.57813 0.0
C1109 C 0.85783 0.28603 0.58518 0.0
C1110 C 0.8256 0.28588 0.59759 0.0
C1111 C 0.80293 0.32874 0.60261 0.0
C1112 C 0.81527 0.3725 0.59567 0.0
H1113 H 0.81861 0.53827 0.807 0.0
H1114 H 0.85729 0.66845 0.83192 0.0
H1115 H 0.89455 0.62047 0.85252 0.0
H1116 H 0.79194 0.46732 0.84163 0.0
H1117 H 0.81611 0.41312 0.83317 0.0
H1118 H 0.78983 0.45774 0.8209 0.0
H1119 H 0.86805 0.46158 0.80489 0.0
H1120 H 0.89452 0.41707 0.81709 0.0
H1121 H 0.92361 0.47398 0.81469 0.0
H1122 H 0.9348 0.55885 0.86887 0.0
H1123 H 0.97083 0.48715 0.88072 0.0
H1124 H 0.90199 0.39725 0.84593 0.0
C1125 C 0.83449 0.55651 0.81689 0.0
C1126 C 0.83497 0.60691 0.81796 0.0
C1127 C 0.85606 0.62976 0.83103 0.0
C1128 C 0.87741 0.60287 0.84274 0.0
C1129 C 0.87675 0.55321 0.84129 0.0
C1130 C 0.85535 0.53019 0.8288 0.0
C1131 C 0.86065 0.47646 0.82983 0.0
C1132 C 0.81172 0.45224 0.83149 0.0
C1133 C 0.88837 0.4561 0.8158 0.0
C1134 C 0.8894 0.47296 0.84464 0.0
C1135 C 0.8984 0.5176 0.85107 0.0
C1136 C 0.92727 0.5236 0.86412 0.0
C1137 C 0.94768 0.48281 0.87074 0.0
C1138 C 0.93858 0.43679 0.86436 0.0
C1139 C 0.9086 0.43193 0.85127 0.0
H1140 H 0.34213 0.62093 0.03695 0.0
H1141 H 0.31164 0.47572 0.0517 0.0
H1142 H 0.24231 0.5053 0.06616 0.0
H1143 H 0.32438 0.66919 0.07401 0.0
H1144 H 0.30035 0.72527 0.06751 0.0
H1145 H 0.34131 0.69234 0.05537 0.0
H1146 H 0.27985 0.69176 0.03295 0.0
H1147 H 0.23853 0.72502 0.04498 0.0
H1148 H 0.22064 0.66886 0.03623 0.0
H1149 H 0.17948 0.55113 0.0811 0.0
H1150 H 0.13752 0.61031 0.09797 0.0
H1151 H 0.21591 0.72494 0.07631 0.0
C1152 C 0.32127 0.59487 0.04313 0.0
C1153 C 0.33286 0.54546 0.0427 0.0
C1154 C 0.30337 0.51342 0.05109 0.0
C1155 C 0.26367 0.52994 0.05953 0.0
C1156 C 0.254 0.57878 0.05981 0.0
C1157 C 0.28254 0.61086 0.05205 0.0
C1158 C 0.26909 0.66204 0.05607 0.0
C1159 C 0.31127 0.68875 0.06369 0.0
C1160 C 0.25093 0.68846 0.0417 0.0
C1161 C 0.22916 0.65365 0.06754 0.0
C1162 C 0.21995 0.60542 0.06922 0.0
C1163 C 0.18598 0.58901 0.07975 0.0
C1164 C 0.16207 0.62273 0.0892 0.0
C1165 C 0.17323 0.67186 0.08819 0.0
C1166 C 0.20631 0.68747 0.07702 0.0
H1167 H 0.22645 0.55542 0.80785 0.0
H1168 H 0.26715 0.45771 0.77055 0.0
H1169 H 0.24481 0.38907 0.78686 0.0
H1170 H 0.2682 0.48065 0.83992 0.0
H1171 H 0.21905 0.49847 0.85221 0.0
H1172 H 0.24181 0.53912 0.83795 0.0
H1173 H 0.1571 0.54689 0.82612 0.0
H1174 H 0.13416 0.50628 0.84029 0.0
H1175 H 0.12578 0.49366 0.8199 0.0
H1176 H 0.21201 0.33098 0.80702 0.0
H1177 H 0.17133 0.2904 0.82878 0.0
H1178 H 0.15547 0.4276 0.85251 0.0
C1179 C 0.23189 0.51963 0.8032 0.0
C1180 C 0.24873 0.5121 0.78792 0.0
C1181 C 0.25391 0.4645 0.78219 0.0
C1182 C 0.24165 0.42524 0.7914 0.0
C1183 C 0.22459 0.43408 0.80637 0.0
C1184 C 0.22003 0.48021 0.81222 0.0
C1185 C 0.19855 0.48064 0.8283 0.0
C1186 C 0.23403 0.50091 0.8403 0.0
C1187 C 0.15109 0.5085 0.82866 0.0
C1188 C 0.19071 0.42767 0.83049 0.0
C1189 C 0.20621 0.4011 0.81783 0.0
C1190 C 0.20024 0.35146 0.81707 0.0
C1191 C 0.17716 0.32868 0.82948 0.0
C1192 C 0.16015 0.35569 0.84237 0.0
C1193 C 0.16804 0.40566 0.84288 0.0
H1194 H 0.31069 0.39592 0.56077 0.0
H1195 H 0.39307 0.47695 0.52757 0.0
H1196 H 0.46732 0.45451 0.54108 0.0
H1197 H 0.38741 0.42623 0.59462 0.0
H1198 H 0.37951 0.36811 0.60307 0.0
H1199 H 0.33287 0.39349 0.59136 0.0
H1200 H 0.33373 0.31728 0.57476 0.0
H1201 H 0.38376 0.29149 0.5848 0.0
H1202 H 0.38649 0.30087 0.56413 0.0
H1203 H 0.53204 0.42257 0.55753 0.0
H1204 H 0.58472 0.38463 0.57667 0.0
H1205 H 0.46172 0.32167 0.59912 0.0
C1206 C 0.3444 0.40916 0.55645 0.0
C1207 C 0.34629 0.43821 0.54314 0.0
C1208 C 0.3909 0.45512 0.53784 0.0
C1209 C 0.4332 0.44239 0.54538 0.0
C1210 C 0.4302 0.41316 0.55831 0.0
C1211 C 0.38701 0.39731 0.56399 0.0
C1212 C 0.39406 0.36613 0.5781 0.0
C1213 C 0.37217 0.38992 0.59265 0.0
C1214 C 0.37332 0.31589 0.57531 0.0
C1215 C 0.44814 0.36534 0.57906 0.0
C1216 C 0.46801 0.39346 0.56766 0.0
C1217 C 0.517 0.40038 0.56648 0.0
C1218 C 0.54658 0.37871 0.5774 0.0
C1219 C 0.52725 0.34995 0.58924 0.0
C1220 C 0.47739 0.3427 0.58998 0.0
H1221 H 0.42165 0.54933 0.28044 0.0
H1222 H 0.47605 0.42394 0.30376 0.0
H1223 H 0.49155 0.47272 0.32729 0.0
H1224 H 0.50891 0.62983 0.29626 0.0
H1225 H 0.46837 0.67979 0.29786 0.0
H1226 H 0.4589 0.63429 0.2832 0.0
H1227 H 0.37325 0.62092 0.29372 0.0
H1228 H 0.38281 0.66596 0.30857 0.0
H1229 H 0.36493 0.60643 0.31386 0.0
H1230 H 0.50316 0.5343 0.34787 0.0
H1231 H 0.5187 0.60758 0.36343 0.0
H1232 H 0.45741 0.69395 0.3271 0.0
C1233 C 0.4365 0.53227 0.29057 0.0
C1234 C 0.4476 0.48297 0.29036 0.0
C1235 C 0.46769 0.46179 0.30369 0.0
C1236 C 0.47612 0.48905 0.31714 0.0
C1237 C 0.46437 0.53744 0.31706 0.0
C1238 C 0.4457 0.55913 0.30408 0.0
C1239 C 0.43978 0.61252 0.30674 0.0
C1240 C 0.47085 0.64077 0.29534 0.0
C1241 C 0.38705 0.62731 0.30566 0.0
C1242 C 0.45817 0.6174 0.32321 0.0
C1243 C 0.47157 0.57344 0.32899 0.0
C1244 C 0.49228 0.56885 0.34358 0.0
C1245 C 0.50106 0.61052 0.3523 0.0
C1246 C 0.48885 0.65589 0.34642 0.0
C1247 C 0.4661 0.65939 0.33189 0.0
H1248 H 0.32149 0.43214 0.957 0.0
H1249 H 0.3648 0.28893 0.97078 0.0
H1250 H 0.3007 0.25508 0.95511 0.0
H1251 H 0.19326 0.41055 0.95145 0.0
H1252 H 0.1909 0.44501 0.93394 0.0
H1253 H 0.23325 0.46035 0.94895 0.0
H1254 H 0.30252 0.45326 0.92911 0.0
H1255 H 0.26041 0.43839 0.91406 0.0
H1256 H 0.30958 0.39865 0.91794 0.0
H1257 H 0.23731 0.23466 0.93659 0.0
H1258 H 0.18724 0.22832 0.91314 0.0
H1259 H 0.19229 0.38224 0.90792 0.0
C1260 C 0.31802 0.39365 0.95688 0.0
C1261 C 0.34851 0.3639 0.96574 0.0
C1262 C 0.34137 0.31354 0.96493 0.0
C1263 C 0.30492 0.29353 0.95588 0.0
C1264 C 0.27624 0.3239 0.94728 0.0
C1265 C 0.28295 0.37278 0.9474 0.0
C1266 C 0.25212 0.39655 0.93523 0.0
C1267 C 0.21519 0.4301 0.94285 0.0
C1268 C 0.283 0.42326 0.92338 0.0
C1269 C 0.22824 0.35306 0.92794 0.0
C1270 C 0.24157 0.31177 0.93551 0.0
C1271 C 0.22618 0.2667 0.93066 0.0
C1272 C 0.19771 0.26346 0.9174 0.0
C1273 C 0.18567 0.30486 0.90901 0.0
C1274 C 0.20028 0.35036 0.91443 0.0
H1275 H 0.346 0.49002 0.69143 0.0
H1276 H 0.47061 0.5389 0.71701 0.0
H1277 H 0.52012 0.47945 0.70294 0.0
H1278 H 0.3778 0.36503 0.68961 0.0
H1279 H 0.35469 0.35667 0.67024 0.0
H1280 H 0.32895 0.40143 0.68295 0.0
H1281 H 0.34464 0.46617 0.66229 0.0
H1282 H 0.37067 0.42165 0.64956 0.0
H1283 H 0.40429 0.47426 0.65494 0.0
H1284 H 0.55721 0.41755 0.68471 0.0
H1285 H 0.57655 0.35386 0.66552 0.0
H1286 H 0.42779 0.34809 0.65164 0.0
C1287 C 0.38377 0.48854 0.69403 0.0
C1288 C 0.40433 0.51929 0.70533 0.0
C1289 C 0.45381 0.51541 0.70855 0.0
C1290 C 0.48241 0.48213 0.70048 0.0
C1291 C 0.46111 0.4532 0.68916 0.0
C1292 C 0.41283 0.45588 0.68603 0.0
C1293 C 0.39852 0.42096 0.67331 0.0
C1294 C 0.36289 0.38382 0.6794 0.0
C1295 C 0.37836 0.44735 0.65919 0.0
C1296 C 0.44636 0.3984 0.66968 0.0
C1297 C 0.48213 0.41745 0.67889 0.0
C1298 C 0.5294 0.40233 0.67747 0.0
C1299 C 0.54014 0.36637 0.66646 0.0
C1300 C 0.50384 0.34603 0.65702 0.0
C1301 C 0.45645 0.36265 0.65868 0.0
H1302 H 0.3018 0.6159 0.44338 0.0
H1303 H 0.39146 0.57514 0.48203 0.0
H1304 H 0.46209 0.60676 0.46842 0.0
H1305 H 0.38185 0.58003 0.41443 0.0
H1306 H 0.36838 0.62774 0.40126 0.0
H1307 H 0.32385 0.60804 0.41478 0.0
H1308 H 0.3154 0.6947 0.42578 0.0
H1309 H 0.35952 0.71442 0.41204 0.0
H1310 H 0.36795 0.72584 0.43245 0.0
H1311 H 0.5231 0.63425 0.44991 0.0
H1312 H 0.57198 0.65574 0.42717 0.0
H1313 H 0.44371 0.67984 0.40033 0.0
C1314 C 0.33619 0.61484 0.44909 0.0
C1315 C 0.34144 0.59354 0.46377 0.0
C1316 C 0.38698 0.59137 0.47078 0.0
C1317 C 0.42711 0.60947 0.46319 0.0
C1318 C 0.42095 0.62954 0.44862 0.0
C1319 C 0.37671 0.63241 0.44161 0.0
C1320 C 0.38071 0.65156 0.42527 0.0
C1321 C 0.36264 0.61463 0.41323 0.0
C1322 C 0.35428 0.69947 0.4238 0.0
C1323 C 0.4342 0.65827 0.42413 0.0
C1324 C 0.45658 0.64565 0.4378 0.0
C1325 C 0.50603 0.64512 0.43926 0.0
C1326 C 0.53342 0.65725 0.42634 0.0
C1327 C 0.51122 0.66996 0.41227 0.0
C1328 C 0.46112 0.67123 0.41116 0.0
H1329 H 0.27751 0.46011 0.18033 0.0
H1330 H 0.32992 0.55829 0.21571 0.0
H1331 H 0.29762 0.62676 0.20088 0.0
H1332 H 0.30006 0.53789 0.14693 0.0
H1333 H 0.24685 0.51767 0.13711 0.0
H1334 H 0.27833 0.47799 0.14986 0.0
H1335 H 0.20071 0.4652 0.1657 0.0
H1336 H 0.16911 0.5047 0.15301 0.0
H1337 H 0.16957 0.51647 0.17363 0.0
H1338 H 0.25077 0.68351 0.18302 0.0
H1339 H 0.19625 0.72153 0.16406 0.0
H1340 H 0.17917 0.58414 0.14059 0.0
C1341 C 0.28266 0.4961 0.18486 0.0
C1342 C 0.30586 0.50416 0.19913 0.0
C1343 C 0.31231 0.55163 0.2047 0.0
C1344 C 0.29411 0.59059 0.19637 0.0
C1345 C 0.27044 0.58129 0.1824 0.0
C1346 C 0.26534 0.53508 0.17664 0.0
C1347 C 0.23673 0.53374 0.16184 0.0
C1348 C 0.26733 0.51577 0.14812 0.0
C1349 C 0.19135 0.50325 0.16367 0.0
C1350 C 0.22498 0.58617 0.16037 0.0
C1351 C 0.24484 0.61343 0.17219 0.0
C1352 C 0.23567 0.66252 0.17359 0.0
C1353 C 0.20474 0.68385 0.16278 0.0
C1354 C 0.18331 0.65586 0.15086 0.0
C1355 C 0.19481 0.60676 0.14954 0.0
loop_
_geom_bond_atom_site_label_1
_geom_bond_atom_site_label_2
_geom_bond_distance
_geom_bond_site_symmetry_2
_ccdc_geom_bond_type
C0 C1 1.384 . S
C0 C2 1.384 . S
C0 H28 0.931 1_565 S
C1 C0 1.384 . S
C1 C4 1.382 . S
C2 C0 1.384 . S
C2 C3 1.381 . S
C2 H29 0.930 1_565 S
C3 C2 1.381 . S
C3 C5 1.381 . S
C3 C6 1.487 . S
C4 C1 1.382 . S
C4 C5 1.387 . S
C4 H30 0.930 . S
C5 C3 1.381 . S
C5 C4 1.387 . S
C5 H31 0.931 . S
C6 C3 1.487 . S
C6 C13 1.399 1_565 S
C6 N44 1.343 . S
C7 C8 1.384 . S
C7 C9 1.384 . S
C7 H32 0.931 1_545 S
C8 C7 1.384 . S
C8 C11 1.382 . S
C9 C7 1.384 . S
C9 C10 1.381 . S
C9 H33 0.930 1_545 S
C10 C9 1.381 . S
C10 C12 1.381 . S
C10 C13 1.487 . S
C11 C8 1.382 . S
C11 C12 1.387 . S
C11 H34 0.930 . S
C12 C10 1.381 . S
C12 C11 1.387 . S
C12 H35 0.931 . S
C13 C6 1.399 1_545 S
C13 C10 1.487 . S
C13 N45 1.343 . S
C14 C15 1.384 . S
C14 C16 1.384 . S
C14 H36 0.931 1_545 S
C15 C14 1.384 . S
C15 C18 1.382 . S
C16 C14 1.384 . S
C16 C17 1.381 . S
C16 H37 0.930 1_545 S
C17 C16 1.381 . S
C17 C19 1.381 . S
C17 C20 1.487 . S
C18 C15 1.382 . S
C18 C19 1.387 . S
C18 H38 0.930 . S
C19 C17 1.381 . S
C19 C18 1.387 . S
C19 H39 0.931 . S
C20 C17 1.487 . S
C20 C27 1.399 1_545 S
C20 N45 1.343 1_655 S
C21 C22 1.384 . S
C21 C23 1.384 . S
C21 H40 0.931 1_565 S
C22 C21 1.384 . S
C22 C25 1.382 . S
C23 C21 1.384 . S
C23 C24 1.381 . S
C23 H41 0.930 1_565 S
C24 C23 1.381 . S
C24 C26 1.381 . S
C24 C27 1.487 . S
C25 C22 1.382 . S
C25 C26 1.387 . S
C25 H42 0.930 . S
C26 C24 1.381 . S
C26 C25 1.387 . S
C26 H43 0.931 . S
C27 C20 1.399 1_565 S
C27 C24 1.487 . S
C27 N44 1.343 1_655 S
H28 C0 0.931 1_545 S
H29 C2 0.930 1_545 S
H30 C4 0.930 . S
H31 C5 0.931 . S
H32 C7 0.931 1_565 S
H33 C9 0.930 1_565 S
H34 C11 0.930 . S
H35 C12 0.931 . S
H36 C14 0.931 1_565 S
H37 C16 0.930 1_565 S
H38 C18 0.930 . S
H39 C19 0.931 . S
H40 C21 0.931 1_545 S
H41 C23 0.930 1_545 S
H42 C25 0.930 . S
H43 C26 0.931 . S
N44 C6 1.343 . S
N44 C27 1.343 1_455 S
N45 C13 1.343 . S
N45 C20 1.343 1_455 S
C46 C47 1.384 . S
C46 C48 1.384 . S
C46 H74 0.931 . S
C47 C46 1.384 . S
C47 C50 1.382 . S
C48 C46 1.384 . S
C48 C49 1.381 . S
C48 H75 0.930 . S
C49 C48 1.381 . S
C49 C51 1.381 . S
C49 C52 1.487 . S
C50 C47 1.382 . S
C50 C51 1.387 . S
C50 H76 0.930 . S
C51 C49 1.381 . S
C51 C50 1.387 . S
C51 H77 0.931 . S
C52 C49 1.487 . S
C52 C59 1.399 . S
C52 N90 1.343 . S
C53 C54 1.384 . S
C53 C55 1.384 . S
C53 H78 0.931 . S
C54 C53 1.384 . S
C54 C57 1.382 . S
C55 C53 1.384 . S
C55 C56 1.381 . S
C55 H79 0.930 . S
C56 C55 1.381 . S
C56 C58 1.381 . S
C56 C59 1.487 . S
C57 C54 1.382 . S
C57 C58 1.387 . S
C57 H80 0.930 . S
C58 C56 1.381 . S
C58 C57 1.387 . S
C58 H81 0.931 . S
C59 C52 1.399 . S
C59 C56 1.487 . S
C59 N91 1.343 . S
C60 C61 1.384 . S
C60 C62 1.384 . S
C60 H82 0.931 . S
C61 C60 1.384 . S
C61 C64 1.382 . S
C62 C60 1.384 . S
C62 C63 1.381 . S
C62 H83 0.930 . S
C63 C62 1.381 . S
C63 C65 1.381 . S
C63 C66 1.487 . S
C64 C61 1.382 . S
C64 C65 1.387 . S
C64 H84 0.930 . S
C65 C63 1.381 . S
C65 C64 1.387 . S
C65 H85 0.931 . S
C66 C63 1.487 . S
C66 C73 1.399 . S
C66 N91 1.343 . S
C67 C68 1.384 . S
C67 C69 1.384 . S
C67 H86 0.931 . S
C68 C67 1.384 . S
C68 C71 1.382 . S
C69 C67 1.384 . S
C69 C70 1.381 . S
C69 H87 0.930 . S
C70 C69 1.381 . S
C70 C72 1.381 . S
C70 C73 1.487 . S
C71 C68 1.382 . S
C71 C72 1.387 . S
C71 H88 0.930 . S
C72 C70 1.381 . S
C72 C71 1.387 . S
C72 H89 0.931 . S
C73 C66 1.399 . S
C73 C70 1.487 . S
C73 N90 1.343 . S
H74 C46 0.931 . S
H75 C48 0.930 . S
H76 C50 0.930 . S
H77 C51 0.931 . S
H78 C53 0.931 . S
H79 C55 0.930 . S
H80 C57 0.930 . S
H81 C58 0.931 . S
H82 C60 0.931 . S
H83 C62 0.930 . S
H84 C64 0.930 . S
H85 C65 0.931 . S
H86 C67 0.931 . S
H87 C69 0.930 . S
H88 C71 0.930 . S
H89 C72 0.931 . S
N90 C52 1.343 . S
N90 C73 1.343 . S
N91 C59 1.343 . S
N91 C66 1.343 . S
C92 C93 1.384 . S
C92 C94 1.384 . S
C92 H120 0.931 1_545 S
C93 C92 1.384 . S
C93 C96 1.382 . S
C94 C92 1.384 . S
C94 C95 1.381 . S
C94 H121 0.930 1_545 S
C95 C94 1.381 . S
C95 C97 1.381 . S
C95 C98 1.487 . S
C96 C93 1.382 . S
C96 C97 1.387 . S
C96 H122 0.930 . S
C97 C95 1.381 . S
C97 C96 1.387 . S
C97 H123 0.931 . S
C98 C95 1.487 . S
C98 C105 1.399 1_546 S
C98 N136 1.343 . S
C99 C100 1.384 . S
C99 C101 1.384 . S
C99 H124 0.931 1_565 S
C100 C99 1.384 . S
C100 C103 1.382 . S
C101 C99 1.384 . S
C101 C102 1.381 . S
C101 H125 0.930 1_565 S
C102 C101 1.381 . S
C102 C104 1.381 . S
C102 C105 1.487 . S
C103 C100 1.382 . S
C103 C104 1.387 . S
C103 H126 0.930 . S
C104 C102 1.381 . S
C104 C103 1.387 . S
C104 H127 0.931 . S
C105 C98 1.399 1_564 S
C105 C102 1.487 . S
C105 N137 1.343 . S
C106 C107 1.384 . S
C106 C108 1.384 . S
C106 H128 0.931 1_565 S
C107 C106 1.384 . S
C107 C110 1.382 . S
C108 C106 1.384 . S
C108 C109 1.381 . S
C108 H129 0.930 1_565 S
C109 C108 1.381 . S
C109 C111 1.381 . S
C109 C112 1.487 . S
C110 C107 1.382 . S
C110 C111 1.387 . S
C110 H130 0.930 . S
C111 C109 1.381 . S
C111 C110 1.387 . S
C111 H131 0.931 . S
C112 C109 1.487 . S
C112 C119 1.399 1_564 S
C112 N137 1.343 . S
C113 C114 1.384 . S
C113 C115 1.384 . S
C113 H132 0.931 1_545 S
C114 C113 1.384 . S
C114 C117 1.382 . S
C115 C113 1.384 . S
C115 C116 1.381 . S
C115 H133 0.930 1_545 S
C116 C115 1.381 . S
C116 C118 1.381 . S
C116 C119 1.487 . S
C117 C114 1.382 . S
C117 C118 1.387 . S
C117 H134 0.930 . S
C118 C116 1.381 . S
C118 C117 1.387 . S
C118 H135 0.931 . S
C119 C112 1.399 1_546 S
C119 C116 1.487 . S
C119 N136 1.343 . S
H120 C92 0.931 1_565 S
H121 C94 0.930 1_565 S
H122 C96 0.930 . S
H123 C97 0.931 . S
H124 C99 0.931 1_545 S
H125 C101 0.930 1_545 S
H126 C103 0.930 . S
H127 C104 0.931 . S
H128 C106 0.931 1_545 S
H129 C108 0.930 1_545 S
H130 C110 0.930 . S
H131 C111 0.931 . S
H132 C113 0.931 1_565 S
H133 C115 0.930 1_565 S
H134 C117 0.930 . S
H135 C118 0.931 . S
N136 C98 1.343 . S
N136 C119 1.343 . S
N137 C105 1.343 . S
N137 C112 1.343 . S
C138 C139 1.384 . S
C138 C140 1.384 . S
C138 H166 0.931 . S
C139 C138 1.384 . S
C139 C142 1.382 . S
C140 C138 1.384 . S
C140 C141 1.381 . S
C140 H167 0.930 . S
C141 C140 1.381 . S
C141 C143 1.381 . S
C141 C144 1.487 . S
C142 C139 1.382 . S
C142 C143 1.387 . S
C142 H168 0.930 . S
C143 C141 1.381 . S
C143 C142 1.387 . S
C143 H169 0.931 . S
C144 C141 1.487 . S
C144 C151 1.399 . S
C144 N182 1.343 . S
C145 C146 1.384 . S
C145 C147 1.384 . S
C145 H170 0.931 . S
C146 C145 1.384 . S
C146 C149 1.382 . S
C147 C145 1.384 . S
C147 C148 1.381 . S
C147 H171 0.930 . S
C148 C147 1.381 . S
C148 C150 1.381 . S
C148 C151 1.487 . S
C149 C146 1.382 . S
C149 C150 1.387 . S
C149 H172 0.930 . S
C150 C148 1.381 . S
C150 C149 1.387 . S
C150 H173 0.931 . S
C151 C144 1.399 . S
C151 C148 1.487 . S
C151 N183 1.343 . S
C152 C153 1.384 . S
C152 C154 1.384 . S
C152 H174 0.931 . S
C153 C152 1.384 . S
C153 C156 1.382 . S
C154 C152 1.384 . S
C154 C155 1.381 . S
C154 H175 0.930 . S
C155 C154 1.381 . S
C155 C157 1.381 . S
C155 C158 1.487 . S
C156 C153 1.382 . S
C156 C157 1.387 . S
C156 H176 0.930 . S
C157 C155 1.381 . S
C157 C156 1.387 . S
C157 H177 0.931 . S
C158 C155 1.487 . S
C158 C165 1.399 . S
C158 N183 1.343 . S
C159 C160 1.384 . S
C159 C161 1.384 . S
C159 H178 0.931 . S
C160 C159 1.384 . S
C160 C163 1.382 . S
C161 C159 1.384 . S
C161 C162 1.381 . S
C161 H179 0.930 . S
C162 C161 1.381 . S
C162 C164 1.381 . S
C162 C165 1.487 . S
C163 C160 1.382 . S
C163 C164 1.387 . S
C163 H180 0.930 . S
C164 C162 1.381 . S
C164 C163 1.387 . S
C164 H181 0.931 . S
C165 C158 1.399 . S
C165 C162 1.487 . S
C165 N182 1.343 . S
H166 C138 0.931 . S
H167 C140 0.930 . S
H168 C142 0.930 . S
H169 C143 0.931 . S
H170 C145 0.931 . S
H171 C147 0.930 . S
H172 C149 0.930 . S
H173 C150 0.931 . S
H174 C152 0.931 . S
H175 C154 0.930 . S
H176 C156 0.930 . S
H177 C157 0.931 . S
H178 C159 0.931 . S
H179 C161 0.930 . S
H180 C163 0.930 . S
H181 C164 0.931 . S
N182 C144 1.343 . S
N182 C165 1.343 . S
N183 C151 1.343 . S
N183 C158 1.343 . S
C184 C185 1.384 . S
C184 C186 1.384 . S
C184 H212 0.948 . S
C185 C184 1.384 . S
C185 C188 1.382 . S
C186 C184 1.384 . S
C186 C187 1.381 . S
C186 H213 0.930 . S
C187 C186 1.381 . S
C187 C189 1.381 . S
C187 C190 1.487 . S
C188 C185 1.382 . S
C188 C189 1.387 . S
C188 H214 0.930 . S
C189 C187 1.381 . S
C189 C188 1.387 . S
C189 H215 0.931 . S
C190 C187 1.487 . S
C190 C197 1.399 . S
C190 N228 1.343 . S
C191 C192 1.384 . S
C191 C193 1.384 . S
C191 H216 0.931 . S
C192 C191 1.384 . S
C192 C195 1.382 . S
C193 C191 1.384 . S
C193 C194 1.381 . S
C193 H217 0.930 . S
C194 C193 1.381 . S
C194 C196 1.381 . S
C194 C197 1.487 . S
C195 C192 1.382 . S
C195 C196 1.387 . S
C195 H218 0.930 . S
C196 C194 1.381 . S
C196 C195 1.387 . S
C196 H219 0.931 . S
C197 C190 1.399 . S
C197 C194 1.487 . S
C197 N229 1.343 . S
C198 C199 1.384 . S
C198 C200 1.384 . S
C198 H220 0.931 . S
C199 C198 1.384 . S
C199 C202 1.382 . S
C200 C198 1.384 . S
C200 C201 1.381 . S
C200 H221 0.930 . S
C201 C200 1.381 . S
C201 C203 1.381 . S
C201 C204 1.487 . S
C202 C199 1.382 . S
C202 C203 1.387 . S
C202 H222 0.930 . S
C203 C201 1.381 . S
C203 C202 1.387 . S
C203 H223 0.931 . S
C204 C201 1.487 . S
C204 C211 1.399 . S
C204 N229 1.343 . S
C205 C206 1.384 . S
C205 C207 1.384 . S
C205 H224 0.931 . S
C206 C205 1.384 . S
C206 C209 1.382 . S
C207 C205 1.384 . S
C207 C208 1.381 . S
C207 H225 0.930 . S
C208 C207 1.381 . S
C208 C210 1.381 . S
C208 C211 1.487 . S
C209 C206 1.382 . S
C209 C210 1.387 . S
C209 H226 0.930 . S
C210 C208 1.381 . S
C210 C209 1.387 . S
C210 H227 0.931 . S
C211 C204 1.399 . S
C211 C208 1.487 . S
C211 N228 1.343 . S
H212 C184 0.948 . S
H213 C186 0.930 . S
H214 C188 0.930 . S
H215 C189 0.931 . S
H216 C191 0.931 . S
H217 C193 0.930 . S
H218 C195 0.930 . S
H219 C196 0.931 . S
H220 C198 0.931 . S
H221 C200 0.930 . S
H222 C202 0.930 . S
H223 C203 0.931 . S
H224 C205 0.931 . S
H225 C207 0.930 . S
H226 C209 0.930 . S
H227 C210 0.931 . S
N228 C190 1.343 . S
N228 C211 1.343 . S
N229 C197 1.343 . S
N229 C204 1.343 . S
C230 C231 1.384 . S
C230 C232 1.384 . S
C230 H258 0.931 . S
C231 C230 1.384 . S
C231 C234 1.382 . S
C232 C230 1.384 . S
C232 C233 1.381 . S
C232 H259 0.930 . S
C233 C232 1.381 . S
C233 C235 1.381 . S
C233 C236 1.487 . S
C234 C231 1.382 . S
C234 C235 1.387 . S
C234 H260 0.930 . S
C235 C233 1.381 . S
C235 C234 1.387 . S
C235 H261 0.931 . S
C236 C233 1.487 . S
C236 C243 1.399 . S
C236 N274 1.343 . S
C237 C238 1.384 . S
C237 C239 1.384 . S
C237 H262 0.948 . S
C238 C237 1.384 . S
C238 C241 1.382 . S
C239 C237 1.384 . S
C239 C240 1.381 . S
C239 H263 0.930 . S
C240 C239 1.381 . S
C240 C242 1.381 . S
C240 C243 1.487 . S
C241 C238 1.382 . S
C241 C242 1.387 . S
C241 H264 0.930 . S
C242 C240 1.381 . S
C242 C241 1.387 . S
C242 H265 0.931 . S
C243 C236 1.399 . S
C243 C240 1.487 . S
C243 N275 1.343 . S
C244 C245 1.384 . S
C244 C246 1.384 . S
C244 H266 0.931 . S
C245 C244 1.384 . S
C245 C248 1.382 . S
C246 C244 1.384 . S
C246 C247 1.381 . S
C246 H267 0.930 . S
C247 C246 1.381 . S
C247 C249 1.381 . S
C247 C250 1.487 . S
C248 C245 1.382 . S
C248 C249 1.387 . S
C248 H268 0.930 . S
C249 C247 1.381 . S
C249 C248 1.387 . S
C249 H269 0.931 . S
C250 C247 1.487 . S
C250 C257 1.399 . S
C250 N275 1.343 . S
C251 C252 1.384 . S
C251 C253 1.384 . S
C251 H270 0.931 . S
C252 C251 1.384 . S
C252 C255 1.382 . S
C253 C251 1.384 . S
C253 C254 1.381 . S
C253 H271 0.930 . S
C254 C253 1.381 . S
C254 C256 1.381 . S
C254 C257 1.487 . S
C255 C252 1.382 . S
C255 C256 1.387 . S
C255 H272 0.930 . S
C256 C254 1.381 . S
C256 C255 1.387 . S
C256 H273 0.931 . S
C257 C250 1.399 . S
C257 C254 1.487 . S
C257 N274 1.343 . S
H258 C230 0.931 . S
H259 C232 0.930 . S
H260 C234 0.930 . S
H261 C235 0.931 . S
H262 C237 0.948 . S
H263 C239 0.930 . S
H264 C241 0.930 . S
H265 C242 0.931 . S
H266 C244 0.931 . S
H267 C246 0.930 . S
H268 C248 0.930 . S
H269 C249 0.931 . S
H270 C251 0.931 . S
H271 C253 0.930 . S
H272 C255 0.930 . S
H273 C256 0.931 . S
N274 C236 1.343 . S
N274 C257 1.343 . S
N275 C243 1.343 . S
N275 C250 1.343 . S
C276 C277 1.384 . S
C276 C278 1.384 . S
C276 H304 0.931 . S
C277 C276 1.384 . S
C277 C280 1.382 . S
C278 C276 1.384 . S
C278 C279 1.381 . S
C278 H305 0.930 . S
C279 C278 1.381 . S
C279 C281 1.381 . S
C279 C282 1.487 . S
C280 C277 1.382 . S
C280 C281 1.387 . S
C280 H306 0.930 . S
C281 C279 1.381 . S
C281 C280 1.387 . S
C281 H307 0.931 . S
C282 C279 1.487 . S
C282 C289 1.399 1_556 S
C282 N320 1.343 . S
C283 C284 1.384 . S
C283 C285 1.384 . S
C283 H308 0.931 . S
C284 C283 1.384 . S
C284 C287 1.382 . S
C285 C283 1.384 . S
C285 C286 1.381 . S
C285 H309 0.930 . S
C286 C285 1.381 . S
C286 C288 1.381 . S
C286 C289 1.487 . S
C287 C284 1.382 . S
C287 C288 1.387 . S
C287 H310 0.930 . S
C288 C286 1.381 . S
C288 C287 1.387 . S
C288 H311 0.931 . S
C289 C282 1.399 1_554 S
C289 C286 1.487 . S
C289 N321 1.343 . S
C290 C291 1.384 . S
C290 C292 1.384 . S
C290 H312 0.931 . S
C291 C290 1.384 . S
C291 C294 1.382 . S
C292 C290 1.384 . S
C292 C293 1.381 . S
C292 H313 0.930 . S
C293 C292 1.381 . S
C293 C295 1.381 . S
C293 C296 1.487 . S
C294 C291 1.382 . S
C294 C295 1.387 . S
C294 H314 0.930 . S
C295 C293 1.381 . S
C295 C294 1.387 . S
C295 H315 0.931 . S
C296 C293 1.487 . S
C296 C303 1.399 1_554 S
C296 N321 1.343 . S
C297 C298 1.384 . S
C297 C299 1.384 . S
C297 H316 0.931 . S
C298 C297 1.384 . S
C298 C301 1.382 . S
C299 C297 1.384 . S
C299 C300 1.381 . S
C299 H317 0.930 . S
C300 C299 1.381 . S
C300 C302 1.381 . S
C300 C303 1.487 . S
C301 C298 1.382 . S
C301 C302 1.387 . S
C301 H318 0.930 . S
C302 C300 1.381 . S
C302 C301 1.387 . S
C302 H319 0.931 . S
C303 C296 1.399 1_556 S
C303 C300 1.487 . S
C303 N320 1.343 . S
H304 C276 0.931 . S
H305 C278 0.930 . S
H306 C280 0.930 . S
H307 C281 0.931 . S
H308 C283 0.931 . S
H309 C285 0.930 . S
H310 C287 0.930 . S
H311 C288 0.931 . S
H312 C290 0.931 . S
H313 C292 0.930 . S
H314 C294 0.930 . S
H315 C295 0.931 . S
H316 C297 0.931 . S
H317 C299 0.930 . S
H318 C301 0.930 . S
H319 C302 0.931 . S
N320 C282 1.343 . S
N320 C303 1.343 . S
N321 C289 1.343 . S
N321 C296 1.343 . S
C322 C323 1.384 . S
C322 C324 1.384 1_655 S
C322 H350 0.931 . S
C323 C322 1.384 . S
C323 C326 1.382 1_655 S
C324 C322 1.384 1_455 S
C324 C325 1.381 . S
C324 H351 0.930 . S
C325 C324 1.381 . S
C325 C327 1.381 . S
C325 C328 1.487 . S
C326 C323 1.382 1_455 S
C326 C327 1.387 . S
C326 H352 0.930 . S
C327 C325 1.381 . S
C327 C326 1.387 . S
C327 H353 0.931 . S
C328 C325 1.487 . S
C328 C335 1.399 . S
C328 N366 1.343 . S
C329 C330 1.384 . S
C329 C331 1.384 1_655 S
C329 H354 0.931 . S
C330 C329 1.384 . S
C330 C333 1.382 1_655 S
C331 C329 1.384 1_455 S
C331 C332 1.381 . S
C331 H355 0.930 . S
C332 C331 1.381 . S
C332 C334 1.381 . S
C332 C335 1.487 . S
C333 C330 1.382 1_455 S
C333 C334 1.387 . S
C333 H356 0.930 . S
C334 C332 1.381 . S
C334 C333 1.387 . S
C334 H357 0.931 . S
C335 C328 1.399 . S
C335 C332 1.487 . S
C335 N367 1.343 . S
C336 C337 1.384 . S
C336 C338 1.384 . S
C336 H358 0.931 . S
C337 C336 1.384 . S
C337 C340 1.382 . S
C338 C336 1.384 . S
C338 C339 1.381 . S
C338 H359 0.930 . S
C339 C338 1.381 . S
C339 C341 1.381 . S
C339 C342 1.487 . S
C340 C337 1.382 . S
C340 C341 1.387 . S
C340 H360 0.930 . S
C341 C339 1.381 . S
C341 C340 1.387 . S
C341 H361 0.931 . S
C342 C339 1.487 . S
C342 C349 1.399 . S
C342 N367 1.343 . S
C343 C344 1.384 . S
C343 C345 1.384 . S
C343 H362 0.931 . S
C344 C343 1.384 . S
C344 C347 1.382 . S
C345 C343 1.384 . S
C345 C346 1.381 . S
C345 H363 0.930 . S
C346 C345 1.381 . S
C346 C348 1.381 . S
C346 C349 1.487 . S
C347 C344 1.382 . S
C347 C348 1.387 . S
C347 H364 0.930 . S
C348 C346 1.381 . S
C348 C347 1.387 . S
C348 H365 0.931 . S
C349 C342 1.399 . S
C349 C346 1.487 . S
C349 N366 1.343 . S
H350 C322 0.931 . S
H351 C324 0.930 . S
H352 C326 0.930 . S
H353 C327 0.931 . S
H354 C329 0.931 . S
H355 C331 0.930 . S
H356 C333 0.930 . S
H357 C334 0.931 . S
H358 C336 0.931 . S
H359 C338 0.930 . S
H360 C340 0.930 . S
H361 C341 0.931 . S
H362 C343 0.931 . S
H363 C345 0.930 . S
H364 C347 0.930 . S
H365 C348 0.931 . S
N366 C328 1.343 . S
N366 C349 1.343 . S
N367 C335 1.343 . S
N367 C342 1.343 . S
C368 O395 1.312 . S
C368 O396 1.208 . S
C369 O390 1.331 1_655 S
C369 O393 1.244 . S
C370 O392 1.264 1_655 S
C370 O394 1.273 . S
Mg371 O373 1.936 . S
Mg371 O380 2.081 . S
Mg371 O382 2.023 . S
Mg371 O386 2.031 . S
Mg371 O395 2.291 . S
Mg372 O373 1.963 . S
Mg372 O383 1.942 . S
Mg372 O384 1.955 . S
Mg372 O391 1.986 . S
O373 Mg371 1.936 . S
O373 Mg372 1.963 . S
O373 Mg374 1.915 . S
Mg374 O373 1.915 . S
Mg374 O375 1.915 . S
Mg374 O379 2.013 . S
Mg374 O385 2.114 . S
Mg374 O389 2.013 . S
Mg374 O395 2.114 . S
O375 Mg374 1.915 . S
O375 Mg376 1.936 . S
O375 Mg377 1.963 1_455 S
Mg376 O375 1.936 . S
Mg376 O385 2.291 . S
Mg376 O390 2.081 . S
Mg376 O392 2.023 . S
Mg376 O396 2.031 . S
Mg377 O375 1.963 1_655 S
Mg377 O381 1.986 . S
Mg377 O393 1.942 . S
Mg377 O394 1.955 . S
C378 O389 1.191 . S
C378 O391 1.307 . S
O379 Mg374 2.013 . S
O379 C398 1.191 . S
O380 Mg371 2.081 . S
O380 C388 1.331 . S
O381 Mg377 1.986 . S
O381 C398 1.307 1_655 S
O382 Mg371 2.023 . S
O382 C397 1.264 . S
O383 Mg372 1.942 . S
O383 C388 1.244 . S
O384 Mg372 1.955 . S
O384 C397 1.273 . S
O385 Mg374 2.114 . S
O385 Mg376 2.291 . S
O385 C387 1.312 . S
O386 Mg371 2.031 . S
O386 C387 1.208 . S
C387 O385 1.312 . S
C387 O386 1.208 . S
C388 O380 1.331 . S
C388 O383 1.244 . S
O389 Mg374 2.013 . S
O389 C378 1.191 . S
O390 C369 1.331 1_455 S
O390 Mg376 2.081 . S
O391 Mg372 1.986 . S
O391 C378 1.307 . S
O392 C370 1.264 1_455 S
O392 Mg376 2.023 . S
O393 C369 1.244 . S
O393 Mg377 1.942 . S
O394 C370 1.273 . S
O394 Mg377 1.955 . S
O395 C368 1.312 . S
O395 Mg371 2.291 . S
O395 Mg374 2.114 . S
O396 C368 1.208 . S
O396 Mg376 2.031 . S
C397 O382 1.264 . S
C397 O384 1.273 . S
C398 O379 1.191 . S
C398 O381 1.307 1_455 S
C399 O426 1.312 . S
C399 O427 1.208 . S
C400 O421 1.331 . S
C400 O424 1.244 . S
C401 O423 1.264 . S
C401 O425 1.273 . S
Mg402 O404 1.936 . S
Mg402 O411 2.081 . S
Mg402 O413 2.023 . S
Mg402 O417 2.031 . S
Mg402 O426 2.291 . S
Mg403 O404 1.963 . S
Mg403 O414 1.942 . S
Mg403 O415 1.955 . S
Mg403 O422 1.986 . S
O404 Mg402 1.936 . S
O404 Mg403 1.963 . S
O404 Mg405 1.915 . S
Mg405 O404 1.915 . S
Mg405 O406 1.915 . S
Mg405 O410 2.013 . S
Mg405 O416 2.114 . S
Mg405 O420 2.013 . S
Mg405 O426 2.114 . S
O406 Mg405 1.915 . S
O406 Mg407 1.936 . S
O406 Mg408 1.963 . S
Mg407 O406 1.936 . S
Mg407 O416 2.291 . S
Mg407 O421 2.081 . S
Mg407 O423 2.023 . S
Mg407 O427 2.031 . S
Mg408 O406 1.963 . S
Mg408 O412 1.986 . S
Mg408 O424 1.942 . S
Mg408 O425 1.955 . S
C409 O420 1.191 . S
C409 O422 1.307 . S
O410 Mg405 2.013 . S
O410 C429 1.191 . S
O411 Mg402 2.081 . S
O411 C419 1.331 . S
O412 Mg408 1.986 . S
O412 C429 1.307 . S
O413 Mg402 2.023 . S
O413 C428 1.264 . S
O414 Mg403 1.942 . S
O414 C419 1.244 . S
O415 Mg403 1.955 . S
O415 C428 1.273 . S
O416 Mg405 2.114 . S
O416 Mg407 2.291 . S
O416 C418 1.312 . S
O417 Mg402 2.031 . S
O417 C418 1.208 . S
C418 O416 1.312 . S
C418 O417 1.208 . S
C419 O411 1.331 . S
C419 O414 1.244 . S
O420 Mg405 2.013 . S
O420 C409 1.191 . S
O421 C400 1.331 . S
O421 Mg407 2.081 . S
O422 Mg403 1.986 . S
O422 C409 1.307 . S
O423 C401 1.264 . S
O423 Mg407 2.023 . S
O424 C400 1.244 . S
O424 Mg408 1.942 . S
O425 C401 1.273 . S
O425 Mg408 1.955 . S
O426 C399 1.312 . S
O426 Mg402 2.291 . S
O426 Mg405 2.114 . S
O427 C399 1.208 . S
O427 Mg407 2.031 . S
C428 O413 1.264 . S
C428 O415 1.273 . S
C429 O410 1.191 . S
C429 O412 1.307 . S
C430 O457 1.312 . S
C430 O458 1.208 . S
C431 O452 1.331 . S
C431 O455 1.244 . S
C432 O454 1.264 . S
C432 O456 1.273 . S
Mg433 O435 1.936 . S
Mg433 O442 2.081 . S
Mg433 O444 2.023 . S
Mg433 O448 2.031 . S
Mg433 O457 2.291 . S
Mg434 O435 1.963 . S
Mg434 O445 1.942 . S
Mg434 O446 1.955 . S
Mg434 O453 1.986 . S
O435 Mg433 1.936 . S
O435 Mg434 1.963 . S
O435 Mg436 1.915 . S
Mg436 O435 1.915 . S
Mg436 O437 1.915 . S
Mg436 O441 2.013 . S
Mg436 O447 2.114 . S
Mg436 O451 2.013 . S
Mg436 O457 2.114 . S
O437 Mg436 1.915 . S
O437 Mg438 1.936 . S
O437 Mg439 1.963 . S
Mg438 O437 1.936 . S
Mg438 O447 2.291 . S
Mg438 O452 2.081 . S
Mg438 O454 2.023 . S
Mg438 O458 2.031 . S
Mg439 O437 1.963 . S
Mg439 O443 1.986 . S
Mg439 O455 1.942 . S
Mg439 O456 1.955 . S
C440 O451 1.191 . S
C440 O453 1.307 . S
O441 Mg436 2.013 . S
O441 C460 1.191 . S
O442 Mg433 2.081 . S
O442 C450 1.331 . S
O443 Mg439 1.986 . S
O443 C460 1.307 . S
O444 Mg433 2.023 . S
O444 C459 1.264 . S
O445 Mg434 1.942 . S
O445 C450 1.244 . S
O446 Mg434 1.955 . S
O446 C459 1.273 . S
O447 Mg436 2.114 . S
O447 Mg438 2.291 . S
O447 C449 1.312 . S
O448 Mg433 2.031 . S
O448 C449 1.208 . S
C449 O447 1.312 . S
C449 O448 1.208 . S
C450 O442 1.331 . S
C450 O445 1.244 . S
O451 Mg436 2.013 . S
O451 C440 1.191 . S
O452 C431 1.331 . S
O452 Mg438 2.081 . S
O453 Mg434 1.986 . S
O453 C440 1.307 . S
O454 C432 1.264 . S
O454 Mg438 2.023 . S
O455 C431 1.244 . S
O455 Mg439 1.942 . S
O456 C432 1.273 . S
O456 Mg439 1.955 . S
O457 C430 1.312 . S
O457 Mg433 2.291 . S
O457 Mg436 2.114 . S
O458 C430 1.208 . S
O458 Mg438 2.031 . S
C459 O444 1.264 . S
C459 O446 1.273 . S
C460 O441 1.191 . S
C460 O443 1.307 . S
C461 O488 1.312 . S
C461 O489 1.208 . S
C462 O483 1.331 . S
C462 O486 1.244 . S
C463 O485 1.264 . S
C463 O487 1.273 . S
Mg464 O466 1.936 . S
Mg464 O473 2.081 . S
Mg464 O475 2.023 . S
Mg464 O479 2.031 . S
Mg464 O488 2.291 . S
Mg465 O466 1.963 1_655 S
Mg465 O476 1.942 . S
Mg465 O477 1.955 . S
Mg465 O484 1.986 . S
O466 Mg464 1.936 . S
O466 Mg465 1.963 1_455 S
O466 Mg467 1.915 . S
Mg467 O466 1.915 . S
Mg467 O468 1.915 . S
Mg467 O472 2.013 . S
Mg467 O478 2.114 . S
Mg467 O482 2.013 . S
Mg467 O488 2.114 . S
O468 Mg467 1.915 . S
O468 Mg469 1.936 . S
O468 Mg470 1.963 . S
Mg469 O468 1.936 . S
Mg469 O478 2.291 . S
Mg469 O483 2.081 . S
Mg469 O485 2.023 . S
Mg469 O489 2.031 . S
Mg470 O468 1.963 . S
Mg470 O474 1.986 . S
Mg470 O486 1.942 . S
Mg470 O487 1.955 . S
C471 O482 1.191 . S
C471 O484 1.307 1_455 S
O472 Mg467 2.013 . S
O472 C491 1.191 . S
O473 Mg464 2.081 . S
O473 C481 1.331 1_455 S
O474 Mg470 1.986 . S
O474 C491 1.307 . S
O475 Mg464 2.023 . S
O475 C490 1.264 1_455 S
O476 Mg465 1.942 . S
O476 C481 1.244 . S
O477 Mg465 1.955 . S
O477 C490 1.273 . S
O478 Mg467 2.114 . S
O478 Mg469 2.291 . S
O478 C480 1.312 . S
O479 Mg464 2.031 . S
O479 C480 1.208 . S
C480 O478 1.312 . S
C480 O479 1.208 . S
C481 O473 1.331 1_655 S
C481 O476 1.244 . S
O482 Mg467 2.013 . S
O482 C471 1.191 . S
O483 C462 1.331 . S
O483 Mg469 2.081 . S
O484 Mg465 1.986 . S
O484 C471 1.307 1_655 S
O485 C463 1.264 . S
O485 Mg469 2.023 . S
O486 C462 1.244 . S
O486 Mg470 1.942 . S
O487 C463 1.273 . S
O487 Mg470 1.955 . S
O488 C461 1.312 . S
O488 Mg464 2.291 . S
O488 Mg467 2.114 . S
O489 C461 1.208 . S
O489 Mg469 2.031 . S
C490 O475 1.264 1_655 S
C490 O477 1.273 . S
C491 O472 1.191 . S
C491 O474 1.307 . S
H492 C504 0.930 . S
H493 C506 0.930 . S
H494 C507 0.930 . S
H495 C511 0.959 . S
H496 C511 0.959 . S
H497 C511 0.961 . S
H498 C512 0.960 . S
H499 C512 0.961 . S
H500 C512 0.959 . S
H501 C515 0.929 . S
H502 C516 0.931 . S
H503 C518 0.930 . S
C504 H492 0.930 . S
C504 C505 1.399 . S
C504 C509 1.399 . S
C505 C504 1.399 . S
C505 C506 1.376 . S
C506 H493 0.930 . S
C506 C505 1.376 . S
C506 C507 1.388 . S
C507 H494 0.930 . S
C507 C506 1.388 . S
C507 C508 1.390 . S
C508 C507 1.390 . S
C508 C509 1.394 . S
C508 C514 1.465 . S
C509 C504 1.399 . S
C509 C508 1.394 . S
C509 C510 1.516 . S
C510 C509 1.516 . S
C510 C511 1.502 . S
C510 C512 1.561 . S
C510 C513 1.526 . S
C511 H495 0.959 . S
C511 H496 0.959 . S
C511 H497 0.961 . S
C511 C510 1.502 . S
C512 H498 0.960 . S
C512 H499 0.961 . S
C512 H500 0.959 . S
C512 C510 1.561 . S
C513 C510 1.526 . S
C513 C514 1.396 . S
C513 C518 1.390 . S
C514 C508 1.465 . S
C514 C513 1.396 . S
C514 C515 1.399 . S
C515 H501 0.929 . S
C515 C514 1.399 . S
C515 C516 1.385 . S
C516 H502 0.931 . S
C516 C515 1.385 . S
C516 C517 1.389 . S
C517 C516 1.389 . S
C517 C518 1.387 . S
C518 H503 0.930 . S
C518 C513 1.390 . S
C518 C517 1.387 . S
H519 C531 0.930 . S
H520 C533 0.930 . S
H521 C534 0.930 . S
H522 C538 0.959 . S
H523 C538 0.959 1_545 S
H524 C538 0.961 . S
H525 C539 0.960 . S
H526 C539 0.961 . S
H527 C539 0.959 . S
H528 C542 0.929 . S
H529 C543 0.931 . S
H530 C545 0.930 . S
C531 H519 0.930 . S
C531 C532 1.399 . S
C531 C536 1.399 . S
C532 C531 1.399 . S
C532 C533 1.376 . S
C533 H520 0.930 . S
C533 C532 1.376 . S
C533 C534 1.388 . S
C534 H521 0.930 . S
C534 C533 1.388 . S
C534 C535 1.390 . S
C535 C534 1.390 . S
C535 C536 1.394 . S
C535 C541 1.465 1_565 S
C536 C531 1.399 . S
C536 C535 1.394 . S
C536 C537 1.516 1_565 S
C537 C536 1.516 1_545 S
C537 C538 1.502 1_545 S
C537 C539 1.561 . S
C537 C540 1.526 . S
C538 H522 0.959 . S
C538 H523 0.959 1_565 S
C538 H524 0.961 . S
C538 C537 1.502 1_565 S
C539 H525 0.960 . S
C539 H526 0.961 . S
C539 H527 0.959 . S
C539 C537 1.561 . S
C540 C537 1.526 . S
C540 C541 1.396 . S
C540 C545 1.390 . S
C541 C535 1.465 1_545 S
C541 C540 1.396 . S
C541 C542 1.399 . S
C542 H528 0.929 . S
C542 C541 1.399 . S
C542 C543 1.385 . S
C543 H529 0.931 . S
C543 C542 1.385 . S
C543 C544 1.389 . S
C544 C543 1.389 . S
C544 C545 1.387 . S
C545 H530 0.930 . S
C545 C540 1.390 . S
C545 C544 1.387 . S
H546 C558 0.930 . S
H547 C560 0.930 . S
H548 C561 0.930 . S
H549 C565 0.959 . S
H550 C565 0.959 . S
H551 C565 0.961 . S
H552 C566 0.960 . S
H553 C566 0.961 . S
H554 C566 0.959 . S
H555 C569 0.929 . S
H556 C570 0.931 . S
H557 C572 0.930 . S
C558 H546 0.930 . S
C558 C559 1.399 . S
C558 C563 1.399 . S
C559 C558 1.399 . S
C559 C560 1.376 . S
C560 H547 0.930 . S
C560 C559 1.376 . S
C560 C561 1.388 . S
C561 H548 0.930 . S
C561 C560 1.388 . S
C561 C562 1.390 . S
C562 C561 1.390 . S
C562 C563 1.394 . S
C562 C568 1.465 . S
C563 C558 1.399 . S
C563 C562 1.394 . S
C563 C564 1.516 . S
C564 C563 1.516 . S
C564 C565 1.502 . S
C564 C566 1.561 . S
C564 C567 1.526 . S
C565 H549 0.959 . S
C565 H550 0.959 . S
C565 H551 0.961 . S
C565 C564 1.502 . S
C566 H552 0.960 . S
C566 H553 0.961 . S
C566 H554 0.959 . S
C566 C564 1.561 . S
C567 C564 1.526 . S
C567 C568 1.396 . S
C567 C572 1.390 . S
C568 C562 1.465 . S
C568 C567 1.396 . S
C568 C569 1.399 . S
C569 H555 0.929 . S
C569 C568 1.399 . S
C569 C570 1.385 . S
C570 H556 0.931 . S
C570 C569 1.385 . S
C570 C571 1.389 . S
C571 C570 1.389 . S
C571 C572 1.387 . S
C572 H557 0.930 . S
C572 C567 1.390 . S
C572 C571 1.387 . S
H573 C585 0.930 . S
H574 C587 0.930 . S
H575 C588 0.930 1_565 S
H576 C592 0.959 . S
H577 C592 0.959 . S
H578 C592 0.961 . S
H579 C593 0.960 . S
H580 C593 0.961 . S
H581 C593 0.959 . S
H582 C596 0.929 . S
H583 C597 0.931 . S
H584 C599 0.930 . S
C585 H573 0.930 . S
C585 C586 1.399 . S
C585 C590 1.399 . S
C586 C585 1.399 . S
C586 C587 1.376 . S
C587 H574 0.930 . S
C587 C586 1.376 . S
C587 C588 1.388 . S
C588 H575 0.930 1_545 S
C588 C587 1.388 . S
C588 C589 1.390 . S
C589 C588 1.390 . S
C589 C590 1.394 . S
C589 C595 1.465 1_545 S
C590 C585 1.399 . S
C590 C589 1.394 . S
C590 C591 1.516 . S
C591 C590 1.516 . S
C591 C592 1.502 . S
C591 C593 1.561 . S
C591 C594 1.526 1_545 S
C592 H576 0.959 . S
C592 H577 0.959 . S
C592 H578 0.961 . S
C592 C591 1.502 . S
C593 H579 0.960 . S
C593 H580 0.961 . S
C593 H581 0.959 . S
C593 C591 1.561 . S
C594 C591 1.526 1_565 S
C594 C595 1.396 . S
C594 C599 1.390 . S
C595 C589 1.465 1_565 S
C595 C594 1.396 . S
C595 C596 1.399 . S
C596 H582 0.929 . S
C596 C595 1.399 . S
C596 C597 1.385 . S
C597 H583 0.931 . S
C597 C596 1.385 . S
C597 C598 1.389 . S
C598 C597 1.389 . S
C598 C599 1.387 . S
C599 H584 0.930 . S
C599 C594 1.390 . S
C599 C598 1.387 . S
H600 C612 0.930 . S
H601 C614 0.930 . S
H602 C615 0.930 . S
H603 C619 0.959 . S
H604 C619 0.959 . S
H605 C619 0.961 . S
H606 C620 0.960 1_565 S
H607 C620 0.961 . S
H608 C620 0.959 . S
H609 C623 0.929 . S
H610 C624 0.931 . S
H611 C626 0.930 . S
C612 H600 0.930 . S
C612 C613 1.399 . S
C612 C617 1.399 . S
C613 C612 1.399 . S
C613 C614 1.376 . S
C614 H601 0.930 . S
C614 C613 1.376 . S
C614 C615 1.388 . S
C615 H602 0.930 . S
C615 C614 1.388 . S
C615 C616 1.390 . S
C616 C615 1.390 . S
C616 C617 1.394 . S
C616 C622 1.465 . S
C617 C612 1.399 . S
C617 C616 1.394 . S
C617 C618 1.516 . S
C618 C617 1.516 . S
C618 C619 1.502 . S
C618 C620 1.561 . S
C618 C621 1.526 . S
C619 H603 0.959 . S
C619 H604 0.959 . S
C619 H605 0.961 . S
C619 C618 1.502 . S
C620 H606 0.960 1_545 S
C620 H607 0.961 . S
C620 H608 0.959 . S
C620 C618 1.561 . S
C621 C618 1.526 . S
C621 C622 1.396 . S
C621 C626 1.390 . S
C622 C616 1.465 . S
C622 C621 1.396 . S
C622 C623 1.399 . S
C623 H609 0.929 . S
C623 C622 1.399 . S
C623 C624 1.385 . S
C624 H610 0.931 . S
C624 C623 1.385 . S
C624 C625 1.389 . S
C625 C624 1.389 . S
C625 C626 1.387 . S
C626 H611 0.930 . S
C626 C621 1.390 . S
C626 C625 1.387 . S
H627 C639 0.930 . S
H628 C641 0.930 . S
H629 C642 0.930 . S
H630 C646 0.959 . S
H631 C646 0.959 . S
H632 C646 0.961 . S
H633 C647 0.960 . S
H634 C647 0.961 . S
H635 C647 0.959 . S
H636 C650 0.929 1_565 S
H637 C651 0.931 . S
H638 C653 0.930 . S
C639 H627 0.930 . S
C639 C640 1.399 . S
C639 C644 1.399 . S
C640 C639 1.399 . S
C640 C641 1.376 . S
C641 H628 0.930 . S
C641 C640 1.376 . S
C641 C642 1.388 . S
C642 H629 0.930 . S
C642 C641 1.388 . S
C642 C643 1.390 . S
C643 C642 1.390 . S
C643 C644 1.394 . S
C643 C649 1.465 1_565 S
C644 C639 1.399 . S
C644 C643 1.394 . S
C644 C645 1.516 1_565 S
C645 C644 1.516 1_545 S
C645 C646 1.502 . S
C645 C647 1.561 . S
C645 C648 1.526 . S
C646 H630 0.959 . S
C646 H631 0.959 . S
C646 H632 0.961 . S
C646 C645 1.502 . S
C647 H633 0.960 . S
C647 H634 0.961 . S
C647 H635 0.959 . S
C647 C645 1.561 . S
C648 C645 1.526 . S
C648 C649 1.396 . S
C648 C653 1.390 . S
C649 C643 1.465 1_545 S
C649 C648 1.396 . S
C649 C650 1.399 . S
C650 H636 0.929 1_545 S
C650 C649 1.399 . S
C650 C651 1.385 . S
C651 H637 0.931 . S
C651 C650 1.385 . S
C651 C652 1.389 . S
C652 C651 1.389 . S
C652 C653 1.387 . S
C653 H638 0.930 . S
C653 C648 1.390 . S
C653 C652 1.387 . S
H654 C666 0.930 . S
H655 C668 0.930 . S
H656 C669 0.930 . S
H657 C673 0.959 . S
H658 C673 0.959 . S
H659 C673 0.961 . S
H660 C674 0.960 . S
H661 C674 0.961 . S
H662 C674 0.959 . S
H663 C677 0.929 . S
H664 C678 0.931 . S
H665 C680 0.930 . S
C666 H654 0.930 . S
C666 C667 1.399 . S
C666 C671 1.399 . S
C667 C666 1.399 . S
C667 C668 1.376 . S
C668 H655 0.930 . S
C668 C667 1.376 . S
C668 C669 1.388 . S
C669 H656 0.930 . S
C669 C668 1.388 . S
C669 C670 1.390 . S
C670 C669 1.390 . S
C670 C671 1.394 . S
C670 C676 1.465 . S
C671 C666 1.399 . S
C671 C670 1.394 . S
C671 C672 1.516 . S
C672 C671 1.516 . S
C672 C673 1.502 . S
C672 C674 1.561 . S
C672 C675 1.526 . S
C673 H657 0.959 . S
C673 H658 0.959 . S
C673 H659 0.961 . S
C673 C672 1.502 . S
C674 H660 0.960 . S
C674 H661 0.961 . S
C674 H662 0.959 . S
C674 C672 1.561 . S
C675 C672 1.526 . S
C675 C676 1.396 . S
C675 C680 1.390 . S
C676 C670 1.465 . S
C676 C675 1.396 . S
C676 C677 1.399 . S
C677 H663 0.929 . S
C677 C676 1.399 . S
C677 C678 1.385 . S
C678 H664 0.931 . S
C678 C677 1.385 . S
C678 C679 1.389 . S
C679 C678 1.389 . S
C679 C680 1.387 . S
C680 H665 0.930 . S
C680 C675 1.390 . S
C680 C679 1.387 . S
H681 C693 0.930 . S
H682 C695 0.930 . S
H683 C696 0.930 . S
H684 C700 0.959 . S
H685 C700 0.959 . S
H686 C700 0.961 . S
H687 C701 0.960 . S
H688 C701 0.961 . S
H689 C701 0.959 . S
H690 C704 0.929 1_545 S
H691 C705 0.931 . S
H692 C707 0.930 . S
C693 H681 0.930 . S
C693 C694 1.399 . S
C693 C698 1.399 . S
C694 C693 1.399 . S
C694 C695 1.376 . S
C695 H682 0.930 . S
C695 C694 1.376 . S
C695 C696 1.388 . S
C696 H683 0.930 . S
C696 C695 1.388 . S
C696 C697 1.390 . S
C697 C696 1.390 . S
C697 C698 1.394 . S
C697 C703 1.465 1_545 S
C698 C693 1.399 . S
C698 C697 1.394 . S
C698 C699 1.516 1_545 S
C699 C698 1.516 1_565 S
C699 C700 1.502 . S
C699 C701 1.561 . S
C699 C702 1.526 . S
C700 H684 0.959 . S
C700 H685 0.959 . S
C700 H686 0.961 . S
C700 C699 1.502 . S
C701 H687 0.960 . S
C701 H688 0.961 . S
C701 H689 0.959 . S
C701 C699 1.561 . S
C702 C699 1.526 . S
C702 C703 1.396 . S
C702 C707 1.390 . S
C703 C697 1.465 1_565 S
C703 C702 1.396 . S
C703 C704 1.399 . S
C704 H690 0.929 1_565 S
C704 C703 1.399 . S
C704 C705 1.385 . S
C705 H691 0.931 . S
C705 C704 1.385 . S
C705 C706 1.389 . S
C706 C705 1.389 . S
C706 C707 1.387 . S
C707 H692 0.930 . S
C707 C702 1.390 . S
C707 C706 1.387 . S
H708 C720 0.930 . S
H709 C722 0.930 . S
H710 C723 0.930 . S
H711 C727 0.959 . S
H712 C727 0.959 . S
H713 C727 0.961 . S
H714 C728 0.960 . S
H715 C728 0.961 . S
H716 C728 0.959 . S
H717 C731 0.929 . S
H718 C732 0.931 . S
H719 C734 0.930 . S
C720 H708 0.930 . S
C720 C721 1.399 . S
C720 C725 1.399 . S
C721 C720 1.399 . S
C721 C722 1.376 . S
C722 H709 0.930 . S
C722 C721 1.376 . S
C722 C723 1.388 . S
C723 H710 0.930 . S
C723 C722 1.388 . S
C723 C724 1.390 . S
C724 C723 1.390 . S
C724 C725 1.394 . S
C724 C730 1.465 . S
C725 C720 1.399 . S
C725 C724 1.394 . S
C725 C726 1.516 . S
C726 C725 1.516 . S
C726 C727 1.502 . S
C726 C728 1.561 . S
C726 C729 1.526 . S
C727 H711 0.959 . S
C727 H712 0.959 . S
C727 H713 0.961 . S
C727 C726 1.502 . S
C728 H714 0.960 . S
C728 H715 0.961 . S
C728 H716 0.959 . S
C728 C726 1.561 . S
C729 C726 1.526 . S
C729 C730 1.396 . S
C729 C734 1.390 . S
C730 C724 1.465 . S
C730 C729 1.396 . S
C730 C731 1.399 . S
C731 H717 0.929 . S
C731 C730 1.399 . S
C731 C732 1.385 . S
C732 H718 0.931 . S
C732 C731 1.385 . S
C732 C733 1.389 . S
C733 C732 1.389 . S
C733 C734 1.387 . S
C734 H719 0.930 . S
C734 C729 1.390 . S
C734 C733 1.387 . S
H735 C747 0.930 . S
H736 C749 0.930 . S
H737 C750 0.930 . S
H738 C754 0.959 . S
H739 C754 0.959 . S
H740 C754 0.961 . S
H741 C755 0.960 . S
H742 C755 0.961 . S
H743 C755 0.959 . S
H744 C758 0.929 . S
H745 C759 0.931 . S
H746 C761 0.930 . S
C747 H735 0.930 . S
C747 C748 1.399 . S
C747 C752 1.399 . S
C748 C747 1.399 . S
C748 C749 1.376 1_565 S
C749 H736 0.930 . S
C749 C748 1.376 1_545 S
C749 C750 1.388 1_545 S
C750 H737 0.930 . S
C750 C749 1.388 1_565 S
C750 C751 1.390 . S
C751 C750 1.390 . S
C751 C752 1.394 . S
C751 C757 1.465 . S
C752 C747 1.399 . S
C752 C751 1.394 . S
C752 C753 1.516 . S
C753 C752 1.516 . S
C753 C754 1.502 . S
C753 C755 1.561 . S
C753 C756 1.526 . S
C754 H738 0.959 . S
C754 H739 0.959 . S
C754 H740 0.961 . S
C754 C753 1.502 . S
C755 H741 0.960 . S
C755 H742 0.961 . S
C755 H743 0.959 . S
C755 C753 1.561 . S
C756 C753 1.526 . S
C756 C757 1.396 . S
C756 C761 1.390 . S
C757 C751 1.465 . S
C757 C756 1.396 . S
C757 C758 1.399 . S
C758 H744 0.929 . S
C758 C757 1.399 . S
C758 C759 1.385 . S
C759 H745 0.931 . S
C759 C758 1.385 . S
C759 C760 1.389 . S
C760 C759 1.389 . S
C760 C761 1.387 . S
C761 H746 0.930 . S
C761 C756 1.390 . S
C761 C760 1.387 . S
H762 C774 0.930 . S
H763 C776 0.930 . S
H764 C777 0.930 . S
H765 C781 0.959 . S
H766 C781 0.959 . S
H767 C781 0.961 . S
H768 C782 0.960 . S
H769 C782 0.961 . S
H770 C782 0.959 . S
H771 C785 0.929 . S
H772 C786 0.931 . S
H773 C788 0.930 . S
C774 H762 0.930 . S
C774 C775 1.399 . S
C774 C779 1.399 . S
C775 C774 1.399 . S
C775 C776 1.376 . S
C776 H763 0.930 . S
C776 C775 1.376 . S
C776 C777 1.388 . S
C777 H764 0.930 . S
C777 C776 1.388 . S
C777 C778 1.390 . S
C778 C777 1.390 . S
C778 C779 1.394 . S
C778 C784 1.465 . S
C779 C774 1.399 . S
C779 C778 1.394 . S
C779 C780 1.516 . S
C780 C779 1.516 . S
C780 C781 1.502 . S
C780 C782 1.561 . S
C780 C783 1.526 . S
C781 H765 0.959 . S
C781 H766 0.959 . S
C781 H767 0.961 . S
C781 C780 1.502 . S
C782 H768 0.960 . S
C782 H769 0.961 . S
C782 H770 0.959 . S
C782 C780 1.561 . S
C783 C780 1.526 . S
C783 C784 1.396 . S
C783 C788 1.390 . S
C784 C778 1.465 . S
C784 C783 1.396 . S
C784 C785 1.399 1_655 S
C785 H771 0.929 . S
C785 C784 1.399 1_455 S
C785 C786 1.385 . S
C786 H772 0.931 . S
C786 C785 1.385 . S
C786 C787 1.389 . S
C787 C786 1.389 . S
C787 C788 1.387 1_455 S
C788 H773 0.930 . S
C788 C783 1.390 . S
C788 C787 1.387 1_655 S
H789 C801 0.930 1_565 S
H790 C803 0.930 . S
H791 C804 0.930 . S
H792 C808 0.959 . S
H793 C808 0.959 . S
H794 C808 0.961 1_565 S
H795 C809 0.960 1_565 S
H796 C809 0.961 . S
H797 C809 0.959 . S
H798 C812 0.929 . S
H799 C813 0.931 . S
H800 C815 0.930 . S
C801 H789 0.930 1_545 S
C801 C802 1.399 . S
C801 C806 1.399 . S
C802 C801 1.399 . S
C802 C803 1.376 . S
C803 H790 0.930 . S
C803 C802 1.376 . S
C803 C804 1.388 . S
C804 H791 0.930 . S
C804 C803 1.388 . S
C804 C805 1.390 . S
C805 C804 1.390 . S
C805 C806 1.394 . S
C805 C811 1.465 . S
C806 C801 1.399 . S
C806 C805 1.394 . S
C806 C807 1.516 . S
C807 C806 1.516 . S
C807 C808 1.502 . S
C807 C809 1.561 1_655 S
C807 C810 1.526 . S
C808 H792 0.959 . S
C808 H793 0.959 . S
C808 H794 0.961 1_545 S
C808 C807 1.502 . S
C809 H795 0.960 1_545 S
C809 H796 0.961 . S
C809 H797 0.959 . S
C809 C807 1.561 1_455 S
C810 C807 1.526 . S
C810 C811 1.396 . S
C810 C815 1.390 1_655 S
C811 C805 1.465 . S
C811 C810 1.396 . S
C811 C812 1.399 . S
C812 H798 0.929 . S
C812 C811 1.399 . S
C812 C813 1.385 . S
C813 H799 0.931 . S
C813 C812 1.385 . S
C813 C814 1.389 1_655 S
C814 C813 1.389 1_455 S
C814 C815 1.387 . S
C815 H800 0.930 . S
C815 C810 1.390 1_455 S
C815 C814 1.387 . S
H816 C828 0.930 . S
H817 C830 0.930 . S
H818 C831 0.930 . S
H819 C835 0.959 . S
H820 C835 0.959 . S
H821 C835 0.961 . S
H822 C836 0.960 . S
H823 C836 0.961 . S
H824 C836 0.959 . S
H825 C839 0.929 . S
H826 C840 0.931 . S
H827 C842 0.930 . S
C828 H816 0.930 . S
C828 C829 1.399 . S
C828 C833 1.399 . S
C829 C828 1.399 . S
C829 C830 1.376 . S
C830 H817 0.930 . S
C830 C829 1.376 . S
C830 C831 1.388 . S
C831 H818 0.930 . S
C831 C830 1.388 . S
C831 C832 1.390 . S
C832 C831 1.390 . S
C832 C833 1.394 . S
C832 C838 1.465 . S
C833 C828 1.399 . S
C833 C832 1.394 . S
C833 C834 1.516 . S
C834 C833 1.516 . S
C834 C835 1.502 . S
C834 C836 1.561 . S
C834 C837 1.526 . S
C835 H819 0.959 . S
C835 H820 0.959 . S
C835 H821 0.961 . S
C835 C834 1.502 . S
C836 H822 0.960 . S
C836 H823 0.961 . S
C836 H824 0.959 . S
C836 C834 1.561 . S
C837 C834 1.526 . S
C837 C838 1.396 . S
C837 C842 1.390 . S
C838 C832 1.465 . S
C838 C837 1.396 . S
C838 C839 1.399 . S
C839 H825 0.929 . S
C839 C838 1.399 . S
C839 C840 1.385 . S
C840 H826 0.931 . S
C840 C839 1.385 . S
C840 C841 1.389 . S
C841 C840 1.389 . S
C841 C842 1.387 . S
C842 H827 0.930 . S
C842 C837 1.390 . S
C842 C841 1.387 . S
H843 C855 0.930 1_545 S
H844 C857 0.930 . S
H845 C858 0.930 . S
H846 C862 0.959 . S
H847 C862 0.959 . S
H848 C862 0.961 1_545 S
H849 C863 0.960 1_545 S
H850 C863 0.961 . S
H851 C863 0.959 . S
H852 C866 0.929 . S
H853 C867 0.931 . S
H854 C869 0.930 . S
C855 H843 0.930 1_565 S
C855 C856 1.399 . S
C855 C860 1.399 . S
C856 C855 1.399 . S
C856 C857 1.376 . S
C857 H844 0.930 . S
C857 C856 1.376 . S
C857 C858 1.388 . S
C858 H845 0.930 . S
C858 C857 1.388 . S
C858 C859 1.390 . S
C859 C858 1.390 . S
C859 C860 1.394 . S
C859 C865 1.465 . S
C860 C855 1.399 . S
C860 C859 1.394 . S
C860 C861 1.516 . S
C861 C860 1.516 . S
C861 C862 1.502 . S
C861 C863 1.561 1_655 S
C861 C864 1.526 . S
C862 H846 0.959 . S
C862 H847 0.959 . S
C862 H848 0.961 1_565 S
C862 C861 1.502 . S
C863 H849 0.960 1_565 S
C863 H850 0.961 . S
C863 H851 0.959 . S
C863 C861 1.561 1_455 S
C864 C861 1.526 . S
C864 C865 1.396 . S
C864 C869 1.390 1_655 S
C865 C859 1.465 . S
C865 C864 1.396 . S
C865 C866 1.399 . S
C866 H852 0.929 . S
C866 C865 1.399 . S
C866 C867 1.385 . S
C867 H853 0.931 . S
C867 C866 1.385 . S
C867 C868 1.389 1_655 S
C868 C867 1.389 1_455 S
C868 C869 1.387 . S
C869 H854 0.930 . S
C869 C864 1.390 1_455 S
C869 C868 1.387 . S
H870 C882 0.930 . S
H871 C884 0.930 . S
H872 C885 0.930 . S
H873 C889 0.959 . S
H874 C889 0.959 . S
H875 C889 0.961 . S
H876 C890 0.960 . S
H877 C890 0.961 . S
H878 C890 0.959 . S
H879 C893 0.929 . S
H880 C894 0.931 . S
H881 C896 0.930 . S
C882 H870 0.930 . S
C882 C883 1.399 . S
C882 C887 1.399 . S
C883 C882 1.399 . S
C883 C884 1.376 . S
C884 H871 0.930 . S
C884 C883 1.376 . S
C884 C885 1.388 . S
C885 H872 0.930 . S
C885 C884 1.388 . S
C885 C886 1.390 . S
C886 C885 1.390 . S
C886 C887 1.394 . S
C886 C892 1.465 . S
C887 C882 1.399 . S
C887 C886 1.394 . S
C887 C888 1.516 . S
C888 C887 1.516 . S
C888 C889 1.502 . S
C888 C890 1.561 . S
C888 C891 1.526 . S
C889 H873 0.959 . S
C889 H874 0.959 . S
C889 H875 0.961 . S
C889 C888 1.502 . S
C890 H876 0.960 . S
C890 H877 0.961 . S
C890 H878 0.959 . S
C890 C888 1.561 . S
C891 C888 1.526 . S
C891 C892 1.396 . S
C891 C896 1.390 . S
C892 C886 1.465 . S
C892 C891 1.396 . S
C892 C893 1.399 1_655 S
C893 H879 0.929 . S
C893 C892 1.399 1_455 S
C893 C894 1.385 . S
C894 H880 0.931 . S
C894 C893 1.385 . S
C894 C895 1.389 . S
C895 C894 1.389 . S
C895 C896 1.387 1_455 S
C896 H881 0.930 . S
C896 C891 1.390 . S
C896 C895 1.387 1_655 S
H897 C909 0.930 1_565 S
H898 C911 0.930 . S
H899 C912 0.930 . S
H900 C916 0.959 . S
H901 C916 0.959 . S
H902 C916 0.961 1_565 S
H903 C917 0.960 . S
H904 C917 0.961 . S
H905 C917 0.959 . S
H906 C920 0.929 . S
H907 C921 0.931 . S
H908 C923 0.930 . S
C909 H897 0.930 1_545 S
C909 C910 1.399 . S
C909 C914 1.399 . S
C910 C909 1.399 . S
C910 C911 1.376 . S
C911 H898 0.930 . S
C911 C910 1.376 . S
C911 C912 1.388 . S
C912 H899 0.930 . S
C912 C911 1.388 . S
C912 C913 1.390 . S
C913 C912 1.390 . S
C913 C914 1.394 . S
C913 C919 1.465 . S
C914 C909 1.399 . S
C914 C913 1.394 . S
C914 C915 1.516 . S
C915 C914 1.516 . S
C915 C916 1.502 . S
C915 C917 1.561 . S
C915 C918 1.526 . S
C916 H900 0.959 . S
C916 H901 0.959 . S
C916 H902 0.961 1_545 S
C916 C915 1.502 . S
C917 H903 0.960 . S
C917 H904 0.961 . S
C917 H905 0.959 . S
C917 C915 1.561 . S
C918 C915 1.526 . S
C918 C919 1.396 . S
C918 C923 1.390 . S
C919 C913 1.465 . S
C919 C918 1.396 . S
C919 C920 1.399 . S
C920 H906 0.929 . S
C920 C919 1.399 . S
C920 C921 1.385 . S
C921 H907 0.931 . S
C921 C920 1.385 . S
C921 C922 1.389 . S
C922 C921 1.389 . S
C922 C923 1.387 . S
C923 H908 0.930 . S
C923 C918 1.390 . S
C923 C922 1.387 . S
H924 C936 0.930 . S
H925 C938 0.930 . S
H926 C939 0.930 . S
H927 C943 0.959 . S
H928 C943 0.959 . S
H929 C943 0.961 . S
H930 C944 0.960 . S
H931 C944 0.961 . S
H932 C944 0.959 . S
H933 C947 0.929 . S
H934 C948 0.931 . S
H935 C950 0.930 . S
C936 H924 0.930 . S
C936 C937 1.399 . S
C936 C941 1.399 . S
C937 C936 1.399 . S
C937 C938 1.376 . S
C938 H925 0.930 . S
C938 C937 1.376 . S
C938 C939 1.388 . S
C939 H926 0.930 . S
C939 C938 1.388 . S
C939 C940 1.390 . S
C940 C939 1.390 . S
C940 C941 1.394 . S
C940 C946 1.465 . S
C941 C936 1.399 . S
C941 C940 1.394 . S
C941 C942 1.516 . S
C942 C941 1.516 . S
C942 C943 1.502 . S
C942 C944 1.561 . S
C942 C945 1.526 . S
C943 H927 0.959 . S
C943 H928 0.959 . S
C943 H929 0.961 . S
C943 C942 1.502 . S
C944 H930 0.960 . S
C944 H931 0.961 . S
C944 H932 0.959 . S
C944 C942 1.561 . S
C945 C942 1.526 . S
C945 C946 1.396 . S
C945 C950 1.390 . S
C946 C940 1.465 . S
C946 C945 1.396 . S
C946 C947 1.399 . S
C947 H933 0.929 . S
C947 C946 1.399 . S
C947 C948 1.385 . S
C948 H934 0.931 . S
C948 C947 1.385 . S
C948 C949 1.389 . S
C949 C948 1.389 . S
C949 C950 1.387 . S
C950 H935 0.930 . S
C950 C945 1.390 . S
C950 C949 1.387 . S
H951 C963 0.930 . S
H952 C965 0.930 . S
H953 C966 0.930 1_455 S
H954 C970 0.959 . S
H955 C970 0.959 . S
H956 C970 0.961 . S
H957 C971 0.960 . S
H958 C971 0.961 . S
H959 C971 0.959 . S
H960 C974 0.941 . S
H961 C975 0.931 . S
H962 C977 0.930 . S
C963 H951 0.930 . S
C963 C964 1.399 . S
C963 C968 1.399 . S
C964 C963 1.399 . S
C964 C965 1.376 . S
C965 H952 0.930 . S
C965 C964 1.376 . S
C965 C966 1.388 . S
C966 H953 0.930 1_655 S
C966 C965 1.388 . S
C966 C967 1.390 . S
C967 C966 1.390 . S
C967 C968 1.394 . S
C967 C973 1.465 . S
C968 C963 1.399 . S
C968 C967 1.394 . S
C968 C969 1.516 . S
C969 C968 1.516 . S
C969 C970 1.502 . S
C969 C971 1.561 . S
C969 C972 1.526 . S
C970 H954 0.959 . S
C970 H955 0.959 . S
C970 H956 0.961 . S
C970 C969 1.502 . S
C971 H957 0.960 . S
C971 H958 0.961 . S
C971 H959 0.959 . S
C971 C969 1.561 . S
C972 C969 1.526 . S
C972 C973 1.396 . S
C972 C977 1.390 . S
C973 C967 1.465 . S
C973 C972 1.396 . S
C973 C974 1.387 1_655 S
C974 H960 0.941 . S
C974 C973 1.387 1_455 S
C974 C975 1.386 . S
C975 H961 0.931 . S
C975 C974 1.386 . S
C975 C976 1.389 1_455 S
C976 C975 1.389 1_655 S
C976 C977 1.387 . S
C977 H962 0.930 . S
C977 C972 1.390 . S
C977 C976 1.387 . S
H978 C990 0.930 . S
H979 C992 0.930 . S
H980 C993 0.930 . S
H981 C997 0.959 . S
H982 C997 0.959 . S
H983 C997 0.961 . S
H984 C998 0.960 . S
H985 C998 0.961 . S
H986 C998 0.959 . S
H987 C1001 0.929 . S
H988 C1002 0.931 . S
H989 C1004 0.930 . S
C990 H978 0.930 . S
C990 C991 1.399 . S
C990 C995 1.399 . S
C991 C990 1.399 . S
C991 C992 1.376 . S
C992 H979 0.930 . S
C992 C991 1.376 . S
C992 C993 1.388 . S
C993 H980 0.930 . S
C993 C992 1.388 . S
C993 C994 1.390 . S
C994 C993 1.390 . S
C994 C995 1.394 . S
C994 C1000 1.465 . S
C995 C990 1.399 . S
C995 C994 1.394 . S
C995 C996 1.516 . S
C996 C995 1.516 . S
C996 C997 1.502 . S
C996 C998 1.561 . S
C996 C999 1.526 . S
C997 H981 0.959 . S
C997 H982 0.959 . S
C997 H983 0.961 . S
C997 C996 1.502 . S
C998 H984 0.960 . S
C998 H985 0.961 . S
C998 H986 0.959 . S
C998 C996 1.561 . S
C999 C996 1.526 . S
C999 C1000 1.396 . S
C999 C1004 1.390 . S
C1000 C994 1.465 . S
C1000 C999 1.396 . S
C1000 C1001 1.399 . S
C1001 H987 0.929 . S
C1001 C1000 1.399 . S
C1001 C1002 1.385 . S
C1002 H988 0.931 . S
C1002 C1001 1.385 . S
C1002 C1003 1.389 . S
C1003 C1002 1.389 . S
C1003 C1004 1.387 . S
C1004 H989 0.930 . S
C1004 C999 1.390 . S
C1004 C1003 1.387 . S
H1005 C1017 0.930 . S
H1006 C1019 0.930 . S
H1007 C1020 0.930 . S
H1008 C1024 0.959 . S
H1009 C1024 0.959 . S
H1010 C1024 0.961 . S
H1011 C1025 0.960 . S
H1012 C1025 0.961 . S
H1013 C1025 0.959 . S
H1014 C1028 0.929 . S
H1015 C1029 0.931 . S
H1016 C1031 0.930 . S
C1017 H1005 0.930 . S
C1017 C1018 1.399 . S
C1017 C1022 1.399 . S
C1018 C1017 1.399 . S
C1018 C1019 1.376 . S
C1019 H1006 0.930 . S
C1019 C1018 1.376 . S
C1019 C1020 1.388 . S
C1020 H1007 0.930 . S
C1020 C1019 1.388 . S
C1020 C1021 1.390 . S
C1021 C1020 1.390 . S
C1021 C1022 1.394 . S
C1021 C1027 1.465 . S
C1022 C1017 1.399 . S
C1022 C1021 1.394 . S
C1022 C1023 1.516 . S
C1023 C1022 1.516 . S
C1023 C1024 1.502 . S
C1023 C1025 1.561 . S
C1023 C1026 1.526 . S
C1024 H1008 0.959 . S
C1024 H1009 0.959 . S
C1024 H1010 0.961 . S
C1024 C1023 1.502 . S
C1025 H1011 0.960 . S
C1025 H1012 0.961 . S
C1025 H1013 0.959 . S
C1025 C1023 1.561 . S
C1026 C1023 1.526 . S
C1026 C1027 1.396 . S
C1026 C1031 1.390 . S
C1027 C1021 1.465 . S
C1027 C1026 1.396 . S
C1027 C1028 1.399 . S
C1028 H1014 0.929 . S
C1028 C1027 1.399 . S
C1028 C1029 1.385 . S
C1029 H1015 0.931 . S
C1029 C1028 1.385 . S
C1029 C1030 1.389 . S
C1030 C1029 1.389 . S
C1030 C1031 1.387 . S
C1031 H1016 0.930 . S
C1031 C1026 1.390 . S
C1031 C1030 1.387 . S
H1032 C1044 0.930 . S
H1033 C1046 0.930 . S
H1034 C1047 0.930 . S
H1035 C1051 0.959 . S
H1036 C1051 0.959 . S
H1037 C1051 0.961 . S
H1038 C1052 0.960 . S
H1039 C1052 0.961 . S
H1040 C1052 0.959 . S
H1041 C1055 0.929 . S
H1042 C1056 0.931 . S
H1043 C1058 0.930 . S
C1044 H1032 0.930 . S
C1044 C1045 1.399 . S
C1044 C1049 1.399 . S
C1045 C1044 1.399 . S
C1045 C1046 1.376 . S
C1046 H1033 0.930 . S
C1046 C1045 1.376 . S
C1046 C1047 1.388 . S
C1047 H1034 0.930 . S
C1047 C1046 1.388 . S
C1047 C1048 1.390 . S
C1048 C1047 1.390 . S
C1048 C1049 1.394 . S
C1048 C1054 1.465 . S
C1049 C1044 1.399 . S
C1049 C1048 1.394 . S
C1049 C1050 1.516 . S
C1050 C1049 1.516 . S
C1050 C1051 1.502 . S
C1050 C1052 1.561 . S
C1050 C1053 1.526 . S
C1051 H1035 0.959 . S
C1051 H1036 0.959 . S
C1051 H1037 0.961 . S
C1051 C1050 1.502 . S
C1052 H1038 0.960 . S
C1052 H1039 0.961 . S
C1052 H1040 0.959 . S
C1052 C1050 1.561 . S
C1053 C1050 1.526 . S
C1053 C1054 1.396 . S
C1053 C1058 1.390 . S
C1054 C1048 1.465 . S
C1054 C1053 1.396 . S
C1054 C1055 1.399 . S
C1055 H1041 0.929 . S
C1055 C1054 1.399 . S
C1055 C1056 1.385 . S
C1056 H1042 0.931 . S
C1056 C1055 1.385 . S
C1056 C1057 1.389 . S
C1057 C1056 1.389 . S
C1057 C1058 1.387 . S
C1058 H1043 0.930 . S
C1058 C1053 1.390 . S
C1058 C1057 1.387 . S
H1059 C1071 0.930 . S
H1060 C1073 0.930 . S
H1061 C1074 0.930 . S
H1062 C1078 0.959 . S
H1063 C1078 0.959 . S
H1064 C1078 0.961 . S
H1065 C1079 0.960 . S
H1066 C1079 0.961 . S
H1067 C1079 0.959 . S
H1068 C1082 0.929 . S
H1069 C1083 0.931 . S
H1070 C1085 0.930 . S
C1071 H1059 0.930 . S
C1071 C1072 1.399 . S
C1071 C1076 1.399 . S
C1072 C1071 1.399 . S
C1072 C1073 1.376 . S
C1073 H1060 0.930 . S
C1073 C1072 1.376 . S
C1073 C1074 1.388 . S
C1074 H1061 0.930 . S
C1074 C1073 1.388 . S
C1074 C1075 1.390 . S
C1075 C1074 1.390 . S
C1075 C1076 1.394 . S
C1075 C1081 1.465 . S
C1076 C1071 1.399 . S
C1076 C1075 1.394 . S
C1076 C1077 1.516 . S
C1077 C1076 1.516 . S
C1077 C1078 1.502 . S
C1077 C1079 1.561 . S
C1077 C1080 1.526 . S
C1078 H1062 0.959 . S
C1078 H1063 0.959 . S
C1078 H1064 0.961 . S
C1078 C1077 1.502 . S
C1079 H1065 0.960 . S
C1079 H1066 0.961 . S
C1079 H1067 0.959 . S
C1079 C1077 1.561 . S
C1080 C1077 1.526 . S
C1080 C1081 1.396 . S
C1080 C1085 1.390 . S
C1081 C1075 1.465 . S
C1081 C1080 1.396 . S
C1081 C1082 1.399 . S
C1082 H1068 0.929 . S
C1082 C1081 1.399 . S
C1082 C1083 1.385 . S
C1083 H1069 0.931 . S
C1083 C1082 1.385 . S
C1083 C1084 1.389 . S
C1084 C1083 1.389 . S
C1084 C1085 1.387 . S
C1085 H1070 0.930 . S
C1085 C1080 1.390 . S
C1085 C1084 1.387 . S
H1086 C1098 0.930 . S
H1087 C1100 0.930 . S
H1088 C1101 0.930 . S
H1089 C1105 0.959 . S
H1090 C1105 0.959 . S
H1091 C1105 0.961 . S
H1092 C1106 0.960 . S
H1093 C1106 0.961 . S
H1094 C1106 0.959 . S
H1095 C1109 0.929 . S
H1096 C1110 0.931 . S
H1097 C1112 0.930 . S
C1098 H1086 0.930 . S
C1098 C1099 1.399 . S
C1098 C1103 1.399 . S
C1099 C1098 1.399 . S
C1099 C1100 1.376 . S
C1100 H1087 0.930 . S
C1100 C1099 1.376 . S
C1100 C1101 1.388 . S
C1101 H1088 0.930 . S
C1101 C1100 1.388 . S
C1101 C1102 1.390 . S
C1102 C1101 1.390 . S
C1102 C1103 1.394 . S
C1102 C1108 1.465 . S
C1103 C1098 1.399 . S
C1103 C1102 1.394 . S
C1103 C1104 1.516 . S
C1104 C1103 1.516 . S
C1104 C1105 1.502 . S
C1104 C1106 1.561 . S
C1104 C1107 1.526 . S
C1105 H1089 0.959 . S
C1105 H1090 0.959 . S
C1105 H1091 0.961 . S
C1105 C1104 1.502 . S
C1106 H1092 0.960 . S
C1106 H1093 0.961 . S
C1106 H1094 0.959 . S
C1106 C1104 1.561 . S
C1107 C1104 1.526 . S
C1107 C1108 1.396 . S
C1107 C1112 1.390 . S
C1108 C1102 1.465 . S
C1108 C1107 1.396 . S
C1108 C1109 1.399 . S
C1109 H1095 0.929 . S
C1109 C1108 1.399 . S
C1109 C1110 1.385 . S
C1110 H1096 0.931 . S
C1110 C1109 1.385 . S
C1110 C1111 1.389 . S
C1111 C1110 1.389 . S
C1111 C1112 1.387 . S
C1112 H1097 0.930 . S
C1112 C1107 1.390 . S
C1112 C1111 1.387 . S
H1113 C1125 0.930 . S
H1114 C1127 0.930 . S
H1115 C1128 0.930 . S
H1116 C1132 0.959 . S
H1117 C1132 0.959 . S
H1118 C1132 0.961 . S
H1119 C1133 0.960 . S
H1120 C1133 0.961 . S
H1121 C1133 0.959 . S
H1122 C1136 0.929 . S
H1123 C1137 0.931 . S
H1124 C1139 0.930 . S
C1125 H1113 0.930 . S
C1125 C1126 1.399 . S
C1125 C1130 1.399 . S
C1126 C1125 1.399 . S
C1126 C1127 1.376 . S
C1127 H1114 0.930 . S
C1127 C1126 1.376 . S
C1127 C1128 1.388 . S
C1128 H1115 0.930 . S
C1128 C1127 1.388 . S
C1128 C1129 1.390 . S
C1129 C1128 1.390 . S
C1129 C1130 1.394 . S
C1129 C1135 1.465 . S
C1130 C1125 1.399 . S
C1130 C1129 1.394 . S
C1130 C1131 1.516 . S
C1131 C1130 1.516 . S
C1131 C1132 1.502 . S
C1131 C1133 1.561 1_655 S
C1131 C1134 1.526 . S
C1132 H1116 0.959 . S
C1132 H1117 0.959 . S
C1132 H1118 0.961 . S
C1132 C1131 1.502 . S
C1133 H1119 0.960 . S
C1133 H1120 0.961 . S
C1133 H1121 0.959 . S
C1133 C1131 1.561 1_455 S
C1134 C1131 1.526 . S
C1134 C1135 1.396 . S
C1134 C1139 1.390 . S
C1135 C1129 1.465 . S
C1135 C1134 1.396 . S
C1135 C1136 1.399 . S
C1136 H1122 0.929 . S
C1136 C1135 1.399 . S
C1136 C1137 1.385 . S
C1137 H1123 0.931 . S
C1137 C1136 1.385 . S
C1137 C1138 1.389 . S
C1138 C1137 1.389 . S
C1138 C1139 1.387 . S
C1139 H1124 0.930 . S
C1139 C1134 1.390 . S
C1139 C1138 1.387 . S
H1140 C1152 0.930 . S
H1141 C1154 0.930 . S
H1142 C1155 0.930 . S
H1143 C1159 0.959 . S
H1144 C1159 0.959 . S
H1145 C1159 0.961 . S
H1146 C1160 0.960 . S
H1147 C1160 0.961 . S
H1148 C1160 0.959 . S
H1149 C1163 0.929 . S
H1150 C1164 0.931 . S
H1151 C1166 0.930 . S
C1152 H1140 0.930 . S
C1152 C1153 1.399 . S
C1152 C1157 1.399 . S
C1153 C1152 1.399 . S
C1153 C1154 1.376 . S
C1154 H1141 0.930 . S
C1154 C1153 1.376 . S
C1154 C1155 1.388 . S
C1155 H1142 0.930 . S
C1155 C1154 1.388 . S
C1155 C1156 1.390 . S
C1156 C1155 1.390 . S
C1156 C1157 1.394 . S
C1156 C1162 1.465 . S
C1157 C1152 1.399 . S
C1157 C1156 1.394 . S
C1157 C1158 1.516 . S
C1158 C1157 1.516 . S
C1158 C1159 1.502 . S
C1158 C1160 1.561 . S
C1158 C1161 1.526 . S
C1159 H1143 0.959 . S
C1159 H1144 0.959 . S
C1159 H1145 0.961 . S
C1159 C1158 1.502 . S
C1160 H1146 0.960 . S
C1160 H1147 0.961 . S
C1160 H1148 0.959 . S
C1160 C1158 1.561 . S
C1161 C1158 1.526 . S
C1161 C1162 1.396 . S
C1161 C1166 1.390 . S
C1162 C1156 1.465 . S
C1162 C1161 1.396 . S
C1162 C1163 1.399 . S
C1163 H1149 0.929 . S
C1163 C1162 1.399 . S
C1163 C1164 1.385 . S
C1164 H1150 0.931 . S
C1164 C1163 1.385 . S
C1164 C1165 1.389 . S
C1165 C1164 1.389 . S
C1165 C1166 1.387 . S
C1166 H1151 0.930 . S
C1166 C1161 1.390 . S
C1166 C1165 1.387 . S
H1167 C1179 0.930 . S
H1168 C1181 0.930 . S
H1169 C1182 0.930 . S
H1170 C1186 0.959 . S
H1171 C1186 0.959 . S
H1172 C1186 0.961 . S
H1173 C1187 0.960 . S
H1174 C1187 0.961 . S
H1175 C1187 0.959 . S
H1176 C1190 0.929 . S
H1177 C1191 0.931 . S
H1178 C1193 0.930 . S
C1179 H1167 0.930 . S
C1179 C1180 1.399 . S
C1179 C1184 1.399 . S
C1180 C1179 1.399 . S
C1180 C1181 1.376 . S
C1181 H1168 0.930 . S
C1181 C1180 1.376 . S
C1181 C1182 1.388 . S
C1182 H1169 0.930 . S
C1182 C1181 1.388 . S
C1182 C1183 1.390 . S
C1183 C1182 1.390 . S
C1183 C1184 1.394 . S
C1183 C1189 1.465 . S
C1184 C1179 1.399 . S
C1184 C1183 1.394 . S
C1184 C1185 1.516 . S
C1185 C1184 1.516 . S
C1185 C1186 1.502 . S
C1185 C1187 1.561 . S
C1185 C1188 1.526 . S
C1186 H1170 0.959 . S
C1186 H1171 0.959 . S
C1186 H1172 0.961 . S
C1186 C1185 1.502 . S
C1187 H1173 0.960 . S
C1187 H1174 0.961 . S
C1187 H1175 0.959 . S
C1187 C1185 1.561 . S
C1188 C1185 1.526 . S
C1188 C1189 1.396 . S
C1188 C1193 1.390 . S
C1189 C1183 1.465 . S
C1189 C1188 1.396 . S
C1189 C1190 1.399 . S
C1190 H1176 0.929 . S
C1190 C1189 1.399 . S
C1190 C1191 1.385 . S
C1191 H1177 0.931 . S
C1191 C1190 1.385 . S
C1191 C1192 1.389 . S
C1192 C1191 1.389 . S
C1192 C1193 1.387 . S
C1193 H1178 0.930 . S
C1193 C1188 1.390 . S
C1193 C1192 1.387 . S
H1194 C1206 0.930 . S
H1195 C1208 0.930 . S
H1196 C1209 0.930 . S
H1197 C1213 0.959 . S
H1198 C1213 0.959 . S
H1199 C1213 0.961 . S
H1200 C1214 0.960 . S
H1201 C1214 0.961 . S
H1202 C1214 0.959 . S
H1203 C1217 0.929 . S
H1204 C1218 0.931 . S
H1205 C1220 0.930 . S
C1206 H1194 0.930 . S
C1206 C1207 1.399 . S
C1206 C1211 1.399 . S
C1207 C1206 1.399 . S
C1207 C1208 1.376 . S
C1208 H1195 0.930 . S
C1208 C1207 1.376 . S
C1208 C1209 1.388 . S
C1209 H1196 0.930 . S
C1209 C1208 1.388 . S
C1209 C1210 1.390 . S
C1210 C1209 1.390 . S
C1210 C1211 1.394 . S
C1210 C1216 1.465 . S
C1211 C1206 1.399 . S
C1211 C1210 1.394 . S
C1211 C1212 1.516 . S
C1212 C1211 1.516 . S
C1212 C1213 1.502 . S
C1212 C1214 1.561 . S
C1212 C1215 1.526 . S
C1213 H1197 0.959 . S
C1213 H1198 0.959 . S
C1213 H1199 0.961 . S
C1213 C1212 1.502 . S
C1214 H1200 0.960 . S
C1214 H1201 0.961 . S
C1214 H1202 0.959 . S
C1214 C1212 1.561 . S
C1215 C1212 1.526 . S
C1215 C1216 1.396 . S
C1215 C1220 1.390 . S
C1216 C1210 1.465 . S
C1216 C1215 1.396 . S
C1216 C1217 1.399 . S
C1217 H1203 0.929 . S
C1217 C1216 1.399 . S
C1217 C1218 1.385 . S
C1218 H1204 0.931 . S
C1218 C1217 1.385 . S
C1218 C1219 1.389 . S
C1219 C1218 1.389 . S
C1219 C1220 1.387 . S
C1220 H1205 0.930 . S
C1220 C1215 1.390 . S
C1220 C1219 1.387 . S
H1221 C1233 0.930 . S
H1222 C1235 0.930 . S
H1223 C1236 0.930 . S
H1224 C1240 0.959 . S
H1225 C1240 0.959 . S
H1226 C1240 0.961 . S
H1227 C1241 0.960 . S
H1228 C1241 0.961 . S
H1229 C1241 0.959 . S
H1230 C1244 0.929 . S
H1231 C1245 0.931 . S
H1232 C1247 0.930 . S
C1233 H1221 0.930 . S
C1233 C1234 1.399 . S
C1233 C1238 1.399 . S
C1234 C1233 1.399 . S
C1234 C1235 1.376 . S
C1235 H1222 0.930 . S
C1235 C1234 1.376 . S
C1235 C1236 1.388 . S
C1236 H1223 0.930 . S
C1236 C1235 1.388 . S
C1236 C1237 1.390 . S
C1237 C1236 1.390 . S
C1237 C1238 1.394 . S
C1237 C1243 1.465 . S
C1238 C1233 1.399 . S
C1238 C1237 1.394 . S
C1238 C1239 1.516 . S
C1239 C1238 1.516 . S
C1239 C1240 1.502 . S
C1239 C1241 1.561 . S
C1239 C1242 1.526 . S
C1240 H1224 0.959 . S
C1240 H1225 0.959 . S
C1240 H1226 0.961 . S
C1240 C1239 1.502 . S
C1241 H1227 0.960 . S
C1241 H1228 0.961 . S
C1241 H1229 0.959 . S
C1241 C1239 1.561 . S
C1242 C1239 1.526 . S
C1242 C1243 1.396 . S
C1242 C1247 1.390 . S
C1243 C1237 1.465 . S
C1243 C1242 1.396 . S
C1243 C1244 1.399 . S
C1244 H1230 0.929 . S
C1244 C1243 1.399 . S
C1244 C1245 1.385 . S
C1245 H1231 0.931 . S
C1245 C1244 1.385 . S
C1245 C1246 1.389 . S
C1246 C1245 1.389 . S
C1246 C1247 1.387 . S
C1247 H1232 0.930 . S
C1247 C1242 1.390 . S
C1247 C1246 1.387 . S
H1248 C1260 0.930 . S
H1249 C1262 0.930 . S
H1250 C1263 0.930 . S
H1251 C1267 0.959 . S
H1252 C1267 0.959 . S
H1253 C1267 0.961 . S
H1254 C1268 0.960 . S
H1255 C1268 0.961 . S
H1256 C1268 0.959 . S
H1257 C1271 0.929 . S
H1258 C1272 0.931 . S
H1259 C1274 0.930 . S
C1260 H1248 0.930 . S
C1260 C1261 1.399 . S
C1260 C1265 1.399 . S
C1261 C1260 1.399 . S
C1261 C1262 1.376 . S
C1262 H1249 0.930 . S
C1262 C1261 1.376 . S
C1262 C1263 1.388 . S
C1263 H1250 0.930 . S
C1263 C1262 1.388 . S
C1263 C1264 1.390 . S
C1264 C1263 1.390 . S
C1264 C1265 1.394 . S
C1264 C1270 1.465 . S
C1265 C1260 1.399 . S
C1265 C1264 1.394 . S
C1265 C1266 1.516 . S
C1266 C1265 1.516 . S
C1266 C1267 1.502 . S
C1266 C1268 1.561 . S
C1266 C1269 1.526 . S
C1267 H1251 0.959 . S
C1267 H1252 0.959 . S
C1267 H1253 0.961 . S
C1267 C1266 1.502 . S
C1268 H1254 0.960 . S
C1268 H1255 0.961 . S
C1268 H1256 0.959 . S
C1268 C1266 1.561 . S
C1269 C1266 1.526 . S
C1269 C1270 1.396 . S
C1269 C1274 1.390 . S
C1270 C1264 1.465 . S
C1270 C1269 1.396 . S
C1270 C1271 1.399 . S
C1271 H1257 0.929 . S
C1271 C1270 1.399 . S
C1271 C1272 1.385 . S
C1272 H1258 0.931 . S
C1272 C1271 1.385 . S
C1272 C1273 1.389 . S
C1273 C1272 1.389 . S
C1273 C1274 1.387 . S
C1274 H1259 0.930 . S
C1274 C1269 1.390 . S
C1274 C1273 1.387 . S
H1275 C1287 0.930 . S
H1276 C1289 0.930 . S
H1277 C1290 0.930 . S
H1278 C1294 0.959 . S
H1279 C1294 0.959 . S
H1280 C1294 0.961 . S
H1281 C1295 0.960 . S
H1282 C1295 0.961 . S
H1283 C1295 0.959 . S
H1284 C1298 0.929 . S
H1285 C1299 0.931 . S
H1286 C1301 0.930 . S
C1287 H1275 0.930 . S
C1287 C1288 1.399 . S
C1287 C1292 1.399 . S
C1288 C1287 1.399 . S
C1288 C1289 1.376 . S
C1289 H1276 0.930 . S
C1289 C1288 1.376 . S
C1289 C1290 1.388 . S
C1290 H1277 0.930 . S
C1290 C1289 1.388 . S
C1290 C1291 1.390 . S
C1291 C1290 1.390 . S
C1291 C1292 1.394 . S
C1291 C1297 1.465 . S
C1292 C1287 1.399 . S
C1292 C1291 1.394 . S
C1292 C1293 1.516 . S
C1293 C1292 1.516 . S
C1293 C1294 1.502 . S
C1293 C1295 1.561 . S
C1293 C1296 1.526 . S
C1294 H1278 0.959 . S
C1294 H1279 0.959 . S
C1294 H1280 0.961 . S
C1294 C1293 1.502 . S
C1295 H1281 0.960 . S
C1295 H1282 0.961 . S
C1295 H1283 0.959 . S
C1295 C1293 1.561 . S
C1296 C1293 1.526 . S
C1296 C1297 1.396 . S
C1296 C1301 1.390 . S
C1297 C1291 1.465 . S
C1297 C1296 1.396 . S
C1297 C1298 1.399 . S
C1298 H1284 0.929 . S
C1298 C1297 1.399 . S
C1298 C1299 1.385 . S
C1299 H1285 0.931 . S
C1299 C1298 1.385 . S
C1299 C1300 1.389 . S
C1300 C1299 1.389 . S
C1300 C1301 1.387 . S
C1301 H1286 0.930 . S
C1301 C1296 1.390 . S
C1301 C1300 1.387 . S
H1302 C1314 0.930 . S
H1303 C1316 0.930 . S
H1304 C1317 0.930 . S
H1305 C1321 0.959 . S
H1306 C1321 0.959 . S
H1307 C1321 0.961 . S
H1308 C1322 0.960 . S
H1309 C1322 0.961 . S
H1310 C1322 0.959 . S
H1311 C1325 0.929 . S
H1312 C1326 0.931 . S
H1313 C1328 0.930 . S
C1314 H1302 0.930 . S
C1314 C1315 1.399 . S
C1314 C1319 1.399 . S
C1315 C1314 1.399 . S
C1315 C1316 1.376 . S
C1316 H1303 0.930 . S
C1316 C1315 1.376 . S
C1316 C1317 1.388 . S
C1317 H1304 0.930 . S
C1317 C1316 1.388 . S
C1317 C1318 1.390 . S
C1318 C1317 1.390 . S
C1318 C1319 1.394 . S
C1318 C1324 1.465 . S
C1319 C1314 1.399 . S
C1319 C1318 1.394 . S
C1319 C1320 1.516 . S
C1320 C1319 1.516 . S
C1320 C1321 1.502 . S
C1320 C1322 1.561 . S
C1320 C1323 1.526 . S
C1321 H1305 0.959 . S
C1321 H1306 0.959 . S
C1321 H1307 0.961 . S
C1321 C1320 1.502 . S
C1322 H1308 0.960 . S
C1322 H1309 0.961 . S
C1322 H1310 0.959 . S
C1322 C1320 1.561 . S
C1323 C1320 1.526 . S
C1323 C1324 1.396 . S
C1323 C1328 1.390 . S
C1324 C1318 1.465 . S
C1324 C1323 1.396 . S
C1324 C1325 1.399 . S
C1325 H1311 0.929 . S
C1325 C1324 1.399 . S
C1325 C1326 1.385 . S
C1326 H1312 0.931 . S
C1326 C1325 1.385 . S
C1326 C1327 1.389 . S
C1327 C1326 1.389 . S
C1327 C1328 1.387 . S
C1328 H1313 0.930 . S
C1328 C1323 1.390 . S
C1328 C1327 1.387 . S
H1329 C1341 0.930 . S
H1330 C1343 0.930 . S
H1331 C1344 0.930 . S
H1332 C1348 0.959 . S
H1333 C1348 0.959 . S
H1334 C1348 0.961 . S
H1335 C1349 0.960 . S
H1336 C1349 0.961 . S
H1337 C1349 0.959 . S
H1338 C1352 0.929 . S
H1339 C1353 0.931 . S
H1340 C1355 0.930 . S
C1341 H1329 0.930 . S
C1341 C1342 1.399 . S
C1341 C1346 1.399 . S
C1342 C1341 1.399 . S
C1342 C1343 1.376 . S
C1343 H1330 0.930 . S
C1343 C1342 1.376 . S
C1343 C1344 1.388 . S
C1344 H1331 0.930 . S
C1344 C1343 1.388 . S
C1344 C1345 1.390 . S
C1345 C1344 1.390 . S
C1345 C1346 1.394 . S
C1345 C1351 1.465 . S
C1346 C1341 1.399 . S
C1346 C1345 1.394 . S
C1346 C1347 1.516 . S
C1347 C1346 1.516 . S
C1347 C1348 1.502 . S
C1347 C1349 1.561 . S
C1347 C1350 1.526 . S
C1348 H1332 0.959 . S
C1348 H1333 0.959 . S
C1348 H1334 0.961 . S
C1348 C1347 1.502 . S
C1349 H1335 0.960 . S
C1349 H1336 0.961 . S
C1349 H1337 0.959 . S
C1349 C1347 1.561 . S
C1350 C1347 1.526 . S
C1350 C1351 1.396 . S
C1350 C1355 1.390 . S
C1351 C1345 1.465 . S
C1351 C1350 1.396 . S
C1351 C1352 1.399 . S
C1352 H1338 0.929 . S
C1352 C1351 1.399 . S
C1352 C1353 1.385 . S
C1353 H1339 0.931 . S
C1353 C1352 1.385 . S
C1353 C1354 1.389 . S
C1354 C1353 1.389 . S
C1354 C1355 1.387 . S
C1355 H1340 0.930 . S
C1355 C1350 1.390 . S
C1355 C1354 1.387 . S
C517 C428 1.765 . S
C505 C1 1.828 . S
C532 C68 1.756 . S
C544 C431 1.714 . S
C559 C93 1.732 . S
C571 C462 1.661 . S
C598 C397 1.775 . S
C586 C139 1.799 . S
C625 C432 1.794 . S
C613 C8 1.828 . S
C652 C463 1.715 . S
C640 C61 1.805 . S
C679 C388 1.682 . S
C667 C100 1.721 . S
C706 C419 1.697 . S
C694 C146 1.757 . S
C721 C15 1.292 . S
C733 C449 1.170 . S
C748 C192 1.273 1_565 S
C760 C418 1.174 . S
C775 C107 1.227 . S
C787 C378 1.188 . S
C814 C471 1.224 . S
C802 C238 1.241 1_545 S
C841 C399 1.194 . S
C829 C22 1.298 . S
C856 C185 1.241 1_565 S
C868 C398 1.227 . S
C883 C114 1.222 . S
C895 C491 1.216 . S
C922 C430 1.264 . S
C910 C231 1.294 1_545 S
C937 C277 1.828 . S
C949 C490 1.798 . S
C964 C206 1.753 . S
C976 C369 1.725 . S
C991 C330 1.725 . S
C1003 C400 1.674 . S
C1018 C252 1.795 . S
C1030 C459 1.776 . S
C1057 C370 1.787 . S
C1045 C284 1.829 . S
C1072 C199 1.810 . S
C1084 C401 1.721 . S
C1099 C323 1.729 . S
C1111 C450 1.698 . S
C1138 C481 1.687 . S
C1126 C245 1.747 . S
C1153 C291 1.294 . S
C1165 C387 1.178 . S
C1180 C54 1.294 . S
C1192 C480 1.266 . S
C1207 C344 1.227 . S
C1219 C440 1.192 . S
C1246 C409 1.199 . S
C1234 C153 1.217 . S
C1273 C461 1.171 . S
C1261 C298 1.287 . S
C1300 C460 1.192 . S
C1288 C47 1.214 . S
C1327 C429 1.209 . S
C1315 C337 1.224 . S
C1354 C368 1.259 . S
C1342 C160 1.288 . S
