# Generated by pormake.
# Topology anh, (6,3)-cn, num edge types: 1
# Building blocks:
#     Node 0, Type 0, BuildingBlock: GEDQOX_clean_sbu_0, # of connection points: 6
#     Node 1, Type 0, BuildingBlock: GEDQOX_clean_sbu_0, # of connection points: 6
#     Node 2, Type 0, BuildingBlock: GEDQOX_clean_sbu_0, # of connection points: 6
#     Node 3, Type 1, BuildingBlock: QEWDON_clean_linker_0, # of connection points: 3
#     Node 4, Type 1, BuildingBlock: QEWDON_clean_linker_0, # of connection points: 3
#     Node 5, Type 1, BuildingBlock: QEWDON_clean_linker_0, # of connection points: 3
#     Node 6, Type 1, BuildingBlock: QEWDON_clean_linker_0, # of connection points: 3
#     Node 7, Type 1, BuildingBlock: QEWDON_clean_linker_0, # of connection points: 3
#     Node 8, Type 1, BuildingBlock: QEWDON_clean_linker_0, # of connection points: 3
#     Edge 9, Type (0, 1), BuildingBlock: MIFKUJ_clean_linker_0, # of connection points: 2
#     Edge 10, Type (0, 1), BuildingBlock: MIFKUJ_clean_linker_0, # of connection points: 2
#     Edge 11, Type (0, 1), BuildingBlock: MIFKUJ_clean_linker_0, # of connection points: 2
#     Edge 12, Type (0, 1), BuildingBlock: MIFKUJ_clean_linker_0, # of connection points: 2
#     Edge 13, Type (0, 1), BuildingBlock: MIFKUJ_clean_linker_0, # of connection points: 2
#     Edge 14, Type (0, 1), BuildingBlock: MIFKUJ_clean_linker_0, # of connection points: 2
#     Edge 15, Type (0, 1), BuildingBlock: MIFKUJ_clean_linker_0, # of connection points: 2
#     Edge 16, Type (0, 1), BuildingBlock: MIFKUJ_clean_linker_0, # of connection points: 2
#     Edge 17, Type (0, 1), BuildingBlock: MIFKUJ_clean_linker_0, # of connection points: 2
#     Edge 18, Type (0, 1), BuildingBlock: MIFKUJ_clean_linker_0, # of connection points: 2
#     Edge 19, Type (0, 1), BuildingBlock: MIFKUJ_clean_linker_0, # of connection points: 2
#     Edge 20, Type (0, 1), BuildingBlock: MIFKUJ_clean_linker_0, # of connection points: 2
#     Edge 21, Type (0, 1), BuildingBlock: MIFKUJ_clean_linker_0, # of connection points: 2
#     Edge 22, Type (0, 1), BuildingBlock: MIFKUJ_clean_linker_0, # of connection points: 2
#     Edge 23, Type (0, 1), BuildingBlock: MIFKUJ_clean_linker_0, # of connection points: 2
#     Edge 24, Type (0, 1), BuildingBlock: MIFKUJ_clean_linker_0, # of connection points: 2
#     Edge 25, Type (0, 1), BuildingBlock: MIFKUJ_clean_linker_0, # of connection points: 2
#     Edge 26, Type (0, 1), BuildingBlock: MIFKUJ_clean_linker_0, # of connection points: 2
# Relax obj value: 0.105
# Max RMSD: 0.167
# Mean RMSD: 0.123
data_MOF--net-anh--node1-GEDQOX_clean_sbu_0--node2-QEWDON_clean_linker_0--edge1-MIFKUJ_clean_linker_0
_symmetry_space_group_name_H-M    P1
_symmetry_Int_Tables_number       1
_symmetry_cell_setting            triclinic
loop_
_symmetry_equiv_pos_as_xyz
'x, y, z'
_cell_length_a     41.023834
_cell_length_b     39.970378
_cell_length_c     62.385284
_cell_angle_alpha  96.721062
_cell_angle_beta   94.623398
_cell_angle_gamma 106.18386
loop_
_atom_site_label
_atom_site_type_symbol
_atom_site_fract_x
_atom_site_fract_y
_atom_site_fract_z
_atom_type_partial_charge
Nd0 Nd 0.10893 0.60246 0.15167 0.0
Nd1 Nd 0.09016 0.52618 0.16076 0.0
C2 C 0.13501 0.66251 0.13692 0.0
C3 C 0.16895 0.68851 0.13985 0.0
C4 C 0.17811 0.71145 0.12457 0.0
C5 C 0.21035 0.73637 0.12741 0.0
C6 C 0.23392 0.73892 0.14569 0.0
C7 C 0.2246 0.7154 0.1608 0.0
C8 C 0.19254 0.69033 0.15783 0.0
C9 C 0.10687 0.59478 0.19466 0.0
C10 C 0.17041 0.5624 0.15696 0.0
C11 C 1.06575 0.46596 0.17571 0.0
C12 C 1.032 0.44281 0.1785 0.0
C13 C 1.00512 0.45666 0.18332 0.0
C14 C 0.97312 0.43425 0.18571 0.0
C15 C 0.96725 0.39749 0.18314 0.0
C16 C 0.99431 0.38382 0.17807 0.0
C17 C 1.02636 0.40629 0.17585 0.0
C18 C 0.09406 0.53496 0.11815 0.0
C19 C 1.02829 0.56512 0.15287 0.0
O20 O 0.13284 0.63176 0.12609 0.0
O21 O 0.11871 0.66016 0.15412 0.0
O22 O 0.09725 0.619 0.18606 0.0
O23 O 0.1192 0.57732 0.1811 0.0
O24 O 0.16015 0.58804 0.14953 0.0
O25 O 0.14891 0.53707 0.16514 0.0
O26 O 0.0762 0.49657 0.18815 0.0
O27 O 0.07237 0.46778 0.15565 0.0
O28 O 0.10476 0.51139 0.12686 0.0
O29 O 0.08049 0.55129 0.13153 0.0
O30 O 1.0384 0.54039 0.16168 0.0
O31 O 1.05038 0.58997 0.14472 0.0
H32 H 0.16036 0.71004 0.11043 0.0
H33 H 0.21682 0.75353 0.11522 0.0
H34 H 0.24176 0.7168 0.17522 0.0
H35 H 0.18601 0.67258 0.16973 0.0
H36 H 1.00893 0.48482 0.18547 0.0
H37 H 0.9532 0.44589 0.18995 0.0
H38 H 0.99068 0.3557 0.17549 0.0
H39 H 1.04673 0.39511 0.17191 0.0
Nd40 Nd 0.55566 0.04548 0.51129 0.0
Nd41 Nd 0.62938 0.0605 0.50314 0.0
C42 C 0.49397 0.02121 0.52324 0.0
C43 C 0.46589 0.98789 0.51948 0.0
C44 C 0.47119 0.95588 0.5237 0.0
C45 C 0.44425 0.92459 0.51934 0.0
C46 C 0.41164 0.9247 0.51052 0.0
C47 C 0.4064 0.95681 0.5065 0.0
C48 C 0.43322 0.98806 0.51101 0.0
C49 C 0.56732 0.05599 0.46966 0.0
C50 C 0.58878 0.97892 0.50057 0.0
C51 C 0.69021 0.08608 0.49035 0.0
C52 C 0.71219 0.12098 0.48724 0.0
C53 C 0.70087 0.14169 0.47326 0.0
C54 C 0.72199 0.175 0.47105 0.0
C55 C 0.75463 0.18835 0.48295 0.0
C56 C 0.76588 0.16755 0.49686 0.0
C57 C 0.74495 0.13417 0.49889 0.0
C58 C 0.61791 0.04969 0.54473 0.0
C59 C 0.59647 0.12634 0.51496 0.0
O60 O 0.52208 0.02204 0.53511 0.0
O61 O 0.49978 0.03777 0.50644 0.0
O62 O 0.54604 0.06822 0.48007 0.0
O63 O 0.58064 0.03781 0.4808 0.0
O64 O 0.56411 0.99034 0.50831 0.0
O65 O 0.61611 1.00069 0.49472 0.0
O66 O 0.66227 0.07203 0.47682 0.0
O67 O 0.68574 0.0815 0.51044 0.0
O68 O 0.63911 0.03748 0.53414 0.0
O69 O 0.60448 0.06806 0.53375 0.0
O70 O 0.61906 0.11485 0.50462 0.0
O71 O 0.57154 0.1045 0.52289 0.0
H72 H 0.49616 0.95491 0.53017 0.0
H73 H 0.44909 0.9002 0.52246 0.0
H74 H 0.38146 0.95781 0.49998 0.0
H75 H 0.42848 0.01242 0.5077 0.0
H76 H 0.67563 0.13237 0.46417 0.0
H77 H 0.71256 0.19059 0.46036 0.0
H78 H 0.79104 0.177 0.50605 0.0
H79 H 0.75428 0.11868 0.50972 0.0
Nd80 Nd 0.59438 0.53324 0.8188 0.0
Nd81 Nd 0.67122 0.56058 0.8436 0.0
C82 C 0.54428 0.52031 0.78699 0.0
C83 C 0.51666 0.53569 0.7818 0.0
C84 C 0.49179 0.51993 0.76405 0.0
C85 C 0.4656 0.53486 0.75902 0.0
C86 C 0.46417 0.56587 0.77162 0.0
C87 C 0.48944 0.58167 0.78932 0.0
C88 C 0.51543 0.56664 0.79438 0.0
C89 C 0.59394 0.54599 0.86337 0.0
C90 C 0.63113 0.61785 0.83687 0.0
C91 C 0.72982 0.56808 0.86694 0.0
C92 C 0.75621 0.54969 0.86381 0.0
C93 C 0.75333 0.51714 0.8712 0.0
C94 C 0.77627 0.49812 0.86604 0.0
C95 C 0.80233 0.51118 0.85329 0.0
C96 C 0.8058 0.54412 0.84646 0.0
C97 C 0.78315 0.56325 0.85176 0.0
C98 C 0.66378 0.55784 0.79935 0.0
C99 C 0.63188 0.47436 0.83042 0.0
O100 O 0.57514 0.54087 0.78624 0.0
O101 O 0.54185 0.5035 0.80393 0.0
O102 O 0.56601 0.53467 0.84985 0.0
O103 O 0.61898 0.55007 0.85269 0.0
O104 O 0.60957 0.59381 0.82189 0.0
O105 O 0.65401 0.61024 0.85021 0.0
O106 O 0.70052 0.5494 0.87197 0.0
O107 O 0.72616 0.58857 0.85257 0.0
O108 O 0.68746 0.58191 0.81214 0.0
O109 O 0.64684 0.53546 0.80992 0.0
O110 O 0.65859 0.50004 0.84046 0.0
O111 O 0.60515 0.48026 0.81989 0.0
H112 H 0.49259 0.4961 0.75413 0.0
H113 H 0.44653 0.52222 0.74527 0.0
H114 H 0.48865 0.60518 0.79958 0.0
H115 H 0.53448 0.57905 0.80819 0.0
H116 H 0.73295 0.50596 0.88058 0.0
H117 H 0.77322 0.47288 0.87163 0.0
H118 H 0.82621 0.55524 0.83707 0.0
H119 H 0.78634 0.58838 0.846 0.0
H120 H 0.59972 0.11976 0.23811 0.0
C121 C 0.58217 0.09493 0.23028 0.0
C122 C 0.56961 0.06814 0.24282 0.0
C123 C 0.57149 0.09008 0.20782 0.0
H124 H 0.53509 0.01632 0.24252 0.0
C125 C 0.54604 0.03638 0.23273 0.0
C126 C 0.53479 0.03115 0.21043 0.0
C127 C 0.54801 0.0579 0.19806 0.0
C128 C 0.58348 0.11894 0.19462 0.0
H129 H 0.5399 0.05357 0.18074 0.0
C130 C 0.61761 0.1407 0.19791 0.0
C131 C 0.62871 0.16777 0.18519 0.0
C132 C 0.56049 0.12494 0.17856 0.0
H133 H 0.53391 0.10935 0.17592 0.0
C134 C 0.57136 0.1514 0.16582 0.0
H135 H 0.63549 0.13654 0.21034 0.0
C136 C 0.60517 0.17255 0.16899 0.0
H137 H 0.61291 0.19246 0.15855 0.0
H138 H 0.55347 0.15554 0.15341 0.0
H139 H 0.58106 0.57543 0.56155 0.0
C140 C 0.58452 0.55078 0.55447 0.0
C141 C 0.60003 0.53175 0.5676 0.0
C142 C 0.57223 0.53745 0.53247 0.0
H143 H 0.61436 0.48374 0.56834 0.0
C144 C 0.60378 0.49947 0.55831 0.0
C145 C 0.59186 0.4858 0.53651 0.0
C146 C 0.57609 0.50475 0.52366 0.0
C147 C 0.553 0.55616 0.51922 0.0
H148 H 0.56677 0.49387 0.50682 0.0
C149 C 0.56286 0.59335 0.52095 0.0
C150 C 0.54323 0.61048 0.50908 0.0
C151 C 0.5235 0.53658 0.50522 0.0
H152 H 0.51466 0.50814 0.50382 0.0
C153 C 0.5044 0.55339 0.49324 0.0
H154 H 0.58544 0.60895 0.53165 0.0
C155 C 0.51407 0.58999 0.49515 0.0
H156 H 0.49876 0.60232 0.48559 0.0
H157 H 0.48178 0.53796 0.48254 0.0
H158 H 0.17557 0.64559 0.90042 0.0
C159 C 0.15993 0.61929 0.89351 0.0
C160 C 0.15236 0.5927 0.90672 0.0
C161 C 0.14725 0.61198 0.8714 0.0
H162 H 0.12477 0.5388 0.90814 0.0
C163 C 0.13153 0.55891 0.8977 0.0
C164 C 0.11691 0.55182 0.87589 0.0
C165 C 0.12591 0.57837 0.86267 0.0
C166 C 0.15545 0.63961 0.85735 0.0
H167 H 0.11464 0.57389 0.84588 0.0
C168 C 0.17561 0.63629 0.84062 0.0
C169 C 0.18448 0.66262 0.82724 0.0
C170 C 0.14342 0.66916 0.86056 0.0
H171 H 0.12767 0.672 0.87339 0.0
C172 C 0.15149 0.6951 0.84704 0.0
H173 H 0.18553 0.61379 0.83868 0.0
C174 C 0.17205 0.69202 0.83053 0.0
H175 H 0.17836 0.71264 0.82042 0.0
H176 H 0.14204 0.71783 0.8495 0.0
H177 H 1.03562 0.54757 0.42477 0.0
C178 C 1.05998 0.56596 0.43177 0.0
C179 C 0.08621 0.57522 0.41853 0.0
C180 C 1.06467 0.58152 0.45367 0.0
H181 H 0.13695 0.60815 0.41668 0.0
C182 C 0.11714 0.60036 0.42716 0.0
C183 C 0.12202 0.61705 0.44871 0.0
C184 C 0.09599 0.60687 0.46203 0.0
C185 C 1.03608 0.57335 0.46733 0.0
H186 H 0.09968 0.61964 0.47871 0.0
C187 C 1.01456 0.53866 0.46631 0.0
C188 C 0.98745 0.53127 0.47921 0.0
C189 C 1.02978 0.60057 0.48129 0.0
H190 H 1.04521 0.62762 0.48211 0.0
C191 C 1.00299 0.59339 0.49405 0.0
H192 H 1.01936 0.51734 0.45586 0.0
C193 C 0.98197 0.55906 0.49307 0.0
H194 H 0.96104 0.55436 0.50293 0.0
H195 H 0.99831 0.61461 0.50463 0.0
H196 H 0.60587 0.01288 0.78209 0.0
C197 C 0.61004 0.04016 0.78887 0.0
C198 C 0.61764 0.06625 0.77522 0.0
C199 C 0.6066 0.04901 0.81097 0.0
H200 H 0.62575 0.12147 0.77325 0.0
C201 C 0.6213 0.10132 0.7838 0.0
C202 C 0.61813 0.11076 0.80568 0.0
C203 C 0.61162 0.08473 0.81933 0.0
C204 C 0.59457 0.02079 0.8247 0.0
H205 H 0.60914 0.09223 0.83624 0.0
C206 C 0.60491 0.98974 0.82254 0.0
C207 C 0.59084 0.96216 0.83428 0.0
C208 C 0.57068 0.02393 0.83924 0.0
H209 H 0.56144 0.04686 0.841 0.0
C210 C 0.55736 0.99697 0.85121 0.0
H211 H 0.62326 0.98664 0.81148 0.0
C212 C 0.56714 0.9662 0.84866 0.0
H213 H 0.55616 0.94543 0.85795 0.0
H214 H 0.53892 0.99972 0.86225 0.0
H215 H 0.58027 0.56568 0.10386 0.0
C216 C 0.60541 0.56579 0.11056 0.0
C217 C 0.63008 0.56402 0.09629 0.0
C218 C 0.61309 0.56825 0.13329 0.0
H219 H 0.68297 0.56625 0.09435 0.0
C220 C 0.66333 0.56585 0.10502 0.0
C221 C 0.67205 0.56722 0.12733 0.0
C222 C 0.64658 0.56747 0.14133 0.0
C223 C 0.58717 0.57394 0.1485 0.0
H224 H 0.65341 0.5678 0.15848 0.0
C225 C 0.55093 0.5643 0.14203 0.0
C226 C 0.52809 0.57132 0.15683 0.0
C227 C 0.59917 0.59126 0.16989 0.0
H228 H 0.62616 0.60089 0.17559 0.0
C229 C 0.57679 0.59772 0.18439 0.0
H230 H 0.54022 0.5509 0.12586 0.0
C231 C 0.54176 0.5878 0.17802 0.0
H232 H 0.5252 0.59369 0.18969 0.0
H233 H 0.58678 0.61103 0.20071 0.0
H234 H 0.21775 0.60016 0.13317 0.0
H235 H 0.27675 0.59902 0.13055 0.0
H236 H 0.26552 0.5232 0.1752 0.0
H237 H 0.2063 0.52386 0.17769 0.0
H238 H 0.32663 0.5755 0.18546 0.0
H239 H 0.26368 0.49998 0.12178 0.0
H240 H 0.22547 0.48333 0.0873 0.0
H241 H 0.29642 0.56071 0.05841 0.0
H242 H 0.33442 0.57901 0.09303 0.0
H243 H 0.47814 0.52878 0.17597 0.0
H244 H 0.41733 0.52475 0.17337 0.0
H245 H 0.43055 0.59288 0.12406 0.0
H246 H 0.49166 0.59616 0.12632 0.0
H247 H 0.36844 0.54567 0.11538 0.0
H248 H 0.42918 0.62405 0.17872 0.0
H249 H 0.46773 0.64255 0.21311 0.0
H250 H 0.40153 0.56114 0.24196 0.0
H251 H 0.36283 0.54178 0.20762 0.0
C252 C 0.22774 0.58321 0.14249 0.0
C253 C 0.2069 0.56209 0.15569 0.0
C254 C 0.26163 0.58247 0.14087 0.0
C255 C 0.27598 0.56086 0.15255 0.0
C256 C 0.25536 0.54013 0.16596 0.0
C257 C 0.2213 0.54046 0.16734 0.0
C258 C 0.31239 0.56006 0.15102 0.0
C259 C 0.33552 0.5685 0.17012 0.0
C260 C 0.32476 0.55197 0.13098 0.0
C261 C 0.30172 0.54127 0.11018 0.0
C262 C 0.27092 0.51391 0.10821 0.0
C263 C 0.24926 0.50418 0.08863 0.0
C264 C 0.25839 0.52113 0.07072 0.0
C265 C 0.28927 0.54777 0.07235 0.0
C266 C 0.31081 0.55796 0.09199 0.0
C267 C 0.46794 0.54215 0.16412 0.0
C268 C 0.48993 0.56257 0.15123 0.0
C269 C 0.43307 0.54022 0.16283 0.0
C270 C 0.41896 0.55925 0.14893 0.0
C271 C 0.44044 0.57803 0.13506 0.0
C272 C 0.47547 0.57972 0.13622 0.0
C273 C 0.38259 0.56089 0.14985 0.0
C274 C 0.35952 0.55271 0.13069 0.0
C275 C 0.37021 0.56953 0.16979 0.0
C276 C 0.39327 0.58126 0.19053 0.0
C277 C 0.42296 0.60994 0.19235 0.0
C278 C 0.44483 0.6206 0.21184 0.0
C279 C 0.43713 0.60298 0.22969 0.0
C280 C 0.40749 0.57473 0.22811 0.0
C281 C 0.38556 0.56391 0.20864 0.0
H282 H 0.45409 0.61127 0.24477 0.0
H283 H 0.24163 0.51352 0.05556 0.0
H284 H 0.79031 0.23988 0.51585 0.0
H285 H 0.82814 0.29809 0.51291 0.0
H286 H 0.80723 0.27562 0.44303 0.0
H287 H 0.76928 0.21716 0.44588 0.0
H288 H 0.87701 0.30434 0.45794 0.0
H289 H 0.77199 0.32981 0.46814 0.0
H290 H 0.72007 0.32928 0.4856 0.0
H291 H 0.78178 0.38531 0.54473 0.0
H292 H 0.83413 0.38569 0.52773 0.0
H293 H 0.95881 0.48231 0.44316 0.0
H294 H 0.91831 0.42378 0.44181 0.0
H295 H 0.92374 0.43961 0.51177 0.0
H296 H 0.96403 0.49799 0.5132 0.0
H297 H 0.85906 0.4141 0.49402 0.0
H298 H 0.96395 0.38531 0.48451 0.0
H299 H 1.0159 0.38559 0.46712 0.0
H300 H 0.95436 0.33563 0.40675 0.0
H301 H 0.90203 0.33549 0.42373 0.0
C302 C 0.79382 0.24733 0.49986 0.0
C303 C 0.77688 0.22398 0.48109 0.0
C304 C 0.81526 0.28065 0.4982 0.0
C305 C 0.82034 0.29123 0.47775 0.0
C306 C 0.80359 0.26796 0.45896 0.0
C307 C 0.7818 0.23472 0.46061 0.0
C308 C 0.84363 0.32644 0.47613 0.0
C309 C 0.87284 0.32842 0.4655 0.0
C310 C 0.83844 0.35774 0.48636 0.0
C311 C 0.80702 0.35748 0.49671 0.0
C312 C 0.77452 0.34172 0.48493 0.0
C313 C 0.745 0.34151 0.49473 0.0
C314 C 0.74763 0.35719 0.51626 0.0
C315 C 0.77979 0.37314 0.52805 0.0
C316 C 0.8094 0.37339 0.51833 0.0
C317 C 0.9517 0.4731 0.45826 0.0
C318 C 0.96456 0.49484 0.47829 0.0
C319 C 0.92849 0.43967 0.45747 0.0
C320 C 0.91803 0.4272 0.4767 0.0
C321 C 0.93122 0.44871 0.4967 0.0
C322 C 0.95425 0.4821 0.4975 0.0
C323 C 0.89285 0.39206 0.47612 0.0
C324 C 0.86321 0.39008 0.48633 0.0
C325 C 0.89768 0.36076 0.46553 0.0
C326 C 0.9291 0.36075 0.45532 0.0
C327 C 0.96151 0.37465 0.46748 0.0
C328 C 0.99102 0.37473 0.45771 0.0
C329 C 0.98843 0.36074 0.43583 0.0
C330 C 0.95632 0.34652 0.42369 0.0
C331 C 0.92673 0.34641 0.43338 0.0
H332 H 1.01131 0.36082 0.42829 0.0
H333 H 0.72475 0.35708 0.52378 0.0
H334 H 0.57771 0.64057 0.82256 0.0
H335 H 0.57666 0.70098 0.82149 0.0
H336 H 0.68129 0.73927 0.8514 0.0
H337 H 0.68202 0.67851 0.85329 0.0
H338 H 0.64718 0.7806 0.86735 0.0
H339 H 0.65972 0.73551 0.79557 0.0
H340 H 0.64654 0.69249 0.76205 0.0
H341 H 0.54658 0.70611 0.7515 0.0
H342 H 0.55897 0.74884 0.78515 0.0
H343 H 0.65427 0.95213 0.83929 0.0
H344 H 0.66739 0.89552 0.83842 0.0
H345 H 0.56022 0.84017 0.8219 0.0
H346 H 0.54707 0.89641 0.82306 0.0
H347 H 0.60417 0.81067 0.79765 0.0
H348 H 0.59218 0.85183 0.87237 0.0
H349 H 0.60721 0.89478 0.90598 0.0
H350 H 0.71061 0.8895 0.90995 0.0
H351 H 0.69627 0.84688 0.87616 0.0
C352 C 0.60048 0.66181 0.82903 0.0
C353 C 0.63005 0.65473 0.83785 0.0
C354 C 0.59993 0.69641 0.82828 0.0
C355 C 0.62921 0.72477 0.8358 0.0
C356 C 0.65845 0.71786 0.84533 0.0
C357 C 0.65884 0.68313 0.84642 0.0
C358 C 0.62906 0.76143 0.83352 0.0
C359 C 0.63843 0.78729 0.85199 0.0
C360 C 0.61756 0.77036 0.8135 0.0
C361 C 0.61022 0.74526 0.79296 0.0
C362 C 0.63487 0.72923 0.78615 0.0
C363 C 0.62754 0.70489 0.76713 0.0
C364 C 0.59573 0.69654 0.75467 0.0
C365 C 0.57122 0.71261 0.76117 0.0
C366 C 0.5784 0.73694 0.7802 0.0
C367 C 0.63368 0.92781 0.83517 0.0
C368 C 0.59967 0.92851 0.83134 0.0
C369 C 0.64115 0.89558 0.83476 0.0
C370 C 0.61472 0.86367 0.83021 0.0
C371 C 0.58097 0.86444 0.82543 0.0
C372 C 0.57348 0.89654 0.82617 0.0
C373 C 0.62159 0.82936 0.83154 0.0
C374 C 0.61347 0.804 0.81287 0.0
C375 C 0.63472 0.82107 0.85127 0.0
C376 C 0.64327 0.84653 0.87161 0.0
C377 C 0.61819 0.86008 0.8803 0.0
C378 C 0.62657 0.88431 0.8994 0.0
C379 C 0.65987 0.89495 0.91006 0.0
C380 C 0.68484 0.8813 0.90166 0.0
C381 C 0.67661 0.8571 0.88254 0.0
H382 H 0.66631 0.9137 0.92485 0.0
H383 H 0.59008 0.67765 0.73996 0.0
H384 H 0.99864 0.61391 0.13878 0.0
H385 H 0.93885 0.61371 0.13734 0.0
H386 H 0.91346 0.51554 0.16325 0.0
H387 H 0.97333 0.51542 0.16455 0.0
H388 H 0.86478 0.51319 0.13159 0.0
H389 H 0.91873 0.5952 0.19471 0.0
H390 H 0.96148 0.64662 0.21632 0.0
H391 H 0.93073 0.71495 0.17587 0.0
H392 H 0.88811 0.66385 0.1538 0.0
H393 H 0.69598 0.52169 0.15008 0.0
H394 H 0.75563 0.52053 0.1572 0.0
H395 H 0.78986 0.61531 0.12844 0.0
H396 H 0.73058 0.61632 0.12127 0.0
H397 H 0.83349 0.61762 0.16403 0.0
H398 H 0.78141 0.53452 0.09999 0.0
H399 H 0.73852 0.48283 0.07874 0.0
H400 H 0.76567 0.41612 0.12187 0.0
H401 H 0.8084 0.46756 0.14359 0.0
C402 C 0.98046 0.5922 0.14421 0.0
C403 C 0.99129 0.56475 0.15188 0.0
C404 C 0.94605 0.59221 0.14348 0.0
C405 C 0.92117 0.56485 0.15044 0.0
C406 C 0.93181 0.53711 0.1578 0.0
C407 C 0.9663 0.53715 0.15862 0.0
C408 C 0.88427 0.56519 0.1499 0.0
C409 C 0.85804 0.53587 0.13904 0.0
C410 C 0.87487 0.59482 0.15925 0.0
C411 C 0.90045 0.62564 0.17247 0.0
C412 C 0.92127 0.62116 0.19031 0.0
C413 C 0.94545 0.65025 0.20266 0.0
C414 C 0.94888 0.68402 0.19744 0.0
C415 C 0.92808 0.68877 0.17988 0.0
C416 C 0.90388 0.65975 0.16745 0.0
C417 C 0.71631 0.54265 0.14571 0.0
C418 C 0.70837 0.5692 0.13519 0.0
C419 C 0.75049 0.54181 0.14957 0.0
C420 C 0.77767 0.56763 0.14316 0.0
C421 C 0.76974 0.59499 0.13358 0.0
C422 C 0.7357 0.59559 0.12949 0.0
C423 C 0.81411 0.56577 0.14558 0.0
C424 C 0.84026 0.59485 0.15675 0.0
C425 C 0.82341 0.53588 0.1366 0.0
C426 C 0.7978 0.50494 0.12357 0.0
C427 C 0.77802 0.50888 0.10506 0.0
C428 C 0.75378 0.47962 0.09291 0.0
C429 C 0.7493 0.44622 0.09899 0.0
C430 C 0.76912 0.44201 0.11721 0.0
C431 C 0.79336 0.47121 0.12944 0.0
H432 H 0.73053 0.4236 0.08955 0.0
H433 H 0.9676 0.70651 0.20703 0.0
H434 H 0.36666 0.90232 0.47354 0.0
H435 H 0.31842 0.84894 0.4652 0.0
H436 H 0.34357 0.81867 0.52716 0.0
H437 H 0.39241 0.87199 0.53544 0.0
H438 H 0.32598 0.76285 0.49637 0.0
H439 H 0.27718 0.85484 0.51882 0.0
H440 H 0.26642 0.91256 0.51895 0.0
H441 H 0.22291 0.88348 0.4521 0.0
H442 H 0.23385 0.82576 0.45147 0.0
H443 H 0.16232 0.63191 0.48808 0.0
H444 H 0.21228 0.68307 0.50074 0.0
H445 H 0.2012 0.7214 0.43953 0.0
H446 H 0.15111 0.67113 0.42705 0.0
H447 H 0.21087 0.77296 0.47348 0.0
H448 H 0.26275 0.68201 0.45088 0.0
H449 H 0.27354 0.62436 0.45108 0.0
H450 H 0.31057 0.65149 0.51906 0.0
H451 H 0.29955 0.70916 0.51934 0.0
C452 C 0.36184 0.88437 0.48543 0.0
C453 C 0.38311 0.89152 0.50524 0.0
C454 C 0.33423 0.85386 0.48066 0.0
C455 C 0.3269 0.8301 0.49574 0.0
C456 C 0.34863 0.83668 0.51531 0.0
C457 C 0.37652 0.86711 0.52002 0.0
C458 C 0.29639 0.79862 0.49103 0.0
C459 C 0.30071 0.7651 0.49172 0.0
C460 C 0.26343 0.80145 0.4847 0.0
C461 C 0.25658 0.83607 0.48506 0.0
C462 C 0.26552 0.86084 0.5041 0.0
C463 C 0.25937 0.89355 0.50427 0.0
C464 C 0.24406 0.90171 0.48553 0.0
C465 C 0.23479 0.87714 0.4666 0.0
C466 C 0.24093 0.8444 0.46634 0.0
C467 C 0.17056 0.65131 0.47737 0.0
C468 C 0.15292 0.64729 0.4565 0.0
C469 C 0.19921 0.68038 0.48456 0.0
C470 C 0.21063 0.70592 0.47101 0.0
C471 C 0.19293 0.702 0.45024 0.0
C472 C 0.16446 0.67303 0.44306 0.0
C473 C 0.2406 0.73722 0.47841 0.0
C474 C 0.23611 0.77074 0.47829 0.0
C475 C 0.27329 0.73435 0.48535 0.0
C476 C 0.27996 0.69973 0.48519 0.0
C477 C 0.27291 0.67556 0.46592 0.0
C478 C 0.27912 0.64291 0.46593 0.0
C479 C 0.29263 0.63422 0.48509 0.0
C480 C 0.30004 0.65823 0.50425 0.0
C481 C 0.29384 0.69091 0.50433 0.0
H482 H 0.29743 0.60893 0.48506 0.0
H483 H 0.23932 0.92705 0.4857 0.0
H484 H 0.58613 0.41427 0.8082 0.0
H485 H 0.58593 0.35352 0.8096 0.0
H486 H 0.67716 0.38945 0.8556 0.0
H487 H 0.67807 0.4505 0.85391 0.0
H488 H 0.68238 0.33856 0.82672 0.0
H489 H 0.59816 0.35254 0.87184 0.0
H490 H 0.5476 0.36922 0.88251 0.0
H491 H 0.48406 0.29394 0.83029 0.0
H492 H 0.5343 0.27721 0.81903 0.0
H493 H 0.65944 0.1564 0.8399 0.0
H494 H 0.66389 0.21915 0.84999 0.0
H495 H 0.58336 0.21009 0.79879 0.0
H496 H 0.57906 0.14794 0.78869 0.0
H497 H 0.57639 0.24856 0.83753 0.0
H498 H 0.6646 0.24141 0.7907 0.0
H499 H 0.71623 0.22584 0.78113 0.0
H500 H 0.77347 0.28931 0.83973 0.0
H501 H 0.722 0.30483 0.8498 0.0
C502 C 0.6062 0.40936 0.81866 0.0
C503 C 0.63204 0.43737 0.83101 0.0
C504 C 0.60592 0.37452 0.81954 0.0
C505 C 0.63116 0.36679 0.83304 0.0
C506 C 0.65731 0.39469 0.84516 0.0
C507 C 0.65776 0.42964 0.84418 0.0
C508 C 0.63043 0.32956 0.83403 0.0
C509 C 0.6594 0.31903 0.82955 0.0
C510 C 0.60049 0.30396 0.8377 0.0
C511 C 0.5701 0.31377 0.8445 0.0
C512 C 0.57346 0.3397 0.86253 0.0
C513 C 0.54484 0.34915 0.8687 0.0
C514 C 0.51267 0.33268 0.85708 0.0
C515 C 0.50901 0.30668 0.83928 0.0
C516 C 0.53755 0.29718 0.833 0.0
C517 C 0.64248 0.16786 0.83106 0.0
C518 C 0.61907 0.14755 0.81345 0.0
C519 C 0.64513 0.20362 0.83674 0.0
C520 C 0.6241 0.21931 0.82502 0.0
C521 C 0.59982 0.19856 0.80804 0.0
C522 C 0.59748 0.16313 0.80222 0.0
C523 C 0.62791 0.25759 0.82957 0.0
C524 C 0.59952 0.2683 0.83514 0.0
C525 C 0.6585 0.28338 0.82719 0.0
C526 C 0.68934 0.27387 0.82115 0.0
C527 C 0.6881 0.25175 0.80165 0.0
C528 C 0.71736 0.24299 0.79611 0.0
C529 C 0.74809 0.25648 0.80985 0.0
C530 C 0.74964 0.27881 0.82913 0.0
C531 C 0.72043 0.28759 0.83476 0.0
H532 H 0.77073 0.24971 0.80552 0.0
H533 H 0.49054 0.34004 0.86189 0.0
H534 H 0.63863 0.94632 0.49364 0.0
H535 H 0.63547 0.88479 0.49599 0.0
H536 H 0.53024 0.86414 0.50835 0.0
H537 H 0.53337 0.9255 0.50642 0.0
H538 H 0.56322 0.83696 0.53616 0.0
H539 H 0.55417 0.83537 0.45856 0.0
H540 H 0.57236 0.85458 0.42414 0.0
H541 H 0.66574 0.82769 0.43653 0.0
H542 H 0.64828 0.80873 0.47119 0.0
H543 H 0.50079 0.65169 0.51462 0.0
H544 H 0.51383 0.71507 0.51446 0.0
H545 H 0.61915 0.72156 0.50778 0.0
H546 H 0.60603 0.6576 0.50766 0.0
H547 H 0.59269 0.75713 0.47885 0.0
H548 H 0.5986 0.75383 0.55524 0.0
H549 H 0.57919 0.73394 0.58923 0.0
H550 H 0.49046 0.76962 0.57877 0.0
H551 H 0.50908 0.78926 0.54453 0.0
C552 C 0.61469 0.92859 0.4966 0.0
C553 C 0.58627 0.94096 0.49984 0.0
C554 C 0.61291 0.89335 0.49793 0.0
C555 C 0.58256 0.86964 0.50228 0.0
C556 C 0.55401 0.88185 0.5051 0.0
C557 C 0.55582 0.91702 0.5039 0.0
C558 C 0.58056 0.83239 0.50456 0.0
C559 C 0.56934 0.81945 0.5235 0.0
C560 C 0.58959 0.8097 0.48841 0.0
C561 C 0.60009 0.82101 0.46758 0.0
C562 C 0.5787 0.83382 0.45403 0.0
C563 C 0.58886 0.84462 0.43447 0.0
C564 C 0.62023 0.84246 0.42819 0.0
C565 C 0.64147 0.82941 0.44144 0.0
C566 C 0.63145 0.81861 0.46103 0.0
C567 C 0.52679 0.6666 0.51322 0.0
C568 C 0.55237 0.64959 0.51108 0.0
C569 C 0.53426 0.70291 0.51326 0.0
C570 C 0.56752 0.7232 0.51122 0.0
C571 C 0.59331 0.70645 0.5094 0.0
C572 C 0.58587 0.66999 0.50951 0.0
C573 C 0.57467 0.76161 0.51023 0.0
C574 C 0.58689 0.77477 0.49157 0.0
C575 C 0.56641 0.78451 0.5266 0.0
C576 C 0.55513 0.77278 0.54722 0.0
C577 C 0.57481 0.75719 0.56009 0.0
C578 C 0.56397 0.746 0.57943 0.0
C579 C 0.53358 0.75045 0.58614 0.0
C580 C 0.51399 0.76617 0.57354 0.0
C581 C 0.5247 0.77737 0.55418 0.0
H582 H 0.52523 0.74178 0.60111 0.0
H583 H 0.62805 0.85083 0.41303 0.0
H584 H 0.82335 0.49784 0.81361 0.0
H585 H 0.87141 0.47517 0.80587 0.0
H586 H 0.88532 0.45877 0.87278 0.0
H587 H 0.83703 0.48072 0.88038 0.0
H588 H 0.932 0.50978 0.82281 0.0
H589 H 0.92947 0.40325 0.88086 0.0
H590 H 0.88785 0.35061 0.88974 0.0
H591 H 0.82724 0.33951 0.8285 0.0
H592 H 0.86873 0.39173 0.81905 0.0
H593 H 0.06644 0.51926 0.89886 0.0
H594 H 1.01077 0.48042 0.8841 0.0
H595 H 1.0431 0.47437 0.82009 0.0
H596 H 0.10016 0.51238 0.835 0.0
H597 H 0.9713 0.41718 0.85412 0.0
H598 H 0.99356 0.50847 0.79276 0.0
H599 H 1.03619 0.56213 0.78564 0.0
H600 H 1.05372 0.60238 0.8538 0.0
H601 H 1.01091 0.54917 0.8612 0.0
C602 C 0.83622 0.48856 0.8265 0.0
C603 C 0.82689 0.49149 0.84768 0.0
C604 C 0.86349 0.4754 0.82203 0.0
C605 C 0.88201 0.46514 0.83869 0.0
C606 C 0.87108 0.46575 0.85949 0.0
C607 C 0.8436 0.47859 0.86391 0.0
C608 C 0.91618 0.46071 0.83575 0.0
C609 C 0.94014 0.4886 0.82876 0.0
C610 C 0.92715 0.43336 0.84371 0.0
C611 C 0.90229 0.40158 0.84926 0.0
C612 C 0.90745 0.38945 0.86918 0.0
C613 C 0.88381 0.3597 0.87434 0.0
C614 C 0.8549 0.34175 0.85971 0.0
C615 C 0.8496 0.35348 0.83985 0.0
C616 C 0.87315 0.3832 0.8346 0.0
C617 C 1.06275 0.5081 0.88189 0.0
C618 C 0.08774 0.51975 0.86807 0.0
C619 C 1.03062 0.48567 0.87344 0.0
C620 C 1.02265 0.47505 0.85097 0.0
C621 C 1.04878 0.4825 0.8375 0.0
C622 C 0.08122 0.50469 0.84601 0.0
C623 C 0.98644 0.46664 0.84186 0.0
C624 C 0.96238 0.43689 0.84687 0.0
C625 C 0.97505 0.49208 0.83197 0.0
C626 C 0.99927 0.52492 0.82749 0.0
C627 C 1.00634 0.52895 0.80615 0.0
C628 C 1.03055 0.55923 0.80209 0.0
C629 C 1.04768 0.58563 0.81927 0.0
C630 C 1.04041 0.58195 0.84052 0.0
C631 C 1.01616 0.5518 0.84465 0.0
H632 H 0.06659 0.60892 0.81611 0.0
H633 H 0.83663 0.31875 0.86375 0.0
H634 H 0.24839 0.80706 0.13719 0.0
H635 H 0.30291 0.85323 0.14509 0.0
H636 H 0.35005 0.78069 0.17145 0.0
H637 H 0.29593 0.73386 0.16289 0.0
H638 H 0.36224 0.84461 0.19891 0.0
H639 H 0.36995 0.80421 0.12468 0.0
H640 H 0.35011 0.78772 0.08549 0.0
H641 H 0.34524 0.89274 0.08143 0.0
H642 H 0.36456 0.90975 0.12069 0.0
H643 H 0.52907 0.96295 0.21627 0.0
H644 H 0.48118 0.91055 0.20258 0.0
H645 H 0.43059 0.97384 0.16881 0.0
H646 H 0.47843 0.02621 0.18232 0.0
H647 H 0.42214 0.91178 0.14437 0.0
H648 H 0.40951 0.95146 0.21806 0.0
H649 H 0.42769 0.96921 0.25738 0.0
H650 H 0.43949 0.86696 0.26267 0.0
H651 H 0.42187 0.84877 0.22328 0.0
C652 C 0.27045 0.80059 0.14422 0.0
C653 C 0.2676 0.76662 0.14942 0.0
C654 C 0.3016 0.82712 0.14883 0.0
C655 C 0.33052 0.82034 0.15881 0.0
C656 C 0.32797 0.78647 0.16381 0.0
C657 C 0.29693 0.7598 0.15902 0.0
C658 C 0.36297 0.84907 0.16488 0.0
C659 C 0.37571 0.8589 0.18695 0.0
C660 C 0.37995 0.86826 0.14931 0.0
C661 C 0.36841 0.85816 0.12568 0.0
C662 C 0.36436 0.82372 0.11548 0.0
C663 C 0.35327 0.81429 0.09324 0.0
C664 C 0.34634 0.83914 0.08099 0.0
C665 C 0.35058 0.87351 0.09094 0.0
C666 C 0.36163 0.88306 0.11319 0.0
C667 C 0.5078 0.96563 0.20584 0.0
C668 C 0.50744 0.99875 0.20049 0.0
C669 C 0.48047 0.93569 0.19802 0.0
C670 C 0.45204 0.93836 0.18494 0.0
C671 C 0.45224 0.97113 0.17887 0.0
C672 C 0.47965 1.00104 0.18657 0.0
C673 C 0.42138 0.90743 0.17844 0.0
C674 C 0.40888 0.89727 0.15631 0.0
C675 C 0.40437 0.88811 0.19397 0.0
C676 C 0.41474 0.89889 0.21768 0.0
C677 C 0.41624 0.93285 0.22758 0.0
C678 C 0.4264 0.94298 0.24988 0.0
C679 C 0.43483 0.91926 0.2625 0.0
C680 C 0.43301 0.88532 0.25286 0.0
C681 C 0.42293 0.87508 0.23055 0.0
H682 H 0.4427 0.92715 0.27977 0.0
H683 H 0.33776 0.83179 0.06377 0.0
H684 H 0.54523 0.15605 0.52234 0.0
H685 H 0.5469 0.21784 0.52277 0.0
H686 H 0.65288 0.24395 0.51179 0.0
H687 H 0.65126 0.18193 0.51078 0.0
H688 H 0.63328 0.2898 0.54733 0.0
H689 H 0.60477 0.24115 0.47145 0.0
H690 H 0.57121 0.19727 0.44076 0.0
H691 H 0.48006 0.22317 0.45585 0.0
H692 H 0.51298 0.26672 0.48692 0.0
H693 H 0.64903 0.46461 0.5333 0.0
H694 H 0.65208 0.4041 0.52565 0.0
H695 H 0.54187 0.36607 0.51531 0.0
H696 H 0.53901 0.42687 0.52187 0.0
H697 H 0.56581 0.32568 0.48929 0.0
H698 H 0.58997 0.37036 0.56525 0.0
H699 H 0.61986 0.41214 0.5978 0.0
H700 H 0.71432 0.39139 0.58527 0.0
H701 H 0.68505 0.34985 0.55246 0.0
C702 C 0.56898 0.17493 0.52016 0.0
C703 C 0.59814 0.16409 0.51657 0.0
C704 C 0.56983 0.21019 0.52031 0.0
C705 C 0.59996 0.23536 0.51722 0.0
C706 C 0.62938 0.22486 0.51418 0.0
C707 C 0.62838 0.18944 0.51359 0.0
C708 C 0.60052 0.2726 0.51704 0.0
C709 C 0.61905 0.29787 0.53448 0.0
C710 C 0.58104 0.2827 0.50058 0.0
C711 C 0.5613 0.25697 0.48166 0.0
C712 C 0.57752 0.23728 0.46835 0.0
C713 C 0.55862 0.21249 0.45086 0.0
C714 C 0.52351 0.20738 0.44638 0.0
C715 C 0.50726 0.22713 0.45935 0.0
C716 C 0.52603 0.25188 0.4769 0.0
C717 C 0.62556 0.44331 0.52883 0.0
C718 C 0.5938 0.45024 0.52814 0.0
C719 C 0.62725 0.40873 0.52466 0.0
C720 C 0.59718 0.38029 0.52049 0.0
C721 C 0.56545 0.38743 0.51858 0.0
C722 C 0.56379 0.42214 0.52229 0.0
C723 C 0.5987 0.34328 0.51965 0.0
C724 C 0.58038 0.31789 0.50208 0.0
C725 C 0.61789 0.33287 0.53625 0.0
C726 C 0.63541 0.35736 0.55622 0.0
C727 C 0.61716 0.37488 0.56935 0.0
C728 C 0.63398 0.3985 0.58786 0.0
C729 C 0.66899 0.40451 0.59356 0.0
C730 C 0.68722 0.38679 0.58081 0.0
C731 C 0.67053 0.36321 0.56224 0.0
H732 H 0.68198 0.42282 0.60789 0.0
H733 H 0.50893 0.18817 0.43284 0.0
H734 H 0.4672 0.635 0.7712 0.0
H735 H 0.41918 0.66012 0.77031 0.0
H736 H 0.34846 0.55566 0.76174 0.0
H737 H 0.39627 0.5304 0.76259 0.0
H738 H 0.3231 0.60122 0.73955 0.0
H739 H 0.3759 0.5983 0.8116 0.0
H740 H 0.42467 0.6119 0.84026 0.0
H741 H 0.44152 0.72254 0.83882 0.0
H742 H 0.39311 0.70952 0.80989 0.0
H743 H 0.18576 0.60474 0.7996 0.0
H744 H 0.23301 0.59788 0.77995 0.0
H745 H 0.28565 0.70845 0.79868 0.0
H746 H 0.23901 0.71514 0.81919 0.0
H747 H 0.32383 0.67046 0.81108 0.0
H748 H 0.26065 0.67152 0.74422 0.0
H749 H 0.21088 0.65595 0.71619 0.0
H750 H 0.21153 0.54799 0.70814 0.0
H751 H 0.26099 0.56277 0.73635 0.0
C752 C 0.44138 0.6174 0.76878 0.0
C753 C 0.43544 0.58078 0.76732 0.0
C754 C 0.41402 0.63176 0.76814 0.0
C755 C 0.38034 0.60974 0.76627 0.0
C756 C 0.37427 0.57309 0.76314 0.0
C757 C 0.40162 0.5587 0.76367 0.0
C758 C 0.35191 0.62462 0.77067 0.0
C759 C 0.32311 0.61643 0.75514 0.0
C760 C 0.3524 0.64509 0.79085 0.0
C761 C 0.38121 0.65295 0.80842 0.0
C762 C 0.39017 0.62552 0.8173 0.0
C763 C 0.41772 0.63312 0.83359 0.0
C764 C 0.43625 0.66806 0.84131 0.0
C765 C 0.42719 0.69549 0.83279 0.0
C766 C 0.39971 0.68802 0.81645 0.0
C767 C 0.20713 0.62773 0.79921 0.0
C768 C 0.20894 0.66034 0.81126 0.0
C769 C 0.23396 0.62389 0.7877 0.0
C770 C 0.26291 0.65268 0.78779 0.0
C771 C 0.26353 0.68589 0.79838 0.0
C772 C 0.23676 0.68972 0.81 0.0
C773 C 0.29439 0.64671 0.78008 0.0
C774 C 0.3239 0.65629 0.79515 0.0
C775 C 0.29428 0.62736 0.75954 0.0
C776 C 0.26449 0.61827 0.74251 0.0
C777 C 0.25004 0.6444 0.7366 0.0
C778 C 0.2219 0.63572 0.72064 0.0
C779 C 0.20803 0.60099 0.71041 0.0
C780 C 0.22231 0.57488 0.71608 0.0
C781 C 0.25045 0.58342 0.73203 0.0
H782 H 0.18624 0.59433 0.69806 0.0
H783 H 0.45758 0.6739 0.85392 0.0
H784 H 0.95291 0.33565 0.20063 0.0
H785 H 0.89682 0.29553 0.20345 0.0
H786 H 0.84803 0.36524 0.17517 0.0
H787 H 0.90385 0.40477 0.17128 0.0
H788 H 0.82146 0.34004 0.21389 0.0
H789 H 0.84984 0.29696 0.144 0.0
H790 H 0.88657 0.27526 0.11986 0.0
H791 H 0.88162 0.18882 0.15562 0.0
H792 H 0.84524 0.21034 0.18019 0.0
H793 H 0.65114 0.23847 0.18319 0.0
H794 H 0.70974 0.27571 0.18573 0.0
H795 H 0.74677 0.18817 0.19858 0.0
H796 H 0.68791 0.14995 0.19462 0.0
H797 H 0.78203 0.22061 0.17079 0.0
H798 H 0.75108 0.25903 0.23907 0.0
H799 H 0.71591 0.27992 0.26476 0.0
H800 H 0.72759 0.37355 0.23506 0.0
H801 H 0.76244 0.35301 0.20897 0.0
C802 C 0.93033 0.34233 0.19471 0.0
C803 C 0.93309 0.37351 0.1856 0.0
C804 C 0.89828 0.31946 0.19652 0.0
C805 C 0.86836 0.32744 0.18948 0.0
C806 C 0.87089 0.35875 0.1808 0.0
C807 C 0.90289 0.38141 0.1787 0.0
C808 C 0.83432 0.30286 0.19077 0.0
C809 C 0.81261 0.31402 0.20435 0.0
C810 C 0.82345 0.26851 0.17891 0.0
C811 C 0.84516 0.25548 0.16408 0.0
C812 C 0.85684 0.27351 0.14684 0.0
C813 C 0.87754 0.26121 0.13305 0.0
C814 C 0.88651 0.23074 0.13625 0.0
C815 C 0.87471 0.21246 0.15319 0.0
C816 C 0.85403 0.22468 0.16705 0.0
C817 C 0.67167 0.22694 0.18639 0.0
C818 C 0.66466 0.19104 0.18854 0.0
C819 C 0.70529 0.2485 0.18819 0.0
C820 C 0.73282 0.23498 0.19269 0.0
C821 C 0.72599 0.19929 0.19519 0.0
C822 C 0.69227 0.17753 0.19314 0.0
C823 C 0.7686 0.25785 0.19373 0.0
C824 C 0.79078 0.24643 0.18057 0.0
C825 C 0.78009 0.2918 0.20626 0.0
C826 C 0.75917 0.30433 0.22195 0.0
C827 C 0.74595 0.28396 0.23791 0.0
C828 C 0.7261 0.29576 0.25256 0.0
C829 C 0.71946 0.328 0.25152 0.0
C830 C 0.73273 0.34856 0.23584 0.0
C831 C 0.75258 0.33687 0.22113 0.0
H832 H 0.70409 0.33709 0.26288 0.0
H833 H 0.90254 0.22125 0.12555 0.0
H834 H 0.14174 0.51861 0.0944 0.0
H835 H 0.15991 0.54077 0.061 0.0
H836 H 0.08721 0.60072 0.06246 0.0
H837 H 0.06904 0.57874 0.09595 0.0
H838 H 0.08406 0.5623 0.02266 0.0
H839 H 0.16708 0.64078 0.07569 0.0
H840 H 0.21129 0.65956 0.10731 0.0
H841 H 0.27798 0.61487 0.07178 0.0
H842 H 0.23347 0.59365 0.04029 0.0
H843 H 0.14002 0.64449 0.93414 0.0
H844 H 0.14068 0.64764 0.97361 0.0
H845 H 0.18489 0.56154 0.97238 0.0
H846 H 0.18384 0.55792 0.93281 0.0
H847 H 0.2045 0.62272 0.01362 0.0
H848 H 0.11054 0.52777 0.96824 0.0
H849 H 0.06617 0.50816 0.93663 0.0
H850 H 1.02271 0.59035 0.95859 0.0
H851 H 0.06688 0.61027 0.99045 0.0
C852 C 0.12955 0.53637 0.08751 0.0
C853 C 0.10388 0.54687 0.09758 0.0
C854 C 0.14016 0.54926 0.0686 0.0
C855 C 0.12512 0.57264 0.05945 0.0
C856 C 0.09919 0.58281 0.06937 0.0
C857 C 0.0888 0.5702 0.08839 0.0
C858 C 0.13532 0.58503 0.03891 0.0
C859 C 0.11029 0.57612 0.02088 0.0
C860 C 0.16967 0.60281 0.03658 0.0
C861 C 0.19659 0.61517 0.0556 0.0
C862 C 0.19088 0.63426 0.07468 0.0
C863 C 0.216 0.6453 0.09262 0.0
C864 C 0.24729 0.63815 0.09159 0.0
C865 C 0.25353 0.6199 0.07262 0.0
C866 C 0.2283 0.60825 0.05473 0.0
C867 C 0.15123 0.62726 0.94241 0.0
C868 C 0.16169 0.60081 0.93052 0.0
C869 C 0.15164 0.62913 0.96492 0.0
C870 C 0.16288 0.60486 0.97579 0.0
C871 C 0.17649 0.58072 0.96424 0.0
C872 C 0.17566 0.57851 0.94169 0.0
C873 C 0.15331 0.59935 -0.00233 0.0
C874 C 0.17831 0.60943 0.01577 0.0
C875 C 0.11897 0.58285 0.00031 0.0
C876 C 0.09201 0.57059 0.98154 0.0
C877 C 0.09155 0.54168 0.96625 0.0
C878 C 0.06646 0.53052 0.94831 0.0
C879 C 1.04174 0.54814 0.9455 0.0
C880 C 1.04191 0.57678 0.96076 0.0
C881 C 0.06689 0.58794 0.97879 0.0
H882 H 1.0224 0.53953 0.93155 0.0
H883 H 0.26678 0.64692 0.10546 0.0
H884 H 0.56091 0.11148 0.45031 0.0
H885 H 0.57051 0.12183 0.41318 0.0
H886 H 0.59879 0.02549 0.402 0.0
H887 H 0.5913 0.01638 0.4397 0.0
H888 H 0.63647 0.07121 0.3816 0.0
H889 H 0.51447 0.03229 0.38583 0.0
H890 H 0.46129 0.03543 0.40072 0.0
H891 H 0.47641 0.13954 0.38414 0.0
H892 H 0.52982 0.13708 0.3693 0.0
H893 H 0.58786 0.02294 0.26769 0.0
H894 H 0.59598 0.02887 0.30737 0.0
H895 H 0.5803 0.13167 0.31172 0.0
H896 H 0.57161 0.12562 0.27197 0.0
H897 H 0.53986 0.08956 0.33604 0.0
H898 H 0.65843 0.12389 0.32698 0.0
H899 H 0.71078 0.11902 0.31169 0.0
H900 H 0.70135 0.02152 0.33665 0.0
H901 H 0.64865 0.02553 0.35182 0.0
C902 C 0.56939 0.09267 0.43993 0.0
C903 C 0.57485 0.06284 0.44764 0.0
C904 C 0.57474 0.0985 0.41868 0.0
C905 C 0.58439 0.0739 0.4045 0.0
C906 C 0.59113 0.04475 0.41254 0.0
C907 C 0.58669 0.03944 0.43401 0.0
C908 C 0.58598 0.07762 0.38111 0.0
C909 C 0.61521 0.0749 0.3716 0.0
C910 C 0.55865 0.08338 0.36809 0.0
C911 C 0.52623 0.08461 0.37663 0.0
C912 C 0.50648 0.05588 0.38543 0.0
C913 C 0.47631 0.05753 0.39385 0.0
C914 C 0.46552 0.08769 0.39341 0.0
C915 C 0.4848 0.1162 0.38447 0.0
C916 C 0.51499 0.11467 0.37602 0.0
C917 C 0.58654 0.04698 0.27712 0.0
C918 C 0.579 0.07377 0.26674 0.0
C919 C 0.59145 0.05046 0.29978 0.0
C920 C 0.58894 0.08081 0.31251 0.0
C921 C 0.58247 0.10809 0.3022 0.0
C922 C 0.57774 0.1047 0.2795 0.0
C923 C 0.59009 0.08258 0.33647 0.0
C924 C 0.56129 0.08626 0.34608 0.0
C925 C 0.61766 0.07737 0.34946 0.0
C926 C 0.64942 0.07489 0.3404 0.0
C927 C 0.66736 0.10126 0.32906 0.0
C928 C 0.69713 0.09868 0.32044 0.0
C929 C 0.70935 0.06995 0.32316 0.0
C930 C 0.69185 0.04376 0.33455 0.0
C931 C 0.66205 0.0462 0.34318 0.0
H932 H 0.7324 0.068 0.31648 0.0
H933 H 0.44218 0.08895 0.39997 0.0
H934 H 0.62918 0.50268 0.7684 0.0
H935 H 0.61909 0.50318 0.72921 0.0
H936 H 0.66947 0.61507 0.73873 0.0
H937 H 0.68116 0.61412 0.77768 0.0
H938 H 0.58541 0.53091 0.70452 0.0
H939 H 0.70854 0.64024 0.69577 0.0
H940 H 0.76798 0.66474 0.71332 0.0
H941 H 0.76382 0.56607 0.7355 0.0
H942 H 0.70453 0.54087 0.71787 0.0
H943 H 0.56638 0.56332 0.59646 0.0
H944 H 0.57845 0.57489 0.63602 0.0
H945 H 0.66604 0.53559 0.6324 0.0
H946 H 0.65574 0.52659 0.5929 0.0
H947 H 0.68074 0.58524 0.66383 0.0
H948 H 0.58402 0.48348 0.64156 0.0
H949 H 0.52673 0.45002 0.62316 0.0
H950 H 0.48195 0.51783 0.66162 0.0
H951 H 0.53907 0.552 0.68005 0.0
C952 C 0.63818 0.52728 0.76203 0.0
C953 C 0.65634 0.55825 0.77591 0.0
C954 C 0.63228 0.52763 0.73968 0.0
C955 C 0.64404 0.55905 0.73087 0.0
C956 C 0.66099 0.59029 0.74496 0.0
C957 C 0.66755 0.58977 0.76723 0.0
C958 C 0.63899 0.55895 0.70696 0.0
C959 C 0.60628 0.54288 0.69566 0.0
C960 C 0.66624 0.57404 0.69522 0.0
C961 C 0.70199 0.58883 0.7057 0.0
C962 C 0.72037 0.62376 0.70434 0.0
C963 C 0.75401 0.63776 0.71431 0.0
C964 C 0.76962 0.61701 0.72559 0.0
C965 C 0.75166 0.58216 0.72684 0.0
C966 C 0.71802 0.56802 0.71688 0.0
C967 C 0.58882 0.55812 0.60401 0.0
C968 C 0.60979 0.5435 0.59141 0.0
C969 C 0.59539 0.56426 0.62671 0.0
C970 C 0.6226 0.55517 0.6373 0.0
C971 C 0.64469 0.54254 0.62471 0.0
C972 C 0.63853 0.53702 0.60206 0.0
C973 C 0.62722 0.55699 0.66137 0.0
C974 C 0.65982 0.57351 0.67272 0.0
C975 C 0.60019 0.54102 0.67303 0.0
C976 C 0.56583 0.52053 0.66199 0.0
C977 C 0.56197 0.4914 0.64598 0.0
C978 C 0.52954 0.47229 0.63556 0.0
C979 C 0.50073 0.48186 0.64117 0.0
C980 C 0.50429 0.5105 0.65726 0.0
C981 C 0.53668 0.52974 0.66769 0.0
H982 H 0.47563 0.46702 0.6331 0.0
H983 H 0.79566 0.62791 0.73331 0.0
H984 H 0.59016 0.088 0.57327 0.0
H985 H 0.58859 0.08516 0.61224 0.0
H986 H 0.63326 0.99914 0.6064 0.0
H987 H 0.63616 1.00295 0.56776 0.0
H988 H 0.56014 0.03981 0.63678 0.0
H989 H 0.68686 1.00393 0.65088 0.0
H990 H 0.74126 0.0116 0.63506 0.0
H991 H 0.72993 0.10436 0.61069 0.0
H992 H 0.67573 0.09749 0.62659 0.0
H993 H 0.57599 0.01052 0.74638 0.0
H994 H 0.57532 1.00083 0.70685 0.0
H995 H 0.66164 0.09347 0.71117 0.0
H996 H 0.66364 0.10208 0.7506 0.0
H997 H 0.66838 0.04712 0.68134 0.0
H998 H 0.57674 0.09433 0.69925 0.0
H999 H 0.52454 0.09596 0.71585 0.0
H1000 H 0.46947 0.99683 0.67753 0.0
H1001 H 0.52152 0.99439 0.66091 0.0
C1002 C 0.59949 0.06843 0.58035 0.0
C1003 C 0.6138 0.04609 0.56767 0.0
C1004 C 0.59847 0.06671 0.60257 0.0
C1005 C 0.61144 0.04238 0.61237 0.0
C1006 C 0.62393 0.01873 0.59936 0.0
C1007 C 0.62547 0.02085 0.57727 0.0
C1008 C 0.61332 0.0428 0.6363 0.0
C1009 C 0.58377 0.04124 0.6465 0.0
C1010 C 0.64428 0.04531 0.64911 0.0
C1011 C 0.67707 0.04993 0.63971 0.0
C1012 C 0.69605 0.02601 0.6422 0.0
C1013 C 0.72684 0.03022 0.63321 0.0
C1014 C 0.73898 0.05838 0.62181 0.0
C1015 C 0.72044 0.08249 0.61945 0.0
C1016 C 0.68967 0.07843 0.62843 0.0
C1017 C 0.59536 0.02828 0.73895 0.0
C1018 C 0.61963 0.05734 0.75163 0.0
C1019 C 0.59468 0.02297 0.71631 0.0
C1020 C 0.61794 0.04689 0.70595 0.0
C1021 C 0.64327 0.07477 0.71871 0.0
C1022 C 0.6442 0.07984 0.74128 0.0
C1023 C 0.61521 0.04416 0.68186 0.0
C1024 C 0.64462 0.04525 0.6716 0.0
C1025 C 0.58444 0.04252 0.66913 0.0
C1026 C 0.5531 0.04399 0.67903 0.0
C1027 C 0.55356 0.07276 0.69448 0.0
C1028 C 0.524 0.07385 0.70388 0.0
C1029 C 0.49373 0.04647 0.6978 0.0
C1030 C 0.49295 0.01799 0.68226 0.0
C1031 C 0.52247 0.01674 0.67284 0.0
H1032 H 0.47087 0.04736 0.70508 0.0
H1033 H 0.7628 0.06157 0.61485 0.0
H1034 H 0.64845 0.55024 0.89259 0.0
H1035 H 0.6502 0.55327 0.93216 0.0
H1036 H 0.54527 0.55487 0.92778 0.0
H1037 H 0.54309 0.55074 0.88803 0.0
H1038 H 0.60451 0.60988 0.96275 0.0
H1039 H 0.54587 0.48559 0.93466 0.0
H1040 H 0.54236 0.42985 0.91162 0.0
H1041 H 0.63854 0.42908 0.94395 0.0
H1042 H 0.64287 0.48512 0.96693 0.0
H1043 H 0.58636 0.59232 0.0731 0.0
H1044 H 0.57485 0.58791 0.03377 0.0
H1045 H 0.6459 0.52688 0.02536 0.0
H1046 H 0.65448 0.52769 0.06432 0.0
H1047 H 0.59963 0.50171 0.99566 0.0
H1048 H 0.66408 0.62119 0.02174 0.0
H1049 H 0.67783 0.67987 0.04371 0.0
H1050 H 0.58481 0.69425 0.01511 0.0
H1051 H 0.5703 0.63543 0.99316 0.0
C1052 C 0.62588 0.55147 0.90007 0.0
C1053 C 0.59566 0.5502 0.88729 0.0
C1054 C 0.62689 0.55316 0.92263 0.0
C1055 C 0.59785 0.55425 0.9328 0.0
C1056 C 0.56792 0.55408 0.92017 0.0
C1057 C 0.5667 0.55164 0.89753 0.0
C1058 C 0.59861 0.55436 0.95656 0.0
C1059 C 0.60287 0.58621 0.97006 0.0
C1060 C 0.59782 0.52371 0.96593 0.0
C1061 C 0.59484 0.4897 0.95236 0.0
C1062 C 0.5664 0.47369 0.93672 0.0
C1063 C 0.56424 0.44201 0.9237 0.0
C1064 C 0.59026 0.42599 0.92628 0.0
C1065 C 0.61843 0.44154 0.94194 0.0
C1066 C 0.62073 0.47323 0.95498 0.0
C1067 C 0.59898 0.57725 0.06294 0.0
C1068 C 0.62181 0.5608 0.07216 0.0
C1069 C 0.59284 0.57531 0.04033 0.0
C1070 C 0.61019 0.55789 0.0264 0.0
C1071 C 0.63226 0.54074 0.03557 0.0
C1072 C 0.63762 0.54176 0.05805 0.0
C1073 C 0.6058 0.55753 0.00235 0.0
C1074 C 0.60094 0.52555 0.98863 0.0
C1075 C 0.60731 0.58843 0.99282 0.0
C1076 C 0.61592 0.62376 0.00601 0.0
C1077 C 0.64644 0.63677 0.02026 0.0
C1078 C 0.65439 0.67006 0.03269 0.0
C1079 C 0.63216 0.69073 0.03086 0.0
C1080 C 0.60197 0.67818 0.01655 0.0
C1081 C 0.59388 0.64488 0.0041 0.0
H1082 H 0.63836 0.71651 0.04049 0.0
H1083 H 0.58858 0.40148 0.9162 0.0
H1084 H 0.1293 0.54803 0.2161 0.0
H1085 H 0.12203 0.53701 0.25351 0.0
H1086 H 0.06809 0.61538 0.2613 0.0
H1087 H 0.07555 0.62663 0.22405 0.0
H1088 H 0.11344 0.62403 0.29548 0.0
H1089 H 1.0233 0.52736 0.25647 0.0
H1090 H 0.99649 0.47548 0.22891 0.0
H1091 H 1.06453 0.42166 0.25473 0.0
H1092 H 0.09147 0.47326 0.28274 0.0
H1093 H 1.03723 0.58312 0.38939 0.0
H1094 H 1.03681 0.57695 0.34981 0.0
H1095 H 0.12236 0.53441 0.35488 0.0
H1096 H 0.12345 0.54143 0.39461 0.0
H1097 H 1.06123 0.5051 0.31459 0.0
H1098 H 0.15109 0.60699 0.35444 0.0
H1099 H 0.16963 0.65792 0.38363 0.0
H1100 H 0.09555 0.70257 0.3553 0.0
H1101 H 0.07602 0.6514 0.32623 0.0
C1102 C 0.1158 0.56277 0.2258 0.0
C1103 C 0.10294 0.58813 0.21721 0.0
C1104 C 0.11152 0.55636 0.24712 0.0
C1105 C 0.09422 0.57514 0.26015 0.0
C1106 C 0.08153 0.60059 0.25156 0.0
C1107 C 0.0858 0.60699 0.23028 0.0
C1108 C 0.09015 0.56908 0.28294 0.0
C1109 C 0.10182 0.59803 0.29954 0.0
C1110 C 0.07528 0.53515 0.28841 0.0
C1111 C 1.0596 0.50425 0.27152 0.0
C1112 C 1.0327 0.50454 0.25616 0.0
C1113 C 1.01743 0.47515 0.24049 0.0
C1114 C 1.02897 0.44533 0.23992 0.0
C1115 C 1.05567 0.4448 0.25515 0.0
C1116 C 0.07084 0.47405 0.271 0.0
C1117 C 1.05509 0.57123 0.38197 0.0
C1118 C 0.08038 0.56273 0.39492 0.0
C1119 C 1.05486 0.56778 0.35942 0.0
C1120 C 0.07959 0.5553 0.34955 0.0
C1121 C 0.10296 0.54384 0.36227 0.0
C1122 C 0.10362 0.54793 0.38488 0.0
C1123 C 0.08459 0.55996 0.3268 0.0
C1124 C 0.07312 0.53091 0.31035 0.0
C1125 C 0.09928 0.59384 0.32138 0.0
C1126 C 0.11188 0.62524 0.33832 0.0
C1127 C 0.13859 0.62754 0.35454 0.0
C1128 C 0.14928 0.65644 0.37106 0.0
C1129 C 0.13372 0.68343 0.37135 0.0
C1130 C 0.10754 0.68162 0.35507 0.0
C1131 C 0.09664 0.65267 0.33858 0.0
H1132 H 0.14201 0.70576 0.38417 0.0
H1133 H 1.01711 0.42258 0.22776 0.0
loop_
_geom_bond_atom_site_label_1
_geom_bond_atom_site_label_2
_geom_bond_distance
_geom_bond_site_symmetry_2
_ccdc_geom_bond_type
Nd0 C2 2.836 . S
Nd0 O20 2.500 . S
Nd0 O21 2.492 . S
Nd0 O22 2.487 . S
Nd0 O23 2.682 . S
Nd0 O24 2.410 . S
Nd0 O29 2.414 . S
Nd0 O31 2.426 . S
Nd1 C11 2.836 1_455 S
Nd1 O23 2.414 . S
Nd1 O25 2.424 . S
Nd1 O26 2.500 1_455 S
Nd1 O27 2.492 1_455 S
Nd1 O28 2.487 . S
Nd1 O29 2.682 . S
Nd1 O30 2.410 1_455 S
C2 Nd0 2.836 . S
C2 C3 1.498 . S
C2 O20 1.258 . S
C2 O21 1.239 . S
C3 C2 1.498 . S
C3 C4 1.366 . S
C3 C8 1.407 . S
C4 C3 1.366 . S
C4 C5 1.392 . S
C4 H32 0.930 . S
C5 C4 1.392 . S
C5 C6 1.398 . S
C5 H33 0.929 . S
C6 C5 1.398 . S
C6 C7 1.352 . S
C7 C6 1.352 . S
C7 C8 1.384 . S
C7 H34 0.930 . S
C8 C3 1.407 . S
C8 C7 1.384 . S
C8 H35 0.929 . S
C9 O22 1.241 . S
C9 O23 1.273 . S
C10 O24 1.251 . S
C10 O25 1.268 . S
C11 Nd1 2.836 1_655 S
C11 C12 1.498 . S
C11 O26 1.258 . S
C11 O27 1.239 . S
C12 C11 1.498 . S
C12 C13 1.366 . S
C12 C17 1.407 . S
C13 C12 1.366 . S
C13 C14 1.392 . S
C13 H36 0.930 . S
C14 C13 1.392 . S
C14 C15 1.398 . S
C14 H37 0.929 . S
C15 C14 1.398 . S
C15 C16 1.352 . S
C16 C15 1.352 . S
C16 C17 1.384 . S
C16 H38 0.930 . S
C17 C12 1.407 . S
C17 C16 1.384 . S
C17 H39 0.929 . S
C18 O28 1.241 . S
C18 O29 1.273 . S
C19 O30 1.251 . S
C19 O31 1.268 1_655 S
O20 Nd0 2.500 . S
O20 C2 1.258 . S
O21 Nd0 2.492 . S
O21 C2 1.239 . S
O22 Nd0 2.487 . S
O22 C9 1.241 . S
O23 Nd0 2.682 . S
O23 Nd1 2.414 . S
O23 C9 1.273 . S
O24 Nd0 2.410 . S
O24 C10 1.251 . S
O25 Nd1 2.424 . S
O25 C10 1.268 . S
O26 Nd1 2.500 1_655 S
O26 C11 1.258 . S
O27 Nd1 2.492 1_655 S
O27 C11 1.239 . S
O28 Nd1 2.487 . S
O28 C18 1.241 . S
O29 Nd0 2.414 . S
O29 Nd1 2.682 . S
O29 C18 1.273 . S
O30 Nd1 2.410 1_655 S
O30 C19 1.251 . S
O31 Nd0 2.426 . S
O31 C19 1.268 1_455 S
H32 C4 0.930 . S
H33 C5 0.929 . S
H34 C7 0.930 . S
H35 C8 0.929 . S
H36 C13 0.930 . S
H37 C14 0.929 . S
H38 C16 0.930 . S
H39 C17 0.929 . S
Nd40 C42 2.836 1_545 S
Nd40 O60 2.500 1_545 S
Nd40 O61 2.492 1_545 S
Nd40 O62 2.487 . S
Nd40 O63 2.682 . S
Nd40 O64 2.410 1_545 S
Nd40 O69 2.414 . S
Nd40 O71 2.424 . S
Nd41 C51 2.836 . S
Nd41 O63 2.414 . S
Nd41 O65 2.424 . S
Nd41 O66 2.500 . S
Nd41 O67 2.492 . S
Nd41 O68 2.487 . S
Nd41 O69 2.682 . S
Nd41 O70 2.410 . S
C42 Nd40 2.836 1_565 S
C42 C43 1.498 . S
C42 O60 1.258 . S
C42 O61 1.239 . S
C43 C42 1.498 . S
C43 C44 1.366 . S
C43 C48 1.407 . S
C44 C43 1.366 . S
C44 C45 1.392 . S
C44 H72 0.930 . S
C45 C44 1.392 . S
C45 C46 1.398 . S
C45 H73 0.929 . S
C46 C45 1.398 . S
C46 C47 1.352 . S
C47 C46 1.352 . S
C47 C48 1.384 . S
C47 H74 0.930 . S
C48 C43 1.407 . S
C48 C47 1.384 . S
C48 H75 0.929 . S
C49 O62 1.241 . S
C49 O63 1.273 . S
C50 O64 1.251 . S
C50 O65 1.268 1_565 S
C51 Nd41 2.836 . S
C51 C52 1.498 . S
C51 O66 1.258 . S
C51 O67 1.239 . S
C52 C51 1.498 . S
C52 C53 1.366 . S
C52 C57 1.407 . S
C53 C52 1.366 . S
C53 C54 1.392 . S
C53 H76 0.930 . S
C54 C53 1.392 . S
C54 C55 1.398 . S
C54 H77 0.929 . S
C55 C54 1.398 . S
C55 C56 1.352 . S
C56 C55 1.352 . S
C56 C57 1.384 . S
C56 H78 0.930 . S
C57 C52 1.407 . S
C57 C56 1.384 . S
C57 H79 0.929 . S
C58 O68 1.241 . S
C58 O69 1.273 . S
C59 O70 1.251 . S
C59 O71 1.268 . S
O60 Nd40 2.500 1_565 S
O60 C42 1.258 . S
O61 Nd40 2.492 1_565 S
O61 C42 1.239 . S
O62 Nd40 2.487 . S
O62 C49 1.241 . S
O63 Nd40 2.682 . S
O63 Nd41 2.414 . S
O63 C49 1.273 . S
O64 Nd40 2.410 1_565 S
O64 C50 1.251 . S
O65 Nd41 2.424 . S
O65 C50 1.268 1_545 S
O66 Nd41 2.500 . S
O66 C51 1.258 . S
O67 Nd41 2.492 . S
O67 C51 1.239 . S
O68 Nd41 2.487 . S
O68 C58 1.241 . S
O69 Nd40 2.414 . S
O69 Nd41 2.682 . S
O69 C58 1.273 . S
O70 Nd41 2.410 . S
O70 C59 1.251 . S
O71 Nd40 2.424 . S
O71 C59 1.268 . S
H72 C44 0.930 . S
H73 C45 0.929 . S
H74 C47 0.930 . S
H75 C48 0.929 . S
H76 C53 0.930 . S
H77 C54 0.929 . S
H78 C56 0.930 . S
H79 C57 0.929 . S
Nd80 C82 2.836 . S
Nd80 O100 2.500 . S
Nd80 O101 2.492 . S
Nd80 O102 2.487 . S
Nd80 O103 2.682 . S
Nd80 O104 2.410 . S
Nd80 O109 2.414 . S
Nd80 O111 2.424 . S
Nd81 C91 2.836 . S
Nd81 O103 2.414 . S
Nd81 O105 2.424 . S
Nd81 O106 2.500 . S
Nd81 O107 2.492 . S
Nd81 O108 2.487 . S
Nd81 O109 2.682 . S
Nd81 O110 2.410 . S
C82 Nd80 2.836 . S
C82 C83 1.498 . S
C82 O100 1.258 . S
C82 O101 1.239 . S
C83 C82 1.498 . S
C83 C84 1.366 . S
C83 C88 1.407 . S
C84 C83 1.366 . S
C84 C85 1.392 . S
C84 H112 0.930 . S
C85 C84 1.392 . S
C85 C86 1.398 . S
C85 H113 0.929 . S
C86 C85 1.398 . S
C86 C87 1.352 . S
C87 C86 1.352 . S
C87 C88 1.384 . S
C87 H114 0.930 . S
C88 C83 1.407 . S
C88 C87 1.384 . S
C88 H115 0.929 . S
C89 O102 1.241 . S
C89 O103 1.273 . S
C90 O104 1.251 . S
C90 O105 1.268 . S
C91 Nd81 2.836 . S
C91 C92 1.498 . S
C91 O106 1.258 . S
C91 O107 1.239 . S
C92 C91 1.498 . S
C92 C93 1.366 . S
C92 C97 1.407 . S
C93 C92 1.366 . S
C93 C94 1.392 . S
C93 H116 0.930 . S
C94 C93 1.392 . S
C94 C95 1.398 . S
C94 H117 0.929 . S
C95 C94 1.398 . S
C95 C96 1.352 . S
C96 C95 1.352 . S
C96 C97 1.384 . S
C96 H118 0.930 . S
C97 C92 1.407 . S
C97 C96 1.384 . S
C97 H119 0.929 . S
C98 O108 1.241 . S
C98 O109 1.273 . S
C99 O110 1.251 . S
C99 O111 1.268 . S
O100 Nd80 2.500 . S
O100 C82 1.258 . S
O101 Nd80 2.492 . S
O101 C82 1.239 . S
O102 Nd80 2.487 . S
O102 C89 1.241 . S
O103 Nd80 2.682 . S
O103 Nd81 2.414 . S
O103 C89 1.273 . S
O104 Nd80 2.410 . S
O104 C90 1.251 . S
O105 Nd81 2.424 . S
O105 C90 1.268 . S
O106 Nd81 2.500 . S
O106 C91 1.258 . S
O107 Nd81 2.492 . S
O107 C91 1.239 . S
O108 Nd81 2.487 . S
O108 C98 1.241 . S
O109 Nd80 2.414 . S
O109 Nd81 2.682 . S
O109 C98 1.273 . S
O110 Nd81 2.410 . S
O110 C99 1.251 . S
O111 Nd80 2.424 . S
O111 C99 1.268 . S
H112 C84 0.930 . S
H113 C85 0.929 . S
H114 C87 0.930 . S
H115 C88 0.929 . S
H116 C93 0.930 . S
H117 C94 0.929 . S
H118 C96 0.930 . S
H119 C97 0.929 . S
H120 C121 0.949 . S
C121 H120 0.949 . S
C121 C122 1.395 . S
C121 C123 1.391 . S
C122 C121 1.395 . S
C122 C125 1.390 . S
C123 C121 1.391 . S
C123 C127 1.387 . S
C123 C128 1.491 . S
H124 C125 0.950 . S
C125 C122 1.390 . S
C125 H124 0.950 . S
C125 C126 1.378 . S
C126 C125 1.378 . S
C126 C127 1.409 . S
C127 C123 1.387 . S
C127 C126 1.409 . S
C127 H129 0.951 . S
C128 C123 1.491 . S
C128 C130 1.382 . S
C128 C132 1.404 . S
H129 C127 0.951 . S
C130 C128 1.382 . S
C130 C131 1.390 . S
C130 H135 0.949 . S
C131 C130 1.390 . S
C131 C136 1.399 . S
C132 C128 1.404 . S
C132 H133 0.950 . S
C132 C134 1.375 . S
H133 C132 0.950 . S
C134 C132 1.375 . S
C134 C136 1.382 . S
C134 H138 0.950 . S
H135 C130 0.949 . S
C136 C131 1.399 . S
C136 C134 1.382 . S
C136 H137 0.952 . S
H137 C136 0.952 . S
H138 C134 0.950 . S
H139 C140 0.949 . S
C140 H139 0.949 . S
C140 C141 1.395 . S
C140 C142 1.391 . S
C141 C140 1.395 . S
C141 C144 1.390 . S
C142 C140 1.391 . S
C142 C146 1.387 . S
C142 C147 1.491 . S
H143 C144 0.950 . S
C144 C141 1.390 . S
C144 H143 0.950 . S
C144 C145 1.378 . S
C145 C144 1.378 . S
C145 C146 1.409 . S
C146 C142 1.387 . S
C146 C145 1.409 . S
C146 H148 0.951 . S
C147 C142 1.491 . S
C147 C149 1.382 . S
C147 C151 1.404 . S
H148 C146 0.951 . S
C149 C147 1.382 . S
C149 C150 1.390 . S
C149 H154 0.949 . S
C150 C149 1.390 . S
C150 C155 1.399 . S
C151 C147 1.404 . S
C151 H152 0.950 . S
C151 C153 1.375 . S
H152 C151 0.950 . S
C153 C151 1.375 . S
C153 C155 1.382 . S
C153 H157 0.950 . S
H154 C149 0.949 . S
C155 C150 1.399 . S
C155 C153 1.382 . S
C155 H156 0.952 . S
H156 C155 0.952 . S
H157 C153 0.950 . S
H158 C159 0.949 . S
C159 H158 0.949 . S
C159 C160 1.395 . S
C159 C161 1.391 . S
C160 C159 1.395 . S
C160 C163 1.390 . S
C161 C159 1.391 . S
C161 C165 1.387 . S
C161 C166 1.491 . S
H162 C163 0.950 . S
C163 C160 1.390 . S
C163 H162 0.950 . S
C163 C164 1.378 . S
C164 C163 1.378 . S
C164 C165 1.409 . S
C165 C161 1.387 . S
C165 C164 1.409 . S
C165 H167 0.951 . S
C166 C161 1.491 . S
C166 C168 1.382 . S
C166 C170 1.404 . S
H167 C165 0.951 . S
C168 C166 1.382 . S
C168 C169 1.390 . S
C168 H173 0.949 . S
C169 C168 1.390 . S
C169 C174 1.399 . S
C170 C166 1.404 . S
C170 H171 0.950 . S
C170 C172 1.375 . S
H171 C170 0.950 . S
C172 C170 1.375 . S
C172 C174 1.382 . S
C172 H176 0.950 . S
H173 C168 0.949 . S
C174 C169 1.399 . S
C174 C172 1.382 . S
C174 H175 0.952 . S
H175 C174 0.952 . S
H176 C172 0.950 . S
H177 C178 0.948 . S
C178 H177 0.948 . S
C178 C179 1.396 1_655 S
C178 C180 1.391 1_655 S
C179 C178 1.396 1_455 S
C179 C182 1.390 . S
C180 C178 1.391 1_455 S
C180 C184 1.387 . S
C180 C185 1.491 1_455 S
H181 C182 0.950 . S
C182 C179 1.390 . S
C182 H181 0.950 . S
C182 C183 1.378 . S
C183 C182 1.378 . S
C183 C184 1.409 . S
C184 C180 1.387 . S
C184 C183 1.409 . S
C184 H186 0.951 . S
C185 C180 1.491 1_655 S
C185 C187 1.382 . S
C185 C189 1.404 . S
H186 C184 0.951 . S
C187 C185 1.382 . S
C187 C188 1.390 . S
C187 H192 0.949 . S
C188 C187 1.390 . S
C188 C193 1.399 . S
C189 C185 1.404 . S
C189 H190 0.950 . S
C189 C191 1.375 . S
H190 C189 0.950 . S
C191 C189 1.375 . S
C191 C193 1.382 . S
C191 H195 0.950 . S
H192 C187 0.949 . S
C193 C188 1.399 . S
C193 C191 1.382 . S
C193 H194 0.952 . S
H194 C193 0.952 . S
H195 C191 0.950 . S
H196 C197 0.949 1_565 S
C197 H196 0.949 1_545 S
C197 C198 1.395 . S
C197 C199 1.391 . S
C198 C197 1.395 . S
C198 C201 1.390 . S
C199 C197 1.391 . S
C199 C203 1.387 . S
C199 C204 1.491 1_545 S
H200 C201 0.950 . S
C201 C198 1.390 . S
C201 H200 0.950 . S
C201 C202 1.378 . S
C202 C201 1.378 . S
C202 C203 1.409 . S
C203 C199 1.387 . S
C203 C202 1.409 . S
C203 H205 0.951 . S
C204 C199 1.491 1_565 S
C204 C206 1.382 . S
C204 C208 1.404 . S
H205 C203 0.951 . S
C206 C204 1.382 . S
C206 C207 1.390 . S
C206 H211 0.949 . S
C207 C206 1.390 . S
C207 C212 1.399 . S
C208 C204 1.404 . S
C208 H209 0.950 1_565 S
C208 C210 1.375 . S
H209 C208 0.950 1_545 S
C210 C208 1.375 . S
C210 C212 1.382 . S
C210 H214 0.950 . S
H211 C206 0.949 . S
C212 C207 1.399 . S
C212 C210 1.382 . S
C212 H213 0.952 . S
H213 C212 0.952 . S
H214 C210 0.950 . S
H215 C216 0.949 . S
C216 H215 0.949 . S
C216 C217 1.395 . S
C216 C218 1.391 . S
C217 C216 1.395 . S
C217 C220 1.390 . S
C218 C216 1.391 . S
C218 C222 1.387 . S
C218 C223 1.491 . S
H219 C220 0.950 . S
C220 C217 1.390 . S
C220 H219 0.950 . S
C220 C221 1.378 . S
C221 C220 1.378 . S
C221 C222 1.409 . S
C222 C218 1.387 . S
C222 C221 1.409 . S
C222 H224 0.951 . S
C223 C218 1.491 . S
C223 C225 1.382 . S
C223 C227 1.404 . S
H224 C222 0.951 . S
C225 C223 1.382 . S
C225 C226 1.390 . S
C225 H230 0.949 . S
C226 C225 1.390 . S
C226 C231 1.399 . S
C227 C223 1.404 . S
C227 H228 0.950 . S
C227 C229 1.375 . S
H228 C227 0.950 . S
C229 C227 1.375 . S
C229 C231 1.382 . S
C229 H233 0.950 . S
H230 C225 0.949 . S
C231 C226 1.399 . S
C231 C229 1.382 . S
C231 H232 0.952 . S
H232 C231 0.952 . S
H233 C229 0.950 . S
H234 C252 0.951 . S
H235 C254 0.951 . S
H236 C256 0.950 . S
H237 C257 0.950 . S
H238 C259 0.950 . S
H239 C262 0.950 . S
H240 C263 0.950 . S
H241 C265 0.950 . S
H242 C266 0.950 . S
H243 C267 0.951 . S
H244 C269 0.951 . S
H245 C271 0.950 . S
H246 C272 0.950 . S
H247 C274 0.950 . S
H248 C277 0.950 . S
H249 C278 0.950 . S
H250 C280 0.950 . S
H251 C281 0.950 . S
C252 H234 0.951 . S
C252 C253 1.366 . S
C252 C254 1.388 . S
C253 C252 1.366 . S
C253 C257 1.385 . S
C254 H235 0.951 . S
C254 C252 1.388 . S
C254 C255 1.366 . S
C255 C254 1.366 . S
C255 C256 1.414 . S
C255 C258 1.499 . S
C256 H236 0.950 . S
C256 C255 1.414 . S
C256 C257 1.374 . S
C257 H237 0.950 . S
C257 C253 1.385 . S
C257 C256 1.374 . S
C258 C255 1.499 . S
C258 C259 1.373 . S
C258 C260 1.389 . S
C259 H238 0.950 . S
C259 C258 1.373 . S
C259 C275 1.377 . S
C260 C258 1.389 . S
C260 C261 1.524 . S
C260 C274 1.377 . S
C261 C260 1.524 . S
C261 C262 1.397 . S
C261 C266 1.363 . S
C262 H239 0.950 . S
C262 C261 1.397 . S
C262 C263 1.334 . S
C263 H240 0.950 . S
C263 C262 1.334 . S
C263 C264 1.287 . S
C264 C263 1.287 . S
C264 C265 1.524 . S
C264 H283 0.913 . S
C265 H241 0.950 . S
C265 C264 1.524 . S
C265 C266 1.415 . S
C266 H242 0.950 . S
C266 C261 1.363 . S
C266 C265 1.415 . S
C267 H243 0.951 . S
C267 C268 1.366 . S
C267 C269 1.388 . S
C268 C267 1.366 . S
C268 C272 1.385 . S
C269 H244 0.951 . S
C269 C267 1.388 . S
C269 C270 1.366 . S
C270 C269 1.366 . S
C270 C271 1.414 . S
C270 C273 1.499 . S
C271 H245 0.950 . S
C271 C270 1.414 . S
C271 C272 1.374 . S
C272 H246 0.950 . S
C272 C268 1.385 . S
C272 C271 1.374 . S
C273 C270 1.499 . S
C273 C274 1.373 . S
C273 C275 1.389 . S
C274 H247 0.950 . S
C274 C260 1.377 . S
C274 C273 1.373 . S
C275 C259 1.377 . S
C275 C273 1.389 . S
C275 C276 1.524 . S
C276 C275 1.524 . S
C276 C277 1.397 . S
C276 C281 1.363 . S
C277 H248 0.950 . S
C277 C276 1.397 . S
C277 C278 1.334 . S
C278 H249 0.950 . S
C278 C277 1.334 . S
C278 C279 1.287 . S
C279 C278 1.287 . S
C279 C280 1.524 . S
C279 H282 0.999 . S
C280 H250 0.950 . S
C280 C279 1.524 . S
C280 C281 1.415 . S
C281 H251 0.950 . S
C281 C276 1.363 . S
C281 C280 1.415 . S
H282 C279 0.999 . S
H283 C264 0.913 . S
H284 C302 0.951 . S
H285 C304 0.951 . S
H286 C306 0.950 . S
H287 C307 0.950 . S
H288 C309 0.950 . S
H289 C312 0.950 . S
H290 C313 0.950 . S
H291 C315 0.950 . S
H292 C316 0.950 . S
H293 C317 0.951 . S
H294 C319 0.951 . S
H295 C321 0.950 . S
H296 C322 0.950 . S
H297 C324 0.950 . S
H298 C327 0.950 . S
H299 C328 0.950 . S
H300 C330 0.950 . S
H301 C331 0.950 . S
C302 H284 0.951 . S
C302 C303 1.366 . S
C302 C304 1.388 . S
C303 C302 1.366 . S
C303 C307 1.385 . S
C304 H285 0.951 . S
C304 C302 1.388 . S
C304 C305 1.366 . S
C305 C304 1.366 . S
C305 C306 1.414 . S
C305 C308 1.499 . S
C306 H286 0.950 . S
C306 C305 1.414 . S
C306 C307 1.374 . S
C307 H287 0.950 . S
C307 C303 1.385 . S
C307 C306 1.374 . S
C308 C305 1.499 . S
C308 C309 1.373 . S
C308 C310 1.389 . S
C309 H288 0.950 . S
C309 C308 1.373 . S
C309 C325 1.377 . S
C310 C308 1.389 . S
C310 C311 1.524 . S
C310 C324 1.377 . S
C311 C310 1.524 . S
C311 C312 1.397 . S
C311 C316 1.363 . S
C312 H289 0.950 . S
C312 C311 1.397 . S
C312 C313 1.334 . S
C313 H290 0.950 . S
C313 C312 1.334 . S
C313 C314 1.287 . S
C314 C313 1.287 . S
C314 C315 1.524 . S
C314 H333 0.913 . S
C315 H291 0.950 . S
C315 C314 1.524 . S
C315 C316 1.415 . S
C316 H292 0.950 . S
C316 C311 1.363 . S
C316 C315 1.415 . S
C317 H293 0.951 . S
C317 C318 1.366 . S
C317 C319 1.388 . S
C318 C317 1.366 . S
C318 C322 1.385 . S
C319 H294 0.951 . S
C319 C317 1.388 . S
C319 C320 1.366 . S
C320 C319 1.366 . S
C320 C321 1.414 . S
C320 C323 1.499 . S
C321 H295 0.950 . S
C321 C320 1.414 . S
C321 C322 1.374 . S
C322 H296 0.950 . S
C322 C318 1.385 . S
C322 C321 1.374 . S
C323 C320 1.499 . S
C323 C324 1.373 . S
C323 C325 1.389 . S
C324 H297 0.950 . S
C324 C310 1.377 . S
C324 C323 1.373 . S
C325 C309 1.377 . S
C325 C323 1.389 . S
C325 C326 1.524 . S
C326 C325 1.524 . S
C326 C327 1.397 . S
C326 C331 1.363 . S
C327 H298 0.950 . S
C327 C326 1.397 . S
C327 C328 1.334 . S
C328 H299 0.950 . S
C328 C327 1.334 . S
C328 C329 1.287 . S
C329 C328 1.287 . S
C329 C330 1.524 . S
C329 H332 0.999 . S
C330 H300 0.950 . S
C330 C329 1.524 . S
C330 C331 1.415 . S
C331 H301 0.950 . S
C331 C326 1.363 . S
C331 C330 1.415 . S
H332 C329 0.999 . S
H333 C314 0.913 . S
H334 C352 0.951 . S
H335 C354 0.951 . S
H336 C356 0.950 . S
H337 C357 0.950 . S
H338 C359 0.950 . S
H339 C362 0.950 . S
H340 C363 0.950 . S
H341 C365 0.950 . S
H342 C366 0.950 . S
H343 C367 0.951 . S
H344 C369 0.951 . S
H345 C371 0.950 . S
H346 C372 0.950 . S
H347 C374 0.950 . S
H348 C377 0.950 . S
H349 C378 0.950 . S
H350 C380 0.950 . S
H351 C381 0.950 . S
C352 H334 0.951 . S
C352 C353 1.366 . S
C352 C354 1.388 . S
C353 C352 1.366 . S
C353 C357 1.385 . S
C354 H335 0.951 . S
C354 C352 1.388 . S
C354 C355 1.366 . S
C355 C354 1.366 . S
C355 C356 1.414 . S
C355 C358 1.499 . S
C356 H336 0.950 . S
C356 C355 1.414 . S
C356 C357 1.374 . S
C357 H337 0.950 . S
C357 C353 1.385 . S
C357 C356 1.374 . S
C358 C355 1.499 . S
C358 C359 1.373 . S
C358 C360 1.389 . S
C359 H338 0.950 . S
C359 C358 1.373 . S
C359 C375 1.377 . S
C360 C358 1.389 . S
C360 C361 1.524 . S
C360 C374 1.377 . S
C361 C360 1.524 . S
C361 C362 1.397 . S
C361 C366 1.363 . S
C362 H339 0.950 . S
C362 C361 1.397 . S
C362 C363 1.334 . S
C363 H340 0.950 . S
C363 C362 1.334 . S
C363 C364 1.287 . S
C364 C363 1.287 . S
C364 C365 1.524 . S
C364 H383 0.913 . S
C365 H341 0.950 . S
C365 C364 1.524 . S
C365 C366 1.415 . S
C366 H342 0.950 . S
C366 C361 1.363 . S
C366 C365 1.415 . S
C367 H343 0.951 . S
C367 C368 1.366 . S
C367 C369 1.388 . S
C368 C367 1.366 . S
C368 C372 1.385 . S
C369 H344 0.951 . S
C369 C367 1.388 . S
C369 C370 1.366 . S
C370 C369 1.366 . S
C370 C371 1.414 . S
C370 C373 1.499 . S
C371 H345 0.950 . S
C371 C370 1.414 . S
C371 C372 1.374 . S
C372 H346 0.950 . S
C372 C368 1.385 . S
C372 C371 1.374 . S
C373 C370 1.499 . S
C373 C374 1.373 . S
C373 C375 1.389 . S
C374 H347 0.950 . S
C374 C360 1.377 . S
C374 C373 1.373 . S
C375 C359 1.377 . S
C375 C373 1.389 . S
C375 C376 1.524 . S
C376 C375 1.524 . S
C376 C377 1.397 . S
C376 C381 1.363 . S
C377 H348 0.950 . S
C377 C376 1.397 . S
C377 C378 1.334 . S
C378 H349 0.950 . S
C378 C377 1.334 . S
C378 C379 1.287 . S
C379 C378 1.287 . S
C379 C380 1.524 . S
C379 H382 0.999 . S
C380 H350 0.950 . S
C380 C379 1.524 . S
C380 C381 1.415 . S
C381 H351 0.950 . S
C381 C376 1.363 . S
C381 C380 1.415 . S
H382 C379 0.999 . S
H383 C364 0.913 . S
H384 C402 0.951 . S
H385 C404 0.951 . S
H386 C406 0.950 . S
H387 C407 0.950 . S
H388 C409 0.950 . S
H389 C412 0.950 . S
H390 C413 0.950 . S
H391 C415 0.950 . S
H392 C416 0.950 . S
H393 C417 0.951 . S
H394 C419 0.951 . S
H395 C421 0.950 . S
H396 C422 0.950 . S
H397 C424 0.950 . S
H398 C427 0.950 . S
H399 C428 0.950 . S
H400 C430 0.950 . S
H401 C431 0.950 . S
C402 H384 0.951 . S
C402 C403 1.366 . S
C402 C404 1.388 . S
C403 C402 1.366 . S
C403 C407 1.385 . S
C404 H385 0.951 . S
C404 C402 1.388 . S
C404 C405 1.366 . S
C405 C404 1.366 . S
C405 C406 1.414 . S
C405 C408 1.499 . S
C406 H386 0.950 . S
C406 C405 1.414 . S
C406 C407 1.374 . S
C407 H387 0.950 . S
C407 C403 1.385 . S
C407 C406 1.374 . S
C408 C405 1.499 . S
C408 C409 1.373 . S
C408 C410 1.389 . S
C409 H388 0.950 . S
C409 C408 1.373 . S
C409 C425 1.377 . S
C410 C408 1.389 . S
C410 C411 1.524 . S
C410 C424 1.377 . S
C411 C410 1.524 . S
C411 C412 1.397 . S
C411 C416 1.363 . S
C412 H389 0.950 . S
C412 C411 1.397 . S
C412 C413 1.334 . S
C413 H390 0.950 . S
C413 C412 1.334 . S
C413 C414 1.287 . S
C414 C413 1.287 . S
C414 C415 1.524 . S
C414 H433 0.913 . S
C415 H391 0.950 . S
C415 C414 1.524 . S
C415 C416 1.415 . S
C416 H392 0.950 . S
C416 C411 1.363 . S
C416 C415 1.415 . S
C417 H393 0.951 . S
C417 C418 1.366 . S
C417 C419 1.388 . S
C418 C417 1.366 . S
C418 C422 1.385 . S
C419 H394 0.951 . S
C419 C417 1.388 . S
C419 C420 1.366 . S
C420 C419 1.366 . S
C420 C421 1.414 . S
C420 C423 1.499 . S
C421 H395 0.950 . S
C421 C420 1.414 . S
C421 C422 1.374 . S
C422 H396 0.950 . S
C422 C418 1.385 . S
C422 C421 1.374 . S
C423 C420 1.499 . S
C423 C424 1.373 . S
C423 C425 1.389 . S
C424 H397 0.950 . S
C424 C410 1.377 . S
C424 C423 1.373 . S
C425 C409 1.377 . S
C425 C423 1.389 . S
C425 C426 1.524 . S
C426 C425 1.524 . S
C426 C427 1.397 . S
C426 C431 1.363 . S
C427 H398 0.950 . S
C427 C426 1.397 . S
C427 C428 1.334 . S
C428 H399 0.950 . S
C428 C427 1.334 . S
C428 C429 1.287 . S
C429 C428 1.287 . S
C429 C430 1.524 . S
C429 H432 0.999 . S
C430 H400 0.950 . S
C430 C429 1.524 . S
C430 C431 1.415 . S
C431 H401 0.950 . S
C431 C426 1.363 . S
C431 C430 1.415 . S
H432 C429 0.999 . S
H433 C414 0.913 . S
H434 C452 0.951 . S
H435 C454 0.951 . S
H436 C456 0.950 . S
H437 C457 0.950 . S
H438 C459 0.950 . S
H439 C462 0.950 . S
H440 C463 0.950 . S
H441 C465 0.950 . S
H442 C466 0.950 . S
H443 C467 0.951 . S
H444 C469 0.951 . S
H445 C471 0.950 . S
H446 C472 0.950 . S
H447 C474 0.950 . S
H448 C477 0.950 . S
H449 C478 0.950 . S
H450 C480 0.950 . S
H451 C481 0.950 . S
C452 H434 0.951 . S
C452 C453 1.366 . S
C452 C454 1.388 . S
C453 C452 1.366 . S
C453 C457 1.385 . S
C454 H435 0.951 . S
C454 C452 1.388 . S
C454 C455 1.366 . S
C455 C454 1.366 . S
C455 C456 1.414 . S
C455 C458 1.499 . S
C456 H436 0.950 . S
C456 C455 1.414 . S
C456 C457 1.374 . S
C457 H437 0.950 . S
C457 C453 1.385 . S
C457 C456 1.374 . S
C458 C455 1.499 . S
C458 C459 1.373 . S
C458 C460 1.389 . S
C459 H438 0.950 . S
C459 C458 1.373 . S
C459 C475 1.377 . S
C460 C458 1.389 . S
C460 C461 1.524 . S
C460 C474 1.377 . S
C461 C460 1.524 . S
C461 C462 1.397 . S
C461 C466 1.363 . S
C462 H439 0.950 . S
C462 C461 1.397 . S
C462 C463 1.334 . S
C463 H440 0.950 . S
C463 C462 1.334 . S
C463 C464 1.287 . S
C464 C463 1.287 . S
C464 C465 1.524 . S
C464 H483 0.913 . S
C465 H441 0.950 . S
C465 C464 1.524 . S
C465 C466 1.415 . S
C466 H442 0.950 . S
C466 C461 1.363 . S
C466 C465 1.415 . S
C467 H443 0.951 . S
C467 C468 1.366 . S
C467 C469 1.388 . S
C468 C467 1.366 . S
C468 C472 1.385 . S
C469 H444 0.951 . S
C469 C467 1.388 . S
C469 C470 1.366 . S
C470 C469 1.366 . S
C470 C471 1.414 . S
C470 C473 1.499 . S
C471 H445 0.950 . S
C471 C470 1.414 . S
C471 C472 1.374 . S
C472 H446 0.950 . S
C472 C468 1.385 . S
C472 C471 1.374 . S
C473 C470 1.499 . S
C473 C474 1.373 . S
C473 C475 1.389 . S
C474 H447 0.950 . S
C474 C460 1.377 . S
C474 C473 1.373 . S
C475 C459 1.377 . S
C475 C473 1.389 . S
C475 C476 1.524 . S
C476 C475 1.524 . S
C476 C477 1.397 . S
C476 C481 1.363 . S
C477 H448 0.950 . S
C477 C476 1.397 . S
C477 C478 1.334 . S
C478 H449 0.950 . S
C478 C477 1.334 . S
C478 C479 1.287 . S
C479 C478 1.287 . S
C479 C480 1.524 . S
C479 H482 0.999 . S
C480 H450 0.950 . S
C480 C479 1.524 . S
C480 C481 1.415 . S
C481 H451 0.950 . S
C481 C476 1.363 . S
C481 C480 1.415 . S
H482 C479 0.999 . S
H483 C464 0.913 . S
H484 C502 0.951 . S
H485 C504 0.951 . S
H486 C506 0.950 . S
H487 C507 0.950 . S
H488 C509 0.950 . S
H489 C512 0.950 . S
H490 C513 0.950 . S
H491 C515 0.950 . S
H492 C516 0.950 . S
H493 C517 0.951 . S
H494 C519 0.951 . S
H495 C521 0.950 . S
H496 C522 0.950 . S
H497 C524 0.950 . S
H498 C527 0.950 . S
H499 C528 0.950 . S
H500 C530 0.950 . S
H501 C531 0.950 . S
C502 H484 0.951 . S
C502 C503 1.366 . S
C502 C504 1.388 . S
C503 C502 1.366 . S
C503 C507 1.385 . S
C504 H485 0.951 . S
C504 C502 1.388 . S
C504 C505 1.366 . S
C505 C504 1.366 . S
C505 C506 1.414 . S
C505 C508 1.499 . S
C506 H486 0.950 . S
C506 C505 1.414 . S
C506 C507 1.374 . S
C507 H487 0.950 . S
C507 C503 1.385 . S
C507 C506 1.374 . S
C508 C505 1.499 . S
C508 C509 1.373 . S
C508 C510 1.389 . S
C509 H488 0.950 . S
C509 C508 1.373 . S
C509 C525 1.377 . S
C510 C508 1.389 . S
C510 C511 1.524 . S
C510 C524 1.377 . S
C511 C510 1.524 . S
C511 C512 1.397 . S
C511 C516 1.363 . S
C512 H489 0.950 . S
C512 C511 1.397 . S
C512 C513 1.334 . S
C513 H490 0.950 . S
C513 C512 1.334 . S
C513 C514 1.287 . S
C514 C513 1.287 . S
C514 C515 1.524 . S
C514 H533 0.913 . S
C515 H491 0.950 . S
C515 C514 1.524 . S
C515 C516 1.415 . S
C516 H492 0.950 . S
C516 C511 1.363 . S
C516 C515 1.415 . S
C517 H493 0.951 . S
C517 C518 1.366 . S
C517 C519 1.388 . S
C518 C517 1.366 . S
C518 C522 1.385 . S
C519 H494 0.951 . S
C519 C517 1.388 . S
C519 C520 1.366 . S
C520 C519 1.366 . S
C520 C521 1.414 . S
C520 C523 1.499 . S
C521 H495 0.950 . S
C521 C520 1.414 . S
C521 C522 1.374 . S
C522 H496 0.950 . S
C522 C518 1.385 . S
C522 C521 1.374 . S
C523 C520 1.499 . S
C523 C524 1.373 . S
C523 C525 1.389 . S
C524 H497 0.950 . S
C524 C510 1.377 . S
C524 C523 1.373 . S
C525 C509 1.377 . S
C525 C523 1.389 . S
C525 C526 1.524 . S
C526 C525 1.524 . S
C526 C527 1.397 . S
C526 C531 1.363 . S
C527 H498 0.950 . S
C527 C526 1.397 . S
C527 C528 1.334 . S
C528 H499 0.950 . S
C528 C527 1.334 . S
C528 C529 1.287 . S
C529 C528 1.287 . S
C529 C530 1.524 . S
C529 H532 0.999 . S
C530 H500 0.950 . S
C530 C529 1.524 . S
C530 C531 1.415 . S
C531 H501 0.950 . S
C531 C526 1.363 . S
C531 C530 1.415 . S
H532 C529 0.999 . S
H533 C514 0.913 . S
H534 C552 0.951 . S
H535 C554 0.951 . S
H536 C556 0.950 . S
H537 C557 0.950 . S
H538 C559 0.950 . S
H539 C562 0.950 . S
H540 C563 0.950 . S
H541 C565 0.950 . S
H542 C566 0.950 . S
H543 C567 0.951 . S
H544 C569 0.951 . S
H545 C571 0.950 . S
H546 C572 0.950 . S
H547 C574 0.950 . S
H548 C577 0.950 . S
H549 C578 0.950 . S
H550 C580 0.950 . S
H551 C581 0.950 . S
C552 H534 0.951 . S
C552 C553 1.366 . S
C552 C554 1.388 . S
C553 C552 1.366 . S
C553 C557 1.385 . S
C554 H535 0.951 . S
C554 C552 1.388 . S
C554 C555 1.366 . S
C555 C554 1.366 . S
C555 C556 1.414 . S
C555 C558 1.499 . S
C556 H536 0.950 . S
C556 C555 1.414 . S
C556 C557 1.374 . S
C557 H537 0.950 . S
C557 C553 1.385 . S
C557 C556 1.374 . S
C558 C555 1.499 . S
C558 C559 1.373 . S
C558 C560 1.389 . S
C559 H538 0.950 . S
C559 C558 1.373 . S
C559 C575 1.377 . S
C560 C558 1.389 . S
C560 C561 1.524 . S
C560 C574 1.377 . S
C561 C560 1.524 . S
C561 C562 1.397 . S
C561 C566 1.363 . S
C562 H539 0.950 . S
C562 C561 1.397 . S
C562 C563 1.334 . S
C563 H540 0.950 . S
C563 C562 1.334 . S
C563 C564 1.287 . S
C564 C563 1.287 . S
C564 C565 1.524 . S
C564 H583 0.913 . S
C565 H541 0.950 . S
C565 C564 1.524 . S
C565 C566 1.415 . S
C566 H542 0.950 . S
C566 C561 1.363 . S
C566 C565 1.415 . S
C567 H543 0.951 . S
C567 C568 1.366 . S
C567 C569 1.388 . S
C568 C567 1.366 . S
C568 C572 1.385 . S
C569 H544 0.951 . S
C569 C567 1.388 . S
C569 C570 1.366 . S
C570 C569 1.366 . S
C570 C571 1.414 . S
C570 C573 1.499 . S
C571 H545 0.950 . S
C571 C570 1.414 . S
C571 C572 1.374 . S
C572 H546 0.950 . S
C572 C568 1.385 . S
C572 C571 1.374 . S
C573 C570 1.499 . S
C573 C574 1.373 . S
C573 C575 1.389 . S
C574 H547 0.950 . S
C574 C560 1.377 . S
C574 C573 1.373 . S
C575 C559 1.377 . S
C575 C573 1.389 . S
C575 C576 1.524 . S
C576 C575 1.524 . S
C576 C577 1.397 . S
C576 C581 1.363 . S
C577 H548 0.950 . S
C577 C576 1.397 . S
C577 C578 1.334 . S
C578 H549 0.950 . S
C578 C577 1.334 . S
C578 C579 1.287 . S
C579 C578 1.287 . S
C579 C580 1.524 . S
C579 H582 0.999 . S
C580 H550 0.950 . S
C580 C579 1.524 . S
C580 C581 1.415 . S
C581 H551 0.950 . S
C581 C576 1.363 . S
C581 C580 1.415 . S
H582 C579 0.999 . S
H583 C564 0.913 . S
H584 C602 0.951 . S
H585 C604 0.951 . S
H586 C606 0.950 . S
H587 C607 0.950 . S
H588 C609 0.950 . S
H589 C612 0.950 . S
H590 C613 0.950 . S
H591 C615 0.950 . S
H592 C616 0.950 . S
H593 C617 0.957 . S
H594 C619 0.951 . S
H595 C621 0.950 . S
H596 C622 0.959 . S
H597 C624 0.950 . S
H598 C627 0.950 . S
H599 C628 0.950 . S
H600 C630 0.950 . S
H601 C631 0.950 . S
C602 H584 0.951 . S
C602 C603 1.366 . S
C602 C604 1.388 . S
C603 C602 1.366 . S
C603 C607 1.385 . S
C604 H585 0.951 . S
C604 C602 1.388 . S
C604 C605 1.366 . S
C605 C604 1.366 . S
C605 C606 1.414 . S
C605 C608 1.499 . S
C606 H586 0.950 . S
C606 C605 1.414 . S
C606 C607 1.374 . S
C607 H587 0.950 . S
C607 C603 1.385 . S
C607 C606 1.374 . S
C608 C605 1.499 . S
C608 C609 1.373 . S
C608 C610 1.389 . S
C609 H588 0.950 . S
C609 C608 1.373 . S
C609 C625 1.377 . S
C610 C608 1.389 . S
C610 C611 1.524 . S
C610 C624 1.377 . S
C611 C610 1.524 . S
C611 C612 1.397 . S
C611 C616 1.363 . S
C612 H589 0.950 . S
C612 C611 1.397 . S
C612 C613 1.334 . S
C613 H590 0.950 . S
C613 C612 1.334 . S
C613 C614 1.287 . S
C614 C613 1.287 . S
C614 C615 1.524 . S
C614 H633 0.913 . S
C615 H591 0.950 . S
C615 C614 1.524 . S
C615 C616 1.415 . S
C616 H592 0.950 . S
C616 C611 1.363 . S
C616 C615 1.415 . S
C617 H593 0.957 . S
C617 C618 1.376 . S
C617 C619 1.372 1_455 S
C618 C617 1.376 . S
C618 C622 1.390 . S
C619 H594 0.951 . S
C619 C617 1.372 1_655 S
C619 C620 1.366 . S
C620 C619 1.366 . S
C620 C621 1.414 . S
C620 C623 1.499 . S
C621 H595 0.950 . S
C621 C620 1.414 . S
C621 C622 1.359 1_655 S
C622 H596 0.959 . S
C622 C618 1.390 . S
C622 C621 1.359 1_455 S
C623 C620 1.499 . S
C623 C624 1.373 . S
C623 C625 1.389 . S
C624 H597 0.950 . S
C624 C610 1.377 . S
C624 C623 1.373 . S
C625 C609 1.377 . S
C625 C623 1.389 . S
C625 C626 1.524 . S
C626 C625 1.524 . S
C626 C627 1.397 . S
C626 C631 1.363 . S
C627 H598 0.950 . S
C627 C626 1.397 . S
C627 C628 1.334 . S
C628 H599 0.950 . S
C628 C627 1.334 . S
C628 C629 1.287 . S
C629 C628 1.287 . S
C629 C630 1.524 . S
C629 H632 0.999 . S
C630 H600 0.950 . S
C630 C629 1.524 . S
C630 C631 1.415 . S
C631 H601 0.950 . S
C631 C626 1.363 . S
C631 C630 1.415 . S
H632 C629 0.999 . S
H633 C614 0.913 . S
H634 C652 0.951 . S
H635 C654 0.951 . S
H636 C656 0.950 . S
H637 C657 0.950 . S
H638 C659 0.950 . S
H639 C662 0.950 . S
H640 C663 0.950 . S
H641 C665 0.950 . S
H642 C666 0.950 . S
H643 C667 0.951 . S
H644 C669 0.951 . S
H645 C671 0.950 . S
H646 C672 0.950 . S
H647 C674 0.950 . S
H648 C677 0.950 . S
H649 C678 0.950 . S
H650 C680 0.950 . S
H651 C681 0.950 . S
C652 H634 0.951 . S
C652 C653 1.366 . S
C652 C654 1.388 . S
C653 C652 1.366 . S
C653 C657 1.385 . S
C654 H635 0.951 . S
C654 C652 1.388 . S
C654 C655 1.366 . S
C655 C654 1.366 . S
C655 C656 1.414 . S
C655 C658 1.499 . S
C656 H636 0.950 . S
C656 C655 1.414 . S
C656 C657 1.374 . S
C657 H637 0.950 . S
C657 C653 1.385 . S
C657 C656 1.374 . S
C658 C655 1.499 . S
C658 C659 1.373 . S
C658 C660 1.389 . S
C659 H638 0.950 . S
C659 C658 1.373 . S
C659 C675 1.377 . S
C660 C658 1.389 . S
C660 C661 1.524 . S
C660 C674 1.377 . S
C661 C660 1.524 . S
C661 C662 1.397 . S
C661 C666 1.363 . S
C662 H639 0.950 . S
C662 C661 1.397 . S
C662 C663 1.334 . S
C663 H640 0.950 . S
C663 C662 1.334 . S
C663 C664 1.287 . S
C664 C663 1.287 . S
C664 C665 1.524 . S
C664 H683 0.913 . S
C665 H641 0.950 . S
C665 C664 1.524 . S
C665 C666 1.415 . S
C666 H642 0.950 . S
C666 C661 1.363 . S
C666 C665 1.415 . S
C667 H643 0.951 . S
C667 C668 1.366 1_565 S
C667 C669 1.388 . S
C668 C667 1.366 1_545 S
C668 C672 1.385 . S
C669 H644 0.951 . S
C669 C667 1.388 . S
C669 C670 1.366 . S
C670 C669 1.366 . S
C670 C671 1.414 . S
C670 C673 1.499 . S
C671 H645 0.950 . S
C671 C670 1.414 . S
C671 C672 1.374 1_565 S
C672 H646 0.950 . S
C672 C668 1.385 . S
C672 C671 1.374 1_545 S
C673 C670 1.499 . S
C673 C674 1.373 . S
C673 C675 1.389 . S
C674 H647 0.950 . S
C674 C660 1.377 . S
C674 C673 1.373 . S
C675 C659 1.377 . S
C675 C673 1.389 . S
C675 C676 1.524 . S
C676 C675 1.524 . S
C676 C677 1.397 . S
C676 C681 1.363 . S
C677 H648 0.950 . S
C677 C676 1.397 . S
C677 C678 1.334 1_565 S
C678 H649 0.950 . S
C678 C677 1.334 1_545 S
C678 C679 1.287 1_545 S
C679 C678 1.287 1_565 S
C679 C680 1.524 . S
C679 H682 0.999 1_565 S
C680 H650 0.950 . S
C680 C679 1.524 . S
C680 C681 1.415 . S
C681 H651 0.950 . S
C681 C676 1.363 . S
C681 C680 1.415 . S
H682 C679 0.999 1_545 S
H683 C664 0.913 . S
H684 C702 0.951 . S
H685 C704 0.951 . S
H686 C706 0.950 . S
H687 C707 0.950 . S
H688 C709 0.950 . S
H689 C712 0.950 . S
H690 C713 0.950 . S
H691 C715 0.950 . S
H692 C716 0.950 . S
H693 C717 0.951 . S
H694 C719 0.951 . S
H695 C721 0.950 . S
H696 C722 0.950 . S
H697 C724 0.950 . S
H698 C727 0.950 . S
H699 C728 0.950 . S
H700 C730 0.950 . S
H701 C731 0.950 . S
C702 H684 0.951 . S
C702 C703 1.366 . S
C702 C704 1.388 . S
C703 C702 1.366 . S
C703 C707 1.385 . S
C704 H685 0.951 . S
C704 C702 1.388 . S
C704 C705 1.366 . S
C705 C704 1.366 . S
C705 C706 1.414 . S
C705 C708 1.499 . S
C706 H686 0.950 . S
C706 C705 1.414 . S
C706 C707 1.374 . S
C707 H687 0.950 . S
C707 C703 1.385 . S
C707 C706 1.374 . S
C708 C705 1.499 . S
C708 C709 1.373 . S
C708 C710 1.389 . S
C709 H688 0.950 . S
C709 C708 1.373 . S
C709 C725 1.377 . S
C710 C708 1.389 . S
C710 C711 1.524 . S
C710 C724 1.377 . S
C711 C710 1.524 . S
C711 C712 1.397 . S
C711 C716 1.363 . S
C712 H689 0.950 . S
C712 C711 1.397 . S
C712 C713 1.334 . S
C713 H690 0.950 . S
C713 C712 1.334 . S
C713 C714 1.287 . S
C714 C713 1.287 . S
C714 C715 1.524 . S
C714 H733 0.913 . S
C715 H691 0.950 . S
C715 C714 1.524 . S
C715 C716 1.415 . S
C716 H692 0.950 . S
C716 C711 1.363 . S
C716 C715 1.415 . S
C717 H693 0.951 . S
C717 C718 1.366 . S
C717 C719 1.388 . S
C718 C717 1.366 . S
C718 C722 1.385 . S
C719 H694 0.951 . S
C719 C717 1.388 . S
C719 C720 1.366 . S
C720 C719 1.366 . S
C720 C721 1.414 . S
C720 C723 1.499 . S
C721 H695 0.950 . S
C721 C720 1.414 . S
C721 C722 1.374 . S
C722 H696 0.950 . S
C722 C718 1.385 . S
C722 C721 1.374 . S
C723 C720 1.499 . S
C723 C724 1.373 . S
C723 C725 1.389 . S
C724 H697 0.950 . S
C724 C710 1.377 . S
C724 C723 1.373 . S
C725 C709 1.377 . S
C725 C723 1.389 . S
C725 C726 1.524 . S
C726 C725 1.524 . S
C726 C727 1.397 . S
C726 C731 1.363 . S
C727 H698 0.950 . S
C727 C726 1.397 . S
C727 C728 1.334 . S
C728 H699 0.950 . S
C728 C727 1.334 . S
C728 C729 1.287 . S
C729 C728 1.287 . S
C729 C730 1.524 . S
C729 H732 0.999 . S
C730 H700 0.950 . S
C730 C729 1.524 . S
C730 C731 1.415 . S
C731 H701 0.950 . S
C731 C726 1.363 . S
C731 C730 1.415 . S
H732 C729 0.999 . S
H733 C714 0.913 . S
H734 C752 0.951 . S
H735 C754 0.951 . S
H736 C756 0.950 . S
H737 C757 0.950 . S
H738 C759 0.950 . S
H739 C762 0.950 . S
H740 C763 0.950 . S
H741 C765 0.950 . S
H742 C766 0.950 . S
H743 C767 0.951 . S
H744 C769 0.951 . S
H745 C771 0.950 . S
H746 C772 0.950 . S
H747 C774 0.950 . S
H748 C777 0.950 . S
H749 C778 0.950 . S
H750 C780 0.950 . S
H751 C781 0.950 . S
C752 H734 0.951 . S
C752 C753 1.366 . S
C752 C754 1.388 . S
C753 C752 1.366 . S
C753 C757 1.385 . S
C754 H735 0.951 . S
C754 C752 1.388 . S
C754 C755 1.366 . S
C755 C754 1.366 . S
C755 C756 1.414 . S
C755 C758 1.499 . S
C756 H736 0.950 . S
C756 C755 1.414 . S
C756 C757 1.374 . S
C757 H737 0.950 . S
C757 C753 1.385 . S
C757 C756 1.374 . S
C758 C755 1.499 . S
C758 C759 1.373 . S
C758 C760 1.389 . S
C759 H738 0.950 . S
C759 C758 1.373 . S
C759 C775 1.377 . S
C760 C758 1.389 . S
C760 C761 1.524 . S
C760 C774 1.377 . S
C761 C760 1.524 . S
C761 C762 1.397 . S
C761 C766 1.363 . S
C762 H739 0.950 . S
C762 C761 1.397 . S
C762 C763 1.334 . S
C763 H740 0.950 . S
C763 C762 1.334 . S
C763 C764 1.287 . S
C764 C763 1.287 . S
C764 C765 1.524 . S
C764 H783 0.913 . S
C765 H741 0.950 . S
C765 C764 1.524 . S
C765 C766 1.415 . S
C766 H742 0.950 . S
C766 C761 1.363 . S
C766 C765 1.415 . S
C767 H743 0.951 . S
C767 C768 1.366 . S
C767 C769 1.388 . S
C768 C767 1.366 . S
C768 C772 1.385 . S
C769 H744 0.951 . S
C769 C767 1.388 . S
C769 C770 1.366 . S
C770 C769 1.366 . S
C770 C771 1.414 . S
C770 C773 1.499 . S
C771 H745 0.950 . S
C771 C770 1.414 . S
C771 C772 1.374 . S
C772 H746 0.950 . S
C772 C768 1.385 . S
C772 C771 1.374 . S
C773 C770 1.499 . S
C773 C774 1.373 . S
C773 C775 1.389 . S
C774 H747 0.950 . S
C774 C760 1.377 . S
C774 C773 1.373 . S
C775 C759 1.377 . S
C775 C773 1.389 . S
C775 C776 1.524 . S
C776 C775 1.524 . S
C776 C777 1.397 . S
C776 C781 1.363 . S
C777 H748 0.950 . S
C777 C776 1.397 . S
C777 C778 1.334 . S
C778 H749 0.950 . S
C778 C777 1.334 . S
C778 C779 1.287 . S
C779 C778 1.287 . S
C779 C780 1.524 . S
C779 H782 0.999 . S
C780 H750 0.950 . S
C780 C779 1.524 . S
C780 C781 1.415 . S
C781 H751 0.950 . S
C781 C776 1.363 . S
C781 C780 1.415 . S
H782 C779 0.999 . S
H783 C764 0.913 . S
H784 C802 0.951 . S
H785 C804 0.951 . S
H786 C806 0.950 . S
H787 C807 0.950 . S
H788 C809 0.950 . S
H789 C812 0.950 . S
H790 C813 0.950 . S
H791 C815 0.950 . S
H792 C816 0.950 . S
H793 C817 0.951 . S
H794 C819 0.951 . S
H795 C821 0.950 . S
H796 C822 0.950 . S
H797 C824 0.950 . S
H798 C827 0.950 . S
H799 C828 0.950 . S
H800 C830 0.950 . S
H801 C831 0.950 . S
C802 H784 0.951 . S
C802 C803 1.366 . S
C802 C804 1.388 . S
C803 C802 1.366 . S
C803 C807 1.385 . S
C804 H785 0.951 . S
C804 C802 1.388 . S
C804 C805 1.366 . S
C805 C804 1.366 . S
C805 C806 1.414 . S
C805 C808 1.499 . S
C806 H786 0.950 . S
C806 C805 1.414 . S
C806 C807 1.374 . S
C807 H787 0.950 . S
C807 C803 1.385 . S
C807 C806 1.374 . S
C808 C805 1.499 . S
C808 C809 1.373 . S
C808 C810 1.389 . S
C809 H788 0.950 . S
C809 C808 1.373 . S
C809 C825 1.377 . S
C810 C808 1.389 . S
C810 C811 1.524 . S
C810 C824 1.377 . S
C811 C810 1.524 . S
C811 C812 1.397 . S
C811 C816 1.363 . S
C812 H789 0.950 . S
C812 C811 1.397 . S
C812 C813 1.334 . S
C813 H790 0.950 . S
C813 C812 1.334 . S
C813 C814 1.287 . S
C814 C813 1.287 . S
C814 C815 1.524 . S
C814 H833 0.913 . S
C815 H791 0.950 . S
C815 C814 1.524 . S
C815 C816 1.415 . S
C816 H792 0.950 . S
C816 C811 1.363 . S
C816 C815 1.415 . S
C817 H793 0.951 . S
C817 C818 1.366 . S
C817 C819 1.388 . S
C818 C817 1.366 . S
C818 C822 1.385 . S
C819 H794 0.951 . S
C819 C817 1.388 . S
C819 C820 1.366 . S
C820 C819 1.366 . S
C820 C821 1.414 . S
C820 C823 1.499 . S
C821 H795 0.950 . S
C821 C820 1.414 . S
C821 C822 1.374 . S
C822 H796 0.950 . S
C822 C818 1.385 . S
C822 C821 1.374 . S
C823 C820 1.499 . S
C823 C824 1.373 . S
C823 C825 1.389 . S
C824 H797 0.950 . S
C824 C810 1.377 . S
C824 C823 1.373 . S
C825 C809 1.377 . S
C825 C823 1.389 . S
C825 C826 1.524 . S
C826 C825 1.524 . S
C826 C827 1.397 . S
C826 C831 1.363 . S
C827 H798 0.950 . S
C827 C826 1.397 . S
C827 C828 1.334 . S
C828 H799 0.950 . S
C828 C827 1.334 . S
C828 C829 1.287 . S
C829 C828 1.287 . S
C829 C830 1.524 . S
C829 H832 0.999 . S
C830 H800 0.950 . S
C830 C829 1.524 . S
C830 C831 1.415 . S
C831 H801 0.950 . S
C831 C826 1.363 . S
C831 C830 1.415 . S
H832 C829 0.999 . S
H833 C814 0.913 . S
H834 C852 0.951 . S
H835 C854 0.951 . S
H836 C856 0.950 . S
H837 C857 0.950 . S
H838 C859 0.950 . S
H839 C862 0.950 . S
H840 C863 0.950 . S
H841 C865 0.950 . S
H842 C866 0.950 . S
H843 C867 0.951 . S
H844 C869 0.951 . S
H845 C871 0.950 . S
H846 C872 0.950 . S
H847 C874 0.950 1_556 S
H848 C877 0.950 . S
H849 C878 0.950 . S
H850 C880 0.950 . S
H851 C881 0.950 . S
C852 H834 0.951 . S
C852 C853 1.366 . S
C852 C854 1.388 . S
C853 C852 1.366 . S
C853 C857 1.385 . S
C854 H835 0.951 . S
C854 C852 1.388 . S
C854 C855 1.366 . S
C855 C854 1.366 . S
C855 C856 1.414 . S
C855 C858 1.499 . S
C856 H836 0.950 . S
C856 C855 1.414 . S
C856 C857 1.374 . S
C857 H837 0.950 . S
C857 C853 1.385 . S
C857 C856 1.374 . S
C858 C855 1.499 . S
C858 C859 1.373 . S
C858 C860 1.389 . S
C859 H838 0.950 . S
C859 C858 1.373 . S
C859 C875 1.377 1_554 S
C860 C858 1.389 . S
C860 C861 1.524 . S
C860 C874 1.377 . S
C861 C860 1.524 . S
C861 C862 1.397 . S
C861 C866 1.363 . S
C862 H839 0.950 . S
C862 C861 1.397 . S
C862 C863 1.334 . S
C863 H840 0.950 . S
C863 C862 1.334 . S
C863 C864 1.287 . S
C864 C863 1.287 . S
C864 C865 1.524 . S
C864 H883 0.913 . S
C865 H841 0.950 . S
C865 C864 1.524 . S
C865 C866 1.415 . S
C866 H842 0.950 . S
C866 C861 1.363 . S
C866 C865 1.415 . S
C867 H843 0.951 . S
C867 C868 1.366 . S
C867 C869 1.388 . S
C868 C867 1.366 . S
C868 C872 1.385 . S
C869 H844 0.951 . S
C869 C867 1.388 . S
C869 C870 1.366 . S
C870 C869 1.366 . S
C870 C871 1.414 . S
C870 C873 1.499 . S
C871 H845 0.950 . S
C871 C870 1.414 . S
C871 C872 1.374 . S
C872 H846 0.950 . S
C872 C868 1.385 . S
C872 C871 1.374 . S
C873 C870 1.499 . S
C873 C874 1.373 1_556 S
C873 C875 1.389 . S
C874 H847 0.950 1_554 S
C874 C860 1.377 . S
C874 C873 1.373 1_554 S
C875 C859 1.377 1_556 S
C875 C873 1.389 . S
C875 C876 1.524 1_455 S
C876 C875 1.524 1_655 S
C876 C877 1.397 . S
C876 C881 1.363 . S
C877 H848 0.950 . S
C877 C876 1.397 . S
C877 C878 1.334 . S
C878 H849 0.950 . S
C878 C877 1.334 . S
C878 C879 1.287 . S
C879 C878 1.287 . S
C879 C880 1.524 . S
C879 H882 0.999 . S
C880 H850 0.950 . S
C880 C879 1.524 . S
C880 C881 1.415 . S
C881 H851 0.950 . S
C881 C876 1.363 . S
C881 C880 1.415 . S
H882 C879 0.999 . S
H883 C864 0.913 . S
H884 C902 0.951 . S
H885 C904 0.951 . S
H886 C906 0.950 . S
H887 C907 0.950 . S
H888 C909 0.950 . S
H889 C912 0.950 . S
H890 C913 0.950 . S
H891 C915 0.950 . S
H892 C916 0.950 . S
H893 C917 0.951 . S
H894 C919 0.951 . S
H895 C921 0.950 . S
H896 C922 0.950 . S
H897 C924 0.950 . S
H898 C927 0.950 . S
H899 C928 0.950 . S
H900 C930 0.950 . S
H901 C931 0.950 . S
C902 H884 0.951 . S
C902 C903 1.366 . S
C902 C904 1.388 . S
C903 C902 1.366 . S
C903 C907 1.385 . S
C904 H885 0.951 . S
C904 C902 1.388 . S
C904 C905 1.366 . S
C905 C904 1.366 . S
C905 C906 1.414 . S
C905 C908 1.499 . S
C906 H886 0.950 . S
C906 C905 1.414 . S
C906 C907 1.374 . S
C907 H887 0.950 . S
C907 C903 1.385 . S
C907 C906 1.374 . S
C908 C905 1.499 . S
C908 C909 1.373 . S
C908 C910 1.389 . S
C909 H888 0.950 . S
C909 C908 1.373 . S
C909 C925 1.377 . S
C910 C908 1.389 . S
C910 C911 1.524 . S
C910 C924 1.377 . S
C911 C910 1.524 . S
C911 C912 1.397 . S
C911 C916 1.363 . S
C912 H889 0.950 . S
C912 C911 1.397 . S
C912 C913 1.334 . S
C913 H890 0.950 . S
C913 C912 1.334 . S
C913 C914 1.287 . S
C914 C913 1.287 . S
C914 C915 1.524 . S
C914 H933 0.913 . S
C915 H891 0.950 . S
C915 C914 1.524 . S
C915 C916 1.415 . S
C916 H892 0.950 . S
C916 C911 1.363 . S
C916 C915 1.415 . S
C917 H893 0.951 . S
C917 C918 1.366 . S
C917 C919 1.388 . S
C918 C917 1.366 . S
C918 C922 1.385 . S
C919 H894 0.951 . S
C919 C917 1.388 . S
C919 C920 1.366 . S
C920 C919 1.366 . S
C920 C921 1.414 . S
C920 C923 1.499 . S
C921 H895 0.950 . S
C921 C920 1.414 . S
C921 C922 1.374 . S
C922 H896 0.950 . S
C922 C918 1.385 . S
C922 C921 1.374 . S
C923 C920 1.499 . S
C923 C924 1.373 . S
C923 C925 1.389 . S
C924 H897 0.950 . S
C924 C910 1.377 . S
C924 C923 1.373 . S
C925 C909 1.377 . S
C925 C923 1.389 . S
C925 C926 1.524 . S
C926 C925 1.524 . S
C926 C927 1.397 . S
C926 C931 1.363 1_545 S
C927 H898 0.950 . S
C927 C926 1.397 . S
C927 C928 1.334 1_545 S
C928 H899 0.950 . S
C928 C927 1.334 1_565 S
C928 C929 1.287 . S
C929 C928 1.287 . S
C929 C930 1.524 . S
C929 H932 0.999 . S
C930 H900 0.950 . S
C930 C929 1.524 . S
C930 C931 1.415 . S
C931 H901 0.950 . S
C931 C926 1.363 1_565 S
C931 C930 1.415 . S
H932 C929 0.999 . S
H933 C914 0.913 . S
H934 C952 0.951 . S
H935 C954 0.951 . S
H936 C956 0.950 . S
H937 C957 0.950 . S
H938 C959 0.950 . S
H939 C962 0.950 . S
H940 C963 0.950 . S
H941 C965 0.950 . S
H942 C966 0.950 . S
H943 C967 0.951 . S
H944 C969 0.951 . S
H945 C971 0.950 . S
H946 C972 0.950 . S
H947 C974 0.950 . S
H948 C977 0.950 . S
H949 C978 0.950 . S
H950 C980 0.950 . S
H951 C981 0.950 . S
C952 H934 0.951 . S
C952 C953 1.366 . S
C952 C954 1.388 . S
C953 C952 1.366 . S
C953 C957 1.385 . S
C954 H935 0.951 . S
C954 C952 1.388 . S
C954 C955 1.366 . S
C955 C954 1.366 . S
C955 C956 1.414 . S
C955 C958 1.499 . S
C956 H936 0.950 . S
C956 C955 1.414 . S
C956 C957 1.374 . S
C957 H937 0.950 . S
C957 C953 1.385 . S
C957 C956 1.374 . S
C958 C955 1.499 . S
C958 C959 1.373 . S
C958 C960 1.389 . S
C959 H938 0.950 . S
C959 C958 1.373 . S
C959 C975 1.377 . S
C960 C958 1.389 . S
C960 C961 1.524 . S
C960 C974 1.377 . S
C961 C960 1.524 . S
C961 C962 1.397 . S
C961 C966 1.363 . S
C962 H939 0.950 . S
C962 C961 1.397 . S
C962 C963 1.334 . S
C963 H940 0.950 . S
C963 C962 1.334 . S
C963 C964 1.287 . S
C964 C963 1.287 . S
C964 C965 1.524 . S
C964 H983 0.913 . S
C965 H941 0.950 . S
C965 C964 1.524 . S
C965 C966 1.415 . S
C966 H942 0.950 . S
C966 C961 1.363 . S
C966 C965 1.415 . S
C967 H943 0.951 . S
C967 C968 1.366 . S
C967 C969 1.388 . S
C968 C967 1.366 . S
C968 C972 1.385 . S
C969 H944 0.951 . S
C969 C967 1.388 . S
C969 C970 1.366 . S
C970 C969 1.366 . S
C970 C971 1.414 . S
C970 C973 1.499 . S
C971 H945 0.950 . S
C971 C970 1.414 . S
C971 C972 1.374 . S
C972 H946 0.950 . S
C972 C968 1.385 . S
C972 C971 1.374 . S
C973 C970 1.499 . S
C973 C974 1.373 . S
C973 C975 1.389 . S
C974 H947 0.950 . S
C974 C960 1.377 . S
C974 C973 1.373 . S
C975 C959 1.377 . S
C975 C973 1.389 . S
C975 C976 1.524 . S
C976 C975 1.524 . S
C976 C977 1.397 . S
C976 C981 1.363 . S
C977 H948 0.950 . S
C977 C976 1.397 . S
C977 C978 1.334 . S
C978 H949 0.950 . S
C978 C977 1.334 . S
C978 C979 1.287 . S
C979 C978 1.287 . S
C979 C980 1.524 . S
C979 H982 0.999 . S
C980 H950 0.950 . S
C980 C979 1.524 . S
C980 C981 1.415 . S
C981 H951 0.950 . S
C981 C976 1.363 . S
C981 C980 1.415 . S
H982 C979 0.999 . S
H983 C964 0.913 . S
H984 C1002 0.951 . S
H985 C1004 0.951 . S
H986 C1006 0.950 . S
H987 C1007 0.950 . S
H988 C1009 0.950 . S
H989 C1012 0.950 . S
H990 C1013 0.950 . S
H991 C1015 0.950 . S
H992 C1016 0.950 . S
H993 C1017 0.951 1_565 S
H994 C1019 0.951 1_565 S
H995 C1021 0.950 . S
H996 C1022 0.950 . S
H997 C1024 0.950 . S
H998 C1027 0.950 . S
H999 C1028 0.950 . S
H1000 C1030 0.950 . S
H1001 C1031 0.950 . S
C1002 H984 0.951 . S
C1002 C1003 1.366 . S
C1002 C1004 1.388 . S
C1003 C1002 1.366 . S
C1003 C1007 1.385 . S
C1004 H985 0.951 . S
C1004 C1002 1.388 . S
C1004 C1005 1.366 . S
C1005 C1004 1.366 . S
C1005 C1006 1.414 . S
C1005 C1008 1.499 . S
C1006 H986 0.950 . S
C1006 C1005 1.414 . S
C1006 C1007 1.374 . S
C1007 H987 0.950 . S
C1007 C1003 1.385 . S
C1007 C1006 1.374 . S
C1008 C1005 1.499 . S
C1008 C1009 1.373 . S
C1008 C1010 1.389 . S
C1009 H988 0.950 . S
C1009 C1008 1.373 . S
C1009 C1025 1.377 . S
C1010 C1008 1.389 . S
C1010 C1011 1.524 . S
C1010 C1024 1.377 . S
C1011 C1010 1.524 . S
C1011 C1012 1.397 . S
C1011 C1016 1.363 . S
C1012 H989 0.950 . S
C1012 C1011 1.397 . S
C1012 C1013 1.334 . S
C1013 H990 0.950 . S
C1013 C1012 1.334 . S
C1013 C1014 1.287 . S
C1014 C1013 1.287 . S
C1014 C1015 1.524 . S
C1014 H1033 0.913 . S
C1015 H991 0.950 . S
C1015 C1014 1.524 . S
C1015 C1016 1.415 . S
C1016 H992 0.950 . S
C1016 C1011 1.363 . S
C1016 C1015 1.415 . S
C1017 H993 0.951 1_545 S
C1017 C1018 1.366 . S
C1017 C1019 1.388 . S
C1018 C1017 1.366 . S
C1018 C1022 1.385 . S
C1019 H994 0.951 1_545 S
C1019 C1017 1.388 . S
C1019 C1020 1.366 . S
C1020 C1019 1.366 . S
C1020 C1021 1.414 . S
C1020 C1023 1.499 . S
C1021 H995 0.950 . S
C1021 C1020 1.414 . S
C1021 C1022 1.374 . S
C1022 H996 0.950 . S
C1022 C1018 1.385 . S
C1022 C1021 1.374 . S
C1023 C1020 1.499 . S
C1023 C1024 1.373 . S
C1023 C1025 1.389 . S
C1024 H997 0.950 . S
C1024 C1010 1.377 . S
C1024 C1023 1.373 . S
C1025 C1009 1.377 . S
C1025 C1023 1.389 . S
C1025 C1026 1.524 . S
C1026 C1025 1.524 . S
C1026 C1027 1.397 . S
C1026 C1031 1.363 1_545 S
C1027 H998 0.950 . S
C1027 C1026 1.397 . S
C1027 C1028 1.334 . S
C1028 H999 0.950 . S
C1028 C1027 1.334 . S
C1028 C1029 1.287 1_545 S
C1029 C1028 1.287 1_565 S
C1029 C1030 1.524 . S
C1029 H1032 0.999 . S
C1030 H1000 0.950 . S
C1030 C1029 1.524 . S
C1030 C1031 1.415 . S
C1031 H1001 0.950 . S
C1031 C1026 1.363 1_565 S
C1031 C1030 1.415 . S
H1032 C1029 0.999 . S
H1033 C1014 0.913 . S
H1034 C1052 0.951 . S
H1035 C1054 0.951 . S
H1036 C1056 0.950 . S
H1037 C1057 0.950 . S
H1038 C1059 0.950 . S
H1039 C1062 0.950 . S
H1040 C1063 0.950 . S
H1041 C1065 0.950 . S
H1042 C1066 0.950 . S
H1043 C1067 0.951 . S
H1044 C1069 0.951 . S
H1045 C1071 0.950 . S
H1046 C1072 0.950 . S
H1047 C1074 0.950 1_554 S
H1048 C1077 0.950 . S
H1049 C1078 0.950 . S
H1050 C1080 0.950 . S
H1051 C1081 0.950 1_556 S
C1052 H1034 0.951 . S
C1052 C1053 1.366 . S
C1052 C1054 1.388 . S
C1053 C1052 1.366 . S
C1053 C1057 1.385 . S
C1054 H1035 0.951 . S
C1054 C1052 1.388 . S
C1054 C1055 1.366 . S
C1055 C1054 1.366 . S
C1055 C1056 1.414 . S
C1055 C1058 1.499 . S
C1056 H1036 0.950 . S
C1056 C1055 1.414 . S
C1056 C1057 1.374 . S
C1057 H1037 0.950 . S
C1057 C1053 1.385 . S
C1057 C1056 1.374 . S
C1058 C1055 1.499 . S
C1058 C1059 1.373 . S
C1058 C1060 1.389 . S
C1059 H1038 0.950 . S
C1059 C1058 1.373 . S
C1059 C1075 1.377 . S
C1060 C1058 1.389 . S
C1060 C1061 1.524 . S
C1060 C1074 1.377 . S
C1061 C1060 1.524 . S
C1061 C1062 1.397 . S
C1061 C1066 1.363 . S
C1062 H1039 0.950 . S
C1062 C1061 1.397 . S
C1062 C1063 1.334 . S
C1063 H1040 0.950 . S
C1063 C1062 1.334 . S
C1063 C1064 1.287 . S
C1064 C1063 1.287 . S
C1064 C1065 1.524 . S
C1064 H1083 0.913 . S
C1065 H1041 0.950 . S
C1065 C1064 1.524 . S
C1065 C1066 1.415 . S
C1066 H1042 0.950 . S
C1066 C1061 1.363 . S
C1066 C1065 1.415 . S
C1067 H1043 0.951 . S
C1067 C1068 1.366 . S
C1067 C1069 1.388 . S
C1068 C1067 1.366 . S
C1068 C1072 1.385 . S
C1069 H1044 0.951 . S
C1069 C1067 1.388 . S
C1069 C1070 1.366 . S
C1070 C1069 1.366 . S
C1070 C1071 1.414 . S
C1070 C1073 1.499 . S
C1071 H1045 0.950 . S
C1071 C1070 1.414 . S
C1071 C1072 1.374 . S
C1072 H1046 0.950 . S
C1072 C1068 1.385 . S
C1072 C1071 1.374 . S
C1073 C1070 1.499 . S
C1073 C1074 1.373 1_554 S
C1073 C1075 1.389 1_554 S
C1074 H1047 0.950 1_556 S
C1074 C1060 1.377 . S
C1074 C1073 1.373 1_556 S
C1075 C1059 1.377 . S
C1075 C1073 1.389 1_556 S
C1075 C1076 1.524 1_556 S
C1076 C1075 1.524 1_554 S
C1076 C1077 1.397 . S
C1076 C1081 1.363 . S
C1077 H1048 0.950 . S
C1077 C1076 1.397 . S
C1077 C1078 1.334 . S
C1078 H1049 0.950 . S
C1078 C1077 1.334 . S
C1078 C1079 1.287 . S
C1079 C1078 1.287 . S
C1079 C1080 1.524 . S
C1079 H1082 0.999 . S
C1080 H1050 0.950 . S
C1080 C1079 1.524 . S
C1080 C1081 1.415 . S
C1081 H1051 0.950 1_554 S
C1081 C1076 1.363 . S
C1081 C1080 1.415 . S
H1082 C1079 0.999 . S
H1083 C1064 0.913 . S
H1084 C1102 0.951 . S
H1085 C1104 0.951 . S
H1086 C1106 0.950 . S
H1087 C1107 0.950 . S
H1088 C1109 0.950 . S
H1089 C1112 0.950 . S
H1090 C1113 0.950 . S
H1091 C1115 0.950 1_455 S
H1092 C1116 0.950 . S
H1093 C1117 0.951 1_655 S
H1094 C1119 0.951 . S
H1095 C1121 0.950 . S
H1096 C1122 0.950 . S
H1097 C1124 0.950 . S
H1098 C1127 0.950 . S
H1099 C1128 0.950 . S
H1100 C1130 0.950 . S
H1101 C1131 0.950 . S
C1102 H1084 0.951 . S
C1102 C1103 1.366 . S
C1102 C1104 1.388 . S
C1103 C1102 1.366 . S
C1103 C1107 1.385 . S
C1104 H1085 0.951 . S
C1104 C1102 1.388 . S
C1104 C1105 1.366 . S
C1105 C1104 1.366 . S
C1105 C1106 1.414 . S
C1105 C1108 1.499 . S
C1106 H1086 0.950 . S
C1106 C1105 1.414 . S
C1106 C1107 1.374 . S
C1107 H1087 0.950 . S
C1107 C1103 1.385 . S
C1107 C1106 1.374 . S
C1108 C1105 1.499 . S
C1108 C1109 1.373 . S
C1108 C1110 1.389 . S
C1109 H1088 0.950 . S
C1109 C1108 1.373 . S
C1109 C1125 1.377 . S
C1110 C1108 1.389 . S
C1110 C1111 1.524 . S
C1110 C1124 1.377 . S
C1111 C1110 1.524 . S
C1111 C1112 1.397 1_455 S
C1111 C1116 1.363 . S
C1112 H1089 0.950 . S
C1112 C1111 1.397 1_655 S
C1112 C1113 1.334 . S
C1113 H1090 0.950 . S
C1113 C1112 1.334 . S
C1113 C1114 1.287 . S
C1114 C1113 1.287 . S
C1114 C1115 1.524 . S
C1114 H1133 0.913 . S
C1115 H1091 0.950 1_655 S
C1115 C1114 1.524 . S
C1115 C1116 1.415 1_655 S
C1116 H1092 0.950 . S
C1116 C1111 1.363 . S
C1116 C1115 1.415 1_455 S
C1117 H1093 0.951 1_455 S
C1117 C1118 1.366 . S
C1117 C1119 1.388 . S
C1118 C1117 1.366 . S
C1118 C1122 1.385 . S
C1119 H1094 0.951 . S
C1119 C1117 1.388 . S
C1119 C1120 1.366 . S
C1120 C1119 1.366 . S
C1120 C1121 1.414 . S
C1120 C1123 1.499 . S
C1121 H1095 0.950 . S
C1121 C1120 1.414 . S
C1121 C1122 1.374 . S
C1122 H1096 0.950 . S
C1122 C1118 1.385 . S
C1122 C1121 1.374 . S
C1123 C1120 1.499 . S
C1123 C1124 1.373 . S
C1123 C1125 1.389 . S
C1124 H1097 0.950 . S
C1124 C1110 1.377 . S
C1124 C1123 1.373 . S
C1125 C1109 1.377 . S
C1125 C1123 1.389 . S
C1125 C1126 1.524 . S
C1126 C1125 1.524 . S
C1126 C1127 1.397 . S
C1126 C1131 1.363 . S
C1127 H1098 0.950 . S
C1127 C1126 1.397 . S
C1127 C1128 1.334 . S
C1128 H1099 0.950 . S
C1128 C1127 1.334 . S
C1128 C1129 1.287 . S
C1129 C1128 1.287 . S
C1129 C1130 1.524 . S
C1129 H1132 0.999 . S
C1130 H1100 0.950 . S
C1130 C1129 1.524 . S
C1130 C1131 1.415 . S
C1131 H1101 0.950 . S
C1131 C1126 1.363 . S
C1131 C1130 1.415 . S
H1132 C1129 0.999 . S
H1133 C1114 0.913 . S
C253 C10 3.267 . S
C268 C226 3.180 . S
C303 C55 1.303 . S
C318 C188 1.239 . S
C353 C90 1.988 . S
C368 C207 1.931 . S
C403 C19 2.876 . S
C418 C221 2.852 . S
C468 C183 1.090 . S
C453 C46 1.101 . S
C518 C202 1.879 . S
C503 C99 1.889 . S
C553 C50 1.998 . S
C568 C150 1.931 . S
C603 C95 0.324 . S
C618 C164 0.318 . S
C653 C6 1.103 . S
C668 C126 1.088 . S
C718 C145 1.841 . S
C703 C59 1.866 . S
C768 C169 0.519 . S
C753 C86 0.405 . S
C803 C15 1.296 . S
C818 C131 1.238 . S
C868 C160 1.378 . S
C853 C18 1.334 . S
C903 C49 1.575 . S
C918 C122 1.570 . S
C953 C98 1.517 . S
C968 C141 1.534 . S
C1018 C198 1.541 . S
C1003 C58 1.484 . S
C1068 C217 1.756 . S
C1053 C89 1.667 . S
C1103 C9 1.563 . S
C1118 C179 1.563 . S
