# Generated by pormake.
# Topology ctn, (3,4)-cn, num edge types: 1
# Building blocks:
#     Node 0, Type 0, BuildingBlock: MIDCAF_clean_linker_0, # of connection points: 3
#     Node 1, Type 0, BuildingBlock: MIDCAF_clean_linker_0, # of connection points: 3
#     Node 2, Type 0, BuildingBlock: MIDCAF_clean_linker_0, # of connection points: 3
#     Node 3, Type 0, BuildingBlock: MIDCAF_clean_linker_0, # of connection points: 3
#     Node 4, Type 0, BuildingBlock: MIDCAF_clean_linker_0, # of connection points: 3
#     Node 5, Type 0, BuildingBlock: MIDCAF_clean_linker_0, # of connection points: 3
#     Node 6, Type 0, BuildingBlock: MIDCAF_clean_linker_0, # of connection points: 3
#     Node 7, Type 0, BuildingBlock: MIDCAF_clean_linker_0, # of connection points: 3
#     Node 8, Type 0, BuildingBlock: MIDCAF_clean_linker_0, # of connection points: 3
#     Node 9, Type 0, BuildingBlock: MIDCAF_clean_linker_0, # of connection points: 3
#     Node 10, Type 0, BuildingBlock: MIDCAF_clean_linker_0, # of connection points: 3
#     Node 11, Type 0, BuildingBlock: MIDCAF_clean_linker_0, # of connection points: 3
#     Node 12, Type 0, BuildingBlock: MIDCAF_clean_linker_0, # of connection points: 3
#     Node 13, Type 0, BuildingBlock: MIDCAF_clean_linker_0, # of connection points: 3
#     Node 14, Type 0, BuildingBlock: MIDCAF_clean_linker_0, # of connection points: 3
#     Node 15, Type 0, BuildingBlock: MIDCAF_clean_linker_0, # of connection points: 3
#     Node 16, Type 1, BuildingBlock: UXUYUI_clean_sbu_0, # of connection points: 4
#     Node 17, Type 1, BuildingBlock: UXUYUI_clean_sbu_0, # of connection points: 4
#     Node 18, Type 1, BuildingBlock: UXUYUI_clean_sbu_0, # of connection points: 4
#     Node 19, Type 1, BuildingBlock: UXUYUI_clean_sbu_0, # of connection points: 4
#     Node 20, Type 1, BuildingBlock: UXUYUI_clean_sbu_0, # of connection points: 4
#     Node 21, Type 1, BuildingBlock: UXUYUI_clean_sbu_0, # of connection points: 4
#     Node 22, Type 1, BuildingBlock: UXUYUI_clean_sbu_0, # of connection points: 4
#     Node 23, Type 1, BuildingBlock: UXUYUI_clean_sbu_0, # of connection points: 4
#     Node 24, Type 1, BuildingBlock: UXUYUI_clean_sbu_0, # of connection points: 4
#     Node 25, Type 1, BuildingBlock: UXUYUI_clean_sbu_0, # of connection points: 4
#     Node 26, Type 1, BuildingBlock: UXUYUI_clean_sbu_0, # of connection points: 4
#     Node 27, Type 1, BuildingBlock: UXUYUI_clean_sbu_0, # of connection points: 4
#     Edge 28, Type (0, 1), BuildingBlock: XUDNAN_clean_linker_2, # of connection points: 2
#     Edge 29, Type (0, 1), BuildingBlock: XUDNAN_clean_linker_2, # of connection points: 2
#     Edge 30, Type (0, 1), BuildingBlock: XUDNAN_clean_linker_2, # of connection points: 2
#     Edge 31, Type (0, 1), BuildingBlock: XUDNAN_clean_linker_2, # of connection points: 2
#     Edge 32, Type (0, 1), BuildingBlock: XUDNAN_clean_linker_2, # of connection points: 2
#     Edge 33, Type (0, 1), BuildingBlock: XUDNAN_clean_linker_2, # of connection points: 2
#     Edge 34, Type (0, 1), BuildingBlock: XUDNAN_clean_linker_2, # of connection points: 2
#     Edge 35, Type (0, 1), BuildingBlock: XUDNAN_clean_linker_2, # of connection points: 2
#     Edge 36, Type (0, 1), BuildingBlock: XUDNAN_clean_linker_2, # of connection points: 2
#     Edge 37, Type (0, 1), BuildingBlock: XUDNAN_clean_linker_2, # of connection points: 2
#     Edge 38, Type (0, 1), BuildingBlock: XUDNAN_clean_linker_2, # of connection points: 2
#     Edge 39, Type (0, 1), BuildingBlock: XUDNAN_clean_linker_2, # of connection points: 2
#     Edge 40, Type (0, 1), BuildingBlock: XUDNAN_clean_linker_2, # of connection points: 2
#     Edge 41, Type (0, 1), BuildingBlock: XUDNAN_clean_linker_2, # of connection points: 2
#     Edge 42, Type (0, 1), BuildingBlock: XUDNAN_clean_linker_2, # of connection points: 2
#     Edge 43, Type (0, 1), BuildingBlock: XUDNAN_clean_linker_2, # of connection points: 2
#     Edge 44, Type (0, 1), BuildingBlock: XUDNAN_clean_linker_2, # of connection points: 2
#     Edge 45, Type (0, 1), BuildingBlock: XUDNAN_clean_linker_2, # of connection points: 2
#     Edge 46, Type (0, 1), BuildingBlock: XUDNAN_clean_linker_2, # of connection points: 2
#     Edge 47, Type (0, 1), BuildingBlock: XUDNAN_clean_linker_2, # of connection points: 2
#     Edge 48, Type (0, 1), BuildingBlock: XUDNAN_clean_linker_2, # of connection points: 2
#     Edge 49, Type (0, 1), BuildingBlock: XUDNAN_clean_linker_2, # of connection points: 2
#     Edge 50, Type (0, 1), BuildingBlock: XUDNAN_clean_linker_2, # of connection points: 2
#     Edge 51, Type (0, 1), BuildingBlock: XUDNAN_clean_linker_2, # of connection points: 2
#     Edge 52, Type (0, 1), BuildingBlock: XUDNAN_clean_linker_2, # of connection points: 2
#     Edge 53, Type (0, 1), BuildingBlock: XUDNAN_clean_linker_2, # of connection points: 2
#     Edge 54, Type (0, 1), BuildingBlock: XUDNAN_clean_linker_2, # of connection points: 2
#     Edge 55, Type (0, 1), BuildingBlock: XUDNAN_clean_linker_2, # of connection points: 2
#     Edge 56, Type (0, 1), BuildingBlock: XUDNAN_clean_linker_2, # of connection points: 2
#     Edge 57, Type (0, 1), BuildingBlock: XUDNAN_clean_linker_2, # of connection points: 2
#     Edge 58, Type (0, 1), BuildingBlock: XUDNAN_clean_linker_2, # of connection points: 2
#     Edge 59, Type (0, 1), BuildingBlock: XUDNAN_clean_linker_2, # of connection points: 2
#     Edge 60, Type (0, 1), BuildingBlock: XUDNAN_clean_linker_2, # of connection points: 2
#     Edge 61, Type (0, 1), BuildingBlock: XUDNAN_clean_linker_2, # of connection points: 2
#     Edge 62, Type (0, 1), BuildingBlock: XUDNAN_clean_linker_2, # of connection points: 2
#     Edge 63, Type (0, 1), BuildingBlock: XUDNAN_clean_linker_2, # of connection points: 2
#     Edge 64, Type (0, 1), BuildingBlock: XUDNAN_clean_linker_2, # of connection points: 2
#     Edge 65, Type (0, 1), BuildingBlock: XUDNAN_clean_linker_2, # of connection points: 2
#     Edge 66, Type (0, 1), BuildingBlock: XUDNAN_clean_linker_2, # of connection points: 2
#     Edge 67, Type (0, 1), BuildingBlock: XUDNAN_clean_linker_2, # of connection points: 2
#     Edge 68, Type (0, 1), BuildingBlock: XUDNAN_clean_linker_2, # of connection points: 2
#     Edge 69, Type (0, 1), BuildingBlock: XUDNAN_clean_linker_2, # of connection points: 2
#     Edge 70, Type (0, 1), BuildingBlock: XUDNAN_clean_linker_2, # of connection points: 2
#     Edge 71, Type (0, 1), BuildingBlock: XUDNAN_clean_linker_2, # of connection points: 2
#     Edge 72, Type (0, 1), BuildingBlock: XUDNAN_clean_linker_2, # of connection points: 2
#     Edge 73, Type (0, 1), BuildingBlock: XUDNAN_clean_linker_2, # of connection points: 2
#     Edge 74, Type (0, 1), BuildingBlock: XUDNAN_clean_linker_2, # of connection points: 2
#     Edge 75, Type (0, 1), BuildingBlock: XUDNAN_clean_linker_2, # of connection points: 2
# Relax obj value: 0.000
# Max RMSD: 0.004
# Mean RMSD: 0.003
data_MOF--net-ctn--node1-UXUYUI_clean_sbu_0--node2-MIDCAF_clean_linker_0--edge1-XUDNAN_clean_linker_2
_symmetry_space_group_name_H-M    P1
_symmetry_Int_Tables_number       1
_symmetry_cell_setting            triclinic
loop_
_symmetry_equiv_pos_as_xyz
'x, y, z'
_cell_length_a     80.104945
_cell_length_b     80.154896
_cell_length_c     80.112307
_cell_angle_alpha  90.091735
_cell_angle_beta   90.014595
_cell_angle_gamma 90.083412
loop_
_atom_site_label
_atom_site_type_symbol
_atom_site_fract_x
_atom_site_fract_y
_atom_site_fract_z
_atom_type_partial_charge
C0 C 1.00368 0.03568 0.08366 0.0
C1 C 0.00551 0.02058 0.09236 0.0
C2 C 0.01935 0.01042 0.0888 0.0
C3 C 0.03102 0.01517 0.07674 0.0
H4 H 0.0773 1.0022 0.05779 0.0
H5 H 0.10379 0.98737 0.05486 0.0
H6 H 0.11953 0.02276 0.01744 0.0
H7 H 0.09332 0.03765 0.0204 0.0
H8 H 0.0682 0.06184 0.00541 0.0
H9 H 0.06189 0.08287 0.98465 0.0
H10 H 0.01537 0.09378 0.00953 0.0
H11 H 0.0217 0.07265 0.03063 0.0
H12 H 0.0134 0.05202 0.06489 0.0
H13 H 0.99308 0.04372 0.08607 0.0
H14 H 0.02121 0.9988 0.09543 0.0
H15 H 0.04147 0.00696 0.07431 0.0
N16 N 0.05592 0.02635 0.05314 0.0
N17 N 0.06361 0.0432 0.03058 0.0
N18 N 0.03802 0.04769 0.04402 0.0
C19 C 0.06716 0.03046 0.04112 0.0
C20 C 0.04912 0.05188 0.03187 0.0
C21 C 0.04134 0.03492 0.05472 0.0
C22 C 0.08313 0.02119 0.03938 0.0
C23 C 0.08641 0.00684 0.04895 0.0
C24 C 0.10155 0.99827 0.04721 0.0
C25 C 0.11379 1.00395 0.03599 0.0
C26 C 0.11047 0.01821 0.02638 0.0
C27 C 0.09535 0.02669 0.02803 0.0
C28 C 0.04541 0.06538 0.0197 0.0
C29 C 0.05662 0.06869 0.0066 0.0
C30 C 0.05298 0.08073 0.99459 0.0
C31 C 0.03805 0.08986 0.99533 0.0
C32 C 0.027 0.08696 0.00866 0.0
C33 C 0.03061 0.0748 0.02069 0.0
C34 C 0.02908 0.03015 0.06781 0.0
C35 C 0.01528 0.04037 0.07146 0.0
C36 C 0.26596 0.66086 0.24129 0.0
C37 C 0.25183 0.65749 0.23147 0.0
C38 C 0.24933 0.66673 0.21678 0.0
C39 C 0.2605 0.67941 0.21229 0.0
H40 H 0.26623 0.71872 0.18066 0.0
H41 H 0.25873 0.73765 0.15833 0.0
H42 H 0.30186 0.7681 0.1694 0.0
H43 H 0.30963 0.74893 0.19181 0.0
H44 H 0.32795 0.74192 0.22974 0.0
H45 H 0.34948 0.74687 0.25097 0.0
H46 H 0.34623 0.69524 0.26598 0.0
H47 H 0.32473 0.69039 0.24526 0.0
H48 H 0.28779 0.67572 0.2448 0.0
H49 H 0.26838 0.65377 0.25253 0.0
H50 H 0.2385 0.66444 0.209 0.0
H51 H 0.25804 0.68651 0.20106 0.0
N52 N 0.28259 0.70753 0.2054 0.0
N53 N 0.30636 0.72351 0.21194 0.0
N54 N 0.29965 0.69982 0.22774 0.0
C55 C 0.29272 0.72079 0.20212 0.0
C56 C 0.30994 0.71295 0.22475 0.0
C57 C 0.28596 0.697 0.21821 0.0
C58 C 0.28852 0.73229 0.18819 0.0
C59 C 0.2742 0.72941 0.17841 0.0
C60 C 0.26981 0.74034 0.16561 0.0
C61 C 0.2796 0.75449 0.16218 0.0
C62 C 0.2941 0.75726 0.17169 0.0
C63 C 0.2985 0.74631 0.18459 0.0
C64 C 0.3244 0.71583 0.23598 0.0
C65 C 0.33199 0.73161 0.23747 0.0
C66 C 0.34435 0.73444 0.24959 0.0
C67 C 0.34932 0.72153 0.26039 0.0
C68 C 0.34236 0.70558 0.2582 0.0
C69 C 0.33004 0.70279 0.24623 0.0
C70 C 0.27448 0.68302 0.22233 0.0
C71 C 0.27716 0.67342 0.23677 0.0
C72 C 0.97804 0.4111 0.01207 0.0
C73 C 0.96548 0.4081 1.00016 0.0
C74 C 0.95093 0.41785 1.00062 0.0
C75 C 0.94927 0.43079 0.01217 0.0
H76 H 0.919 0.47143 0.02287 0.0
H77 H 0.89878 0.49325 0.01601 0.0
H78 H 0.92715 0.52868 0.04511 0.0
H79 H 0.94726 0.50706 0.05207 0.0
H80 H 0.97398 0.49395 0.07596 0.0
H81 H 0.99542 0.50102 0.09608 0.0
H82 H 0.02063 0.45455 0.08586 0.0
H83 H 0.99892 0.44722 0.06558 0.0
H84 H 0.9865 0.4264 0.03235 0.0
H85 H 0.98943 0.40384 0.012 0.0
H86 H 0.94087 0.41564 0.99185 0.0
H87 H 0.93799 0.43822 0.01186 0.0
N88 N 0.94849 0.46049 0.0322 0.0
N89 N 0.95939 0.47741 0.05336 0.0
N90 N 0.97257 0.45215 0.04671 0.0
C91 C 0.94767 0.47465 0.04146 0.0
C92 C 0.97182 0.46625 0.05618 0.0
C93 C 0.96087 0.44916 0.03471 0.0
C94 C 0.93481 0.48748 0.03797 0.0
C95 C 0.92088 0.48385 0.02788 0.0
C96 C 0.90926 0.4963 0.02401 0.0
C97 C 0.9115 0.51265 0.02993 0.0
C98 C 0.92524 0.51621 0.04022 0.0
C99 C 0.9367 0.50377 0.04428 0.0
C100 C 0.98472 0.47002 0.06898 0.0
C101 C 0.98402 0.48513 0.07793 0.0
C102 C 0.99639 0.48927 0.08945 0.0
C103 C 0.00982 0.47845 0.09241 0.0
C104 C 0.01039 0.46313 0.08385 0.0
C105 C 0.99799 0.45897 0.07219 0.0
C106 C 0.9621 0.43432 0.02364 0.0
C107 C 0.97637 0.42408 0.0237 0.0
C108 C 0.73893 0.76495 0.16917 0.0
C109 C 0.73511 0.74793 0.17087 0.0
C110 C 0.72661 0.74246 0.18516 0.0
C111 C 0.722 0.75379 0.19758 0.0
H112 H 0.68622 0.76053 0.23323 0.0
H113 H 0.66407 0.75277 0.25243 0.0
H114 H 0.66998 0.79961 0.27846 0.0
H115 H 0.69216 0.80757 0.2591 0.0
H116 H 0.72506 0.8285 0.25189 0.0
H117 H 0.74389 0.85122 0.25909 0.0
H118 H 0.77291 0.8414 0.21476 0.0
H119 H 0.75396 0.8187 0.20735 0.0
H120 H 0.73793 0.78929 0.18033 0.0
H121 H 0.74553 0.7694 0.15825 0.0
H122 H 0.72349 0.72939 0.18668 0.0
H123 H 0.71551 0.74913 0.20849 0.0
N124 N 0.70888 0.77886 0.22019 0.0
N125 N 0.71427 0.80307 0.23569 0.0
N126 N 0.73085 0.79659 0.2124 0.0
C127 C 0.70497 0.78911 0.23312 0.0
C128 C 0.72725 0.80691 0.22542 0.0
C129 C 0.72171 0.78253 0.20973 0.0
C130 C 0.6911 0.78467 0.24461 0.0
C131 C 0.68283 0.76926 0.24298 0.0
C132 C 0.67016 0.76474 0.25407 0.0
C133 C 0.66535 0.77552 0.26704 0.0
C134 C 0.67335 0.79108 0.26852 0.0
C135 C 0.68613 0.79558 0.25747 0.0
C136 C 0.73801 0.82161 0.22908 0.0
C137 C 0.73535 0.8312 0.24356 0.0
C138 C 0.74622 0.8442 0.24776 0.0
C139 C 0.75999 0.84801 0.23759 0.0
C140 C 0.76236 0.83883 0.22282 0.0
C141 C 0.75152 0.82575 0.21862 0.0
C142 C 0.72612 0.77078 0.19615 0.0
C143 C 0.73465 0.77627 0.18181 0.0
C144 C 0.03785 0.91918 0.50838 0.0
C145 C 0.02278 0.91079 0.50512 0.0
C146 C 0.01336 0.91549 0.49108 0.0
C147 C 0.0187 0.92847 0.48073 0.0
H148 H 1.0039 0.95703 0.44046 0.0
H149 H 0.98697 0.9663 0.41694 0.0
H150 H 0.02548 1.00151 0.40326 0.0
H151 H 0.04216 0.99263 0.42693 0.0
H152 H 0.06765 1.00377 0.45519 0.0
H153 H 0.09042 0.02155 0.46463 0.0
H154 H 0.10276 0.98559 0.50279 0.0
H155 H 0.07972 0.96798 0.49368 0.0
H156 H 0.05474 0.93854 0.50112 0.0
H157 H 0.04533 0.91596 0.51916 0.0
H158 H 1.00181 0.90912 0.48808 0.0
H159 H 0.01101 0.93182 0.47014 0.0
N160 N 0.02987 0.95584 0.45994 0.0
N161 N 0.04808 0.97821 0.45495 0.0
N162 N 0.05253 0.96065 0.47788 0.0
C163 C 0.03442 0.96917 0.45048 0.0
C164 C 0.05721 0.97406 0.46862 0.0
C165 C 0.03889 0.95145 0.47363 0.0
C166 C 0.02437 0.97415 0.43571 0.0
C167 C 0.00879 0.96672 0.43241 0.0
C168 C 0.9991 0.97198 0.41885 0.0
C169 C 0.00479 0.98475 0.40824 0.0
C170 C 0.02053 0.9919 0.41135 0.0
C171 C 0.03016 0.98672 0.42492 0.0
C172 C 0.07172 0.98445 0.47373 0.0
C173 C 0.07524 0.99958 0.46555 0.0
C174 C 0.08839 0.00977 0.47091 0.0
C175 C 0.09839 0.00507 0.48453 0.0
C176 C 0.09512 0.98976 0.49245 0.0
C177 C 0.08194 0.9796 0.48715 0.0
C178 C 0.0336 0.93713 0.48418 0.0
C179 C 0.04318 0.93221 0.49806 0.0
C180 C 0.23482 0.74853 0.83801 0.0
C181 C 0.22276 0.76071 0.84184 0.0
C182 C 0.20737 0.76021 0.83345 0.0
C183 C 0.20429 0.74829 0.82114 0.0
H184 H 0.16966 0.73677 0.78735 0.0
H185 H 0.14392 0.7401 0.77163 0.0
H186 H 0.1609 0.70385 0.73557 0.0
H187 H 0.18686 0.70041 0.75133 0.0
H188 H 0.21563 0.67603 0.76377 0.0
H189 H 0.23212 0.65105 0.75943 0.0
H190 H 0.26572 0.66618 0.79878 0.0
H191 H 0.24923 0.69148 0.80317 0.0
H192 H 0.24137 0.72751 0.8227 0.0
H193 H 0.24682 0.74861 0.84425 0.0
H194 H 0.19764 0.76912 0.83635 0.0
H195 H 0.19229 0.74854 0.81491 0.0
N196 N 0.19933 0.72649 0.79343 0.0
N197 N 0.20625 0.70296 0.77764 0.0
N198 N 0.22355 0.71139 0.79984 0.0
C199 C 0.19578 0.7159 0.7807 0.0
C200 C 0.22014 0.70055 0.78713 0.0
C201 C 0.21313 0.72443 0.80305 0.0
C202 C 0.18036 0.71824 0.77068 0.0
C203 C 0.16802 0.72952 0.77605 0.0
C204 C 0.1532 0.73139 0.76708 0.0
C205 C 0.15036 0.72215 0.75244 0.0
C206 C 0.1628 0.71117 0.74679 0.0
C207 C 0.17761 0.70915 0.75588 0.0
C208 C 0.23096 0.6858 0.78395 0.0
C209 C 0.22656 0.67418 0.77151 0.0
C210 C 0.23598 0.65976 0.76904 0.0
C211 C 0.25012 0.65653 0.77888 0.0
C212 C 0.25491 0.66835 0.79096 0.0
C213 C 0.2454 0.68281 0.79352 0.0
C214 C 0.21648 0.73642 0.81685 0.0
C215 C 0.23171 0.7365 0.82562 0.0
C216 C 0.99255 0.58985 0.49638 0.0
C217 C 0.97955 0.59572 0.50654 0.0
C218 C 0.96494 0.58608 0.50801 0.0
C219 C 0.96309 0.57127 0.4988 0.0
H220 H 0.93066 0.53074 0.48802 0.0
H221 H 0.90551 0.5134 0.48806 0.0
H222 H 0.92638 0.48307 0.44868 0.0
H223 H 0.95122 0.50037 0.44839 0.0
H224 H 0.98138 0.5136 0.42713 0.0
H225 H 0.99976 0.51232 0.40283 0.0
H226 H 0.02976 0.55212 0.42347 0.0
H227 H 0.01142 0.55361 0.44754 0.0
H228 H 1.00098 0.57129 0.47931 0.0
H229 H 1.00411 0.5968 0.49526 0.0
H230 H 0.9547 0.59031 0.51576 0.0
H231 H 0.95147 0.56441 0.49974 0.0
N232 N 0.96003 0.54101 0.47805 0.0
N233 N 0.96933 0.52569 0.4548 0.0
N234 N 0.98481 0.5485 0.46438 0.0
C235 C 0.9579 0.52811 0.46714 0.0
C236 C 0.98284 0.53582 0.45333 0.0
C237 C 0.97358 0.55122 0.47677 0.0
C238 C 0.94296 0.51711 0.46808 0.0
C239 C 0.92992 0.52033 0.47942 0.0
C240 C 0.91552 0.51035 0.4795 0.0
C241 C 0.91385 0.49697 0.46823 0.0
C242 C 0.92709 0.49349 0.45727 0.0
C243 C 0.94141 0.50341 0.45718 0.0
C244 C 0.99476 0.53384 0.43926 0.0
C245 C 0.99197 0.52199 0.42657 0.0
C246 C 1.00255 0.52119 0.41266 0.0
C247 C 0.0161 0.53225 0.41113 0.0
C248 C 0.01923 0.54365 0.42411 0.0
C249 C 0.00872 0.54444 0.43798 0.0
C250 C 0.97585 0.56585 0.488 0.0
C251 C 0.99074 0.57514 0.48725 0.0
C252 C 0.84218 0.77176 0.76905 0.0
C253 C 0.84551 0.78114 0.75464 0.0
C254 C 0.83346 0.79258 0.74904 0.0
C255 C 0.81855 0.79482 0.75789 0.0
H256 H 0.78035 0.83097 0.76791 0.0
H257 H 0.76291 0.85606 0.76636 0.0
H258 H 0.72686 0.83301 0.79907 0.0
H259 H 0.74401 0.8082 0.80071 0.0
H260 H 0.75268 0.77795 0.82154 0.0
H261 H 0.74705 0.76276 0.84708 0.0
H262 H 0.79714 0.74289 0.84645 0.0
H263 H 0.80277 0.75794 0.82051 0.0
H264 H 0.82525 0.76647 0.78892 0.0
H265 H 0.85111 0.76269 0.77356 0.0
H266 H 0.83573 0.80006 0.73802 0.0
H267 H 0.80962 0.80387 0.75334 0.0
N268 N 0.78912 0.80086 0.7785 0.0
N269 N 0.77158 0.79267 0.80041 0.0
N270 N 0.79606 0.77774 0.79517 0.0
C271 C 0.77498 0.8032 0.78761 0.0
C272 C 0.78197 0.77995 0.80431 0.0
C273 C 0.79969 0.78805 0.78215 0.0
C274 C 0.76375 0.81764 0.78466 0.0
C275 C 0.76859 0.83118 0.77458 0.0
C276 C 0.75861 0.84554 0.77366 0.0
C277 C 0.74369 0.84658 0.78285 0.0
C278 C 0.73848 0.83271 0.79215 0.0
C279 C 0.74834 0.81845 0.79304 0.0
C280 C 0.77827 0.76935 0.81903 0.0
C281 C 0.76252 0.77029 0.82673 0.0
C282 C 0.75929 0.76163 0.84146 0.0
C283 C 0.77173 0.75184 0.84897 0.0
C284 C 0.78728 0.7503 0.84095 0.0
C285 C 0.79051 0.75896 0.8261 0.0
C286 C 0.8153 0.78555 0.77245 0.0
C287 C 0.82726 0.77389 0.77781 0.0
C288 C 0.34275 0.25922 0.26723 0.0
C289 C 0.34991 0.27094 0.25628 0.0
C290 C 0.34201 0.28648 0.25433 0.0
C291 C 0.32741 0.29022 0.26315 0.0
H292 H 0.28711 0.32204 0.26291 0.0
H293 H 0.26921 0.34471 0.25376 0.0
H294 H 0.2328 0.33124 0.29118 0.0
H295 H 0.2509 0.30879 0.30068 0.0
H296 H 0.26139 0.28318 0.32851 0.0
H297 H 0.25547 0.26886 0.35457 0.0
H298 H 0.29813 0.2369 0.34679 0.0
H299 H 0.30401 0.25106 0.32051 0.0
H300 H 0.32318 0.25372 0.28456 0.0
H301 H 0.34824 0.24699 0.26882 0.0
H302 H 0.34725 0.29594 0.24624 0.0
H303 H 0.32177 0.30237 0.26144 0.0
N304 N 0.29529 0.29559 0.27918 0.0
N305 N 0.27748 0.29056 0.30183 0.0
N306 N 0.30114 0.27384 0.29783 0.0
C307 C 0.28135 0.29955 0.28799 0.0
C308 C 0.28731 0.2777 0.30687 0.0
C309 C 0.30522 0.28273 0.28397 0.0
C310 C 0.27047 0.3135 0.28253 0.0
C311 C 0.2753 0.32388 0.26923 0.0
C312 C 0.26497 0.33685 0.2639 0.0
C313 C 0.2495 0.33976 0.27166 0.0
C314 C 0.24471 0.32949 0.28505 0.0
C315 C 0.25508 0.31653 0.29043 0.0
C316 C 0.28326 0.26839 0.32238 0.0
C317 C 0.26951 0.27306 0.33224 0.0
C318 C 0.26614 0.2649 0.34727 0.0
C319 C 0.27641 0.25183 0.35282 0.0
C320 C 0.28991 0.24685 0.3428 0.0
C321 C 0.29333 0.25505 0.32777 0.0
C322 C 0.32046 0.2786 0.2743 0.0
C323 C 0.32829 0.26304 0.27621 0.0
C324 C 0.48774 0.92098 0.51142 0.0
C325 C 0.47336 0.91248 0.50607 0.0
C326 C 0.45761 0.91922 0.50972 0.0
C327 C 0.45624 0.93416 0.51865 0.0
H328 H 0.42864 0.98084 0.51966 0.0
H329 H 0.40303 0.99748 0.51923 0.0
H330 H 0.41753 0.02098 0.56554 0.0
H331 H 0.44304 0.00455 0.56602 0.0
H332 H 0.48289 0.0053 0.57256 0.0
H333 H 0.50439 0.01316 0.59249 0.0
H334 H 0.52933 0.96615 0.5843 0.0
H335 H 0.50769 0.95811 0.56431 0.0
H336 H 0.49768 0.9419 0.52482 0.0
H337 H 0.50002 0.91597 0.50881 0.0
H338 H 0.44634 0.91293 0.50564 0.0
H339 H 0.44391 0.93897 0.52136 0.0
N340 N 0.45499 0.96726 0.53383 0.0
N341 N 0.46594 0.98546 0.55398 0.0
N342 N 0.4816 0.9624 0.54517 0.0
C343 C 0.45335 0.98113 0.54347 0.0
C344 C 0.4801 0.97621 0.55492 0.0
C345 C 0.4691 0.95785 0.53459 0.0
C346 C 0.4379 0.9913 0.5429 0.0
C347 C 0.42637 0.98956 0.52974 0.0
C348 C 0.41176 0.99915 0.52943 0.0
C349 C 0.40828 0.01045 0.54239 0.0
C350 C 0.41982 0.01224 0.55547 0.0
C351 C 0.43449 1.00286 0.55568 0.0
C352 C 0.49352 0.98105 0.56677 0.0
C353 C 0.49294 0.99659 0.57493 0.0
C354 C 0.50533 1.00117 0.58631 0.0
C355 C 0.51859 0.9903 0.58992 0.0
C356 C 0.5192 0.97474 0.58184 0.0
C357 C 0.50685 0.97019 0.57031 0.0
C358 C 0.47061 0.94248 0.5244 0.0
C359 C 0.48638 0.93575 0.52064 0.0
C360 C 0.23796 0.26171 0.67233 0.0
C361 C 0.22719 0.24786 0.67164 0.0
C362 C 0.21386 0.24696 0.68298 0.0
C363 C 0.21157 0.25934 0.69503 0.0
H364 H 0.184 0.26875 0.73669 0.0
H365 H 0.16283 0.26472 0.75817 0.0
H366 H 0.17562 0.31252 0.7797 0.0
H367 H 0.19702 0.31637 0.75858 0.0
H368 H 0.23442 0.32782 0.75283 0.0
H369 H 0.25589 0.34838 0.75877 0.0
H370 H 0.27699 0.34085 0.7098 0.0
H371 H 0.25539 0.31996 0.7037 0.0
H372 H 0.24446 0.28444 0.6849 0.0
H373 H 0.24839 0.26272 0.66379 0.0
H374 H 0.20516 0.2366 0.68258 0.0
H375 H 0.20124 0.25802 0.70364 0.0
N376 N 0.20776 0.28402 0.7207 0.0
N377 N 0.21744 0.30726 0.73551 0.0
N378 N 0.23195 0.29803 0.71179 0.0
C379 C 0.20603 0.29488 0.73359 0.0
C380 C 0.23041 0.30898 0.72472 0.0
C381 C 0.22062 0.2855 0.70969 0.0
C382 C 0.19236 0.29283 0.74595 0.0
C383 C 0.18226 0.27845 0.74595 0.0
C384 C 0.17004 0.27616 0.75824 0.0
C385 C 0.1676 0.28823 0.77077 0.0
C386 C 0.17739 0.3028 0.77046 0.0
C387 C 0.18963 0.30505 0.75826 0.0
C388 C 0.24318 0.32211 0.72779 0.0
C389 C 0.24352 0.33052 0.74322 0.0
C390 C 0.2559 0.34227 0.7467 0.0
C391 C 0.26817 0.3461 0.7348 0.0
C392 C 0.26764 0.33812 0.71917 0.0
C393 C 0.25532 0.32613 0.71574 0.0
C394 C 0.22261 0.27297 0.69612 0.0
C395 C 0.23574 0.27411 0.68449 0.0
C396 C 0.77056 0.17166 0.74288 0.0
C397 C 0.75608 0.16766 0.73381 0.0
C398 C 0.75234 0.17686 0.71937 0.0
C399 C 0.76273 0.18994 0.71426 0.0
H400 H 0.7638 0.231 0.68366 0.0
H401 H 0.75483 0.2498 0.66161 0.0
H402 H 0.80184 0.27605 0.66473 0.0
H403 H 0.81099 0.25713 0.68671 0.0
H404 H 0.83588 0.24868 0.71642 0.0
H405 H 0.86181 0.25368 0.73155 0.0
H406 H 0.85169 0.21109 0.76293 0.0
H407 H 0.82566 0.20623 0.7481 0.0
H408 H 0.792 0.18738 0.74511 0.0
H409 H 0.7739 0.16466 0.75394 0.0
H410 H 0.7412 0.17416 0.71219 0.0
H411 H 0.75938 0.19686 0.70315 0.0
N412 N 0.78355 0.21828 0.70547 0.0
N413 N 0.80801 0.23403 0.70907 0.0
N414 N 0.80269 0.21105 0.72635 0.0
C415 C 0.79342 0.23128 0.70081 0.0
C416 C 0.81274 0.22396 0.72187 0.0
C417 C 0.7881 0.20809 0.71822 0.0
C418 C 0.78813 0.24253 0.68706 0.0
C419 C 0.7723 0.24072 0.67965 0.0
C420 C 0.76709 0.25157 0.66705 0.0
C421 C 0.77759 0.26447 0.66147 0.0
C422 C 0.79351 0.26615 0.66866 0.0
C423 C 0.7987 0.25535 0.68134 0.0
C424 C 0.82861 0.22704 0.73099 0.0
C425 C 0.83914 0.24037 0.72655 0.0
C426 C 0.85407 0.2432 0.73518 0.0
C427 C 0.85884 0.23278 0.74846 0.0
C428 C 0.8483 0.21949 0.75292 0.0
C429 C 0.83339 0.21665 0.7443 0.0
C430 C 0.77717 0.19404 0.72342 0.0
C431 C 0.78099 0.18465 0.73774 0.0
C432 C 0.49925 0.54356 0.58716 0.0
C433 C 0.49987 0.52782 0.59483 0.0
C434 C 0.512 0.51632 0.58955 0.0
C435 C 0.52299 0.52028 0.5766 0.0
H436 H 0.56853 0.50634 0.5548 0.0
H437 H 0.59012 0.48642 0.5466 0.0
H438 H 0.59305 0.50947 0.49803 0.0
H439 H 0.57154 0.52931 0.50608 0.0
H440 H 0.5476 0.55822 0.49687 0.0
H441 H 0.54012 0.58026 0.47739 0.0
H442 H 0.51302 0.60572 0.51634 0.0
H443 H 0.52034 0.58348 0.536 0.0
H444 H 0.50905 0.55957 0.56813 0.0
H445 H 0.48998 0.55264 0.59093 0.0
H446 H 0.51292 0.50417 0.59538 0.0
H447 H 0.53196 0.51096 0.57272 0.0
N448 N 0.54544 0.52878 0.54973 0.0
N449 N 0.55115 0.54442 0.52573 0.0
N450 N 0.52949 0.55258 0.54366 0.0
C451 C 0.55473 0.53127 0.53576 0.0
C452 C 0.53863 0.55518 0.52959 0.0
C453 C 0.53279 0.53935 0.55378 0.0
C454 C 0.56821 0.51942 0.5311 0.0
C455 C 0.57379 0.50719 0.54238 0.0
C456 C 0.58623 0.49583 0.53773 0.0
C457 C 0.59321 0.49633 0.52165 0.0
C458 C 0.58776 0.50864 0.51044 0.0
C459 C 0.57547 0.52008 0.51512 0.0
C460 C 0.53453 0.56903 0.51802 0.0
C461 C 0.54012 0.56852 0.50138 0.0
C462 C 0.53577 0.5811 0.49017 0.0
C463 C 0.52594 0.59463 0.49535 0.0
C464 C 0.52066 0.59543 0.51206 0.0
C465 C 0.52479 0.58267 0.52326 0.0
C466 C 0.52201 0.5358 0.56846 0.0
C467 C 0.51013 0.54748 0.57404 0.0
C468 C 0.54097 0.42654 0.01583 0.0
C469 C 0.53588 0.41079 0.00999 0.0
C470 C 0.5313 0.40912 0.99308 0.0
C471 C 0.53275 0.42271 0.98211 0.0
H472 H 0.50664 0.45622 0.94369 0.0
H473 H 0.48924 0.46504 0.92021 0.0
H474 H 0.52906 0.49708 0.90298 0.0
H475 H 0.54617 0.48867 0.92646 0.0
H476 H 0.56795 0.50619 0.95808 0.0
H477 H 0.5906 0.52455 0.96711 0.0
H478 H 0.608 0.48631 1.00085 0.0
H479 H 0.58519 0.46831 0.99231 0.0
H480 H 0.5471 0.45173 0.00981 0.0
H481 H 0.54405 0.42847 0.02885 0.0
H482 H 0.52731 0.39716 0.98818 0.0
H483 H 0.52982 0.42096 0.96903 0.0
N484 N 0.53388 0.45488 0.9623 0.0
N485 N 0.55111 0.47789 0.95615 0.0
N486 N 0.55611 0.46201 0.98005 0.0
C487 C 0.5379 0.46794 0.95214 0.0
C488 C 0.56032 0.47495 0.97005 0.0
C489 C 0.54299 0.45194 0.97634 0.0
C490 C 0.52774 0.4719 0.93713 0.0
C491 C 0.51171 0.46505 0.93481 0.0
C492 C 0.50175 0.47006 0.92132 0.0
C493 C 0.50765 0.48198 0.90984 0.0
C494 C 0.52393 0.48822 0.91181 0.0
C495 C 0.5338 0.48331 0.92528 0.0
C496 C 0.57462 0.48584 0.97459 0.0
C497 C 0.57666 0.5017 0.96738 0.0
C498 C 0.5897 0.5122 0.97252 0.0
C499 C 0.60104 0.50701 0.98488 0.0
C500 C 0.59927 0.49093 0.99164 0.0
C501 C 0.5862 0.48054 0.98665 0.0
C502 C 0.53894 0.4381 0.98788 0.0
C503 C 0.54262 0.43994 0.00491 0.0
C504 C 0.74307 0.24106 0.34172 0.0
C505 C 0.73124 0.25235 0.34807 0.0
C506 C 0.71647 0.25504 0.33896 0.0
C507 C 0.71345 0.24632 0.32408 0.0
H508 H 0.6819 0.24407 0.28053 0.0
H509 H 0.65557 0.24632 0.26495 0.0
H510 H 0.66541 0.19894 0.24135 0.0
H511 H 0.69149 0.19665 0.25654 0.0
H512 H 0.73234 0.18847 0.25362 0.0
H513 H 0.749 0.16441 0.24588 0.0
H514 H 0.76809 0.16145 0.29627 0.0
H515 H 0.75183 0.18609 0.30384 0.0
H516 H 0.74945 0.22366 0.32257 0.0
H517 H 0.75473 0.23893 0.34821 0.0
H518 H 0.70705 0.26357 0.34355 0.0
H519 H 0.70182 0.24849 0.31755 0.0
N520 N 0.70771 0.22751 0.29337 0.0
N521 N 0.71541 0.20593 0.27516 0.0
N522 N 0.73243 0.2124 0.29801 0.0
C523 C 0.70448 0.21807 0.27959 0.0
C524 C 0.72939 0.203 0.28422 0.0
C525 C 0.72173 0.22477 0.30262 0.0
C526 C 0.68882 0.22015 0.26987 0.0
C527 C 0.67847 0.23418 0.27195 0.0
C528 C 0.66346 0.23553 0.263 0.0
C529 C 0.65844 0.22273 0.25207 0.0
C530 C 0.66889 0.20889 0.24983 0.0
C531 C 0.68391 0.20765 0.25853 0.0
C532 C 0.74063 0.18912 0.27939 0.0
C533 C 0.74017 0.18277 0.26304 0.0
C534 C 0.74966 0.16886 0.25863 0.0
C535 C 0.7597 0.16073 0.2705 0.0
C536 C 0.7606 0.16742 0.28675 0.0
C537 C 0.75123 0.18153 0.29112 0.0
C538 C 0.72513 0.23471 0.31797 0.0
C539 C 0.74005 0.23235 0.32691 0.0
C540 C 0.4835 0.09343 1.00047 0.0
C541 C 0.47187 0.09388 0.0136 0.0
C542 C 0.45883 0.08211 0.0137 0.0
C543 C 0.45761 0.07003 1.00116 0.0
H544 H 0.427 0.03201 0.98331 0.0
H545 H 0.40505 0.01095 0.98409 0.0
H546 H 0.43248 0.98112 0.94847 0.0
H547 H 0.45405 1.0024 0.94723 0.0
H548 H 0.47931 0.02274 0.92334 0.0
H549 H 0.49821 0.02344 0.89957 0.0
H550 H 0.52435 0.06521 0.92155 0.0
H551 H 0.50525 0.06482 0.94515 0.0
H552 H 0.49159 0.08128 0.97811 0.0
H553 H 0.4938 0.1022 1.00009 0.0
H554 H 0.44949 0.08226 0.02347 0.0
H555 H 0.44743 0.06114 1.00175 0.0
N556 N 0.45631 0.04425 0.97591 0.0
N557 N 0.46663 0.03192 0.95144 0.0
N558 N 0.47945 0.05592 0.96227 0.0
C559 C 0.45541 0.03203 0.96416 0.0
C560 C 0.47868 0.04383 0.95037 0.0
C561 C 0.46833 0.05623 0.97509 0.0
C562 C 0.44226 0.01898 0.96512 0.0
C563 C 0.42836 0.02094 0.97566 0.0
C564 C 0.41579 0.0088 0.97618 0.0
C565 C 0.41689 0.99432 0.96628 0.0
C566 C 0.43098 0.99225 0.956 0.0
C567 C 0.44343 0.00445 0.95535 0.0
C568 C 0.49064 0.04379 0.93618 0.0
C569 C 0.4891 0.03207 0.92317 0.0
C570 C 0.50002 0.03239 0.90955 0.0
C571 C 0.51278 0.04442 0.90859 0.0
C572 C 0.5145 0.05595 0.92173 0.0
C573 C 0.50357 0.05566 0.93534 0.0
C574 C 0.46938 0.06939 0.98815 0.0
C575 C 0.48228 0.08134 0.9879 0.0
Li576 Li 0.27829 0.88264 0.99985 0.0
Li577 Li 0.26354 0.86149 0.01703 0.0
Li578 Li 0.25868 0.86441 0.98674 0.0
Li579 Li 0.24877 0.88646 0.00632 0.0
C580 C 0.28389 0.84391 0.98982 0.0
N581 N 0.29106 0.81538 0.9718 0.0
C582 C 0.28091 0.82819 0.99674 0.0
C583 C 0.29063 0.84511 0.97376 0.0
C584 C 0.28461 0.81392 0.98743 0.0
C585 C 0.29412 0.83054 0.96484 0.0
C586 C 0.26429 0.88857 0.03853 0.0
C587 C 0.24552 0.88672 0.06198 0.0
N588 N 0.25724 0.89412 0.07182 0.0
C589 C 0.27615 0.89613 0.04886 0.0
C590 C 0.24886 0.8838 0.04512 0.0
C591 C 0.27234 0.89884 0.06566 0.0
C592 C 0.2995 0.91083 1.00243 0.0
N593 N 0.29867 0.89475 0.99702 0.0
C594 C 0.3252 0.89729 0.98367 0.0
C595 C 0.31135 0.88774 0.98822 0.0
C596 C 0.32607 0.91416 0.98837 0.0
C597 C 0.31321 0.92081 0.99826 0.0
H598 H 0.28917 0.91609 0.00934 0.0
H599 H 0.31042 0.87492 0.98417 0.0
C600 C 0.25277 0.83485 0.03729 0.0
N601 N 0.26474 0.84676 0.03564 0.0
C602 C 0.2524 0.82469 0.05142 0.0
C603 C 0.27706 0.83882 0.06165 0.0
C604 C 0.27691 0.84876 0.04731 0.0
C605 C 0.26452 0.82676 0.06396 0.0
H606 H 0.24339 0.83338 0.0277 0.0
H607 H 0.2863 0.85833 0.04566 0.0
C608 C 0.26697 0.90222 0.97638 0.0
N609 N 0.28237 0.92912 0.96125 0.0
C610 C 0.26234 0.91849 0.9806 0.0
C611 C 0.27934 0.89964 0.96433 0.0
C612 C 0.27028 0.93192 0.97283 0.0
C613 C 0.28703 0.9134 0.95688 0.0
C614 C 0.2252 0.85995 1.00361 0.0
C615 C 0.21758 0.86086 0.98793 0.0
C616 C 0.21552 0.85633 0.01767 0.0
C617 C 0.20038 0.85824 0.9866 0.0
C618 C 0.19836 0.85382 0.01582 0.0
N619 N 0.19121 0.85481 1.00046 0.0
C620 C 0.24824 0.83604 0.96749 0.0
C621 C 0.25519 0.86014 0.95189 0.0
C622 C 0.24453 0.82725 0.95282 0.0
N623 N 0.25348 0.85218 0.96674 0.0
C624 C 0.25173 0.85184 0.93697 0.0
C625 C 0.24618 0.83519 0.93726 0.0
H626 H 0.24685 0.83003 0.97949 0.0
H627 H 0.25917 0.87299 0.9516 0.0
C628 C 0.23648 0.91593 0.02158 0.0
N629 N 0.23206 0.90313 0.0113 0.0
C630 C 0.22515 0.92861 0.02534 0.0
C631 C 0.20491 0.91507 0.00756 0.0
C632 C 0.21666 0.90264 1.00414 0.0
C633 C 0.2091 0.92833 0.01827 0.0
H634 H 0.24895 0.9165 0.02668 0.0
H635 H 0.21354 0.89286 0.99546 0.0
O636 O 0.28005 0.85802 0.99863 0.0
O637 O 0.26794 0.88558 0.02212 0.0
O638 O 0.25962 0.8889 0.98417 0.0
O639 O 0.24209 0.86215 0.00515 0.0
H640 H 0.2757 0.82701 0.00914 0.0
H641 H 0.2928 0.85716 0.9681 0.0
H642 H 0.28231 0.80167 0.99261 0.0
H643 H 0.29918 0.8313 0.95234 0.0
H644 H 0.23363 0.88309 0.06725 0.0
H645 H 0.28819 0.89983 0.04393 0.0
H646 H 0.23957 0.87794 0.03728 0.0
H647 H 0.2814 0.90469 0.07382 0.0
H648 H 0.33497 0.89163 0.97624 0.0
H649 H 0.31335 0.93379 1.00204 0.0
H650 H 0.2427 0.81534 0.05255 0.0
H651 H 0.28656 0.84091 0.07104 0.0
H652 H 0.25278 0.92075 0.98984 0.0
H653 H 0.28329 0.88716 0.96107 0.0
H654 H 0.26686 0.94458 0.97604 0.0
H655 H 0.29676 0.91158 0.9477 0.0
H656 H 0.22475 0.86391 0.97693 0.0
H657 H 0.22118 0.85543 0.02989 0.0
H658 H 0.19432 0.85901 0.97456 0.0
H659 H 0.19073 0.85104 0.02661 0.0
H660 H 0.24009 0.81452 0.95371 0.0
H661 H 0.25345 0.85844 0.92532 0.0
H662 H 0.22896 0.93855 0.03369 0.0
H663 H 0.19283 0.91454 1.0015 0.0
Li664 Li 0.11968 0.50126 0.2653 0.0
Li665 Li 0.14072 0.48312 0.25214 0.0
Li666 Li 0.14194 0.51449 0.24926 0.0
Li667 Li 0.12105 0.49792 0.23382 0.0
C668 C 0.14594 0.50084 0.28663 0.0
N669 N 0.14912 0.50154 0.32098 0.0
C670 C 0.14997 0.4863 0.29535 0.0
C671 C 0.14374 0.51578 0.29538 0.0
C672 C 0.15148 0.4869 0.31271 0.0
C673 C 0.14532 0.51586 0.31274 0.0
C674 C 0.11146 0.46457 0.25267 0.0
C675 C 0.1076 0.43735 0.24038 0.0
N676 N 0.10258 0.43136 0.25545 0.0
C677 C 0.10606 0.45821 0.26798 0.0
C678 C 0.11205 0.45412 0.23871 0.0
C679 C 0.1017 0.44136 0.26915 0.0
C680 C 0.09317 0.51694 0.28172 0.0
N681 N 0.10482 0.5048 0.28378 0.0
C682 C 0.09597 0.50059 0.31203 0.0
C683 C 0.1061 0.49633 0.29844 0.0
C684 C 0.08439 0.51364 0.31045 0.0
C685 C 0.08283 0.5216 0.29493 0.0
H686 H 0.09207 0.52323 0.26986 0.0
H687 H 0.11521 0.48651 0.29976 0.0
C688 C 0.16854 0.46364 0.2444 0.0
N689 N 0.15435 0.46352 0.2537 0.0
C690 C 0.17899 0.44974 0.24405 0.0
C691 C 0.16056 0.43603 0.26357 0.0
C692 C 0.15034 0.45018 0.2634 0.0
C693 C 0.17497 0.43564 0.2536 0.0
H694 H 0.17177 0.47455 0.23718 0.0
H695 H 0.13928 0.45049 0.27108 0.0
C696 C 0.1161 0.53532 0.24565 0.0
N697 N 0.11385 0.56952 0.24201 0.0
C698 C 0.11191 0.54221 0.2302 0.0
C699 C 0.11891 0.54583 0.25931 0.0
C700 C 0.11089 0.55953 0.22859 0.0
C701 C 0.11779 0.56308 0.2572 0.0
C702 C 0.15035 0.49321 0.21615 0.0
C703 C 0.15825 0.50515 0.2062 0.0
C704 C 0.14728 0.47729 0.20973 0.0
C705 C 0.16267 0.50103 0.18983 0.0
C706 C 0.1519 0.47364 0.19331 0.0
N707 N 0.15942 0.4855 0.18378 0.0
C708 C 0.16718 0.53603 0.26099 0.0
C709 C 0.15552 0.54428 0.23512 0.0
C710 C 0.17735 0.55018 0.26129 0.0
N711 N 0.15636 0.53348 0.24817 0.0
C712 C 0.16546 0.55864 0.23491 0.0
C713 C 0.17643 0.56184 0.24824 0.0
H714 H 0.16787 0.5271 0.27105 0.0
H715 H 0.14697 0.54188 0.22496 0.0
C716 C 0.09405 0.48742 0.21342 0.0
N717 N 0.10835 0.49657 0.21369 0.0
C718 C 0.0843 0.48668 0.19895 0.0
C719 C 0.10425 0.50471 0.1853 0.0
C720 C 0.11353 0.50517 0.20003 0.0
C721 C 0.08931 0.49551 0.18463 0.0
H722 H 0.09006 0.48091 0.22453 0.0
H723 H 0.12472 0.51267 0.20064 0.0
O724 O 0.14436 0.50046 0.26963 0.0
O725 O 0.11576 0.48104 0.25131 0.0
O726 O 0.11738 0.51839 0.24742 0.0
O727 O 0.1458 0.49708 0.23217 0.0
H728 H 0.15185 0.47467 0.28879 0.0
H729 H 0.14081 0.52718 0.28884 0.0
H730 H 0.15451 0.47572 0.31962 0.0
H731 H 0.14355 0.52732 0.31967 0.0
H732 H 0.10808 0.4291 0.22969 0.0
H733 H 0.10536 0.46614 0.27887 0.0
H734 H 0.11578 0.45891 0.22667 0.0
H735 H 0.09762 0.43624 0.28095 0.0
H736 H 0.0976 0.49413 0.32377 0.0
H737 H 0.0738 0.53146 0.29303 0.0
H738 H 0.19018 0.45009 0.23647 0.0
H739 H 0.15706 0.42542 0.27116 0.0
H740 H 0.10953 0.53428 0.21953 0.0
H741 H 0.12196 0.54071 0.2714 0.0
H742 H 0.10775 0.56503 0.21668 0.0
H743 H 0.12004 0.57135 0.26765 0.0
H744 H 0.16087 0.51748 0.21102 0.0
H745 H 0.14151 0.46781 0.21737 0.0
H746 H 0.1687 0.51018 0.18195 0.0
H747 H 0.14956 0.46138 0.18817 0.0
H748 H 0.18588 0.55193 0.27164 0.0
H749 H 0.16428 0.5673 0.22463 0.0
H750 H 0.07275 0.47966 0.19914 0.0
H751 H 0.10874 0.51157 0.17456 0.0
Li752 Li 0.73979 0.6219 0.00657 0.0
Li753 Li 0.75347 0.64307 0.0242 0.0
Li754 Li 0.75484 0.64432 0.99354 0.0
Li755 Li 0.77029 0.62312 0.00907 0.0
C756 C 0.71811 0.64655 0.00928 0.0
N757 N 0.68375 0.64581 0.01214 0.0
C758 C 0.71054 0.64985 0.02464 0.0
C759 C 0.70822 0.64301 0.99534 0.0
C760 C 0.69315 0.6494 0.02584 0.0
C761 C 0.69087 0.64264 0.99706 0.0
C762 C 0.76053 0.6051 0.0343 0.0
C763 C 0.78127 0.59294 0.05237 0.0
N764 N 0.77576 0.57746 0.04807 0.0
C765 C 0.75503 0.58908 0.03009 0.0
C766 C 0.7737 0.60708 0.04558 0.0
C767 C 0.7629 0.57526 0.03719 0.0
C768 C 0.71843 0.59749 0.99174 0.0
N769 N 0.72107 0.60722 0.0054 0.0
C770 C 0.69713 0.59567 0.01892 0.0
C771 C 0.71084 0.60643 0.01889 0.0
C772 C 0.69411 0.58528 0.00507 0.0
C773 C 0.70497 0.58636 0.99131 0.0
H774 H 0.72694 0.59815 0.9813 0.0
H775 H 0.71338 0.61414 0.02969 0.0
C776 C 0.75056 0.6727 0.0438 0.0
N777 N 0.75161 0.65577 0.04434 0.0
C778 C 0.75029 0.682 0.05857 0.0
C779 C 0.75107 0.65623 0.07415 0.0
C780 C 0.75158 0.64746 0.0591 0.0
C781 C 0.75072 0.67379 0.07408 0.0
H782 H 0.75028 0.67899 0.03188 0.0
H783 H 0.75202 0.63399 0.05919 0.0
C784 C 0.75957 0.62014 0.97203 0.0
N785 N 0.766 0.62193 0.93821 0.0
C786 C 0.77585 0.61815 0.9661 0.0
C787 C 0.74654 0.62293 0.96078 0.0
C788 C 0.77884 0.6191 0.94895 0.0
C789 C 0.75005 0.62384 0.94372 0.0
C790 C 0.78044 0.66095 0.01731 0.0
C791 C 0.77908 0.67677 0.01011 0.0
C792 C 0.78874 0.65913 0.03256 0.0
C793 C 0.78603 0.69052 0.01833 0.0
C794 C 0.79548 0.67319 0.04039 0.0
N795 N 0.794 0.68846 0.03317 0.0
C796 C 0.74181 0.6679 0.97089 0.0
C797 C 0.77023 0.66107 0.9664 0.0
C798 C 0.74222 0.67939 0.95783 0.0
N799 N 0.75569 0.65908 0.97493 0.0
C800 C 0.77119 0.67238 0.95317 0.0
C801 C 0.7571 0.68185 0.94887 0.0
H802 H 0.73047 0.66622 0.97798 0.0
H803 H 0.78117 0.65409 0.97008 0.0
C804 C 0.78987 0.59387 0.00476 0.0
N805 N 0.79023 0.61012 0.00963 0.0
C806 C 0.80438 0.58421 0.00532 0.0
C807 C 0.81933 0.60826 0.01579 0.0
C808 C 0.80458 0.61742 0.01498 0.0
C809 C 0.81941 0.59141 0.01088 0.0
H810 H 0.77829 0.58842 1.0004 0.0
H811 H 0.80458 0.63038 0.01862 0.0
O812 O 0.73513 0.6467 0.00791 0.0
O813 O 0.75328 0.61878 0.02716 0.0
O814 O 0.75643 0.61956 0.9888 0.0
O815 O 0.77359 0.64735 0.00953 0.0
H816 H 0.71801 0.6526 0.03556 0.0
H817 H 0.71388 0.64034 0.98337 0.0
H818 H 0.68711 0.65185 0.03767 0.0
H819 H 0.68306 0.63979 0.98641 0.0
H820 H 0.79156 0.59427 0.06102 0.0
H821 H 0.74492 0.58733 0.02131 0.0
H822 H 0.77819 0.61939 0.04886 0.0
H823 H 0.75883 0.56279 0.03399 0.0
H824 H 0.68901 0.59554 0.02972 0.0
H825 H 0.70337 0.57842 0.98049 0.0
H826 H 0.75012 0.69548 0.0578 0.0
H827 H 0.7509 0.64927 0.08572 0.0
H828 H 0.78609 0.61606 0.97465 0.0
H829 H 0.73388 0.62458 0.96519 0.0
H830 H 0.79139 0.61767 0.94417 0.0
H831 H 0.74011 0.62611 0.93488 0.0
H832 H 0.77263 0.67846 0.99839 0.0
H833 H 0.7897 0.64703 0.03844 0.0
H834 H 0.78503 0.70283 0.01292 0.0
H835 H 0.80182 0.67197 0.05225 0.0
H836 H 0.73103 0.68632 0.95483 0.0
H837 H 0.78296 0.67405 0.94672 0.0
H838 H 0.80388 0.57134 1.00122 0.0
H839 H 0.83053 0.61429 0.02038 0.0
Li840 Li 0.87296 0.02041 0.25112 0.0
Li841 Li 0.89486 1.0042 0.26539 0.0
Li842 Li 0.89364 0.00494 0.2339 0.0
Li843 Li 0.87339 0.98897 0.25053 0.0
C844 C 0.90282 0.03944 0.24654 0.0
N845 N 0.91335 0.07151 0.23945 0.0
C846 C 0.90992 0.04934 0.25905 0.0
C847 C 0.90126 0.0458 0.23037 0.0
C848 C 0.91512 0.06554 0.25524 0.0
C849 C 0.90661 0.06205 0.22705 0.0
C850 C 0.86934 0.00611 0.28671 0.0
C851 C 0.87182 0.99479 0.31447 0.0
N852 N 0.86779 0.00996 0.32095 0.0
C853 C 0.86511 0.02156 0.29363 0.0
C854 C 0.87261 0.99258 0.29719 0.0
C855 C 0.86442 0.02325 0.31098 0.0
C856 C 0.84158 0.03462 0.25183 0.0
N857 N 0.85797 0.03896 0.25225 0.0
C858 C 0.85075 0.06787 0.25417 0.0
C859 C 0.86274 0.05521 0.25355 0.0
C860 C 0.83368 0.06376 0.2536 0.0
C861 C 0.8292 0.04682 0.25255 0.0
H862 H 0.83815 0.02159 0.25096 0.0
H863 H 0.87578 0.05846 0.25408 0.0
C864 C 0.92051 0.99143 0.28634 0.0
N865 N 0.90949 1.00414 0.28429 0.0
C866 C 0.93129 0.99125 0.30008 0.0
C867 C 0.91914 0.01723 0.30935 0.0
C868 C 0.90869 0.01695 0.29541 0.0
C869 C 0.93073 1.0043 0.31182 0.0
H870 H 0.92107 0.9815 0.27723 0.0
H871 H 0.8999 0.02697 0.29346 0.0
C872 C 0.86255 0.00902 0.21686 0.0
N873 N 0.84949 0.01749 0.18608 0.0
C874 C 0.85572 0.99672 0.2065 0.0
C875 C 0.86246 0.02566 0.21168 0.0
C876 C 0.84927 1.00124 0.19095 0.0
C877 C 0.85587 0.02968 0.19605 0.0
C878 C 0.89916 0.96877 0.24788 0.0
C879 C 0.90293 0.96127 0.23259 0.0
C880 C 0.89627 0.95882 0.2619 0.0
C881 C 0.90354 0.94388 0.23152 0.0
C882 C 0.89697 0.94147 0.26032 0.0
N883 N 0.90055 0.93442 0.24529 0.0
C884 C 0.92186 0.01288 0.21414 0.0
C885 C 0.90114 0.99721 0.19996 0.0
C886 C 0.93194 0.013 0.1999 0.0
N887 N 0.90672 0.00518 0.21388 0.0
C888 C 0.91086 0.99692 0.18548 0.0
C889 C 0.92652 0.00486 0.18532 0.0
H890 H 0.92619 0.01881 0.22547 0.0
H891 H 0.88929 0.99079 0.20016 0.0
C892 C 0.84918 0.96736 0.2641 0.0
N893 N 0.85932 0.96964 0.2507 0.0
C894 C 0.83873 0.95344 0.26499 0.0
C895 C 0.84911 0.9445 0.23812 0.0
C896 C 0.85935 0.95865 0.23774 0.0
C897 C 0.83865 0.9417 0.25193 0.0
H898 H 0.84914 0.97641 0.27411 0.0
H899 H 0.86742 0.9608 0.22715 0.0
O900 O 0.89768 0.02355 0.25009 0.0
O901 O 0.87024 1.00425 0.26976 0.0
O902 O 0.86884 0.00479 0.23216 0.0
O903 O 0.89825 0.98576 0.24911 0.0
H904 H 0.91138 0.0446 0.27159 0.0
H905 H 0.89611 0.03825 0.22045 0.0
H906 H 0.92056 0.07336 0.26482 0.0
H907 H 0.90545 0.06713 0.2146 0.0
H908 H 0.87443 0.98446 0.32274 0.0
H909 H 0.86254 0.03216 0.28572 0.0
H910 H 0.87584 0.98053 0.29205 0.0
H911 H 0.86126 0.03515 0.31651 0.0
H912 H 0.85485 0.08073 0.25483 0.0
H913 H 0.81624 0.04297 0.25243 0.0
H914 H 0.94018 0.98116 0.30129 0.0
H915 H 0.91805 0.02743 0.31815 0.0
H916 H 0.85551 0.98381 0.21038 0.0
H917 H 0.86726 0.0354 0.21967 0.0
H918 H 0.84407 0.99183 0.18276 0.0
H919 H 0.85577 0.04251 0.19188 0.0
H920 H 0.90527 0.96878 0.22163 0.0
H921 H 0.89339 0.96443 0.27384 0.0
H922 H 0.90636 0.9379 0.21974 0.0
H923 H 0.89464 0.93362 0.27104 0.0
H924 H 0.94404 0.01903 0.20043 0.0
H925 H 0.90616 0.99053 0.17452 0.0
H926 H 0.83064 0.95201 0.27572 0.0
H927 H 0.84957 0.93575 0.22782 0.0
Li928 Li 0.24949 0.14137 0.52653 0.0
Li929 Li 0.23621 0.12071 0.50797 0.0
Li930 Li 0.26728 0.12022 0.51264 0.0
Li931 Li 0.25399 0.14169 0.4952 0.0
C932 C 0.24984 0.11234 0.54532 0.0
N933 N 0.25197 0.10357 0.5786 0.0
C934 C 0.23602 0.10548 0.55348 0.0
C935 C 0.2648 0.11449 0.55403 0.0
C936 C 0.23732 0.1012 0.57033 0.0
C937 C 0.26562 0.11004 0.57086 0.0
C938 C 0.21643 0.14723 0.50528 0.0
C939 C 0.19289 0.14575 0.48657 0.0
N940 N 0.18263 0.15043 0.49926 0.0
C941 C 0.2057 0.15219 0.5181 0.0
C942 C 0.21002 0.14413 0.48935 0.0
C943 C 0.18863 0.15368 0.51482 0.0
C944 C 0.25624 0.1678 0.54954 0.0
N945 N 0.24639 0.15433 0.54634 0.0
C946 C 0.23191 0.15815 0.57214 0.0
C947 C 0.23419 0.1496 0.55713 0.0
C948 C 0.24222 0.17181 0.57607 0.0
C949 C 0.25437 0.17676 0.56443 0.0
H950 H 0.26566 0.17149 0.54061 0.0
H951 H 0.22621 0.13916 0.55408 0.0
C952 C 0.21623 0.09501 0.49367 0.0
N953 N 0.21692 0.10689 0.50578 0.0
C954 C 0.20269 0.08398 0.49289 0.0
C955 C 0.19073 0.09786 0.51686 0.0
C956 C 0.2045 0.10854 0.51721 0.0
C957 C 0.1898 0.08518 0.50474 0.0
H958 H 0.2264 0.0938 0.48488 0.0
H959 H 0.20546 0.11795 0.52684 0.0
C960 C 0.28685 0.14897 0.51652 0.0
N961 N 0.3199 0.15718 0.52226 0.0
C962 C 0.29723 0.15347 0.50323 0.0
C963 C 0.29324 0.14892 0.53276 0.0
C964 C 0.31391 0.15751 0.50638 0.0
C965 C 0.30999 0.15302 0.5354 0.0
C966 C 0.25875 0.11484 0.47517 0.0
C967 C 0.27514 0.11067 0.47089 0.0
C968 C 0.24676 0.11667 0.46264 0.0
C969 C 0.27931 0.10864 0.45407 0.0
C970 C 0.25143 0.11458 0.44597 0.0
N971 N 0.26748 0.11065 0.44207 0.0
C972 C 0.28159 0.09068 0.52378 0.0
C973 C 0.30173 0.10879 0.51194 0.0
C974 C 0.29397 0.07928 0.52816 0.0
N975 N 0.28566 0.1053 0.51621 0.0
C976 C 0.31454 0.09764 0.51595 0.0
C977 C 0.31074 0.08281 0.52447 0.0
H978 H 0.26869 0.08796 0.52667 0.0
H979 H 0.30469 0.12022 0.50551 0.0
C980 C 0.24539 0.16947 0.47595 0.0
N981 N 0.25635 0.15656 0.47656 0.0
C982 C 0.24658 0.18146 0.4634 0.0
C983 C 0.27032 0.16671 0.45216 0.0
C984 C 0.26864 0.15495 0.46494 0.0
C985 C 0.2593 0.18031 0.45138 0.0
H986 H 0.23585 0.17065 0.4854 0.0
H987 H 0.27744 0.1448 0.4658 0.0
O988 O 0.24873 0.11677 0.52886 0.0
O989 O 0.23315 0.14547 0.50829 0.0
O990 O 0.27047 0.14503 0.51365 0.0
O991 O 0.25443 0.11686 0.49156 0.0
H992 H 0.22439 0.10356 0.54691 0.0
H993 H 0.27571 0.11939 0.54783 0.0
H994 H 0.22669 0.09599 0.57682 0.0
H995 H 0.27712 0.11168 0.57775 0.0
H996 H 0.18774 0.14329 0.47432 0.0
H997 H 0.21047 0.15478 0.53046 0.0
H998 H 0.2182 0.14048 0.47926 0.0
H999 H 0.18016 0.15741 0.52465 0.0
H1000 H 0.22212 0.15414 0.58055 0.0
H1001 H 0.26261 0.18719 0.56695 0.0
H1002 H 0.20263 0.07429 0.48346 0.0
H1003 H 0.181 0.09944 0.5261 0.0
H1004 H 0.29251 0.15373 0.49062 0.0
H1005 H 0.28534 0.1459 0.54325 0.0
H1006 H 0.32209 0.16091 0.49619 0.0
H1007 H 0.31509 0.15297 0.5479 0.0
H1008 H 0.28455 0.10912 0.48042 0.0
H1009 H 0.23398 0.11967 0.46574 0.0
H1010 H 0.29197 0.10551 0.45057 0.0
H1011 H 0.2423 0.11605 0.43613 0.0
H1012 H 0.29047 0.06784 0.53442 0.0
H1013 H 0.32732 0.1008 0.51285 0.0
H1014 H 0.23765 0.19159 0.46318 0.0
H1015 H 0.28046 0.16542 0.44331 0.0
Li1016 Li 0.39351 0.50778 0.77095 0.0
Li1017 Li 0.37077 0.52238 0.75835 0.0
Li1018 Li 0.37271 0.49237 0.75559 0.0
Li1019 Li 0.39208 0.51131 0.73941 0.0
C1020 C 0.37046 0.5051 0.7932 0.0
N1021 N 0.37365 0.50461 0.82756 0.0
C1022 C 0.36762 0.51958 0.80252 0.0
C1023 C 0.37492 0.49037 0.80139 0.0
C1024 C 0.36927 0.51907 0.81988 0.0
C1025 C 0.37649 0.49038 0.81875 0.0
C1026 C 0.39504 0.5456 0.7568 0.0
C1027 C 0.3995 0.57144 0.74204 0.0
N1028 N 0.3954 0.58008 0.75607 0.0
C1029 C 0.3909 0.55475 0.77108 0.0
C1030 C 0.39938 0.55401 0.74215 0.0
C1031 C 0.39113 0.57216 0.77046 0.0
C1032 C 0.41921 0.4933 0.79098 0.0
N1033 N 0.40904 0.50678 0.78929 0.0
C1034 C 0.42051 0.51908 0.81399 0.0
C1035 C 0.4096 0.51958 0.80042 0.0
C1036 C 0.43122 0.50536 0.81607 0.0
C1037 C 0.43042 0.49231 0.80434 0.0
H1038 H 0.41873 0.48336 0.78188 0.0
H1039 H 0.40147 0.53016 0.79887 0.0
C1040 C 0.34102 0.53601 0.77081 0.0
N1041 N 0.35411 0.53974 0.76068 0.0
C1042 C 0.32795 0.54731 0.77294 0.0
C1043 C 0.34177 0.56611 0.7539 0.0
C1044 C 0.35454 0.55436 0.75203 0.0
C1045 C 0.32822 0.56262 0.76445 0.0
H1046 H 0.34059 0.5241 0.77711 0.0
H1047 H 0.36457 0.5568 0.74339 0.0
C1048 C 0.39946 0.4745 0.74911 0.0
N1049 N 0.40216 0.44112 0.74084 0.0
C1050 C 0.40302 0.46977 0.7327 0.0
C1051 C 0.39743 0.46224 0.76135 0.0
C1052 C 0.40432 0.45283 0.72876 0.0
C1053 C 0.39878 0.44544 0.75691 0.0
C1054 C 0.3541 0.51579 0.7307 0.0
C1055 C 0.33814 0.51077 0.73564 0.0
C1056 C 0.35595 0.52864 0.71908 0.0
C1057 C 0.32423 0.51885 0.72895 0.0
C1058 C 0.34172 0.53638 0.71265 0.0
N1059 N 0.32629 0.53138 0.7177 0.0
C1060 C 0.3519 0.46648 0.76754 0.0
C1061 C 0.35961 0.46363 0.73913 0.0
C1062 C 0.34311 0.45144 0.76694 0.0
N1063 N 0.36017 0.4721 0.75385 0.0
C1064 C 0.35092 0.44851 0.73796 0.0
C1065 C 0.34269 0.44213 0.75207 0.0
H1066 H 0.35211 0.47366 0.77894 0.0
H1067 H 0.36609 0.46852 0.72835 0.0
C1068 C 0.42065 0.51871 0.7198 0.0
N1069 N 0.40447 0.51358 0.71925 0.0
C1070 C 0.43018 0.51933 0.70518 0.0
C1071 C 0.40621 0.50934 0.68977 0.0
C1072 C 0.39711 0.50907 0.70463 0.0
C1073 C 0.42303 0.51437 0.68994 0.0
H1074 H 0.42621 0.52206 0.73165 0.0
H1075 H 0.38427 0.50488 0.7046 0.0
O1076 O 0.36917 0.5054 0.77615 0.0
O1077 O 0.39506 0.52854 0.75717 0.0
O1078 O 0.39779 0.49101 0.75314 0.0
O1079 O 0.36786 0.5084 0.7375 0.0
H1080 H 0.36444 0.53118 0.79645 0.0
H1081 H 0.37736 0.47908 0.79441 0.0
H1082 H 0.36718 0.53021 0.82722 0.0
H1083 H 0.38003 0.47909 0.82522 0.0
H1084 H 0.4028 0.57811 0.73078 0.0
H1085 H 0.38719 0.5485 0.78243 0.0
H1086 H 0.40251 0.54718 0.73094 0.0
H1087 H 0.38783 0.57938 0.78139 0.0
H1088 H 0.42045 0.52932 0.82282 0.0
H1089 H 0.43859 0.4816 0.80527 0.0
H1090 H 0.31774 0.54409 0.7812 0.0
H1091 H 0.34227 0.57759 0.74681 0.0
H1092 H 0.40468 0.47905 0.72307 0.0
H1093 H 0.39461 0.46565 0.7741 0.0
H1094 H 0.40699 0.449 0.71609 0.0
H1095 H 0.3971 0.43583 0.76623 0.0
H1096 H 0.33655 0.50089 0.7447 0.0
H1097 H 0.36825 0.53274 0.71525 0.0
H1098 H 0.31179 0.51519 0.73274 0.0
H1099 H 0.34295 0.54642 0.70373 0.0
H1100 H 0.33661 0.44722 0.77801 0.0
H1101 H 0.35095 0.44173 0.72625 0.0
H1102 H 0.44314 0.52312 0.70589 0.0
H1103 H 0.40019 0.50553 0.67826 0.0
Li1104 Li 0.76934 0.39049 0.49741 0.0
Li1105 Li 0.75778 0.37099 0.51671 0.0
Li1106 Li 0.75378 0.36783 0.48634 0.0
Li1107 Li 0.73886 0.39092 0.50171 0.0
C1108 C 0.79154 0.36572 0.49909 0.0
N1109 N 0.82602 0.36485 0.4984 0.0
C1110 C 0.80056 0.36372 0.51389 0.0
C1111 C 0.80005 0.36715 0.48392 0.0
C1112 C 0.81799 0.36332 0.51328 0.0
C1113 C 0.81748 0.36674 0.48384 0.0
C1114 C 0.76725 0.40655 0.52609 0.0
C1115 C 0.77869 0.43431 0.52849 0.0
N1116 N 0.78926 0.42885 0.5406 0.0
C1117 C 0.77824 0.40122 0.53854 0.0
C1118 C 0.76745 0.42323 0.52102 0.0
C1119 C 0.78925 0.41269 0.54574 0.0
C1120 C 0.78611 0.41548 0.47924 0.0
N1121 N 0.78788 0.40525 0.49263 0.0
C1122 C 0.8153 0.41612 0.49775 0.0
C1123 C 0.80202 0.40564 0.50207 0.0
C1124 C 0.81399 0.42647 0.48367 0.0
C1125 C 0.799 0.42622 0.47453 0.0
H1126 H 0.77464 0.41532 0.47214 0.0
H1127 H 0.8031 0.39776 0.51291 0.0
C1128 C 0.76653 0.34321 0.53672 0.0
N1129 N 0.75939 0.35858 0.53693 0.0
C1130 C 0.76683 0.33347 0.55117 0.0
C1131 C 0.7523 0.35553 0.56574 0.0
C1132 C 0.75236 0.36487 0.55104 0.0
C1133 C 0.75954 0.33957 0.56592 0.0
H1134 H 0.77173 0.3384 0.52522 0.0
H1135 H 0.74657 0.37705 0.55077 0.0
C1136 C 0.74812 0.39108 0.4638 0.0
N1137 N 0.74099 0.38818 0.43017 0.0
C1138 C 0.73194 0.39402 0.45799 0.0
C1139 C 0.76072 0.38687 0.45249 0.0
C1140 C 0.72858 0.39244 0.44094 0.0
C1141 C 0.75685 0.3854 0.43555 0.0
C1142 C 0.7291 0.35443 0.51322 0.0
C1143 C 0.73301 0.33766 0.51054 0.0
C1144 C 0.71808 0.35885 0.526 0.0
C1145 C 0.72589 0.32553 0.52084 0.0
C1146 C 0.71123 0.34634 0.53603 0.0
N1147 N 0.71526 0.33009 0.53327 0.0
C1148 C 0.76427 0.34124 0.4658 0.0
C1149 C 0.73662 0.35021 0.46042 0.0
C1150 C 0.76289 0.32881 0.45365 0.0
N1151 N 0.75126 0.35163 0.46893 0.0
C1152 C 0.73474 0.33803 0.44802 0.0
C1153 C 0.74795 0.32702 0.44463 0.0
H1154 H 0.77567 0.34243 0.4729 0.0
H1155 H 0.72634 0.35843 0.46339 0.0
C1156 C 0.71858 0.41893 0.50982 0.0
N1157 N 0.71864 0.40329 0.50323 0.0
C1158 C 0.70378 0.42812 0.51051 0.0
C1159 C 0.68931 0.40482 0.49789 0.0
C1160 C 0.70438 0.39607 0.49749 0.0
C1161 C 0.68889 0.42114 0.50434 0.0
H1162 H 0.73005 0.42433 0.51444 0.0
H1163 H 0.70478 0.38355 0.49244 0.0
O1164 O 0.77447 0.36605 0.49943 0.0
O1165 O 0.7565 0.39545 0.51879 0.0
O1166 O 0.75162 0.39229 0.48047 0.0
O1167 O 0.73641 0.36651 0.50369 0.0
H1168 H 0.79421 0.36273 0.52575 0.0
H1169 H 0.79327 0.36865 0.47235 0.0
H1170 H 0.82513 0.36188 0.52464 0.0
H1171 H 0.82423 0.36793 0.47221 0.0
H1172 H 0.77907 0.44722 0.52461 0.0
H1173 H 0.77841 0.38832 0.54249 0.0
H1174 H 0.75927 0.42751 0.51118 0.0
H1175 H 0.79786 0.40872 0.55534 0.0
H1176 H 0.8266 0.41581 0.50516 0.0
H1177 H 0.7972 0.43426 0.46385 0.0
H1178 H 0.77231 0.32114 0.55067 0.0
H1179 H 0.74666 0.36077 0.57686 0.0
H1180 H 0.72207 0.3974 0.46654 0.0
H1181 H 0.77332 0.38467 0.45678 0.0
H1182 H 0.71609 0.39459 0.43628 0.0
H1183 H 0.76645 0.38203 0.42667 0.0
H1184 H 0.74161 0.33408 0.50075 0.0
H1185 H 0.71503 0.37181 0.52826 0.0
H1186 H 0.72887 0.3125 0.51899 0.0
H1187 H 0.70277 0.34957 0.54604 0.0
H1188 H 0.77342 0.32067 0.45135 0.0
H1189 H 0.72294 0.33694 0.44151 0.0
H1190 H 0.70407 0.4407 0.51547 0.0
H1191 H 0.67811 0.39884 0.49323 0.0
Li1192 Li 0.64234 0.99411 0.75554 0.0
Li1193 Li 0.62136 0.01381 0.76643 0.0
Li1194 Li 0.62467 0.00884 0.73528 0.0
Li1195 Li 0.64525 0.0253 0.75121 0.0
C1196 C 0.61217 0.97693 0.75397 0.0
N1197 N 0.60143 0.9442 0.7556 0.0
C1198 C 0.60437 0.97098 0.76839 0.0
C1199 C 0.61424 0.96631 0.74028 0.0
C1200 C 0.5991 0.95437 0.769 0.0
C1201 C 0.6088 0.94979 0.74137 0.0
C1202 C 0.64661 0.01457 0.78921 0.0
C1203 C 0.64552 0.03261 0.81332 0.0
N1204 N 0.64841 0.01925 0.82336 0.0
C1205 C 0.64976 1.00106 0.79975 0.0
C1206 C 0.64465 0.0305 0.79603 0.0
C1207 C 0.65056 1.00367 0.81698 0.0
C1208 C 0.66936 0.97156 0.75226 0.0
N1209 N 0.65445 0.97405 0.75998 0.0
C1210 C 0.65781 0.94893 0.77565 0.0
C1211 C 0.64855 0.96304 0.77144 0.0
C1212 C 0.67339 0.94615 0.7681 0.0
C1213 C 0.67905 0.95756 0.75607 0.0
H1214 H 0.67397 0.98066 0.74344 0.0
H1215 H 0.6369 0.96547 0.77775 0.0
C1216 C 0.59493 0.03113 0.78188 0.0
N1217 N 0.60588 0.01838 0.7841 0.0
C1218 C 0.58431 0.036 0.79481 0.0
C1219 C 0.59588 0.0141 0.81193 0.0
C1220 C 0.60626 0.00962 0.79863 0.0
C1221 C 0.58489 0.02765 0.81021 0.0
H1222 H 0.59457 0.03767 0.77011 0.0
H1223 H 0.61483 0.99933 0.80002 0.0
C1224 C 0.65517 1.00248 0.71983 0.0
N1225 N 0.66661 0.994 0.68842 0.0
C1226 C 0.66346 0.0143 0.71004 0.0
C1227 C 0.65295 0.98628 0.71376 0.0
C1228 C 0.66908 0.00979 0.69416 0.0
C1229 C 0.65875 0.98225 0.69782 0.0
C1230 C 0.61985 0.04691 0.74485 0.0
C1231 C 0.61657 0.05287 0.7288 0.0
C1232 C 0.62177 0.05821 0.75802 0.0
C1233 C 0.61561 0.07006 0.72612 0.0
C1234 C 0.62074 0.07531 0.75484 0.0
N1235 N 0.61773 0.08083 0.73909 0.0
C1236 C 0.59831 0.9988 0.71385 0.0
C1237 C 0.61941 0.01482 0.70073 0.0
C1238 C 0.58918 0.99808 0.69899 0.0
N1239 N 0.61312 0.0071 0.71446 0.0
C1240 C 0.61073 0.0144 0.68563 0.0
C1241 C 0.5953 0.0061 0.68464 0.0
H1242 H 0.59341 0.99302 0.72501 0.0
H1243 H 0.63096 0.02172 0.7016 0.0
C1244 C 0.67164 0.04535 0.76308 0.0
N1245 N 0.66058 0.04357 0.75034 0.0
C1246 C 0.68245 0.05902 0.76358 0.0
C1247 C 0.67069 0.06857 0.73752 0.0
C1248 C 0.66016 0.05464 0.7375 0.0
C1249 C 0.6819 0.07102 0.75081 0.0
H1250 H 0.67203 0.03617 0.77294 0.0
H1251 H 0.65152 0.05279 0.72731 0.0
O1252 O 0.61746 0.99315 0.75318 0.0
O1253 O 0.6456 0.01221 0.77231 0.0
O1254 O 0.64951 0.00672 0.73538 0.0
O1255 O 0.621 0.0301 0.74767 0.0
H1256 H 0.60251 0.97907 0.77903 0.0
H1257 H 0.61985 0.97081 0.72888 0.0
H1258 H 0.59316 0.94957 0.78013 0.0
H1259 H 0.61038 0.94142 0.73088 0.0
H1260 H 0.64393 0.04486 0.81876 0.0
H1261 H 0.65149 0.98868 0.79472 0.0
H1262 H 0.64252 0.04114 0.78807 0.0
H1263 H 0.65288 0.9933 0.82529 0.0
H1264 H 0.6529 0.94039 0.7849 0.0
H1265 H 0.69108 0.95603 0.75011 0.0
H1266 H 0.57577 0.04625 0.79275 0.0
H1267 H 0.59681 0.00732 0.82357 0.0
H1268 H 0.66543 0.02685 0.71461 0.0
H1269 H 0.64694 0.97689 0.72132 0.0
H1270 H 0.6754 0.01884 0.6864 0.0
H1271 H 0.65706 0.96977 0.69294 0.0
H1272 H 0.61483 0.04434 0.71849 0.0
H1273 H 0.62399 0.05384 0.77056 0.0
H1274 H 0.61318 0.07484 0.71374 0.0
H1275 H 0.6223 0.08418 0.76491 0.0
H1276 H 0.57722 0.99177 0.6989 0.0
H1277 H 0.61602 0.02065 0.67488 0.0
H1278 H 0.69116 0.06014 0.77386 0.0
H1279 H 0.66975 0.07749 0.72744 0.0
Li1280 Li 0.02185 0.2536 0.87293 0.0
Li1281 Li 1.00188 0.26618 0.89311 0.0
Li1282 Li 0.00689 0.23524 0.89225 0.0
Li1283 Li 0.99246 0.2491 0.87012 0.0
C1284 C 0.03457 0.26454 0.90416 0.0
N1285 N 0.05774 0.28688 0.91665 0.0
C1286 C 0.03811 0.27927 0.89552 0.0
C1287 C 0.04284 0.26117 0.91914 0.0
C1288 C 0.04986 0.2904 0.90205 0.0
C1289 C 0.0545 0.27262 0.92525 0.0
C1290 C 0.9932 0.28021 0.86009 0.0
C1291 C 0.96762 0.29605 0.85875 0.0
N1292 N 0.96998 0.2983 0.8421 0.0
C1293 C 0.99532 0.28264 0.84294 0.0
C1294 C 0.97917 0.2869 0.86804 0.0
C1295 C 0.98346 0.29182 0.83408 0.0
C1296 C 0.04238 0.26231 0.84544 0.0
N1297 N 0.04268 0.25684 0.86148 0.0
C1298 C 0.07254 0.25705 0.86144 0.0
C1299 C 0.05738 0.25389 0.86944 0.0
C1300 C 0.07264 0.26332 0.84506 0.0
C1301 C 0.05725 0.26572 0.83697 0.0
H1302 H 0.03058 0.26418 0.83925 0.0
H1303 H 0.05739 0.24923 0.88209 0.0
C1304 C 0.99033 0.28365 0.92212 0.0
N1305 N 0.99782 0.28517 0.90696 0.0
C1306 C 0.98645 0.29789 0.93149 0.0
C1307 C 0.9985 0.31485 0.90966 0.0
C1308 C 1.00217 0.30035 0.90078 0.0
C1309 C 0.99028 0.31377 0.9251 0.0
H1310 H 0.98702 0.27141 0.92674 0.0
H1311 H 0.00814 0.30123 0.88872 0.0
C1312 C 0.02222 0.22019 0.86527 0.0
N1313 N 0.04606 0.19578 0.86021 0.0
C1314 C 0.02103 0.20945 0.85156 0.0
C1315 C 0.03552 0.21846 0.87644 0.0
C1316 C 0.03321 0.19721 0.84921 0.0
C1317 C 0.04744 0.20607 0.87366 0.0
C1318 C 0.96934 0.24296 0.89467 0.0
C1319 C 0.96452 0.22726 0.88879 0.0
C1320 C 0.95733 0.25384 0.90111 0.0
C1321 C 0.94768 0.22273 0.88932 0.0
C1322 C 0.94062 0.24884 0.90145 0.0
N1323 N 0.93618 0.23352 0.89559 0.0
C1324 C 0.01546 0.21549 0.92062 0.0
C1325 C 1.00314 0.20079 0.89808 0.0
C1326 C 0.01792 0.20059 0.92936 0.0
N1327 N 0.0084 0.21528 0.90519 0.0
C1328 C 0.00529 0.18565 0.90637 0.0
C1329 C 0.01304 0.18534 0.92211 0.0
H1330 H 0.01956 0.22719 0.92596 0.0
H1331 H 0.99767 0.20094 0.88575 0.0
C1332 C 0.98017 0.23933 0.8389 0.0
N1333 N 0.97535 0.2467 0.8534 0.0
C1334 C 0.96905 0.23793 0.82554 0.0
C1335 C 0.9481 0.25174 0.84224 0.0
C1336 C 0.95965 0.2529 0.85526 0.0
C1337 C 0.95277 0.24427 0.82707 0.0
H1338 H 0.9928 0.2348 0.83759 0.0
H1339 H 0.95615 0.25916 0.86666 0.0
O1340 O 0.02306 0.25345 0.89806 0.0
O1341 O 1.00448 0.27092 0.86898 0.0
O1342 O 0.01029 0.23218 0.8677 0.0
O1343 O 0.98572 0.24769 0.89417 0.0
H1344 H 0.03195 0.28206 0.88386 0.0
H1345 H 0.04028 0.24982 0.92597 0.0
H1346 H 0.05272 0.30184 0.89548 0.0
H1347 H 0.06099 0.27017 0.93684 0.0
H1348 H 0.95669 0.30122 0.86475 0.0
H1349 H 0.00589 0.27742 0.83646 0.0
H1350 H 0.97694 0.2847 0.88115 0.0
H1351 H 0.98494 0.29376 0.8208 0.0
H1352 H 0.08407 0.25462 0.86806 0.0
H1353 H 0.05665 0.27059 0.82439 0.0
H1354 H 0.98004 0.29653 0.94331 0.0
H1355 H 1.00191 0.32681 0.90439 0.0
H1356 H 0.01078 0.21052 0.84283 0.0
H1357 H 0.03664 0.22651 0.8872 0.0
H1358 H 0.03244 0.18882 0.83864 0.0
H1359 H 0.05779 0.20461 0.88221 0.0
H1360 H 0.97364 0.21878 0.88361 0.0
H1361 H 0.96087 0.26606 0.90568 0.0
H1362 H 0.94375 0.21065 0.88471 0.0
H1363 H 0.93117 0.25714 0.90635 0.0
H1364 H 0.02408 0.20096 0.94139 0.0
H1365 H 1.00108 0.17427 0.90039 0.0
H1366 H 0.97317 0.23196 0.81413 0.0
H1367 H 0.93579 0.25707 0.84388 0.0
Li1368 Li 0.51935 0.75885 0.3732 0.0
Li1369 Li 0.50247 0.77353 0.3934 0.0
Li1370 Li 0.50483 0.74308 0.39439 0.0
Li1371 Li 0.48777 0.75691 0.37212 0.0
C1372 C 0.53909 0.7633 0.39907 0.0
N1373 N 0.5728 0.77047 0.40064 0.0
C1374 C 0.54446 0.77953 0.40255 0.0
C1375 C 0.55085 0.75069 0.39648 0.0
C1376 C 0.56157 0.7829 0.40329 0.0
C1377 C 0.56784 0.75458 0.39728 0.0
C1378 C 0.49748 0.79199 0.36344 0.0
C1379 C 0.47551 0.81142 0.35673 0.0
N1380 N 0.48719 0.82298 0.35246 0.0
C1381 C 0.50925 0.80403 0.3589 0.0
C1382 C 0.48046 0.79567 0.36229 0.0
C1383 C 0.5038 0.81964 0.35342 0.0
C1384 C 0.54254 0.74608 0.34997 0.0
N1385 N 0.53894 0.75965 0.35949 0.0
C1386 C 0.5637 0.77346 0.35004 0.0
C1387 C 0.54903 0.77331 0.35951 0.0
C1388 C 0.56796 0.75944 0.3404 0.0
C1389 C 0.55704 0.74569 0.34032 0.0
H1390 H 0.53418 0.7355 0.3499 0.0
H1391 H 0.54586 0.78399 0.3671 0.0
C1392 C 0.50399 0.78888 0.42448 0.0
N1393 N 0.50063 0.79246 0.40823 0.0
C1394 C 0.50105 0.80068 0.43696 0.0
C1395 C 0.4924 0.82018 0.41572 0.0
C1396 C 0.49521 0.80788 0.40366 0.0
C1397 C 0.49495 0.81648 0.43264 0.0
H1398 H 0.50839 0.77657 0.4278 0.0
H1399 H 0.49253 0.81063 0.39081 0.0
C1400 C 0.50432 0.72194 0.3692 0.0
N1401 N 0.50268 0.6875 0.3694 0.0
C1402 C 0.48933 0.71383 0.36541 0.0
C1403 C 0.51851 0.71253 0.37298 0.0
C1404 C 0.48876 0.69641 0.36559 0.0
C1405 C 0.51741 0.69514 0.37307 0.0
C1406 C 0.47549 0.7628 0.40967 0.0
C1407 C 0.47778 0.75618 0.42564 0.0
C1408 C 0.46467 0.77628 0.40741 0.0
C1409 C 0.46929 0.76326 0.43913 0.0
C1410 C 0.45646 0.78305 0.42123 0.0
N1411 N 0.45892 0.77646 0.43667 0.0
C1412 C 0.51918 0.71987 0.41734 0.0
C1413 C 0.49174 0.71357 0.40821 0.0
C1414 C 0.51988 0.70496 0.42637 0.0
N1415 N 0.50536 0.7237 0.40828 0.0
C1416 C 0.49197 0.69849 0.41689 0.0
C1417 C 0.50626 0.69391 0.42595 0.0
H1418 H 0.52978 0.72822 0.41731 0.0
H1419 H 0.48083 0.71705 0.40107 0.0
C1420 C 0.46997 0.75132 0.34176 0.0
N1421 N 0.46849 0.7542 0.35843 0.0
C1422 C 0.45579 0.7479 0.33212 0.0
C1423 C 0.43889 0.75107 0.3569 0.0
C1424 C 0.45336 0.75424 0.36605 0.0
C1425 C 0.43997 0.74748 0.33974 0.0
H1426 H 0.48222 0.75121 0.33606 0.0
H1427 H 0.45254 0.75643 0.37933 0.0
O1428 O 0.52241 0.75978 0.3981 0.0
O1429 O 0.5026 0.77658 0.36862 0.0
O1430 O 0.50503 0.73899 0.3695 0.0
O1431 O 0.48406 0.75633 0.39639 0.0
H1432 H 0.53554 0.78946 0.40449 0.0
H1433 H 0.54691 0.73808 0.39365 0.0
H1434 H 0.56591 0.79542 0.4059 0.0
H1435 H 0.57708 0.74497 0.39518 0.0
H1436 H 0.46239 0.81446 0.35586 0.0
H1437 H 0.52246 0.80138 0.35963 0.0
H1438 H 0.47116 0.78656 0.36578 0.0
H1439 H 0.51278 0.8291 0.34991 0.0
H1440 H 0.57178 0.78429 0.35057 0.0
H1441 H 0.55962 0.73475 0.33281 0.0
H1442 H 0.50329 0.79741 0.44988 0.0
H1443 H 0.48761 0.83223 0.41193 0.0
H1444 H 0.4782 0.7209 0.36254 0.0
H1445 H 0.53018 0.71861 0.37606 0.0
H1446 H 0.47722 0.68997 0.36276 0.0
H1447 H 0.52825 0.68771 0.37611 0.0
H1448 H 0.48617 0.74581 0.42764 0.0
H1449 H 0.46286 0.78165 0.39517 0.0
H1450 H 0.47102 0.75833 0.45157 0.0
H1451 H 0.44818 0.79358 0.41969 0.0
H1452 H 0.53116 0.70186 0.43314 0.0
H1453 H 0.48111 0.69043 0.41643 0.0
H1454 H 0.45728 0.74504 0.31899 0.0
H1455 H 0.42698 0.75121 0.36329 0.0
Li1456 Li 0.99923 0.76978 0.61709 0.0
Li1457 Li 0.98263 0.75781 0.6379 0.0
Li1458 Li 0.01298 0.75303 0.63843 0.0
Li1459 Li 0.99348 0.73971 0.61596 0.0
C1460 C 0.00478 0.79047 0.64234 0.0
N1461 N 0.01292 0.82394 0.64387 0.0
C1462 C 0.99245 0.80257 0.64006 0.0
C1463 C 0.02122 0.79537 0.64555 0.0
C1464 C 0.99683 0.81943 0.64082 0.0
C1465 C 0.02509 0.81237 0.64626 0.0
C1466 C 0.96076 0.75931 0.61306 0.0
C1467 C 0.93381 0.74649 0.60894 0.0
N1468 N 0.92636 0.76141 0.61203 0.0
C1469 C 0.95284 0.77454 0.61608 0.0
C1470 C 0.9512 0.74517 0.60939 0.0
C1471 C 0.93543 0.77534 0.61556 0.0
C1472 C 0.98901 0.79124 0.59142 0.0
N1473 N 1.00166 0.78879 0.60245 0.0
C1474 C 0.01575 0.81316 0.59234 0.0
C1475 C 0.01506 0.79926 0.60288 0.0
C1476 C 1.00258 0.81626 0.58118 0.0
C1477 C 0.9892 0.80491 0.58067 0.0
H1478 H 0.97869 0.78258 0.59095 0.0
H1479 H 0.02517 0.79696 0.61146 0.0
C1480 C 0.96758 0.7725 0.6658 0.0
N1481 N 0.96452 0.76125 0.65345 0.0
C1482 C 0.95588 0.77522 0.6784 0.0
C1483 C 0.93784 0.75484 0.66537 0.0
C1484 C 0.94998 0.75243 0.65305 0.0
C1485 C 0.94082 0.76624 0.67837 0.0
H1486 H 0.97931 0.77916 0.66612 0.0
H1487 H 0.94794 0.74319 0.64346 0.0
C1488 C 0.02647 0.75818 0.60251 0.0
N1489 N 0.04762 0.77296 0.57967 0.0
C1490 C 0.02229 0.75836 0.58558 0.0
C1491 C 0.04145 0.76538 0.60784 0.0
C1492 C 0.03313 0.76595 0.57423 0.0
C1493 C 0.05198 0.77281 0.59609 0.0
C1494 C 0.985 0.72818 0.65213 0.0
C1495 C 0.98731 0.73174 0.66906 0.0
C1496 C 0.97255 0.71696 0.64723 0.0
C1497 C 0.97696 0.72412 0.68083 0.0
C1498 C 0.9625 0.70955 0.6594 0.0
N1499 N 0.96488 0.71328 0.6758 0.0
C1500 C 0.03014 0.75671 0.66829 0.0
C1501 C 0.04416 0.73898 0.6492 0.0
C1502 C 0.04213 0.75361 0.68051 0.0
N1503 N 0.03127 0.74932 0.65307 0.0
C1504 C 0.05648 0.7355 0.66111 0.0
C1505 C 0.05538 0.74264 0.67713 0.0
H1506 H 0.01969 0.76479 0.67104 0.0
H1507 H 0.04464 0.73314 0.63703 0.0
C1508 C 0.98481 0.72486 0.58577 0.0
N1509 N 0.99045 0.72125 0.60134 0.0
C1510 C 0.9832 0.71228 0.57384 0.0
C1511 C 0.993 0.69236 0.59423 0.0
C1512 C 0.99442 0.70539 0.60582 0.0
C1513 C 0.98756 0.69579 0.57789 0.0
H1514 H 0.98175 0.7376 0.58258 0.0
H1515 H 0.999 0.70292 0.61828 0.0
O1516 O 1.00073 0.77391 0.64161 0.0
O1517 O 0.9778 0.75831 0.61345 0.0
O1518 O 0.01591 0.75108 0.61385 0.0
O1519 O 0.99472 0.73582 0.64039 0.0
H1520 H 0.97965 0.79897 0.6377 0.0
H1521 H 0.03094 0.78618 0.64726 0.0
H1522 H 0.98743 0.82894 0.63899 0.0
H1523 H 0.03778 0.81635 0.64863 0.0
H1524 H 0.92625 0.73563 0.6062 0.0
H1525 H 0.96007 0.78562 0.61881 0.0
H1526 H 0.9571 0.73326 0.60711 0.0
H1527 H 0.92913 0.78703 0.61794 0.0
H1528 H 0.02631 0.82156 0.59321 0.0
H1529 H 0.97896 0.80653 0.572 0.0
H1530 H 0.95864 0.78421 0.68812 0.0
H1531 H 0.92651 0.74747 0.66503 0.0
H1532 H 0.01071 0.75286 0.58129 0.0
H1533 H 0.04482 0.76538 0.62092 0.0
H1534 H 0.03001 0.7663 0.56109 0.0
H1535 H 0.06357 0.77852 0.60003 0.0
H1536 H 0.99684 0.74046 0.67302 0.0
H1537 H 0.97055 0.71417 0.63416 0.0
H1538 H 0.97851 0.72685 0.69397 0.0
H1539 H 0.95275 0.70092 0.65579 0.0
H1540 H 0.04092 0.75964 0.69256 0.0
H1541 H 0.0664 0.72687 0.65801 0.0
H1542 H 0.9787 0.71547 0.5615 0.0
H1543 H 0.99664 0.67987 0.59784 0.0
Li1544 Li 0.50695 0.26891 0.11878 0.0
Li1545 Li 0.48946 0.25641 0.14114 0.0
Li1546 Li 0.51868 0.25123 0.14006 0.0
Li1547 Li 0.50107 0.2382 0.1196 0.0
C1548 C 0.51994 0.28167 0.15144 0.0
N1549 N 0.54537 0.29789 0.16826 0.0
C1550 C 0.51849 0.28492 0.16852 0.0
C1551 C 0.53429 0.28674 0.1429 0.0
C1552 C 0.5315 0.2931 0.17681 0.0
C1553 C 0.547 0.29492 0.15162 0.0
C1554 C 0.47272 0.26835 0.11258 0.0
C1555 C 0.44879 0.2766 0.09631 0.0
N1556 N 0.44839 0.29141 0.10462 0.0
C1557 C 0.47207 0.28365 0.12097 0.0
C1558 C 0.461 0.26478 0.10016 0.0
C1559 C 0.45968 0.29514 0.11676 0.0
C1560 C 0.51217 0.28521 0.08774 0.0
N1561 N 0.51014 0.28763 0.10444 0.0
C1562 C 0.51473 0.31692 0.10137 0.0
C1563 C 0.51091 0.30314 0.11128 0.0
C1564 C 0.5174 0.31474 0.0842 0.0
C1565 C 0.51572 0.29874 0.07728 0.0
H1566 H 0.51142 0.27273 0.08264 0.0
H1567 H 0.50895 0.30478 0.12453 0.0
C1568 C 0.47577 0.25942 0.1727 0.0
N1569 N 0.47128 0.25894 0.15637 0.0
C1570 C 0.46366 0.2599 0.18518 0.0
C1571 C 0.44235 0.259 0.16385 0.0
C1572 C 0.45494 0.2587 0.15173 0.0
C1573 C 0.44665 0.25947 0.18088 0.0
H1574 H 0.48883 0.25898 0.17604 0.0
H1575 H 0.45163 0.25774 0.13869 0.0
C1576 C 0.53846 0.24551 0.11271 0.0
N1577 N 0.57124 0.23641 0.10727 0.0
C1578 C 0.54388 0.2295 0.11691 0.0
C1579 C 0.54964 0.25686 0.10562 0.0
C1580 C 0.56053 0.22515 0.11411 0.0
C1581 C 0.56619 0.25203 0.10299 0.0
C1582 C 0.48921 0.22279 0.14779 0.0
C1583 C 0.49249 0.21102 0.16021 0.0
C1584 C 0.47401 0.22222 0.1392 0.0
C1585 C 0.48049 0.1989 0.16388 0.0
C1586 C 0.46234 0.20991 0.14323 0.0
N1587 N 0.46579 0.1986 0.15539 0.0
C1588 C 0.5326 0.24044 0.16969 0.0
C1589 C 0.55342 0.25143 0.15183 0.0
C1590 C 0.54454 0.2366 0.18175 0.0
N1591 N 0.53719 0.24743 0.15495 0.0
C1592 C 0.56583 0.24781 0.16359 0.0
C1593 C 0.56145 0.24006 0.1787 0.0
H1594 H 0.51958 0.23786 0.17211 0.0
H1595 H 0.55682 0.25742 0.14026 0.0
C1596 C 0.48882 0.21924 0.09197 0.0
N1597 N 0.49743 0.21857 0.10659 0.0
C1598 C 0.48545 0.2046 0.08303 0.0
C1599 C 0.50005 0.18897 0.10426 0.0
C1600 C 0.50317 0.20386 0.11273 0.0
C1601 C 0.49093 0.18916 0.08928 0.0
H1602 H 0.48436 0.23112 0.0874 0.0
H1603 H 0.50997 0.20367 0.12439 0.0
O1604 O 0.50752 0.27335 0.14312 0.0
O1605 O 0.48476 0.25688 0.1164 0.0
O1606 O 0.52224 0.25004 0.11536 0.0
O1607 O 0.5009 0.23472 0.14412 0.0
H1608 H 0.50746 0.28123 0.17533 0.0
H1609 H 0.53574 0.28413 0.12973 0.0
H1610 H 0.53056 0.29566 0.19003 0.0
H1611 H 0.55822 0.29881 0.14518 0.0
H1612 H 0.43963 0.274 0.08673 0.0
H1613 H 0.48096 0.28662 0.13068 0.0
H1614 H 0.46131 0.25299 0.09357 0.0
H1615 H 0.45903 0.30702 0.12315 0.0
H1616 H 0.51585 0.32913 0.10708 0.0
H1617 H 0.51779 0.29663 0.06408 0.0
H1618 H 0.46764 0.26045 0.19809 0.0
H1619 H 0.42944 0.25832 0.15992 0.0
H1620 H 0.53539 0.22062 0.12248 0.0
H1621 H 0.54559 0.26929 0.10224 0.0
H1622 H 0.56494 0.21284 0.1174 0.0
H1623 H 0.57501 0.26069 0.09757 0.0
H1624 H 0.50421 0.21121 0.16693 0.0
H1625 H 0.47121 0.23112 0.1295 0.0
H1626 H 0.48287 0.18972 0.17347 0.0
H1627 H 0.45053 0.20934 0.13669 0.0
H1628 H 0.54054 0.23099 0.19337 0.0
H1629 H 0.57872 0.25071 0.16072 0.0
H1630 H 0.47826 0.20531 0.0716 0.0
H1631 H 0.50473 0.1774 0.10941 0.0
H1632 H 0.23811 0.75864 0.87276 0.0
H1633 H 0.21508 0.79367 0.8385 0.0
H1634 H 0.21869 0.8162 0.85909 0.0
H1635 H 0.22032 0.77511 0.91007 0.0
H1636 H 0.23872 0.77224 0.92269 0.0
H1637 H 0.2349 0.75871 0.90512 0.0
H1638 H 0.2638 0.76633 0.89278 0.0
H1639 H 0.26777 0.77978 0.91038 0.0
H1640 H 0.26907 0.78794 0.88947 0.0
H1641 H 0.22343 0.83464 0.88351 0.0
H1642 H 0.23033 0.84844 0.91007 0.0
H1643 H 0.25153 0.80214 0.92857 0.0
C1644 C 0.23404 0.77109 0.86953 0.0
C1645 C 0.22614 0.77432 0.85405 0.0
C1646 C 0.22087 0.79079 0.85037 0.0
C1647 C 0.22294 0.80371 0.86195 0.0
C1648 C 0.23043 0.80006 0.87717 0.0
C1649 C 0.23604 0.78423 0.88099 0.0
C1650 C 0.24353 0.78377 0.8984 0.0
C1651 C 0.23378 0.77174 0.90974 0.0
C1652 C 0.26215 0.77919 0.89771 0.0
C1653 C 0.24109 0.80178 0.90376 0.0
C1654 C 0.2335 0.81091 0.89129 0.0
C1655 C 0.22958 0.82769 0.89331 0.0
C1656 C 0.23366 0.83545 0.90845 0.0
C1657 C 0.24169 0.82649 0.92141 0.0
C1658 C 0.24535 0.80936 0.91898 0.0
H1659 H 0.02861 0.50556 0.39323 0.0
H1660 H 0.02693 0.5597 0.39414 0.0
H1661 H 0.04426 0.56066 0.36876 0.0
H1662 H 0.07112 0.50196 0.37905 0.0
H1663 H 0.06711 0.4842 0.3658 0.0
H1664 H 0.05451 0.48763 0.38411 0.0
H1665 H 0.02777 0.48715 0.36592 0.0
H1666 H 0.04028 0.48368 0.34756 0.0
H1667 H 0.02611 0.50111 0.34838 0.0
H1668 H 0.06154 0.55597 0.34339 0.0
H1669 H 0.07805 0.54587 0.31948 0.0
H1670 H 0.06847 0.4947 0.33446 0.0
C1671 C 0.03182 0.5176 0.38803 0.0
C1672 C 0.0265 0.53256 0.39576 0.0
C1673 C 0.03108 0.54808 0.38862 0.0
C1674 C 0.04084 0.54876 0.37414 0.0
C1675 C 0.04595 0.53383 0.3669 0.0
C1676 C 0.04163 0.51853 0.37356 0.0
C1677 C 0.04887 0.50437 0.36327 0.0
C1678 C 0.06113 0.49393 0.37368 0.0
C1679 C 0.03492 0.49344 0.35584 0.0
C1680 C 0.05789 0.51413 0.3498 0.0
C1681 C 0.05599 0.5311 0.35215 0.0
C1682 C 0.06308 0.54271 0.34136 0.0
C1683 C 0.07235 0.53684 0.32776 0.0
C1684 C 0.07447 0.51949 0.32501 0.0
C1685 C 0.06717 0.50803 0.33627 0.0
H1686 H 0.78061 0.7203 0.85961 0.0
H1687 H 0.75585 0.7657 0.87575 0.0
H1688 H 0.74966 0.75275 0.90291 0.0
H1689 H 0.75264 0.69169 0.87937 0.0
H1690 H 0.76868 0.67714 0.88539 0.0
H1691 H 0.77148 0.68999 0.86718 0.0
H1692 H 0.7993 0.70127 0.87927 0.0
H1693 H 0.79661 0.68842 0.89751 0.0
H1694 H 0.7995 0.71061 0.89976 0.0
H1695 H 0.7456 0.73497 0.92799 0.0
H1696 H 0.74438 0.71342 0.9499 0.0
H1697 H 0.772 0.67947 0.91795 0.0
C1698 C 0.77404 0.72756 0.86892 0.0
C1699 C 0.76858 0.74398 0.86547 0.0
C1700 C 0.75988 0.753 0.87796 0.0
C1701 C 0.75639 0.7458 0.89348 0.0
C1702 C 0.76176 0.72957 0.8964 0.0
C1703 C 0.77045 0.72055 0.88454 0.0
C1704 C 0.77464 0.70325 0.89092 0.0
C1705 C 0.76636 0.68972 0.88007 0.0
C1706 C 0.79364 0.70075 0.89193 0.0
C1707 C 0.76687 0.70397 0.90816 0.0
C1708 C 0.75951 0.71928 0.91103 0.0
C1709 C 0.75131 0.72292 0.92592 0.0
C1710 C 0.75059 0.71056 0.93823 0.0
C1711 C 0.75803 0.69474 0.93561 0.0
C1712 C 0.76633 0.69148 0.92037 0.0
H1713 H 0.98486 0.96641 0.38684 0.0
H1714 H 1.0007 0.01708 0.39793 0.0
H1715 H 0.98378 0.02742 0.37445 0.0
H1716 H 0.98451 0.97024 0.34231 0.0
H1717 H 0.96607 0.95764 0.33948 0.0
H1718 H 0.97951 0.95408 0.35713 0.0
H1719 H 0.95446 0.9581 0.37719 0.0
H1720 H 0.94092 0.96159 0.35959 0.0
H1721 H 0.94226 0.97694 0.37601 0.0
H1722 H 0.96546 0.03232 0.34963 0.0
H1723 H 0.94652 0.03152 0.32541 0.0
H1724 H 0.94142 0.97786 0.33112 0.0
C1725 C 0.98467 0.9797 0.38444 0.0
C1726 C 0.99427 0.9909 0.3942 0.0
C1727 C 0.99376 0.00818 0.39047 0.0
C1728 C 0.98408 0.01421 0.37721 0.0
C1729 C 0.97488 1.00283 0.36781 0.0
C1730 C 0.97501 0.98596 0.37127 0.0
C1731 C 0.96391 0.97642 0.35924 0.0
C1732 C 0.97411 0.96386 0.34893 0.0
C1733 C 0.94954 0.96776 0.36857 0.0
C1734 C 0.95756 0.99059 0.34847 0.0
C1735 C 0.96406 0.0057 0.35363 0.0
C1736 C 0.96018 0.02057 0.34555 0.0
C1737 C 0.9493 0.01999 0.33185 0.0
C1738 C 0.94233 0.00465 0.32636 0.0
C1739 C 0.94661 0.98978 0.33485 0.0
H1740 H 0.23488 0.25008 0.63813 0.0
H1741 H 0.22587 0.21442 0.67786 0.0
H1742 H 0.22942 0.19126 0.65788 0.0
H1743 H 0.21296 0.22785 0.60633 0.0
H1744 H 0.22741 0.23308 0.58991 0.0
H1745 H 0.22483 0.24695 0.60741 0.0
H1746 H 0.2566 0.24564 0.61332 0.0
H1747 H 0.25929 0.23177 0.5958 0.0
H1748 H 0.26647 0.22565 0.61622 0.0
H1749 H 0.23322 0.17201 0.63372 0.0
H1750 H 0.23702 0.15774 0.60671 0.0
H1751 H 0.24338 0.20568 0.58233 0.0
C1752 C 0.23386 0.23739 0.64265 0.0
C1753 C 0.23002 0.23406 0.65955 0.0
C1754 C 0.22858 0.21728 0.66493 0.0
C1755 C 0.23067 0.20403 0.6537 0.0
C1756 C 0.23425 0.20773 0.63711 0.0
C1757 C 0.23586 0.22397 0.63156 0.0
C1758 C 0.23931 0.22445 0.61295 0.0
C1759 C 0.22529 0.23363 0.6036 0.0
C1760 C 0.25644 0.23235 0.60937 0.0
C1761 C 0.23927 0.20595 0.60892 0.0
C1762 C 0.23638 0.19656 0.62308 0.0
C1763 C 0.23549 0.17922 0.62254 0.0
C1764 C 0.23755 0.17124 0.60711 0.0
C1765 C 0.24041 0.18057 0.59236 0.0
C1766 C 0.24138 0.19818 0.59338 0.0
H1767 H 0.48976 0.5459 0.62232 0.0
H1768 H 0.48196 0.49892 0.59646 0.0
H1769 H 0.46129 0.49061 0.61775 0.0
H1770 H 0.48692 0.52916 0.66389 0.0
H1771 H 0.47621 0.54703 0.67236 0.0
H1772 H 0.49015 0.54951 0.6549 0.0
H1773 H 0.46641 0.56321 0.63779 0.0
H1774 H 0.45239 0.56078 0.6552 0.0
H1775 H 0.44692 0.55224 0.6351 0.0
H1776 H 0.44131 0.48747 0.64151 0.0
H1777 H 0.42411 0.48916 0.66702 0.0
H1778 H 0.44509 0.53791 0.67798 0.0
C1779 C 0.48361 0.53391 0.62111 0.0
C1780 C 0.48747 0.52303 0.60775 0.0
C1781 C 0.47931 0.50737 0.60669 0.0
C1782 C 0.46749 0.50258 0.61866 0.0
C1783 C 0.46401 0.51355 0.6317 0.0
C1784 C 0.47187 0.52885 0.63308 0.0
C1785 C 0.46609 0.5381 0.64856 0.0
C1786 C 0.48072 0.54112 0.66064 0.0
C1787 C 0.45744 0.55456 0.64388 0.0
C1788 C 0.45375 0.52561 0.65563 0.0
C1789 C 0.45267 0.51159 0.64563 0.0
C1790 C 0.44203 0.49839 0.64944 0.0
C1791 C 0.43224 0.4995 0.66391 0.0
C1792 C 0.43322 0.51367 0.67446 0.0
C1793 C 0.44416 0.52687 0.67022 0.0
H1794 H 0.79516 0.2764 0.63447 0.0
H1795 H 0.74691 0.27926 0.65894 0.0
H1796 H 0.73709 0.29876 0.63723 0.0
H1797 H 0.79738 0.31965 0.62214 0.0
H1798 H 0.80721 0.31522 0.60239 0.0
H1799 H 0.81045 0.3015 0.61987 0.0
H1800 H 0.79998 0.27648 0.60219 0.0
H1801 H 0.79667 0.29012 0.58467 0.0
H1802 H 0.77973 0.2775 0.59242 0.0
H1803 H 0.73254 0.31804 0.61299 0.0
H1804 H 0.73341 0.33537 0.58755 0.0
H1805 H 0.78469 0.32017 0.57894 0.0
C1806 C 0.78257 0.28123 0.63533 0.0
C1807 C 0.77179 0.27627 0.6484 0.0
C1808 C 0.75533 0.28271 0.64894 0.0
C1809 C 0.74966 0.29386 0.63672 0.0
C1810 C 0.76059 0.29845 0.62401 0.0
C1811 C 0.77669 0.29232 0.6232 0.0
C1812 C 0.78585 0.29912 0.60811 0.0
C1813 C 0.80112 0.30949 0.61345 0.0
C1814 C 0.79085 0.28496 0.59614 0.0
C1815 C 0.7724 0.31003 0.60058 0.0
C1816 C 0.75794 0.30951 0.60998 0.0
C1817 C 0.74381 0.31859 0.60556 0.0
C1818 C 0.74446 0.32848 0.59114 0.0
C1819 C 0.75912 0.32918 0.58127 0.0
C1820 C 0.77324 0.31979 0.58613 0.0
H1821 H 0.53205 0.9715 0.61526 0.0
H1822 H 0.53438 0.02046 0.59232 0.0
H1823 H 0.55488 0.02947 0.61352 0.0
H1824 H 0.53424 0.98546 0.65723 0.0
H1825 H 0.54705 0.96845 0.66441 0.0
H1826 H 0.53323 0.96547 0.64693 0.0
H1827 H 0.55812 0.95574 0.62872 0.0
H1828 H 0.57201 0.9586 0.64619 0.0
H1829 H 0.57621 0.96899 0.62669 0.0
H1830 H 0.57417 0.03354 0.63771 0.0
H1831 H 0.59106 0.03249 0.6634 0.0
H1832 H 0.57668 0.98073 0.67055 0.0
C1833 C 0.53709 0.98403 0.61455 0.0
C1834 C 0.53162 0.9953 0.60214 0.0
C1835 C 0.53827 0.01168 0.60181 0.0
C1836 C 0.54998 0.01688 0.61374 0.0
C1837 C 0.55494 0.00555 0.62592 0.0
C1838 C 0.54875 0.98945 0.62642 0.0
C1839 C 0.55575 0.97995 0.6412 0.0
C1840 C 0.54173 0.97452 0.65315 0.0
C1841 C 0.56614 0.96493 0.63534 0.0
C1842 C 0.56669 0.99328 0.64901 0.0
C1843 C 0.5661 0.00791 0.63994 0.0
C1844 C 0.57487 0.0221 0.64483 0.0
C1845 C 0.58452 0.02134 0.65941 0.0
C1846 C 0.58533 0.00649 0.66897 0.0
C1847 C 0.57627 0.99229 0.6636 0.0
H1848 H 0.86458 0.23065 0.78225 0.0
H1849 H 0.88925 0.24129 0.7352 0.0
H1850 H 0.91583 0.24572 0.75019 0.0
H1851 H 0.88703 0.26066 0.80708 0.0
H1852 H 0.88812 0.24739 0.82519 0.0
H1853 H 0.87097 0.24533 0.81079 0.0
H1854 H 0.87775 0.21395 0.80696 0.0
H1855 H 0.89491 0.21591 0.82136 0.0
H1856 H 0.89847 0.20783 0.80066 0.0
H1857 H 0.93984 0.24853 0.77026 0.0
H1858 H 0.95944 0.24995 0.794 0.0
H1859 H 0.91923 0.23684 0.82788 0.0
C1860 C 0.87559 0.23381 0.77507 0.0
C1861 C 0.8748 0.23565 0.75753 0.0
C1862 C 0.88947 0.24003 0.74866 0.0
C1863 C 0.90466 0.24248 0.75705 0.0
C1864 C 0.90498 0.24051 0.77432 0.0
C1865 C 0.89083 0.23631 0.78324 0.0
C1866 C 0.89456 0.2349 0.80173 0.0
C1867 C 0.88458 0.24784 0.81179 0.0
C1868 C 0.89123 0.21709 0.80804 0.0
C1869 C 0.91304 0.23892 0.80181 0.0
C1870 C 0.91881 0.24211 0.78588 0.0
C1871 C 0.93547 0.24602 0.78279 0.0
C1872 C 0.94654 0.24668 0.79635 0.0
C1873 C 0.94091 0.24345 0.81281 0.0
C1874 C 0.9239 0.23954 0.81549 0.0
H1875 H 0.49187 0.90541 0.47813 0.0
H1876 H 0.45786 0.88326 0.51392 0.0
H1877 H 0.46021 0.85611 0.49938 0.0
H1878 H 0.47576 0.88342 0.44232 0.0
H1879 H 0.49587 0.88109 0.43251 0.0
H1880 H 0.49197 0.8986 0.44606 0.0
H1881 H 0.51754 0.89048 0.46411 0.0
H1882 H 0.52151 0.87293 0.45062 0.0
H1883 H 0.51881 0.86975 0.47272 0.0
H1884 H 0.46674 0.83133 0.48138 0.0
H1885 H 0.47538 0.81095 0.45985 0.0
H1886 H 0.50405 0.84946 0.43487 0.0
C1887 C 0.48501 0.89479 0.48292 0.0
C1888 C 0.47473 0.89633 0.49716 0.0
C1889 C 0.46573 0.88229 0.50297 0.0
C1890 C 0.46705 0.86684 0.49485 0.0
C1891 C 0.47728 0.86571 0.48083 0.0
C1892 C 0.48597 0.87933 0.47479 0.0
C1893 C 0.49561 0.87488 0.45912 0.0
C1894 C 0.48943 0.88511 0.44412 0.0
C1895 C 0.51449 0.87714 0.46181 0.0
C1896 C 0.49102 0.85662 0.45734 0.0
C1897 C 0.48057 0.85155 0.47009 0.0
C1898 C 0.47488 0.83516 0.47131 0.0
C1899 C 0.4799 0.82367 0.45909 0.0
C1900 C 0.49036 0.82867 0.44576 0.0
C1901 C 0.49596 0.84537 0.44489 0.0
H1902 H 0.13612 0.2743 0.76857 0.0
H1903 H 0.17122 0.29576 0.80395 0.0
H1904 H 0.15085 0.29166 0.82662 0.0
H1905 H 0.09904 0.29161 0.78642 0.0
H1906 H 0.08646 0.27331 0.78276 0.0
H1907 H 0.10379 0.27791 0.7692 0.0
H1908 H 0.11633 0.24874 0.77512 0.0
H1909 H 0.09902 0.24402 0.78867 0.0
H1910 H 0.12009 0.24246 0.79639 0.0
H1911 H 0.12665 0.28564 0.8454 0.0
H1912 H 0.10025 0.2779 0.85914 0.0
H1913 H 0.08123 0.25912 0.81191 0.0
C1914 C 0.1396 0.278 0.7811 0.0
C1915 C 0.15527 0.28548 0.78441 0.0
C1916 C 0.1592 0.29031 0.801 0.0
C1917 C 0.14776 0.28792 0.814 0.0
C1918 C 0.13243 0.2806 0.81029 0.0
C1919 C 0.12833 0.27566 0.79427 0.0
C1920 C 0.11097 0.2681 0.79369 0.0
C1921 C 0.09939 0.27835 0.78235 0.0
C1922 C 0.11165 0.24974 0.78814 0.0
C1923 C 0.10596 0.26965 0.81186 0.0
C1924 C 0.11853 0.27688 0.82121 0.0
C1925 C 0.11676 0.27983 0.83825 0.0
C1926 C 0.10174 0.27526 0.84596 0.0
C1927 C 0.08864 0.26776 0.83668 0.0
C1928 C 0.09089 0.26493 0.81938 0.0
H1929 H 0.52875 0.62872 0.49832 0.0
H1930 H 0.51201 0.58962 0.46474 0.0
H1931 H 0.5044 0.61084 0.44374 0.0
H1932 H 0.49715 0.65947 0.48736 0.0
H1933 H 0.51142 0.67684 0.48859 0.0
H1934 H 0.51478 0.65865 0.50133 0.0
H1935 H 0.54459 0.65562 0.48915 0.0
H1936 H 0.5413 0.67376 0.47634 0.0
H1937 H 0.54733 0.65427 0.46685 0.0
H1938 H 0.49894 0.63609 0.42631 0.0
H1939 H 0.49693 0.66379 0.41303 0.0
H1940 H 0.51788 0.68667 0.45749 0.0
C1941 C 0.52329 0.62469 0.48661 0.0
C1942 C 0.5209 0.60756 0.48313 0.0
C1943 C 0.514 0.60269 0.46759 0.0
C1944 C 0.50959 0.61464 0.45563 0.0
C1945 C 0.51224 0.63141 0.45936 0.0
C1946 C 0.519 0.63647 0.47443 0.0
C1947 C 0.52119 0.65526 0.47496 0.0
C1948 C 0.5105 0.66301 0.48889 0.0
C1949 C 0.5397 0.66 0.47694 0.0
C1950 C 0.51467 0.65995 0.45783 0.0
C1951 C 0.50944 0.646 0.44911 0.0
C1952 C 0.50293 0.64711 0.43303 0.0
C1953 C 0.50177 0.6629 0.42563 0.0
C1954 C 0.50719 0.67738 0.43424 0.0
C1955 C 0.51373 0.67582 0.45057 0.0
H1956 H 0.85103 0.77846 0.72078 0.0
H1957 H 0.87657 0.77946 0.76856 0.0
H1958 H 0.90356 0.77566 0.75423 0.0
H1959 H 0.87673 0.74697 0.70188 0.0
H1960 H 0.87659 0.75641 0.68147 0.0
H1961 H 0.85921 0.75948 0.6954 0.0
H1962 H 0.86269 0.79152 0.69287 0.0
H1963 H 0.88004 0.78855 0.67888 0.0
H1964 H 0.88262 0.80091 0.69752 0.0
H1965 H 0.9277 0.77184 0.73491 0.0
H1966 H 0.94759 0.76791 0.71173 0.0
H1967 H 0.90661 0.76928 0.6763 0.0
C1968 C 0.86233 0.77802 0.72819 0.0
C1969 C 0.8617 0.77921 0.7458 0.0
C1970 C 0.87673 0.77837 0.75509 0.0
C1971 C 0.89213 0.7763 0.74705 0.0
C1972 C 0.8923 0.77504 0.72972 0.0
C1973 C 0.87783 0.77584 0.72037 0.0
C1974 C 0.88153 0.77392 0.7019 0.0
C1975 C 0.87301 0.75826 0.69475 0.0
C1976 C 0.87642 0.78966 0.69223 0.0
C1977 C 0.90035 0.77194 0.70235 0.0
C1978 C 0.90628 0.77268 0.71853 0.0
C1979 C 0.92322 0.77128 0.72218 0.0
C1980 C 0.93442 0.76914 0.70892 0.0
C1981 C 0.92867 0.76836 0.69221 0.0
C1982 C 0.91137 0.7697 0.68895 0.0
H1983 H 0.04076 0.88548 0.5199 0.0
H1984 H 0.99086 0.90625 0.51639 0.0
H1985 H 0.98044 0.88449 0.53549 0.0
H1986 H 0.02831 0.84238 0.52107 0.0
H1987 H 0.04419 0.8364 0.53583 0.0
H1988 H 0.0478 0.85364 0.52189 0.0
H1989 H 0.05404 0.87285 0.54718 0.0
H1990 H 0.05042 0.85567 0.5612 0.0
H1991 H 0.03881 0.87476 0.56363 0.0
H1992 H 0.97542 0.86079 0.55512 0.0
H1993 H 0.97597 0.83626 0.57361 0.0
H1994 H 0.02905 0.83048 0.56425 0.0
C1995 C 0.02767 0.88552 0.52324 0.0
C1996 C 0.01661 0.89756 0.51658 0.0
C1997 C 0.99952 0.89703 0.52112 0.0
C1998 C 0.9935 0.88479 0.53205 0.0
C1999 C 0.00471 0.87312 0.53836 0.0
C2000 C 0.02142 0.87333 0.53411 0.0
C2001 C 0.03076 0.85922 0.54255 0.0
C2002 C 0.0382 0.8472 0.52956 0.0
C2003 C 0.04431 0.86604 0.55434 0.0
C2004 C 0.01668 0.85107 0.55221 0.0
C2005 C 1.00178 0.85932 0.54962 0.0
C2006 C 0.987 0.85417 0.55718 0.0
C2007 C 0.98743 0.84014 0.56758 0.0
C2008 C 1.00251 0.83132 0.57032 0.0
C2009 C 0.01734 0.83699 0.56255 0.0
H2010 H 0.14507 0.72634 0.7187 0.0
H2011 H 0.1192 0.72164 0.76605 0.0
H2012 H 0.0922 0.72535 0.7517 0.0
H2013 H 0.11899 0.75824 0.70207 0.0
H2014 H 0.11941 0.75044 0.68096 0.0
H2015 H 0.13672 0.7465 0.69473 0.0
H2016 H 0.13366 0.71473 0.68954 0.0
H2017 H 0.11633 0.71857 0.67573 0.0
H2018 H 0.11383 0.70475 0.69328 0.0
H2019 H 0.06821 0.73021 0.73263 0.0
H2020 H 0.04845 0.73644 0.70994 0.0
H2021 H 0.08961 0.73873 0.67472 0.0
C2022 C 0.13369 0.72588 0.72598 0.0
C2023 C 0.1342 0.72372 0.74349 0.0
C2024 C 0.11908 0.72344 0.75265 0.0
C2025 C 0.10369 0.72544 0.74461 0.0
C2026 C 0.10361 0.72774 0.72738 0.0
C2027 C 0.11817 0.72799 0.71814 0.0
C2028 C 0.11454 0.73132 0.69985 0.0
C2029 C 0.12291 0.74759 0.69407 0.0
C2030 C 0.11991 0.71646 0.68896 0.0
C2031 C 0.09568 0.73301 0.70032 0.0
C2032 C 0.08967 0.7308 0.71633 0.0
C2033 C 0.07275 0.732 0.72003 0.0
C2034 C 0.06164 0.73567 0.70706 0.0
C2035 C 0.06746 0.73824 0.69055 0.0
C2036 C 0.08473 0.73672 0.68717 0.0
H2037 H 0.97175 0.60461 0.53901 0.0
H2038 H 0.99077 0.62442 0.49232 0.0
H2039 H 0.99461 0.65192 0.50552 0.0
H2040 H 0.94928 0.64209 0.5517 0.0
H2041 H 0.95439 0.63979 0.57349 0.0
H2042 H 0.95269 0.62161 0.56033 0.0
H2043 H 0.98261 0.61276 0.56878 0.0
H2044 H 0.98443 0.63095 0.58189 0.0
H2045 H 0.99968 0.62714 0.5658 0.0
H2046 H 0.99705 0.67696 0.52353 0.0
H2047 H 0.99771 0.69847 0.54549 0.0
H2048 H 0.97685 0.66308 0.58082 0.0
C2049 C 0.97657 0.6148 0.53156 0.0
C2050 C 0.98108 0.61234 0.51466 0.0
C2051 C 0.98747 0.62594 0.50535 0.0
C2052 C 0.98962 0.64164 0.5127 0.0
C2053 C 0.98531 0.64361 0.5294 0.0
C2054 C 0.97888 0.63062 0.53876 0.0
C2055 C 0.97555 0.63617 0.55658 0.0
C2056 C 0.95686 0.63484 0.56077 0.0
C2057 C 0.98621 0.62616 0.56899 0.0
C2058 C 0.98117 0.65424 0.55573 0.0
C2059 C 0.9867 0.65822 0.5399 0.0
C2060 C 0.99263 0.67406 0.53596 0.0
C2061 C 0.99287 0.68622 0.54851 0.0
C2062 C 0.98719 0.68255 0.56486 0.0
C2063 C 0.98134 0.66627 0.56848 0.0
H2064 H 0.77471 0.87235 0.2182 0.0
H2065 H 0.77294 0.85303 0.26876 0.0
H2066 H 0.79309 0.87455 0.27772 0.0
H2067 H 0.81882 0.88232 0.21794 0.0
H2068 H 0.81621 0.90116 0.20597 0.0
H2069 H 0.80174 0.88412 0.2034 0.0
H2070 H 0.7771 0.90389 0.21025 0.0
H2071 H 0.79149 0.92099 0.21281 0.0
H2072 H 0.77735 0.91563 0.22946 0.0
H2073 H 0.8134 0.898 0.28127 0.0
H2074 H 0.83214 0.92234 0.27933 0.0
H2075 H 0.82051 0.92691 0.22658 0.0
C2076 C 0.77866 0.87258 0.23113 0.0
C2077 C 0.77218 0.86103 0.2428 0.0
C2078 C 0.77753 0.86188 0.25965 0.0
C2079 C 0.78906 0.87399 0.26484 0.0
C2080 C 0.79515 0.8852 0.25305 0.0
C2081 C 0.79013 0.88466 0.23656 0.0
C2082 C 0.79839 0.8984 0.22651 0.0
C2083 C 0.80945 0.89106 0.21264 0.0
C2084 C 0.7853 0.91044 0.21934 0.0
C2085 C 0.80882 0.90673 0.23994 0.0
C2086 C 0.80679 0.89887 0.25514 0.0
C2087 C 0.81505 0.90431 0.26945 0.0
C2088 C 0.82559 0.91823 0.26824 0.0
C2089 C 0.82776 0.92665 0.25284 0.0
C2090 C 0.81929 0.92068 0.23851 0.0
H2091 H 0.79094 0.15006 0.28077 0.0
H2092 H 0.74844 0.13547 0.25031 0.0
H2093 H 0.763 0.10969 0.2423 0.0
H2094 H 0.82299 0.13379 0.25406 0.0
H2095 H 0.83587 0.12639 0.27094 0.0
H2096 H 0.82235 0.14405 0.27409 0.0
H2097 H 0.8084 0.12911 0.29914 0.0
H2098 H 0.82194 0.11144 0.29612 0.0
H2099 H 0.79962 0.10858 0.29627 0.0
H2100 H 0.78209 0.08566 0.23722 0.0
H2101 H 0.80413 0.06431 0.23628 0.0
H2102 H 0.83361 0.09334 0.27145 0.0
C2103 C 0.78462 0.14141 0.27251 0.0
C2104 C 0.76858 0.14501 0.26601 0.0
C2105 C 0.76087 0.13331 0.25515 0.0
C2106 C 0.76899 0.11852 0.25061 0.0
C2107 C 0.78478 0.11545 0.25713 0.0
C2108 C 0.7925 0.12648 0.26794 0.0
C2109 C 0.80941 0.11995 0.27338 0.0
C2110 C 0.82348 0.13175 0.26778 0.0
C2111 C 0.80986 0.1171 0.29235 0.0
C2112 C 0.80997 0.10357 0.26389 0.0
C2113 C 0.79565 0.10128 0.25456 0.0
C2114 C 0.7933 0.08723 0.2446 0.0
C2115 C 0.80587 0.0751 0.24426 0.0
C2116 C 0.82061 0.07698 0.25391 0.0
C2117 C 0.82261 0.09151 0.2638 0.0
H2118 H 0.39794 0.98355 0.99305 0.0
H2119 H 0.40484 0.97624 0.93974 0.0
H2120 H 0.38289 0.95472 0.93985 0.0
H2121 H 0.38976 0.94094 1.00364 0.0
H2122 H 0.37392 0.94581 0.01886 0.0
H2123 H 0.39046 0.9605 0.01477 0.0
H2124 H 0.36862 0.98334 0.00804 0.0
H2125 H 0.35202 0.96873 0.01215 0.0
H2126 H 0.35295 0.97936 0.99237 0.0
H2127 H 0.36042 0.93385 0.94563 0.0
H2128 H 0.33806 0.91569 0.95657 0.0
H2129 H 0.34478 0.93717 0.00588 0.0
C2130 C 0.39476 0.97756 0.98135 0.0
C2131 C 0.40333 0.98155 0.96641 0.0
C2132 C 0.3988 0.97321 0.95144 0.0
C2133 C 0.38623 0.96103 0.95133 0.0
C2134 C 0.37815 0.95737 0.96626 0.0
C2135 C 0.38213 0.96545 0.98098 0.0
C2136 C 0.37132 0.9593 0.99525 0.0
C2137 C 0.38201 0.95115 0.00893 0.0
C2138 C 0.36059 0.97353 1.00237 0.0
C2139 C 0.36068 0.94648 0.98624 0.0
C2140 C 0.3649 0.94553 0.96954 0.0
C2141 C 0.357 0.93447 0.95868 0.0
C2142 C 0.34439 0.92414 0.96503 0.0
C2143 C 0.33975 0.92496 0.98208 0.0
C2144 C 0.34801 0.93634 0.99278 0.0
H2145 H 0.23023 0.36126 0.29039 0.0
H2146 H 0.24343 0.34895 0.23926 0.0
H2147 H 0.22552 0.3718 0.22918 0.0
H2148 H 0.18683 0.37133 0.28193 0.0
H2149 H 0.18627 0.38817 0.29686 0.0
H2150 H 0.20008 0.37076 0.30011 0.0
H2151 H 0.22524 0.39101 0.30217 0.0
H2152 H 0.21152 0.40847 0.29891 0.0
H2153 H 0.22922 0.40541 0.28536 0.0
H2154 H 0.2068 0.39633 0.22462 0.0
H2155 H 0.18808 0.42075 0.22588 0.0
H2156 H 0.18634 0.41673 0.27986 0.0
C2157 C 0.22921 0.36322 0.27706 0.0
C2158 C 0.23835 0.35332 0.26564 0.0
C2159 C 0.23682 0.35651 0.2483 0.0
C2160 C 0.22657 0.36939 0.24243 0.0
C2161 C 0.21783 0.37894 0.25403 0.0
C2162 C 0.21898 0.37599 0.27098 0.0
C2163 C 0.20838 0.38821 0.28079 0.0
C2164 C 0.19457 0.37907 0.29049 0.0
C2165 C 0.21924 0.39891 0.29249 0.0
C2166 C 0.20118 0.39854 0.26671 0.0
C2167 C 0.20681 0.39298 0.25138 0.0
C2168 C 0.20225 0.40077 0.23654 0.0
C2169 C 0.19169 0.41467 0.23739 0.0
C2170 C 0.18576 0.42062 0.25296 0.0
C2171 C 0.19051 0.41233 0.26778 0.0
H2172 H 0.12034 0.02429 0.46619 0.0
H2173 H 0.10678 0.01153 0.51709 0.0
H2174 H 0.12881 0.03028 0.52764 0.0
H2175 H 0.16466 0.02731 0.47285 0.0
H2176 H 0.16732 0.04489 0.45909 0.0
H2177 H 0.15069 0.03018 0.45544 0.0
H2178 H 0.12911 0.05421 0.45623 0.0
H2179 H 0.14567 0.069 0.45986 0.0
H2180 H 0.12834 0.06781 0.47416 0.0
H2181 H 0.15209 0.05049 0.53275 0.0
H2182 H 0.17516 0.07084 0.5321 0.0
H2183 H 0.17297 0.07145 0.47793 0.0
C2184 C 0.12192 0.02549 0.47956 0.0
C2185 C 0.11185 0.0163 0.49079 0.0
C2186 C 0.1145 0.01815 0.5082 0.0
C2187 C 0.12692 0.02888 0.51433 0.0
C2188 C 0.13658 0.03773 0.50292 0.0
C2189 C 0.13424 0.03618 0.48591 0.0
C2190 C 0.14625 0.04725 0.47636 0.0
C2191 C 0.15792 0.03678 0.46528 0.0
C2192 C 0.13677 0.06035 0.46605 0.0
C2193 C 0.1557 0.05527 0.49068 0.0
C2194 C 0.14991 0.04958 0.50588 0.0
C2195 C 0.15667 0.05511 0.52092 0.0
C2196 C 0.1697 0.06678 0.52041 0.0
C2197 C 0.17584 0.07289 0.50498 0.0
C2198 C 0.16869 0.06697 0.48993 0.0
H2199 H 0.74102 0.14319 0.71494 0.0
H2200 H 0.74569 0.16152 0.76574 0.0
H2201 H 0.72724 0.13887 0.77555 0.0
H2202 H 0.69757 0.13131 0.71755 0.0
H2203 H 0.7001 0.1129 0.70485 0.0
H2204 H 0.71361 0.13061 0.70179 0.0
H2205 H 0.7395 0.11178 0.70627 0.0
H2206 H 0.72607 0.09402 0.70935 0.0
H2207 H 0.74115 0.09961 0.7251 0.0
H2208 H 0.70818 0.11444 0.77983 0.0
H2209 H 0.69005 0.0896 0.7784 0.0
H2210 H 0.69821 0.08673 0.72487 0.0
C2211 C 0.73805 0.14252 0.7281 0.0
C2212 C 0.74482 0.15411 0.73959 0.0
C2213 C 0.7408 0.15266 0.75675 0.0
C2214 C 0.73027 0.1399 0.76243 0.0
C2215 C 0.72386 0.12865 0.7508 0.0
C2216 C 0.7276 0.1298 0.734 0.0
C2217 C 0.71923 0.11596 0.72416 0.0
C2218 C 0.70689 0.12313 0.71133 0.0
C2219 C 0.73227 0.10468 0.71573 0.0
C2220 C 0.71018 0.10688 0.73805 0.0
C2221 C 0.713 0.11443 0.7533 0.0
C2222 C 0.70595 0.10835 0.76797 0.0
C2223 C 0.69576 0.09415 0.76704 0.0
C2224 C 0.69275 0.08609 0.75155 0.0
C2225 C 0.70009 0.09265 0.73689 0.0
H2226 H 0.39442 0.02864 0.51682 0.0
H2227 H 0.38671 0.01423 0.56842 0.0
H2228 H 0.36083 0.03091 0.56927 0.0
H2229 H 0.38035 0.07083 0.52148 0.0
H2230 H 0.37035 0.0717 0.50134 0.0
H2231 H 0.38798 0.05815 0.50452 0.0
H2232 H 0.37048 0.03286 0.49443 0.0
H2233 H 0.35281 0.04634 0.49117 0.0
H2234 H 0.35083 0.0283 0.50443 0.0
H2235 H 0.33595 0.04904 0.56463 0.0
H2236 H 0.31389 0.06822 0.55503 0.0
H2237 H 0.33783 0.0715 0.50655 0.0
C2238 C 0.38717 0.02889 0.52823 0.0
C2239 C 0.39253 0.02015 0.54257 0.0
C2240 C 0.38287 0.02095 0.55735 0.0
C2241 C 0.36813 0.03032 0.55793 0.0
C2242 C 0.36327 0.03891 0.54364 0.0
C2243 C 0.37249 0.03834 0.52907 0.0
C2244 C 0.36467 0.04913 0.51565 0.0
C2245 C 0.37655 0.06329 0.51045 0.0
C2246 C 0.35938 0.03852 0.50053 0.0
C2247 C 0.34962 0.05582 0.52496 0.0
C2248 C 0.34902 0.04967 0.54105 0.0
C2249 C 0.33626 0.05393 0.55205 0.0
C2250 C 0.32375 0.06476 0.54646 0.0
C2251 C 0.32412 0.07131 0.53005 0.0
C2252 C 0.33729 0.06679 0.5192 0.0
H2253 H 0.62087 0.48569 0.53901 0.0
H2254 H 0.59422 0.47893 0.49232 0.0
H2255 H 0.61548 0.45864 0.48307 0.0
H2256 H 0.66199 0.4837 0.5216 0.0
H2257 H 0.67086 0.47258 0.53899 0.0
H2258 H 0.65329 0.48621 0.5422 0.0
H2259 H 0.63664 0.46186 0.55546 0.0
H2260 H 0.65418 0.44816 0.55233 0.0
H2261 H 0.63402 0.44269 0.54395 0.0
H2262 H 0.63968 0.43934 0.47876 0.0
H2263 H 0.6656 0.42275 0.47938 0.0
H2264 H 0.67662 0.44192 0.5289 0.0
C2265 C 0.61944 0.47981 0.52691 0.0
C2266 C 0.6059 0.48389 0.51636 0.0
C2267 C 0.60459 0.47611 0.50052 0.0
C2268 C 0.61655 0.46452 0.4952 0.0
C2269 C 0.62979 0.46085 0.50584 0.0
C2270 C 0.63135 0.46828 0.52135 0.0
C2271 C 0.64703 0.46243 0.53017 0.0
C2272 C 0.659 0.47711 0.53343 0.0
C2273 C 0.6427 0.45324 0.54644 0.0
C2274 C 0.65404 0.45058 0.51719 0.0
C2275 C 0.64385 0.4498 0.50329 0.0
C2276 C 0.64773 0.43978 0.48961 0.0
C2277 C 0.66243 0.43033 0.49012 0.0
C2278 C 0.67314 0.43096 0.5042 0.0
C2279 C 0.66879 0.44125 0.5179 0.0
H2280 H 0.7246 0.2851 0.35669 0.0
H2281 H 0.74455 0.2388 0.37643 0.0
H2282 H 0.75052 0.25279 0.40317 0.0
H2283 H 0.75393 0.31236 0.3763 0.0
H2284 H 0.73897 0.32855 0.38071 0.0
H2285 H 0.73588 0.31489 0.36311 0.0
H2286 H 0.70667 0.30676 0.37438 0.0
H2287 H 0.70966 0.32044 0.39201 0.0
H2288 H 0.70474 0.29874 0.3953 0.0
H2289 H 0.75508 0.27175 0.42747 0.0
H2290 H 0.75747 0.29451 0.44809 0.0
H2291 H 0.73417 0.3286 0.4131 0.0
C2292 C 0.73005 0.27785 0.3667 0.0
C2293 C 0.73422 0.26085 0.36436 0.0
C2294 C 0.74151 0.25189 0.37776 0.0
C2295 C 0.74485 0.2597 0.39306 0.0
C2296 C 0.74076 0.27647 0.39487 0.0
C2297 C 0.73345 0.28546 0.38212 0.0
C2298 C 0.73051 0.30343 0.38734 0.0
C2299 C 0.74042 0.31552 0.3762 0.0
C2300 C 0.71178 0.30758 0.38725 0.0
C2301 C 0.73741 0.30312 0.40498 0.0
C2302 C 0.74325 0.28743 0.40904 0.0
C2303 C 0.75052 0.28408 0.42446 0.0
C2304 C 0.75192 0.29712 0.43605 0.0
C2305 C 0.74606 0.31334 0.4322 0.0
C2306 C 0.73861 0.3163 0.41646 0.0
H2307 H 0.52674 0.01829 0.89103 0.0
H2308 H 0.52401 0.07238 0.89242 0.0
H2309 H 0.54237 0.07389 0.86778 0.0
H2310 H 0.5697 0.01536 0.87819 0.0
H2311 H 0.56624 0.9977 0.86465 0.0
H2312 H 0.55311 1.00081 0.88263 0.0
H2313 H 0.52689 1.00025 0.86368 0.0
H2314 H 0.53994 0.99712 0.84565 0.0
H2315 H 0.52558 0.0144 0.84626 0.0
H2316 H 0.56079 0.06963 0.84288 0.0
H2317 H 0.57811 0.05987 0.8194 0.0
H2318 H 0.56819 0.0085 0.83349 0.0
C2319 C 0.52992 0.03046 0.88611 0.0
C2320 C 0.52397 0.04523 0.89377 0.0
C2321 C 0.52861 0.06089 0.88699 0.0
C2322 C 0.53896 0.06189 0.87292 0.0
C2323 C 0.54457 0.04711 0.8657 0.0
C2324 C 0.54022 0.03169 0.87203 0.0
C2325 C 0.54788 0.01772 0.86182 0.0
C2326 C 0.55995 0.00728 0.87246 0.0
C2327 C 0.53426 0.00673 0.85388 0.0
C2328 C 0.55717 0.02771 0.84872 0.0
C2329 C 0.55509 0.04464 0.85121 0.0
C2330 C 0.56245 0.0564 0.84075 0.0
C2331 C 0.57217 0.05071 0.82737 0.0
C2332 C 0.57446 0.0334 0.82448 0.0
C2333 C 0.56683 0.0218 0.8354 0.0
H2334 H 0.27765 0.21837 0.36072 0.0
H2335 H 0.26828 0.26725 0.38217 0.0
H2336 H 0.26296 0.25425 0.40955 0.0
H2337 H 0.2462 0.19638 0.38394 0.0
H2338 H 0.25858 0.17781 0.38658 0.0
H2339 H 0.26175 0.19092 0.36861 0.0
H2340 H 0.2931 0.19376 0.37609 0.0
H2341 H 0.29003 0.18066 0.39408 0.0
H2342 H 0.29899 0.20116 0.39653 0.0
H2343 H 0.25886 0.23615 0.43456 0.0
H2344 H 0.25589 0.21403 0.45566 0.0
H2345 H 0.26758 0.1767 0.4181 0.0
C2346 C 0.27459 0.22634 0.37121 0.0
C2347 C 0.2733 0.24384 0.36928 0.0
C2348 C 0.26909 0.25381 0.38328 0.0
C2349 C 0.26615 0.24655 0.39891 0.0
C2350 C 0.26747 0.2293 0.40037 0.0
C2351 C 0.27157 0.2193 0.38692 0.0
C2352 C 0.272 0.20105 0.39189 0.0
C2353 C 0.25885 0.19095 0.38218 0.0
C2354 C 0.28958 0.19373 0.38951 0.0
C2355 C 0.26752 0.20239 0.41023 0.0
C2356 C 0.26498 0.2188 0.41483 0.0
C2357 C 0.26073 0.22324 0.43109 0.0
C2358 C 0.25895 0.21055 0.44297 0.0
C2359 C 0.26136 0.19358 0.43856 0.0
C2360 C 0.26577 0.18953 0.42193 0.0
H2361 H 0.48547 0.46459 0.88975 0.0
H2362 H 0.50498 0.51428 0.89931 0.0
H2363 H 0.48782 0.52538 0.8764 0.0
H2364 H 0.48366 0.46786 0.84517 0.0
H2365 H 0.46432 0.45651 0.84314 0.0
H2366 H 0.4781 0.45226 0.86039 0.0
H2367 H 0.4541 0.45821 0.88122 0.0
H2368 H 0.44022 0.46239 0.86404 0.0
H2369 H 0.44315 0.47782 0.88017 0.0
H2370 H 0.46915 0.53117 0.85228 0.0
H2371 H 0.4494 0.53144 0.82873 0.0
H2372 H 0.4408 0.47832 0.83523 0.0
C2373 C 0.48603 0.47782 0.88712 0.0
C2374 C 0.49676 0.48851 0.89625 0.0
C2375 C 0.49717 0.50575 0.8923 0.0
C2376 C 0.48737 0.51222 0.87937 0.0
C2377 C 0.4771 0.50134 0.87051 0.0
C2378 C 0.47626 0.48453 0.87423 0.0
C2379 C 0.46412 0.47563 0.8627 0.0
C2380 C 0.47309 0.46228 0.85223 0.0
C2381 C 0.44953 0.46807 0.87263 0.0
C2382 C 0.45835 0.49007 0.85192 0.0
C2383 C 0.46603 0.50476 0.85667 0.0
C2384 C 0.46293 0.51977 0.84853 0.0
C2385 C 0.45159 0.51981 0.83521 0.0
C2386 C 0.44337 0.50495 0.83016 0.0
C2387 C 0.44692 0.48988 0.83866 0.0
H2388 H 0.72697 0.74756 0.13762 0.0
H2389 H 0.75457 0.72061 0.17548 0.0
H2390 H 0.76253 0.69933 0.15454 0.0
H2391 H 0.71026 0.71136 0.11764 0.0
H2392 H 0.71143 0.71982 0.09684 0.0
H2393 H 0.70895 0.73358 0.11445 0.0
H2394 H 0.7354 0.74994 0.10553 0.0
H2395 H 0.73795 0.73622 0.08787 0.0
H2396 H 0.75477 0.73891 0.10259 0.0
H2397 H 0.76729 0.68102 0.1297 0.0
H2398 H 0.76746 0.6659 0.10295 0.0
H2399 H 0.73491 0.70358 0.08155 0.0
C2400 C 0.73487 0.73727 0.14137 0.0
C2401 C 0.74032 0.73571 0.15806 0.0
C2402 C 0.75035 0.72196 0.1627 0.0
C2403 C 0.75495 0.70988 0.15091 0.0
C2404 C 0.74926 0.71166 0.13457 0.0
C2405 C 0.73935 0.72493 0.12979 0.0
C2406 C 0.73415 0.72335 0.11166 0.0
C2407 C 0.71507 0.72194 0.11006 0.0
C2408 C 0.74098 0.73798 0.1013 0.0
C2409 C 0.74266 0.7071 0.10702 0.0
C2410 C 0.75143 0.70068 0.12038 0.0
C2411 C 0.76036 0.68585 0.11917 0.0
C2412 C 0.76023 0.67726 0.10392 0.0
C2413 C 0.75104 0.68336 0.09007 0.0
C2414 C 0.74222 0.69858 0.09174 0.0
H2415 H 0.99117 0.03938 0.1173 0.0
H2416 H 0.99152 0.98965 0.09582 0.0
H2417 H 0.97105 0.9804 0.11692 0.0
H2418 H 0.98848 0.02647 0.15996 0.0
H2419 H 0.97486 0.04324 0.16619 0.0
H2420 H 0.98916 0.04614 0.14909 0.0
H2421 H 0.96457 0.05443 0.1298 0.0
H2422 H 0.95019 0.0516 0.14686 0.0
H2423 H 0.94705 0.04047 0.12754 0.0
H2424 H 0.9507 0.97647 0.14038 0.0
H2425 H 0.93241 0.97793 0.16513 0.0
H2426 H 0.94526 0.03017 0.17154 0.0
C2427 C 0.9868 0.02659 0.11695 0.0
C2428 C 0.99294 0.01523 0.10491 0.0
C2429 C 0.98711 0.99853 0.10502 0.0
C2430 C 0.97542 0.99318 0.1169 0.0
C2431 C 0.9697 0.00466 0.12864 0.0
C2432 C 0.97521 0.02101 0.1288 0.0
C2433 C 0.96737 0.0307 0.14305 0.0
C2434 C 0.98077 0.037 0.15529 0.0
C2435 C 0.95666 0.04515 0.13641 0.0
C2436 C 0.95664 0.01724 0.15088 0.0
C2437 C 0.9581 1.00234 0.1423 0.0
C2438 C 0.94941 0.98809 0.14716 0.0
C2439 C 0.93897 0.98906 0.16118 0.0
C2440 C 0.93735 1.00416 0.17026 0.0
C2441 C 0.94633 0.01841 0.16496 0.0
H2442 H 0.29926 0.7698 0.1384 0.0
H2443 H 0.2481 0.76593 0.15586 0.0
H2444 H 0.23891 0.78436 0.13304 0.0
H2445 H 0.29705 0.81361 0.12594 0.0
H2446 H 0.31008 0.81064 0.10784 0.0
H2447 H 0.31279 0.79756 0.1259 0.0
H2448 H 0.30866 0.77128 0.10747 0.0
H2449 H 0.30587 0.78428 0.08937 0.0
H2450 H 0.29003 0.76932 0.09499 0.0
H2451 H 0.23502 0.80231 0.10793 0.0
H2452 H 0.23675 0.8192 0.08228 0.0
H2453 H 0.29041 0.81173 0.08095 0.0
C2454 C 0.28617 0.77302 0.13755 0.0
C2455 C 0.27438 0.76633 0.14888 0.0
C2456 C 0.25732 0.77069 0.1472 0.0
C2457 C 0.25199 0.78123 0.13433 0.0
C2458 C 0.26386 0.78741 0.12326 0.0
C2459 C 0.2806 0.78355 0.12475 0.0
C2460 C 0.2907 0.79161 0.11091 0.0
C2461 C 0.30341 0.8041 0.11808 0.0
C2462 C 0.29932 0.77833 0.10004 0.0
C2463 C 0.27698 0.80045 0.10135 0.0
C2464 C 0.26161 0.79787 0.10873 0.0
C2465 C 0.24699 0.80445 0.10204 0.0
C2466 C 0.24809 0.81393 0.0874 0.0
C2467 C 0.2637 0.81674 0.07955 0.0
C2468 C 0.27832 0.80995 0.08673 0.0
H2469 H 0.02482 0.45955 0.11693 0.0
H2470 H 0.02507 0.50882 0.09453 0.0
H2471 H 0.04598 0.51816 0.11512 0.0
H2472 H 0.0281 0.473 0.15895 0.0
H2473 H 0.04171 0.45636 0.1655 0.0
H2474 H 0.02744 0.4531 0.14843 0.0
H2475 H 0.05202 0.44445 0.12929 0.0
H2476 H 0.06637 0.44757 0.14634 0.0
H2477 H 0.06958 0.45833 0.12686 0.0
H2478 H 0.06555 0.52268 0.13882 0.0
H2479 H 0.08318 0.52201 0.16398 0.0
H2480 H 0.07115 0.46959 0.17081 0.0
C2481 C 0.02949 0.47221 0.11621 0.0
C2482 C 0.02326 0.48349 0.10417 0.0
C2483 C 0.02951 0.50004 0.10378 0.0
C2484 C 0.04145 0.50543 0.11536 0.0
C2485 C 0.0471 0.49413 0.12724 0.0
C2486 C 0.04143 0.47784 0.12773 0.0
C2487 C 0.04924 0.46841 0.14216 0.0
C2488 C 0.03582 0.46237 0.15449 0.0
C2489 C 0.05994 0.45383 0.13577 0.0
C2490 C 0.05999 0.48203 0.14979 0.0
C2491 C 0.0586 0.49672 0.14092 0.0
C2492 C 0.06693 0.51119 0.14576 0.0
C2493 C 0.07701 0.51064 0.16003 0.0
C2494 C 0.07875 0.49571 0.16934 0.0
C2495 C 0.07007 0.48122 0.16406 0.0
H2496 H 0.37856 0.74006 0.26066 0.0
H2497 H 0.34626 0.71013 0.29226 0.0
H2498 H 0.36577 0.7138 0.3157 0.0
H2499 H 0.41729 0.725 0.27678 0.0
H2500 H 0.4278 0.74488 0.276 0.0
H2501 H 0.41114 0.74037 0.26157 0.0
H2502 H 0.3954 0.76687 0.2713 0.0
H2503 H 0.41207 0.77152 0.28569 0.0
H2504 H 0.39092 0.7697 0.29317 0.0
H2505 H 0.3889 0.71957 0.33535 0.0
H2506 H 0.41418 0.72793 0.35063 0.0
H2507 H 0.43145 0.75528 0.30712 0.0
C2508 C 0.37553 0.73444 0.27256 0.0
C2509 C 0.36096 0.72463 0.27454 0.0
C2510 C 0.3575 0.7174 0.29031 0.0
C2511 C 0.36845 0.7195 0.30376 0.0
C2512 C 0.3828 0.72897 0.30133 0.0
C2513 C 0.38637 0.73643 0.28621 0.0
C2514 C 0.40282 0.74584 0.28705 0.0
C2515 C 0.41551 0.73859 0.27461 0.0
C2516 C 0.40014 0.7646 0.28413 0.0
C2517 C 0.40793 0.74234 0.30496 0.0
C2518 C 0.39615 0.7326 0.31291 0.0
C2519 C 0.39814 0.72738 0.32934 0.0
C2520 C 0.41252 0.73232 0.33796 0.0
C2521 C 0.42477 0.74249 0.33022 0.0
C2522 C 0.42239 0.74749 0.31342 0.0
H2523 H 0.97852 0.37626 1.00256 0.0
H2524 H 0.958 0.41169 0.96714 0.0
H2525 H 0.96164 0.39123 0.94449 0.0
H2526 H 0.00987 0.35934 0.97502 0.0
H2527 H 0.00767 0.33827 0.98255 0.0
H2528 H 1.00324 0.3556 0.99619 0.0
H2529 H 0.97366 0.3437 1.00169 0.0
H2530 H 0.97799 0.32636 0.98802 0.0
H2531 H 0.96004 0.33937 0.98428 0.0
H2532 H 0.96772 0.36742 0.9256 0.0
H2533 H 0.97589 0.34136 0.91146 0.0
H2534 H 0.99282 0.32106 0.95872 0.0
C2535 C 0.97486 0.37972 0.99003 0.0
C2536 C 0.96783 0.39555 0.98667 0.0
C2537 C 0.96311 0.39955 0.9701 0.0
C2538 C 0.96522 0.38805 0.95711 0.0
C2539 C 0.97208 0.37256 0.96084 0.0
C2540 C 0.97684 0.36833 0.97686 0.0
C2541 C 0.98395 0.3508 0.97737 0.0
C2542 C 1.00227 0.35102 0.98312 0.0
C2543 C 0.97327 0.33938 0.9885 0.0
C2544 C 0.98249 0.34591 0.95913 0.0
C2545 C 0.97562 0.35869 0.94985 0.0
C2546 C 0.97315 0.35732 0.93271 0.0
C2547 C 0.97792 0.3425 0.92478 0.0
C2548 C 0.98509 0.32921 0.93395 0.0
C2549 C 0.98727 0.33095 0.9514 0.0
H2550 H 0.63915 0.79411 0.27929 0.0
H2551 H 0.66199 0.74512 0.28208 0.0
H2552 H 0.63993 0.73595 0.30151 0.0
H2553 H 0.62622 0.79641 0.32277 0.0
H2554 H 0.60684 0.8068 0.31808 0.0
H2555 H 0.62468 0.80971 0.3047 0.0
H2556 H 0.60722 0.79999 0.27924 0.0
H2557 H 0.58934 0.79705 0.29254 0.0
H2558 H 0.59685 0.78002 0.27989 0.0
H2559 H 0.61529 0.7319 0.32022 0.0
H2560 H 0.58947 0.73315 0.33692 0.0
H2561 H 0.58227 0.78466 0.32184 0.0
C2562 C 0.6396 0.78152 0.28414 0.0
C2563 C 0.65228 0.77031 0.27913 0.0
C2564 C 0.6523 0.75385 0.28558 0.0
C2565 C 0.63988 0.74856 0.2967 0.0
C2566 C 0.62751 0.75986 0.30128 0.0
C2567 C 0.62725 0.77599 0.29523 0.0
C2568 C 0.61228 0.78549 0.30185 0.0
C2569 C 0.61785 0.80049 0.31249 0.0
C2570 C 0.60074 0.79095 0.28752 0.0
C2571 C 0.60415 0.77214 0.31251 0.0
C2572 C 0.61318 0.75748 0.31203 0.0
C2573 C 0.60809 0.74331 0.32068 0.0
C2574 C 0.59334 0.74411 0.33004 0.0
C2575 C 0.58376 0.75896 0.33065 0.0
C2576 C 0.58937 0.77317 0.3218 0.0
H2577 H 0.02545 0.12177 0.99845 0.0
H2578 H 0.04151 0.08524 0.96178 0.0
H2579 H 0.03625 0.10546 0.93925 0.0
H2580 H 0.99223 0.14012 0.97309 0.0
H2581 H 0.99619 0.16103 0.98042 0.0
H2582 H 1.00059 0.14347 0.99372 0.0
H2583 H 0.03111 0.15368 0.99707 0.0
H2584 H 0.02683 0.17121 0.98371 0.0
H2585 H 0.04367 0.15717 0.97872 0.0
H2586 H 0.03036 0.12969 0.92081 0.0
H2587 H 0.0239 0.15651 0.90739 0.0
H2588 H 0.01098 0.17755 0.95569 0.0
C2589 C 0.02764 0.11798 0.98566 0.0
C2590 C 0.03397 0.10194 0.98188 0.0
C2591 C 0.03688 0.09752 0.96499 0.0
C2592 C 0.03384 0.10889 0.95209 0.0
C2593 C 0.02785 0.12465 0.95624 0.0
C2594 C 0.02472 0.12923 0.97258 0.0
C2595 C 0.01869 0.14715 0.97356 0.0
C2596 C 1.00086 0.14798 0.98062 0.0
C2597 C 0.0308 0.15794 0.98388 0.0
C2598 C 0.01909 0.15192 0.95525 0.0
C2599 C 0.02435 0.13871 0.9455 0.0
C2600 C 0.02605 0.14009 0.92827 0.0
C2601 C 0.02224 0.15538 0.92076 0.0
C2602 C 0.01674 0.16915 0.93042 0.0
C2603 C 0.01519 0.16732 0.94794 0.0
H2604 H 0.35905 0.28029 0.22434 0.0
H2605 H 0.37682 0.25302 0.26767 0.0
H2606 H 0.40285 0.24644 0.25276 0.0
H2607 H 0.37689 0.25379 0.19287 0.0
H2608 H 0.3826 0.27077 0.17929 0.0
H2609 H 0.36495 0.27284 0.19306 0.0
H2610 H 0.37791 0.2996 0.20585 0.0
H2611 H 0.39556 0.29766 0.19206 0.0
H2612 H 0.39876 0.29888 0.2143 0.0
H2613 H 0.42693 0.24271 0.23325 0.0
H2614 H 0.44797 0.24301 0.21088 0.0
H2615 H 0.41558 0.27446 0.18092 0.0
C2616 C 0.36843 0.27304 0.23079 0.0
C2617 C 0.3657 0.26706 0.24719 0.0
C2618 C 0.37834 0.25745 0.25501 0.0
C2619 C 0.39326 0.25373 0.24667 0.0
C2620 C 0.39549 0.25982 0.23056 0.0
C2621 C 0.38349 0.26936 0.22272 0.0
C2622 C 0.38924 0.27474 0.20552 0.0
C2623 C 0.37773 0.2676 0.19188 0.0
C2624 C 0.39044 0.29385 0.20437 0.0
C2625 C 0.40636 0.26673 0.20494 0.0
C2626 C 0.40965 0.25811 0.21948 0.0
C2627 C 0.42456 0.24956 0.22186 0.0
C2628 C 0.43651 0.24992 0.20909 0.0
C2629 C 0.4336 0.25894 0.19414 0.0
C2630 C 0.41821 0.26736 0.19209 0.0
H2631 H 0.51339 0.38451 0.01266 0.0
H2632 H 0.55975 0.40382 0.03325 0.0
H2633 H 0.56015 0.38108 0.05375 0.0
H2634 H 0.4952 0.37168 0.0509 0.0
H2635 H 0.48609 0.35275 0.04281 0.0
H2636 H 0.4895 0.37026 0.02917 0.0
H2637 H 0.50695 0.35163 0.00934 0.0
H2638 H 0.50353 0.33402 0.02288 0.0
H2639 H 0.52449 0.34019 0.01751 0.0
H2640 H 0.55483 0.35779 0.07325 0.0
H2641 H 0.54486 0.33368 0.08964 0.0
H2642 H 0.50292 0.32782 0.05589 0.0
C2643 C 0.52373 0.38381 0.02133 0.0
C2644 C 0.53638 0.39619 0.02149 0.0
C2645 C 0.54966 0.39481 0.03312 0.0
C2646 C 0.5501 0.38184 0.04476 0.0
C2647 C 0.53731 0.37011 0.04452 0.0
C2648 C 0.52446 0.37078 0.03302 0.0
C2649 C 0.51222 0.35655 0.03572 0.0
C2650 C 0.49472 0.36321 0.0399 0.0
C2651 C 0.51178 0.34491 0.02045 0.0
C2652 C 0.52009 0.348 0.05068 0.0
C2653 C 0.53454 0.35612 0.05553 0.0
C2654 C 0.54365 0.35118 0.06947 0.0
C2655 C 0.53788 0.33756 0.07873 0.0
C2656 C 0.52322 0.32893 0.07394 0.0
C2657 C 0.51428 0.33413 0.05965 0.0
H2658 H 0.64551 0.24807 0.23279 0.0
H2659 H 0.63481 0.19841 0.2514 0.0
H2660 H 0.60852 0.19793 0.23534 0.0
H2661 H 0.60219 0.2631 0.2323 0.0
H2662 H 0.60491 0.27463 0.21319 0.0
H2663 H 0.62237 0.2716 0.22704 0.0
H2664 H 0.63927 0.25852 0.20278 0.0
H2665 H 0.62184 0.2614 0.18889 0.0
H2666 H 0.63075 0.24094 0.19157 0.0
H2667 H 0.58423 0.20214 0.21656 0.0
H2668 H 0.56306 0.21082 0.19603 0.0
H2669 H 0.58921 0.25779 0.18908 0.0
C2670 C 0.63746 0.23725 0.23367 0.0
C2671 C 0.64213 0.22328 0.24334 0.0
C2672 C 0.63146 0.20919 0.24399 0.0
C2673 C 0.6165 0.20882 0.23496 0.0
C2674 C 0.61238 0.22263 0.22529 0.0
C2675 C 0.62249 0.23661 0.22457 0.0
C2676 C 0.6154 0.24943 0.2126 0.0
C2677 C 0.61095 0.26565 0.22184 0.0
C2678 C 0.62754 0.25276 0.1981 0.0
C2679 C 0.59985 0.24039 0.20662 0.0
C2680 C 0.59834 0.225 0.21422 0.0
C2681 C 0.58518 0.21422 0.21062 0.0
C2682 C 0.57318 0.2193 0.199 0.0
C2683 C 0.57438 0.23503 0.19102 0.0
C2684 C 0.58797 0.24567 0.1949 0.0
H2685 H 0.48054 0.12714 0.01141 0.0
H2686 H 0.46717 0.0886 0.04704 0.0
H2687 H 0.46997 0.10891 0.07002 0.0
H2688 H 0.51171 0.14699 0.03703 0.0
H2689 H 0.50655 0.16779 0.03027 0.0
H2690 H 0.50308 0.15033 0.01651 0.0
H2691 H 0.47201 0.15874 0.01354 0.0
H2692 H 0.47536 0.1762 0.02732 0.0
H2693 H 0.45936 0.16108 0.032 0.0
H2694 H 0.47461 0.13313 0.08919 0.0
H2695 H 0.48078 0.15978 0.10335 0.0
H2696 H 0.49177 0.1826 0.05547 0.0
C2697 C 0.47828 0.12294 0.02405 0.0
C2698 C 0.47354 0.10626 0.02738 0.0
C2699 C 0.47054 0.10135 0.04411 0.0
C2700 C 0.47219 0.11277 0.05728 0.0
C2701 C 0.47686 0.12909 0.05355 0.0
C2702 C 0.47987 0.13419 0.03737 0.0
C2703 C 0.48488 0.15244 0.03682 0.0
C2704 C 0.50261 0.1545 0.02974 0.0
C2705 C 0.47214 0.16272 0.02683 0.0
C2706 C 0.48427 0.15676 0.05524 0.0
C2707 C 0.47961 0.14309 0.06465 0.0
C2708 C 0.47831 0.14391 0.08196 0.0
C2709 C 0.48194 0.15909 0.08989 0.0
C2710 C 0.48685 0.17328 0.08055 0.0
C2711 C 0.48792 0.17204 0.06296 0.0
H2712 H 0.2791 0.37323 0.71676 0.0
H2713 H 0.28741 0.34605 0.76278 0.0
H2714 H 0.30851 0.36683 0.77134 0.0
H2715 H 0.32263 0.3869 0.71052 0.0
H2716 H 0.31663 0.40712 0.70278 0.0
H2717 H 0.30313 0.38939 0.69957 0.0
H2718 H 0.27884 0.40527 0.71381 0.0
H2719 H 0.29226 0.42301 0.7171 0.0
H2720 H 0.2817 0.41354 0.73456 0.0
H2721 H 0.32744 0.39108 0.77569 0.0
H2722 H 0.34306 0.4176 0.77571 0.0
H2723 H 0.32231 0.42972 0.72716 0.0
C2724 C 0.28562 0.37154 0.72848 0.0
C2725 C 0.28168 0.35804 0.73912 0.0
C2726 C 0.2902 0.35636 0.75451 0.0
C2727 C 0.30225 0.36805 0.75944 0.0
C2728 C 0.30565 0.38137 0.74884 0.0
C2729 C 0.29763 0.3832 0.73367 0.0
C2730 C 0.30301 0.39921 0.7251 0.0
C2731 C 0.31188 0.39542 0.70851 0.0
C2732 C 0.28806 0.41095 0.72249 0.0
C2733 C 0.3151 0.40615 0.73794 0.0
C2734 C 0.3165 0.39558 0.75146 0.0
C2735 C 0.3265 0.39945 0.76515 0.0
C2736 C 0.33523 0.41461 0.7651 0.0
C2737 C 0.33387 0.4258 0.75148 0.0
C2738 C 0.32377 0.42136 0.73766 0.0
H2739 H 0.28421 0.65154 0.77761 0.0
H2740 H 0.23678 0.62536 0.77565 0.0
H2741 H 0.2516 0.59873 0.7716 0.0
H2742 H 0.3048 0.62703 0.74615 0.0
H2743 H 0.32478 0.62711 0.7565 0.0
H2744 H 0.31054 0.64422 0.75953 0.0
H2745 H 0.31172 0.63977 0.79153 0.0
H2746 H 0.32602 0.62269 0.78861 0.0
H2747 H 0.3069 0.61951 0.80003 0.0
H2748 H 0.27132 0.57497 0.76778 0.0
H2749 H 0.29486 0.55547 0.76426 0.0
H2750 H 0.32974 0.59674 0.76861 0.0
C2751 C 0.27698 0.64018 0.77645 0.0
C2752 C 0.25932 0.64055 0.77686 0.0
C2753 C 0.25029 0.62542 0.77514 0.0
C2754 C 0.2586 0.61021 0.77292 0.0
C2755 C 0.27596 0.61029 0.77241 0.0
C2756 C 0.28509 0.62484 0.77412 0.0
C2757 C 0.30367 0.62139 0.77291 0.0
C2758 C 0.3114 0.63048 0.75787 0.0
C2759 C 0.3126 0.62612 0.78924 0.0
C2760 C 0.30353 0.60265 0.77027 0.0
C2761 C 0.2874 0.59652 0.77007 0.0
C2762 C 0.28401 0.5796 0.76795 0.0
C2763 C 0.29747 0.56861 0.76604 0.0
C2764 C 0.31414 0.57455 0.76623 0.0
C2765 C 0.31714 0.59184 0.76828 0.0
H2766 H 0.89472 0.48499 0.49433 0.0
H2767 H 0.89757 0.48626 0.44022 0.0
H2768 H 0.87238 0.46868 0.43843 0.0
H2769 H 0.88111 0.44268 0.49785 0.0
H2770 H 0.86707 0.44652 0.51501 0.0
H2771 H 0.88518 0.45955 0.51221 0.0
H2772 H 0.86635 0.4858 0.51159 0.0
H2773 H 0.84819 0.47284 0.51448 0.0
H2774 H 0.84932 0.48682 0.49691 0.0
H2775 H 0.84755 0.45037 0.44232 0.0
H2776 H 0.82412 0.43281 0.45164 0.0
H2777 H 0.8364 0.44406 0.50328 0.0
C2778 C 0.88993 0.48172 0.48211 0.0
C2779 C 0.89823 0.48691 0.46741 0.0
C2780 C 0.89163 0.4822 0.45166 0.0
C2781 C 0.87726 0.4723 0.4505 0.0
C2782 C 0.86953 0.46723 0.4652 0.0
C2783 C 0.87554 0.47181 0.48071 0.0
C2784 C 0.86489 0.46445 0.49453 0.0
C2785 C 0.87518 0.4526 0.50555 0.0
C2786 C 0.8567 0.47831 0.50499 0.0
C2787 C 0.85203 0.45497 0.48433 0.0
C2788 C 0.85496 0.45678 0.46745 0.0
C2789 C 0.84501 0.44899 0.45551 0.0
C2790 C 0.83164 0.43912 0.46095 0.0
C2791 C 0.82823 0.43713 0.47821 0.0
C2792 C 0.83866 0.44521 0.49001 0.0
H2793 H 0.73386 0.86712 0.75697 0.0
H2794 H 0.73148 0.86147 0.81079 0.0
H2795 H 0.71392 0.8866 0.81276 0.0
H2796 H 0.7353 0.91285 0.75674 0.0
H2797 H 0.72234 0.91462 0.73843 0.0
H2798 H 0.73542 0.89656 0.74119 0.0
H2799 H 0.70957 0.87735 0.73803 0.0
H2800 H 0.69642 0.89534 0.73532 0.0
H2801 H 0.69181 0.88043 0.7515 0.0
H2802 H 0.69593 0.91147 0.80907 0.0
H2803 H 0.67869 0.93517 0.7999 0.0
H2804 H 0.69221 0.92504 0.74838 0.0
C2805 C 0.7298 0.87134 0.76916 0.0
C2806 C 0.73394 0.86229 0.78373 0.0
C2807 C 0.72826 0.86808 0.79945 0.0
C2808 C 0.71836 0.88239 0.80072 0.0
C2809 C 0.71425 0.89084 0.78614 0.0
C2810 C 0.7198 0.88563 0.77066 0.0
C2811 C 0.71308 0.89682 0.75695 0.0
C2812 C 0.72739 0.90574 0.74779 0.0
C2813 C 0.70207 0.88689 0.74473 0.0
C2814 C 0.70281 0.909 0.76718 0.0
C2815 C 0.70373 0.90531 0.78399 0.0
C2816 C 0.69511 0.91451 0.79594 0.0
C2817 C 0.68523 0.92787 0.79059 0.0
C2818 C 0.68399 0.93191 0.77342 0.0
C2819 C 0.69301 0.92235 0.7616 0.0
H2820 H 0.62031 0.52931 0.96687 0.0
H2821 H 0.61206 0.51059 0.01707 0.0
H2822 H 0.63488 0.52837 0.02745 0.0
H2823 H 0.66468 0.53224 0.96909 0.0
H2824 H 0.66601 0.55144 0.95748 0.0
H2825 H 0.64895 0.53725 0.9538 0.0
H2826 H 0.62777 0.56085 0.96 0.0
H2827 H 0.64476 0.57515 0.96361 0.0
H2828 H 0.6291 0.57209 0.97946 0.0
H2829 H 0.65909 0.54731 0.03236 0.0
H2830 H 0.68247 0.56722 0.03174 0.0
H2831 H 0.67397 0.57533 0.97879 0.0
C2832 C 0.62315 0.52907 0.98007 0.0
C2833 C 0.61445 0.51834 0.99109 0.0
C2834 C 0.61875 0.51836 0.00827 0.0
C2835 C 0.63163 0.52852 0.01434 0.0
C2836 C 0.64004 0.53877 1.00314 0.0
C2837 C 0.63592 0.53925 0.9864 0.0
C2838 C 0.64695 0.5515 0.97708 0.0
C2839 C 0.65726 0.54257 0.96357 0.0
C2840 C 0.63652 0.56574 0.9696 0.0
C2841 C 0.65796 0.55769 0.99119 0.0
C2842 C 0.65376 0.55014 0.00609 0.0
C2843 C 0.66237 0.55348 0.02081 0.0
C2844 C 0.67558 0.56494 0.02034 0.0
C2845 C 0.68003 0.57309 0.00527 0.0
C2846 C 0.67103 0.56931 0.99051 0.0
H2847 H 0.23681 0.63307 0.21241 0.0
H2848 H 0.23926 0.65289 0.2628 0.0
H2849 H 0.21972 0.63107 0.27231 0.0
H2850 H 0.19271 0.62172 0.2133 0.0
H2851 H 0.19572 0.60288 0.20135 0.0
H2852 H 0.20945 0.62044 0.19831 0.0
H2853 H 0.235 0.60167 0.20457 0.0
H2854 H 0.22136 0.58407 0.20765 0.0
H2855 H 0.23574 0.59015 0.22387 0.0
H2856 H 0.20051 0.6069 0.27655 0.0
H2857 H 0.18291 0.58167 0.27532 0.0
H2858 H 0.19313 0.57709 0.22228 0.0
C2859 C 0.23306 0.63292 0.22539 0.0
C2860 C 0.23959 0.64465 0.23688 0.0
C2861 C 0.23457 0.64391 0.25382 0.0
C2862 C 0.22341 0.63163 0.25933 0.0
C2863 C 0.21735 0.62016 0.24774 0.0
C2864 C 0.22197 0.62068 0.23113 0.0
C2865 C 0.21397 0.60653 0.22139 0.0
C2866 C 0.20227 0.6133 0.20778 0.0
C2867 C 0.22732 0.59492 0.21394 0.0
C2868 C 0.20424 0.59794 0.23515 0.0
C2869 C 0.20632 0.60607 0.25023 0.0
C2870 C 0.19879 0.6004 0.26482 0.0
C2871 C 0.18891 0.58599 0.26401 0.0
C2872 C 0.18669 0.57732 0.24873 0.0
C2873 C 0.19442 0.58351 0.23412 0.0
H2874 H 0.8772 0.51249 0.03114 0.0
H2875 H 0.91969 0.54335 0.01788 0.0
H2876 H 0.90065 0.56639 0.01046 0.0
H2877 H 0.84895 0.5275 0.99875 0.0
H2878 H 0.83089 0.52708 0.01215 0.0
H2879 H 0.84778 0.51267 0.0156 0.0
H2880 H 0.85047 0.52304 0.04614 0.0
H2881 H 0.8336 0.53746 0.04279 0.0
H2882 H 0.8535 0.54497 0.05016 0.0
H2883 H 0.87724 0.58615 0.00498 0.0
H2884 H 0.85094 0.60186 1.00265 0.0
H2885 H 0.82351 0.55864 0.02049 0.0
C2886 C 0.88244 0.52404 0.02648 0.0
C2887 C 0.89989 0.52617 0.02504 0.0
C2888 C 0.90635 0.54153 0.01916 0.0
C2889 C 0.89564 0.55464 0.01484 0.0
C2890 C 0.87851 0.55221 0.01653 0.0
C2891 C 0.87192 0.53733 0.02225 0.0
C2892 C 0.85306 0.53829 0.0236 0.0
C2893 C 0.84468 0.52563 0.01182 0.0
C2894 C 0.84733 0.5358 0.04175 0.0
C2895 C 0.85012 0.55604 0.01783 0.0
C2896 C 0.86497 0.56378 0.0137 0.0
C2897 C 0.86553 0.58024 0.00822 0.0
C2898 C 0.85051 0.5891 0.00706 0.0
C2899 C 0.83512 0.58156 0.01149 0.0
C2900 C 0.835 0.56473 0.01682 0.0
H2901 H 0.11961 0.97011 0.03404 0.0
H2902 H 0.14481 0.01809 0.03407 0.0
H2903 H 0.17185 1.00393 0.03007 0.0
H2904 H 0.15209 0.94729 0.05627 0.0
H2905 H 0.14927 0.92855 0.04413 0.0
H2906 H 0.13192 0.94242 0.04754 0.0
H2907 H 0.12746 0.94465 0.01558 0.0
H2908 H 0.14484 0.93086 0.01207 0.0
H2909 H 0.14455 0.95118 1.00248 0.0
H2910 H 0.19601 0.98477 0.02533 0.0
H2911 H 0.21579 0.96181 0.02013 0.0
H2912 H 0.17514 0.92608 0.0236 0.0
C2913 C 0.13085 0.97761 0.03343 0.0
C2914 C 0.13009 0.99523 0.03433 0.0
C2915 C 0.14506 0.00461 0.03321 0.0
C2916 C 0.16049 0.99668 0.03103 0.0
C2917 C 0.16078 0.97934 0.03 0.0
C2918 C 0.14638 0.96989 0.03119 0.0
C2919 C 0.15017 0.95145 0.02928 0.0
C2920 C 0.14559 0.94187 0.04526 0.0
C2921 C 0.14122 0.94411 0.01394 0.0
C2922 C 0.16891 0.95204 0.02672 0.0
C2923 C 0.17477 0.96825 0.02725 0.0
C2924 C 0.1916 0.97201 0.02501 0.0
C2925 C 0.20276 0.95886 0.02216 0.0
C2926 C 0.19708 0.9421 0.02155 0.0
C2927 C 0.17988 0.93874 0.02388 0.0
loop_
_geom_bond_atom_site_label_1
_geom_bond_atom_site_label_2
_geom_bond_distance
_geom_bond_site_symmetry_2
_ccdc_geom_bond_type
C0 C1 1.384 . S
C0 H13 0.947 . S
C0 C35 1.382 . S
C1 C0 1.384 . S
C1 C2 1.378 1_655 S
C2 C1 1.378 1_455 S
C2 C3 1.378 . S
C2 H14 0.952 . S
C3 C2 1.378 . S
C3 H15 0.950 . S
C3 C34 1.383 . S
H4 C23 0.947 . S
H5 C24 0.946 . S
H6 C26 0.953 . S
H7 C27 0.945 . S
H8 C29 0.952 . S
H9 C30 0.949 . S
H10 C32 0.950 . S
H11 C33 0.948 . S
H12 C35 0.951 . S
H13 C0 0.947 . S
H14 C2 0.952 . S
H15 C3 0.950 . S
N16 C19 1.382 . S
N16 C21 1.363 . S
N17 C19 1.371 . S
N17 C20 1.372 . S
N18 C20 1.361 . S
N18 C21 1.377 . S
C19 N16 1.382 . S
C19 N17 1.371 . S
C19 C22 1.480 . S
C20 N17 1.372 . S
C20 N18 1.361 . S
C20 C28 1.457 . S
C21 N16 1.363 . S
C21 N18 1.377 . S
C21 C34 1.479 . S
C22 C19 1.480 . S
C22 C23 1.383 1_545 S
C22 C27 1.385 . S
C23 H4 0.947 . S
C23 C22 1.383 1_565 S
C23 C24 1.388 . S
C24 H5 0.946 . S
C24 C23 1.388 . S
C24 C25 1.384 . S
C25 C24 1.384 . S
C25 C26 1.377 1_565 S
C26 H6 0.953 . S
C26 C25 1.377 1_545 S
C26 C27 1.369 . S
C27 H7 0.945 . S
C27 C22 1.385 . S
C27 C26 1.369 . S
C28 C20 1.457 . S
C28 C29 1.372 1_554 S
C28 C33 1.364 . S
C29 H8 0.952 . S
C29 C28 1.372 1_556 S
C29 C30 1.389 . S
C30 H9 0.949 . S
C30 C29 1.389 . S
C30 C31 1.387 . S
C31 C30 1.387 . S
C31 C32 1.372 1_556 S
C32 H10 0.950 . S
C32 C31 1.372 1_554 S
C32 C33 1.379 . S
C33 H11 0.948 . S
C33 C28 1.364 . S
C33 C32 1.379 . S
C34 C3 1.383 . S
C34 C21 1.479 . S
C34 C35 1.398 1_455 S
C35 C0 1.382 . S
C35 H12 0.951 . S
C35 C34 1.398 1_655 S
C36 C37 1.384 . S
C36 H49 0.947 . S
C36 C71 1.382 . S
C37 C36 1.384 . S
C37 C38 1.378 . S
C38 C37 1.378 . S
C38 C39 1.378 . S
C38 H50 0.952 . S
C39 C38 1.378 . S
C39 H51 0.950 . S
C39 C70 1.383 . S
H40 C59 0.947 . S
H41 C60 0.946 . S
H42 C62 0.953 . S
H43 C63 0.945 . S
H44 C65 0.952 . S
H45 C66 0.949 . S
H46 C68 0.950 . S
H47 C69 0.948 . S
H48 C71 0.951 . S
H49 C36 0.947 . S
H50 C38 0.952 . S
H51 C39 0.950 . S
N52 C55 1.382 . S
N52 C57 1.363 . S
N53 C55 1.371 . S
N53 C56 1.372 . S
N54 C56 1.361 . S
N54 C57 1.377 . S
C55 N52 1.382 . S
C55 N53 1.371 . S
C55 C58 1.480 . S
C56 N53 1.372 . S
C56 N54 1.361 . S
C56 C64 1.457 . S
C57 N52 1.363 . S
C57 N54 1.377 . S
C57 C70 1.479 . S
C58 C55 1.480 . S
C58 C59 1.383 . S
C58 C63 1.385 . S
C59 H40 0.947 . S
C59 C58 1.383 . S
C59 C60 1.388 . S
C60 H41 0.946 . S
C60 C59 1.388 . S
C60 C61 1.384 . S
C61 C60 1.384 . S
C61 C62 1.377 . S
C62 H42 0.953 . S
C62 C61 1.377 . S
C62 C63 1.369 . S
C63 H43 0.945 . S
C63 C58 1.385 . S
C63 C62 1.369 . S
C64 C56 1.457 . S
C64 C65 1.372 . S
C64 C69 1.364 . S
C65 H44 0.952 . S
C65 C64 1.372 . S
C65 C66 1.389 . S
C66 H45 0.949 . S
C66 C65 1.389 . S
C66 C67 1.387 . S
C67 C66 1.387 . S
C67 C68 1.372 . S
C68 H46 0.950 . S
C68 C67 1.372 . S
C68 C69 1.379 . S
C69 H47 0.948 . S
C69 C64 1.364 . S
C69 C68 1.379 . S
C70 C39 1.383 . S
C70 C57 1.479 . S
C70 C71 1.398 . S
C71 C36 1.382 . S
C71 H48 0.951 . S
C71 C70 1.398 . S
C72 C73 1.384 1_554 S
C72 H85 0.947 . S
C72 C107 1.382 . S
C73 C72 1.384 1_556 S
C73 C74 1.378 . S
C74 C73 1.378 . S
C74 C75 1.378 . S
C74 H86 0.952 . S
C75 C74 1.378 . S
C75 H87 0.950 . S
C75 C106 1.383 1_556 S
H76 C95 0.947 . S
H77 C96 0.946 . S
H78 C98 0.953 . S
H79 C99 0.945 . S
H80 C101 0.952 . S
H81 C102 0.949 . S
H82 C104 0.950 . S
H83 C105 0.948 . S
H84 C107 0.951 . S
H85 C72 0.947 . S
H86 C74 0.952 . S
H87 C75 0.950 . S
N88 C91 1.382 . S
N88 C93 1.363 . S
N89 C91 1.371 . S
N89 C92 1.372 . S
N90 C92 1.361 . S
N90 C93 1.377 . S
C91 N88 1.382 . S
C91 N89 1.371 . S
C91 C94 1.480 . S
C92 N89 1.372 . S
C92 N90 1.361 . S
C92 C100 1.457 . S
C93 N88 1.363 . S
C93 N90 1.377 . S
C93 C106 1.479 . S
C94 C91 1.480 . S
C94 C95 1.383 . S
C94 C99 1.385 . S
C95 H76 0.947 . S
C95 C94 1.383 . S
C95 C96 1.388 . S
C96 H77 0.946 . S
C96 C95 1.388 . S
C96 C97 1.384 . S
C97 C96 1.384 . S
C97 C98 1.377 . S
C98 H78 0.953 . S
C98 C97 1.377 . S
C98 C99 1.369 . S
C99 H79 0.945 . S
C99 C94 1.385 . S
C99 C98 1.369 . S
C100 C92 1.457 . S
C100 C101 1.372 . S
C100 C105 1.364 1_655 S
C101 H80 0.952 . S
C101 C100 1.372 . S
C101 C102 1.389 . S
C102 H81 0.949 . S
C102 C101 1.389 . S
C102 C103 1.387 1_655 S
C103 C102 1.387 1_455 S
C103 C104 1.372 . S
C104 H82 0.950 . S
C104 C103 1.372 . S
C104 C105 1.379 . S
C105 H83 0.948 . S
C105 C100 1.364 1_455 S
C105 C104 1.379 . S
C106 C75 1.383 1_554 S
C106 C93 1.479 . S
C106 C107 1.398 . S
C107 C72 1.382 . S
C107 H84 0.951 . S
C107 C106 1.398 . S
C108 C109 1.384 . S
C108 H121 0.947 . S
C108 C143 1.382 . S
C109 C108 1.384 . S
C109 C110 1.378 . S
C110 C109 1.378 . S
C110 C111 1.378 . S
C110 H122 0.952 . S
C111 C110 1.378 . S
C111 H123 0.950 . S
C111 C142 1.383 . S
H112 C131 0.947 . S
H113 C132 0.946 . S
H114 C134 0.953 . S
H115 C135 0.945 . S
H116 C137 0.952 . S
H117 C138 0.949 . S
H118 C140 0.950 . S
H119 C141 0.948 . S
H120 C143 0.951 . S
H121 C108 0.947 . S
H122 C110 0.952 . S
H123 C111 0.950 . S
N124 C127 1.382 . S
N124 C129 1.363 . S
N125 C127 1.371 . S
N125 C128 1.372 . S
N126 C128 1.361 . S
N126 C129 1.377 . S
C127 N124 1.382 . S
C127 N125 1.371 . S
C127 C130 1.480 . S
C128 N125 1.372 . S
C128 N126 1.361 . S
C128 C136 1.457 . S
C129 N124 1.363 . S
C129 N126 1.377 . S
C129 C142 1.479 . S
C130 C127 1.480 . S
C130 C131 1.383 . S
C130 C135 1.385 . S
C131 H112 0.947 . S
C131 C130 1.383 . S
C131 C132 1.388 . S
C132 H113 0.946 . S
C132 C131 1.388 . S
C132 C133 1.384 . S
C133 C132 1.384 . S
C133 C134 1.377 . S
C134 H114 0.953 . S
C134 C133 1.377 . S
C134 C135 1.369 . S
C135 H115 0.945 . S
C135 C130 1.385 . S
C135 C134 1.369 . S
C136 C128 1.457 . S
C136 C137 1.372 . S
C136 C141 1.364 . S
C137 H116 0.952 . S
C137 C136 1.372 . S
C137 C138 1.389 . S
C138 H117 0.949 . S
C138 C137 1.389 . S
C138 C139 1.387 . S
C139 C138 1.387 . S
C139 C140 1.372 . S
C140 H118 0.950 . S
C140 C139 1.372 . S
C140 C141 1.379 . S
C141 H119 0.948 . S
C141 C136 1.364 . S
C141 C140 1.379 . S
C142 C111 1.383 . S
C142 C129 1.479 . S
C142 C143 1.398 . S
C143 C108 1.382 . S
C143 H120 0.951 . S
C143 C142 1.398 . S
C144 C145 1.384 . S
C144 H157 0.947 . S
C144 C179 1.382 . S
C145 C144 1.384 . S
C145 C146 1.378 . S
C146 C145 1.378 . S
C146 C147 1.378 . S
C146 H158 0.952 . S
C147 C146 1.378 . S
C147 H159 0.950 . S
C147 C178 1.383 . S
H148 C167 0.947 . S
H149 C168 0.946 . S
H150 C170 0.953 . S
H151 C171 0.945 . S
H152 C173 0.952 . S
H153 C174 0.949 . S
H154 C176 0.950 . S
H155 C177 0.948 . S
H156 C179 0.951 . S
H157 C144 0.947 . S
H158 C146 0.952 . S
H159 C147 0.950 . S
N160 C163 1.382 . S
N160 C165 1.363 . S
N161 C163 1.371 . S
N161 C164 1.372 . S
N162 C164 1.361 . S
N162 C165 1.377 . S
C163 N160 1.382 . S
C163 N161 1.371 . S
C163 C166 1.480 . S
C164 N161 1.372 . S
C164 N162 1.361 . S
C164 C172 1.457 . S
C165 N160 1.363 . S
C165 N162 1.377 . S
C165 C178 1.479 . S
C166 C163 1.480 . S
C166 C167 1.383 1_455 S
C166 C171 1.385 . S
C167 H148 0.947 . S
C167 C166 1.383 1_655 S
C167 C168 1.388 . S
C168 H149 0.946 . S
C168 C167 1.388 . S
C168 C169 1.384 . S
C169 C168 1.384 . S
C169 C170 1.377 1_655 S
C170 H150 0.953 . S
C170 C169 1.377 1_455 S
C170 C171 1.369 . S
C171 H151 0.945 . S
C171 C166 1.385 . S
C171 C170 1.369 . S
C172 C164 1.457 . S
C172 C173 1.372 1_565 S
C172 C177 1.364 . S
C173 H152 0.952 . S
C173 C172 1.372 1_545 S
C173 C174 1.389 . S
C174 H153 0.949 . S
C174 C173 1.389 . S
C174 C175 1.387 . S
C175 C174 1.387 . S
C175 C176 1.372 1_545 S
C176 H154 0.950 . S
C176 C175 1.372 1_565 S
C176 C177 1.379 . S
C177 H155 0.948 . S
C177 C172 1.364 . S
C177 C176 1.379 . S
C178 C147 1.383 . S
C178 C165 1.479 . S
C178 C179 1.398 . S
C179 C144 1.382 . S
C179 H156 0.951 . S
C179 C178 1.398 . S
C180 C181 1.384 . S
C180 H193 0.947 . S
C180 C215 1.382 . S
C181 C180 1.384 . S
C181 C182 1.378 . S
C182 C181 1.378 . S
C182 C183 1.378 . S
C182 H194 0.952 . S
C183 C182 1.378 . S
C183 H195 0.950 . S
C183 C214 1.383 . S
H184 C203 0.947 . S
H185 C204 0.946 . S
H186 C206 0.953 . S
H187 C207 0.945 . S
H188 C209 0.952 . S
H189 C210 0.949 . S
H190 C212 0.950 . S
H191 C213 0.948 . S
H192 C215 0.951 . S
H193 C180 0.947 . S
H194 C182 0.952 . S
H195 C183 0.950 . S
N196 C199 1.382 . S
N196 C201 1.363 . S
N197 C199 1.371 . S
N197 C200 1.372 . S
N198 C200 1.361 . S
N198 C201 1.377 . S
C199 N196 1.382 . S
C199 N197 1.371 . S
C199 C202 1.480 . S
C200 N197 1.372 . S
C200 N198 1.361 . S
C200 C208 1.457 . S
C201 N196 1.363 . S
C201 N198 1.377 . S
C201 C214 1.479 . S
C202 C199 1.480 . S
C202 C203 1.383 . S
C202 C207 1.385 . S
C203 H184 0.947 . S
C203 C202 1.383 . S
C203 C204 1.388 . S
C204 H185 0.946 . S
C204 C203 1.388 . S
C204 C205 1.384 . S
C205 C204 1.384 . S
C205 C206 1.377 . S
C206 H186 0.953 . S
C206 C205 1.377 . S
C206 C207 1.369 . S
C207 H187 0.945 . S
C207 C202 1.385 . S
C207 C206 1.369 . S
C208 C200 1.457 . S
C208 C209 1.372 . S
C208 C213 1.364 . S
C209 H188 0.952 . S
C209 C208 1.372 . S
C209 C210 1.389 . S
C210 H189 0.949 . S
C210 C209 1.389 . S
C210 C211 1.387 . S
C211 C210 1.387 . S
C211 C212 1.372 . S
C212 H190 0.950 . S
C212 C211 1.372 . S
C212 C213 1.379 . S
C213 H191 0.948 . S
C213 C208 1.364 . S
C213 C212 1.379 . S
C214 C183 1.383 . S
C214 C201 1.479 . S
C214 C215 1.398 . S
C215 C180 1.382 . S
C215 H192 0.951 . S
C215 C214 1.398 . S
C216 C217 1.384 . S
C216 H229 0.947 . S
C216 C251 1.382 . S
C217 C216 1.384 . S
C217 C218 1.378 . S
C218 C217 1.378 . S
C218 C219 1.378 . S
C218 H230 0.952 . S
C219 C218 1.378 . S
C219 H231 0.950 . S
C219 C250 1.383 . S
H220 C239 0.947 . S
H221 C240 0.946 . S
H222 C242 0.953 . S
H223 C243 0.945 . S
H224 C245 0.952 . S
H225 C246 0.949 . S
H226 C248 0.950 . S
H227 C249 0.948 . S
H228 C251 0.951 . S
H229 C216 0.947 . S
H230 C218 0.952 . S
H231 C219 0.950 . S
N232 C235 1.382 . S
N232 C237 1.363 . S
N233 C235 1.371 . S
N233 C236 1.372 . S
N234 C236 1.361 . S
N234 C237 1.377 . S
C235 N232 1.382 . S
C235 N233 1.371 . S
C235 C238 1.480 . S
C236 N233 1.372 . S
C236 N234 1.361 . S
C236 C244 1.457 . S
C237 N232 1.363 . S
C237 N234 1.377 . S
C237 C250 1.479 . S
C238 C235 1.480 . S
C238 C239 1.383 . S
C238 C243 1.385 . S
C239 H220 0.947 . S
C239 C238 1.383 . S
C239 C240 1.388 . S
C240 H221 0.946 . S
C240 C239 1.388 . S
C240 C241 1.384 . S
C241 C240 1.384 . S
C241 C242 1.377 . S
C242 H222 0.953 . S
C242 C241 1.377 . S
C242 C243 1.369 . S
C243 H223 0.945 . S
C243 C238 1.385 . S
C243 C242 1.369 . S
C244 C236 1.457 . S
C244 C245 1.372 . S
C244 C249 1.364 1_655 S
C245 H224 0.952 . S
C245 C244 1.372 . S
C245 C246 1.389 . S
C246 H225 0.949 . S
C246 C245 1.389 . S
C246 C247 1.387 1_655 S
C247 C246 1.387 1_455 S
C247 C248 1.372 . S
C248 H226 0.950 . S
C248 C247 1.372 . S
C248 C249 1.379 . S
C249 H227 0.948 . S
C249 C244 1.364 1_455 S
C249 C248 1.379 . S
C250 C219 1.383 . S
C250 C237 1.479 . S
C250 C251 1.398 . S
C251 C216 1.382 . S
C251 H228 0.951 . S
C251 C250 1.398 . S
C252 C253 1.384 . S
C252 H265 0.947 . S
C252 C287 1.382 . S
C253 C252 1.384 . S
C253 C254 1.378 . S
C254 C253 1.378 . S
C254 C255 1.378 . S
C254 H266 0.952 . S
C255 C254 1.378 . S
C255 H267 0.950 . S
C255 C286 1.383 . S
H256 C275 0.947 . S
H257 C276 0.946 . S
H258 C278 0.953 . S
H259 C279 0.945 . S
H260 C281 0.952 . S
H261 C282 0.949 . S
H262 C284 0.950 . S
H263 C285 0.948 . S
H264 C287 0.951 . S
H265 C252 0.947 . S
H266 C254 0.952 . S
H267 C255 0.950 . S
N268 C271 1.382 . S
N268 C273 1.363 . S
N269 C271 1.371 . S
N269 C272 1.372 . S
N270 C272 1.361 . S
N270 C273 1.377 . S
C271 N268 1.382 . S
C271 N269 1.371 . S
C271 C274 1.480 . S
C272 N269 1.372 . S
C272 N270 1.361 . S
C272 C280 1.457 . S
C273 N268 1.363 . S
C273 N270 1.377 . S
C273 C286 1.479 . S
C274 C271 1.480 . S
C274 C275 1.383 . S
C274 C279 1.385 . S
C275 H256 0.947 . S
C275 C274 1.383 . S
C275 C276 1.388 . S
C276 H257 0.946 . S
C276 C275 1.388 . S
C276 C277 1.384 . S
C277 C276 1.384 . S
C277 C278 1.377 . S
C278 H258 0.953 . S
C278 C277 1.377 . S
C278 C279 1.369 . S
C279 H259 0.945 . S
C279 C274 1.385 . S
C279 C278 1.369 . S
C280 C272 1.457 . S
C280 C281 1.372 . S
C280 C285 1.364 . S
C281 H260 0.952 . S
C281 C280 1.372 . S
C281 C282 1.389 . S
C282 H261 0.949 . S
C282 C281 1.389 . S
C282 C283 1.387 . S
C283 C282 1.387 . S
C283 C284 1.372 . S
C284 H262 0.950 . S
C284 C283 1.372 . S
C284 C285 1.379 . S
C285 H263 0.948 . S
C285 C280 1.364 . S
C285 C284 1.379 . S
C286 C255 1.383 . S
C286 C273 1.479 . S
C286 C287 1.398 . S
C287 C252 1.382 . S
C287 H264 0.951 . S
C287 C286 1.398 . S
C288 C289 1.384 . S
C288 H301 0.947 . S
C288 C323 1.382 . S
C289 C288 1.384 . S
C289 C290 1.378 . S
C290 C289 1.378 . S
C290 C291 1.378 . S
C290 H302 0.952 . S
C291 C290 1.378 . S
C291 H303 0.950 . S
C291 C322 1.383 . S
H292 C311 0.947 . S
H293 C312 0.946 . S
H294 C314 0.953 . S
H295 C315 0.945 . S
H296 C317 0.952 . S
H297 C318 0.949 . S
H298 C320 0.950 . S
H299 C321 0.948 . S
H300 C323 0.951 . S
H301 C288 0.947 . S
H302 C290 0.952 . S
H303 C291 0.950 . S
N304 C307 1.382 . S
N304 C309 1.363 . S
N305 C307 1.371 . S
N305 C308 1.372 . S
N306 C308 1.361 . S
N306 C309 1.377 . S
C307 N304 1.382 . S
C307 N305 1.371 . S
C307 C310 1.480 . S
C308 N305 1.372 . S
C308 N306 1.361 . S
C308 C316 1.457 . S
C309 N304 1.363 . S
C309 N306 1.377 . S
C309 C322 1.479 . S
C310 C307 1.480 . S
C310 C311 1.383 . S
C310 C315 1.385 . S
C311 H292 0.947 . S
C311 C310 1.383 . S
C311 C312 1.388 . S
C312 H293 0.946 . S
C312 C311 1.388 . S
C312 C313 1.384 . S
C313 C312 1.384 . S
C313 C314 1.377 . S
C314 H294 0.953 . S
C314 C313 1.377 . S
C314 C315 1.369 . S
C315 H295 0.945 . S
C315 C310 1.385 . S
C315 C314 1.369 . S
C316 C308 1.457 . S
C316 C317 1.372 . S
C316 C321 1.364 . S
C317 H296 0.952 . S
C317 C316 1.372 . S
C317 C318 1.389 . S
C318 H297 0.949 . S
C318 C317 1.389 . S
C318 C319 1.387 . S
C319 C318 1.387 . S
C319 C320 1.372 . S
C320 H298 0.950 . S
C320 C319 1.372 . S
C320 C321 1.379 . S
C321 H299 0.948 . S
C321 C316 1.364 . S
C321 C320 1.379 . S
C322 C291 1.383 . S
C322 C309 1.479 . S
C322 C323 1.398 . S
C323 C288 1.382 . S
C323 H300 0.951 . S
C323 C322 1.398 . S
C324 C325 1.384 . S
C324 H337 0.947 . S
C324 C359 1.382 . S
C325 C324 1.384 . S
C325 C326 1.378 . S
C326 C325 1.378 . S
C326 C327 1.378 . S
C326 H338 0.952 . S
C327 C326 1.378 . S
C327 H339 0.950 . S
C327 C358 1.383 . S
H328 C347 0.947 . S
H329 C348 0.946 . S
H330 C350 0.953 . S
H331 C351 0.945 . S
H332 C353 0.952 . S
H333 C354 0.949 . S
H334 C356 0.950 . S
H335 C357 0.948 . S
H336 C359 0.951 . S
H337 C324 0.947 . S
H338 C326 0.952 . S
H339 C327 0.950 . S
N340 C343 1.382 . S
N340 C345 1.363 . S
N341 C343 1.371 . S
N341 C344 1.372 . S
N342 C344 1.361 . S
N342 C345 1.377 . S
C343 N340 1.382 . S
C343 N341 1.371 . S
C343 C346 1.480 . S
C344 N341 1.372 . S
C344 N342 1.361 . S
C344 C352 1.457 . S
C345 N340 1.363 . S
C345 N342 1.377 . S
C345 C358 1.479 . S
C346 C343 1.480 . S
C346 C347 1.383 . S
C346 C351 1.385 1_565 S
C347 H328 0.947 . S
C347 C346 1.383 . S
C347 C348 1.388 . S
C348 H329 0.946 . S
C348 C347 1.388 . S
C348 C349 1.384 1_565 S
C349 C348 1.384 1_545 S
C349 C350 1.377 . S
C350 H330 0.953 . S
C350 C349 1.377 . S
C350 C351 1.369 . S
C351 H331 0.945 . S
C351 C346 1.385 1_545 S
C351 C350 1.369 . S
C352 C344 1.457 . S
C352 C353 1.372 . S
C352 C357 1.364 . S
C353 H332 0.952 . S
C353 C352 1.372 . S
C353 C354 1.389 . S
C354 H333 0.949 . S
C354 C353 1.389 . S
C354 C355 1.387 . S
C355 C354 1.387 . S
C355 C356 1.372 . S
C356 H334 0.950 . S
C356 C355 1.372 . S
C356 C357 1.379 . S
C357 H335 0.948 . S
C357 C352 1.364 . S
C357 C356 1.379 . S
C358 C327 1.383 . S
C358 C345 1.479 . S
C358 C359 1.398 . S
C359 C324 1.382 . S
C359 H336 0.951 . S
C359 C358 1.398 . S
C360 C361 1.384 . S
C360 H373 0.947 . S
C360 C395 1.382 . S
C361 C360 1.384 . S
C361 C362 1.378 . S
C362 C361 1.378 . S
C362 C363 1.378 . S
C362 H374 0.952 . S
C363 C362 1.378 . S
C363 H375 0.950 . S
C363 C394 1.383 . S
H364 C383 0.947 . S
H365 C384 0.946 . S
H366 C386 0.953 . S
H367 C387 0.945 . S
H368 C389 0.952 . S
H369 C390 0.949 . S
H370 C392 0.950 . S
H371 C393 0.948 . S
H372 C395 0.951 . S
H373 C360 0.947 . S
H374 C362 0.952 . S
H375 C363 0.950 . S
N376 C379 1.382 . S
N376 C381 1.363 . S
N377 C379 1.371 . S
N377 C380 1.372 . S
N378 C380 1.361 . S
N378 C381 1.377 . S
C379 N376 1.382 . S
C379 N377 1.371 . S
C379 C382 1.480 . S
C380 N377 1.372 . S
C380 N378 1.361 . S
C380 C388 1.457 . S
C381 N376 1.363 . S
C381 N378 1.377 . S
C381 C394 1.479 . S
C382 C379 1.480 . S
C382 C383 1.383 . S
C382 C387 1.385 . S
C383 H364 0.947 . S
C383 C382 1.383 . S
C383 C384 1.388 . S
C384 H365 0.946 . S
C384 C383 1.388 . S
C384 C385 1.384 . S
C385 C384 1.384 . S
C385 C386 1.377 . S
C386 H366 0.953 . S
C386 C385 1.377 . S
C386 C387 1.369 . S
C387 H367 0.945 . S
C387 C382 1.385 . S
C387 C386 1.369 . S
C388 C380 1.457 . S
C388 C389 1.372 . S
C388 C393 1.364 . S
C389 H368 0.952 . S
C389 C388 1.372 . S
C389 C390 1.389 . S
C390 H369 0.949 . S
C390 C389 1.389 . S
C390 C391 1.387 . S
C391 C390 1.387 . S
C391 C392 1.372 . S
C392 H370 0.950 . S
C392 C391 1.372 . S
C392 C393 1.379 . S
C393 H371 0.948 . S
C393 C388 1.364 . S
C393 C392 1.379 . S
C394 C363 1.383 . S
C394 C381 1.479 . S
C394 C395 1.398 . S
C395 C360 1.382 . S
C395 H372 0.951 . S
C395 C394 1.398 . S
C396 C397 1.384 . S
C396 H409 0.947 . S
C396 C431 1.382 . S
C397 C396 1.384 . S
C397 C398 1.378 . S
C398 C397 1.378 . S
C398 C399 1.378 . S
C398 H410 0.952 . S
C399 C398 1.378 . S
C399 H411 0.950 . S
C399 C430 1.383 . S
H400 C419 0.947 . S
H401 C420 0.946 . S
H402 C422 0.953 . S
H403 C423 0.945 . S
H404 C425 0.952 . S
H405 C426 0.949 . S
H406 C428 0.950 . S
H407 C429 0.948 . S
H408 C431 0.951 . S
H409 C396 0.947 . S
H410 C398 0.952 . S
H411 C399 0.950 . S
N412 C415 1.382 . S
N412 C417 1.363 . S
N413 C415 1.371 . S
N413 C416 1.372 . S
N414 C416 1.361 . S
N414 C417 1.377 . S
C415 N412 1.382 . S
C415 N413 1.371 . S
C415 C418 1.480 . S
C416 N413 1.372 . S
C416 N414 1.361 . S
C416 C424 1.457 . S
C417 N412 1.363 . S
C417 N414 1.377 . S
C417 C430 1.479 . S
C418 C415 1.480 . S
C418 C419 1.383 . S
C418 C423 1.385 . S
C419 H400 0.947 . S
C419 C418 1.383 . S
C419 C420 1.388 . S
C420 H401 0.946 . S
C420 C419 1.388 . S
C420 C421 1.384 . S
C421 C420 1.384 . S
C421 C422 1.377 . S
C422 H402 0.953 . S
C422 C421 1.377 . S
C422 C423 1.369 . S
C423 H403 0.945 . S
C423 C418 1.385 . S
C423 C422 1.369 . S
C424 C416 1.457 . S
C424 C425 1.372 . S
C424 C429 1.364 . S
C425 H404 0.952 . S
C425 C424 1.372 . S
C425 C426 1.389 . S
C426 H405 0.949 . S
C426 C425 1.389 . S
C426 C427 1.387 . S
C427 C426 1.387 . S
C427 C428 1.372 . S
C428 H406 0.950 . S
C428 C427 1.372 . S
C428 C429 1.379 . S
C429 H407 0.948 . S
C429 C424 1.364 . S
C429 C428 1.379 . S
C430 C399 1.383 . S
C430 C417 1.479 . S
C430 C431 1.398 . S
C431 C396 1.382 . S
C431 H408 0.951 . S
C431 C430 1.398 . S
C432 C433 1.384 . S
C432 H445 0.947 . S
C432 C467 1.382 . S
C433 C432 1.384 . S
C433 C434 1.378 . S
C434 C433 1.378 . S
C434 C435 1.378 . S
C434 H446 0.952 . S
C435 C434 1.378 . S
C435 H447 0.950 . S
C435 C466 1.383 . S
H436 C455 0.947 . S
H437 C456 0.946 . S
H438 C458 0.953 . S
H439 C459 0.945 . S
H440 C461 0.952 . S
H441 C462 0.949 . S
H442 C464 0.950 . S
H443 C465 0.948 . S
H444 C467 0.951 . S
H445 C432 0.947 . S
H446 C434 0.952 . S
H447 C435 0.950 . S
N448 C451 1.382 . S
N448 C453 1.363 . S
N449 C451 1.371 . S
N449 C452 1.372 . S
N450 C452 1.361 . S
N450 C453 1.377 . S
C451 N448 1.382 . S
C451 N449 1.371 . S
C451 C454 1.480 . S
C452 N449 1.372 . S
C452 N450 1.361 . S
C452 C460 1.457 . S
C453 N448 1.363 . S
C453 N450 1.377 . S
C453 C466 1.479 . S
C454 C451 1.480 . S
C454 C455 1.383 . S
C454 C459 1.385 . S
C455 H436 0.947 . S
C455 C454 1.383 . S
C455 C456 1.388 . S
C456 H437 0.946 . S
C456 C455 1.388 . S
C456 C457 1.384 . S
C457 C456 1.384 . S
C457 C458 1.377 . S
C458 H438 0.953 . S
C458 C457 1.377 . S
C458 C459 1.369 . S
C459 H439 0.945 . S
C459 C454 1.385 . S
C459 C458 1.369 . S
C460 C452 1.457 . S
C460 C461 1.372 . S
C460 C465 1.364 . S
C461 H440 0.952 . S
C461 C460 1.372 . S
C461 C462 1.389 . S
C462 H441 0.949 . S
C462 C461 1.389 . S
C462 C463 1.387 . S
C463 C462 1.387 . S
C463 C464 1.372 . S
C464 H442 0.950 . S
C464 C463 1.372 . S
C464 C465 1.379 . S
C465 H443 0.948 . S
C465 C460 1.364 . S
C465 C464 1.379 . S
C466 C435 1.383 . S
C466 C453 1.479 . S
C466 C467 1.398 . S
C467 C432 1.382 . S
C467 H444 0.951 . S
C467 C466 1.398 . S
C468 C469 1.384 . S
C468 H481 0.947 . S
C468 C503 1.382 . S
C469 C468 1.384 . S
C469 C470 1.378 1_554 S
C470 C469 1.378 1_556 S
C470 C471 1.378 . S
C470 H482 0.952 . S
C471 C470 1.378 . S
C471 H483 0.950 . S
C471 C502 1.383 . S
H472 C491 0.947 . S
H473 C492 0.946 . S
H474 C494 0.953 . S
H475 C495 0.945 . S
H476 C497 0.952 . S
H477 C498 0.949 . S
H478 C500 0.950 . S
H479 C501 0.948 . S
H480 C503 0.951 . S
H481 C468 0.947 . S
H482 C470 0.952 . S
H483 C471 0.950 . S
N484 C487 1.382 . S
N484 C489 1.363 . S
N485 C487 1.371 . S
N485 C488 1.372 . S
N486 C488 1.361 . S
N486 C489 1.377 . S
C487 N484 1.382 . S
C487 N485 1.371 . S
C487 C490 1.480 . S
C488 N485 1.372 . S
C488 N486 1.361 . S
C488 C496 1.457 . S
C489 N484 1.363 . S
C489 N486 1.377 . S
C489 C502 1.479 . S
C490 C487 1.480 . S
C490 C491 1.383 . S
C490 C495 1.385 . S
C491 H472 0.947 . S
C491 C490 1.383 . S
C491 C492 1.388 . S
C492 H473 0.946 . S
C492 C491 1.388 . S
C492 C493 1.384 . S
C493 C492 1.384 . S
C493 C494 1.377 . S
C494 H474 0.953 . S
C494 C493 1.377 . S
C494 C495 1.369 . S
C495 H475 0.945 . S
C495 C490 1.385 . S
C495 C494 1.369 . S
C496 C488 1.457 . S
C496 C497 1.372 . S
C496 C501 1.364 . S
C497 H476 0.952 . S
C497 C496 1.372 . S
C497 C498 1.389 . S
C498 H477 0.949 . S
C498 C497 1.389 . S
C498 C499 1.387 . S
C499 C498 1.387 . S
C499 C500 1.372 . S
C500 H478 0.950 . S
C500 C499 1.372 . S
C500 C501 1.379 . S
C501 H479 0.948 . S
C501 C496 1.364 . S
C501 C500 1.379 . S
C502 C471 1.383 . S
C502 C489 1.479 . S
C502 C503 1.398 1_556 S
C503 C468 1.382 . S
C503 H480 0.951 . S
C503 C502 1.398 1_554 S
C504 C505 1.384 . S
C504 H517 0.947 . S
C504 C539 1.382 . S
C505 C504 1.384 . S
C505 C506 1.378 . S
C506 C505 1.378 . S
C506 C507 1.378 . S
C506 H518 0.952 . S
C507 C506 1.378 . S
C507 H519 0.950 . S
C507 C538 1.383 . S
H508 C527 0.947 . S
H509 C528 0.946 . S
H510 C530 0.953 . S
H511 C531 0.945 . S
H512 C533 0.952 . S
H513 C534 0.949 . S
H514 C536 0.950 . S
H515 C537 0.948 . S
H516 C539 0.951 . S
H517 C504 0.947 . S
H518 C506 0.952 . S
H519 C507 0.950 . S
N520 C523 1.382 . S
N520 C525 1.363 . S
N521 C523 1.371 . S
N521 C524 1.372 . S
N522 C524 1.361 . S
N522 C525 1.377 . S
C523 N520 1.382 . S
C523 N521 1.371 . S
C523 C526 1.480 . S
C524 N521 1.372 . S
C524 N522 1.361 . S
C524 C532 1.457 . S
C525 N520 1.363 . S
C525 N522 1.377 . S
C525 C538 1.479 . S
C526 C523 1.480 . S
C526 C527 1.383 . S
C526 C531 1.385 . S
C527 H508 0.947 . S
C527 C526 1.383 . S
C527 C528 1.388 . S
C528 H509 0.946 . S
C528 C527 1.388 . S
C528 C529 1.384 . S
C529 C528 1.384 . S
C529 C530 1.377 . S
C530 H510 0.953 . S
C530 C529 1.377 . S
C530 C531 1.369 . S
C531 H511 0.945 . S
C531 C526 1.385 . S
C531 C530 1.369 . S
C532 C524 1.457 . S
C532 C533 1.372 . S
C532 C537 1.364 . S
C533 H512 0.952 . S
C533 C532 1.372 . S
C533 C534 1.389 . S
C534 H513 0.949 . S
C534 C533 1.389 . S
C534 C535 1.387 . S
C535 C534 1.387 . S
C535 C536 1.372 . S
C536 H514 0.950 . S
C536 C535 1.372 . S
C536 C537 1.379 . S
C537 H515 0.948 . S
C537 C532 1.364 . S
C537 C536 1.379 . S
C538 C507 1.383 . S
C538 C525 1.479 . S
C538 C539 1.398 . S
C539 C504 1.382 . S
C539 H516 0.951 . S
C539 C538 1.398 . S
C540 C541 1.384 1_556 S
C540 H553 0.947 . S
C540 C575 1.382 . S
C541 C540 1.384 1_554 S
C541 C542 1.378 . S
C542 C541 1.378 . S
C542 C543 1.378 . S
C542 H554 0.952 . S
C543 C542 1.378 . S
C543 H555 0.950 . S
C543 C574 1.383 1_554 S
H544 C563 0.947 . S
H545 C564 0.946 . S
H546 C566 0.953 . S
H547 C567 0.945 . S
H548 C569 0.952 . S
H549 C570 0.949 . S
H550 C572 0.950 . S
H551 C573 0.948 . S
H552 C575 0.951 . S
H553 C540 0.947 . S
H554 C542 0.952 . S
H555 C543 0.950 . S
N556 C559 1.382 . S
N556 C561 1.363 . S
N557 C559 1.371 . S
N557 C560 1.372 . S
N558 C560 1.361 . S
N558 C561 1.377 . S
C559 N556 1.382 . S
C559 N557 1.371 . S
C559 C562 1.480 . S
C560 N557 1.372 . S
C560 N558 1.361 . S
C560 C568 1.457 . S
C561 N556 1.363 . S
C561 N558 1.377 . S
C561 C574 1.479 . S
C562 C559 1.480 . S
C562 C563 1.383 . S
C562 C567 1.385 1_545 S
C563 H544 0.947 . S
C563 C562 1.383 . S
C563 C564 1.388 . S
C564 H545 0.946 . S
C564 C563 1.388 . S
C564 C565 1.384 1_545 S
C565 C564 1.384 1_565 S
C565 C566 1.377 . S
C566 H546 0.953 . S
C566 C565 1.377 . S
C566 C567 1.369 . S
C567 H547 0.945 . S
C567 C562 1.385 1_565 S
C567 C566 1.369 . S
C568 C560 1.457 . S
C568 C569 1.372 . S
C568 C573 1.364 . S
C569 H548 0.952 . S
C569 C568 1.372 . S
C569 C570 1.389 . S
C570 H549 0.949 . S
C570 C569 1.389 . S
C570 C571 1.387 . S
C571 C570 1.387 . S
C571 C572 1.372 . S
C572 H550 0.950 . S
C572 C571 1.372 . S
C572 C573 1.379 . S
C573 H551 0.948 . S
C573 C568 1.364 . S
C573 C572 1.379 . S
C574 C543 1.383 1_556 S
C574 C561 1.479 . S
C574 C575 1.398 . S
C575 C540 1.382 . S
C575 H552 0.951 . S
C575 C574 1.398 . S
Li576 N593 1.990 . S
Li576 O636 1.956 . S
Li576 O637 1.970 1_556 S
Li576 O638 1.961 . S
Li577 N601 1.990 . S
Li577 O636 1.970 1_554 S
Li577 O637 1.956 . S
Li577 O639 1.961 . S
Li578 N623 1.990 . S
Li578 O636 1.961 . S
Li578 O638 1.956 . S
Li578 O639 1.970 1_556 S
Li579 N629 1.990 . S
Li579 O637 1.961 . S
Li579 O638 1.970 1_554 S
Li579 O639 1.956 . S
C580 C582 1.348 1_556 S
C580 C583 1.356 . S
C580 O636 1.325 . S
N581 C584 1.314 1_556 S
N581 C585 1.279 . S
C582 C580 1.348 1_554 S
C582 C584 1.353 . S
C582 H640 0.929 . S
C583 C580 1.356 . S
C583 C585 1.358 . S
C583 H641 0.930 . S
C584 N581 1.314 1_554 S
C584 C582 1.353 . S
C584 H642 0.930 . S
C585 N581 1.279 . S
C585 C583 1.358 . S
C585 H643 0.930 . S
C586 C589 1.348 . S
C586 C590 1.356 . S
C586 O637 1.325 . S
C587 N588 1.279 . S
C587 C590 1.358 . S
C587 H644 0.930 . S
N588 C587 1.279 . S
N588 C591 1.314 . S
C589 C586 1.348 . S
C589 C591 1.353 . S
C589 H645 0.929 . S
C590 C586 1.356 . S
C590 C587 1.358 . S
C590 H646 0.930 . S
C591 N588 1.314 . S
C591 C589 1.353 . S
C591 H647 0.930 . S
C592 N593 1.314 . S
C592 C597 1.353 . S
C592 H598 0.930 . S
N593 Li576 1.990 . S
N593 C592 1.314 . S
N593 C595 1.279 . S
C594 C595 1.358 . S
C594 C596 1.356 . S
C594 H648 0.930 . S
C595 N593 1.279 . S
C595 C594 1.358 . S
C595 H599 0.930 . S
C596 C594 1.356 . S
C596 C597 1.348 . S
C597 C592 1.353 . S
C597 C596 1.348 . S
C597 H649 0.929 . S
H598 C592 0.930 . S
H599 C595 0.930 . S
C600 N601 1.314 . S
C600 C602 1.353 . S
C600 H606 0.930 . S
N601 Li577 1.990 . S
N601 C600 1.314 . S
N601 C604 1.279 . S
C602 C600 1.353 . S
C602 C605 1.348 . S
C602 H650 0.929 . S
C603 C604 1.358 . S
C603 C605 1.356 . S
C603 H651 0.930 . S
C604 N601 1.279 . S
C604 C603 1.358 . S
C604 H607 0.930 . S
C605 C602 1.348 . S
C605 C603 1.356 . S
H606 C600 0.930 . S
H607 C604 0.930 . S
C608 C610 1.348 . S
C608 C611 1.356 . S
C608 O638 1.325 . S
N609 C612 1.314 . S
N609 C613 1.279 . S
C610 C608 1.348 . S
C610 C612 1.353 . S
C610 H652 0.929 . S
C611 C608 1.356 . S
C611 C613 1.358 . S
C611 H653 0.930 . S
C612 N609 1.314 . S
C612 C610 1.353 . S
C612 H654 0.930 . S
C613 N609 1.279 . S
C613 C611 1.358 . S
C613 H655 0.930 . S
C614 C615 1.348 1_554 S
C614 C616 1.356 . S
C614 O639 1.325 . S
C615 C614 1.348 1_556 S
C615 C617 1.353 . S
C615 H656 0.929 . S
C616 C614 1.356 . S
C616 C618 1.358 . S
C616 H657 0.930 . S
C617 C615 1.353 . S
C617 N619 1.314 1_556 S
C617 H658 0.930 . S
C618 C616 1.358 . S
C618 N619 1.279 . S
C618 H659 0.930 . S
N619 C617 1.314 1_554 S
N619 C618 1.279 . S
C620 C622 1.353 . S
C620 N623 1.314 . S
C620 H626 0.930 . S
C621 N623 1.279 . S
C621 C624 1.358 . S
C621 H627 0.930 . S
C622 C620 1.353 . S
C622 C625 1.348 . S
C622 H660 0.929 . S
N623 Li578 1.990 . S
N623 C620 1.314 . S
N623 C621 1.279 . S
C624 C621 1.358 . S
C624 C625 1.356 . S
C624 H661 0.930 . S
C625 C622 1.348 . S
C625 C624 1.356 . S
H626 C620 0.930 . S
H627 C621 0.930 . S
C628 N629 1.314 . S
C628 C630 1.353 . S
C628 H634 0.930 . S
N629 Li579 1.990 . S
N629 C628 1.314 . S
N629 C632 1.279 . S
C630 C628 1.353 . S
C630 C633 1.348 . S
C630 H662 0.929 . S
C631 C632 1.358 . S
C631 C633 1.356 . S
C631 H663 0.930 . S
C632 N629 1.279 . S
C632 C631 1.358 . S
C632 H635 0.930 . S
C633 C630 1.348 . S
C633 C631 1.356 . S
H634 C628 0.930 . S
H635 C632 0.930 . S
O636 Li576 1.956 . S
O636 Li577 1.970 1_556 S
O636 Li578 1.961 . S
O636 C580 1.325 . S
O637 Li576 1.970 1_554 S
O637 Li577 1.956 . S
O637 Li579 1.961 . S
O637 C586 1.325 . S
O638 Li576 1.961 . S
O638 Li578 1.956 . S
O638 Li579 1.970 1_556 S
O638 C608 1.325 . S
O639 Li577 1.961 . S
O639 Li578 1.970 1_554 S
O639 Li579 1.956 . S
O639 C614 1.325 . S
H640 C582 0.929 . S
H641 C583 0.930 . S
H642 C584 0.930 . S
H643 C585 0.930 . S
H644 C587 0.930 . S
H645 C589 0.929 . S
H646 C590 0.930 . S
H647 C591 0.930 . S
H648 C594 0.930 . S
H649 C597 0.929 . S
H650 C602 0.929 . S
H651 C603 0.930 . S
H652 C610 0.929 . S
H653 C611 0.930 . S
H654 C612 0.930 . S
H655 C613 0.930 . S
H656 C615 0.929 . S
H657 C616 0.930 . S
H658 C617 0.930 . S
H659 C618 0.930 . S
H660 C622 0.929 . S
H661 C624 0.930 . S
H662 C630 0.929 . S
H663 C631 0.930 . S
Li664 N681 1.990 . S
Li664 O724 1.956 . S
Li664 O725 1.970 . S
Li664 O726 1.961 . S
Li665 N689 1.990 . S
Li665 O724 1.970 . S
Li665 O725 1.956 . S
Li665 O727 1.961 . S
Li666 N711 1.990 . S
Li666 O724 1.961 . S
Li666 O726 1.956 . S
Li666 O727 1.970 . S
Li667 N717 1.990 . S
Li667 O725 1.961 . S
Li667 O726 1.970 . S
Li667 O727 1.956 . S
C668 C670 1.348 . S
C668 C671 1.356 . S
C668 O724 1.325 . S
N669 C672 1.314 . S
N669 C673 1.279 . S
C670 C668 1.348 . S
C670 C672 1.353 . S
C670 H728 0.929 . S
C671 C668 1.356 . S
C671 C673 1.358 . S
C671 H729 0.930 . S
C672 N669 1.314 . S
C672 C670 1.353 . S
C672 H730 0.930 . S
C673 N669 1.279 . S
C673 C671 1.358 . S
C673 H731 0.930 . S
C674 C677 1.348 . S
C674 C678 1.356 . S
C674 O725 1.325 . S
C675 N676 1.279 . S
C675 C678 1.358 . S
C675 H732 0.930 . S
N676 C675 1.279 . S
N676 C679 1.314 . S
C677 C674 1.348 . S
C677 C679 1.353 . S
C677 H733 0.929 . S
C678 C674 1.356 . S
C678 C675 1.358 . S
C678 H734 0.930 . S
C679 N676 1.314 . S
C679 C677 1.353 . S
C679 H735 0.930 . S
C680 N681 1.314 . S
C680 C685 1.353 . S
C680 H686 0.930 . S
N681 Li664 1.990 . S
N681 C680 1.314 . S
N681 C683 1.279 . S
C682 C683 1.358 . S
C682 C684 1.356 . S
C682 H736 0.930 . S
C683 N681 1.279 . S
C683 C682 1.358 . S
C683 H687 0.930 . S
C684 C682 1.356 . S
C684 C685 1.348 . S
C685 C680 1.353 . S
C685 C684 1.348 . S
C685 H737 0.929 . S
H686 C680 0.930 . S
H687 C683 0.930 . S
C688 N689 1.314 . S
C688 C690 1.353 . S
C688 H694 0.930 . S
N689 Li665 1.990 . S
N689 C688 1.314 . S
N689 C692 1.279 . S
C690 C688 1.353 . S
C690 C693 1.348 . S
C690 H738 0.929 . S
C691 C692 1.358 . S
C691 C693 1.356 . S
C691 H739 0.930 . S
C692 N689 1.279 . S
C692 C691 1.358 . S
C692 H695 0.930 . S
C693 C690 1.348 . S
C693 C691 1.356 . S
H694 C688 0.930 . S
H695 C692 0.930 . S
C696 C698 1.348 . S
C696 C699 1.356 . S
C696 O726 1.325 . S
N697 C700 1.314 . S
N697 C701 1.279 . S
C698 C696 1.348 . S
C698 C700 1.353 . S
C698 H740 0.929 . S
C699 C696 1.356 . S
C699 C701 1.358 . S
C699 H741 0.930 . S
C700 N697 1.314 . S
C700 C698 1.353 . S
C700 H742 0.930 . S
C701 N697 1.279 . S
C701 C699 1.358 . S
C701 H743 0.930 . S
C702 C703 1.348 . S
C702 C704 1.356 . S
C702 O727 1.325 . S
C703 C702 1.348 . S
C703 C705 1.353 . S
C703 H744 0.929 . S
C704 C702 1.356 . S
C704 C706 1.358 . S
C704 H745 0.930 . S
C705 C703 1.353 . S
C705 N707 1.314 . S
C705 H746 0.930 . S
C706 C704 1.358 . S
C706 N707 1.279 . S
C706 H747 0.930 . S
N707 C705 1.314 . S
N707 C706 1.279 . S
C708 C710 1.353 . S
C708 N711 1.314 . S
C708 H714 0.930 . S
C709 N711 1.279 . S
C709 C712 1.358 . S
C709 H715 0.930 . S
C710 C708 1.353 . S
C710 C713 1.348 . S
C710 H748 0.929 . S
N711 Li666 1.990 . S
N711 C708 1.314 . S
N711 C709 1.279 . S
C712 C709 1.358 . S
C712 C713 1.356 . S
C712 H749 0.930 . S
C713 C710 1.348 . S
C713 C712 1.356 . S
H714 C708 0.930 . S
H715 C709 0.930 . S
C716 N717 1.314 . S
C716 C718 1.353 . S
C716 H722 0.930 . S
N717 Li667 1.990 . S
N717 C716 1.314 . S
N717 C720 1.279 . S
C718 C716 1.353 . S
C718 C721 1.348 . S
C718 H750 0.929 . S
C719 C720 1.358 . S
C719 C721 1.356 . S
C719 H751 0.930 . S
C720 N717 1.279 . S
C720 C719 1.358 . S
C720 H723 0.930 . S
C721 C718 1.348 . S
C721 C719 1.356 . S
H722 C716 0.930 . S
H723 C720 0.930 . S
O724 Li664 1.956 . S
O724 Li665 1.970 . S
O724 Li666 1.961 . S
O724 C668 1.325 . S
O725 Li664 1.970 . S
O725 Li665 1.956 . S
O725 Li667 1.961 . S
O725 C674 1.325 . S
O726 Li664 1.961 . S
O726 Li666 1.956 . S
O726 Li667 1.970 . S
O726 C696 1.325 . S
O727 Li665 1.961 . S
O727 Li666 1.970 . S
O727 Li667 1.956 . S
O727 C702 1.325 . S
H728 C670 0.929 . S
H729 C671 0.930 . S
H730 C672 0.930 . S
H731 C673 0.930 . S
H732 C675 0.930 . S
H733 C677 0.929 . S
H734 C678 0.930 . S
H735 C679 0.930 . S
H736 C682 0.930 . S
H737 C685 0.929 . S
H738 C690 0.929 . S
H739 C691 0.930 . S
H740 C698 0.929 . S
H741 C699 0.930 . S
H742 C700 0.930 . S
H743 C701 0.930 . S
H744 C703 0.929 . S
H745 C704 0.930 . S
H746 C705 0.930 . S
H747 C706 0.930 . S
H748 C710 0.929 . S
H749 C712 0.930 . S
H750 C718 0.929 . S
H751 C719 0.930 . S
Li752 N769 1.990 . S
Li752 O812 1.956 . S
Li752 O813 1.970 1_556 S
Li752 O814 1.961 . S
Li753 N777 1.990 . S
Li753 O812 1.970 1_554 S
Li753 O813 1.956 . S
Li753 O815 1.961 . S
Li754 N799 1.990 . S
Li754 O812 1.961 . S
Li754 O814 1.956 . S
Li754 O815 1.970 1_556 S
Li755 N805 1.990 . S
Li755 O813 1.961 . S
Li755 O814 1.970 1_554 S
Li755 O815 1.956 . S
C756 C758 1.348 1_556 S
C756 C759 1.356 . S
C756 O812 1.325 . S
N757 C760 1.314 1_556 S
N757 C761 1.279 . S
C758 C756 1.348 1_554 S
C758 C760 1.353 . S
C758 H816 0.929 . S
C759 C756 1.356 . S
C759 C761 1.358 . S
C759 H817 0.930 . S
C760 N757 1.314 1_554 S
C760 C758 1.353 . S
C760 H818 0.930 . S
C761 N757 1.279 . S
C761 C759 1.358 . S
C761 H819 0.930 . S
C762 C765 1.348 . S
C762 C766 1.356 . S
C762 O813 1.325 . S
C763 N764 1.279 . S
C763 C766 1.358 . S
C763 H820 0.930 . S
N764 C763 1.279 . S
N764 C767 1.314 . S
C765 C762 1.348 . S
C765 C767 1.353 . S
C765 H821 0.929 . S
C766 C762 1.356 . S
C766 C763 1.358 . S
C766 H822 0.930 . S
C767 N764 1.314 . S
C767 C765 1.353 . S
C767 H823 0.930 . S
C768 N769 1.314 . S
C768 C773 1.353 . S
C768 H774 0.930 . S
N769 Li752 1.990 . S
N769 C768 1.314 . S
N769 C771 1.279 . S
C770 C771 1.358 . S
C770 C772 1.356 . S
C770 H824 0.930 . S
C771 N769 1.279 . S
C771 C770 1.358 . S
C771 H775 0.930 . S
C772 C770 1.356 . S
C772 C773 1.348 . S
C773 C768 1.353 . S
C773 C772 1.348 . S
C773 H825 0.929 . S
H774 C768 0.930 . S
H775 C771 0.930 . S
C776 N777 1.314 . S
C776 C778 1.353 . S
C776 H782 0.930 . S
N777 Li753 1.990 . S
N777 C776 1.314 . S
N777 C780 1.279 . S
C778 C776 1.353 . S
C778 C781 1.348 . S
C778 H826 0.929 . S
C779 C780 1.358 . S
C779 C781 1.356 . S
C779 H827 0.930 . S
C780 N777 1.279 . S
C780 C779 1.358 . S
C780 H783 0.930 . S
C781 C778 1.348 . S
C781 C779 1.356 . S
H782 C776 0.930 . S
H783 C780 0.930 . S
C784 C786 1.348 . S
C784 C787 1.356 . S
C784 O814 1.325 . S
N785 C788 1.314 . S
N785 C789 1.279 . S
C786 C784 1.348 . S
C786 C788 1.353 . S
C786 H828 0.929 . S
C787 C784 1.356 . S
C787 C789 1.358 . S
C787 H829 0.930 . S
C788 N785 1.314 . S
C788 C786 1.353 . S
C788 H830 0.930 . S
C789 N785 1.279 . S
C789 C787 1.358 . S
C789 H831 0.930 . S
C790 C791 1.348 1_554 S
C790 C792 1.356 . S
C790 O815 1.325 . S
C791 C790 1.348 1_556 S
C791 C793 1.353 . S
C791 H832 0.929 . S
C792 C790 1.356 . S
C792 C794 1.358 . S
C792 H833 0.930 . S
C793 C791 1.353 . S
C793 N795 1.314 1_556 S
C793 H834 0.930 . S
C794 C792 1.358 . S
C794 N795 1.279 . S
C794 H835 0.930 . S
N795 C793 1.314 1_554 S
N795 C794 1.279 . S
C796 C798 1.353 . S
C796 N799 1.314 . S
C796 H802 0.930 . S
C797 N799 1.279 . S
C797 C800 1.358 . S
C797 H803 0.930 . S
C798 C796 1.353 . S
C798 C801 1.348 . S
C798 H836 0.929 . S
N799 Li754 1.990 . S
N799 C796 1.314 . S
N799 C797 1.279 . S
C800 C797 1.358 . S
C800 C801 1.356 . S
C800 H837 0.930 . S
C801 C798 1.348 . S
C801 C800 1.356 . S
H802 C796 0.930 . S
H803 C797 0.930 . S
C804 N805 1.314 . S
C804 C806 1.353 . S
C804 H810 0.930 . S
N805 Li755 1.990 . S
N805 C804 1.314 . S
N805 C808 1.279 . S
C806 C804 1.353 . S
C806 C809 1.348 . S
C806 H838 0.929 . S
C807 C808 1.358 . S
C807 C809 1.356 . S
C807 H839 0.930 . S
C808 N805 1.279 . S
C808 C807 1.358 . S
C808 H811 0.930 . S
C809 C806 1.348 . S
C809 C807 1.356 . S
H810 C804 0.930 . S
H811 C808 0.930 . S
O812 Li752 1.956 . S
O812 Li753 1.970 1_556 S
O812 Li754 1.961 . S
O812 C756 1.325 . S
O813 Li752 1.970 1_554 S
O813 Li753 1.956 . S
O813 Li755 1.961 . S
O813 C762 1.325 . S
O814 Li752 1.961 . S
O814 Li754 1.956 . S
O814 Li755 1.970 1_556 S
O814 C784 1.325 . S
O815 Li753 1.961 . S
O815 Li754 1.970 1_554 S
O815 Li755 1.956 . S
O815 C790 1.325 . S
H816 C758 0.929 . S
H817 C759 0.930 . S
H818 C760 0.930 . S
H819 C761 0.930 . S
H820 C763 0.930 . S
H821 C765 0.929 . S
H822 C766 0.930 . S
H823 C767 0.930 . S
H824 C770 0.930 . S
H825 C773 0.929 . S
H826 C778 0.929 . S
H827 C779 0.930 . S
H828 C786 0.929 . S
H829 C787 0.930 . S
H830 C788 0.930 . S
H831 C789 0.930 . S
H832 C791 0.929 . S
H833 C792 0.930 . S
H834 C793 0.930 . S
H835 C794 0.930 . S
H836 C798 0.929 . S
H837 C800 0.930 . S
H838 C806 0.929 . S
H839 C807 0.930 . S
Li840 N857 1.990 . S
Li840 O900 1.956 . S
Li840 O901 1.970 1_545 S
Li840 O902 1.961 . S
Li841 N865 1.990 . S
Li841 O900 1.970 1_565 S
Li841 O901 1.956 . S
Li841 O903 1.961 . S
Li842 N887 1.990 . S
Li842 O900 1.961 . S
Li842 O902 1.956 . S
Li842 O903 1.970 1_545 S
Li843 N893 1.990 . S
Li843 O901 1.961 . S
Li843 O902 1.970 1_565 S
Li843 O903 1.956 . S
C844 C846 1.348 . S
C844 C847 1.356 . S
C844 O900 1.325 . S
N845 C848 1.314 . S
N845 C849 1.279 . S
C846 C844 1.348 . S
C846 C848 1.353 . S
C846 H904 0.929 . S
C847 C844 1.356 . S
C847 C849 1.358 . S
C847 H905 0.930 . S
C848 N845 1.314 . S
C848 C846 1.353 . S
C848 H906 0.930 . S
C849 N845 1.279 . S
C849 C847 1.358 . S
C849 H907 0.930 . S
C850 C853 1.348 1_565 S
C850 C854 1.356 . S
C850 O901 1.325 . S
C851 N852 1.279 . S
C851 C854 1.358 . S
C851 H908 0.930 . S
N852 C851 1.279 . S
N852 C855 1.314 1_565 S
C853 C850 1.348 1_545 S
C853 C855 1.353 . S
C853 H909 0.929 . S
C854 C850 1.356 . S
C854 C851 1.358 . S
C854 H910 0.930 . S
C855 N852 1.314 1_545 S
C855 C853 1.353 . S
C855 H911 0.930 . S
C856 N857 1.314 . S
C856 C861 1.353 . S
C856 H862 0.930 . S
N857 Li840 1.990 . S
N857 C856 1.314 . S
N857 C859 1.279 . S
C858 C859 1.358 . S
C858 C860 1.356 . S
C858 H912 0.930 . S
C859 N857 1.279 . S
C859 C858 1.358 . S
C859 H863 0.930 . S
C860 C858 1.356 . S
C860 C861 1.348 . S
C861 C856 1.353 . S
C861 C860 1.348 . S
C861 H913 0.929 . S
H862 C856 0.930 . S
H863 C859 0.930 . S
C864 N865 1.314 . S
C864 C866 1.353 . S
C864 H870 0.930 . S
N865 Li841 1.990 . S
N865 C864 1.314 . S
N865 C868 1.279 . S
C866 C864 1.353 . S
C866 C869 1.348 . S
C866 H914 0.929 . S
C867 C868 1.358 . S
C867 C869 1.356 . S
C867 H915 0.930 . S
C868 N865 1.279 . S
C868 C867 1.358 . S
C868 H871 0.930 . S
C869 C866 1.348 . S
C869 C867 1.356 . S
H870 C864 0.930 . S
H871 C868 0.930 . S
C872 C874 1.348 1_545 S
C872 C875 1.356 . S
C872 O902 1.325 . S
N873 C876 1.314 1_545 S
N873 C877 1.279 . S
C874 C872 1.348 1_565 S
C874 C876 1.353 . S
C874 H916 0.929 . S
C875 C872 1.356 . S
C875 C877 1.358 . S
C875 H917 0.930 . S
C876 N873 1.314 1_565 S
C876 C874 1.353 . S
C876 H918 0.930 . S
C877 N873 1.279 . S
C877 C875 1.358 . S
C877 H919 0.930 . S
C878 C879 1.348 . S
C878 C880 1.356 . S
C878 O903 1.325 . S
C879 C878 1.348 . S
C879 C881 1.353 . S
C879 H920 0.929 . S
C880 C878 1.356 . S
C880 C882 1.358 . S
C880 H921 0.930 . S
C881 C879 1.353 . S
C881 N883 1.314 . S
C881 H922 0.930 . S
C882 C880 1.358 . S
C882 N883 1.279 . S
C882 H923 0.930 . S
N883 C881 1.314 . S
N883 C882 1.279 . S
C884 C886 1.353 . S
C884 N887 1.314 . S
C884 H890 0.930 . S
C885 N887 1.279 . S
C885 C888 1.358 . S
C885 H891 0.930 . S
C886 C884 1.353 . S
C886 C889 1.348 . S
C886 H924 0.929 . S
N887 Li842 1.990 . S
N887 C884 1.314 . S
N887 C885 1.279 . S
C888 C885 1.358 . S
C888 C889 1.356 . S
C888 H925 0.930 . S
C889 C886 1.348 . S
C889 C888 1.356 . S
H890 C884 0.930 . S
H891 C885 0.930 . S
C892 N893 1.314 . S
C892 C894 1.353 . S
C892 H898 0.930 . S
N893 Li843 1.990 . S
N893 C892 1.314 . S
N893 C896 1.279 . S
C894 C892 1.353 . S
C894 C897 1.348 . S
C894 H926 0.929 . S
C895 C896 1.358 . S
C895 C897 1.356 . S
C895 H927 0.930 . S
C896 N893 1.279 . S
C896 C895 1.358 . S
C896 H899 0.930 . S
C897 C894 1.348 . S
C897 C895 1.356 . S
H898 C892 0.930 . S
H899 C896 0.930 . S
O900 Li840 1.956 . S
O900 Li841 1.970 1_545 S
O900 Li842 1.961 . S
O900 C844 1.325 . S
O901 Li840 1.970 1_565 S
O901 Li841 1.956 . S
O901 Li843 1.961 . S
O901 C850 1.325 . S
O902 Li840 1.961 . S
O902 Li842 1.956 . S
O902 Li843 1.970 1_545 S
O902 C872 1.325 . S
O903 Li841 1.961 . S
O903 Li842 1.970 1_565 S
O903 Li843 1.956 . S
O903 C878 1.325 . S
H904 C846 0.929 . S
H905 C847 0.930 . S
H906 C848 0.930 . S
H907 C849 0.930 . S
H908 C851 0.930 . S
H909 C853 0.929 . S
H910 C854 0.930 . S
H911 C855 0.930 . S
H912 C858 0.930 . S
H913 C861 0.929 . S
H914 C866 0.929 . S
H915 C867 0.930 . S
H916 C874 0.929 . S
H917 C875 0.930 . S
H918 C876 0.930 . S
H919 C877 0.930 . S
H920 C879 0.929 . S
H921 C880 0.930 . S
H922 C881 0.930 . S
H923 C882 0.930 . S
H924 C886 0.929 . S
H925 C888 0.930 . S
H926 C894 0.929 . S
H927 C895 0.930 . S
Li928 N945 1.990 . S
Li928 O988 1.956 . S
Li928 O989 1.970 . S
Li928 O990 1.961 . S
Li929 N953 1.990 . S
Li929 O988 1.970 . S
Li929 O989 1.956 . S
Li929 O991 1.961 . S
Li930 N975 1.990 . S
Li930 O988 1.961 . S
Li930 O990 1.956 . S
Li930 O991 1.970 . S
Li931 N981 1.990 . S
Li931 O989 1.961 . S
Li931 O990 1.970 . S
Li931 O991 1.956 . S
C932 C934 1.348 . S
C932 C935 1.356 . S
C932 O988 1.325 . S
N933 C936 1.314 . S
N933 C937 1.279 . S
C934 C932 1.348 . S
C934 C936 1.353 . S
C934 H992 0.929 . S
C935 C932 1.356 . S
C935 C937 1.358 . S
C935 H993 0.930 . S
C936 N933 1.314 . S
C936 C934 1.353 . S
C936 H994 0.930 . S
C937 N933 1.279 . S
C937 C935 1.358 . S
C937 H995 0.930 . S
C938 C941 1.348 . S
C938 C942 1.356 . S
C938 O989 1.325 . S
C939 N940 1.279 . S
C939 C942 1.358 . S
C939 H996 0.930 . S
N940 C939 1.279 . S
N940 C943 1.314 . S
C941 C938 1.348 . S
C941 C943 1.353 . S
C941 H997 0.929 . S
C942 C938 1.356 . S
C942 C939 1.358 . S
C942 H998 0.930 . S
C943 N940 1.314 . S
C943 C941 1.353 . S
C943 H999 0.930 . S
C944 N945 1.314 . S
C944 C949 1.353 . S
C944 H950 0.930 . S
N945 Li928 1.990 . S
N945 C944 1.314 . S
N945 C947 1.279 . S
C946 C947 1.358 . S
C946 C948 1.356 . S
C946 H1000 0.930 . S
C947 N945 1.279 . S
C947 C946 1.358 . S
C947 H951 0.930 . S
C948 C946 1.356 . S
C948 C949 1.348 . S
C949 C944 1.353 . S
C949 C948 1.348 . S
C949 H1001 0.929 . S
H950 C944 0.930 . S
H951 C947 0.930 . S
C952 N953 1.314 . S
C952 C954 1.353 . S
C952 H958 0.930 . S
N953 Li929 1.990 . S
N953 C952 1.314 . S
N953 C956 1.279 . S
C954 C952 1.353 . S
C954 C957 1.348 . S
C954 H1002 0.929 . S
C955 C956 1.358 . S
C955 C957 1.356 . S
C955 H1003 0.930 . S
C956 N953 1.279 . S
C956 C955 1.358 . S
C956 H959 0.930 . S
C957 C954 1.348 . S
C957 C955 1.356 . S
H958 C952 0.930 . S
H959 C956 0.930 . S
C960 C962 1.348 . S
C960 C963 1.356 . S
C960 O990 1.325 . S
N961 C964 1.314 . S
N961 C965 1.279 . S
C962 C960 1.348 . S
C962 C964 1.353 . S
C962 H1004 0.929 . S
C963 C960 1.356 . S
C963 C965 1.358 . S
C963 H1005 0.930 . S
C964 N961 1.314 . S
C964 C962 1.353 . S
C964 H1006 0.930 . S
C965 N961 1.279 . S
C965 C963 1.358 . S
C965 H1007 0.930 . S
C966 C967 1.348 . S
C966 C968 1.356 . S
C966 O991 1.325 . S
C967 C966 1.348 . S
C967 C969 1.353 . S
C967 H1008 0.929 . S
C968 C966 1.356 . S
C968 C970 1.358 . S
C968 H1009 0.930 . S
C969 C967 1.353 . S
C969 N971 1.314 . S
C969 H1010 0.930 . S
C970 C968 1.358 . S
C970 N971 1.279 . S
C970 H1011 0.930 . S
N971 C969 1.314 . S
N971 C970 1.279 . S
C972 C974 1.353 . S
C972 N975 1.314 . S
C972 H978 0.930 . S
C973 N975 1.279 . S
C973 C976 1.358 . S
C973 H979 0.930 . S
C974 C972 1.353 . S
C974 C977 1.348 . S
C974 H1012 0.929 . S
N975 Li930 1.990 . S
N975 C972 1.314 . S
N975 C973 1.279 . S
C976 C973 1.358 . S
C976 C977 1.356 . S
C976 H1013 0.930 . S
C977 C974 1.348 . S
C977 C976 1.356 . S
H978 C972 0.930 . S
H979 C973 0.930 . S
C980 N981 1.314 . S
C980 C982 1.353 . S
C980 H986 0.930 . S
N981 Li931 1.990 . S
N981 C980 1.314 . S
N981 C984 1.279 . S
C982 C980 1.353 . S
C982 C985 1.348 . S
C982 H1014 0.929 . S
C983 C984 1.358 . S
C983 C985 1.356 . S
C983 H1015 0.930 . S
C984 N981 1.279 . S
C984 C983 1.358 . S
C984 H987 0.930 . S
C985 C982 1.348 . S
C985 C983 1.356 . S
H986 C980 0.930 . S
H987 C984 0.930 . S
O988 Li928 1.956 . S
O988 Li929 1.970 . S
O988 Li930 1.961 . S
O988 C932 1.325 . S
O989 Li928 1.970 . S
O989 Li929 1.956 . S
O989 Li931 1.961 . S
O989 C938 1.325 . S
O990 Li928 1.961 . S
O990 Li930 1.956 . S
O990 Li931 1.970 . S
O990 C960 1.325 . S
O991 Li929 1.961 . S
O991 Li930 1.970 . S
O991 Li931 1.956 . S
O991 C966 1.325 . S
H992 C934 0.929 . S
H993 C935 0.930 . S
H994 C936 0.930 . S
H995 C937 0.930 . S
H996 C939 0.930 . S
H997 C941 0.929 . S
H998 C942 0.930 . S
H999 C943 0.930 . S
H1000 C946 0.930 . S
H1001 C949 0.929 . S
H1002 C954 0.929 . S
H1003 C955 0.930 . S
H1004 C962 0.929 . S
H1005 C963 0.930 . S
H1006 C964 0.930 . S
H1007 C965 0.930 . S
H1008 C967 0.929 . S
H1009 C968 0.930 . S
H1010 C969 0.930 . S
H1011 C970 0.930 . S
H1012 C974 0.929 . S
H1013 C976 0.930 . S
H1014 C982 0.929 . S
H1015 C983 0.930 . S
Li1016 N1033 1.990 . S
Li1016 O1076 1.956 . S
Li1016 O1077 1.970 . S
Li1016 O1078 1.961 . S
Li1017 N1041 1.990 . S
Li1017 O1076 1.970 . S
Li1017 O1077 1.956 . S
Li1017 O1079 1.961 . S
Li1018 N1063 1.990 . S
Li1018 O1076 1.961 . S
Li1018 O1078 1.956 . S
Li1018 O1079 1.970 . S
Li1019 N1069 1.990 . S
Li1019 O1077 1.961 . S
Li1019 O1078 1.970 . S
Li1019 O1079 1.956 . S
C1020 C1022 1.348 . S
C1020 C1023 1.356 . S
C1020 O1076 1.325 . S
N1021 C1024 1.314 . S
N1021 C1025 1.279 . S
C1022 C1020 1.348 . S
C1022 C1024 1.353 . S
C1022 H1080 0.929 . S
C1023 C1020 1.356 . S
C1023 C1025 1.358 . S
C1023 H1081 0.930 . S
C1024 N1021 1.314 . S
C1024 C1022 1.353 . S
C1024 H1082 0.930 . S
C1025 N1021 1.279 . S
C1025 C1023 1.358 . S
C1025 H1083 0.930 . S
C1026 C1029 1.348 . S
C1026 C1030 1.356 . S
C1026 O1077 1.325 . S
C1027 N1028 1.279 . S
C1027 C1030 1.358 . S
C1027 H1084 0.930 . S
N1028 C1027 1.279 . S
N1028 C1031 1.314 . S
C1029 C1026 1.348 . S
C1029 C1031 1.353 . S
C1029 H1085 0.929 . S
C1030 C1026 1.356 . S
C1030 C1027 1.358 . S
C1030 H1086 0.930 . S
C1031 N1028 1.314 . S
C1031 C1029 1.353 . S
C1031 H1087 0.930 . S
C1032 N1033 1.314 . S
C1032 C1037 1.353 . S
C1032 H1038 0.930 . S
N1033 Li1016 1.990 . S
N1033 C1032 1.314 . S
N1033 C1035 1.279 . S
C1034 C1035 1.358 . S
C1034 C1036 1.356 . S
C1034 H1088 0.930 . S
C1035 N1033 1.279 . S
C1035 C1034 1.358 . S
C1035 H1039 0.930 . S
C1036 C1034 1.356 . S
C1036 C1037 1.348 . S
C1037 C1032 1.353 . S
C1037 C1036 1.348 . S
C1037 H1089 0.929 . S
H1038 C1032 0.930 . S
H1039 C1035 0.930 . S
C1040 N1041 1.314 . S
C1040 C1042 1.353 . S
C1040 H1046 0.930 . S
N1041 Li1017 1.990 . S
N1041 C1040 1.314 . S
N1041 C1044 1.279 . S
C1042 C1040 1.353 . S
C1042 C1045 1.348 . S
C1042 H1090 0.929 . S
C1043 C1044 1.358 . S
C1043 C1045 1.356 . S
C1043 H1091 0.930 . S
C1044 N1041 1.279 . S
C1044 C1043 1.358 . S
C1044 H1047 0.930 . S
C1045 C1042 1.348 . S
C1045 C1043 1.356 . S
H1046 C1040 0.930 . S
H1047 C1044 0.930 . S
C1048 C1050 1.348 . S
C1048 C1051 1.356 . S
C1048 O1078 1.325 . S
N1049 C1052 1.314 . S
N1049 C1053 1.279 . S
C1050 C1048 1.348 . S
C1050 C1052 1.353 . S
C1050 H1092 0.929 . S
C1051 C1048 1.356 . S
C1051 C1053 1.358 . S
C1051 H1093 0.930 . S
C1052 N1049 1.314 . S
C1052 C1050 1.353 . S
C1052 H1094 0.930 . S
C1053 N1049 1.279 . S
C1053 C1051 1.358 . S
C1053 H1095 0.930 . S
C1054 C1055 1.348 . S
C1054 C1056 1.356 . S
C1054 O1079 1.325 . S
C1055 C1054 1.348 . S
C1055 C1057 1.353 . S
C1055 H1096 0.929 . S
C1056 C1054 1.356 . S
C1056 C1058 1.358 . S
C1056 H1097 0.930 . S
C1057 C1055 1.353 . S
C1057 N1059 1.314 . S
C1057 H1098 0.930 . S
C1058 C1056 1.358 . S
C1058 N1059 1.279 . S
C1058 H1099 0.930 . S
N1059 C1057 1.314 . S
N1059 C1058 1.279 . S
C1060 C1062 1.353 . S
C1060 N1063 1.314 . S
C1060 H1066 0.930 . S
C1061 N1063 1.279 . S
C1061 C1064 1.358 . S
C1061 H1067 0.930 . S
C1062 C1060 1.353 . S
C1062 C1065 1.348 . S
C1062 H1100 0.929 . S
N1063 Li1018 1.990 . S
N1063 C1060 1.314 . S
N1063 C1061 1.279 . S
C1064 C1061 1.358 . S
C1064 C1065 1.356 . S
C1064 H1101 0.930 . S
C1065 C1062 1.348 . S
C1065 C1064 1.356 . S
H1066 C1060 0.930 . S
H1067 C1061 0.930 . S
C1068 N1069 1.314 . S
C1068 C1070 1.353 . S
C1068 H1074 0.930 . S
N1069 Li1019 1.990 . S
N1069 C1068 1.314 . S
N1069 C1072 1.279 . S
C1070 C1068 1.353 . S
C1070 C1073 1.348 . S
C1070 H1102 0.929 . S
C1071 C1072 1.358 . S
C1071 C1073 1.356 . S
C1071 H1103 0.930 . S
C1072 N1069 1.279 . S
C1072 C1071 1.358 . S
C1072 H1075 0.930 . S
C1073 C1070 1.348 . S
C1073 C1071 1.356 . S
H1074 C1068 0.930 . S
H1075 C1072 0.930 . S
O1076 Li1016 1.956 . S
O1076 Li1017 1.970 . S
O1076 Li1018 1.961 . S
O1076 C1020 1.325 . S
O1077 Li1016 1.970 . S
O1077 Li1017 1.956 . S
O1077 Li1019 1.961 . S
O1077 C1026 1.325 . S
O1078 Li1016 1.961 . S
O1078 Li1018 1.956 . S
O1078 Li1019 1.970 . S
O1078 C1048 1.325 . S
O1079 Li1017 1.961 . S
O1079 Li1018 1.970 . S
O1079 Li1019 1.956 . S
O1079 C1054 1.325 . S
H1080 C1022 0.929 . S
H1081 C1023 0.930 . S
H1082 C1024 0.930 . S
H1083 C1025 0.930 . S
H1084 C1027 0.930 . S
H1085 C1029 0.929 . S
H1086 C1030 0.930 . S
H1087 C1031 0.930 . S
H1088 C1034 0.930 . S
H1089 C1037 0.929 . S
H1090 C1042 0.929 . S
H1091 C1043 0.930 . S
H1092 C1050 0.929 . S
H1093 C1051 0.930 . S
H1094 C1052 0.930 . S
H1095 C1053 0.930 . S
H1096 C1055 0.929 . S
H1097 C1056 0.930 . S
H1098 C1057 0.930 . S
H1099 C1058 0.930 . S
H1100 C1062 0.929 . S
H1101 C1064 0.930 . S
H1102 C1070 0.929 . S
H1103 C1071 0.930 . S
Li1104 N1121 1.990 . S
Li1104 O1164 1.956 . S
Li1104 O1165 1.970 . S
Li1104 O1166 1.961 . S
Li1105 N1129 1.990 . S
Li1105 O1164 1.970 . S
Li1105 O1165 1.956 . S
Li1105 O1167 1.961 . S
Li1106 N1151 1.990 . S
Li1106 O1164 1.961 . S
Li1106 O1166 1.956 . S
Li1106 O1167 1.970 . S
Li1107 N1157 1.990 . S
Li1107 O1165 1.961 . S
Li1107 O1166 1.970 . S
Li1107 O1167 1.956 . S
C1108 C1110 1.348 . S
C1108 C1111 1.356 . S
C1108 O1164 1.325 . S
N1109 C1112 1.314 . S
N1109 C1113 1.279 . S
C1110 C1108 1.348 . S
C1110 C1112 1.353 . S
C1110 H1168 0.929 . S
C1111 C1108 1.356 . S
C1111 C1113 1.358 . S
C1111 H1169 0.930 . S
C1112 N1109 1.314 . S
C1112 C1110 1.353 . S
C1112 H1170 0.930 . S
C1113 N1109 1.279 . S
C1113 C1111 1.358 . S
C1113 H1171 0.930 . S
C1114 C1117 1.348 . S
C1114 C1118 1.356 . S
C1114 O1165 1.325 . S
C1115 N1116 1.279 . S
C1115 C1118 1.358 . S
C1115 H1172 0.930 . S
N1116 C1115 1.279 . S
N1116 C1119 1.314 . S
C1117 C1114 1.348 . S
C1117 C1119 1.353 . S
C1117 H1173 0.929 . S
C1118 C1114 1.356 . S
C1118 C1115 1.358 . S
C1118 H1174 0.930 . S
C1119 N1116 1.314 . S
C1119 C1117 1.353 . S
C1119 H1175 0.930 . S
C1120 N1121 1.314 . S
C1120 C1125 1.353 . S
C1120 H1126 0.930 . S
N1121 Li1104 1.990 . S
N1121 C1120 1.314 . S
N1121 C1123 1.279 . S
C1122 C1123 1.358 . S
C1122 C1124 1.356 . S
C1122 H1176 0.930 . S
C1123 N1121 1.279 . S
C1123 C1122 1.358 . S
C1123 H1127 0.930 . S
C1124 C1122 1.356 . S
C1124 C1125 1.348 . S
C1125 C1120 1.353 . S
C1125 C1124 1.348 . S
C1125 H1177 0.929 . S
H1126 C1120 0.930 . S
H1127 C1123 0.930 . S
C1128 N1129 1.314 . S
C1128 C1130 1.353 . S
C1128 H1134 0.930 . S
N1129 Li1105 1.990 . S
N1129 C1128 1.314 . S
N1129 C1132 1.279 . S
C1130 C1128 1.353 . S
C1130 C1133 1.348 . S
C1130 H1178 0.929 . S
C1131 C1132 1.358 . S
C1131 C1133 1.356 . S
C1131 H1179 0.930 . S
C1132 N1129 1.279 . S
C1132 C1131 1.358 . S
C1132 H1135 0.930 . S
C1133 C1130 1.348 . S
C1133 C1131 1.356 . S
H1134 C1128 0.930 . S
H1135 C1132 0.930 . S
C1136 C1138 1.348 . S
C1136 C1139 1.356 . S
C1136 O1166 1.325 . S
N1137 C1140 1.314 . S
N1137 C1141 1.279 . S
C1138 C1136 1.348 . S
C1138 C1140 1.353 . S
C1138 H1180 0.929 . S
C1139 C1136 1.356 . S
C1139 C1141 1.358 . S
C1139 H1181 0.930 . S
C1140 N1137 1.314 . S
C1140 C1138 1.353 . S
C1140 H1182 0.930 . S
C1141 N1137 1.279 . S
C1141 C1139 1.358 . S
C1141 H1183 0.930 . S
C1142 C1143 1.348 . S
C1142 C1144 1.356 . S
C1142 O1167 1.325 . S
C1143 C1142 1.348 . S
C1143 C1145 1.353 . S
C1143 H1184 0.929 . S
C1144 C1142 1.356 . S
C1144 C1146 1.358 . S
C1144 H1185 0.930 . S
C1145 C1143 1.353 . S
C1145 N1147 1.314 . S
C1145 H1186 0.930 . S
C1146 C1144 1.358 . S
C1146 N1147 1.279 . S
C1146 H1187 0.930 . S
N1147 C1145 1.314 . S
N1147 C1146 1.279 . S
C1148 C1150 1.353 . S
C1148 N1151 1.314 . S
C1148 H1154 0.930 . S
C1149 N1151 1.279 . S
C1149 C1152 1.358 . S
C1149 H1155 0.930 . S
C1150 C1148 1.353 . S
C1150 C1153 1.348 . S
C1150 H1188 0.929 . S
N1151 Li1106 1.990 . S
N1151 C1148 1.314 . S
N1151 C1149 1.279 . S
C1152 C1149 1.358 . S
C1152 C1153 1.356 . S
C1152 H1189 0.930 . S
C1153 C1150 1.348 . S
C1153 C1152 1.356 . S
H1154 C1148 0.930 . S
H1155 C1149 0.930 . S
C1156 N1157 1.314 . S
C1156 C1158 1.353 . S
C1156 H1162 0.930 . S
N1157 Li1107 1.990 . S
N1157 C1156 1.314 . S
N1157 C1160 1.279 . S
C1158 C1156 1.353 . S
C1158 C1161 1.348 . S
C1158 H1190 0.929 . S
C1159 C1160 1.358 . S
C1159 C1161 1.356 . S
C1159 H1191 0.930 . S
C1160 N1157 1.279 . S
C1160 C1159 1.358 . S
C1160 H1163 0.930 . S
C1161 C1158 1.348 . S
C1161 C1159 1.356 . S
H1162 C1156 0.930 . S
H1163 C1160 0.930 . S
O1164 Li1104 1.956 . S
O1164 Li1105 1.970 . S
O1164 Li1106 1.961 . S
O1164 C1108 1.325 . S
O1165 Li1104 1.970 . S
O1165 Li1105 1.956 . S
O1165 Li1107 1.961 . S
O1165 C1114 1.325 . S
O1166 Li1104 1.961 . S
O1166 Li1106 1.956 . S
O1166 Li1107 1.970 . S
O1166 C1136 1.325 . S
O1167 Li1105 1.961 . S
O1167 Li1106 1.970 . S
O1167 Li1107 1.956 . S
O1167 C1142 1.325 . S
H1168 C1110 0.929 . S
H1169 C1111 0.930 . S
H1170 C1112 0.930 . S
H1171 C1113 0.930 . S
H1172 C1115 0.930 . S
H1173 C1117 0.929 . S
H1174 C1118 0.930 . S
H1175 C1119 0.930 . S
H1176 C1122 0.930 . S
H1177 C1125 0.929 . S
H1178 C1130 0.929 . S
H1179 C1131 0.930 . S
H1180 C1138 0.929 . S
H1181 C1139 0.930 . S
H1182 C1140 0.930 . S
H1183 C1141 0.930 . S
H1184 C1143 0.929 . S
H1185 C1144 0.930 . S
H1186 C1145 0.930 . S
H1187 C1146 0.930 . S
H1188 C1150 0.929 . S
H1189 C1152 0.930 . S
H1190 C1158 0.929 . S
H1191 C1159 0.930 . S
Li1192 N1209 1.990 . S
Li1192 O1252 1.956 . S
Li1192 O1253 1.970 1_565 S
Li1192 O1254 1.961 . S
Li1193 N1217 1.990 . S
Li1193 O1252 1.970 1_545 S
Li1193 O1253 1.956 . S
Li1193 O1255 1.961 . S
Li1194 N1239 1.990 . S
Li1194 O1252 1.961 . S
Li1194 O1254 1.956 . S
Li1194 O1255 1.970 1_565 S
Li1195 N1245 1.990 . S
Li1195 O1253 1.961 . S
Li1195 O1254 1.970 1_545 S
Li1195 O1255 1.956 . S
C1196 C1198 1.348 . S
C1196 C1199 1.356 . S
C1196 O1252 1.325 . S
N1197 C1200 1.314 . S
N1197 C1201 1.279 . S
C1198 C1196 1.348 . S
C1198 C1200 1.353 . S
C1198 H1256 0.929 . S
C1199 C1196 1.356 . S
C1199 C1201 1.358 . S
C1199 H1257 0.930 . S
C1200 N1197 1.314 . S
C1200 C1198 1.353 . S
C1200 H1258 0.930 . S
C1201 N1197 1.279 . S
C1201 C1199 1.358 . S
C1201 H1259 0.930 . S
C1202 C1205 1.348 1_545 S
C1202 C1206 1.356 . S
C1202 O1253 1.325 . S
C1203 N1204 1.279 . S
C1203 C1206 1.358 . S
C1203 H1260 0.930 . S
N1204 C1203 1.279 . S
N1204 C1207 1.314 1_545 S
C1205 C1202 1.348 1_565 S
C1205 C1207 1.353 . S
C1205 H1261 0.929 . S
C1206 C1202 1.356 . S
C1206 C1203 1.358 . S
C1206 H1262 0.930 . S
C1207 N1204 1.314 1_565 S
C1207 C1205 1.353 . S
C1207 H1263 0.930 . S
C1208 N1209 1.314 . S
C1208 C1213 1.353 . S
C1208 H1214 0.930 . S
N1209 Li1192 1.990 . S
N1209 C1208 1.314 . S
N1209 C1211 1.279 . S
C1210 C1211 1.358 . S
C1210 C1212 1.356 . S
C1210 H1264 0.930 . S
C1211 N1209 1.279 . S
C1211 C1210 1.358 . S
C1211 H1215 0.930 . S
C1212 C1210 1.356 . S
C1212 C1213 1.348 . S
C1213 C1208 1.353 . S
C1213 C1212 1.348 . S
C1213 H1265 0.929 . S
H1214 C1208 0.930 . S
H1215 C1211 0.930 . S
C1216 N1217 1.314 . S
C1216 C1218 1.353 . S
C1216 H1222 0.930 . S
N1217 Li1193 1.990 . S
N1217 C1216 1.314 . S
N1217 C1220 1.279 . S
C1218 C1216 1.353 . S
C1218 C1221 1.348 . S
C1218 H1266 0.929 . S
C1219 C1220 1.358 . S
C1219 C1221 1.356 . S
C1219 H1267 0.930 . S
C1220 N1217 1.279 . S
C1220 C1219 1.358 . S
C1220 H1223 0.930 . S
C1221 C1218 1.348 . S
C1221 C1219 1.356 . S
H1222 C1216 0.930 . S
H1223 C1220 0.930 . S
C1224 C1226 1.348 1_565 S
C1224 C1227 1.356 . S
C1224 O1254 1.325 . S
N1225 C1228 1.314 1_565 S
N1225 C1229 1.279 . S
C1226 C1224 1.348 1_545 S
C1226 C1228 1.353 . S
C1226 H1268 0.929 . S
C1227 C1224 1.356 . S
C1227 C1229 1.358 . S
C1227 H1269 0.930 . S
C1228 N1225 1.314 1_545 S
C1228 C1226 1.353 . S
C1228 H1270 0.930 . S
C1229 N1225 1.279 . S
C1229 C1227 1.358 . S
C1229 H1271 0.930 . S
C1230 C1231 1.348 . S
C1230 C1232 1.356 . S
C1230 O1255 1.325 . S
C1231 C1230 1.348 . S
C1231 C1233 1.353 . S
C1231 H1272 0.929 . S
C1232 C1230 1.356 . S
C1232 C1234 1.358 . S
C1232 H1273 0.930 . S
C1233 C1231 1.353 . S
C1233 N1235 1.314 . S
C1233 H1274 0.930 . S
C1234 C1232 1.358 . S
C1234 N1235 1.279 . S
C1234 H1275 0.930 . S
N1235 C1233 1.314 . S
N1235 C1234 1.279 . S
C1236 C1238 1.353 . S
C1236 N1239 1.314 . S
C1236 H1242 0.930 . S
C1237 N1239 1.279 . S
C1237 C1240 1.358 . S
C1237 H1243 0.930 . S
C1238 C1236 1.353 . S
C1238 C1241 1.348 . S
C1238 H1276 0.929 . S
N1239 Li1194 1.990 . S
N1239 C1236 1.314 . S
N1239 C1237 1.279 . S
C1240 C1237 1.358 . S
C1240 C1241 1.356 . S
C1240 H1277 0.930 . S
C1241 C1238 1.348 . S
C1241 C1240 1.356 . S
H1242 C1236 0.930 . S
H1243 C1237 0.930 . S
C1244 N1245 1.314 . S
C1244 C1246 1.353 . S
C1244 H1250 0.930 . S
N1245 Li1195 1.990 . S
N1245 C1244 1.314 . S
N1245 C1248 1.279 . S
C1246 C1244 1.353 . S
C1246 C1249 1.348 . S
C1246 H1278 0.929 . S
C1247 C1248 1.358 . S
C1247 C1249 1.356 . S
C1247 H1279 0.930 . S
C1248 N1245 1.279 . S
C1248 C1247 1.358 . S
C1248 H1251 0.930 . S
C1249 C1246 1.348 . S
C1249 C1247 1.356 . S
H1250 C1244 0.930 . S
H1251 C1248 0.930 . S
O1252 Li1192 1.956 . S
O1252 Li1193 1.970 1_565 S
O1252 Li1194 1.961 . S
O1252 C1196 1.325 . S
O1253 Li1192 1.970 1_545 S
O1253 Li1193 1.956 . S
O1253 Li1195 1.961 . S
O1253 C1202 1.325 . S
O1254 Li1192 1.961 . S
O1254 Li1194 1.956 . S
O1254 Li1195 1.970 1_565 S
O1254 C1224 1.325 . S
O1255 Li1193 1.961 . S
O1255 Li1194 1.970 1_545 S
O1255 Li1195 1.956 . S
O1255 C1230 1.325 . S
H1256 C1198 0.929 . S
H1257 C1199 0.930 . S
H1258 C1200 0.930 . S
H1259 C1201 0.930 . S
H1260 C1203 0.930 . S
H1261 C1205 0.929 . S
H1262 C1206 0.930 . S
H1263 C1207 0.930 . S
H1264 C1210 0.930 . S
H1265 C1213 0.929 . S
H1266 C1218 0.929 . S
H1267 C1219 0.930 . S
H1268 C1226 0.929 . S
H1269 C1227 0.930 . S
H1270 C1228 0.930 . S
H1271 C1229 0.930 . S
H1272 C1231 0.929 . S
H1273 C1232 0.930 . S
H1274 C1233 0.930 . S
H1275 C1234 0.930 . S
H1276 C1238 0.929 . S
H1277 C1240 0.930 . S
H1278 C1246 0.929 . S
H1279 C1247 0.930 . S
Li1280 N1297 1.990 . S
Li1280 O1340 1.956 . S
Li1280 O1341 1.970 1_455 S
Li1280 O1342 1.961 . S
Li1281 N1305 1.990 . S
Li1281 O1340 1.970 1_655 S
Li1281 O1341 1.956 . S
Li1281 O1343 1.961 . S
Li1282 N1327 1.990 . S
Li1282 O1340 1.961 . S
Li1282 O1342 1.956 . S
Li1282 O1343 1.970 1_455 S
Li1283 N1333 1.990 . S
Li1283 O1341 1.961 . S
Li1283 O1342 1.970 1_655 S
Li1283 O1343 1.956 . S
C1284 C1286 1.348 . S
C1284 C1287 1.356 . S
C1284 O1340 1.325 . S
N1285 C1288 1.314 . S
N1285 C1289 1.279 . S
C1286 C1284 1.348 . S
C1286 C1288 1.353 . S
C1286 H1344 0.929 . S
C1287 C1284 1.356 . S
C1287 C1289 1.358 . S
C1287 H1345 0.930 . S
C1288 N1285 1.314 . S
C1288 C1286 1.353 . S
C1288 H1346 0.930 . S
C1289 N1285 1.279 . S
C1289 C1287 1.358 . S
C1289 H1347 0.930 . S
C1290 C1293 1.348 1_655 S
C1290 C1294 1.356 . S
C1290 O1341 1.325 . S
C1291 N1292 1.279 . S
C1291 C1294 1.358 . S
C1291 H1348 0.930 . S
N1292 C1291 1.279 . S
N1292 C1295 1.314 1_655 S
C1293 C1290 1.348 1_455 S
C1293 C1295 1.353 . S
C1293 H1349 0.929 . S
C1294 C1290 1.356 . S
C1294 C1291 1.358 . S
C1294 H1350 0.930 . S
C1295 N1292 1.314 1_455 S
C1295 C1293 1.353 . S
C1295 H1351 0.930 . S
C1296 N1297 1.314 . S
C1296 C1301 1.353 . S
C1296 H1302 0.930 . S
N1297 Li1280 1.990 . S
N1297 C1296 1.314 . S
N1297 C1299 1.279 . S
C1298 C1299 1.358 . S
C1298 C1300 1.356 . S
C1298 H1352 0.930 . S
C1299 N1297 1.279 . S
C1299 C1298 1.358 . S
C1299 H1303 0.930 . S
C1300 C1298 1.356 . S
C1300 C1301 1.348 . S
C1301 C1296 1.353 . S
C1301 C1300 1.348 . S
C1301 H1353 0.929 . S
H1302 C1296 0.930 . S
H1303 C1299 0.930 . S
C1304 N1305 1.314 . S
C1304 C1306 1.353 . S
C1304 H1310 0.930 . S
N1305 Li1281 1.990 . S
N1305 C1304 1.314 . S
N1305 C1308 1.279 . S
C1306 C1304 1.353 . S
C1306 C1309 1.348 . S
C1306 H1354 0.929 . S
C1307 C1308 1.358 . S
C1307 C1309 1.356 . S
C1307 H1355 0.930 . S
C1308 N1305 1.279 . S
C1308 C1307 1.358 . S
C1308 H1311 0.930 . S
C1309 C1306 1.348 . S
C1309 C1307 1.356 . S
H1310 C1304 0.930 . S
H1311 C1308 0.930 . S
C1312 C1314 1.348 1_455 S
C1312 C1315 1.356 . S
C1312 O1342 1.325 . S
N1313 C1316 1.314 1_455 S
N1313 C1317 1.279 . S
C1314 C1312 1.348 1_655 S
C1314 C1316 1.353 . S
C1314 H1356 0.929 . S
C1315 C1312 1.356 . S
C1315 C1317 1.358 . S
C1315 H1357 0.930 . S
C1316 N1313 1.314 1_655 S
C1316 C1314 1.353 . S
C1316 H1358 0.930 . S
C1317 N1313 1.279 . S
C1317 C1315 1.358 . S
C1317 H1359 0.930 . S
C1318 C1319 1.348 . S
C1318 C1320 1.356 . S
C1318 O1343 1.325 . S
C1319 C1318 1.348 . S
C1319 C1321 1.353 . S
C1319 H1360 0.929 . S
C1320 C1318 1.356 . S
C1320 C1322 1.358 . S
C1320 H1361 0.930 . S
C1321 C1319 1.353 . S
C1321 N1323 1.314 . S
C1321 H1362 0.930 . S
C1322 C1320 1.358 . S
C1322 N1323 1.279 . S
C1322 H1363 0.930 . S
N1323 C1321 1.314 . S
N1323 C1322 1.279 . S
C1324 C1326 1.353 . S
C1324 N1327 1.314 . S
C1324 H1330 0.930 . S
C1325 N1327 1.279 . S
C1325 C1328 1.358 . S
C1325 H1331 0.930 . S
C1326 C1324 1.353 . S
C1326 C1329 1.348 . S
C1326 H1364 0.929 . S
N1327 Li1282 1.990 . S
N1327 C1324 1.314 . S
N1327 C1325 1.279 . S
C1328 C1325 1.358 . S
C1328 C1329 1.356 . S
C1328 H1365 0.930 . S
C1329 C1326 1.348 . S
C1329 C1328 1.356 . S
H1330 C1324 0.930 . S
H1331 C1325 0.930 . S
C1332 N1333 1.314 . S
C1332 C1334 1.353 . S
C1332 H1338 0.930 . S
N1333 Li1283 1.990 . S
N1333 C1332 1.314 . S
N1333 C1336 1.279 . S
C1334 C1332 1.353 . S
C1334 C1337 1.348 . S
C1334 H1366 0.929 . S
C1335 C1336 1.358 . S
C1335 C1337 1.356 . S
C1335 H1367 0.930 . S
C1336 N1333 1.279 . S
C1336 C1335 1.358 . S
C1336 H1339 0.930 . S
C1337 C1334 1.348 . S
C1337 C1335 1.356 . S
H1338 C1332 0.930 . S
H1339 C1336 0.930 . S
O1340 Li1280 1.956 . S
O1340 Li1281 1.970 1_455 S
O1340 Li1282 1.961 . S
O1340 C1284 1.325 . S
O1341 Li1280 1.970 1_655 S
O1341 Li1281 1.956 . S
O1341 Li1283 1.961 . S
O1341 C1290 1.325 . S
O1342 Li1280 1.961 . S
O1342 Li1282 1.956 . S
O1342 Li1283 1.970 1_455 S
O1342 C1312 1.325 . S
O1343 Li1281 1.961 . S
O1343 Li1282 1.970 1_655 S
O1343 Li1283 1.956 . S
O1343 C1318 1.325 . S
H1344 C1286 0.929 . S
H1345 C1287 0.930 . S
H1346 C1288 0.930 . S
H1347 C1289 0.930 . S
H1348 C1291 0.930 . S
H1349 C1293 0.929 . S
H1350 C1294 0.930 . S
H1351 C1295 0.930 . S
H1352 C1298 0.930 . S
H1353 C1301 0.929 . S
H1354 C1306 0.929 . S
H1355 C1307 0.930 . S
H1356 C1314 0.929 . S
H1357 C1315 0.930 . S
H1358 C1316 0.930 . S
H1359 C1317 0.930 . S
H1360 C1319 0.929 . S
H1361 C1320 0.930 . S
H1362 C1321 0.930 . S
H1363 C1322 0.930 . S
H1364 C1326 0.929 . S
H1365 C1328 0.930 . S
H1366 C1334 0.929 . S
H1367 C1335 0.930 . S
Li1368 N1385 1.990 . S
Li1368 O1428 1.956 . S
Li1368 O1429 1.970 . S
Li1368 O1430 1.961 . S
Li1369 N1393 1.990 . S
Li1369 O1428 1.970 . S
Li1369 O1429 1.956 . S
Li1369 O1431 1.961 . S
Li1370 N1415 1.990 . S
Li1370 O1428 1.961 . S
Li1370 O1430 1.956 . S
Li1370 O1431 1.970 . S
Li1371 N1421 1.990 . S
Li1371 O1429 1.961 . S
Li1371 O1430 1.970 . S
Li1371 O1431 1.956 . S
C1372 C1374 1.348 . S
C1372 C1375 1.356 . S
C1372 O1428 1.325 . S
N1373 C1376 1.314 . S
N1373 C1377 1.279 . S
C1374 C1372 1.348 . S
C1374 C1376 1.353 . S
C1374 H1432 0.929 . S
C1375 C1372 1.356 . S
C1375 C1377 1.358 . S
C1375 H1433 0.930 . S
C1376 N1373 1.314 . S
C1376 C1374 1.353 . S
C1376 H1434 0.930 . S
C1377 N1373 1.279 . S
C1377 C1375 1.358 . S
C1377 H1435 0.930 . S
C1378 C1381 1.348 . S
C1378 C1382 1.356 . S
C1378 O1429 1.325 . S
C1379 N1380 1.279 . S
C1379 C1382 1.358 . S
C1379 H1436 0.930 . S
N1380 C1379 1.279 . S
N1380 C1383 1.314 . S
C1381 C1378 1.348 . S
C1381 C1383 1.353 . S
C1381 H1437 0.929 . S
C1382 C1378 1.356 . S
C1382 C1379 1.358 . S
C1382 H1438 0.930 . S
C1383 N1380 1.314 . S
C1383 C1381 1.353 . S
C1383 H1439 0.930 . S
C1384 N1385 1.314 . S
C1384 C1389 1.353 . S
C1384 H1390 0.930 . S
N1385 Li1368 1.990 . S
N1385 C1384 1.314 . S
N1385 C1387 1.279 . S
C1386 C1387 1.358 . S
C1386 C1388 1.356 . S
C1386 H1440 0.930 . S
C1387 N1385 1.279 . S
C1387 C1386 1.358 . S
C1387 H1391 0.930 . S
C1388 C1386 1.356 . S
C1388 C1389 1.348 . S
C1389 C1384 1.353 . S
C1389 C1388 1.348 . S
C1389 H1441 0.929 . S
H1390 C1384 0.930 . S
H1391 C1387 0.930 . S
C1392 N1393 1.314 . S
C1392 C1394 1.353 . S
C1392 H1398 0.930 . S
N1393 Li1369 1.990 . S
N1393 C1392 1.314 . S
N1393 C1396 1.279 . S
C1394 C1392 1.353 . S
C1394 C1397 1.348 . S
C1394 H1442 0.929 . S
C1395 C1396 1.358 . S
C1395 C1397 1.356 . S
C1395 H1443 0.930 . S
C1396 N1393 1.279 . S
C1396 C1395 1.358 . S
C1396 H1399 0.930 . S
C1397 C1394 1.348 . S
C1397 C1395 1.356 . S
H1398 C1392 0.930 . S
H1399 C1396 0.930 . S
C1400 C1402 1.348 . S
C1400 C1403 1.356 . S
C1400 O1430 1.325 . S
N1401 C1404 1.314 . S
N1401 C1405 1.279 . S
C1402 C1400 1.348 . S
C1402 C1404 1.353 . S
C1402 H1444 0.929 . S
C1403 C1400 1.356 . S
C1403 C1405 1.358 . S
C1403 H1445 0.930 . S
C1404 N1401 1.314 . S
C1404 C1402 1.353 . S
C1404 H1446 0.930 . S
C1405 N1401 1.279 . S
C1405 C1403 1.358 . S
C1405 H1447 0.930 . S
C1406 C1407 1.348 . S
C1406 C1408 1.356 . S
C1406 O1431 1.325 . S
C1407 C1406 1.348 . S
C1407 C1409 1.353 . S
C1407 H1448 0.929 . S
C1408 C1406 1.356 . S
C1408 C1410 1.358 . S
C1408 H1449 0.930 . S
C1409 C1407 1.353 . S
C1409 N1411 1.314 . S
C1409 H1450 0.930 . S
C1410 C1408 1.358 . S
C1410 N1411 1.279 . S
C1410 H1451 0.930 . S
N1411 C1409 1.314 . S
N1411 C1410 1.279 . S
C1412 C1414 1.353 . S
C1412 N1415 1.314 . S
C1412 H1418 0.930 . S
C1413 N1415 1.279 . S
C1413 C1416 1.358 . S
C1413 H1419 0.930 . S
C1414 C1412 1.353 . S
C1414 C1417 1.348 . S
C1414 H1452 0.929 . S
N1415 Li1370 1.990 . S
N1415 C1412 1.314 . S
N1415 C1413 1.279 . S
C1416 C1413 1.358 . S
C1416 C1417 1.356 . S
C1416 H1453 0.930 . S
C1417 C1414 1.348 . S
C1417 C1416 1.356 . S
H1418 C1412 0.930 . S
H1419 C1413 0.930 . S
C1420 N1421 1.314 . S
C1420 C1422 1.353 . S
C1420 H1426 0.930 . S
N1421 Li1371 1.990 . S
N1421 C1420 1.314 . S
N1421 C1424 1.279 . S
C1422 C1420 1.353 . S
C1422 C1425 1.348 . S
C1422 H1454 0.929 . S
C1423 C1424 1.358 . S
C1423 C1425 1.356 . S
C1423 H1455 0.930 . S
C1424 N1421 1.279 . S
C1424 C1423 1.358 . S
C1424 H1427 0.930 . S
C1425 C1422 1.348 . S
C1425 C1423 1.356 . S
H1426 C1420 0.930 . S
H1427 C1424 0.930 . S
O1428 Li1368 1.956 . S
O1428 Li1369 1.970 . S
O1428 Li1370 1.961 . S
O1428 C1372 1.325 . S
O1429 Li1368 1.970 . S
O1429 Li1369 1.956 . S
O1429 Li1371 1.961 . S
O1429 C1378 1.325 . S
O1430 Li1368 1.961 . S
O1430 Li1370 1.956 . S
O1430 Li1371 1.970 . S
O1430 C1400 1.325 . S
O1431 Li1369 1.961 . S
O1431 Li1370 1.970 . S
O1431 Li1371 1.956 . S
O1431 C1406 1.325 . S
H1432 C1374 0.929 . S
H1433 C1375 0.930 . S
H1434 C1376 0.930 . S
H1435 C1377 0.930 . S
H1436 C1379 0.930 . S
H1437 C1381 0.929 . S
H1438 C1382 0.930 . S
H1439 C1383 0.930 . S
H1440 C1386 0.930 . S
H1441 C1389 0.929 . S
H1442 C1394 0.929 . S
H1443 C1395 0.930 . S
H1444 C1402 0.929 . S
H1445 C1403 0.930 . S
H1446 C1404 0.930 . S
H1447 C1405 0.930 . S
H1448 C1407 0.929 . S
H1449 C1408 0.930 . S
H1450 C1409 0.930 . S
H1451 C1410 0.930 . S
H1452 C1414 0.929 . S
H1453 C1416 0.930 . S
H1454 C1422 0.929 . S
H1455 C1423 0.930 . S
Li1456 N1473 1.990 . S
Li1456 O1516 1.956 . S
Li1456 O1517 1.970 1_455 S
Li1456 O1518 1.961 . S
Li1457 N1481 1.990 . S
Li1457 O1516 1.970 1_655 S
Li1457 O1517 1.956 . S
Li1457 O1519 1.961 . S
Li1458 N1503 1.990 . S
Li1458 O1516 1.961 . S
Li1458 O1518 1.956 . S
Li1458 O1519 1.970 1_455 S
Li1459 N1509 1.990 . S
Li1459 O1517 1.961 . S
Li1459 O1518 1.970 1_655 S
Li1459 O1519 1.956 . S
C1460 C1462 1.348 1_455 S
C1460 C1463 1.356 . S
C1460 O1516 1.325 . S
N1461 C1464 1.314 1_455 S
N1461 C1465 1.279 . S
C1462 C1460 1.348 1_655 S
C1462 C1464 1.353 . S
C1462 H1520 0.929 . S
C1463 C1460 1.356 . S
C1463 C1465 1.358 . S
C1463 H1521 0.930 . S
C1464 N1461 1.314 1_655 S
C1464 C1462 1.353 . S
C1464 H1522 0.930 . S
C1465 N1461 1.279 . S
C1465 C1463 1.358 . S
C1465 H1523 0.930 . S
C1466 C1469 1.348 . S
C1466 C1470 1.356 . S
C1466 O1517 1.325 . S
C1467 N1468 1.279 . S
C1467 C1470 1.358 . S
C1467 H1524 0.930 . S
N1468 C1467 1.279 . S
N1468 C1471 1.314 . S
C1469 C1466 1.348 . S
C1469 C1471 1.353 . S
C1469 H1525 0.929 . S
C1470 C1466 1.356 . S
C1470 C1467 1.358 . S
C1470 H1526 0.930 . S
C1471 N1468 1.314 . S
C1471 C1469 1.353 . S
C1471 H1527 0.930 . S
C1472 N1473 1.314 . S
C1472 C1477 1.353 . S
C1472 H1478 0.930 . S
N1473 Li1456 1.990 . S
N1473 C1472 1.314 . S
N1473 C1475 1.279 . S
C1474 C1475 1.358 . S
C1474 C1476 1.356 . S
C1474 H1528 0.930 . S
C1475 N1473 1.279 . S
C1475 C1474 1.358 . S
C1475 H1479 0.930 . S
C1476 C1474 1.356 . S
C1476 C1477 1.348 . S
C1477 C1472 1.353 . S
C1477 C1476 1.348 . S
C1477 H1529 0.929 . S
H1478 C1472 0.930 . S
H1479 C1475 0.930 . S
C1480 N1481 1.314 . S
C1480 C1482 1.353 . S
C1480 H1486 0.930 . S
N1481 Li1457 1.990 . S
N1481 C1480 1.314 . S
N1481 C1484 1.279 . S
C1482 C1480 1.353 . S
C1482 C1485 1.348 . S
C1482 H1530 0.929 . S
C1483 C1484 1.358 . S
C1483 C1485 1.356 . S
C1483 H1531 0.930 . S
C1484 N1481 1.279 . S
C1484 C1483 1.358 . S
C1484 H1487 0.930 . S
C1485 C1482 1.348 . S
C1485 C1483 1.356 . S
H1486 C1480 0.930 . S
H1487 C1484 0.930 . S
C1488 C1490 1.348 . S
C1488 C1491 1.356 . S
C1488 O1518 1.325 . S
N1489 C1492 1.314 . S
N1489 C1493 1.279 . S
C1490 C1488 1.348 . S
C1490 C1492 1.353 . S
C1490 H1532 0.929 . S
C1491 C1488 1.356 . S
C1491 C1493 1.358 . S
C1491 H1533 0.930 . S
C1492 N1489 1.314 . S
C1492 C1490 1.353 . S
C1492 H1534 0.930 . S
C1493 N1489 1.279 . S
C1493 C1491 1.358 . S
C1493 H1535 0.930 . S
C1494 C1495 1.348 1_655 S
C1494 C1496 1.356 . S
C1494 O1519 1.325 . S
C1495 C1494 1.348 1_455 S
C1495 C1497 1.353 . S
C1495 H1536 0.929 . S
C1496 C1494 1.356 . S
C1496 C1498 1.358 . S
C1496 H1537 0.930 . S
C1497 C1495 1.353 . S
C1497 N1499 1.314 1_455 S
C1497 H1538 0.930 . S
C1498 C1496 1.358 . S
C1498 N1499 1.279 . S
C1498 H1539 0.930 . S
N1499 C1497 1.314 1_655 S
N1499 C1498 1.279 . S
C1500 C1502 1.353 . S
C1500 N1503 1.314 . S
C1500 H1506 0.930 . S
C1501 N1503 1.279 . S
C1501 C1504 1.358 . S
C1501 H1507 0.930 . S
C1502 C1500 1.353 . S
C1502 C1505 1.348 . S
C1502 H1540 0.929 . S
N1503 Li1458 1.990 . S
N1503 C1500 1.314 . S
N1503 C1501 1.279 . S
C1504 C1501 1.358 . S
C1504 C1505 1.356 . S
C1504 H1541 0.930 . S
C1505 C1502 1.348 . S
C1505 C1504 1.356 . S
H1506 C1500 0.930 . S
H1507 C1501 0.930 . S
C1508 N1509 1.314 . S
C1508 C1510 1.353 . S
C1508 H1514 0.930 . S
N1509 Li1459 1.990 . S
N1509 C1508 1.314 . S
N1509 C1512 1.279 . S
C1510 C1508 1.353 . S
C1510 C1513 1.348 . S
C1510 H1542 0.929 . S
C1511 C1512 1.358 . S
C1511 C1513 1.356 . S
C1511 H1543 0.930 . S
C1512 N1509 1.279 . S
C1512 C1511 1.358 . S
C1512 H1515 0.930 . S
C1513 C1510 1.348 . S
C1513 C1511 1.356 . S
H1514 C1508 0.930 . S
H1515 C1512 0.930 . S
O1516 Li1456 1.956 . S
O1516 Li1457 1.970 1_455 S
O1516 Li1458 1.961 . S
O1516 C1460 1.325 . S
O1517 Li1456 1.970 1_655 S
O1517 Li1457 1.956 . S
O1517 Li1459 1.961 . S
O1517 C1466 1.325 . S
O1518 Li1456 1.961 . S
O1518 Li1458 1.956 . S
O1518 Li1459 1.970 1_455 S
O1518 C1488 1.325 . S
O1519 Li1457 1.961 . S
O1519 Li1458 1.970 1_655 S
O1519 Li1459 1.956 . S
O1519 C1494 1.325 . S
H1520 C1462 0.929 . S
H1521 C1463 0.930 . S
H1522 C1464 0.930 . S
H1523 C1465 0.930 . S
H1524 C1467 0.930 . S
H1525 C1469 0.929 . S
H1526 C1470 0.930 . S
H1527 C1471 0.930 . S
H1528 C1474 0.930 . S
H1529 C1477 0.929 . S
H1530 C1482 0.929 . S
H1531 C1483 0.930 . S
H1532 C1490 0.929 . S
H1533 C1491 0.930 . S
H1534 C1492 0.930 . S
H1535 C1493 0.930 . S
H1536 C1495 0.929 . S
H1537 C1496 0.930 . S
H1538 C1497 0.930 . S
H1539 C1498 0.930 . S
H1540 C1502 0.929 . S
H1541 C1504 0.930 . S
H1542 C1510 0.929 . S
H1543 C1511 0.930 . S
Li1544 N1561 1.990 . S
Li1544 O1604 1.956 . S
Li1544 O1605 1.970 . S
Li1544 O1606 1.961 . S
Li1545 N1569 1.990 . S
Li1545 O1604 1.970 . S
Li1545 O1605 1.956 . S
Li1545 O1607 1.961 . S
Li1546 N1591 1.990 . S
Li1546 O1604 1.961 . S
Li1546 O1606 1.956 . S
Li1546 O1607 1.970 . S
Li1547 N1597 1.990 . S
Li1547 O1605 1.961 . S
Li1547 O1606 1.970 . S
Li1547 O1607 1.956 . S
C1548 C1550 1.348 . S
C1548 C1551 1.356 . S
C1548 O1604 1.325 . S
N1549 C1552 1.314 . S
N1549 C1553 1.279 . S
C1550 C1548 1.348 . S
C1550 C1552 1.353 . S
C1550 H1608 0.929 . S
C1551 C1548 1.356 . S
C1551 C1553 1.358 . S
C1551 H1609 0.930 . S
C1552 N1549 1.314 . S
C1552 C1550 1.353 . S
C1552 H1610 0.930 . S
C1553 N1549 1.279 . S
C1553 C1551 1.358 . S
C1553 H1611 0.930 . S
C1554 C1557 1.348 . S
C1554 C1558 1.356 . S
C1554 O1605 1.325 . S
C1555 N1556 1.279 . S
C1555 C1558 1.358 . S
C1555 H1612 0.930 . S
N1556 C1555 1.279 . S
N1556 C1559 1.314 . S
C1557 C1554 1.348 . S
C1557 C1559 1.353 . S
C1557 H1613 0.929 . S
C1558 C1554 1.356 . S
C1558 C1555 1.358 . S
C1558 H1614 0.930 . S
C1559 N1556 1.314 . S
C1559 C1557 1.353 . S
C1559 H1615 0.930 . S
C1560 N1561 1.314 . S
C1560 C1565 1.353 . S
C1560 H1566 0.930 . S
N1561 Li1544 1.990 . S
N1561 C1560 1.314 . S
N1561 C1563 1.279 . S
C1562 C1563 1.358 . S
C1562 C1564 1.356 . S
C1562 H1616 0.930 . S
C1563 N1561 1.279 . S
C1563 C1562 1.358 . S
C1563 H1567 0.930 . S
C1564 C1562 1.356 . S
C1564 C1565 1.348 . S
C1565 C1560 1.353 . S
C1565 C1564 1.348 . S
C1565 H1617 0.929 . S
H1566 C1560 0.930 . S
H1567 C1563 0.930 . S
C1568 N1569 1.314 . S
C1568 C1570 1.353 . S
C1568 H1574 0.930 . S
N1569 Li1545 1.990 . S
N1569 C1568 1.314 . S
N1569 C1572 1.279 . S
C1570 C1568 1.353 . S
C1570 C1573 1.348 . S
C1570 H1618 0.929 . S
C1571 C1572 1.358 . S
C1571 C1573 1.356 . S
C1571 H1619 0.930 . S
C1572 N1569 1.279 . S
C1572 C1571 1.358 . S
C1572 H1575 0.930 . S
C1573 C1570 1.348 . S
C1573 C1571 1.356 . S
H1574 C1568 0.930 . S
H1575 C1572 0.930 . S
C1576 C1578 1.348 . S
C1576 C1579 1.356 . S
C1576 O1606 1.325 . S
N1577 C1580 1.314 . S
N1577 C1581 1.279 . S
C1578 C1576 1.348 . S
C1578 C1580 1.353 . S
C1578 H1620 0.929 . S
C1579 C1576 1.356 . S
C1579 C1581 1.358 . S
C1579 H1621 0.930 . S
C1580 N1577 1.314 . S
C1580 C1578 1.353 . S
C1580 H1622 0.930 . S
C1581 N1577 1.279 . S
C1581 C1579 1.358 . S
C1581 H1623 0.930 . S
C1582 C1583 1.348 . S
C1582 C1584 1.356 . S
C1582 O1607 1.325 . S
C1583 C1582 1.348 . S
C1583 C1585 1.353 . S
C1583 H1624 0.929 . S
C1584 C1582 1.356 . S
C1584 C1586 1.358 . S
C1584 H1625 0.930 . S
C1585 C1583 1.353 . S
C1585 N1587 1.314 . S
C1585 H1626 0.930 . S
C1586 C1584 1.358 . S
C1586 N1587 1.279 . S
C1586 H1627 0.930 . S
N1587 C1585 1.314 . S
N1587 C1586 1.279 . S
C1588 C1590 1.353 . S
C1588 N1591 1.314 . S
C1588 H1594 0.930 . S
C1589 N1591 1.279 . S
C1589 C1592 1.358 . S
C1589 H1595 0.930 . S
C1590 C1588 1.353 . S
C1590 C1593 1.348 . S
C1590 H1628 0.929 . S
N1591 Li1546 1.990 . S
N1591 C1588 1.314 . S
N1591 C1589 1.279 . S
C1592 C1589 1.358 . S
C1592 C1593 1.356 . S
C1592 H1629 0.930 . S
C1593 C1590 1.348 . S
C1593 C1592 1.356 . S
H1594 C1588 0.930 . S
H1595 C1589 0.930 . S
C1596 N1597 1.314 . S
C1596 C1598 1.353 . S
C1596 H1602 0.930 . S
N1597 Li1547 1.990 . S
N1597 C1596 1.314 . S
N1597 C1600 1.279 . S
C1598 C1596 1.353 . S
C1598 C1601 1.348 . S
C1598 H1630 0.929 . S
C1599 C1600 1.358 . S
C1599 C1601 1.356 . S
C1599 H1631 0.930 . S
C1600 N1597 1.279 . S
C1600 C1599 1.358 . S
C1600 H1603 0.930 . S
C1601 C1598 1.348 . S
C1601 C1599 1.356 . S
H1602 C1596 0.930 . S
H1603 C1600 0.930 . S
O1604 Li1544 1.956 . S
O1604 Li1545 1.970 . S
O1604 Li1546 1.961 . S
O1604 C1548 1.325 . S
O1605 Li1544 1.970 . S
O1605 Li1545 1.956 . S
O1605 Li1547 1.961 . S
O1605 C1554 1.325 . S
O1606 Li1544 1.961 . S
O1606 Li1546 1.956 . S
O1606 Li1547 1.970 . S
O1606 C1576 1.325 . S
O1607 Li1545 1.961 . S
O1607 Li1546 1.970 . S
O1607 Li1547 1.956 . S
O1607 C1582 1.325 . S
H1608 C1550 0.929 . S
H1609 C1551 0.930 . S
H1610 C1552 0.930 . S
H1611 C1553 0.930 . S
H1612 C1555 0.930 . S
H1613 C1557 0.929 . S
H1614 C1558 0.930 . S
H1615 C1559 0.930 . S
H1616 C1562 0.930 . S
H1617 C1565 0.929 . S
H1618 C1570 0.929 . S
H1619 C1571 0.930 . S
H1620 C1578 0.929 . S
H1621 C1579 0.930 . S
H1622 C1580 0.930 . S
H1623 C1581 0.930 . S
H1624 C1583 0.929 . S
H1625 C1584 0.930 . S
H1626 C1585 0.930 . S
H1627 C1586 0.930 . S
H1628 C1590 0.929 . S
H1629 C1592 0.930 . S
H1630 C1598 0.929 . S
H1631 C1599 0.930 . S
H1632 C1644 0.930 . S
H1633 C1646 0.930 . S
H1634 C1647 0.930 . S
H1635 C1651 0.959 . S
H1636 C1651 0.959 . S
H1637 C1651 0.961 . S
H1638 C1652 0.960 . S
H1639 C1652 0.961 . S
H1640 C1652 0.959 . S
H1641 C1655 0.929 . S
H1642 C1656 0.931 . S
H1643 C1658 0.930 . S
C1644 H1632 0.930 . S
C1644 C1645 1.399 . S
C1644 C1649 1.399 . S
C1645 C1644 1.399 . S
C1645 C1646 1.376 . S
C1646 H1633 0.930 . S
C1646 C1645 1.376 . S
C1646 C1647 1.388 . S
C1647 H1634 0.930 . S
C1647 C1646 1.388 . S
C1647 C1648 1.390 . S
C1648 C1647 1.390 . S
C1648 C1649 1.394 . S
C1648 C1654 1.465 . S
C1649 C1644 1.399 . S
C1649 C1648 1.394 . S
C1649 C1650 1.516 . S
C1650 C1649 1.516 . S
C1650 C1651 1.502 . S
C1650 C1652 1.561 . S
C1650 C1653 1.526 . S
C1651 H1635 0.959 . S
C1651 H1636 0.959 . S
C1651 H1637 0.961 . S
C1651 C1650 1.502 . S
C1652 H1638 0.960 . S
C1652 H1639 0.961 . S
C1652 H1640 0.959 . S
C1652 C1650 1.561 . S
C1653 C1650 1.526 . S
C1653 C1654 1.396 . S
C1653 C1658 1.390 . S
C1654 C1648 1.465 . S
C1654 C1653 1.396 . S
C1654 C1655 1.399 . S
C1655 H1641 0.929 . S
C1655 C1654 1.399 . S
C1655 C1656 1.385 . S
C1656 H1642 0.931 . S
C1656 C1655 1.385 . S
C1656 C1657 1.389 . S
C1657 C1656 1.389 . S
C1657 C1658 1.387 . S
C1658 H1643 0.930 . S
C1658 C1653 1.390 . S
C1658 C1657 1.387 . S
H1659 C1671 0.930 . S
H1660 C1673 0.930 . S
H1661 C1674 0.930 . S
H1662 C1678 0.959 . S
H1663 C1678 0.959 . S
H1664 C1678 0.961 . S
H1665 C1679 0.960 . S
H1666 C1679 0.961 . S
H1667 C1679 0.959 . S
H1668 C1682 0.929 . S
H1669 C1683 0.931 . S
H1670 C1685 0.930 . S
C1671 H1659 0.930 . S
C1671 C1672 1.399 . S
C1671 C1676 1.399 . S
C1672 C1671 1.399 . S
C1672 C1673 1.376 . S
C1673 H1660 0.930 . S
C1673 C1672 1.376 . S
C1673 C1674 1.388 . S
C1674 H1661 0.930 . S
C1674 C1673 1.388 . S
C1674 C1675 1.390 . S
C1675 C1674 1.390 . S
C1675 C1676 1.394 . S
C1675 C1681 1.465 . S
C1676 C1671 1.399 . S
C1676 C1675 1.394 . S
C1676 C1677 1.516 . S
C1677 C1676 1.516 . S
C1677 C1678 1.502 . S
C1677 C1679 1.561 . S
C1677 C1680 1.526 . S
C1678 H1662 0.959 . S
C1678 H1663 0.959 . S
C1678 H1664 0.961 . S
C1678 C1677 1.502 . S
C1679 H1665 0.960 . S
C1679 H1666 0.961 . S
C1679 H1667 0.959 . S
C1679 C1677 1.561 . S
C1680 C1677 1.526 . S
C1680 C1681 1.396 . S
C1680 C1685 1.390 . S
C1681 C1675 1.465 . S
C1681 C1680 1.396 . S
C1681 C1682 1.399 . S
C1682 H1668 0.929 . S
C1682 C1681 1.399 . S
C1682 C1683 1.385 . S
C1683 H1669 0.931 . S
C1683 C1682 1.385 . S
C1683 C1684 1.389 . S
C1684 C1683 1.389 . S
C1684 C1685 1.387 . S
C1685 H1670 0.930 . S
C1685 C1680 1.390 . S
C1685 C1684 1.387 . S
H1686 C1698 0.930 . S
H1687 C1700 0.930 . S
H1688 C1701 0.930 . S
H1689 C1705 0.959 . S
H1690 C1705 0.959 . S
H1691 C1705 0.961 . S
H1692 C1706 0.960 . S
H1693 C1706 0.961 . S
H1694 C1706 0.959 . S
H1695 C1709 0.929 . S
H1696 C1710 0.931 . S
H1697 C1712 0.930 . S
C1698 H1686 0.930 . S
C1698 C1699 1.399 . S
C1698 C1703 1.399 . S
C1699 C1698 1.399 . S
C1699 C1700 1.376 . S
C1700 H1687 0.930 . S
C1700 C1699 1.376 . S
C1700 C1701 1.388 . S
C1701 H1688 0.930 . S
C1701 C1700 1.388 . S
C1701 C1702 1.390 . S
C1702 C1701 1.390 . S
C1702 C1703 1.394 . S
C1702 C1708 1.465 . S
C1703 C1698 1.399 . S
C1703 C1702 1.394 . S
C1703 C1704 1.516 . S
C1704 C1703 1.516 . S
C1704 C1705 1.502 . S
C1704 C1706 1.561 . S
C1704 C1707 1.526 . S
C1705 H1689 0.959 . S
C1705 H1690 0.959 . S
C1705 H1691 0.961 . S
C1705 C1704 1.502 . S
C1706 H1692 0.960 . S
C1706 H1693 0.961 . S
C1706 H1694 0.959 . S
C1706 C1704 1.561 . S
C1707 C1704 1.526 . S
C1707 C1708 1.396 . S
C1707 C1712 1.390 . S
C1708 C1702 1.465 . S
C1708 C1707 1.396 . S
C1708 C1709 1.399 . S
C1709 H1695 0.929 . S
C1709 C1708 1.399 . S
C1709 C1710 1.385 . S
C1710 H1696 0.931 . S
C1710 C1709 1.385 . S
C1710 C1711 1.389 . S
C1711 C1710 1.389 . S
C1711 C1712 1.387 . S
C1712 H1697 0.930 . S
C1712 C1707 1.390 . S
C1712 C1711 1.387 . S
H1713 C1725 0.930 . S
H1714 C1727 0.930 1_545 S
H1715 C1728 0.930 . S
H1716 C1732 0.959 . S
H1717 C1732 0.959 . S
H1718 C1732 0.961 . S
H1719 C1733 0.960 . S
H1720 C1733 0.961 . S
H1721 C1733 0.959 . S
H1722 C1736 0.929 . S
H1723 C1737 0.931 . S
H1724 C1739 0.930 . S
C1725 H1713 0.930 . S
C1725 C1726 1.399 . S
C1725 C1730 1.399 . S
C1726 C1725 1.399 . S
C1726 C1727 1.376 . S
C1727 H1714 0.930 1_565 S
C1727 C1726 1.376 . S
C1727 C1728 1.388 1_565 S
C1728 H1715 0.930 . S
C1728 C1727 1.388 1_545 S
C1728 C1729 1.390 1_545 S
C1729 C1728 1.390 1_565 S
C1729 C1730 1.394 . S
C1729 C1735 1.465 . S
C1730 C1725 1.399 . S
C1730 C1729 1.394 . S
C1730 C1731 1.516 . S
C1731 C1730 1.516 . S
C1731 C1732 1.502 . S
C1731 C1733 1.561 . S
C1731 C1734 1.526 . S
C1732 H1716 0.959 . S
C1732 H1717 0.959 . S
C1732 H1718 0.961 . S
C1732 C1731 1.502 . S
C1733 H1719 0.960 . S
C1733 H1720 0.961 . S
C1733 H1721 0.959 . S
C1733 C1731 1.561 . S
C1734 C1731 1.526 . S
C1734 C1735 1.396 . S
C1734 C1739 1.390 . S
C1735 C1729 1.465 . S
C1735 C1734 1.396 . S
C1735 C1736 1.399 1_565 S
C1736 H1722 0.929 . S
C1736 C1735 1.399 1_545 S
C1736 C1737 1.385 . S
C1737 H1723 0.931 . S
C1737 C1736 1.385 . S
C1737 C1738 1.389 1_545 S
C1738 C1737 1.389 1_565 S
C1738 C1739 1.387 . S
C1739 H1724 0.930 . S
C1739 C1734 1.390 . S
C1739 C1738 1.387 . S
H1740 C1752 0.930 . S
H1741 C1754 0.930 . S
H1742 C1755 0.930 . S
H1743 C1759 0.959 . S
H1744 C1759 0.959 . S
H1745 C1759 0.961 . S
H1746 C1760 0.960 . S
H1747 C1760 0.961 . S
H1748 C1760 0.959 . S
H1749 C1763 0.929 . S
H1750 C1764 0.931 . S
H1751 C1766 0.930 . S
C1752 H1740 0.930 . S
C1752 C1753 1.399 . S
C1752 C1757 1.399 . S
C1753 C1752 1.399 . S
C1753 C1754 1.376 . S
C1754 H1741 0.930 . S
C1754 C1753 1.376 . S
C1754 C1755 1.388 . S
C1755 H1742 0.930 . S
C1755 C1754 1.388 . S
C1755 C1756 1.390 . S
C1756 C1755 1.390 . S
C1756 C1757 1.394 . S
C1756 C1762 1.465 . S
C1757 C1752 1.399 . S
C1757 C1756 1.394 . S
C1757 C1758 1.516 . S
C1758 C1757 1.516 . S
C1758 C1759 1.502 . S
C1758 C1760 1.561 . S
C1758 C1761 1.526 . S
C1759 H1743 0.959 . S
C1759 H1744 0.959 . S
C1759 H1745 0.961 . S
C1759 C1758 1.502 . S
C1760 H1746 0.960 . S
C1760 H1747 0.961 . S
C1760 H1748 0.959 . S
C1760 C1758 1.561 . S
C1761 C1758 1.526 . S
C1761 C1762 1.396 . S
C1761 C1766 1.390 . S
C1762 C1756 1.465 . S
C1762 C1761 1.396 . S
C1762 C1763 1.399 . S
C1763 H1749 0.929 . S
C1763 C1762 1.399 . S
C1763 C1764 1.385 . S
C1764 H1750 0.931 . S
C1764 C1763 1.385 . S
C1764 C1765 1.389 . S
C1765 C1764 1.389 . S
C1765 C1766 1.387 . S
C1766 H1751 0.930 . S
C1766 C1761 1.390 . S
C1766 C1765 1.387 . S
H1767 C1779 0.930 . S
H1768 C1781 0.930 . S
H1769 C1782 0.930 . S
H1770 C1786 0.959 . S
H1771 C1786 0.959 . S
H1772 C1786 0.961 . S
H1773 C1787 0.960 . S
H1774 C1787 0.961 . S
H1775 C1787 0.959 . S
H1776 C1790 0.929 . S
H1777 C1791 0.931 . S
H1778 C1793 0.930 . S
C1779 H1767 0.930 . S
C1779 C1780 1.399 . S
C1779 C1784 1.399 . S
C1780 C1779 1.399 . S
C1780 C1781 1.376 . S
C1781 H1768 0.930 . S
C1781 C1780 1.376 . S
C1781 C1782 1.388 . S
C1782 H1769 0.930 . S
C1782 C1781 1.388 . S
C1782 C1783 1.390 . S
C1783 C1782 1.390 . S
C1783 C1784 1.394 . S
C1783 C1789 1.465 . S
C1784 C1779 1.399 . S
C1784 C1783 1.394 . S
C1784 C1785 1.516 . S
C1785 C1784 1.516 . S
C1785 C1786 1.502 . S
C1785 C1787 1.561 . S
C1785 C1788 1.526 . S
C1786 H1770 0.959 . S
C1786 H1771 0.959 . S
C1786 H1772 0.961 . S
C1786 C1785 1.502 . S
C1787 H1773 0.960 . S
C1787 H1774 0.961 . S
C1787 H1775 0.959 . S
C1787 C1785 1.561 . S
C1788 C1785 1.526 . S
C1788 C1789 1.396 . S
C1788 C1793 1.390 . S
C1789 C1783 1.465 . S
C1789 C1788 1.396 . S
C1789 C1790 1.399 . S
C1790 H1776 0.929 . S
C1790 C1789 1.399 . S
C1790 C1791 1.385 . S
C1791 H1777 0.931 . S
C1791 C1790 1.385 . S
C1791 C1792 1.389 . S
C1792 C1791 1.389 . S
C1792 C1793 1.387 . S
C1793 H1778 0.930 . S
C1793 C1788 1.390 . S
C1793 C1792 1.387 . S
H1794 C1806 0.930 . S
H1795 C1808 0.930 . S
H1796 C1809 0.930 . S
H1797 C1813 0.959 . S
H1798 C1813 0.959 . S
H1799 C1813 0.961 . S
H1800 C1814 0.960 . S
H1801 C1814 0.961 . S
H1802 C1814 0.959 . S
H1803 C1817 0.929 . S
H1804 C1818 0.931 . S
H1805 C1820 0.930 . S
C1806 H1794 0.930 . S
C1806 C1807 1.399 . S
C1806 C1811 1.399 . S
C1807 C1806 1.399 . S
C1807 C1808 1.376 . S
C1808 H1795 0.930 . S
C1808 C1807 1.376 . S
C1808 C1809 1.388 . S
C1809 H1796 0.930 . S
C1809 C1808 1.388 . S
C1809 C1810 1.390 . S
C1810 C1809 1.390 . S
C1810 C1811 1.394 . S
C1810 C1816 1.465 . S
C1811 C1806 1.399 . S
C1811 C1810 1.394 . S
C1811 C1812 1.516 . S
C1812 C1811 1.516 . S
C1812 C1813 1.502 . S
C1812 C1814 1.561 . S
C1812 C1815 1.526 . S
C1813 H1797 0.959 . S
C1813 H1798 0.959 . S
C1813 H1799 0.961 . S
C1813 C1812 1.502 . S
C1814 H1800 0.960 . S
C1814 H1801 0.961 . S
C1814 H1802 0.959 . S
C1814 C1812 1.561 . S
C1815 C1812 1.526 . S
C1815 C1816 1.396 . S
C1815 C1820 1.390 . S
C1816 C1810 1.465 . S
C1816 C1815 1.396 . S
C1816 C1817 1.399 . S
C1817 H1803 0.929 . S
C1817 C1816 1.399 . S
C1817 C1818 1.385 . S
C1818 H1804 0.931 . S
C1818 C1817 1.385 . S
C1818 C1819 1.389 . S
C1819 C1818 1.389 . S
C1819 C1820 1.387 . S
C1820 H1805 0.930 . S
C1820 C1815 1.390 . S
C1820 C1819 1.387 . S
H1821 C1833 0.930 . S
H1822 C1835 0.930 1_545 S
H1823 C1836 0.892 1_545 S
H1824 C1840 0.959 . S
H1825 C1840 0.959 . S
H1826 C1840 0.961 . S
H1827 C1841 0.960 . S
H1828 C1841 0.961 . S
H1829 C1841 0.959 . S
H1830 C1844 0.929 . S
H1831 C1845 0.931 . S
H1832 C1847 0.930 . S
C1833 H1821 0.930 . S
C1833 C1834 1.399 . S
C1833 C1838 1.399 . S
C1834 C1833 1.399 . S
C1834 C1835 1.376 . S
C1835 H1822 0.930 1_565 S
C1835 C1834 1.376 . S
C1835 C1836 1.401 . S
C1836 H1823 0.892 1_565 S
C1836 C1835 1.401 . S
C1836 C1837 1.418 . S
C1837 C1836 1.418 . S
C1837 C1838 1.394 . S
C1837 C1843 1.465 . S
C1838 C1833 1.399 . S
C1838 C1837 1.394 . S
C1838 C1839 1.516 . S
C1839 C1838 1.516 . S
C1839 C1840 1.502 . S
C1839 C1841 1.561 . S
C1839 C1842 1.526 . S
C1840 H1824 0.959 . S
C1840 H1825 0.959 . S
C1840 H1826 0.961 . S
C1840 C1839 1.502 . S
C1841 H1827 0.960 . S
C1841 H1828 0.961 . S
C1841 H1829 0.959 . S
C1841 C1839 1.561 . S
C1842 C1839 1.526 . S
C1842 C1843 1.396 . S
C1842 C1847 1.390 . S
C1843 C1837 1.465 . S
C1843 C1842 1.396 . S
C1843 C1844 1.399 1_565 S
C1844 H1830 0.929 . S
C1844 C1843 1.399 1_545 S
C1844 C1845 1.385 . S
C1845 H1831 0.931 . S
C1845 C1844 1.385 . S
C1845 C1846 1.389 1_545 S
C1846 C1845 1.389 1_565 S
C1846 C1847 1.387 . S
C1847 H1832 0.930 . S
C1847 C1842 1.390 . S
C1847 C1846 1.387 . S
H1848 C1860 0.930 . S
H1849 C1862 0.930 . S
H1850 C1863 0.930 . S
H1851 C1867 0.959 . S
H1852 C1867 0.959 . S
H1853 C1867 0.961 . S
H1854 C1868 0.960 . S
H1855 C1868 0.961 . S
H1856 C1868 0.959 . S
H1857 C1871 0.929 . S
H1858 C1872 0.931 . S
H1859 C1874 0.930 . S
C1860 H1848 0.930 . S
C1860 C1861 1.399 . S
C1860 C1865 1.399 . S
C1861 C1860 1.399 . S
C1861 C1862 1.376 . S
C1862 H1849 0.930 . S
C1862 C1861 1.376 . S
C1862 C1863 1.388 . S
C1863 H1850 0.930 . S
C1863 C1862 1.388 . S
C1863 C1864 1.390 . S
C1864 C1863 1.390 . S
C1864 C1865 1.394 . S
C1864 C1870 1.465 . S
C1865 C1860 1.399 . S
C1865 C1864 1.394 . S
C1865 C1866 1.516 . S
C1866 C1865 1.516 . S
C1866 C1867 1.502 . S
C1866 C1868 1.561 . S
C1866 C1869 1.526 . S
C1867 H1851 0.959 . S
C1867 H1852 0.959 . S
C1867 H1853 0.961 . S
C1867 C1866 1.502 . S
C1868 H1854 0.960 . S
C1868 H1855 0.961 . S
C1868 H1856 0.959 . S
C1868 C1866 1.561 . S
C1869 C1866 1.526 . S
C1869 C1870 1.396 . S
C1869 C1874 1.390 . S
C1870 C1864 1.465 . S
C1870 C1869 1.396 . S
C1870 C1871 1.399 . S
C1871 H1857 0.929 . S
C1871 C1870 1.399 . S
C1871 C1872 1.385 . S
C1872 H1858 0.931 . S
C1872 C1871 1.385 . S
C1872 C1873 1.389 . S
C1873 C1872 1.389 . S
C1873 C1874 1.387 . S
C1874 H1859 0.930 . S
C1874 C1869 1.390 . S
C1874 C1873 1.387 . S
H1875 C1887 0.930 . S
H1876 C1889 0.930 . S
H1877 C1890 0.930 . S
H1878 C1894 0.959 . S
H1879 C1894 0.959 . S
H1880 C1894 0.961 . S
H1881 C1895 0.960 . S
H1882 C1895 0.961 . S
H1883 C1895 0.959 . S
H1884 C1898 0.929 . S
H1885 C1899 0.931 . S
H1886 C1901 0.930 . S
C1887 H1875 0.930 . S
C1887 C1888 1.399 . S
C1887 C1892 1.399 . S
C1888 C1887 1.399 . S
C1888 C1889 1.376 . S
C1889 H1876 0.930 . S
C1889 C1888 1.376 . S
C1889 C1890 1.388 . S
C1890 H1877 0.930 . S
C1890 C1889 1.388 . S
C1890 C1891 1.390 . S
C1891 C1890 1.390 . S
C1891 C1892 1.394 . S
C1891 C1897 1.465 . S
C1892 C1887 1.399 . S
C1892 C1891 1.394 . S
C1892 C1893 1.516 . S
C1893 C1892 1.516 . S
C1893 C1894 1.502 . S
C1893 C1895 1.561 . S
C1893 C1896 1.526 . S
C1894 H1878 0.959 . S
C1894 H1879 0.959 . S
C1894 H1880 0.961 . S
C1894 C1893 1.502 . S
C1895 H1881 0.960 . S
C1895 H1882 0.961 . S
C1895 H1883 0.959 . S
C1895 C1893 1.561 . S
C1896 C1893 1.526 . S
C1896 C1897 1.396 . S
C1896 C1901 1.390 . S
C1897 C1891 1.465 . S
C1897 C1896 1.396 . S
C1897 C1898 1.399 . S
C1898 H1884 0.929 . S
C1898 C1897 1.399 . S
C1898 C1899 1.385 . S
C1899 H1885 0.931 . S
C1899 C1898 1.385 . S
C1899 C1900 1.389 . S
C1900 C1899 1.389 . S
C1900 C1901 1.387 . S
C1901 H1886 0.930 . S
C1901 C1896 1.390 . S
C1901 C1900 1.387 . S
H1902 C1914 0.930 . S
H1903 C1916 0.930 . S
H1904 C1917 0.930 . S
H1905 C1921 0.959 . S
H1906 C1921 0.959 . S
H1907 C1921 0.961 . S
H1908 C1922 0.960 . S
H1909 C1922 0.961 . S
H1910 C1922 0.959 . S
H1911 C1925 0.929 . S
H1912 C1926 0.931 . S
H1913 C1928 0.930 . S
C1914 H1902 0.930 . S
C1914 C1915 1.399 . S
C1914 C1919 1.399 . S
C1915 C1914 1.399 . S
C1915 C1916 1.376 . S
C1916 H1903 0.930 . S
C1916 C1915 1.376 . S
C1916 C1917 1.388 . S
C1917 H1904 0.930 . S
C1917 C1916 1.388 . S
C1917 C1918 1.390 . S
C1918 C1917 1.390 . S
C1918 C1919 1.394 . S
C1918 C1924 1.465 . S
C1919 C1914 1.399 . S
C1919 C1918 1.394 . S
C1919 C1920 1.516 . S
C1920 C1919 1.516 . S
C1920 C1921 1.502 . S
C1920 C1922 1.561 . S
C1920 C1923 1.526 . S
C1921 H1905 0.959 . S
C1921 H1906 0.959 . S
C1921 H1907 0.961 . S
C1921 C1920 1.502 . S
C1922 H1908 0.960 . S
C1922 H1909 0.961 . S
C1922 H1910 0.959 . S
C1922 C1920 1.561 . S
C1923 C1920 1.526 . S
C1923 C1924 1.396 . S
C1923 C1928 1.390 . S
C1924 C1918 1.465 . S
C1924 C1923 1.396 . S
C1924 C1925 1.399 . S
C1925 H1911 0.929 . S
C1925 C1924 1.399 . S
C1925 C1926 1.385 . S
C1926 H1912 0.931 . S
C1926 C1925 1.385 . S
C1926 C1927 1.389 . S
C1927 C1926 1.389 . S
C1927 C1928 1.387 . S
C1928 H1913 0.930 . S
C1928 C1923 1.390 . S
C1928 C1927 1.387 . S
H1929 C1941 0.930 . S
H1930 C1943 0.930 . S
H1931 C1944 0.930 . S
H1932 C1948 0.959 . S
H1933 C1948 0.959 . S
H1934 C1948 0.961 . S
H1935 C1949 0.960 . S
H1936 C1949 0.961 . S
H1937 C1949 0.959 . S
H1938 C1952 0.929 . S
H1939 C1953 0.931 . S
H1940 C1955 0.930 . S
C1941 H1929 0.930 . S
C1941 C1942 1.399 . S
C1941 C1946 1.399 . S
C1942 C1941 1.399 . S
C1942 C1943 1.376 . S
C1943 H1930 0.930 . S
C1943 C1942 1.376 . S
C1943 C1944 1.388 . S
C1944 H1931 0.930 . S
C1944 C1943 1.388 . S
C1944 C1945 1.390 . S
C1945 C1944 1.390 . S
C1945 C1946 1.394 . S
C1945 C1951 1.465 . S
C1946 C1941 1.399 . S
C1946 C1945 1.394 . S
C1946 C1947 1.516 . S
C1947 C1946 1.516 . S
C1947 C1948 1.502 . S
C1947 C1949 1.561 . S
C1947 C1950 1.526 . S
C1948 H1932 0.959 . S
C1948 H1933 0.959 . S
C1948 H1934 0.961 . S
C1948 C1947 1.502 . S
C1949 H1935 0.960 . S
C1949 H1936 0.961 . S
C1949 H1937 0.959 . S
C1949 C1947 1.561 . S
C1950 C1947 1.526 . S
C1950 C1951 1.396 . S
C1950 C1955 1.390 . S
C1951 C1945 1.465 . S
C1951 C1950 1.396 . S
C1951 C1952 1.399 . S
C1952 H1938 0.929 . S
C1952 C1951 1.399 . S
C1952 C1953 1.385 . S
C1953 H1939 0.931 . S
C1953 C1952 1.385 . S
C1953 C1954 1.389 . S
C1954 C1953 1.389 . S
C1954 C1955 1.387 . S
C1955 H1940 0.930 . S
C1955 C1950 1.390 . S
C1955 C1954 1.387 . S
H1956 C1968 0.930 . S
H1957 C1970 0.930 . S
H1958 C1971 0.930 . S
H1959 C1975 0.959 . S
H1960 C1975 0.959 . S
H1961 C1975 0.961 . S
H1962 C1976 0.960 . S
H1963 C1976 0.961 . S
H1964 C1976 0.959 . S
H1965 C1979 0.929 . S
H1966 C1980 0.931 . S
H1967 C1982 0.930 . S
C1968 H1956 0.930 . S
C1968 C1969 1.399 . S
C1968 C1973 1.399 . S
C1969 C1968 1.399 . S
C1969 C1970 1.376 . S
C1970 H1957 0.930 . S
C1970 C1969 1.376 . S
C1970 C1971 1.388 . S
C1971 H1958 0.930 . S
C1971 C1970 1.388 . S
C1971 C1972 1.390 . S
C1972 C1971 1.390 . S
C1972 C1973 1.394 . S
C1972 C1978 1.465 . S
C1973 C1968 1.399 . S
C1973 C1972 1.394 . S
C1973 C1974 1.516 . S
C1974 C1973 1.516 . S
C1974 C1975 1.502 . S
C1974 C1976 1.561 . S
C1974 C1977 1.526 . S
C1975 H1959 0.959 . S
C1975 H1960 0.959 . S
C1975 H1961 0.961 . S
C1975 C1974 1.502 . S
C1976 H1962 0.960 . S
C1976 H1963 0.961 . S
C1976 H1964 0.959 . S
C1976 C1974 1.561 . S
C1977 C1974 1.526 . S
C1977 C1978 1.396 . S
C1977 C1982 1.390 . S
C1978 C1972 1.465 . S
C1978 C1977 1.396 . S
C1978 C1979 1.399 . S
C1979 H1965 0.929 . S
C1979 C1978 1.399 . S
C1979 C1980 1.385 . S
C1980 H1966 0.931 . S
C1980 C1979 1.385 . S
C1980 C1981 1.389 . S
C1981 C1980 1.389 . S
C1981 C1982 1.387 . S
C1982 H1967 0.930 . S
C1982 C1977 1.390 . S
C1982 C1981 1.387 . S
H1983 C1995 0.930 . S
H1984 C1997 0.930 1_655 S
H1985 C1998 0.930 . S
H1986 C2002 0.959 . S
H1987 C2002 0.959 . S
H1988 C2002 0.961 . S
H1989 C2003 0.960 . S
H1990 C2003 0.961 . S
H1991 C2003 0.959 . S
H1992 C2006 0.929 . S
H1993 C2007 0.931 . S
H1994 C2009 0.930 . S
C1995 H1983 0.930 . S
C1995 C1996 1.399 . S
C1995 C2000 1.399 . S
C1996 C1995 1.399 . S
C1996 C1997 1.376 . S
C1997 H1984 0.930 1_455 S
C1997 C1996 1.376 . S
C1997 C1998 1.388 1_455 S
C1998 H1985 0.930 . S
C1998 C1997 1.388 1_655 S
C1998 C1999 1.390 1_655 S
C1999 C1998 1.390 1_455 S
C1999 C2000 1.394 . S
C1999 C2005 1.465 . S
C2000 C1995 1.399 . S
C2000 C1999 1.394 . S
C2000 C2001 1.516 . S
C2001 C2000 1.516 . S
C2001 C2002 1.502 . S
C2001 C2003 1.561 . S
C2001 C2004 1.526 . S
C2002 H1986 0.959 . S
C2002 H1987 0.959 . S
C2002 H1988 0.961 . S
C2002 C2001 1.502 . S
C2003 H1989 0.960 . S
C2003 H1990 0.961 . S
C2003 H1991 0.959 . S
C2003 C2001 1.561 . S
C2004 C2001 1.526 . S
C2004 C2005 1.396 . S
C2004 C2009 1.390 . S
C2005 C1999 1.465 . S
C2005 C2004 1.396 . S
C2005 C2006 1.399 1_455 S
C2006 H1992 0.929 . S
C2006 C2005 1.399 1_655 S
C2006 C2007 1.385 . S
C2007 H1993 0.931 . S
C2007 C2006 1.385 . S
C2007 C2008 1.389 1_655 S
C2008 C2007 1.389 1_455 S
C2008 C2009 1.387 . S
C2009 H1994 0.930 . S
C2009 C2004 1.390 . S
C2009 C2008 1.387 . S
H2010 C2022 0.930 . S
H2011 C2024 0.930 . S
H2012 C2025 0.930 . S
H2013 C2029 0.959 . S
H2014 C2029 0.959 . S
H2015 C2029 0.961 . S
H2016 C2030 0.960 . S
H2017 C2030 0.961 . S
H2018 C2030 0.959 . S
H2019 C2033 0.929 . S
H2020 C2034 0.931 . S
H2021 C2036 0.930 . S
C2022 H2010 0.930 . S
C2022 C2023 1.399 . S
C2022 C2027 1.399 . S
C2023 C2022 1.399 . S
C2023 C2024 1.376 . S
C2024 H2011 0.930 . S
C2024 C2023 1.376 . S
C2024 C2025 1.388 . S
C2025 H2012 0.930 . S
C2025 C2024 1.388 . S
C2025 C2026 1.390 . S
C2026 C2025 1.390 . S
C2026 C2027 1.394 . S
C2026 C2032 1.465 . S
C2027 C2022 1.399 . S
C2027 C2026 1.394 . S
C2027 C2028 1.516 . S
C2028 C2027 1.516 . S
C2028 C2029 1.502 . S
C2028 C2030 1.561 . S
C2028 C2031 1.526 . S
C2029 H2013 0.959 . S
C2029 H2014 0.959 . S
C2029 H2015 0.961 . S
C2029 C2028 1.502 . S
C2030 H2016 0.960 . S
C2030 H2017 0.961 . S
C2030 H2018 0.959 . S
C2030 C2028 1.561 . S
C2031 C2028 1.526 . S
C2031 C2032 1.396 . S
C2031 C2036 1.390 . S
C2032 C2026 1.465 . S
C2032 C2031 1.396 . S
C2032 C2033 1.399 . S
C2033 H2019 0.929 . S
C2033 C2032 1.399 . S
C2033 C2034 1.385 . S
C2034 H2020 0.931 . S
C2034 C2033 1.385 . S
C2034 C2035 1.389 . S
C2035 C2034 1.389 . S
C2035 C2036 1.387 . S
C2036 H2021 0.930 . S
C2036 C2031 1.390 . S
C2036 C2035 1.387 . S
H2037 C2049 0.930 . S
H2038 C2051 0.953 . S
H2039 C2052 0.930 1_455 S
H2040 C2056 0.959 . S
H2041 C2056 0.959 . S
H2042 C2056 0.961 . S
H2043 C2057 0.960 . S
H2044 C2057 0.961 . S
H2045 C2057 0.959 . S
H2046 C2060 0.929 . S
H2047 C2061 0.939 . S
H2048 C2063 0.930 . S
C2049 H2037 0.930 . S
C2049 C2050 1.399 . S
C2049 C2054 1.399 . S
C2050 C2049 1.399 . S
C2050 C2051 1.376 . S
C2051 H2038 0.953 . S
C2051 C2050 1.376 . S
C2051 C2052 1.388 . S
C2052 H2039 0.930 1_655 S
C2052 C2051 1.388 . S
C2052 C2053 1.390 . S
C2053 C2052 1.390 . S
C2053 C2054 1.394 . S
C2053 C2059 1.465 . S
C2054 C2049 1.399 . S
C2054 C2053 1.394 . S
C2054 C2055 1.516 . S
C2055 C2054 1.516 . S
C2055 C2056 1.502 . S
C2055 C2057 1.561 . S
C2055 C2058 1.526 . S
C2056 H2040 0.959 . S
C2056 H2041 0.959 . S
C2056 H2042 0.961 . S
C2056 C2055 1.502 . S
C2057 H2043 0.960 . S
C2057 H2044 0.961 . S
C2057 H2045 0.959 . S
C2057 C2055 1.561 . S
C2058 C2055 1.526 . S
C2058 C2059 1.396 . S
C2058 C2063 1.390 . S
C2059 C2053 1.465 . S
C2059 C2058 1.396 . S
C2059 C2060 1.399 1_655 S
C2060 H2046 0.929 . S
C2060 C2059 1.399 1_455 S
C2060 C2061 1.387 . S
C2061 H2047 0.939 . S
C2061 C2060 1.387 . S
C2061 C2062 1.380 1_455 S
C2062 C2061 1.380 1_655 S
C2062 C2063 1.387 . S
C2063 H2048 0.930 . S
C2063 C2058 1.390 . S
C2063 C2062 1.387 . S
H2064 C2076 0.930 . S
H2065 C2078 0.930 . S
H2066 C2079 0.930 . S
H2067 C2083 0.959 . S
H2068 C2083 0.959 . S
H2069 C2083 0.961 . S
H2070 C2084 0.960 . S
H2071 C2084 0.961 . S
H2072 C2084 0.959 . S
H2073 C2087 0.929 . S
H2074 C2088 0.931 . S
H2075 C2090 0.930 . S
C2076 H2064 0.930 . S
C2076 C2077 1.399 . S
C2076 C2081 1.399 . S
C2077 C2076 1.399 . S
C2077 C2078 1.376 . S
C2078 H2065 0.930 . S
C2078 C2077 1.376 . S
C2078 C2079 1.388 . S
C2079 H2066 0.930 . S
C2079 C2078 1.388 . S
C2079 C2080 1.390 . S
C2080 C2079 1.390 . S
C2080 C2081 1.394 . S
C2080 C2086 1.465 . S
C2081 C2076 1.399 . S
C2081 C2080 1.394 . S
C2081 C2082 1.516 . S
C2082 C2081 1.516 . S
C2082 C2083 1.502 . S
C2082 C2084 1.561 . S
C2082 C2085 1.526 . S
C2083 H2067 0.959 . S
C2083 H2068 0.959 . S
C2083 H2069 0.961 . S
C2083 C2082 1.502 . S
C2084 H2070 0.960 . S
C2084 H2071 0.961 . S
C2084 H2072 0.959 . S
C2084 C2082 1.561 . S
C2085 C2082 1.526 . S
C2085 C2086 1.396 . S
C2085 C2090 1.390 . S
C2086 C2080 1.465 . S
C2086 C2085 1.396 . S
C2086 C2087 1.399 . S
C2087 H2073 0.929 . S
C2087 C2086 1.399 . S
C2087 C2088 1.385 . S
C2088 H2074 0.931 . S
C2088 C2087 1.385 . S
C2088 C2089 1.389 . S
C2089 C2088 1.389 . S
C2089 C2090 1.387 . S
C2090 H2075 0.930 . S
C2090 C2085 1.390 . S
C2090 C2089 1.387 . S
H2091 C2103 0.930 . S
H2092 C2105 0.930 . S
H2093 C2106 0.930 . S
H2094 C2110 0.959 . S
H2095 C2110 0.959 . S
H2096 C2110 0.961 . S
H2097 C2111 0.960 . S
H2098 C2111 0.961 . S
H2099 C2111 0.959 . S
H2100 C2114 0.929 . S
H2101 C2115 0.931 . S
H2102 C2117 0.930 . S
C2103 H2091 0.930 . S
C2103 C2104 1.399 . S
C2103 C2108 1.399 . S
C2104 C2103 1.399 . S
C2104 C2105 1.376 . S
C2105 H2092 0.930 . S
C2105 C2104 1.376 . S
C2105 C2106 1.388 . S
C2106 H2093 0.930 . S
C2106 C2105 1.388 . S
C2106 C2107 1.390 . S
C2107 C2106 1.390 . S
C2107 C2108 1.394 . S
C2107 C2113 1.465 . S
C2108 C2103 1.399 . S
C2108 C2107 1.394 . S
C2108 C2109 1.516 . S
C2109 C2108 1.516 . S
C2109 C2110 1.502 . S
C2109 C2111 1.561 . S
C2109 C2112 1.526 . S
C2110 H2094 0.959 . S
C2110 H2095 0.959 . S
C2110 H2096 0.961 . S
C2110 C2109 1.502 . S
C2111 H2097 0.960 . S
C2111 H2098 0.961 . S
C2111 H2099 0.959 . S
C2111 C2109 1.561 . S
C2112 C2109 1.526 . S
C2112 C2113 1.396 . S
C2112 C2117 1.390 . S
C2113 C2107 1.465 . S
C2113 C2112 1.396 . S
C2113 C2114 1.399 . S
C2114 H2100 0.929 . S
C2114 C2113 1.399 . S
C2114 C2115 1.385 . S
C2115 H2101 0.931 . S
C2115 C2114 1.385 . S
C2115 C2116 1.389 . S
C2116 C2115 1.389 . S
C2116 C2117 1.387 . S
C2117 H2102 0.930 . S
C2117 C2112 1.390 . S
C2117 C2116 1.387 . S
H2118 C2130 0.930 1_554 S
H2119 C2132 0.930 . S
H2120 C2133 0.930 . S
H2121 C2137 0.959 . S
H2122 C2137 0.959 . S
H2123 C2137 0.961 . S
H2124 C2138 0.960 . S
H2125 C2138 0.961 . S
H2126 C2138 0.959 1_556 S
H2127 C2141 0.929 . S
H2128 C2142 0.931 . S
H2129 C2144 0.930 1_554 S
C2130 H2118 0.930 1_556 S
C2130 C2131 1.399 . S
C2130 C2135 1.399 . S
C2131 C2130 1.399 . S
C2131 C2132 1.376 . S
C2132 H2119 0.930 . S
C2132 C2131 1.376 . S
C2132 C2133 1.388 . S
C2133 H2120 0.930 . S
C2133 C2132 1.388 . S
C2133 C2134 1.390 . S
C2134 C2133 1.390 . S
C2134 C2135 1.394 . S
C2134 C2140 1.465 . S
C2135 C2130 1.399 . S
C2135 C2134 1.394 . S
C2135 C2136 1.516 1_556 S
C2136 C2135 1.516 1_554 S
C2136 C2137 1.502 . S
C2136 C2138 1.561 . S
C2136 C2139 1.526 1_554 S
C2137 H2121 0.959 . S
C2137 H2122 0.959 . S
C2137 H2123 0.961 . S
C2137 C2136 1.502 . S
C2138 H2124 0.960 . S
C2138 H2125 0.961 . S
C2138 H2126 0.959 1_554 S
C2138 C2136 1.561 . S
C2139 C2136 1.526 1_556 S
C2139 C2140 1.396 . S
C2139 C2144 1.390 . S
C2140 C2134 1.465 . S
C2140 C2139 1.396 . S
C2140 C2141 1.399 . S
C2141 H2127 0.929 . S
C2141 C2140 1.399 . S
C2141 C2142 1.385 . S
C2142 H2128 0.931 . S
C2142 C2141 1.385 . S
C2142 C2143 1.389 . S
C2143 C2142 1.389 . S
C2143 C2144 1.387 . S
C2144 H2129 0.930 1_556 S
C2144 C2139 1.390 . S
C2144 C2143 1.387 . S
H2145 C2157 0.930 . S
H2146 C2159 0.930 . S
H2147 C2160 0.930 . S
H2148 C2164 0.959 . S
H2149 C2164 0.959 . S
H2150 C2164 0.961 . S
H2151 C2165 0.960 . S
H2152 C2165 0.961 . S
H2153 C2165 0.959 . S
H2154 C2168 0.929 . S
H2155 C2169 0.931 . S
H2156 C2171 0.930 . S
C2157 H2145 0.930 . S
C2157 C2158 1.399 . S
C2157 C2162 1.399 . S
C2158 C2157 1.399 . S
C2158 C2159 1.376 . S
C2159 H2146 0.930 . S
C2159 C2158 1.376 . S
C2159 C2160 1.388 . S
C2160 H2147 0.930 . S
C2160 C2159 1.388 . S
C2160 C2161 1.390 . S
C2161 C2160 1.390 . S
C2161 C2162 1.394 . S
C2161 C2167 1.465 . S
C2162 C2157 1.399 . S
C2162 C2161 1.394 . S
C2162 C2163 1.516 . S
C2163 C2162 1.516 . S
C2163 C2164 1.502 . S
C2163 C2165 1.561 . S
C2163 C2166 1.526 . S
C2164 H2148 0.959 . S
C2164 H2149 0.959 . S
C2164 H2150 0.961 . S
C2164 C2163 1.502 . S
C2165 H2151 0.960 . S
C2165 H2152 0.961 . S
C2165 H2153 0.959 . S
C2165 C2163 1.561 . S
C2166 C2163 1.526 . S
C2166 C2167 1.396 . S
C2166 C2171 1.390 . S
C2167 C2161 1.465 . S
C2167 C2166 1.396 . S
C2167 C2168 1.399 . S
C2168 H2154 0.929 . S
C2168 C2167 1.399 . S
C2168 C2169 1.385 . S
C2169 H2155 0.931 . S
C2169 C2168 1.385 . S
C2169 C2170 1.389 . S
C2170 C2169 1.389 . S
C2170 C2171 1.387 . S
C2171 H2156 0.930 . S
C2171 C2166 1.390 . S
C2171 C2170 1.387 . S
H2172 C2184 0.930 . S
H2173 C2186 0.930 . S
H2174 C2187 0.930 . S
H2175 C2191 0.959 . S
H2176 C2191 0.959 . S
H2177 C2191 0.961 . S
H2178 C2192 0.960 . S
H2179 C2192 0.961 . S
H2180 C2192 0.959 . S
H2181 C2195 0.929 . S
H2182 C2196 0.931 . S
H2183 C2198 0.930 . S
C2184 H2172 0.930 . S
C2184 C2185 1.399 . S
C2184 C2189 1.399 . S
C2185 C2184 1.399 . S
C2185 C2186 1.376 . S
C2186 H2173 0.930 . S
C2186 C2185 1.376 . S
C2186 C2187 1.388 . S
C2187 H2174 0.930 . S
C2187 C2186 1.388 . S
C2187 C2188 1.390 . S
C2188 C2187 1.390 . S
C2188 C2189 1.394 . S
C2188 C2194 1.465 . S
C2189 C2184 1.399 . S
C2189 C2188 1.394 . S
C2189 C2190 1.516 . S
C2190 C2189 1.516 . S
C2190 C2191 1.502 . S
C2190 C2192 1.561 . S
C2190 C2193 1.526 . S
C2191 H2175 0.959 . S
C2191 H2176 0.959 . S
C2191 H2177 0.961 . S
C2191 C2190 1.502 . S
C2192 H2178 0.960 . S
C2192 H2179 0.961 . S
C2192 H2180 0.959 . S
C2192 C2190 1.561 . S
C2193 C2190 1.526 . S
C2193 C2194 1.396 . S
C2193 C2198 1.390 . S
C2194 C2188 1.465 . S
C2194 C2193 1.396 . S
C2194 C2195 1.399 . S
C2195 H2181 0.929 . S
C2195 C2194 1.399 . S
C2195 C2196 1.385 . S
C2196 H2182 0.931 . S
C2196 C2195 1.385 . S
C2196 C2197 1.389 . S
C2197 C2196 1.389 . S
C2197 C2198 1.387 . S
C2198 H2183 0.930 . S
C2198 C2193 1.390 . S
C2198 C2197 1.387 . S
H2199 C2211 0.930 . S
H2200 C2213 0.930 . S
H2201 C2214 0.930 . S
H2202 C2218 0.959 . S
H2203 C2218 0.959 . S
H2204 C2218 0.961 . S
H2205 C2219 0.960 . S
H2206 C2219 0.961 . S
H2207 C2219 0.959 . S
H2208 C2222 0.929 . S
H2209 C2223 0.931 . S
H2210 C2225 0.930 . S
C2211 H2199 0.930 . S
C2211 C2212 1.399 . S
C2211 C2216 1.399 . S
C2212 C2211 1.399 . S
C2212 C2213 1.376 . S
C2213 H2200 0.930 . S
C2213 C2212 1.376 . S
C2213 C2214 1.388 . S
C2214 H2201 0.930 . S
C2214 C2213 1.388 . S
C2214 C2215 1.390 . S
C2215 C2214 1.390 . S
C2215 C2216 1.394 . S
C2215 C2221 1.465 . S
C2216 C2211 1.399 . S
C2216 C2215 1.394 . S
C2216 C2217 1.516 . S
C2217 C2216 1.516 . S
C2217 C2218 1.502 . S
C2217 C2219 1.561 . S
C2217 C2220 1.526 . S
C2218 H2202 0.959 . S
C2218 H2203 0.959 . S
C2218 H2204 0.961 . S
C2218 C2217 1.502 . S
C2219 H2205 0.960 . S
C2219 H2206 0.961 . S
C2219 H2207 0.959 . S
C2219 C2217 1.561 . S
C2220 C2217 1.526 . S
C2220 C2221 1.396 . S
C2220 C2225 1.390 . S
C2221 C2215 1.465 . S
C2221 C2220 1.396 . S
C2221 C2222 1.399 . S
C2222 H2208 0.929 . S
C2222 C2221 1.399 . S
C2222 C2223 1.385 . S
C2223 H2209 0.931 . S
C2223 C2222 1.385 . S
C2223 C2224 1.389 . S
C2224 C2223 1.389 . S
C2224 C2225 1.387 . S
C2225 H2210 0.930 . S
C2225 C2220 1.390 . S
C2225 C2224 1.387 . S
H2226 C2238 0.930 . S
H2227 C2240 0.930 . S
H2228 C2241 0.930 . S
H2229 C2245 0.959 . S
H2230 C2245 0.959 . S
H2231 C2245 0.961 . S
H2232 C2246 0.960 . S
H2233 C2246 0.961 . S
H2234 C2246 0.959 . S
H2235 C2249 0.929 . S
H2236 C2250 0.931 . S
H2237 C2252 0.930 . S
C2238 H2226 0.930 . S
C2238 C2239 1.399 . S
C2238 C2243 1.399 . S
C2239 C2238 1.399 . S
C2239 C2240 1.376 . S
C2240 H2227 0.930 . S
C2240 C2239 1.376 . S
C2240 C2241 1.388 . S
C2241 H2228 0.930 . S
C2241 C2240 1.388 . S
C2241 C2242 1.390 . S
C2242 C2241 1.390 . S
C2242 C2243 1.394 . S
C2242 C2248 1.465 . S
C2243 C2238 1.399 . S
C2243 C2242 1.394 . S
C2243 C2244 1.516 . S
C2244 C2243 1.516 . S
C2244 C2245 1.502 . S
C2244 C2246 1.561 . S
C2244 C2247 1.526 . S
C2245 H2229 0.959 . S
C2245 H2230 0.959 . S
C2245 H2231 0.961 . S
C2245 C2244 1.502 . S
C2246 H2232 0.960 . S
C2246 H2233 0.961 . S
C2246 H2234 0.959 . S
C2246 C2244 1.561 . S
C2247 C2244 1.526 . S
C2247 C2248 1.396 . S
C2247 C2252 1.390 . S
C2248 C2242 1.465 . S
C2248 C2247 1.396 . S
C2248 C2249 1.399 . S
C2249 H2235 0.929 . S
C2249 C2248 1.399 . S
C2249 C2250 1.385 . S
C2250 H2236 0.931 . S
C2250 C2249 1.385 . S
C2250 C2251 1.389 . S
C2251 C2250 1.389 . S
C2251 C2252 1.387 . S
C2252 H2237 0.930 . S
C2252 C2247 1.390 . S
C2252 C2251 1.387 . S
H2253 C2265 0.930 . S
H2254 C2267 0.930 . S
H2255 C2268 0.930 . S
H2256 C2272 0.959 . S
H2257 C2272 0.959 . S
H2258 C2272 0.961 . S
H2259 C2273 0.960 . S
H2260 C2273 0.961 . S
H2261 C2273 0.959 . S
H2262 C2276 0.929 . S
H2263 C2277 0.931 . S
H2264 C2279 0.930 . S
C2265 H2253 0.930 . S
C2265 C2266 1.399 . S
C2265 C2270 1.399 . S
C2266 C2265 1.399 . S
C2266 C2267 1.376 . S
C2267 H2254 0.930 . S
C2267 C2266 1.376 . S
C2267 C2268 1.388 . S
C2268 H2255 0.930 . S
C2268 C2267 1.388 . S
C2268 C2269 1.390 . S
C2269 C2268 1.390 . S
C2269 C2270 1.394 . S
C2269 C2275 1.465 . S
C2270 C2265 1.399 . S
C2270 C2269 1.394 . S
C2270 C2271 1.516 . S
C2271 C2270 1.516 . S
C2271 C2272 1.502 . S
C2271 C2273 1.561 . S
C2271 C2274 1.526 . S
C2272 H2256 0.959 . S
C2272 H2257 0.959 . S
C2272 H2258 0.961 . S
C2272 C2271 1.502 . S
C2273 H2259 0.960 . S
C2273 H2260 0.961 . S
C2273 H2261 0.959 . S
C2273 C2271 1.561 . S
C2274 C2271 1.526 . S
C2274 C2275 1.396 . S
C2274 C2279 1.390 . S
C2275 C2269 1.465 . S
C2275 C2274 1.396 . S
C2275 C2276 1.399 . S
C2276 H2262 0.929 . S
C2276 C2275 1.399 . S
C2276 C2277 1.385 . S
C2277 H2263 0.931 . S
C2277 C2276 1.385 . S
C2277 C2278 1.389 . S
C2278 C2277 1.389 . S
C2278 C2279 1.387 . S
C2279 H2264 0.930 . S
C2279 C2274 1.390 . S
C2279 C2278 1.387 . S
H2280 C2292 0.930 . S
H2281 C2294 0.930 . S
H2282 C2295 0.930 . S
H2283 C2299 0.959 . S
H2284 C2299 0.959 . S
H2285 C2299 0.961 . S
H2286 C2300 0.960 . S
H2287 C2300 0.961 . S
H2288 C2300 0.959 . S
H2289 C2303 0.929 . S
H2290 C2304 0.931 . S
H2291 C2306 0.930 . S
C2292 H2280 0.930 . S
C2292 C2293 1.399 . S
C2292 C2297 1.399 . S
C2293 C2292 1.399 . S
C2293 C2294 1.376 . S
C2294 H2281 0.930 . S
C2294 C2293 1.376 . S
C2294 C2295 1.388 . S
C2295 H2282 0.930 . S
C2295 C2294 1.388 . S
C2295 C2296 1.390 . S
C2296 C2295 1.390 . S
C2296 C2297 1.394 . S
C2296 C2302 1.465 . S
C2297 C2292 1.399 . S
C2297 C2296 1.394 . S
C2297 C2298 1.516 . S
C2298 C2297 1.516 . S
C2298 C2299 1.502 . S
C2298 C2300 1.561 . S
C2298 C2301 1.526 . S
C2299 H2283 0.959 . S
C2299 H2284 0.959 . S
C2299 H2285 0.961 . S
C2299 C2298 1.502 . S
C2300 H2286 0.960 . S
C2300 H2287 0.961 . S
C2300 H2288 0.959 . S
C2300 C2298 1.561 . S
C2301 C2298 1.526 . S
C2301 C2302 1.396 . S
C2301 C2306 1.390 . S
C2302 C2296 1.465 . S
C2302 C2301 1.396 . S
C2302 C2303 1.399 . S
C2303 H2289 0.929 . S
C2303 C2302 1.399 . S
C2303 C2304 1.385 . S
C2304 H2290 0.931 . S
C2304 C2303 1.385 . S
C2304 C2305 1.389 . S
C2305 C2304 1.389 . S
C2305 C2306 1.387 . S
C2306 H2291 0.930 . S
C2306 C2301 1.390 . S
C2306 C2305 1.387 . S
H2307 C2319 0.930 1_565 S
H2308 C2321 0.930 . S
H2309 C2322 0.930 . S
H2310 C2326 0.959 . S
H2311 C2326 0.959 . S
H2312 C2326 0.961 . S
H2313 C2327 0.960 . S
H2314 C2327 0.961 . S
H2315 C2327 0.959 . S
H2316 C2330 0.929 . S
H2317 C2331 0.931 . S
H2318 C2333 0.930 1_565 S
C2319 H2307 0.930 1_545 S
C2319 C2320 1.399 . S
C2319 C2324 1.399 . S
C2320 C2319 1.399 . S
C2320 C2321 1.376 . S
C2321 H2308 0.930 . S
C2321 C2320 1.376 . S
C2321 C2322 1.388 . S
C2322 H2309 0.930 . S
C2322 C2321 1.388 . S
C2322 C2323 1.390 . S
C2323 C2322 1.390 . S
C2323 C2324 1.394 . S
C2323 C2329 1.465 . S
C2324 C2319 1.399 . S
C2324 C2323 1.394 . S
C2324 C2325 1.516 1_545 S
C2325 C2324 1.516 1_565 S
C2325 C2326 1.502 . S
C2325 C2327 1.561 . S
C2325 C2328 1.526 1_565 S
C2326 H2310 0.959 . S
C2326 H2311 0.959 . S
C2326 H2312 0.961 . S
C2326 C2325 1.502 . S
C2327 H2313 0.960 . S
C2327 H2314 0.961 . S
C2327 H2315 0.959 . S
C2327 C2325 1.561 . S
C2328 C2325 1.526 1_545 S
C2328 C2329 1.396 . S
C2328 C2333 1.390 . S
C2329 C2323 1.465 . S
C2329 C2328 1.396 . S
C2329 C2330 1.399 . S
C2330 H2316 0.929 . S
C2330 C2329 1.399 . S
C2330 C2331 1.385 . S
C2331 H2317 0.931 . S
C2331 C2330 1.385 . S
C2331 C2332 1.389 . S
C2332 C2331 1.389 . S
C2332 C2333 1.387 . S
C2333 H2318 0.930 1_545 S
C2333 C2328 1.390 . S
C2333 C2332 1.387 . S
H2334 C2346 0.930 . S
H2335 C2348 0.930 . S
H2336 C2349 0.930 . S
H2337 C2353 0.959 . S
H2338 C2353 0.959 . S
H2339 C2353 0.961 . S
H2340 C2354 0.960 . S
H2341 C2354 0.961 . S
H2342 C2354 0.959 . S
H2343 C2357 0.929 . S
H2344 C2358 0.931 . S
H2345 C2360 0.930 . S
C2346 H2334 0.930 . S
C2346 C2347 1.399 . S
C2346 C2351 1.399 . S
C2347 C2346 1.399 . S
C2347 C2348 1.376 . S
C2348 H2335 0.930 . S
C2348 C2347 1.376 . S
C2348 C2349 1.388 . S
C2349 H2336 0.930 . S
C2349 C2348 1.388 . S
C2349 C2350 1.390 . S
C2350 C2349 1.390 . S
C2350 C2351 1.394 . S
C2350 C2356 1.465 . S
C2351 C2346 1.399 . S
C2351 C2350 1.394 . S
C2351 C2352 1.516 . S
C2352 C2351 1.516 . S
C2352 C2353 1.502 . S
C2352 C2354 1.561 . S
C2352 C2355 1.526 . S
C2353 H2337 0.959 . S
C2353 H2338 0.959 . S
C2353 H2339 0.961 . S
C2353 C2352 1.502 . S
C2354 H2340 0.960 . S
C2354 H2341 0.961 . S
C2354 H2342 0.959 . S
C2354 C2352 1.561 . S
C2355 C2352 1.526 . S
C2355 C2356 1.396 . S
C2355 C2360 1.390 . S
C2356 C2350 1.465 . S
C2356 C2355 1.396 . S
C2356 C2357 1.399 . S
C2357 H2343 0.929 . S
C2357 C2356 1.399 . S
C2357 C2358 1.385 . S
C2358 H2344 0.931 . S
C2358 C2357 1.385 . S
C2358 C2359 1.389 . S
C2359 C2358 1.389 . S
C2359 C2360 1.387 . S
C2360 H2345 0.930 . S
C2360 C2355 1.390 . S
C2360 C2359 1.387 . S
H2361 C2373 0.930 . S
H2362 C2375 0.930 . S
H2363 C2376 0.930 . S
H2364 C2380 0.959 . S
H2365 C2380 0.959 . S
H2366 C2380 0.961 . S
H2367 C2381 0.960 . S
H2368 C2381 0.961 . S
H2369 C2381 0.959 . S
H2370 C2384 0.929 . S
H2371 C2385 0.931 . S
H2372 C2387 0.930 . S
C2373 H2361 0.930 . S
C2373 C2374 1.399 . S
C2373 C2378 1.399 . S
C2374 C2373 1.399 . S
C2374 C2375 1.376 . S
C2375 H2362 0.930 . S
C2375 C2374 1.376 . S
C2375 C2376 1.388 . S
C2376 H2363 0.930 . S
C2376 C2375 1.388 . S
C2376 C2377 1.390 . S
C2377 C2376 1.390 . S
C2377 C2378 1.394 . S
C2377 C2383 1.465 . S
C2378 C2373 1.399 . S
C2378 C2377 1.394 . S
C2378 C2379 1.516 . S
C2379 C2378 1.516 . S
C2379 C2380 1.502 . S
C2379 C2381 1.561 . S
C2379 C2382 1.526 . S
C2380 H2364 0.959 . S
C2380 H2365 0.959 . S
C2380 H2366 0.961 . S
C2380 C2379 1.502 . S
C2381 H2367 0.960 . S
C2381 H2368 0.961 . S
C2381 H2369 0.959 . S
C2381 C2379 1.561 . S
C2382 C2379 1.526 . S
C2382 C2383 1.396 . S
C2382 C2387 1.390 . S
C2383 C2377 1.465 . S
C2383 C2382 1.396 . S
C2383 C2384 1.399 . S
C2384 H2370 0.929 . S
C2384 C2383 1.399 . S
C2384 C2385 1.385 . S
C2385 H2371 0.931 . S
C2385 C2384 1.385 . S
C2385 C2386 1.389 . S
C2386 C2385 1.389 . S
C2386 C2387 1.387 . S
C2387 H2372 0.930 . S
C2387 C2382 1.390 . S
C2387 C2386 1.387 . S
H2388 C2400 0.930 . S
H2389 C2402 0.930 . S
H2390 C2403 0.930 . S
H2391 C2407 0.959 . S
H2392 C2407 0.959 . S
H2393 C2407 0.961 . S
H2394 C2408 0.960 . S
H2395 C2408 0.961 . S
H2396 C2408 0.959 . S
H2397 C2411 0.929 . S
H2398 C2412 0.931 . S
H2399 C2414 0.930 . S
C2400 H2388 0.930 . S
C2400 C2401 1.399 . S
C2400 C2405 1.399 . S
C2401 C2400 1.399 . S
C2401 C2402 1.376 . S
C2402 H2389 0.930 . S
C2402 C2401 1.376 . S
C2402 C2403 1.388 . S
C2403 H2390 0.930 . S
C2403 C2402 1.388 . S
C2403 C2404 1.390 . S
C2404 C2403 1.390 . S
C2404 C2405 1.394 . S
C2404 C2410 1.465 . S
C2405 C2400 1.399 . S
C2405 C2404 1.394 . S
C2405 C2406 1.516 . S
C2406 C2405 1.516 . S
C2406 C2407 1.502 . S
C2406 C2408 1.561 . S
C2406 C2409 1.526 . S
C2407 H2391 0.959 . S
C2407 H2392 0.959 . S
C2407 H2393 0.961 . S
C2407 C2406 1.502 . S
C2408 H2394 0.960 . S
C2408 H2395 0.961 . S
C2408 H2396 0.959 . S
C2408 C2406 1.561 . S
C2409 C2406 1.526 . S
C2409 C2410 1.396 . S
C2409 C2414 1.390 . S
C2410 C2404 1.465 . S
C2410 C2409 1.396 . S
C2410 C2411 1.399 . S
C2411 H2397 0.929 . S
C2411 C2410 1.399 . S
C2411 C2412 1.385 . S
C2412 H2398 0.931 . S
C2412 C2411 1.385 . S
C2412 C2413 1.389 . S
C2413 C2412 1.389 . S
C2413 C2414 1.387 . S
C2414 H2399 0.930 . S
C2414 C2409 1.390 . S
C2414 C2413 1.387 . S
H2415 C2427 0.930 . S
H2416 C2429 0.930 1_565 S
H2417 C2430 0.991 . S
H2418 C2434 0.959 . S
H2419 C2434 0.959 . S
H2420 C2434 0.961 . S
H2421 C2435 0.960 . S
H2422 C2435 0.961 . S
H2423 C2435 0.959 . S
H2424 C2438 0.929 . S
H2425 C2439 0.931 . S
H2426 C2441 0.930 . S
C2427 H2415 0.930 . S
C2427 C2428 1.399 . S
C2427 C2432 1.399 . S
C2428 C2427 1.399 . S
C2428 C2429 1.376 . S
C2429 H2416 0.930 1_545 S
C2429 C2428 1.376 . S
C2429 C2430 1.372 1_545 S
C2430 H2417 0.991 . S
C2430 C2429 1.372 1_565 S
C2430 C2431 1.348 1_565 S
C2431 C2430 1.348 1_545 S
C2431 C2432 1.394 . S
C2431 C2437 1.465 . S
C2432 C2427 1.399 . S
C2432 C2431 1.394 . S
C2432 C2433 1.516 . S
C2433 C2432 1.516 . S
C2433 C2434 1.502 . S
C2433 C2435 1.561 . S
C2433 C2436 1.526 . S
C2434 H2418 0.959 . S
C2434 H2419 0.959 . S
C2434 H2420 0.961 . S
C2434 C2433 1.502 . S
C2435 H2421 0.960 . S
C2435 H2422 0.961 . S
C2435 H2423 0.959 . S
C2435 C2433 1.561 . S
C2436 C2433 1.526 . S
C2436 C2437 1.396 . S
C2436 C2441 1.390 . S
C2437 C2431 1.465 . S
C2437 C2436 1.396 . S
C2437 C2438 1.399 1_545 S
C2438 H2424 0.929 . S
C2438 C2437 1.399 1_565 S
C2438 C2439 1.385 . S
C2439 H2425 0.931 . S
C2439 C2438 1.385 . S
C2439 C2440 1.389 1_565 S
C2440 C2439 1.389 1_545 S
C2440 C2441 1.387 . S
C2441 H2426 0.930 . S
C2441 C2436 1.390 . S
C2441 C2440 1.387 . S
H2442 C2454 0.930 . S
H2443 C2456 0.930 . S
H2444 C2457 0.930 . S
H2445 C2461 0.959 . S
H2446 C2461 0.959 . S
H2447 C2461 0.961 . S
H2448 C2462 0.960 . S
H2449 C2462 0.961 . S
H2450 C2462 0.959 . S
H2451 C2465 0.929 . S
H2452 C2466 0.931 . S
H2453 C2468 0.930 . S
C2454 H2442 0.930 . S
C2454 C2455 1.399 . S
C2454 C2459 1.399 . S
C2455 C2454 1.399 . S
C2455 C2456 1.376 . S
C2456 H2443 0.930 . S
C2456 C2455 1.376 . S
C2456 C2457 1.388 . S
C2457 H2444 0.930 . S
C2457 C2456 1.388 . S
C2457 C2458 1.390 . S
C2458 C2457 1.390 . S
C2458 C2459 1.394 . S
C2458 C2464 1.465 . S
C2459 C2454 1.399 . S
C2459 C2458 1.394 . S
C2459 C2460 1.516 . S
C2460 C2459 1.516 . S
C2460 C2461 1.502 . S
C2460 C2462 1.561 . S
C2460 C2463 1.526 . S
C2461 H2445 0.959 . S
C2461 H2446 0.959 . S
C2461 H2447 0.961 . S
C2461 C2460 1.502 . S
C2462 H2448 0.960 . S
C2462 H2449 0.961 . S
C2462 H2450 0.959 . S
C2462 C2460 1.561 . S
C2463 C2460 1.526 . S
C2463 C2464 1.396 . S
C2463 C2468 1.390 . S
C2464 C2458 1.465 . S
C2464 C2463 1.396 . S
C2464 C2465 1.399 . S
C2465 H2451 0.929 . S
C2465 C2464 1.399 . S
C2465 C2466 1.385 . S
C2466 H2452 0.931 . S
C2466 C2465 1.385 . S
C2466 C2467 1.389 . S
C2467 C2466 1.389 . S
C2467 C2468 1.387 . S
C2468 H2453 0.930 . S
C2468 C2463 1.390 . S
C2468 C2467 1.387 . S
H2469 C2481 0.930 . S
H2470 C2483 0.930 . S
H2471 C2484 0.930 . S
H2472 C2488 0.959 . S
H2473 C2488 0.959 . S
H2474 C2488 0.961 . S
H2475 C2489 0.960 . S
H2476 C2489 0.961 . S
H2477 C2489 0.959 . S
H2478 C2492 0.929 . S
H2479 C2493 0.931 . S
H2480 C2495 0.930 . S
C2481 H2469 0.930 . S
C2481 C2482 1.399 . S
C2481 C2486 1.399 . S
C2482 C2481 1.399 . S
C2482 C2483 1.376 . S
C2483 H2470 0.930 . S
C2483 C2482 1.376 . S
C2483 C2484 1.388 . S
C2484 H2471 0.930 . S
C2484 C2483 1.388 . S
C2484 C2485 1.390 . S
C2485 C2484 1.390 . S
C2485 C2486 1.394 . S
C2485 C2491 1.465 . S
C2486 C2481 1.399 . S
C2486 C2485 1.394 . S
C2486 C2487 1.516 . S
C2487 C2486 1.516 . S
C2487 C2488 1.502 . S
C2487 C2489 1.561 . S
C2487 C2490 1.526 . S
C2488 H2472 0.959 . S
C2488 H2473 0.959 . S
C2488 H2474 0.961 . S
C2488 C2487 1.502 . S
C2489 H2475 0.960 . S
C2489 H2476 0.961 . S
C2489 H2477 0.959 . S
C2489 C2487 1.561 . S
C2490 C2487 1.526 . S
C2490 C2491 1.396 . S
C2490 C2495 1.390 . S
C2491 C2485 1.465 . S
C2491 C2490 1.396 . S
C2491 C2492 1.399 . S
C2492 H2478 0.929 . S
C2492 C2491 1.399 . S
C2492 C2493 1.385 . S
C2493 H2479 0.931 . S
C2493 C2492 1.385 . S
C2493 C2494 1.389 . S
C2494 C2493 1.389 . S
C2494 C2495 1.387 . S
C2495 H2480 0.930 . S
C2495 C2490 1.390 . S
C2495 C2494 1.387 . S
H2496 C2508 0.930 . S
H2497 C2510 0.930 . S
H2498 C2511 0.930 . S
H2499 C2515 0.959 . S
H2500 C2515 0.959 . S
H2501 C2515 0.961 . S
H2502 C2516 0.960 . S
H2503 C2516 0.961 . S
H2504 C2516 0.959 . S
H2505 C2519 0.929 . S
H2506 C2520 0.931 . S
H2507 C2522 0.930 . S
C2508 H2496 0.930 . S
C2508 C2509 1.399 . S
C2508 C2513 1.399 . S
C2509 C2508 1.399 . S
C2509 C2510 1.376 . S
C2510 H2497 0.930 . S
C2510 C2509 1.376 . S
C2510 C2511 1.388 . S
C2511 H2498 0.930 . S
C2511 C2510 1.388 . S
C2511 C2512 1.390 . S
C2512 C2511 1.390 . S
C2512 C2513 1.394 . S
C2512 C2518 1.465 . S
C2513 C2508 1.399 . S
C2513 C2512 1.394 . S
C2513 C2514 1.516 . S
C2514 C2513 1.516 . S
C2514 C2515 1.502 . S
C2514 C2516 1.561 . S
C2514 C2517 1.526 . S
C2515 H2499 0.959 . S
C2515 H2500 0.959 . S
C2515 H2501 0.961 . S
C2515 C2514 1.502 . S
C2516 H2502 0.960 . S
C2516 H2503 0.961 . S
C2516 H2504 0.959 . S
C2516 C2514 1.561 . S
C2517 C2514 1.526 . S
C2517 C2518 1.396 . S
C2517 C2522 1.390 . S
C2518 C2512 1.465 . S
C2518 C2517 1.396 . S
C2518 C2519 1.399 . S
C2519 H2505 0.929 . S
C2519 C2518 1.399 . S
C2519 C2520 1.385 . S
C2520 H2506 0.931 . S
C2520 C2519 1.385 . S
C2520 C2521 1.389 . S
C2521 C2520 1.389 . S
C2521 C2522 1.387 . S
C2522 H2507 0.930 . S
C2522 C2517 1.390 . S
C2522 C2521 1.387 . S
H2523 C2535 0.930 . S
H2524 C2537 0.930 . S
H2525 C2538 0.930 . S
H2526 C2542 0.959 . S
H2527 C2542 0.959 . S
H2528 C2542 0.961 . S
H2529 C2543 0.960 . S
H2530 C2543 0.961 . S
H2531 C2543 0.959 . S
H2532 C2546 0.929 . S
H2533 C2547 0.931 . S
H2534 C2549 0.930 . S
C2535 H2523 0.930 . S
C2535 C2536 1.399 . S
C2535 C2540 1.399 . S
C2536 C2535 1.399 . S
C2536 C2537 1.376 . S
C2537 H2524 0.930 . S
C2537 C2536 1.376 . S
C2537 C2538 1.388 . S
C2538 H2525 0.930 . S
C2538 C2537 1.388 . S
C2538 C2539 1.390 . S
C2539 C2538 1.390 . S
C2539 C2540 1.394 . S
C2539 C2545 1.465 . S
C2540 C2535 1.399 . S
C2540 C2539 1.394 . S
C2540 C2541 1.516 . S
C2541 C2540 1.516 . S
C2541 C2542 1.502 1_655 S
C2541 C2543 1.561 . S
C2541 C2544 1.526 . S
C2542 H2526 0.959 . S
C2542 H2527 0.959 . S
C2542 H2528 0.961 . S
C2542 C2541 1.502 1_455 S
C2543 H2529 0.960 . S
C2543 H2530 0.961 . S
C2543 H2531 0.959 . S
C2543 C2541 1.561 . S
C2544 C2541 1.526 . S
C2544 C2545 1.396 . S
C2544 C2549 1.390 . S
C2545 C2539 1.465 . S
C2545 C2544 1.396 . S
C2545 C2546 1.399 . S
C2546 H2532 0.929 . S
C2546 C2545 1.399 . S
C2546 C2547 1.385 . S
C2547 H2533 0.931 . S
C2547 C2546 1.385 . S
C2547 C2548 1.389 . S
C2548 C2547 1.389 . S
C2548 C2549 1.387 . S
C2549 H2534 0.930 . S
C2549 C2544 1.390 . S
C2549 C2548 1.387 . S
H2550 C2562 0.930 . S
H2551 C2564 0.930 . S
H2552 C2565 0.930 . S
H2553 C2569 0.959 . S
H2554 C2569 0.959 . S
H2555 C2569 0.961 . S
H2556 C2570 0.960 . S
H2557 C2570 0.961 . S
H2558 C2570 0.959 . S
H2559 C2573 0.929 . S
H2560 C2574 0.931 . S
H2561 C2576 0.930 . S
C2562 H2550 0.930 . S
C2562 C2563 1.399 . S
C2562 C2567 1.399 . S
C2563 C2562 1.399 . S
C2563 C2564 1.376 . S
C2564 H2551 0.930 . S
C2564 C2563 1.376 . S
C2564 C2565 1.388 . S
C2565 H2552 0.930 . S
C2565 C2564 1.388 . S
C2565 C2566 1.390 . S
C2566 C2565 1.390 . S
C2566 C2567 1.394 . S
C2566 C2572 1.465 . S
C2567 C2562 1.399 . S
C2567 C2566 1.394 . S
C2567 C2568 1.516 . S
C2568 C2567 1.516 . S
C2568 C2569 1.502 . S
C2568 C2570 1.561 . S
C2568 C2571 1.526 . S
C2569 H2553 0.959 . S
C2569 H2554 0.959 . S
C2569 H2555 0.961 . S
C2569 C2568 1.502 . S
C2570 H2556 0.960 . S
C2570 H2557 0.961 . S
C2570 H2558 0.959 . S
C2570 C2568 1.561 . S
C2571 C2568 1.526 . S
C2571 C2572 1.396 . S
C2571 C2576 1.390 . S
C2572 C2566 1.465 . S
C2572 C2571 1.396 . S
C2572 C2573 1.399 . S
C2573 H2559 0.929 . S
C2573 C2572 1.399 . S
C2573 C2574 1.385 . S
C2574 H2560 0.931 . S
C2574 C2573 1.385 . S
C2574 C2575 1.389 . S
C2575 C2574 1.389 . S
C2575 C2576 1.387 . S
C2576 H2561 0.930 . S
C2576 C2571 1.390 . S
C2576 C2575 1.387 . S
H2577 C2589 0.930 . S
H2578 C2591 0.930 . S
H2579 C2592 0.930 . S
H2580 C2596 0.959 . S
H2581 C2596 0.959 . S
H2582 C2596 0.961 . S
H2583 C2597 0.960 . S
H2584 C2597 0.961 . S
H2585 C2597 0.959 . S
H2586 C2600 0.929 . S
H2587 C2601 0.931 . S
H2588 C2603 0.930 . S
C2589 H2577 0.930 . S
C2589 C2590 1.399 . S
C2589 C2594 1.399 . S
C2590 C2589 1.399 . S
C2590 C2591 1.376 . S
C2591 H2578 0.930 . S
C2591 C2590 1.376 . S
C2591 C2592 1.388 . S
C2592 H2579 0.930 . S
C2592 C2591 1.388 . S
C2592 C2593 1.390 . S
C2593 C2592 1.390 . S
C2593 C2594 1.394 . S
C2593 C2599 1.465 . S
C2594 C2589 1.399 . S
C2594 C2593 1.394 . S
C2594 C2595 1.516 . S
C2595 C2594 1.516 . S
C2595 C2596 1.502 1_455 S
C2595 C2597 1.561 . S
C2595 C2598 1.526 . S
C2596 H2580 0.959 . S
C2596 H2581 0.959 . S
C2596 H2582 0.961 . S
C2596 C2595 1.502 1_655 S
C2597 H2583 0.960 . S
C2597 H2584 0.961 . S
C2597 H2585 0.959 . S
C2597 C2595 1.561 . S
C2598 C2595 1.526 . S
C2598 C2599 1.396 . S
C2598 C2603 1.390 . S
C2599 C2593 1.465 . S
C2599 C2598 1.396 . S
C2599 C2600 1.399 . S
C2600 H2586 0.929 . S
C2600 C2599 1.399 . S
C2600 C2601 1.385 . S
C2601 H2587 0.931 . S
C2601 C2600 1.385 . S
C2601 C2602 1.389 . S
C2602 C2601 1.389 . S
C2602 C2603 1.387 . S
C2603 H2588 0.930 . S
C2603 C2598 1.390 . S
C2603 C2602 1.387 . S
H2604 C2616 0.930 . S
H2605 C2618 0.930 . S
H2606 C2619 0.930 . S
H2607 C2623 0.959 . S
H2608 C2623 0.959 . S
H2609 C2623 0.961 . S
H2610 C2624 0.960 . S
H2611 C2624 0.961 . S
H2612 C2624 0.959 . S
H2613 C2627 0.929 . S
H2614 C2628 0.931 . S
H2615 C2630 0.930 . S
C2616 H2604 0.930 . S
C2616 C2617 1.399 . S
C2616 C2621 1.399 . S
C2617 C2616 1.399 . S
C2617 C2618 1.376 . S
C2618 H2605 0.930 . S
C2618 C2617 1.376 . S
C2618 C2619 1.388 . S
C2619 H2606 0.930 . S
C2619 C2618 1.388 . S
C2619 C2620 1.390 . S
C2620 C2619 1.390 . S
C2620 C2621 1.394 . S
C2620 C2626 1.465 . S
C2621 C2616 1.399 . S
C2621 C2620 1.394 . S
C2621 C2622 1.516 . S
C2622 C2621 1.516 . S
C2622 C2623 1.502 . S
C2622 C2624 1.561 . S
C2622 C2625 1.526 . S
C2623 H2607 0.959 . S
C2623 H2608 0.959 . S
C2623 H2609 0.961 . S
C2623 C2622 1.502 . S
C2624 H2610 0.960 . S
C2624 H2611 0.961 . S
C2624 H2612 0.959 . S
C2624 C2622 1.561 . S
C2625 C2622 1.526 . S
C2625 C2626 1.396 . S
C2625 C2630 1.390 . S
C2626 C2620 1.465 . S
C2626 C2625 1.396 . S
C2626 C2627 1.399 . S
C2627 H2613 0.929 . S
C2627 C2626 1.399 . S
C2627 C2628 1.385 . S
C2628 H2614 0.931 . S
C2628 C2627 1.385 . S
C2628 C2629 1.389 . S
C2629 C2628 1.389 . S
C2629 C2630 1.387 . S
C2630 H2615 0.930 . S
C2630 C2625 1.390 . S
C2630 C2629 1.387 . S
H2631 C2643 0.930 . S
H2632 C2645 0.930 . S
H2633 C2646 0.930 . S
H2634 C2650 0.959 . S
H2635 C2650 0.959 . S
H2636 C2650 0.961 . S
H2637 C2651 0.960 . S
H2638 C2651 0.961 . S
H2639 C2651 0.959 . S
H2640 C2654 0.929 . S
H2641 C2655 0.931 . S
H2642 C2657 0.930 . S
C2643 H2631 0.930 . S
C2643 C2644 1.399 . S
C2643 C2648 1.399 . S
C2644 C2643 1.399 . S
C2644 C2645 1.376 . S
C2645 H2632 0.930 . S
C2645 C2644 1.376 . S
C2645 C2646 1.388 . S
C2646 H2633 0.930 . S
C2646 C2645 1.388 . S
C2646 C2647 1.390 . S
C2647 C2646 1.390 . S
C2647 C2648 1.394 . S
C2647 C2653 1.465 . S
C2648 C2643 1.399 . S
C2648 C2647 1.394 . S
C2648 C2649 1.516 . S
C2649 C2648 1.516 . S
C2649 C2650 1.502 . S
C2649 C2651 1.561 . S
C2649 C2652 1.526 . S
C2650 H2634 0.959 . S
C2650 H2635 0.959 . S
C2650 H2636 0.961 . S
C2650 C2649 1.502 . S
C2651 H2637 0.960 . S
C2651 H2638 0.961 . S
C2651 H2639 0.959 . S
C2651 C2649 1.561 . S
C2652 C2649 1.526 . S
C2652 C2653 1.396 . S
C2652 C2657 1.390 . S
C2653 C2647 1.465 . S
C2653 C2652 1.396 . S
C2653 C2654 1.399 . S
C2654 H2640 0.929 . S
C2654 C2653 1.399 . S
C2654 C2655 1.385 . S
C2655 H2641 0.931 . S
C2655 C2654 1.385 . S
C2655 C2656 1.389 . S
C2656 C2655 1.389 . S
C2656 C2657 1.387 . S
C2657 H2642 0.930 . S
C2657 C2652 1.390 . S
C2657 C2656 1.387 . S
H2658 C2670 0.930 . S
H2659 C2672 0.930 . S
H2660 C2673 0.930 . S
H2661 C2677 0.959 . S
H2662 C2677 0.959 . S
H2663 C2677 0.961 . S
H2664 C2678 0.960 . S
H2665 C2678 0.961 . S
H2666 C2678 0.959 . S
H2667 C2681 0.929 . S
H2668 C2682 0.931 . S
H2669 C2684 0.930 . S
C2670 H2658 0.930 . S
C2670 C2671 1.399 . S
C2670 C2675 1.399 . S
C2671 C2670 1.399 . S
C2671 C2672 1.376 . S
C2672 H2659 0.930 . S
C2672 C2671 1.376 . S
C2672 C2673 1.388 . S
C2673 H2660 0.930 . S
C2673 C2672 1.388 . S
C2673 C2674 1.390 . S
C2674 C2673 1.390 . S
C2674 C2675 1.394 . S
C2674 C2680 1.465 . S
C2675 C2670 1.399 . S
C2675 C2674 1.394 . S
C2675 C2676 1.516 . S
C2676 C2675 1.516 . S
C2676 C2677 1.502 . S
C2676 C2678 1.561 . S
C2676 C2679 1.526 . S
C2677 H2661 0.959 . S
C2677 H2662 0.959 . S
C2677 H2663 0.961 . S
C2677 C2676 1.502 . S
C2678 H2664 0.960 . S
C2678 H2665 0.961 . S
C2678 H2666 0.959 . S
C2678 C2676 1.561 . S
C2679 C2676 1.526 . S
C2679 C2680 1.396 . S
C2679 C2684 1.390 . S
C2680 C2674 1.465 . S
C2680 C2679 1.396 . S
C2680 C2681 1.399 . S
C2681 H2667 0.929 . S
C2681 C2680 1.399 . S
C2681 C2682 1.385 . S
C2682 H2668 0.931 . S
C2682 C2681 1.385 . S
C2682 C2683 1.389 . S
C2683 C2682 1.389 . S
C2683 C2684 1.387 . S
C2684 H2669 0.930 . S
C2684 C2679 1.390 . S
C2684 C2683 1.387 . S
H2685 C2697 0.930 . S
H2686 C2699 0.930 . S
H2687 C2700 0.930 . S
H2688 C2704 0.959 . S
H2689 C2704 0.959 . S
H2690 C2704 0.961 . S
H2691 C2705 0.960 . S
H2692 C2705 0.961 . S
H2693 C2705 0.959 . S
H2694 C2708 0.929 . S
H2695 C2709 0.931 . S
H2696 C2711 0.930 . S
C2697 H2685 0.930 . S
C2697 C2698 1.399 . S
C2697 C2702 1.399 . S
C2698 C2697 1.399 . S
C2698 C2699 1.376 . S
C2699 H2686 0.930 . S
C2699 C2698 1.376 . S
C2699 C2700 1.388 . S
C2700 H2687 0.930 . S
C2700 C2699 1.388 . S
C2700 C2701 1.390 . S
C2701 C2700 1.390 . S
C2701 C2702 1.394 . S
C2701 C2707 1.465 . S
C2702 C2697 1.399 . S
C2702 C2701 1.394 . S
C2702 C2703 1.516 . S
C2703 C2702 1.516 . S
C2703 C2704 1.502 . S
C2703 C2705 1.561 . S
C2703 C2706 1.526 . S
C2704 H2688 0.959 . S
C2704 H2689 0.959 . S
C2704 H2690 0.961 . S
C2704 C2703 1.502 . S
C2705 H2691 0.960 . S
C2705 H2692 0.961 . S
C2705 H2693 0.959 . S
C2705 C2703 1.561 . S
C2706 C2703 1.526 . S
C2706 C2707 1.396 . S
C2706 C2711 1.390 . S
C2707 C2701 1.465 . S
C2707 C2706 1.396 . S
C2707 C2708 1.399 . S
C2708 H2694 0.929 . S
C2708 C2707 1.399 . S
C2708 C2709 1.385 . S
C2709 H2695 0.931 . S
C2709 C2708 1.385 . S
C2709 C2710 1.389 . S
C2710 C2709 1.389 . S
C2710 C2711 1.387 . S
C2711 H2696 0.930 . S
C2711 C2706 1.390 . S
C2711 C2710 1.387 . S
H2712 C2724 0.930 . S
H2713 C2726 0.930 . S
H2714 C2727 0.930 . S
H2715 C2731 0.959 . S
H2716 C2731 0.959 . S
H2717 C2731 0.961 . S
H2718 C2732 0.960 . S
H2719 C2732 0.961 . S
H2720 C2732 0.959 . S
H2721 C2735 0.929 . S
H2722 C2736 0.931 . S
H2723 C2738 0.930 . S
C2724 H2712 0.930 . S
C2724 C2725 1.399 . S
C2724 C2729 1.399 . S
C2725 C2724 1.399 . S
C2725 C2726 1.376 . S
C2726 H2713 0.930 . S
C2726 C2725 1.376 . S
C2726 C2727 1.388 . S
C2727 H2714 0.930 . S
C2727 C2726 1.388 . S
C2727 C2728 1.390 . S
C2728 C2727 1.390 . S
C2728 C2729 1.394 . S
C2728 C2734 1.465 . S
C2729 C2724 1.399 . S
C2729 C2728 1.394 . S
C2729 C2730 1.516 . S
C2730 C2729 1.516 . S
C2730 C2731 1.502 . S
C2730 C2732 1.561 . S
C2730 C2733 1.526 . S
C2731 H2715 0.959 . S
C2731 H2716 0.959 . S
C2731 H2717 0.961 . S
C2731 C2730 1.502 . S
C2732 H2718 0.960 . S
C2732 H2719 0.961 . S
C2732 H2720 0.959 . S
C2732 C2730 1.561 . S
C2733 C2730 1.526 . S
C2733 C2734 1.396 . S
C2733 C2738 1.390 . S
C2734 C2728 1.465 . S
C2734 C2733 1.396 . S
C2734 C2735 1.399 . S
C2735 H2721 0.929 . S
C2735 C2734 1.399 . S
C2735 C2736 1.385 . S
C2736 H2722 0.931 . S
C2736 C2735 1.385 . S
C2736 C2737 1.389 . S
C2737 C2736 1.389 . S
C2737 C2738 1.387 . S
C2738 H2723 0.930 . S
C2738 C2733 1.390 . S
C2738 C2737 1.387 . S
H2739 C2751 0.930 . S
H2740 C2753 0.930 . S
H2741 C2754 0.930 . S
H2742 C2758 0.959 . S
H2743 C2758 0.959 . S
H2744 C2758 0.961 . S
H2745 C2759 0.960 . S
H2746 C2759 0.961 . S
H2747 C2759 0.959 . S
H2748 C2762 0.929 . S
H2749 C2763 0.931 . S
H2750 C2765 0.930 . S
C2751 H2739 0.930 . S
C2751 C2752 1.399 . S
C2751 C2756 1.399 . S
C2752 C2751 1.399 . S
C2752 C2753 1.376 . S
C2753 H2740 0.930 . S
C2753 C2752 1.376 . S
C2753 C2754 1.388 . S
C2754 H2741 0.930 . S
C2754 C2753 1.388 . S
C2754 C2755 1.390 . S
C2755 C2754 1.390 . S
C2755 C2756 1.394 . S
C2755 C2761 1.465 . S
C2756 C2751 1.399 . S
C2756 C2755 1.394 . S
C2756 C2757 1.516 . S
C2757 C2756 1.516 . S
C2757 C2758 1.502 . S
C2757 C2759 1.561 . S
C2757 C2760 1.526 . S
C2758 H2742 0.959 . S
C2758 H2743 0.959 . S
C2758 H2744 0.961 . S
C2758 C2757 1.502 . S
C2759 H2745 0.960 . S
C2759 H2746 0.961 . S
C2759 H2747 0.959 . S
C2759 C2757 1.561 . S
C2760 C2757 1.526 . S
C2760 C2761 1.396 . S
C2760 C2765 1.390 . S
C2761 C2755 1.465 . S
C2761 C2760 1.396 . S
C2761 C2762 1.399 . S
C2762 H2748 0.929 . S
C2762 C2761 1.399 . S
C2762 C2763 1.385 . S
C2763 H2749 0.931 . S
C2763 C2762 1.385 . S
C2763 C2764 1.389 . S
C2764 C2763 1.389 . S
C2764 C2765 1.387 . S
C2765 H2750 0.930 . S
C2765 C2760 1.390 . S
C2765 C2764 1.387 . S
H2766 C2778 0.930 . S
H2767 C2780 0.930 . S
H2768 C2781 0.930 . S
H2769 C2785 0.959 . S
H2770 C2785 0.959 . S
H2771 C2785 0.961 . S
H2772 C2786 0.960 . S
H2773 C2786 0.961 . S
H2774 C2786 0.959 . S
H2775 C2789 0.929 . S
H2776 C2790 0.931 . S
H2777 C2792 0.930 . S
C2778 H2766 0.930 . S
C2778 C2779 1.399 . S
C2778 C2783 1.399 . S
C2779 C2778 1.399 . S
C2779 C2780 1.376 . S
C2780 H2767 0.930 . S
C2780 C2779 1.376 . S
C2780 C2781 1.388 . S
C2781 H2768 0.930 . S
C2781 C2780 1.388 . S
C2781 C2782 1.390 . S
C2782 C2781 1.390 . S
C2782 C2783 1.394 . S
C2782 C2788 1.465 . S
C2783 C2778 1.399 . S
C2783 C2782 1.394 . S
C2783 C2784 1.516 . S
C2784 C2783 1.516 . S
C2784 C2785 1.502 . S
C2784 C2786 1.561 . S
C2784 C2787 1.526 . S
C2785 H2769 0.959 . S
C2785 H2770 0.959 . S
C2785 H2771 0.961 . S
C2785 C2784 1.502 . S
C2786 H2772 0.960 . S
C2786 H2773 0.961 . S
C2786 H2774 0.959 . S
C2786 C2784 1.561 . S
C2787 C2784 1.526 . S
C2787 C2788 1.396 . S
C2787 C2792 1.390 . S
C2788 C2782 1.465 . S
C2788 C2787 1.396 . S
C2788 C2789 1.399 . S
C2789 H2775 0.929 . S
C2789 C2788 1.399 . S
C2789 C2790 1.385 . S
C2790 H2776 0.931 . S
C2790 C2789 1.385 . S
C2790 C2791 1.389 . S
C2791 C2790 1.389 . S
C2791 C2792 1.387 . S
C2792 H2777 0.930 . S
C2792 C2787 1.390 . S
C2792 C2791 1.387 . S
H2793 C2805 0.930 . S
H2794 C2807 0.930 . S
H2795 C2808 0.930 . S
H2796 C2812 0.959 . S
H2797 C2812 0.959 . S
H2798 C2812 0.961 . S
H2799 C2813 0.960 . S
H2800 C2813 0.961 . S
H2801 C2813 0.959 . S
H2802 C2816 0.929 . S
H2803 C2817 0.931 . S
H2804 C2819 0.930 . S
C2805 H2793 0.930 . S
C2805 C2806 1.399 . S
C2805 C2810 1.399 . S
C2806 C2805 1.399 . S
C2806 C2807 1.376 . S
C2807 H2794 0.930 . S
C2807 C2806 1.376 . S
C2807 C2808 1.388 . S
C2808 H2795 0.930 . S
C2808 C2807 1.388 . S
C2808 C2809 1.390 . S
C2809 C2808 1.390 . S
C2809 C2810 1.394 . S
C2809 C2815 1.465 . S
C2810 C2805 1.399 . S
C2810 C2809 1.394 . S
C2810 C2811 1.516 . S
C2811 C2810 1.516 . S
C2811 C2812 1.502 . S
C2811 C2813 1.561 . S
C2811 C2814 1.526 . S
C2812 H2796 0.959 . S
C2812 H2797 0.959 . S
C2812 H2798 0.961 . S
C2812 C2811 1.502 . S
C2813 H2799 0.960 . S
C2813 H2800 0.961 . S
C2813 H2801 0.959 . S
C2813 C2811 1.561 . S
C2814 C2811 1.526 . S
C2814 C2815 1.396 . S
C2814 C2819 1.390 . S
C2815 C2809 1.465 . S
C2815 C2814 1.396 . S
C2815 C2816 1.399 . S
C2816 H2802 0.929 . S
C2816 C2815 1.399 . S
C2816 C2817 1.385 . S
C2817 H2803 0.931 . S
C2817 C2816 1.385 . S
C2817 C2818 1.389 . S
C2818 C2817 1.389 . S
C2818 C2819 1.387 . S
C2819 H2804 0.930 . S
C2819 C2814 1.390 . S
C2819 C2818 1.387 . S
H2820 C2832 0.930 . S
H2821 C2834 0.930 1_554 S
H2822 C2835 0.930 . S
H2823 C2839 0.959 . S
H2824 C2839 0.959 . S
H2825 C2839 0.961 . S
H2826 C2840 0.960 . S
H2827 C2840 0.961 . S
H2828 C2840 0.959 . S
H2829 C2843 0.929 . S
H2830 C2844 0.931 . S
H2831 C2846 0.930 . S
C2832 H2820 0.930 . S
C2832 C2833 1.399 . S
C2832 C2837 1.399 . S
C2833 C2832 1.399 . S
C2833 C2834 1.376 . S
C2834 H2821 0.930 1_556 S
C2834 C2833 1.376 . S
C2834 C2835 1.388 1_556 S
C2835 H2822 0.930 . S
C2835 C2834 1.388 1_554 S
C2835 C2836 1.390 1_554 S
C2836 C2835 1.390 1_556 S
C2836 C2837 1.394 . S
C2836 C2842 1.465 . S
C2837 C2832 1.399 . S
C2837 C2836 1.394 . S
C2837 C2838 1.516 . S
C2838 C2837 1.516 . S
C2838 C2839 1.502 . S
C2838 C2840 1.561 . S
C2838 C2841 1.526 . S
C2839 H2823 0.959 . S
C2839 H2824 0.959 . S
C2839 H2825 0.961 . S
C2839 C2838 1.502 . S
C2840 H2826 0.960 . S
C2840 H2827 0.961 . S
C2840 H2828 0.959 . S
C2840 C2838 1.561 . S
C2841 C2838 1.526 . S
C2841 C2842 1.396 . S
C2841 C2846 1.390 . S
C2842 C2836 1.465 . S
C2842 C2841 1.396 . S
C2842 C2843 1.399 1_556 S
C2843 H2829 0.929 . S
C2843 C2842 1.399 1_554 S
C2843 C2844 1.385 . S
C2844 H2830 0.931 . S
C2844 C2843 1.385 . S
C2844 C2845 1.389 1_554 S
C2845 C2844 1.389 1_556 S
C2845 C2846 1.387 . S
C2846 H2831 0.930 . S
C2846 C2841 1.390 . S
C2846 C2845 1.387 . S
H2847 C2859 0.930 . S
H2848 C2861 0.930 . S
H2849 C2862 0.930 . S
H2850 C2866 0.959 . S
H2851 C2866 0.959 . S
H2852 C2866 0.961 . S
H2853 C2867 0.960 . S
H2854 C2867 0.961 . S
H2855 C2867 0.959 . S
H2856 C2870 0.929 . S
H2857 C2871 0.931 . S
H2858 C2873 0.930 . S
C2859 H2847 0.930 . S
C2859 C2860 1.399 . S
C2859 C2864 1.399 . S
C2860 C2859 1.399 . S
C2860 C2861 1.376 . S
C2861 H2848 0.930 . S
C2861 C2860 1.376 . S
C2861 C2862 1.388 . S
C2862 H2849 0.930 . S
C2862 C2861 1.388 . S
C2862 C2863 1.390 . S
C2863 C2862 1.390 . S
C2863 C2864 1.394 . S
C2863 C2869 1.465 . S
C2864 C2859 1.399 . S
C2864 C2863 1.394 . S
C2864 C2865 1.516 . S
C2865 C2864 1.516 . S
C2865 C2866 1.502 . S
C2865 C2867 1.561 . S
C2865 C2868 1.526 . S
C2866 H2850 0.959 . S
C2866 H2851 0.959 . S
C2866 H2852 0.961 . S
C2866 C2865 1.502 . S
C2867 H2853 0.960 . S
C2867 H2854 0.961 . S
C2867 H2855 0.959 . S
C2867 C2865 1.561 . S
C2868 C2865 1.526 . S
C2868 C2869 1.396 . S
C2868 C2873 1.390 . S
C2869 C2863 1.465 . S
C2869 C2868 1.396 . S
C2869 C2870 1.399 . S
C2870 H2856 0.929 . S
C2870 C2869 1.399 . S
C2870 C2871 1.385 . S
C2871 H2857 0.931 . S
C2871 C2870 1.385 . S
C2871 C2872 1.389 . S
C2872 C2871 1.389 . S
C2872 C2873 1.387 . S
C2873 H2858 0.930 . S
C2873 C2868 1.390 . S
C2873 C2872 1.387 . S
H2874 C2886 0.930 . S
H2875 C2888 0.930 . S
H2876 C2889 0.930 . S
H2877 C2893 0.978 . S
H2878 C2893 0.959 . S
H2879 C2893 0.961 . S
H2880 C2894 0.960 . S
H2881 C2894 0.961 . S
H2882 C2894 0.959 . S
H2883 C2897 0.929 . S
H2884 C2898 0.931 . S
H2885 C2900 0.930 . S
C2886 H2874 0.930 . S
C2886 C2887 1.399 . S
C2886 C2891 1.399 . S
C2887 C2886 1.399 . S
C2887 C2888 1.376 . S
C2888 H2875 0.930 . S
C2888 C2887 1.376 . S
C2888 C2889 1.388 . S
C2889 H2876 0.930 . S
C2889 C2888 1.388 . S
C2889 C2890 1.390 . S
C2890 C2889 1.390 . S
C2890 C2891 1.394 . S
C2890 C2896 1.465 . S
C2891 C2886 1.399 . S
C2891 C2890 1.394 . S
C2891 C2892 1.516 . S
C2892 C2891 1.516 . S
C2892 C2893 1.502 . S
C2892 C2894 1.561 . S
C2892 C2895 1.526 . S
C2893 H2877 0.978 . S
C2893 H2878 0.959 . S
C2893 H2879 0.961 . S
C2893 C2892 1.502 . S
C2894 H2880 0.960 . S
C2894 H2881 0.961 . S
C2894 H2882 0.959 . S
C2894 C2892 1.561 . S
C2895 C2892 1.526 . S
C2895 C2896 1.396 . S
C2895 C2900 1.390 . S
C2896 C2890 1.465 . S
C2896 C2895 1.396 . S
C2896 C2897 1.399 . S
C2897 H2883 0.929 . S
C2897 C2896 1.399 . S
C2897 C2898 1.385 . S
C2898 H2884 0.931 . S
C2898 C2897 1.385 . S
C2898 C2899 1.389 . S
C2899 C2898 1.389 . S
C2899 C2900 1.387 . S
C2900 H2885 0.930 . S
C2900 C2895 1.390 . S
C2900 C2899 1.387 . S
H2901 C2913 0.930 . S
H2902 C2915 0.930 . S
H2903 C2916 0.930 1_556 S
H2904 C2920 0.959 . S
H2905 C2920 0.959 . S
H2906 C2920 0.961 . S
H2907 C2921 0.960 . S
H2908 C2921 0.961 . S
H2909 C2921 0.959 . S
H2910 C2924 0.910 1_556 S
H2911 C2925 0.931 1_556 S
H2912 C2927 0.930 . S
C2913 H2901 0.930 . S
C2913 C2914 1.399 . S
C2913 C2918 1.399 . S
C2914 C2913 1.399 . S
C2914 C2915 1.376 . S
C2915 H2902 0.930 . S
C2915 C2914 1.376 . S
C2915 C2916 1.388 . S
C2916 H2903 0.930 1_554 S
C2916 C2915 1.388 . S
C2916 C2917 1.390 . S
C2917 C2916 1.390 . S
C2917 C2918 1.394 . S
C2917 C2923 1.465 . S
C2918 C2913 1.399 . S
C2918 C2917 1.394 . S
C2918 C2919 1.516 . S
C2919 C2918 1.516 . S
C2919 C2920 1.502 . S
C2919 C2921 1.561 . S
C2919 C2922 1.526 . S
C2920 H2904 0.959 . S
C2920 H2905 0.959 . S
C2920 H2906 0.961 . S
C2920 C2919 1.502 . S
C2921 H2907 0.960 . S
C2921 H2908 0.961 . S
C2921 H2909 0.959 . S
C2921 C2919 1.561 . S
C2922 C2919 1.526 . S
C2922 C2923 1.396 . S
C2922 C2927 1.390 . S
C2923 C2917 1.465 . S
C2923 C2922 1.396 . S
C2923 C2924 1.417 . S
C2924 H2910 0.910 1_554 S
C2924 C2923 1.417 . S
C2924 C2925 1.388 . S
C2925 H2911 0.931 1_554 S
C2925 C2924 1.388 . S
C2925 C2926 1.389 . S
C2926 C2925 1.389 . S
C2926 C2927 1.387 . S
C2927 H2912 0.930 . S
C2927 C2922 1.390 . S
C2927 C2926 1.387 . S
C1657 C625 1.489 . S
C1645 C181 1.491 . S
C1684 C684 1.514 . S
C1672 C247 1.514 . S
C1699 C283 1.486 . S
C1711 C801 1.519 . S
C1738 C869 1.510 . S
C1726 C169 1.518 . S
C1765 C948 1.499 . S
C1753 C361 1.512 . S
C1792 C1073 1.510 . S
C1780 C433 1.520 . S
C1807 C421 1.507 . S
C1819 C1133 1.494 . S
C1846 C1241 1.522 . S
C1834 C355 1.524 . S
C1861 C427 1.500 . S
C1873 C1337 1.517 . S
C1900 C1397 1.520 . S
C1888 C325 1.517 . S
C1915 C385 1.493 . S
C1927 C1300 1.502 . S
C1954 C1417 1.514 . S
C1942 C463 1.511 . S
C1969 C253 1.504 . S
C1981 C1485 1.515 . S
C1996 C145 1.510 . S
C2008 C1476 1.519 . S
C2023 C205 1.458 . S
C2035 C1505 1.488 . S
C2050 C217 1.509 . S
C2062 C1513 1.507 . S
C2077 C139 1.501 . S
C2089 C897 1.512 . S
C2104 C535 1.490 . S
C2116 C860 1.502 . S
C2143 C596 1.492 . S
C2131 C565 1.491 . S
C2170 C693 1.499 . S
C2158 C313 1.501 . S
C2185 C175 1.533 . S
C2197 C957 1.526 . S
C2224 C1249 1.497 . S
C2212 C397 1.490 . S
C2251 C977 1.514 . S
C2239 C349 1.513 . S
C2278 C1161 1.519 . S
C2266 C457 1.529 . S
C2305 C1153 1.498 . S
C2293 C505 1.467 . S
C2320 C571 1.513 . S
C2332 C1221 1.513 . S
C2347 C319 1.485 . S
C2359 C985 1.515 . S
C2386 C1036 1.511 . S
C2374 C493 1.515 . S
C2401 C109 1.513 . S
C2413 C781 1.494 . S
C2440 C889 1.511 . S
C2428 C1 1.520 . S
C2467 C605 1.494 . S
C2455 C61 1.507 . S
C2494 C721 1.522 . S
C2482 C103 1.523 . S
C2509 C67 1.509 . S
C2521 C1425 1.517 . S
C2536 C73 1.510 . S
C2548 C1309 1.511 . S
C2563 C133 1.499 . S
C2575 C1388 1.500 . S
C2590 C31 1.510 . S
C2602 C1329 1.514 . S
C2629 C1573 1.517 . S
C2617 C289 1.498 . S
C2656 C1564 1.515 . S
C2644 C469 1.505 . S
C2683 C1593 1.489 . S
C2671 C529 1.455 . S
C2698 C541 1.498 . S
C2710 C1601 1.501 . S
C2725 C391 1.504 . S
C2737 C1065 1.512 . S
C2764 C1045 1.505 . S
C2752 C211 1.482 . S
C2791 C1124 1.497 . S
C2779 C241 1.496 . S
C2818 C1212 1.504 . S
C2806 C277 1.494 . S
C2833 C499 1.533 . S
C2845 C772 1.526 . S
C2872 C713 1.497 . S
C2860 C37 1.496 . S
C2887 C97 1.507 . S
C2899 C809 1.508 . S
C2926 C633 1.526 . S
C2914 C25 1.506 . S
