# Generated by pormake.
# Topology hwx, (6,3)-cn, num edge types: 1
# Building blocks:
#     Node 0, Type 0, BuildingBlock: IZENUY_clean_sbu_0, # of connection points: 6
#     Node 1, Type 0, BuildingBlock: IZENUY_clean_sbu_0, # of connection points: 6
#     Node 2, Type 0, BuildingBlock: IZENUY_clean_sbu_0, # of connection points: 6
#     Node 3, Type 0, BuildingBlock: IZENUY_clean_sbu_0, # of connection points: 6
#     Node 4, Type 1, BuildingBlock: BETDAH_clean_linker_0, # of connection points: 3
#     Node 5, Type 1, BuildingBlock: BETDAH_clean_linker_0, # of connection points: 3
#     Node 6, Type 1, BuildingBlock: BETDAH_clean_linker_0, # of connection points: 3
#     Node 7, Type 1, BuildingBlock: BETDAH_clean_linker_0, # of connection points: 3
#     Node 8, Type 1, BuildingBlock: BETDAH_clean_linker_0, # of connection points: 3
#     Node 9, Type 1, BuildingBlock: BETDAH_clean_linker_0, # of connection points: 3
#     Node 10, Type 1, BuildingBlock: BETDAH_clean_linker_0, # of connection points: 3
#     Node 11, Type 1, BuildingBlock: BETDAH_clean_linker_0, # of connection points: 3
#     Edge 12, Type (0, 1), BuildingBlock: XUDNAN_clean_linker_2, # of connection points: 2
#     Edge 13, Type (0, 1), BuildingBlock: XUDNAN_clean_linker_2, # of connection points: 2
#     Edge 14, Type (0, 1), BuildingBlock: XUDNAN_clean_linker_2, # of connection points: 2
#     Edge 15, Type (0, 1), BuildingBlock: XUDNAN_clean_linker_2, # of connection points: 2
#     Edge 16, Type (0, 1), BuildingBlock: XUDNAN_clean_linker_2, # of connection points: 2
#     Edge 17, Type (0, 1), BuildingBlock: XUDNAN_clean_linker_2, # of connection points: 2
#     Edge 18, Type (0, 1), BuildingBlock: XUDNAN_clean_linker_2, # of connection points: 2
#     Edge 19, Type (0, 1), BuildingBlock: XUDNAN_clean_linker_2, # of connection points: 2
#     Edge 20, Type (0, 1), BuildingBlock: XUDNAN_clean_linker_2, # of connection points: 2
#     Edge 21, Type (0, 1), BuildingBlock: XUDNAN_clean_linker_2, # of connection points: 2
#     Edge 22, Type (0, 1), BuildingBlock: XUDNAN_clean_linker_2, # of connection points: 2
#     Edge 23, Type (0, 1), BuildingBlock: XUDNAN_clean_linker_2, # of connection points: 2
#     Edge 24, Type (0, 1), BuildingBlock: XUDNAN_clean_linker_2, # of connection points: 2
#     Edge 25, Type (0, 1), BuildingBlock: XUDNAN_clean_linker_2, # of connection points: 2
#     Edge 26, Type (0, 1), BuildingBlock: XUDNAN_clean_linker_2, # of connection points: 2
#     Edge 27, Type (0, 1), BuildingBlock: XUDNAN_clean_linker_2, # of connection points: 2
#     Edge 28, Type (0, 1), BuildingBlock: XUDNAN_clean_linker_2, # of connection points: 2
#     Edge 29, Type (0, 1), BuildingBlock: XUDNAN_clean_linker_2, # of connection points: 2
#     Edge 30, Type (0, 1), BuildingBlock: XUDNAN_clean_linker_2, # of connection points: 2
#     Edge 31, Type (0, 1), BuildingBlock: XUDNAN_clean_linker_2, # of connection points: 2
#     Edge 32, Type (0, 1), BuildingBlock: XUDNAN_clean_linker_2, # of connection points: 2
#     Edge 33, Type (0, 1), BuildingBlock: XUDNAN_clean_linker_2, # of connection points: 2
#     Edge 34, Type (0, 1), BuildingBlock: XUDNAN_clean_linker_2, # of connection points: 2
#     Edge 35, Type (0, 1), BuildingBlock: XUDNAN_clean_linker_2, # of connection points: 2
# Relax obj value: 0.003
# Max RMSD: 0.059
# Mean RMSD: 0.048
data_MOF--net-hwx--node1-IZENUY_clean_sbu_0--node2-BETDAH_clean_linker_0--edge1-XUDNAN_clean_linker_2
_symmetry_space_group_name_H-M    P1
_symmetry_Int_Tables_number       1
_symmetry_cell_setting            triclinic
loop_
_symmetry_equiv_pos_as_xyz
'x, y, z'
_cell_length_a     50.928525
_cell_length_b     51.21435
_cell_length_c     20.784791
_cell_angle_alpha  91.684858
_cell_angle_beta   92.128892
_cell_angle_gamma 90.349439
loop_
_atom_site_label
_atom_site_type_symbol
_atom_site_fract_x
_atom_site_fract_y
_atom_site_fract_z
_atom_type_partial_charge
Fe0 Fe 0.24879 0.2418 0.10351 0.0
Fe1 Fe 0.25238 0.25268 0.95913 0.0
O2 O 0.23826 0.23536 0.02212 0.0
Fe3 Fe 0.21329 0.21163 0.00341 0.0
O4 O 0.18977 0.22955 0.05082 0.0
O5 O 0.21624 0.23624 0.13601 0.0
O6 O 0.23999 0.27618 0.09916 0.0
C7 C 0.24752 0.29161 0.05728 0.0
C8 C 0.24292 0.1885 0.10507 0.0
O9 O 0.25756 0.28325 0.00606 0.0
C10 C 0.24753 0.20079 0.90837 0.0
O11 O 0.28323 0.24867 0.08519 0.0
O12 O 0.28512 0.24132 0.98064 0.0
O13 O 0.22203 0.19067 0.07082 0.0
O14 O 0.25827 0.20783 0.11467 0.0
C15 C 0.20092 0.25154 0.9161 0.0
O16 O 0.25002 0.22512 0.90066 0.0
O17 O 0.2352 0.19219 0.95494 0.0
C18 C 0.2964 0.24402 0.03555 0.0
O19 O 0.22058 0.26553 0.93305 0.0
O20 O 0.19969 0.22794 0.93211 0.0
C21 C 0.19338 0.23607 0.10958 0.0
Fe22 Fe 0.27697 0.74418 0.55021 0.0
Fe23 Fe 0.31628 0.70756 0.4849 0.0
O24 O 0.29061 0.73082 0.47916 0.0
Fe25 Fe 0.27873 0.74049 0.40223 0.0
O26 O 0.28708 0.77428 0.42038 0.0
O27 O 0.271 0.77694 0.51708 0.0
O28 O 0.30872 0.75668 0.58005 0.0
C29 C 0.32888 0.74293 0.5891 0.0
C30 C 0.23218 0.73762 0.4736 0.0
O31 O 0.33057 0.72063 0.56181 0.0
C32 C 0.28515 0.68816 0.37837 0.0
O33 O 0.2804 0.71367 0.59585 0.0
O34 O 0.29538 0.6852 0.52503 0.0
O35 O 0.24453 0.7452 0.4257 0.0
O36 O 0.24423 0.73279 0.52595 0.0
C37 C 0.33391 0.73818 0.39024 0.0
O38 O 0.30694 0.68976 0.40954 0.0
O39 O 0.26954 0.70719 0.37813 0.0
C40 C 0.28376 0.69017 0.57642 0.0
O41 O 0.33877 0.7286 0.44455 0.0
O42 O 0.31084 0.73797 0.3651 0.0
C43 C 0.27971 0.7878 0.46786 0.0
Fe44 Fe 0.77931 0.77987 0.98968 0.0
Fe45 Fe 0.77795 0.7837 0.13791 0.0
O46 O 0.7908 0.79397 0.06448 0.0
Fe47 Fe 0.81521 0.81867 0.06569 0.0
O48 O 0.79374 0.83984 0.01958 0.0
O49 O 0.78309 0.81004 0.94453 0.0
O50 O 0.74606 0.79019 0.00391 0.0
C51 C 0.73305 0.78468 0.05218 0.0
C52 C 0.8316 0.78365 0.96793 0.0
O53 O 0.74443 0.77706 0.10363 0.0
C54 C 0.83273 0.78921 0.16535 0.0
O55 O 0.77333 0.7473 0.02164 0.0
O56 O 0.78801 0.75026 0.12249 0.0
O57 O 0.83124 0.80634 0.99355 0.0
O58 O 0.81193 0.76867 0.96997 0.0
C59 C 0.78169 0.83639 0.16267 0.0
O60 O 0.80937 0.78836 0.18471 0.0
O61 O 0.83771 0.79862 0.11175 0.0
C62 C 0.78168 0.73663 0.07272 0.0
O63 O 0.76689 0.81652 0.1589 0.0
O64 O 0.80404 0.83581 0.13817 0.0
C65 C 0.7836 0.83361 0.96498 0.0
Fe66 Fe 0.71033 0.31098 0.45526 0.0
Fe67 Fe 0.74637 0.27784 0.54146 0.0
O68 O 0.737 0.28901 0.46412 0.0
Fe69 Fe 0.7542 0.27823 0.39574 0.0
O70 O 0.76323 0.31141 0.37739 0.0
O71 O 0.72386 0.328 0.38687 0.0
O72 O 0.7267 0.33519 0.50746 0.0
C73 C 0.73409 0.33144 0.56493 0.0
C74 C 0.7006 0.27813 0.35141 0.0
O75 O 0.7378 0.30849 0.58469 0.0
C76 C 0.75083 0.23258 0.46057 0.0
O77 O 0.69176 0.2981 0.52221 0.0
O78 O 0.71422 0.26369 0.55135 0.0
O79 O 0.72497 0.27825 0.34039 0.0
O80 O 0.69211 0.28826 0.40242 0.0
C81 C 0.79486 0.28571 0.49296 0.0
O82 O 0.75657 0.24518 0.51268 0.0
O83 O 0.74627 0.2444 0.40913 0.0
C84 C 0.69305 0.27624 0.54915 0.0
O85 O 0.77913 0.29111 0.53671 0.0
O86 O 0.78653 0.27602 0.439 0.0
C87 C 0.74718 0.32968 0.36806 0.0
H88 H 0.25614 0.59507 0.97469 0.0
H89 H 0.23462 0.5236 0.06381 0.0
H90 H 0.22705 0.52943 0.85839 0.0
C91 C 0.24829 0.57536 0.97034 0.0
C92 C 0.2423 0.56416 0.90902 0.0
C93 C 0.24519 0.56113 0.02648 0.0
C94 C 0.23698 0.53479 0.02094 0.0
C95 C 0.23053 0.5234 0.95991 0.0
C96 C 0.23268 0.53832 0.90484 0.0
N97 N 0.22067 0.49743 0.95174 0.0
C98 C 0.2268 0.47676 0.99159 0.0
H99 H 0.92416 0.75375 0.5717 0.0
H100 H 0.99655 0.73646 0.47691 0.0
H101 H 0.99188 0.72897 0.68112 0.0
C102 C 0.94456 0.74796 0.57312 0.0
C103 C 0.9566 0.74271 0.63303 0.0
C104 C 0.95858 0.74603 0.51582 0.0
C105 C 0.98518 0.73806 0.51979 0.0
C106 C 0.99695 0.73155 0.57955 0.0
C107 C 0.98257 0.73391 0.63535 0.0
N108 N 0.02269 0.72124 0.5859 0.0
C109 C 0.04365 0.72639 0.54707 0.0
H110 H 0.75579 0.42632 0.9888 0.0
H111 H 0.73714 0.49613 0.8861 0.0
H112 H 0.75411 0.50079 0.0897 0.0
C113 C 0.75359 0.44733 0.98734 0.0
C114 C 0.7567 0.46222 0.04501 0.0
C115 C 0.74637 0.45913 0.92918 0.0
C116 C 0.7425 0.4863 0.93003 0.0
C117 C 0.74536 0.50139 0.98707 0.0
C118 C 0.75262 0.48937 0.04497 0.0
N119 N 0.73788 0.52797 0.98479 0.0
C120 C 0.75029 0.54878 0.01804 0.0
H121 H 0.10091 0.26441 0.51707 0.0
H122 H 0.03795 0.3065 0.60469 0.0
H123 H 0.03693 0.29408 0.39975 0.0
C124 C 0.08216 0.27423 0.51267 0.0
C125 C 0.07024 0.27747 0.4513 0.0
C126 C 0.07089 0.28479 0.56832 0.0
C127 C 0.04662 0.29772 0.5625 0.0
C128 C 0.03404 0.30026 0.50171 0.0
C129 C 0.04606 0.2905 0.44655 0.0
N130 N 0.01147 0.31606 0.49426 0.0
C131 C 0.98641 0.3078 0.50908 0.0
H132 H 0.74288 0.92465 0.5548 0.0
H133 H 0.73619 1.00109 0.4745 0.0
H134 H 0.73387 0.99253 0.67858 0.0
C135 C 0.74041 0.94552 0.56126 0.0
C136 C 0.73831 0.95634 0.62378 0.0
C137 C 0.73991 0.96137 0.50691 0.0
C138 C 0.7369 0.98863 0.51571 0.0
C139 C 0.73423 0.9996 0.578 0.0
C140 C 0.73506 0.98346 0.63106 0.0
N141 N 0.7302 0.02667 0.59032 0.0
C142 C 0.7349 0.04687 0.54897 0.0
H143 H 0.60118 0.24077 0.94183 0.0
H144 H 0.53414 0.26461 0.0494 0.0
H145 H 0.53345 0.27198 0.84351 0.0
C146 C 0.5812 0.24792 0.94336 0.0
C147 C 0.56842 0.25506 0.88583 0.0
C148 C 0.56931 0.25151 0.0029 0.0
C149 C 0.54358 0.26153 0.00396 0.0
C150 C 0.5305 0.26858 0.94609 0.0
C151 C 0.54331 0.26595 0.88769 0.0
N152 N 0.50537 0.28035 0.94545 0.0
C153 C 0.48392 0.27081 0.97725 0.0
H154 H 0.27268 0.10037 0.48506 0.0
H155 H 0.26297 0.03923 0.61839 0.0
H156 H 0.25902 0.02105 0.415 0.0
C157 C 0.27047 0.07973 0.49377 0.0
C158 C 0.26686 0.06182 0.44144 0.0
C159 C 0.26949 0.07183 0.55757 0.0
C160 C 0.26426 0.04558 0.5693 0.0
C161 C 0.26083 0.02714 0.51854 0.0
C162 C 0.2623 0.03518 0.4543 0.0
N163 N 0.25364 1.00138 0.53487 0.0
C164 C 0.25962 0.97828 0.50187 0.0
H165 H 0.42844 0.77419 0.00687 0.0
H166 H 0.49186 0.74165 0.90051 0.0
H167 H 0.4968 0.74453 0.10768 0.0
C168 C 0.44802 0.766 0.00611 0.0
C169 C 0.46139 0.76062 0.06447 0.0
C170 C 0.45873 0.75929 0.94673 0.0
C171 C 0.48347 0.74732 0.94596 0.0
C172 C 0.49753 0.74271 0.00392 0.0
C173 C 0.48633 0.74905 0.06308 0.0
N174 N 0.52189 0.72958 0.0025 0.0
C175 C 0.54572 0.74276 0.01224 0.0
H176 H 0.19416 0.25678 0.23236 0.0
H177 H 0.14096 0.22705 0.07895 0.0
H178 H 0.1034 0.23414 0.14949 0.0
H179 H 0.16192 0.22865 0.36284 0.0
H180 H 0.1678 0.25638 0.41699 0.0
H181 H 0.19028 0.24929 0.35406 0.0
H182 H 0.18403 0.29594 0.31104 0.0
H183 H 0.16168 0.30324 0.37414 0.0
H184 H 0.15137 0.30728 0.29115 0.0
H185 H 0.07176 0.24331 0.23935 0.0
H186 H 0.04874 0.25558 0.33836 0.0
H187 H 0.12305 0.28077 0.42975 0.0
C188 C 0.17463 0.25175 0.21338 0.0
C189 C 0.17054 0.24122 0.15018 0.0
C190 C 0.1446 0.23515 0.1272 0.0
C191 C 0.12315 0.23905 0.16696 0.0
C192 C 0.12797 0.24921 0.22931 0.0
C193 C 0.15308 0.25567 0.25209 0.0
C194 C 0.1531 0.26651 0.32058 0.0
C195 C 0.16923 0.24917 0.3663 0.0
C196 C 0.16313 0.29493 0.32442 0.0
C197 C 0.12409 0.26494 0.33318 0.0
C198 C 0.10987 0.25487 0.28015 0.0
C199 C 0.08271 0.25137 0.28099 0.0
C200 C 0.06979 0.2585 0.33739 0.0
C201 C 0.08401 0.26909 0.39217 0.0
C202 C 0.11155 0.2723 0.38946 0.0
H203 H 0.2623 0.69125 0.69745 0.0
H204 H 0.28873 0.63827 0.54632 0.0
H205 H 0.27906 0.60083 0.61279 0.0
H206 H 0.28875 0.65601 0.82944 0.0
H207 H 0.26155 0.66194 0.88087 0.0
H208 H 0.26921 0.685 0.82045 0.0
H209 H 0.2217 0.6809 0.77205 0.0
H210 H 0.21387 0.65787 0.83252 0.0
H211 H 0.20868 0.6491 0.74836 0.0
H212 H 0.2696 0.56912 0.69703 0.0
H213 H 0.25967 0.5449 0.79358 0.0
H214 H 0.23688 0.61739 0.8897 0.0
C215 C 0.26583 0.67177 0.67813 0.0
C216 C 0.27642 0.66787 0.61654 0.0
C217 C 0.28076 0.64197 0.5933 0.0
C218 C 0.27528 0.62045 0.63067 0.0
C219 C 0.26523 0.62496 0.69124 0.0
C220 C 0.26034 0.6499 0.71486 0.0
C221 C 0.24996 0.64909 0.78236 0.0
C222 C 0.26848 0.66389 0.83115 0.0
C223 C 0.22188 0.65988 0.78389 0.0
C224 C 0.25031 0.61988 0.79312 0.0
C225 C 0.25912 0.60639 0.73978 0.0
C226 C 0.26225 0.5794 0.73881 0.0
C227 C 0.25632 0.56575 0.79396 0.0
C228 C 0.24715 0.579 0.84959 0.0
C229 C 0.24396 0.60651 0.84849 0.0
H230 H 0.84198 0.80198 0.29292 0.0
H231 H 0.8733 0.75808 0.13207 0.0
H232 H 0.91027 0.74324 0.20256 0.0
H233 H 0.90619 0.82392 0.35886 0.0
H234 H 0.89644 0.82255 0.44118 0.0
H235 H 0.87238 0.82921 0.37815 0.0
H236 H 0.84406 0.7902 0.41288 0.0
H237 H 0.86803 0.78342 0.47592 0.0
H238 H 0.85852 0.75821 0.41713 0.0
H239 H 0.94178 0.73053 0.29389 0.0
H240 H 0.9669 0.72352 0.39548 0.0
H241 H 0.91849 0.78119 0.49183 0.0
C242 C 0.85664 0.78919 0.27283 0.0
C243 C 0.85478 0.78082 0.20757 0.0
C244 C 0.87448 0.76455 0.18222 0.0
C245 C 0.89548 0.75605 0.22181 0.0
C246 C 0.89682 0.76463 0.28615 0.0
C247 C 0.87817 0.78122 0.31115 0.0
C248 C 0.88461 0.78831 0.38119 0.0
C249 C 0.89024 0.81774 0.39036 0.0
C250 C 0.86249 0.7795 0.4243 0.0
C251 C 0.9093 0.77246 0.39228 0.0
C252 C 0.91598 0.75881 0.33713 0.0
C253 C 0.93703 0.74153 0.33712 0.0
C254 C 0.95139 0.73785 0.39522 0.0
C255 C 0.94491 0.75167 0.45264 0.0
C256 C 0.9239 0.76972 0.44991 0.0
H257 H 0.76244 0.33769 0.68003 0.0
H258 H 0.70508 0.37562 0.55509 0.0
H259 H 0.70229 0.41211 0.63427 0.0
H260 H 0.73489 0.35597 0.83013 0.0
H261 H 0.766 0.36215 0.87217 0.0
H262 H 0.76383 0.33876 0.80573 0.0
H263 H 0.8002 0.36374 0.74836 0.0
H264 H 0.80261 0.3871 0.81488 0.0
H265 H 0.79627 0.39808 0.73421 0.0
H266 H 0.70288 0.44252 0.72945 0.0
H267 H 0.71018 0.46786 0.83042 0.0
H268 H 0.77095 0.41333 0.89008 0.0
C269 C 0.74941 0.35376 0.66941 0.0
C270 C 0.73393 0.3538 0.61151 0.0
C271 C 0.71723 0.37523 0.59893 0.0
C272 C 0.71541 0.39601 0.64373 0.0
C273 C 0.73073 0.39532 0.70045 0.0
C274 C 0.74775 0.37503 0.71312 0.0
C275 C 0.76244 0.37962 0.77735 0.0
C276 C 0.75642 0.35783 0.8241 0.0
C277 C 0.79214 0.3823 0.76813 0.0
C278 C 0.75064 0.4054 0.79905 0.0
C279 C 0.73224 0.41391 0.75412 0.0
C280 C 0.7177 0.43643 0.76444 0.0
C281 C 0.72225 0.45088 0.822 0.0
C282 C 0.74163 0.44316 0.86839 0.0
C283 C 0.75594 0.41996 0.85627 0.0
H284 H 0.65389 0.29984 0.31331 0.0
H285 H 0.70461 0.23381 0.27676 0.0
H286 H 0.67236 0.2164 0.1939 0.0
H287 H 0.59023 0.26653 0.28431 0.0
H288 H 0.57577 0.29375 0.24329 0.0
H289 H 0.60108 0.29937 0.30519 0.0
H290 H 0.6289 0.3247 0.22542 0.0
H291 H 0.60355 0.31947 0.16374 0.0
H292 H 0.6367 0.30928 0.14947 0.0
H293 H 0.63547 0.20698 0.11337 0.0
H294 H 0.6006 0.20961 0.02831 0.0
H295 H 0.57543 0.28366 0.11092 0.0
C296 C 0.65794 0.28151 0.28842 0.0
C297 C 0.68149 0.2679 0.30168 0.0
C298 C 0.6866 0.2444 0.26716 0.0
C299 C 0.66831 0.23429 0.22058 0.0
C300 C 0.64521 0.24815 0.20858 0.0
C301 C 0.64019 0.2715 0.24068 0.0
C302 C 0.61539 0.28404 0.21359 0.0
C303 C 0.59437 0.28603 0.26465 0.0
C304 C 0.62151 0.31095 0.18643 0.0
C305 C 0.60745 0.26431 0.16047 0.0
C306 C 0.62458 0.24345 0.1596 0.0
C307 C 0.62195 0.22321 0.1136 0.0
C308 C 0.60207 0.22487 0.06549 0.0
C309 C 0.58535 0.24689 0.06277 0.0
C310 C 0.58756 0.26639 0.11232 0.0
H311 H 0.22809 0.15205 0.87296 0.0
H312 H 0.28811 0.20874 0.82968 0.0
H313 H 0.30271 0.17988 0.74098 0.0
H314 H 0.26553 0.09276 0.83267 0.0
H315 H 0.23718 0.07606 0.79645 0.0
H316 H 0.23324 0.09979 0.86108 0.0
H317 H 0.20033 0.12536 0.78911 0.0
H318 H 0.20417 0.10175 0.72436 0.0
H319 H 0.21019 0.13589 0.71153 0.0
H320 H 0.3091 0.14648 0.65345 0.0
H321 H 0.30581 0.11137 0.56966 0.0
H322 H 0.24047 0.07702 0.66642 0.0
C323 C 0.24463 0.15811 0.84557 0.0
C324 C 0.25711 0.18253 0.85832 0.0
C325 C 0.27829 0.1901 0.82058 0.0
C326 C 0.2868 0.1738 0.77036 0.0
C327 C 0.27384 0.15004 0.75827 0.0
C328 C 0.25316 0.1422 0.79458 0.0
C329 C 0.24131 0.11667 0.76819 0.0
C330 C 0.24452 0.09504 0.81754 0.0
C331 C 0.21229 0.12014 0.74704 0.0
C332 C 0.2583 0.11163 0.71085 0.0
C333 C 0.27713 0.13097 0.70656 0.0
C334 C 0.29452 0.13115 0.65644 0.0
C335 C 0.2924 0.11122 0.60889 0.0
C336 C 0.27287 0.09147 0.61139 0.0
C337 C 0.25587 0.09158 0.66368 0.0
H338 H 0.37838 0.71279 0.35399 0.0
H339 H 0.33684 0.78605 0.33995 0.0
H340 H 0.37066 0.8027 0.26901 0.0
H341 H 0.44696 0.73914 0.34092 0.0
H342 H 0.45653 0.71182 0.29061 0.0
H343 H 0.43221 0.70746 0.35033 0.0
H344 H 0.39941 0.6888 0.26212 0.0
H345 H 0.42361 0.69298 0.20243 0.0
H346 H 0.39176 0.70779 0.19225 0.0
H347 H 0.40549 0.80964 0.19127 0.0
H348 H 0.43634 0.80495 0.10298 0.0
H349 H 0.45439 0.72628 0.16128 0.0
C350 C 0.377 0.73261 0.3374 0.0
C351 C 0.35546 0.74846 0.35304 0.0
C352 C 0.35347 0.77387 0.32877 0.0
C353 C 0.37264 0.7835 0.2889 0.0
C354 C 0.39351 0.7673 0.27322 0.0
C355 C 0.39573 0.7423 0.29621 0.0
C356 C 0.41789 0.72766 0.26467 0.0
C357 C 0.43969 0.72114 0.31463 0.0
C358 C 0.40754 0.70286 0.2282 0.0
C359 C 0.42714 0.748 0.2188 0.0
C360 C 0.41323 0.77094 0.22586 0.0
C361 C 0.41677 0.79192 0.18583 0.0
C362 C 0.43428 0.78908 0.13579 0.0
C363 C 0.44782 0.76533 0.12562 0.0
C364 C 0.44479 0.74486 0.16897 0.0
H365 H 0.7923 0.83893 0.83715 0.0
H366 H 0.75297 0.87465 0.99849 0.0
H367 H 0.73501 0.90873 0.9273 0.0
H368 H 0.81187 0.89988 0.77061 0.0
H369 H 0.80806 0.88808 0.6882 0.0
H370 H 0.81621 0.86569 0.75094 0.0
H371 H 0.77563 0.83723 0.71575 0.0
H372 H 0.76723 0.85969 0.65327 0.0
H373 H 0.74352 0.85188 0.71216 0.0
H374 H 0.71995 0.93755 0.83718 0.0
H375 H 0.71353 0.96284 0.73915 0.0
H376 H 0.76771 0.91152 0.6404 0.0
C377 C 0.77977 0.85389 0.85716 0.0
C378 C 0.77369 0.8542 0.92284 0.0
C379 C 0.75774 0.87424 0.9481 0.0
C380 C 0.74738 0.89351 0.90804 0.0
C381 C 0.75367 0.89268 0.84329 0.0
C382 C 0.76991 0.87369 0.81829 0.0
C383 C 0.77514 0.87831 0.74826 0.0
C384 C 0.80457 0.88329 0.73899 0.0
C385 C 0.76475 0.85541 0.70481 0.0
C386 C 0.75916 0.90275 0.73767 0.0
C387 C 0.74657 0.91044 0.7927 0.0
C388 C 0.73009 0.932 0.79409 0.0
C389 C 0.72678 0.94641 0.73807 0.0
C390 C 0.7404 0.93965 0.6816 0.0
C391 C 0.75666 0.91729 0.68186 0.0
H392 H 0.83244 0.75245 0.85769 0.0
H393 H 0.88213 0.79892 0.99155 0.0
H394 H 0.92024 0.79029 0.92442 0.0
H395 H 0.88256 0.70381 0.81206 0.0
H396 H 0.87122 0.70227 0.72884 0.0
H397 H 0.84842 0.7094 0.79119 0.0
H398 H 0.83498 0.75198 0.73467 0.0
H399 H 0.8578 0.74508 0.67245 0.0
H400 H 0.85992 0.77566 0.71759 0.0
H401 H 0.95213 0.77932 0.84046 0.0
H402 H 0.97575 0.76795 0.7422 0.0
H403 H 0.90555 0.72955 0.65982 0.0
C404 C 0.85149 0.76026 0.87346 0.0
C405 C 0.85447 0.77616 0.93003 0.0
C406 C 0.87951 0.78665 0.9484 0.0
C407 C 0.90127 0.78178 0.91075 0.0
C408 C 0.89765 0.7665 0.8546 0.0
C409 C 0.87342 0.75591 0.83577 0.0
C410 C 0.87457 0.74195 0.77053 0.0
C411 C 0.86885 0.71261 0.77601 0.0
C412 C 0.8557 0.75442 0.7209 0.0
C413 C 0.90304 0.74684 0.75525 0.0
C414 C 0.91605 0.76069 0.80491 0.0
C415 C 0.94227 0.76821 0.8015 0.0
C416 C 0.95555 0.76157 0.74561 0.0
C417 C 0.94256 0.74774 0.69352 0.0
C418 C 0.91598 0.74016 0.6988 0.0
H419 H 0.71549 0.36811 0.31873 0.0
H420 H 0.79633 0.3416 0.3273 0.0
H421 H 0.80871 0.37703 0.25619 0.0
H422 H 0.71307 0.38175 0.15563 0.0
H423 H 0.69265 0.41021 0.16316 0.0
H424 H 0.69087 0.38488 0.22094 0.0
H425 H 0.70109 0.41888 0.31346 0.0
H426 H 0.70305 0.44436 0.25574 0.0
H427 H 0.73026 0.43891 0.31156 0.0
H428 H 0.81141 0.41209 0.17482 0.0
H429 H 0.80374 0.44338 0.08749 0.0
H430 H 0.72159 0.44764 0.13275 0.0
C431 C 0.7359 0.37002 0.3067 0.0
C432 C 0.75493 0.35204 0.32883 0.0
C433 C 0.78136 0.35508 0.31104 0.0
C434 C 0.78863 0.37525 0.27089 0.0
C435 C 0.76931 0.39238 0.24917 0.0
C436 C 0.74349 0.39002 0.26655 0.0
C437 C 0.72613 0.40965 0.23258 0.0
C438 C 0.70441 0.39579 0.19059 0.0
C439 C 0.71444 0.42911 0.28125 0.0
C440 C 0.74605 0.42289 0.19181 0.0
C441 C 0.77093 0.41289 0.20274 0.0
C442 C 0.79216 0.4205 0.16692 0.0
C443 C 0.78771 0.43832 0.11772 0.0
C444 C 0.76231 0.44835 0.10515 0.0
C445 C 0.74136 0.4409 0.14332 0.0
H446 H 0.17044 0.22378 0.82698 0.0
H447 H 0.18525 0.30239 0.90363 0.0
H448 H 0.15055 0.31908 0.82906 0.0
H449 H 0.16191 0.24192 0.66369 0.0
H450 H 0.13696 0.21758 0.64398 0.0
H451 H 0.16136 0.21189 0.70677 0.0
H452 H 0.12448 0.20405 0.7868 0.0
H453 H 0.09994 0.20992 0.7243 0.0
H454 H 0.09997 0.2288 0.79888 0.0
H455 H 0.11412 0.32697 0.74472 0.0
H456 H 0.0831 0.32626 0.65003 0.0
H457 H 0.09416 0.24276 0.62543 0.0
C458 C 0.16618 0.24448 0.82862 0.0
C459 C 0.18032 0.26179 0.87156 0.0
C460 C 0.1746 0.28881 0.87117 0.0
C461 C 0.15484 0.29841 0.82927 0.0
C462 C 0.14122 0.28077 0.78755 0.0
C463 C 0.14693 0.25442 0.78639 0.0
C464 C 0.1309 0.23978 0.73393 0.0
C465 C 0.14885 0.22705 0.68415 0.0
C466 C 0.11275 0.21944 0.76272 0.0
C467 C 0.11529 0.26199 0.70542 0.0
C468 C 0.12117 0.28543 0.73763 0.0
C469 C 0.10935 0.30871 0.71933 0.0
C470 C 0.09161 0.3081 0.66583 0.0
C471 C 0.08614 0.28445 0.6307 0.0
C472 C 0.09791 0.2611 0.65156 0.0
H473 H 0.25181 0.68371 0.27139 0.0
H474 H 0.30592 0.63952 0.3913 0.0
H475 H 0.2985 0.60067 0.3195 0.0
H476 H 0.20596 0.62982 0.22681 0.0
H477 H 0.201 0.6406 0.14551 0.0
H478 H 0.20845 0.66407 0.21002 0.0
H479 H 0.24825 0.68091 0.14856 0.0
H480 H 0.24094 0.65752 0.084 0.0
H481 H 0.27304 0.65816 0.12361 0.0
H482 H 0.28702 0.5672 0.23091 0.0
H483 H 0.27434 0.54293 0.12947 0.0
H484 H 0.22871 0.60936 0.06675 0.0
C485 C 0.26173 0.66573 0.28317 0.0
C486 C 0.27935 0.6646 0.33711 0.0
C487 C 0.29236 0.64084 0.35015 0.0
C488 C 0.28817 0.61862 0.30984 0.0
C489 C 0.27098 0.62048 0.25649 0.0
C490 C 0.25803 0.64346 0.24298 0.0
C491 C 0.24213 0.6409 0.18006 0.0
C492 C 0.21264 0.64403 0.1913 0.0
C493 C 0.25167 0.66053 0.13119 0.0
C494 C 0.24854 0.6131 0.15975 0.0
C495 C 0.26489 0.60146 0.20485 0.0
C496 C 0.27406 0.57605 0.19546 0.0
C497 C 0.2667 0.56237 0.13791 0.0
C498 C 0.25062 0.57428 0.09029 0.0
C499 C 0.24114 0.5998 0.10218 0.0
H500 H 0.36904 0.71394 0.64185 0.0
H501 H 0.33521 0.79156 0.6467 0.0
H502 H 0.36821 0.80542 0.73111 0.0
H503 H 0.38024 0.70988 0.80878 0.0
H504 H 0.41065 0.69224 0.80369 0.0
H505 H 0.38619 0.68923 0.73916 0.0
H506 H 0.42054 0.70361 0.65812 0.0
H507 H 0.44512 0.70677 0.7226 0.0
H508 H 0.43802 0.73408 0.67219 0.0
H509 H 0.40247 0.8099 0.82056 0.0
H510 H 0.43449 0.80423 0.91125 0.0
H511 H 0.44609 0.72374 0.84887 0.0
C512 C 0.36881 0.73399 0.65982 0.0
C513 C 0.34955 0.7517 0.63732 0.0
C514 C 0.34974 0.77764 0.66304 0.0
C515 C 0.36849 0.78573 0.71082 0.0
C516 C 0.38699 0.7677 0.73236 0.0
C517 C 0.38729 0.74236 0.70775 0.0
C518 C 0.40806 0.72631 0.7424 0.0
C519 C 0.39553 0.70305 0.77547 0.0
C520 C 0.42919 0.71716 0.69605 0.0
C521 C 0.41903 0.74644 0.79129 0.0
C522 C 0.40678 0.77026 0.78417 0.0
C523 C 0.41241 0.79145 0.82609 0.0
C524 C 0.43059 0.78805 0.87743 0.0
C525 C 0.44291 0.76364 0.8866 0.0
C526 C 0.43743 0.74277 0.84208 0.0
H527 H 0.7455 0.8405 0.25813 0.0
H528 H 0.80202 0.88543 0.15507 0.0
H529 H 0.79322 0.92415 0.22395 0.0
H530 H 0.69903 0.89488 0.28927 0.0
H531 H 0.69241 0.88388 0.36869 0.0
H532 H 0.70053 0.86057 0.30597 0.0
H533 H 0.73876 0.84333 0.37838 0.0
H534 H 0.73079 0.86655 0.44114 0.0
H535 H 0.7635 0.86588 0.41088 0.0
H536 H 0.78186 0.95668 0.31055 0.0
H537 H 0.76985 0.97994 0.4108 0.0
H538 H 0.72001 0.91453 0.45703 0.0
C539 C 0.75557 0.85865 0.24917 0.0
C540 C 0.77441 0.85993 0.20108 0.0
C541 C 0.78756 0.88393 0.19173 0.0
C542 C 0.78258 0.90611 0.23038 0.0
C543 C 0.76434 0.90409 0.27824 0.0
C544 C 0.75097 0.881 0.28775 0.0
C545 C 0.73404 0.88348 0.34605 0.0
C546 C 0.70476 0.88053 0.32629 0.0
C547 C 0.74228 0.86364 0.39711 0.0
C548 C 0.74062 0.91124 0.36882 0.0
C549 C 0.75783 0.92292 0.32851 0.0
C550 C 0.76804 0.94791 0.34196 0.0
C551 C 0.76097 0.96106 0.39891 0.0
C552 C 0.74398 0.94915 0.44203 0.0
C553 C 0.73318 0.92417 0.42546 0.0
H554 H 0.65369 0.30535 0.60196 0.0
H555 H 0.68341 0.22633 0.58414 0.0
H556 H 0.65007 0.21133 0.65806 0.0
H557 H 0.64502 0.30454 0.76579 0.0
H558 H 0.61545 0.3237 0.76578 0.0
H559 H 0.63854 0.32758 0.70333 0.0
H560 H 0.60175 0.31743 0.61658 0.0
H561 H 0.57846 0.31357 0.67891 0.0
H562 H 0.58292 0.28762 0.61995 0.0
H563 H 0.618 0.20586 0.74371 0.0
H564 H 0.5893 0.21043 0.83663 0.0
H565 H 0.57993 0.29279 0.80022 0.0
C566 C 0.65262 0.28476 0.61209 0.0
C567 C 0.67098 0.26694 0.58689 0.0
C568 C 0.66948 0.24029 0.60276 0.0
C569 C 0.65053 0.23156 0.64447 0.0
C570 C 0.63317 0.24971 0.66988 0.0
C571 C 0.63394 0.27574 0.65421 0.0
C572 C 0.61485 0.29165 0.69339 0.0
C573 C 0.62933 0.31312 0.7345 0.0
C574 C 0.59321 0.30325 0.64958 0.0
C575 C 0.60388 0.27064 0.73495 0.0
C576 C 0.61449 0.24653 0.7199 0.0
C577 C 0.60915 0.22451 0.75511 0.0
C578 C 0.59291 0.22727 0.80778 0.0
C579 C 0.58221 0.25184 0.82472 0.0
C580 C 0.58734 0.27367 0.78704 0.0
H581 H 0.28019 0.17808 0.20141 0.0
H582 H 0.21479 0.143 0.08934 0.0
H583 H 0.21812 0.10357 0.15384 0.0
H584 H 0.31706 0.11591 0.2267 0.0
H585 H 0.32746 0.12582 0.30765 0.0
H586 H 0.32229 0.15004 0.24731 0.0
H587 H 0.28961 0.17419 0.32051 0.0
H588 H 0.2947 0.15012 0.3809 0.0
H589 H 0.26195 0.15654 0.34973 0.0
H590 H 0.22437 0.07038 0.23972 0.0
H591 H 0.23303 0.04687 0.34022 0.0
H592 H 0.29634 0.10148 0.39256 0.0
C593 C 0.26698 0.16188 0.18942 0.0
C594 C 0.24722 0.16381 0.14011 0.0
C595 C 0.23009 0.14218 0.12681 0.0
C596 C 0.23188 0.11954 0.16305 0.0
C597 C 0.25113 0.1185 0.21222 0.0
C598 C 0.26855 0.13899 0.2251 0.0
C599 C 0.28611 0.13366 0.28372 0.0
C600 C 0.31494 0.13121 0.26522 0.0
C601 C 0.28288 0.15488 0.33683 0.0
C602 C 0.2751 0.10755 0.30317 0.0
C603 C 0.25513 0.09897 0.26094 0.0
C604 C 0.24038 0.07661 0.27241 0.0
C605 C 0.24559 0.0632 0.32956 0.0
C606 C 0.26536 0.0722 0.37478 0.0
C607 C 0.28094 0.09407 0.3595 0.0
H608 H 0.20785 0.32437 0.02391 0.0
H609 H 0.2861 0.32266 0.11217 0.0
H610 H 0.28751 0.37112 0.1163 0.0
H611 H 0.21895 0.37489 0.922 0.0
H612 H 0.18718 0.38987 0.92834 0.0
H613 H 0.1908 0.35551 0.94138 0.0
H614 H 0.17106 0.3613 0.05388 0.0
H615 H 0.1672 0.39575 0.04113 0.0
H616 H 0.18541 0.38485 0.11123 0.0
H617 H 0.28221 0.4196 0.09901 0.0
H618 H 0.27059 0.46383 0.06159 0.0
H619 H 0.19583 0.43386 0.98466 0.0
C620 C 0.22486 0.33434 0.04605 0.0
C621 C 0.24663 0.32006 0.06929 0.0
C622 C 0.26904 0.33347 0.09567 0.0
C623 C 0.26999 0.36092 0.09803 0.0
C624 C 0.24833 0.3746 0.07383 0.0
C625 C 0.22608 0.36172 0.04876 0.0
C626 C 0.20633 0.38081 0.02115 0.0
C627 C 0.20049 0.37492 0.94895 0.0
C628 C 0.181 0.38067 0.05913 0.0
C629 C 0.2213 0.40632 0.0323 0.0
C630 C 0.24533 0.40242 0.06361 0.0
C631 C 0.26324 0.42294 0.0756 0.0
C632 C 0.25652 0.44796 0.05437 0.0
C633 C 0.2322 0.45211 0.02155 0.0
C634 C 0.21431 0.43116 0.01107 0.0
H635 H 0.19905 0.72495 0.56945 0.0
H636 H 0.199 0.74784 0.36996 0.0
H637 H 0.15042 0.74727 0.36572 0.0
H638 H 0.14324 0.68132 0.55299 0.0
H639 H 0.13115 0.69046 0.63083 0.0
H640 H 0.16582 0.69223 0.61721 0.0
H641 H 0.16644 0.74099 0.65424 0.0
H642 H 0.13177 0.73943 0.66781 0.0
H643 H 0.14438 0.76347 0.61514 0.0
H644 H 0.10105 0.74488 0.38466 0.0
H645 H 0.05595 0.7403 0.42566 0.0
H646 H 0.0892 0.71927 0.61161 0.0
C647 C 0.18891 0.72975 0.52467 0.0
C648 C 0.20297 0.73647 0.47006 0.0
C649 C 0.18876 0.74264 0.41253 0.0
C650 C 0.16112 0.74237 0.40963 0.0
C651 C 0.14792 0.73587 0.46459 0.0
C652 C 0.16141 0.72962 0.52095 0.0
C653 C 0.14277 0.72357 0.57361 0.0
C654 C 0.14593 0.69521 0.59488 0.0
C655 C 0.14657 0.74303 0.63107 0.0
C656 C 0.11663 0.72748 0.53829 0.0
C657 C 0.11988 0.73455 0.47538 0.0
C658 C 0.09832 0.73932 0.43381 0.0
C659 C 0.07286 0.73673 0.45728 0.0
C660 C 0.06942 0.7295 0.52148 0.0
C661 C 0.0915 0.72486 0.56223 0.0
H662 H 0.76501 0.70099 0.97858 0.0
H663 H 0.79775 0.70661 0.1744 0.0
H664 H 0.79541 0.65853 0.18096 0.0
H665 H 0.71928 0.65068 0.00452 0.0
H666 H 0.72304 0.63469 0.92701 0.0
H667 H 0.72883 0.6693 0.93682 0.0
H668 H 0.77555 0.66361 0.89328 0.0
H669 H 0.76991 0.62895 0.88321 0.0
H670 H 0.7979 0.64103 0.93098 0.0
H671 H 0.78716 0.60931 0.1674 0.0
H672 H 0.77386 0.56391 0.13373 0.0
H673 H 0.74705 0.5914 0.94773 0.0
C674 C 0.77195 0.69218 0.02273 0.0
C675 C 0.78155 0.70768 0.07597 0.0
C676 C 0.79028 0.69522 0.1329 0.0
C677 C 0.78906 0.66789 0.13708 0.0
C678 C 0.77918 0.65324 0.08389 0.0
C679 C 0.77087 0.66501 0.02774 0.0
C680 C 0.76023 0.64512 0.97806 0.0
C681 C 0.73112 0.65026 0.96062 0.0
C682 C 0.7769 0.64465 0.91783 0.0
C683 C 0.76355 0.62031 0.01514 0.0
C684 C 0.77461 0.62525 0.07607 0.0
C685 C 0.77871 0.60522 0.1196 0.0
C686 C 0.77116 0.57958 0.10028 0.0
C687 C 0.75974 0.57446 0.03824 0.0
C688 C 0.75605 0.59497 0.99528 0.0
H689 H 0.83585 0.28131 0.40957 0.0
H690 H 0.81898 0.29717 0.61025 0.0
H691 H 0.86629 0.30205 0.63661 0.0
H692 H 0.89585 0.2447 0.43855 0.0
H693 H 0.9124 0.25835 0.37201 0.0
H694 H 0.87712 0.25507 0.36866 0.0
H695 H 0.87259 0.30449 0.34777 0.0
H696 H 0.90783 0.30789 0.3507 0.0
H697 H 0.88838 0.32791 0.40319 0.0
H698 H 0.91542 0.30607 0.6418 0.0
H699 H 0.96301 0.31105 0.62331 0.0
H700 H 0.94847 0.29333 0.42001 0.0
C701 C 0.84211 0.28566 0.45911 0.0
C702 C 0.82355 0.28872 0.50778 0.0
C703 C 0.83267 0.29469 0.57193 0.0
C704 C 0.85957 0.29743 0.58756 0.0
C705 C 0.8773 0.29424 0.53862 0.0
C706 C 0.86899 0.28864 0.47561 0.0
C707 C 0.89217 0.28718 0.43184 0.0
C708 C 0.89452 0.25969 0.40095 0.0
C709 C 0.89011 0.30812 0.38034 0.0
C710 C 0.91472 0.293 0.48003 0.0
C711 C 0.9057 0.29681 0.54149 0.0
C712 C 0.92274 0.30298 0.59397 0.0
C713 C 0.94967 0.30569 0.5832 0.0
C714 C 0.95915 0.30226 0.5206 0.0
C715 C 0.94156 0.29567 0.4685 0.0
H716 H 0.75559 0.20015 0.56333 0.0
H717 H 0.74367 0.19924 0.35534 0.0
H718 H 0.74032 0.15111 0.35401 0.0
H719 H 0.79435 0.14092 0.57248 0.0
H720 H 0.77945 0.13072 0.64503 0.0
H721 H 0.78227 0.16498 0.62893 0.0
H722 H 0.73205 0.17023 0.64025 0.0
H723 H 0.72905 0.13602 0.65634 0.0
H724 H 0.70979 0.14979 0.59138 0.0
H725 H 0.73637 0.10261 0.37629 0.0
H726 H 0.73192 0.05839 0.4215 0.0
H727 H 0.74633 0.09158 0.61366 0.0
C728 C 0.75261 0.18987 0.51735 0.0
C729 C 0.7501 0.20357 0.45943 0.0
C730 C 0.74581 0.18925 0.40043 0.0
C731 C 0.74388 0.16186 0.39912 0.0
C732 C 0.74627 0.149 0.45718 0.0
C733 C 0.75055 0.16257 0.51518 0.0
C734 C 0.75141 0.1443 0.5711 0.0
C735 C 0.77849 0.14529 0.60645 0.0
C736 C 0.72926 0.15045 0.61748 0.0
C737 C 0.74681 0.11834 0.53565 0.0
C738 C 0.74396 0.12135 0.4699 0.0
C739 C 0.73878 0.10003 0.42765 0.0
C740 C 0.73632 0.07506 0.45349 0.0
C741 C 0.73906 0.07187 0.52062 0.0
C742 C 0.74448 0.09367 0.56196 0.0
H743 H 0.33127 0.24198 0.93754 0.0
H744 H 0.32781 0.24809 0.14584 0.0
H745 H 0.37617 0.2523 0.15442 0.0
H746 H 0.39282 0.20527 0.93168 0.0
H747 H 0.40379 0.22246 0.86305 0.0
H748 H 0.36915 0.21772 0.87386 0.0
H749 H 0.36194 0.26765 0.8684 0.0
H750 H 0.3965 0.27256 0.85769 0.0
H751 H 0.3806 0.28937 0.9228 0.0
H752 H 0.42505 0.25908 0.13965 0.0
H753 H 0.46988 0.26803 0.10184 0.0
H754 H 0.44105 0.25751 0.90414 0.0
C755 C 0.34064 0.24381 0.9851 0.0
C756 C 0.32561 0.24464 0.04103 0.0
C757 C 0.3388 0.24736 0.10221 0.0
C758 C 0.36631 0.24972 0.10762 0.0
C759 C 0.38046 0.24924 0.05145 0.0
C760 C 0.36804 0.24626 0.99136 0.0
C761 C 0.38754 0.24773 0.93826 0.0
C762 C 0.38837 0.22175 0.89943 0.0
C763 C 0.38127 0.2707 0.89422 0.0
C764 C 0.41281 0.25248 0.97771 0.0
C765 C 0.40842 0.25308 0.04299 0.0
C766 C 0.42874 0.25833 0.0887 0.0
C767 C 0.45408 0.26335 0.06699 0.0
C768 C 0.4587 0.26307 1.00042 0.0
C769 C 0.43793 0.25737 0.95542 0.0
H770 H 0.26002 0.82491 0.5527 0.0
H771 H 0.29892 0.81654 0.37086 0.0
H772 H 0.29784 0.86419 0.35913 0.0
H773 H 0.21682 0.87663 0.50501 0.0
H774 H 0.21892 0.89362 0.58224 0.0
H775 H 0.22314 0.85873 0.57731 0.0
H776 H 0.26842 0.86352 0.6377 0.0
H777 H 0.26429 0.89841 0.64308 0.0
H778 H 0.293 0.88483 0.60696 0.0
H779 H 0.29224 0.91326 0.36612 0.0
H780 H 0.28289 0.9598 0.39371 0.0
H781 H 0.2476 0.9363 0.56955 0.0
C782 C 0.26841 0.83308 0.51055 0.0
C783 C 0.27954 0.81678 0.46278 0.0
C784 C 0.29024 0.82843 0.40827 0.0
C785 C 0.28973 0.85557 0.40102 0.0
C786 C 0.27844 0.87103 0.4486 0.0
C787 C 0.26802 0.86023 0.5024 0.0
C788 C 0.25691 0.88124 0.54629 0.0
C789 C 0.22719 0.87731 0.55308 0.0
C790 C 0.27153 0.88204 0.61242 0.0
C791 C 0.26269 0.90546 0.50876 0.0
C792 C 0.27512 0.89919 0.45247 0.0
C793 C 0.28249 0.91839 0.41006 0.0
C794 C 0.2771 0.9447 0.42585 0.0
C795 C 0.26448 0.95134 0.48332 0.0
C796 C 0.25717 0.93153 0.52505 0.0
H797 H 0.69757 0.75446 0.11451 0.0
H798 H 0.70296 0.81445 0.97238 0.0
H799 H 0.65486 0.81255 0.95329 0.0
H800 H 0.64993 0.71621 0.02726 0.0
H801 H 0.63253 0.70639 0.09663 0.0
H802 H 0.66698 0.71442 0.10457 0.0
H803 H 0.65746 0.74892 0.19419 0.0
H804 H 0.62294 0.74096 0.18664 0.0
H805 H 0.63382 0.77421 0.17838 0.0
H806 H 0.60666 0.80236 0.94436 0.0
H807 H 0.56174 0.7834 0.94416 0.0
H808 H 0.58736 0.72918 0.08931 0.0
C809 C 0.68853 0.76757 0.08042 0.0
C810 C 0.70398 0.78478 0.04532 0.0
C811 C 0.6915 0.80116 0.99989 0.0
C812 C 0.66417 0.80029 0.98887 0.0
C813 C 0.64953 0.78282 0.02337 0.0
C814 C 0.66123 0.7667 0.06815 0.0
C815 C 0.64118 0.74833 0.09514 0.0
C816 C 0.64807 0.71965 0.07997 0.0
C817 C 0.63871 0.75342 0.16791 0.0
C818 C 0.6165 0.75642 0.05795 0.0
C819 C 0.62172 0.77656 0.01732 0.0
C820 C 0.60227 0.78678 0.97642 0.0
C821 C 0.57688 0.77597 0.97661 0.0
C822 C 0.5713 0.75517 0.01713 0.0
C823 C 0.59123 0.74538 0.05859 0.0
loop_
_geom_bond_atom_site_label_1
_geom_bond_atom_site_label_2
_geom_bond_distance
_geom_bond_site_symmetry_2
_ccdc_geom_bond_type
Fe0 O2 1.918 . S
Fe0 O5 1.997 . S
Fe0 O6 2.002 . S
Fe0 O11 1.976 . S
Fe0 O14 1.996 . S
Fe1 O2 1.918 1_556 S
Fe1 O9 1.997 . S
Fe1 O12 1.996 . S
Fe1 O16 1.976 . S
Fe1 O19 2.002 . S
O2 Fe0 1.918 . S
O2 Fe1 1.918 1_554 S
O2 Fe3 1.918 . S
Fe3 O2 1.918 . S
Fe3 O4 2.006 . S
Fe3 O13 1.979 . S
Fe3 O17 1.992 1_554 S
Fe3 O20 1.993 1_554 S
O4 Fe3 2.006 . S
O4 C21 1.295 . S
O5 Fe0 1.997 . S
O5 C21 1.235 . S
O6 Fe0 2.002 . S
O6 C7 1.295 . S
C7 O6 1.295 . S
C7 O9 1.235 1_554 S
C8 O13 1.287 . S
C8 O14 1.255 . S
O9 Fe1 1.997 . S
O9 C7 1.235 1_556 S
C10 O16 1.287 . S
C10 O17 1.255 . S
O11 Fe0 1.976 . S
O11 C18 1.287 . S
O12 Fe1 1.996 . S
O12 C18 1.255 1_556 S
O13 Fe3 1.979 . S
O13 C8 1.287 . S
O14 Fe0 1.996 . S
O14 C8 1.255 . S
C15 O19 1.295 . S
C15 O20 1.235 . S
O16 Fe1 1.976 . S
O16 C10 1.287 . S
O17 Fe3 1.992 1_556 S
O17 C10 1.255 . S
C18 O11 1.287 . S
C18 O12 1.255 1_554 S
O19 Fe1 2.002 . S
O19 C15 1.295 . S
O20 Fe3 1.993 1_556 S
O20 C15 1.235 . S
C21 O4 1.295 . S
C21 O5 1.235 . S
Fe22 O24 1.918 . S
Fe22 O27 1.997 . S
Fe22 O28 2.002 . S
Fe22 O33 1.976 . S
Fe22 O36 1.996 . S
Fe23 O24 1.918 . S
Fe23 O31 1.997 . S
Fe23 O34 1.996 . S
Fe23 O38 1.976 . S
Fe23 O41 2.002 . S
O24 Fe22 1.918 . S
O24 Fe23 1.918 . S
O24 Fe25 1.918 . S
Fe25 O24 1.918 . S
Fe25 O26 2.002 . S
Fe25 O35 1.976 . S
Fe25 O39 1.996 . S
Fe25 O42 1.997 . S
O26 Fe25 2.002 . S
O26 C43 1.295 . S
O27 Fe22 1.997 . S
O27 C43 1.235 . S
O28 Fe22 2.002 . S
O28 C29 1.295 . S
C29 O28 1.295 . S
C29 O31 1.235 . S
C30 O35 1.287 . S
C30 O36 1.255 . S
O31 Fe23 1.997 . S
O31 C29 1.235 . S
C32 O38 1.287 . S
C32 O39 1.255 . S
O33 Fe22 1.976 . S
O33 C40 1.287 . S
O34 Fe23 1.996 . S
O34 C40 1.255 . S
O35 Fe25 1.976 . S
O35 C30 1.287 . S
O36 Fe22 1.996 . S
O36 C30 1.255 . S
C37 O41 1.295 . S
C37 O42 1.235 . S
O38 Fe23 1.976 . S
O38 C32 1.287 . S
O39 Fe25 1.996 . S
O39 C32 1.255 . S
C40 O33 1.287 . S
C40 O34 1.255 . S
O41 Fe23 2.002 . S
O41 C37 1.295 . S
O42 Fe25 1.997 . S
O42 C37 1.235 . S
C43 O26 1.295 . S
C43 O27 1.235 . S
Fe44 O46 1.918 1_556 S
Fe44 O49 1.997 . S
Fe44 O50 2.002 . S
Fe44 O55 1.976 . S
Fe44 O58 1.996 . S
Fe45 O46 1.918 . S
Fe45 O53 1.997 . S
Fe45 O56 1.996 . S
Fe45 O60 1.976 . S
Fe45 O63 2.002 . S
O46 Fe44 1.918 1_554 S
O46 Fe45 1.918 . S
O46 Fe47 1.918 . S
Fe47 O46 1.918 . S
Fe47 O48 2.002 1_554 S
Fe47 O57 1.976 1_554 S
Fe47 O61 1.996 . S
Fe47 O64 1.997 . S
O48 Fe47 2.002 1_556 S
O48 C65 1.295 . S
O49 Fe44 1.997 . S
O49 C65 1.235 . S
O50 Fe44 2.002 . S
O50 C51 1.295 1_556 S
C51 O50 1.295 1_554 S
C51 O53 1.235 . S
C52 O57 1.287 . S
C52 O58 1.255 . S
O53 Fe45 1.997 . S
O53 C51 1.235 . S
C54 O60 1.287 . S
C54 O61 1.255 . S
O55 Fe44 1.976 . S
O55 C62 1.287 1_556 S
O56 Fe45 1.996 . S
O56 C62 1.255 . S
O57 Fe47 1.976 1_556 S
O57 C52 1.287 . S
O58 Fe44 1.996 . S
O58 C52 1.255 . S
C59 O63 1.295 . S
C59 O64 1.235 . S
O60 Fe45 1.976 . S
O60 C54 1.287 . S
O61 Fe47 1.996 . S
O61 C54 1.255 . S
C62 O55 1.287 1_554 S
C62 O56 1.255 . S
O63 Fe45 2.002 . S
O63 C59 1.295 . S
O64 Fe47 1.997 . S
O64 C59 1.235 . S
C65 O48 1.295 . S
C65 O49 1.235 . S
Fe66 O68 1.918 . S
Fe66 O71 1.997 . S
Fe66 O72 2.002 . S
Fe66 O77 1.976 . S
Fe66 O80 1.996 . S
Fe67 O68 1.918 . S
Fe67 O75 1.997 . S
Fe67 O78 1.996 . S
Fe67 O82 1.976 . S
Fe67 O85 2.002 . S
O68 Fe66 1.918 . S
O68 Fe67 1.918 . S
O68 Fe69 1.918 . S
Fe69 O68 1.918 . S
Fe69 O70 2.002 . S
Fe69 O79 1.976 . S
Fe69 O83 1.996 . S
Fe69 O86 1.997 . S
O70 Fe69 2.002 . S
O70 C87 1.295 . S
O71 Fe66 1.997 . S
O71 C87 1.235 . S
O72 Fe66 2.002 . S
O72 C73 1.295 . S
C73 O72 1.295 . S
C73 O75 1.235 . S
C74 O79 1.287 . S
C74 O80 1.255 . S
O75 Fe67 1.997 . S
O75 C73 1.235 . S
C76 O82 1.287 . S
C76 O83 1.255 . S
O77 Fe66 1.976 . S
O77 C84 1.287 . S
O78 Fe67 1.996 . S
O78 C84 1.255 . S
O79 Fe69 1.976 . S
O79 C74 1.287 . S
O80 Fe66 1.996 . S
O80 C74 1.255 . S
C81 O85 1.295 . S
C81 O86 1.235 . S
O82 Fe67 1.976 . S
O82 C76 1.287 . S
O83 Fe69 1.996 . S
O83 C76 1.255 . S
C84 O77 1.287 . S
C84 O78 1.255 . S
O85 Fe67 2.002 . S
O85 C81 1.295 . S
O86 Fe69 1.997 . S
O86 C81 1.235 . S
C87 O70 1.295 . S
C87 O71 1.235 . S
H88 C91 0.929 1_554 S
H89 C94 0.929 . S
H90 C96 0.930 . S
C91 H88 0.929 1_556 S
C91 C92 1.406 . S
C91 C93 1.389 1_556 S
C92 C91 1.406 . S
C92 C96 1.407 . S
C93 C91 1.389 1_554 S
C93 C94 1.394 . S
C94 H89 0.929 . S
C94 C93 1.394 . S
C94 C95 1.382 1_554 S
C95 C94 1.382 1_556 S
C95 C96 1.392 . S
C95 N97 1.420 . S
C96 H90 0.930 . S
C96 C92 1.407 . S
C96 C95 1.392 . S
N97 C95 1.420 . S
N97 C98 1.244 1_556 S
C98 N97 1.244 1_554 S
H99 C102 0.929 . S
H100 C105 0.928 1_455 S
H101 C107 0.930 . S
C102 H99 0.929 . S
C102 C103 1.398 . S
C102 C104 1.396 . S
C103 C102 1.398 . S
C103 C107 1.407 . S
C104 C102 1.396 . S
C104 C105 1.394 . S
C105 H100 0.928 1_655 S
C105 C104 1.394 . S
C105 C106 1.382 1_655 S
C106 C105 1.382 1_455 S
C106 C107 1.392 1_455 S
C106 N108 1.420 . S
C107 H101 0.930 . S
C107 C103 1.407 . S
C107 C106 1.392 1_655 S
N108 C106 1.420 . S
N108 C109 1.244 . S
C109 N108 1.244 . S
H110 C113 0.929 . S
H111 C116 0.929 . S
H112 C118 0.930 . S
C113 H110 0.929 . S
C113 C114 1.398 . S
C113 C115 1.396 1_554 S
C114 C113 1.398 . S
C114 C118 1.407 . S
C115 C113 1.396 1_556 S
C115 C116 1.394 . S
C116 H111 0.929 . S
C116 C115 1.394 . S
C116 C117 1.382 1_556 S
C117 C116 1.382 1_554 S
C117 C118 1.392 . S
C117 N119 1.420 . S
C118 H112 0.930 . S
C118 C114 1.407 . S
C118 C117 1.392 . S
N119 C117 1.420 . S
N119 C120 1.244 . S
C120 N119 1.244 . S
H121 C124 0.929 . S
H122 C127 0.929 . S
H123 C129 0.930 . S
C124 H121 0.929 . S
C124 C125 1.398 . S
C124 C126 1.396 . S
C125 C124 1.398 . S
C125 C129 1.407 . S
C126 C124 1.396 . S
C126 C127 1.394 . S
C127 H122 0.929 . S
C127 C126 1.394 . S
C127 C128 1.390 . S
C128 C127 1.390 . S
C128 C129 1.405 . S
C128 N130 1.399 1_455 S
C129 H123 0.930 . S
C129 C125 1.407 . S
C129 C128 1.405 . S
N130 C128 1.399 1_655 S
N130 C131 1.244 . S
C131 N130 1.244 . S
H132 C135 0.929 . S
H133 C138 0.905 1_545 S
H134 C140 0.930 . S
C135 H132 0.929 . S
C135 C136 1.398 . S
C135 C137 1.396 . S
C136 C135 1.398 . S
C136 C140 1.407 . S
C137 C135 1.396 . S
C137 C138 1.394 . S
C138 H133 0.905 1_565 S
C138 C137 1.394 . S
C138 C139 1.382 1_565 S
C139 C138 1.382 1_545 S
C139 C140 1.392 1_545 S
C139 N141 1.420 . S
C140 H134 0.930 . S
C140 C136 1.407 . S
C140 C139 1.392 1_565 S
N141 C139 1.420 . S
N141 C142 1.244 . S
C142 N141 1.244 . S
H143 C146 0.929 . S
H144 C149 0.929 . S
H145 C151 0.930 . S
C146 H143 0.929 . S
C146 C147 1.398 1_554 S
C146 C148 1.396 . S
C147 C146 1.398 1_556 S
C147 C151 1.407 . S
C148 C146 1.396 . S
C148 C149 1.394 . S
C149 H144 0.929 . S
C149 C148 1.394 . S
C149 C150 1.382 1_554 S
C150 C149 1.382 1_556 S
C150 C151 1.392 . S
C150 N152 1.420 . S
C151 H145 0.930 . S
C151 C147 1.407 . S
C151 C150 1.392 . S
N152 C150 1.420 . S
N152 C153 1.244 1_556 S
C153 N152 1.244 1_554 S
H154 C157 0.929 . S
H155 C160 0.929 1_565 S
H156 C162 0.930 . S
C157 H154 0.929 . S
C157 C158 1.398 . S
C157 C159 1.396 . S
C158 C157 1.398 . S
C158 C162 1.407 . S
C159 C157 1.396 . S
C159 C160 1.394 . S
C160 H155 0.929 1_545 S
C160 C159 1.394 . S
C160 C161 1.382 1_545 S
C161 C160 1.382 1_565 S
C161 C162 1.392 1_565 S
C161 N163 1.420 . S
C162 H156 0.930 . S
C162 C158 1.407 . S
C162 C161 1.392 1_545 S
N163 C161 1.420 . S
N163 C164 1.244 . S
C164 N163 1.244 . S
H165 C168 0.929 . S
H166 C171 0.929 . S
H167 C173 0.930 . S
C168 H165 0.929 . S
C168 C169 1.398 . S
C168 C170 1.396 1_554 S
C169 C168 1.398 . S
C169 C173 1.407 . S
C170 C168 1.396 1_556 S
C170 C171 1.394 . S
C171 H166 0.929 . S
C171 C170 1.394 . S
C171 C172 1.382 1_556 S
C172 C171 1.382 1_554 S
C172 C173 1.392 . S
C172 N174 1.420 . S
C173 H167 0.930 . S
C173 C169 1.407 . S
C173 C172 1.392 . S
N174 C172 1.420 . S
N174 C175 1.244 . S
C175 N174 1.244 . S
H176 C188 0.930 . S
H177 C190 0.930 . S
H178 C191 0.930 . S
H179 C195 0.959 . S
H180 C195 0.959 . S
H181 C195 0.961 . S
H182 C196 0.960 . S
H183 C196 0.961 . S
H184 C196 0.959 . S
H185 C199 0.929 . S
H186 C200 0.931 . S
H187 C202 0.930 . S
C188 H176 0.930 . S
C188 C189 1.399 . S
C188 C193 1.399 . S
C189 C188 1.399 . S
C189 C190 1.376 . S
C190 H177 0.930 . S
C190 C189 1.376 . S
C190 C191 1.388 . S
C191 H178 0.930 . S
C191 C190 1.388 . S
C191 C192 1.390 . S
C192 C191 1.390 . S
C192 C193 1.394 . S
C192 C198 1.465 . S
C193 C188 1.399 . S
C193 C192 1.394 . S
C193 C194 1.516 . S
C194 C193 1.516 . S
C194 C195 1.502 . S
C194 C196 1.561 . S
C194 C197 1.526 . S
C195 H179 0.959 . S
C195 H180 0.959 . S
C195 H181 0.961 . S
C195 C194 1.502 . S
C196 H182 0.960 . S
C196 H183 0.961 . S
C196 H184 0.959 . S
C196 C194 1.561 . S
C197 C194 1.526 . S
C197 C198 1.396 . S
C197 C202 1.390 . S
C198 C192 1.465 . S
C198 C197 1.396 . S
C198 C199 1.399 . S
C199 H185 0.929 . S
C199 C198 1.399 . S
C199 C200 1.385 . S
C200 H186 0.931 . S
C200 C199 1.385 . S
C200 C201 1.389 . S
C201 C200 1.389 . S
C201 C202 1.387 . S
C202 H187 0.930 . S
C202 C197 1.390 . S
C202 C201 1.387 . S
H203 C215 0.930 . S
H204 C217 0.930 . S
H205 C218 0.930 . S
H206 C222 0.959 . S
H207 C222 0.959 . S
H208 C222 0.961 . S
H209 C223 0.960 . S
H210 C223 0.961 . S
H211 C223 0.959 . S
H212 C226 0.929 . S
H213 C227 0.931 . S
H214 C229 0.930 . S
C215 H203 0.930 . S
C215 C216 1.399 . S
C215 C220 1.399 . S
C216 C215 1.399 . S
C216 C217 1.376 . S
C217 H204 0.930 . S
C217 C216 1.376 . S
C217 C218 1.388 . S
C218 H205 0.930 . S
C218 C217 1.388 . S
C218 C219 1.390 . S
C219 C218 1.390 . S
C219 C220 1.394 . S
C219 C225 1.465 . S
C220 C215 1.399 . S
C220 C219 1.394 . S
C220 C221 1.516 . S
C221 C220 1.516 . S
C221 C222 1.502 . S
C221 C223 1.561 . S
C221 C224 1.526 . S
C222 H206 0.959 . S
C222 H207 0.959 . S
C222 H208 0.961 . S
C222 C221 1.502 . S
C223 H209 0.960 . S
C223 H210 0.961 . S
C223 H211 0.959 . S
C223 C221 1.561 . S
C224 C221 1.526 . S
C224 C225 1.396 . S
C224 C229 1.390 . S
C225 C219 1.465 . S
C225 C224 1.396 . S
C225 C226 1.399 . S
C226 H212 0.929 . S
C226 C225 1.399 . S
C226 C227 1.385 . S
C227 H213 0.931 . S
C227 C226 1.385 . S
C227 C228 1.389 . S
C228 C227 1.389 . S
C228 C229 1.387 . S
C229 H214 0.930 . S
C229 C224 1.390 . S
C229 C228 1.387 . S
H230 C242 0.930 . S
H231 C244 0.930 . S
H232 C245 0.930 . S
H233 C249 0.959 . S
H234 C249 0.959 . S
H235 C249 0.961 . S
H236 C250 0.960 . S
H237 C250 0.961 . S
H238 C250 0.959 . S
H239 C253 0.929 . S
H240 C254 0.931 . S
H241 C256 0.930 . S
C242 H230 0.930 . S
C242 C243 1.399 . S
C242 C247 1.399 . S
C243 C242 1.399 . S
C243 C244 1.376 . S
C244 H231 0.930 . S
C244 C243 1.376 . S
C244 C245 1.388 . S
C245 H232 0.930 . S
C245 C244 1.388 . S
C245 C246 1.390 . S
C246 C245 1.390 . S
C246 C247 1.394 . S
C246 C252 1.465 . S
C247 C242 1.399 . S
C247 C246 1.394 . S
C247 C248 1.516 . S
C248 C247 1.516 . S
C248 C249 1.502 . S
C248 C250 1.561 . S
C248 C251 1.526 . S
C249 H233 0.959 . S
C249 H234 0.959 . S
C249 H235 0.961 . S
C249 C248 1.502 . S
C250 H236 0.960 . S
C250 H237 0.961 . S
C250 H238 0.959 . S
C250 C248 1.561 . S
C251 C248 1.526 . S
C251 C252 1.396 . S
C251 C256 1.390 . S
C252 C246 1.465 . S
C252 C251 1.396 . S
C252 C253 1.399 . S
C253 H239 0.929 . S
C253 C252 1.399 . S
C253 C254 1.385 . S
C254 H240 0.931 . S
C254 C253 1.385 . S
C254 C255 1.389 . S
C255 C254 1.389 . S
C255 C256 1.387 . S
C256 H241 0.930 . S
C256 C251 1.390 . S
C256 C255 1.387 . S
H257 C269 0.930 . S
H258 C271 0.930 . S
H259 C272 0.930 . S
H260 C276 0.959 . S
H261 C276 0.959 . S
H262 C276 0.961 . S
H263 C277 0.960 . S
H264 C277 0.961 . S
H265 C277 0.959 . S
H266 C280 0.929 . S
H267 C281 0.931 . S
H268 C283 0.930 . S
C269 H257 0.930 . S
C269 C270 1.399 . S
C269 C274 1.399 . S
C270 C269 1.399 . S
C270 C271 1.376 . S
C271 H258 0.930 . S
C271 C270 1.376 . S
C271 C272 1.388 . S
C272 H259 0.930 . S
C272 C271 1.388 . S
C272 C273 1.390 . S
C273 C272 1.390 . S
C273 C274 1.394 . S
C273 C279 1.465 . S
C274 C269 1.399 . S
C274 C273 1.394 . S
C274 C275 1.516 . S
C275 C274 1.516 . S
C275 C276 1.502 . S
C275 C277 1.561 . S
C275 C278 1.526 . S
C276 H260 0.959 . S
C276 H261 0.959 . S
C276 H262 0.961 . S
C276 C275 1.502 . S
C277 H263 0.960 . S
C277 H264 0.961 . S
C277 H265 0.959 . S
C277 C275 1.561 . S
C278 C275 1.526 . S
C278 C279 1.396 . S
C278 C283 1.390 . S
C279 C273 1.465 . S
C279 C278 1.396 . S
C279 C280 1.399 . S
C280 H266 0.929 . S
C280 C279 1.399 . S
C280 C281 1.385 . S
C281 H267 0.931 . S
C281 C280 1.385 . S
C281 C282 1.389 . S
C282 C281 1.389 . S
C282 C283 1.387 . S
C283 H268 0.930 . S
C283 C278 1.390 . S
C283 C282 1.387 . S
H284 C296 0.930 . S
H285 C298 0.930 . S
H286 C299 0.930 . S
H287 C303 0.959 . S
H288 C303 0.959 . S
H289 C303 0.961 . S
H290 C304 0.960 . S
H291 C304 0.961 . S
H292 C304 0.959 . S
H293 C307 0.929 . S
H294 C308 0.931 . S
H295 C310 0.930 . S
C296 H284 0.930 . S
C296 C297 1.399 . S
C296 C301 1.399 . S
C297 C296 1.399 . S
C297 C298 1.376 . S
C298 H285 0.930 . S
C298 C297 1.376 . S
C298 C299 1.388 . S
C299 H286 0.930 . S
C299 C298 1.388 . S
C299 C300 1.390 . S
C300 C299 1.390 . S
C300 C301 1.394 . S
C300 C306 1.465 . S
C301 C296 1.399 . S
C301 C300 1.394 . S
C301 C302 1.516 . S
C302 C301 1.516 . S
C302 C303 1.502 . S
C302 C304 1.561 . S
C302 C305 1.526 . S
C303 H287 0.959 . S
C303 H288 0.959 . S
C303 H289 0.961 . S
C303 C302 1.502 . S
C304 H290 0.960 . S
C304 H291 0.961 . S
C304 H292 0.959 . S
C304 C302 1.561 . S
C305 C302 1.526 . S
C305 C306 1.396 . S
C305 C310 1.390 . S
C306 C300 1.465 . S
C306 C305 1.396 . S
C306 C307 1.399 . S
C307 H293 0.929 . S
C307 C306 1.399 . S
C307 C308 1.385 . S
C308 H294 0.931 . S
C308 C307 1.385 . S
C308 C309 1.389 . S
C309 C308 1.389 . S
C309 C310 1.387 . S
C310 H295 0.930 . S
C310 C305 1.390 . S
C310 C309 1.387 . S
H311 C323 0.930 . S
H312 C325 0.930 . S
H313 C326 0.930 . S
H314 C330 0.959 . S
H315 C330 0.959 . S
H316 C330 0.961 . S
H317 C331 0.960 . S
H318 C331 0.961 . S
H319 C331 0.959 . S
H320 C334 0.929 . S
H321 C335 0.931 . S
H322 C337 0.930 . S
C323 H311 0.930 . S
C323 C324 1.399 . S
C323 C328 1.399 . S
C324 C323 1.399 . S
C324 C325 1.376 . S
C325 H312 0.930 . S
C325 C324 1.376 . S
C325 C326 1.388 . S
C326 H313 0.930 . S
C326 C325 1.388 . S
C326 C327 1.390 . S
C327 C326 1.390 . S
C327 C328 1.394 . S
C327 C333 1.465 . S
C328 C323 1.399 . S
C328 C327 1.394 . S
C328 C329 1.516 . S
C329 C328 1.516 . S
C329 C330 1.502 . S
C329 C331 1.561 . S
C329 C332 1.526 . S
C330 H314 0.959 . S
C330 H315 0.959 . S
C330 H316 0.961 . S
C330 C329 1.502 . S
C331 H317 0.960 . S
C331 H318 0.961 . S
C331 H319 0.959 . S
C331 C329 1.561 . S
C332 C329 1.526 . S
C332 C333 1.396 . S
C332 C337 1.390 . S
C333 C327 1.465 . S
C333 C332 1.396 . S
C333 C334 1.399 . S
C334 H320 0.929 . S
C334 C333 1.399 . S
C334 C335 1.385 . S
C335 H321 0.931 . S
C335 C334 1.385 . S
C335 C336 1.389 . S
C336 C335 1.389 . S
C336 C337 1.387 . S
C337 H322 0.930 . S
C337 C332 1.390 . S
C337 C336 1.387 . S
H338 C350 0.930 . S
H339 C352 0.930 . S
H340 C353 0.930 . S
H341 C357 0.959 . S
H342 C357 0.959 . S
H343 C357 0.961 . S
H344 C358 0.960 . S
H345 C358 0.961 . S
H346 C358 0.959 . S
H347 C361 0.929 . S
H348 C362 0.931 . S
H349 C364 0.930 . S
C350 H338 0.930 . S
C350 C351 1.399 . S
C350 C355 1.399 . S
C351 C350 1.399 . S
C351 C352 1.376 . S
C352 H339 0.930 . S
C352 C351 1.376 . S
C352 C353 1.388 . S
C353 H340 0.930 . S
C353 C352 1.388 . S
C353 C354 1.390 . S
C354 C353 1.390 . S
C354 C355 1.394 . S
C354 C360 1.465 . S
C355 C350 1.399 . S
C355 C354 1.394 . S
C355 C356 1.516 . S
C356 C355 1.516 . S
C356 C357 1.502 . S
C356 C358 1.561 . S
C356 C359 1.526 . S
C357 H341 0.959 . S
C357 H342 0.959 . S
C357 H343 0.961 . S
C357 C356 1.502 . S
C358 H344 0.960 . S
C358 H345 0.961 . S
C358 H346 0.959 . S
C358 C356 1.561 . S
C359 C356 1.526 . S
C359 C360 1.396 . S
C359 C364 1.390 . S
C360 C354 1.465 . S
C360 C359 1.396 . S
C360 C361 1.399 . S
C361 H347 0.929 . S
C361 C360 1.399 . S
C361 C362 1.385 . S
C362 H348 0.931 . S
C362 C361 1.385 . S
C362 C363 1.389 . S
C363 C362 1.389 . S
C363 C364 1.387 . S
C364 H349 0.930 . S
C364 C359 1.390 . S
C364 C363 1.387 . S
H365 C377 0.930 . S
H366 C379 0.930 . S
H367 C380 0.930 . S
H368 C384 0.959 . S
H369 C384 0.959 . S
H370 C384 0.961 . S
H371 C385 0.960 . S
H372 C385 0.961 . S
H373 C385 0.959 . S
H374 C388 0.929 . S
H375 C389 0.931 . S
H376 C391 0.930 . S
C377 H365 0.930 . S
C377 C378 1.399 . S
C377 C382 1.399 . S
C378 C377 1.399 . S
C378 C379 1.376 . S
C379 H366 0.930 . S
C379 C378 1.376 . S
C379 C380 1.388 . S
C380 H367 0.930 . S
C380 C379 1.388 . S
C380 C381 1.390 . S
C381 C380 1.390 . S
C381 C382 1.394 . S
C381 C387 1.465 . S
C382 C377 1.399 . S
C382 C381 1.394 . S
C382 C383 1.516 . S
C383 C382 1.516 . S
C383 C384 1.502 . S
C383 C385 1.561 . S
C383 C386 1.526 . S
C384 H368 0.959 . S
C384 H369 0.959 . S
C384 H370 0.961 . S
C384 C383 1.502 . S
C385 H371 0.960 . S
C385 H372 0.961 . S
C385 H373 0.959 . S
C385 C383 1.561 . S
C386 C383 1.526 . S
C386 C387 1.396 . S
C386 C391 1.390 . S
C387 C381 1.465 . S
C387 C386 1.396 . S
C387 C388 1.399 . S
C388 H374 0.929 . S
C388 C387 1.399 . S
C388 C389 1.385 . S
C389 H375 0.931 . S
C389 C388 1.385 . S
C389 C390 1.389 . S
C390 C389 1.389 . S
C390 C391 1.387 . S
C391 H376 0.930 . S
C391 C386 1.390 . S
C391 C390 1.387 . S
H392 C404 0.930 . S
H393 C406 0.930 . S
H394 C407 0.930 . S
H395 C411 0.959 . S
H396 C411 0.959 . S
H397 C411 0.961 . S
H398 C412 0.960 . S
H399 C412 0.961 . S
H400 C412 0.959 . S
H401 C415 0.929 . S
H402 C416 0.931 . S
H403 C418 0.930 . S
C404 H392 0.930 . S
C404 C405 1.399 . S
C404 C409 1.399 . S
C405 C404 1.399 . S
C405 C406 1.376 . S
C406 H393 0.930 . S
C406 C405 1.376 . S
C406 C407 1.388 . S
C407 H394 0.930 . S
C407 C406 1.388 . S
C407 C408 1.390 . S
C408 C407 1.390 . S
C408 C409 1.394 . S
C408 C414 1.465 . S
C409 C404 1.399 . S
C409 C408 1.394 . S
C409 C410 1.516 . S
C410 C409 1.516 . S
C410 C411 1.502 . S
C410 C412 1.561 . S
C410 C413 1.526 . S
C411 H395 0.959 . S
C411 H396 0.959 . S
C411 H397 0.961 . S
C411 C410 1.502 . S
C412 H398 0.960 . S
C412 H399 0.961 . S
C412 H400 0.959 . S
C412 C410 1.561 . S
C413 C410 1.526 . S
C413 C414 1.396 . S
C413 C418 1.390 . S
C414 C408 1.465 . S
C414 C413 1.396 . S
C414 C415 1.399 . S
C415 H401 0.929 . S
C415 C414 1.399 . S
C415 C416 1.385 . S
C416 H402 0.931 . S
C416 C415 1.385 . S
C416 C417 1.389 . S
C417 C416 1.389 . S
C417 C418 1.387 . S
C418 H403 0.930 . S
C418 C413 1.390 . S
C418 C417 1.387 . S
H419 C431 0.930 . S
H420 C433 0.930 . S
H421 C434 0.930 . S
H422 C438 0.959 . S
H423 C438 0.959 . S
H424 C438 0.961 . S
H425 C439 0.960 . S
H426 C439 0.961 . S
H427 C439 0.959 . S
H428 C442 0.929 . S
H429 C443 0.931 . S
H430 C445 0.930 . S
C431 H419 0.930 . S
C431 C432 1.399 . S
C431 C436 1.399 . S
C432 C431 1.399 . S
C432 C433 1.376 . S
C433 H420 0.930 . S
C433 C432 1.376 . S
C433 C434 1.388 . S
C434 H421 0.930 . S
C434 C433 1.388 . S
C434 C435 1.390 . S
C435 C434 1.390 . S
C435 C436 1.394 . S
C435 C441 1.465 . S
C436 C431 1.399 . S
C436 C435 1.394 . S
C436 C437 1.516 . S
C437 C436 1.516 . S
C437 C438 1.502 . S
C437 C439 1.561 . S
C437 C440 1.526 . S
C438 H422 0.959 . S
C438 H423 0.959 . S
C438 H424 0.961 . S
C438 C437 1.502 . S
C439 H425 0.960 . S
C439 H426 0.961 . S
C439 H427 0.959 . S
C439 C437 1.561 . S
C440 C437 1.526 . S
C440 C441 1.396 . S
C440 C445 1.390 . S
C441 C435 1.465 . S
C441 C440 1.396 . S
C441 C442 1.399 . S
C442 H428 0.929 . S
C442 C441 1.399 . S
C442 C443 1.385 . S
C443 H429 0.931 . S
C443 C442 1.385 . S
C443 C444 1.389 . S
C444 C443 1.389 . S
C444 C445 1.387 . S
C445 H430 0.930 . S
C445 C440 1.390 . S
C445 C444 1.387 . S
H446 C458 0.930 . S
H447 C460 0.930 . S
H448 C461 0.930 . S
H449 C465 0.959 . S
H450 C465 0.959 . S
H451 C465 0.961 . S
H452 C466 0.960 . S
H453 C466 0.961 . S
H454 C466 0.959 . S
H455 C469 0.929 . S
H456 C470 0.931 . S
H457 C472 0.930 . S
C458 H446 0.930 . S
C458 C459 1.399 . S
C458 C463 1.399 . S
C459 C458 1.399 . S
C459 C460 1.376 . S
C460 H447 0.930 . S
C460 C459 1.376 . S
C460 C461 1.388 . S
C461 H448 0.930 . S
C461 C460 1.388 . S
C461 C462 1.390 . S
C462 C461 1.390 . S
C462 C463 1.394 . S
C462 C468 1.465 . S
C463 C458 1.399 . S
C463 C462 1.394 . S
C463 C464 1.516 . S
C464 C463 1.516 . S
C464 C465 1.502 . S
C464 C466 1.561 . S
C464 C467 1.526 . S
C465 H449 0.959 . S
C465 H450 0.959 . S
C465 H451 0.961 . S
C465 C464 1.502 . S
C466 H452 0.960 . S
C466 H453 0.961 . S
C466 H454 0.959 . S
C466 C464 1.561 . S
C467 C464 1.526 . S
C467 C468 1.396 . S
C467 C472 1.390 . S
C468 C462 1.465 . S
C468 C467 1.396 . S
C468 C469 1.399 . S
C469 H455 0.929 . S
C469 C468 1.399 . S
C469 C470 1.385 . S
C470 H456 0.931 . S
C470 C469 1.385 . S
C470 C471 1.389 . S
C471 C470 1.389 . S
C471 C472 1.387 . S
C472 H457 0.930 . S
C472 C467 1.390 . S
C472 C471 1.387 . S
H473 C485 0.930 . S
H474 C487 0.930 . S
H475 C488 0.930 . S
H476 C492 0.959 . S
H477 C492 0.959 . S
H478 C492 0.961 . S
H479 C493 0.960 . S
H480 C493 0.961 . S
H481 C493 0.959 . S
H482 C496 0.929 . S
H483 C497 0.931 . S
H484 C499 0.930 . S
C485 H473 0.930 . S
C485 C486 1.399 . S
C485 C490 1.399 . S
C486 C485 1.399 . S
C486 C487 1.376 . S
C487 H474 0.930 . S
C487 C486 1.376 . S
C487 C488 1.388 . S
C488 H475 0.930 . S
C488 C487 1.388 . S
C488 C489 1.390 . S
C489 C488 1.390 . S
C489 C490 1.394 . S
C489 C495 1.465 . S
C490 C485 1.399 . S
C490 C489 1.394 . S
C490 C491 1.516 . S
C491 C490 1.516 . S
C491 C492 1.502 . S
C491 C493 1.561 . S
C491 C494 1.526 . S
C492 H476 0.959 . S
C492 H477 0.959 . S
C492 H478 0.961 . S
C492 C491 1.502 . S
C493 H479 0.960 . S
C493 H480 0.961 . S
C493 H481 0.959 . S
C493 C491 1.561 . S
C494 C491 1.526 . S
C494 C495 1.396 . S
C494 C499 1.390 . S
C495 C489 1.465 . S
C495 C494 1.396 . S
C495 C496 1.399 . S
C496 H482 0.929 . S
C496 C495 1.399 . S
C496 C497 1.385 . S
C497 H483 0.931 . S
C497 C496 1.385 . S
C497 C498 1.389 . S
C498 C497 1.389 . S
C498 C499 1.387 . S
C499 H484 0.930 . S
C499 C494 1.390 . S
C499 C498 1.387 . S
H500 C512 0.930 . S
H501 C514 0.930 . S
H502 C515 0.930 . S
H503 C519 0.959 . S
H504 C519 0.959 . S
H505 C519 0.961 . S
H506 C520 0.960 . S
H507 C520 0.961 . S
H508 C520 0.959 . S
H509 C523 0.929 . S
H510 C524 0.931 . S
H511 C526 0.930 . S
C512 H500 0.930 . S
C512 C513 1.399 . S
C512 C517 1.399 . S
C513 C512 1.399 . S
C513 C514 1.376 . S
C514 H501 0.930 . S
C514 C513 1.376 . S
C514 C515 1.388 . S
C515 H502 0.930 . S
C515 C514 1.388 . S
C515 C516 1.390 . S
C516 C515 1.390 . S
C516 C517 1.394 . S
C516 C522 1.465 . S
C517 C512 1.399 . S
C517 C516 1.394 . S
C517 C518 1.516 . S
C518 C517 1.516 . S
C518 C519 1.502 . S
C518 C520 1.561 . S
C518 C521 1.526 . S
C519 H503 0.959 . S
C519 H504 0.959 . S
C519 H505 0.961 . S
C519 C518 1.502 . S
C520 H506 0.960 . S
C520 H507 0.961 . S
C520 H508 0.959 . S
C520 C518 1.561 . S
C521 C518 1.526 . S
C521 C522 1.396 . S
C521 C526 1.390 . S
C522 C516 1.465 . S
C522 C521 1.396 . S
C522 C523 1.399 . S
C523 H509 0.929 . S
C523 C522 1.399 . S
C523 C524 1.385 . S
C524 H510 0.931 . S
C524 C523 1.385 . S
C524 C525 1.389 . S
C525 C524 1.389 . S
C525 C526 1.387 . S
C526 H511 0.930 . S
C526 C521 1.390 . S
C526 C525 1.387 . S
H527 C539 0.930 . S
H528 C541 0.930 . S
H529 C542 0.930 . S
H530 C546 0.959 . S
H531 C546 0.959 . S
H532 C546 0.961 . S
H533 C547 0.960 . S
H534 C547 0.961 . S
H535 C547 0.959 . S
H536 C550 0.929 . S
H537 C551 0.931 . S
H538 C553 0.930 . S
C539 H527 0.930 . S
C539 C540 1.399 . S
C539 C544 1.399 . S
C540 C539 1.399 . S
C540 C541 1.376 . S
C541 H528 0.930 . S
C541 C540 1.376 . S
C541 C542 1.388 . S
C542 H529 0.930 . S
C542 C541 1.388 . S
C542 C543 1.390 . S
C543 C542 1.390 . S
C543 C544 1.394 . S
C543 C549 1.465 . S
C544 C539 1.399 . S
C544 C543 1.394 . S
C544 C545 1.516 . S
C545 C544 1.516 . S
C545 C546 1.502 . S
C545 C547 1.561 . S
C545 C548 1.526 . S
C546 H530 0.959 . S
C546 H531 0.959 . S
C546 H532 0.961 . S
C546 C545 1.502 . S
C547 H533 0.960 . S
C547 H534 0.961 . S
C547 H535 0.959 . S
C547 C545 1.561 . S
C548 C545 1.526 . S
C548 C549 1.396 . S
C548 C553 1.390 . S
C549 C543 1.465 . S
C549 C548 1.396 . S
C549 C550 1.399 . S
C550 H536 0.929 . S
C550 C549 1.399 . S
C550 C551 1.385 . S
C551 H537 0.931 . S
C551 C550 1.385 . S
C551 C552 1.389 . S
C552 C551 1.389 . S
C552 C553 1.387 . S
C553 H538 0.930 . S
C553 C548 1.390 . S
C553 C552 1.387 . S
H554 C566 0.930 . S
H555 C568 0.930 . S
H556 C569 0.930 . S
H557 C573 0.959 . S
H558 C573 0.959 . S
H559 C573 0.961 . S
H560 C574 0.960 . S
H561 C574 0.961 . S
H562 C574 0.959 . S
H563 C577 0.929 . S
H564 C578 0.931 . S
H565 C580 0.930 . S
C566 H554 0.930 . S
C566 C567 1.399 . S
C566 C571 1.399 . S
C567 C566 1.399 . S
C567 C568 1.376 . S
C568 H555 0.930 . S
C568 C567 1.376 . S
C568 C569 1.388 . S
C569 H556 0.930 . S
C569 C568 1.388 . S
C569 C570 1.390 . S
C570 C569 1.390 . S
C570 C571 1.394 . S
C570 C576 1.465 . S
C571 C566 1.399 . S
C571 C570 1.394 . S
C571 C572 1.516 . S
C572 C571 1.516 . S
C572 C573 1.502 . S
C572 C574 1.561 . S
C572 C575 1.526 . S
C573 H557 0.959 . S
C573 H558 0.959 . S
C573 H559 0.961 . S
C573 C572 1.502 . S
C574 H560 0.960 . S
C574 H561 0.961 . S
C574 H562 0.959 . S
C574 C572 1.561 . S
C575 C572 1.526 . S
C575 C576 1.396 . S
C575 C580 1.390 . S
C576 C570 1.465 . S
C576 C575 1.396 . S
C576 C577 1.399 . S
C577 H563 0.929 . S
C577 C576 1.399 . S
C577 C578 1.385 . S
C578 H564 0.931 . S
C578 C577 1.385 . S
C578 C579 1.389 . S
C579 C578 1.389 . S
C579 C580 1.387 . S
C580 H565 0.930 . S
C580 C575 1.390 . S
C580 C579 1.387 . S
H581 C593 0.930 . S
H582 C595 0.930 . S
H583 C596 0.930 . S
H584 C600 0.959 . S
H585 C600 0.959 . S
H586 C600 0.961 . S
H587 C601 0.960 . S
H588 C601 0.961 . S
H589 C601 0.959 . S
H590 C604 0.929 . S
H591 C605 0.931 . S
H592 C607 0.930 . S
C593 H581 0.930 . S
C593 C594 1.399 . S
C593 C598 1.399 . S
C594 C593 1.399 . S
C594 C595 1.376 . S
C595 H582 0.930 . S
C595 C594 1.376 . S
C595 C596 1.388 . S
C596 H583 0.930 . S
C596 C595 1.388 . S
C596 C597 1.390 . S
C597 C596 1.390 . S
C597 C598 1.394 . S
C597 C603 1.465 . S
C598 C593 1.399 . S
C598 C597 1.394 . S
C598 C599 1.516 . S
C599 C598 1.516 . S
C599 C600 1.502 . S
C599 C601 1.561 . S
C599 C602 1.526 . S
C600 H584 0.959 . S
C600 H585 0.959 . S
C600 H586 0.961 . S
C600 C599 1.502 . S
C601 H587 0.960 . S
C601 H588 0.961 . S
C601 H589 0.959 . S
C601 C599 1.561 . S
C602 C599 1.526 . S
C602 C603 1.396 . S
C602 C607 1.390 . S
C603 C597 1.465 . S
C603 C602 1.396 . S
C603 C604 1.399 . S
C604 H590 0.929 . S
C604 C603 1.399 . S
C604 C605 1.385 . S
C605 H591 0.931 . S
C605 C604 1.385 . S
C605 C606 1.389 . S
C606 C605 1.389 . S
C606 C607 1.387 . S
C607 H592 0.930 . S
C607 C602 1.390 . S
C607 C606 1.387 . S
H608 C620 0.930 . S
H609 C622 0.930 . S
H610 C623 0.930 . S
H611 C627 0.959 . S
H612 C627 0.959 . S
H613 C627 0.961 . S
H614 C628 0.960 . S
H615 C628 0.961 . S
H616 C628 0.959 . S
H617 C631 0.929 . S
H618 C632 0.931 . S
H619 C634 0.930 . S
C620 H608 0.930 . S
C620 C621 1.399 . S
C620 C625 1.399 . S
C621 C620 1.399 . S
C621 C622 1.376 1_554 S
C622 H609 0.930 . S
C622 C621 1.376 1_556 S
C622 C623 1.388 . S
C623 H610 0.930 . S
C623 C622 1.388 . S
C623 C624 1.390 . S
C624 C623 1.390 . S
C624 C625 1.394 1_556 S
C624 C630 1.465 . S
C625 C620 1.399 . S
C625 C624 1.394 1_554 S
C625 C626 1.516 . S
C626 C625 1.516 . S
C626 C627 1.502 . S
C626 C628 1.561 . S
C626 C629 1.526 . S
C627 H611 0.959 . S
C627 H612 0.959 . S
C627 H613 0.961 . S
C627 C626 1.502 . S
C628 H614 0.960 . S
C628 H615 0.961 . S
C628 H616 0.959 . S
C628 C626 1.561 . S
C629 C626 1.526 . S
C629 C630 1.396 1_554 S
C629 C634 1.390 . S
C630 C624 1.465 . S
C630 C629 1.396 1_556 S
C630 C631 1.399 . S
C631 H617 0.929 . S
C631 C630 1.399 . S
C631 C632 1.385 . S
C632 H618 0.931 . S
C632 C631 1.385 . S
C632 C633 1.389 1_556 S
C633 C632 1.389 1_554 S
C633 C634 1.387 . S
C634 H619 0.930 . S
C634 C629 1.390 . S
C634 C633 1.387 . S
H635 C647 0.930 . S
H636 C649 0.930 . S
H637 C650 0.930 . S
H638 C654 0.959 . S
H639 C654 0.959 . S
H640 C654 0.961 . S
H641 C655 0.960 . S
H642 C655 0.961 . S
H643 C655 0.959 . S
H644 C658 0.929 . S
H645 C659 0.931 . S
H646 C661 0.930 . S
C647 H635 0.930 . S
C647 C648 1.399 . S
C647 C652 1.399 . S
C648 C647 1.399 . S
C648 C649 1.376 . S
C649 H636 0.930 . S
C649 C648 1.376 . S
C649 C650 1.388 . S
C650 H637 0.930 . S
C650 C649 1.388 . S
C650 C651 1.390 . S
C651 C650 1.390 . S
C651 C652 1.394 . S
C651 C657 1.465 . S
C652 C647 1.399 . S
C652 C651 1.394 . S
C652 C653 1.516 . S
C653 C652 1.516 . S
C653 C654 1.502 . S
C653 C655 1.561 . S
C653 C656 1.526 . S
C654 H638 0.959 . S
C654 H639 0.959 . S
C654 H640 0.961 . S
C654 C653 1.502 . S
C655 H641 0.960 . S
C655 H642 0.961 . S
C655 H643 0.959 . S
C655 C653 1.561 . S
C656 C653 1.526 . S
C656 C657 1.396 . S
C656 C661 1.390 . S
C657 C651 1.465 . S
C657 C656 1.396 . S
C657 C658 1.399 . S
C658 H644 0.929 . S
C658 C657 1.399 . S
C658 C659 1.385 . S
C659 H645 0.931 . S
C659 C658 1.385 . S
C659 C660 1.389 . S
C660 C659 1.389 . S
C660 C661 1.387 . S
C661 H646 0.930 . S
C661 C656 1.390 . S
C661 C660 1.387 . S
H662 C674 0.930 . S
H663 C676 0.930 . S
H664 C677 0.930 . S
H665 C681 0.959 . S
H666 C681 0.959 . S
H667 C681 0.961 . S
H668 C682 0.960 . S
H669 C682 0.961 . S
H670 C682 0.959 . S
H671 C685 0.929 . S
H672 C686 0.931 . S
H673 C688 0.930 . S
C674 H662 0.930 . S
C674 C675 1.399 1_556 S
C674 C679 1.399 . S
C675 C674 1.399 1_554 S
C675 C676 1.376 . S
C676 H663 0.930 . S
C676 C675 1.376 . S
C676 C677 1.388 . S
C677 H664 0.930 . S
C677 C676 1.388 . S
C677 C678 1.390 . S
C678 C677 1.390 . S
C678 C679 1.394 1_554 S
C678 C684 1.465 . S
C679 C674 1.399 . S
C679 C678 1.394 1_556 S
C679 C680 1.516 . S
C680 C679 1.516 . S
C680 C681 1.502 . S
C680 C682 1.561 . S
C680 C683 1.526 . S
C681 H665 0.959 . S
C681 H666 0.959 . S
C681 H667 0.961 . S
C681 C680 1.502 . S
C682 H668 0.960 . S
C682 H669 0.961 . S
C682 H670 0.959 . S
C682 C680 1.561 . S
C683 C680 1.526 . S
C683 C684 1.396 1_556 S
C683 C688 1.390 . S
C684 C678 1.465 . S
C684 C683 1.396 1_554 S
C684 C685 1.399 . S
C685 H671 0.929 . S
C685 C684 1.399 . S
C685 C686 1.385 . S
C686 H672 0.931 . S
C686 C685 1.385 . S
C686 C687 1.389 . S
C687 C686 1.389 . S
C687 C688 1.387 1_554 S
C688 H673 0.930 . S
C688 C683 1.390 . S
C688 C687 1.387 1_556 S
H689 C701 0.930 . S
H690 C703 0.930 . S
H691 C704 0.930 . S
H692 C708 0.959 . S
H693 C708 0.959 . S
H694 C708 0.961 . S
H695 C709 0.960 . S
H696 C709 0.961 . S
H697 C709 0.959 . S
H698 C712 0.929 . S
H699 C713 0.931 . S
H700 C715 0.930 . S
C701 H689 0.930 . S
C701 C702 1.399 . S
C701 C706 1.399 . S
C702 C701 1.399 . S
C702 C703 1.376 . S
C703 H690 0.930 . S
C703 C702 1.376 . S
C703 C704 1.388 . S
C704 H691 0.930 . S
C704 C703 1.388 . S
C704 C705 1.390 . S
C705 C704 1.390 . S
C705 C706 1.394 . S
C705 C711 1.465 . S
C706 C701 1.399 . S
C706 C705 1.394 . S
C706 C707 1.516 . S
C707 C706 1.516 . S
C707 C708 1.502 . S
C707 C709 1.561 . S
C707 C710 1.526 . S
C708 H692 0.959 . S
C708 H693 0.959 . S
C708 H694 0.961 . S
C708 C707 1.502 . S
C709 H695 0.960 . S
C709 H696 0.961 . S
C709 H697 0.959 . S
C709 C707 1.561 . S
C710 C707 1.526 . S
C710 C711 1.396 . S
C710 C715 1.390 . S
C711 C705 1.465 . S
C711 C710 1.396 . S
C711 C712 1.399 . S
C712 H698 0.929 . S
C712 C711 1.399 . S
C712 C713 1.385 . S
C713 H699 0.931 . S
C713 C712 1.385 . S
C713 C714 1.389 . S
C714 C713 1.389 . S
C714 C715 1.387 . S
C715 H700 0.930 . S
C715 C710 1.390 . S
C715 C714 1.387 . S
H716 C728 0.930 . S
H717 C730 0.930 . S
H718 C731 0.930 . S
H719 C735 0.959 . S
H720 C735 0.959 . S
H721 C735 0.961 . S
H722 C736 0.960 . S
H723 C736 0.961 . S
H724 C736 0.959 . S
H725 C739 0.929 . S
H726 C740 0.931 . S
H727 C742 0.930 . S
C728 H716 0.930 . S
C728 C729 1.399 . S
C728 C733 1.399 . S
C729 C728 1.399 . S
C729 C730 1.376 . S
C730 H717 0.930 . S
C730 C729 1.376 . S
C730 C731 1.388 . S
C731 H718 0.930 . S
C731 C730 1.388 . S
C731 C732 1.390 . S
C732 C731 1.390 . S
C732 C733 1.394 . S
C732 C738 1.465 . S
C733 C728 1.399 . S
C733 C732 1.394 . S
C733 C734 1.516 . S
C734 C733 1.516 . S
C734 C735 1.502 . S
C734 C736 1.561 . S
C734 C737 1.526 . S
C735 H719 0.959 . S
C735 H720 0.959 . S
C735 H721 0.961 . S
C735 C734 1.502 . S
C736 H722 0.960 . S
C736 H723 0.961 . S
C736 H724 0.959 . S
C736 C734 1.561 . S
C737 C734 1.526 . S
C737 C738 1.396 . S
C737 C742 1.390 . S
C738 C732 1.465 . S
C738 C737 1.396 . S
C738 C739 1.399 . S
C739 H725 0.929 . S
C739 C738 1.399 . S
C739 C740 1.385 . S
C740 H726 0.931 . S
C740 C739 1.385 . S
C740 C741 1.389 . S
C741 C740 1.389 . S
C741 C742 1.387 . S
C742 H727 0.930 . S
C742 C737 1.390 . S
C742 C741 1.387 . S
H743 C755 0.930 . S
H744 C757 0.930 . S
H745 C758 0.930 . S
H746 C762 0.959 . S
H747 C762 0.959 . S
H748 C762 0.961 . S
H749 C763 0.960 . S
H750 C763 0.961 . S
H751 C763 0.959 . S
H752 C766 0.929 . S
H753 C767 0.931 . S
H754 C769 0.930 . S
C755 H743 0.930 . S
C755 C756 1.399 1_556 S
C755 C760 1.399 . S
C756 C755 1.399 1_554 S
C756 C757 1.376 . S
C757 H744 0.930 . S
C757 C756 1.376 . S
C757 C758 1.388 . S
C758 H745 0.930 . S
C758 C757 1.388 . S
C758 C759 1.390 . S
C759 C758 1.390 . S
C759 C760 1.394 1_554 S
C759 C765 1.465 . S
C760 C755 1.399 . S
C760 C759 1.394 1_556 S
C760 C761 1.516 . S
C761 C760 1.516 . S
C761 C762 1.502 . S
C761 C763 1.561 . S
C761 C764 1.526 . S
C762 H746 0.959 . S
C762 H747 0.959 . S
C762 H748 0.961 . S
C762 C761 1.502 . S
C763 H749 0.960 . S
C763 H750 0.961 . S
C763 H751 0.959 . S
C763 C761 1.561 . S
C764 C761 1.526 . S
C764 C765 1.396 1_556 S
C764 C769 1.390 . S
C765 C759 1.465 . S
C765 C764 1.396 1_554 S
C765 C766 1.399 . S
C766 H752 0.929 . S
C766 C765 1.399 . S
C766 C767 1.385 . S
C767 H753 0.931 . S
C767 C766 1.385 . S
C767 C768 1.389 . S
C768 C767 1.389 . S
C768 C769 1.387 1_554 S
C769 H754 0.930 . S
C769 C764 1.390 . S
C769 C768 1.387 1_556 S
H770 C782 0.930 . S
H771 C784 0.930 . S
H772 C785 0.930 . S
H773 C789 0.959 . S
H774 C789 0.959 . S
H775 C789 0.961 . S
H776 C790 0.960 . S
H777 C790 0.961 . S
H778 C790 0.959 . S
H779 C793 0.929 . S
H780 C794 0.931 . S
H781 C796 0.930 . S
C782 H770 0.930 . S
C782 C783 1.399 . S
C782 C787 1.399 . S
C783 C782 1.399 . S
C783 C784 1.376 . S
C784 H771 0.930 . S
C784 C783 1.376 . S
C784 C785 1.388 . S
C785 H772 0.930 . S
C785 C784 1.388 . S
C785 C786 1.390 . S
C786 C785 1.390 . S
C786 C787 1.394 . S
C786 C792 1.465 . S
C787 C782 1.399 . S
C787 C786 1.394 . S
C787 C788 1.516 . S
C788 C787 1.516 . S
C788 C789 1.502 . S
C788 C790 1.561 . S
C788 C791 1.526 . S
C789 H773 0.959 . S
C789 H774 0.959 . S
C789 H775 0.961 . S
C789 C788 1.502 . S
C790 H776 0.960 . S
C790 H777 0.961 . S
C790 H778 0.959 . S
C790 C788 1.561 . S
C791 C788 1.526 . S
C791 C792 1.396 . S
C791 C796 1.390 . S
C792 C786 1.465 . S
C792 C791 1.396 . S
C792 C793 1.399 . S
C793 H779 0.929 . S
C793 C792 1.399 . S
C793 C794 1.385 . S
C794 H780 0.931 . S
C794 C793 1.385 . S
C794 C795 1.389 . S
C795 C794 1.389 . S
C795 C796 1.387 . S
C796 H781 0.930 . S
C796 C791 1.390 . S
C796 C795 1.387 . S
H797 C809 0.930 . S
H798 C811 0.930 . S
H799 C812 0.930 . S
H800 C816 0.959 . S
H801 C816 0.959 . S
H802 C816 0.961 . S
H803 C817 0.960 . S
H804 C817 0.961 . S
H805 C817 0.959 . S
H806 C820 0.929 . S
H807 C821 0.931 . S
H808 C823 0.930 . S
C809 H797 0.930 . S
C809 C810 1.399 . S
C809 C814 1.399 . S
C810 C809 1.399 . S
C810 C811 1.376 . S
C811 H798 0.930 . S
C811 C810 1.376 . S
C811 C812 1.388 . S
C812 H799 0.930 . S
C812 C811 1.388 . S
C812 C813 1.390 . S
C813 C812 1.390 . S
C813 C814 1.394 . S
C813 C819 1.465 . S
C814 C809 1.399 . S
C814 C813 1.394 . S
C814 C815 1.516 . S
C815 C814 1.516 . S
C815 C816 1.502 1_554 S
C815 C817 1.561 . S
C815 C818 1.526 . S
C816 H800 0.959 . S
C816 H801 0.959 . S
C816 H802 0.961 . S
C816 C815 1.502 1_556 S
C817 H803 0.960 . S
C817 H804 0.961 . S
C817 H805 0.959 . S
C817 C815 1.561 . S
C818 C815 1.526 . S
C818 C819 1.396 . S
C818 C823 1.390 . S
C819 C813 1.465 . S
C819 C818 1.396 . S
C819 C820 1.399 . S
C820 H806 0.929 . S
C820 C819 1.399 . S
C820 C821 1.385 . S
C821 H807 0.931 . S
C821 C820 1.385 . S
C821 C822 1.389 . S
C822 C821 1.389 . S
C822 C823 1.387 . S
C823 H808 0.930 . S
C823 C818 1.390 . S
C823 C822 1.387 . S
C189 C21 1.467 . S
C201 C125 1.492 . S
C216 C40 1.491 . S
C228 C92 1.492 . S
C255 C104 1.434 . S
C243 C54 1.469 . S
C270 C73 1.518 . S
C282 C115 1.498 . S
C309 C148 1.423 . S
C297 C74 1.461 . S
C336 C159 1.454 . S
C324 C10 1.504 . S
C363 C169 1.477 . S
C351 C37 1.472 . S
C390 C136 1.519 . S
C378 C65 1.518 . S
C405 C52 1.424 . S
C417 C103 1.423 . S
C432 C87 1.518 . S
C444 C114 1.515 . S
C459 C15 1.527 . S
C471 C126 1.500 . S
C498 C93 1.481 . S
C486 C32 1.496 . S
C513 C29 1.519 . S
C525 C170 1.497 . S
C552 C137 1.484 . S
C540 C59 1.516 . S
C579 C147 1.442 . S
C567 C84 1.451 . S
C594 C8 1.473 . S
C606 C158 1.453 . S
C633 C98 1.523 . S
C621 C7 1.516 . S
C660 C109 1.478 . S
C648 C30 1.476 . S
C675 C62 1.533 . S
C687 C120 1.539 . S
C702 C81 1.501 . S
C714 C131 1.499 . S
C741 C142 1.505 . S
C729 C76 1.531 . S
C756 C18 1.476 . S
C768 C153 1.477 . S
C783 C43 1.536 . S
C795 C164 1.542 . S
C810 C51 1.515 . S
C822 C175 1.506 . S
