# Generated by pormake.
# Topology pyr, (3,6)-cn, num edge types: 1
# Building blocks:
#     Node 0, Type 0, BuildingBlock: VETTIZ_charged_linker_0, # of connection points: 3
#     Node 1, Type 0, BuildingBlock: VETTIZ_charged_linker_0, # of connection points: 3
#     Node 2, Type 0, BuildingBlock: VETTIZ_charged_linker_0, # of connection points: 3
#     Node 3, Type 0, BuildingBlock: VETTIZ_charged_linker_0, # of connection points: 3
#     Node 4, Type 0, BuildingBlock: VETTIZ_charged_linker_0, # of connection points: 3
#     Node 5, Type 0, BuildingBlock: VETTIZ_charged_linker_0, # of connection points: 3
#     Node 6, Type 0, BuildingBlock: VETTIZ_charged_linker_0, # of connection points: 3
#     Node 7, Type 0, BuildingBlock: VETTIZ_charged_linker_0, # of connection points: 3
#     Node 8, Type 1, BuildingBlock: GEDQOX_clean_sbu_0, # of connection points: 6
#     Node 9, Type 1, BuildingBlock: GEDQOX_clean_sbu_0, # of connection points: 6
#     Node 10, Type 1, BuildingBlock: GEDQOX_clean_sbu_0, # of connection points: 6
#     Node 11, Type 1, BuildingBlock: GEDQOX_clean_sbu_0, # of connection points: 6
#     Edge 12, Type (0, 1), BuildingBlock: UVAHIK_clean_linker_0, # of connection points: 2
#     Edge 13, Type (0, 1), BuildingBlock: UVAHIK_clean_linker_0, # of connection points: 2
#     Edge 14, Type (0, 1), BuildingBlock: UVAHIK_clean_linker_0, # of connection points: 2
#     Edge 15, Type (0, 1), BuildingBlock: UVAHIK_clean_linker_0, # of connection points: 2
#     Edge 16, Type (0, 1), BuildingBlock: UVAHIK_clean_linker_0, # of connection points: 2
#     Edge 17, Type (0, 1), BuildingBlock: UVAHIK_clean_linker_0, # of connection points: 2
#     Edge 18, Type (0, 1), BuildingBlock: UVAHIK_clean_linker_0, # of connection points: 2
#     Edge 19, Type (0, 1), BuildingBlock: UVAHIK_clean_linker_0, # of connection points: 2
#     Edge 20, Type (0, 1), BuildingBlock: UVAHIK_clean_linker_0, # of connection points: 2
#     Edge 21, Type (0, 1), BuildingBlock: UVAHIK_clean_linker_0, # of connection points: 2
#     Edge 22, Type (0, 1), BuildingBlock: UVAHIK_clean_linker_0, # of connection points: 2
#     Edge 23, Type (0, 1), BuildingBlock: UVAHIK_clean_linker_0, # of connection points: 2
#     Edge 24, Type (0, 1), BuildingBlock: UVAHIK_clean_linker_0, # of connection points: 2
#     Edge 25, Type (0, 1), BuildingBlock: UVAHIK_clean_linker_0, # of connection points: 2
#     Edge 26, Type (0, 1), BuildingBlock: UVAHIK_clean_linker_0, # of connection points: 2
#     Edge 27, Type (0, 1), BuildingBlock: UVAHIK_clean_linker_0, # of connection points: 2
#     Edge 28, Type (0, 1), BuildingBlock: UVAHIK_clean_linker_0, # of connection points: 2
#     Edge 29, Type (0, 1), BuildingBlock: UVAHIK_clean_linker_0, # of connection points: 2
#     Edge 30, Type (0, 1), BuildingBlock: UVAHIK_clean_linker_0, # of connection points: 2
#     Edge 31, Type (0, 1), BuildingBlock: UVAHIK_clean_linker_0, # of connection points: 2
#     Edge 32, Type (0, 1), BuildingBlock: UVAHIK_clean_linker_0, # of connection points: 2
#     Edge 33, Type (0, 1), BuildingBlock: UVAHIK_clean_linker_0, # of connection points: 2
#     Edge 34, Type (0, 1), BuildingBlock: UVAHIK_clean_linker_0, # of connection points: 2
#     Edge 35, Type (0, 1), BuildingBlock: UVAHIK_clean_linker_0, # of connection points: 2
# Relax obj value: 0.082
# Max RMSD: 0.146
# Mean RMSD: 0.059
data_MOF--net-pyr--node1-GEDQOX_clean_sbu_0--node2-VETTIZ_charged_linker_0--edge1-UVAHIK_clean_linker_0
_symmetry_space_group_name_H-M    P1
_symmetry_Int_Tables_number       1
_symmetry_cell_setting            triclinic
loop_
_symmetry_equiv_pos_as_xyz
'x, y, z'
_cell_length_a     59.463318
_cell_length_b     59.529783
_cell_length_c     52.798667
_cell_angle_alpha  87.788109
_cell_angle_beta   91.035647
_cell_angle_gamma 88.014918
loop_
_atom_site_label
_atom_site_type_symbol
_atom_site_fract_x
_atom_site_fract_y
_atom_site_fract_z
_atom_type_partial_charge
C0 C 0.17032 0.13432 0.23658 0.0
C1 C 0.15034 0.14182 0.24841 0.0
C2 C 0.13993 0.16227 0.23903 0.0
C3 C 0.16844 0.16689 0.20678 0.0
C4 C 0.17894 0.14702 0.21586 0.0
C5 C 0.19965 0.14135 0.20074 0.0
H6 H 0.27089 0.16662 0.10421 0.0
C7 C 0.18143 0.17599 0.1849 0.0
C8 C 0.19982 0.16101 0.18121 0.0
H9 H 0.27445 0.10924 0.15712 0.0
H10 H 0.24102 0.12286 0.17732 0.0
H11 H 0.25563 0.2045 0.14689 0.0
H12 H 0.21553 0.16678 0.09536 0.0
H13 H 0.2062 0.19523 0.09435 0.0
H14 H 0.23417 0.18794 0.08415 0.0
H15 H 0.25719 0.20855 0.11306 0.0
H16 H 0.23544 0.22239 0.13063 0.0
C17 C 0.22038 0.14111 0.21891 0.0
C18 C 0.19598 0.11872 0.18804 0.0
C19 C 0.15401 0.24974 0.13947 0.0
C20 C 0.1615 0.26272 0.11847 0.0
C21 C 0.18112 0.25473 0.10632 0.0
C22 C 0.19282 0.23464 0.11477 0.0
C23 C 0.18502 0.22193 0.1357 0.0
C24 C 0.16584 0.22964 0.1476 0.0
C25 C 0.15962 0.214 0.16932 0.0
C26 C 0.17815 0.19569 0.16871 0.0
C27 C 0.19322 0.20029 0.14897 0.0
C28 C 0.16081 0.22718 0.19402 0.0
C29 C 0.13616 0.20477 0.16323 0.0
C30 C 0.26458 0.15704 0.12024 0.0
C31 C 0.27565 0.1365 0.12869 0.0
C32 C 0.2664 0.12474 0.14961 0.0
C33 C 0.24689 0.13281 0.16157 0.0
C34 C 0.23598 0.15306 0.15281 0.0
C35 C 0.24483 0.16488 0.13243 0.0
C36 C 0.23063 0.18602 0.12563 0.0
C37 C 0.21202 0.18498 0.14527 0.0
C38 C 0.21529 0.16551 0.16126 0.0
C39 C 0.24542 0.20656 0.12903 0.0
C40 C 0.22117 0.18412 0.09838 0.0
H41 H 0.13983 0.19002 0.2126 0.0
H42 H 0.17885 0.11871 0.24296 0.0
H43 H 0.17816 0.11754 0.18158 0.0
H44 H 0.20596 0.11674 0.1708 0.0
H45 H 0.19994 0.10425 0.20149 0.0
H46 H 0.21876 0.15491 0.23247 0.0
H47 H 0.22211 0.12497 0.23016 0.0
H48 H 0.23624 0.14408 0.209 0.0
H49 H 0.13894 0.25486 0.14924 0.0
H50 H 0.1877 0.26422 0.09037 0.0
H51 H 0.20759 0.22975 0.10466 0.0
H52 H 0.17502 0.23886 0.19356 0.0
H53 H 0.14508 0.23739 0.19659 0.0
H54 H 0.1641 0.21619 0.2111 0.0
H55 H 0.13402 0.2023 0.14255 0.0
H56 H 0.13363 0.18802 0.17224 0.0
H57 H 0.12246 0.21658 0.16894 0.0
H58 H 0.12492 0.16893 0.24778 0.0
C59 C 0.14876 0.1747 0.21853 0.0
C60 C 0.26421 0.79097 0.71793 0.0
C61 C 0.24967 0.80537 0.73106 0.0
C62 C 0.25771 0.81485 0.75345 0.0
C63 C 0.29446 0.79685 0.74813 0.0
C64 C 0.2863 0.78688 0.72682 0.0
C65 C 0.30373 0.77208 0.71485 0.0
H66 H 0.40961 0.72736 0.71443 0.0
C67 C 0.31855 0.79008 0.75129 0.0
C68 C 0.32397 0.7754 0.73199 0.0
H69 H 0.35315 0.71402 0.66502 0.0
H70 H 0.32998 0.74076 0.68636 0.0
H71 H 0.4017 0.7801 0.71141 0.0
H72 H 0.3815 0.73083 0.76755 0.0
H73 H 0.3941 0.75336 0.78265 0.0
H74 H 0.41026 0.737 0.7611 0.0
H75 H 0.42063 0.76971 0.73632 0.0
H76 H 0.40153 0.79351 0.74043 0.0
C77 C 0.30745 0.78147 0.6875 0.0
C78 C 0.29572 0.74752 0.71657 0.0
C79 C 0.36618 0.82482 0.81914 0.0
C80 C 0.38955 0.82477 0.82414 0.0
C81 C 0.40378 0.81072 0.80994 0.0
C82 C 0.39498 0.79738 0.79106 0.0
C83 C 0.37171 0.79827 0.78589 0.0
C84 C 0.35777 0.81195 0.79974 0.0
C85 C 0.33376 0.81231 0.79025 0.0
C86 C 0.33557 0.79649 0.7685 0.0
C87 C 0.35779 0.78804 0.76625 0.0
C88 C 0.32713 0.83672 0.78097 0.0
C89 C 0.31899 0.80281 0.81172 0.0
C90 C 0.39229 0.7303 0.70817 0.0
C91 C 0.38312 0.71817 0.68828 0.0
C92 C 0.3605 0.72262 0.6807 0.0
C93 C 0.34705 0.73828 0.69306 0.0
C94 C 0.35622 0.74984 0.71324 0.0
C95 C 0.37853 0.74601 0.72037 0.0
C96 C 0.38534 0.76039 0.74192 0.0
C97 C 0.36312 0.77262 0.74718 0.0
C98 C 0.34625 0.76639 0.73021 0.0
C99 C 0.40334 0.77673 0.73225 0.0
C100 C 0.39337 0.7447 0.76458 0.0
H101 H 0.28515 0.81854 0.77904 0.0
H102 H 0.25883 0.78353 0.70054 0.0
H103 H 0.28445 0.74476 0.73291 0.0
H104 H 0.30975 0.73503 0.72 0.0
H105 H 0.28624 0.74333 0.69916 0.0
H106 H 0.30693 0.80019 0.68684 0.0
H107 H 0.29418 0.776 0.67425 0.0
H108 H 0.32409 0.7766 0.68009 0.0
H109 H 0.35452 0.83498 0.82974 0.0
H110 H 0.42186 0.81048 0.81277 0.0
H111 H 0.40669 0.78723 0.78085 0.0
H112 H 0.34159 0.84495 0.77181 0.0
H113 H 0.32187 0.84709 0.79702 0.0
H114 H 0.31365 0.83764 0.76632 0.0
H115 H 0.32813 0.78891 0.82273 0.0
H116 H 0.30352 0.79528 0.80452 0.0
H117 H 0.31433 0.81602 0.82515 0.0
H118 H 0.24682 0.82565 0.76427 0.0
C119 C 0.27999 0.81066 0.76205 0.0
C120 C 0.6766 0.34013 0.90453 0.0
C121 C 0.65571 0.3322 0.89652 0.0
C122 C 0.6425 0.34524 0.87864 0.0
C123 C 0.67209 0.37187 0.8744 0.0
C124 C 0.68444 0.35999 0.8932 0.0
C125 C 0.70675 0.37035 0.89832 0.0
H126 H 0.78517 0.44376 0.86158 0.0
C127 C 0.68593 0.3901 0.86435 0.0
C128 C 0.70621 0.38947 0.87833 0.0
H129 H 0.78595 0.39961 0.9288 0.0
H130 H 0.74932 0.38695 0.91741 0.0
H131 H 0.73362 0.46223 0.86924 0.0
H132 H 0.76227 0.41049 0.82344 0.0
H133 H 0.74108 0.42512 0.80524 0.0
H134 H 0.76532 0.43986 0.81581 0.0
H135 H 0.75051 0.46844 0.84218 0.0
H136 H 0.72067 0.46469 0.839 0.0
C137 C 0.70674 0.37909 0.92563 0.0
C138 C 0.7257 0.35258 0.89359 0.0
C139 C 0.65837 0.4353 0.78604 0.0
C140 C 0.6684 0.45107 0.76979 0.0
C141 C 0.6904 0.45773 0.77538 0.0
C142 C 0.70218 0.44879 0.79699 0.0
C143 C 0.69192 0.43285 0.81297 0.0
C144 C 0.67039 0.42637 0.80725 0.0
C145 C 0.66252 0.40831 0.82524 0.0
C146 C 0.68271 0.40525 0.8431 0.0
C147 C 0.69985 0.41971 0.83597 0.0
C148 C 0.64154 0.41766 0.83891 0.0
C149 C 0.65845 0.38702 0.80988 0.0
C150 C 0.77745 0.43152 0.87405 0.0
C151 C 0.78881 0.42253 0.89601 0.0
C152 C 0.778 0.40645 0.91144 0.0
C153 C 0.75656 0.39925 0.90497 0.0
C154 C 0.74561 0.40826 0.88291 0.0
C155 C 0.75587 0.4244 0.8681 0.0
C156 C 0.74111 0.43297 0.84611 0.0
C157 C 0.72028 0.41938 0.85033 0.0
C158 C 0.72323 0.40463 0.87165 0.0
C159 C 0.73623 0.45845 0.84901 0.0
C160 C 0.75298 0.42702 0.82124 0.0
H161 H 0.63991 0.37381 0.85361 0.0
H162 H 0.68705 0.33056 0.91837 0.0
H163 H 0.72244 0.34412 0.87553 0.0
H164 H 0.74242 0.35986 0.89175 0.0
H165 H 0.72671 0.33945 0.90914 0.0
H166 H 0.68934 0.3822 0.93241 0.0
H167 H 0.7153 0.3668 0.93928 0.0
H168 H 0.71478 0.39554 0.92682 0.0
H169 H 0.64171 0.42943 0.78188 0.0
H170 H 0.69843 0.46988 0.76305 0.0
H171 H 0.71888 0.45446 0.80027 0.0
H172 H 0.64314 0.43583 0.84255 0.0
H173 H 0.62599 0.41595 0.82727 0.0
H174 H 0.6393 0.40952 0.85782 0.0
H175 H 0.66972 0.38622 0.79331 0.0
H176 H 0.66235 0.37116 0.82085 0.0
H177 H 0.64084 0.3869 0.80252 0.0
H178 H 0.62608 0.33983 0.87269 0.0
C179 C 0.65055 0.36501 0.86759 0.0
C180 C 0.89935 0.80693 0.34268 0.0
C181 C 0.90003 0.81041 0.36892 0.0
C182 C 0.88989 0.79479 0.38549 0.0
C183 C 0.87902 0.77269 0.35005 0.0
C184 C 0.88873 0.78806 0.3337 0.0
C185 C 0.88631 0.78184 0.30643 0.0
H186 H 0.84522 0.71072 0.22108 0.0
C187 C 0.86941 0.75498 0.33483 0.0
C188 C 0.87347 0.76029 0.30919 0.0
H189 H 0.88542 0.76852 0.20579 0.0
H190 H 0.88675 0.776 0.2507 0.0
H191 H 0.87481 0.69182 0.26331 0.0
H192 H 0.81353 0.73188 0.2664 0.0
H193 H 0.81205 0.70932 0.28882 0.0
H194 H 0.81517 0.70357 0.25582 0.0
H195 H 0.84785 0.67932 0.26181 0.0
H196 H 0.86229 0.6831 0.29167 0.0
C197 C 0.91013 0.77757 0.29583 0.0
C198 C 0.87229 0.80082 0.29202 0.0
C199 C 0.83081 0.68964 0.37865 0.0
C200 C 0.82078 0.67046 0.36943 0.0
C201 C 0.82043 0.66712 0.34317 0.0
C202 C 0.82962 0.68281 0.32626 0.0
C203 C 0.83944 0.702 0.33568 0.0
C204 C 0.84016 0.70505 0.36148 0.0
C205 C 0.85177 0.72619 0.36801 0.0
C206 C 0.85786 0.73528 0.34183 0.0
C207 C 0.85038 0.72116 0.32305 0.0
C208 C 0.87293 0.71937 0.38448 0.0
C209 C 0.83453 0.74193 0.38094 0.0
C210 C 0.85374 0.72538 0.22735 0.0
C211 C 0.8647 0.73944 0.21 0.0
C212 C 0.87656 0.75772 0.21892 0.0
C213 C 0.87738 0.76192 0.24494 0.0
C214 C 0.86661 0.74739 0.26216 0.0
C215 C 0.85517 0.72942 0.25317 0.0
C216 C 0.84641 0.7145 0.27402 0.0
C217 C 0.85391 0.72675 0.29713 0.0
C218 C 0.86554 0.74612 0.29017 0.0
C219 C 0.85823 0.6909 0.27269 0.0
C220 C 0.82043 0.7146 0.2712 0.0
H221 H 0.87205 0.76481 0.38986 0.0
H222 H 0.90711 0.81849 0.32943 0.0
H223 H 0.85797 0.80666 0.30365 0.0
H224 H 0.86458 0.79537 0.27423 0.0
H225 H 0.88274 0.81553 0.28766 0.0
H226 H 0.92178 0.76994 0.31076 0.0
H227 H 0.91741 0.79351 0.28877 0.0
H228 H 0.91036 0.76543 0.28054 0.0
H229 H 0.83141 0.69255 0.39877 0.0
H230 H 0.81252 0.65261 0.33564 0.0
H231 H 0.82852 0.67945 0.30649 0.0
H232 H 0.88092 0.70344 0.37806 0.0
H233 H 0.86854 0.71665 0.4047 0.0
H234 H 0.88629 0.73176 0.38311 0.0
H235 H 0.81724 0.73997 0.37311 0.0
H236 H 0.83781 0.75994 0.37758 0.0
H237 H 0.8341 0.73811 0.40168 0.0
H238 H 0.88971 0.79725 0.4057 0.0
C239 C 0.87946 0.77599 0.37623 0.0
C240 C 0.86784 0.78115 0.90499 0.0
C241 C 0.88733 0.76973 0.89604 0.0
C242 C 0.89842 0.77983 0.87532 0.0
C243 C 0.87097 0.81123 0.87243 0.0
C244 C 0.85992 0.80174 0.89282 0.0
C245 C 0.83919 0.81595 0.89911 0.0
H246 H 0.77219 0.91099 0.87543 0.0
C247 C 0.85862 0.83252 0.86377 0.0
C248 C 0.83984 0.83549 0.87937 0.0
H249 H 0.76256 0.8574 0.93157 0.0
H250 H 0.79619 0.83811 0.91799 0.0
H251 H 0.78531 0.877 0.83027 0.0
H252 H 0.82695 0.91281 0.88182 0.0
H253 H 0.83745 0.91592 0.85094 0.0
H254 H 0.80967 0.927 0.85748 0.0
H255 H 0.78724 0.90705 0.82803 0.0
H256 H 0.80749 0.88876 0.81328 0.0
C257 C 0.81826 0.80167 0.8953 0.0
C258 C 0.84221 0.82404 0.92637 0.0
C259 C 0.88871 0.87878 0.78864 0.0
C260 C 0.88166 0.89919 0.77579 0.0
C261 C 0.86202 0.91036 0.78452 0.0
C262 C 0.84991 0.90162 0.80523 0.0
C263 C 0.85722 0.88128 0.81776 0.0
C264 C 0.87637 0.87025 0.80932 0.0
C265 C 0.88179 0.84885 0.82481 0.0
C266 C 0.8628 0.84872 0.84385 0.0
C267 C 0.84832 0.86779 0.83975 0.0
C268 C 0.88057 0.8289 0.80689 0.0
C269 C 0.90506 0.85121 0.83798 0.0
C270 C 0.777 0.89503 0.88481 0.0
C271 C 0.76419 0.88623 0.9051 0.0
C272 C 0.7719 0.86531 0.91647 0.0
C273 C 0.79152 0.85382 0.90834 0.0
C274 C 0.804 0.86292 0.88824 0.0
C275 C 0.79653 0.88317 0.87671 0.0
C276 C 0.81153 0.89009 0.85513 0.0
C277 C 0.82927 0.8709 0.85569 0.0
C278 C 0.82491 0.85488 0.8753 0.0
C279 C 0.79726 0.89098 0.83029 0.0
C280 C 0.82193 0.91273 0.86142 0.0
H281 H 0.89991 0.8067 0.84802 0.0
H282 H 0.8587 0.77402 0.92074 0.0
H283 H 0.85956 0.82993 0.92943 0.0
H284 H 0.83087 0.83845 0.93042 0.0
H285 H 0.83943 0.81018 0.94055 0.0
H286 H 0.82003 0.79145 0.8782 0.0
H287 H 0.81599 0.78993 0.91186 0.0
H288 H 0.80266 0.812 0.89195 0.0
H289 H 0.90376 0.86967 0.78302 0.0
H290 H 0.85569 0.92582 0.77508 0.0
H291 H 0.83519 0.91107 0.81068 0.0
H292 H 0.86699 0.83202 0.79226 0.0
H293 H 0.89665 0.8263 0.79684 0.0
H294 H 0.87624 0.81299 0.81678 0.0
H295 H 0.90744 0.86886 0.84343 0.0
H296 H 0.90699 0.84114 0.85594 0.0
H297 H 0.91896 0.84653 0.82522 0.0
H298 H 0.9136 0.77199 0.86815 0.0
C299 C 0.89047 0.80025 0.86362 0.0
C300 C 0.76238 0.22913 0.31835 0.0
C301 C 0.77523 0.21185 0.30764 0.0
C302 C 0.76744 0.20241 0.28519 0.0
C303 C 0.73352 0.22624 0.28569 0.0
C304 C 0.74175 0.2361 0.30706 0.0
C305 C 0.72592 0.25395 0.31647 0.0
H306 H 0.62547 0.31043 0.30833 0.0
C307 C 0.71096 0.23652 0.27972 0.0
C308 C 0.70656 0.25292 0.29751 0.0
H309 H 0.68035 0.31787 0.36185 0.0
H310 H 0.70247 0.2897 0.34121 0.0
H311 H 0.62924 0.25649 0.30934 0.0
H312 H 0.65672 0.30583 0.25773 0.0
H313 H 0.64576 0.28421 0.23989 0.0
H314 H 0.62714 0.30084 0.25888 0.0
H315 H 0.61193 0.27275 0.2867 0.0
H316 H 0.62617 0.24688 0.2785 0.0
C317 C 0.71895 0.24667 0.34367 0.0
C318 C 0.73773 0.27677 0.31441 0.0
C319 C 0.66276 0.20502 0.21025 0.0
C320 C 0.6406 0.20982 0.20143 0.0
C321 C 0.62823 0.22781 0.21177 0.0
C322 C 0.63764 0.24049 0.2309 0.0
C323 C 0.65961 0.23506 0.23996 0.0
C324 C 0.67185 0.21773 0.22941 0.0
C325 C 0.69482 0.21407 0.24149 0.0
C326 C 0.6943 0.23188 0.26125 0.0
C327 C 0.67361 0.24411 0.26037 0.0
C328 C 0.69637 0.18996 0.2537 0.0
C329 C 0.71265 0.21876 0.22106 0.0
C330 C 0.64234 0.30605 0.31536 0.0
C331 C 0.6512 0.31625 0.3368 0.0
C332 C 0.67311 0.31001 0.34558 0.0
C333 C 0.68596 0.2937 0.33348 0.0
C334 C 0.67681 0.28328 0.31243 0.0
C335 C 0.65539 0.2895 0.30358 0.0
C336 C 0.64842 0.27605 0.28131 0.0
C337 C 0.66932 0.26102 0.27815 0.0
C338 C 0.68578 0.26536 0.29652 0.0
C339 C 0.62777 0.26237 0.2891 0.0
C340 C 0.64409 0.29247 0.25816 0.0
H341 H 0.74133 0.20138 0.25738 0.0
H342 H 0.76815 0.23691 0.3354 0.0
H343 H 0.74959 0.27723 0.29834 0.0
H344 H 0.72583 0.29119 0.31029 0.0
H345 H 0.74756 0.27981 0.33196 0.0
H346 H 0.71743 0.2281 0.34555 0.0
H347 H 0.73162 0.25153 0.35799 0.0
H348 H 0.70226 0.25359 0.3488 0.0
H349 H 0.67264 0.19114 0.20301 0.0
H350 H 0.61122 0.23205 0.2051 0.0
H351 H 0.62736 0.25388 0.23809 0.0
H352 H 0.6803 0.18578 0.26297 0.0
H353 H 0.69972 0.17729 0.2392 0.0
H354 H 0.70935 0.18776 0.26884 0.0
H355 H 0.70633 0.23185 0.20681 0.0
H356 H 0.7282 0.22558 0.22902 0.0
H357 H 0.717 0.20334 0.21074 0.0
H358 H 0.77712 0.18903 0.27667 0.0
C359 C 0.74662 0.20951 0.27416 0.0
C360 C 0.382 0.61091 0.2368 0.0
C361 C 0.37085 0.59749 0.2547 0.0
C362 C 0.34949 0.58952 0.2484 0.0
C363 C 0.35047 0.60906 0.20726 0.0
C364 C 0.37158 0.61646 0.21337 0.0
C365 C 0.38116 0.63087 0.19254 0.0
H366 H 0.36557 0.69038 0.08206 0.0
C367 C 0.34428 0.6184 0.18162 0.0
C368 C 0.36225 0.63107 0.17288 0.0
H369 H 0.42465 0.68573 0.13115 0.0
H370 H 0.40754 0.6575 0.15758 0.0
H371 H 0.32781 0.68804 0.12587 0.0
H372 H 0.35974 0.63772 0.08107 0.0
H373 H 0.3328 0.62805 0.08752 0.0
H374 H 0.33565 0.65408 0.06927 0.0
H375 H 0.32429 0.68659 0.0921 0.0
H376 H 0.30707 0.6708 0.11341 0.0
C377 C 0.38464 0.65451 0.20299 0.0
C378 C 0.40291 0.61892 0.18321 0.0
C379 C 0.26757 0.60381 0.14297 0.0
C380 C 0.25734 0.61001 0.11943 0.0
C381 C 0.26911 0.62327 0.1018 0.0
C382 C 0.2907 0.63047 0.10764 0.0
C383 C 0.3007 0.62423 0.13129 0.0
C384 C 0.28927 0.61091 0.14839 0.0
C385 C 0.30294 0.60513 0.17213 0.0
C386 C 0.32446 0.61715 0.16642 0.0
C387 C 0.32292 0.62856 0.14263 0.0
C388 C 0.2904 0.61523 0.19474 0.0
C389 C 0.3069 0.57925 0.17429 0.0
C390 C 0.37475 0.68316 0.09849 0.0
C391 C 0.39635 0.69038 0.10474 0.0
C392 C 0.40803 0.68034 0.12593 0.0
C393 C 0.39797 0.66411 0.1414 0.0
C394 C 0.37597 0.65783 0.13567 0.0
C395 C 0.36499 0.66672 0.11407 0.0
C396 C 0.34217 0.65702 0.11037 0.0
C397 C 0.34092 0.6417 0.13397 0.0
C398 C 0.36063 0.64255 0.14884 0.0
C399 C 0.32427 0.67654 0.11028 0.0
C400 C 0.3424 0.64362 0.08574 0.0
H401 H 0.32288 0.58886 0.22115 0.0
H402 H 0.39862 0.61691 0.24087 0.0
H403 H 0.40239 0.60035 0.18626 0.0
H404 H 0.40517 0.6215 0.16255 0.0
H405 H 0.41805 0.62459 0.19344 0.0
H406 H 0.37019 0.65972 0.21478 0.0
H407 H 0.40012 0.65458 0.21507 0.0
H408 H 0.38558 0.66788 0.18805 0.0
H409 H 0.25902 0.59332 0.1567 0.0
H410 H 0.26145 0.62828 0.08358 0.0
H411 H 0.29874 0.64068 0.09354 0.0
H412 H 0.28268 0.63206 0.18927 0.0
H413 H 0.27668 0.60427 0.20112 0.0
H414 H 0.3016 0.61817 0.21107 0.0
H415 H 0.30861 0.5721 0.15522 0.0
H416 H 0.32273 0.57409 0.1845 0.0
H417 H 0.29263 0.57101 0.18374 0.0
H418 H 0.34056 0.57917 0.26192 0.0
C419 C 0.33923 0.59526 0.22478 0.0
C420 C 0.1443 0.22274 0.68051 0.0
C421 C 0.14558 0.21914 0.65438 0.0
C422 C 0.15697 0.23462 0.63881 0.0
C423 C 0.16545 0.25668 0.67513 0.0
C424 C 0.15437 0.24149 0.69044 0.0
C425 C 0.15478 0.24767 0.71781 0.0
H426 H 0.1898 0.31789 0.80722 0.0
C427 C 0.17403 0.27429 0.69128 0.0
C428 C 0.16791 0.26908 0.71635 0.0
H429 H 0.14873 0.26002 0.818 0.0
H430 H 0.15032 0.25314 0.77303 0.0
H431 H 0.16338 0.33741 0.76239 0.0
H432 H 0.2246 0.29683 0.76469 0.0
H433 H 0.22787 0.31976 0.7431 0.0
H434 H 0.2222 0.32496 0.77575 0.0
H435 H 0.19024 0.34969 0.76653 0.0
H436 H 0.17805 0.34606 0.73541 0.0
C437 C 0.13022 0.25216 0.72609 0.0
C438 C 0.16761 0.22856 0.73338 0.0
C439 C 0.21808 0.33818 0.6522 0.0
C440 C 0.22756 0.35721 0.66248 0.0
C441 C 0.22502 0.3611 0.68841 0.0
C442 C 0.21371 0.34593 0.7041 0.0
C443 C 0.20469 0.32674 0.69372 0.0
C444 C 0.20655 0.32334 0.6681 0.0
C445 C 0.19513 0.30245 0.66032 0.0
C446 C 0.18637 0.29378 0.68558 0.0
C447 C 0.19231 0.30792 0.70505 0.0
C448 C 0.17575 0.30962 0.64135 0.0
C449 C 0.21319 0.28615 0.64968 0.0
C450 C 0.18168 0.30337 0.79998 0.0
C451 C 0.16964 0.2891 0.81609 0.0
C452 C 0.15839 0.27099 0.80586 0.0
C453 C 0.15927 0.26713 0.7798 0.0
C454 C 0.17121 0.28179 0.76384 0.0
C455 C 0.18202 0.29961 0.77407 0.0
C456 C 0.19242 0.31453 0.75429 0.0
C457 C 0.18664 0.30242 0.73045 0.0
C458 C 0.17439 0.28318 0.7361 0.0
C459 C 0.18063 0.33822 0.75464 0.0
C460 C 0.21813 0.31423 0.75965 0.0
H461 H 0.17533 0.26442 0.63616 0.0
H462 H 0.13548 0.21133 0.69298 0.0
H463 H 0.18249 0.22229 0.72291 0.0
H464 H 0.17445 0.23403 0.7516 0.0
H465 H 0.15664 0.21411 0.73709 0.0
H466 H 0.11976 0.2599 0.71016 0.0
H467 H 0.12232 0.2363 0.73235 0.0
H468 H 0.12891 0.26431 0.74134 0.0
H469 H 0.21966 0.33493 0.63225 0.0
H470 H 0.23238 0.37557 0.69672 0.0
H471 H 0.21271 0.34963 0.72376 0.0
H472 H 0.16794 0.32613 0.64615 0.0
H473 H 0.18198 0.31131 0.62169 0.0
H474 H 0.16173 0.29793 0.64177 0.0
H475 H 0.22942 0.28708 0.66034 0.0
H476 H 0.20873 0.26833 0.65164 0.0
H477 H 0.2164 0.29041 0.62943 0.0
H478 H 0.15857 0.23208 0.61871 0.0
C479 C 0.16685 0.25335 0.64902 0.0
Nd480 Nd 0.03729 0.99332 0.5105 0.0
Nd481 Nd 1.00815 0.03497 0.51546 0.0
C482 C 0.05458 0.95195 0.50923 0.0
C483 C 0.0654 0.93656 0.52871 0.0
C484 C 0.05827 0.91444 0.53199 0.0
C485 C 0.06782 0.90013 0.55125 0.0
C486 C 0.08472 0.90773 0.56751 0.0
C487 C 0.09196 0.92985 0.56389 0.0
C488 C 0.08231 0.94413 0.54487 0.0
C489 C 0.05647 0.02551 0.53892 0.0
C490 C 1.00116 0.99593 0.55819 0.0
C491 C 0.99109 0.07644 0.51703 0.0
C492 C 0.98239 0.09236 0.49707 0.0
C493 C 0.96803 0.11041 0.50317 0.0
C494 C 0.9567 0.12331 0.48392 0.0
C495 C 0.95949 0.11815 0.45835 0.0
C496 C 0.97489 0.10081 0.45235 0.0
C497 C 0.9862 0.08798 0.47156 0.0
C498 C 0.98909 1.00256 0.48714 0.0
C499 C 0.04395 0.03257 0.46765 0.0
O500 O 0.03304 0.95632 0.51178 0.0
O501 O 0.06567 0.96981 0.50277 0.0
O502 O 0.06781 1.01278 0.52407 0.0
O503 O 0.03631 0.01999 0.53979 0.0
O504 O 1.01222 0.9829 0.54238 0.0
O505 O 1.00032 0.01801 0.55413 0.0
O506 O 1.01275 0.07172 0.51694 0.0
O507 O 0.97916 0.05858 0.52038 0.0
O508 O 0.97776 1.01505 0.50228 0.0
O509 O 1.00917 1.00832 0.4861 0.0
O510 O 0.03291 0.04549 0.48353 0.0
O511 O 0.04493 1.01046 0.47169 0.0
H512 H 0.04512 0.90833 0.51985 0.0
H513 H 0.06172 0.88326 0.55364 0.0
H514 H 0.10526 0.93615 0.57564 0.0
H515 H 0.08808 0.96117 0.54295 0.0
H516 H 0.96478 0.11386 0.52279 0.0
H517 H 0.94477 0.13642 0.48911 0.0
H518 H 0.97754 0.09661 0.43282 0.0
H519 H 0.99714 0.07398 0.46653 0.0
Nd520 Nd 0.52106 1.00021 0.03486 0.0
Nd521 Nd 0.51797 0.02883 0.99222 0.0
C522 C 0.52421 0.96488 0.06686 0.0
C523 C 0.51636 0.94175 0.0657 0.0
C524 C 0.51937 0.92927 0.04386 0.0
C525 C 0.51029 0.90803 0.04229 0.0
C526 C 0.49782 0.89905 0.06237 0.0
C527 C 0.49498 0.91147 0.08425 0.0
C528 C 0.50426 0.93262 0.08593 0.0
C529 C 0.48604 0.03198 0.03956 0.0
C530 C 0.49256 0.98439 0.98549 0.0
C531 C 0.51488 0.06354 0.95936 0.0
C532 C 0.52698 0.08463 0.95614 0.0
C533 C 0.52759 0.10026 0.97542 0.0
C534 C 0.5402 0.11952 0.97257 0.0
C535 C 0.55255 0.12349 0.95048 0.0
C536 C 0.55177 0.10785 0.93119 0.0
C537 C 0.53904 0.08869 0.93396 0.0
C538 C 0.55318 0.99716 0.98782 0.0
C539 C 0.54636 0.04512 0.04181 0.0
O540 O 0.54025 0.97047 0.05152 0.0
O541 O 0.50843 0.98055 0.0679 0.0
O542 O 0.50134 0.02686 0.05683 0.0
O543 O 0.48998 0.02106 0.01974 0.0
O544 O 0.5053 0.97764 1.00514 0.0
O545 O 0.49154 1.00565 0.97807 0.0
O546 O 0.50207 0.06152 0.9791 0.0
O547 O 0.52651 0.0451 0.95528 0.0
O548 O 0.5379 1.00208 0.97052 0.0
O549 O 0.54912 1.00824 1.00746 0.0
O550 O 0.53492 0.05137 0.02101 0.0
O551 O 0.54619 0.02421 0.05054 0.0
H552 H 0.52835 0.93606 0.02779 0.0
H553 H 0.51253 0.89887 0.02513 0.0
H554 H 0.48558 0.90481 0.10008 0.0
H555 H 0.50162 0.94203 0.10285 0.0
H556 H 0.51851 0.09757 0.99281 0.0
H557 H 0.54014 0.13136 0.98764 0.0
H558 H 0.56134 0.11018 0.91409 0.0
H559 H 0.53892 0.07681 0.91892 0.0
Nd560 Nd 0.499 0.5076 0.50909 0.0
Nd561 Nd 0.54264 0.53456 0.51143 0.0
C562 C 0.45774 0.49397 0.50157 0.0
C563 C 0.43683 0.49118 0.51561 0.0
C564 C 0.41614 0.4974 0.50379 0.0
C565 C 0.39599 0.49326 0.51608 0.0
C566 C 0.39622 0.48264 0.54037 0.0
C567 C 0.4171 0.47714 0.55245 0.0
C568 C 0.43719 0.48148 0.54026 0.0
C569 C 0.52708 0.497 0.54994 0.0
C570 C 0.4992 0.55542 0.53899 0.0
C571 C 0.58391 0.5478 0.5198 0.0
C572 C 0.60601 0.54869 0.50766 0.0
C573 C 0.6248 0.53763 0.51957 0.0
C574 C 0.64622 0.53977 0.50948 0.0
C575 C 0.64927 0.55317 0.48737 0.0
C576 C 0.63028 0.56375 0.47515 0.0
C577 C 0.60888 0.56149 0.48513 0.0
C578 C 0.51424 0.5458 0.47115 0.0
C579 C 0.54211 0.48719 0.48066 0.0
O580 O 0.46356 0.51463 0.49635 0.0
O581 O 0.47479 0.4804 0.50831 0.0
O582 O 0.5148 0.48222 0.53939 0.0
O583 O 0.52263 0.51627 0.54041 0.0
O584 O 0.48707 0.54082 0.52686 0.0
O585 O 0.52141 0.55427 0.53911 0.0
O586 O 0.57718 0.52792 0.52717 0.0
O587 O 0.56764 0.56109 0.51019 0.0
O588 O 0.52672 0.56036 0.48185 0.0
O589 O 0.51874 0.52632 0.48014 0.0
O590 O 0.55443 0.50154 0.49295 0.0
O591 O 0.51992 0.48858 0.48065 0.0
H592 H 0.41555 0.50506 0.48482 0.0
H593 H 0.38025 0.49806 0.50639 0.0
H594 H 0.41799 0.46865 0.57097 0.0
H595 H 0.45299 0.47667 0.54986 0.0
H596 H 0.62298 0.52768 0.53699 0.0
H597 H 0.66043 0.53116 0.51919 0.0
H598 H 0.632 0.57452 0.45834 0.0
H599 H 0.59472 0.57025 0.4755 0.0
Nd600 Nd 1.00264 0.51216 0.03092 0.0
Nd601 Nd 0.04023 0.52165 0.9951 0.0
C602 C 0.96273 0.51095 0.05166 0.0
C603 C 0.94751 0.53025 0.05623 0.0
C604 C 0.92459 0.52757 0.0608 0.0
C605 C 0.91038 0.5465 0.06401 0.0
C606 C 0.91891 0.56827 0.06219 0.0
C607 C 0.94185 0.57074 0.05747 0.0
C608 C 0.95601 0.55194 0.0547 0.0
C609 C 0.0383 0.53315 0.05188 0.0
C610 C 1.00116 0.5603 0.99502 0.0
C611 C 0.08006 0.52361 0.97437 0.0
C612 C 0.09615 0.50505 0.96863 0.0
C613 C 0.09703 0.49732 0.94386 0.0
C614 C 0.10767 0.47668 0.9392 0.0
C615 C 0.11793 0.46354 0.95914 0.0
C616 C 0.1189 0.47215 0.98347 0.0
C617 C 0.10804 0.49273 0.98822 0.0
C618 C 1.00442 0.50105 0.97396 0.0
C619 C 0.04158 0.47322 0.0306 0.0
O620 O 0.96591 0.50714 0.02772 0.0
O621 O 0.98152 0.51013 0.06502 0.0
O622 O 0.02777 0.5173 0.06372 0.0
O623 O 0.02946 0.53787 0.03044 0.0
O624 O 0.98989 0.54464 1.00749 0.0
O625 O 0.02281 0.55685 0.99051 0.0
O626 O 0.07683 0.52719 0.99839 0.0
O627 O 0.06125 0.52445 0.96103 0.0
O628 O 1.01513 0.51685 0.96225 0.0
O629 O 1.01324 0.49604 0.99536 0.0
O630 O 0.05282 0.48868 0.01771 0.0
O631 O 1.02004 0.47691 0.03563 0.0
H632 H 0.91775 0.51094 0.06186 0.0
H633 H 0.89274 0.54418 0.06775 0.0
H634 H 0.94901 0.58724 0.05651 0.0
H635 H 0.97369 0.55438 0.0514 0.0
H636 H 0.08828 0.50654 0.92834 0.0
H637 H 0.10708 0.47052 0.92016 0.0
H638 H 0.12678 0.46232 0.99911 0.0
H639 H 0.10786 0.49826 1.00752 0.0
C640 C 0.15339 0.11771 0.28964 0.0
C641 C 0.14005 0.12876 0.27026 0.0
C642 C 0.14347 0.10679 0.31067 0.0
C643 C 0.08865 0.10433 0.34558 0.0
H644 H 0.11633 0.05086 0.37866 0.0
C645 C 0.05414 0.06669 0.44041 0.0
C646 C 0.05506 0.04317 0.44491 0.0
C647 C 0.0647 0.07673 0.41936 0.0
C648 C 0.10816 0.06567 0.36962 0.0
H649 H 0.10547 0.13565 0.25775 0.0
H650 H 0.08841 0.11672 0.29378 0.0
H651 H 0.13397 0.06825 0.3418 0.0
H652 H 0.06805 1.01191 0.43017 0.0
H653 H 0.08608 0.02929 0.39347 0.0
H654 H 0.06259 0.10153 0.37293 0.0
C655 C 0.10659 0.11699 0.2933 0.0
C656 C 0.11853 0.0759 0.3485 0.0
C657 C 0.11647 0.12791 0.2724 0.0
C658 C 0.06691 0.03007 0.42753 0.0
C659 C 0.07748 0.04012 0.40644 0.0
C660 C 0.0783 0.09413 0.36666 0.0
C661 C 0.11983 0.10643 0.31306 0.0
C662 C 0.10895 0.09543 0.33598 0.0
C663 C 0.07658 0.06368 0.4019 0.0
C664 C 0.08781 0.07458 0.37915 0.0
H665 H 0.17156 0.11804 0.28896 0.0
H666 H 0.15442 0.09911 0.3254 0.0
H667 H 0.08072 0.11947 0.33697 0.0
H668 H 0.04532 0.07748 0.45327 0.0
H669 H 0.06377 0.0949 0.41706 0.0
C670 C 0.41919 0.83446 0.85655 0.0
C671 C 0.39905 0.84015 0.84301 0.0
C672 C 0.42859 0.84951 0.87313 0.0
C673 C 0.425 0.9103 0.88875 0.0
H674 H 0.46234 0.88929 0.94631 0.0
C675 C 0.47632 0.97224 0.94467 0.0
C676 C 0.48079 0.9678 0.97057 0.0
C677 C 0.46614 0.95628 0.93004 0.0
C678 C 0.45166 0.89555 0.9306 0.0
H679 H 0.37302 0.8665 0.83691 0.0
H680 H 0.38812 0.89148 0.86715 0.0
H681 H 0.44412 0.86221 0.92042 0.0
H682 H 0.47792 0.94336 1.0017 0.0
H683 H 0.45882 0.91594 0.9766 0.0
H684 H 0.4312 0.94358 0.89979 0.0
C685 C 0.39732 0.87581 0.86425 0.0
C686 C 0.4415 0.8799 0.91535 0.0
C687 C 0.38829 0.86109 0.84718 0.0
C688 C 0.47466 0.94717 0.98171 0.0
C689 C 0.4639 0.93138 0.9672 0.0
C690 C 0.43464 0.9259 0.90432 0.0
C691 C 0.41784 0.87049 0.87714 0.0
C692 C 0.42818 0.88704 0.89403 0.0
C693 C 0.45957 0.93566 0.94108 0.0
C694 C 0.4484 0.91881 0.92528 0.0
H695 H 0.42787 0.81839 0.85434 0.0
H696 H 0.44453 0.84477 0.88238 0.0
H697 H 0.4153 0.91667 0.87232 0.0
H698 H 0.48124 0.98786 0.93549 0.0
H699 H 0.46382 0.96007 0.90994 0.0
C700 C 0.63322 0.46639 0.74797 0.0
C701 C 0.65601 0.4596 0.74664 0.0
C702 C 0.62066 0.47196 0.72592 0.0
C703 C 0.60084 0.49311 0.67699 0.0
H704 H 0.60583 0.45223 0.62172 0.0
C705 C 0.55399 0.51068 0.58189 0.0
C706 C 0.54298 0.49263 0.5714 0.0
C707 C 0.56887 0.50704 0.60244 0.0
C708 C 0.6042 0.46372 0.63705 0.0
H709 H 0.68373 0.45387 0.72133 0.0
H710 H 0.66172 0.46379 0.68259 0.0
H711 H 0.63022 0.44622 0.65933 0.0
H712 H 0.53908 0.45659 0.57379 0.0
H713 H 0.56512 0.45014 0.6101 0.0
H714 H 0.57455 0.51034 0.65506 0.0
C715 C 0.65359 0.46463 0.70074 0.0
C716 C 0.61834 0.46045 0.65842 0.0
C717 C 0.66623 0.45921 0.72287 0.0
C718 C 0.54734 0.47078 0.58161 0.0
C719 C 0.56232 0.4671 0.60223 0.0
C720 C 0.58681 0.49643 0.65562 0.0
C721 C 0.6306 0.47075 0.70205 0.0
C722 C 0.61667 0.47503 0.67869 0.0
C723 C 0.57308 0.48525 0.61298 0.0
C724 C 0.58825 0.48172 0.63548 0.0
H725 H 0.62499 0.46694 0.76608 0.0
H726 H 0.60295 0.47645 0.72754 0.0
H727 H 0.59927 0.50469 0.69225 0.0
H728 H 0.55105 0.52772 0.57431 0.0
H729 H 0.57716 0.52131 0.61004 0.0
C730 C 0.88674 0.72752 0.17295 0.0
C731 C 0.86581 0.73288 0.18336 0.0
C732 C 0.88795 0.71519 0.15101 0.0
C733 C 0.88768 0.68926 0.1031 0.0
H734 H 0.84676 0.64005 0.10839 0.0
C735 C 0.90609 0.60805 0.05138 0.0
C736 C 0.90465 0.58848 0.06695 0.0
C737 C 0.89601 0.62834 0.05849 0.0
C738 C 0.8583 0.65368 0.10656 0.0
H739 H 0.82972 0.73185 0.17781 0.0
H740 H 0.8317 0.71116 0.13882 0.0
H741 H 0.84034 0.67294 0.13328 0.0
H742 H 0.89051 0.57443 0.10131 0.0
H743 H 0.87332 0.60975 0.11406 0.0
H744 H 0.90675 0.66905 0.0781 0.0
C745 C 0.84724 0.71571 0.14798 0.0
C746 C 0.85443 0.6728 0.12057 0.0
C747 C 0.84607 0.72774 0.17014 0.0
C748 C 0.89171 0.58922 0.08886 0.0
C749 C 0.88181 0.60953 0.09609 0.0
C750 C 0.8917 0.67 0.08931 0.0
C751 C 0.8682 0.70819 0.13894 0.0
C752 C 0.86957 0.69046 0.11981 0.0
C753 C 0.88446 0.62951 0.08143 0.0
C754 C 0.87756 0.65159 0.09168 0.0
H755 H 0.90219 0.73111 0.18297 0.0
H756 H 0.90441 0.70961 0.14485 0.0
H757 H 0.89942 0.70273 0.1016 0.0
H758 H 0.91576 0.60784 0.03418 0.0
H759 H 0.89799 0.64328 0.04647 0.0
C760 C 0.31383 0.1409 0.1074 0.0
C761 C 0.29662 0.12701 0.11618 0.0
C762 C 0.33386 0.13168 0.09729 0.0
C763 C 0.35936 0.07841 0.0709 0.0
H764 H 0.41606 0.10549 0.08613 0.0
C765 C 0.44508 0.04466 0.02948 0.0
C766 C 0.46429 0.0444 0.04553 0.0
C767 C 0.4246 0.05543 0.03647 0.0
C768 C 0.40046 0.09752 0.0817 0.0
H769 H 0.28728 0.09215 0.11989 0.0
H770 H 0.32177 0.07629 0.10274 0.0
H771 H 0.38109 0.12239 0.10118 0.0
H772 H 0.47671 0.05576 0.0815 0.0
H773 H 0.44157 0.07428 0.09352 0.0
H774 H 0.37881 0.05329 0.05183 0.0
C775 C 0.31994 0.0944 0.10358 0.0
C776 C 0.38018 0.10748 0.09016 0.0
C777 C 0.30005 0.10358 0.11381 0.0
C778 C 0.46241 0.05555 0.06852 0.0
C779 C 0.44211 0.06639 0.0754 0.0
C780 C 0.37965 0.06853 0.06229 0.0
C781 C 0.3374 0.10819 0.09529 0.0
C782 C 0.35918 0.09803 0.08517 0.0
C783 C 0.42268 0.06649 0.05965 0.0
C784 C 0.40068 0.07773 0.06773 0.0
H785 H 0.3121 0.15897 0.10889 0.0
H786 H 0.34657 0.14307 0.09093 0.0
H787 H 0.34373 0.07061 0.06621 0.0
H788 H 0.44576 0.03628 1.01165 0.0
H789 H 0.41028 0.05519 0.02354 0.0
C790 C 0.21449 0.79579 0.70715 0.0
C791 C 0.22684 0.81151 0.72039 0.0
C792 C 0.19466 0.80244 0.69395 0.0
C793 C 0.14997 0.84647 0.68648 0.0
H794 H 0.15308 0.83539 0.61472 0.0
C795 C 0.10126 0.90164 0.61137 0.0
C796 C 0.09516 0.89279 0.58802 0.0
C797 C 0.11329 0.88842 0.62969 0.0
C798 C 0.1515 0.8382 0.63475 0.0
H799 H 0.22718 0.84636 0.73113 0.0
H800 H 0.19222 0.85769 0.70875 0.0
H801 H 0.18114 0.81786 0.64389 0.0
H802 H 0.09582 0.86259 0.56629 0.0
H803 H 0.11599 0.8392 0.59873 0.0
H804 H 0.12041 0.86688 0.67746 0.0
C805 C 0.19803 0.84024 0.70855 0.0
C806 C 0.16769 0.8282 0.65146 0.0
C807 C 0.21805 0.8337 0.72145 0.0
C808 C 0.10023 0.86997 0.58406 0.0
C809 C 0.11206 0.85663 0.60256 0.0
C810 C 0.13354 0.8562 0.66983 0.0
C811 C 0.18652 0.82483 0.69411 0.0
C812 C 0.16743 0.83274 0.67734 0.0
C813 C 0.11927 0.86585 0.62535 0.0
C814 C 0.1345 0.85277 0.64362 0.0
H815 H 0.22044 0.77843 0.70643 0.0
H816 H 0.18592 0.7902 0.68314 0.0
H817 H 0.14931 0.85003 0.70642 0.0
H818 H 0.09717 0.91901 0.61534 0.0
H819 H 0.11869 0.89627 0.64682 0.0
C820 C 0.81772 0.4524 0.89803 0.0
C821 C 0.81167 0.43001 0.90302 0.0
C822 C 0.83912 0.4594 0.90478 0.0
C823 C 0.88462 0.44871 0.95014 0.0
H824 H 0.9225 0.47755 0.90047 0.0
C825 C 0.97519 0.47205 0.97579 0.0
C826 C 0.9833 0.49187 0.96467 0.0
C827 C 0.95476 0.46375 0.96752 0.0
C828 C 0.91204 0.46987 0.91472 0.0
H829 H 0.82381 0.39741 0.91865 0.0
H830 H 0.86074 0.41006 0.93142 0.0
H831 H 0.88551 0.46505 0.88761 0.0
H832 H 0.97653 0.51877 0.93651 0.0
H833 H 0.94042 0.50494 0.92277 0.0
H834 H 0.91045 0.45426 0.97756 0.0
C835 C 0.84882 0.42203 0.92216 0.0
C836 C 0.89093 0.4626 0.90726 0.0
C837 C 0.8276 0.41488 0.91498 0.0
C838 C 0.97071 0.50329 0.94518 0.0
C839 C 0.95007 0.49525 0.93723 0.0
C840 C 0.90553 0.45636 0.95774 0.0
C841 C 0.85474 0.44432 0.91707 0.0
C842 C 0.8771 0.45192 0.9249 0.0
C843 C 0.94178 0.47536 0.9483 0.0
C844 C 0.91957 0.46701 0.94012 0.0
H845 H 0.80584 0.46468 0.88933 0.0
H846 H 0.84329 0.47676 0.9009 0.0
H847 H 0.87409 0.44071 0.96412 0.0
H848 H 0.98469 0.46291 0.99082 0.0
H849 H 0.94922 0.44816 0.97617 0.0
C850 C 0.79416 0.66254 0.40441 0.0
C851 C 0.80958 0.65451 0.38681 0.0
C852 C 0.78158 0.64756 0.4188 0.0
C853 C 0.76048 0.59019 0.41643 0.0
H854 H 0.73734 0.60509 0.48206 0.0
C855 C 0.67594 0.55982 0.45178 0.0
C856 C 0.67217 0.55747 0.47793 0.0
C857 C 0.69654 0.56706 0.44293 0.0
C858 C 0.74394 0.6003 0.46399 0.0
H859 H 0.82504 0.62462 0.37149 0.0
H860 H 0.8035 0.59831 0.39714 0.0
H861 H 0.76749 0.6266 0.46402 0.0
H862 H 0.68769 0.55954 0.51527 0.0
H863 H 0.72392 0.57123 0.49979 0.0
H864 H 0.73708 0.56373 0.41653 0.0
C865 C 0.80062 0.61618 0.39935 0.0
C866 C 0.76103 0.61291 0.45344 0.0
C867 C 0.81301 0.63121 0.38472 0.0
C868 C 0.69 0.56109 0.49499 0.0
C869 C 0.71071 0.5681 0.48612 0.0
C870 C 0.74359 0.57739 0.42713 0.0
C871 C 0.78434 0.62419 0.41611 0.0
C872 C 0.76895 0.60853 0.42914 0.0
C873 C 0.714 0.57187 0.46001 0.0
C874 C 0.73454 0.58279 0.45063 0.0
H875 H 0.79104 0.68044 0.40617 0.0
H876 H 0.76895 0.65441 0.43114 0.0
H877 H 0.76605 0.58634 0.39762 0.0
H878 H 0.66272 0.55674 0.4381 0.0
H879 H 0.6983 0.56993 0.42271 0.0
C880 C 0.14717 0.29062 0.08326 0.0
C881 C 0.14902 0.28433 0.10928 0.0
C882 C 0.13553 0.31066 0.07472 0.0
C883 C 0.09417 0.35588 0.09569 0.0
H884 H 0.11339 0.38775 0.03496 0.0
C885 C 0.04214 0.43389 0.05173 0.0
C886 C 0.05358 0.45138 0.03932 0.0
C887 C 0.05352 0.41361 0.05996 0.0
C888 C 0.10778 0.37932 0.05212 0.0
H889 H 0.13998 0.29515 0.14661 0.0
H890 H 0.12013 0.32985 0.13195 0.0
H891 H 0.13367 0.35348 0.04999 0.0
H892 H 0.0864 0.46075 0.02618 0.0
H893 H 0.10613 0.42595 0.04064 0.0
H894 H 0.06872 0.38209 0.09825 0.0
C895 C 0.12723 0.31906 0.11789 0.0
C896 C 0.11934 0.35924 0.06063 0.0
C897 C 0.13876 0.29897 0.12641 0.0
C898 C 0.07682 0.44779 0.03546 0.0
C899 C 0.08821 0.42756 0.04372 0.0
C900 C 0.08265 0.37599 0.08722 0.0
C901 C 0.12531 0.32537 0.09183 0.0
C902 C 0.11282 0.34704 0.08262 0.0
C903 C 0.07683 0.40998 0.05619 0.0
C904 C 0.08919 0.3882 0.06524 0.0
H905 H 0.15438 0.27983 0.06926 0.0
H906 H 0.13427 0.31435 0.0545 0.0
H907 H 0.08818 0.34713 0.11246 0.0
H908 H 0.02428 0.4358 0.05505 0.0
H909 H 0.04383 0.40062 0.06902 0.0
C910 C 0.65072 0.30196 0.93047 0.0
C911 C 0.64836 0.30966 0.90502 0.0
C912 C 0.64363 0.28057 0.93798 0.0
C913 C 0.62943 0.22579 0.91191 0.0
H914 H 0.59207 0.21917 0.97099 0.0
C915 C 0.56718 0.15529 0.92376 0.0
C916 C 0.56613 0.14386 0.94748 0.0
C917 C 0.58004 0.17431 0.92075 0.0
C918 C 0.60277 0.22069 0.95467 0.0
H919 H 0.63745 0.30072 0.8674 0.0
H920 H 0.62466 0.26392 0.88051 0.0
H921 H 0.61 0.25488 0.96196 0.0
H922 H 0.57799 0.14347 0.98665 0.0
H923 H 0.60005 0.17719 0.98143 0.0
H924 H 0.6215 0.19195 0.90407 0.0
C925 C 0.63212 0.27419 0.89468 0.0
C926 C 0.61307 0.24109 0.94953 0.0
C927 C 0.63913 0.29546 0.88723 0.0
C928 C 0.57815 0.15205 0.9682 0.0
C929 C 0.59087 0.17127 0.96522 0.0
C930 C 0.61905 0.20552 0.91695 0.0
C931 C 0.63427 0.26647 0.92011 0.0
C932 C 0.62599 0.24404 0.92769 0.0
C933 C 0.592 0.18248 0.94143 0.0
C934 C 0.60515 0.20297 0.938 0.0
H935 H 0.65776 0.31257 0.94459 0.0
H936 H 0.64558 0.27501 0.9577 0.0
H937 H 0.63972 0.22738 0.89526 0.0
H938 H 0.55777 0.14976 0.90753 0.0
H939 H 0.58028 0.1829 0.9023 0.0
C940 C 0.90829 0.85158 0.36667 0.0
C941 C 0.91091 0.83032 0.37916 0.0
C942 C 0.91746 0.8705 0.37721 0.0
C943 C 0.93463 0.89181 0.43847 0.0
H944 H 0.9661 0.9363 0.39842 0.0
C945 C 0.95778 0.97726 0.47741 0.0
C946 C 0.97987 0.98386 0.47326 0.0
C947 C 0.94933 0.95893 0.46505 0.0
C948 C 0.9574 0.92396 0.40982 0.0
H949 H 0.92615 0.81215 0.4119 0.0
H950 H 0.94182 0.8452 0.4304 0.0
H951 H 0.9521 0.90303 0.37827 0.0
H952 H 1.01044 0.97679 0.4528 0.0
H953 H 0.99562 0.94478 0.43105 0.0
H954 H 0.93997 0.91261 0.47003 0.0
C955 C 0.9324 0.84725 0.41266 0.0
C956 C 0.94926 0.90504 0.39827 0.0
C957 C 0.92338 0.82834 0.40207 0.0
C958 C 0.9933 0.97206 0.45626 0.0
C959 C 0.9848 0.95383 0.44375 0.0
C960 C 0.94257 0.91079 0.44995 0.0
C961 C 0.92932 0.86855 0.4005 0.0
C962 C 0.93789 0.88873 0.41253 0.0
C963 C 0.96279 0.94696 0.44819 0.0
C964 C 0.95409 0.92703 0.43577 0.0
H965 H 0.89858 0.85374 0.34914 0.0
H966 H 0.91468 0.88676 0.36752 0.0
H967 H 0.92571 0.87963 0.44987 0.0
H968 H 0.9471 0.98609 0.49045 0.0
H969 H 0.93224 0.95414 0.46863 0.0
C970 C 0.38696 0.68074 0.66842 0.0
C971 C 0.39677 0.7008 0.6754 0.0
C972 C 0.39912 0.66488 0.65495 0.0
C973 C 0.44812 0.65935 0.6134 0.0
H974 H 0.43911 0.59556 0.62483 0.0
C975 C 0.49995 0.59007 0.56427 0.0
C976 C 0.48776 0.57251 0.55428 0.0
C977 C 0.48943 0.60585 0.57941 0.0
C978 C 0.44165 0.61333 0.62132 0.0
H979 H 0.42734 0.71961 0.67428 0.0
H980 H 0.44888 0.69153 0.65136 0.0
H981 H 0.42063 0.62251 0.65193 0.0
H982 H 0.4549 0.55784 0.55224 0.0
H983 H 0.43657 0.58539 0.57887 0.0
H984 H 0.46937 0.65001 0.58291 0.0
C985 C 0.43156 0.68832 0.65587 0.0
C986 C 0.43106 0.62879 0.63681 0.0
C987 C 0.41931 0.7043 0.66928 0.0
C988 C 0.46476 0.57117 0.55962 0.0
C989 C 0.4543 0.58684 0.57499 0.0
C990 C 0.45887 0.64385 0.59805 0.0
C991 C 0.42151 0.66853 0.6483 0.0
C992 C 0.43396 0.65202 0.63287 0.0
C993 C 0.46655 0.60429 0.5851 0.0
C994 C 0.45555 0.62071 0.6017 0.0
H995 H 0.36975 0.67731 0.67323 0.0
H996 H 0.39073 0.64999 0.64922 0.0
H997 H 0.45046 0.67711 0.60956 0.0
H998 H 0.51768 0.59162 0.56047 0.0
H999 H 0.49931 0.61904 0.58709 0.0
C1000 C 0.896 0.93227 0.74915 0.0
C1001 C 0.89457 0.90882 0.75355 0.0
C1002 C 0.90776 0.94128 0.72839 0.0
C1003 C 0.9319 0.92638 0.66529 0.0
H1004 H 0.96301 0.98201 0.67201 0.0
C1005 C 0.98945 0.96213 0.58528 0.0
C1006 C 0.9896 0.98564 0.58083 0.0
C1007 C 0.97826 0.95259 0.60623 0.0
C1008 C 0.95423 0.9666 0.66955 0.0
H1009 H 0.90478 0.87667 0.73862 0.0
H1010 H 0.92558 0.89225 0.70307 0.0
H1011 H 0.94325 0.96598 0.70804 0.0
H1012 H 0.97782 0.01738 0.59548 0.0
H1013 H 0.95841 1.00089 0.63161 0.0
H1014 H 0.94299 0.927 0.62678 0.0
C1015 C 0.91731 0.9038 0.71553 0.0
C1016 C 0.94277 0.95732 0.6904 0.0
C1017 C 0.90553 0.89477 0.73632 0.0
C1018 C 0.97825 0.99923 0.59815 0.0
C1019 C 0.96715 0.98971 0.61911 0.0
C1020 C 0.94341 0.93565 0.64444 0.0
C1021 C 0.91867 0.92726 0.71111 0.0
C1022 C 0.93128 0.93705 0.68871 0.0
C1023 C 0.96687 0.96618 0.62359 0.0
C1024 C 0.95476 0.956 0.6461 0.0
H1025 H 0.88819 0.94384 0.76194 0.0
H1026 H 0.908 0.95939 0.72576 0.0
H1027 H 0.92307 0.911 0.66278 0.0
H1028 H 0.99795 0.951 0.57253 0.0
H1029 H 0.97882 0.93445 0.60896 0.0
C1030 C 0.60809 0.18821 0.18542 0.0
C1031 C 0.63021 0.19534 0.18246 0.0
C1032 C 0.59902 0.17296 0.16891 0.0
C1033 C 0.60653 0.1478 0.10637 0.0
H1034 H 0.57313 0.09922 0.13674 0.0
C1035 C 0.5578 0.08477 0.04734 0.0
C1036 C 0.5581 0.06219 0.05625 0.0
C1037 C 0.56735 0.10125 0.06185 0.0
C1038 C 0.58258 0.11256 0.12797 0.0
H1039 H 0.65978 0.1928 0.15914 0.0
H1040 H 0.64408 0.16592 0.13059 0.0
H1041 H 0.58776 0.12803 0.16339 0.0
H1042 H 0.56938 0.03911 0.08706 0.0
H1043 H 0.58628 0.06782 0.11223 0.0
H1044 H 0.6017 0.13201 0.071 0.0
C1045 C 0.6337 0.1722 0.1456 0.0
C1046 C 0.5907 0.12927 0.14321 0.0
C1047 C 0.64278 0.18743 0.16212 0.0
C1048 C 0.56875 0.05636 0.07968 0.0
C1049 C 0.57829 0.07284 0.0942 0.0
C1050 C 0.59838 0.13108 0.09111 0.0
C1051 C 0.61184 0.16451 0.14904 0.0
C1052 C 0.60278 0.14708 0.1326 0.0
C1053 C 0.57743 0.09553 0.08562 0.0
C1054 C 0.58636 0.11323 0.10175 0.0
H1055 H 0.59802 0.19383 0.20101 0.0
H1056 H 0.582 0.16762 0.17186 0.0
H1057 H 0.61564 0.16139 0.09758 0.0
H1058 H 0.54976 0.08986 0.02936 0.0
H1059 H 0.56623 0.11858 0.05476 0.0
C1060 C 0.382 0.56986 0.29019 0.0
C1061 C 0.38167 0.59194 0.27976 0.0
C1062 C 0.39388 0.5644 0.31281 0.0
C1063 C 0.42027 0.5892 0.36887 0.0
H1064 H 0.45963 0.53588 0.36911 0.0
C1065 C 0.49366 0.57309 0.44114 0.0
C1066 C 0.49754 0.55095 0.45067 0.0
C1067 C 0.47782 0.57776 0.42158 0.0
C1068 C 0.4485 0.55065 0.36952 0.0
H1069 H 0.39249 0.62583 0.28542 0.0
H1070 H 0.41344 0.61627 0.32462 0.0
H1071 H 0.43412 0.54439 0.33317 0.0
H1072 H 0.4878 0.51637 0.44768 0.0
H1073 H 0.46004 0.52452 0.41379 0.0
H1074 H 0.43493 0.5956 0.4051 0.0
C1075 C 0.4045 0.60317 0.31546 0.0
C1076 C 0.43385 0.5555 0.34894 0.0
C1077 C 0.39271 0.6086 0.29285 0.0
C1078 C 0.48522 0.53359 0.44055 0.0
C1079 C 0.46939 0.53824 0.42107 0.0
C1080 C 0.43492 0.58433 0.38948 0.0
C1081 C 0.40553 0.58095 0.32548 0.0
C1082 C 0.41974 0.57495 0.34826 0.0
C1083 C 0.4656 0.56035 0.41126 0.0
C1084 C 0.44936 0.56511 0.38991 0.0
H1085 H 0.37371 0.55667 0.28045 0.0
H1086 H 0.39418 0.54717 0.32023 0.0
H1087 H 0.40939 0.60416 0.36903 0.0
H1088 H 0.50295 0.58676 0.44866 0.0
H1089 H 0.47547 0.59493 0.41422 0.0
C1090 C 0.14541 0.29966 0.85199 0.0
C1091 C 0.16698 0.29509 0.84278 0.0
C1092 C 0.14277 0.31129 0.87428 0.0
C1093 C 0.17345 0.35389 0.9075 0.0
H1094 H 0.11935 0.35561 0.94735 0.0
C1095 C 0.14725 0.43209 0.9624 0.0
C1096 C 0.12559 0.44014 0.95485 0.0
C1097 C 0.15451 0.41021 0.95689 0.0
C1098 C 0.13469 0.35519 0.93658 0.0
H1099 H 0.2027 0.29665 0.85079 0.0
H1100 H 0.19819 0.31622 0.89028 0.0
H1101 H 0.12876 0.32224 0.92362 0.0
H1102 H 0.09403 0.43142 0.93727 0.0
H1103 H 0.10662 0.39339 0.92766 0.0
H1104 H 0.17887 0.38716 0.91963 0.0
C1105 C 0.18327 0.31156 0.87996 0.0
C1106 C 0.14004 0.33614 0.92292 0.0
C1107 C 0.18588 0.30022 0.85748 0.0
C1108 C 0.11095 0.42569 0.9429 0.0
C1109 C 0.11805 0.40383 0.93774 0.0
C1110 C 0.1682 0.37281 0.92134 0.0
C1111 C 0.1617 0.31836 0.88787 0.0
C1112 C 0.15892 0.3357 0.90725 0.0
C1113 C 0.14002 0.39599 0.94423 0.0
C1114 C 0.14825 0.37405 0.93505 0.0
H1115 H 0.13058 0.29602 0.84086 0.0
H1116 H 0.12589 0.31634 0.87958 0.0
H1117 H 0.18799 0.35438 0.89547 0.0
H1118 H 0.15876 0.44293 0.97179 0.0
H1119 H 0.17153 0.40455 0.96208 0.0
C1120 C 0.72944 0.91289 0.89801 0.0
C1121 C 0.74297 0.89843 0.9143 0.0
C1122 C 0.70965 0.92383 0.90651 0.0
C1123 C 0.67734 0.93707 0.96645 0.0
H1124 H 0.62928 0.95271 0.91793 0.0
C1125 C 0.59515 0.98749 0.99576 0.0
C1126 C 0.57501 0.98492 0.98186 0.0
C1127 C 0.61569 0.97719 0.98823 0.0
C1128 C 0.64223 0.94827 0.93207 0.0
H1129 H 0.74553 0.88515 0.95321 0.0
H1130 H 0.71101 0.90293 0.96738 0.0
H1131 H 0.66347 0.93431 0.90392 0.0
H1132 H 0.5609 0.96863 0.94958 0.0
H1133 H 0.5958 0.9501 0.93727 0.0
H1134 H 0.65557 0.95014 0.9948 0.0
C1135 C 0.71582 0.90632 0.94799 0.0
C1136 C 0.66238 0.93793 0.92378 0.0
C1137 C 0.73574 0.89561 0.93957 0.0
C1138 C 0.57601 0.97124 0.96071 0.0
C1139 C 0.59634 0.96072 0.95342 0.0
C1140 C 0.65704 0.94718 0.9748 0.0
C1141 C 0.70222 0.92069 0.93168 0.0
C1142 C 0.68048 0.93205 0.94073 0.0
C1143 C 0.61681 0.96371 0.96668 0.0
C1144 C 0.63893 0.95299 0.95782 0.0
H1145 H 0.73386 0.91562 0.87837 0.0
H1146 H 0.70028 0.93493 0.89314 0.0
H1147 H 0.69065 0.93338 0.98037 0.0
H1148 H 0.59518 0.99799 0.01206 0.0
H1149 H 0.63079 0.98035 0.99906 0.0
C1150 C 0.81612 0.19987 0.30771 0.0
C1151 C 0.79595 0.20287 0.32081 0.0
C1152 C 0.83557 0.19131 0.32053 0.0
C1153 C 0.85339 0.15541 0.37485 0.0
H1154 H 0.91002 0.18588 0.37274 0.0
C1155 C 0.93372 0.11554 0.42085 0.0
C1156 C 0.94449 0.12894 0.43838 0.0
C1157 C 0.91745 0.12496 0.40392 0.0
C1158 C 0.8943 0.17722 0.37339 0.0
H1159 H 0.78009 0.19907 0.3573 0.0
H1160 H 0.81392 0.18381 0.37955 0.0
H1161 H 0.87735 0.20157 0.34802 0.0
H1162 H 0.94749 0.16291 0.45112 0.0
H1163 H 0.91894 0.1795 0.42123 0.0
H1164 H 0.8701 0.13114 0.4002 0.0
C1165 C 0.81476 0.18824 0.3595 0.0
C1166 C 0.87573 0.18608 0.35919 0.0
C1167 C 0.79549 0.19708 0.34682 0.0
C1168 C 0.93935 0.15218 0.43788 0.0
C1169 C 0.92318 0.16168 0.42071 0.0
C1170 C 0.87196 0.1464 0.38868 0.0
C1171 C 0.83495 0.18525 0.34648 0.0
C1172 C 0.85507 0.17536 0.36009 0.0
C1173 C 0.91171 0.14802 0.40403 0.0
C1174 C 0.89253 0.1573 0.38827 0.0
H1175 H 0.81687 0.20431 0.28766 0.0
H1176 H 0.85096 0.18904 0.31011 0.0
H1177 H 0.83765 0.14679 0.37573 0.0
H1178 H 0.93711 0.09753 0.42096 0.0
H1179 H 0.90894 0.11411 0.39112 0.0
C1180 C 0.21694 0.60539 0.13018 0.0
C1181 C 0.23455 0.6025 0.11315 0.0
C1182 C 0.19535 0.59847 0.12413 0.0
C1183 C 0.15984 0.58259 0.06937 0.0
H1184 H 0.12226 0.55824 0.12225 0.0
C1185 C 0.06787 0.56164 0.04856 0.0
C1186 C 0.05958 0.54233 0.06067 0.0
C1187 C 0.08867 0.56971 0.05586 0.0
C1188 C 0.1326 0.56478 0.10718 0.0
H1189 H 0.24371 0.58968 0.07679 0.0
H1190 H 0.20628 0.57686 0.06649 0.0
H1191 H 0.15994 0.56985 0.13291 0.0
H1192 H 0.06629 0.51628 0.08985 0.0
H1193 H 0.10301 0.52985 0.10209 0.0
H1194 H 0.13301 0.57647 0.04343 0.0
C1195 C 0.20882 0.58512 0.08418 0.0
C1196 C 0.15413 0.57178 0.11337 0.0
C1197 C 0.23031 0.59235 0.09008 0.0
C1198 C 0.07227 0.53134 0.08038 0.0
C1199 C 0.09326 0.53921 0.08744 0.0
C1200 C 0.13846 0.57531 0.06313 0.0
C1201 C 0.19101 0.58821 0.10105 0.0
C1202 C 0.16803 0.5808 0.09454 0.0
C1203 C 0.1018 0.55842 0.07515 0.0
C1204 C 0.12452 0.56635 0.08195 0.0
H1205 H 0.21979 0.61337 0.148 0.0
H1206 H 0.18202 0.6015 0.1374 0.0
H1207 H 0.16988 0.58976 0.0544 0.0
H1208 H 0.0583 0.57046 0.03336 0.0
H1209 H 0.09442 0.58482 0.04633 0.0
C1210 C 0.23771 0.39575 0.64696 0.0
C1211 C 0.24127 0.3723 0.64674 0.0
C1212 C 0.25215 0.41001 0.634 0.0
C1213 C 0.31014 0.41264 0.61692 0.0
H1214 H 0.29197 0.4598 0.56719 0.0
C1215 C 0.37274 0.47596 0.57886 0.0
C1216 C 0.37498 0.47575 0.55239 0.0
C1217 C 0.35429 0.46633 0.59046 0.0
C1218 C 0.29717 0.44676 0.58117 0.0
H1219 H 0.26227 0.34529 0.63254 0.0
H1220 H 0.28783 0.37027 0.6103 0.0
H1221 H 0.26341 0.43599 0.5865 0.0
H1222 H 0.3588 0.46636 0.51731 0.0
H1223 H 0.32631 0.45016 0.53765 0.0
H1224 H 0.34379 0.42331 0.61184 0.0
C1225 C 0.27376 0.37755 0.62028 0.0
C1226 C 0.28092 0.43324 0.59217 0.0
C1227 C 0.2591 0.36331 0.63283 0.0
C1228 C 0.35756 0.46706 0.5377 0.0
C1229 C 0.33895 0.45771 0.54931 0.0
C1230 C 0.32627 0.42638 0.60633 0.0
C1231 C 0.27058 0.40099 0.62108 0.0
C1232 C 0.28737 0.41588 0.60986 0.0
C1233 C 0.33755 0.45663 0.57582 0.0
C1234 C 0.31998 0.44341 0.5882 0.0
H1235 H 0.22399 0.40301 0.65751 0.0
H1236 H 0.24947 0.42805 0.63491 0.0
H1237 H 0.31544 0.39946 0.63069 0.0
H1238 H 0.38555 0.483 0.59071 0.0
H1239 H 0.3534 0.46591 0.61095 0.0
C1240 C 0.89781 0.74293 0.93398 0.0
C1241 C 0.89646 0.74742 0.90755 0.0
C1242 C 0.90834 0.72283 0.94429 0.0
C1243 C 0.94865 0.67564 0.92654 0.0
H1244 H 0.92973 0.64674 0.98919 0.0
C1245 C 1.00055 0.59931 0.97334 0.0
C1246 C 0.98912 0.58205 0.98615 0.0
C1247 C 0.9892 0.61947 0.96477 0.0
C1248 C 0.93524 0.65438 0.97153 0.0
H1249 H 0.90416 0.73307 0.87146 0.0
H1250 H 0.92191 0.69845 0.88909 0.0
H1251 H 0.90966 0.68077 0.97248 0.0
H1252 H 0.95637 0.57304 0.99992 0.0
H1253 H 0.93668 0.60778 0.98489 0.0
H1254 H 0.9738 0.64907 0.92513 0.0
C1255 C 0.91562 0.71068 0.90211 0.0
C1256 C 0.92379 0.67425 0.96204 0.0
C1257 C 0.90524 0.7307 0.89189 0.0
C1258 C 0.96593 0.58581 0.99024 0.0
C1259 C 0.95456 0.60598 0.98167 0.0
C1260 C 0.96005 0.65583 0.93599 0.0
C1261 C 0.9178 0.70643 0.92853 0.0
C1262 C 0.93019 0.68525 0.93924 0.0
C1263 C 0.96592 0.62322 0.9686 0.0
C1264 C 0.95361 0.64471 0.95868 0.0
H1265 H 0.89142 0.75531 0.94678 0.0
H1266 H 0.90963 0.72051 0.9647 0.0
H1267 H 0.95458 0.68352 0.90922 0.0
H1268 H 1.01839 0.59728 0.96988 0.0
H1269 H 0.99888 0.63225 0.95531 0.0
C1270 C 0.39348 0.7299 0.08722 0.0
C1271 C 0.40607 0.70962 0.09079 0.0
C1272 C 0.40367 0.74927 0.07798 0.0
C1273 C 0.46007 0.77307 0.07519 0.0
H1274 H 0.42771 0.82232 0.03875 0.0
C1275 C 0.50028 0.85823 0.05249 0.0
C1276 C 0.48753 0.8769 0.06039 0.0
C1277 C 0.49075 0.83714 0.05162 0.0
C1278 C 0.43694 0.80865 0.04888 0.0
H1279 H 0.43862 0.69313 0.08579 0.0
H1280 H 0.45631 0.72675 0.06877 0.0
H1281 H 0.41029 0.7859 0.04389 0.0
H1282 H 0.45466 0.88845 0.07261 0.0
H1283 H 0.43794 0.85159 0.07097 0.0
H1284 H 0.48664 0.79592 0.08025 0.0
C1285 C 0.43877 0.72796 0.07388 0.0
C1286 C 0.42696 0.78783 0.05192 0.0
C1287 C 0.42864 0.70867 0.08346 0.0
C1288 C 0.46491 0.87426 0.06671 0.0
C1289 C 0.45529 0.85326 0.06551 0.0
C1290 C 0.47012 0.79378 0.07186 0.0
C1291 C 0.42661 0.74869 0.07184 0.0
C1292 C 0.43819 0.76991 0.06563 0.0
C1293 C 0.4682 0.83445 0.05827 0.0
C1294 C 0.45846 0.8119 0.05918 0.0
H1295 H 0.3761 0.73112 0.09299 0.0
H1296 H 0.39381 0.76492 0.07702 0.0
H1297 H 0.46911 0.75987 0.08626 0.0
H1298 H 0.51778 0.85984 0.04759 0.0
H1299 H 0.50102 0.8229 0.0459 0.0
C1300 C 0.12432 0.20105 0.61955 0.0
C1301 C 0.13536 0.19922 0.64336 0.0
C1302 C 0.11534 0.18218 0.60881 0.0
C1303 C 0.09575 0.12547 0.62432 0.0
H1304 H 0.10689 0.11539 0.55341 0.0
C1305 C 0.052 0.05719 0.56821 0.0
C1306 C 0.06564 0.04458 0.55215 0.0
C1307 C 0.06045 0.07583 0.57998 0.0
C1308 C 0.10375 0.11792 0.57326 0.0
H1309 H 0.14555 0.17606 0.67455 0.0
H1310 H 0.12961 0.14317 0.65588 0.0
H1311 H 0.12159 0.14854 0.57285 0.0
H1312 H 0.09872 0.04134 0.53587 0.0
H1313 H 0.11353 0.07393 0.55647 0.0
H1314 H 0.07806 0.09472 0.62475 0.0
C1315 C 0.12779 0.15928 0.64566 0.0
C1316 C 0.11196 0.13701 0.58431 0.0
C1317 C 0.13688 0.17813 0.65635 0.0
C1318 C 0.08788 0.05079 0.54819 0.0
C1319 C 0.09629 0.0695 0.55984 0.0
C1320 C 0.08741 0.10645 0.61321 0.0
C1321 C 0.11707 0.16108 0.6217 0.0
C1322 C 0.10809 0.14095 0.60996 0.0
C1323 C 0.08263 0.08227 0.57576 0.0
C1324 C 0.0914 0.10245 0.58759 0.0
H1325 H 0.12248 0.21712 0.60926 0.0
H1326 H 0.10686 0.18413 0.59048 0.0
H1327 H 0.09238 0.12818 0.64408 0.0
H1328 H 0.03474 0.05279 0.57148 0.0
H1329 H 0.04947 0.08549 0.59195 0.0
C1330 C 0.63653 0.33123 0.37703 0.0
C1331 C 0.63779 0.33311 0.3505 0.0
C1332 C 0.62518 0.34777 0.39036 0.0
C1333 C 0.60842 0.40733 0.3867 0.0
H1334 H 0.56845 0.3911 0.44118 0.0
C1335 C 0.57629 0.47012 0.46047 0.0
C1336 C 0.55317 0.46974 0.4655 0.0
C1337 C 0.58638 0.45363 0.44578 0.0
C1338 C 0.57951 0.39588 0.42596 0.0
H1339 H 0.62795 0.35352 0.31701 0.0
H1340 H 0.60809 0.3827 0.34046 0.0
H1341 H 0.58551 0.3617 0.41602 0.0
H1342 H 0.52258 0.45166 0.45923 0.0
H1343 H 0.54023 0.42296 0.43389 0.0
H1344 H 0.60247 0.44154 0.39679 0.0
C1345 C 0.61596 0.36839 0.35086 0.0
C1346 C 0.58935 0.37907 0.41167 0.0
C1347 C 0.62712 0.35166 0.33746 0.0
C1348 C 0.54043 0.45249 0.4557 0.0
C1349 C 0.55053 0.43595 0.44128 0.0
C1350 C 0.59874 0.42416 0.40119 0.0
C1351 C 0.61502 0.36665 0.37746 0.0
C1352 C 0.60392 0.38461 0.39192 0.0
C1353 C 0.57359 0.43635 0.43615 0.0
C1354 C 0.58417 0.41859 0.42094 0.0
H1355 H 0.64448 0.317 0.3875 0.0
H1356 H 0.62485 0.34606 0.41085 0.0
H1357 H 0.61977 0.41204 0.37173 0.0
H1358 H 0.58656 0.4832 0.46772 0.0
H1359 H 0.60425 0.45421 0.44226 0.0
loop_
_geom_bond_atom_site_label_1
_geom_bond_atom_site_label_2
_geom_bond_distance
_geom_bond_site_symmetry_2
_ccdc_geom_bond_type
C0 C1 1.391 . S
C0 C4 1.391 . S
C0 H42 0.948 . S
C1 C0 1.391 . S
C1 C2 1.391 . S
C2 C1 1.391 . S
C2 H58 0.947 . S
C2 C59 1.392 . S
C3 C4 1.391 . S
C3 C7 1.397 . S
C3 C59 1.419 . S
C4 C0 1.391 . S
C4 C3 1.391 . S
C4 C5 1.399 . S
C5 C4 1.399 . S
C5 C8 1.396 . S
C5 C17 1.453 . S
C5 C18 1.684 . S
H6 C30 0.948 . S
C7 C3 1.397 . S
C7 C8 1.394 . S
C7 C26 1.723 . S
C8 C5 1.396 . S
C8 C7 1.394 . S
C8 C38 1.723 . S
H9 C32 0.947 . S
H10 C33 0.948 . S
H11 C39 0.982 . S
H12 C40 0.979 . S
H13 C40 0.980 . S
H14 C40 0.983 . S
H15 C39 0.979 . S
H16 C39 0.977 . S
C17 C5 1.453 . S
C17 H46 0.982 . S
C17 H47 0.979 . S
C17 H48 0.977 . S
C18 C5 1.684 . S
C18 H43 0.979 . S
C18 H44 0.980 . S
C18 H45 0.983 . S
C19 C20 1.391 . S
C19 C24 1.391 . S
C19 H49 0.948 . S
C20 C19 1.391 . S
C20 C21 1.391 . S
C21 C20 1.391 . S
C21 C22 1.392 . S
C21 H50 0.947 . S
C22 C21 1.392 . S
C22 C23 1.419 . S
C22 H51 0.948 . S
C23 C22 1.419 . S
C23 C24 1.391 . S
C23 C27 1.397 . S
C24 C19 1.391 . S
C24 C23 1.391 . S
C24 C25 1.399 . S
C25 C24 1.399 . S
C25 C26 1.396 . S
C25 C28 1.453 . S
C25 C29 1.684 . S
C26 C7 1.723 . S
C26 C25 1.396 . S
C26 C27 1.394 . S
C27 C23 1.397 . S
C27 C26 1.394 . S
C27 C37 1.723 . S
C28 C25 1.453 . S
C28 H52 0.982 . S
C28 H53 0.979 . S
C28 H54 0.977 . S
C29 C25 1.684 . S
C29 H55 0.979 . S
C29 H56 0.980 . S
C29 H57 0.983 . S
C30 H6 0.948 . S
C30 C31 1.391 . S
C30 C35 1.391 . S
C31 C30 1.391 . S
C31 C32 1.391 . S
C32 H9 0.947 . S
C32 C31 1.391 . S
C32 C33 1.392 . S
C33 H10 0.948 . S
C33 C32 1.392 . S
C33 C34 1.419 . S
C34 C33 1.419 . S
C34 C35 1.391 . S
C34 C38 1.397 . S
C35 C30 1.391 . S
C35 C34 1.391 . S
C35 C36 1.399 . S
C36 C35 1.399 . S
C36 C37 1.396 . S
C36 C39 1.453 . S
C36 C40 1.684 . S
C37 C27 1.723 . S
C37 C36 1.396 . S
C37 C38 1.394 . S
C38 C8 1.723 . S
C38 C34 1.397 . S
C38 C37 1.394 . S
C39 H11 0.982 . S
C39 H15 0.979 . S
C39 H16 0.977 . S
C39 C36 1.453 . S
C40 H12 0.979 . S
C40 H13 0.980 . S
C40 H14 0.983 . S
C40 C36 1.684 . S
H41 C59 0.948 . S
H42 C0 0.948 . S
H43 C18 0.979 . S
H44 C18 0.980 . S
H45 C18 0.983 . S
H46 C17 0.982 . S
H47 C17 0.979 . S
H48 C17 0.977 . S
H49 C19 0.948 . S
H50 C21 0.947 . S
H51 C22 0.948 . S
H52 C28 0.982 . S
H53 C28 0.979 . S
H54 C28 0.977 . S
H55 C29 0.979 . S
H56 C29 0.980 . S
H57 C29 0.983 . S
H58 C2 0.947 . S
C59 C2 1.392 . S
C59 C3 1.419 . S
C59 H41 0.948 . S
C60 C61 1.391 . S
C60 C64 1.391 . S
C60 H102 0.948 . S
C61 C60 1.391 . S
C61 C62 1.391 . S
C62 C61 1.391 . S
C62 H118 0.947 . S
C62 C119 1.392 . S
C63 C64 1.391 . S
C63 C67 1.397 . S
C63 C119 1.419 . S
C64 C60 1.391 . S
C64 C63 1.391 . S
C64 C65 1.399 . S
C65 C64 1.399 . S
C65 C68 1.396 . S
C65 C77 1.453 . S
C65 C78 1.684 . S
H66 C90 0.948 . S
C67 C63 1.397 . S
C67 C68 1.394 . S
C67 C86 1.723 . S
C68 C65 1.396 . S
C68 C67 1.394 . S
C68 C98 1.723 . S
H69 C92 0.947 . S
H70 C93 0.948 . S
H71 C99 0.982 . S
H72 C100 0.979 . S
H73 C100 0.980 . S
H74 C100 0.983 . S
H75 C99 0.979 . S
H76 C99 0.977 . S
C77 C65 1.453 . S
C77 H106 0.982 . S
C77 H107 0.979 . S
C77 H108 0.977 . S
C78 C65 1.684 . S
C78 H103 0.979 . S
C78 H104 0.980 . S
C78 H105 0.983 . S
C79 C80 1.391 . S
C79 C84 1.391 . S
C79 H109 0.948 . S
C80 C79 1.391 . S
C80 C81 1.391 . S
C81 C80 1.391 . S
C81 C82 1.392 . S
C81 H110 0.947 . S
C82 C81 1.392 . S
C82 C83 1.419 . S
C82 H111 0.948 . S
C83 C82 1.419 . S
C83 C84 1.391 . S
C83 C87 1.397 . S
C84 C79 1.391 . S
C84 C83 1.391 . S
C84 C85 1.399 . S
C85 C84 1.399 . S
C85 C86 1.396 . S
C85 C88 1.453 . S
C85 C89 1.684 . S
C86 C67 1.723 . S
C86 C85 1.396 . S
C86 C87 1.394 . S
C87 C83 1.397 . S
C87 C86 1.394 . S
C87 C97 1.723 . S
C88 C85 1.453 . S
C88 H112 0.982 . S
C88 H113 0.979 . S
C88 H114 0.977 . S
C89 C85 1.684 . S
C89 H115 0.979 . S
C89 H116 0.980 . S
C89 H117 0.983 . S
C90 H66 0.948 . S
C90 C91 1.391 . S
C90 C95 1.391 . S
C91 C90 1.391 . S
C91 C92 1.391 . S
C92 H69 0.947 . S
C92 C91 1.391 . S
C92 C93 1.392 . S
C93 H70 0.948 . S
C93 C92 1.392 . S
C93 C94 1.419 . S
C94 C93 1.419 . S
C94 C95 1.391 . S
C94 C98 1.397 . S
C95 C90 1.391 . S
C95 C94 1.391 . S
C95 C96 1.399 . S
C96 C95 1.399 . S
C96 C97 1.396 . S
C96 C99 1.453 . S
C96 C100 1.684 . S
C97 C87 1.723 . S
C97 C96 1.396 . S
C97 C98 1.394 . S
C98 C68 1.723 . S
C98 C94 1.397 . S
C98 C97 1.394 . S
C99 H71 0.982 . S
C99 H75 0.979 . S
C99 H76 0.977 . S
C99 C96 1.453 . S
C100 H72 0.979 . S
C100 H73 0.980 . S
C100 H74 0.983 . S
C100 C96 1.684 . S
H101 C119 0.948 . S
H102 C60 0.948 . S
H103 C78 0.979 . S
H104 C78 0.980 . S
H105 C78 0.983 . S
H106 C77 0.982 . S
H107 C77 0.979 . S
H108 C77 0.977 . S
H109 C79 0.948 . S
H110 C81 0.947 . S
H111 C82 0.948 . S
H112 C88 0.982 . S
H113 C88 0.979 . S
H114 C88 0.977 . S
H115 C89 0.979 . S
H116 C89 0.980 . S
H117 C89 0.983 . S
H118 C62 0.947 . S
C119 C62 1.392 . S
C119 C63 1.419 . S
C119 H101 0.948 . S
C120 C121 1.391 . S
C120 C124 1.391 . S
C120 H162 0.948 . S
C121 C120 1.391 . S
C121 C122 1.391 . S
C122 C121 1.391 . S
C122 H178 0.947 . S
C122 C179 1.392 . S
C123 C124 1.391 . S
C123 C127 1.397 . S
C123 C179 1.419 . S
C124 C120 1.391 . S
C124 C123 1.391 . S
C124 C125 1.399 . S
C125 C124 1.399 . S
C125 C128 1.396 . S
C125 C137 1.453 . S
C125 C138 1.684 . S
H126 C150 0.948 . S
C127 C123 1.397 . S
C127 C128 1.394 . S
C127 C146 1.723 . S
C128 C125 1.396 . S
C128 C127 1.394 . S
C128 C158 1.723 . S
H129 C152 0.947 . S
H130 C153 0.948 . S
H131 C159 0.982 . S
H132 C160 0.979 . S
H133 C160 0.980 . S
H134 C160 0.983 . S
H135 C159 0.979 . S
H136 C159 0.977 . S
C137 C125 1.453 . S
C137 H166 0.982 . S
C137 H167 0.979 . S
C137 H168 0.977 . S
C138 C125 1.684 . S
C138 H163 0.979 . S
C138 H164 0.980 . S
C138 H165 0.983 . S
C139 C140 1.391 . S
C139 C144 1.391 . S
C139 H169 0.948 . S
C140 C139 1.391 . S
C140 C141 1.391 . S
C141 C140 1.391 . S
C141 C142 1.392 . S
C141 H170 0.947 . S
C142 C141 1.392 . S
C142 C143 1.419 . S
C142 H171 0.948 . S
C143 C142 1.419 . S
C143 C144 1.391 . S
C143 C147 1.397 . S
C144 C139 1.391 . S
C144 C143 1.391 . S
C144 C145 1.399 . S
C145 C144 1.399 . S
C145 C146 1.396 . S
C145 C148 1.453 . S
C145 C149 1.684 . S
C146 C127 1.723 . S
C146 C145 1.396 . S
C146 C147 1.394 . S
C147 C143 1.397 . S
C147 C146 1.394 . S
C147 C157 1.723 . S
C148 C145 1.453 . S
C148 H172 0.982 . S
C148 H173 0.979 . S
C148 H174 0.977 . S
C149 C145 1.684 . S
C149 H175 0.979 . S
C149 H176 0.980 . S
C149 H177 0.983 . S
C150 H126 0.948 . S
C150 C151 1.391 . S
C150 C155 1.391 . S
C151 C150 1.391 . S
C151 C152 1.391 . S
C152 H129 0.947 . S
C152 C151 1.391 . S
C152 C153 1.392 . S
C153 H130 0.948 . S
C153 C152 1.392 . S
C153 C154 1.419 . S
C154 C153 1.419 . S
C154 C155 1.391 . S
C154 C158 1.397 . S
C155 C150 1.391 . S
C155 C154 1.391 . S
C155 C156 1.399 . S
C156 C155 1.399 . S
C156 C157 1.396 . S
C156 C159 1.453 . S
C156 C160 1.684 . S
C157 C147 1.723 . S
C157 C156 1.396 . S
C157 C158 1.394 . S
C158 C128 1.723 . S
C158 C154 1.397 . S
C158 C157 1.394 . S
C159 H131 0.982 . S
C159 H135 0.979 . S
C159 H136 0.977 . S
C159 C156 1.453 . S
C160 H132 0.979 . S
C160 H133 0.980 . S
C160 H134 0.983 . S
C160 C156 1.684 . S
H161 C179 0.948 . S
H162 C120 0.948 . S
H163 C138 0.979 . S
H164 C138 0.980 . S
H165 C138 0.983 . S
H166 C137 0.982 . S
H167 C137 0.979 . S
H168 C137 0.977 . S
H169 C139 0.948 . S
H170 C141 0.947 . S
H171 C142 0.948 . S
H172 C148 0.982 . S
H173 C148 0.979 . S
H174 C148 0.977 . S
H175 C149 0.979 . S
H176 C149 0.980 . S
H177 C149 0.983 . S
H178 C122 0.947 . S
C179 C122 1.392 . S
C179 C123 1.419 . S
C179 H161 0.948 . S
C180 C181 1.391 . S
C180 C184 1.391 . S
C180 H222 0.948 . S
C181 C180 1.391 . S
C181 C182 1.391 . S
C182 C181 1.391 . S
C182 H238 0.947 . S
C182 C239 1.392 . S
C183 C184 1.391 . S
C183 C187 1.397 . S
C183 C239 1.419 . S
C184 C180 1.391 . S
C184 C183 1.391 . S
C184 C185 1.399 . S
C185 C184 1.399 . S
C185 C188 1.396 . S
C185 C197 1.453 . S
C185 C198 1.684 . S
H186 C210 0.948 . S
C187 C183 1.397 . S
C187 C188 1.394 . S
C187 C206 1.723 . S
C188 C185 1.396 . S
C188 C187 1.394 . S
C188 C218 1.723 . S
H189 C212 0.947 . S
H190 C213 0.948 . S
H191 C219 0.982 . S
H192 C220 0.979 . S
H193 C220 0.980 . S
H194 C220 0.983 . S
H195 C219 0.979 . S
H196 C219 0.977 . S
C197 C185 1.453 . S
C197 H226 0.982 . S
C197 H227 0.979 . S
C197 H228 0.977 . S
C198 C185 1.684 . S
C198 H223 0.979 . S
C198 H224 0.980 . S
C198 H225 0.983 . S
C199 C200 1.391 . S
C199 C204 1.391 . S
C199 H229 0.948 . S
C200 C199 1.391 . S
C200 C201 1.391 . S
C201 C200 1.391 . S
C201 C202 1.392 . S
C201 H230 0.947 . S
C202 C201 1.392 . S
C202 C203 1.419 . S
C202 H231 0.948 . S
C203 C202 1.419 . S
C203 C204 1.391 . S
C203 C207 1.397 . S
C204 C199 1.391 . S
C204 C203 1.391 . S
C204 C205 1.399 . S
C205 C204 1.399 . S
C205 C206 1.396 . S
C205 C208 1.453 . S
C205 C209 1.684 . S
C206 C187 1.723 . S
C206 C205 1.396 . S
C206 C207 1.394 . S
C207 C203 1.397 . S
C207 C206 1.394 . S
C207 C217 1.723 . S
C208 C205 1.453 . S
C208 H232 0.982 . S
C208 H233 0.979 . S
C208 H234 0.977 . S
C209 C205 1.684 . S
C209 H235 0.979 . S
C209 H236 0.980 . S
C209 H237 0.983 . S
C210 H186 0.948 . S
C210 C211 1.391 . S
C210 C215 1.391 . S
C211 C210 1.391 . S
C211 C212 1.391 . S
C212 H189 0.947 . S
C212 C211 1.391 . S
C212 C213 1.392 . S
C213 H190 0.948 . S
C213 C212 1.392 . S
C213 C214 1.419 . S
C214 C213 1.419 . S
C214 C215 1.391 . S
C214 C218 1.397 . S
C215 C210 1.391 . S
C215 C214 1.391 . S
C215 C216 1.399 . S
C216 C215 1.399 . S
C216 C217 1.396 . S
C216 C219 1.453 . S
C216 C220 1.684 . S
C217 C207 1.723 . S
C217 C216 1.396 . S
C217 C218 1.394 . S
C218 C188 1.723 . S
C218 C214 1.397 . S
C218 C217 1.394 . S
C219 H191 0.982 . S
C219 H195 0.979 . S
C219 H196 0.977 . S
C219 C216 1.453 . S
C220 H192 0.979 . S
C220 H193 0.980 . S
C220 H194 0.983 . S
C220 C216 1.684 . S
H221 C239 0.948 . S
H222 C180 0.948 . S
H223 C198 0.979 . S
H224 C198 0.980 . S
H225 C198 0.983 . S
H226 C197 0.982 . S
H227 C197 0.979 . S
H228 C197 0.977 . S
H229 C199 0.948 . S
H230 C201 0.947 . S
H231 C202 0.948 . S
H232 C208 0.982 . S
H233 C208 0.979 . S
H234 C208 0.977 . S
H235 C209 0.979 . S
H236 C209 0.980 . S
H237 C209 0.983 . S
H238 C182 0.947 . S
C239 C182 1.392 . S
C239 C183 1.419 . S
C239 H221 0.948 . S
C240 C241 1.391 . S
C240 C244 1.391 . S
C240 H282 0.948 . S
C241 C240 1.391 . S
C241 C242 1.391 . S
C242 C241 1.391 . S
C242 H298 0.947 . S
C242 C299 1.392 . S
C243 C244 1.391 . S
C243 C247 1.397 . S
C243 C299 1.419 . S
C244 C240 1.391 . S
C244 C243 1.391 . S
C244 C245 1.399 . S
C245 C244 1.399 . S
C245 C248 1.396 . S
C245 C257 1.453 . S
C245 C258 1.684 . S
H246 C270 0.948 . S
C247 C243 1.397 . S
C247 C248 1.394 . S
C247 C266 1.723 . S
C248 C245 1.396 . S
C248 C247 1.394 . S
C248 C278 1.723 . S
H249 C272 0.947 . S
H250 C273 0.948 . S
H251 C279 0.982 . S
H252 C280 0.979 . S
H253 C280 0.980 . S
H254 C280 0.983 . S
H255 C279 0.979 . S
H256 C279 0.977 . S
C257 C245 1.453 . S
C257 H286 0.982 . S
C257 H287 0.979 . S
C257 H288 0.977 . S
C258 C245 1.684 . S
C258 H283 0.979 . S
C258 H284 0.980 . S
C258 H285 0.983 . S
C259 C260 1.391 . S
C259 C264 1.391 . S
C259 H289 0.948 . S
C260 C259 1.391 . S
C260 C261 1.391 . S
C261 C260 1.391 . S
C261 C262 1.392 . S
C261 H290 0.947 . S
C262 C261 1.392 . S
C262 C263 1.419 . S
C262 H291 0.948 . S
C263 C262 1.419 . S
C263 C264 1.391 . S
C263 C267 1.397 . S
C264 C259 1.391 . S
C264 C263 1.391 . S
C264 C265 1.399 . S
C265 C264 1.399 . S
C265 C266 1.396 . S
C265 C268 1.453 . S
C265 C269 1.684 . S
C266 C247 1.723 . S
C266 C265 1.396 . S
C266 C267 1.394 . S
C267 C263 1.397 . S
C267 C266 1.394 . S
C267 C277 1.723 . S
C268 C265 1.453 . S
C268 H292 0.982 . S
C268 H293 0.979 . S
C268 H294 0.977 . S
C269 C265 1.684 . S
C269 H295 0.979 . S
C269 H296 0.980 . S
C269 H297 0.983 . S
C270 H246 0.948 . S
C270 C271 1.391 . S
C270 C275 1.391 . S
C271 C270 1.391 . S
C271 C272 1.391 . S
C272 H249 0.947 . S
C272 C271 1.391 . S
C272 C273 1.392 . S
C273 H250 0.948 . S
C273 C272 1.392 . S
C273 C274 1.419 . S
C274 C273 1.419 . S
C274 C275 1.391 . S
C274 C278 1.397 . S
C275 C270 1.391 . S
C275 C274 1.391 . S
C275 C276 1.399 . S
C276 C275 1.399 . S
C276 C277 1.396 . S
C276 C279 1.453 . S
C276 C280 1.684 . S
C277 C267 1.723 . S
C277 C276 1.396 . S
C277 C278 1.394 . S
C278 C248 1.723 . S
C278 C274 1.397 . S
C278 C277 1.394 . S
C279 H251 0.982 . S
C279 H255 0.979 . S
C279 H256 0.977 . S
C279 C276 1.453 . S
C280 H252 0.979 . S
C280 H253 0.980 . S
C280 H254 0.983 . S
C280 C276 1.684 . S
H281 C299 0.948 . S
H282 C240 0.948 . S
H283 C258 0.979 . S
H284 C258 0.980 . S
H285 C258 0.983 . S
H286 C257 0.982 . S
H287 C257 0.979 . S
H288 C257 0.977 . S
H289 C259 0.948 . S
H290 C261 0.947 . S
H291 C262 0.948 . S
H292 C268 0.982 . S
H293 C268 0.979 . S
H294 C268 0.977 . S
H295 C269 0.979 . S
H296 C269 0.980 . S
H297 C269 0.983 . S
H298 C242 0.947 . S
C299 C242 1.392 . S
C299 C243 1.419 . S
C299 H281 0.948 . S
C300 C301 1.391 . S
C300 C304 1.391 . S
C300 H342 0.948 . S
C301 C300 1.391 . S
C301 C302 1.391 . S
C302 C301 1.391 . S
C302 H358 0.947 . S
C302 C359 1.392 . S
C303 C304 1.391 . S
C303 C307 1.397 . S
C303 C359 1.419 . S
C304 C300 1.391 . S
C304 C303 1.391 . S
C304 C305 1.399 . S
C305 C304 1.399 . S
C305 C308 1.396 . S
C305 C317 1.453 . S
C305 C318 1.684 . S
H306 C330 0.948 . S
C307 C303 1.397 . S
C307 C308 1.394 . S
C307 C326 1.723 . S
C308 C305 1.396 . S
C308 C307 1.394 . S
C308 C338 1.723 . S
H309 C332 0.947 . S
H310 C333 0.948 . S
H311 C339 0.982 . S
H312 C340 0.979 . S
H313 C340 0.980 . S
H314 C340 0.983 . S
H315 C339 0.979 . S
H316 C339 0.977 . S
C317 C305 1.453 . S
C317 H346 0.982 . S
C317 H347 0.979 . S
C317 H348 0.977 . S
C318 C305 1.684 . S
C318 H343 0.979 . S
C318 H344 0.980 . S
C318 H345 0.983 . S
C319 C320 1.391 . S
C319 C324 1.391 . S
C319 H349 0.948 . S
C320 C319 1.391 . S
C320 C321 1.391 . S
C321 C320 1.391 . S
C321 C322 1.392 . S
C321 H350 0.947 . S
C322 C321 1.392 . S
C322 C323 1.419 . S
C322 H351 0.948 . S
C323 C322 1.419 . S
C323 C324 1.391 . S
C323 C327 1.397 . S
C324 C319 1.391 . S
C324 C323 1.391 . S
C324 C325 1.399 . S
C325 C324 1.399 . S
C325 C326 1.396 . S
C325 C328 1.453 . S
C325 C329 1.684 . S
C326 C307 1.723 . S
C326 C325 1.396 . S
C326 C327 1.394 . S
C327 C323 1.397 . S
C327 C326 1.394 . S
C327 C337 1.723 . S
C328 C325 1.453 . S
C328 H352 0.982 . S
C328 H353 0.979 . S
C328 H354 0.977 . S
C329 C325 1.684 . S
C329 H355 0.979 . S
C329 H356 0.980 . S
C329 H357 0.983 . S
C330 H306 0.948 . S
C330 C331 1.391 . S
C330 C335 1.391 . S
C331 C330 1.391 . S
C331 C332 1.391 . S
C332 H309 0.947 . S
C332 C331 1.391 . S
C332 C333 1.392 . S
C333 H310 0.948 . S
C333 C332 1.392 . S
C333 C334 1.419 . S
C334 C333 1.419 . S
C334 C335 1.391 . S
C334 C338 1.397 . S
C335 C330 1.391 . S
C335 C334 1.391 . S
C335 C336 1.399 . S
C336 C335 1.399 . S
C336 C337 1.396 . S
C336 C339 1.453 . S
C336 C340 1.684 . S
C337 C327 1.723 . S
C337 C336 1.396 . S
C337 C338 1.394 . S
C338 C308 1.723 . S
C338 C334 1.397 . S
C338 C337 1.394 . S
C339 H311 0.982 . S
C339 H315 0.979 . S
C339 H316 0.977 . S
C339 C336 1.453 . S
C340 H312 0.979 . S
C340 H313 0.980 . S
C340 H314 0.983 . S
C340 C336 1.684 . S
H341 C359 0.948 . S
H342 C300 0.948 . S
H343 C318 0.979 . S
H344 C318 0.980 . S
H345 C318 0.983 . S
H346 C317 0.982 . S
H347 C317 0.979 . S
H348 C317 0.977 . S
H349 C319 0.948 . S
H350 C321 0.947 . S
H351 C322 0.948 . S
H352 C328 0.982 . S
H353 C328 0.979 . S
H354 C328 0.977 . S
H355 C329 0.979 . S
H356 C329 0.980 . S
H357 C329 0.983 . S
H358 C302 0.947 . S
C359 C302 1.392 . S
C359 C303 1.419 . S
C359 H341 0.948 . S
C360 C361 1.391 . S
C360 C364 1.391 . S
C360 H402 0.948 . S
C361 C360 1.391 . S
C361 C362 1.391 . S
C362 C361 1.391 . S
C362 H418 0.947 . S
C362 C419 1.392 . S
C363 C364 1.391 . S
C363 C367 1.397 . S
C363 C419 1.419 . S
C364 C360 1.391 . S
C364 C363 1.391 . S
C364 C365 1.399 . S
C365 C364 1.399 . S
C365 C368 1.396 . S
C365 C377 1.453 . S
C365 C378 1.684 . S
H366 C390 0.948 . S
C367 C363 1.397 . S
C367 C368 1.394 . S
C367 C386 1.723 . S
C368 C365 1.396 . S
C368 C367 1.394 . S
C368 C398 1.723 . S
H369 C392 0.947 . S
H370 C393 0.948 . S
H371 C399 0.982 . S
H372 C400 0.979 . S
H373 C400 0.980 . S
H374 C400 0.983 . S
H375 C399 0.979 . S
H376 C399 0.977 . S
C377 C365 1.453 . S
C377 H406 0.982 . S
C377 H407 0.979 . S
C377 H408 0.977 . S
C378 C365 1.684 . S
C378 H403 0.979 . S
C378 H404 0.980 . S
C378 H405 0.983 . S
C379 C380 1.391 . S
C379 C384 1.391 . S
C379 H409 0.948 . S
C380 C379 1.391 . S
C380 C381 1.391 . S
C381 C380 1.391 . S
C381 C382 1.392 . S
C381 H410 0.947 . S
C382 C381 1.392 . S
C382 C383 1.419 . S
C382 H411 0.948 . S
C383 C382 1.419 . S
C383 C384 1.391 . S
C383 C387 1.397 . S
C384 C379 1.391 . S
C384 C383 1.391 . S
C384 C385 1.399 . S
C385 C384 1.399 . S
C385 C386 1.396 . S
C385 C388 1.453 . S
C385 C389 1.684 . S
C386 C367 1.723 . S
C386 C385 1.396 . S
C386 C387 1.394 . S
C387 C383 1.397 . S
C387 C386 1.394 . S
C387 C397 1.723 . S
C388 C385 1.453 . S
C388 H412 0.982 . S
C388 H413 0.979 . S
C388 H414 0.977 . S
C389 C385 1.684 . S
C389 H415 0.979 . S
C389 H416 0.980 . S
C389 H417 0.983 . S
C390 H366 0.948 . S
C390 C391 1.391 . S
C390 C395 1.391 . S
C391 C390 1.391 . S
C391 C392 1.391 . S
C392 H369 0.947 . S
C392 C391 1.391 . S
C392 C393 1.392 . S
C393 H370 0.948 . S
C393 C392 1.392 . S
C393 C394 1.419 . S
C394 C393 1.419 . S
C394 C395 1.391 . S
C394 C398 1.397 . S
C395 C390 1.391 . S
C395 C394 1.391 . S
C395 C396 1.399 . S
C396 C395 1.399 . S
C396 C397 1.396 . S
C396 C399 1.453 . S
C396 C400 1.684 . S
C397 C387 1.723 . S
C397 C396 1.396 . S
C397 C398 1.394 . S
C398 C368 1.723 . S
C398 C394 1.397 . S
C398 C397 1.394 . S
C399 H371 0.982 . S
C399 H375 0.979 . S
C399 H376 0.977 . S
C399 C396 1.453 . S
C400 H372 0.979 . S
C400 H373 0.980 . S
C400 H374 0.983 . S
C400 C396 1.684 . S
H401 C419 0.948 . S
H402 C360 0.948 . S
H403 C378 0.979 . S
H404 C378 0.980 . S
H405 C378 0.983 . S
H406 C377 0.982 . S
H407 C377 0.979 . S
H408 C377 0.977 . S
H409 C379 0.948 . S
H410 C381 0.947 . S
H411 C382 0.948 . S
H412 C388 0.982 . S
H413 C388 0.979 . S
H414 C388 0.977 . S
H415 C389 0.979 . S
H416 C389 0.980 . S
H417 C389 0.983 . S
H418 C362 0.947 . S
C419 C362 1.392 . S
C419 C363 1.419 . S
C419 H401 0.948 . S
C420 C421 1.391 . S
C420 C424 1.391 . S
C420 H462 0.948 . S
C421 C420 1.391 . S
C421 C422 1.391 . S
C422 C421 1.391 . S
C422 H478 0.947 . S
C422 C479 1.392 . S
C423 C424 1.391 . S
C423 C427 1.397 . S
C423 C479 1.419 . S
C424 C420 1.391 . S
C424 C423 1.391 . S
C424 C425 1.399 . S
C425 C424 1.399 . S
C425 C428 1.396 . S
C425 C437 1.453 . S
C425 C438 1.684 . S
H426 C450 0.948 . S
C427 C423 1.397 . S
C427 C428 1.394 . S
C427 C446 1.723 . S
C428 C425 1.396 . S
C428 C427 1.394 . S
C428 C458 1.723 . S
H429 C452 0.947 . S
H430 C453 0.948 . S
H431 C459 0.982 . S
H432 C460 0.979 . S
H433 C460 0.980 . S
H434 C460 0.983 . S
H435 C459 0.979 . S
H436 C459 0.977 . S
C437 C425 1.453 . S
C437 H466 0.982 . S
C437 H467 0.979 . S
C437 H468 0.977 . S
C438 C425 1.684 . S
C438 H463 0.979 . S
C438 H464 0.980 . S
C438 H465 0.983 . S
C439 C440 1.391 . S
C439 C444 1.391 . S
C439 H469 0.948 . S
C440 C439 1.391 . S
C440 C441 1.391 . S
C441 C440 1.391 . S
C441 C442 1.392 . S
C441 H470 0.947 . S
C442 C441 1.392 . S
C442 C443 1.419 . S
C442 H471 0.948 . S
C443 C442 1.419 . S
C443 C444 1.391 . S
C443 C447 1.397 . S
C444 C439 1.391 . S
C444 C443 1.391 . S
C444 C445 1.399 . S
C445 C444 1.399 . S
C445 C446 1.396 . S
C445 C448 1.453 . S
C445 C449 1.684 . S
C446 C427 1.723 . S
C446 C445 1.396 . S
C446 C447 1.394 . S
C447 C443 1.397 . S
C447 C446 1.394 . S
C447 C457 1.723 . S
C448 C445 1.453 . S
C448 H472 0.982 . S
C448 H473 0.979 . S
C448 H474 0.977 . S
C449 C445 1.684 . S
C449 H475 0.979 . S
C449 H476 0.980 . S
C449 H477 0.983 . S
C450 H426 0.948 . S
C450 C451 1.391 . S
C450 C455 1.391 . S
C451 C450 1.391 . S
C451 C452 1.391 . S
C452 H429 0.947 . S
C452 C451 1.391 . S
C452 C453 1.392 . S
C453 H430 0.948 . S
C453 C452 1.392 . S
C453 C454 1.419 . S
C454 C453 1.419 . S
C454 C455 1.391 . S
C454 C458 1.397 . S
C455 C450 1.391 . S
C455 C454 1.391 . S
C455 C456 1.399 . S
C456 C455 1.399 . S
C456 C457 1.396 . S
C456 C459 1.453 . S
C456 C460 1.684 . S
C457 C447 1.723 . S
C457 C456 1.396 . S
C457 C458 1.394 . S
C458 C428 1.723 . S
C458 C454 1.397 . S
C458 C457 1.394 . S
C459 H431 0.982 . S
C459 H435 0.979 . S
C459 H436 0.977 . S
C459 C456 1.453 . S
C460 H432 0.979 . S
C460 H433 0.980 . S
C460 H434 0.983 . S
C460 C456 1.684 . S
H461 C479 0.948 . S
H462 C420 0.948 . S
H463 C438 0.979 . S
H464 C438 0.980 . S
H465 C438 0.983 . S
H466 C437 0.982 . S
H467 C437 0.979 . S
H468 C437 0.977 . S
H469 C439 0.948 . S
H470 C441 0.947 . S
H471 C442 0.948 . S
H472 C448 0.982 . S
H473 C448 0.979 . S
H474 C448 0.977 . S
H475 C449 0.979 . S
H476 C449 0.980 . S
H477 C449 0.983 . S
H478 C422 0.947 . S
C479 C422 1.392 . S
C479 C423 1.419 . S
C479 H461 0.948 . S
Nd480 C482 2.836 . S
Nd480 O500 2.500 . S
Nd480 O501 2.492 . S
Nd480 O502 2.487 1_565 S
Nd480 O503 2.682 1_565 S
Nd480 O504 2.410 . S
Nd480 O509 2.414 1_455 S
Nd480 O511 2.424 1_565 S
Nd481 C491 2.836 . S
Nd481 O503 2.414 1_655 S
Nd481 O505 2.424 1_545 S
Nd481 O506 2.500 . S
Nd481 O507 2.492 . S
Nd481 O508 2.487 1_545 S
Nd481 O509 2.682 1_545 S
Nd481 O510 2.410 . S
C482 Nd480 2.836 . S
C482 C483 1.498 . S
C482 O500 1.258 . S
C482 O501 1.239 . S
C483 C482 1.498 . S
C483 C484 1.366 . S
C483 C488 1.407 . S
C484 C483 1.366 . S
C484 C485 1.392 . S
C484 H512 0.930 . S
C485 C484 1.392 . S
C485 C486 1.398 . S
C485 H513 0.929 . S
C486 C485 1.398 . S
C486 C487 1.352 . S
C487 C486 1.352 . S
C487 C488 1.384 . S
C487 H514 0.930 . S
C488 C483 1.407 . S
C488 C487 1.384 . S
C488 H515 0.929 . S
C489 O502 1.241 . S
C489 O503 1.273 . S
C490 O504 1.251 1_655 S
C490 O505 1.268 . S
C491 Nd481 2.836 . S
C491 C492 1.498 . S
C491 O506 1.258 . S
C491 O507 1.239 . S
C492 C491 1.498 . S
C492 C493 1.366 . S
C492 C497 1.407 . S
C493 C492 1.366 . S
C493 C494 1.392 . S
C493 H516 0.930 . S
C494 C493 1.392 . S
C494 C495 1.398 . S
C494 H517 0.929 . S
C495 C494 1.398 . S
C495 C496 1.352 . S
C496 C495 1.352 . S
C496 C497 1.384 . S
C496 H518 0.930 . S
C497 C492 1.407 . S
C497 C496 1.384 . S
C497 H519 0.929 . S
C498 O508 1.241 . S
C498 O509 1.273 . S
C499 O510 1.251 1_455 S
C499 O511 1.268 . S
O500 Nd480 2.500 . S
O500 C482 1.258 . S
O501 Nd480 2.492 . S
O501 C482 1.239 . S
O502 Nd480 2.487 1_545 S
O502 C489 1.241 . S
O503 Nd480 2.682 1_545 S
O503 Nd481 2.414 1_455 S
O503 C489 1.273 . S
O504 Nd480 2.410 . S
O504 C490 1.251 1_455 S
O505 Nd481 2.424 1_565 S
O505 C490 1.268 . S
O506 Nd481 2.500 . S
O506 C491 1.258 . S
O507 Nd481 2.492 . S
O507 C491 1.239 . S
O508 Nd481 2.487 1_565 S
O508 C498 1.241 . S
O509 Nd480 2.414 1_655 S
O509 Nd481 2.682 1_565 S
O509 C498 1.273 . S
O510 Nd481 2.410 . S
O510 C499 1.251 1_655 S
O511 Nd480 2.424 1_545 S
O511 C499 1.268 . S
H512 C484 0.930 . S
H513 C485 0.929 . S
H514 C487 0.930 . S
H515 C488 0.929 . S
H516 C493 0.930 . S
H517 C494 0.929 . S
H518 C496 0.930 . S
H519 C497 0.929 . S
Nd520 C522 2.836 . S
Nd520 O540 2.500 . S
Nd520 O541 2.492 . S
Nd520 O542 2.487 1_565 S
Nd520 O543 2.682 1_565 S
Nd520 O544 2.410 1_554 S
Nd520 O549 2.414 1_554 S
Nd520 O551 2.424 1_565 S
Nd521 C531 2.836 . S
Nd521 O543 2.414 1_556 S
Nd521 O545 2.424 1_545 S
Nd521 O546 2.500 . S
Nd521 O547 2.492 . S
Nd521 O548 2.487 1_545 S
Nd521 O549 2.682 1_545 S
Nd521 O550 2.410 1_556 S
C522 Nd520 2.836 . S
C522 C523 1.498 . S
C522 O540 1.258 . S
C522 O541 1.239 . S
C523 C522 1.498 . S
C523 C524 1.366 . S
C523 C528 1.407 . S
C524 C523 1.366 . S
C524 C525 1.392 . S
C524 H552 0.930 . S
C525 C524 1.392 . S
C525 C526 1.398 . S
C525 H553 0.929 . S
C526 C525 1.398 . S
C526 C527 1.352 . S
C527 C526 1.352 . S
C527 C528 1.384 . S
C527 H554 0.930 . S
C528 C523 1.407 . S
C528 C527 1.384 . S
C528 H555 0.929 . S
C529 O542 1.241 . S
C529 O543 1.273 . S
C530 O544 1.251 . S
C530 O545 1.268 . S
C531 Nd521 2.836 . S
C531 C532 1.498 . S
C531 O546 1.258 . S
C531 O547 1.239 . S
C532 C531 1.498 . S
C532 C533 1.366 . S
C532 C537 1.407 . S
C533 C532 1.366 . S
C533 C534 1.392 . S
C533 H556 0.930 . S
C534 C533 1.392 . S
C534 C535 1.398 . S
C534 H557 0.929 . S
C535 C534 1.398 . S
C535 C536 1.352 . S
C536 C535 1.352 . S
C536 C537 1.384 . S
C536 H558 0.930 . S
C537 C532 1.407 . S
C537 C536 1.384 . S
C537 H559 0.929 . S
C538 O548 1.241 . S
C538 O549 1.273 . S
C539 O550 1.251 . S
C539 O551 1.268 . S
O540 Nd520 2.500 . S
O540 C522 1.258 . S
O541 Nd520 2.492 . S
O541 C522 1.239 . S
O542 Nd520 2.487 1_545 S
O542 C529 1.241 . S
O543 Nd520 2.682 1_545 S
O543 Nd521 2.414 1_554 S
O543 C529 1.273 . S
O544 Nd520 2.410 1_556 S
O544 C530 1.251 . S
O545 Nd521 2.424 1_565 S
O545 C530 1.268 . S
O546 Nd521 2.500 . S
O546 C531 1.258 . S
O547 Nd521 2.492 . S
O547 C531 1.239 . S
O548 Nd521 2.487 1_565 S
O548 C538 1.241 . S
O549 Nd520 2.414 1_556 S
O549 Nd521 2.682 1_565 S
O549 C538 1.273 . S
O550 Nd521 2.410 1_554 S
O550 C539 1.251 . S
O551 Nd520 2.424 1_545 S
O551 C539 1.268 . S
H552 C524 0.930 . S
H553 C525 0.929 . S
H554 C527 0.930 . S
H555 C528 0.929 . S
H556 C533 0.930 . S
H557 C534 0.929 . S
H558 C536 0.930 . S
H559 C537 0.929 . S
Nd560 C562 2.836 . S
Nd560 O580 2.500 . S
Nd560 O581 2.492 . S
Nd560 O582 2.487 . S
Nd560 O583 2.682 . S
Nd560 O584 2.410 . S
Nd560 O589 2.414 . S
Nd560 O591 2.424 . S
Nd561 C571 2.836 . S
Nd561 O583 2.414 . S
Nd561 O585 2.424 . S
Nd561 O586 2.500 . S
Nd561 O587 2.492 . S
Nd561 O588 2.487 . S
Nd561 O589 2.682 . S
Nd561 O590 2.410 . S
C562 Nd560 2.836 . S
C562 C563 1.498 . S
C562 O580 1.258 . S
C562 O581 1.239 . S
C563 C562 1.498 . S
C563 C564 1.366 . S
C563 C568 1.407 . S
C564 C563 1.366 . S
C564 C565 1.392 . S
C564 H592 0.930 . S
C565 C564 1.392 . S
C565 C566 1.398 . S
C565 H593 0.929 . S
C566 C565 1.398 . S
C566 C567 1.352 . S
C567 C566 1.352 . S
C567 C568 1.384 . S
C567 H594 0.930 . S
C568 C563 1.407 . S
C568 C567 1.384 . S
C568 H595 0.929 . S
C569 O582 1.241 . S
C569 O583 1.273 . S
C570 O584 1.251 . S
C570 O585 1.268 . S
C571 Nd561 2.836 . S
C571 C572 1.498 . S
C571 O586 1.258 . S
C571 O587 1.239 . S
C572 C571 1.498 . S
C572 C573 1.366 . S
C572 C577 1.407 . S
C573 C572 1.366 . S
C573 C574 1.392 . S
C573 H596 0.930 . S
C574 C573 1.392 . S
C574 C575 1.398 . S
C574 H597 0.929 . S
C575 C574 1.398 . S
C575 C576 1.352 . S
C576 C575 1.352 . S
C576 C577 1.384 . S
C576 H598 0.930 . S
C577 C572 1.407 . S
C577 C576 1.384 . S
C577 H599 0.929 . S
C578 O588 1.241 . S
C578 O589 1.273 . S
C579 O590 1.251 . S
C579 O591 1.268 . S
O580 Nd560 2.500 . S
O580 C562 1.258 . S
O581 Nd560 2.492 . S
O581 C562 1.239 . S
O582 Nd560 2.487 . S
O582 C569 1.241 . S
O583 Nd560 2.682 . S
O583 Nd561 2.414 . S
O583 C569 1.273 . S
O584 Nd560 2.410 . S
O584 C570 1.251 . S
O585 Nd561 2.424 . S
O585 C570 1.268 . S
O586 Nd561 2.500 . S
O586 C571 1.258 . S
O587 Nd561 2.492 . S
O587 C571 1.239 . S
O588 Nd561 2.487 . S
O588 C578 1.241 . S
O589 Nd560 2.414 . S
O589 Nd561 2.682 . S
O589 C578 1.273 . S
O590 Nd561 2.410 . S
O590 C579 1.251 . S
O591 Nd560 2.424 . S
O591 C579 1.268 . S
H592 C564 0.930 . S
H593 C565 0.929 . S
H594 C567 0.930 . S
H595 C568 0.929 . S
H596 C573 0.930 . S
H597 C574 0.929 . S
H598 C576 0.930 . S
H599 C577 0.929 . S
Nd600 C602 2.836 . S
Nd600 O620 2.500 . S
Nd600 O621 2.492 . S
Nd600 O622 2.487 1_655 S
Nd600 O623 2.682 1_655 S
Nd600 O624 2.410 . S
Nd600 O629 2.414 1_554 S
Nd600 O631 2.424 1_655 S
Nd601 C611 2.836 . S
Nd601 O623 2.414 1_556 S
Nd601 O625 2.424 1_455 S
Nd601 O626 2.500 . S
Nd601 O627 2.492 . S
Nd601 O628 2.487 1_455 S
Nd601 O629 2.682 1_455 S
Nd601 O630 2.410 . S
C602 Nd600 2.836 . S
C602 C603 1.498 . S
C602 O620 1.258 . S
C602 O621 1.239 . S
C603 C602 1.498 . S
C603 C604 1.366 . S
C603 C608 1.407 . S
C604 C603 1.366 . S
C604 C605 1.392 . S
C604 H632 0.930 . S
C605 C604 1.392 . S
C605 C606 1.398 . S
C605 H633 0.929 . S
C606 C605 1.398 . S
C606 C607 1.352 . S
C607 C606 1.352 . S
C607 C608 1.384 . S
C607 H634 0.930 . S
C608 C603 1.407 . S
C608 C607 1.384 . S
C608 H635 0.929 . S
C609 O622 1.241 . S
C609 O623 1.273 . S
C610 O624 1.251 1_556 S
C610 O625 1.268 . S
C611 Nd601 2.836 . S
C611 C612 1.498 . S
C611 O626 1.258 . S
C611 O627 1.239 . S
C612 C611 1.498 . S
C612 C613 1.366 . S
C612 C617 1.407 . S
C613 C612 1.366 . S
C613 C614 1.392 . S
C613 H636 0.930 . S
C614 C613 1.392 . S
C614 C615 1.398 . S
C614 H637 0.929 . S
C615 C614 1.398 . S
C615 C616 1.352 . S
C616 C615 1.352 . S
C616 C617 1.384 . S
C616 H638 0.930 . S
C617 C612 1.407 . S
C617 C616 1.384 . S
C617 H639 0.929 . S
C618 O628 1.241 . S
C618 O629 1.273 . S
C619 O630 1.251 1_554 S
C619 O631 1.268 . S
O620 Nd600 2.500 . S
O620 C602 1.258 . S
O621 Nd600 2.492 . S
O621 C602 1.239 . S
O622 Nd600 2.487 1_455 S
O622 C609 1.241 . S
O623 Nd600 2.682 1_455 S
O623 Nd601 2.414 1_554 S
O623 C609 1.273 . S
O624 Nd600 2.410 . S
O624 C610 1.251 1_554 S
O625 Nd601 2.424 1_655 S
O625 C610 1.268 . S
O626 Nd601 2.500 . S
O626 C611 1.258 . S
O627 Nd601 2.492 . S
O627 C611 1.239 . S
O628 Nd601 2.487 1_655 S
O628 C618 1.241 . S
O629 Nd600 2.414 1_556 S
O629 Nd601 2.682 1_655 S
O629 C618 1.273 . S
O630 Nd601 2.410 . S
O630 C619 1.251 1_556 S
O631 Nd600 2.424 1_455 S
O631 C619 1.268 . S
H632 C604 0.930 . S
H633 C605 0.929 . S
H634 C607 0.930 . S
H635 C608 0.929 . S
H636 C613 0.930 . S
H637 C614 0.929 . S
H638 C616 0.930 . S
H639 C617 0.929 . S
C640 C641 1.349 . S
C640 C642 1.327 . S
C640 H665 0.950 . S
C641 C640 1.349 . S
C641 C657 1.349 . S
C642 C640 1.327 . S
C642 C661 1.429 . S
C642 H666 0.950 . S
C643 C660 1.574 . S
C643 C662 1.368 . S
C643 H667 0.949 . S
H644 C648 0.949 . S
C645 C646 1.349 . S
C645 C647 1.327 . S
C645 H668 0.950 . S
C646 C645 1.349 . S
C646 C658 1.349 . S
C647 C645 1.327 . S
C647 C663 1.429 . S
C647 H669 0.950 . S
C648 H644 0.949 . S
C648 C656 1.574 . S
C648 C664 1.368 . S
H649 C657 0.950 . S
H650 C655 0.950 . S
H651 C656 0.949 . S
H652 C658 0.950 . S
H653 C659 0.950 . S
H654 C660 0.949 . S
C655 H650 0.950 . S
C655 C657 1.327 . S
C655 C661 1.429 . S
C656 C648 1.574 . S
C656 H651 0.949 . S
C656 C662 1.368 . S
C657 C641 1.349 . S
C657 H649 0.950 . S
C657 C655 1.327 . S
C658 C646 1.349 . S
C658 H652 0.950 . S
C658 C659 1.327 . S
C659 H653 0.950 . S
C659 C658 1.327 . S
C659 C663 1.429 . S
C660 C643 1.574 . S
C660 H654 0.949 . S
C660 C664 1.368 . S
C661 C642 1.429 . S
C661 C655 1.429 . S
C661 C662 1.523 . S
C662 C643 1.368 . S
C662 C656 1.368 . S
C662 C661 1.523 . S
C663 C647 1.429 . S
C663 C659 1.429 . S
C663 C664 1.523 . S
C664 C648 1.368 . S
C664 C660 1.368 . S
C664 C663 1.523 . S
H665 C640 0.950 . S
H666 C642 0.950 . S
H667 C643 0.949 . S
H668 C645 0.950 . S
H669 C647 0.950 . S
C670 C671 1.349 . S
C670 C672 1.327 . S
C670 H695 0.950 . S
C671 C670 1.349 . S
C671 C687 1.349 . S
C672 C670 1.327 . S
C672 C691 1.429 . S
C672 H696 0.950 . S
C673 C690 1.574 . S
C673 C692 1.368 . S
C673 H697 0.949 . S
H674 C678 0.949 . S
C675 C676 1.349 . S
C675 C677 1.327 . S
C675 H698 0.950 . S
C676 C675 1.349 . S
C676 C688 1.349 . S
C677 C675 1.327 . S
C677 C693 1.429 . S
C677 H699 0.950 . S
C678 H674 0.949 . S
C678 C686 1.574 . S
C678 C694 1.368 . S
H679 C687 0.950 . S
H680 C685 0.950 . S
H681 C686 0.949 . S
H682 C688 0.950 . S
H683 C689 0.950 . S
H684 C690 0.949 . S
C685 H680 0.950 . S
C685 C687 1.327 . S
C685 C691 1.429 . S
C686 C678 1.574 . S
C686 H681 0.949 . S
C686 C692 1.368 . S
C687 C671 1.349 . S
C687 H679 0.950 . S
C687 C685 1.327 . S
C688 C676 1.349 . S
C688 H682 0.950 . S
C688 C689 1.327 . S
C689 H683 0.950 . S
C689 C688 1.327 . S
C689 C693 1.429 . S
C690 C673 1.574 . S
C690 H684 0.949 . S
C690 C694 1.368 . S
C691 C672 1.429 . S
C691 C685 1.429 . S
C691 C692 1.523 . S
C692 C673 1.368 . S
C692 C686 1.368 . S
C692 C691 1.523 . S
C693 C677 1.429 . S
C693 C689 1.429 . S
C693 C694 1.523 . S
C694 C678 1.368 . S
C694 C690 1.368 . S
C694 C693 1.523 . S
H695 C670 0.950 . S
H696 C672 0.950 . S
H697 C673 0.949 . S
H698 C675 0.950 . S
H699 C677 0.950 . S
C700 C701 1.349 . S
C700 C702 1.327 . S
C700 H725 0.950 . S
C701 C700 1.349 . S
C701 C717 1.349 . S
C702 C700 1.327 . S
C702 C721 1.429 . S
C702 H726 0.950 . S
C703 C720 1.574 . S
C703 C722 1.368 . S
C703 H727 0.949 . S
H704 C708 0.949 . S
C705 C706 1.349 . S
C705 C707 1.327 . S
C705 H728 0.950 . S
C706 C705 1.349 . S
C706 C718 1.349 . S
C707 C705 1.327 . S
C707 C723 1.429 . S
C707 H729 0.950 . S
C708 H704 0.949 . S
C708 C716 1.574 . S
C708 C724 1.368 . S
H709 C717 0.950 . S
H710 C715 0.950 . S
H711 C716 0.949 . S
H712 C718 0.950 . S
H713 C719 0.950 . S
H714 C720 0.949 . S
C715 H710 0.950 . S
C715 C717 1.327 . S
C715 C721 1.429 . S
C716 C708 1.574 . S
C716 H711 0.949 . S
C716 C722 1.368 . S
C717 C701 1.349 . S
C717 H709 0.950 . S
C717 C715 1.327 . S
C718 C706 1.349 . S
C718 H712 0.950 . S
C718 C719 1.327 . S
C719 H713 0.950 . S
C719 C718 1.327 . S
C719 C723 1.429 . S
C720 C703 1.574 . S
C720 H714 0.949 . S
C720 C724 1.368 . S
C721 C702 1.429 . S
C721 C715 1.429 . S
C721 C722 1.523 . S
C722 C703 1.368 . S
C722 C716 1.368 . S
C722 C721 1.523 . S
C723 C707 1.429 . S
C723 C719 1.429 . S
C723 C724 1.523 . S
C724 C708 1.368 . S
C724 C720 1.368 . S
C724 C723 1.523 . S
H725 C700 0.950 . S
H726 C702 0.950 . S
H727 C703 0.949 . S
H728 C705 0.950 . S
H729 C707 0.950 . S
C730 C731 1.349 . S
C730 C732 1.327 . S
C730 H755 0.950 . S
C731 C730 1.349 . S
C731 C747 1.349 . S
C732 C730 1.327 . S
C732 C751 1.429 . S
C732 H756 0.950 . S
C733 C750 1.574 . S
C733 C752 1.368 . S
C733 H757 0.949 . S
H734 C738 0.949 . S
C735 C736 1.349 . S
C735 C737 1.327 . S
C735 H758 0.950 . S
C736 C735 1.349 . S
C736 C748 1.349 . S
C737 C735 1.327 . S
C737 C753 1.429 . S
C737 H759 0.950 . S
C738 H734 0.949 . S
C738 C746 1.574 . S
C738 C754 1.368 . S
H739 C747 0.950 . S
H740 C745 0.950 . S
H741 C746 0.949 . S
H742 C748 0.950 . S
H743 C749 0.950 . S
H744 C750 0.949 . S
C745 H740 0.950 . S
C745 C747 1.327 . S
C745 C751 1.429 . S
C746 C738 1.574 . S
C746 H741 0.949 . S
C746 C752 1.368 . S
C747 C731 1.349 . S
C747 H739 0.950 . S
C747 C745 1.327 . S
C748 C736 1.349 . S
C748 H742 0.950 . S
C748 C749 1.327 . S
C749 H743 0.950 . S
C749 C748 1.327 . S
C749 C753 1.429 . S
C750 C733 1.574 . S
C750 H744 0.949 . S
C750 C754 1.368 . S
C751 C732 1.429 . S
C751 C745 1.429 . S
C751 C752 1.523 . S
C752 C733 1.368 . S
C752 C746 1.368 . S
C752 C751 1.523 . S
C753 C737 1.429 . S
C753 C749 1.429 . S
C753 C754 1.523 . S
C754 C738 1.368 . S
C754 C750 1.368 . S
C754 C753 1.523 . S
H755 C730 0.950 . S
H756 C732 0.950 . S
H757 C733 0.949 . S
H758 C735 0.950 . S
H759 C737 0.950 . S
C760 C761 1.349 . S
C760 C762 1.327 . S
C760 H785 0.950 . S
C761 C760 1.349 . S
C761 C777 1.349 . S
C762 C760 1.327 . S
C762 C781 1.429 . S
C762 H786 0.950 . S
C763 C780 1.574 . S
C763 C782 1.368 . S
C763 H787 0.949 . S
H764 C768 0.949 . S
C765 C766 1.349 . S
C765 C767 1.327 . S
C765 H788 0.950 . S
C766 C765 1.349 . S
C766 C778 1.349 . S
C767 C765 1.327 . S
C767 C783 1.429 . S
C767 H789 0.950 . S
C768 H764 0.949 . S
C768 C776 1.574 . S
C768 C784 1.368 . S
H769 C777 0.950 . S
H770 C775 0.950 . S
H771 C776 0.949 . S
H772 C778 0.950 . S
H773 C779 0.950 . S
H774 C780 0.949 . S
C775 H770 0.950 . S
C775 C777 1.327 . S
C775 C781 1.429 . S
C776 C768 1.574 . S
C776 H771 0.949 . S
C776 C782 1.368 . S
C777 C761 1.349 . S
C777 H769 0.950 . S
C777 C775 1.327 . S
C778 C766 1.349 . S
C778 H772 0.950 . S
C778 C779 1.327 . S
C779 H773 0.950 . S
C779 C778 1.327 . S
C779 C783 1.429 . S
C780 C763 1.574 . S
C780 H774 0.949 . S
C780 C784 1.368 . S
C781 C762 1.429 . S
C781 C775 1.429 . S
C781 C782 1.523 . S
C782 C763 1.368 . S
C782 C776 1.368 . S
C782 C781 1.523 . S
C783 C767 1.429 . S
C783 C779 1.429 . S
C783 C784 1.523 . S
C784 C768 1.368 . S
C784 C780 1.368 . S
C784 C783 1.523 . S
H785 C760 0.950 . S
H786 C762 0.950 . S
H787 C763 0.949 . S
H788 C765 0.950 . S
H789 C767 0.950 . S
C790 C791 1.349 . S
C790 C792 1.327 . S
C790 H815 0.950 . S
C791 C790 1.349 . S
C791 C807 1.349 . S
C792 C790 1.327 . S
C792 C811 1.429 . S
C792 H816 0.950 . S
C793 C810 1.574 . S
C793 C812 1.368 . S
C793 H817 0.949 . S
H794 C798 0.949 . S
C795 C796 1.349 . S
C795 C797 1.327 . S
C795 H818 0.950 . S
C796 C795 1.349 . S
C796 C808 1.349 . S
C797 C795 1.327 . S
C797 C813 1.429 . S
C797 H819 0.950 . S
C798 H794 0.949 . S
C798 C806 1.574 . S
C798 C814 1.368 . S
H799 C807 0.950 . S
H800 C805 0.950 . S
H801 C806 0.949 . S
H802 C808 0.950 . S
H803 C809 0.950 . S
H804 C810 0.949 . S
C805 H800 0.950 . S
C805 C807 1.327 . S
C805 C811 1.429 . S
C806 C798 1.574 . S
C806 H801 0.949 . S
C806 C812 1.368 . S
C807 C791 1.349 . S
C807 H799 0.950 . S
C807 C805 1.327 . S
C808 C796 1.349 . S
C808 H802 0.950 . S
C808 C809 1.327 . S
C809 H803 0.950 . S
C809 C808 1.327 . S
C809 C813 1.429 . S
C810 C793 1.574 . S
C810 H804 0.949 . S
C810 C814 1.368 . S
C811 C792 1.429 . S
C811 C805 1.429 . S
C811 C812 1.523 . S
C812 C793 1.368 . S
C812 C806 1.368 . S
C812 C811 1.523 . S
C813 C797 1.429 . S
C813 C809 1.429 . S
C813 C814 1.523 . S
C814 C798 1.368 . S
C814 C810 1.368 . S
C814 C813 1.523 . S
H815 C790 0.950 . S
H816 C792 0.950 . S
H817 C793 0.949 . S
H818 C795 0.950 . S
H819 C797 0.950 . S
C820 C821 1.349 . S
C820 C822 1.327 . S
C820 H845 0.950 . S
C821 C820 1.349 . S
C821 C837 1.349 . S
C822 C820 1.327 . S
C822 C841 1.429 . S
C822 H846 0.950 . S
C823 C840 1.574 . S
C823 C842 1.368 . S
C823 H847 0.949 . S
H824 C828 0.949 . S
C825 C826 1.349 . S
C825 C827 1.327 . S
C825 H848 0.950 . S
C826 C825 1.349 . S
C826 C838 1.349 . S
C827 C825 1.327 . S
C827 C843 1.429 . S
C827 H849 0.950 . S
C828 H824 0.949 . S
C828 C836 1.574 . S
C828 C844 1.368 . S
H829 C837 0.950 . S
H830 C835 0.950 . S
H831 C836 0.949 . S
H832 C838 0.950 . S
H833 C839 0.950 . S
H834 C840 0.949 . S
C835 H830 0.950 . S
C835 C837 1.327 . S
C835 C841 1.429 . S
C836 C828 1.574 . S
C836 H831 0.949 . S
C836 C842 1.368 . S
C837 C821 1.349 . S
C837 H829 0.950 . S
C837 C835 1.327 . S
C838 C826 1.349 . S
C838 H832 0.950 . S
C838 C839 1.327 . S
C839 H833 0.950 . S
C839 C838 1.327 . S
C839 C843 1.429 . S
C840 C823 1.574 . S
C840 H834 0.949 . S
C840 C844 1.368 . S
C841 C822 1.429 . S
C841 C835 1.429 . S
C841 C842 1.523 . S
C842 C823 1.368 . S
C842 C836 1.368 . S
C842 C841 1.523 . S
C843 C827 1.429 . S
C843 C839 1.429 . S
C843 C844 1.523 . S
C844 C828 1.368 . S
C844 C840 1.368 . S
C844 C843 1.523 . S
H845 C820 0.950 . S
H846 C822 0.950 . S
H847 C823 0.949 . S
H848 C825 0.950 . S
H849 C827 0.950 . S
C850 C851 1.349 . S
C850 C852 1.327 . S
C850 H875 0.950 . S
C851 C850 1.349 . S
C851 C867 1.349 . S
C852 C850 1.327 . S
C852 C871 1.429 . S
C852 H876 0.950 . S
C853 C870 1.574 . S
C853 C872 1.368 . S
C853 H877 0.949 . S
H854 C858 0.949 . S
C855 C856 1.349 . S
C855 C857 1.327 . S
C855 H878 0.950 . S
C856 C855 1.349 . S
C856 C868 1.349 . S
C857 C855 1.327 . S
C857 C873 1.429 . S
C857 H879 0.950 . S
C858 H854 0.949 . S
C858 C866 1.574 . S
C858 C874 1.368 . S
H859 C867 0.950 . S
H860 C865 0.950 . S
H861 C866 0.949 . S
H862 C868 0.950 . S
H863 C869 0.950 . S
H864 C870 0.949 . S
C865 H860 0.950 . S
C865 C867 1.327 . S
C865 C871 1.429 . S
C866 C858 1.574 . S
C866 H861 0.949 . S
C866 C872 1.368 . S
C867 C851 1.349 . S
C867 H859 0.950 . S
C867 C865 1.327 . S
C868 C856 1.349 . S
C868 H862 0.950 . S
C868 C869 1.327 . S
C869 H863 0.950 . S
C869 C868 1.327 . S
C869 C873 1.429 . S
C870 C853 1.574 . S
C870 H864 0.949 . S
C870 C874 1.368 . S
C871 C852 1.429 . S
C871 C865 1.429 . S
C871 C872 1.523 . S
C872 C853 1.368 . S
C872 C866 1.368 . S
C872 C871 1.523 . S
C873 C857 1.429 . S
C873 C869 1.429 . S
C873 C874 1.523 . S
C874 C858 1.368 . S
C874 C870 1.368 . S
C874 C873 1.523 . S
H875 C850 0.950 . S
H876 C852 0.950 . S
H877 C853 0.949 . S
H878 C855 0.950 . S
H879 C857 0.950 . S
C880 C881 1.349 . S
C880 C882 1.327 . S
C880 H905 0.950 . S
C881 C880 1.349 . S
C881 C897 1.349 . S
C882 C880 1.327 . S
C882 C901 1.429 . S
C882 H906 0.950 . S
C883 C900 1.574 . S
C883 C902 1.368 . S
C883 H907 0.949 . S
H884 C888 0.949 . S
C885 C886 1.349 . S
C885 C887 1.327 . S
C885 H908 0.950 . S
C886 C885 1.349 . S
C886 C898 1.349 . S
C887 C885 1.327 . S
C887 C903 1.429 . S
C887 H909 0.950 . S
C888 H884 0.949 . S
C888 C896 1.574 . S
C888 C904 1.368 . S
H889 C897 0.950 . S
H890 C895 0.950 . S
H891 C896 0.949 . S
H892 C898 0.950 1_556 S
H893 C899 0.950 . S
H894 C900 0.949 . S
C895 H890 0.950 . S
C895 C897 1.327 . S
C895 C901 1.429 . S
C896 C888 1.574 . S
C896 H891 0.949 . S
C896 C902 1.368 . S
C897 C881 1.349 . S
C897 H889 0.950 . S
C897 C895 1.327 . S
C898 C886 1.349 . S
C898 H892 0.950 1_554 S
C898 C899 1.327 . S
C899 H893 0.950 . S
C899 C898 1.327 . S
C899 C903 1.429 . S
C900 C883 1.574 . S
C900 H894 0.949 . S
C900 C904 1.368 . S
C901 C882 1.429 . S
C901 C895 1.429 . S
C901 C902 1.523 . S
C902 C883 1.368 . S
C902 C896 1.368 . S
C902 C901 1.523 . S
C903 C887 1.429 . S
C903 C899 1.429 . S
C903 C904 1.523 . S
C904 C888 1.368 . S
C904 C900 1.368 . S
C904 C903 1.523 . S
H905 C880 0.950 . S
H906 C882 0.950 . S
H907 C883 0.949 . S
H908 C885 0.950 . S
H909 C887 0.950 . S
C910 C911 1.349 . S
C910 C912 1.327 . S
C910 H935 0.950 . S
C911 C910 1.349 . S
C911 C927 1.349 . S
C912 C910 1.327 . S
C912 C931 1.429 . S
C912 H936 0.950 . S
C913 C930 1.574 . S
C913 C932 1.368 . S
C913 H937 0.949 . S
H914 C918 0.949 . S
C915 C916 1.349 . S
C915 C917 1.327 . S
C915 H938 0.950 . S
C916 C915 1.349 . S
C916 C928 1.349 . S
C917 C915 1.327 . S
C917 C933 1.429 . S
C917 H939 0.950 . S
C918 H914 0.949 . S
C918 C926 1.574 . S
C918 C934 1.368 . S
H919 C927 0.950 . S
H920 C925 0.950 . S
H921 C926 0.949 . S
H922 C928 0.950 . S
H923 C929 0.950 . S
H924 C930 0.949 . S
C925 H920 0.950 . S
C925 C927 1.327 . S
C925 C931 1.429 . S
C926 C918 1.574 . S
C926 H921 0.949 . S
C926 C932 1.368 . S
C927 C911 1.349 . S
C927 H919 0.950 . S
C927 C925 1.327 . S
C928 C916 1.349 . S
C928 H922 0.950 . S
C928 C929 1.327 . S
C929 H923 0.950 . S
C929 C928 1.327 . S
C929 C933 1.429 . S
C930 C913 1.574 . S
C930 H924 0.949 . S
C930 C934 1.368 . S
C931 C912 1.429 . S
C931 C925 1.429 . S
C931 C932 1.523 . S
C932 C913 1.368 . S
C932 C926 1.368 . S
C932 C931 1.523 . S
C933 C917 1.429 . S
C933 C929 1.429 . S
C933 C934 1.523 . S
C934 C918 1.368 . S
C934 C930 1.368 . S
C934 C933 1.523 . S
H935 C910 0.950 . S
H936 C912 0.950 . S
H937 C913 0.949 . S
H938 C915 0.950 . S
H939 C917 0.950 . S
C940 C941 1.349 . S
C940 C942 1.327 . S
C940 H965 0.950 . S
C941 C940 1.349 . S
C941 C957 1.349 . S
C942 C940 1.327 . S
C942 C961 1.429 . S
C942 H966 0.950 . S
C943 C960 1.574 . S
C943 C962 1.368 . S
C943 H967 0.949 . S
H944 C948 0.949 . S
C945 C946 1.349 . S
C945 C947 1.327 . S
C945 H968 0.950 . S
C946 C945 1.349 . S
C946 C958 1.349 . S
C947 C945 1.327 . S
C947 C963 1.429 . S
C947 H969 0.950 . S
C948 H944 0.949 . S
C948 C956 1.574 . S
C948 C964 1.368 . S
H949 C957 0.950 . S
H950 C955 0.950 . S
H951 C956 0.949 . S
H952 C958 0.950 . S
H953 C959 0.950 . S
H954 C960 0.949 . S
C955 H950 0.950 . S
C955 C957 1.327 . S
C955 C961 1.429 . S
C956 C948 1.574 . S
C956 H951 0.949 . S
C956 C962 1.368 . S
C957 C941 1.349 . S
C957 H949 0.950 . S
C957 C955 1.327 . S
C958 C946 1.349 . S
C958 H952 0.950 . S
C958 C959 1.327 . S
C959 H953 0.950 . S
C959 C958 1.327 . S
C959 C963 1.429 . S
C960 C943 1.574 . S
C960 H954 0.949 . S
C960 C964 1.368 . S
C961 C942 1.429 . S
C961 C955 1.429 . S
C961 C962 1.523 . S
C962 C943 1.368 . S
C962 C956 1.368 . S
C962 C961 1.523 . S
C963 C947 1.429 . S
C963 C959 1.429 . S
C963 C964 1.523 . S
C964 C948 1.368 . S
C964 C960 1.368 . S
C964 C963 1.523 . S
H965 C940 0.950 . S
H966 C942 0.950 . S
H967 C943 0.949 . S
H968 C945 0.950 . S
H969 C947 0.950 . S
C970 C971 1.349 . S
C970 C972 1.327 . S
C970 H995 0.950 . S
C971 C970 1.349 . S
C971 C987 1.349 . S
C972 C970 1.327 . S
C972 C991 1.429 . S
C972 H996 0.950 . S
C973 C990 1.574 . S
C973 C992 1.368 . S
C973 H997 0.949 . S
H974 C978 0.949 . S
C975 C976 1.349 . S
C975 C977 1.327 . S
C975 H998 0.950 . S
C976 C975 1.349 . S
C976 C988 1.349 . S
C977 C975 1.327 . S
C977 C993 1.429 . S
C977 H999 0.950 . S
C978 H974 0.949 . S
C978 C986 1.574 . S
C978 C994 1.368 . S
H979 C987 0.950 . S
H980 C985 0.950 . S
H981 C986 0.949 . S
H982 C988 0.950 . S
H983 C989 0.950 . S
H984 C990 0.949 . S
C985 H980 0.950 . S
C985 C987 1.327 . S
C985 C991 1.429 . S
C986 C978 1.574 . S
C986 H981 0.949 . S
C986 C992 1.368 . S
C987 C971 1.349 . S
C987 H979 0.950 . S
C987 C985 1.327 . S
C988 C976 1.349 . S
C988 H982 0.950 . S
C988 C989 1.327 . S
C989 H983 0.950 . S
C989 C988 1.327 . S
C989 C993 1.429 . S
C990 C973 1.574 . S
C990 H984 0.949 . S
C990 C994 1.368 . S
C991 C972 1.429 . S
C991 C985 1.429 . S
C991 C992 1.523 . S
C992 C973 1.368 . S
C992 C986 1.368 . S
C992 C991 1.523 . S
C993 C977 1.429 . S
C993 C989 1.429 . S
C993 C994 1.523 . S
C994 C978 1.368 . S
C994 C990 1.368 . S
C994 C993 1.523 . S
H995 C970 0.950 . S
H996 C972 0.950 . S
H997 C973 0.949 . S
H998 C975 0.950 . S
H999 C977 0.950 . S
C1000 C1001 1.349 . S
C1000 C1002 1.327 . S
C1000 H1025 0.950 . S
C1001 C1000 1.349 . S
C1001 C1017 1.349 . S
C1002 C1000 1.327 . S
C1002 C1021 1.429 . S
C1002 H1026 0.950 . S
C1003 C1020 1.574 . S
C1003 C1022 1.368 . S
C1003 H1027 0.949 . S
H1004 C1008 0.949 . S
C1005 C1006 1.349 . S
C1005 C1007 1.327 . S
C1005 H1028 0.950 . S
C1006 C1005 1.349 . S
C1006 C1018 1.349 . S
C1007 C1005 1.327 . S
C1007 C1023 1.429 . S
C1007 H1029 0.950 . S
C1008 H1004 0.949 . S
C1008 C1016 1.574 . S
C1008 C1024 1.368 . S
H1009 C1017 0.950 . S
H1010 C1015 0.950 . S
H1011 C1016 0.949 . S
H1012 C1018 0.950 . S
H1013 C1019 0.950 . S
H1014 C1020 0.949 . S
C1015 H1010 0.950 . S
C1015 C1017 1.327 . S
C1015 C1021 1.429 . S
C1016 C1008 1.574 . S
C1016 H1011 0.949 . S
C1016 C1022 1.368 . S
C1017 C1001 1.349 . S
C1017 H1009 0.950 . S
C1017 C1015 1.327 . S
C1018 C1006 1.349 . S
C1018 H1012 0.950 . S
C1018 C1019 1.327 . S
C1019 H1013 0.950 . S
C1019 C1018 1.327 . S
C1019 C1023 1.429 . S
C1020 C1003 1.574 . S
C1020 H1014 0.949 . S
C1020 C1024 1.368 . S
C1021 C1002 1.429 . S
C1021 C1015 1.429 . S
C1021 C1022 1.523 . S
C1022 C1003 1.368 . S
C1022 C1016 1.368 . S
C1022 C1021 1.523 . S
C1023 C1007 1.429 . S
C1023 C1019 1.429 . S
C1023 C1024 1.523 . S
C1024 C1008 1.368 . S
C1024 C1020 1.368 . S
C1024 C1023 1.523 . S
H1025 C1000 0.950 . S
H1026 C1002 0.950 . S
H1027 C1003 0.949 . S
H1028 C1005 0.950 . S
H1029 C1007 0.950 . S
C1030 C1031 1.349 . S
C1030 C1032 1.327 . S
C1030 H1055 0.950 . S
C1031 C1030 1.349 . S
C1031 C1047 1.349 . S
C1032 C1030 1.327 . S
C1032 C1051 1.429 . S
C1032 H1056 0.950 . S
C1033 C1050 1.574 . S
C1033 C1052 1.368 . S
C1033 H1057 0.949 . S
H1034 C1038 0.949 . S
C1035 C1036 1.349 . S
C1035 C1037 1.327 . S
C1035 H1058 0.950 . S
C1036 C1035 1.349 . S
C1036 C1048 1.349 . S
C1037 C1035 1.327 . S
C1037 C1053 1.429 . S
C1037 H1059 0.950 . S
C1038 H1034 0.949 . S
C1038 C1046 1.574 . S
C1038 C1054 1.368 . S
H1039 C1047 0.950 . S
H1040 C1045 0.950 . S
H1041 C1046 0.949 . S
H1042 C1048 0.950 . S
H1043 C1049 0.950 . S
H1044 C1050 0.949 . S
C1045 H1040 0.950 . S
C1045 C1047 1.327 . S
C1045 C1051 1.429 . S
C1046 C1038 1.574 . S
C1046 H1041 0.949 . S
C1046 C1052 1.368 . S
C1047 C1031 1.349 . S
C1047 H1039 0.950 . S
C1047 C1045 1.327 . S
C1048 C1036 1.349 . S
C1048 H1042 0.950 . S
C1048 C1049 1.327 . S
C1049 H1043 0.950 . S
C1049 C1048 1.327 . S
C1049 C1053 1.429 . S
C1050 C1033 1.574 . S
C1050 H1044 0.949 . S
C1050 C1054 1.368 . S
C1051 C1032 1.429 . S
C1051 C1045 1.429 . S
C1051 C1052 1.523 . S
C1052 C1033 1.368 . S
C1052 C1046 1.368 . S
C1052 C1051 1.523 . S
C1053 C1037 1.429 . S
C1053 C1049 1.429 . S
C1053 C1054 1.523 . S
C1054 C1038 1.368 . S
C1054 C1050 1.368 . S
C1054 C1053 1.523 . S
H1055 C1030 0.950 . S
H1056 C1032 0.950 . S
H1057 C1033 0.949 . S
H1058 C1035 0.950 . S
H1059 C1037 0.950 . S
C1060 C1061 1.349 . S
C1060 C1062 1.327 . S
C1060 H1085 0.950 . S
C1061 C1060 1.349 . S
C1061 C1077 1.349 . S
C1062 C1060 1.327 . S
C1062 C1081 1.429 . S
C1062 H1086 0.950 . S
C1063 C1080 1.574 . S
C1063 C1082 1.368 . S
C1063 H1087 0.949 . S
H1064 C1068 0.949 . S
C1065 C1066 1.349 . S
C1065 C1067 1.327 . S
C1065 H1088 0.950 . S
C1066 C1065 1.349 . S
C1066 C1078 1.349 . S
C1067 C1065 1.327 . S
C1067 C1083 1.429 . S
C1067 H1089 0.950 . S
C1068 H1064 0.949 . S
C1068 C1076 1.574 . S
C1068 C1084 1.368 . S
H1069 C1077 0.950 . S
H1070 C1075 0.950 . S
H1071 C1076 0.949 . S
H1072 C1078 0.950 . S
H1073 C1079 0.950 . S
H1074 C1080 0.949 . S
C1075 H1070 0.950 . S
C1075 C1077 1.327 . S
C1075 C1081 1.429 . S
C1076 C1068 1.574 . S
C1076 H1071 0.949 . S
C1076 C1082 1.368 . S
C1077 C1061 1.349 . S
C1077 H1069 0.950 . S
C1077 C1075 1.327 . S
C1078 C1066 1.349 . S
C1078 H1072 0.950 . S
C1078 C1079 1.327 . S
C1079 H1073 0.950 . S
C1079 C1078 1.327 . S
C1079 C1083 1.429 . S
C1080 C1063 1.574 . S
C1080 H1074 0.949 . S
C1080 C1084 1.368 . S
C1081 C1062 1.429 . S
C1081 C1075 1.429 . S
C1081 C1082 1.523 . S
C1082 C1063 1.368 . S
C1082 C1076 1.368 . S
C1082 C1081 1.523 . S
C1083 C1067 1.429 . S
C1083 C1079 1.429 . S
C1083 C1084 1.523 . S
C1084 C1068 1.368 . S
C1084 C1080 1.368 . S
C1084 C1083 1.523 . S
H1085 C1060 0.950 . S
H1086 C1062 0.950 . S
H1087 C1063 0.949 . S
H1088 C1065 0.950 . S
H1089 C1067 0.950 . S
C1090 C1091 1.349 . S
C1090 C1092 1.327 . S
C1090 H1115 0.950 . S
C1091 C1090 1.349 . S
C1091 C1107 1.349 . S
C1092 C1090 1.327 . S
C1092 C1111 1.429 . S
C1092 H1116 0.950 . S
C1093 C1110 1.574 . S
C1093 C1112 1.368 . S
C1093 H1117 0.949 . S
H1094 C1098 0.949 . S
C1095 C1096 1.349 . S
C1095 C1097 1.327 . S
C1095 H1118 0.950 . S
C1096 C1095 1.349 . S
C1096 C1108 1.349 . S
C1097 C1095 1.327 . S
C1097 C1113 1.429 . S
C1097 H1119 0.950 . S
C1098 H1094 0.949 . S
C1098 C1106 1.574 . S
C1098 C1114 1.368 . S
H1099 C1107 0.950 . S
H1100 C1105 0.950 . S
H1101 C1106 0.949 . S
H1102 C1108 0.950 . S
H1103 C1109 0.950 . S
H1104 C1110 0.949 . S
C1105 H1100 0.950 . S
C1105 C1107 1.327 . S
C1105 C1111 1.429 . S
C1106 C1098 1.574 . S
C1106 H1101 0.949 . S
C1106 C1112 1.368 . S
C1107 C1091 1.349 . S
C1107 H1099 0.950 . S
C1107 C1105 1.327 . S
C1108 C1096 1.349 . S
C1108 H1102 0.950 . S
C1108 C1109 1.327 . S
C1109 H1103 0.950 . S
C1109 C1108 1.327 . S
C1109 C1113 1.429 . S
C1110 C1093 1.574 . S
C1110 H1104 0.949 . S
C1110 C1114 1.368 . S
C1111 C1092 1.429 . S
C1111 C1105 1.429 . S
C1111 C1112 1.523 . S
C1112 C1093 1.368 . S
C1112 C1106 1.368 . S
C1112 C1111 1.523 . S
C1113 C1097 1.429 . S
C1113 C1109 1.429 . S
C1113 C1114 1.523 . S
C1114 C1098 1.368 . S
C1114 C1110 1.368 . S
C1114 C1113 1.523 . S
H1115 C1090 0.950 . S
H1116 C1092 0.950 . S
H1117 C1093 0.949 . S
H1118 C1095 0.950 . S
H1119 C1097 0.950 . S
C1120 C1121 1.349 . S
C1120 C1122 1.327 . S
C1120 H1145 0.950 . S
C1121 C1120 1.349 . S
C1121 C1137 1.349 . S
C1122 C1120 1.327 . S
C1122 C1141 1.429 . S
C1122 H1146 0.950 . S
C1123 C1140 1.574 . S
C1123 C1142 1.368 . S
C1123 H1147 0.949 . S
H1124 C1128 0.949 . S
C1125 C1126 1.349 . S
C1125 C1127 1.327 . S
C1125 H1148 0.950 1_556 S
C1126 C1125 1.349 . S
C1126 C1138 1.349 . S
C1127 C1125 1.327 . S
C1127 C1143 1.429 . S
C1127 H1149 0.950 1_556 S
C1128 H1124 0.949 . S
C1128 C1136 1.574 . S
C1128 C1144 1.368 . S
H1129 C1137 0.950 . S
H1130 C1135 0.950 . S
H1131 C1136 0.949 . S
H1132 C1138 0.950 . S
H1133 C1139 0.950 . S
H1134 C1140 0.949 . S
C1135 H1130 0.950 . S
C1135 C1137 1.327 . S
C1135 C1141 1.429 . S
C1136 C1128 1.574 . S
C1136 H1131 0.949 . S
C1136 C1142 1.368 . S
C1137 C1121 1.349 . S
C1137 H1129 0.950 . S
C1137 C1135 1.327 . S
C1138 C1126 1.349 . S
C1138 H1132 0.950 . S
C1138 C1139 1.327 . S
C1139 H1133 0.950 . S
C1139 C1138 1.327 . S
C1139 C1143 1.429 . S
C1140 C1123 1.574 . S
C1140 H1134 0.949 . S
C1140 C1144 1.368 . S
C1141 C1122 1.429 . S
C1141 C1135 1.429 . S
C1141 C1142 1.523 . S
C1142 C1123 1.368 . S
C1142 C1136 1.368 . S
C1142 C1141 1.523 . S
C1143 C1127 1.429 . S
C1143 C1139 1.429 . S
C1143 C1144 1.523 . S
C1144 C1128 1.368 . S
C1144 C1140 1.368 . S
C1144 C1143 1.523 . S
H1145 C1120 0.950 . S
H1146 C1122 0.950 . S
H1147 C1123 0.949 . S
H1148 C1125 0.950 1_554 S
H1149 C1127 0.950 1_554 S
C1150 C1151 1.349 . S
C1150 C1152 1.327 . S
C1150 H1175 0.950 . S
C1151 C1150 1.349 . S
C1151 C1167 1.349 . S
C1152 C1150 1.327 . S
C1152 C1171 1.429 . S
C1152 H1176 0.950 . S
C1153 C1170 1.574 . S
C1153 C1172 1.368 . S
C1153 H1177 0.949 . S
H1154 C1158 0.949 . S
C1155 C1156 1.349 . S
C1155 C1157 1.327 . S
C1155 H1178 0.950 . S
C1156 C1155 1.349 . S
C1156 C1168 1.349 . S
C1157 C1155 1.327 . S
C1157 C1173 1.429 . S
C1157 H1179 0.950 . S
C1158 H1154 0.949 . S
C1158 C1166 1.574 . S
C1158 C1174 1.368 . S
H1159 C1167 0.950 . S
H1160 C1165 0.950 . S
H1161 C1166 0.949 . S
H1162 C1168 0.950 . S
H1163 C1169 0.950 . S
H1164 C1170 0.949 . S
C1165 H1160 0.950 . S
C1165 C1167 1.327 . S
C1165 C1171 1.429 . S
C1166 C1158 1.574 . S
C1166 H1161 0.949 . S
C1166 C1172 1.368 . S
C1167 C1151 1.349 . S
C1167 H1159 0.950 . S
C1167 C1165 1.327 . S
C1168 C1156 1.349 . S
C1168 H1162 0.950 . S
C1168 C1169 1.327 . S
C1169 H1163 0.950 . S
C1169 C1168 1.327 . S
C1169 C1173 1.429 . S
C1170 C1153 1.574 . S
C1170 H1164 0.949 . S
C1170 C1174 1.368 . S
C1171 C1152 1.429 . S
C1171 C1165 1.429 . S
C1171 C1172 1.523 . S
C1172 C1153 1.368 . S
C1172 C1166 1.368 . S
C1172 C1171 1.523 . S
C1173 C1157 1.429 . S
C1173 C1169 1.429 . S
C1173 C1174 1.523 . S
C1174 C1158 1.368 . S
C1174 C1170 1.368 . S
C1174 C1173 1.523 . S
H1175 C1150 0.950 . S
H1176 C1152 0.950 . S
H1177 C1153 0.949 . S
H1178 C1155 0.950 . S
H1179 C1157 0.950 . S
C1180 C1181 1.349 . S
C1180 C1182 1.327 . S
C1180 H1205 0.950 . S
C1181 C1180 1.349 . S
C1181 C1197 1.349 . S
C1182 C1180 1.327 . S
C1182 C1201 1.429 . S
C1182 H1206 0.950 . S
C1183 C1200 1.574 . S
C1183 C1202 1.368 . S
C1183 H1207 0.949 . S
H1184 C1188 0.949 . S
C1185 C1186 1.349 . S
C1185 C1187 1.327 . S
C1185 H1208 0.950 1_554 S
C1186 C1185 1.349 . S
C1186 C1198 1.349 . S
C1187 C1185 1.327 . S
C1187 C1203 1.429 . S
C1187 H1209 0.950 . S
C1188 H1184 0.949 . S
C1188 C1196 1.574 . S
C1188 C1204 1.368 . S
H1189 C1197 0.950 . S
H1190 C1195 0.950 . S
H1191 C1196 0.949 . S
H1192 C1198 0.950 . S
H1193 C1199 0.950 . S
H1194 C1200 0.949 . S
C1195 H1190 0.950 . S
C1195 C1197 1.327 . S
C1195 C1201 1.429 . S
C1196 C1188 1.574 . S
C1196 H1191 0.949 . S
C1196 C1202 1.368 . S
C1197 C1181 1.349 . S
C1197 H1189 0.950 . S
C1197 C1195 1.327 . S
C1198 C1186 1.349 . S
C1198 H1192 0.950 . S
C1198 C1199 1.327 . S
C1199 H1193 0.950 . S
C1199 C1198 1.327 . S
C1199 C1203 1.429 . S
C1200 C1183 1.574 . S
C1200 H1194 0.949 . S
C1200 C1204 1.368 . S
C1201 C1182 1.429 . S
C1201 C1195 1.429 . S
C1201 C1202 1.523 . S
C1202 C1183 1.368 . S
C1202 C1196 1.368 . S
C1202 C1201 1.523 . S
C1203 C1187 1.429 . S
C1203 C1199 1.429 . S
C1203 C1204 1.523 . S
C1204 C1188 1.368 . S
C1204 C1200 1.368 . S
C1204 C1203 1.523 . S
H1205 C1180 0.950 . S
H1206 C1182 0.950 . S
H1207 C1183 0.949 . S
H1208 C1185 0.950 1_556 S
H1209 C1187 0.950 . S
C1210 C1211 1.349 . S
C1210 C1212 1.327 . S
C1210 H1235 0.950 . S
C1211 C1210 1.349 . S
C1211 C1227 1.349 . S
C1212 C1210 1.327 . S
C1212 C1231 1.429 . S
C1212 H1236 0.950 . S
C1213 C1230 1.574 . S
C1213 C1232 1.368 . S
C1213 H1237 0.949 . S
H1214 C1218 0.949 . S
C1215 C1216 1.349 . S
C1215 C1217 1.327 . S
C1215 H1238 0.950 . S
C1216 C1215 1.349 . S
C1216 C1228 1.349 . S
C1217 C1215 1.327 . S
C1217 C1233 1.429 . S
C1217 H1239 0.950 . S
C1218 H1214 0.949 . S
C1218 C1226 1.574 . S
C1218 C1234 1.368 . S
H1219 C1227 0.950 . S
H1220 C1225 0.950 . S
H1221 C1226 0.949 . S
H1222 C1228 0.950 . S
H1223 C1229 0.950 . S
H1224 C1230 0.949 . S
C1225 H1220 0.950 . S
C1225 C1227 1.327 . S
C1225 C1231 1.429 . S
C1226 C1218 1.574 . S
C1226 H1221 0.949 . S
C1226 C1232 1.368 . S
C1227 C1211 1.349 . S
C1227 H1219 0.950 . S
C1227 C1225 1.327 . S
C1228 C1216 1.349 . S
C1228 H1222 0.950 . S
C1228 C1229 1.327 . S
C1229 H1223 0.950 . S
C1229 C1228 1.327 . S
C1229 C1233 1.429 . S
C1230 C1213 1.574 . S
C1230 H1224 0.949 . S
C1230 C1234 1.368 . S
C1231 C1212 1.429 . S
C1231 C1225 1.429 . S
C1231 C1232 1.523 . S
C1232 C1213 1.368 . S
C1232 C1226 1.368 . S
C1232 C1231 1.523 . S
C1233 C1217 1.429 . S
C1233 C1229 1.429 . S
C1233 C1234 1.523 . S
C1234 C1218 1.368 . S
C1234 C1230 1.368 . S
C1234 C1233 1.523 . S
H1235 C1210 0.950 . S
H1236 C1212 0.950 . S
H1237 C1213 0.949 . S
H1238 C1215 0.950 . S
H1239 C1217 0.950 . S
C1240 C1241 1.349 . S
C1240 C1242 1.327 . S
C1240 H1265 0.950 . S
C1241 C1240 1.349 . S
C1241 C1257 1.349 . S
C1242 C1240 1.327 . S
C1242 C1261 1.429 . S
C1242 H1266 0.950 . S
C1243 C1260 1.574 . S
C1243 C1262 1.368 . S
C1243 H1267 0.949 . S
H1244 C1248 0.932 1_554 S
C1245 C1246 1.349 . S
C1245 C1247 1.327 . S
C1245 H1268 0.950 . S
C1246 C1245 1.349 . S
C1246 C1258 1.340 1_556 S
C1247 C1245 1.327 . S
C1247 C1263 1.429 . S
C1247 H1269 0.950 . S
C1248 H1244 0.932 1_556 S
C1248 C1256 1.574 . S
C1248 C1264 1.368 . S
H1249 C1257 0.950 . S
H1250 C1255 0.950 . S
H1251 C1256 0.949 . S
H1252 C1258 0.961 . S
H1253 C1259 0.950 1_554 S
H1254 C1260 0.949 . S
C1255 H1250 0.950 . S
C1255 C1257 1.327 . S
C1255 C1261 1.429 . S
C1256 C1248 1.574 . S
C1256 H1251 0.949 . S
C1256 C1262 1.368 . S
C1257 C1241 1.349 . S
C1257 H1249 0.950 . S
C1257 C1255 1.327 . S
C1258 C1246 1.340 1_554 S
C1258 H1252 0.961 . S
C1258 C1259 1.325 1_554 S
C1259 H1253 0.950 1_556 S
C1259 C1258 1.325 1_556 S
C1259 C1263 1.429 . S
C1260 C1243 1.574 . S
C1260 H1254 0.949 . S
C1260 C1264 1.368 . S
C1261 C1242 1.429 . S
C1261 C1255 1.429 . S
C1261 C1262 1.523 . S
C1262 C1243 1.368 . S
C1262 C1256 1.368 . S
C1262 C1261 1.523 . S
C1263 C1247 1.429 . S
C1263 C1259 1.429 . S
C1263 C1264 1.523 . S
C1264 C1248 1.368 . S
C1264 C1260 1.368 . S
C1264 C1263 1.523 . S
H1265 C1240 0.950 . S
H1266 C1242 0.950 . S
H1267 C1243 0.949 . S
H1268 C1245 0.950 . S
H1269 C1247 0.950 . S
C1270 C1271 1.349 . S
C1270 C1272 1.327 . S
C1270 H1295 0.950 . S
C1271 C1270 1.349 . S
C1271 C1287 1.349 . S
C1272 C1270 1.327 . S
C1272 C1291 1.429 . S
C1272 H1296 0.950 . S
C1273 C1290 1.574 . S
C1273 C1292 1.368 . S
C1273 H1297 0.949 . S
H1274 C1278 0.949 . S
C1275 C1276 1.349 . S
C1275 C1277 1.327 . S
C1275 H1298 0.950 . S
C1276 C1275 1.349 . S
C1276 C1288 1.349 . S
C1277 C1275 1.327 . S
C1277 C1293 1.429 . S
C1277 H1299 0.950 . S
C1278 H1274 0.949 . S
C1278 C1286 1.574 . S
C1278 C1294 1.368 . S
H1279 C1287 0.950 . S
H1280 C1285 0.950 . S
H1281 C1286 0.949 . S
H1282 C1288 0.950 . S
H1283 C1289 0.950 . S
H1284 C1290 0.949 . S
C1285 H1280 0.950 . S
C1285 C1287 1.327 . S
C1285 C1291 1.429 . S
C1286 C1278 1.574 . S
C1286 H1281 0.949 . S
C1286 C1292 1.368 . S
C1287 C1271 1.349 . S
C1287 H1279 0.950 . S
C1287 C1285 1.327 . S
C1288 C1276 1.349 . S
C1288 H1282 0.950 . S
C1288 C1289 1.327 . S
C1289 H1283 0.950 . S
C1289 C1288 1.327 . S
C1289 C1293 1.429 . S
C1290 C1273 1.574 . S
C1290 H1284 0.949 . S
C1290 C1294 1.368 . S
C1291 C1272 1.429 . S
C1291 C1285 1.429 . S
C1291 C1292 1.523 . S
C1292 C1273 1.368 . S
C1292 C1286 1.368 . S
C1292 C1291 1.523 . S
C1293 C1277 1.429 . S
C1293 C1289 1.429 . S
C1293 C1294 1.523 . S
C1294 C1278 1.368 . S
C1294 C1290 1.368 . S
C1294 C1293 1.523 . S
H1295 C1270 0.950 . S
H1296 C1272 0.950 . S
H1297 C1273 0.949 . S
H1298 C1275 0.950 . S
H1299 C1277 0.950 . S
C1300 C1301 1.349 . S
C1300 C1302 1.327 . S
C1300 H1325 0.950 . S
C1301 C1300 1.349 . S
C1301 C1317 1.349 . S
C1302 C1300 1.327 . S
C1302 C1321 1.429 . S
C1302 H1326 0.950 . S
C1303 C1320 1.574 . S
C1303 C1322 1.368 . S
C1303 H1327 0.949 . S
H1304 C1308 0.949 . S
C1305 C1306 1.349 . S
C1305 C1307 1.327 . S
C1305 H1328 0.950 . S
C1306 C1305 1.349 . S
C1306 C1318 1.349 . S
C1307 C1305 1.327 . S
C1307 C1323 1.429 . S
C1307 H1329 0.950 . S
C1308 H1304 0.949 . S
C1308 C1316 1.574 . S
C1308 C1324 1.368 . S
H1309 C1317 0.950 . S
H1310 C1315 0.950 . S
H1311 C1316 0.949 . S
H1312 C1318 0.950 . S
H1313 C1319 0.950 . S
H1314 C1320 0.949 . S
C1315 H1310 0.950 . S
C1315 C1317 1.327 . S
C1315 C1321 1.429 . S
C1316 C1308 1.574 . S
C1316 H1311 0.949 . S
C1316 C1322 1.368 . S
C1317 C1301 1.349 . S
C1317 H1309 0.950 . S
C1317 C1315 1.327 . S
C1318 C1306 1.349 . S
C1318 H1312 0.950 . S
C1318 C1319 1.327 . S
C1319 H1313 0.950 . S
C1319 C1318 1.327 . S
C1319 C1323 1.429 . S
C1320 C1303 1.574 . S
C1320 H1314 0.949 . S
C1320 C1324 1.368 . S
C1321 C1302 1.429 . S
C1321 C1315 1.429 . S
C1321 C1322 1.523 . S
C1322 C1303 1.368 . S
C1322 C1316 1.368 . S
C1322 C1321 1.523 . S
C1323 C1307 1.429 . S
C1323 C1319 1.429 . S
C1323 C1324 1.523 . S
C1324 C1308 1.368 . S
C1324 C1320 1.368 . S
C1324 C1323 1.523 . S
H1325 C1300 0.950 . S
H1326 C1302 0.950 . S
H1327 C1303 0.949 . S
H1328 C1305 0.950 . S
H1329 C1307 0.950 . S
C1330 C1331 1.349 . S
C1330 C1332 1.327 . S
C1330 H1355 0.950 . S
C1331 C1330 1.349 . S
C1331 C1347 1.349 . S
C1332 C1330 1.327 . S
C1332 C1351 1.429 . S
C1332 H1356 0.950 . S
C1333 C1350 1.574 . S
C1333 C1352 1.368 . S
C1333 H1357 0.949 . S
H1334 C1338 0.949 . S
C1335 C1336 1.349 . S
C1335 C1337 1.327 . S
C1335 H1358 0.950 . S
C1336 C1335 1.349 . S
C1336 C1348 1.349 . S
C1337 C1335 1.327 . S
C1337 C1353 1.429 . S
C1337 H1359 0.950 . S
C1338 H1334 0.949 . S
C1338 C1346 1.574 . S
C1338 C1354 1.368 . S
H1339 C1347 0.950 . S
H1340 C1345 0.950 . S
H1341 C1346 0.949 . S
H1342 C1348 0.950 . S
H1343 C1349 0.950 . S
H1344 C1350 0.949 . S
C1345 H1340 0.950 . S
C1345 C1347 1.327 . S
C1345 C1351 1.429 . S
C1346 C1338 1.574 . S
C1346 H1341 0.949 . S
C1346 C1352 1.368 . S
C1347 C1331 1.349 . S
C1347 H1339 0.950 . S
C1347 C1345 1.327 . S
C1348 C1336 1.349 . S
C1348 H1342 0.950 . S
C1348 C1349 1.327 . S
C1349 H1343 0.950 . S
C1349 C1348 1.327 . S
C1349 C1353 1.429 . S
C1350 C1333 1.574 . S
C1350 H1344 0.949 . S
C1350 C1354 1.368 . S
C1351 C1332 1.429 . S
C1351 C1345 1.429 . S
C1351 C1352 1.523 . S
C1352 C1333 1.368 . S
C1352 C1346 1.368 . S
C1352 C1351 1.523 . S
C1353 C1337 1.429 . S
C1353 C1349 1.429 . S
C1353 C1354 1.523 . S
C1354 C1338 1.368 . S
C1354 C1350 1.368 . S
C1354 C1353 1.523 . S
H1355 C1330 0.950 . S
H1356 C1332 0.950 . S
H1357 C1333 0.949 . S
H1358 C1335 0.950 . S
H1359 C1337 0.950 . S
C641 C1 2.900 . S
C646 C499 2.911 . S
C671 C80 2.459 . S
C676 C530 2.473 . S
C706 C569 1.292 . S
C701 C140 1.314 . S
C731 C211 0.384 . S
C736 C606 0.394 . S
C766 C529 2.842 . S
C761 C31 2.883 . S
C796 C486 1.614 . S
C791 C61 1.574 . S
C826 C618 1.326 . S
C821 C151 1.328 . S
C856 C575 0.912 . S
C851 C200 0.902 . S
C881 C20 2.279 . S
C886 C619 2.280 . S
C916 C535 1.277 . S
C911 C121 1.243 . S
C941 C181 0.576 . S
C946 C498 0.605 . S
C971 C91 2.598 . S
C976 C570 2.612 . S
C1006 C490 2.911 . S
C1001 C260 2.918 . S
C1031 C320 2.459 . S
C1036 C539 2.473 . S
C1061 C361 1.339 . S
C1066 C578 1.293 . S
C1091 C451 0.384 . S
C1096 C615 0.394 . S
C1121 C271 2.916 . S
C1126 C538 2.842 . S
C1156 C495 1.615 . S
C1151 C301 1.574 . S
C1186 C609 1.326 . S
C1181 C380 1.349 . S
C1216 C566 0.912 . S
C1211 C440 0.902 . S
C1241 C241 2.236 . S
C1246 C610 2.280 . S
C1276 C526 1.277 . S
C1271 C391 1.253 . S
C1306 C489 0.605 . S
C1301 C421 0.576 . S
C1331 C331 2.598 . S
C1336 C579 2.612 . S
