# Generated by pormake.
# Topology pyr, (3,6)-cn, num edge types: 1
# Building blocks:
#     Node 0, Type 0, BuildingBlock: BETDIP_clean_linker_0, # of connection points: 3
#     Node 1, Type 0, BuildingBlock: BETDIP_clean_linker_0, # of connection points: 3
#     Node 2, Type 0, BuildingBlock: BETDIP_clean_linker_0, # of connection points: 3
#     Node 3, Type 0, BuildingBlock: BETDIP_clean_linker_0, # of connection points: 3
#     Node 4, Type 0, BuildingBlock: BETDIP_clean_linker_0, # of connection points: 3
#     Node 5, Type 0, BuildingBlock: BETDIP_clean_linker_0, # of connection points: 3
#     Node 6, Type 0, BuildingBlock: BETDIP_clean_linker_0, # of connection points: 3
#     Node 7, Type 0, BuildingBlock: BETDIP_clean_linker_0, # of connection points: 3
#     Node 8, Type 1, BuildingBlock: BETGAK_clean_sbu_0, # of connection points: 6
#     Node 9, Type 1, BuildingBlock: BETGAK_clean_sbu_0, # of connection points: 6
#     Node 10, Type 1, BuildingBlock: BETGAK_clean_sbu_0, # of connection points: 6
#     Node 11, Type 1, BuildingBlock: BETGAK_clean_sbu_0, # of connection points: 6
#     Edge 12, Type (0, 1), BuildingBlock: MIFKUJ_clean_linker_0, # of connection points: 2
#     Edge 13, Type (0, 1), BuildingBlock: MIFKUJ_clean_linker_0, # of connection points: 2
#     Edge 14, Type (0, 1), BuildingBlock: MIFKUJ_clean_linker_0, # of connection points: 2
#     Edge 15, Type (0, 1), BuildingBlock: MIFKUJ_clean_linker_0, # of connection points: 2
#     Edge 16, Type (0, 1), BuildingBlock: MIFKUJ_clean_linker_0, # of connection points: 2
#     Edge 17, Type (0, 1), BuildingBlock: MIFKUJ_clean_linker_0, # of connection points: 2
#     Edge 18, Type (0, 1), BuildingBlock: MIFKUJ_clean_linker_0, # of connection points: 2
#     Edge 19, Type (0, 1), BuildingBlock: MIFKUJ_clean_linker_0, # of connection points: 2
#     Edge 20, Type (0, 1), BuildingBlock: MIFKUJ_clean_linker_0, # of connection points: 2
#     Edge 21, Type (0, 1), BuildingBlock: MIFKUJ_clean_linker_0, # of connection points: 2
#     Edge 22, Type (0, 1), BuildingBlock: MIFKUJ_clean_linker_0, # of connection points: 2
#     Edge 23, Type (0, 1), BuildingBlock: MIFKUJ_clean_linker_0, # of connection points: 2
#     Edge 24, Type (0, 1), BuildingBlock: MIFKUJ_clean_linker_0, # of connection points: 2
#     Edge 25, Type (0, 1), BuildingBlock: MIFKUJ_clean_linker_0, # of connection points: 2
#     Edge 26, Type (0, 1), BuildingBlock: MIFKUJ_clean_linker_0, # of connection points: 2
#     Edge 27, Type (0, 1), BuildingBlock: MIFKUJ_clean_linker_0, # of connection points: 2
#     Edge 28, Type (0, 1), BuildingBlock: MIFKUJ_clean_linker_0, # of connection points: 2
#     Edge 29, Type (0, 1), BuildingBlock: MIFKUJ_clean_linker_0, # of connection points: 2
#     Edge 30, Type (0, 1), BuildingBlock: MIFKUJ_clean_linker_0, # of connection points: 2
#     Edge 31, Type (0, 1), BuildingBlock: MIFKUJ_clean_linker_0, # of connection points: 2
#     Edge 32, Type (0, 1), BuildingBlock: MIFKUJ_clean_linker_0, # of connection points: 2
#     Edge 33, Type (0, 1), BuildingBlock: MIFKUJ_clean_linker_0, # of connection points: 2
#     Edge 34, Type (0, 1), BuildingBlock: MIFKUJ_clean_linker_0, # of connection points: 2
#     Edge 35, Type (0, 1), BuildingBlock: MIFKUJ_clean_linker_0, # of connection points: 2
# Relax obj value: 0.101
# Max RMSD: 0.174
# Mean RMSD: 0.137
data_MOF--net-pyr--node1-BETGAK_clean_sbu_0--node2-BETDIP_clean_linker_0--edge1-MIFKUJ_clean_linker_0
_symmetry_space_group_name_H-M    P1
_symmetry_Int_Tables_number       1
_symmetry_cell_setting            triclinic
loop_
_symmetry_equiv_pos_as_xyz
'x, y, z'
_cell_length_a     49.021863
_cell_length_b     51.418993
_cell_length_c     48.294057
_cell_angle_alpha  92.906266
_cell_angle_beta   86.557374
_cell_angle_gamma 104.85031
loop_
_atom_site_label
_atom_site_type_symbol
_atom_site_fract_x
_atom_site_fract_y
_atom_site_fract_z
_atom_type_partial_charge
H0 H 0.29399 0.29596 0.2124 0.0
H1 H 0.35454 0.27831 0.15097 0.0
H2 H 0.32258 0.22422 0.21751 0.0
H3 H 0.32453 0.34173 0.20097 0.0
C4 C 0.31853 0.33671 0.17966 0.0
C5 C 0.30746 0.28326 0.20448 0.0
C6 C 0.30641 0.25943 0.21782 0.0
C7 C 0.3251 0.29035 0.18058 0.0
C8 C 0.34157 0.2732 0.16986 0.0
C9 C 0.34091 0.24929 0.18315 0.0
C10 C 0.32343 0.24271 0.20727 0.0
N11 N 0.32483 0.31363 0.16606 0.0
H12 H 0.25364 0.87149 0.66968 0.0
H13 H 0.25584 0.82192 0.59576 0.0
H14 H 0.32569 0.8397 0.64907 0.0
H15 H 0.21053 0.81901 0.59461 0.0
C16 C 0.20678 0.83672 0.60574 0.0
C17 C 0.26441 0.85936 0.65626 0.0
C18 C 0.2916 0.85762 0.66205 0.0
C19 C 0.25105 0.84611 0.63284 0.0
C20 C 0.26528 0.8313 0.6146 0.0
C21 C 0.29228 0.82893 0.62025 0.0
C22 C 0.30524 0.84211 0.64407 0.0
N23 N 0.224 0.84951 0.62766 0.0
H24 H 0.6939 0.3993 0.83975 0.0
H25 H 0.62356 0.32901 0.84353 0.0
H26 H 0.69232 0.33795 0.89783 0.0
H27 H 0.67903 0.39213 0.78992 0.0
C28 C 0.65664 0.39047 0.79409 0.0
C29 C 0.68361 0.38007 0.84853 0.0
C30 C 0.69669 0.37032 0.86991 0.0
C31 C 0.65713 0.36523 0.83869 0.0
C32 C 0.64371 0.34034 0.851 0.0
C33 C 0.6564 0.32958 0.87196 0.0
C34 C 0.68279 0.34511 0.88108 0.0
N35 N 0.64297 0.37514 0.81751 0.0
H36 H 0.82637 0.64985 0.34869 0.0
H37 H 0.89475 0.7209 0.33955 0.0
H38 H 0.83271 0.71681 0.40719 0.0
H39 H 0.89196 0.70538 0.29278 0.0
C40 C 0.88818 0.68377 0.29464 0.0
C41 C 0.83699 0.67003 0.35586 0.0
C42 C 0.8264 0.68163 0.37975 0.0
C43 C 0.8612 0.68411 0.34094 0.0
C44 C 0.8755 0.71017 0.35038 0.0
C45 C 0.86564 0.72188 0.37473 0.0
C46 C 0.84097 0.7075 0.38905 0.0
N47 N 0.87109 0.67084 0.31732 0.0
H48 H 0.6765 0.78397 0.89922 0.0
H49 H 0.74291 0.77471 0.84036 0.0
H50 H 0.7121 0.84583 0.84113 0.0
H51 H 0.71658 0.72879 0.84422 0.0
C52 C 0.71724 0.72995 0.86672 0.0
C53 C 0.69089 0.79143 0.88181 0.0
C54 C 0.69234 0.81691 0.87161 0.0
C55 C 0.70852 0.77578 0.87008 0.0
C56 C 0.72808 0.78599 0.84829 0.0
C57 C 0.72978 0.81135 0.83776 0.0
C58 C 0.7115 0.82647 0.84938 0.0
N59 N 0.70794 0.75081 0.88182 0.0
H60 H 0.73643 0.16653 0.41786 0.0
H61 H 0.72992 0.20922 0.4958 0.0
H62 H 0.66835 0.20477 0.43513 0.0
H63 H 0.75386 0.18148 0.51055 0.0
C64 C 0.76734 0.17727 0.49315 0.0
C65 C 0.72548 0.17833 0.43152 0.0
C66 C 0.70106 0.18458 0.42309 0.0
C67 C 0.73563 0.18646 0.45786 0.0
C68 C 0.72175 0.2018 0.47579 0.0
C69 C 0.69723 0.20797 0.46779 0.0
C70 C 0.68685 0.1992 0.44155 0.0
N71 N 0.75984 0.17881 0.46547 0.0
H72 H 0.32976 0.66056 0.21305 0.0
H73 H 0.39893 0.73141 0.22035 0.0
H74 H 0.33664 0.72659 0.15954 0.0
H75 H 0.39881 0.71469 0.2658 0.0
C76 C 0.39343 0.6929 0.26312 0.0
C77 C 0.34069 0.68042 0.20618 0.0
C78 C 0.32939 0.69198 0.18493 0.0
C79 C 0.36552 0.69432 0.21952 0.0
C80 C 0.37977 0.72059 0.21065 0.0
C81 C 0.36935 0.73281 0.18904 0.0
C82 C 0.34426 0.71802 0.17661 0.0
N83 N 0.37559 0.68071 0.24087 0.0
H84 H 0.13628 0.33895 0.71006 0.0
H85 H 0.20274 0.41208 0.70482 0.0
H86 H 0.20067 0.34798 0.64408 0.0
H87 H 0.19154 0.41885 0.74831 0.0
C88 C 0.16958 0.40855 0.75266 0.0
C89 C 0.15541 0.35071 0.6998 0.0
C90 C 0.16655 0.34048 0.67527 0.0
C91 C 0.16855 0.37624 0.71114 0.0
C92 C 0.19299 0.39189 0.69732 0.0
C93 C 0.20466 0.3819 0.67301 0.0
C94 C 0.19133 0.35615 0.66231 0.0
N95 N 0.15623 0.38571 0.73595 0.0
La96 La 0.02397 0.04337 0.49492 0.0
La97 La 0.01475 1.0174 0.5513 0.0
C98 C 0.02624 0.07377 0.455 0.0
C99 C 0.04898 0.09484 0.44232 0.0
C100 C 0.07723 0.09373 0.44294 0.0
C101 C 0.09866 0.11301 0.42966 0.0
C102 C 0.09232 0.13404 0.41584 0.0
C103 C 0.06402 0.13555 0.41615 0.0
C104 C 0.04253 0.11604 0.42921 0.0
C105 C 0.06042 1.01591 0.50565 0.0
C106 C 0.0507 0.0785 0.54715 0.0
C107 C 0.01563 0.99626 0.59683 0.0
C108 C 0.99333 0.9781 0.61366 0.0
C109 C 0.96603 0.98223 0.61658 0.0
C110 C 0.94513 0.96574 0.63323 0.0
C111 C 0.95092 0.94457 0.64711 0.0
C112 C 0.97795 0.93983 0.64352 0.0
C113 C 0.99907 0.9566 0.62698 0.0
C114 C 0.96975 0.02922 0.5332 0.0
C115 C 0.99198 0.98327 0.49818 0.0
O116 O 0.02948 0.04932 0.45215 0.0
O117 O 0.01762 0.07915 0.48024 0.0
O118 O 0.05315 1.01875 0.48091 0.0
O119 O 0.04943 0.03 0.5225 0.0
O120 O 0.04932 0.07656 0.51975 0.0
O121 O 0.03918 0.05794 0.56317 0.0
O122 O 0.01241 1.02058 0.59461 0.0
O123 O 0.02344 0.98615 0.57306 0.0
O124 O 0.96869 1.01048 0.55035 0.0
O125 O 0.99501 0.04214 0.52971 0.0
O126 O 1.00452 0.98317 0.52172 0.0
O127 O 0.99193 1.00609 0.48661 0.0
H128 H 0.08269 0.07763 0.4532 0.0
H129 H 0.12007 0.11088 0.42954 0.0
H130 H 0.05841 0.15171 0.40615 0.0
H131 H 0.02084 0.11735 0.42883 0.0
H132 H 0.96083 0.99841 0.60624 0.0
H133 H 0.92435 0.96956 0.63527 0.0
H134 H 0.98292 0.92363 0.65404 0.0
H135 H 0.01991 0.95295 0.62482 0.0
La136 La 0.54209 0.039 0.04461 0.0
La137 La 0.4897 0.02288 1.01947 0.0
C138 C 0.5868 0.0643 0.06736 0.0
C139 C 0.59437 0.07449 0.09551 0.0
C140 C 0.57897 0.06217 0.11886 0.0
C141 C 0.58675 0.07195 0.14552 0.0
C142 C 0.60987 0.09438 0.14926 0.0
C143 C 0.62488 0.10689 0.1257 0.0
C144 C 0.61722 0.09696 0.09907 0.0
C145 C 0.51079 0.99105 0.06206 0.0
C146 C 0.4904 0.05887 0.0716 0.0
C147 C 0.44455 0.99768 0.99745 0.0
C148 C 0.4353 0.98865 0.96947 0.0
C149 C 0.44793 1.00297 0.94607 0.0
C150 C 0.43795 0.99455 0.91974 0.0
C151 C 0.41532 0.97159 0.91643 0.0
C152 C 0.40326 0.95702 0.93995 0.0
C153 C 0.41313 0.96555 0.96624 0.0
C154 C 0.52068 0.07089 1.00208 0.0
C155 C 0.54162 1.00311 0.9924 0.0
O156 O 0.57919 0.03818 0.06364 0.0
O157 O 0.57024 0.07597 0.05528 0.0
O158 O 0.53785 0.99774 0.05758 0.0
O159 O 0.50191 1.01161 0.05815 0.0
O160 O 0.51804 0.06452 0.06733 0.0
O161 O 0.47432 0.03816 0.05833 0.0
O162 O 0.45157 0.02364 1.00252 0.0
O163 O 0.46229 0.98593 1.00742 0.0
O164 O 0.49361 0.06392 1.0063 0.0
O165 O 0.52981 0.05042 1.00594 0.0
O166 O 0.51392 0.9976 0.99636 0.0
O167 O 0.5577 0.02354 1.00606 0.0
H168 H 0.5611 0.04487 0.11648 0.0
H169 H 0.57492 0.06164 0.16318 0.0
H170 H 0.64245 0.12449 0.12781 0.0
H171 H 0.62913 0.10685 0.08122 0.0
H172 H 0.46523 1.02082 0.94818 0.0
H173 H 0.44756 1.00634 0.90211 0.0
H174 H 0.38623 0.93893 0.93807 0.0
H175 H 0.40332 0.95416 0.98409 0.0
La176 La 0.52133 0.51448 0.50858 0.0
La177 La 0.51095 0.5554 0.55007 0.0
C178 C 0.5448 0.4839 0.47934 0.0
C179 C 0.55747 0.46228 0.48649 0.0
C180 C 0.54752 0.43648 0.47443 0.0
C181 C 0.55675 0.41494 0.48327 0.0
C182 C 0.57615 0.41885 0.50434 0.0
C183 C 0.5868 0.44487 0.5158 0.0
C184 C 0.57752 0.46643 0.50697 0.0
C185 C 0.47024 0.50318 0.53222 0.0
C186 C 0.53726 0.51158 0.57309 0.0
C187 C 0.48705 0.58599 0.57863 0.0
C188 C 0.47401 0.60705 0.57072 0.0
C189 C 0.48748 0.62605 0.55106 0.0
C190 C 0.47371 0.64451 0.5421 0.0
C191 C 0.44613 0.64382 0.55223 0.0
C192 C 0.43271 0.6248 0.57182 0.0
C193 C 0.44662 0.60663 0.58107 0.0
C194 C 0.56185 0.56664 0.52597 0.0
C195 C 0.49471 0.55814 0.48559 0.0
O196 O 0.51744 0.47893 0.48418 0.0
O197 O 0.55788 0.50844 0.4873 0.0
O198 O 0.47587 0.49699 0.50654 0.0
O199 O 0.49293 0.51358 0.54397 0.0
O200 O 0.5405 0.50418 0.54642 0.0
O201 O 0.52325 0.53008 0.58 0.0
O202 O 0.51453 0.59077 0.57472 0.0
O203 O 0.47401 0.56158 0.57034 0.0
O204 O 0.55659 0.57278 0.55178 0.0
O205 O 0.53899 0.55629 0.51458 0.0
O206 O 0.49241 0.56626 0.51215 0.0
O207 O 0.50801 0.53911 0.47868 0.0
H208 H 0.53208 0.43288 0.4586 0.0
H209 H 0.54868 0.39518 0.47363 0.0
H210 H 0.60175 0.44844 0.53207 0.0
H211 H 0.58553 0.48616 0.51669 0.0
H212 H 0.50845 0.62642 0.54233 0.0
H213 H 0.48439 0.65903 0.52697 0.0
H214 H 0.41156 0.62421 0.58024 0.0
H215 H 0.43586 0.59196 0.59601 0.0
La216 La 0.01498 0.50511 0.03497 0.0
La217 La 0.01287 0.55844 1.01522 0.0
C218 C 0.03122 0.46359 0.04335 0.0
C219 C 0.05547 0.45729 0.05586 0.0
C220 C 0.06043 0.46232 0.08426 0.0
C221 C 0.0832 0.45554 0.09558 0.0
C222 C 0.10155 0.4438 0.07872 0.0
C223 C 0.09673 0.43909 0.05029 0.0
C224 C 0.07386 0.44565 0.03904 0.0
C225 C 0.98742 0.53236 0.06884 0.0
C226 C 0.06635 0.5582 0.04782 0.0
C227 C 0.99626 0.59926 1.00519 0.0
C228 C 0.96989 0.60336 0.995 0.0
C229 C 0.97115 0.61866 0.97151 0.0
C230 C 0.94648 0.62286 0.96153 0.0
C231 C 0.92009 0.61202 0.97503 0.0
C232 C 0.91879 0.59643 0.99838 0.0
C233 C 0.94342 0.592 1.00819 0.0
C234 C 0.04093 0.53142 0.98182 0.0
C235 C 0.96141 0.50569 1.00298 0.0
O236 O 0.01314 0.47237 0.05995 0.0
O237 O 0.03701 0.47676 1.02033 0.0
O238 O 0.98023 0.50632 0.0655 0.0
O239 O 1.00995 0.54167 0.0548 0.0
O240 O 0.05696 0.53142 0.04645 0.0
O241 O 0.05104 0.57361 0.03872 0.0
O242 O 0.01143 0.58814 0.98737 0.0
O243 O 0.99473 0.58955 0.02997 0.0
O244 O 0.04816 0.55742 0.98551 0.0
O245 O 0.0181 0.52196 0.9954 0.0
O246 O 0.97016 0.53239 1.00593 0.0
O247 O 0.97746 0.4903 1.01047 0.0
H248 H 0.0467 0.47137 0.09778 0.0
H249 H 0.08655 0.4596 0.11751 0.0
H250 H 0.11028 0.42976 0.03684 0.0
H251 H 0.07043 0.44145 1.01713 0.0
H252 H 0.99128 0.62754 0.96096 0.0
H253 H 0.94815 0.63519 0.94367 0.0
H254 H 0.89869 0.58764 1.00903 0.0
H255 H 0.9417 0.57978 0.02615 0.0
H256 H 0.25038 0.25756 0.22163 0.0
H257 H 0.21644 0.24165 0.25999 0.0
H258 H 0.28316 0.22712 0.30666 0.0
H259 H 0.31708 0.24227 0.26775 0.0
H260 H 0.2403 0.18635 0.31014 0.0
H261 H 0.25132 0.28055 0.32371 0.0
H262 H 0.25375 0.3269 0.31079 0.0
H263 H 0.16729 0.30248 0.28807 0.0
H264 H 0.16444 0.25588 0.30048 0.0
H265 H 0.14733 0.15585 0.42953 0.0
H266 H 0.18581 0.18248 0.40031 0.0
H267 H 0.12729 0.18319 0.33738 0.0
H268 H 0.08888 0.15566 0.36581 0.0
H269 H 0.16896 0.23403 0.34714 0.0
H270 H 0.16157 0.13852 0.32947 0.0
H271 H 0.1601 0.09281 0.34381 0.0
H272 H 0.24222 0.1219 0.37689 0.0
H273 H 0.24397 0.1679 0.36311 0.0
C274 C 0.25784 0.2513 0.24024 0.0
C275 C 0.28633 0.25122 0.24183 0.0
C276 C 0.23846 0.24232 0.26222 0.0
C277 C 0.24728 0.23362 0.28649 0.0
C278 C 0.27585 0.2338 0.2882 0.0
C279 C 0.29519 0.24243 0.26601 0.0
C280 C 0.22633 0.2228 0.30925 0.0
C281 C 0.22514 0.19711 0.31862 0.0
C282 C 0.20621 0.2366 0.32015 0.0
C283 C 0.20773 0.26466 0.31285 0.0
C284 C 0.23287 0.28502 0.31579 0.0
C285 C 0.23432 0.31135 0.30858 0.0
C286 C 0.21071 0.31762 0.29857 0.0
C287 C 0.18557 0.29759 0.29582 0.0
C288 C 0.18401 0.27122 0.30298 0.0
C289 C 0.14258 0.16164 0.40948 0.0
C290 C 0.115 0.15326 0.39991 0.0
C291 C 0.16457 0.17706 0.39295 0.0
C292 C 0.15934 0.1846 0.36668 0.0
C293 C 0.13166 0.17763 0.35768 0.0
C294 C 0.10971 0.16196 0.37405 0.0
C295 C 0.18298 0.1977 0.34754 0.0
C296 C 0.18454 0.22366 0.33888 0.0
C297 C 0.20368 0.18436 0.33753 0.0
C298 C 0.20275 0.15668 0.34556 0.0
C299 C 0.1792 0.1352 0.34001 0.0
C300 C 0.17834 0.10924 0.348 0.0
C301 C 0.20102 0.10447 0.36133 0.0
C302 C 0.22465 0.12564 0.36662 0.0
C303 C 0.22559 0.15165 0.35872 0.0
H304 H 0.20031 0.08435 0.3675 0.0
H305 H 0.21188 0.33801 0.29298 0.0
H306 H 0.26802 0.86249 0.71426 0.0
H307 H 0.29136 0.88592 0.75506 0.0
H308 H 0.37042 0.90792 0.70711 0.0
H309 H 0.34713 0.88496 0.66599 0.0
H310 H 0.37566 0.8872 0.75731 0.0
H311 H 0.33614 0.95475 0.72367 0.0
H312 H 0.2986 0.97309 0.70687 0.0
H313 H 0.25123 0.95628 0.78447 0.0
H314 H 0.2883 0.93747 0.8016 0.0
H315 H 0.44501 0.97153 0.86642 0.0
H316 H 0.42616 0.95633 0.821 0.0
H317 H 0.34157 0.93591 0.85839 0.0
H318 H 0.36008 0.95231 0.90353 0.0
H319 H 0.34227 0.95911 0.81068 0.0
H320 H 0.379 0.88791 0.84269 0.0
H321 H 0.41565 0.86852 0.85977 0.0
H322 H 0.46733 0.89117 0.78555 0.0
H323 H 0.43111 0.91102 0.76819 0.0
C324 C 0.29029 0.87262 0.71227 0.0
C325 C 0.30571 0.8719 0.68686 0.0
C326 C 0.3036 0.88594 0.73561 0.0
C327 C 0.33254 0.89883 0.73398 0.0
C328 C 0.34806 0.89806 0.70875 0.0
C329 C 0.33474 0.88483 0.68534 0.0
C330 C 0.34667 0.91247 0.75891 0.0
C331 C 0.36873 0.90326 0.76874 0.0
C332 C 0.33719 0.93305 0.77401 0.0
C333 C 0.31491 0.94449 0.76383 0.0
C334 C 0.31762 0.95477 0.73708 0.0
C335 C 0.29644 0.96528 0.72751 0.0
C336 C 0.27252 0.9658 0.74457 0.0
C337 C 0.26976 0.95585 0.77127 0.0
C338 C 0.29087 0.94529 0.78093 0.0
C339 C 0.42237 0.96417 0.86491 0.0
C340 C 0.40407 0.96291 0.88866 0.0
C341 C 0.41165 0.95525 0.83898 0.0
C342 C 0.3825 0.9446 0.8364 0.0
C343 C 0.36415 0.94394 0.85993 0.0
C344 C 0.37481 0.95303 0.88578 0.0
C345 C 0.37097 0.93353 0.80938 0.0
C346 C 0.34941 0.94323 0.79912 0.0
C347 C 0.38079 0.91329 0.79396 0.0
C348 C 0.40249 0.9012 0.80429 0.0
C349 C 0.39827 0.88892 0.83011 0.0
C350 C 0.41895 0.87782 0.83982 0.0
C351 C 0.44384 0.87868 0.82379 0.0
C352 C 0.44806 0.89056 0.79797 0.0
C353 C 0.42746 0.90173 0.78817 0.0
H354 H 0.45983 0.87008 0.83135 0.0
H355 H 0.25615 0.97394 0.73712 0.0
H356 H 0.67014 0.39259 0.73855 0.0
H357 H 0.64866 0.41012 0.70182 0.0
H358 H 0.58815 0.43068 0.76191 0.0
H359 H 0.60846 0.41074 0.79848 0.0
H360 H 0.56185 0.42 0.7189 0.0
H361 H 0.65475 0.47874 0.72762 0.0
H362 H 0.70673 0.49087 0.72907 0.0
H363 H 0.71321 0.457 0.64655 0.0
H364 H 0.66126 0.44446 0.64471 0.0
H365 H 0.52688 0.51453 0.63012 0.0
H366 H 0.54507 0.49316 0.66669 0.0
H367 H 0.59216 0.45678 0.60495 0.0
H368 H 0.57385 0.47803 0.56826 0.0
H369 H 0.62481 0.47607 0.6485 0.0
H370 H 0.53097 0.41983 0.63997 0.0
H371 H 0.47908 0.40996 0.63895 0.0
H372 H 0.47467 0.44226 0.72237 0.0
H373 H 0.52659 0.45267 0.72376 0.0
C374 C 0.65205 0.40059 0.74401 0.0
C375 C 0.64121 0.40008 0.77175 0.0
C376 C 0.6399 0.41121 0.72282 0.0
C377 C 0.61711 0.42316 0.72851 0.0
C378 C 0.60576 0.42204 0.75629 0.0
C379 C 0.61743 0.41053 0.77745 0.0
C380 C 0.60537 0.43657 0.70571 0.0
C381 C 0.57589 0.43259 0.70393 0.0
C382 C 0.62294 0.45286 0.68513 0.0
C383 C 0.65414 0.46048 0.68613 0.0
C384 C 0.66727 0.47379 0.70984 0.0
C385 C 0.69672 0.48074 0.71072 0.0
C386 C 0.71325 0.47466 0.68794 0.0
C387 C 0.70038 0.46168 0.66419 0.0
C388 C 0.67094 0.45468 0.6632 0.0
C389 C 0.54106 0.50196 0.62414 0.0
C390 C 0.54864 0.49821 0.59577 0.0
C391 C 0.55145 0.4895 0.64529 0.0
C392 C 0.57005 0.47285 0.63909 0.0
C393 C 0.57792 0.46933 0.61079 0.0
C394 C 0.56726 0.48154 0.58959 0.0
C395 C 0.58152 0.45954 0.66193 0.0
C396 C 0.6109 0.46353 0.66363 0.0
C397 C 0.5639 0.44363 0.68259 0.0
C398 C 0.53269 0.43727 0.68187 0.0
C399 C 0.51895 0.42502 0.65802 0.0
C400 C 0.48953 0.41929 0.65739 0.0
C401 C 0.47359 0.42554 0.68055 0.0
C402 C 0.48705 0.43746 0.70443 0.0
C403 C 0.51647 0.44326 0.70516 0.0
H404 H 0.45082 0.4211 0.68002 0.0
H405 H 0.73604 0.48005 0.68867 0.0
H406 H 0.90723 0.70003 0.2427 0.0
H407 H 0.92208 0.67327 0.20381 0.0
H408 H 0.9057 0.60449 0.25553 0.0
H409 H 0.8904 0.63094 0.29424 0.0
H410 H 0.95871 0.61491 0.22538 0.0
H411 H 0.86034 0.60412 0.21021 0.0
H412 H 0.81772 0.6198 0.20377 0.0
H413 H 0.85747 0.66123 0.13116 0.0
H414 H 0.90052 0.64612 0.13742 0.0
H415 H 0.93639 0.51724 0.09738 0.0
H416 H 0.91788 0.54235 0.13553 0.0
H417 H 0.99359 0.60706 0.12875 0.0
H418 H 0.01186 0.5824 0.09027 0.0
H419 H 0.90887 0.59628 0.13727 0.0
H420 H 1.00955 0.62554 0.20057 0.0
H421 H 0.0511 0.60888 0.20899 0.0
H422 H 1.00535 0.52834 0.18651 0.0
H423 H 0.96321 0.54434 0.17891 0.0
C424 C 0.90678 0.67918 0.24571 0.0
C425 C 0.89754 0.66755 0.27142 0.0
C426 C 0.91517 0.66392 0.2235 0.0
C427 C 0.91484 0.63685 0.22675 0.0
C428 C 0.90606 0.62532 0.25257 0.0
C429 C 0.89724 0.64044 0.27463 0.0
C430 C 0.92396 0.62061 0.20333 0.0
C431 C 0.94788 0.6109 0.20608 0.0
C432 C 0.90962 0.61514 0.17828 0.0
C433 C 0.88376 0.62422 0.17446 0.0
C434 C 0.86009 0.61679 0.19302 0.0
C435 C 0.83584 0.62553 0.18937 0.0
C436 C 0.83491 0.64157 0.16711 0.0
C437 C 0.85823 0.64884 0.14842 0.0
C438 C 0.88255 0.64017 0.152 0.0
C439 C 0.94894 0.53691 0.10393 0.0
C440 C 0.97555 0.54785 0.09094 0.0
C441 C 0.93834 0.55125 0.12563 0.0
C442 C 0.95445 0.57648 0.13508 0.0
C443 C 0.98089 0.58757 0.12188 0.0
C444 C 0.99126 0.57348 0.09987 0.0
C445 C 0.94395 0.59099 0.15914 0.0
C446 C 0.9198 0.6004 0.1565 0.0
C447 C 0.95809 0.59618 0.18434 0.0
C448 C 0.98334 0.58625 0.18874 0.0
C449 C 1.00832 0.60426 0.19749 0.0
C450 C 0.03195 0.59491 0.20221 0.0
C451 C 0.03093 0.56759 0.1981 0.0
C452 C 1.00618 0.54952 0.18951 0.0
C453 C 0.98239 0.55873 0.18501 0.0
H454 H 0.0493 0.56043 0.20166 0.0
H455 H 0.81611 0.6483 0.16432 0.0
H456 H 0.39677 0.26147 0.16566 0.0
H457 H 0.42471 0.23001 0.14897 0.0
H458 H 0.35053 0.16369 0.15762 0.0
H459 H 0.32282 0.19494 0.17478 0.0
H460 H 0.39275 0.15087 0.17817 0.0
H461 H 0.37898 0.19028 0.09383 0.0
H462 H 0.38106 0.22626 0.06132 0.0
H463 H 0.47156 0.24955 0.06324 0.0
H464 H 0.46999 0.21407 0.09624 0.0
H465 H 0.43516 0.05078 0.09021 0.0
H466 H 0.4126 0.08411 0.11281 0.0
H467 H 0.49326 0.14264 0.11352 0.0
H468 H 0.51604 0.10941 0.09116 0.0
H469 H 0.45119 0.16085 0.09003 0.0
H470 H 0.46406 0.11896 0.17287 0.0
H471 H 0.4609 0.08097 0.20309 0.0
H472 H 0.3704 0.06034 0.20138 0.0
H473 H 0.37303 0.09799 0.17079 0.0
C474 C 0.38645 0.2402 0.16374 0.0
C475 C 0.35767 0.23063 0.17161 0.0
C476 C 0.40239 0.22223 0.15419 0.0
C477 C 0.38971 0.19444 0.15187 0.0
C478 C 0.36086 0.18498 0.15938 0.0
C479 C 0.34504 0.20286 0.16918 0.0
C480 C 0.40642 0.17501 0.14225 0.0
C481 C 0.40528 0.15295 0.15874 0.0
C482 C 0.4234 0.17801 0.11723 0.0
C483 C 0.42433 0.19975 0.09785 0.0
C484 C 0.3993 0.2033 0.08762 0.0
C485 C 0.4004 0.22357 0.06906 0.0
C486 C 0.42642 0.24026 0.06032 0.0
C487 C 0.45141 0.2367 0.07012 0.0
C488 C 0.45042 0.21652 0.08878 0.0
C489 C 0.44818 0.07058 0.09565 0.0
C490 C 0.47737 0.07746 0.08888 0.0
C491 C 0.43527 0.08959 0.10858 0.0
C492 C 0.45129 0.11583 0.11481 0.0
C493 C 0.48055 0.1225 0.10886 0.0
C494 C 0.49354 0.10342 0.09623 0.0
C495 C 0.43715 0.13672 0.12579 0.0
C496 C 0.43881 0.15899 0.10956 0.0
C497 C 0.42043 0.13379 0.15085 0.0
C498 C 0.41876 0.11117 0.16933 0.0
C499 C 0.44349 0.10619 0.17874 0.0
C500 C 0.4418 0.08474 0.19598 0.0
C501 C 0.41547 0.06822 0.2041 0.0
C502 C 0.39078 0.07315 0.19505 0.0
C503 C 0.39236 0.09456 0.17779 0.0
H504 H 0.4142 0.05162 0.21745 0.0
H505 H 0.42722 0.2559 0.04588 0.0
H506 H 0.18323 0.82809 0.55553 0.0
H507 H 0.15591 0.85555 0.535 0.0
H508 H 0.15742 0.90247 0.61181 0.0
H509 H 0.185 0.87565 0.63209 0.0
H510 H 0.10555 0.86995 0.54746 0.0
H511 H 0.1745 0.9678 0.59791 0.0
H512 H 0.22282 0.98506 0.61415 0.0
H513 H 0.25229 0.93029 0.55707 0.0
H514 H 0.20427 0.91301 0.5402 0.0
H515 H 0.08061 1.01217 0.55579 0.0
H516 H 0.1036 0.97832 0.56983 0.0
H517 H 0.097 0.94182 0.48722 0.0
H518 H 0.07368 0.97564 0.47311 0.0
H519 H 0.1531 0.96765 0.54875 0.0
H520 H 0.08589 0.87271 0.49518 0.0
H521 H 0.03792 0.8553 0.47808 0.0
H522 H 1.0057 0.90428 0.5398 0.0
H523 H 0.0534 0.92184 0.55736 0.0
C524 C 0.17727 0.84401 0.56807 0.0
C525 C 0.18661 0.85015 0.59511 0.0
C526 C 0.16168 0.85959 0.55639 0.0
C527 C 0.15526 0.88134 0.57174 0.0
C528 C 0.16274 0.8861 0.59947 0.0
C529 C 0.17848 0.87077 0.61101 0.0
C530 C 0.14278 0.90052 0.55844 0.0
C531 C 0.11608 0.89126 0.54732 0.0
C532 C 0.1566 0.92829 0.55836 0.0
C533 C 0.18572 0.93896 0.56797 0.0
C534 C 0.19133 0.95955 0.58872 0.0
C535 C 0.21866 0.96932 0.59805 0.0
C536 C 0.24059 0.95872 0.5867 0.0
C537 C 0.23527 0.93842 0.56591 0.0
C538 C 0.20799 0.92861 0.55647 0.0
C539 C 0.08411 0.99693 0.54065 0.0
C540 C 0.07542 0.99635 0.51345 0.0
C541 C 0.09725 0.97769 0.54865 0.0
C542 C 0.10175 0.95753 0.52959 0.0
C543 C 0.0934 0.9571 0.50225 0.0
C544 C 0.08031 0.97645 0.4942 0.0
C545 C 0.11553 0.93724 0.53854 0.0
C546 C 0.14264 0.94631 0.54868 0.0
C547 C 0.10214 0.90937 0.53749 0.0
C548 C 0.07327 0.89877 0.52737 0.0
C549 C 0.06855 0.87972 0.50512 0.0
C550 C 0.04141 0.86986 0.49532 0.0
C551 C 0.0188 0.87877 0.50776 0.0
C552 C 0.02325 0.89753 0.53006 0.0
C553 C 0.05035 0.90748 0.53991 0.0
H554 H 0.99783 0.87104 0.50017 0.0
H555 H 0.26173 0.96628 0.59399 0.0
H556 H 0.74246 0.35171 0.88198 0.0
H557 H 0.78611 0.37584 0.90333 0.0
H558 H 0.75856 0.44913 0.90619 0.0
H559 H 0.71499 0.42501 0.88385 0.0
H560 H 0.81232 0.46314 0.89662 0.0
H561 H 0.75667 0.40767 0.96577 0.0
H562 H 0.72779 0.36592 0.98627 0.0
H563 H 0.79808 0.33025 0.97546 0.0
H564 H 0.82729 0.37167 0.95453 0.0
H565 H 0.91858 0.52911 0.99134 0.0
H566 H 0.87392 0.50833 0.96967 0.0
H567 H 0.89658 0.43253 0.9617 0.0
H568 H 0.94068 0.45299 0.98442 0.0
H569 H 0.84377 0.42178 0.9754 0.0
H570 H 0.89813 0.47903 0.90302 0.0
H571 H 0.926 0.52289 0.8861 0.0
H572 H 0.85637 0.55758 0.90786 0.0
H573 H 0.82815 0.51385 0.92502 0.0
C574 C 0.74556 0.37298 0.8871 0.0
C575 C 0.72468 0.38614 0.88127 0.0
C576 C 0.77071 0.38689 0.8996 0.0
C577 C 0.77588 0.41448 0.90745 0.0
C578 C 0.75549 0.42792 0.90075 0.0
C579 C 0.73039 0.41403 0.88783 0.0
C580 C 0.80221 0.4289 0.92278 0.0
C581 C 0.81887 0.45407 0.91402 0.0
C582 C 0.81151 0.41759 0.94567 0.0
C583 C 0.79408 0.39269 0.95834 0.0
C584 C 0.76591 0.39086 0.9676 0.0
C585 C 0.74949 0.36726 0.97931 0.0
C586 C 0.76107 0.34542 0.9821 0.0
C587 C 0.78913 0.34717 0.97325 0.0
C588 C 0.80564 0.37071 0.96148 0.0
C589 C 0.91413 0.50799 0.98501 0.0
C590 C 0.93364 0.49291 0.98977 0.0
C591 C 0.88846 0.49605 0.97225 0.0
C592 C 0.88154 0.46869 0.96315 0.0
C593 C 0.90094 0.4536 0.96822 0.0
C594 C 0.92642 0.46543 0.98129 0.0
C595 C 0.85423 0.4556 0.9488 0.0
C596 C 0.83728 0.43073 0.95787 0.0
C597 C 0.8445 0.46737 0.92652 0.0
C598 C 0.86106 0.49326 0.91526 0.0
C599 C 0.88877 0.49601 0.90411 0.0
C600 C 0.90462 0.52083 0.89452 0.0
C601 C 0.89294 0.543 0.89589 0.0
C602 C 0.86533 0.54036 0.90673 0.0
C603 C 0.84937 0.51556 0.91628 0.0
H604 H 0.90529 0.56223 0.88858 0.0
H605 H 0.74832 0.32717 0.99117 0.0
H606 H 0.77731 0.65254 0.35738 0.0
H607 H 0.73308 0.63019 0.38194 0.0
H608 H 0.77084 0.65582 0.46039 0.0
H609 H 0.81542 0.67766 0.43595 0.0
H610 H 0.73858 0.60374 0.46113 0.0
H611 H 0.72834 0.68955 0.43465 0.0
H612 H 0.72891 0.72519 0.40216 0.0
H613 H 0.66506 0.67054 0.35563 0.0
H614 H 0.6644 0.63444 0.38763 0.0
H615 H 0.61287 0.58972 0.5477 0.0
H616 H 0.65835 0.60644 0.52231 0.0
H617 H 0.61854 0.58066 0.44482 0.0
H618 H 0.57304 0.56411 0.47011 0.0
H619 H 0.65176 0.63153 0.44291 0.0
H620 H 0.66035 0.54612 0.47019 0.0
H621 H 0.65901 0.51052 0.50294 0.0
H622 H 0.72529 0.56379 0.54783 0.0
H623 H 0.72668 0.5999 0.51562 0.0
C624 C 0.77635 0.65311 0.37986 0.0
C625 C 0.79987 0.66702 0.3947 0.0
C626 C 0.75098 0.6405 0.39387 0.0
C627 C 0.74854 0.64161 0.42301 0.0
C628 C 0.7722 0.65478 0.4379 0.0
C629 C 0.79758 0.66746 0.4239 0.0
C630 C 0.72107 0.62977 0.43792 0.0
C631 C 0.71965 0.61002 0.45739 0.0
C632 C 0.69623 0.63752 0.43259 0.0
C633 C 0.69655 0.65922 0.41336 0.0
C634 C 0.71459 0.68507 0.41735 0.0
C635 C 0.7149 0.70536 0.39905 0.0
C636 C 0.69709 0.70011 0.3768 0.0
C637 C 0.67888 0.67457 0.37285 0.0
C638 C 0.67852 0.65419 0.39107 0.0
C639 C 0.61391 0.5875 0.52527 0.0
C640 C 0.5895 0.57561 0.51086 0.0
C641 C 0.63989 0.59696 0.51079 0.0
C642 C 0.64189 0.59464 0.48166 0.0
C643 C 0.6175 0.58264 0.46728 0.0
C644 C 0.59156 0.5731 0.48175 0.0
C645 C 0.66922 0.60551 0.46615 0.0
C646 C 0.67063 0.62514 0.44659 0.0
C647 C 0.69399 0.59758 0.47138 0.0
C648 C 0.69343 0.57582 0.49062 0.0
C649 C 0.67449 0.55033 0.48717 0.0
C650 C 0.67374 0.53004 0.50562 0.0
C651 C 0.69201 0.53491 0.52749 0.0
C652 C 0.71112 0.56006 0.5309 0.0
C653 C 0.71191 0.58045 0.51254 0.0
H654 H 0.6914 0.51918 0.54175 0.0
H655 H 0.69736 0.71585 0.36265 0.0
H656 H 0.3003 0.37834 0.20335 0.0
H657 H 0.26481 0.399 0.18677 0.0
H658 H 0.25795 0.34737 0.1129 0.0
H659 H 0.29325 0.3265 0.1295 0.0
H660 H 0.26064 0.42634 0.14185 0.0
H661 H 0.18834 0.32751 0.09747 0.0
H662 H 0.1769 0.27872 0.10506 0.0
H663 H 0.20042 0.2946 0.18968 0.0
H664 H 0.21157 0.34345 0.18271 0.0
H665 H 0.15613 0.45199 0.05793 0.0
H666 H 0.19433 0.43635 0.07643 0.0
H667 H 0.13868 0.40181 0.14505 0.0
H668 H 0.10031 0.41713 0.12648 0.0
H669 H 0.16655 0.36666 0.12161 0.0
H670 H 0.18935 0.45758 0.15596 0.0
H671 H 0.2 0.50707 0.15496 0.0
H672 H 0.27253 0.50823 0.10014 0.0
H673 H 0.26207 0.45867 0.10046 0.0
C674 C 0.29144 0.37165 0.18341 0.0
C675 C 0.29939 0.35077 0.16779 0.0
C676 C 0.27122 0.38348 0.17396 0.0
C677 C 0.25849 0.37451 0.14877 0.0
C678 C 0.26724 0.35435 0.13258 0.0
C679 C 0.28749 0.34251 0.14204 0.0
C680 C 0.23521 0.38543 0.14009 0.0
C681 C 0.24011 0.4133 0.13726 0.0
C682 C 0.20818 0.36848 0.1349 0.0
C683 C 0.20108 0.33913 0.13945 0.0
C684 C 0.19095 0.32058 0.11772 0.0
C685 C 0.18453 0.29292 0.12192 0.0
C686 C 0.18802 0.28357 0.14781 0.0
C687 C 0.19782 0.30186 0.1696 0.0
C688 C 0.20422 0.32954 0.16553 0.0
C689 C 0.15207 0.44109 0.07698 0.0
C690 C 0.12522 0.43575 0.09075 0.0
C691 C 0.17395 0.43234 0.08762 0.0
C692 C 0.16937 0.41801 0.11217 0.0
C693 C 0.14266 0.41285 0.12608 0.0
C694 C 0.12083 0.42178 0.11557 0.0
C695 C 0.19215 0.40755 0.12277 0.0
C696 C 0.18713 0.37972 0.12598 0.0
C697 C 0.21884 0.42463 0.12895 0.0
C698 C 0.22475 0.45437 0.12802 0.0
C699 C 0.20736 0.46835 0.1434 0.0
C700 C 0.21341 0.49642 0.14302 0.0
C701 C 0.23691 0.51077 0.12748 0.0
C702 C 0.25433 0.49707 0.11216 0.0
C703 C 0.24836 0.46899 0.11244 0.0
H704 H 0.24172 0.5325 0.12748 0.0
H705 H 0.18308 0.26215 0.151 0.0
H706 H 0.68174 0.29152 0.89055 0.0
H707 H 0.66015 0.24905 0.91258 0.0
H708 H 0.57755 0.26147 0.90372 0.0
H709 H 0.59917 0.30481 0.88263 0.0
H710 H 0.57755 0.24143 0.95257 0.0
H711 H 0.60716 0.214 0.86158 0.0
H712 H 0.64081 0.21233 0.82187 0.0
H713 H 0.69226 0.18101 0.87358 0.0
H714 H 0.65908 0.18281 0.9137 0.0
H715 H 0.49788 0.10918 0.98274 0.0
H716 H 0.52106 0.15138 0.96095 0.0
H717 H 0.60215 0.1351 0.96892 0.0
H718 H 0.57855 0.09184 0.99006 0.0
H719 H 0.60398 0.1574 0.92151 0.0
H720 H 0.57416 0.18362 1.01228 0.0
H721 H 0.54066 0.18497 0.05221 0.0
H722 H 0.49026 0.21892 1.00185 0.0
H723 H 0.5232 0.21736 0.96146 0.0
C724 C 0.65895 0.28558 0.8934 0.0
C725 C 0.64251 0.30231 0.88458 0.0
C726 C 0.64646 0.26076 0.90584 0.0
C727 C 0.61688 0.25122 0.90978 0.0
C728 C 0.60035 0.26785 0.90107 0.0
C729 C 0.61286 0.29278 0.88863 0.0
C730 C 0.60338 0.22431 0.92315 0.0
C731 C 0.58313 0.22306 0.9454 0.0
C732 C 0.61088 0.19997 0.9148 0.0
C733 C 0.63078 0.19878 0.8907 0.0
C734 C 0.62575 0.20693 0.86452 0.0
C735 C 0.64472 0.20593 0.84194 0.0
C736 C 0.66869 0.19664 0.84522 0.0
C737 C 0.6737 0.18824 0.87108 0.0
C738 C 0.65481 0.18922 0.89374 0.0
C739 C 0.52069 0.11442 0.97991 0.0
C740 C 0.53618 0.09679 0.9884 0.0
C741 C 0.5341 0.13896 0.96753 0.0
C742 C 0.56374 0.14741 0.96358 0.0
C743 C 0.57934 0.12959 0.97166 0.0
C744 C 0.5658 0.10471 0.98388 0.0
C745 C 0.57803 0.17447 0.95086 0.0
C746 C 0.59842 0.17577 0.92874 0.0
C747 C 0.57074 0.19889 0.95942 0.0
C748 C 0.55104 0.20014 0.98376 0.0
C749 C 0.55584 0.19122 1.00966 0.0
C750 C 0.53696 0.19203 0.03238 0.0
C751 C 0.51331 0.20196 0.02955 0.0
C752 C 0.50856 0.21119 1.004 0.0
C753 C 0.52734 0.21037 0.98119 0.0
H754 H 0.49871 0.20255 0.04715 0.0
H755 H 0.68336 0.19589 0.8277 0.0
H756 H 0.88665 0.76817 0.34608 0.0
H757 H 0.90858 0.81331 0.36518 0.0
H758 H 0.90109 0.78174 0.44717 0.0
H759 H 0.87883 0.73687 0.42827 0.0
H760 H 0.88413 0.82573 0.44977 0.0
H761 H 0.96565 0.80051 0.40849 0.0
H762 H 0.99456 0.78486 0.37088 0.0
H763 H 0.99375 0.85297 0.32332 0.0
H764 H 0.96451 0.86885 0.36052 0.0
H765 H 0.97679 0.93374 0.52081 0.0
H766 H 0.95544 0.89043 0.49795 0.0
H767 H 0.95527 0.92999 0.42137 0.0
H768 H 0.9765 0.97359 0.44423 0.0
H769 H 0.97545 0.88358 0.41419 0.0
H770 H 0.89507 0.90931 0.4574 0.0
H771 H 0.86755 0.92489 0.49626 0.0
H772 H 0.86766 0.85513 0.54148 0.0
H773 H 0.89554 0.83932 0.50303 0.0
C774 C 0.89002 0.77085 0.36812 0.0
C775 C 0.8809 0.74898 0.38568 0.0
C776 C 0.90257 0.79666 0.37904 0.0
C777 C 0.90666 0.80102 0.40767 0.0
C778 C 0.89803 0.77903 0.42507 0.0
C779 C 0.88531 0.75336 0.41424 0.0
C780 C 0.91908 0.82849 0.4198 0.0
C781 C 0.90427 0.83819 0.44213 0.0
C782 C 0.94503 0.84518 0.40952 0.0
C783 C 0.96263 0.8357 0.38715 0.0
C784 C 0.97145 0.81203 0.38991 0.0
C785 C 0.98793 0.80315 0.36869 0.0
C786 C 0.99592 0.81787 0.34469 0.0
C787 C 0.98751 0.84156 0.3419 0.0
C788 C 0.971 0.85053 0.36305 0.0
C789 C 0.97223 0.93327 0.4991 0.0
C790 C 0.97832 0.95714 0.48436 0.0
C791 C 0.95997 0.90848 0.48607 0.0
C792 C 0.95372 0.90695 0.45795 0.0
C793 C 0.95995 0.9307 0.44308 0.0
C794 C 0.97192 0.95561 0.45622 0.0
C795 C 0.94062 0.88051 0.44423 0.0
C796 C 0.95526 0.87107 0.42165 0.0
C797 C 0.91462 0.86394 0.45439 0.0
C798 C 0.89759 0.87324 0.47742 0.0
C799 C 0.88939 0.89738 0.47571 0.0
C800 C 0.87371 0.90624 0.49765 0.0
C801 C 0.86592 0.89103 0.52135 0.0
C802 C 0.87373 0.8669 0.52312 0.0
C803 C 0.88945 0.85796 0.50124 0.0
H804 H 0.85378 0.89793 0.53832 0.0
H805 H 1.00868 0.81096 0.32828 0.0
H806 H 0.3484 0.83899 0.60382 0.0
H807 H 0.37242 0.80817 0.57876 0.0
H808 H 0.29236 0.75 0.56915 0.0
H809 H 0.26838 0.78006 0.59549 0.0
H810 H 0.32796 0.72817 0.59098 0.0
H811 H 0.33223 0.78228 0.51265 0.0
H812 H 0.34191 0.82419 0.487 0.0
H813 H 0.43003 0.84021 0.50287 0.0
H814 H 0.42084 0.7986 0.52896 0.0
H815 H 0.39354 0.63393 0.53247 0.0
H816 H 0.36581 0.66684 0.5284 0.0
H817 H 0.43805 0.73107 0.54985 0.0
H818 H 0.46602 0.69827 0.55322 0.0
H819 H 0.40252 0.74781 0.51524 0.0
H820 H 0.39665 0.69994 0.60043 0.0
H821 H 0.38879 0.65839 0.62646 0.0
H822 H 0.30422 0.6321 0.59859 0.0
H823 H 0.3118 0.67331 0.57195 0.0
C824 C 0.33589 0.81968 0.59627 0.0
C825 C 0.30651 0.81186 0.60194 0.0
C826 C 0.34961 0.80226 0.58154 0.0
C827 C 0.33414 0.77687 0.57187 0.0
C828 C 0.30467 0.76956 0.57634 0.0
C829 C 0.29098 0.78684 0.59127 0.0
C830 C 0.34899 0.75671 0.56043 0.0
C831 C 0.3437 0.73225 0.5739 0.0
C832 C 0.37014 0.76233 0.53869 0.0
C833 C 0.37579 0.78736 0.52293 0.0
C834 C 0.35364 0.79483 0.51085 0.0
C835 C 0.35905 0.81852 0.4962 0.0
C836 C 0.38656 0.83487 0.49335 0.0
C837 C 0.40873 0.82753 0.5051 0.0
C838 C 0.40344 0.80386 0.51978 0.0
C839 C 0.40365 0.65517 0.53546 0.0
C840 C 0.43162 0.66368 0.54368 0.0
C841 C 0.38791 0.6739 0.533 0.0
C842 C 0.39978 0.70125 0.53941 0.0
C843 C 0.42854 0.71004 0.54485 0.0
C844 C 0.44444 0.69131 0.54692 0.0
C845 C 0.38128 0.71957 0.5458 0.0
C846 C 0.38615 0.74364 0.53173 0.0
C847 C 0.35981 0.71383 0.56718 0.0
C848 C 0.35488 0.68954 0.58399 0.0
C849 C 0.37642 0.68524 0.59978 0.0
C850 C 0.37203 0.66175 0.61461 0.0
C851 C 0.34605 0.64258 0.61411 0.0
C852 C 0.32435 0.64694 0.5989 0.0
C853 C 0.32868 0.67035 0.58393 0.0
H854 H 0.34271 0.62437 0.62556 0.0
H855 H 0.3907 0.85321 0.482 0.0
H856 H 0.76058 0.86366 0.83264 0.0
H857 H 0.7963 0.88206 0.79662 0.0
H858 H 0.78551 0.80309 0.75752 0.0
H859 H 0.74864 0.7845 0.79282 0.0
H860 H 0.84374 0.83309 0.76589 0.0
H861 H 0.75977 0.84244 0.72619 0.0
H862 H 0.71469 0.85533 0.72598 0.0
H863 H 0.75787 0.93807 0.74214 0.0
H864 H 0.80318 0.92562 0.74288 0.0
H865 H 0.93358 0.88958 0.64918 0.0
H866 H 0.89496 0.86299 0.67867 0.0
H867 H 0.8804 0.9363 0.71687 0.0
H868 H 0.91834 0.96274 0.68712 0.0
H869 H 0.8323 0.90377 0.7046 0.0
H870 H 0.91472 0.89491 0.74942 0.0
H871 H 0.96016 0.88308 0.75202 0.0
H872 H 0.92073 0.80098 0.72852 0.0
H873 H 0.87511 0.81242 0.72543 0.0
C874 C 0.76529 0.85019 0.81614 0.0
C875 C 0.75147 0.82257 0.8156 0.0
C876 C 0.78592 0.86075 0.79568 0.0
C877 C 0.7934 0.84392 0.77442 0.0
C878 C 0.78002 0.81634 0.77386 0.0
C879 C 0.75905 0.80577 0.79413 0.0
C880 C 0.81541 0.85543 0.75298 0.0
C881 C 0.84115 0.84818 0.75206 0.0
C882 C 0.81204 0.87543 0.73542 0.0
C883 C 0.78485 0.88305 0.73481 0.0
C884 C 0.75963 0.86335 0.72993 0.0
C885 C 0.73404 0.87058 0.72967 0.0
C886 C 0.73341 0.89749 0.7341 0.0
C887 C 0.75839 0.91723 0.73873 0.0
C888 C 0.78404 0.9101 0.73904 0.0
C889 C 0.92223 0.89991 0.66407 0.0
C890 C 0.92882 0.92818 0.66584 0.0
C891 C 0.90021 0.88474 0.68089 0.0
C892 C 0.88482 0.89764 0.70009 0.0
C893 C 0.89178 0.92588 0.70209 0.0
C894 C 0.91348 0.94098 0.68512 0.0
C895 C 0.86113 0.88204 0.71792 0.0
C896 C 0.83493 0.88846 0.71813 0.0
C897 C 0.86422 0.86148 0.73501 0.0
C898 C 0.89161 0.85459 0.73687 0.0
C899 C 0.9158 0.87439 0.74458 0.0
C900 C 0.94157 0.86775 0.74619 0.0
C901 C 0.94335 0.84132 0.74035 0.0
C902 C 0.91934 0.82146 0.73298 0.0
C903 C 0.89352 0.828 0.73131 0.0
H904 H 0.96332 0.83621 0.74162 0.0
H905 H 0.71357 0.90305 0.7339 0.0
H906 H 0.73232 0.18559 0.37414 0.0
H907 H 0.71534 0.17099 0.328 0.0
H908 H 0.6294 0.15086 0.36193 0.0
H909 H 0.64631 0.16446 0.40842 0.0
H910 H 0.63875 0.11192 0.32658 0.0
H911 H 0.65526 0.20763 0.3255 0.0
H912 H 0.68242 0.2549 0.33135 0.0
H913 H 0.74422 0.24158 0.26913 0.0
H914 H 0.71764 0.19409 0.26319 0.0
H915 H 0.57578 0.09863 0.19553 0.0
H916 H 0.59028 0.1144 0.24231 0.0
H917 H 0.6778 0.12947 0.21383 0.0
H918 H 0.66359 0.11306 0.16718 0.0
H919 H 0.66587 0.1717 0.2466 0.0
H920 H 0.64985 0.07552 0.24918 0.0
H921 H 0.62236 0.02835 0.24334 0.0
H922 H 0.5589 0.04309 0.3029 0.0
H923 H 0.58584 0.09049 0.30879 0.0
C924 C 0.70982 0.17782 0.37185 0.0
C925 C 0.69066 0.17614 0.39497 0.0
C926 C 0.70013 0.16977 0.34541 0.0
C927 C 0.67109 0.16015 0.34149 0.0
C928 C 0.65189 0.15833 0.3645 0.0
C929 C 0.66158 0.16631 0.391 0.0
C930 C 0.66085 0.15153 0.31341 0.0
C931 C 0.64429 0.12514 0.30919 0.0
C932 C 0.66857 0.16863 0.29063 0.0
C933 C 0.68457 0.19722 0.29408 0.0
C934 C 0.67475 0.21471 0.31321 0.0
C935 C 0.69003 0.24156 0.31652 0.0
C936 C 0.71506 0.25122 0.30067 0.0
C937 C 0.72484 0.23406 0.28142 0.0
C938 C 0.70966 0.20718 0.27805 0.0
C939 C 0.59812 0.10502 0.19925 0.0
C940 C 0.61852 0.1045 0.17759 0.0
C941 C 0.60634 0.11415 0.22596 0.0
C942 C 0.63509 0.12295 0.23148 0.0
C943 C 0.6555 0.12285 0.2099 0.0
C944 C 0.64732 0.11357 0.18324 0.0
C945 C 0.64393 0.13212 0.25983 0.0
C946 C 0.66023 0.15859 0.26407 0.0
C947 C 0.63589 0.11514 0.28264 0.0
C948 C 0.6197 0.08663 0.27919 0.0
C949 C 0.62991 0.06877 0.26085 0.0
C950 C 0.61445 0.04198 0.25756 0.0
C951 C 0.58886 0.03275 0.27268 0.0
C952 C 0.57871 0.05028 0.29117 0.0
C953 C 0.59407 0.07711 0.2945 0.0
H954 H 0.57692 1.01199 0.27011 0.0
H955 H 0.72685 0.27202 0.30326 0.0
H956 H 0.39463 0.63857 0.26323 0.0
H957 H 0.41128 0.61524 0.2994 0.0
H958 H 0.42773 0.68814 0.35077 0.0
H959 H 0.41283 0.71161 0.31402 0.0
H960 H 0.46627 0.66886 0.3604 0.0
H961 H 0.36781 0.62425 0.36022 0.0
H962 H 0.32294 0.5988 0.34074 0.0
H963 H 0.35992 0.53348 0.31613 0.0
H964 H 0.40513 0.55868 0.3352 0.0
H965 H 0.47697 0.60551 0.48833 0.0
H966 H 0.45946 0.62701 0.45123 0.0
H967 H 0.468 0.5623 0.39397 0.0
H968 H 0.48595 0.54098 0.43081 0.0
H969 H 0.41707 0.57636 0.38766 0.0
H970 H 0.51564 0.6231 0.39104 0.0
H971 H 0.5582 0.64917 0.41409 0.0
H972 H 0.51692 0.7119 0.43706 0.0
H973 H 0.47397 0.68603 0.41443 0.0
C974 C 0.40168 0.6496 0.28228 0.0
C975 C 0.40211 0.67713 0.28548 0.0
C976 C 0.4111 0.6361 0.30334 0.0
C977 C 0.42059 0.64937 0.32881 0.0
C978 C 0.42083 0.6769 0.33179 0.0
C979 C 0.41202 0.69045 0.31059 0.0
C980 C 0.43077 0.63522 0.35203 0.0
C981 C 0.45499 0.64878 0.3664 0.0
C982 C 0.417 0.60864 0.36041 0.0
C983 C 0.38993 0.59348 0.34885 0.0
C984 C 0.36642 0.60454 0.35048 0.0
C985 C 0.34092 0.59015 0.33954 0.0
C986 C 0.33861 0.56458 0.32713 0.0
C987 C 0.36177 0.55331 0.3257 0.0
C988 C 0.38732 0.56763 0.33658 0.0
C989 C 0.47516 0.59575 0.46789 0.0
C990 C 0.48317 0.57133 0.46293 0.0
C991 C 0.46513 0.60821 0.44646 0.0
C992 C 0.46232 0.5966 0.41927 0.0
C993 C 0.46977 0.57195 0.41447 0.0
C994 C 0.48023 0.55973 0.43574 0.0
C995 C 0.45213 0.6102 0.39588 0.0
C996 C 0.42807 0.5965 0.38153 0.0
C997 C 0.46563 0.63683 0.38793 0.0
C998 C 0.49152 0.65253 0.40125 0.0
C999 C 0.51558 0.64238 0.40116 0.0
C1000 C 0.53978 0.65713 0.41412 0.0
C1001 C 0.54024 0.68215 0.42709 0.0
C1002 C 0.51652 0.6925 0.42703 0.0
C1003 C 0.49226 0.67782 0.41412 0.0
H1004 H 0.55899 0.69353 0.43712 0.0
H1005 H 0.31885 0.55347 0.31867 0.0
H1006 H 0.18902 0.45393 0.78371 0.0
H1007 H 0.16575 0.47147 0.82385 0.0
H1008 H 0.09349 0.40319 0.81724 0.0
H1009 H 0.1165 0.38597 0.77632 0.0
H1010 H 0.07605 0.44689 0.82835 0.0
H1011 H 0.14242 0.40865 0.86833 0.0
H1012 H 0.18868 0.39985 0.87497 0.0
H1013 H 0.2233 0.48344 0.89627 0.0
H1014 H 0.17734 0.49284 0.88938 0.0
H1015 H 0.02006 0.47964 0.96249 0.0
H1016 H 0.0406 0.45545 0.92509 0.0
H1017 H 0.11154 0.52465 0.91536 0.0
H1018 H 0.09105 0.54892 0.95266 0.0
H1019 H 0.12735 0.47609 0.91462 0.0
H1020 H 0.0599 0.51342 0.87139 0.0
H1021 H 0.01253 0.52041 0.86642 0.0
H1022 H 0.97866 0.43529 0.85327 0.0
H1023 H 0.02579 0.42776 0.85855 0.0
C1024 C 0.16817 0.44264 0.79082 0.0
C1025 C 0.15466 0.41854 0.77695 0.0
C1026 C 0.15493 0.4526 0.81391 0.0
C1027 C 0.12804 0.43842 0.82404 0.0
C1028 C 0.11429 0.41445 0.80996 0.0
C1029 C 0.12747 0.40459 0.7866 0.0
C1030 C 0.11435 0.449 0.84906 0.0
C1031 C 0.08712 0.4528 0.84736 0.0
C1032 C 0.12876 0.45703 0.87391 0.0
C1033 C 0.15647 0.45148 0.87811 0.0
C1034 C 0.15995 0.4252 0.87423 0.0
C1035 C 0.18611 0.4201 0.87807 0.0
C1036 C 0.20893 0.44108 0.88598 0.0
C1037 C 0.20561 0.46721 0.89012 0.0
C1038 C 0.1795 0.47243 0.88628 0.0
C1039 C 0.04013 0.48961 0.95248 0.0
C1040 C 0.05394 0.5162 0.96038 0.0
C1041 C 0.05178 0.47581 0.93106 0.0
C1042 C 0.07749 0.48833 0.91726 0.0
C1043 C 0.09167 0.51461 0.92569 0.0
C1044 C 0.07992 0.52848 0.94693 0.0
C1045 C 0.08943 0.47436 0.89362 0.0
C1046 C 0.11628 0.46992 0.89564 0.0
C1047 C 0.07453 0.46545 0.86925 0.0
C1048 C 0.0463 0.47001 0.86566 0.0
C1049 C 0.04231 0.49618 0.86763 0.0
C1050 C 0.01551 0.50024 0.86473 0.0
C1051 C 0.99258 0.4783 0.85962 0.0
C1052 C 0.99643 0.45226 0.85728 0.0
C1053 C 0.02318 0.44809 0.8602 0.0
H1054 H 0.97184 0.48149 0.85741 0.0
H1055 H 0.22917 0.43708 0.88894 0.0
H1056 H 0.63523 0.80363 0.88408 0.0
H1057 H 0.60654 0.83362 0.90362 0.0
H1058 H 0.68158 0.89917 0.90802 0.0
H1059 H 0.71017 0.86945 0.88854 0.0
H1060 H 0.64645 0.89467 0.95636 0.0
H1061 H 0.63962 0.89598 0.85679 0.0
H1062 H 0.62831 0.87529 0.81032 0.0
H1063 H 0.54191 0.84361 0.8385 0.0
H1064 H 0.55283 0.86378 0.88529 0.0
H1065 H 0.59752 1.01017 0.9771 0.0
H1066 H 0.62014 0.97691 0.95482 0.0
H1067 H 0.53866 0.92073 0.94683 0.0
H1068 H 0.51574 0.95415 0.96869 0.0
H1069 H 0.57333 0.91694 0.90182 0.0
H1070 H 0.57799 0.91633 0.99994 0.0
H1071 H 0.58772 0.93598 0.04706 0.0
H1072 H 0.67586 0.96385 1.0233 0.0
H1073 H 0.66659 0.94475 0.97586 0.0
C1074 C 0.64554 0.82439 0.88944 0.0
C1075 C 0.67487 0.83429 0.88467 0.0
C1076 C 0.62916 0.8415 0.90042 0.0
C1077 C 0.64194 0.86866 0.90706 0.0
C1078 C 0.6713 0.87832 0.90298 0.0
C1079 C 0.68757 0.86137 0.89174 0.0
C1080 C 0.62495 0.88729 0.91806 0.0
C1081 C 0.63062 0.89971 0.94436 0.0
C1082 C 0.60368 0.89319 0.90274 0.0
C1083 C 0.59712 0.8811 0.87462 0.0
C1084 C 0.61827 0.88438 0.85315 0.0
C1085 C 0.61192 0.87279 0.82674 0.0
C1086 C 0.58443 0.85807 0.82148 0.0
C1087 C 0.56321 0.85497 0.84262 0.0
C1088 C 0.56947 0.86648 0.86908 0.0
C1089 C 0.58433 0.99092 0.9702 0.0
C1090 C 0.55484 0.98472 0.97494 0.0
C1091 C 0.59732 0.97186 0.95758 0.0
C1092 C 0.58114 0.94611 0.94976 0.0
C1093 C 0.55157 0.94041 0.95288 0.0
C1094 C 0.53851 0.95956 0.96538 0.0
C1095 C 0.59529 0.92479 0.93988 0.0
C1096 C 0.58901 0.91179 0.91391 0.0
C1097 C 0.61579 0.91805 0.95565 0.0
C1098 C 0.62155 0.9293 0.98426 0.0
C1099 C 0.59942 0.92681 1.0047 0.0
C1100 C 0.60486 0.93783 0.03148 0.0
C1101 C 0.63238 0.9512 0.03815 0.0
C1102 C 0.65455 0.95351 1.01808 0.0
C1103 C 0.64922 0.94257 0.99125 0.0
H1104 H 0.63655 0.95973 0.05889 0.0
H1105 H 0.57955 0.84913 0.80102 0.0
H1106 H 0.77721 0.15808 0.54177 0.0
H1107 H 0.8113 0.13202 0.54949 0.0
H1108 H 0.84245 0.14158 0.4641 0.0
H1109 H 0.80808 0.16701 0.45617 0.0
H1110 H 0.83239 0.09098 0.47683 0.0
H1111 H 0.8814 0.17522 0.51779 0.0
H1112 H 0.88819 0.21584 0.54864 0.0
H1113 H 0.87118 0.16664 0.62001 0.0
H1114 H 0.86392 0.12568 0.58957 0.0
H1115 H 0.96402 0.05685 0.48868 0.0
H1116 H 0.92705 0.08004 0.48242 0.0
H1117 H 0.88525 0.04968 0.55974 0.0
H1118 H 0.92204 0.02609 0.56585 0.0
H1119 H 0.89949 0.10901 0.55261 0.0
H1120 H 0.85306 0.02438 0.50874 0.0
H1121 H 0.85012 0.98555 0.47592 0.0
H1122 H 0.86648 0.03835 0.40741 0.0
H1123 H 0.86999 0.07757 0.43987 0.0
C1124 C 0.7916 0.15484 0.5248 0.0
C1125 C 0.78991 0.16427 0.49838 0.0
C1126 C 0.81108 0.14005 0.52922 0.0
C1127 C 0.82941 0.13491 0.50735 0.0
C1128 C 0.82835 0.14517 0.48119 0.0
C1129 C 0.80875 0.15973 0.47671 0.0
C1130 C 0.8487 0.11768 0.51128 0.0
C1131 C 0.84727 0.09513 0.49322 0.0
C1132 C 0.86771 0.1228 0.533 0.0
C1133 C 0.87178 0.14737 0.55138 0.0
C1134 C 0.87883 0.17305 0.54006 0.0
C1135 C 0.88283 0.19613 0.55747 0.0
C1136 C 0.88003 0.19382 0.58626 0.0
C1137 C 0.87329 0.1684 0.59771 0.0
C1138 C 0.86925 0.14524 0.58038 0.0
C1139 C 0.9468 0.055 0.50414 0.0
C1140 C 0.94585 0.04006 0.52781 0.0
C1141 C 0.92571 0.06807 0.50052 0.0
C1142 C 0.90366 0.06655 0.52072 0.0
C1143 C 0.90223 0.051 0.54402 0.0
C1144 C 0.92306 0.03749 0.54738 0.0
C1145 C 0.88311 0.08258 0.51815 0.0
C1146 C 0.88439 0.10488 0.53641 0.0
C1147 C 0.86433 0.07752 0.49635 0.0
C1148 C 0.86206 0.05394 0.47677 0.0
C1149 C 0.8563 0.02775 0.4867 0.0
C1150 C 0.85447 1.00566 0.46815 0.0
C1151 C 0.85818 1.00949 0.4396 0.0
C1152 C 0.86365 0.03542 0.42953 0.0
C1153 C 0.86553 0.05758 0.448 0.0
H1154 H 0.85675 0.99236 0.42528 0.0
H1155 H 0.88316 0.21172 0.59971 0.0
H1156 H 0.30845 0.637 0.17302 0.0
H1157 H 0.26484 0.6137 0.15079 0.0
H1158 H 0.24454 0.68955 0.14251 0.0
H1159 H 0.28738 0.71282 0.16573 0.0
H1160 H 0.19795 0.6547 0.15629 0.0
H1161 H 0.27216 0.6521 0.0873 0.0
H1162 H 0.31587 0.64145 0.06787 0.0
H1163 H 0.27845 0.5572 0.0786 0.0
H1164 H 0.2346 0.56741 0.09834 0.0
H1165 H 0.09084 0.61228 0.05806 0.0
H1166 H 0.13481 0.63344 0.0807 0.0
H1167 H 0.14914 0.55536 0.09114 0.0
H1168 H 0.10514 0.53401 0.06825 0.0
H1169 H 0.19843 0.58996 0.07672 0.0
H1170 H 0.12495 0.59153 0.14502 0.0
H1171 H 0.08035 0.60069 0.1634 0.0
H1172 H 0.11588 0.68551 0.15467 0.0
H1173 H 0.16056 0.67676 0.1353 0.0
C1174 C 0.29469 0.64885 0.16677 0.0
C1175 C 0.30213 0.67713 0.17128 0.0
C1176 C 0.26966 0.63539 0.15361 0.0
C1177 C 0.25108 0.64963 0.14423 0.0
C1178 C 0.2582 0.67776 0.14917 0.0
C1179 C 0.28315 0.69121 0.16234 0.0
C1180 C 0.22431 0.6355 0.12952 0.0
C1181 C 0.19833 0.64086 0.13865 0.0
C1182 C 0.22395 0.61664 0.10681 0.0
C1183 C 0.25027 0.61055 0.09477 0.0
C1184 C 0.27334 0.63133 0.08577 0.0
C1185 C 0.29813 0.62537 0.07463 0.0
C1186 C 0.3 0.59868 0.07214 0.0
C1187 C 0.27703 0.57788 0.08065 0.0
C1188 C 0.25222 0.58374 0.09182 0.0
C1189 C 0.10327 0.59948 0.06506 0.0
C1190 C 0.09399 0.57124 0.0612 0.0
C1191 C 0.12857 0.61171 0.07823 0.0
C1192 C 0.14561 0.59622 0.08819 0.0
C1193 C 0.1367 0.56803 0.08385 0.0
C1194 C 0.11129 0.55576 0.07074 0.0
C1195 C 0.1723 0.60939 0.10336 0.0
C1196 C 0.19816 0.60383 0.09435 0.0
C1197 C 0.17258 0.62797 0.12624 0.0
C1198 C 0.14602 0.63345 0.13844 0.0
C1199 C 0.12321 0.61213 0.14683 0.0
C1200 C 0.09789 0.61726 0.15744 0.0
C1201 C 0.09523 0.64368 0.16027 0.0
C1202 C 0.11795 0.66504 0.15246 0.0
C1203 C 0.14328 0.66001 0.1416 0.0
H1204 H 0.07559 0.64759 0.16852 0.0
H1205 H 0.3192 0.59411 0.06351 0.0
H1206 H 0.21657 0.38762 0.61714 0.0
H1207 H 0.26094 0.41128 0.59381 0.0
H1208 H 0.29663 0.43689 0.67315 0.0
H1209 H 0.25238 0.41288 0.69674 0.0
H1210 H 0.31081 0.4776 0.63471 0.0
H1211 H 0.31243 0.38482 0.63937 0.0
H1212 H 0.29357 0.33576 0.63273 0.0
H1213 H 0.29315 0.34438 0.54479 0.0
H1214 H 0.31162 0.39358 0.55096 0.0
H1215 H 0.45677 0.50804 0.58769 0.0
H1216 H 0.41057 0.49107 0.61169 0.0
H1217 H 0.37444 0.46092 0.53347 0.0
H1218 H 0.42054 0.47785 0.50943 0.0
H1219 H 0.36031 0.42329 0.5719 0.0
H1220 H 0.36007 0.51574 0.56646 0.0
H1221 H 0.37744 0.56501 0.57268 0.0
H1222 H 0.3747 0.55768 0.66102 0.0
H1223 H 0.3578 0.50831 0.65533 0.0
C1224 C 0.23386 0.39821 0.62968 0.0
C1225 C 0.23097 0.39807 0.65884 0.0
C1226 C 0.25918 0.41184 0.61629 0.0
C1227 C 0.28221 0.4256 0.63174 0.0
C1228 C 0.27911 0.42642 0.66083 0.0
C1229 C 0.25377 0.41272 0.67427 0.0
C1230 C 0.30989 0.43797 0.61748 0.0
C1231 C 0.32187 0.46573 0.62124 0.0
C1232 C 0.32397 0.42252 0.59946 0.0
C1233 C 0.31315 0.39291 0.59566 0.0
C1234 C 0.30812 0.37628 0.61864 0.0
C1235 C 0.29753 0.34844 0.61495 0.0
C1236 C 0.2921 0.33697 0.58836 0.0
C1237 C 0.29733 0.3533 0.56538 0.0
C1238 C 0.30788 0.38116 0.56896 0.0
C1239 C 0.43888 0.49807 0.57561 0.0
C1240 C 0.4422 0.49427 0.5467 0.0
C1241 C 0.41249 0.48844 0.58933 0.0
C1242 C 0.38898 0.47485 0.57437 0.0
C1243 C 0.39227 0.47133 0.54544 0.0
C1244 C 0.4186 0.48103 0.53173 0.0
C1245 C 0.3613 0.46305 0.58893 0.0
C1246 C 0.34933 0.43528 0.58531 0.0
C1247 C 0.34727 0.47856 0.60698 0.0
C1248 C 0.35792 0.50824 0.61044 0.0
C1249 C 0.36347 0.52458 0.58721 0.0
C1250 C 0.37316 0.55255 0.59064 0.0
C1251 C 0.37715 0.56446 0.61723 0.0
C1252 C 0.37158 0.54842 0.64044 0.0
C1253 C 0.36195 0.52044 0.63712 0.0
H1254 H 0.38452 0.58612 0.61985 0.0
H1255 H 0.28389 0.31541 0.58555 0.0
H1256 H 0.72361 0.72581 0.92246 0.0
H1257 H 0.75278 0.7006 0.94334 0.0
H1258 H 0.77516 0.67146 0.86195 0.0
H1259 H 0.74538 0.69599 0.84112 0.0
H1260 H 0.7683 0.63284 0.89739 0.0
H1261 H 0.81883 0.72623 0.89563 0.0
H1262 H 0.82592 0.775 0.90537 0.0
H1263 H 0.81676 0.76194 0.99294 0.0
H1264 H 0.80923 0.71302 0.98368 0.0
H1265 H 0.90258 0.60945 0.92197 0.0
H1266 H 0.86247 0.62407 0.90618 0.0
H1267 H 0.83946 0.64334 0.99092 0.0
H1268 H 0.87959 0.62893 1.00678 0.0
H1269 H 0.84412 0.68512 0.95664 0.0
H1270 H 0.79794 0.5909 0.95696 0.0
H1271 H 0.79139 0.54248 0.94553 0.0
H1272 H 0.79479 0.55763 0.85863 0.0
H1273 H 0.80162 0.60621 0.8695 0.0
C1274 C 0.7345 0.71378 0.90908 0.0
C1275 C 0.73248 0.713 0.88014 0.0
C1276 C 0.75125 0.69946 0.92101 0.0
C1277 C 0.76661 0.68451 0.90418 0.0
C1278 C 0.76359 0.68286 0.87538 0.0
C1279 C 0.74665 0.69694 0.86349 0.0
C1280 C 0.78694 0.67172 0.91628 0.0
C1281 C 0.78502 0.64432 0.91017 0.0
C1282 C 0.80852 0.68655 0.93333 0.0
C1283 C 0.81315 0.71596 0.93895 0.0
C1284 C 0.81812 0.73375 0.91695 0.0
C1285 C 0.82225 0.76141 0.92239 0.0
C1286 C 0.82171 0.77155 0.94976 0.0
C1287 C 0.81712 0.75405 0.97175 0.0
C1288 C 0.81293 0.72636 0.96642 0.0
C1289 C 0.8888 0.6166 0.93722 0.0
C1290 C 0.89426 0.61819 0.96558 0.0
C1291 C 0.86578 0.62474 0.92821 0.0
C1292 C 0.84793 0.63472 0.9474 0.0
C1293 C 0.85293 0.63564 0.97579 0.0
C1294 C 0.87577 0.62728 0.98482 0.0
C1295 C 0.82554 0.64628 0.9377 0.0
C1296 C 0.82721 0.67354 0.94413 0.0
C1297 C 0.80402 0.63138 0.92068 0.0
C1298 C 0.80048 0.60224 0.91405 0.0
C1299 C 0.79754 0.58395 0.9354 0.0
C1300 C 0.79367 0.55646 0.92902 0.0
C1301 C 0.79261 0.54698 0.90137 0.0
C1302 C 0.79554 0.56499 0.88004 0.0
C1303 C 0.79937 0.5925 0.8863 0.0
H1304 H 0.78957 0.52568 0.89648 0.0
H1305 H 0.82491 0.79298 0.95392 0.0
H1306 H 0.3457 0.77264 0.17245 0.0
H1307 H 0.3687 0.8158 0.15236 0.0
H1308 H 0.45015 0.80092 0.1617 0.0
H1309 H 0.42709 0.75735 0.18194 0.0
H1310 H 0.45447 0.85251 0.17326 0.0
H1311 H 0.41706 0.7945 0.09674 0.0
H1312 H 0.38065 0.76255 0.07025 0.0
H1313 H 0.33227 0.8213 0.06986 0.0
H1314 H 0.36822 0.8535 0.0967 0.0
H1315 H 0.5326 0.95142 0.08019 0.0
H1316 H 0.50851 0.90959 0.10255 0.0
H1317 H 0.42871 0.92933 0.09771 0.0
H1318 H 0.45305 0.9717 0.07522 0.0
H1319 H 0.42306 0.87583 0.08414 0.0
H1320 H 0.46165 0.93423 0.15997 0.0
H1321 H 0.49871 0.96597 0.1859 0.0
H1322 H 0.54569 0.90612 0.18682 0.0
H1323 H 0.50909 0.87412 0.16052 0.0
C1324 C 0.36854 0.77824 0.17013 0.0
C1325 C 0.38424 0.76075 0.17869 0.0
C1326 C 0.38181 0.80323 0.15847 0.0
C1327 C 0.41144 0.81194 0.15461 0.0
C1328 C 0.42731 0.79504 0.16408 0.0
C1329 C 0.414 0.76994 0.17585 0.0
C1330 C 0.42559 0.8384 0.1407 0.0
C1331 C 0.44774 0.85729 0.15357 0.0
C1332 C 0.41681 0.84557 0.11518 0.0
C1333 C 0.39519 0.82631 0.09898 0.0
C1334 C 0.39855 0.80054 0.09118 0.0
C1335 C 0.37801 0.78239 0.07608 0.0
C1336 C 0.35412 0.78986 0.06844 0.0
C1337 C 0.35076 0.81553 0.07583 0.0
C1338 C 0.37122 0.83374 0.09098 0.0
C1339 C 0.50991 0.94707 0.08394 0.0
C1340 C 0.49496 0.96536 0.07594 0.0
C1341 C 0.49604 0.92295 0.09693 0.0
C1342 C 0.46656 0.91594 0.10243 0.0
C1343 C 0.45142 0.93396 0.094 0.0
C1344 C 0.4654 0.95837 0.08116 0.0
C1345 C 0.4519 0.88986 0.1167 0.0
C1346 C 0.4297 0.87104 0.10386 0.0
C1347 C 0.46072 0.88271 0.14217 0.0
C1348 C 0.48275 0.90186 0.15803 0.0
C1349 C 0.48 0.9279 0.1655 0.0
C1350 C 0.5009 0.94593 0.1803 0.0
C1351 C 0.52458 0.93809 0.18794 0.0
C1352 C 0.52736 0.91217 0.18085 0.0
C1353 C 0.50653 0.89407 0.16601 0.0
H1354 H 0.54073 0.95207 0.19941 0.0
H1355 H 0.33824 0.77579 0.05674 0.0
H1356 H 0.14395 0.29334 0.70219 0.0
H1357 H 0.12365 0.24859 0.68138 0.0
H1358 H 0.13827 0.28159 0.59987 0.0
H1359 H 0.15777 0.32638 0.62053 0.0
H1360 H 0.08756 0.24643 0.60425 0.0
H1361 H 0.18276 0.24762 0.62475 0.0
H1362 H 0.2231 0.25347 0.65466 0.0
H1363 H 0.17471 0.19082 0.70642 0.0
H1364 H 0.13392 0.18485 0.67701 0.0
H1365 H 0.0747 0.12634 0.52218 0.0
H1366 H 0.09432 0.17026 0.54472 0.0
H1367 H 0.07805 0.13446 0.62484 0.0
H1368 H 0.05872 0.0904 0.60252 0.0
H1369 H 0.12871 0.17058 0.62226 0.0
H1370 H 0.03381 0.16876 0.60147 0.0
H1371 H 0.9934 0.16272 0.57162 0.0
H1372 H 0.04097 0.2264 0.52062 0.0
H1373 H 0.08183 0.23257 0.54997 0.0
C1374 C 0.14249 0.29112 0.67987 0.0
C1375 C 0.1527 0.31343 0.66303 0.0
C1376 C 0.13113 0.26547 0.66796 0.0
C1377 C 0.12981 0.26161 0.63899 0.0
C1378 C 0.13918 0.284 0.62224 0.0
C1379 C 0.15054 0.30958 0.63409 0.0
C1380 C 0.1191 0.23426 0.62597 0.0
C1381 C 0.09679 0.22994 0.60796 0.0
C1382 C 0.13067 0.21251 0.63122 0.0
C1383 C 0.1552 0.21599 0.64885 0.0
C1384 C 0.18065 0.23524 0.64264 0.0
C1385 C 0.2036 0.23855 0.65948 0.0
C1386 C 0.20144 0.22258 0.68247 0.0
C1387 C 0.17633 0.20321 0.68863 0.0
C1388 C 0.1533 0.19984 0.67187 0.0
C1389 C 0.07553 0.12769 0.54458 0.0
C1390 C 0.06497 0.10476 0.56051 0.0
C1391 C 0.08661 0.1529 0.55746 0.0
C1392 C 0.08726 0.15578 0.58653 0.0
C1393 C 0.07769 0.13278 0.6024 0.0
C1394 C 0.06659 0.10757 0.58956 0.0
C1395 C 0.0973 0.18281 0.60042 0.0
C1396 C 0.11946 0.18706 0.6186 0.0
C1397 C 0.08556 0.20449 0.59535 0.0
C1398 C 0.06097 0.20095 0.57777 0.0
C1399 C 0.03573 0.18134 0.58377 0.0
C1400 C 0.01273 0.17792 0.56697 0.0
C1401 C 0.01464 0.19412 0.5442 0.0
C1402 C 0.03953 0.21384 0.53824 0.0
C1403 C 0.06261 0.21733 0.55497 0.0
H1404 H 0.99681 0.19144 0.53121 0.0
H1405 H 0.21924 0.22517 0.69548 0.0
H1406 H 0.64215 0.19657 0.48629 0.0
H1407 H 0.61729 0.22813 0.5091 0.0
H1408 H 0.69597 0.28953 0.51159 0.0
H1409 H 0.72096 0.25769 0.48977 0.0
H1410 H 0.65979 0.2967 0.55499 0.0
H1411 H 0.65799 0.28163 0.45527 0.0
H1412 H 0.64904 0.25317 0.41244 0.0
H1413 H 0.56124 0.2262 0.43795 0.0
H1414 H 0.56982 0.25418 0.4812 0.0
H1415 H 0.62978 0.41685 0.51438 0.0
H1416 H 0.64563 0.37702 0.52398 0.0
H1417 H 0.55936 0.32897 0.52521 0.0
H1418 H 0.54334 0.36879 0.51579 0.0
H1419 H 0.5931 0.31068 0.48726 0.0
H1420 H 0.59598 0.33691 0.58326 0.0
H1421 H 0.60797 0.36824 0.62365 0.0
H1422 H 0.69635 0.37814 0.60299 0.0
H1423 H 0.68494 0.34721 0.5622 0.0
C1424 C 0.65414 0.21659 0.49248 0.0
C1425 C 0.68326 0.22501 0.48598 0.0
C1426 C 0.64002 0.23451 0.50558 0.0
C1427 C 0.65475 0.26128 0.51148 0.0
C1428 C 0.68424 0.26896 0.50721 0.0
C1429 C 0.69845 0.25086 0.49459 0.0
C1430 C 0.63919 0.28225 0.51699 0.0
C1431 C 0.64511 0.29981 0.54033 0.0
C1432 C 0.61993 0.28607 0.49785 0.0
C1433 C 0.6146 0.26972 0.47159 0.0
C1434 C 0.63681 0.26952 0.4518 0.0
C1435 C 0.63181 0.25347 0.42746 0.0
C1436 C 0.6046 0.23783 0.42252 0.0
C1437 C 0.58231 0.23828 0.44185 0.0
C1438 C 0.58723 0.25422 0.46628 0.0
C1439 C 0.61413 0.39795 0.51746 0.0
C1440 C 0.58539 0.39577 0.51391 0.0
C1441 C 0.62319 0.37524 0.52308 0.0
C1442 C 0.60362 0.35011 0.5254 0.0
C1443 C 0.57475 0.34823 0.5235 0.0
C1444 C 0.56569 0.37089 0.51787 0.0
C1445 C 0.61368 0.32539 0.52525 0.0
C1446 C 0.60699 0.30721 0.50257 0.0
C1447 C 0.63256 0.32147 0.54473 0.0
C1448 C 0.63957 0.33979 0.56953 0.0
C1449 C 0.61798 0.34588 0.58721 0.0
C1450 C 0.62468 0.36357 0.6102 0.0
C1451 C 0.6529 0.3752 0.61586 0.0
C1452 C 0.67449 0.36911 0.59858 0.0
C1453 C 0.66792 0.35146 0.57554 0.0
H1454 H 0.65804 0.38892 0.63365 0.0
H1455 H 0.60077 0.2254 0.40368 0.0
loop_
_geom_bond_atom_site_label_1
_geom_bond_atom_site_label_2
_geom_bond_distance
_geom_bond_site_symmetry_2
_ccdc_geom_bond_type
H0 C5 0.930 . S
H1 C8 0.930 . S
H2 C10 0.930 . S
H3 C4 1.016 . S
C4 H3 1.016 . S
C4 N11 1.286 . S
C5 H0 0.930 . S
C5 C6 1.397 . S
C5 C7 1.361 . S
C6 C5 1.397 . S
C6 C10 1.390 . S
C7 C5 1.361 . S
C7 C8 1.393 . S
C7 N11 1.413 . S
C8 H1 0.930 . S
C8 C7 1.393 . S
C8 C9 1.399 . S
C9 C8 1.399 . S
C9 C10 1.381 . S
C10 H2 0.930 . S
C10 C6 1.390 . S
C10 C9 1.381 . S
N11 C4 1.286 . S
N11 C7 1.413 . S
H12 C17 0.930 . S
H13 C20 0.930 . S
H14 C22 0.930 . S
H15 C16 1.016 . S
C16 H15 1.016 . S
C16 N23 1.286 . S
C17 H12 0.930 . S
C17 C18 1.397 . S
C17 C19 1.361 . S
C18 C17 1.397 . S
C18 C22 1.390 . S
C19 C17 1.361 . S
C19 C20 1.393 . S
C19 N23 1.413 . S
C20 H13 0.930 . S
C20 C19 1.393 . S
C20 C21 1.399 . S
C21 C20 1.399 . S
C21 C22 1.381 . S
C22 H14 0.930 . S
C22 C18 1.390 . S
C22 C21 1.381 . S
N23 C16 1.286 . S
N23 C19 1.413 . S
H24 C29 0.930 . S
H25 C32 0.930 . S
H26 C34 0.930 . S
H27 C28 1.016 . S
C28 H27 1.016 . S
C28 N35 1.286 . S
C29 H24 0.930 . S
C29 C30 1.397 . S
C29 C31 1.361 . S
C30 C29 1.397 . S
C30 C34 1.390 . S
C31 C29 1.361 . S
C31 C32 1.393 . S
C31 N35 1.413 . S
C32 H25 0.930 . S
C32 C31 1.393 . S
C32 C33 1.399 . S
C33 C32 1.399 . S
C33 C34 1.381 . S
C34 H26 0.930 . S
C34 C30 1.390 . S
C34 C33 1.381 . S
N35 C28 1.286 . S
N35 C31 1.413 . S
H36 C41 0.930 . S
H37 C44 0.930 . S
H38 C46 0.930 . S
H39 C40 1.016 . S
C40 H39 1.016 . S
C40 N47 1.286 . S
C41 H36 0.930 . S
C41 C42 1.397 . S
C41 C43 1.361 . S
C42 C41 1.397 . S
C42 C46 1.390 . S
C43 C41 1.361 . S
C43 C44 1.393 . S
C43 N47 1.413 . S
C44 H37 0.930 . S
C44 C43 1.393 . S
C44 C45 1.399 . S
C45 C44 1.399 . S
C45 C46 1.381 . S
C46 H38 0.930 . S
C46 C42 1.390 . S
C46 C45 1.381 . S
N47 C40 1.286 . S
N47 C43 1.413 . S
H48 C53 0.930 . S
H49 C56 0.930 . S
H50 C58 0.930 . S
H51 C52 1.016 . S
C52 H51 1.016 . S
C52 N59 1.286 . S
C53 H48 0.930 . S
C53 C54 1.397 . S
C53 C55 1.361 . S
C54 C53 1.397 . S
C54 C58 1.390 . S
C55 C53 1.361 . S
C55 C56 1.393 . S
C55 N59 1.413 . S
C56 H49 0.930 . S
C56 C55 1.393 . S
C56 C57 1.399 . S
C57 C56 1.399 . S
C57 C58 1.381 . S
C58 H50 0.930 . S
C58 C54 1.390 . S
C58 C57 1.381 . S
N59 C52 1.286 . S
N59 C55 1.413 . S
H60 C65 0.930 . S
H61 C68 0.930 . S
H62 C70 0.930 . S
H63 C64 1.016 . S
C64 H63 1.016 . S
C64 N71 1.286 . S
C65 H60 0.930 . S
C65 C66 1.397 . S
C65 C67 1.361 . S
C66 C65 1.397 . S
C66 C70 1.390 . S
C67 C65 1.361 . S
C67 C68 1.393 . S
C67 N71 1.413 . S
C68 H61 0.930 . S
C68 C67 1.393 . S
C68 C69 1.399 . S
C69 C68 1.399 . S
C69 C70 1.381 . S
C70 H62 0.930 . S
C70 C66 1.390 . S
C70 C69 1.381 . S
N71 C64 1.286 . S
N71 C67 1.413 . S
H72 C77 0.930 . S
H73 C80 0.930 . S
H74 C82 0.930 . S
H75 C76 1.016 . S
C76 H75 1.016 . S
C76 N83 1.286 . S
C77 H72 0.930 . S
C77 C78 1.397 . S
C77 C79 1.361 . S
C78 C77 1.397 . S
C78 C82 1.390 . S
C79 C77 1.361 . S
C79 C80 1.393 . S
C79 N83 1.413 . S
C80 H73 0.930 . S
C80 C79 1.393 . S
C80 C81 1.399 . S
C81 C80 1.399 . S
C81 C82 1.381 . S
C82 H74 0.930 . S
C82 C78 1.390 . S
C82 C81 1.381 . S
N83 C76 1.286 . S
N83 C79 1.413 . S
H84 C89 0.930 . S
H85 C92 0.930 . S
H86 C94 0.930 . S
H87 C88 1.016 . S
C88 H87 1.016 . S
C88 N95 1.286 . S
C89 H84 0.930 . S
C89 C90 1.397 . S
C89 C91 1.361 . S
C90 C89 1.397 . S
C90 C94 1.390 . S
C91 C89 1.361 . S
C91 C92 1.393 . S
C91 N95 1.413 . S
C92 H85 0.930 . S
C92 C91 1.393 . S
C92 C93 1.399 . S
C93 C92 1.399 . S
C93 C94 1.381 . S
C94 H86 0.930 . S
C94 C90 1.390 . S
C94 C93 1.381 . S
N95 C88 1.286 . S
N95 C91 1.413 . S
La96 C98 2.928 . S
La96 O116 2.521 . S
La96 O117 2.628 . S
La96 O118 2.554 1_545 S
La96 O119 2.757 1_545 S
La96 O120 2.470 . S
La96 O125 2.482 1_455 S
La96 O127 2.503 1_445 S
La97 C107 2.928 . S
La97 O119 2.482 1_655 S
La97 O121 2.503 1_665 S
La97 O122 2.521 . S
La97 O123 2.628 . S
La97 O124 2.554 1_565 S
La97 O125 2.757 1_565 S
La97 O126 2.470 . S
C98 La96 2.928 . S
C98 C99 1.503 . S
C98 O116 1.261 . S
C98 O117 1.243 . S
C99 C98 1.503 . S
C99 C100 1.394 . S
C99 C104 1.373 . S
C100 C99 1.394 . S
C100 C101 1.380 . S
C100 H128 0.930 . S
C101 C100 1.380 . S
C101 C102 1.376 . S
C101 H129 0.930 . S
C102 C101 1.376 . S
C102 C103 1.370 . S
C103 C102 1.370 . S
C103 C104 1.396 . S
C103 H130 0.929 . S
C104 C99 1.373 . S
C104 C103 1.396 . S
C104 H131 0.929 . S
C105 O118 1.240 . S
C105 O119 1.289 . S
C106 O120 1.258 . S
C106 O121 1.256 . S
C107 La97 2.928 . S
C107 C108 1.503 . S
C107 O122 1.261 . S
C107 O123 1.243 . S
C108 C107 1.503 . S
C108 C109 1.394 . S
C108 C113 1.373 . S
C109 C108 1.394 . S
C109 C110 1.380 . S
C109 H132 0.930 . S
C110 C109 1.380 . S
C110 C111 1.376 . S
C110 H133 0.930 . S
C111 C110 1.376 . S
C111 C112 1.370 . S
C112 C111 1.370 . S
C112 C113 1.396 . S
C112 H134 0.929 . S
C113 C108 1.373 . S
C113 C112 1.396 . S
C113 H135 0.929 . S
C114 O124 1.240 . S
C114 O125 1.289 . S
C115 O126 1.258 . S
C115 O127 1.256 . S
O116 La96 2.521 . S
O116 C98 1.261 . S
O117 La96 2.628 . S
O117 C98 1.243 . S
O118 La96 2.554 1_565 S
O118 C105 1.240 . S
O119 La96 2.757 1_565 S
O119 La97 2.482 1_455 S
O119 C105 1.289 . S
O120 La96 2.470 . S
O120 C106 1.258 . S
O121 La97 2.503 1_445 S
O121 C106 1.256 . S
O122 La97 2.521 . S
O122 C107 1.261 . S
O123 La97 2.628 . S
O123 C107 1.243 . S
O124 La97 2.554 1_545 S
O124 C114 1.240 . S
O125 La96 2.482 1_655 S
O125 La97 2.757 1_545 S
O125 C114 1.289 . S
O126 La97 2.470 . S
O126 C115 1.258 . S
O127 La96 2.503 1_665 S
O127 C115 1.256 . S
H128 C100 0.930 . S
H129 C101 0.930 . S
H130 C103 0.929 . S
H131 C104 0.929 . S
H132 C109 0.930 . S
H133 C110 0.930 . S
H134 C112 0.929 . S
H135 C113 0.929 . S
La136 C138 2.928 . S
La136 O156 2.521 . S
La136 O157 2.628 . S
La136 O158 2.554 1_545 S
La136 O159 2.757 1_545 S
La136 O160 2.470 . S
La136 O165 2.473 1_554 S
La136 O167 2.503 1_544 S
La137 C147 2.928 1_545 S
La137 O159 2.482 1_546 S
La137 O161 2.503 1_556 S
La137 O162 2.521 1_545 S
La137 O163 2.628 1_545 S
La137 O164 2.554 . S
La137 O165 2.761 . S
La137 O166 2.470 1_545 S
C138 La136 2.928 . S
C138 C139 1.503 . S
C138 O156 1.261 . S
C138 O157 1.243 . S
C139 C138 1.503 . S
C139 C140 1.394 . S
C139 C144 1.373 . S
C140 C139 1.394 . S
C140 C141 1.380 . S
C140 H168 0.930 . S
C141 C140 1.380 . S
C141 C142 1.376 . S
C141 H169 0.930 . S
C142 C141 1.376 . S
C142 C143 1.370 . S
C143 C142 1.370 . S
C143 C144 1.396 . S
C143 H170 0.929 . S
C144 C139 1.373 . S
C144 C143 1.396 . S
C144 H171 0.929 . S
C145 O158 1.240 . S
C145 O159 1.289 . S
C146 O160 1.258 . S
C146 O161 1.256 . S
C147 La137 2.928 1_565 S
C147 C148 1.503 . S
C147 O162 1.261 . S
C147 O163 1.243 . S
C148 C147 1.503 . S
C148 C149 1.394 . S
C148 C153 1.373 . S
C149 C148 1.394 . S
C149 C150 1.380 . S
C149 H172 0.930 . S
C150 C149 1.380 . S
C150 C151 1.376 . S
C150 H173 0.930 . S
C151 C150 1.376 . S
C151 C152 1.370 . S
C152 C151 1.370 . S
C152 C153 1.396 . S
C152 H174 0.929 . S
C153 C148 1.373 . S
C153 C152 1.396 . S
C153 H175 0.929 . S
C154 O164 1.240 . S
C154 O165 1.299 . S
C155 O166 1.258 . S
C155 O167 1.256 . S
O156 La136 2.521 . S
O156 C138 1.261 . S
O157 La136 2.628 . S
O157 C138 1.243 . S
O158 La136 2.554 1_565 S
O158 C145 1.240 . S
O159 La136 2.757 1_565 S
O159 La137 2.482 1_564 S
O159 C145 1.289 . S
O160 La136 2.470 . S
O160 C146 1.258 . S
O161 La137 2.503 1_554 S
O161 C146 1.256 . S
O162 La137 2.521 1_565 S
O162 C147 1.261 . S
O163 La137 2.628 1_565 S
O163 C147 1.243 . S
O164 La137 2.554 . S
O164 C154 1.240 . S
O165 La136 2.473 1_556 S
O165 La137 2.761 . S
O165 C154 1.299 . S
O166 La137 2.470 1_565 S
O166 C155 1.258 . S
O167 La136 2.503 1_566 S
O167 C155 1.256 . S
H168 C140 0.930 . S
H169 C141 0.930 . S
H170 C143 0.929 . S
H171 C144 0.929 . S
H172 C149 0.930 . S
H173 C150 0.930 . S
H174 C152 0.929 . S
H175 C153 0.929 . S
La176 C178 2.928 . S
La176 O196 2.521 . S
La176 O197 2.628 . S
La176 O198 2.554 . S
La176 O199 2.757 . S
La176 O200 2.470 . S
La176 O205 2.482 . S
La176 O207 2.503 . S
La177 C187 2.928 . S
La177 O199 2.482 . S
La177 O201 2.503 . S
La177 O202 2.521 . S
La177 O203 2.628 . S
La177 O204 2.554 . S
La177 O205 2.757 . S
La177 O206 2.470 . S
C178 La176 2.928 . S
C178 C179 1.503 . S
C178 O196 1.261 . S
C178 O197 1.243 . S
C179 C178 1.503 . S
C179 C180 1.394 . S
C179 C184 1.373 . S
C180 C179 1.394 . S
C180 C181 1.380 . S
C180 H208 0.930 . S
C181 C180 1.380 . S
C181 C182 1.376 . S
C181 H209 0.930 . S
C182 C181 1.376 . S
C182 C183 1.370 . S
C183 C182 1.370 . S
C183 C184 1.396 . S
C183 H210 0.929 . S
C184 C179 1.373 . S
C184 C183 1.396 . S
C184 H211 0.929 . S
C185 O198 1.240 . S
C185 O199 1.289 . S
C186 O200 1.258 . S
C186 O201 1.256 . S
C187 La177 2.928 . S
C187 C188 1.503 . S
C187 O202 1.261 . S
C187 O203 1.243 . S
C188 C187 1.503 . S
C188 C189 1.394 . S
C188 C193 1.373 . S
C189 C188 1.394 . S
C189 C190 1.380 . S
C189 H212 0.930 . S
C190 C189 1.380 . S
C190 C191 1.376 . S
C190 H213 0.930 . S
C191 C190 1.376 . S
C191 C192 1.370 . S
C192 C191 1.370 . S
C192 C193 1.396 . S
C192 H214 0.929 . S
C193 C188 1.373 . S
C193 C192 1.396 . S
C193 H215 0.929 . S
C194 O204 1.240 . S
C194 O205 1.289 . S
C195 O206 1.258 . S
C195 O207 1.256 . S
O196 La176 2.521 . S
O196 C178 1.261 . S
O197 La176 2.628 . S
O197 C178 1.243 . S
O198 La176 2.554 . S
O198 C185 1.240 . S
O199 La176 2.757 . S
O199 La177 2.482 . S
O199 C185 1.289 . S
O200 La176 2.470 . S
O200 C186 1.258 . S
O201 La177 2.503 . S
O201 C186 1.256 . S
O202 La177 2.521 . S
O202 C187 1.261 . S
O203 La177 2.628 . S
O203 C187 1.243 . S
O204 La177 2.554 . S
O204 C194 1.240 . S
O205 La176 2.482 . S
O205 La177 2.757 . S
O205 C194 1.289 . S
O206 La177 2.470 . S
O206 C195 1.258 . S
O207 La176 2.503 . S
O207 C195 1.256 . S
H208 C180 0.930 . S
H209 C181 0.930 . S
H210 C183 0.929 . S
H211 C184 0.929 . S
H212 C189 0.930 . S
H213 C190 0.930 . S
H214 C192 0.929 . S
H215 C193 0.929 . S
La216 C218 2.928 . S
La216 O236 2.521 . S
La216 O237 2.628 . S
La216 O238 2.554 1_455 S
La216 O239 2.757 1_455 S
La216 O240 2.470 . S
La216 O245 2.482 1_554 S
La216 O247 2.503 1_454 S
La217 C227 2.928 1_455 S
La217 O239 2.482 1_456 S
La217 O241 2.503 1_556 S
La217 O242 2.521 1_455 S
La217 O243 2.628 1_455 S
La217 O244 2.554 . S
La217 O245 2.757 . S
La217 O246 2.470 1_455 S
C218 La216 2.928 . S
C218 C219 1.503 . S
C218 O236 1.261 . S
C218 O237 1.243 . S
C219 C218 1.503 . S
C219 C220 1.394 . S
C219 C224 1.373 . S
C220 C219 1.394 . S
C220 C221 1.380 . S
C220 H248 0.930 . S
C221 C220 1.380 . S
C221 C222 1.376 . S
C221 H249 0.930 . S
C222 C221 1.376 . S
C222 C223 1.370 . S
C223 C222 1.370 . S
C223 C224 1.396 . S
C223 H250 0.929 . S
C224 C219 1.373 . S
C224 C223 1.396 . S
C224 H251 0.929 . S
C225 O238 1.240 . S
C225 O239 1.289 . S
C226 O240 1.258 . S
C226 O241 1.256 . S
C227 La217 2.928 1_655 S
C227 C228 1.503 . S
C227 O242 1.261 . S
C227 O243 1.243 . S
C228 C227 1.503 . S
C228 C229 1.394 . S
C228 C233 1.373 . S
C229 C228 1.394 . S
C229 C230 1.380 . S
C229 H252 0.930 . S
C230 C229 1.380 . S
C230 C231 1.376 . S
C230 H253 0.930 . S
C231 C230 1.376 . S
C231 C232 1.370 . S
C232 C231 1.370 . S
C232 C233 1.396 . S
C232 H254 0.929 . S
C233 C228 1.373 . S
C233 C232 1.396 . S
C233 H255 0.929 . S
C234 O244 1.240 . S
C234 O245 1.289 . S
C235 O246 1.258 . S
C235 O247 1.256 . S
O236 La216 2.521 . S
O236 C218 1.261 . S
O237 La216 2.628 . S
O237 C218 1.243 . S
O238 La216 2.554 1_655 S
O238 C225 1.240 . S
O239 La216 2.757 1_655 S
O239 La217 2.482 1_654 S
O239 C225 1.289 . S
O240 La216 2.470 . S
O240 C226 1.258 . S
O241 La217 2.503 1_554 S
O241 C226 1.256 . S
O242 La217 2.521 1_655 S
O242 C227 1.261 . S
O243 La217 2.628 1_655 S
O243 C227 1.243 . S
O244 La217 2.554 . S
O244 C234 1.240 . S
O245 La216 2.482 1_556 S
O245 La217 2.757 . S
O245 C234 1.289 . S
O246 La217 2.470 1_655 S
O246 C235 1.258 . S
O247 La216 2.503 1_656 S
O247 C235 1.256 . S
H248 C220 0.930 . S
H249 C221 0.930 . S
H250 C223 0.929 . S
H251 C224 0.929 . S
H252 C229 0.930 . S
H253 C230 0.930 . S
H254 C232 0.929 . S
H255 C233 0.929 . S
H256 C274 0.951 . S
H257 C276 0.951 . S
H258 C278 0.950 . S
H259 C279 0.950 . S
H260 C281 0.950 . S
H261 C284 0.950 . S
H262 C285 0.950 . S
H263 C287 0.950 . S
H264 C288 0.950 . S
H265 C289 0.951 . S
H266 C291 0.951 . S
H267 C293 0.950 . S
H268 C294 0.950 . S
H269 C296 0.950 . S
H270 C299 0.950 . S
H271 C300 0.950 . S
H272 C302 0.950 . S
H273 C303 0.950 . S
C274 H256 0.951 . S
C274 C275 1.366 . S
C274 C276 1.388 . S
C275 C274 1.366 . S
C275 C279 1.385 . S
C276 H257 0.951 . S
C276 C274 1.388 . S
C276 C277 1.366 . S
C277 C276 1.366 . S
C277 C278 1.414 . S
C277 C280 1.499 . S
C278 H258 0.950 . S
C278 C277 1.414 . S
C278 C279 1.374 . S
C279 H259 0.950 . S
C279 C275 1.385 . S
C279 C278 1.374 . S
C280 C277 1.499 . S
C280 C281 1.373 . S
C280 C282 1.389 . S
C281 H260 0.950 . S
C281 C280 1.373 . S
C281 C297 1.377 . S
C282 C280 1.389 . S
C282 C283 1.524 . S
C282 C296 1.377 . S
C283 C282 1.524 . S
C283 C284 1.397 . S
C283 C288 1.363 . S
C284 H261 0.950 . S
C284 C283 1.397 . S
C284 C285 1.334 . S
C285 H262 0.950 . S
C285 C284 1.334 . S
C285 C286 1.287 . S
C286 C285 1.287 . S
C286 C287 1.524 . S
C286 H305 0.913 . S
C287 H263 0.950 . S
C287 C286 1.524 . S
C287 C288 1.415 . S
C288 H264 0.950 . S
C288 C283 1.363 . S
C288 C287 1.415 . S
C289 H265 0.951 . S
C289 C290 1.366 . S
C289 C291 1.388 . S
C290 C289 1.366 . S
C290 C294 1.385 . S
C291 H266 0.951 . S
C291 C289 1.388 . S
C291 C292 1.366 . S
C292 C291 1.366 . S
C292 C293 1.414 . S
C292 C295 1.499 . S
C293 H267 0.950 . S
C293 C292 1.414 . S
C293 C294 1.374 . S
C294 H268 0.950 . S
C294 C290 1.385 . S
C294 C293 1.374 . S
C295 C292 1.499 . S
C295 C296 1.373 . S
C295 C297 1.389 . S
C296 H269 0.950 . S
C296 C282 1.377 . S
C296 C295 1.373 . S
C297 C281 1.377 . S
C297 C295 1.389 . S
C297 C298 1.524 . S
C298 C297 1.524 . S
C298 C299 1.397 . S
C298 C303 1.363 . S
C299 H270 0.950 . S
C299 C298 1.397 . S
C299 C300 1.334 . S
C300 H271 0.950 . S
C300 C299 1.334 . S
C300 C301 1.287 . S
C301 C300 1.287 . S
C301 C302 1.524 . S
C301 H304 0.999 . S
C302 H272 0.950 . S
C302 C301 1.524 . S
C302 C303 1.415 . S
C303 H273 0.950 . S
C303 C298 1.363 . S
C303 C302 1.415 . S
H304 C301 0.999 . S
H305 C286 0.913 . S
H306 C324 0.951 . S
H307 C326 0.951 . S
H308 C328 0.950 . S
H309 C329 0.950 . S
H310 C331 0.950 . S
H311 C334 0.950 . S
H312 C335 0.950 . S
H313 C337 0.950 . S
H314 C338 0.950 . S
H315 C339 0.951 . S
H316 C341 0.951 . S
H317 C343 0.950 . S
H318 C344 0.950 . S
H319 C346 0.950 . S
H320 C349 0.950 . S
H321 C350 0.950 . S
H322 C352 0.950 . S
H323 C353 0.950 . S
C324 H306 0.951 . S
C324 C325 1.366 . S
C324 C326 1.388 . S
C325 C324 1.366 . S
C325 C329 1.385 . S
C326 H307 0.951 . S
C326 C324 1.388 . S
C326 C327 1.366 . S
C327 C326 1.366 . S
C327 C328 1.414 . S
C327 C330 1.499 . S
C328 H308 0.950 . S
C328 C327 1.414 . S
C328 C329 1.374 . S
C329 H309 0.950 . S
C329 C325 1.385 . S
C329 C328 1.374 . S
C330 C327 1.499 . S
C330 C331 1.373 . S
C330 C332 1.389 . S
C331 H310 0.950 . S
C331 C330 1.373 . S
C331 C347 1.377 . S
C332 C330 1.389 . S
C332 C333 1.524 . S
C332 C346 1.377 . S
C333 C332 1.524 . S
C333 C334 1.397 . S
C333 C338 1.363 . S
C334 H311 0.950 . S
C334 C333 1.397 . S
C334 C335 1.334 . S
C335 H312 0.950 . S
C335 C334 1.334 . S
C335 C336 1.287 . S
C336 C335 1.287 . S
C336 C337 1.524 . S
C336 H355 0.913 . S
C337 H313 0.950 . S
C337 C336 1.524 . S
C337 C338 1.415 . S
C338 H314 0.950 . S
C338 C333 1.363 . S
C338 C337 1.415 . S
C339 H315 0.951 . S
C339 C340 1.366 . S
C339 C341 1.388 . S
C340 C339 1.366 . S
C340 C344 1.385 . S
C341 H316 0.951 . S
C341 C339 1.388 . S
C341 C342 1.366 . S
C342 C341 1.366 . S
C342 C343 1.414 . S
C342 C345 1.499 . S
C343 H317 0.950 . S
C343 C342 1.414 . S
C343 C344 1.374 . S
C344 H318 0.950 . S
C344 C340 1.385 . S
C344 C343 1.374 . S
C345 C342 1.499 . S
C345 C346 1.373 . S
C345 C347 1.389 . S
C346 H319 0.950 . S
C346 C332 1.377 . S
C346 C345 1.373 . S
C347 C331 1.377 . S
C347 C345 1.389 . S
C347 C348 1.524 . S
C348 C347 1.524 . S
C348 C349 1.397 . S
C348 C353 1.363 . S
C349 H320 0.950 . S
C349 C348 1.397 . S
C349 C350 1.334 . S
C350 H321 0.950 . S
C350 C349 1.334 . S
C350 C351 1.287 . S
C351 C350 1.287 . S
C351 C352 1.524 . S
C351 H354 0.999 . S
C352 H322 0.950 . S
C352 C351 1.524 . S
C352 C353 1.415 . S
C353 H323 0.950 . S
C353 C348 1.363 . S
C353 C352 1.415 . S
H354 C351 0.999 . S
H355 C336 0.913 . S
H356 C374 0.951 . S
H357 C376 0.951 . S
H358 C378 0.950 . S
H359 C379 0.950 . S
H360 C381 0.950 . S
H361 C384 0.950 . S
H362 C385 0.950 . S
H363 C387 0.950 . S
H364 C388 0.950 . S
H365 C389 0.951 . S
H366 C391 0.951 . S
H367 C393 0.950 . S
H368 C394 0.950 . S
H369 C396 0.950 . S
H370 C399 0.950 . S
H371 C400 0.950 . S
H372 C402 0.950 . S
H373 C403 0.950 . S
C374 H356 0.951 . S
C374 C375 1.366 . S
C374 C376 1.388 . S
C375 C374 1.366 . S
C375 C379 1.385 . S
C376 H357 0.951 . S
C376 C374 1.388 . S
C376 C377 1.366 . S
C377 C376 1.366 . S
C377 C378 1.414 . S
C377 C380 1.499 . S
C378 H358 0.950 . S
C378 C377 1.414 . S
C378 C379 1.374 . S
C379 H359 0.950 . S
C379 C375 1.385 . S
C379 C378 1.374 . S
C380 C377 1.499 . S
C380 C381 1.373 . S
C380 C382 1.389 . S
C381 H360 0.950 . S
C381 C380 1.373 . S
C381 C397 1.377 . S
C382 C380 1.389 . S
C382 C383 1.524 . S
C382 C396 1.377 . S
C383 C382 1.524 . S
C383 C384 1.397 . S
C383 C388 1.363 . S
C384 H361 0.950 . S
C384 C383 1.397 . S
C384 C385 1.334 . S
C385 H362 0.950 . S
C385 C384 1.334 . S
C385 C386 1.287 . S
C386 C385 1.287 . S
C386 C387 1.524 . S
C386 H405 0.913 . S
C387 H363 0.950 . S
C387 C386 1.524 . S
C387 C388 1.415 . S
C388 H364 0.950 . S
C388 C383 1.363 . S
C388 C387 1.415 . S
C389 H365 0.951 . S
C389 C390 1.366 . S
C389 C391 1.388 . S
C390 C389 1.366 . S
C390 C394 1.385 . S
C391 H366 0.951 . S
C391 C389 1.388 . S
C391 C392 1.366 . S
C392 C391 1.366 . S
C392 C393 1.414 . S
C392 C395 1.499 . S
C393 H367 0.950 . S
C393 C392 1.414 . S
C393 C394 1.374 . S
C394 H368 0.950 . S
C394 C390 1.385 . S
C394 C393 1.374 . S
C395 C392 1.499 . S
C395 C396 1.373 . S
C395 C397 1.389 . S
C396 H369 0.950 . S
C396 C382 1.377 . S
C396 C395 1.373 . S
C397 C381 1.377 . S
C397 C395 1.389 . S
C397 C398 1.524 . S
C398 C397 1.524 . S
C398 C399 1.397 . S
C398 C403 1.363 . S
C399 H370 0.950 . S
C399 C398 1.397 . S
C399 C400 1.334 . S
C400 H371 0.950 . S
C400 C399 1.334 . S
C400 C401 1.287 . S
C401 C400 1.287 . S
C401 C402 1.524 . S
C401 H404 0.999 . S
C402 H372 0.950 . S
C402 C401 1.524 . S
C402 C403 1.415 . S
C403 H373 0.950 . S
C403 C398 1.363 . S
C403 C402 1.415 . S
H404 C401 0.999 . S
H405 C386 0.913 . S
H406 C424 0.951 . S
H407 C426 0.951 . S
H408 C428 0.950 . S
H409 C429 0.950 . S
H410 C431 0.950 . S
H411 C434 0.950 . S
H412 C435 0.950 . S
H413 C437 0.950 . S
H414 C438 0.950 . S
H415 C439 0.951 . S
H416 C441 0.951 . S
H417 C443 0.950 . S
H418 C444 0.950 . S
H419 C446 0.950 . S
H420 C449 0.950 . S
H421 C450 0.950 . S
H422 C452 0.950 . S
H423 C453 0.950 . S
C424 H406 0.951 . S
C424 C425 1.366 . S
C424 C426 1.388 . S
C425 C424 1.366 . S
C425 C429 1.385 . S
C426 H407 0.951 . S
C426 C424 1.388 . S
C426 C427 1.366 . S
C427 C426 1.366 . S
C427 C428 1.414 . S
C427 C430 1.499 . S
C428 H408 0.950 . S
C428 C427 1.414 . S
C428 C429 1.374 . S
C429 H409 0.950 . S
C429 C425 1.385 . S
C429 C428 1.374 . S
C430 C427 1.499 . S
C430 C431 1.373 . S
C430 C432 1.389 . S
C431 H410 0.950 . S
C431 C430 1.373 . S
C431 C447 1.377 . S
C432 C430 1.389 . S
C432 C433 1.524 . S
C432 C446 1.377 . S
C433 C432 1.524 . S
C433 C434 1.397 . S
C433 C438 1.363 . S
C434 H411 0.950 . S
C434 C433 1.397 . S
C434 C435 1.334 . S
C435 H412 0.950 . S
C435 C434 1.334 . S
C435 C436 1.287 . S
C436 C435 1.287 . S
C436 C437 1.524 . S
C436 H455 0.913 . S
C437 H413 0.950 . S
C437 C436 1.524 . S
C437 C438 1.415 . S
C438 H414 0.950 . S
C438 C433 1.363 . S
C438 C437 1.415 . S
C439 H415 0.951 . S
C439 C440 1.366 . S
C439 C441 1.388 . S
C440 C439 1.366 . S
C440 C444 1.385 . S
C441 H416 0.951 . S
C441 C439 1.388 . S
C441 C442 1.366 . S
C442 C441 1.366 . S
C442 C443 1.414 . S
C442 C445 1.499 . S
C443 H417 0.950 . S
C443 C442 1.414 . S
C443 C444 1.374 . S
C444 H418 0.950 . S
C444 C440 1.385 . S
C444 C443 1.374 . S
C445 C442 1.499 . S
C445 C446 1.373 . S
C445 C447 1.389 . S
C446 H419 0.950 . S
C446 C432 1.377 . S
C446 C445 1.373 . S
C447 C431 1.377 . S
C447 C445 1.389 . S
C447 C448 1.524 . S
C448 C447 1.524 . S
C448 C449 1.397 . S
C448 C453 1.363 . S
C449 H420 0.950 . S
C449 C448 1.397 . S
C449 C450 1.334 1_655 S
C450 H421 0.950 . S
C450 C449 1.334 1_455 S
C450 C451 1.287 . S
C451 C450 1.287 . S
C451 C452 1.524 . S
C451 H454 0.999 . S
C452 H422 0.950 . S
C452 C451 1.524 . S
C452 C453 1.415 1_455 S
C453 H423 0.950 . S
C453 C448 1.363 . S
C453 C452 1.415 1_655 S
H454 C451 0.999 . S
H455 C436 0.913 . S
H456 C474 0.951 . S
H457 C476 0.951 . S
H458 C478 0.950 . S
H459 C479 0.950 . S
H460 C481 0.950 . S
H461 C484 0.950 . S
H462 C485 0.950 . S
H463 C487 0.950 . S
H464 C488 0.950 . S
H465 C489 0.951 . S
H466 C491 0.951 . S
H467 C493 0.950 . S
H468 C494 0.950 . S
H469 C496 0.950 . S
H470 C499 0.950 . S
H471 C500 0.950 . S
H472 C502 0.950 . S
H473 C503 0.950 . S
C474 H456 0.951 . S
C474 C475 1.366 . S
C474 C476 1.388 . S
C475 C474 1.366 . S
C475 C479 1.385 . S
C476 H457 0.951 . S
C476 C474 1.388 . S
C476 C477 1.366 . S
C477 C476 1.366 . S
C477 C478 1.414 . S
C477 C480 1.499 . S
C478 H458 0.950 . S
C478 C477 1.414 . S
C478 C479 1.374 . S
C479 H459 0.950 . S
C479 C475 1.385 . S
C479 C478 1.374 . S
C480 C477 1.499 . S
C480 C481 1.373 . S
C480 C482 1.389 . S
C481 H460 0.950 . S
C481 C480 1.373 . S
C481 C497 1.377 . S
C482 C480 1.389 . S
C482 C483 1.524 . S
C482 C496 1.377 . S
C483 C482 1.524 . S
C483 C484 1.397 . S
C483 C488 1.363 . S
C484 H461 0.950 . S
C484 C483 1.397 . S
C484 C485 1.334 . S
C485 H462 0.950 . S
C485 C484 1.334 . S
C485 C486 1.287 . S
C486 C485 1.287 . S
C486 C487 1.524 . S
C486 H505 0.913 . S
C487 H463 0.950 . S
C487 C486 1.524 . S
C487 C488 1.415 . S
C488 H464 0.950 . S
C488 C483 1.363 . S
C488 C487 1.415 . S
C489 H465 0.951 . S
C489 C490 1.366 . S
C489 C491 1.388 . S
C490 C489 1.366 . S
C490 C494 1.385 . S
C491 H466 0.951 . S
C491 C489 1.388 . S
C491 C492 1.366 . S
C492 C491 1.366 . S
C492 C493 1.414 . S
C492 C495 1.499 . S
C493 H467 0.950 . S
C493 C492 1.414 . S
C493 C494 1.374 . S
C494 H468 0.950 . S
C494 C490 1.385 . S
C494 C493 1.374 . S
C495 C492 1.499 . S
C495 C496 1.373 . S
C495 C497 1.389 . S
C496 H469 0.950 . S
C496 C482 1.377 . S
C496 C495 1.373 . S
C497 C481 1.377 . S
C497 C495 1.389 . S
C497 C498 1.524 . S
C498 C497 1.524 . S
C498 C499 1.397 . S
C498 C503 1.363 . S
C499 H470 0.950 . S
C499 C498 1.397 . S
C499 C500 1.334 . S
C500 H471 0.950 . S
C500 C499 1.334 . S
C500 C501 1.287 . S
C501 C500 1.287 . S
C501 C502 1.524 . S
C501 H504 0.999 . S
C502 H472 0.950 . S
C502 C501 1.524 . S
C502 C503 1.415 . S
C503 H473 0.950 . S
C503 C498 1.363 . S
C503 C502 1.415 . S
H504 C501 0.999 . S
H505 C486 0.913 . S
H506 C524 0.951 . S
H507 C526 0.951 . S
H508 C528 0.950 . S
H509 C529 0.950 . S
H510 C531 0.950 . S
H511 C534 0.950 . S
H512 C535 0.950 . S
H513 C537 0.950 1_545 S
H514 C538 0.950 . S
H515 C539 0.951 . S
H516 C541 0.951 . S
H517 C543 0.950 . S
H518 C544 0.963 . S
H519 C546 0.950 . S
H520 C549 0.950 . S
H521 C550 0.950 . S
H522 C552 0.950 . S
H523 C553 0.950 . S
C524 H506 0.951 . S
C524 C525 1.366 . S
C524 C526 1.388 . S
C525 C524 1.366 . S
C525 C529 1.385 . S
C526 H507 0.951 . S
C526 C524 1.388 . S
C526 C527 1.366 . S
C527 C526 1.366 . S
C527 C528 1.414 . S
C527 C530 1.499 . S
C528 H508 0.950 . S
C528 C527 1.414 . S
C528 C529 1.374 . S
C529 H509 0.950 . S
C529 C525 1.385 . S
C529 C528 1.374 . S
C530 C527 1.499 . S
C530 C531 1.373 . S
C530 C532 1.389 . S
C531 H510 0.950 . S
C531 C530 1.373 . S
C531 C547 1.377 . S
C532 C530 1.389 . S
C532 C533 1.524 . S
C532 C546 1.377 . S
C533 C532 1.524 . S
C533 C534 1.397 . S
C533 C538 1.363 . S
C534 H511 0.950 . S
C534 C533 1.397 . S
C534 C535 1.334 . S
C535 H512 0.950 . S
C535 C534 1.334 . S
C535 C536 1.287 . S
C536 C535 1.287 . S
C536 C537 1.524 . S
C536 H555 0.913 . S
C537 H513 0.950 1_565 S
C537 C536 1.524 . S
C537 C538 1.415 . S
C538 H514 0.950 . S
C538 C533 1.363 . S
C538 C537 1.415 . S
C539 H515 0.951 . S
C539 C540 1.366 . S
C539 C541 1.388 . S
C540 C539 1.366 . S
C540 C544 1.385 . S
C541 H516 0.951 . S
C541 C539 1.388 . S
C541 C542 1.366 . S
C542 C541 1.366 . S
C542 C543 1.414 . S
C542 C545 1.499 . S
C543 H517 0.950 . S
C543 C542 1.414 . S
C543 C544 1.374 . S
C544 H518 0.963 . S
C544 C540 1.385 . S
C544 C543 1.374 . S
C545 C542 1.499 . S
C545 C546 1.373 . S
C545 C547 1.389 . S
C546 H519 0.950 . S
C546 C532 1.377 . S
C546 C545 1.373 . S
C547 C531 1.377 . S
C547 C545 1.389 . S
C547 C548 1.524 . S
C548 C547 1.524 . S
C548 C549 1.397 . S
C548 C553 1.363 . S
C549 H520 0.950 . S
C549 C548 1.397 . S
C549 C550 1.334 . S
C550 H521 0.950 . S
C550 C549 1.334 . S
C550 C551 1.287 . S
C551 C550 1.287 . S
C551 C552 1.524 . S
C551 H554 0.999 . S
C552 H522 0.950 . S
C552 C551 1.524 . S
C552 C553 1.415 . S
C553 H523 0.950 . S
C553 C548 1.363 . S
C553 C552 1.415 . S
H554 C551 0.999 . S
H555 C536 0.913 . S
H556 C574 0.951 . S
H557 C576 0.951 . S
H558 C578 0.950 . S
H559 C579 0.950 . S
H560 C581 0.950 . S
H561 C584 0.950 . S
H562 C585 0.950 . S
H563 C587 0.950 . S
H564 C588 0.950 . S
H565 C589 0.951 . S
H566 C591 0.951 . S
H567 C593 0.950 . S
H568 C594 0.950 . S
H569 C596 0.950 . S
H570 C599 0.950 . S
H571 C600 0.950 . S
H572 C602 0.950 . S
H573 C603 0.950 . S
C574 H556 0.951 . S
C574 C575 1.366 . S
C574 C576 1.388 . S
C575 C574 1.366 . S
C575 C579 1.385 . S
C576 H557 0.951 . S
C576 C574 1.388 . S
C576 C577 1.366 . S
C577 C576 1.366 . S
C577 C578 1.414 . S
C577 C580 1.499 . S
C578 H558 0.950 . S
C578 C577 1.414 . S
C578 C579 1.374 . S
C579 H559 0.950 . S
C579 C575 1.385 . S
C579 C578 1.374 . S
C580 C577 1.499 . S
C580 C581 1.373 . S
C580 C582 1.389 . S
C581 H560 0.950 . S
C581 C580 1.373 . S
C581 C597 1.377 . S
C582 C580 1.389 . S
C582 C583 1.524 . S
C582 C596 1.377 . S
C583 C582 1.524 . S
C583 C584 1.397 . S
C583 C588 1.363 . S
C584 H561 0.950 . S
C584 C583 1.397 . S
C584 C585 1.334 . S
C585 H562 0.950 . S
C585 C584 1.334 . S
C585 C586 1.287 . S
C586 C585 1.287 . S
C586 C587 1.524 . S
C586 H605 0.913 . S
C587 H563 0.950 . S
C587 C586 1.524 . S
C587 C588 1.415 . S
C588 H564 0.950 . S
C588 C583 1.363 . S
C588 C587 1.415 . S
C589 H565 0.951 . S
C589 C590 1.366 . S
C589 C591 1.388 . S
C590 C589 1.366 . S
C590 C594 1.385 . S
C591 H566 0.951 . S
C591 C589 1.388 . S
C591 C592 1.366 . S
C592 C591 1.366 . S
C592 C593 1.414 . S
C592 C595 1.499 . S
C593 H567 0.950 . S
C593 C592 1.414 . S
C593 C594 1.374 . S
C594 H568 0.950 . S
C594 C590 1.385 . S
C594 C593 1.374 . S
C595 C592 1.499 . S
C595 C596 1.373 . S
C595 C597 1.389 . S
C596 H569 0.950 . S
C596 C582 1.377 . S
C596 C595 1.373 . S
C597 C581 1.377 . S
C597 C595 1.389 . S
C597 C598 1.524 . S
C598 C597 1.524 . S
C598 C599 1.397 . S
C598 C603 1.363 . S
C599 H570 0.950 . S
C599 C598 1.397 . S
C599 C600 1.334 . S
C600 H571 0.950 . S
C600 C599 1.334 . S
C600 C601 1.287 . S
C601 C600 1.287 . S
C601 C602 1.524 . S
C601 H604 0.999 . S
C602 H572 0.950 . S
C602 C601 1.524 . S
C602 C603 1.415 . S
C603 H573 0.950 . S
C603 C598 1.363 . S
C603 C602 1.415 . S
H604 C601 0.999 . S
H605 C586 0.913 . S
H606 C624 0.951 . S
H607 C626 0.951 . S
H608 C628 0.950 . S
H609 C629 0.950 . S
H610 C631 0.950 . S
H611 C634 0.950 . S
H612 C635 0.950 . S
H613 C637 0.950 . S
H614 C638 0.950 . S
H615 C639 0.951 . S
H616 C641 0.951 . S
H617 C643 0.950 . S
H618 C644 0.950 . S
H619 C646 0.950 . S
H620 C649 0.950 . S
H621 C650 0.950 . S
H622 C652 0.950 . S
H623 C653 0.950 . S
C624 H606 0.951 . S
C624 C625 1.366 . S
C624 C626 1.388 . S
C625 C624 1.366 . S
C625 C629 1.385 . S
C626 H607 0.951 . S
C626 C624 1.388 . S
C626 C627 1.366 . S
C627 C626 1.366 . S
C627 C628 1.414 . S
C627 C630 1.499 . S
C628 H608 0.950 . S
C628 C627 1.414 . S
C628 C629 1.374 . S
C629 H609 0.950 . S
C629 C625 1.385 . S
C629 C628 1.374 . S
C630 C627 1.499 . S
C630 C631 1.373 . S
C630 C632 1.389 . S
C631 H610 0.950 . S
C631 C630 1.373 . S
C631 C647 1.377 . S
C632 C630 1.389 . S
C632 C633 1.524 . S
C632 C646 1.377 . S
C633 C632 1.524 . S
C633 C634 1.397 . S
C633 C638 1.363 . S
C634 H611 0.950 . S
C634 C633 1.397 . S
C634 C635 1.334 . S
C635 H612 0.950 . S
C635 C634 1.334 . S
C635 C636 1.287 . S
C636 C635 1.287 . S
C636 C637 1.524 . S
C636 H655 0.913 . S
C637 H613 0.950 . S
C637 C636 1.524 . S
C637 C638 1.415 . S
C638 H614 0.950 . S
C638 C633 1.363 . S
C638 C637 1.415 . S
C639 H615 0.951 . S
C639 C640 1.366 . S
C639 C641 1.388 . S
C640 C639 1.366 . S
C640 C644 1.385 . S
C641 H616 0.951 . S
C641 C639 1.388 . S
C641 C642 1.366 . S
C642 C641 1.366 . S
C642 C643 1.414 . S
C642 C645 1.499 . S
C643 H617 0.950 . S
C643 C642 1.414 . S
C643 C644 1.374 . S
C644 H618 0.950 . S
C644 C640 1.385 . S
C644 C643 1.374 . S
C645 C642 1.499 . S
C645 C646 1.373 . S
C645 C647 1.389 . S
C646 H619 0.950 . S
C646 C632 1.377 . S
C646 C645 1.373 . S
C647 C631 1.377 . S
C647 C645 1.389 . S
C647 C648 1.524 . S
C648 C647 1.524 . S
C648 C649 1.397 . S
C648 C653 1.363 . S
C649 H620 0.950 . S
C649 C648 1.397 . S
C649 C650 1.334 . S
C650 H621 0.950 . S
C650 C649 1.334 . S
C650 C651 1.287 . S
C651 C650 1.287 . S
C651 C652 1.524 . S
C651 H654 0.999 . S
C652 H622 0.950 . S
C652 C651 1.524 . S
C652 C653 1.415 . S
C653 H623 0.950 . S
C653 C648 1.363 . S
C653 C652 1.415 . S
H654 C651 0.999 . S
H655 C636 0.913 . S
H656 C674 0.951 . S
H657 C676 0.951 . S
H658 C678 0.950 . S
H659 C679 0.950 . S
H660 C681 0.950 . S
H661 C684 0.950 . S
H662 C685 0.950 . S
H663 C687 0.950 . S
H664 C688 0.950 . S
H665 C689 0.951 . S
H666 C691 0.951 . S
H667 C693 0.950 . S
H668 C694 0.950 . S
H669 C696 0.950 . S
H670 C699 0.950 . S
H671 C700 0.950 . S
H672 C702 0.950 . S
H673 C703 0.950 . S
C674 H656 0.951 . S
C674 C675 1.366 . S
C674 C676 1.388 . S
C675 C674 1.366 . S
C675 C679 1.385 . S
C676 H657 0.951 . S
C676 C674 1.388 . S
C676 C677 1.366 . S
C677 C676 1.366 . S
C677 C678 1.414 . S
C677 C680 1.499 . S
C678 H658 0.950 . S
C678 C677 1.414 . S
C678 C679 1.374 . S
C679 H659 0.950 . S
C679 C675 1.385 . S
C679 C678 1.374 . S
C680 C677 1.499 . S
C680 C681 1.373 . S
C680 C682 1.389 . S
C681 H660 0.950 . S
C681 C680 1.373 . S
C681 C697 1.377 . S
C682 C680 1.389 . S
C682 C683 1.524 . S
C682 C696 1.377 . S
C683 C682 1.524 . S
C683 C684 1.397 . S
C683 C688 1.363 . S
C684 H661 0.950 . S
C684 C683 1.397 . S
C684 C685 1.334 . S
C685 H662 0.950 . S
C685 C684 1.334 . S
C685 C686 1.287 . S
C686 C685 1.287 . S
C686 C687 1.524 . S
C686 H705 0.913 . S
C687 H663 0.950 . S
C687 C686 1.524 . S
C687 C688 1.415 . S
C688 H664 0.950 . S
C688 C683 1.363 . S
C688 C687 1.415 . S
C689 H665 0.951 . S
C689 C690 1.366 . S
C689 C691 1.388 . S
C690 C689 1.366 . S
C690 C694 1.385 . S
C691 H666 0.951 . S
C691 C689 1.388 . S
C691 C692 1.366 . S
C692 C691 1.366 . S
C692 C693 1.414 . S
C692 C695 1.499 . S
C693 H667 0.950 . S
C693 C692 1.414 . S
C693 C694 1.374 . S
C694 H668 0.950 . S
C694 C690 1.385 . S
C694 C693 1.374 . S
C695 C692 1.499 . S
C695 C696 1.373 . S
C695 C697 1.389 . S
C696 H669 0.950 . S
C696 C682 1.377 . S
C696 C695 1.373 . S
C697 C681 1.377 . S
C697 C695 1.389 . S
C697 C698 1.524 . S
C698 C697 1.524 . S
C698 C699 1.397 . S
C698 C703 1.363 . S
C699 H670 0.950 . S
C699 C698 1.397 . S
C699 C700 1.334 . S
C700 H671 0.950 . S
C700 C699 1.334 . S
C700 C701 1.287 . S
C701 C700 1.287 . S
C701 C702 1.524 . S
C701 H704 0.999 . S
C702 H672 0.950 . S
C702 C701 1.524 . S
C702 C703 1.415 . S
C703 H673 0.950 . S
C703 C698 1.363 . S
C703 C702 1.415 . S
H704 C701 0.999 . S
H705 C686 0.913 . S
H706 C724 0.951 . S
H707 C726 0.951 . S
H708 C728 0.950 . S
H709 C729 0.950 . S
H710 C731 0.950 . S
H711 C734 0.950 . S
H712 C735 0.950 . S
H713 C737 0.950 . S
H714 C738 0.950 . S
H715 C739 0.951 . S
H716 C741 0.951 . S
H717 C743 0.950 . S
H718 C744 0.950 . S
H719 C746 0.950 . S
H720 C749 0.950 . S
H721 C750 0.950 . S
H722 C752 0.950 . S
H723 C753 0.950 . S
C724 H706 0.951 . S
C724 C725 1.366 . S
C724 C726 1.388 . S
C725 C724 1.366 . S
C725 C729 1.385 . S
C726 H707 0.951 . S
C726 C724 1.388 . S
C726 C727 1.366 . S
C727 C726 1.366 . S
C727 C728 1.414 . S
C727 C730 1.499 . S
C728 H708 0.950 . S
C728 C727 1.414 . S
C728 C729 1.374 . S
C729 H709 0.950 . S
C729 C725 1.385 . S
C729 C728 1.374 . S
C730 C727 1.499 . S
C730 C731 1.373 . S
C730 C732 1.389 . S
C731 H710 0.950 . S
C731 C730 1.373 . S
C731 C747 1.377 . S
C732 C730 1.389 . S
C732 C733 1.524 . S
C732 C746 1.377 . S
C733 C732 1.524 . S
C733 C734 1.397 . S
C733 C738 1.363 . S
C734 H711 0.950 . S
C734 C733 1.397 . S
C734 C735 1.334 . S
C735 H712 0.950 . S
C735 C734 1.334 . S
C735 C736 1.287 . S
C736 C735 1.287 . S
C736 C737 1.524 . S
C736 H755 0.913 . S
C737 H713 0.950 . S
C737 C736 1.524 . S
C737 C738 1.415 . S
C738 H714 0.950 . S
C738 C733 1.363 . S
C738 C737 1.415 . S
C739 H715 0.951 . S
C739 C740 1.366 . S
C739 C741 1.388 . S
C740 C739 1.366 . S
C740 C744 1.385 . S
C741 H716 0.951 . S
C741 C739 1.388 . S
C741 C742 1.366 . S
C742 C741 1.366 . S
C742 C743 1.414 . S
C742 C745 1.499 . S
C743 H717 0.950 . S
C743 C742 1.414 . S
C743 C744 1.374 . S
C744 H718 0.950 . S
C744 C740 1.385 . S
C744 C743 1.374 . S
C745 C742 1.499 . S
C745 C746 1.373 . S
C745 C747 1.389 . S
C746 H719 0.950 . S
C746 C732 1.377 . S
C746 C745 1.373 . S
C747 C731 1.377 . S
C747 C745 1.389 . S
C747 C748 1.524 . S
C748 C747 1.524 . S
C748 C749 1.397 . S
C748 C753 1.363 . S
C749 H720 0.950 . S
C749 C748 1.397 . S
C749 C750 1.334 . S
C750 H721 0.950 . S
C750 C749 1.334 . S
C750 C751 1.287 . S
C751 C750 1.287 . S
C751 C752 1.524 . S
C751 H754 0.999 . S
C752 H722 0.950 . S
C752 C751 1.524 . S
C752 C753 1.415 . S
C753 H723 0.950 . S
C753 C748 1.363 . S
C753 C752 1.415 . S
H754 C751 0.999 . S
H755 C736 0.913 . S
H756 C774 0.951 . S
H757 C776 0.951 . S
H758 C778 0.950 . S
H759 C779 0.950 . S
H760 C781 0.950 . S
H761 C784 0.950 . S
H762 C785 0.950 . S
H763 C787 0.950 . S
H764 C788 0.950 . S
H765 C789 0.951 . S
H766 C791 0.951 . S
H767 C793 0.950 . S
H768 C794 0.950 . S
H769 C796 0.950 . S
H770 C799 0.950 . S
H771 C800 0.950 . S
H772 C802 0.950 . S
H773 C803 0.950 . S
C774 H756 0.951 . S
C774 C775 1.366 . S
C774 C776 1.388 . S
C775 C774 1.366 . S
C775 C779 1.385 . S
C776 H757 0.951 . S
C776 C774 1.388 . S
C776 C777 1.366 . S
C777 C776 1.366 . S
C777 C778 1.414 . S
C777 C780 1.499 . S
C778 H758 0.950 . S
C778 C777 1.414 . S
C778 C779 1.374 . S
C779 H759 0.950 . S
C779 C775 1.385 . S
C779 C778 1.374 . S
C780 C777 1.499 . S
C780 C781 1.373 . S
C780 C782 1.389 . S
C781 H760 0.950 . S
C781 C780 1.373 . S
C781 C797 1.377 . S
C782 C780 1.389 . S
C782 C783 1.524 . S
C782 C796 1.377 . S
C783 C782 1.524 . S
C783 C784 1.397 . S
C783 C788 1.363 . S
C784 H761 0.950 . S
C784 C783 1.397 . S
C784 C785 1.334 . S
C785 H762 0.950 . S
C785 C784 1.334 . S
C785 C786 1.287 . S
C786 C785 1.287 . S
C786 C787 1.524 . S
C786 H805 0.913 . S
C787 H763 0.950 . S
C787 C786 1.524 . S
C787 C788 1.415 . S
C788 H764 0.950 . S
C788 C783 1.363 . S
C788 C787 1.415 . S
C789 H765 0.951 . S
C789 C790 1.366 . S
C789 C791 1.388 . S
C790 C789 1.366 . S
C790 C794 1.385 . S
C791 H766 0.951 . S
C791 C789 1.388 . S
C791 C792 1.366 . S
C792 C791 1.366 . S
C792 C793 1.414 . S
C792 C795 1.499 . S
C793 H767 0.950 . S
C793 C792 1.414 . S
C793 C794 1.374 . S
C794 H768 0.950 . S
C794 C790 1.385 . S
C794 C793 1.374 . S
C795 C792 1.499 . S
C795 C796 1.373 . S
C795 C797 1.389 . S
C796 H769 0.950 . S
C796 C782 1.377 . S
C796 C795 1.373 . S
C797 C781 1.377 . S
C797 C795 1.389 . S
C797 C798 1.524 . S
C798 C797 1.524 . S
C798 C799 1.397 . S
C798 C803 1.363 . S
C799 H770 0.950 . S
C799 C798 1.397 . S
C799 C800 1.334 . S
C800 H771 0.950 . S
C800 C799 1.334 . S
C800 C801 1.287 . S
C801 C800 1.287 . S
C801 C802 1.524 . S
C801 H804 0.999 . S
C802 H772 0.950 . S
C802 C801 1.524 . S
C802 C803 1.415 . S
C803 H773 0.950 . S
C803 C798 1.363 . S
C803 C802 1.415 . S
H804 C801 0.999 . S
H805 C786 0.913 . S
H806 C824 0.951 . S
H807 C826 0.951 . S
H808 C828 0.950 . S
H809 C829 0.950 . S
H810 C831 0.950 . S
H811 C834 0.950 . S
H812 C835 0.950 . S
H813 C837 0.950 . S
H814 C838 0.950 . S
H815 C839 0.951 . S
H816 C841 0.951 . S
H817 C843 0.950 . S
H818 C844 0.950 . S
H819 C846 0.950 . S
H820 C849 0.950 . S
H821 C850 0.950 . S
H822 C852 0.950 . S
H823 C853 0.950 . S
C824 H806 0.951 . S
C824 C825 1.366 . S
C824 C826 1.388 . S
C825 C824 1.366 . S
C825 C829 1.385 . S
C826 H807 0.951 . S
C826 C824 1.388 . S
C826 C827 1.366 . S
C827 C826 1.366 . S
C827 C828 1.414 . S
C827 C830 1.499 . S
C828 H808 0.950 . S
C828 C827 1.414 . S
C828 C829 1.374 . S
C829 H809 0.950 . S
C829 C825 1.385 . S
C829 C828 1.374 . S
C830 C827 1.499 . S
C830 C831 1.373 . S
C830 C832 1.389 . S
C831 H810 0.950 . S
C831 C830 1.373 . S
C831 C847 1.377 . S
C832 C830 1.389 . S
C832 C833 1.524 . S
C832 C846 1.377 . S
C833 C832 1.524 . S
C833 C834 1.397 . S
C833 C838 1.363 . S
C834 H811 0.950 . S
C834 C833 1.397 . S
C834 C835 1.334 . S
C835 H812 0.950 . S
C835 C834 1.334 . S
C835 C836 1.287 . S
C836 C835 1.287 . S
C836 C837 1.524 . S
C836 H855 0.913 . S
C837 H813 0.950 . S
C837 C836 1.524 . S
C837 C838 1.415 . S
C838 H814 0.950 . S
C838 C833 1.363 . S
C838 C837 1.415 . S
C839 H815 0.951 . S
C839 C840 1.366 . S
C839 C841 1.388 . S
C840 C839 1.366 . S
C840 C844 1.385 . S
C841 H816 0.951 . S
C841 C839 1.388 . S
C841 C842 1.366 . S
C842 C841 1.366 . S
C842 C843 1.414 . S
C842 C845 1.499 . S
C843 H817 0.950 . S
C843 C842 1.414 . S
C843 C844 1.374 . S
C844 H818 0.950 . S
C844 C840 1.385 . S
C844 C843 1.374 . S
C845 C842 1.499 . S
C845 C846 1.373 . S
C845 C847 1.389 . S
C846 H819 0.950 . S
C846 C832 1.377 . S
C846 C845 1.373 . S
C847 C831 1.377 . S
C847 C845 1.389 . S
C847 C848 1.524 . S
C848 C847 1.524 . S
C848 C849 1.397 . S
C848 C853 1.363 . S
C849 H820 0.950 . S
C849 C848 1.397 . S
C849 C850 1.334 . S
C850 H821 0.950 . S
C850 C849 1.334 . S
C850 C851 1.287 . S
C851 C850 1.287 . S
C851 C852 1.524 . S
C851 H854 0.999 . S
C852 H822 0.950 . S
C852 C851 1.524 . S
C852 C853 1.415 . S
C853 H823 0.950 . S
C853 C848 1.363 . S
C853 C852 1.415 . S
H854 C851 0.999 . S
H855 C836 0.913 . S
H856 C874 0.951 . S
H857 C876 0.951 . S
H858 C878 0.950 . S
H859 C879 0.950 . S
H860 C881 0.950 . S
H861 C884 0.950 . S
H862 C885 0.950 . S
H863 C887 0.950 . S
H864 C888 0.950 . S
H865 C889 0.951 . S
H866 C891 0.951 . S
H867 C893 0.950 . S
H868 C894 0.950 . S
H869 C896 0.950 . S
H870 C899 0.950 . S
H871 C900 0.950 . S
H872 C902 0.950 . S
H873 C903 0.950 . S
C874 H856 0.951 . S
C874 C875 1.366 . S
C874 C876 1.388 . S
C875 C874 1.366 . S
C875 C879 1.385 . S
C876 H857 0.951 . S
C876 C874 1.388 . S
C876 C877 1.366 . S
C877 C876 1.366 . S
C877 C878 1.414 . S
C877 C880 1.499 . S
C878 H858 0.950 . S
C878 C877 1.414 . S
C878 C879 1.374 . S
C879 H859 0.950 . S
C879 C875 1.385 . S
C879 C878 1.374 . S
C880 C877 1.499 . S
C880 C881 1.373 . S
C880 C882 1.389 . S
C881 H860 0.950 . S
C881 C880 1.373 . S
C881 C897 1.377 . S
C882 C880 1.389 . S
C882 C883 1.524 . S
C882 C896 1.377 . S
C883 C882 1.524 . S
C883 C884 1.397 . S
C883 C888 1.363 . S
C884 H861 0.950 . S
C884 C883 1.397 . S
C884 C885 1.334 . S
C885 H862 0.950 . S
C885 C884 1.334 . S
C885 C886 1.287 . S
C886 C885 1.287 . S
C886 C887 1.524 . S
C886 H905 0.913 . S
C887 H863 0.950 . S
C887 C886 1.524 . S
C887 C888 1.415 . S
C888 H864 0.950 . S
C888 C883 1.363 . S
C888 C887 1.415 . S
C889 H865 0.951 . S
C889 C890 1.366 . S
C889 C891 1.388 . S
C890 C889 1.366 . S
C890 C894 1.385 . S
C891 H866 0.951 . S
C891 C889 1.388 . S
C891 C892 1.366 . S
C892 C891 1.366 . S
C892 C893 1.414 . S
C892 C895 1.499 . S
C893 H867 0.950 . S
C893 C892 1.414 . S
C893 C894 1.374 . S
C894 H868 0.950 . S
C894 C890 1.385 . S
C894 C893 1.374 . S
C895 C892 1.499 . S
C895 C896 1.373 . S
C895 C897 1.389 . S
C896 H869 0.950 . S
C896 C882 1.377 . S
C896 C895 1.373 . S
C897 C881 1.377 . S
C897 C895 1.389 . S
C897 C898 1.524 . S
C898 C897 1.524 . S
C898 C899 1.397 . S
C898 C903 1.363 . S
C899 H870 0.950 . S
C899 C898 1.397 . S
C899 C900 1.334 . S
C900 H871 0.950 . S
C900 C899 1.334 . S
C900 C901 1.287 . S
C901 C900 1.287 . S
C901 C902 1.524 . S
C901 H904 0.999 . S
C902 H872 0.950 . S
C902 C901 1.524 . S
C902 C903 1.415 . S
C903 H873 0.950 . S
C903 C898 1.363 . S
C903 C902 1.415 . S
H904 C901 0.999 . S
H905 C886 0.913 . S
H906 C924 0.951 . S
H907 C926 0.951 . S
H908 C928 0.950 . S
H909 C929 0.950 . S
H910 C931 0.950 . S
H911 C934 0.950 . S
H912 C935 0.950 . S
H913 C937 0.950 . S
H914 C938 0.950 . S
H915 C939 0.951 . S
H916 C941 0.951 . S
H917 C943 0.950 . S
H918 C944 0.950 . S
H919 C946 0.950 . S
H920 C949 0.950 . S
H921 C950 0.950 . S
H922 C952 0.950 . S
H923 C953 0.950 . S
C924 H906 0.951 . S
C924 C925 1.366 . S
C924 C926 1.388 . S
C925 C924 1.366 . S
C925 C929 1.385 . S
C926 H907 0.951 . S
C926 C924 1.388 . S
C926 C927 1.366 . S
C927 C926 1.366 . S
C927 C928 1.414 . S
C927 C930 1.499 . S
C928 H908 0.950 . S
C928 C927 1.414 . S
C928 C929 1.374 . S
C929 H909 0.950 . S
C929 C925 1.385 . S
C929 C928 1.374 . S
C930 C927 1.499 . S
C930 C931 1.373 . S
C930 C932 1.389 . S
C931 H910 0.950 . S
C931 C930 1.373 . S
C931 C947 1.377 . S
C932 C930 1.389 . S
C932 C933 1.524 . S
C932 C946 1.377 . S
C933 C932 1.524 . S
C933 C934 1.397 . S
C933 C938 1.363 . S
C934 H911 0.950 . S
C934 C933 1.397 . S
C934 C935 1.334 . S
C935 H912 0.950 . S
C935 C934 1.334 . S
C935 C936 1.287 . S
C936 C935 1.287 . S
C936 C937 1.524 . S
C936 H955 0.913 . S
C937 H913 0.950 . S
C937 C936 1.524 . S
C937 C938 1.415 . S
C938 H914 0.950 . S
C938 C933 1.363 . S
C938 C937 1.415 . S
C939 H915 0.951 . S
C939 C940 1.366 . S
C939 C941 1.388 . S
C940 C939 1.366 . S
C940 C944 1.385 . S
C941 H916 0.951 . S
C941 C939 1.388 . S
C941 C942 1.366 . S
C942 C941 1.366 . S
C942 C943 1.414 . S
C942 C945 1.499 . S
C943 H917 0.950 . S
C943 C942 1.414 . S
C943 C944 1.374 . S
C944 H918 0.950 . S
C944 C940 1.385 . S
C944 C943 1.374 . S
C945 C942 1.499 . S
C945 C946 1.373 . S
C945 C947 1.389 . S
C946 H919 0.950 . S
C946 C932 1.377 . S
C946 C945 1.373 . S
C947 C931 1.377 . S
C947 C945 1.389 . S
C947 C948 1.524 . S
C948 C947 1.524 . S
C948 C949 1.397 . S
C948 C953 1.363 . S
C949 H920 0.950 . S
C949 C948 1.397 . S
C949 C950 1.334 . S
C950 H921 0.950 . S
C950 C949 1.334 . S
C950 C951 1.287 . S
C951 C950 1.287 . S
C951 C952 1.524 . S
C951 H954 0.999 . S
C952 H922 0.950 . S
C952 C951 1.524 . S
C952 C953 1.415 . S
C953 H923 0.950 . S
C953 C948 1.363 . S
C953 C952 1.415 . S
H954 C951 0.999 . S
H955 C936 0.913 . S
H956 C974 0.951 . S
H957 C976 0.951 . S
H958 C978 0.950 . S
H959 C979 0.950 . S
H960 C981 0.950 . S
H961 C984 0.950 . S
H962 C985 0.950 . S
H963 C987 0.950 . S
H964 C988 0.950 . S
H965 C989 0.951 . S
H966 C991 0.951 . S
H967 C993 0.950 . S
H968 C994 0.950 . S
H969 C996 0.950 . S
H970 C999 0.950 . S
H971 C1000 0.950 . S
H972 C1002 0.950 . S
H973 C1003 0.950 . S
C974 H956 0.951 . S
C974 C975 1.366 . S
C974 C976 1.388 . S
C975 C974 1.366 . S
C975 C979 1.385 . S
C976 H957 0.951 . S
C976 C974 1.388 . S
C976 C977 1.366 . S
C977 C976 1.366 . S
C977 C978 1.414 . S
C977 C980 1.499 . S
C978 H958 0.950 . S
C978 C977 1.414 . S
C978 C979 1.374 . S
C979 H959 0.950 . S
C979 C975 1.385 . S
C979 C978 1.374 . S
C980 C977 1.499 . S
C980 C981 1.373 . S
C980 C982 1.389 . S
C981 H960 0.950 . S
C981 C980 1.373 . S
C981 C997 1.377 . S
C982 C980 1.389 . S
C982 C983 1.524 . S
C982 C996 1.377 . S
C983 C982 1.524 . S
C983 C984 1.397 . S
C983 C988 1.363 . S
C984 H961 0.950 . S
C984 C983 1.397 . S
C984 C985 1.334 . S
C985 H962 0.950 . S
C985 C984 1.334 . S
C985 C986 1.287 . S
C986 C985 1.287 . S
C986 C987 1.524 . S
C986 H1005 0.913 . S
C987 H963 0.950 . S
C987 C986 1.524 . S
C987 C988 1.415 . S
C988 H964 0.950 . S
C988 C983 1.363 . S
C988 C987 1.415 . S
C989 H965 0.951 . S
C989 C990 1.366 . S
C989 C991 1.388 . S
C990 C989 1.366 . S
C990 C994 1.385 . S
C991 H966 0.951 . S
C991 C989 1.388 . S
C991 C992 1.366 . S
C992 C991 1.366 . S
C992 C993 1.414 . S
C992 C995 1.499 . S
C993 H967 0.950 . S
C993 C992 1.414 . S
C993 C994 1.374 . S
C994 H968 0.950 . S
C994 C990 1.385 . S
C994 C993 1.374 . S
C995 C992 1.499 . S
C995 C996 1.373 . S
C995 C997 1.389 . S
C996 H969 0.950 . S
C996 C982 1.377 . S
C996 C995 1.373 . S
C997 C981 1.377 . S
C997 C995 1.389 . S
C997 C998 1.524 . S
C998 C997 1.524 . S
C998 C999 1.397 . S
C998 C1003 1.363 . S
C999 H970 0.950 . S
C999 C998 1.397 . S
C999 C1000 1.334 . S
C1000 H971 0.950 . S
C1000 C999 1.334 . S
C1000 C1001 1.287 . S
C1001 C1000 1.287 . S
C1001 C1002 1.524 . S
C1001 H1004 0.999 . S
C1002 H972 0.950 . S
C1002 C1001 1.524 . S
C1002 C1003 1.415 . S
C1003 H973 0.950 . S
C1003 C998 1.363 . S
C1003 C1002 1.415 . S
H1004 C1001 0.999 . S
H1005 C986 0.913 . S
H1006 C1024 0.951 . S
H1007 C1026 0.951 . S
H1008 C1028 0.950 . S
H1009 C1029 0.950 . S
H1010 C1031 0.950 . S
H1011 C1034 0.950 . S
H1012 C1035 0.950 . S
H1013 C1037 0.950 . S
H1014 C1038 0.950 . S
H1015 C1039 0.951 . S
H1016 C1041 0.951 . S
H1017 C1043 0.950 . S
H1018 C1044 0.950 . S
H1019 C1046 0.950 . S
H1020 C1049 0.950 . S
H1021 C1050 0.950 . S
H1022 C1052 0.950 1_655 S
H1023 C1053 0.950 . S
C1024 H1006 0.951 . S
C1024 C1025 1.366 . S
C1024 C1026 1.388 . S
C1025 C1024 1.366 . S
C1025 C1029 1.385 . S
C1026 H1007 0.951 . S
C1026 C1024 1.388 . S
C1026 C1027 1.366 . S
C1027 C1026 1.366 . S
C1027 C1028 1.414 . S
C1027 C1030 1.499 . S
C1028 H1008 0.950 . S
C1028 C1027 1.414 . S
C1028 C1029 1.374 . S
C1029 H1009 0.950 . S
C1029 C1025 1.385 . S
C1029 C1028 1.374 . S
C1030 C1027 1.499 . S
C1030 C1031 1.373 . S
C1030 C1032 1.389 . S
C1031 H1010 0.950 . S
C1031 C1030 1.373 . S
C1031 C1047 1.377 . S
C1032 C1030 1.389 . S
C1032 C1033 1.524 . S
C1032 C1046 1.377 . S
C1033 C1032 1.524 . S
C1033 C1034 1.397 . S
C1033 C1038 1.363 . S
C1034 H1011 0.950 . S
C1034 C1033 1.397 . S
C1034 C1035 1.334 . S
C1035 H1012 0.950 . S
C1035 C1034 1.334 . S
C1035 C1036 1.287 . S
C1036 C1035 1.287 . S
C1036 C1037 1.524 . S
C1036 H1055 0.913 . S
C1037 H1013 0.950 . S
C1037 C1036 1.524 . S
C1037 C1038 1.415 . S
C1038 H1014 0.950 . S
C1038 C1033 1.363 . S
C1038 C1037 1.415 . S
C1039 H1015 0.951 . S
C1039 C1040 1.366 . S
C1039 C1041 1.388 . S
C1040 C1039 1.366 . S
C1040 C1044 1.385 . S
C1041 H1016 0.951 . S
C1041 C1039 1.388 . S
C1041 C1042 1.366 . S
C1042 C1041 1.366 . S
C1042 C1043 1.414 . S
C1042 C1045 1.499 . S
C1043 H1017 0.950 . S
C1043 C1042 1.414 . S
C1043 C1044 1.374 . S
C1044 H1018 0.950 . S
C1044 C1040 1.385 . S
C1044 C1043 1.374 . S
C1045 C1042 1.499 . S
C1045 C1046 1.373 . S
C1045 C1047 1.389 . S
C1046 H1019 0.950 . S
C1046 C1032 1.377 . S
C1046 C1045 1.373 . S
C1047 C1031 1.377 . S
C1047 C1045 1.389 . S
C1047 C1048 1.524 . S
C1048 C1047 1.524 . S
C1048 C1049 1.397 . S
C1048 C1053 1.363 . S
C1049 H1020 0.950 . S
C1049 C1048 1.397 . S
C1049 C1050 1.334 . S
C1050 H1021 0.950 . S
C1050 C1049 1.334 . S
C1050 C1051 1.287 . S
C1051 C1050 1.287 . S
C1051 C1052 1.524 . S
C1051 H1054 0.999 . S
C1052 H1022 0.950 1_455 S
C1052 C1051 1.524 . S
C1052 C1053 1.415 . S
C1053 H1023 0.950 . S
C1053 C1048 1.363 . S
C1053 C1052 1.415 . S
H1054 C1051 0.999 . S
H1055 C1036 0.913 . S
H1056 C1074 0.951 . S
H1057 C1076 0.951 . S
H1058 C1078 0.950 . S
H1059 C1079 0.950 . S
H1060 C1081 0.950 . S
H1061 C1084 0.950 . S
H1062 C1085 0.950 . S
H1063 C1087 0.950 . S
H1064 C1088 0.950 . S
H1065 C1089 0.951 . S
H1066 C1091 0.951 . S
H1067 C1093 0.950 . S
H1068 C1094 0.950 . S
H1069 C1096 0.950 . S
H1070 C1099 0.950 . S
H1071 C1100 0.950 . S
H1072 C1102 0.950 . S
H1073 C1103 0.950 . S
C1074 H1056 0.951 . S
C1074 C1075 1.366 . S
C1074 C1076 1.388 . S
C1075 C1074 1.366 . S
C1075 C1079 1.385 . S
C1076 H1057 0.951 . S
C1076 C1074 1.388 . S
C1076 C1077 1.366 . S
C1077 C1076 1.366 . S
C1077 C1078 1.414 . S
C1077 C1080 1.499 . S
C1078 H1058 0.950 . S
C1078 C1077 1.414 . S
C1078 C1079 1.374 . S
C1079 H1059 0.950 . S
C1079 C1075 1.385 . S
C1079 C1078 1.374 . S
C1080 C1077 1.499 . S
C1080 C1081 1.373 . S
C1080 C1082 1.389 . S
C1081 H1060 0.950 . S
C1081 C1080 1.373 . S
C1081 C1097 1.377 . S
C1082 C1080 1.389 . S
C1082 C1083 1.524 . S
C1082 C1096 1.377 . S
C1083 C1082 1.524 . S
C1083 C1084 1.397 . S
C1083 C1088 1.363 . S
C1084 H1061 0.950 . S
C1084 C1083 1.397 . S
C1084 C1085 1.334 . S
C1085 H1062 0.950 . S
C1085 C1084 1.334 . S
C1085 C1086 1.287 . S
C1086 C1085 1.287 . S
C1086 C1087 1.524 . S
C1086 H1105 0.913 . S
C1087 H1063 0.950 . S
C1087 C1086 1.524 . S
C1087 C1088 1.415 . S
C1088 H1064 0.950 . S
C1088 C1083 1.363 . S
C1088 C1087 1.415 . S
C1089 H1065 0.951 . S
C1089 C1090 1.366 . S
C1089 C1091 1.388 . S
C1090 C1089 1.366 . S
C1090 C1094 1.385 . S
C1091 H1066 0.951 . S
C1091 C1089 1.388 . S
C1091 C1092 1.366 . S
C1092 C1091 1.366 . S
C1092 C1093 1.414 . S
C1092 C1095 1.499 . S
C1093 H1067 0.950 . S
C1093 C1092 1.414 . S
C1093 C1094 1.374 . S
C1094 H1068 0.950 . S
C1094 C1090 1.385 . S
C1094 C1093 1.374 . S
C1095 C1092 1.499 . S
C1095 C1096 1.373 . S
C1095 C1097 1.389 . S
C1096 H1069 0.950 . S
C1096 C1082 1.377 . S
C1096 C1095 1.373 . S
C1097 C1081 1.377 . S
C1097 C1095 1.389 . S
C1097 C1098 1.524 . S
C1098 C1097 1.524 . S
C1098 C1099 1.397 . S
C1098 C1103 1.363 . S
C1099 H1070 0.950 . S
C1099 C1098 1.397 . S
C1099 C1100 1.334 . S
C1100 H1071 0.950 . S
C1100 C1099 1.334 . S
C1100 C1101 1.287 . S
C1101 C1100 1.287 . S
C1101 C1102 1.524 . S
C1101 H1104 0.999 . S
C1102 H1072 0.950 . S
C1102 C1101 1.524 . S
C1102 C1103 1.415 . S
C1103 H1073 0.950 . S
C1103 C1098 1.363 . S
C1103 C1102 1.415 . S
H1104 C1101 0.999 . S
H1105 C1086 0.913 . S
H1106 C1124 0.951 . S
H1107 C1126 0.951 . S
H1108 C1128 0.950 . S
H1109 C1129 0.950 . S
H1110 C1131 0.950 . S
H1111 C1134 0.950 . S
H1112 C1135 0.950 . S
H1113 C1137 0.950 . S
H1114 C1138 0.950 . S
H1115 C1139 0.951 . S
H1116 C1141 0.951 . S
H1117 C1143 0.950 . S
H1118 C1144 0.950 . S
H1119 C1146 0.950 . S
H1120 C1149 0.950 . S
H1121 C1150 0.950 . S
H1122 C1152 0.945 1_565 S
H1123 C1153 0.950 . S
C1124 H1106 0.951 . S
C1124 C1125 1.366 . S
C1124 C1126 1.388 . S
C1125 C1124 1.366 . S
C1125 C1129 1.385 . S
C1126 H1107 0.951 . S
C1126 C1124 1.388 . S
C1126 C1127 1.366 . S
C1127 C1126 1.366 . S
C1127 C1128 1.414 . S
C1127 C1130 1.499 . S
C1128 H1108 0.950 . S
C1128 C1127 1.414 . S
C1128 C1129 1.374 . S
C1129 H1109 0.950 . S
C1129 C1125 1.385 . S
C1129 C1128 1.374 . S
C1130 C1127 1.499 . S
C1130 C1131 1.373 . S
C1130 C1132 1.389 . S
C1131 H1110 0.950 . S
C1131 C1130 1.373 . S
C1131 C1147 1.377 . S
C1132 C1130 1.389 . S
C1132 C1133 1.524 . S
C1132 C1146 1.377 . S
C1133 C1132 1.524 . S
C1133 C1134 1.397 . S
C1133 C1138 1.363 . S
C1134 H1111 0.950 . S
C1134 C1133 1.397 . S
C1134 C1135 1.334 . S
C1135 H1112 0.950 . S
C1135 C1134 1.334 . S
C1135 C1136 1.287 . S
C1136 C1135 1.287 . S
C1136 C1137 1.524 . S
C1136 H1155 0.913 . S
C1137 H1113 0.950 . S
C1137 C1136 1.524 . S
C1137 C1138 1.415 . S
C1138 H1114 0.950 . S
C1138 C1133 1.363 . S
C1138 C1137 1.415 . S
C1139 H1115 0.951 . S
C1139 C1140 1.366 . S
C1139 C1141 1.388 . S
C1140 C1139 1.366 . S
C1140 C1144 1.385 . S
C1141 H1116 0.951 . S
C1141 C1139 1.388 . S
C1141 C1142 1.366 . S
C1142 C1141 1.366 . S
C1142 C1143 1.414 . S
C1142 C1145 1.499 . S
C1143 H1117 0.950 . S
C1143 C1142 1.414 . S
C1143 C1144 1.374 . S
C1144 H1118 0.950 . S
C1144 C1140 1.385 . S
C1144 C1143 1.374 . S
C1145 C1142 1.499 . S
C1145 C1146 1.373 . S
C1145 C1147 1.389 . S
C1146 H1119 0.950 . S
C1146 C1132 1.377 . S
C1146 C1145 1.373 . S
C1147 C1131 1.377 . S
C1147 C1145 1.389 . S
C1147 C1148 1.524 . S
C1148 C1147 1.524 . S
C1148 C1149 1.397 . S
C1148 C1153 1.363 . S
C1149 H1120 0.950 . S
C1149 C1148 1.397 . S
C1149 C1150 1.334 1_545 S
C1150 H1121 0.950 . S
C1150 C1149 1.334 1_565 S
C1150 C1151 1.287 . S
C1151 C1150 1.287 . S
C1151 C1152 1.524 1_565 S
C1151 H1154 0.999 . S
C1152 H1122 0.945 1_545 S
C1152 C1151 1.524 1_545 S
C1152 C1153 1.415 . S
C1153 H1123 0.950 . S
C1153 C1148 1.363 . S
C1153 C1152 1.415 . S
H1154 C1151 0.999 . S
H1155 C1136 0.913 . S
H1156 C1174 0.951 . S
H1157 C1176 0.951 . S
H1158 C1178 0.950 . S
H1159 C1179 0.950 . S
H1160 C1181 0.950 . S
H1161 C1184 0.950 . S
H1162 C1185 0.950 . S
H1163 C1187 0.950 . S
H1164 C1188 0.950 . S
H1165 C1189 0.951 . S
H1166 C1191 0.951 . S
H1167 C1193 0.950 . S
H1168 C1194 0.950 . S
H1169 C1196 0.950 . S
H1170 C1199 0.950 . S
H1171 C1200 0.950 . S
H1172 C1202 0.950 . S
H1173 C1203 0.950 . S
C1174 H1156 0.951 . S
C1174 C1175 1.366 . S
C1174 C1176 1.388 . S
C1175 C1174 1.366 . S
C1175 C1179 1.385 . S
C1176 H1157 0.951 . S
C1176 C1174 1.388 . S
C1176 C1177 1.366 . S
C1177 C1176 1.366 . S
C1177 C1178 1.414 . S
C1177 C1180 1.499 . S
C1178 H1158 0.950 . S
C1178 C1177 1.414 . S
C1178 C1179 1.374 . S
C1179 H1159 0.950 . S
C1179 C1175 1.385 . S
C1179 C1178 1.374 . S
C1180 C1177 1.499 . S
C1180 C1181 1.373 . S
C1180 C1182 1.389 . S
C1181 H1160 0.950 . S
C1181 C1180 1.373 . S
C1181 C1197 1.377 . S
C1182 C1180 1.389 . S
C1182 C1183 1.524 . S
C1182 C1196 1.377 . S
C1183 C1182 1.524 . S
C1183 C1184 1.397 . S
C1183 C1188 1.363 . S
C1184 H1161 0.950 . S
C1184 C1183 1.397 . S
C1184 C1185 1.334 . S
C1185 H1162 0.950 . S
C1185 C1184 1.334 . S
C1185 C1186 1.287 . S
C1186 C1185 1.287 . S
C1186 C1187 1.524 . S
C1186 H1205 0.913 . S
C1187 H1163 0.950 . S
C1187 C1186 1.524 . S
C1187 C1188 1.415 . S
C1188 H1164 0.950 . S
C1188 C1183 1.363 . S
C1188 C1187 1.415 . S
C1189 H1165 0.951 . S
C1189 C1190 1.366 . S
C1189 C1191 1.388 . S
C1190 C1189 1.366 . S
C1190 C1194 1.385 . S
C1191 H1166 0.951 . S
C1191 C1189 1.388 . S
C1191 C1192 1.366 . S
C1192 C1191 1.366 . S
C1192 C1193 1.414 . S
C1192 C1195 1.499 . S
C1193 H1167 0.950 . S
C1193 C1192 1.414 . S
C1193 C1194 1.374 . S
C1194 H1168 0.950 . S
C1194 C1190 1.385 . S
C1194 C1193 1.374 . S
C1195 C1192 1.499 . S
C1195 C1196 1.373 . S
C1195 C1197 1.389 . S
C1196 H1169 0.950 . S
C1196 C1182 1.377 . S
C1196 C1195 1.373 . S
C1197 C1181 1.377 . S
C1197 C1195 1.389 . S
C1197 C1198 1.524 . S
C1198 C1197 1.524 . S
C1198 C1199 1.397 . S
C1198 C1203 1.363 . S
C1199 H1170 0.950 . S
C1199 C1198 1.397 . S
C1199 C1200 1.334 . S
C1200 H1171 0.950 . S
C1200 C1199 1.334 . S
C1200 C1201 1.287 . S
C1201 C1200 1.287 . S
C1201 C1202 1.524 . S
C1201 H1204 0.999 . S
C1202 H1172 0.950 . S
C1202 C1201 1.524 . S
C1202 C1203 1.415 . S
C1203 H1173 0.950 . S
C1203 C1198 1.363 . S
C1203 C1202 1.415 . S
H1204 C1201 0.999 . S
H1205 C1186 0.913 . S
H1206 C1224 0.951 . S
H1207 C1226 0.951 . S
H1208 C1228 0.950 . S
H1209 C1229 0.950 . S
H1210 C1231 0.950 . S
H1211 C1234 0.950 . S
H1212 C1235 0.950 . S
H1213 C1237 0.950 . S
H1214 C1238 0.950 . S
H1215 C1239 0.951 . S
H1216 C1241 0.951 . S
H1217 C1243 0.950 . S
H1218 C1244 0.950 . S
H1219 C1246 0.950 . S
H1220 C1249 0.950 . S
H1221 C1250 0.950 . S
H1222 C1252 0.950 . S
H1223 C1253 0.950 . S
C1224 H1206 0.951 . S
C1224 C1225 1.366 . S
C1224 C1226 1.388 . S
C1225 C1224 1.366 . S
C1225 C1229 1.385 . S
C1226 H1207 0.951 . S
C1226 C1224 1.388 . S
C1226 C1227 1.366 . S
C1227 C1226 1.366 . S
C1227 C1228 1.414 . S
C1227 C1230 1.499 . S
C1228 H1208 0.950 . S
C1228 C1227 1.414 . S
C1228 C1229 1.374 . S
C1229 H1209 0.950 . S
C1229 C1225 1.385 . S
C1229 C1228 1.374 . S
C1230 C1227 1.499 . S
C1230 C1231 1.373 . S
C1230 C1232 1.389 . S
C1231 H1210 0.950 . S
C1231 C1230 1.373 . S
C1231 C1247 1.377 . S
C1232 C1230 1.389 . S
C1232 C1233 1.524 . S
C1232 C1246 1.377 . S
C1233 C1232 1.524 . S
C1233 C1234 1.397 . S
C1233 C1238 1.363 . S
C1234 H1211 0.950 . S
C1234 C1233 1.397 . S
C1234 C1235 1.334 . S
C1235 H1212 0.950 . S
C1235 C1234 1.334 . S
C1235 C1236 1.287 . S
C1236 C1235 1.287 . S
C1236 C1237 1.524 . S
C1236 H1255 0.913 . S
C1237 H1213 0.950 . S
C1237 C1236 1.524 . S
C1237 C1238 1.415 . S
C1238 H1214 0.950 . S
C1238 C1233 1.363 . S
C1238 C1237 1.415 . S
C1239 H1215 0.951 . S
C1239 C1240 1.366 . S
C1239 C1241 1.388 . S
C1240 C1239 1.366 . S
C1240 C1244 1.385 . S
C1241 H1216 0.951 . S
C1241 C1239 1.388 . S
C1241 C1242 1.366 . S
C1242 C1241 1.366 . S
C1242 C1243 1.414 . S
C1242 C1245 1.499 . S
C1243 H1217 0.950 . S
C1243 C1242 1.414 . S
C1243 C1244 1.374 . S
C1244 H1218 0.950 . S
C1244 C1240 1.385 . S
C1244 C1243 1.374 . S
C1245 C1242 1.499 . S
C1245 C1246 1.373 . S
C1245 C1247 1.389 . S
C1246 H1219 0.950 . S
C1246 C1232 1.377 . S
C1246 C1245 1.373 . S
C1247 C1231 1.377 . S
C1247 C1245 1.389 . S
C1247 C1248 1.524 . S
C1248 C1247 1.524 . S
C1248 C1249 1.397 . S
C1248 C1253 1.363 . S
C1249 H1220 0.950 . S
C1249 C1248 1.397 . S
C1249 C1250 1.334 . S
C1250 H1221 0.950 . S
C1250 C1249 1.334 . S
C1250 C1251 1.287 . S
C1251 C1250 1.287 . S
C1251 C1252 1.524 . S
C1251 H1254 0.999 . S
C1252 H1222 0.950 . S
C1252 C1251 1.524 . S
C1252 C1253 1.415 . S
C1253 H1223 0.950 . S
C1253 C1248 1.363 . S
C1253 C1252 1.415 . S
H1254 C1251 0.999 . S
H1255 C1236 0.913 . S
H1256 C1274 0.951 . S
H1257 C1276 0.951 . S
H1258 C1278 0.950 . S
H1259 C1279 0.950 . S
H1260 C1281 0.950 . S
H1261 C1284 0.950 . S
H1262 C1285 0.950 . S
H1263 C1287 0.950 . S
H1264 C1288 0.950 . S
H1265 C1289 0.951 . S
H1266 C1291 0.951 . S
H1267 C1293 0.950 . S
H1268 C1294 0.950 . S
H1269 C1296 0.950 . S
H1270 C1299 0.950 . S
H1271 C1300 0.950 . S
H1272 C1302 0.950 . S
H1273 C1303 0.950 . S
C1274 H1256 0.951 . S
C1274 C1275 1.366 . S
C1274 C1276 1.388 . S
C1275 C1274 1.366 . S
C1275 C1279 1.385 . S
C1276 H1257 0.951 . S
C1276 C1274 1.388 . S
C1276 C1277 1.366 . S
C1277 C1276 1.366 . S
C1277 C1278 1.414 . S
C1277 C1280 1.499 . S
C1278 H1258 0.950 . S
C1278 C1277 1.414 . S
C1278 C1279 1.374 . S
C1279 H1259 0.950 . S
C1279 C1275 1.385 . S
C1279 C1278 1.374 . S
C1280 C1277 1.499 . S
C1280 C1281 1.373 . S
C1280 C1282 1.389 . S
C1281 H1260 0.950 . S
C1281 C1280 1.373 . S
C1281 C1297 1.377 . S
C1282 C1280 1.389 . S
C1282 C1283 1.524 . S
C1282 C1296 1.377 . S
C1283 C1282 1.524 . S
C1283 C1284 1.397 . S
C1283 C1288 1.363 . S
C1284 H1261 0.950 . S
C1284 C1283 1.397 . S
C1284 C1285 1.334 . S
C1285 H1262 0.950 . S
C1285 C1284 1.334 . S
C1285 C1286 1.287 . S
C1286 C1285 1.287 . S
C1286 C1287 1.524 . S
C1286 H1305 0.913 . S
C1287 H1263 0.950 . S
C1287 C1286 1.524 . S
C1287 C1288 1.415 . S
C1288 H1264 0.950 . S
C1288 C1283 1.363 . S
C1288 C1287 1.415 . S
C1289 H1265 0.951 . S
C1289 C1290 1.366 . S
C1289 C1291 1.388 . S
C1290 C1289 1.366 . S
C1290 C1294 1.385 . S
C1291 H1266 0.951 . S
C1291 C1289 1.388 . S
C1291 C1292 1.366 . S
C1292 C1291 1.366 . S
C1292 C1293 1.414 . S
C1292 C1295 1.499 . S
C1293 H1267 0.950 . S
C1293 C1292 1.414 . S
C1293 C1294 1.374 . S
C1294 H1268 0.950 . S
C1294 C1290 1.385 . S
C1294 C1293 1.374 . S
C1295 C1292 1.499 . S
C1295 C1296 1.373 . S
C1295 C1297 1.389 . S
C1296 H1269 0.950 . S
C1296 C1282 1.377 . S
C1296 C1295 1.373 . S
C1297 C1281 1.377 . S
C1297 C1295 1.389 . S
C1297 C1298 1.524 . S
C1298 C1297 1.524 . S
C1298 C1299 1.397 . S
C1298 C1303 1.363 . S
C1299 H1270 0.950 . S
C1299 C1298 1.397 . S
C1299 C1300 1.334 . S
C1300 H1271 0.950 . S
C1300 C1299 1.334 . S
C1300 C1301 1.287 . S
C1301 C1300 1.287 . S
C1301 C1302 1.524 . S
C1301 H1304 0.999 . S
C1302 H1272 0.950 . S
C1302 C1301 1.524 . S
C1302 C1303 1.415 . S
C1303 H1273 0.950 . S
C1303 C1298 1.363 . S
C1303 C1302 1.415 . S
H1304 C1301 0.999 . S
H1305 C1286 0.913 . S
H1306 C1324 0.951 . S
H1307 C1326 0.951 . S
H1308 C1328 0.950 . S
H1309 C1329 0.950 . S
H1310 C1331 0.950 . S
H1311 C1334 0.950 . S
H1312 C1335 0.950 . S
H1313 C1337 0.950 . S
H1314 C1338 0.950 . S
H1315 C1339 0.951 . S
H1316 C1341 0.951 . S
H1317 C1343 0.950 . S
H1318 C1344 0.950 . S
H1319 C1346 0.950 . S
H1320 C1349 0.950 . S
H1321 C1350 0.950 . S
H1322 C1352 0.950 . S
H1323 C1353 0.950 . S
C1324 H1306 0.951 . S
C1324 C1325 1.366 . S
C1324 C1326 1.388 . S
C1325 C1324 1.366 . S
C1325 C1329 1.385 . S
C1326 H1307 0.951 . S
C1326 C1324 1.388 . S
C1326 C1327 1.366 . S
C1327 C1326 1.366 . S
C1327 C1328 1.414 . S
C1327 C1330 1.499 . S
C1328 H1308 0.950 . S
C1328 C1327 1.414 . S
C1328 C1329 1.374 . S
C1329 H1309 0.950 . S
C1329 C1325 1.385 . S
C1329 C1328 1.374 . S
C1330 C1327 1.499 . S
C1330 C1331 1.373 . S
C1330 C1332 1.389 . S
C1331 H1310 0.950 . S
C1331 C1330 1.373 . S
C1331 C1347 1.377 . S
C1332 C1330 1.389 . S
C1332 C1333 1.524 . S
C1332 C1346 1.377 . S
C1333 C1332 1.524 . S
C1333 C1334 1.397 . S
C1333 C1338 1.363 . S
C1334 H1311 0.950 . S
C1334 C1333 1.397 . S
C1334 C1335 1.334 . S
C1335 H1312 0.950 . S
C1335 C1334 1.334 . S
C1335 C1336 1.287 . S
C1336 C1335 1.287 . S
C1336 C1337 1.524 . S
C1336 H1355 0.913 . S
C1337 H1313 0.950 . S
C1337 C1336 1.524 . S
C1337 C1338 1.415 . S
C1338 H1314 0.950 . S
C1338 C1333 1.363 . S
C1338 C1337 1.415 . S
C1339 H1315 0.951 . S
C1339 C1340 1.366 . S
C1339 C1341 1.388 . S
C1340 C1339 1.366 . S
C1340 C1344 1.385 . S
C1341 H1316 0.951 . S
C1341 C1339 1.388 . S
C1341 C1342 1.366 . S
C1342 C1341 1.366 . S
C1342 C1343 1.414 . S
C1342 C1345 1.499 . S
C1343 H1317 0.950 . S
C1343 C1342 1.414 . S
C1343 C1344 1.374 . S
C1344 H1318 0.950 . S
C1344 C1340 1.385 . S
C1344 C1343 1.374 . S
C1345 C1342 1.499 . S
C1345 C1346 1.373 . S
C1345 C1347 1.389 . S
C1346 H1319 0.950 . S
C1346 C1332 1.377 . S
C1346 C1345 1.373 . S
C1347 C1331 1.377 . S
C1347 C1345 1.389 . S
C1347 C1348 1.524 . S
C1348 C1347 1.524 . S
C1348 C1349 1.397 . S
C1348 C1353 1.363 . S
C1349 H1320 0.950 . S
C1349 C1348 1.397 . S
C1349 C1350 1.334 . S
C1350 H1321 0.950 . S
C1350 C1349 1.334 . S
C1350 C1351 1.287 . S
C1351 C1350 1.287 . S
C1351 C1352 1.524 . S
C1351 H1354 0.999 . S
C1352 H1322 0.950 . S
C1352 C1351 1.524 . S
C1352 C1353 1.415 . S
C1353 H1323 0.950 . S
C1353 C1348 1.363 . S
C1353 C1352 1.415 . S
H1354 C1351 0.999 . S
H1355 C1336 0.913 . S
H1356 C1374 0.951 . S
H1357 C1376 0.951 . S
H1358 C1378 0.950 . S
H1359 C1379 0.950 . S
H1360 C1381 0.950 . S
H1361 C1384 0.950 . S
H1362 C1385 0.950 . S
H1363 C1387 0.950 . S
H1364 C1388 0.950 . S
H1365 C1389 0.951 . S
H1366 C1391 0.951 . S
H1367 C1393 0.950 . S
H1368 C1394 0.950 . S
H1369 C1396 0.950 . S
H1370 C1399 0.950 . S
H1371 C1400 0.950 1_655 S
H1372 C1402 0.950 . S
H1373 C1403 0.950 . S
C1374 H1356 0.951 . S
C1374 C1375 1.366 . S
C1374 C1376 1.388 . S
C1375 C1374 1.366 . S
C1375 C1379 1.385 . S
C1376 H1357 0.951 . S
C1376 C1374 1.388 . S
C1376 C1377 1.366 . S
C1377 C1376 1.366 . S
C1377 C1378 1.414 . S
C1377 C1380 1.499 . S
C1378 H1358 0.950 . S
C1378 C1377 1.414 . S
C1378 C1379 1.374 . S
C1379 H1359 0.950 . S
C1379 C1375 1.385 . S
C1379 C1378 1.374 . S
C1380 C1377 1.499 . S
C1380 C1381 1.373 . S
C1380 C1382 1.389 . S
C1381 H1360 0.950 . S
C1381 C1380 1.373 . S
C1381 C1397 1.377 . S
C1382 C1380 1.389 . S
C1382 C1383 1.524 . S
C1382 C1396 1.377 . S
C1383 C1382 1.524 . S
C1383 C1384 1.397 . S
C1383 C1388 1.363 . S
C1384 H1361 0.950 . S
C1384 C1383 1.397 . S
C1384 C1385 1.334 . S
C1385 H1362 0.950 . S
C1385 C1384 1.334 . S
C1385 C1386 1.287 . S
C1386 C1385 1.287 . S
C1386 C1387 1.524 . S
C1386 H1405 0.913 . S
C1387 H1363 0.950 . S
C1387 C1386 1.524 . S
C1387 C1388 1.415 . S
C1388 H1364 0.950 . S
C1388 C1383 1.363 . S
C1388 C1387 1.415 . S
C1389 H1365 0.951 . S
C1389 C1390 1.366 . S
C1389 C1391 1.388 . S
C1390 C1389 1.366 . S
C1390 C1394 1.385 . S
C1391 H1366 0.951 . S
C1391 C1389 1.388 . S
C1391 C1392 1.366 . S
C1392 C1391 1.366 . S
C1392 C1393 1.414 . S
C1392 C1395 1.499 . S
C1393 H1367 0.950 . S
C1393 C1392 1.414 . S
C1393 C1394 1.374 . S
C1394 H1368 0.950 . S
C1394 C1390 1.385 . S
C1394 C1393 1.374 . S
C1395 C1392 1.499 . S
C1395 C1396 1.373 . S
C1395 C1397 1.389 . S
C1396 H1369 0.950 . S
C1396 C1382 1.377 . S
C1396 C1395 1.373 . S
C1397 C1381 1.377 . S
C1397 C1395 1.389 . S
C1397 C1398 1.524 . S
C1398 C1397 1.524 . S
C1398 C1399 1.397 . S
C1398 C1403 1.363 . S
C1399 H1370 0.950 . S
C1399 C1398 1.397 . S
C1399 C1400 1.334 . S
C1400 H1371 0.950 1_455 S
C1400 C1399 1.334 . S
C1400 C1401 1.287 . S
C1401 C1400 1.287 . S
C1401 C1402 1.524 . S
C1401 H1404 0.999 . S
C1402 H1372 0.950 . S
C1402 C1401 1.524 . S
C1402 C1403 1.415 . S
C1403 H1373 0.950 . S
C1403 C1398 1.363 . S
C1403 C1402 1.415 . S
H1404 C1401 0.999 . S
H1405 C1386 0.913 . S
H1406 C1424 0.951 . S
H1407 C1426 0.951 . S
H1408 C1428 0.950 . S
H1409 C1429 0.950 . S
H1410 C1431 0.950 . S
H1411 C1434 0.950 . S
H1412 C1435 0.950 . S
H1413 C1437 0.950 . S
H1414 C1438 0.950 . S
H1415 C1439 0.951 . S
H1416 C1441 0.951 . S
H1417 C1443 0.950 . S
H1418 C1444 0.950 . S
H1419 C1446 0.950 . S
H1420 C1449 0.950 . S
H1421 C1450 0.950 . S
H1422 C1452 0.950 . S
H1423 C1453 0.950 . S
C1424 H1406 0.951 . S
C1424 C1425 1.366 . S
C1424 C1426 1.388 . S
C1425 C1424 1.366 . S
C1425 C1429 1.385 . S
C1426 H1407 0.951 . S
C1426 C1424 1.388 . S
C1426 C1427 1.366 . S
C1427 C1426 1.366 . S
C1427 C1428 1.414 . S
C1427 C1430 1.499 . S
C1428 H1408 0.950 . S
C1428 C1427 1.414 . S
C1428 C1429 1.374 . S
C1429 H1409 0.950 . S
C1429 C1425 1.385 . S
C1429 C1428 1.374 . S
C1430 C1427 1.499 . S
C1430 C1431 1.373 . S
C1430 C1432 1.389 . S
C1431 H1410 0.950 . S
C1431 C1430 1.373 . S
C1431 C1447 1.377 . S
C1432 C1430 1.389 . S
C1432 C1433 1.524 . S
C1432 C1446 1.377 . S
C1433 C1432 1.524 . S
C1433 C1434 1.397 . S
C1433 C1438 1.363 . S
C1434 H1411 0.950 . S
C1434 C1433 1.397 . S
C1434 C1435 1.334 . S
C1435 H1412 0.950 . S
C1435 C1434 1.334 . S
C1435 C1436 1.287 . S
C1436 C1435 1.287 . S
C1436 C1437 1.524 . S
C1436 H1455 0.913 . S
C1437 H1413 0.950 . S
C1437 C1436 1.524 . S
C1437 C1438 1.415 . S
C1438 H1414 0.950 . S
C1438 C1433 1.363 . S
C1438 C1437 1.415 . S
C1439 H1415 0.951 . S
C1439 C1440 1.366 . S
C1439 C1441 1.388 . S
C1440 C1439 1.366 . S
C1440 C1444 1.385 . S
C1441 H1416 0.951 . S
C1441 C1439 1.388 . S
C1441 C1442 1.366 . S
C1442 C1441 1.366 . S
C1442 C1443 1.414 . S
C1442 C1445 1.499 . S
C1443 H1417 0.950 . S
C1443 C1442 1.414 . S
C1443 C1444 1.374 . S
C1444 H1418 0.950 . S
C1444 C1440 1.385 . S
C1444 C1443 1.374 . S
C1445 C1442 1.499 . S
C1445 C1446 1.373 . S
C1445 C1447 1.389 . S
C1446 H1419 0.950 . S
C1446 C1432 1.377 . S
C1446 C1445 1.373 . S
C1447 C1431 1.377 . S
C1447 C1445 1.389 . S
C1447 C1448 1.524 . S
C1448 C1447 1.524 . S
C1448 C1449 1.397 . S
C1448 C1453 1.363 . S
C1449 H1420 0.950 . S
C1449 C1448 1.397 . S
C1449 C1450 1.334 . S
C1450 H1421 0.950 . S
C1450 C1449 1.334 . S
C1450 C1451 1.287 . S
C1451 C1450 1.287 . S
C1451 C1452 1.524 . S
C1451 H1454 0.999 . S
C1452 H1422 0.950 . S
C1452 C1451 1.524 . S
C1452 C1453 1.415 . S
C1453 H1423 0.950 . S
C1453 C1448 1.363 . S
C1453 C1452 1.415 . S
H1454 C1451 0.999 . S
H1455 C1436 0.913 . S
C275 C6 1.058 . S
C290 C102 1.081 . S
C325 C18 1.263 . S
C340 C151 1.254 . S
C390 C186 2.585 . S
C375 C28 2.634 . S
C425 C40 1.631 . S
C440 C225 1.587 . S
C490 C146 2.461 . S
C475 C9 2.390 . S
C540 C105 0.859 . S
C525 C16 0.875 . S
C590 C235 1.832 . S
C575 C30 1.871 . S
C640 C194 1.144 . S
C625 C42 1.169 . S
C675 C4 1.494 . S
C690 C222 1.515 . S
C740 C154 2.517 . S
C725 C33 2.603 . S
C775 C45 2.047 . S
C790 C115 2.026 . S
C825 C21 0.942 . S
C840 C191 0.953 . S
C890 C111 1.100 . S
C875 C57 1.086 . S
C925 C66 1.281 . S
C940 C142 1.267 . S
C975 C76 2.686 . S
C990 C195 2.632 . S
C1025 C88 1.553 . S
C1040 C234 1.518 . S
C1075 C54 2.371 . S
C1090 C155 2.440 . S
C1140 C114 0.966 . S
C1125 C64 0.995 . S
C1190 C226 1.723 . S
C1175 C78 1.769 . S
C1240 C185 1.180 . S
C1225 C93 1.206 . S
C1275 C52 1.451 . S
C1290 C231 1.503 . S
C1340 C145 2.503 . S
C1325 C81 2.592 . S
C1390 C106 2.001 . S
C1375 C90 2.020 . S
C1425 C69 0.958 . S
C1440 C182 0.970 . S
