# Generated by pormake.
# Topology rtl, (3,6)-cn, num edge types: 1
# Building blocks:
#     Node 0, Type 0, BuildingBlock: BELTOD_clean_linker_0, # of connection points: 3
#     Node 1, Type 0, BuildingBlock: BELTOD_clean_linker_0, # of connection points: 3
#     Node 2, Type 0, BuildingBlock: BELTOD_clean_linker_0, # of connection points: 3
#     Node 3, Type 0, BuildingBlock: BELTOD_clean_linker_0, # of connection points: 3
#     Node 4, Type 1, BuildingBlock: KUMJIN_clean_sbu_1, # of connection points: 6
#     Node 5, Type 1, BuildingBlock: KUMJIN_clean_sbu_1, # of connection points: 6
#     Edge 6, Type (0, 1), None
#     Edge 7, Type (0, 1), None
#     Edge 8, Type (0, 1), None
#     Edge 9, Type (0, 1), None
#     Edge 10, Type (0, 1), None
#     Edge 11, Type (0, 1), None
#     Edge 12, Type (0, 1), None
#     Edge 13, Type (0, 1), None
#     Edge 14, Type (0, 1), None
#     Edge 15, Type (0, 1), None
#     Edge 16, Type (0, 1), None
#     Edge 17, Type (0, 1), None
# Relax obj value: 0.023
# Max RMSD: 0.159
# Mean RMSD: 0.098
data_MOF--net-rtl--node1-KUMJIN_clean_sbu_1--node2-BELTOD_clean_linker_0--edge1-none
_symmetry_space_group_name_H-M    P1
_symmetry_Int_Tables_number       1
_symmetry_cell_setting            triclinic
loop_
_symmetry_equiv_pos_as_xyz
'x, y, z'
_cell_length_a     19.407195
_cell_length_b     20.377573
_cell_length_c     18.834099
_cell_angle_alpha  68.876709
_cell_angle_beta   100.33333
_cell_angle_gamma 91.350418
loop_
_atom_site_label
_atom_site_type_symbol
_atom_site_fract_x
_atom_site_fract_y
_atom_site_fract_z
_atom_type_partial_charge
P0 P 0.27454 0.87906 0.02024 0.0
H1 H 0.26701 0.96767 0.11107 0.0
H2 H 0.23325 0.94468 0.2364 0.0
H3 H 0.16909 0.73817 0.24421 0.0
H4 H 0.2024 0.76193 0.11773 0.0
H5 H 0.32188 0.83273 0.90678 0.0
H6 H 0.39438 0.73165 0.91875 0.0
H7 H 0.42004 0.66137 0.16799 0.0
H8 H 0.34878 0.76316 0.15554 0.0
H9 H 0.21226 0.01412 0.91336 0.0
H10 H 0.18702 0.79619 0.94009 0.0
O11 O 0.32903 0.94519 0.00885 0.0
H12 H 0.13403 0.05039 0.7889 0.0
H13 H 0.10741 0.83227 0.81408 0.0
C14 C 0.23858 0.86588 0.10597 0.0
C15 C 0.2449 0.91774 0.13915 0.0
C16 C 0.22543 0.90463 0.21078 0.0
C17 C 0.19954 0.83923 0.25064 0.0
C18 C 0.19007 0.78858 0.21539 0.0
C19 C 0.20863 0.80222 0.14306 0.0
C20 C 0.32665 0.80341 0.03004 0.0
C21 C 0.3421 0.79491 0.96391 0.0
C22 C 0.38387 0.73735 0.97085 0.0
C23 C 0.41155 0.68774 0.04428 0.0
C24 C 0.39858 0.69815 0.11058 0.0
C25 C 0.357 0.75593 0.10347 0.0
C26 C 0.2071 0.90273 0.93485 0.0
C27 C 0.18943 0.97395 0.89249 0.0
C28 C 0.14455 0.99453 0.82094 0.0
C29 C 0.11605 0.94419 0.79003 0.0
C30 C 0.1302 0.87236 0.83502 0.0
C31 C 0.17524 0.85173 0.90727 0.0
P32 P 0.76875 0.65787 0.71687 0.0
H33 H 0.82383 0.59125 0.62377 0.0
H34 H 0.76729 0.54109 0.5292 0.0
H35 H 0.56453 0.60854 0.54896 0.0
H36 H 0.62112 0.65868 0.643 0.0
H37 H 0.8249 0.75353 0.79393 0.0
H38 H 0.88646 0.86301 0.748 0.0
H39 H 0.82789 0.86907 0.51339 0.0
H40 H 0.76751 0.7595 0.55951 0.0
H41 H 0.77792 0.54228 0.86339 0.0
H42 H 0.64089 0.7256 0.73129 0.0
O43 O 0.84505 0.61213 0.75685 0.0
H44 H 0.70221 0.50423 0.95815 0.0
H45 H 0.56179 0.68544 0.82644 0.0
C46 C 0.7267 0.62716 0.64203 0.0
C47 C 0.76722 0.59532 0.60773 0.0
C48 C 0.73489 0.56689 0.55351 0.0
C49 C 0.66143 0.56996 0.53266 0.0
C50 C 0.62115 0.60398 0.56529 0.0
C51 C 0.65358 0.63289 0.619 0.0
C52 C 0.7912 0.74858 0.68018 0.0
C53 C 0.8233 0.77976 0.73231 0.0
C54 C 0.85873 0.84211 0.70606 0.0
C55 C 0.86312 0.87362 0.62733 0.0
C56 C 0.82623 0.84522 0.57456 0.0
C57 C 0.79114 0.7828 0.60088 0.0
C58 C 0.71557 0.63717 0.79062 0.0
C59 C 0.73161 0.57477 0.85489 0.0
C60 C 0.68753 0.55249 0.90874 0.0
C61 C 0.62522 0.59116 0.89887 0.0
C62 C 0.6088 0.65402 0.83453 0.0
C63 C 0.65428 0.6773 0.78095 0.0
P64 P 0.84903 0.26115 0.0988 0.0
H65 H 0.96213 0.26233 0.01711 0.0
H66 H 0.98994 0.18954 0.94623 0.0
H67 H 0.79799 0.0815 0.98141 0.0
H68 H 0.76895 0.15596 0.05074 0.0
H69 H 0.74208 0.33984 0.96839 0.0
H70 H 0.63034 0.3961 0.96241 0.0
H71 H 0.64556 0.28787 0.20872 0.0
H72 H 0.75757 0.23258 0.21491 0.0
H73 H 0.94307 0.29034 0.2213 0.0
H74 H 0.83676 0.11177 0.1894 0.0
O75 O 0.89052 0.33653 0.07354 0.0
H76 H 0.98964 0.21849 0.35507 0.0
H77 H 0.88384 0.03889 0.32417 0.0
C78 C 0.8628 0.21537 0.03734 0.0
C79 C 0.9253 0.22401 0.00828 0.0
C80 C 0.94162 0.18205 0.96888 0.0
C81 C 0.89632 0.12998 0.9599 0.0
C82 C 0.83369 0.12119 0.98883 0.0
C83 C 0.81684 0.16403 0.02731 0.0
C84 C 0.75848 0.2828 0.09197 0.0
C85 C 0.72028 0.32651 0.02067 0.0
C86 C 0.6564 0.3585 0.01738 0.0
C87 C 0.63076 0.34782 0.08572 0.0
C88 C 0.6653 0.29803 0.15566 0.0
C89 C 0.72931 0.26626 0.15902 0.0
C90 C 0.8872 0.20619 0.19537 0.0
C91 C 0.93049 0.23542 0.24275 0.0
C92 C 0.95703 0.19417 0.31923 0.0
C93 C 0.94034 0.12305 0.34967 0.0
C94 C 0.89814 0.09326 0.3017 0.0
C95 C 0.87122 0.13492 0.22489 0.0
P96 P 0.36172 0.28623 0.49012 0.0
H97 H 0.39859 0.2702 0.65222 0.0
H98 H 0.37981 0.34624 0.72161 0.0
H99 H 0.31532 0.51804 0.50322 0.0
H100 H 0.3297 0.44003 0.43466 0.0
H101 H 0.28928 0.19844 0.40885 0.0
H102 H 0.19067 0.1213 0.43385 0.0
H103 H 0.16085 0.19453 0.6154 0.0
H104 H 0.2557 0.27287 0.58788 0.0
H105 H 0.4835 0.26934 0.42736 0.0
H106 H 0.28534 0.38743 0.33956 0.0
O107 O 0.42325 0.22326 0.54283 0.0
H108 H 0.52073 0.32906 0.30532 0.0
H109 H 0.3247 0.45173 0.21623 0.0
C110 C 0.36527 0.34903 0.53807 0.0
C111 C 0.38176 0.32468 0.61919 0.0
C112 C 0.3711 0.36856 0.65901 0.0
C113 C 0.3448 0.43839 0.6184 0.0
C114 C 0.33345 0.46402 0.53679 0.0
C115 C 0.34254 0.4195 0.49711 0.0
C116 C 0.27952 0.2428 0.49513 0.0
C117 C 0.25991 0.19948 0.45224 0.0
C118 C 0.204 0.15473 0.46738 0.0
C119 C 0.16744 0.15165 0.52673 0.0
C120 C 0.18664 0.19611 0.56846 0.0
C121 C 0.24167 0.24126 0.55262 0.0
C122 C 0.38204 0.32459 0.39361 0.0
C123 C 0.44746 0.30788 0.38158 0.0
C124 C 0.46893 0.34257 0.31122 0.0
C125 C 0.4264 0.39657 0.25126 0.0
C126 C 0.35891 0.41076 0.26134 0.0
C127 C 0.33667 0.37449 0.33202 0.0
Eu128 Eu 0.05469 0.94546 0.54371 0.0
C129 C 0.88812 0.23495 0.47481 0.0
N130 N 0.94715 0.21029 0.52901 0.0
C131 C 0.98905 0.32696 0.49853 0.0
C132 C 0.87721 0.30747 0.43027 0.0
C133 C 0.99734 0.25475 0.54167 0.0
C134 C 0.92866 0.3535 0.44264 0.0
C135 C 0.77728 0.21177 0.40688 0.0
C136 C 0.839 0.18732 0.46287 0.0
C137 C 0.7656 0.28408 0.36379 0.0
C138 C 0.81552 0.33177 0.37513 0.0
Eu139 Eu 0.95689 0.08836 0.59955 0.0
N140 N 0.8516 0.11733 0.50573 0.0
C141 C 0.72847 0.16295 0.39652 0.0
C142 C 0.8023 0.07021 0.49833 0.0
C143 C 0.74085 0.09196 0.44285 0.0
H144 H 0.04326 0.23451 0.58597 0.0
H145 H 0.70244 0.05404 0.43685 0.0
H146 H 0.95482 0.80553 0.56659 0.0
H147 H 0.32621 0.95902 0.68047 0.0
H148 H 0.80842 0.01618 0.53605 0.0
H149 H 0.68052 0.17968 0.35398 0.0
H150 H 0.21689 0.00328 0.58679 0.0
H151 H 0.02899 0.36214 0.50876 0.0
H152 H 0.71769 0.30359 0.3221 0.0
H153 H 0.80577 0.38741 0.34133 0.0
H154 H 0.95611 0.68184 0.65579 0.0
H155 H 0.92222 0.40954 0.40948 0.0
H156 H 0.33698 0.83656 0.7744 0.0
N157 N 0.05426 0.82506 0.62116 0.0
C158 C 0.11334 0.7971 0.67429 0.0
C159 C 1.00041 0.71384 0.66219 0.0
C160 C 0.11699 0.72654 0.72585 0.0
C161 C 0.9992 0.78415 0.61261 0.0
C162 C 0.05927 0.68509 0.71969 0.0
N163 N 0.16408 0.90816 0.62879 0.0
C164 C 0.21976 0.95037 0.62819 0.0
C165 C 0.23196 0.81202 0.73247 0.0
C166 C 0.1701 0.83954 0.67768 0.0
C167 C 0.28839 0.85584 0.7336 0.0
C168 C 0.28242 0.92509 0.68084 0.0
H169 H 0.06006 0.63064 0.75819 0.0
H170 H 0.18096 0.64607 0.82293 0.0
H171 H 0.28209 0.7203 0.82771 0.0
O172 O 0.12084 0.95731 0.4571 0.0
O173 O 0.05972 0.92486 0.6732 0.0
O174 O 0.05687 0.03589 0.67766 0.0
O175 O 0.0391 0.88231 0.47085 0.0
O176 O 0.10184 0.05373 0.51333 0.0
O177 O 0.07303 0.1061 0.59656 0.0
O178 O 0.8778 0.07606 0.67094 0.0
O179 O 0.97072 0.12116 0.47675 0.0
O180 O 0.96163 0.01495 0.46264 0.0
O181 O 0.96265 0.14544 0.67881 0.0
O182 O 0.924 0.97453 0.63973 0.0
O183 O 0.93813 0.93996 0.54022 0.0
C184 C 0.07327 0.96849 0.71082 0.0
C185 C 0.13494 0.85832 0.42159 0.0
C186 C 0.18503 0.82333 0.32983 0.0
C187 C 0.2099 0.75938 0.38971 0.0
C188 C 0.16072 0.79458 0.48084 0.0
C189 C 0.19811 0.74543 0.46478 0.0
C190 C 0.14769 0.87268 0.34651 0.0
C191 C 0.1107 0.10158 0.54612 0.0
C192 C 0.09039 0.90842 0.43496 0.0
C193 C 0.17778 0.69972 0.78184 0.0
C194 C 0.23531 0.7421 0.78473 0.0
C195 C 0.96256 0.08378 0.43279 0.0
C196 C 0.92146 0.08076 0.79265 0.0
C197 C 0.91295 0.0879 0.91617 0.0
C198 C 0.93832 0.01774 0.95398 0.0
C199 C 0.94761 0.01065 0.83044 0.0
C200 C 0.90484 0.11927 0.8357 0.0
C201 C 0.95603 0.97935 0.911 0.0
C202 C 0.91084 0.93168 0.60149 0.0
C203 C 0.90975 0.114 0.70842 0.0
H204 H 0.23945 0.72071 0.37876 0.0
H205 H 0.15114 0.78242 0.53899 0.0
H206 H 0.21782 0.69625 0.51054 0.0
H207 H 0.12709 0.92167 0.30063 0.0
H208 H 0.9451 0.9932 0.01641 0.0
H209 H 0.96085 0.98015 0.79772 0.0
H210 H 0.885 0.17351 0.8066 0.0
H211 H 0.9761 0.92535 0.94004 0.0
Eu212 Eu 0.4332 0.49748 0.99342 0.0
C213 C 0.7458 0.56319 0.0949 0.0
N214 N 0.71276 0.50699 0.13709 0.0
C215 C 0.81459 0.432 0.16363 0.0
C216 C 0.8146 0.55529 0.08372 0.0
C217 C 0.74606 0.44235 0.17214 0.0
C218 C 0.84892 0.48862 0.11877 0.0
C219 C 0.74167 0.68705 0.01422 0.0
C220 C 0.70945 0.62821 0.06025 0.0
C221 C 0.8101 0.67934 0.00262 0.0
C222 C 0.84645 0.61368 0.03728 0.0
Eu223 Eu 0.59601 0.52695 0.14546 0.0
N224 N 0.64202 0.63337 0.0699 0.0
C225 C 0.70413 0.75194 0.98117 0.0
C226 C 0.60706 0.69745 0.0417 0.0
C227 C 0.63698 0.75733 0.99598 0.0
H228 H 0.71961 0.39912 0.20721 0.0
H229 H 0.60844 0.8078 0.97282 0.0
H230 H 0.31069 0.62018 0.96962 0.0
H231 H 0.42428 0.20898 0.11006 0.0
H232 H 0.55695 0.70351 0.05557 0.0
H233 H 0.72702 0.7984 0.94548 0.0
H234 H 0.47334 0.3217 0.04405 0.0
H235 H 0.84076 0.38041 0.19162 0.0
H236 H 0.8354 0.72389 0.96695 0.0
H237 H 0.89913 0.60857 0.02764 0.0
H238 H 0.19319 0.62676 0.00052 0.0
H239 H 0.90182 0.48035 0.11166 0.0
H240 H 0.30984 0.20632 0.15087 0.0
N241 N 0.32098 0.50884 0.01999 0.0
C242 C 0.2897 0.44771 0.05336 0.0
C243 C 0.22001 0.57612 0.01643 0.0
C244 C 0.22253 0.44885 0.07179 0.0
C245 C 0.28688 0.57243 -7e-05 0.0
C246 C 0.18786 0.51409 0.05302 0.0
N247 N 0.39128 0.38413 0.05362 0.0
C248 C 0.42518 0.32231 0.06455 0.0
C249 C 0.29514 0.31986 0.10759 0.0
C250 C 0.32603 0.38381 0.07133 0.0
C251 C 0.33182 0.25649 0.12315 0.0
C252 C 0.39664 0.25778 0.10062 0.0
H253 H 0.13613 0.51711 0.06604 0.0
H254 H 0.14086 0.38505 0.1235 0.0
H255 H 0.20425 0.27229 0.1547 0.0
O256 O 0.42099 0.45766 0.89717 0.0
O257 O 0.41698 0.47919 0.11751 0.0
O258 O 0.52549 0.43811 0.19156 0.0
O259 O 0.35796 0.54904 0.8876 0.0
O260 O 0.53264 0.42956 0.02026 0.0
O261 O 0.58165 0.41524 0.14684 0.0
O262 O 0.60331 0.58659 0.22167 0.0
O263 O 0.61643 0.5323 0.02987 0.0
O264 O 0.51372 0.57737 0.94441 0.0
O265 O 0.65997 0.48615 0.26186 0.0
O266 O 0.49392 0.59079 0.11849 0.0
O267 O 0.45106 0.60759 0.9911 0.0
C268 C 0.4569 0.44032 0.18314 0.0
C269 C 0.33647 0.51367 0.77602 0.0
C270 C 0.32368 0.4821 0.66053 0.0
C271 C 0.26425 0.52871 0.62749 0.0
C272 C 0.27757 0.56017 0.74098 0.0
C273 C 0.24182 0.56757 0.66734 0.0
C274 C 0.35975 0.47516 0.7353 0.0
C275 C 0.57608 0.39659 0.08581 0.0
C276 C 0.37287 0.50641 0.85469 0.0
C277 C 0.19231 0.38519 0.10865 0.0
C278 C 0.2285 0.32095 0.12655 0.0
C279 C 0.58229 0.56649 0.95996 0.0
C280 C 0.61857 0.52087 0.35415 0.0
C281 C 0.62692 0.53809 0.47681 0.0
C282 C 0.56773 0.49748 0.49104 0.0
C283 C 0.55943 0.48099 0.3689 0.0
C284 C 0.65231 0.54908 0.40821 0.0
C285 C 0.53444 0.46889 0.43736 0.0
C286 C 0.45327 0.62519 0.05178 0.0
C287 C 0.64202 0.53845 0.27994 0.0
H288 H 0.23372 0.53415 0.57146 0.0
H289 H 0.25869 0.59048 0.77085 0.0
H290 H 0.19593 0.60298 0.64143 0.0
H291 H 0.40601 0.44032 0.7617 0.0
H292 H 0.54743 0.48764 0.54373 0.0
H293 H 0.53213 0.46048 0.32682 0.0
H294 H 0.69694 0.58148 0.39562 0.0
H295 H 0.48876 0.43796 0.44842 0.0
loop_
_geom_bond_atom_site_label_1
_geom_bond_atom_site_label_2
_geom_bond_distance
_geom_bond_site_symmetry_2
_ccdc_geom_bond_type
P0 O11 1.490 1_554 S
P0 C14 1.812 . S
P0 C20 1.803 . S
P0 C26 1.819 1_554 S
H1 C15 0.941 . S
H2 C16 0.939 . S
H3 C18 0.940 . S
H4 C19 0.940 . S
H5 C21 0.939 1_556 S
H6 C22 0.942 . S
H7 C24 0.940 . S
H8 C25 0.939 . S
H9 C27 0.941 . S
H10 C31 0.939 . S
O11 P0 1.490 1_556 S
H12 C28 0.939 . S
H13 C30 0.940 . S
C14 P0 1.812 . S
C14 C15 1.389 . S
C14 C19 1.391 . S
C15 H1 0.941 . S
C15 C14 1.389 . S
C15 C16 1.397 . S
C16 H2 0.939 . S
C16 C15 1.397 . S
C16 C17 1.378 . S
C17 C16 1.378 . S
C17 C18 1.378 . S
C18 H3 0.940 . S
C18 C17 1.378 . S
C18 C19 1.396 . S
C19 H4 0.940 . S
C19 C14 1.391 . S
C19 C18 1.396 . S
C20 P0 1.803 . S
C20 C21 1.378 . S
C20 C25 1.400 . S
C21 H5 0.939 1_554 S
C21 C20 1.378 . S
C21 C22 1.361 . S
C22 H6 0.942 . S
C22 C21 1.361 . S
C22 C23 1.369 . S
C23 C22 1.369 . S
C23 C24 1.404 . S
C24 H7 0.940 . S
C24 C23 1.404 . S
C24 C25 1.389 . S
C25 H8 0.939 . S
C25 C20 1.400 . S
C25 C24 1.389 . S
C26 P0 1.819 1_556 S
C26 C27 1.391 1_565 S
C26 C31 1.391 . S
C27 H9 0.941 . S
C27 C26 1.391 1_545 S
C27 C28 1.396 . S
C28 H12 0.939 . S
C28 C27 1.396 . S
C28 C29 1.397 1_545 S
C29 C28 1.397 1_565 S
C29 C30 1.385 . S
C30 H13 0.940 . S
C30 C29 1.385 . S
C30 C31 1.388 . S
C31 H10 0.939 . S
C31 C26 1.391 . S
C31 C30 1.388 . S
P32 O43 1.490 . S
P32 C46 1.812 . S
P32 C52 1.803 . S
P32 C58 1.819 . S
H33 C47 0.941 . S
H34 C48 0.939 . S
H35 C50 0.940 . S
H36 C51 0.940 . S
H37 C53 0.939 . S
H38 C54 0.942 . S
H39 C56 0.940 . S
H40 C57 0.939 . S
H41 C59 0.941 . S
H42 C63 0.939 . S
O43 P32 1.490 . S
H44 C60 0.939 . S
H45 C62 0.940 . S
C46 P32 1.812 . S
C46 C47 1.389 . S
C46 C51 1.391 . S
C47 H33 0.941 . S
C47 C46 1.389 . S
C47 C48 1.397 . S
C48 H34 0.939 . S
C48 C47 1.397 . S
C48 C49 1.378 . S
C49 C48 1.378 . S
C49 C50 1.378 . S
C50 H35 0.940 . S
C50 C49 1.378 . S
C50 C51 1.396 . S
C51 H36 0.940 . S
C51 C46 1.391 . S
C51 C50 1.396 . S
C52 P32 1.803 . S
C52 C53 1.378 . S
C52 C57 1.400 . S
C53 H37 0.939 . S
C53 C52 1.378 . S
C53 C54 1.361 . S
C54 H38 0.942 . S
C54 C53 1.361 . S
C54 C55 1.369 . S
C55 C54 1.369 . S
C55 C56 1.404 . S
C56 H39 0.940 . S
C56 C55 1.404 . S
C56 C57 1.389 . S
C57 H40 0.939 . S
C57 C52 1.400 . S
C57 C56 1.389 . S
C58 P32 1.819 . S
C58 C59 1.391 . S
C58 C63 1.391 . S
C59 H41 0.941 . S
C59 C58 1.391 . S
C59 C60 1.396 . S
C60 H44 0.939 . S
C60 C59 1.396 . S
C60 C61 1.397 . S
C61 C60 1.397 . S
C61 C62 1.385 . S
C62 H45 0.940 . S
C62 C61 1.385 . S
C62 C63 1.388 . S
C63 H42 0.939 . S
C63 C58 1.391 . S
C63 C62 1.388 . S
P64 O75 1.490 . S
P64 C78 1.812 . S
P64 C84 1.803 . S
P64 C90 1.819 . S
H65 C79 0.941 . S
H66 C80 0.939 . S
H67 C82 0.940 . S
H68 C83 0.940 . S
H69 C85 0.939 . S
H70 C86 0.942 . S
H71 C88 0.940 . S
H72 C89 0.939 . S
H73 C91 0.941 . S
H74 C95 0.939 . S
O75 P64 1.490 . S
H76 C92 0.939 . S
H77 C94 0.940 . S
C78 P64 1.812 . S
C78 C79 1.389 1_554 S
C78 C83 1.391 . S
C79 H65 0.941 . S
C79 C78 1.389 1_556 S
C79 C80 1.397 . S
C80 H66 0.939 . S
C80 C79 1.397 . S
C80 C81 1.378 . S
C81 C80 1.378 . S
C81 C82 1.378 1_556 S
C82 H67 0.940 . S
C82 C81 1.378 1_554 S
C82 C83 1.396 . S
C83 H68 0.940 . S
C83 C78 1.391 . S
C83 C82 1.396 . S
C84 P64 1.803 . S
C84 C85 1.378 . S
C84 C89 1.400 . S
C85 H69 0.939 . S
C85 C84 1.378 . S
C85 C86 1.361 . S
C86 H70 0.942 . S
C86 C85 1.361 . S
C86 C87 1.369 . S
C87 C86 1.369 . S
C87 C88 1.404 . S
C88 H71 0.940 . S
C88 C87 1.404 . S
C88 C89 1.389 . S
C89 H72 0.939 . S
C89 C84 1.400 . S
C89 C88 1.389 . S
C90 P64 1.819 . S
C90 C91 1.391 . S
C90 C95 1.391 . S
C91 H73 0.941 . S
C91 C90 1.391 . S
C91 C92 1.396 . S
C92 H76 0.939 . S
C92 C91 1.396 . S
C92 C93 1.397 . S
C93 C92 1.397 . S
C93 C94 1.385 . S
C94 H77 0.940 . S
C94 C93 1.385 . S
C94 C95 1.388 . S
C95 H74 0.939 . S
C95 C90 1.391 . S
C95 C94 1.388 . S
P96 O107 1.490 . S
P96 C110 1.812 . S
P96 C116 1.803 . S
P96 C122 1.819 . S
H97 C111 0.941 . S
H98 C112 0.939 . S
H99 C114 0.940 . S
H100 C115 0.940 . S
H101 C117 0.939 . S
H102 C118 0.942 . S
H103 C120 0.940 . S
H104 C121 0.939 . S
H105 C123 0.941 . S
H106 C127 0.939 . S
O107 P96 1.490 . S
H108 C124 0.939 . S
H109 C126 0.940 . S
C110 P96 1.812 . S
C110 C111 1.389 . S
C110 C115 1.391 . S
C111 H97 0.941 . S
C111 C110 1.389 . S
C111 C112 1.397 . S
C112 H98 0.939 . S
C112 C111 1.397 . S
C112 C113 1.378 . S
C113 C112 1.378 . S
C113 C114 1.378 . S
C114 H99 0.940 . S
C114 C113 1.378 . S
C114 C115 1.396 . S
C115 H100 0.940 . S
C115 C110 1.391 . S
C115 C114 1.396 . S
C116 P96 1.803 . S
C116 C117 1.378 . S
C116 C121 1.400 . S
C117 H101 0.939 . S
C117 C116 1.378 . S
C117 C118 1.361 . S
C118 H102 0.942 . S
C118 C117 1.361 . S
C118 C119 1.369 . S
C119 C118 1.369 . S
C119 C120 1.404 . S
C120 H103 0.940 . S
C120 C119 1.404 . S
C120 C121 1.389 . S
C121 H104 0.939 . S
C121 C116 1.400 . S
C121 C120 1.389 . S
C122 P96 1.819 . S
C122 C123 1.391 . S
C122 C127 1.391 . S
C123 H105 0.941 . S
C123 C122 1.391 . S
C123 C124 1.396 . S
C124 H108 0.939 . S
C124 C123 1.396 . S
C124 C125 1.397 . S
C125 C124 1.397 . S
C125 C126 1.385 . S
C126 H109 0.940 . S
C126 C125 1.385 . S
C126 C127 1.388 . S
C127 H106 0.939 . S
C127 C122 1.391 . S
C127 C126 1.388 . S
Eu128 N157 2.600 . S
Eu128 N163 2.562 . S
Eu128 O172 2.462 . S
Eu128 O173 2.373 . S
Eu128 O175 2.432 . S
Eu128 O176 2.291 1_565 S
Eu128 O180 2.335 1_465 S
Eu128 O183 2.372 1_455 S
Eu128 C192 2.787 . S
C129 N130 1.365 . S
C129 C132 1.405 . S
C129 C136 1.448 . S
N130 C129 1.365 . S
N130 C133 1.319 . S
N130 Eu139 2.600 . S
C131 C133 1.397 . S
C131 C134 1.367 . S
C131 H151 0.931 1_655 S
C132 C129 1.405 . S
C132 C134 1.403 . S
C132 C138 1.439 . S
C133 N130 1.319 . S
C133 C131 1.397 . S
C133 H144 0.930 1_655 S
C134 C131 1.367 . S
C134 C132 1.403 . S
C134 H155 0.929 . S
C135 C136 1.430 . S
C135 C137 1.387 . S
C135 C141 1.404 . S
C136 C129 1.448 . S
C136 C135 1.430 . S
C136 N140 1.351 . S
C137 C135 1.387 . S
C137 C138 1.374 . S
C137 H152 0.931 . S
C138 C132 1.439 . S
C138 C137 1.374 . S
C138 H153 0.931 . S
Eu139 N130 2.600 . S
Eu139 N140 2.562 . S
Eu139 O174 2.335 1_655 S
Eu139 O177 2.372 1_655 S
Eu139 O178 2.462 . S
Eu139 O179 2.373 . S
Eu139 O181 2.432 . S
Eu139 O182 2.291 1_545 S
Eu139 C203 2.787 . S
N140 C136 1.351 . S
N140 Eu139 2.562 . S
N140 C142 1.325 . S
C141 C135 1.404 . S
C141 C143 1.366 . S
C141 H149 0.930 . S
C142 N140 1.325 . S
C142 C143 1.416 . S
C142 H148 0.929 . S
C143 C141 1.366 . S
C143 C142 1.416 . S
C143 H145 0.930 . S
H144 C133 0.930 1_455 S
H145 C143 0.930 . S
H146 C161 0.930 1_655 S
H147 C168 0.930 . S
H148 C142 0.929 . S
H149 C141 0.930 . S
H150 C164 0.929 . S
H151 C131 0.931 1_455 S
H152 C137 0.931 . S
H153 C138 0.931 . S
H154 C159 0.931 1_655 S
H155 C134 0.929 . S
H156 C167 0.930 . S
N157 Eu128 2.600 . S
N157 C158 1.365 . S
N157 C161 1.319 . S
C158 N157 1.365 . S
C158 C160 1.405 . S
C158 C166 1.448 . S
C159 H154 0.931 1_455 S
C159 C161 1.397 . S
C159 C162 1.367 . S
C160 C158 1.405 . S
C160 C162 1.403 . S
C160 C193 1.439 . S
C161 H146 0.930 1_455 S
C161 N157 1.319 . S
C161 C159 1.397 . S
C162 C159 1.367 . S
C162 C160 1.403 . S
C162 H169 0.929 . S
N163 Eu128 2.562 . S
N163 C164 1.325 . S
N163 C166 1.351 . S
C164 H150 0.929 . S
C164 N163 1.325 . S
C164 C168 1.416 . S
C165 C166 1.430 . S
C165 C167 1.404 . S
C165 C194 1.387 . S
C166 C158 1.448 . S
C166 N163 1.351 . S
C166 C165 1.430 . S
C167 H156 0.930 . S
C167 C165 1.404 . S
C167 C168 1.366 . S
C168 H147 0.930 . S
C168 C164 1.416 . S
C168 C167 1.366 . S
H169 C162 0.929 . S
H170 C193 0.931 . S
H171 C194 0.931 . S
O172 Eu128 2.462 . S
O172 C192 1.252 . S
O173 Eu128 2.373 . S
O173 C184 1.249 . S
O174 Eu139 2.335 1_455 S
O174 C184 1.264 1_545 S
O175 Eu128 2.432 . S
O175 C192 1.268 . S
O176 Eu128 2.291 1_545 S
O176 C191 1.255 . S
O177 Eu139 2.372 1_455 S
O177 C191 1.257 . S
O178 Eu139 2.462 . S
O178 C203 1.252 . S
O179 Eu139 2.373 . S
O179 C195 1.249 . S
O180 Eu128 2.335 1_645 S
O180 C195 1.264 . S
O181 Eu139 2.432 . S
O181 C203 1.268 . S
O182 Eu139 2.291 1_565 S
O182 C202 1.255 . S
O183 Eu128 2.372 1_655 S
O183 C202 1.257 . S
C184 O173 1.249 . S
C184 O174 1.264 1_565 S
C185 C188 1.382 . S
C185 C190 1.390 . S
C185 C192 1.506 . S
C186 C187 1.398 . S
C186 C190 1.392 . S
C187 C186 1.398 . S
C187 C189 1.372 . S
C187 H204 0.931 . S
C188 C185 1.382 . S
C188 C189 1.390 . S
C188 H205 0.931 . S
C189 C187 1.372 . S
C189 C188 1.390 . S
C189 H206 0.929 . S
C190 C185 1.390 . S
C190 C186 1.392 . S
C190 H207 0.930 . S
C191 O176 1.255 . S
C191 O177 1.257 . S
C192 Eu128 2.787 . S
C192 O172 1.252 . S
C192 O175 1.268 . S
C192 C185 1.506 . S
C193 C160 1.439 . S
C193 H170 0.931 . S
C193 C194 1.374 . S
C194 C165 1.387 . S
C194 H171 0.931 . S
C194 C193 1.374 . S
C195 O179 1.249 . S
C195 O180 1.264 . S
C196 C199 1.382 . S
C196 C200 1.390 . S
C196 C203 1.506 . S
C197 C198 1.398 . S
C197 C200 1.392 . S
C198 C197 1.398 . S
C198 C201 1.372 . S
C198 H208 0.931 . S
C199 C196 1.382 . S
C199 C201 1.390 . S
C199 H209 0.931 . S
C200 C196 1.390 . S
C200 C197 1.392 . S
C200 H210 0.930 . S
C201 C198 1.372 . S
C201 C199 1.390 . S
C201 H211 0.929 . S
C202 O182 1.255 . S
C202 O183 1.257 . S
C203 Eu139 2.787 . S
C203 O178 1.252 . S
C203 O181 1.268 . S
C203 C196 1.506 . S
H204 C187 0.931 . S
H205 C188 0.931 . S
H206 C189 0.929 . S
H207 C190 0.930 . S
H208 C198 0.931 . S
H209 C199 0.931 . S
H210 C200 0.930 . S
H211 C201 0.929 . S
Eu212 N241 2.600 . S
Eu212 N247 2.562 . S
Eu212 O256 2.462 1_554 S
Eu212 O257 2.373 . S
Eu212 O259 2.432 1_554 S
Eu212 O260 2.291 . S
Eu212 O264 2.335 1_554 S
Eu212 O267 2.372 . S
Eu212 C276 2.787 1_554 S
C213 N214 1.365 . S
C213 C216 1.405 . S
C213 C220 1.448 . S
N214 C213 1.365 . S
N214 C217 1.319 . S
N214 Eu223 2.600 . S
C215 C217 1.397 . S
C215 C218 1.367 . S
C215 H235 0.931 . S
C216 C213 1.405 . S
C216 C218 1.403 . S
C216 C222 1.439 . S
C217 N214 1.319 . S
C217 C215 1.397 . S
C217 H228 0.930 . S
C218 C215 1.367 . S
C218 C216 1.403 . S
C218 H239 0.929 . S
C219 C220 1.430 . S
C219 C221 1.387 . S
C219 C225 1.404 . S
C220 C213 1.448 . S
C220 C219 1.430 . S
C220 N224 1.351 . S
C221 C219 1.387 . S
C221 C222 1.374 . S
C221 H236 0.931 . S
C222 C216 1.439 . S
C222 C221 1.374 . S
C222 H237 0.931 . S
Eu223 N214 2.600 . S
Eu223 N224 2.562 . S
Eu223 O258 2.335 . S
Eu223 O261 2.372 . S
Eu223 O262 2.462 . S
Eu223 O263 2.373 . S
Eu223 O265 2.432 . S
Eu223 O266 2.291 . S
Eu223 C287 2.787 . S
N224 C220 1.351 . S
N224 Eu223 2.562 . S
N224 C226 1.325 . S
C225 C219 1.404 . S
C225 C227 1.366 . S
C225 H233 0.930 . S
C226 N224 1.325 . S
C226 C227 1.416 . S
C226 H232 0.929 . S
C227 C225 1.366 . S
C227 C226 1.416 . S
C227 H229 0.930 . S
H228 C217 0.930 . S
H229 C227 0.930 . S
H230 C245 0.930 . S
H231 C252 0.930 . S
H232 C226 0.929 . S
H233 C225 0.930 . S
H234 C248 0.929 . S
H235 C215 0.931 . S
H236 C221 0.931 . S
H237 C222 0.931 . S
H238 C243 0.931 . S
H239 C218 0.929 . S
H240 C251 0.930 . S
N241 Eu212 2.600 . S
N241 C242 1.365 . S
N241 C245 1.319 1_554 S
C242 N241 1.365 . S
C242 C244 1.405 . S
C242 C250 1.448 . S
C243 H238 0.931 . S
C243 C245 1.397 . S
C243 C246 1.367 1_556 S
C244 C242 1.405 . S
C244 C246 1.403 . S
C244 C277 1.439 . S
C245 H230 0.930 . S
C245 N241 1.319 1_556 S
C245 C243 1.397 . S
C246 C243 1.367 1_554 S
C246 C244 1.403 . S
C246 H253 0.929 . S
N247 Eu212 2.562 . S
N247 C248 1.325 . S
N247 C250 1.351 . S
C248 H234 0.929 . S
C248 N247 1.325 . S
C248 C252 1.416 . S
C249 C250 1.430 . S
C249 C251 1.404 . S
C249 C278 1.387 . S
C250 C242 1.448 . S
C250 N247 1.351 . S
C250 C249 1.430 . S
C251 H240 0.930 . S
C251 C249 1.404 . S
C251 C252 1.366 . S
C252 H231 0.930 . S
C252 C248 1.416 . S
C252 C251 1.366 . S
H253 C246 0.929 . S
H254 C277 0.931 . S
H255 C278 0.931 . S
O256 Eu212 2.462 1_556 S
O256 C276 1.252 . S
O257 Eu212 2.373 . S
O257 C268 1.249 . S
O258 Eu223 2.335 . S
O258 C268 1.264 . S
O259 Eu212 2.432 1_556 S
O259 C276 1.268 . S
O260 Eu212 2.291 . S
O260 C275 1.255 . S
O261 Eu223 2.372 . S
O261 C275 1.257 . S
O262 Eu223 2.462 . S
O262 C287 1.252 . S
O263 Eu223 2.373 . S
O263 C279 1.249 1_554 S
O264 Eu212 2.335 1_556 S
O264 C279 1.264 . S
O265 Eu223 2.432 . S
O265 C287 1.268 . S
O266 Eu223 2.291 . S
O266 C286 1.255 . S
O267 Eu212 2.372 . S
O267 C286 1.257 . S
C268 O257 1.249 . S
C268 O258 1.264 . S
C269 C272 1.382 . S
C269 C274 1.390 . S
C269 C276 1.506 . S
C270 C271 1.398 . S
C270 C274 1.392 . S
C271 C270 1.398 . S
C271 C273 1.372 . S
C271 H288 0.931 . S
C272 C269 1.382 . S
C272 C273 1.390 . S
C272 H289 0.931 . S
C273 C271 1.372 . S
C273 C272 1.390 . S
C273 H290 0.929 . S
C274 C269 1.390 . S
C274 C270 1.392 . S
C274 H291 0.930 . S
C275 O260 1.255 . S
C275 O261 1.257 . S
C276 Eu212 2.787 1_556 S
C276 O256 1.252 . S
C276 O259 1.268 . S
C276 C269 1.506 . S
C277 C244 1.439 . S
C277 H254 0.931 . S
C277 C278 1.374 . S
C278 C249 1.387 . S
C278 H255 0.931 . S
C278 C277 1.374 . S
C279 O263 1.249 1_556 S
C279 O264 1.264 . S
C280 C283 1.382 . S
C280 C284 1.390 . S
C280 C287 1.506 . S
C281 C282 1.398 . S
C281 C284 1.392 . S
C282 C281 1.398 . S
C282 C285 1.372 . S
C282 H292 0.931 . S
C283 C280 1.382 . S
C283 C285 1.390 . S
C283 H293 0.931 . S
C284 C280 1.390 . S
C284 C281 1.392 . S
C284 H294 0.930 . S
C285 C282 1.372 . S
C285 C283 1.390 . S
C285 H295 0.929 . S
C286 O266 1.255 . S
C286 O267 1.257 . S
C287 Eu223 2.787 . S
C287 O262 1.252 . S
C287 O265 1.268 . S
C287 C280 1.506 . S
H288 C271 0.931 . S
H289 C272 0.931 . S
H290 C273 0.929 . S
H291 C274 0.930 . S
H292 C282 0.931 . S
H293 C283 0.931 . S
H294 C284 0.930 . S
H295 C285 0.929 . S
C191 C119 2.029 . S
C23 C286 2.085 . S
C55 C202 1.846 . S
C87 C275 1.743 . S
C186 C17 1.567 . S
C279 C61 1.697 . S
C93 C195 1.764 . S
C113 C270 1.558 . S
C281 C49 1.293 . S
C197 C81 1.264 . S
C268 C125 1.924 . S
C29 C184 2.210 . S
