# Generated by pormake.
# Topology sit, (3,6)-cn, num edge types: 1
# Building blocks:
#     Node 0, Type 0, BuildingBlock: PAMTOO_clean_linker_0, # of connection points: 3
#     Node 1, Type 0, BuildingBlock: PAMTOO_clean_linker_0, # of connection points: 3
#     Node 2, Type 0, BuildingBlock: PAMTOO_clean_linker_0, # of connection points: 3
#     Node 3, Type 0, BuildingBlock: PAMTOO_clean_linker_0, # of connection points: 3
#     Node 4, Type 1, BuildingBlock: MIDCAF_clean_sbu_0, # of connection points: 6
#     Node 5, Type 1, BuildingBlock: MIDCAF_clean_sbu_0, # of connection points: 6
#     Edge 6, Type (0, 1), BuildingBlock: XIVTED_clean_linker_0, # of connection points: 2
#     Edge 7, Type (0, 1), BuildingBlock: XIVTED_clean_linker_0, # of connection points: 2
#     Edge 8, Type (0, 1), BuildingBlock: XIVTED_clean_linker_0, # of connection points: 2
#     Edge 9, Type (0, 1), BuildingBlock: XIVTED_clean_linker_0, # of connection points: 2
#     Edge 10, Type (0, 1), BuildingBlock: XIVTED_clean_linker_0, # of connection points: 2
#     Edge 11, Type (0, 1), BuildingBlock: XIVTED_clean_linker_0, # of connection points: 2
#     Edge 12, Type (0, 1), BuildingBlock: XIVTED_clean_linker_0, # of connection points: 2
#     Edge 13, Type (0, 1), BuildingBlock: XIVTED_clean_linker_0, # of connection points: 2
#     Edge 14, Type (0, 1), BuildingBlock: XIVTED_clean_linker_0, # of connection points: 2
#     Edge 15, Type (0, 1), BuildingBlock: XIVTED_clean_linker_0, # of connection points: 2
#     Edge 16, Type (0, 1), BuildingBlock: XIVTED_clean_linker_0, # of connection points: 2
#     Edge 17, Type (0, 1), BuildingBlock: XIVTED_clean_linker_0, # of connection points: 2
# Relax obj value: 0.078
# Max RMSD: 0.181
# Mean RMSD: 0.117
data_MOF--net-sit--node1-MIDCAF_clean_sbu_0--node2-PAMTOO_clean_linker_0--edge1-XIVTED_clean_linker_0
_symmetry_space_group_name_H-M    P1
_symmetry_Int_Tables_number       1
_symmetry_cell_setting            triclinic
loop_
_symmetry_equiv_pos_as_xyz
'x, y, z'
_cell_length_a     21.906702
_cell_length_b     31.624489
_cell_length_c     37.646297
_cell_angle_alpha  89.752326
_cell_angle_beta   88.933788
_cell_angle_gamma 86.414167
loop_
_atom_site_label
_atom_site_type_symbol
_atom_site_fract_x
_atom_site_fract_y
_atom_site_fract_z
_atom_type_partial_charge
H0 H -0.00184 0.42424 0.98822 0.0
H1 H 0.14548 0.3349 0.01682 0.0
H2 H 0.95993 0.29958 0.0254 0.0
H3 H 0.08388 0.29774 0.08744 0.0
C4 C 0.09764 0.27 0.07024 0.0
O5 O 0.0749 0.27528 0.03645 0.0
H6 H 0.14845 0.26806 0.06836 0.0
C7 C 0.01408 0.39355 -0.00144 0.0
C8 C -0.0284 0.36322 0.00615 0.0
C9 C 0.07698 0.38386 0.00199 0.0
C10 C 0.09707 0.34356 0.01458 0.0
C11 C 0.05483 0.31372 0.02395 0.0
C12 C -0.00784 0.32339 0.01948 0.0
H13 H 0.03728 0.65617 -0.00583 0.0
H14 H 0.88809 0.74565 0.02171 0.0
H15 H 0.0726 0.78309 0.02524 0.0
H16 H 0.9376 0.78669 0.08796 0.0
C17 C 0.93033 0.81467 0.07007 0.0
O18 O 0.95685 0.80713 0.03691 0.0
H19 H 0.88014 0.8202 0.06676 0.0
C20 C 0.02077 0.68718 0.0037 0.0
C21 C 0.06251 0.7183 0.00914 0.0
C22 C 0.95772 0.69651 0.00797 0.0
C23 C 0.93668 0.73727 0.01914 0.0
C24 C -0.02192 0.76798 0.02642 0.0
C25 C 0.04097 0.75862 0.0212 0.0
H26 H 0.60716 0.94302 0.48812 0.0
H27 H 0.6508 0.82341 0.53969 0.0
H28 H 0.4636 0.86354 0.52048 0.0
H29 H 0.46347 0.81077 0.58169 0.0
C30 C 0.51362 0.80277 0.58208 0.0
O31 O 0.53665 0.80406 0.54777 0.0
H32 H 0.53422 0.82675 0.59901 0.0
C33 C 0.59252 0.9147 0.50126 0.0
C34 C 0.53005 0.90755 0.50323 0.0
C35 C 0.63654 0.88445 0.51391 0.0
C36 C 0.61741 0.8473 0.53012 0.0
C37 C 0.55497 0.8403 0.533 0.0
C38 C 0.51153 0.87018 0.51934 0.0
H39 H 0.53931 0.14979 0.47362 0.0
H40 H 0.45348 0.26594 0.5146 0.0
H41 H 0.63197 0.22374 0.54938 0.0
H42 H 0.55842 0.26313 0.60565 0.0
C43 C 0.52501 0.28284 0.58976 0.0
O44 O 0.54431 0.28314 0.55474 0.0
H45 H 0.48001 0.2684 0.59224 0.0
C46 C 0.54035 0.17698 0.49088 0.0
C47 C 0.59249 0.18257 0.51115 0.0
C48 C 0.48976 0.20653 0.4919 0.0
C49 C 0.49151 0.24234 0.5137 0.0
C50 C 0.54288 0.24833 0.53417 0.0
C51 C 0.59295 0.21852 0.53308 0.0
Zn52 Zn 0.0074 0.11722 0.33686 0.0
Zn53 Zn 0.10292 0.95724 0.33119 0.0
Zn54 Zn 0.05547 1.03772 0.33503 0.0
C55 C 0.07008 0.98065 0.26286 0.0
C56 C 0.00165 0.95903 0.3781 0.0
O57 O 0.12586 0.07804 0.35424 0.0
O58 O 0.08115 0.14284 0.35545 0.0
C59 C 0.00706 0.09227 0.26633 0.0
O60 O 0.05084 1.01479 0.2793 0.0
O61 O 0.09703 0.95047 0.27953 0.0
O62 O 0.04023 0.93302 0.36339 0.0
O63 O 0.00099 0.99886 0.37054 0.0
O64 O -0.01165 0.12281 0.28598 0.0
O65 O 0.03318 0.05848 0.28002 0.0
O66 O -0.02407 0.04102 0.37262 0.0
O67 O 0.94129 0.10835 0.37122 0.0
C68 C 0.93799 0.0713 0.38325 0.0
O69 O 0.14867 1.03553 0.35633 0.0
O70 O 0.18335 0.96852 0.35052 0.0
C71 C 0.12749 0.11793 0.36064 0.0
C72 C 0.19108 1.00591 0.36019 0.0
Zn73 Zn 0.54382 0.62342 0.83828 0.0
Zn74 Zn 0.50447 0.46751 0.83608 0.0
Zn75 Zn 0.52428 0.54561 0.83775 0.0
C76 C 0.49639 0.4933 0.76697 0.0
C77 C 0.41564 0.50523 0.88043 0.0
O78 O 0.60775 0.55118 0.86866 0.0
O79 O 0.60319 0.62051 0.87689 0.0
C80 C 0.56069 0.60057 0.76886 0.0
O81 O 0.51866 0.52594 0.78106 0.0
O82 O 0.47994 0.46328 0.78632 0.0
O83 O 0.43977 0.46908 0.87297 0.0
O84 O 0.4377 0.53883 0.86734 0.0
O85 O 0.57539 0.62955 0.78933 0.0
O86 O 0.5363 0.56758 0.78171 0.0
O87 O 0.44781 0.58226 0.86544 0.0
O88 O 0.46166 0.64893 0.85127 0.0
C89 C 0.43022 0.62195 0.86664 0.0
O90 O 0.59723 0.50779 0.86604 0.0
O91 O 0.58457 0.44152 0.85078 0.0
C92 C 0.62743 0.58419 0.88343 0.0
C93 C 0.61427 0.46801 0.86712 0.0
H94 H -0.01948 0.25539 0.09091 0.0
H95 H 0.09387 0.06541 0.21684 0.0
H96 H 0.16336 0.19662 0.08924 0.0
H97 H 0.92091 0.13731 0.22837 0.0
H98 H 0.10779 0.09724 0.15803 0.0
H99 H 0.94724 0.19776 0.12898 0.0
C100 C 0.01325 0.22979 0.09803 0.0
C101 C 0.07481 0.23096 0.08759 0.0
C102 C 0.06599 0.10516 0.17301 0.0
C103 C 0.03767 0.16536 0.13127 0.0
C104 C 0.05774 0.08662 0.20641 0.0
C105 C 0.00661 0.09931 0.2276 0.0
C106 C 0.02284 0.13659 0.16102 0.0
C107 C 0.96146 0.12723 0.213 0.0
C108 C -0.00559 0.19698 0.11975 0.0
C109 C 0.1156 0.19707 0.09722 0.0
N110 N -0.02888 0.14553 0.18089 0.0
N111 N 0.09654 0.16596 0.11902 0.0
H112 H 0.05066 0.8279 0.08176 0.0
H113 H 0.96677 1.00581 0.22635 0.0
H114 H 0.86877 0.88469 0.09961 0.0
H115 H 0.14315 0.93848 0.21431 0.0
H116 H 0.93664 0.97657 0.16943 0.0
H117 H 0.09103 0.88195 0.11954 0.0
C118 C 0.0195 0.85243 0.09298 0.0
C119 C 0.95647 0.85198 0.0876 0.0
C120 C -0.01755 0.96902 0.17885 0.0
C121 C 0.00176 0.91321 0.13162 0.0
C122 C -0.00023 0.986 0.21115 0.0
C123 C 0.05709 0.9739 0.22514 0.0
C124 C 0.02289 0.93984 0.16074 0.0
C125 C 0.09811 0.94797 0.2046 0.0
C126 C 0.04238 0.88319 0.11466 0.0
C127 C 0.91775 0.88406 0.10313 0.0
N128 N 0.07991 0.93129 0.17372 0.0
N129 N 0.9409 0.91308 0.12484 0.0
H130 H 0.62487 0.76589 0.60017 0.0
H131 H 0.47457 0.58942 0.71861 0.0
H132 H 0.43327 0.74232 0.60053 0.0
H133 H 0.65497 0.63299 0.73271 0.0
H134 H 0.46854 0.62765 0.66169 0.0
H135 H 0.64506 0.70104 0.63507 0.0
C136 C 0.58731 0.74655 0.60716 0.0
C137 C 0.5273 0.75971 0.59824 0.0
C138 C 0.51018 0.62775 0.67675 0.0
C139 C 0.54962 0.68586 0.63817 0.0
C140 C 0.51386 0.60554 0.70898 0.0
C141 C 0.56498 0.60873 0.73041 0.0
C142 C 0.55812 0.65292 0.66614 0.0
C143 C 0.61448 0.63029 0.71701 0.0
C144 C 0.59871 0.70962 0.62702 0.0
C145 C 0.48009 0.73349 0.60747 0.0
N146 N 0.60944 0.65216 0.68602 0.0
N147 N 0.49209 0.69811 0.62745 0.0
H148 H 0.42171 0.33581 0.59864 0.0
H149 H 0.5932 0.49381 0.72058 0.0
H150 H 0.61679 0.33073 0.61254 0.0
H151 H 0.40063 0.474 0.72717 0.0
H152 H 0.60044 0.45332 0.66494 0.0
H153 H 0.41262 0.40382 0.62986 0.0
C154 C 0.46267 0.34939 0.60794 0.0
C155 C 0.51983 0.32723 0.60418 0.0
C156 C 0.55619 0.45913 0.67792 0.0
C157 C 0.51004 0.40491 0.63951 0.0
C158 C 0.55194 0.4827 0.70935 0.0
C159 C 0.49636 0.48671 0.7284 0.0
C160 C 0.50435 0.43988 0.66572 0.0
C161 C 0.44434 0.47127 0.71318 0.0
C162 C 0.45756 0.38819 0.62562 0.0
C163 C 0.57176 0.34654 0.61581 0.0
N164 N 0.44975 0.44787 0.68304 0.0
N165 N 0.56558 0.38399 0.63354 0.0
H166 H 0.07007 0.43549 0.94332 0.0
H167 H 0.41767 0.48149 0.949 0.0
H168 H 0.18526 0.40233 0.03235 0.0
H169 H 0.29689 0.53102 0.8678 0.0
H170 H 0.32922 0.46479 0.9856 0.0
H171 H 0.14698 0.48127 0.92064 0.0
C172 C 0.11103 0.43842 0.95855 0.0
C173 C 0.12138 0.41462 0.98972 0.0
C174 C 0.32168 0.48026 0.96021 0.0
C175 C 0.21054 0.46648 0.96324 0.0
C176 C 0.37214 0.48996 0.93946 0.0
C177 C 0.36393 0.50731 0.90552 0.0
C178 C 0.26281 0.48681 0.9463 0.0
C179 C 0.30457 0.51759 0.89396 0.0
C180 C 0.15513 0.46456 0.94544 0.0
C181 C 0.17591 0.41931 0.00783 0.0
N182 N 0.25597 0.5063 0.91407 0.0
N183 N 0.21879 0.44428 -0.00593 0.0
H184 H 0.84991 0.67811 0.04114 0.0
H185 H 0.74403 0.54942 0.87401 0.0
H186 H 0.96562 0.64363 0.95039 0.0
H187 H 0.62242 0.61361 0.95032 0.0
H188 H 0.83075 0.56222 0.91235 0.0
H189 H 0.77191 0.63399 0.0181 0.0
C190 C 0.85919 0.66091 0.01661 0.0
C191 C 0.91389 0.6652 -0.00263 0.0
C192 C 0.78486 0.57253 0.92107 0.0
C193 C 0.82528 0.6145 0.97105 0.0
C194 C 0.73564 0.56506 0.89934 0.0
C195 C 0.6768 0.58113 0.90908 0.0
C196 C 0.77445 0.5962 0.95242 0.0
C197 C 0.66761 0.60127 0.94193 0.0
C198 C 0.81491 0.63552 0.00362 0.0
C199 C 0.92418 0.6413 0.96618 0.0
N200 N 0.71608 0.60875 0.96228 0.0
N201 N 0.87989 0.61748 0.95372 0.0
H202 H 0.90474 0.3146 0.96414 0.0
H203 H 0.64927 0.50129 0.92968 0.0
H204 H 0.89552 0.43304 0.0209 0.0
H205 H 0.68937 0.39666 0.85826 0.0
H206 H 0.72934 0.47256 0.969 0.0
H207 H 0.81187 0.33818 0.93274 0.0
C208 C 0.88201 0.34503 0.97077 0.0
C209 C 0.90782 0.37208 -0.00509 0.0
C210 C 0.7209 0.45603 0.94461 0.0
C211 C 0.80294 0.3997 0.95853 0.0
C212 C 0.67616 0.47292 0.92182 0.0
C213 C 0.66461 0.45229 0.89001 0.0
C214 C 0.75334 0.41769 0.93583 0.0
C215 C 0.69772 0.41396 0.88227 0.0
C216 C 0.82959 0.35874 0.95249 0.0
C217 C 0.87714 0.41145 0.00221 0.0
N218 N 0.74075 0.39792 0.90499 0.0
N219 N 0.82662 0.42433 0.98377 0.0
H220 H 0.13996 0.6497 0.02439 0.0
H221 H 0.35596 0.69337 0.85722 0.0
H222 H 0.12843 0.76601 0.96401 0.0
H223 H 0.38725 0.58681 0.92773 0.0
H224 H 0.27339 0.72109 0.89685 0.0
H225 H 0.23369 0.62738 0.99146 0.0
C226 C 0.15814 0.67095 0.00476 0.0
C227 C 0.12646 0.70964 -0.00326 0.0
C228 C 0.298 0.69145 0.90356 0.0
C229 C 0.23253 0.684 0.95842 0.0
C230 C 0.34477 0.67549 0.88082 0.0
C231 C 0.37698 0.63697 0.88864 0.0
C232 C 0.28352 0.6688 0.93444 0.0
C233 C 0.36153 0.61548 0.91985 0.0
C234 C 0.21134 0.65813 0.98583 0.0
C235 C 0.15174 0.73606 0.97113 0.0
N236 N 0.31572 0.63157 0.94157 0.0
N237 N 0.20283 0.72246 0.95247 0.0
H238 H 0.70111 0.95433 0.52493 0.0
H239 H 0.9458 0.88447 0.37631 0.0
H240 H 0.71872 0.82792 0.48189 0.0
H241 H 0.9597 0.99634 0.43971 0.0
H242 H 0.86663 0.8611 0.41735 0.0
H243 H 0.79962 0.96884 0.49739 0.0
C244 C 0.72659 0.92931 0.51039 0.0
C245 C 0.70175 0.88998 0.50544 0.0
C246 C 0.88703 0.89076 0.42239 0.0
C247 C 0.81366 0.9065 0.47333 0.0
C248 C 0.93202 0.90411 0.39893 0.0
C249 C 0.95705 0.9433 0.40391 0.0
C250 C 0.86703 0.91688 0.45095 0.0
C251 C 0.93871 0.96718 0.43392 0.0
C252 C 0.7827 0.93759 0.49463 0.0
C253 C 0.73645 0.85859 0.48644 0.0
N254 N 0.89412 0.95393 0.45609 0.0
N255 N 0.79019 0.86778 0.4705 0.0
H256 H 0.36847 0.22096 0.51045 0.0
H257 H 0.24776 0.09469 0.34668 0.0
H258 H 0.48697 0.17566 0.42393 0.0
H259 H 0.12988 0.1792 0.41073 0.0
H260 H 0.33659 0.11971 0.37719 0.0
H261 H 0.28003 0.20308 0.47617 0.0
C262 C 0.37594 0.20775 0.48412 0.0
C263 C 0.43537 0.19936 0.47027 0.0
C264 C 0.2913 0.13298 0.38438 0.0
C265 C 0.33449 0.178 0.43131 0.0
C266 C 0.24076 0.1184 0.36726 0.0
C267 C 0.18174 0.13448 0.3767 0.0
C268 C 0.28239 0.16364 0.4112 0.0
C269 C 0.17485 0.16602 0.40278 0.0
C270 C 0.32545 0.19734 0.46466 0.0
C271 C 0.44215 0.18168 0.43611 0.0
N272 N 0.22459 0.17931 0.41942 0.0
N273 N 0.39238 0.17119 0.41796 0.0
H274 H 0.41649 0.93812 0.52714 0.0
H275 H 0.30757 0.99217 0.33615 0.0
H276 H 0.54156 0.9431 0.4375 0.0
H277 H 0.20018 1.03317 0.42807 0.0
H278 H 0.39774 0.98283 0.37318 0.0
H279 H 0.33922 0.9794 0.49298 0.0
C280 C 0.42788 0.94837 0.50047 0.0
C281 C 0.48522 0.93681 0.48501 0.0
C282 C 0.35497 0.995 0.38524 0.0
C283 C 0.39747 0.98385 0.44588 0.0
C284 C 0.30371 1.00048 0.36404 0.0
C285 C 0.24693 1.01325 0.37931 0.0
C286 C 0.34858 1.00073 0.42215 0.0
C287 C 0.2436 1.0233 0.41552 0.0
C288 C 0.38407 0.97224 0.48112 0.0
C289 C 0.49803 0.95138 0.45055 0.0
N290 N 0.29355 1.01573 0.43605 0.0
N291 N 0.45419 0.97353 0.43197 0.0
H292 H 0.59879 0.09625 0.49746 0.0
H293 H 0.95342 0.09748 0.44977 0.0
H294 H 0.71353 0.20057 0.51409 0.0
H295 H 0.82664 1.03626 0.38408 0.0
H296 H 0.87207 0.11144 0.49433 0.0
H297 H 0.68874 0.05354 0.47575 0.0
C298 C 0.64269 0.11019 0.49704 0.0
C299 C 0.64776 0.15291 0.50648 0.0
C300 C 0.86254 0.09368 0.47073 0.0
C301 C 0.75088 0.10322 0.48343 0.0
C302 C 0.90883 0.08556 0.44547 0.0
C303 C 0.89608 0.06602 0.4134 0.0
C304 C 0.80308 0.08265 0.46352 0.0
C305 C 0.83778 0.05145 0.40864 0.0
C306 C 0.69395 0.08549 0.485 0.0
C307 C 0.70661 0.16814 0.50702 0.0
N308 N 0.79272 0.06079 0.43327 0.0
N309 N 0.75563 0.14348 0.49521 0.0
loop_
_geom_bond_atom_site_label_1
_geom_bond_atom_site_label_2
_geom_bond_distance
_geom_bond_site_symmetry_2
_ccdc_geom_bond_type
H0 C7 0.929 . S
H1 C10 0.930 . S
H2 C12 0.929 . S
H3 C4 0.969 . S
C4 H3 0.969 . S
C4 O5 1.550 . S
C4 H6 0.973 . S
O5 C4 1.550 . S
O5 C11 1.412 . S
H6 C4 0.973 . S
C7 H0 0.929 . S
C7 C8 1.400 . S
C7 C9 1.364 . S
C8 C7 1.400 . S
C8 C12 1.377 1_556 S
C9 C7 1.364 . S
C9 C10 1.374 1_556 S
C10 H1 0.930 . S
C10 C9 1.374 1_554 S
C10 C11 1.383 . S
C11 O5 1.412 . S
C11 C10 1.383 . S
C11 C12 1.394 . S
C12 H2 0.929 . S
C12 C8 1.377 1_554 S
C12 C11 1.394 . S
H13 C20 0.929 . S
H14 C23 0.930 . S
H15 C25 0.929 . S
H16 C17 0.969 . S
C17 H16 0.969 . S
C17 O18 1.550 1_655 S
C17 H19 0.973 . S
O18 C17 1.550 1_455 S
O18 C24 1.412 . S
H19 C17 0.973 . S
C20 H13 0.929 . S
C20 C21 1.400 . S
C20 C22 1.364 1_455 S
C21 C20 1.400 . S
C21 C25 1.377 1_556 S
C22 C20 1.364 1_655 S
C22 C23 1.374 1_556 S
C23 H14 0.930 . S
C23 C22 1.374 1_554 S
C23 C24 1.383 1_655 S
C24 O18 1.412 . S
C24 C23 1.383 1_455 S
C24 C25 1.394 . S
C25 H15 0.929 . S
C25 C21 1.377 1_554 S
C25 C24 1.394 . S
H26 C33 0.929 . S
H27 C36 0.930 . S
H28 C38 0.929 . S
H29 C30 0.969 . S
C30 H29 0.969 . S
C30 O31 1.550 . S
C30 H32 0.973 . S
O31 C30 1.550 . S
O31 C37 1.412 . S
H32 C30 0.973 . S
C33 H26 0.929 . S
C33 C34 1.400 . S
C33 C35 1.364 . S
C34 C33 1.400 . S
C34 C38 1.377 . S
C35 C33 1.364 . S
C35 C36 1.374 . S
C36 H27 0.930 . S
C36 C35 1.374 . S
C36 C37 1.383 . S
C37 O31 1.412 . S
C37 C36 1.383 . S
C37 C38 1.394 . S
C38 H28 0.929 . S
C38 C34 1.377 . S
C38 C37 1.394 . S
H39 C46 0.929 . S
H40 C49 0.930 . S
H41 C51 0.929 . S
H42 C43 0.969 . S
C43 H42 0.969 . S
C43 O44 1.550 . S
C43 H45 0.973 . S
O44 C43 1.550 . S
O44 C50 1.412 . S
H45 C43 0.973 . S
C46 H39 0.929 . S
C46 C47 1.400 . S
C46 C48 1.364 . S
C47 C46 1.400 . S
C47 C51 1.377 . S
C48 C46 1.364 . S
C48 C49 1.374 . S
C49 H40 0.930 . S
C49 C48 1.374 . S
C49 C50 1.383 . S
C50 O44 1.412 . S
C50 C49 1.383 . S
C50 C51 1.394 . S
C51 H41 0.929 . S
C51 C47 1.377 . S
C51 C50 1.394 . S
Zn52 O58 1.920 . S
Zn52 O64 1.898 . S
Zn52 O67 1.905 1_455 S
Zn53 O61 1.905 . S
Zn53 O62 1.898 . S
Zn53 O70 1.920 . S
Zn54 O57 2.080 . S
Zn54 O60 2.114 1_545 S
Zn54 O63 2.120 1_545 S
Zn54 O65 2.120 . S
Zn54 O66 2.114 1_455 S
Zn54 O69 2.080 1_545 S
C55 O60 1.166 . S
C55 O61 1.182 . S
C56 O62 1.165 1_655 S
C56 O63 1.289 1_655 S
O57 Zn54 2.080 . S
O57 C71 1.305 . S
O58 Zn52 1.920 . S
O58 C71 1.234 . S
C59 O64 1.167 . S
C59 O65 1.299 . S
O60 Zn54 2.114 1_565 S
O60 C55 1.166 . S
O61 Zn53 1.905 . S
O61 C55 1.182 . S
O62 Zn53 1.898 . S
O62 C56 1.165 1_455 S
O63 Zn54 2.120 1_565 S
O63 C56 1.289 1_455 S
O64 Zn52 1.898 . S
O64 C59 1.167 . S
O65 Zn54 2.120 . S
O65 C59 1.299 . S
O66 Zn54 2.114 1_655 S
O66 C68 1.166 . S
O67 Zn52 1.905 1_655 S
O67 C68 1.182 . S
C68 O66 1.166 . S
C68 O67 1.182 . S
O69 Zn54 2.080 1_565 S
O69 C72 1.305 . S
O70 Zn53 1.920 . S
O70 C72 1.234 . S
C71 O57 1.305 . S
C71 O58 1.234 . S
C72 O69 1.305 . S
C72 O70 1.234 . S
Zn73 O79 1.920 . S
Zn73 O85 1.898 . S
Zn73 O88 1.905 . S
Zn74 O82 1.905 . S
Zn74 O83 1.898 . S
Zn74 O91 1.920 . S
Zn75 O78 2.080 . S
Zn75 O81 2.114 . S
Zn75 O84 2.120 . S
Zn75 O86 2.120 . S
Zn75 O87 2.114 . S
Zn75 O90 2.080 . S
C76 O81 1.166 . S
C76 O82 1.182 . S
C77 O83 1.167 . S
C77 O84 1.299 . S
O78 Zn75 2.080 . S
O78 C92 1.305 . S
O79 Zn73 1.920 . S
O79 C92 1.234 . S
C80 O85 1.167 . S
C80 O86 1.299 . S
O81 Zn75 2.114 . S
O81 C76 1.166 . S
O82 Zn74 1.905 . S
O82 C76 1.182 . S
O83 Zn74 1.898 . S
O83 C77 1.167 . S
O84 Zn75 2.120 . S
O84 C77 1.299 . S
O85 Zn73 1.898 . S
O85 C80 1.167 . S
O86 Zn75 2.120 . S
O86 C80 1.299 . S
O87 Zn75 2.114 . S
O87 C89 1.166 . S
O88 Zn73 1.905 . S
O88 C89 1.182 . S
C89 O87 1.166 . S
C89 O88 1.182 . S
O90 Zn75 2.080 . S
O90 C93 1.305 . S
O91 Zn74 1.920 . S
O91 C93 1.234 . S
C92 O78 1.305 . S
C92 O79 1.234 . S
C93 O90 1.305 . S
C93 O91 1.234 . S
H94 C100 0.930 . S
H95 C104 0.930 . S
H96 C109 0.929 . S
H97 C107 0.929 . S
H98 C102 0.929 . S
H99 C108 0.929 . S
C100 H94 0.930 . S
C100 C101 1.367 . S
C100 C108 1.378 . S
C101 C100 1.367 . S
C101 C109 1.433 . S
C102 H98 0.929 . S
C102 C104 1.378 . S
C102 C106 1.350 . S
C103 C106 1.463 . S
C103 C108 1.350 . S
C103 N111 1.427 . S
C104 H95 0.930 . S
C104 C102 1.378 . S
C104 C105 1.367 . S
C105 C104 1.367 . S
C105 C107 1.433 . S
C106 C102 1.350 . S
C106 C103 1.463 . S
C106 N110 1.427 . S
C107 H97 0.929 . S
C107 C105 1.433 . S
C107 N110 1.384 . S
C108 H99 0.929 . S
C108 C100 1.378 . S
C108 C103 1.350 . S
C109 H96 0.929 . S
C109 C101 1.433 . S
C109 N111 1.384 . S
N110 C106 1.427 . S
N110 C107 1.384 . S
N111 C103 1.427 . S
N111 C109 1.384 . S
H112 C118 0.930 . S
H113 C122 0.930 1_655 S
H114 C127 0.929 . S
H115 C125 0.929 . S
H116 C120 0.926 1_655 S
H117 C126 0.929 . S
C118 H112 0.930 . S
C118 C119 1.367 1_455 S
C118 C126 1.378 . S
C119 C118 1.367 1_655 S
C119 C127 1.433 . S
C120 H116 0.926 1_455 S
C120 C122 1.379 . S
C120 C124 1.352 . S
C121 C124 1.463 . S
C121 C126 1.350 . S
C121 N129 1.427 1_455 S
C122 H113 0.930 1_455 S
C122 C120 1.379 . S
C122 C123 1.367 . S
C123 C122 1.367 . S
C123 C125 1.433 . S
C124 C120 1.352 . S
C124 C121 1.463 . S
C124 N128 1.427 . S
C125 H115 0.929 . S
C125 C123 1.433 . S
C125 N128 1.384 . S
C126 H117 0.929 . S
C126 C118 1.378 . S
C126 C121 1.350 . S
C127 H114 0.929 . S
C127 C119 1.433 . S
C127 N129 1.384 . S
N128 C124 1.427 . S
N128 C125 1.384 . S
N129 C121 1.427 1_655 S
N129 C127 1.384 . S
H130 C136 0.930 . S
H131 C140 0.930 . S
H132 C145 0.929 . S
H133 C143 0.929 . S
H134 C138 0.929 . S
H135 C144 0.929 . S
C136 H130 0.930 . S
C136 C137 1.367 . S
C136 C144 1.378 . S
C137 C136 1.367 . S
C137 C145 1.433 . S
C138 H134 0.929 . S
C138 C140 1.378 . S
C138 C142 1.350 . S
C139 C142 1.463 . S
C139 C144 1.350 . S
C139 N147 1.427 . S
C140 H131 0.930 . S
C140 C138 1.378 . S
C140 C141 1.367 . S
C141 C140 1.367 . S
C141 C143 1.433 . S
C142 C138 1.350 . S
C142 C139 1.463 . S
C142 N146 1.427 . S
C143 H133 0.929 . S
C143 C141 1.433 . S
C143 N146 1.384 . S
C144 H135 0.929 . S
C144 C136 1.378 . S
C144 C139 1.350 . S
C145 H132 0.929 . S
C145 C137 1.433 . S
C145 N147 1.384 . S
N146 C142 1.427 . S
N146 C143 1.384 . S
N147 C139 1.427 . S
N147 C145 1.384 . S
H148 C154 0.930 . S
H149 C158 0.930 . S
H150 C163 0.929 . S
H151 C161 0.929 . S
H152 C156 0.929 . S
H153 C162 0.929 . S
C154 H148 0.930 . S
C154 C155 1.367 . S
C154 C162 1.378 . S
C155 C154 1.367 . S
C155 C163 1.433 . S
C156 H152 0.929 . S
C156 C158 1.378 . S
C156 C160 1.350 . S
C157 C160 1.463 . S
C157 C162 1.350 . S
C157 N165 1.427 . S
C158 H149 0.930 . S
C158 C156 1.378 . S
C158 C159 1.367 . S
C159 C158 1.367 . S
C159 C161 1.433 . S
C160 C156 1.350 . S
C160 C157 1.463 . S
C160 N164 1.427 . S
C161 H151 0.929 . S
C161 C159 1.433 . S
C161 N164 1.384 . S
C162 H153 0.929 . S
C162 C154 1.378 . S
C162 C157 1.350 . S
C163 H150 0.929 . S
C163 C155 1.433 . S
C163 N165 1.384 . S
N164 C160 1.427 . S
N164 C161 1.384 . S
N165 C157 1.427 . S
N165 C163 1.384 . S
H166 C172 0.930 . S
H167 C176 0.930 . S
H168 C181 0.929 . S
H169 C179 0.929 . S
H170 C174 0.929 . S
H171 C180 0.929 . S
C172 H166 0.930 . S
C172 C173 1.367 . S
C172 C180 1.378 . S
C173 C172 1.367 . S
C173 C181 1.433 1_556 S
C174 H170 0.929 . S
C174 C176 1.378 . S
C174 C178 1.350 . S
C175 C178 1.463 . S
C175 C180 1.350 . S
C175 N183 1.427 . S
C176 H167 0.930 . S
C176 C174 1.378 . S
C176 C177 1.367 . S
C177 C176 1.367 . S
C177 C179 1.433 . S
C178 C174 1.350 . S
C178 C175 1.463 . S
C178 N182 1.427 . S
C179 H169 0.929 . S
C179 C177 1.433 . S
C179 N182 1.384 . S
C180 H171 0.929 . S
C180 C172 1.378 . S
C180 C175 1.350 . S
C181 H168 0.929 . S
C181 C173 1.433 1_554 S
C181 N183 1.384 1_554 S
N182 C178 1.427 . S
N182 C179 1.384 . S
N183 C175 1.427 . S
N183 C181 1.384 1_556 S
H184 C190 0.930 . S
H185 C194 0.930 . S
H186 C199 0.929 . S
H187 C197 0.929 . S
H188 C192 0.929 . S
H189 C198 0.929 1_554 S
C190 H184 0.930 . S
C190 C191 1.367 1_554 S
C190 C198 1.378 1_554 S
C191 C190 1.367 1_556 S
C191 C199 1.433 . S
C192 H188 0.929 . S
C192 C194 1.378 . S
C192 C196 1.350 . S
C193 C196 1.463 . S
C193 C198 1.350 . S
C193 N201 1.427 . S
C194 H185 0.930 . S
C194 C192 1.378 . S
C194 C195 1.367 . S
C195 C194 1.367 . S
C195 C197 1.433 . S
C196 C192 1.350 . S
C196 C193 1.463 . S
C196 N200 1.427 . S
C197 H187 0.929 . S
C197 C195 1.433 . S
C197 N200 1.384 . S
C198 H189 0.929 1_556 S
C198 C190 1.378 1_556 S
C198 C193 1.350 . S
C199 H186 0.929 . S
C199 C191 1.433 . S
C199 N201 1.384 . S
N200 C196 1.427 . S
N200 C197 1.384 . S
N201 C193 1.427 . S
N201 C199 1.384 . S
H202 C208 0.930 . S
H203 C212 0.930 . S
H204 C217 0.929 1_554 S
H205 C215 0.929 . S
H206 C210 0.929 . S
H207 C216 0.929 . S
C208 H202 0.930 . S
C208 C209 1.367 . S
C208 C216 1.378 1_455 S
C209 C208 1.367 . S
C209 C217 1.433 1_455 S
C210 H206 0.929 . S
C210 C212 1.378 . S
C210 C214 1.350 . S
C211 C214 1.463 . S
C211 C216 1.350 . S
C211 N219 1.427 . S
C212 H203 0.930 . S
C212 C210 1.378 . S
C212 C213 1.367 . S
C213 C212 1.367 . S
C213 C215 1.433 . S
C214 C210 1.350 . S
C214 C211 1.463 . S
C214 N218 1.427 . S
C215 H205 0.929 . S
C215 C213 1.433 . S
C215 N218 1.384 . S
C216 H207 0.929 . S
C216 C208 1.378 1_655 S
C216 C211 1.350 . S
C217 H204 0.929 1_556 S
C217 C209 1.433 1_655 S
C217 N219 1.384 . S
N218 C214 1.427 . S
N218 C215 1.384 . S
N219 C211 1.427 . S
N219 C217 1.384 . S
H220 C226 0.930 . S
H221 C230 0.930 . S
H222 C235 0.929 . S
H223 C233 0.929 . S
H224 C228 0.929 . S
H225 C234 0.929 . S
C226 H220 0.930 . S
C226 C227 1.367 . S
C226 C234 1.378 . S
C227 C226 1.367 . S
C227 C235 1.433 . S
C228 H224 0.929 . S
C228 C230 1.378 . S
C228 C232 1.350 . S
C229 C232 1.463 . S
C229 C234 1.350 . S
C229 N237 1.427 . S
C230 H221 0.930 . S
C230 C228 1.378 . S
C230 C231 1.367 . S
C231 C230 1.367 . S
C231 C233 1.433 . S
C232 C228 1.350 . S
C232 C229 1.463 . S
C232 N236 1.427 . S
C233 H223 0.929 . S
C233 C231 1.433 . S
C233 N236 1.384 . S
C234 H225 0.929 . S
C234 C226 1.378 . S
C234 C229 1.350 . S
C235 H222 0.929 . S
C235 C227 1.433 . S
C235 N237 1.384 . S
N236 C232 1.427 . S
N236 C233 1.384 . S
N237 C229 1.427 . S
N237 C235 1.384 . S
H238 C244 0.930 . S
H239 C248 0.930 1_455 S
H240 C253 0.929 . S
H241 C251 0.929 . S
H242 C246 0.929 . S
H243 C252 0.929 . S
C244 H238 0.930 . S
C244 C245 1.367 . S
C244 C252 1.378 . S
C245 C244 1.367 . S
C245 C253 1.433 . S
C246 H242 0.929 . S
C246 C248 1.378 . S
C246 C250 1.350 . S
C247 C250 1.463 . S
C247 C252 1.350 . S
C247 N255 1.427 . S
C248 H239 0.930 1_655 S
C248 C246 1.378 . S
C248 C249 1.367 . S
C249 C248 1.367 . S
C249 C251 1.433 . S
C250 C246 1.350 . S
C250 C247 1.463 . S
C250 N254 1.427 . S
C251 H241 0.929 . S
C251 C249 1.433 . S
C251 N254 1.384 . S
C252 H243 0.929 . S
C252 C244 1.378 . S
C252 C247 1.350 . S
C253 H240 0.929 . S
C253 C245 1.433 . S
C253 N255 1.384 . S
N254 C250 1.427 . S
N254 C251 1.384 . S
N255 C247 1.427 . S
N255 C253 1.384 . S
H256 C262 0.930 . S
H257 C266 0.930 . S
H258 C271 0.929 . S
H259 C269 0.929 . S
H260 C264 0.929 . S
H261 C270 0.929 . S
C262 H256 0.930 . S
C262 C263 1.367 . S
C262 C270 1.378 . S
C263 C262 1.367 . S
C263 C271 1.433 . S
C264 H260 0.929 . S
C264 C266 1.378 . S
C264 C268 1.350 . S
C265 C268 1.463 . S
C265 C270 1.350 . S
C265 N273 1.427 . S
C266 H257 0.930 . S
C266 C264 1.378 . S
C266 C267 1.367 . S
C267 C266 1.367 . S
C267 C269 1.433 . S
C268 C264 1.350 . S
C268 C265 1.463 . S
C268 N272 1.427 . S
C269 H259 0.929 . S
C269 C267 1.433 . S
C269 N272 1.384 . S
C270 H261 0.929 . S
C270 C262 1.378 . S
C270 C265 1.350 . S
C271 H258 0.929 . S
C271 C263 1.433 . S
C271 N273 1.384 . S
N272 C268 1.427 . S
N272 C269 1.384 . S
N273 C265 1.427 . S
N273 C271 1.384 . S
H274 C280 0.930 . S
H275 C284 0.930 . S
H276 C289 0.929 . S
H277 C287 0.929 . S
H278 C282 0.929 . S
H279 C288 0.929 . S
C280 H274 0.930 . S
C280 C281 1.367 . S
C280 C288 1.378 . S
C281 C280 1.367 . S
C281 C289 1.433 . S
C282 H278 0.929 . S
C282 C284 1.378 . S
C282 C286 1.350 . S
C283 C286 1.463 . S
C283 C288 1.350 . S
C283 N291 1.427 . S
C284 H275 0.930 . S
C284 C282 1.378 . S
C284 C285 1.367 . S
C285 C284 1.367 . S
C285 C287 1.433 . S
C286 C282 1.350 . S
C286 C283 1.463 . S
C286 N290 1.427 . S
C287 H277 0.929 . S
C287 C285 1.433 . S
C287 N290 1.384 . S
C288 H279 0.929 . S
C288 C280 1.378 . S
C288 C283 1.350 . S
C289 H276 0.929 . S
C289 C281 1.433 . S
C289 N291 1.384 . S
N290 C286 1.427 . S
N290 C287 1.384 . S
N291 C283 1.427 . S
N291 C289 1.384 . S
H292 C298 0.930 . S
H293 C302 0.930 . S
H294 C307 0.929 . S
H295 C305 0.929 . S
H296 C300 0.929 . S
H297 C306 0.929 . S
C298 H292 0.930 . S
C298 C299 1.367 . S
C298 C306 1.378 . S
C299 C298 1.367 . S
C299 C307 1.433 . S
C300 H296 0.929 . S
C300 C302 1.378 . S
C300 C304 1.350 . S
C301 C304 1.463 . S
C301 C306 1.350 . S
C301 N309 1.427 . S
C302 H293 0.930 . S
C302 C300 1.378 . S
C302 C303 1.367 . S
C303 C302 1.367 . S
C303 C305 1.433 . S
C304 C300 1.350 . S
C304 C301 1.463 . S
C304 N308 1.427 . S
C305 H295 0.929 . S
C305 C303 1.433 . S
C305 N308 1.384 . S
C306 H297 0.929 . S
C306 C298 1.378 . S
C306 C301 1.350 . S
C307 H294 0.929 . S
C307 C299 1.433 . S
C307 N309 1.384 . S
N308 C304 1.427 . S
N308 C305 1.384 . S
N309 C301 1.427 . S
N309 C307 1.384 . S
C105 C59 1.397 . S
C101 C4 1.483 . S
C123 C55 1.407 . S
C119 C17 1.488 . S
C141 C80 1.411 . S
C137 C30 1.468 . S
C155 C43 1.474 . S
C159 C76 1.418 . S
C173 C9 1.246 . S
C177 C77 1.135 . S
C195 C92 1.131 . S
C191 C22 1.259 . S
C209 C8 1.729 . S
C213 C93 1.578 . S
C231 C89 1.589 . S
C227 C21 1.738 . S
C249 C56 1.122 . S
C245 C35 1.239 . S
C263 C48 1.265 . S
C267 C71 1.140 . S
C285 C72 1.586 . S
C281 C34 1.729 . S
C303 C68 1.589 . S
C299 C47 1.739 . S
