# Generated by pormake.
# Topology pyr, (3,6)-cn, num edge types: 1
# Building blocks:
#     Node 0, Type 0, BuildingBlock: CUQRIR_clean_linker_1, # of connection points: 3
#     Node 1, Type 0, BuildingBlock: CUQRIR_clean_linker_1, # of connection points: 3
#     Node 2, Type 0, BuildingBlock: CUQRIR_clean_linker_1, # of connection points: 3
#     Node 3, Type 0, BuildingBlock: CUQRIR_clean_linker_1, # of connection points: 3
#     Node 4, Type 0, BuildingBlock: CUQRIR_clean_linker_1, # of connection points: 3
#     Node 5, Type 0, BuildingBlock: CUQRIR_clean_linker_1, # of connection points: 3
#     Node 6, Type 0, BuildingBlock: CUQRIR_clean_linker_1, # of connection points: 3
#     Node 7, Type 0, BuildingBlock: CUQRIR_clean_linker_1, # of connection points: 3
#     Node 8, Type 1, BuildingBlock: BETGAK_clean_sbu_0, # of connection points: 6
#     Node 9, Type 1, BuildingBlock: BETGAK_clean_sbu_0, # of connection points: 6
#     Node 10, Type 1, BuildingBlock: BETGAK_clean_sbu_0, # of connection points: 6
#     Node 11, Type 1, BuildingBlock: BETGAK_clean_sbu_0, # of connection points: 6
#     Edge 12, Type (0, 1), BuildingBlock: ZUJKAS_clean_linker_0, # of connection points: 2
#     Edge 13, Type (0, 1), BuildingBlock: ZUJKAS_clean_linker_0, # of connection points: 2
#     Edge 14, Type (0, 1), BuildingBlock: ZUJKAS_clean_linker_0, # of connection points: 2
#     Edge 15, Type (0, 1), BuildingBlock: ZUJKAS_clean_linker_0, # of connection points: 2
#     Edge 16, Type (0, 1), BuildingBlock: ZUJKAS_clean_linker_0, # of connection points: 2
#     Edge 17, Type (0, 1), BuildingBlock: ZUJKAS_clean_linker_0, # of connection points: 2
#     Edge 18, Type (0, 1), BuildingBlock: ZUJKAS_clean_linker_0, # of connection points: 2
#     Edge 19, Type (0, 1), BuildingBlock: ZUJKAS_clean_linker_0, # of connection points: 2
#     Edge 20, Type (0, 1), BuildingBlock: ZUJKAS_clean_linker_0, # of connection points: 2
#     Edge 21, Type (0, 1), BuildingBlock: ZUJKAS_clean_linker_0, # of connection points: 2
#     Edge 22, Type (0, 1), BuildingBlock: ZUJKAS_clean_linker_0, # of connection points: 2
#     Edge 23, Type (0, 1), BuildingBlock: ZUJKAS_clean_linker_0, # of connection points: 2
#     Edge 24, Type (0, 1), BuildingBlock: ZUJKAS_clean_linker_0, # of connection points: 2
#     Edge 25, Type (0, 1), BuildingBlock: ZUJKAS_clean_linker_0, # of connection points: 2
#     Edge 26, Type (0, 1), BuildingBlock: ZUJKAS_clean_linker_0, # of connection points: 2
#     Edge 27, Type (0, 1), BuildingBlock: ZUJKAS_clean_linker_0, # of connection points: 2
#     Edge 28, Type (0, 1), BuildingBlock: ZUJKAS_clean_linker_0, # of connection points: 2
#     Edge 29, Type (0, 1), BuildingBlock: ZUJKAS_clean_linker_0, # of connection points: 2
#     Edge 30, Type (0, 1), BuildingBlock: ZUJKAS_clean_linker_0, # of connection points: 2
#     Edge 31, Type (0, 1), BuildingBlock: ZUJKAS_clean_linker_0, # of connection points: 2
#     Edge 32, Type (0, 1), BuildingBlock: ZUJKAS_clean_linker_0, # of connection points: 2
#     Edge 33, Type (0, 1), BuildingBlock: ZUJKAS_clean_linker_0, # of connection points: 2
#     Edge 34, Type (0, 1), BuildingBlock: ZUJKAS_clean_linker_0, # of connection points: 2
#     Edge 35, Type (0, 1), BuildingBlock: ZUJKAS_clean_linker_0, # of connection points: 2
# Relax obj value: 0.158
# Max RMSD: 0.249
# Mean RMSD: 0.165
data_MOF--net-pyr--node1-BETGAK_clean_sbu_0--node2-CUQRIR_clean_linker_1--edge1-ZUJKAS_clean_linker_0
_symmetry_space_group_name_H-M    P1
_symmetry_Int_Tables_number       1
_symmetry_cell_setting            triclinic
loop_
_symmetry_equiv_pos_as_xyz
'x, y, z'
_cell_length_a     46.578007
_cell_length_b     48.834783
_cell_length_c     43.892416
_cell_angle_alpha  90.365434
_cell_angle_beta   89.81887
_cell_angle_gamma 102.86126
loop_
_atom_site_label
_atom_site_type_symbol
_atom_site_fract_x
_atom_site_fract_y
_atom_site_fract_z
_atom_type_partial_charge
C0 C 0.32441 0.34524 0.22462 0.0
N1 N 0.33559 0.32261 0.23084 0.0
N2 N 0.33633 0.35796 0.19876 0.0
C3 C 0.29916 0.35294 0.24164 0.0
C4 C 0.35541 0.34223 0.18961 0.0
N5 N 0.35516 0.32091 0.20927 0.0
C6 C 0.37143 0.34554 0.15964 0.0
H7 H 0.27875 0.34637 0.22799 0.0
H8 H 0.30332 0.376 0.24498 0.0
H9 H 0.29579 0.34272 0.26427 0.0
H10 H 0.37132 0.36613 0.14915 0.0
H11 H 0.36061 0.32844 0.14398 0.0
H12 H 0.39451 0.34363 0.16288 0.0
C13 C 0.31598 0.92285 0.59032 0.0
N14 N 0.31293 0.93673 0.61645 0.0
N15 N 0.33882 0.91003 0.59242 0.0
C16 C 0.29802 0.92358 0.56199 0.0
C17 C 0.34971 0.91689 0.62079 0.0
N18 N 0.33416 0.93347 0.6352 0.0
C19 C 0.37337 0.90503 0.6356 0.0
H20 H 0.27751 0.90695 0.56333 0.0
H21 H 0.31042 0.91992 0.5413 0.0
H22 H 0.29174 0.94413 0.56 0.0
H23 H 0.39519 0.91842 0.62977 0.0
H24 H 0.37265 0.88338 0.62731 0.0
H25 H 0.371 0.90464 0.66076 0.0
C26 C 0.63824 0.38421 0.86214 0.0
N27 N 0.65553 0.38043 0.88618 0.0
N28 N 0.64716 0.41031 0.84992 0.0
C29 C 0.61121 0.36315 0.85198 0.0
C30 C 0.67055 0.42233 0.86761 0.0
N31 N 0.6756 0.40449 0.8897 0.0
C32 C 0.68963 0.45109 0.86223 0.0
H33 H 0.61775 0.34856 0.83522 0.0
H34 H 0.5952 0.37369 0.84096 0.0
H35 H 0.60035 0.35067 0.87155 0.0
H36 H 0.68161 0.46651 0.87676 0.0
H37 H 0.68874 0.45736 0.83806 0.0
H38 H 0.71286 0.4518 0.86843 0.0
C39 C 0.84509 0.7106 0.35964 0.0
N40 N 0.87089 0.72924 0.35322 0.0
N41 N 0.83094 0.71924 0.38382 0.0
C42 C 0.83353 0.68381 0.34213 0.0
C43 C 0.84923 0.74392 0.39201 0.0
N44 N 0.87351 0.75017 0.37371 0.0
C45 C 0.84351 0.76194 0.41836 0.0
H46 H 0.84004 0.68589 0.31782 0.0
H47 H 0.80918 0.67749 0.34354 0.0
H48 H 0.84292 0.66687 0.35204 0.0
H49 H 0.86429 0.77304 0.4293 0.0
H50 H 0.8294 0.74918 0.43585 0.0
H51 H 0.83213 0.77801 0.40976 0.0
C52 C 0.70173 0.83896 0.88649 0.0
N53 N 0.72344 0.8327 0.86904 0.0
N54 N 0.69054 0.85934 0.87336 0.0
C55 C 0.69104 0.82498 0.9161 0.0
C56 C 0.7063 0.86534 0.84732 0.0
N57 N 0.72613 0.84899 0.84459 0.0
C58 C 0.70469 0.88942 0.8266 0.0
H59 H 0.69383 0.803 0.91631 0.0
H60 H 0.66752 0.8252 0.9199 0.0
H61 H 0.70405 0.83663 0.9351 0.0
H62 H 0.69983 0.90732 0.83978 0.0
H63 H 0.68656 0.88232 0.81006 0.0
H64 H 0.72547 0.89678 0.81372 0.0
C65 C 0.76285 0.24542 0.53021 0.0
N66 N 0.76385 0.22665 0.50754 0.0
N67 N 0.73929 0.25697 0.52662 0.0
C68 C 0.78421 0.25206 0.55621 0.0
C69 C 0.7259 0.24462 0.5012 0.0
N70 N 0.74066 0.22599 0.48977 0.0
C71 C 0.69891 0.25136 0.487 0.0
H72 H 0.77372 0.25961 0.57638 0.0
H73 H 0.80313 0.26896 0.54917 0.0
H74 H 0.79262 0.23331 0.56251 0.0
H75 H 0.70105 0.25193 0.46181 0.0
H76 H 0.69492 0.27167 0.49529 0.0
H77 H 0.67947 0.23458 0.49292 0.0
C78 C 0.35053 0.72458 0.24471 0.0
N79 N 0.37573 0.74359 0.25213 0.0
N80 N 0.3358 0.73406 0.22182 0.0
C81 C 0.33974 0.69701 0.26071 0.0
C82 C 0.35301 0.75971 0.21553 0.0
N83 N 0.37724 0.76572 0.23379 0.0
C84 C 0.34653 0.77874 0.19082 0.0
H85 H 0.31543 0.6901 0.2593 0.0
H86 H 0.34636 0.69858 0.28502 0.0
H87 H 0.34972 0.68085 0.24967 0.0
H88 H 0.33337 0.76648 0.17227 0.0
H89 H 0.36703 0.79158 0.18092 0.0
H90 H 0.33376 0.79328 0.20077 0.0
C91 C 0.1445 0.39628 0.74585 0.0
N92 N 0.1624 0.39259 0.72209 0.0
N93 N 0.1527 0.42252 0.75829 0.0
C94 C 0.11744 0.375 0.7554 0.0
C95 C 0.17633 0.43472 0.74094 0.0
N96 N 0.18219 0.41688 0.71885 0.0
C97 C 0.19514 0.46352 0.74707 0.0
H98 H 0.10736 0.3621 0.73567 0.0
H99 H 0.10085 0.38539 0.76576 0.0
H100 H 0.12374 0.36083 0.77257 0.0
H101 H 0.19369 0.46961 0.77133 0.0
H102 H 0.18734 0.479 0.73271 0.0
H103 H 0.21852 0.46435 0.7413 0.0
La104 La 0.04228 0.0829 0.50702 0.0
La105 La 0.03135 0.0586 0.56868 0.0
C106 C 0.04864 0.11103 0.45864 0.0
C107 C 0.07448 0.12958 0.44435 0.0
C108 C 0.08521 0.1211 0.41675 0.0
C109 C 0.11186 0.1359 0.40471 0.0
C110 C 0.1281 0.15978 0.41975 0.0
C111 C 0.11679 0.16913 0.44662 0.0
C112 C 0.09028 0.15401 0.45901 0.0
C113 C 0.08531 0.06209 0.53001 0.0
C114 C 0.06034 0.12322 0.56571 0.0
C115 C 0.03025 1.0289 0.61559 0.0
C116 C 1.00974 1.00404 0.62751 0.0
C117 C 0.98158 0.99519 0.61482 0.0
C118 C 0.96075 0.97383 0.62861 0.0
C119 C 0.96778 0.96085 0.65527 0.0
C120 C 0.9966 0.96885 0.6669 0.0
C121 C 0.01737 0.99036 0.65317 0.0
C122 C 0.98911 0.08141 0.54844 0.0
C123 C 1.01021 1.01931 0.50959 0.0
O124 O 0.05011 0.08469 0.46006 0.0
O125 O 0.03838 0.1196 0.48395 0.0
O126 O 0.07905 0.06147 0.50142 0.0
O127 O 0.06962 0.07574 0.54365 0.0
O128 O 0.05238 0.12133 0.53649 0.0
O129 O 0.05846 0.09995 0.58186 0.0
O130 O 0.01978 0.05158 0.6145 0.0
O131 O 0.04453 1.02526 0.5907 0.0
O132 O 0.99578 0.08009 0.57686 0.0
O133 O 1.0034 0.06738 0.5328 0.0
O134 O 0.01855 1.02061 0.53866 0.0
O135 O 1.01262 0.04289 0.49398 0.0
H136 H 0.07343 0.10239 0.405 0.0
H137 H 0.11993 0.12854 0.3837 0.0
H138 H 0.12895 0.18756 0.45855 0.0
H139 H 0.08266 0.16101 0.48041 0.0
H140 H 0.97537 1.00558 0.59495 0.0
H141 H 0.93873 0.9685 0.6192 0.0
H142 H 1.00291 0.95896 0.68706 0.0
H143 H 0.0391 0.99689 0.66313 0.0
La144 La 0.55208 0.08532 0.0889 0.0
La145 La 0.49327 0.06949 0.05635 0.0
C146 C 0.60177 0.11165 0.10715 0.0
C147 C 0.61643 0.11627 0.13691 0.0
C148 C 0.61024 0.09575 0.15969 0.0
C149 C 0.62349 0.10082 0.18826 0.0
C150 C 0.64301 0.1266 0.19466 0.0
C151 C 0.64942 0.14696 0.1716 0.0
C152 C 0.63623 0.14181 0.14296 0.0
C153 C 0.51919 0.03921 0.11577 0.0
C154 C 0.49652 0.10441 0.11511 0.0
C155 C 0.44556 0.04563 0.03111 0.0
C156 C 0.4353 1.03608 1.00023 0.0
C157 C 0.41362 0.04763 0.98638 0.0
C158 C 0.40352 0.03915 0.95714 0.0
C159 C 0.41473 1.01872 0.94127 0.0
C160 C 0.43624 1.00693 0.95525 0.0
C161 C 0.44651 1.01558 0.98444 0.0
C162 C 0.52668 0.11996 0.04181 0.0
C163 C 0.54734 0.04757 0.02942 0.0
O164 O 0.59653 0.08587 0.09657 0.0
O165 O 0.5793 0.12338 0.10355 0.0
O166 O 0.54523 0.05228 0.12426 0.0
O167 O 0.5127 0.05318 0.0937 0.0
O168 O 0.52536 0.11144 0.11087 0.0
O169 O 0.47998 0.08313 0.10017 0.0
O170 O 0.45389 0.07278 0.03504 0.0
O171 O 0.4631 1.03214 0.04486 0.0
O172 O 0.49822 0.11367 0.04323 0.0
O173 O 0.53546 0.09761 0.04668 0.0
O174 O 0.51897 0.04735 1.02753 0.0
O175 O 0.56471 0.06265 0.05007 0.0
H176 H 0.595 0.07586 0.15553 0.0
H177 H 0.61837 0.08457 0.20536 0.0
H178 H 0.664 0.16719 0.17592 0.0
H179 H 0.64114 0.15793 0.12568 0.0
H180 H 0.40448 0.0633 0.9982 0.0
H181 H 0.3867 0.04836 0.94707 0.0
H182 H 0.44547 0.99134 0.94342 0.0
H183 H 0.46325 1.00627 0.99452 0.0
La184 La 0.50424 0.54474 0.52663 0.0
La185 La 0.50355 0.5901 0.56677 0.0
C186 C 0.52032 0.50596 0.49785 0.0
C187 C 0.53891 0.48679 0.50721 0.0
C188 C 0.53038 0.45815 0.50008 0.0
C189 C 0.54675 0.43946 0.51078 0.0
C190 C 0.57191 0.44916 0.52885 0.0
C191 C 0.5805 0.47793 0.53578 0.0
C192 C 0.56416 0.49657 0.52506 0.0
C193 C 0.45243 0.53946 0.5546 0.0
C194 C 0.52811 0.54276 0.59564 0.0
C195 C 0.48697 0.62917 0.59381 0.0
C196 C 0.47784 0.65331 0.58017 0.0
C197 C 0.4952 0.66962 0.55765 0.0
C198 C 0.48407 0.68921 0.54101 0.0
C199 C 0.45528 0.69239 0.54624 0.0
C200 C 0.43826 0.6766 0.56925 0.0
C201 C 0.4495 0.65731 0.58614 0.0
C202 C 0.55537 0.59521 0.53893 0.0
C203 C 0.48166 0.59409 0.49725 0.0
O204 O 0.49504 0.50261 0.51186 0.0
O205 O 0.53349 0.53245 0.49574 0.0
O206 O 0.45601 0.53402 0.52605 0.0
O207 O 0.47771 0.54779 0.56651 0.0
O208 O 0.52912 0.53442 0.56686 0.0
O209 O 0.51522 0.56353 0.60223 0.0
O210 O 0.51471 0.62832 0.5908 0.0
O211 O 0.4694 0.60491 0.58776 0.0
O212 O 0.55178 0.60192 0.56707 0.0
O213 O 0.53014 0.58682 0.52713 0.0
O214 O 0.48283 0.60375 0.52561 0.0
O215 O 0.49096 0.57094 0.49114 0.0
H216 H 0.5108 0.45017 0.48663 0.0
H217 H 0.53942 0.41735 0.50532 0.0
H218 H 0.59997 0.4861 0.54929 0.0
H219 H 0.57118 0.51859 0.53106 0.0
H220 H 0.51696 0.6666 0.5521 0.0
H221 H 0.4976 0.70125 0.52346 0.0
H222 H 0.41619 0.67916 0.57414 0.0
H223 H 0.43565 0.64474 0.60312 0.0
La224 La 1.00603 0.54609 0.0742 0.0
La225 La 1.00181 0.59836 0.0396 0.0
C226 C 0.02175 0.50436 0.09665 0.0
C227 C 0.04998 0.49621 0.10087 0.0
C228 C 0.0521 0.47588 0.12256 0.0
C229 C 0.07889 0.46821 0.12734 0.0
C230 C 0.10412 0.48085 0.11056 0.0
C231 C 0.10184 0.50123 0.08871 0.0
C232 C 0.07499 0.50885 0.08392 0.0
C233 C 0.97834 0.58112 0.10373 0.0
C234 C 0.06083 0.59895 0.07486 0.0
C235 C 0.98628 0.64321 1.02772 0.0
C236 C 0.96743 0.6533 1.00551 0.0
C237 C 0.97567 0.68097 0.99496 0.0
C238 C 0.95656 0.69201 0.97661 0.0
C239 C 0.92876 0.67556 0.96874 0.0
C240 C 0.92105 0.64747 0.97836 0.0
C241 C 0.94027 0.63639 0.99647 0.0
C242 C 0.02388 0.56473 1.00147 0.0
C243 C 0.94979 0.54256 0.03347 0.0
O244 O 0.01813 0.52599 0.1127 0.0
O245 O 1.01294 0.50537 0.06846 0.0
O246 O 0.97067 0.55389 0.10448 0.0
O247 O 1.00101 0.58748 0.08699 0.0
O248 O 0.05148 0.57136 0.07765 0.0
O249 O 0.04379 0.61448 0.0629 0.0
O250 O 1.01076 0.63746 1.0174 0.0
O251 O 0.97262 0.62449 0.04725 0.0
O252 O 0.01903 0.5891 0.99467 0.0
O253 O 0.01616 0.56051 1.02912 0.0
O254 O 0.95844 0.5702 0.02982 0.0
O255 O 0.96619 0.5282 0.0484 0.0
H256 H 0.033 0.4659 0.13581 0.0
H257 H 0.07972 0.45211 0.14396 0.0
H258 H 0.12088 0.51154 0.07561 0.0
H259 H 0.07377 0.52465 0.06706 0.0
H260 H 0.99651 0.69435 1.00173 0.0
H261 H 0.96299 0.71378 0.96973 0.0
H262 H 0.8999 0.63423 0.97234 0.0
H263 H 0.93349 0.61489 1.00416 0.0
H264 H 0.36076 0.30568 0.28055 0.0
H265 H 0.33601 0.27116 0.31852 0.0
H266 H 0.25657 0.25641 0.26466 0.0
H267 H 0.28147 0.29015 0.22697 0.0
H268 H 0.28833 0.27532 0.35239 0.0
H269 H 0.26085 0.1774 0.28534 0.0
H270 H 0.288 0.20766 0.27274 0.0
H271 H 0.24942 0.20488 0.2651 0.0
C272 C 0.33823 0.29446 0.27682 0.0
C273 C 0.32274 0.30039 0.25128 0.0
C274 C 0.32413 0.27491 0.29836 0.0
C275 C 0.29456 0.26091 0.2942 0.0
C276 C 0.27956 0.26636 0.26803 0.0
H277 H 0.14645 0.21546 0.4069 0.0
H278 H 0.19207 0.2386 0.38132 0.0
C279 C 0.2936 0.28576 0.24668 0.0
C280 C 0.27798 0.24275 0.3182 0.0
H281 H 0.22661 0.18162 0.32652 0.0
C282 C 0.27536 0.25452 0.34706 0.0
C283 C 0.2616 0.21536 0.31159 0.0
C284 C 0.2654 0.20052 0.28209 0.0
C285 C 0.2549 0.24056 0.3685 0.0
C286 C 0.23606 0.21458 0.36045 0.0
C287 C 0.24054 0.20181 0.33259 0.0
C288 C 0.2101 0.20134 0.37914 0.0
C289 C 0.25337 0.2541 0.39927 0.0
C290 C 0.20468 0.17259 0.38599 0.0
C291 C 0.17829 0.15926 0.39987 0.0
C292 C 0.15694 0.17447 0.4074 0.0
C293 C 0.16274 0.20339 0.40159 0.0
C294 C 0.18893 0.21664 0.38722 0.0
H295 H 0.27533 0.26672 0.40612 0.0
H296 H 0.23817 0.26862 0.398 0.0
H297 H 0.24534 0.23824 0.41715 0.0
H298 H 0.22057 0.1603 0.37988 0.0
H299 H 0.17436 0.13694 0.40435 0.0
H300 H 0.2965 0.92365 0.68265 0.0
H301 H 0.30727 0.93919 0.73566 0.0
H302 H 0.39393 0.98431 0.70824 0.0
H303 H 0.38321 0.96813 0.65559 0.0
H304 H 0.39624 0.95135 0.75633 0.0
H305 H 0.3125 1.01425 0.77738 0.0
H306 H 0.29727 0.97909 0.76446 0.0
H307 H 0.32098 1.00335 0.73967 0.0
C308 C 0.31756 0.93731 0.68811 0.0
C309 C 0.3391 0.94487 0.66545 0.0
C310 C 0.3237 0.94624 0.71822 0.0
C311 C 0.35132 0.96317 0.72586 0.0
C312 C 0.37249 0.97129 0.70287 0.0
H313 H 0.40675 0.05234 0.89402 0.0
H314 H 0.39043 1.03799 0.84223 0.0
C315 C 0.36642 0.96217 0.67293 0.0
C316 C 0.35912 0.97089 0.75799 0.0
H317 H 0.3395 1.00464 0.82043 0.0
C318 C 0.38387 0.96307 0.77033 0.0
C319 C 0.34307 0.98635 0.77612 0.0
C320 C 0.31714 0.9965 0.7637 0.0
C321 C 0.3931 0.9703 0.80025 0.0
C322 C 0.37665 0.98514 0.81866 0.0
C323 C 0.3519 0.99302 0.80635 0.0
C324 C 0.38542 0.99352 0.85041 0.0
C325 C 0.42087 0.96264 0.81153 0.0
C326 C 0.38758 0.97324 0.8723 0.0
C327 C 0.39711 0.9814 0.90183 0.0
C328 C 0.40419 1.00996 0.9101 0.0
C329 C 0.40127 1.03017 0.88834 0.0
C330 C 0.39199 1.02201 0.85877 0.0
H331 H 0.43493 0.95831 0.79239 0.0
H332 H 0.434 0.9797 0.82588 0.0
H333 H 0.41491 0.94336 0.82553 0.0
H334 H 0.38193 0.9511 0.86655 0.0
H335 H 0.39867 0.96536 0.91828 0.0
H336 H 0.63027 0.46014 0.84845 0.0
H337 H 0.61051 0.48151 0.80502 0.0
H338 H 0.6156 0.4098 0.74925 0.0
H339 H 0.636 0.38872 0.79267 0.0
H340 H 0.63569 0.45933 0.71806 0.0
H341 H 0.52807 0.46193 0.7703 0.0
H342 H 0.55882 0.47937 0.79295 0.0
H343 H 0.55263 0.44209 0.78644 0.0
C344 C 0.62719 0.44894 0.82692 0.0
C345 C 0.63467 0.42261 0.8242 0.0
C346 C 0.61558 0.46107 0.80204 0.0
C347 C 0.6109 0.44725 0.77357 0.0
C348 C 0.61867 0.42103 0.77077 0.0
H349 H 0.54903 0.49392 0.59316 0.0
H350 H 0.56872 0.47023 0.63463 0.0
C351 C 0.6302 0.40884 0.79572 0.0
C352 C 0.59845 0.46032 0.74679 0.0
H353 H 0.53982 0.48722 0.72425 0.0
C354 C 0.61463 0.46526 0.71942 0.0
C355 C 0.57092 0.46823 0.7481 0.0
C356 C 0.55143 0.46242 0.77589 0.0
C357 C 0.60466 0.47847 0.69408 0.0
C358 C 0.57718 0.48659 0.69546 0.0
C359 C 0.56089 0.48132 0.72277 0.0
C360 C 0.5651 0.50102 0.66939 0.0
C361 C 0.62439 0.48447 0.66647 0.0
C362 C 0.55527 0.52596 0.67454 0.0
C363 C 0.5435 0.53937 0.65078 0.0
C364 C 0.54111 0.5284 0.62085 0.0
C365 C 0.5508 0.50337 0.61565 0.0
C366 C 0.56236 0.4898 0.63953 0.0
H367 H 0.64773 0.48515 0.67232 0.0
H368 H 0.61738 0.46746 0.64939 0.0
H369 H 0.62317 0.50476 0.65587 0.0
H370 H 0.55682 0.53528 0.69711 0.0
H371 H 0.53632 0.55851 0.65595 0.0
H372 H 0.86592 0.74014 0.29337 0.0
H373 H 0.88711 0.71827 0.25085 0.0
H374 H 0.94099 0.68511 0.31425 0.0
H375 H 0.91845 0.70589 0.35672 0.0
H376 H 0.93509 0.71761 0.22265 0.0
H377 H 0.90356 0.61321 0.2762 0.0
H378 H 0.89315 0.64357 0.29232 0.0
H379 H 0.92928 0.63727 0.29927 0.0
C380 C 0.88312 0.72907 0.29809 0.0
C381 C 0.89085 0.72538 0.32859 0.0
C382 C 0.89503 0.71609 0.27367 0.0
C383 C 0.91519 0.69885 0.27879 0.0
C384 C 0.92474 0.69715 0.30915 0.0
H385 H 1.00669 0.63465 0.12256 0.0
H386 H 0.99287 0.66324 0.16393 0.0
C387 C 0.91244 0.70979 0.33361 0.0
C388 C 0.92511 0.6821 0.25271 0.0
H389 H 0.93287 0.6161 0.23167 0.0
C390 C 0.93452 0.69539 0.22479 0.0
C391 C 0.92395 0.65274 0.25443 0.0
C392 C 0.91164 0.63578 0.28201 0.0
C393 C 0.94286 0.68067 0.19934 0.0
C394 C 0.94297 0.65158 0.20156 0.0
C395 C 0.93335 0.63829 0.22941 0.0
C396 C 0.95185 0.63426 0.17536 0.0
C397 C 0.95031 0.69649 0.16993 0.0
C398 C 0.93441 0.60754 0.16776 0.0
C399 C 0.94279 0.59078 0.14442 0.0
C400 C 0.96884 0.60006 0.12742 0.0
C401 C 0.98626 0.62681 0.13469 0.0
C402 C 0.97812 0.64342 0.15843 0.0
H403 H 0.93986 0.71481 0.16877 0.0
H404 H 0.9745 0.70463 0.16857 0.0
H405 H 0.94308 0.6828 0.14984 0.0
H406 H 0.91409 0.59946 0.17997 0.0
H407 H 0.92877 0.57034 0.13974 0.0
H408 H 0.32807 0.26776 0.19521 0.0
H409 H 0.35158 0.22816 0.18576 0.0
H410 H 0.43677 0.28259 0.20213 0.0
H411 H 0.41297 0.32196 0.21223 0.0
H412 H 0.39243 0.22576 0.14034 0.0
H413 H 0.43986 0.21387 0.25402 0.0
H414 H 0.41163 0.23338 0.24832 0.0
H415 H 0.44937 0.24894 0.23922 0.0
C416 C 0.35174 0.27096 0.19727 0.0
C417 C 0.36886 0.29758 0.20463 0.0
C418 C 0.36516 0.24848 0.1918 0.0
C419 C 0.3959 0.25231 0.19372 0.0
C420 C 0.41299 0.279 0.2012 0.0
H421 H 0.52198 0.15469 0.14205 0.0
H422 H 0.49677 0.18918 0.16384 0.0
C423 C 0.39952 0.30146 0.20669 0.0
C424 C 0.41015 0.2289 0.18577 0.0
H425 H 0.45567 0.18861 0.21292 0.0
C426 C 0.40603 0.21746 0.15629 0.0
C427 C 0.42803 0.21823 0.20659 0.0
C428 C 0.43233 0.22903 0.23891 0.0
C429 C 0.4198 0.19606 0.1468 0.0
C430 C 0.43774 0.18541 0.16757 0.0
C431 C 0.44181 0.19675 0.19711 0.0
C432 C 0.45303 0.16304 0.15846 0.0
C433 C 0.41571 0.18561 0.11431 0.0
C434 C 0.43685 0.13647 0.14943 0.0
C435 C 0.45115 0.11672 0.1369 0.0
C436 C 0.48195 0.12312 0.13333 0.0
C437 C 0.49824 0.14907 0.14434 0.0
C438 C 0.48387 0.16885 0.1568 0.0
H439 H 0.40707 0.20031 0.09953 0.0
H440 H 0.43682 0.18259 0.10454 0.0
H441 H 0.39971 0.16504 0.11382 0.0
H442 H 0.41305 0.13139 0.15108 0.0
H443 H 0.43792 0.09687 0.12893 0.0
H444 H 0.25491 0.91544 0.61559 0.0
H445 H 0.2167 0.94245 0.61232 0.0
H446 H 0.28199 1.01892 0.62883 0.0
H447 H 0.32049 0.99163 0.6308 0.0
H448 H 0.1941 0.98038 0.64497 0.0
H449 H 0.25511 1.02945 0.54263 0.0
H450 H 0.26493 1.00058 0.56228 0.0
H451 H 0.27493 1.03552 0.57794 0.0
C452 C 0.26082 0.93795 0.61918 0.0
C453 C 0.29039 0.95173 0.62274 0.0
C454 C 0.23909 0.95335 0.61747 0.0
C455 C 0.24669 0.98274 0.6195 0.0
C456 C 0.27586 0.99628 0.62647 0.0
H457 H 0.1057 0.07217 0.58769 0.0
H458 H 0.14559 0.05524 0.61182 0.0
C459 C 0.29771 0.98079 0.62788 0.0
C460 C 0.22482 0.99877 0.61007 0.0
H461 H 0.20923 0.03962 0.55236 0.0
C462 C 0.19747 0.99368 0.62499 0.0
C463 C 0.22919 1.01559 0.58357 0.0
C464 C 0.25749 1.0205 0.56545 0.0
C465 C 0.174 1.00421 0.61355 0.0
C466 C 0.17838 1.0209 0.58698 0.0
C467 C 0.20603 1.02681 0.57273 0.0
C468 C 0.15426 1.03129 0.57253 0.0
C469 C 0.14439 0.99617 0.62913 0.0
C470 C 0.14652 1.02413 0.54211 0.0
C471 C 0.12411 1.03423 0.52806 0.0
C472 C 0.10908 0.05149 0.54433 0.0
C473 C 0.11688 0.0587 0.57472 0.0
C474 C 0.13949 0.04889 0.58862 0.0
H475 H 0.14281 0.97761 0.64407 0.0
H476 H 0.14109 1.01395 0.64356 0.0
H477 H 0.12627 0.99139 0.6122 0.0
H478 H 0.15777 1.01063 0.52927 0.0
H479 H 0.11841 1.0284 0.50463 0.0
H480 H 0.72575 0.3852 0.88786 0.0
H481 H 0.77202 0.40554 0.91487 0.0
H482 H 0.72808 0.46104 0.96412 0.0
H483 H 0.68213 0.44061 0.9371 0.0
H484 H 0.8029 0.46106 0.91221 0.0
H485 H 0.77386 0.43411 0.03241 0.0
H486 H 0.75214 0.41682 1.00091 0.0
H487 H 0.74824 0.45089 1.01365 0.0
C488 C 0.72579 0.40091 0.90538 0.0
C489 C 0.70005 0.41069 0.91103 0.0
C490 C 0.75236 0.41289 0.92054 0.0
C491 C 0.75385 0.43483 0.94196 0.0
C492 C 0.72774 0.44383 0.94835 0.0
H493 H 0.91144 0.56249 0.99587 0.0
H494 H 0.86482 0.53666 0.97392 0.0
C495 C 0.70132 0.43201 0.93304 0.0
C496 C 0.78287 0.44965 0.9559 0.0
H497 H 0.81804 0.46872 1.02397 0.0
C498 C 0.80616 0.46257 0.93666 0.0
C499 C 0.78762 0.4517 0.98785 0.0
C500 C 0.76427 0.43744 1.00995 0.0
C501 C 0.83345 0.47774 0.94832 0.0
C502 C 0.83789 0.4805 0.98028 0.0
C503 C 0.81483 0.46705 0.99951 0.0
C504 C 0.86641 0.4967 0.99411 0.0
C505 C 0.85753 0.49032 0.92616 0.0
C506 C 0.88297 0.48338 1.01356 0.0
C507 C 0.90977 0.49818 1.02623 0.0
C508 C 0.92082 0.52698 1.0202 0.0
C509 C 0.90394 0.54042 1.00111 0.0
C510 C 0.8772 0.52553 0.98829 0.0
H511 H 0.85363 0.48042 0.90324 0.0
H512 H 0.85826 0.51306 0.92372 0.0
H513 H 0.87935 0.48799 0.93448 0.0
H514 H 0.87534 0.46128 1.01868 0.0
H515 H 0.92184 0.48694 0.04081 0.0
H516 H 0.81387 0.66513 0.40311 0.0
H517 H 0.76667 0.64216 0.42627 0.0
H518 H 0.73775 0.71998 0.42137 0.0
H519 H 0.78409 0.74224 0.39636 0.0
H520 H 0.74107 0.64795 0.4766 0.0
H521 H 0.66599 0.67081 0.38819 0.0
H522 H 0.70525 0.67748 0.38243 0.0
H523 H 0.68899 0.70261 0.40253 0.0
C524 C 0.79719 0.67715 0.40641 0.0
C525 C 0.80283 0.70553 0.39758 0.0
C526 C 0.77016 0.66406 0.41996 0.0
C527 C 0.74786 0.67892 0.42528 0.0
C528 C 0.75377 0.70747 0.41686 0.0
H529 H 0.60711 0.62728 0.56053 0.0
H530 H 0.65261 0.64648 0.53289 0.0
C531 C 0.78063 0.72043 0.40293 0.0
C532 C 0.71912 0.6649 0.44057 0.0
H533 H 0.64394 0.65578 0.43635 0.0
C534 C 0.71989 0.64959 0.46754 0.0
C535 C 0.69101 0.66619 0.42885 0.0
C536 C 0.6877 0.67989 0.39874 0.0
C537 C 0.69396 0.63638 0.48324 0.0
C538 C 0.66596 0.63915 0.47255 0.0
C539 C 0.66511 0.65381 0.44514 0.0
C540 C 0.63752 0.62732 0.4895 0.0
C541 C 0.69703 0.61893 0.51079 0.0
C542 C 0.61275 0.61084 0.47452 0.0
C543 C 0.58618 0.60021 0.49035 0.0
C544 C 0.58358 0.60569 0.52167 0.0
C545 C 0.60826 0.62226 0.53655 0.0
C546 C 0.63459 0.63313 0.5207 0.0
H547 H 0.71744 0.61074 0.50951 0.0
H548 H 0.69855 0.63225 0.53155 0.0
H549 H 0.67794 0.60085 0.51319 0.0
H550 H 0.61398 0.60604 0.45049 0.0
H551 H 0.56765 0.58773 0.47805 0.0
H552 H 0.30606 0.34341 0.14712 0.0
H553 H 0.27258 0.3691 0.12313 0.0
H554 H 0.30032 0.43723 0.18714 0.0
H555 H 0.3344 0.41169 0.21044 0.0
H556 H 0.22739 0.38015 0.15668 0.0
H557 H 0.29269 0.47943 0.10874 0.0
H558 H 0.30865 0.44989 0.1174 0.0
H559 H 0.30247 0.47333 0.14724 0.0
C560 C 0.30588 0.36442 0.15504 0.0
C561 C 0.32277 0.37579 0.18037 0.0
C562 C 0.28665 0.37898 0.14156 0.0
C563 C 0.28403 0.40516 0.15323 0.0
C564 C 0.30236 0.41735 0.17733 0.0
H565 H 0.12811 0.47066 0.16498 0.0
H566 H 0.17278 0.45332 0.17334 0.0
C567 C 0.32171 0.40278 0.19071 0.0
C568 C 0.25914 0.41744 0.14354 0.0
H569 H 0.24122 0.47719 0.11721 0.0
C570 C 0.23047 0.40125 0.14768 0.0
C571 C 0.26315 0.44494 0.13179 0.0
C572 C 0.29341 0.46284 0.12574 0.0
C573 C 0.20573 0.41205 0.14121 0.0
C574 C 0.20971 0.43992 0.1307 0.0
C575 C 0.23831 0.4559 0.1256 0.0
C576 C 0.18421 0.45275 0.12558 0.0
C577 C 0.17544 0.39358 0.14586 0.0
C578 C 0.17633 0.45886 0.096 0.0
C579 C 0.15064 0.46859 0.09109 0.0
C580 C 0.13251 0.47246 0.11574 0.0
C581 C 0.14121 0.46732 0.14545 0.0
C582 C 0.1668 0.45758 0.15029 0.0
H583 H 0.1761 0.37102 0.14728 0.0
H584 H 0.16603 0.39963 0.16749 0.0
H585 H 0.16046 0.39629 0.12704 0.0
H586 H 0.18953 0.45523 0.07665 0.0
H587 H 0.14449 0.47216 0.06793 0.0
H588 H 0.65508 0.32754 0.86728 0.0
H589 H 0.63776 0.28384 0.8957 0.0
H590 H 0.62707 0.33188 0.97595 0.0
H591 H 0.64469 0.37579 0.94726 0.0
H592 H 0.64802 0.28328 0.9902 0.0
H593 H 0.55082 0.2546 0.91467 0.0
H594 H 0.58523 0.26053 0.89455 0.0
H595 H 0.57484 0.28911 0.91456 0.0
C596 C 0.64959 0.32878 0.89116 0.0
C597 C 0.65132 0.35523 0.90493 0.0
C598 C 0.63934 0.30371 0.9074 0.0
C599 C 0.63024 0.30415 0.93801 0.0
C600 C 0.63366 0.33064 0.95239 0.0
H601 H 0.50649 0.16642 1.02717 0.0
H602 H 0.53263 0.21016 1.00379 0.0
C603 C 0.64398 0.35584 0.93605 0.0
C604 C 0.61595 0.27716 0.95421 0.0
H605 H 0.55786 0.21994 0.94956 0.0
C606 C 0.6283 0.26947 0.98126 0.0
C607 C 0.58988 0.25895 0.94312 0.0
C608 C 0.57419 0.26626 0.91532 0.0
C609 C 0.61574 0.24426 0.99698 0.0
C610 C 0.5901 0.2257 0.98539 0.0
C611 C 0.57761 0.23366 0.95857 0.0
C612 C 0.57487 0.19876 1.00125 0.0
C613 C 0.62971 0.23815 1.02636 0.0
C614 C 0.58948 0.17707 1.00807 0.0
C615 C 0.57435 0.15167 1.02169 0.0
C616 C 0.5441 0.14714 1.02872 0.0
C617 C 0.5297 0.16893 1.02212 0.0
C618 C 0.54473 0.19414 1.00859 0.0
H619 H 0.64401 0.25739 0.03629 0.0
H620 H 0.6127 0.22891 0.04342 0.0
H621 H 0.6436 0.22282 1.02185 0.0
H622 H 0.6125 0.17946 1.00225 0.0
H623 H 0.58621 0.13542 1.02625 0.0
H624 H 0.92057 0.75918 0.41134 0.0
H625 H 0.94608 0.80503 0.4319 0.0
H626 H 0.90187 0.84623 0.36617 0.0
H627 H 0.8755 0.80022 0.34676 0.0
H628 H 0.98223 0.85203 0.41752 0.0
H629 H 0.87554 0.88011 0.43995 0.0
H630 H 0.8778 0.84575 0.42642 0.0
H631 H 0.88082 0.87451 0.40015 0.0
C632 C 0.91729 0.77806 0.40042 0.0
C633 C 0.89641 0.77583 0.37682 0.0
C634 C 0.93156 0.80448 0.41258 0.0
C635 C 0.92541 0.82968 0.40162 0.0
C636 C 0.90648 0.82748 0.37618 0.0
H637 H 0.98246 1.00891 0.45376 0.0
H638 H 0.96283 0.96373 0.42843 0.0
C639 C 0.89195 0.80104 0.36432 0.0
C640 C 0.93772 0.85776 0.4175 0.0
H641 H 0.91829 0.91617 0.44828 0.0
C642 C 0.96806 0.86587 0.42427 0.0
C643 C 0.91967 0.8763 0.427 0.0
C644 C 0.88664 0.86863 0.42333 0.0
C645 C 0.98063 0.89164 0.43925 0.0
C646 C 0.96264 0.9103 0.44815 0.0
C647 C 0.93237 0.90226 0.44145 0.0
C648 C 0.97473 0.93817 0.46423 0.0
C649 C 1.01336 0.89898 0.44492 0.0
C650 C 0.98777 0.9395 0.49335 0.0
C651 C 0.99879 0.96553 0.5082 0.0
C652 C 0.99739 0.99125 0.49439 0.0
C653 C 0.98415 0.98982 0.46533 0.0
C654 C 0.97282 0.9638 0.45068 0.0
H655 H 0.02509 0.88579 0.43104 0.0
H656 H 0.02273 0.92143 0.43975 0.0
H657 H 0.01756 0.89555 0.46932 0.0
H658 H 0.98926 0.9203 0.50481 0.0
H659 H 1.0087 0.96548 0.53048 0.0
H660 H 0.30211 0.86681 0.56436 0.0
H661 H 0.31605 0.83003 0.53347 0.0
H662 H 0.40771 0.87064 0.54432 0.0
H663 H 0.39354 0.90889 0.57289 0.0
H664 H 0.39717 0.84316 0.48897 0.0
H665 H 0.34597 0.77437 0.58437 0.0
H666 H 0.3212 0.7907 0.56374 0.0
H667 H 0.35055 0.81192 0.58574 0.0
C668 C 0.32514 0.86843 0.55912 0.0
C669 C 0.34685 0.89039 0.57129 0.0
C670 C 0.33309 0.84728 0.54176 0.0
C671 C 0.36291 0.84723 0.53736 0.0
C672 C 0.38455 0.8702 0.54763 0.0
H673 H 0.48085 0.74728 0.53616 0.0
H674 H 0.4558 0.78355 0.51987 0.0
C675 C 0.37653 0.89178 0.56428 0.0
C676 C 0.37179 0.82168 0.52635 0.0
H677 H 0.37134 0.75471 0.54781 0.0
C678 C 0.39117 0.82362 0.50145 0.0
C679 C 0.36391 0.79622 0.54275 0.0
C680 C 0.34449 0.79312 0.57077 0.0
C681 C 0.40393 0.80109 0.49341 0.0
C682 C 0.39712 0.77625 0.51079 0.0
C683 C 0.37628 0.77373 0.53431 0.0
C684 C 0.41462 0.75452 0.50924 0.0
C685 C 0.42529 0.80436 0.46711 0.0
C686 C 0.40018 0.72609 0.50749 0.0
C687 C 0.41433 0.7054 0.51731 0.0
C688 C 0.44311 0.71293 0.52887 0.0
C689 C 0.45864 0.74101 0.52734 0.0
C690 C 0.44441 0.76173 0.51772 0.0
H691 H 0.4202 0.81922 0.44995 0.0
H692 H 0.44788 0.81305 0.47571 0.0
H693 H 0.42497 0.78387 0.45584 0.0
H694 H 0.37716 0.72013 0.50113 0.0
H695 H 0.40215 0.68375 0.51778 0.0
H696 H 0.72235 0.84082 0.78394 0.0
H697 H 0.76338 0.8501 0.74716 0.0
H698 H 0.82443 0.87654 0.82105 0.0
H699 H 0.7835 0.86675 0.85748 0.0
H700 H 0.79918 0.89989 0.73621 0.0
H701 H 0.86685 0.82679 0.77388 0.0
H702 H 0.82929 0.82366 0.78637 0.0
H703 H 0.85893 0.84803 0.80487 0.0
C704 C 0.74468 0.8482 0.79207 0.0
C705 C 0.75012 0.8529 0.82325 0.0
C706 C 0.76801 0.85344 0.77124 0.0
C707 C 0.79706 0.86345 0.78142 0.0
C708 C 0.80238 0.86798 0.81273 0.0
H709 H 0.95967 0.95725 0.71695 0.0
H710 H 0.91822 0.92883 0.74466 0.0
C711 C 0.77909 0.8626 0.83349 0.0
C712 C 0.82149 0.87184 0.7593 0.0
H713 H 0.89203 0.86657 0.74411 0.0
C714 C 0.81925 0.89216 0.73749 0.0
C715 C 0.84765 0.86172 0.761 0.0
C716 C 0.85072 0.83863 0.7826 0.0
C717 C 0.84304 0.90376 0.71848 0.0
C718 C 0.86964 0.89463 0.72124 0.0
C719 C 0.87157 0.87354 0.74217 0.0
C720 C 0.89635 0.90862 0.70442 0.0
C721 C 0.84011 0.92674 0.69665 0.0
C722 C 0.89812 0.90596 0.67269 0.0
C723 C 0.922 0.922 0.65671 0.0
C724 C 0.94443 0.94101 0.67225 0.0
C725 C 0.94309 0.94258 0.70424 0.0
C726 C 0.91932 0.92646 0.72015 0.0
H727 H 0.81931 0.93392 0.70013 0.0
H728 H 0.85895 0.94506 0.69929 0.0
H729 H 0.84045 0.91887 0.6729 0.0
H730 H 0.88067 0.89205 0.66024 0.0
H731 H 0.92258 0.91993 0.63215 0.0
H732 H 0.69085 0.18845 0.47613 0.0
H733 H 0.67719 0.16639 0.42628 0.0
H734 H 0.76231 0.20718 0.39058 0.0
H735 H 0.77581 0.22922 0.44059 0.0
H736 H 0.67537 0.19886 0.37418 0.0
H737 H 0.75049 0.12609 0.35763 0.0
H738 H 0.74322 0.13949 0.39465 0.0
H739 H 0.76806 0.16131 0.36875 0.0
C740 C 0.70664 0.19229 0.45763 0.0
C741 C 0.73419 0.2105 0.46177 0.0
C742 C 0.69896 0.17968 0.42934 0.0
C743 C 0.71884 0.185 0.40487 0.0
C744 C 0.74688 0.20239 0.40934 0.0
H745 H 0.69918 0.15374 0.21029 0.0
H746 H 0.71827 0.16693 0.26155 0.0
C747 C 0.75454 0.21501 0.43771 0.0
C748 C 0.70896 0.17487 0.37403 0.0
H749 H 0.72221 0.13375 0.31476 0.0
C750 C 0.68548 0.18448 0.36125 0.0
C751 C 0.72246 0.15639 0.3572 0.0
C752 C 0.74731 0.14498 0.37026 0.0
C753 C 0.6752 0.17628 0.33192 0.0
C754 C 0.68842 0.15753 0.31517 0.0
C755 C 0.71209 0.14805 0.32779 0.0
C756 C 0.67773 0.14761 0.28451 0.0
C757 C 0.65064 0.18821 0.31888 0.0
C758 C 0.64888 0.13188 0.28065 0.0
C759 C 0.63783 0.12461 0.2515 0.0
C760 C 0.65554 0.13273 0.22565 0.0
C761 C 0.68484 0.14758 0.22971 0.0
C762 C 0.69586 0.15492 0.25894 0.0
H763 H 0.64811 0.20744 0.3313 0.0
H764 H 0.6546 0.1934 0.29441 0.0
H765 H 0.62958 0.17236 0.32083 0.0
H766 H 0.6347 0.12576 0.30019 0.0
H767 H 0.6151 0.11338 0.24921 0.0
H768 H 0.37894 0.76117 0.31096 0.0
H769 H 0.39963 0.73907 0.35334 0.0
H770 H 0.43624 0.68909 0.28905 0.0
H771 H 0.41519 0.71108 0.24699 0.0
H772 H 0.40506 0.65611 0.33197 0.0
H773 H 0.47903 0.74415 0.39211 0.0
H774 H 0.44234 0.74919 0.38709 0.0
H775 H 0.46527 0.74781 0.3543 0.0
C776 C 0.39276 0.74659 0.30587 0.0
C777 C 0.39633 0.73878 0.27537 0.0
C778 C 0.40441 0.73361 0.33023 0.0
C779 C 0.41996 0.71227 0.32488 0.0
C780 C 0.4246 0.70544 0.29426 0.0
H781 H 0.48511 0.58699 0.43481 0.0
H782 H 0.47078 0.61526 0.3941 0.0
C783 C 0.41302 0.71845 0.27002 0.0
C784 C 0.429 0.69534 0.35073 0.0
H785 H 0.46823 0.70021 0.41756 0.0
C786 C 0.41908 0.66588 0.35051 0.0
C787 C 0.44696 0.70765 0.37554 0.0
C788 C 0.45926 0.7389 0.37726 0.0
C789 C 0.42611 0.64871 0.37404 0.0
C790 C 0.44454 0.66091 0.3986 0.0
C791 C 0.45428 0.69044 0.39898 0.0
C792 C 0.45387 0.64352 0.42393 0.0
C793 C 0.41269 0.61762 0.37269 0.0
C794 C 0.45041 0.65004 0.4549 0.0
C795 C 0.45901 0.63392 0.47843 0.0
C796 C 0.47152 0.61069 0.47195 0.0
C797 C 0.47521 0.60433 0.44099 0.0
C798 C 0.46678 0.62054 0.41747 0.0
H799 H 0.39212 0.61306 0.35901 0.0
H800 H 0.42845 0.60668 0.36157 0.0
H801 H 0.40754 0.60877 0.39581 0.0
H802 H 0.44075 0.66755 0.46102 0.0
H803 H 0.45574 0.63971 0.50183 0.0
H804 H 0.1389 0.40095 0.81517 0.0
H805 H 0.11632 0.42186 0.85768 0.0
H806 H 0.11417 0.49381 0.80217 0.0
H807 H 0.13591 0.47256 0.75961 0.0
H808 H 0.13318 0.46998 0.89133 0.0
H809 H 0.03042 0.47546 0.83159 0.0
H810 H 0.05588 0.45586 0.81651 0.0
H811 H 0.06259 0.49331 0.81135 0.0
C812 C 0.1333 0.42109 0.81193 0.0
C813 C 0.13917 0.43488 0.78368 0.0
C814 C 0.1205 0.43321 0.83642 0.0
C815 C 0.1128 0.45946 0.83349 0.0
C816 C 0.11903 0.47335 0.80531 0.0
H817 H 0.03863 0.57664 0.94247 0.0
H818 H 0.05964 0.55001 0.90473 0.0
C819 C 0.13185 0.46127 0.78089 0.0
C820 C 0.09866 0.47241 0.85971 0.0
H821 H 0.03984 0.50122 0.87808 0.0
C822 C 0.11262 0.47656 0.88841 0.0
C823 C 0.07165 0.4811 0.85657 0.0
C824 C 0.05408 0.47597 0.82746 0.0
C825 C 0.10121 0.48995 0.91311 0.0
C826 C 0.07451 0.4992 0.9097 0.0
C827 C 0.06028 0.49446 0.88119 0.0
C828 C 0.06179 0.51532 0.93434 0.0
C829 C 0.11862 0.49505 0.94229 0.0
C830 C 0.0554 0.50517 0.96437 0.0
C831 C 0.04318 0.52073 0.98651 0.0
C832 C 0.03682 0.54685 0.97923 0.0
C833 C 0.04311 0.55671 0.94924 0.0
C834 C 0.0552 0.54133 0.92735 0.0
H835 H 0.14183 0.49344 0.93883 0.0
H836 H 0.11854 0.51611 0.95191 0.0
H837 H 0.1085 0.47901 0.95925 0.0
H838 H 0.05945 0.48499 0.97068 0.0
H839 H 0.03866 0.51228 1.0092 0.0
H840 H 0.64014 0.86931 0.85067 0.0
H841 H 0.61104 0.90125 0.87237 0.0
H842 H 0.67101 0.91889 0.94827 0.0
H843 H 0.69998 0.88721 0.92657 0.0
H844 H 0.58862 0.90081 0.94306 0.0
H845 H 0.66579 0.99624 0.89897 0.0
H846 H 0.66103 0.96233 0.8805 0.0
H847 H 0.68151 0.96915 0.9153 0.0
C848 C 0.6467 0.87982 0.87216 0.0
C849 C 0.67194 0.87576 0.88724 0.0
C850 C 0.6302 0.89794 0.88447 0.0
C851 C 0.63904 0.91236 0.9118 0.0
C852 C 0.66392 0.90787 0.92715 0.0
H853 H 0.60362 0.03976 1.02855 0.0
H854 H 0.62342 1.00719 0.99679 0.0
C855 C 0.68026 0.88969 0.91495 0.0
C856 C 0.62309 0.93294 0.92408 0.0
H857 H 0.62973 1.00334 0.9344 0.0
C858 C 0.59724 0.92325 0.94088 0.0
C859 C 0.63465 0.96208 0.92115 0.0
C860 C 0.66219 0.97327 0.90288 0.0
C861 C 0.58323 0.9421 0.95605 0.0
C862 C 0.5952 0.97134 0.95374 0.0
C863 C 0.62057 0.98095 0.93607 0.0
C864 C 0.58317 0.99219 0.97143 0.0
C865 C 0.55664 0.93053 0.97561 0.0
C866 C 0.55415 0.99509 0.96718 0.0
C867 C 0.54265 1.01368 0.98544 0.0
C868 C 0.5601 1.02985 1.00809 0.0
C869 C 0.58952 1.02764 1.0114 0.0
C870 C 0.60091 1.00901 0.99325 0.0
H871 H 0.55409 0.90775 0.98008 0.0
H872 H 0.55814 0.94184 0.99778 0.0
H873 H 0.53653 0.93344 0.96377 0.0
H874 H 0.54029 0.98275 0.94999 0.0
H875 H 0.51998 1.015 0.9821 0.0
H876 H 0.82303 0.24399 0.50692 0.0
H877 H 0.85889 0.2143 0.50365 0.0
H878 H 0.78796 0.14099 0.49361 0.0
H879 H 0.75215 0.17063 0.49917 0.0
H880 H 0.82375 0.13185 0.53456 0.0
H881 H 0.89127 0.17602 0.4358 0.0
H882 H 0.88989 0.2034 0.46274 0.0
H883 H 0.85651 0.18492 0.44438 0.0
C884 C 0.81524 0.22153 0.50414 0.0
C885 C 0.78498 0.20945 0.50361 0.0
C886 C 0.83568 0.20463 0.5016 0.0
C887 C 0.82617 0.17543 0.49771 0.0
C888 C 0.79584 0.16348 0.49632 0.0
H889 H 0.9648 0.07755 0.49129 0.0
H890 H 0.92294 0.09696 0.47475 0.0
C891 C 0.77543 0.18035 0.49939 0.0
C892 C 0.8477 0.15721 0.49869 0.0
H893 H 0.91547 0.15175 0.47299 0.0
C894 C 0.84348 0.13585 0.52059 0.0
C895 C 0.87319 0.16188 0.48007 0.0
C896 C 0.87777 0.1826 0.45421 0.0
C897 C 0.86495 0.12045 0.52583 0.0
C898 C 0.89175 0.12719 0.50944 0.0
C899 C 0.89514 0.14704 0.48599 0.0
C900 C 0.91732 0.11584 0.5185 0.0
C901 C 0.85898 0.09756 0.54948 0.0
C902 C 0.92839 0.12074 0.54818 0.0
C903 C 0.95188 0.10961 0.55762 0.0
C904 C 0.96505 0.09371 0.53742 0.0
C905 C 0.95477 0.08959 0.50731 0.0
C906 C 0.93098 0.10063 0.49788 0.0
H907 H 0.83499 0.0885 0.55181 0.0
H908 H 0.87022 0.08039 0.54371 0.0
H909 H 0.86716 0.10656 0.57193 0.0
H910 H 0.91874 0.13313 0.56416 0.0
H911 H 0.9597 0.11344 0.58082 0.0
H912 H 0.28719 0.75495 0.21219 0.0
H913 H 0.24149 0.73175 0.18614 0.0
H914 H 0.2761 0.65777 0.1727 0.0
H915 H 0.32218 0.6813 0.19791 0.0
H916 H 0.23544 0.70683 0.12363 0.0
H917 H 0.19318 0.62897 0.21403 0.0
H918 H 0.2205 0.66084 0.22153 0.0
H919 H 0.23079 0.63193 0.2023 0.0
C920 C 0.28512 0.73382 0.20349 0.0
C921 C 0.30839 0.72001 0.20717 0.0
C922 C 0.25892 0.7205 0.18869 0.0
C923 C 0.25506 0.69284 0.17759 0.0
C924 C 0.27824 0.67894 0.18136 0.0
H925 H 0.10528 0.5744 0.09462 0.0
H926 H 0.15243 0.59712 0.11769 0.0
C927 C 0.30457 0.69238 0.19586 0.0
C928 C 0.22706 0.67873 0.16173 0.0
H929 H 0.16587 0.62517 0.16848 0.0
C930 C 0.22019 0.68901 0.13347 0.0
C931 C 0.20717 0.65528 0.1743 0.0
C932 C 0.213 0.64359 0.2048 0.0
C933 C 0.19439 0.67634 0.11731 0.0
C934 C 0.17407 0.65317 0.13013 0.0
C935 C 0.18111 0.64286 0.15842 0.0
C936 C 0.14545 0.63941 0.11483 0.0
C937 C 0.18976 0.68749 0.08615 0.0
C938 C 0.12528 0.65527 0.10539 0.0
C939 C 0.09835 0.6423 0.09172 0.0
C940 C 0.09042 0.61294 0.08756 0.0
C941 C 0.1105 0.59703 0.09723 0.0
C942 C 0.13758 0.61007 0.1106 0.0
H943 H 0.21098 0.69816 0.07559 0.0
H944 H 0.17856 0.67043 0.07061 0.0
H945 H 0.17593 0.70319 0.08832 0.0
H946 H 0.13003 0.67776 0.10911 0.0
H947 H 0.08341 0.6553 0.08508 0.0
H948 H 0.19139 0.45814 0.67697 0.0
H949 H 0.23682 0.47679 0.64839 0.0
H950 H 0.27513 0.41133 0.68478 0.0
H951 H 0.22929 0.3926 0.71321 0.0
H952 H 0.29056 0.49915 0.6703 0.0
H953 H 0.29967 0.40894 0.59672 0.0
H954 H 0.26626 0.41044 0.61695 0.0
H955 H 0.29626 0.40057 0.63652 0.0
C956 C 0.20923 0.44726 0.67815 0.0
C957 C 0.20645 0.42359 0.69704 0.0
C958 C 0.23543 0.45811 0.662 0.0
C959 C 0.25987 0.44563 0.664 0.0
C960 C 0.25674 0.42128 0.68209 0.0
H961 H 0.44209 0.53768 0.61692 0.0
H962 H 0.3967 0.51527 0.64405 0.0
C963 C 0.23038 0.41039 0.69831 0.0
C964 C 0.28876 0.45917 0.64858 0.0
H965 H 0.34108 0.4474 0.59779 0.0
C966 C 0.30152 0.48771 0.65447 0.0
C967 C 0.30338 0.4447 0.62754 0.0
C968 C 0.29062 0.41456 0.61876 0.0
C969 C 0.32804 0.5019 0.64032 0.0
C970 C 0.34299 0.4873 0.61974 0.0
C971 C 0.33013 0.4588 0.61367 0.0
C972 C 0.37118 0.50137 0.60341 0.0
C973 C 0.33931 0.53276 0.64696 0.0
C974 C 0.37278 0.50095 0.57136 0.0
C975 C 0.39881 0.51375 0.55583 0.0
C976 C 0.42438 0.52728 0.57172 0.0
C977 C 0.42289 0.52774 0.60381 0.0
C978 C 0.39675 0.51494 0.61939 0.0
H979 H 0.32172 0.5425 0.65631 0.0
H980 H 0.35714 0.53538 0.66415 0.0
H981 H 0.34841 0.54429 0.6261 0.0
H982 H 0.35371 0.49076 0.5582 0.0
H983 H 0.39896 0.51279 0.53117 0.0
H984 H 0.75431 0.83266 0.9209 0.0
H985 H 0.78929 0.80339 0.93222 0.0
H986 H 0.77272 0.76363 0.84398 0.0
H987 H 0.73657 0.79213 0.83333 0.0
H988 H 0.7751 0.72571 0.88837 0.0
H989 H 0.87149 0.81492 0.89724 0.0
H990 H 0.84238 0.81908 0.92246 0.0
H991 H 0.83667 0.81861 0.88187 0.0
C992 C 0.7577 0.81722 0.90428 0.0
C993 C 0.74261 0.81429 0.87643 0.0
C994 C 0.77804 0.80089 0.91048 0.0
C995 C 0.78405 0.78174 0.88869 0.0
C996 C 0.76856 0.77841 0.86103 0.0
H997 H 0.93774 0.70933 0.9184 0.0
H998 H 0.90248 0.733 0.89439 0.0
C999 C 0.74801 0.79462 0.85495 0.0
C1000 C 0.8063 0.76504 0.89504 0.0
H1001 H 0.87731 0.77121 0.91821 0.0
C1002 C 0.79755 0.73562 0.89457 0.0
C1003 C 0.8358 0.77797 0.90231 0.0
C1004 C 0.84725 0.80937 0.90067 0.0
C1005 C 0.81713 0.7188 0.90265 0.0
C1006 C 0.84597 0.73181 0.91227 0.0
C1007 C 0.8551 0.7612 0.91128 0.0
C1008 C 0.86655 0.71556 0.92494 0.0
C1009 C 0.80668 0.6873 0.90072 0.0
C1010 C 0.8581 0.69789 0.95004 0.0
C1011 C 0.87807 0.6842 0.96353 0.0
C1012 C 0.90708 0.68829 0.95257 0.0
C1013 C 0.91553 0.70586 0.92735 0.0
C1014 C 0.89541 0.71933 0.91362 0.0
H1015 H 0.78914 0.68115 0.88329 0.0
H1016 H 0.82501 0.67699 0.89504 0.0
H1017 H 0.79719 0.67925 0.92301 0.0
H1018 H 0.83632 0.69535 0.95985 0.0
H1019 H 0.87112 0.67125 0.98332 0.0
H1020 H 0.37677 0.81485 0.26199 0.0
H1021 H 0.40233 0.86156 0.24425 0.0
H1022 H 0.45043 0.82288 0.17897 0.0
H1023 H 0.42548 0.77631 0.1977 0.0
H1024 H 0.48476 0.87006 0.19661 0.0
H1025 H 0.37786 0.8951 0.16921 0.0
H1026 H 0.38115 0.88884 0.2091 0.0
H1027 H 0.38069 0.86082 0.18205 0.0
C1028 C 0.39388 0.81642 0.24492 0.0
C1029 C 0.39963 0.79173 0.23196 0.0
C1030 C 0.40795 0.84321 0.23404 0.0
C1031 C 0.42777 0.84624 0.20925 0.0
C1032 C 0.43517 0.8216 0.19785 0.0
H1033 H 0.47114 0.99935 0.09295 0.0
H1034 H 0.44915 0.95275 0.11438 0.0
C1035 C 0.42127 0.79482 0.20897 0.0
C1036 C 0.43994 0.87464 0.19459 0.0
H1037 H 0.42009 0.93262 0.1644 0.0
C1038 C 0.47047 0.88361 0.18961 0.0
C1039 C 0.42165 0.89252 0.18434 0.0
C1040 C 0.38851 0.88373 0.18611 0.0
C1041 C 0.48307 0.90968 0.17572 0.0
C1042 C 0.46495 0.92827 0.16706 0.0
C1043 C 0.43434 0.91899 0.17128 0.0
C1044 C 0.4774 0.95734 0.15409 0.0
C1045 C 0.5158 0.91656 0.16973 0.0
C1046 C 0.50005 0.97634 0.16932 0.0
C1047 C 0.5127 1.0028 0.15695 0.0
C1048 C 0.50286 1.01174 0.12915 0.0
C1049 C 0.47932 0.99337 0.11438 0.0
C1050 C 0.46676 0.96656 0.1267 0.0
H1051 H 0.52446 0.89719 0.16757 0.0
H1052 H 0.52135 0.92901 0.1486 0.0
H1053 H 0.52728 0.92891 0.18918 0.0
H1054 H 0.50819 0.9707 0.19093 0.0
H1055 H 0.53057 1.01632 0.16925 0.0
H1056 H 0.16179 0.34 0.74149 0.0
H1057 H 0.14704 0.29587 0.71276 0.0
H1058 H 0.1384 0.34266 0.63166 0.0
H1059 H 0.15347 0.38692 0.66067 0.0
H1060 H 0.09562 0.27401 0.68627 0.0
H1061 H 0.18065 0.28663 0.5959 0.0
H1062 H 0.18444 0.30937 0.6289 0.0
H1063 H 0.16169 0.31483 0.59747 0.0
C1064 C 0.15738 0.34089 0.71736 0.0
C1065 C 0.15912 0.36713 0.70343 0.0
C1066 C 0.14871 0.31553 0.70087 0.0
C1067 C 0.14158 0.31536 0.66966 0.0
C1068 C 0.14425 0.34172 0.65541 0.0
H1069 H 0.06884 0.17636 0.54026 0.0
H1070 H 0.08786 0.22223 0.56462 0.0
C1071 C 0.15298 0.3672 0.67202 0.0
C1072 C 0.12977 0.28768 0.65303 0.0
H1073 H 0.14 0.24773 0.59074 0.0
C1074 C 0.10554 0.26836 0.66545 0.0
C1075 C 0.14217 0.27981 0.62557 0.0
C1076 C 0.16883 0.29859 0.61126 0.0
C1077 C 0.09343 0.2421 0.65141 0.0
C1078 C 0.10606 0.23402 0.62419 0.0
C1079 C 0.13009 0.25345 0.61152 0.0
C1080 C 0.09484 0.20558 0.60888 0.0
C1081 C 0.06654 0.22356 0.66565 0.0
C1082 C 0.09265 0.18029 0.62501 0.0
C1083 C 0.08165 0.1539 0.61107 0.0
C1084 C 0.0726 0.15165 0.58031 0.0
C1085 C 0.07535 0.17693 0.56395 0.0
C1086 C 0.08637 0.20338 0.57795 0.0
H1087 H 0.05428 0.2359 0.68005 0.0
H1088 H 0.05135 0.21212 0.64804 0.0
H1089 H 0.0735 0.20792 0.6805 0.0
H1090 H 0.09964 0.18087 0.64854 0.0
H1091 H 0.08025 0.13517 0.62457 0.0
H1092 H 0.75157 0.31134 0.51254 0.0
H1093 H 0.72655 0.34647 0.53299 0.0
H1094 H 0.68263 0.28666 0.59953 0.0
H1095 H 0.70717 0.25124 0.57791 0.0
H1096 H 0.64434 0.30398 0.5672 0.0
H1097 H 0.72525 0.39867 0.60243 0.0
H1098 H 0.73542 0.38828 0.56548 0.0
H1099 H 0.73522 0.36521 0.5975 0.0
C1100 C 0.73751 0.3063 0.53235 0.0
C1101 C 0.73117 0.27899 0.54392 0.0
C1102 C 0.72335 0.32634 0.54422 0.0
C1103 C 0.70293 0.31939 0.56814 0.0
C1104 C 0.69845 0.29258 0.58127 0.0
H1105 H 0.59646 0.44753 0.58541 0.0
H1106 H 0.62655 0.41536 0.60286 0.0
C1107 C 0.71244 0.27243 0.5691 0.0
C1108 C 0.6823 0.33786 0.57462 0.0
H1109 H 0.67973 0.40706 0.57874 0.0
C1110 C 0.65207 0.32641 0.57073 0.0
C1111 C 0.69208 0.36709 0.57972 0.0
C1112 C 0.72377 0.38038 0.58686 0.0
C1113 C 0.63187 0.34368 0.56876 0.0
C1114 C 0.64226 0.37312 0.57004 0.0
C1115 C 0.67192 0.38445 0.57703 0.0
C1116 C 0.62356 0.39226 0.56034 0.0
C1117 C 0.59976 0.33025 0.56385 0.0
C1118 C 0.61239 0.39014 0.53056 0.0
C1119 C 0.59543 0.40845 0.52051 0.0
C1120 C 0.58947 0.42942 0.53998 0.0
C1121 C 0.60087 0.43168 0.56981 0.0
C1122 C 0.61791 0.41328 0.57987 0.0
H1123 H 0.59397 0.30889 0.57389 0.0
H1124 H 0.58529 0.34316 0.57399 0.0
H1125 H 0.59528 0.32808 0.53903 0.0
H1126 H 0.61721 0.37454 0.51486 0.0
H1127 H 0.58753 0.40655 0.49724 0.0
loop_
_geom_bond_atom_site_label_1
_geom_bond_atom_site_label_2
_geom_bond_distance
_geom_bond_site_symmetry_2
_ccdc_geom_bond_type
C0 N1 1.317 . S
C0 N2 1.348 . S
C0 C3 1.485 . S
N1 C0 1.317 . S
N1 N5 1.370 . S
N2 C0 1.348 . S
N2 C4 1.346 . S
C3 C0 1.485 . S
C3 H7 0.960 . S
C3 H8 0.961 . S
C3 H9 0.960 . S
C4 N2 1.346 . S
C4 N5 1.307 . S
C4 C6 1.486 . S
N5 N1 1.370 . S
N5 C4 1.307 . S
C6 C4 1.486 . S
C6 H10 0.960 . S
C6 H11 0.960 . S
C6 H12 0.959 . S
H7 C3 0.960 . S
H8 C3 0.961 . S
H9 C3 0.960 . S
H10 C6 0.960 . S
H11 C6 0.960 . S
H12 C6 0.959 . S
C13 N14 1.317 . S
C13 N15 1.348 . S
C13 C16 1.485 . S
N14 C13 1.317 . S
N14 N18 1.370 . S
N15 C13 1.348 . S
N15 C17 1.346 . S
C16 C13 1.485 . S
C16 H20 0.960 . S
C16 H21 0.961 . S
C16 H22 0.960 . S
C17 N15 1.346 . S
C17 N18 1.307 . S
C17 C19 1.486 . S
N18 N14 1.370 . S
N18 C17 1.307 . S
C19 C17 1.486 . S
C19 H23 0.960 . S
C19 H24 0.960 . S
C19 H25 0.959 . S
H20 C16 0.960 . S
H21 C16 0.961 . S
H22 C16 0.960 . S
H23 C19 0.960 . S
H24 C19 0.960 . S
H25 C19 0.959 . S
C26 N27 1.317 . S
C26 N28 1.348 . S
C26 C29 1.485 . S
N27 C26 1.317 . S
N27 N31 1.370 . S
N28 C26 1.348 . S
N28 C30 1.346 . S
C29 C26 1.485 . S
C29 H33 0.960 . S
C29 H34 0.961 . S
C29 H35 0.960 . S
C30 N28 1.346 . S
C30 N31 1.307 . S
C30 C32 1.486 . S
N31 N27 1.370 . S
N31 C30 1.307 . S
C32 C30 1.486 . S
C32 H36 0.960 . S
C32 H37 0.960 . S
C32 H38 0.959 . S
H33 C29 0.960 . S
H34 C29 0.961 . S
H35 C29 0.960 . S
H36 C32 0.960 . S
H37 C32 0.960 . S
H38 C32 0.959 . S
C39 N40 1.317 . S
C39 N41 1.348 . S
C39 C42 1.485 . S
N40 C39 1.317 . S
N40 N44 1.370 . S
N41 C39 1.348 . S
N41 C43 1.346 . S
C42 C39 1.485 . S
C42 H46 0.960 . S
C42 H47 0.961 . S
C42 H48 0.960 . S
C43 N41 1.346 . S
C43 N44 1.307 . S
C43 C45 1.486 . S
N44 N40 1.370 . S
N44 C43 1.307 . S
C45 C43 1.486 . S
C45 H49 0.960 . S
C45 H50 0.960 . S
C45 H51 0.959 . S
H46 C42 0.960 . S
H47 C42 0.961 . S
H48 C42 0.960 . S
H49 C45 0.960 . S
H50 C45 0.960 . S
H51 C45 0.959 . S
C52 N53 1.317 . S
C52 N54 1.348 . S
C52 C55 1.485 . S
N53 C52 1.317 . S
N53 N57 1.370 . S
N54 C52 1.348 . S
N54 C56 1.346 . S
C55 C52 1.485 . S
C55 H59 0.960 . S
C55 H60 0.961 . S
C55 H61 0.960 . S
C56 N54 1.346 . S
C56 N57 1.307 . S
C56 C58 1.486 . S
N57 N53 1.370 . S
N57 C56 1.307 . S
C58 C56 1.486 . S
C58 H62 0.960 . S
C58 H63 0.960 . S
C58 H64 0.959 . S
H59 C55 0.960 . S
H60 C55 0.961 . S
H61 C55 0.960 . S
H62 C58 0.960 . S
H63 C58 0.960 . S
H64 C58 0.959 . S
C65 N66 1.317 . S
C65 N67 1.348 . S
C65 C68 1.485 . S
N66 C65 1.317 . S
N66 N70 1.370 . S
N67 C65 1.348 . S
N67 C69 1.346 . S
C68 C65 1.485 . S
C68 H72 0.960 . S
C68 H73 0.961 . S
C68 H74 0.960 . S
C69 N67 1.346 . S
C69 N70 1.307 . S
C69 C71 1.486 . S
N70 N66 1.370 . S
N70 C69 1.307 . S
C71 C69 1.486 . S
C71 H75 0.960 . S
C71 H76 0.960 . S
C71 H77 0.959 . S
H72 C68 0.960 . S
H73 C68 0.961 . S
H74 C68 0.960 . S
H75 C71 0.960 . S
H76 C71 0.960 . S
H77 C71 0.959 . S
C78 N79 1.317 . S
C78 N80 1.348 . S
C78 C81 1.485 . S
N79 C78 1.317 . S
N79 N83 1.370 . S
N80 C78 1.348 . S
N80 C82 1.346 . S
C81 C78 1.485 . S
C81 H85 0.960 . S
C81 H86 0.961 . S
C81 H87 0.960 . S
C82 N80 1.346 . S
C82 N83 1.307 . S
C82 C84 1.486 . S
N83 N79 1.370 . S
N83 C82 1.307 . S
C84 C82 1.486 . S
C84 H88 0.960 . S
C84 H89 0.960 . S
C84 H90 0.959 . S
H85 C81 0.960 . S
H86 C81 0.961 . S
H87 C81 0.960 . S
H88 C84 0.960 . S
H89 C84 0.960 . S
H90 C84 0.959 . S
C91 N92 1.317 . S
C91 N93 1.348 . S
C91 C94 1.485 . S
N92 C91 1.317 . S
N92 N96 1.370 . S
N93 C91 1.348 . S
N93 C95 1.346 . S
C94 C91 1.485 . S
C94 H98 0.960 . S
C94 H99 0.961 . S
C94 H100 0.960 . S
C95 N93 1.346 . S
C95 N96 1.307 . S
C95 C97 1.486 . S
N96 N92 1.370 . S
N96 C95 1.307 . S
C97 C95 1.486 . S
C97 H101 0.960 . S
C97 H102 0.960 . S
C97 H103 0.959 . S
H98 C94 0.960 . S
H99 C94 0.961 . S
H100 C94 0.960 . S
H101 C97 0.960 . S
H102 C97 0.960 . S
H103 C97 0.959 . S
La104 C106 2.928 . S
La104 O124 2.521 . S
La104 O125 2.628 . S
La104 O126 2.554 . S
La104 O127 2.778 . S
La104 O128 2.470 . S
La104 O133 2.482 . S
La104 O135 2.503 1_545 S
La105 C115 2.928 1_445 S
La105 O127 2.502 . S
La105 O129 2.503 . S
La105 O130 2.521 1_445 S
La105 O131 2.628 1_545 S
La105 O132 2.554 1_455 S
La105 O133 2.757 . S
La105 O134 2.470 1_445 S
C106 La104 2.928 . S
C106 C107 1.503 . S
C106 O124 1.261 . S
C106 O125 1.243 . S
C107 C106 1.503 . S
C107 C108 1.394 . S
C107 C112 1.373 . S
C108 C107 1.394 . S
C108 C109 1.380 . S
C108 H136 0.930 . S
C109 C108 1.380 . S
C109 C110 1.376 . S
C109 H137 0.930 . S
C110 C109 1.376 . S
C110 C111 1.370 . S
C111 C110 1.370 . S
C111 C112 1.396 . S
C111 H138 0.929 . S
C112 C107 1.373 . S
C112 C111 1.396 . S
C112 H139 0.929 . S
C113 O126 1.240 1_565 S
C113 O127 1.276 1_565 S
C114 O128 1.258 . S
C114 O129 1.256 . S
C115 La105 2.928 1_665 S
C115 C116 1.503 . S
C115 O130 1.261 . S
C115 O131 1.224 1_655 S
C116 C115 1.503 . S
C116 C117 1.394 . S
C116 C121 1.373 . S
C117 C116 1.394 . S
C117 C118 1.380 . S
C117 H140 0.930 . S
C118 C117 1.380 . S
C118 C119 1.376 . S
C118 H141 0.930 . S
C119 C118 1.376 . S
C119 C120 1.370 . S
C120 C119 1.370 . S
C120 C121 1.396 . S
C120 H142 0.929 . S
C121 C116 1.373 . S
C121 C120 1.396 . S
C121 H143 0.929 . S
C122 O132 1.240 . S
C122 O133 1.289 1_655 S
C123 O134 1.258 1_455 S
C123 O135 1.256 . S
O124 La104 2.521 . S
O124 C106 1.261 . S
O125 La104 2.628 . S
O125 C106 1.243 . S
O126 La104 2.554 . S
O126 C113 1.240 1_545 S
O127 La104 2.778 . S
O127 La105 2.502 . S
O127 C113 1.276 1_545 S
O128 La104 2.470 . S
O128 C114 1.258 . S
O129 La105 2.503 . S
O129 C114 1.256 . S
O130 La105 2.521 1_665 S
O130 C115 1.261 . S
O131 La105 2.628 1_565 S
O131 C115 1.224 1_455 S
O132 La105 2.554 1_655 S
O132 C122 1.240 . S
O133 La104 2.482 . S
O133 La105 2.757 . S
O133 C122 1.289 1_455 S
O134 La105 2.470 1_665 S
O134 C123 1.258 1_655 S
O135 La104 2.503 1_565 S
O135 C123 1.256 . S
H136 C108 0.930 . S
H137 C109 0.930 . S
H138 C111 0.929 . S
H139 C112 0.929 . S
H140 C117 0.930 . S
H141 C118 0.930 . S
H142 C120 0.929 . S
H143 C121 0.929 . S
La144 C146 2.928 . S
La144 O164 2.521 . S
La144 O165 2.628 . S
La144 O166 2.554 1_545 S
La144 O167 2.757 . S
La144 O168 2.470 . S
La144 O173 2.482 . S
La144 O175 2.503 . S
La145 C155 2.928 1_554 S
La145 O167 2.482 . S
La145 O169 2.503 . S
La145 O170 2.521 1_554 S
La145 O171 2.628 1_544 S
La145 O172 2.554 1_554 S
La145 O173 2.757 . S
La145 O174 2.470 1_554 S
C146 La144 2.928 . S
C146 C147 1.503 . S
C146 O164 1.261 . S
C146 O165 1.243 . S
C147 C146 1.503 . S
C147 C148 1.394 . S
C147 C152 1.373 . S
C148 C147 1.394 . S
C148 C149 1.380 . S
C148 H176 0.930 . S
C149 C148 1.380 . S
C149 C150 1.376 . S
C149 H177 0.930 . S
C150 C149 1.376 . S
C150 C151 1.370 . S
C151 C150 1.370 . S
C151 C152 1.396 . S
C151 H178 0.929 . S
C152 C147 1.373 . S
C152 C151 1.396 . S
C152 H179 0.929 . S
C153 O166 1.240 . S
C153 O167 1.289 1_565 S
C154 O168 1.258 . S
C154 O169 1.256 . S
C155 La145 2.928 1_556 S
C155 C156 1.503 1_545 S
C155 O170 1.261 . S
C155 O171 1.243 1_545 S
C156 C155 1.503 1_565 S
C156 C157 1.394 1_565 S
C156 C161 1.373 . S
C157 C156 1.394 1_545 S
C157 C158 1.380 1_545 S
C157 H180 0.930 . S
C158 C157 1.380 1_565 S
C158 C159 1.376 . S
C158 H181 0.930 . S
C159 C158 1.376 . S
C159 C160 1.370 . S
C160 C159 1.370 . S
C160 C161 1.396 . S
C160 H182 0.929 . S
C161 C156 1.373 . S
C161 C160 1.396 . S
C161 H183 0.929 . S
C162 O172 1.240 1_554 S
C162 O173 1.289 . S
C163 O174 1.258 1_554 S
C163 O175 1.256 . S
O164 La144 2.521 . S
O164 C146 1.261 . S
O165 La144 2.628 . S
O165 C146 1.243 . S
O166 La144 2.554 1_565 S
O166 C153 1.240 . S
O167 La144 2.757 . S
O167 La145 2.482 . S
O167 C153 1.289 1_545 S
O168 La144 2.470 . S
O168 C154 1.258 . S
O169 La145 2.503 . S
O169 C154 1.256 . S
O170 La145 2.521 1_556 S
O170 C155 1.261 . S
O171 La145 2.628 1_566 S
O171 C155 1.243 1_565 S
O172 La145 2.554 1_556 S
O172 C162 1.240 1_556 S
O173 La144 2.482 . S
O173 La145 2.757 . S
O173 C162 1.289 . S
O174 La145 2.470 1_556 S
O174 C163 1.258 1_556 S
O175 La144 2.503 . S
O175 C163 1.256 . S
H176 C148 0.930 . S
H177 C149 0.930 . S
H178 C151 0.929 . S
H179 C152 0.929 . S
H180 C157 0.930 . S
H181 C158 0.930 . S
H182 C160 0.929 . S
H183 C161 0.929 . S
La184 C186 2.928 . S
La184 O204 2.521 . S
La184 O205 2.628 . S
La184 O206 2.554 . S
La184 O207 2.757 . S
La184 O208 2.470 . S
La184 O213 2.482 . S
La184 O215 2.503 . S
La185 C195 2.928 . S
La185 O207 2.482 . S
La185 O209 2.503 . S
La185 O210 2.521 . S
La185 O211 2.628 . S
La185 O212 2.554 . S
La185 O213 2.757 . S
La185 O214 2.470 . S
C186 La184 2.928 . S
C186 C187 1.503 . S
C186 O204 1.261 . S
C186 O205 1.243 . S
C187 C186 1.503 . S
C187 C188 1.394 . S
C187 C192 1.373 . S
C188 C187 1.394 . S
C188 C189 1.380 . S
C188 H216 0.930 . S
C189 C188 1.380 . S
C189 C190 1.376 . S
C189 H217 0.930 . S
C190 C189 1.376 . S
C190 C191 1.370 . S
C191 C190 1.370 . S
C191 C192 1.396 . S
C191 H218 0.929 . S
C192 C187 1.373 . S
C192 C191 1.396 . S
C192 H219 0.929 . S
C193 O206 1.240 . S
C193 O207 1.289 . S
C194 O208 1.258 . S
C194 O209 1.256 . S
C195 La185 2.928 . S
C195 C196 1.503 . S
C195 O210 1.261 . S
C195 O211 1.243 . S
C196 C195 1.503 . S
C196 C197 1.394 . S
C196 C201 1.373 . S
C197 C196 1.394 . S
C197 C198 1.380 . S
C197 H220 0.930 . S
C198 C197 1.380 . S
C198 C199 1.376 . S
C198 H221 0.930 . S
C199 C198 1.376 . S
C199 C200 1.370 . S
C200 C199 1.370 . S
C200 C201 1.396 . S
C200 H222 0.929 . S
C201 C196 1.373 . S
C201 C200 1.396 . S
C201 H223 0.929 . S
C202 O212 1.240 . S
C202 O213 1.289 . S
C203 O214 1.258 . S
C203 O215 1.256 . S
O204 La184 2.521 . S
O204 C186 1.261 . S
O205 La184 2.628 . S
O205 C186 1.243 . S
O206 La184 2.554 . S
O206 C193 1.240 . S
O207 La184 2.757 . S
O207 La185 2.482 . S
O207 C193 1.289 . S
O208 La184 2.470 . S
O208 C194 1.258 . S
O209 La185 2.503 . S
O209 C194 1.256 . S
O210 La185 2.521 . S
O210 C195 1.261 . S
O211 La185 2.628 . S
O211 C195 1.243 . S
O212 La185 2.554 . S
O212 C202 1.240 . S
O213 La184 2.482 . S
O213 La185 2.757 . S
O213 C202 1.289 . S
O214 La185 2.470 . S
O214 C203 1.258 . S
O215 La184 2.503 . S
O215 C203 1.256 . S
H216 C188 0.930 . S
H217 C189 0.930 . S
H218 C191 0.929 . S
H219 C192 0.929 . S
H220 C197 0.930 . S
H221 C198 0.930 . S
H222 C200 0.929 . S
H223 C201 0.929 . S
La224 C226 2.928 . S
La224 O244 2.521 . S
La224 O245 2.628 . S
La224 O246 2.554 1_455 S
La224 O247 2.757 1_455 S
La224 O248 2.470 . S
La224 O253 2.482 1_554 S
La224 O255 2.523 1_455 S
La225 C235 2.899 1_455 S
La225 O247 2.473 1_456 S
La225 O249 2.533 1_556 S
La225 O250 2.503 1_455 S
La225 O251 2.594 1_455 S
La225 O252 2.572 . S
La225 O253 2.777 . S
La225 O254 2.451 1_455 S
C226 La224 2.928 . S
C226 C227 1.503 . S
C226 O244 1.261 . S
C226 O245 1.243 . S
C227 C226 1.503 . S
C227 C228 1.394 . S
C227 C232 1.373 . S
C228 C227 1.394 . S
C228 C229 1.380 . S
C228 H256 0.930 . S
C229 C228 1.380 . S
C229 C230 1.376 . S
C229 H257 0.930 . S
C230 C229 1.376 . S
C230 C231 1.370 . S
C231 C230 1.370 . S
C231 C232 1.396 . S
C231 H258 0.929 . S
C232 C227 1.373 . S
C232 C231 1.396 . S
C232 H259 0.929 . S
C233 O246 1.240 . S
C233 O247 1.289 . S
C234 O248 1.258 . S
C234 O249 1.256 . S
C235 La225 2.899 1_655 S
C235 C236 1.503 . S
C235 O250 1.261 . S
C235 O251 1.243 . S
C236 C235 1.503 . S
C236 C237 1.394 . S
C236 C241 1.373 . S
C237 C236 1.394 . S
C237 C238 1.380 . S
C237 H260 0.930 . S
C238 C237 1.380 . S
C238 C239 1.376 . S
C238 H261 0.930 . S
C239 C238 1.376 . S
C239 C240 1.370 . S
C240 C239 1.370 . S
C240 C241 1.396 . S
C240 H262 0.929 . S
C241 C236 1.373 . S
C241 C240 1.396 . S
C241 H263 0.929 . S
C242 O252 1.240 . S
C242 O253 1.289 . S
C243 O254 1.258 . S
C243 O255 1.234 1_556 S
O244 La224 2.521 . S
O244 C226 1.261 . S
O245 La224 2.628 . S
O245 C226 1.243 . S
O246 La224 2.554 1_655 S
O246 C233 1.240 . S
O247 La224 2.757 1_655 S
O247 La225 2.473 1_654 S
O247 C233 1.289 . S
O248 La224 2.470 . S
O248 C234 1.258 . S
O249 La225 2.533 1_554 S
O249 C234 1.256 . S
O250 La225 2.503 1_655 S
O250 C235 1.261 . S
O251 La225 2.594 1_655 S
O251 C235 1.243 . S
O252 La225 2.572 . S
O252 C242 1.240 . S
O253 La224 2.482 1_556 S
O253 La225 2.777 . S
O253 C242 1.289 . S
O254 La225 2.451 1_655 S
O254 C243 1.258 . S
O255 La224 2.523 1_655 S
O255 C243 1.234 1_554 S
H256 C228 0.930 . S
H257 C229 0.930 . S
H258 C231 0.929 . S
H259 C232 0.929 . S
H260 C237 0.930 . S
H261 C238 0.930 . S
H262 C240 0.929 . S
H263 C241 0.929 . S
H264 C272 0.929 . S
H265 C274 0.930 . S
H266 C276 0.930 . S
H267 C279 0.929 . S
H268 C282 0.930 . S
H269 C284 0.960 . S
H270 C284 0.960 . S
H271 C284 0.960 . S
C272 H264 0.929 . S
C272 C273 1.377 . S
C272 C274 1.384 . S
C273 C272 1.377 . S
C273 C279 1.390 . S
C274 H265 0.930 . S
C274 C272 1.384 . S
C274 C275 1.372 . S
C275 C274 1.372 . S
C275 C276 1.400 . S
C275 C280 1.490 . S
C276 H266 0.930 . S
C276 C275 1.400 . S
C276 C279 1.386 . S
H277 C293 0.930 . S
H278 C294 0.931 . S
C279 H267 0.929 . S
C279 C273 1.390 . S
C279 C276 1.386 . S
C280 C275 1.490 . S
C280 C282 1.395 . S
C280 C283 1.403 . S
H281 C287 0.930 . S
C282 H268 0.930 . S
C282 C280 1.395 . S
C282 C285 1.403 . S
C283 C280 1.403 . S
C283 C284 1.524 . S
C283 C287 1.400 . S
C284 H269 0.960 . S
C284 H270 0.960 . S
C284 H271 0.960 . S
C284 C283 1.524 . S
C285 C282 1.403 . S
C285 C286 1.392 . S
C285 C289 1.495 . S
C286 C285 1.392 . S
C286 C287 1.385 . S
C286 C288 1.478 . S
C287 H281 0.930 . S
C287 C283 1.400 . S
C287 C286 1.385 . S
C288 C286 1.478 . S
C288 C290 1.381 . S
C288 C294 1.383 . S
C289 C285 1.495 . S
C289 H295 0.959 . S
C289 H296 0.961 . S
C289 H297 0.960 . S
C290 C288 1.381 . S
C290 C291 1.394 . S
C290 H298 0.930 . S
C291 C290 1.394 . S
C291 C292 1.383 . S
C291 H299 0.929 . S
C292 C291 1.383 . S
C292 C293 1.377 . S
C293 H277 0.930 . S
C293 C292 1.377 . S
C293 C294 1.379 . S
C294 H278 0.931 . S
C294 C288 1.383 . S
C294 C293 1.379 . S
H295 C289 0.959 . S
H296 C289 0.961 . S
H297 C289 0.960 . S
H298 C290 0.930 . S
H299 C291 0.929 . S
H300 C308 0.929 . S
H301 C310 0.930 . S
H302 C312 0.930 . S
H303 C315 0.929 . S
H304 C318 0.930 . S
H305 C320 0.960 . S
H306 C320 0.960 . S
H307 C320 0.960 . S
C308 H300 0.929 . S
C308 C309 1.377 . S
C308 C310 1.384 . S
C309 C308 1.377 . S
C309 C315 1.390 . S
C310 H301 0.930 . S
C310 C308 1.384 . S
C310 C311 1.372 . S
C311 C310 1.372 . S
C311 C312 1.400 . S
C311 C316 1.490 . S
C312 H302 0.930 . S
C312 C311 1.400 . S
C312 C315 1.386 . S
H313 C329 0.930 . S
H314 C330 0.931 . S
C315 H303 0.929 . S
C315 C309 1.390 . S
C315 C312 1.386 . S
C316 C311 1.490 . S
C316 C318 1.395 . S
C316 C319 1.403 . S
H317 C323 0.930 . S
C318 H304 0.930 . S
C318 C316 1.395 . S
C318 C321 1.403 . S
C319 C316 1.403 . S
C319 C320 1.524 . S
C319 C323 1.400 . S
C320 H305 0.960 . S
C320 H306 0.960 . S
C320 H307 0.960 . S
C320 C319 1.524 . S
C321 C318 1.403 . S
C321 C322 1.392 . S
C321 C325 1.495 . S
C322 C321 1.392 . S
C322 C323 1.385 . S
C322 C324 1.478 . S
C323 H317 0.930 . S
C323 C319 1.400 . S
C323 C322 1.385 . S
C324 C322 1.478 . S
C324 C326 1.381 . S
C324 C330 1.383 . S
C325 C321 1.495 . S
C325 H331 0.959 . S
C325 H332 0.961 . S
C325 H333 0.960 . S
C326 C324 1.381 . S
C326 C327 1.394 . S
C326 H334 0.930 . S
C327 C326 1.394 . S
C327 C328 1.383 . S
C327 H335 0.929 . S
C328 C327 1.383 . S
C328 C329 1.377 . S
C329 H313 0.930 . S
C329 C328 1.377 . S
C329 C330 1.379 . S
C330 H314 0.931 . S
C330 C324 1.383 . S
C330 C329 1.379 . S
H331 C325 0.959 . S
H332 C325 0.961 . S
H333 C325 0.960 . S
H334 C326 0.930 . S
H335 C327 0.929 . S
H336 C344 0.929 . S
H337 C346 0.930 . S
H338 C348 0.930 . S
H339 C351 0.929 . S
H340 C354 0.930 . S
H341 C356 0.960 . S
H342 C356 0.960 . S
H343 C356 0.960 . S
C344 H336 0.929 . S
C344 C345 1.377 . S
C344 C346 1.384 . S
C345 C344 1.377 . S
C345 C351 1.390 . S
C346 H337 0.930 . S
C346 C344 1.384 . S
C346 C347 1.372 . S
C347 C346 1.372 . S
C347 C348 1.400 . S
C347 C352 1.490 . S
C348 H338 0.930 . S
C348 C347 1.400 . S
C348 C351 1.386 . S
H349 C365 0.930 . S
H350 C366 0.931 . S
C351 H339 0.929 . S
C351 C345 1.390 . S
C351 C348 1.386 . S
C352 C347 1.490 . S
C352 C354 1.395 . S
C352 C355 1.403 . S
H353 C359 0.930 . S
C354 H340 0.930 . S
C354 C352 1.395 . S
C354 C357 1.403 . S
C355 C352 1.403 . S
C355 C356 1.524 . S
C355 C359 1.400 . S
C356 H341 0.960 . S
C356 H342 0.960 . S
C356 H343 0.960 . S
C356 C355 1.524 . S
C357 C354 1.403 . S
C357 C358 1.392 . S
C357 C361 1.495 . S
C358 C357 1.392 . S
C358 C359 1.385 . S
C358 C360 1.478 . S
C359 H353 0.930 . S
C359 C355 1.400 . S
C359 C358 1.385 . S
C360 C358 1.478 . S
C360 C362 1.381 . S
C360 C366 1.383 . S
C361 C357 1.495 . S
C361 H367 0.959 . S
C361 H368 0.961 . S
C361 H369 0.960 . S
C362 C360 1.381 . S
C362 C363 1.394 . S
C362 H370 0.930 . S
C363 C362 1.394 . S
C363 C364 1.383 . S
C363 H371 0.929 . S
C364 C363 1.383 . S
C364 C365 1.377 . S
C365 H349 0.930 . S
C365 C364 1.377 . S
C365 C366 1.379 . S
C366 H350 0.931 . S
C366 C360 1.383 . S
C366 C365 1.379 . S
H367 C361 0.959 . S
H368 C361 0.961 . S
H369 C361 0.960 . S
H370 C362 0.930 . S
H371 C363 0.929 . S
H372 C380 0.929 . S
H373 C382 0.930 . S
H374 C384 0.930 . S
H375 C387 0.929 . S
H376 C390 0.930 . S
H377 C392 0.960 . S
H378 C392 0.960 . S
H379 C392 0.960 . S
C380 H372 0.929 . S
C380 C381 1.377 . S
C380 C382 1.384 . S
C381 C380 1.377 . S
C381 C387 1.390 . S
C382 H373 0.930 . S
C382 C380 1.384 . S
C382 C383 1.372 . S
C383 C382 1.372 . S
C383 C384 1.400 . S
C383 C388 1.490 . S
C384 H374 0.930 . S
C384 C383 1.400 . S
C384 C387 1.386 . S
H385 C401 0.930 . S
H386 C402 0.931 . S
C387 H375 0.929 . S
C387 C381 1.390 . S
C387 C384 1.386 . S
C388 C383 1.490 . S
C388 C390 1.395 . S
C388 C391 1.403 . S
H389 C395 0.930 . S
C390 H376 0.930 . S
C390 C388 1.395 . S
C390 C393 1.403 . S
C391 C388 1.403 . S
C391 C392 1.524 . S
C391 C395 1.400 . S
C392 H377 0.960 . S
C392 H378 0.960 . S
C392 H379 0.960 . S
C392 C391 1.524 . S
C393 C390 1.403 . S
C393 C394 1.392 . S
C393 C397 1.495 . S
C394 C393 1.392 . S
C394 C395 1.385 . S
C394 C396 1.478 . S
C395 H389 0.930 . S
C395 C391 1.400 . S
C395 C394 1.385 . S
C396 C394 1.478 . S
C396 C398 1.381 . S
C396 C402 1.383 . S
C397 C393 1.495 . S
C397 H403 0.959 . S
C397 H404 0.961 . S
C397 H405 0.960 . S
C398 C396 1.381 . S
C398 C399 1.394 . S
C398 H406 0.930 . S
C399 C398 1.394 . S
C399 C400 1.383 . S
C399 H407 0.929 . S
C400 C399 1.383 . S
C400 C401 1.377 . S
C401 H385 0.930 . S
C401 C400 1.377 . S
C401 C402 1.379 . S
C402 H386 0.931 . S
C402 C396 1.383 . S
C402 C401 1.379 . S
H403 C397 0.959 . S
H404 C397 0.961 . S
H405 C397 0.960 . S
H406 C398 0.930 . S
H407 C399 0.929 . S
H408 C416 0.929 . S
H409 C418 0.930 . S
H410 C420 0.930 . S
H411 C423 0.929 . S
H412 C426 0.930 . S
H413 C428 0.960 . S
H414 C428 0.960 . S
H415 C428 0.960 . S
C416 H408 0.929 . S
C416 C417 1.377 . S
C416 C418 1.384 . S
C417 C416 1.377 . S
C417 C423 1.390 . S
C418 H409 0.930 . S
C418 C416 1.384 . S
C418 C419 1.372 . S
C419 C418 1.372 . S
C419 C420 1.400 . S
C419 C424 1.490 . S
C420 H410 0.930 . S
C420 C419 1.400 . S
C420 C423 1.386 . S
H421 C437 0.930 . S
H422 C438 0.931 . S
C423 H411 0.929 . S
C423 C417 1.390 . S
C423 C420 1.386 . S
C424 C419 1.490 . S
C424 C426 1.395 . S
C424 C427 1.403 . S
H425 C431 0.930 . S
C426 H412 0.930 . S
C426 C424 1.395 . S
C426 C429 1.403 . S
C427 C424 1.403 . S
C427 C428 1.524 . S
C427 C431 1.400 . S
C428 H413 0.960 . S
C428 H414 0.960 . S
C428 H415 0.960 . S
C428 C427 1.524 . S
C429 C426 1.403 . S
C429 C430 1.392 . S
C429 C433 1.495 . S
C430 C429 1.392 . S
C430 C431 1.385 . S
C430 C432 1.478 . S
C431 H425 0.930 . S
C431 C427 1.400 . S
C431 C430 1.385 . S
C432 C430 1.478 . S
C432 C434 1.381 . S
C432 C438 1.383 . S
C433 C429 1.495 . S
C433 H439 0.959 . S
C433 H440 0.961 . S
C433 H441 0.960 . S
C434 C432 1.381 . S
C434 C435 1.394 . S
C434 H442 0.930 . S
C435 C434 1.394 . S
C435 C436 1.383 . S
C435 H443 0.929 . S
C436 C435 1.383 . S
C436 C437 1.377 . S
C437 H421 0.930 . S
C437 C436 1.377 . S
C437 C438 1.379 . S
C438 H422 0.931 . S
C438 C432 1.383 . S
C438 C437 1.379 . S
H439 C433 0.959 . S
H440 C433 0.961 . S
H441 C433 0.960 . S
H442 C434 0.930 . S
H443 C435 0.929 . S
H444 C452 0.929 . S
H445 C454 0.930 . S
H446 C456 0.930 . S
H447 C459 0.929 . S
H448 C462 0.930 . S
H449 C464 0.960 . S
H450 C464 0.960 . S
H451 C464 0.960 . S
C452 H444 0.929 . S
C452 C453 1.377 . S
C452 C454 1.384 . S
C453 C452 1.377 . S
C453 C459 1.390 . S
C454 H445 0.930 . S
C454 C452 1.384 . S
C454 C455 1.372 . S
C455 C454 1.372 . S
C455 C456 1.400 . S
C455 C460 1.490 . S
C456 H446 0.930 . S
C456 C455 1.400 . S
C456 C459 1.386 . S
H457 C473 0.930 . S
H458 C474 0.931 . S
C459 H447 0.929 . S
C459 C453 1.390 . S
C459 C456 1.386 . S
C460 C455 1.490 . S
C460 C462 1.395 . S
C460 C463 1.403 . S
H461 C467 0.930 . S
C462 H448 0.930 . S
C462 C460 1.395 . S
C462 C465 1.403 . S
C463 C460 1.403 . S
C463 C464 1.524 . S
C463 C467 1.400 . S
C464 H449 0.960 . S
C464 H450 0.960 . S
C464 H451 0.960 . S
C464 C463 1.524 . S
C465 C462 1.403 . S
C465 C466 1.392 . S
C465 C469 1.495 . S
C466 C465 1.392 . S
C466 C467 1.385 . S
C466 C468 1.478 . S
C467 H461 0.930 . S
C467 C463 1.400 . S
C467 C466 1.385 . S
C468 C466 1.478 . S
C468 C470 1.381 . S
C468 C474 1.383 . S
C469 C465 1.495 . S
C469 H475 0.959 . S
C469 H476 0.961 . S
C469 H477 0.960 . S
C470 C468 1.381 . S
C470 C471 1.394 . S
C470 H478 0.930 . S
C471 C470 1.394 . S
C471 C472 1.383 . S
C471 H479 0.929 . S
C472 C471 1.383 . S
C472 C473 1.377 1_565 S
C473 H457 0.930 . S
C473 C472 1.377 1_545 S
C473 C474 1.379 1_545 S
C474 H458 0.931 . S
C474 C468 1.383 . S
C474 C473 1.379 1_565 S
H475 C469 0.959 . S
H476 C469 0.961 . S
H477 C469 0.960 . S
H478 C470 0.930 . S
H479 C471 0.929 . S
H480 C488 0.929 . S
H481 C490 0.930 . S
H482 C492 0.930 . S
H483 C495 0.929 . S
H484 C498 0.930 . S
H485 C500 0.960 . S
H486 C500 0.960 . S
H487 C500 0.960 . S
C488 H480 0.929 . S
C488 C489 1.377 . S
C488 C490 1.384 . S
C489 C488 1.377 . S
C489 C495 1.390 . S
C490 H481 0.930 . S
C490 C488 1.384 . S
C490 C491 1.372 . S
C491 C490 1.372 . S
C491 C492 1.400 . S
C491 C496 1.490 . S
C492 H482 0.930 . S
C492 C491 1.400 . S
C492 C495 1.386 . S
H493 C509 0.930 . S
H494 C510 0.931 . S
C495 H483 0.929 . S
C495 C489 1.390 . S
C495 C492 1.386 . S
C496 C491 1.490 . S
C496 C498 1.395 . S
C496 C499 1.403 . S
H497 C503 0.930 . S
C498 H484 0.930 . S
C498 C496 1.395 . S
C498 C501 1.403 . S
C499 C496 1.403 . S
C499 C500 1.524 . S
C499 C503 1.400 . S
C500 H485 0.960 . S
C500 H486 0.960 . S
C500 H487 0.960 . S
C500 C499 1.524 . S
C501 C498 1.403 . S
C501 C502 1.392 . S
C501 C505 1.495 . S
C502 C501 1.392 . S
C502 C503 1.385 . S
C502 C504 1.478 . S
C503 H497 0.930 . S
C503 C499 1.400 . S
C503 C502 1.385 . S
C504 C502 1.478 . S
C504 C506 1.381 . S
C504 C510 1.383 . S
C505 C501 1.495 . S
C505 H511 0.959 . S
C505 H512 0.961 . S
C505 H513 0.960 . S
C506 C504 1.381 . S
C506 C507 1.394 . S
C506 H514 0.930 . S
C507 C506 1.394 . S
C507 C508 1.383 . S
C507 H515 0.929 . S
C508 C507 1.383 . S
C508 C509 1.377 . S
C509 H493 0.930 . S
C509 C508 1.377 . S
C509 C510 1.379 . S
C510 H494 0.931 . S
C510 C504 1.383 . S
C510 C509 1.379 . S
H511 C505 0.959 . S
H512 C505 0.961 . S
H513 C505 0.960 . S
H514 C506 0.930 . S
H515 C507 0.929 . S
H516 C524 0.929 . S
H517 C526 0.930 . S
H518 C528 0.930 . S
H519 C531 0.929 . S
H520 C534 0.930 . S
H521 C536 0.960 . S
H522 C536 0.960 . S
H523 C536 0.960 . S
C524 H516 0.929 . S
C524 C525 1.377 . S
C524 C526 1.384 . S
C525 C524 1.377 . S
C525 C531 1.390 . S
C526 H517 0.930 . S
C526 C524 1.384 . S
C526 C527 1.372 . S
C527 C526 1.372 . S
C527 C528 1.400 . S
C527 C532 1.490 . S
C528 H518 0.930 . S
C528 C527 1.400 . S
C528 C531 1.386 . S
H529 C545 0.930 . S
H530 C546 0.931 . S
C531 H519 0.929 . S
C531 C525 1.390 . S
C531 C528 1.386 . S
C532 C527 1.490 . S
C532 C534 1.395 . S
C532 C535 1.403 . S
H533 C539 0.930 . S
C534 H520 0.930 . S
C534 C532 1.395 . S
C534 C537 1.403 . S
C535 C532 1.403 . S
C535 C536 1.524 . S
C535 C539 1.400 . S
C536 H521 0.960 . S
C536 H522 0.960 . S
C536 H523 0.960 . S
C536 C535 1.524 . S
C537 C534 1.403 . S
C537 C538 1.392 . S
C537 C541 1.495 . S
C538 C537 1.392 . S
C538 C539 1.385 . S
C538 C540 1.478 . S
C539 H533 0.930 . S
C539 C535 1.400 . S
C539 C538 1.385 . S
C540 C538 1.478 . S
C540 C542 1.381 . S
C540 C546 1.383 . S
C541 C537 1.495 . S
C541 H547 0.959 . S
C541 H548 0.961 . S
C541 H549 0.960 . S
C542 C540 1.381 . S
C542 C543 1.394 . S
C542 H550 0.930 . S
C543 C542 1.394 . S
C543 C544 1.383 . S
C543 H551 0.929 . S
C544 C543 1.383 . S
C544 C545 1.377 . S
C545 H529 0.930 . S
C545 C544 1.377 . S
C545 C546 1.379 . S
C546 H530 0.931 . S
C546 C540 1.383 . S
C546 C545 1.379 . S
H547 C541 0.959 . S
H548 C541 0.961 . S
H549 C541 0.960 . S
H550 C542 0.930 . S
H551 C543 0.929 . S
H552 C560 0.929 . S
H553 C562 0.930 . S
H554 C564 0.930 . S
H555 C567 0.929 . S
H556 C570 0.930 . S
H557 C572 0.960 . S
H558 C572 0.960 . S
H559 C572 0.960 . S
C560 H552 0.929 . S
C560 C561 1.377 . S
C560 C562 1.384 . S
C561 C560 1.377 . S
C561 C567 1.390 . S
C562 H553 0.930 . S
C562 C560 1.384 . S
C562 C563 1.372 . S
C563 C562 1.372 . S
C563 C564 1.400 . S
C563 C568 1.490 . S
C564 H554 0.930 . S
C564 C563 1.400 . S
C564 C567 1.386 . S
H565 C581 0.930 . S
H566 C582 0.931 . S
C567 H555 0.929 . S
C567 C561 1.390 . S
C567 C564 1.386 . S
C568 C563 1.490 . S
C568 C570 1.395 . S
C568 C571 1.403 . S
H569 C575 0.930 . S
C570 H556 0.930 . S
C570 C568 1.395 . S
C570 C573 1.403 . S
C571 C568 1.403 . S
C571 C572 1.524 . S
C571 C575 1.400 . S
C572 H557 0.960 . S
C572 H558 0.960 . S
C572 H559 0.960 . S
C572 C571 1.524 . S
C573 C570 1.403 . S
C573 C574 1.392 . S
C573 C577 1.495 . S
C574 C573 1.392 . S
C574 C575 1.385 . S
C574 C576 1.478 . S
C575 H569 0.930 . S
C575 C571 1.400 . S
C575 C574 1.385 . S
C576 C574 1.478 . S
C576 C578 1.381 . S
C576 C582 1.383 . S
C577 C573 1.495 . S
C577 H583 0.959 . S
C577 H584 0.961 . S
C577 H585 0.960 . S
C578 C576 1.381 . S
C578 C579 1.394 . S
C578 H586 0.930 . S
C579 C578 1.394 . S
C579 C580 1.383 . S
C579 H587 0.929 . S
C580 C579 1.383 . S
C580 C581 1.377 . S
C581 H565 0.930 . S
C581 C580 1.377 . S
C581 C582 1.379 . S
C582 H566 0.931 . S
C582 C576 1.383 . S
C582 C581 1.379 . S
H583 C577 0.959 . S
H584 C577 0.961 . S
H585 C577 0.960 . S
H586 C578 0.930 . S
H587 C579 0.929 . S
H588 C596 0.929 . S
H589 C598 0.930 . S
H590 C600 0.930 . S
H591 C603 0.929 . S
H592 C606 0.930 . S
H593 C608 0.960 . S
H594 C608 0.960 . S
H595 C608 0.960 . S
C596 H588 0.929 . S
C596 C597 1.377 . S
C596 C598 1.384 . S
C597 C596 1.377 . S
C597 C603 1.390 . S
C598 H589 0.930 . S
C598 C596 1.384 . S
C598 C599 1.372 . S
C599 C598 1.372 . S
C599 C600 1.400 . S
C599 C604 1.490 . S
C600 H590 0.930 . S
C600 C599 1.400 . S
C600 C603 1.386 . S
H601 C617 0.930 . S
H602 C618 0.931 1_554 S
C603 H591 0.929 . S
C603 C597 1.390 . S
C603 C600 1.386 . S
C604 C599 1.490 . S
C604 C606 1.395 . S
C604 C607 1.403 . S
H605 C611 0.930 . S
C606 H592 0.930 . S
C606 C604 1.395 . S
C606 C609 1.403 . S
C607 C604 1.403 . S
C607 C608 1.524 . S
C607 C611 1.400 . S
C608 H593 0.960 . S
C608 H594 0.960 . S
C608 H595 0.960 . S
C608 C607 1.524 . S
C609 C606 1.403 . S
C609 C610 1.392 . S
C609 C613 1.495 . S
C610 C609 1.392 . S
C610 C611 1.385 . S
C610 C612 1.478 . S
C611 H605 0.930 . S
C611 C607 1.400 . S
C611 C610 1.385 . S
C612 C610 1.478 . S
C612 C614 1.381 . S
C612 C618 1.383 . S
C613 C609 1.495 . S
C613 H619 0.959 . S
C613 H620 0.961 . S
C613 H621 0.960 . S
C614 C612 1.381 . S
C614 C615 1.394 . S
C614 H622 0.930 . S
C615 C614 1.394 . S
C615 C616 1.383 . S
C615 H623 0.929 . S
C616 C615 1.383 . S
C616 C617 1.377 1_556 S
C617 H601 0.930 . S
C617 C616 1.377 1_554 S
C617 C618 1.379 1_554 S
C618 H602 0.931 1_556 S
C618 C612 1.383 . S
C618 C617 1.379 1_556 S
H619 C613 0.959 . S
H620 C613 0.961 . S
H621 C613 0.960 . S
H622 C614 0.930 . S
H623 C615 0.929 . S
H624 C632 0.929 . S
H625 C634 0.930 . S
H626 C636 0.930 . S
H627 C639 0.929 . S
H628 C642 0.930 . S
H629 C644 0.960 . S
H630 C644 0.960 . S
H631 C644 0.960 . S
C632 H624 0.929 . S
C632 C633 1.377 . S
C632 C634 1.384 . S
C633 C632 1.377 . S
C633 C639 1.390 . S
C634 H625 0.930 . S
C634 C632 1.384 . S
C634 C635 1.372 . S
C635 C634 1.372 . S
C635 C636 1.400 . S
C635 C640 1.490 . S
C636 H626 0.930 . S
C636 C635 1.400 . S
C636 C639 1.386 . S
H637 C653 0.930 . S
H638 C654 0.931 . S
C639 H627 0.929 . S
C639 C633 1.390 . S
C639 C636 1.386 . S
C640 C635 1.490 . S
C640 C642 1.395 . S
C640 C643 1.403 . S
H641 C647 0.930 . S
C642 H628 0.930 . S
C642 C640 1.395 . S
C642 C645 1.403 . S
C643 C640 1.403 . S
C643 C644 1.524 . S
C643 C647 1.400 . S
C644 H629 0.960 . S
C644 H630 0.960 . S
C644 H631 0.960 . S
C644 C643 1.524 . S
C645 C642 1.403 . S
C645 C646 1.392 . S
C645 C649 1.495 . S
C646 C645 1.392 . S
C646 C647 1.385 . S
C646 C648 1.478 . S
C647 H641 0.930 . S
C647 C643 1.400 . S
C647 C646 1.385 . S
C648 C646 1.478 . S
C648 C650 1.381 . S
C648 C654 1.383 . S
C649 C645 1.495 . S
C649 H655 0.959 . S
C649 H656 0.961 1_655 S
C649 H657 0.960 . S
C650 C648 1.381 . S
C650 C651 1.394 . S
C650 H658 0.930 . S
C651 C650 1.394 . S
C651 C652 1.383 . S
C651 H659 0.929 . S
C652 C651 1.383 . S
C652 C653 1.377 . S
C653 H637 0.930 . S
C653 C652 1.377 . S
C653 C654 1.379 . S
C654 H638 0.931 . S
C654 C648 1.383 . S
C654 C653 1.379 . S
H655 C649 0.959 . S
H656 C649 0.961 1_455 S
H657 C649 0.960 . S
H658 C650 0.930 . S
H659 C651 0.929 . S
H660 C668 0.929 . S
H661 C670 0.930 . S
H662 C672 0.930 . S
H663 C675 0.929 . S
H664 C678 0.930 . S
H665 C680 0.960 . S
H666 C680 0.960 . S
H667 C680 0.960 . S
C668 H660 0.929 . S
C668 C669 1.377 . S
C668 C670 1.384 . S
C669 C668 1.377 . S
C669 C675 1.390 . S
C670 H661 0.930 . S
C670 C668 1.384 . S
C670 C671 1.372 . S
C671 C670 1.372 . S
C671 C672 1.400 . S
C671 C676 1.490 . S
C672 H662 0.930 . S
C672 C671 1.400 . S
C672 C675 1.386 . S
H673 C689 0.930 . S
H674 C690 0.931 . S
C675 H663 0.929 . S
C675 C669 1.390 . S
C675 C672 1.386 . S
C676 C671 1.490 . S
C676 C678 1.395 . S
C676 C679 1.403 . S
H677 C683 0.930 . S
C678 H664 0.930 . S
C678 C676 1.395 . S
C678 C681 1.403 . S
C679 C676 1.403 . S
C679 C680 1.524 . S
C679 C683 1.400 . S
C680 H665 0.960 . S
C680 H666 0.960 . S
C680 H667 0.960 . S
C680 C679 1.524 . S
C681 C678 1.403 . S
C681 C682 1.392 . S
C681 C685 1.495 . S
C682 C681 1.392 . S
C682 C683 1.385 . S
C682 C684 1.478 . S
C683 H677 0.930 . S
C683 C679 1.400 . S
C683 C682 1.385 . S
C684 C682 1.478 . S
C684 C686 1.381 . S
C684 C690 1.383 . S
C685 C681 1.495 . S
C685 H691 0.959 . S
C685 H692 0.961 . S
C685 H693 0.960 . S
C686 C684 1.381 . S
C686 C687 1.394 . S
C686 H694 0.930 . S
C687 C686 1.394 . S
C687 C688 1.383 . S
C687 H695 0.929 . S
C688 C687 1.383 . S
C688 C689 1.377 . S
C689 H673 0.930 . S
C689 C688 1.377 . S
C689 C690 1.379 . S
C690 H674 0.931 . S
C690 C684 1.383 . S
C690 C689 1.379 . S
H691 C685 0.959 . S
H692 C685 0.961 . S
H693 C685 0.960 . S
H694 C686 0.930 . S
H695 C687 0.929 . S
H696 C704 0.929 . S
H697 C706 0.930 . S
H698 C708 0.930 . S
H699 C711 0.929 . S
H700 C714 0.930 . S
H701 C716 0.960 . S
H702 C716 0.960 . S
H703 C716 0.960 . S
C704 H696 0.929 . S
C704 C705 1.377 . S
C704 C706 1.384 . S
C705 C704 1.377 . S
C705 C711 1.390 . S
C706 H697 0.930 . S
C706 C704 1.384 . S
C706 C707 1.372 . S
C707 C706 1.372 . S
C707 C708 1.400 . S
C707 C712 1.490 . S
C708 H698 0.930 . S
C708 C707 1.400 . S
C708 C711 1.386 . S
H709 C725 0.930 . S
H710 C726 0.931 . S
C711 H699 0.929 . S
C711 C705 1.390 . S
C711 C708 1.386 . S
C712 C707 1.490 . S
C712 C714 1.395 . S
C712 C715 1.403 . S
H713 C719 0.930 . S
C714 H700 0.930 . S
C714 C712 1.395 . S
C714 C717 1.403 . S
C715 C712 1.403 . S
C715 C716 1.524 . S
C715 C719 1.400 . S
C716 H701 0.960 . S
C716 H702 0.960 . S
C716 H703 0.960 . S
C716 C715 1.524 . S
C717 C714 1.403 . S
C717 C718 1.392 . S
C717 C721 1.495 . S
C718 C717 1.392 . S
C718 C719 1.385 . S
C718 C720 1.478 . S
C719 H713 0.930 . S
C719 C715 1.400 . S
C719 C718 1.385 . S
C720 C718 1.478 . S
C720 C722 1.381 . S
C720 C726 1.383 . S
C721 C717 1.495 . S
C721 H727 0.959 . S
C721 H728 0.961 . S
C721 H729 0.960 . S
C722 C720 1.381 . S
C722 C723 1.394 . S
C722 H730 0.930 . S
C723 C722 1.394 . S
C723 C724 1.383 . S
C723 H731 0.929 . S
C724 C723 1.383 . S
C724 C725 1.377 . S
C725 H709 0.930 . S
C725 C724 1.377 . S
C725 C726 1.379 . S
C726 H710 0.931 . S
C726 C720 1.383 . S
C726 C725 1.379 . S
H727 C721 0.959 . S
H728 C721 0.961 . S
H729 C721 0.960 . S
H730 C722 0.930 . S
H731 C723 0.929 . S
H732 C740 0.929 . S
H733 C742 0.930 . S
H734 C744 0.930 . S
H735 C747 0.929 . S
H736 C750 0.930 . S
H737 C752 0.960 . S
H738 C752 0.960 . S
H739 C752 0.960 . S
C740 H732 0.929 . S
C740 C741 1.377 . S
C740 C742 1.384 . S
C741 C740 1.377 . S
C741 C747 1.390 . S
C742 H733 0.930 . S
C742 C740 1.384 . S
C742 C743 1.372 . S
C743 C742 1.372 . S
C743 C744 1.400 . S
C743 C748 1.490 . S
C744 H734 0.930 . S
C744 C743 1.400 . S
C744 C747 1.386 . S
H745 C761 0.930 . S
H746 C762 0.931 . S
C747 H735 0.929 . S
C747 C741 1.390 . S
C747 C744 1.386 . S
C748 C743 1.490 . S
C748 C750 1.395 . S
C748 C751 1.403 . S
H749 C755 0.930 . S
C750 H736 0.930 . S
C750 C748 1.395 . S
C750 C753 1.403 . S
C751 C748 1.403 . S
C751 C752 1.524 . S
C751 C755 1.400 . S
C752 H737 0.960 . S
C752 H738 0.960 . S
C752 H739 0.960 . S
C752 C751 1.524 . S
C753 C750 1.403 . S
C753 C754 1.392 . S
C753 C757 1.495 . S
C754 C753 1.392 . S
C754 C755 1.385 . S
C754 C756 1.478 . S
C755 H749 0.930 . S
C755 C751 1.400 . S
C755 C754 1.385 . S
C756 C754 1.478 . S
C756 C758 1.381 . S
C756 C762 1.383 . S
C757 C753 1.495 . S
C757 H763 0.959 . S
C757 H764 0.961 . S
C757 H765 0.960 . S
C758 C756 1.381 . S
C758 C759 1.394 . S
C758 H766 0.930 . S
C759 C758 1.394 . S
C759 C760 1.383 . S
C759 H767 0.929 . S
C760 C759 1.383 . S
C760 C761 1.377 . S
C761 H745 0.930 . S
C761 C760 1.377 . S
C761 C762 1.379 . S
C762 H746 0.931 . S
C762 C756 1.383 . S
C762 C761 1.379 . S
H763 C757 0.959 . S
H764 C757 0.961 . S
H765 C757 0.960 . S
H766 C758 0.930 . S
H767 C759 0.929 . S
H768 C776 0.929 . S
H769 C778 0.930 . S
H770 C780 0.930 . S
H771 C783 0.929 . S
H772 C786 0.930 . S
H773 C788 0.960 . S
H774 C788 0.960 . S
H775 C788 0.960 . S
C776 H768 0.929 . S
C776 C777 1.377 . S
C776 C778 1.384 . S
C777 C776 1.377 . S
C777 C783 1.390 . S
C778 H769 0.930 . S
C778 C776 1.384 . S
C778 C779 1.372 . S
C779 C778 1.372 . S
C779 C780 1.400 . S
C779 C784 1.490 . S
C780 H770 0.930 . S
C780 C779 1.400 . S
C780 C783 1.386 . S
H781 C797 0.930 . S
H782 C798 0.931 . S
C783 H771 0.929 . S
C783 C777 1.390 . S
C783 C780 1.386 . S
C784 C779 1.490 . S
C784 C786 1.395 . S
C784 C787 1.403 . S
H785 C791 0.930 . S
C786 H772 0.930 . S
C786 C784 1.395 . S
C786 C789 1.403 . S
C787 C784 1.403 . S
C787 C788 1.524 . S
C787 C791 1.400 . S
C788 H773 0.960 . S
C788 H774 0.960 . S
C788 H775 0.960 . S
C788 C787 1.524 . S
C789 C786 1.403 . S
C789 C790 1.392 . S
C789 C793 1.495 . S
C790 C789 1.392 . S
C790 C791 1.385 . S
C790 C792 1.478 . S
C791 H785 0.930 . S
C791 C787 1.400 . S
C791 C790 1.385 . S
C792 C790 1.478 . S
C792 C794 1.381 . S
C792 C798 1.383 . S
C793 C789 1.495 . S
C793 H799 0.959 . S
C793 H800 0.961 . S
C793 H801 0.960 . S
C794 C792 1.381 . S
C794 C795 1.394 . S
C794 H802 0.930 . S
C795 C794 1.394 . S
C795 C796 1.383 . S
C795 H803 0.929 . S
C796 C795 1.383 . S
C796 C797 1.377 . S
C797 H781 0.930 . S
C797 C796 1.377 . S
C797 C798 1.379 . S
C798 H782 0.931 . S
C798 C792 1.383 . S
C798 C797 1.379 . S
H799 C793 0.959 . S
H800 C793 0.961 . S
H801 C793 0.960 . S
H802 C794 0.930 . S
H803 C795 0.929 . S
H804 C812 0.929 . S
H805 C814 0.930 . S
H806 C816 0.930 . S
H807 C819 0.929 . S
H808 C822 0.930 . S
H809 C824 0.960 . S
H810 C824 0.960 . S
H811 C824 0.960 . S
C812 H804 0.929 . S
C812 C813 1.377 . S
C812 C814 1.384 . S
C813 C812 1.377 . S
C813 C819 1.390 . S
C814 H805 0.930 . S
C814 C812 1.384 . S
C814 C815 1.372 . S
C815 C814 1.372 . S
C815 C816 1.400 . S
C815 C820 1.490 . S
C816 H806 0.930 . S
C816 C815 1.400 . S
C816 C819 1.386 . S
H817 C833 0.930 . S
H818 C834 0.931 . S
C819 H807 0.929 . S
C819 C813 1.390 . S
C819 C816 1.386 . S
C820 C815 1.490 . S
C820 C822 1.395 . S
C820 C823 1.403 . S
H821 C827 0.930 . S
C822 H808 0.930 . S
C822 C820 1.395 . S
C822 C825 1.403 . S
C823 C820 1.403 . S
C823 C824 1.524 . S
C823 C827 1.400 . S
C824 H809 0.960 . S
C824 H810 0.960 . S
C824 H811 0.960 . S
C824 C823 1.524 . S
C825 C822 1.403 . S
C825 C826 1.392 . S
C825 C829 1.495 . S
C826 C825 1.392 . S
C826 C827 1.385 . S
C826 C828 1.478 . S
C827 H821 0.930 . S
C827 C823 1.400 . S
C827 C826 1.385 . S
C828 C826 1.478 . S
C828 C830 1.381 . S
C828 C834 1.383 . S
C829 C825 1.495 . S
C829 H835 0.959 . S
C829 H836 0.961 . S
C829 H837 0.960 . S
C830 C828 1.381 . S
C830 C831 1.394 . S
C830 H838 0.930 . S
C831 C830 1.394 . S
C831 C832 1.383 . S
C831 H839 0.929 . S
C832 C831 1.383 . S
C832 C833 1.377 . S
C833 H817 0.930 . S
C833 C832 1.377 . S
C833 C834 1.379 . S
C834 H818 0.931 . S
C834 C828 1.383 . S
C834 C833 1.379 . S
H835 C829 0.959 . S
H836 C829 0.961 . S
H837 C829 0.960 . S
H838 C830 0.930 . S
H839 C831 0.929 . S
H840 C848 0.929 . S
H841 C850 0.930 . S
H842 C852 0.930 . S
H843 C855 0.929 . S
H844 C858 0.930 . S
H845 C860 0.960 . S
H846 C860 0.960 . S
H847 C860 0.960 . S
C848 H840 0.929 . S
C848 C849 1.377 . S
C848 C850 1.384 . S
C849 C848 1.377 . S
C849 C855 1.390 . S
C850 H841 0.930 . S
C850 C848 1.384 . S
C850 C851 1.372 . S
C851 C850 1.372 . S
C851 C852 1.400 . S
C851 C856 1.490 . S
C852 H842 0.930 . S
C852 C851 1.400 . S
C852 C855 1.386 . S
H853 C869 0.930 1_554 S
H854 C870 0.931 . S
C855 H843 0.929 . S
C855 C849 1.390 . S
C855 C852 1.386 . S
C856 C851 1.490 . S
C856 C858 1.395 . S
C856 C859 1.403 . S
H857 C863 0.930 . S
C858 H844 0.930 . S
C858 C856 1.395 . S
C858 C861 1.403 . S
C859 C856 1.403 . S
C859 C860 1.524 . S
C859 C863 1.400 . S
C860 H845 0.960 . S
C860 H846 0.960 . S
C860 H847 0.960 . S
C860 C859 1.524 . S
C861 C858 1.403 . S
C861 C862 1.392 . S
C861 C865 1.495 . S
C862 C861 1.392 . S
C862 C863 1.385 . S
C862 C864 1.478 . S
C863 H857 0.930 . S
C863 C859 1.400 . S
C863 C862 1.385 . S
C864 C862 1.478 . S
C864 C866 1.381 . S
C864 C870 1.383 . S
C865 C861 1.495 . S
C865 H871 0.959 . S
C865 H872 0.961 . S
C865 H873 0.960 . S
C866 C864 1.381 . S
C866 C867 1.394 . S
C866 H874 0.930 . S
C867 C866 1.394 . S
C867 C868 1.383 . S
C867 H875 0.929 . S
C868 C867 1.383 . S
C868 C869 1.377 . S
C869 H853 0.930 1_556 S
C869 C868 1.377 . S
C869 C870 1.379 . S
C870 H854 0.931 . S
C870 C864 1.383 . S
C870 C869 1.379 . S
H871 C865 0.959 . S
H872 C865 0.961 . S
H873 C865 0.960 . S
H874 C866 0.930 . S
H875 C867 0.929 . S
H876 C884 0.929 . S
H877 C886 0.930 . S
H878 C888 0.930 . S
H879 C891 0.929 . S
H880 C894 0.930 . S
H881 C896 0.960 . S
H882 C896 0.960 . S
H883 C896 0.960 . S
C884 H876 0.929 . S
C884 C885 1.377 . S
C884 C886 1.384 . S
C885 C884 1.377 . S
C885 C891 1.390 . S
C886 H877 0.930 . S
C886 C884 1.384 . S
C886 C887 1.372 . S
C887 C886 1.372 . S
C887 C888 1.400 . S
C887 C892 1.490 . S
C888 H878 0.930 . S
C888 C887 1.400 . S
C888 C891 1.386 . S
H889 C905 0.930 . S
H890 C906 0.931 . S
C891 H879 0.929 . S
C891 C885 1.390 . S
C891 C888 1.386 . S
C892 C887 1.490 . S
C892 C894 1.395 . S
C892 C895 1.403 . S
H893 C899 0.930 . S
C894 H880 0.930 . S
C894 C892 1.395 . S
C894 C897 1.403 . S
C895 C892 1.403 . S
C895 C896 1.524 . S
C895 C899 1.400 . S
C896 H881 0.960 . S
C896 H882 0.960 . S
C896 H883 0.960 . S
C896 C895 1.524 . S
C897 C894 1.403 . S
C897 C898 1.392 . S
C897 C901 1.495 . S
C898 C897 1.392 . S
C898 C899 1.385 . S
C898 C900 1.478 . S
C899 H893 0.930 . S
C899 C895 1.400 . S
C899 C898 1.385 . S
C900 C898 1.478 . S
C900 C902 1.381 . S
C900 C906 1.383 . S
C901 C897 1.495 . S
C901 H907 0.959 . S
C901 H908 0.961 . S
C901 H909 0.960 . S
C902 C900 1.381 . S
C902 C903 1.394 . S
C902 H910 0.930 . S
C903 C902 1.394 . S
C903 C904 1.383 . S
C903 H911 0.929 . S
C904 C903 1.383 . S
C904 C905 1.377 . S
C905 H889 0.930 . S
C905 C904 1.377 . S
C905 C906 1.379 . S
C906 H890 0.931 . S
C906 C900 1.383 . S
C906 C905 1.379 . S
H907 C901 0.959 . S
H908 C901 0.961 . S
H909 C901 0.960 . S
H910 C902 0.930 . S
H911 C903 0.929 . S
H912 C920 0.929 . S
H913 C922 0.930 . S
H914 C924 0.930 . S
H915 C927 0.929 . S
H916 C930 0.930 . S
H917 C932 0.960 . S
H918 C932 0.960 . S
H919 C932 0.960 . S
C920 H912 0.929 . S
C920 C921 1.377 . S
C920 C922 1.384 . S
C921 C920 1.377 . S
C921 C927 1.390 . S
C922 H913 0.930 . S
C922 C920 1.384 . S
C922 C923 1.372 . S
C923 C922 1.372 . S
C923 C924 1.400 . S
C923 C928 1.490 . S
C924 H914 0.930 . S
C924 C923 1.400 . S
C924 C927 1.386 . S
H925 C941 0.930 . S
H926 C942 0.931 . S
C927 H915 0.929 . S
C927 C921 1.390 . S
C927 C924 1.386 . S
C928 C923 1.490 . S
C928 C930 1.395 . S
C928 C931 1.403 . S
H929 C935 0.930 . S
C930 H916 0.930 . S
C930 C928 1.395 . S
C930 C933 1.403 . S
C931 C928 1.403 . S
C931 C932 1.524 . S
C931 C935 1.400 . S
C932 H917 0.960 . S
C932 H918 0.960 . S
C932 H919 0.960 . S
C932 C931 1.524 . S
C933 C930 1.403 . S
C933 C934 1.392 . S
C933 C937 1.495 . S
C934 C933 1.392 . S
C934 C935 1.385 . S
C934 C936 1.478 . S
C935 H929 0.930 . S
C935 C931 1.400 . S
C935 C934 1.385 . S
C936 C934 1.478 . S
C936 C938 1.381 . S
C936 C942 1.383 . S
C937 C933 1.495 . S
C937 H943 0.959 . S
C937 H944 0.961 . S
C937 H945 0.960 . S
C938 C936 1.381 . S
C938 C939 1.394 . S
C938 H946 0.930 . S
C939 C938 1.394 . S
C939 C940 1.383 . S
C939 H947 0.929 . S
C940 C939 1.383 . S
C940 C941 1.377 . S
C941 H925 0.930 . S
C941 C940 1.377 . S
C941 C942 1.379 . S
C942 H926 0.931 . S
C942 C936 1.383 . S
C942 C941 1.379 . S
H943 C937 0.959 . S
H944 C937 0.961 . S
H945 C937 0.960 . S
H946 C938 0.930 . S
H947 C939 0.929 . S
H948 C956 0.929 . S
H949 C958 0.930 . S
H950 C960 0.930 . S
H951 C963 0.929 . S
H952 C966 0.930 . S
H953 C968 0.960 . S
H954 C968 0.960 . S
H955 C968 0.960 . S
C956 H948 0.929 . S
C956 C957 1.377 . S
C956 C958 1.384 . S
C957 C956 1.377 . S
C957 C963 1.390 . S
C958 H949 0.930 . S
C958 C956 1.384 . S
C958 C959 1.372 . S
C959 C958 1.372 . S
C959 C960 1.400 . S
C959 C964 1.490 . S
C960 H950 0.930 . S
C960 C959 1.400 . S
C960 C963 1.386 . S
H961 C977 0.930 . S
H962 C978 0.931 . S
C963 H951 0.929 . S
C963 C957 1.390 . S
C963 C960 1.386 . S
C964 C959 1.490 . S
C964 C966 1.395 . S
C964 C967 1.403 . S
H965 C971 0.930 . S
C966 H952 0.930 . S
C966 C964 1.395 . S
C966 C969 1.403 . S
C967 C964 1.403 . S
C967 C968 1.524 . S
C967 C971 1.400 . S
C968 H953 0.960 . S
C968 H954 0.960 . S
C968 H955 0.960 . S
C968 C967 1.524 . S
C969 C966 1.403 . S
C969 C970 1.392 . S
C969 C973 1.495 . S
C970 C969 1.392 . S
C970 C971 1.385 . S
C970 C972 1.478 . S
C971 H965 0.930 . S
C971 C967 1.400 . S
C971 C970 1.385 . S
C972 C970 1.478 . S
C972 C974 1.381 . S
C972 C978 1.383 . S
C973 C969 1.495 . S
C973 H979 0.959 . S
C973 H980 0.961 . S
C973 H981 0.960 . S
C974 C972 1.381 . S
C974 C975 1.394 . S
C974 H982 0.930 . S
C975 C974 1.394 . S
C975 C976 1.383 . S
C975 H983 0.929 . S
C976 C975 1.383 . S
C976 C977 1.377 . S
C977 H961 0.930 . S
C977 C976 1.377 . S
C977 C978 1.379 . S
C978 H962 0.931 . S
C978 C972 1.383 . S
C978 C977 1.379 . S
H979 C973 0.959 . S
H980 C973 0.961 . S
H981 C973 0.960 . S
H982 C974 0.930 . S
H983 C975 0.929 . S
H984 C992 0.929 . S
H985 C994 0.930 . S
H986 C996 0.930 . S
H987 C999 0.929 . S
H988 C1002 0.930 . S
H989 C1004 0.960 . S
H990 C1004 0.960 . S
H991 C1004 0.960 . S
C992 H984 0.929 . S
C992 C993 1.377 . S
C992 C994 1.384 . S
C993 C992 1.377 . S
C993 C999 1.390 . S
C994 H985 0.930 . S
C994 C992 1.384 . S
C994 C995 1.372 . S
C995 C994 1.372 . S
C995 C996 1.400 . S
C995 C1000 1.490 . S
C996 H986 0.930 . S
C996 C995 1.400 . S
C996 C999 1.386 . S
H997 C1013 0.930 . S
H998 C1014 0.931 . S
C999 H987 0.929 . S
C999 C993 1.390 . S
C999 C996 1.386 . S
C1000 C995 1.490 . S
C1000 C1002 1.395 . S
C1000 C1003 1.403 . S
H1001 C1007 0.930 . S
C1002 H988 0.930 . S
C1002 C1000 1.395 . S
C1002 C1005 1.403 . S
C1003 C1000 1.403 . S
C1003 C1004 1.524 . S
C1003 C1007 1.400 . S
C1004 H989 0.960 . S
C1004 H990 0.960 . S
C1004 H991 0.960 . S
C1004 C1003 1.524 . S
C1005 C1002 1.403 . S
C1005 C1006 1.392 . S
C1005 C1009 1.495 . S
C1006 C1005 1.392 . S
C1006 C1007 1.385 . S
C1006 C1008 1.478 . S
C1007 H1001 0.930 . S
C1007 C1003 1.400 . S
C1007 C1006 1.385 . S
C1008 C1006 1.478 . S
C1008 C1010 1.381 . S
C1008 C1014 1.383 . S
C1009 C1005 1.495 . S
C1009 H1015 0.959 . S
C1009 H1016 0.961 . S
C1009 H1017 0.960 . S
C1010 C1008 1.381 . S
C1010 C1011 1.394 . S
C1010 H1018 0.930 . S
C1011 C1010 1.394 . S
C1011 C1012 1.383 . S
C1011 H1019 0.929 . S
C1012 C1011 1.383 . S
C1012 C1013 1.377 . S
C1013 H997 0.930 . S
C1013 C1012 1.377 . S
C1013 C1014 1.379 . S
C1014 H998 0.931 . S
C1014 C1008 1.383 . S
C1014 C1013 1.379 . S
H1015 C1009 0.959 . S
H1016 C1009 0.961 . S
H1017 C1009 0.960 . S
H1018 C1010 0.930 . S
H1019 C1011 0.929 . S
H1020 C1028 0.929 . S
H1021 C1030 0.930 . S
H1022 C1032 0.930 . S
H1023 C1035 0.929 . S
H1024 C1038 0.930 . S
H1025 C1040 0.960 . S
H1026 C1040 0.960 . S
H1027 C1040 0.960 . S
C1028 H1020 0.929 . S
C1028 C1029 1.377 . S
C1028 C1030 1.384 . S
C1029 C1028 1.377 . S
C1029 C1035 1.390 . S
C1030 H1021 0.930 . S
C1030 C1028 1.384 . S
C1030 C1031 1.372 . S
C1031 C1030 1.372 . S
C1031 C1032 1.400 . S
C1031 C1036 1.490 . S
C1032 H1022 0.930 . S
C1032 C1031 1.400 . S
C1032 C1035 1.386 . S
H1033 C1049 0.930 . S
H1034 C1050 0.931 . S
C1035 H1023 0.929 . S
C1035 C1029 1.390 . S
C1035 C1032 1.386 . S
C1036 C1031 1.490 . S
C1036 C1038 1.395 . S
C1036 C1039 1.403 . S
H1037 C1043 0.930 . S
C1038 H1024 0.930 . S
C1038 C1036 1.395 . S
C1038 C1041 1.403 . S
C1039 C1036 1.403 . S
C1039 C1040 1.524 . S
C1039 C1043 1.400 . S
C1040 H1025 0.960 . S
C1040 H1026 0.960 . S
C1040 H1027 0.960 . S
C1040 C1039 1.524 . S
C1041 C1038 1.403 . S
C1041 C1042 1.392 . S
C1041 C1045 1.495 . S
C1042 C1041 1.392 . S
C1042 C1043 1.385 . S
C1042 C1044 1.478 . S
C1043 H1037 0.930 . S
C1043 C1039 1.400 . S
C1043 C1042 1.385 . S
C1044 C1042 1.478 . S
C1044 C1046 1.381 . S
C1044 C1050 1.383 . S
C1045 C1041 1.495 . S
C1045 H1051 0.959 . S
C1045 H1052 0.961 . S
C1045 H1053 0.960 . S
C1046 C1044 1.381 . S
C1046 C1047 1.394 . S
C1046 H1054 0.930 . S
C1047 C1046 1.394 . S
C1047 C1048 1.383 . S
C1047 H1055 0.929 . S
C1048 C1047 1.383 . S
C1048 C1049 1.377 . S
C1049 H1033 0.930 . S
C1049 C1048 1.377 . S
C1049 C1050 1.379 . S
C1050 H1034 0.931 . S
C1050 C1044 1.383 . S
C1050 C1049 1.379 . S
H1051 C1045 0.959 . S
H1052 C1045 0.961 . S
H1053 C1045 0.960 . S
H1054 C1046 0.930 . S
H1055 C1047 0.929 . S
H1056 C1064 0.929 . S
H1057 C1066 0.930 . S
H1058 C1068 0.930 . S
H1059 C1071 0.929 . S
H1060 C1074 0.930 . S
H1061 C1076 0.960 . S
H1062 C1076 0.960 . S
H1063 C1076 0.960 . S
C1064 H1056 0.929 . S
C1064 C1065 1.377 . S
C1064 C1066 1.384 . S
C1065 C1064 1.377 . S
C1065 C1071 1.390 . S
C1066 H1057 0.930 . S
C1066 C1064 1.384 . S
C1066 C1067 1.372 . S
C1067 C1066 1.372 . S
C1067 C1068 1.400 . S
C1067 C1072 1.490 . S
C1068 H1058 0.930 . S
C1068 C1067 1.400 . S
C1068 C1071 1.386 . S
H1069 C1085 0.930 . S
H1070 C1086 0.931 . S
C1071 H1059 0.929 . S
C1071 C1065 1.390 . S
C1071 C1068 1.386 . S
C1072 C1067 1.490 . S
C1072 C1074 1.395 . S
C1072 C1075 1.403 . S
H1073 C1079 0.930 . S
C1074 H1060 0.930 . S
C1074 C1072 1.395 . S
C1074 C1077 1.403 . S
C1075 C1072 1.403 . S
C1075 C1076 1.524 . S
C1075 C1079 1.400 . S
C1076 H1061 0.960 . S
C1076 H1062 0.960 . S
C1076 H1063 0.960 . S
C1076 C1075 1.524 . S
C1077 C1074 1.403 . S
C1077 C1078 1.392 . S
C1077 C1081 1.495 . S
C1078 C1077 1.392 . S
C1078 C1079 1.385 . S
C1078 C1080 1.478 . S
C1079 H1073 0.930 . S
C1079 C1075 1.400 . S
C1079 C1078 1.385 . S
C1080 C1078 1.478 . S
C1080 C1082 1.381 . S
C1080 C1086 1.383 . S
C1081 C1077 1.495 . S
C1081 H1087 0.959 . S
C1081 H1088 0.961 . S
C1081 H1089 0.960 . S
C1082 C1080 1.381 . S
C1082 C1083 1.394 . S
C1082 H1090 0.930 . S
C1083 C1082 1.394 . S
C1083 C1084 1.383 . S
C1083 H1091 0.929 . S
C1084 C1083 1.383 . S
C1084 C1085 1.377 . S
C1085 H1069 0.930 . S
C1085 C1084 1.377 . S
C1085 C1086 1.379 . S
C1086 H1070 0.931 . S
C1086 C1080 1.383 . S
C1086 C1085 1.379 . S
H1087 C1081 0.959 . S
H1088 C1081 0.961 . S
H1089 C1081 0.960 . S
H1090 C1082 0.930 . S
H1091 C1083 0.929 . S
H1092 C1100 0.929 . S
H1093 C1102 0.930 . S
H1094 C1104 0.930 . S
H1095 C1107 0.929 . S
H1096 C1110 0.930 . S
H1097 C1112 0.960 . S
H1098 C1112 0.960 . S
H1099 C1112 0.960 . S
C1100 H1092 0.929 . S
C1100 C1101 1.377 . S
C1100 C1102 1.384 . S
C1101 C1100 1.377 . S
C1101 C1107 1.390 . S
C1102 H1093 0.930 . S
C1102 C1100 1.384 . S
C1102 C1103 1.372 . S
C1103 C1102 1.372 . S
C1103 C1104 1.400 . S
C1103 C1108 1.490 . S
C1104 H1094 0.930 . S
C1104 C1103 1.400 . S
C1104 C1107 1.386 . S
H1105 C1121 0.930 . S
H1106 C1122 0.931 . S
C1107 H1095 0.929 . S
C1107 C1101 1.390 . S
C1107 C1104 1.386 . S
C1108 C1103 1.490 . S
C1108 C1110 1.395 . S
C1108 C1111 1.403 . S
H1109 C1115 0.930 . S
C1110 H1096 0.930 . S
C1110 C1108 1.395 . S
C1110 C1113 1.403 . S
C1111 C1108 1.403 . S
C1111 C1112 1.524 . S
C1111 C1115 1.400 . S
C1112 H1097 0.960 . S
C1112 H1098 0.960 . S
C1112 H1099 0.960 . S
C1112 C1111 1.524 . S
C1113 C1110 1.403 . S
C1113 C1114 1.392 . S
C1113 C1117 1.495 . S
C1114 C1113 1.392 . S
C1114 C1115 1.385 . S
C1114 C1116 1.478 . S
C1115 H1109 0.930 . S
C1115 C1111 1.400 . S
C1115 C1114 1.385 . S
C1116 C1114 1.478 . S
C1116 C1118 1.381 . S
C1116 C1122 1.383 . S
C1117 C1113 1.495 . S
C1117 H1123 0.959 . S
C1117 H1124 0.961 . S
C1117 H1125 0.960 . S
C1118 C1116 1.381 . S
C1118 C1119 1.394 . S
C1118 H1126 0.930 . S
C1119 C1118 1.394 . S
C1119 C1120 1.383 . S
C1119 H1127 0.929 . S
C1120 C1119 1.383 . S
C1120 C1121 1.377 . S
C1121 H1105 0.930 . S
C1121 C1120 1.377 . S
C1121 C1122 1.379 . S
C1122 H1106 0.931 . S
C1122 C1116 1.383 . S
C1122 C1121 1.379 . S
H1123 C1117 0.959 . S
H1124 C1117 0.961 . S
H1125 C1117 0.960 . S
H1126 C1118 0.930 . S
H1127 C1119 0.929 . S
C273 N1 0.934 . S
C292 C110 0.952 . S
C309 N18 1.098 . S
C328 C159 1.137 . S
C364 C194 1.988 . S
C345 N28 2.024 . S
C381 N40 2.577 . S
C400 C233 2.567 . S
C436 C154 2.571 . S
C417 N5 2.550 . S
C472 C113 0.859 . S
C453 N14 0.815 . S
C508 C243 1.965 . S
C489 N31 2.004 . S
C544 C202 1.230 . S
C525 N41 1.262 . S
C561 N2 1.360 . S
C580 C230 1.369 . S
C616 C162 2.466 1_556 S
C597 N27 2.533 . S
C633 N44 2.412 . S
C652 C123 2.441 1_655 S
C669 N15 0.519 . S
C688 C199 0.554 . S
C724 C119 1.467 . S
C705 N57 1.502 . S
C741 N70 0.840 . S
C760 C150 0.859 . S
C777 N79 2.254 . S
C796 C203 2.267 . S
C813 N93 2.327 . S
C832 C242 2.296 . S
C849 N54 1.967 . S
C868 C163 2.038 1_566 S
C904 C122 1.566 . S
C885 N66 1.690 . S
C940 C234 1.236 . S
C921 N80 1.282 . S
C976 C193 1.635 . S
C957 N96 1.633 . S
C993 N53 1.456 . S
C1012 C239 1.489 . S
C1048 C153 2.083 . S
C1029 N83 2.113 . S
C1084 C114 2.654 . S
C1065 N92 2.652 . S
C1101 N67 0.692 . S
C1120 C190 0.723 . S
