# Generated by pormake.
# Topology anh, (6,3)-cn, num edge types: 1
# Building blocks:
#     Node 0, Type 0, BuildingBlock: MIFKUJ_clean_sbu_0, # of connection points: 6
#     Node 1, Type 0, BuildingBlock: MIFKUJ_clean_sbu_0, # of connection points: 6
#     Node 2, Type 0, BuildingBlock: MIFKUJ_clean_sbu_0, # of connection points: 6
#     Node 3, Type 1, BuildingBlock: VETTIZ_charged_linker_0, # of connection points: 3
#     Node 4, Type 1, BuildingBlock: VETTIZ_charged_linker_0, # of connection points: 3
#     Node 5, Type 1, BuildingBlock: VETTIZ_charged_linker_0, # of connection points: 3
#     Node 6, Type 1, BuildingBlock: VETTIZ_charged_linker_0, # of connection points: 3
#     Node 7, Type 1, BuildingBlock: VETTIZ_charged_linker_0, # of connection points: 3
#     Node 8, Type 1, BuildingBlock: VETTIZ_charged_linker_0, # of connection points: 3
#     Edge 9, Type (0, 1), BuildingBlock: CIFDUS_clean_linker_0, # of connection points: 2
#     Edge 10, Type (0, 1), BuildingBlock: CIFDUS_clean_linker_0, # of connection points: 2
#     Edge 11, Type (0, 1), BuildingBlock: CIFDUS_clean_linker_0, # of connection points: 2
#     Edge 12, Type (0, 1), BuildingBlock: CIFDUS_clean_linker_0, # of connection points: 2
#     Edge 13, Type (0, 1), BuildingBlock: CIFDUS_clean_linker_0, # of connection points: 2
#     Edge 14, Type (0, 1), BuildingBlock: CIFDUS_clean_linker_0, # of connection points: 2
#     Edge 15, Type (0, 1), BuildingBlock: CIFDUS_clean_linker_0, # of connection points: 2
#     Edge 16, Type (0, 1), BuildingBlock: CIFDUS_clean_linker_0, # of connection points: 2
#     Edge 17, Type (0, 1), BuildingBlock: CIFDUS_clean_linker_0, # of connection points: 2
#     Edge 18, Type (0, 1), BuildingBlock: CIFDUS_clean_linker_0, # of connection points: 2
#     Edge 19, Type (0, 1), BuildingBlock: CIFDUS_clean_linker_0, # of connection points: 2
#     Edge 20, Type (0, 1), BuildingBlock: CIFDUS_clean_linker_0, # of connection points: 2
#     Edge 21, Type (0, 1), BuildingBlock: CIFDUS_clean_linker_0, # of connection points: 2
#     Edge 22, Type (0, 1), BuildingBlock: CIFDUS_clean_linker_0, # of connection points: 2
#     Edge 23, Type (0, 1), BuildingBlock: CIFDUS_clean_linker_0, # of connection points: 2
#     Edge 24, Type (0, 1), BuildingBlock: CIFDUS_clean_linker_0, # of connection points: 2
#     Edge 25, Type (0, 1), BuildingBlock: CIFDUS_clean_linker_0, # of connection points: 2
#     Edge 26, Type (0, 1), BuildingBlock: CIFDUS_clean_linker_0, # of connection points: 2
# Relax obj value: 0.138
# Max RMSD: 0.186
# Mean RMSD: 0.149
data_MOF--net-anh--node1-MIFKUJ_clean_sbu_0--node2-VETTIZ_charged_linker_0--edge1-CIFDUS_clean_linker_0
_symmetry_space_group_name_H-M    P1
_symmetry_Int_Tables_number       1
_symmetry_cell_setting            triclinic
loop_
_symmetry_equiv_pos_as_xyz
'x, y, z'
_cell_length_a     33.36731
_cell_length_b     33.339484
_cell_length_c     57.402579
_cell_angle_alpha  93.572673
_cell_angle_beta   90.947075
_cell_angle_gamma 119.82488
loop_
_atom_site_label
_atom_site_type_symbol
_atom_site_fract_x
_atom_site_fract_y
_atom_site_fract_z
_atom_type_partial_charge
Zn0 Zn 0.06981 0.57648 0.16122 0.0
Zn1 Zn 0.9365 0.48704 0.16211 0.0
C2 C 0.10971 0.51411 0.16571 0.0
O3 O 0.07267 0.48583 0.17633 0.0
C4 C 0.86334 0.5072 0.16941 0.0
O5 O 0.85428 0.47767 0.18538 0.0
O6 O 0.11336 0.64495 0.1604 0.0
O7 O 0.02861 0.55992 0.1325 0.0
O8 O 0.9686 0.48852 0.13236 0.0
C9 C 0.1407 0.65642 0.14373 0.0
O10 O 0.13778 0.62387 0.12849 0.0
O11 O 0.11268 0.55026 0.15785 0.0
C12 C 0.8975 0.38745 0.16448 0.0
O13 O 0.94082 0.39726 0.16594 0.0
O14 O 0.88848 0.42005 0.16321 0.0
O15 O 0.97063 0.50925 0.19383 0.0
O16 O 0.04448 0.5635 0.19275 0.0
O17 O 0.89891 0.51877 0.15756 0.0
C18 C 0.99885 0.52185 0.12176 0.0
C19 C 0.00946 0.53829 0.20407 0.0
Zn20 Zn 0.5798 0.0696 0.499 0.0
Zn21 Zn 0.50529 0.92436 0.50051 0.0
C22 C 0.66693 0.14234 0.51615 0.0
O23 O 0.63908 0.14787 0.53023 0.0
C24 C 0.40486 0.87258 0.51018 0.0
O25 O 0.41043 0.91033 0.52185 0.0
O26 O 0.56016 0.11687 0.49418 0.0
O27 O 0.55538 0.02628 0.47018 0.0
O28 O 0.51491 0.94945 0.46888 0.0
C29 C 0.57855 0.14413 0.47812 0.0
O30 O 0.60809 0.13934 0.46505 0.0
O31 O 0.64972 0.10742 0.50113 0.0
C32 C 0.52343 0.86085 0.51969 0.0
O33 O 0.49388 0.86357 0.53364 0.0
O34 O 0.53886 0.88847 0.5036 0.0
O35 O 0.51774 0.96658 0.52981 0.0
O36 O 0.55715 0.04345 0.52964 0.0
O37 O 0.43863 0.87322 0.49993 0.0
C38 C 0.53383 0.98689 0.45875 0.0
C39 C 0.53516 0.00691 0.54029 0.0
Zn40 Zn 0.58968 0.50923 0.82757 0.0
Zn41 Zn 0.4921 0.55441 0.82985 0.0
C42 C 0.53766 0.41196 0.84028 0.0
O43 O 0.52008 0.42687 0.85665 0.0
C44 C 0.54656 0.65613 0.84042 0.0
O45 O 0.57743 0.65473 0.827 0.0
O46 O 0.65696 0.53631 0.82102 0.0
O47 O 0.55998 0.53132 0.80403 0.0
O48 O 0.513 0.55835 0.79685 0.0
C49 C 0.66764 0.51553 0.80508 0.0
O50 O 0.63446 0.47881 0.79301 0.0
O51 O 0.56394 0.43973 0.82589 0.0
C52 C 0.39178 0.48303 0.83237 0.0
O53 O 0.40364 0.45432 0.84065 0.0
O54 O 0.4229 0.52281 0.82733 0.0
O55 O 0.51785 0.51961 0.84572 0.0
O56 O 0.58365 0.53113 0.86013 0.0
O57 O 0.51142 0.61828 0.84498 0.0
C58 C 0.54097 0.54527 0.78966 0.0
C59 C 0.54784 0.53472 0.8627 0.0
C60 C 0.6206 0.13233 0.17659 0.0
C61 C 0.66448 0.16288 0.18761 0.0
C62 C 0.67198 0.16085 0.21161 0.0
C63 C 0.59256 0.1005 0.2137 0.0
C64 C 0.58521 0.10101 0.18997 0.0
C65 C 0.53648 0.06499 0.18147 0.0
H66 H 0.32243 0.89981 0.20945 0.0
C67 C 0.54885 0.0662 0.22297 0.0
C68 C 0.5156 0.04489 0.20426 0.0
H69 H 0.36968 0.93527 0.14015 0.0
H70 H 0.44524 0.99494 0.15685 0.0
H71 H 0.40512 0.89532 0.2266 0.0
H72 H 0.37472 0.00624 0.23514 0.0
H73 H 0.39718 0.00241 0.2623 0.0
H74 H 0.34463 0.95343 0.24935 0.0
H75 H 0.36669 0.89566 0.24798 0.0
H76 H 0.42819 0.92253 0.25452 0.0
C77 C 0.539 0.02867 0.16434 0.0
C78 C 0.51288 0.08981 0.17061 0.0
C79 C 0.54165 0.04897 0.31023 0.0
C80 C 0.50615 0.02012 0.32425 0.0
C81 C 0.4618 0.98942 0.31381 0.0
C82 C 0.45301 0.98736 0.2897 0.0
C83 C 0.48905 0.01608 0.27584 0.0
C84 C 0.5324 0.04624 0.28618 0.0
C85 C 0.56666 0.07355 0.26874 0.0
C86 C 0.53679 0.05451 0.24615 0.0
C87 C 0.49146 0.02122 0.25045 0.0
C88 C 0.60607 0.06156 0.26933 0.0
C89 C 0.58265 0.12553 0.27474 0.0
C90 C 0.34857 0.92126 0.19783 0.0
C91 C 0.33995 0.91365 0.17353 0.0
C92 C 0.37557 0.94094 0.15898 0.0
C93 C 0.41933 0.97523 0.1687 0.0
C94 C 0.42761 0.98149 0.19316 0.0
C95 C 0.3923 0.95456 0.20718 0.0
C96 C 0.40744 0.96278 0.23257 0.0
C97 C 0.45778 0.99926 0.23168 0.0
C98 C 0.46961 0.01069 0.20864 0.0
C99 C 0.40139 0.91684 0.24108 0.0
C100 C 0.37952 0.98195 0.24573 0.0
H101 H 0.64441 0.13091 0.24289 0.0
H102 H 0.61406 0.133 0.15812 0.0
H103 H 0.51952 0.12083 0.18213 0.0
H104 H 0.47495 0.06777 0.16843 0.0
H105 H 0.5265 0.10161 0.1533 0.0
H106 H 0.56827 0.0235 0.16959 0.0
H107 H 0.54426 0.03989 0.14628 0.0
H108 H 0.50797 0.99393 0.16417 0.0
H109 H 0.57624 0.07251 0.31774 0.0
H110 H 0.43381 0.96719 0.32435 0.0
H111 H 0.41855 0.9633 0.2828 0.0
H112 H 0.59381 0.02633 0.27524 0.0
H113 H 0.63544 0.08661 0.28147 0.0
H114 H 0.61906 0.06029 0.25185 0.0
H115 H 0.55323 0.12989 0.28044 0.0
H116 H 0.59553 0.14665 0.25965 0.0
H117 H 0.60987 0.14075 0.28917 0.0
H118 H 0.7052 0.18445 0.22055 0.0
C119 C 0.6364 0.12998 0.22465 0.0
C120 C 0.59924 0.63785 0.51332 0.0
C121 C 0.61255 0.68121 0.52522 0.0
C122 C 0.6338 0.6919 0.54782 0.0
C123 C 0.62033 0.61392 0.54838 0.0
C124 C 0.60416 0.60475 0.52523 0.0
C125 C 0.59148 0.55614 0.51609 0.0
H126 H 0.54679 0.34194 0.54173 0.0
C127 C 0.61433 0.5709 0.55716 0.0
C128 C 0.5985 0.5369 0.53825 0.0
H129 H 0.54976 0.38844 0.47292 0.0
H130 H 0.57114 0.46559 0.49027 0.0
H131 H 0.63821 0.42418 0.56027 0.0
H132 H 0.49914 0.39746 0.56706 0.0
H133 H 0.52819 0.41994 0.59458 0.0
H134 H 0.52211 0.3665 0.58156 0.0
H135 H 0.60086 0.38575 0.58071 0.0
H136 H 0.63723 0.4472 0.58845 0.0
C137 C 0.62595 0.5596 0.4975 0.0
C138 C 0.54039 0.52999 0.50672 0.0
C139 C 0.61822 0.5596 0.64501 0.0
C140 C 0.60835 0.52258 0.65871 0.0
C141 C 0.59973 0.47991 0.64765 0.0
C142 C 0.59887 0.47357 0.62326 0.0
C143 C 0.60659 0.51023 0.60971 0.0
C144 C 0.61725 0.5527 0.62063 0.0
C145 C 0.62519 0.58788 0.60344 0.0
C146 C 0.61604 0.5589 0.58033 0.0
C147 C 0.60458 0.51345 0.5842 0.0
C148 C 0.67617 0.62786 0.60692 0.0
C149 C 0.58888 0.60341 0.60722 0.0
C150 C 0.5511 0.36843 0.53036 0.0
C151 C 0.54565 0.35907 0.50603 0.0
C152 C 0.55335 0.39494 0.49177 0.0
C153 C 0.56599 0.43956 0.50185 0.0
C154 C 0.57176 0.44836 0.52636 0.0
C155 C 0.56462 0.41296 0.54005 0.0
C156 C 0.57482 0.42844 0.56557 0.0
C157 C 0.59026 0.47937 0.56511 0.0
C158 C 0.58761 0.49093 0.54219 0.0
C159 C 0.61457 0.42083 0.57442 0.0
C160 C 0.52899 0.40171 0.57806 0.0
H161 H 0.6529 0.66819 0.57692 0.0
H162 H 0.58329 0.62926 0.49579 0.0
H163 H 0.51813 0.53414 0.51975 0.0
H164 H 0.52657 0.49238 0.50324 0.0
H165 H 0.53616 0.54371 0.49027 0.0
H166 H 0.66016 0.59166 0.50106 0.0
H167 H 0.6129 0.5604 0.47971 0.0
H168 H 0.63358 0.53092 0.49754 0.0
H169 H 0.62581 0.59304 0.65309 0.0
H170 H 0.59189 0.45082 0.65782 0.0
H171 H 0.59109 0.43995 0.6159 0.0
H172 H 0.69824 0.61757 0.61671 0.0
H173 H 0.67872 0.65882 0.61683 0.0
H174 H 0.69268 0.63811 0.59005 0.0
H175 H 0.55373 0.57269 0.60796 0.0
H176 H 0.58635 0.62311 0.59315 0.0
H177 H 0.59686 0.62529 0.62393 0.0
H178 H 0.64448 0.7253 0.55709 0.0
C179 C 0.63805 0.65857 0.5594 0.0
C180 C 0.14291 0.51913 0.83919 0.0
C181 C 0.17345 0.50833 0.85086 0.0
C182 C 0.17379 0.50815 0.87538 0.0
C183 C 0.11391 0.52864 0.87646 0.0
C184 C 0.11311 0.52883 0.85238 0.0
C185 C 0.07708 0.5397 0.84328 0.0
H186 H 0.90836 0.59129 0.86865 0.0
C187 C 0.07918 0.53985 0.88519 0.0
C188 C 0.0571 0.54632 0.86593 0.0
H189 H 0.94908 0.57012 0.80004 0.0
H190 H 0.0084 0.55753 0.81762 0.0
H191 H 0.90429 0.50804 0.88706 0.0
H192 H 0.01342 0.65034 0.895 0.0
H193 H 0.00549 0.62792 0.9226 0.0
H194 H 0.9583 0.62911 0.90765 0.0
H195 H 0.90359 0.54851 0.90889 0.0
H196 H 0.93128 0.51509 0.91465 0.0
C197 C 0.04084 0.49726 0.82743 0.0
C198 C 0.10188 0.58498 0.8308 0.0
C199 C 0.05961 0.54734 0.97248 0.0
C200 C 0.02801 0.55335 0.98589 0.0
C201 C 0.99463 0.56083 0.97483 0.0
C202 C 0.99308 0.56275 0.95054 0.0
C203 C 0.02484 0.55645 0.93723 0.0
C204 C 0.05703 0.54845 0.94824 0.0
C205 C 0.08618 0.53983 0.93128 0.0
C206 C 0.06643 0.54435 0.90822 0.0
C207 C 0.03112 0.55473 0.91185 0.0
C208 C 0.07736 0.48987 0.93349 0.0
C209 C 0.13713 0.57881 0.93643 0.0
C210 C 0.93087 0.58524 0.85737 0.0
C211 C 0.92489 0.58273 0.833 0.0
C212 C 0.95352 0.57268 0.81891 0.0
C213 C 0.98765 0.56518 0.82914 0.0
C214 C 0.99238 0.56683 0.85367 0.0
C215 C 0.96409 0.57678 0.86724 0.0
C216 C 0.97105 0.57409 0.89281 0.0
C217 C 0.0089 0.56173 0.89259 0.0
C218 C 0.02166 0.55762 0.86969 0.0
C219 C 0.9253 0.53472 0.9015 0.0
C220 C 0.98769 0.62271 0.90537 0.0
H221 H 0.14692 0.51786 0.90676 0.0
H222 H 0.14208 0.5197 0.82035 0.0
H223 H 0.13353 0.61132 0.84126 0.0
H224 H 0.08044 0.60128 0.82857 0.0
H225 H 0.11255 0.57858 0.81337 0.0
H226 H 0.03424 0.46435 0.83455 0.0
H227 H 0.05301 0.49761 0.80951 0.0
H228 H 0.00675 0.49506 0.82634 0.0
H229 H 0.08515 0.54088 0.98065 0.0
H230 H 0.97012 0.56567 0.98503 0.0
H231 H 0.96714 0.56894 0.94311 0.0
H232 H 0.04309 0.46722 0.94058 0.0
H233 H 0.10406 0.48999 0.94536 0.0
H234 H 0.07603 0.47184 0.9164 0.0
H235 H 0.13916 0.61276 0.94088 0.0
H236 H 0.15872 0.58445 0.92126 0.0
H237 H 0.15324 0.57148 0.95146 0.0
H238 H 0.19776 0.50117 0.88482 0.0
C239 C 0.1444 0.51828 0.88817 0.0
C240 C 0.93391 0.37639 0.48368 0.0
C241 C 0.90122 0.33474 0.47095 0.0
C242 C 0.89737 0.33347 0.44641 0.0
C243 C 0.95546 0.41457 0.44755 0.0
C244 C 0.96105 0.41582 0.47155 0.0
C245 C 0.99842 0.46306 0.48177 0.0
H246 H 0.151 0.68799 0.46343 0.0
C247 C 0.98596 0.46144 0.44023 0.0
C248 C 0.01152 0.49032 0.46013 0.0
H249 H 0.13923 0.62044 0.52666 0.0
H250 H 0.07455 0.54876 0.50846 0.0
H251 H 0.14825 0.61055 0.4316 0.0
H252 H 0.0393 0.63889 0.44864 0.0
H253 H 0.03204 0.62213 0.41855 0.0
H254 H 0.08451 0.67329 0.43001 0.0
H255 H 0.14317 0.65618 0.41941 0.0
H256 H 0.11408 0.59781 0.40574 0.0
C257 C 0.0389 0.45812 0.49194 0.0
C258 C 0.97718 0.48218 0.49994 0.0
C259 C 0.97868 0.49152 0.35504 0.0
C260 C 1.0011 0.5317 0.34291 0.0
C261 C 0.03128 0.57445 0.35553 0.0
C262 C 0.03971 0.57696 0.37971 0.0
C263 C 0.01784 0.53628 0.39149 0.0
C264 C 0.9875 0.49465 0.37919 0.0
C265 C 0.9668 0.45517 0.39463 0.0
C266 C 0.99043 0.47985 0.41818 0.0
C267 C 0.02032 0.5272 0.4162 0.0
C268 C 0.98106 0.41918 0.38609 0.0
C269 C 0.91385 0.43624 0.39413 0.0
C270 C 0.13361 0.658 0.47349 0.0
C271 C 0.14911 0.65963 0.4965 0.0
C272 C 0.12707 0.61974 0.50895 0.0
C273 C 0.09004 0.57826 0.49828 0.0
C274 C 0.07595 0.57667 0.47481 0.0
C275 C 0.09775 0.61632 0.46291 0.0
C276 C 0.08166 0.60784 0.43763 0.0
C277 C 0.04682 0.55648 0.4361 0.0
C278 C 0.04289 0.53825 0.45795 0.0
C279 C 0.12374 0.61886 0.42265 0.0
C280 C 0.05839 0.63716 0.43325 0.0
H281 H 0.91879 0.36958 0.41608 0.0
H282 H 0.93797 0.37821 0.50254 0.0
H283 H 0.94418 0.47815 0.49263 0.0
H284 H 0.99982 0.51949 0.50504 0.0
H285 H 0.9696 0.46316 0.51597 0.0
H286 H 0.04142 0.42969 0.4821 0.0
H287 H 0.03424 0.45009 0.51053 0.0
H288 H 0.07295 0.48939 0.49047 0.0
H289 H 0.95557 0.45806 0.34588 0.0
H290 H 0.04843 0.60607 0.34668 0.0
H291 H 0.06326 0.61046 0.38823 0.0
H292 H 0.01567 0.43642 0.37856 0.0
H293 H 0.95596 0.39366 0.37235 0.0
H294 H 0.98484 0.40041 0.40042 0.0
H295 H 0.90587 0.46469 0.3926 0.0
H296 H 0.89799 0.42069 0.41034 0.0
H297 H 0.89587 0.41035 0.379 0.0
H298 H 0.87216 0.30216 0.43622 0.0
C299 C 0.92418 0.37295 0.43471 0.0
C300 C 0.55327 0.9257 0.82783 0.0
C301 C 0.55168 0.88533 0.81763 0.0
C302 C 0.53803 0.87178 0.79386 0.0
C303 C 0.52996 0.93917 0.79006 0.0
C304 C 0.54203 0.95214 0.81362 0.0
C305 C 0.54199 0.99657 0.82082 0.0
H306 H 0.52029 0.17753 0.78628 0.0
C307 C 0.52192 0.97408 0.77977 0.0
C308 C 0.52822 0.00781 0.79767 0.0
H309 H 0.55558 0.16007 0.85604 0.0
H310 H 0.54586 0.08452 0.84279 0.0
H311 H 0.58202 0.14631 0.76146 0.0
H312 H 0.43745 0.07338 0.77443 0.0
H313 H 0.44173 0.05217 0.74637 0.0
H314 H 0.4603 0.113 0.75206 0.0
H315 H 0.54013 0.15423 0.7455 0.0
H316 H 0.55419 0.11037 0.73601 0.0
C317 C 0.59152 0.0336 0.82989 0.0
C318 C 0.50512 0.98602 0.83902 0.0
C319 C 0.49664 0.96506 0.69155 0.0
C320 C 0.49095 0.99407 0.67669 0.0
C321 C 0.48594 0.03096 0.68663 0.0
C322 C 0.48892 0.0403 0.71088 0.0
C323 C 0.4972 0.01261 0.72548 0.0
C324 C 0.49964 0.97498 0.71581 0.0
C325 C 0.50787 0.94911 0.73411 0.0
C326 C 0.51156 0.97849 0.7563 0.0
C327 C 0.50572 0.01573 0.75105 0.0
C328 C 0.55418 0.95051 0.72943 0.0
C329 C 0.46505 0.8996 0.73335 0.0
C330 C 0.5253 0.15707 0.79875 0.0
C331 C 0.53857 0.17422 0.82209 0.0
C332 C 0.54511 0.14707 0.83792 0.0
C333 C 0.53978 0.10356 0.83015 0.0
C334 C 0.52802 0.08754 0.80634 0.0
C335 C 0.52037 0.11419 0.79128 0.0
C336 C 0.50943 0.09346 0.76656 0.0
C337 C 0.51166 0.04973 0.76895 0.0
C338 C 0.52273 0.04606 0.79222 0.0
C339 C 0.54801 0.12768 0.7514 0.0
C340 C 0.45984 0.08262 0.75924 0.0
H341 H 0.51735 0.88609 0.76206 0.0
H342 H 0.56346 0.93654 0.84616 0.0
H343 H 0.47305 0.95262 0.83378 0.0
H344 H 0.49431 0.01237 0.84064 0.0
H345 H 0.51792 0.98317 0.85648 0.0
H346 H 0.61749 0.03252 0.81836 0.0
H347 H 0.59913 0.02747 0.84782 0.0
H348 H 0.5976 0.06927 0.83003 0.0
H349 H 0.5006 0.93642 0.68448 0.0
H350 H 0.48044 0.05317 0.67559 0.0
H351 H 0.48583 0.0695 0.71726 0.0
H352 H 0.5805 0.98533 0.7244 0.0
H353 H 0.5495 0.92461 0.71494 0.0
H354 H 0.57003 0.9446 0.74488 0.0
H355 H 0.43356 0.89835 0.72568 0.0
H356 H 0.45553 0.88748 0.75103 0.0
H357 H 0.47078 0.87415 0.72266 0.0
H358 H 0.53638 0.84063 0.78585 0.0
C359 C 0.52702 0.89826 0.78008 0.0
C360 C 0.6031 0.52044 0.1419 0.0
C361 C 0.64128 0.52157 0.13101 0.0
C362 C 0.64182 0.5205 0.10643 0.0
C363 C 0.56825 0.51813 0.10394 0.0
C364 C 0.567 0.51876 0.12801 0.0
C365 C 0.52357 0.51739 0.1363 0.0
H366 H 0.32078 0.51029 0.10736 0.0
C367 C 0.52586 0.51597 0.09439 0.0
C368 C 0.49903 0.51512 0.11319 0.0
H369 H 0.37781 0.52043 0.17684 0.0
H370 H 0.44301 0.51658 0.16057 0.0
H371 H 0.40985 0.58193 0.08858 0.0
H372 H 0.34605 0.43337 0.08367 0.0
H373 H 0.36643 0.45158 0.05604 0.0
H374 H 0.32364 0.46371 0.06812 0.0
H375 H 0.36244 0.54575 0.068 0.0
H376 H 0.42172 0.56656 0.0609 0.0
C377 C 0.53792 0.56285 0.15155 0.0
C378 C 0.49595 0.47303 0.1492 0.0
C379 C 0.50461 0.51919 0.00675 0.0
C380 C 0.46955 0.51863 0.9925 0.0
C381 C 0.42976 0.51431 0.00291 0.0
C382 C 0.42536 0.51141 0.02709 0.0
C383 C 0.46117 0.51302 0.04113 0.0
C384 C 0.49974 0.51646 0.03086 0.0
C385 C 0.53421 0.51745 0.04845 0.0
C386 C 0.51036 0.51502 0.07106 0.0
C387 C 0.46771 0.51241 0.06665 0.0
C388 C 0.57989 0.56426 0.04764 0.0
C389 C 0.53873 0.47375 0.04285 0.0
C390 C 0.34692 0.51073 0.11902 0.0
C391 C 0.3443 0.51502 0.14324 0.0
C392 C 0.37922 0.51658 0.15804 0.0
C393 C 0.41703 0.51469 0.14855 0.0
C394 C 0.41989 0.51174 0.12408 0.0
C395 C 0.38478 0.50946 0.10986 0.0
C396 C 0.39386 0.50884 0.08443 0.0
C397 C 0.44026 0.51112 0.08547 0.0
C398 C 0.45561 0.51257 0.10867 0.0
C399 C 0.39688 0.55271 0.07476 0.0
C400 C 0.35549 0.46219 0.07222 0.0
H401 H 0.60858 0.51797 0.07437 0.0
H402 H 0.60149 0.5211 0.16074 0.0
H403 H 0.49553 0.44287 0.13949 0.0
H404 H 0.45934 0.46321 0.15067 0.0
H405 H 0.51178 0.47721 0.16701 0.0
H406 H 0.56696 0.59292 0.14392 0.0
H407 H 0.54958 0.56116 0.16952 0.0
H408 H 0.50996 0.57132 0.15263 0.0
H409 H 0.5352 0.52143 -0.0007 0.0
H410 H 0.40232 0.51397 0.99241 0.0
H411 H 0.39438 0.50852 0.03392 0.0
H412 H 0.57264 0.59279 0.04473 0.0
H413 H 0.6009 0.56261 0.0332 0.0
H414 H 0.60125 0.57555 0.06419 0.0
H415 H 0.50608 0.44448 0.03443 0.0
H416 H 0.54495 0.45998 0.05871 0.0
H417 H 0.56671 0.48086 0.03073 0.0
H418 H 0.66986 0.51996 0.09745 0.0
C419 C 0.60578 0.51884 0.09294 0.0
H420 H 0.19851 0.5782 0.15951 0.0
H421 H 0.1109 0.43296 0.16916 0.0
H422 H 0.17729 0.42079 0.16549 0.0
H423 H 0.25973 0.45105 0.15675 0.0
H424 H 0.3462 0.59657 0.14793 0.0
H425 H 0.28099 0.60934 0.1544 0.0
C426 C 0.19385 0.54383 0.16083 0.0
C427 C 0.14968 0.50637 0.16423 0.0
C428 C 0.23213 0.53732 0.15906 0.0
C429 C 0.14448 0.46229 0.16637 0.0
C430 C 0.18244 0.45534 0.1643 0.0
C431 C 0.26429 0.48563 0.15692 0.0
C432 C 0.30755 0.52305 0.15225 0.0
C433 C 0.22637 0.49253 0.16037 0.0
C434 C 0.31324 0.5676 0.15194 0.0
C435 C 0.27591 0.57476 0.15538 0.0
H436 H 0.73551 0.14172 0.49116 0.0
H437 H 0.70696 0.22919 0.53841 0.0
H438 H 0.78132 0.2961 0.53137 0.0
H439 H 0.84912 0.33182 0.50739 0.0
H440 H 0.87752 0.24459 0.46003 0.0
H441 H 0.80925 0.17569 0.47182 0.0
C442 C 0.74591 0.17525 0.50023 0.0
C443 C 0.71529 0.18048 0.51496 0.0
C444 C 0.78871 0.21384 0.49598 0.0
C445 C 0.7296 0.22411 0.52681 0.0
C446 C 0.77216 0.26256 0.52275 0.0
C447 C 0.84116 0.29762 0.50023 0.0
C448 C 0.86787 0.29333 0.48261 0.0
C449 C 0.8013 0.25815 0.50677 0.0
C450 C 0.85702 0.24877 0.47338 0.0
C451 C 0.81789 0.20938 0.48004 0.0
H452 H 0.6157 0.74403 0.83437 0.0
H453 H 0.47666 0.66771 0.85748 0.0
H454 H 0.46912 0.73665 0.85699 0.0
H455 H 0.49674 0.81411 0.84291 0.0
H456 H 0.63468 0.88977 0.81904 0.0
H457 H 0.64844 0.8264 0.82744 0.0
C458 C 0.58415 0.74275 0.83983 0.0
C459 C 0.54651 0.70038 0.84543 0.0
C460 C 0.57978 0.78257 0.8393 0.0
C461 C 0.5061 0.69961 0.8528 0.0
C462 C 0.50162 0.73908 0.85246 0.0
C463 C 0.53042 0.81738 0.84059 0.0
C464 C 0.56486 0.85647 0.83063 0.0
C465 C 0.53747 0.78015 0.84478 0.0
C466 C 0.60805 0.86016 0.82708 0.0
C467 C 0.61563 0.82367 0.83156 0.0
H468 H 0.77725 0.47586 0.18561 0.0
H469 H 0.87291 0.5712 0.13916 0.0
H470 H 0.81387 0.58842 0.12545 0.0
H471 H 0.73336 0.57108 0.12397 0.0
H472 H 0.63601 0.47193 0.16837 0.0
H473 H 0.69782 0.4627 0.18611 0.0
C474 C 0.78545 0.50088 0.17271 0.0
C475 C 0.82942 0.52186 0.16327 0.0
C476 C 0.75098 0.50994 0.16454 0.0
C477 C 0.83933 0.55426 0.1466 0.0
C478 C 0.80554 0.56411 0.13873 0.0
C479 C 0.72562 0.54751 0.13759 0.0
C480 C 0.67986 0.52168 0.14454 0.0
C481 C 0.76094 0.54125 0.14713 0.0
C482 C 0.67083 0.49234 0.16269 0.0
C483 C 0.70611 0.48671 0.17268 0.0
H484 H 0.31919 0.85994 0.51896 0.0
H485 H 0.39109 0.78572 0.50072 0.0
H486 H 0.31842 0.71237 0.49837 0.0
H487 H 0.23373 0.6696 0.49824 0.0
H488 H 0.16036 0.74308 0.51321 0.0
H489 H 0.23396 0.81621 0.52055 0.0
C490 C 0.31889 0.82765 0.51465 0.0
C491 C 0.36043 0.82839 0.50978 0.0
C492 C 0.27666 0.7854 0.51289 0.0
C493 C 0.35954 0.78625 0.50421 0.0
C494 C 0.31801 0.74419 0.50297 0.0
C495 C 0.23414 0.70154 0.50376 0.0
C496 C 0.19219 0.70124 0.50572 0.0
C497 C 0.27632 0.7434 0.50689 0.0
C498 C 0.19257 0.74274 0.51211 0.0
C499 C 0.23455 0.78446 0.51604 0.0
H500 H 0.59455 0.3833 0.82246 0.0
H501 H 0.46864 0.33557 0.85884 0.0
H502 H 0.45997 0.25809 0.85885 0.0
H503 H 0.48632 0.20263 0.84629 0.0
H504 H 0.61294 0.2522 0.81056 0.0
H505 H 0.62385 0.33049 0.81292 0.0
C506 C 0.56507 0.35592 0.83032 0.0
C507 C 0.53182 0.36491 0.84025 0.0
C508 C 0.56085 0.31194 0.83065 0.0
C509 C 0.49445 0.32935 0.85087 0.0
C510 C 0.48958 0.28511 0.85094 0.0
C511 C 0.51683 0.23101 0.83966 0.0
C512 C 0.54917 0.22216 0.82855 0.0
C513 C 0.52241 0.27587 0.84072 0.0
C514 C 0.58811 0.25869 0.81949 0.0
C515 C 0.59405 0.30323 0.82061 0.0
H516 H 0.58847 0.84771 0.49704 0.0
H517 H 0.48012 0.78722 0.54557 0.0
H518 H 0.49433 0.72303 0.54858 0.0
H519 H 0.54029 0.68636 0.53975 0.0
H520 H 0.65194 0.74697 0.49354 0.0
H521 H 0.63327 0.80829 0.48682 0.0
C522 C 0.56804 0.82044 0.50824 0.0
C523 C 0.53366 0.82268 0.52127 0.0
C524 C 0.57668 0.78344 0.51012 0.0
C525 C 0.50726 0.7869 0.53561 0.0
C526 C 0.51511 0.7499 0.53725 0.0
C527 C 0.55977 0.71251 0.52779 0.0
C528 C 0.59685 0.71222 0.51687 0.0
C529 C 0.54997 0.74811 0.52484 0.0
C530 C 0.62268 0.7464 0.50175 0.0
C531 C 0.61232 0.7816 0.49817 0.0
H532 H 0.74459 0.59373 0.82325 0.0
H533 H 0.70032 0.46533 0.78123 0.0
H534 H 0.77936 0.47925 0.78266 0.0
H535 H 0.85821 0.5217 0.80107 0.0
H536 H 0.90187 0.64913 0.84368 0.0
H537 H 0.82632 0.64233 0.83641 0.0
C538 C 0.75238 0.56917 0.81409 0.0
C539 C 0.71648 0.52813 0.80259 0.0
C540 C 0.79785 0.57715 0.81515 0.0
C541 C 0.72723 0.49701 0.79045 0.0
C542 C 0.77245 0.50487 0.79129 0.0
C543 C 0.85165 0.54876 0.80805 0.0
C544 C 0.88522 0.58555 0.82308 0.0
C545 C 0.80771 0.54398 0.8043 0.0
C546 C 0.87625 0.62026 0.83222 0.0
C547 C 0.83301 0.61623 0.82819 0.0
H548 H 0.14607 0.73432 0.16474 0.0
H549 H 0.21973 0.68689 0.1203 0.0
H550 H 0.28629 0.76527 0.12244 0.0
H551 H 0.3271 0.84484 0.14124 0.0
H552 H 0.25343 0.89204 0.1857 0.0
H553 H 0.18306 0.8166 0.17883 0.0
C554 C 0.17651 0.74131 0.15532 0.0
C555 C 0.1783 0.70479 0.14275 0.0
C556 C 0.21467 0.78646 0.15659 0.0
C557 C 0.2176 0.7144 0.13026 0.0
C558 C 0.25575 0.75921 0.13149 0.0
C559 C 0.2952 0.83905 0.14875 0.0
C560 C 0.29544 0.87364 0.16412 0.0
C561 C 0.25516 0.79525 0.14514 0.0
C562 C 0.25403 0.86563 0.17395 0.0
C563 C 0.21392 0.82247 0.17017 0.0
H564 H 0.5109 0.15691 0.4966 0.0
H565 H 0.6304 0.22144 0.45511 0.0
H566 H 0.62587 0.29241 0.45664 0.0
H567 H 0.59473 0.33961 0.47464 0.0
H568 H 0.47627 0.27521 0.51667 0.0
H569 H 0.4729 0.20054 0.50963 0.0
C570 C 0.53556 0.18629 0.48762 0.0
C571 C 0.57142 0.18419 0.47615 0.0
C572 C 0.53294 0.2271 0.48869 0.0
C573 C 0.60265 0.22225 0.46425 0.0
C574 C 0.60017 0.26294 0.46515 0.0
C575 C 0.5673 0.30884 0.48156 0.0
C576 C 0.53604 0.3128 0.49629 0.0
C577 C 0.56636 0.26627 0.47795 0.0
C578 C 0.50085 0.27286 0.50538 0.0
C579 C 0.49913 0.2303 0.50151 0.0
H580 H 0.35636 0.53105 0.81221 0.0
H581 H 0.31799 0.41215 0.85166 0.0
H582 H 0.24205 0.40443 0.85711 0.0
H583 H 0.19194 0.43884 0.85588 0.0
H584 H 0.23243 0.56052 0.81859 0.0
H585 H 0.30167 0.55901 0.80646 0.0
C586 C 0.33116 0.50298 0.82172 0.0
C587 C 0.34319 0.47279 0.83196 0.0
C588 C 0.28801 0.49936 0.82519 0.0
C589 C 0.30983 0.43612 0.84381 0.0
C590 C 0.26644 0.43178 0.847 0.0
C591 C 0.21553 0.46445 0.84469 0.0
C592 C 0.20763 0.50019 0.83843 0.0
C593 C 0.25594 0.4643 0.83855 0.0
C594 C 0.23781 0.53269 0.82361 0.0
C595 C 0.27764 0.53212 0.81691 0.0
H596 H 0.80686 0.35319 0.15191 0.0
H597 H 0.90234 0.3137 0.17939 0.0
H598 H 0.83788 0.23685 0.18554 0.0
H599 H 0.75423 0.18468 0.18748 0.0
H600 H 0.65877 0.22477 0.16091 0.0
H601 H 0.72344 0.29709 0.14927 0.0
C602 C 0.8136 0.3276 0.15904 0.0
C603 C 0.85922 0.33938 0.16562 0.0
C604 C 0.77641 0.28359 0.16257 0.0
C605 C 0.86751 0.30562 0.17439 0.0
C606 C 0.83068 0.2617 0.17793 0.0
C607 C 0.74768 0.20893 0.17871 0.0
C608 C 0.70199 0.19984 0.17528 0.0
C609 C 0.78498 0.25083 0.17269 0.0
C610 C 0.69369 0.23101 0.16363 0.0
C611 C 0.73066 0.27257 0.15725 0.0
H612 H 0.06756 0.57485 0.09449 0.0
H613 H 0.92673 0.46134 0.09118 0.0
H614 H 0.92328 0.46117 0.04853 0.0
H615 H 0.95969 0.49575 0.01234 0.0
H616 H 0.10122 0.60736 0.01613 0.0
H617 H 0.10503 0.6062 0.05867 0.0
C618 C 0.03609 0.54997 0.08447 0.0
C619 C 0.99729 0.51853 0.09597 0.0
C620 C 0.03444 0.55005 0.06013 0.0
C621 C 0.95704 0.48598 0.08271 0.0
C622 C 0.95499 0.48601 0.05837 0.0
C623 C 0.9912 0.51975 0.02261 0.0
C624 C 0.03 0.55189 0.01142 0.0
C625 C 0.99329 0.51832 0.04694 0.0
C626 C 0.07103 0.58245 0.02459 0.0
C627 C 0.07317 0.58178 0.04881 0.0
H628 H 0.56215 0.0596 0.43194 0.0
H629 H 0.49055 0.90981 0.42775 0.0
H630 H 0.47562 0.90702 0.38574 0.0
H631 H 0.48154 0.94713 0.35035 0.0
H632 H 0.55245 0.09669 0.35484 0.0
H633 H 0.56909 0.09952 0.39672 0.0
C634 C 0.54351 0.02627 0.42189 0.0
C635 C 0.52743 0.98499 0.43306 0.0
C636 C 0.53472 0.02487 0.39782 0.0
C637 C 0.50331 0.94216 0.41965 0.0
C638 C 0.49463 0.9405 0.39562 0.0
C639 C 0.50032 0.98028 0.36058 0.0
C640 C 0.51562 0.02162 0.34963 0.0
C641 C 0.5098 0.98162 0.38459 0.0
C642 C 0.54061 0.06442 0.36292 0.0
C643 C 0.55002 0.06605 0.38683 0.0
H644 H 0.59486 0.5159 0.76803 0.0
H645 H 0.51149 0.57887 0.7551 0.0
H646 H 0.52725 0.57969 0.71374 0.0
H647 H 0.56192 0.55958 0.68096 0.0
H648 H 0.64385 0.49506 0.69355 0.0
H649 H 0.63149 0.49781 0.73541 0.0
C650 C 0.58033 0.53001 0.75621 0.0
C651 C 0.55195 0.54716 0.76471 0.0
C652 C 0.5892 0.53001 0.73239 0.0
C653 C 0.53334 0.56529 0.74908 0.0
C654 C 0.54234 0.56581 0.7254 0.0
C655 C 0.57765 0.54678 0.69293 0.0
C656 C 0.60384 0.52726 0.68424 0.0
C657 C 0.5699 0.54794 0.71684 0.0
C658 C 0.62331 0.50999 0.69986 0.0
C659 C 0.6163 0.5116 0.72375 0.0
H660 H 0.48723 0.93806 0.56908 0.0
H661 H 0.57245 0.08692 0.56891 0.0
H662 H 0.56563 0.09561 0.61081 0.0
H663 H 0.5369 0.0614 0.64756 0.0
H664 H 0.45104 0.91302 0.64829 0.0
H665 H 0.45725 0.90373 0.6061 0.0
C666 C 0.50429 0.97242 0.57818 0.0
C667 C 0.53031 0.01173 0.56577 0.0
C668 C 0.50028 0.97731 0.60238 0.0
C669 C 0.55212 0.05599 0.57792 0.0
C670 C 0.54831 0.06107 0.60192 0.0
C671 C 0.51892 0.02704 0.63845 0.0
C672 C 0.49326 0.988 0.65101 0.0
C673 C 0.52253 0.02202 0.6143 0.0
C674 C 0.47121 0.94362 0.63904 0.0
C675 C 0.47462 0.93832 0.61491 0.0
H676 H 0.46472 0.49763 0.88222 0.0
H677 H 0.60957 0.59698 0.89607 0.0
H678 H 0.59701 0.60395 0.9376 0.0
H679 H 0.54684 0.57512 0.97037 0.0
H680 H 0.4033 0.47048 0.95707 0.0
H681 H 0.41312 0.47255 0.91499 0.0
C682 C 0.49319 0.52177 0.89427 0.0
C683 C 0.53797 0.54692 0.88618 0.0
C684 C 0.48607 0.52398 0.91828 0.0
C685 C 0.5748 0.57742 0.90197 0.0
C686 C 0.56769 0.58112 0.92571 0.0
C687 C 0.51769 0.55271 0.95828 0.0
C688 C 0.47456 0.52232 0.9669 0.0
C689 C 0.52384 0.55331 0.93416 0.0
C690 C 0.43686 0.49436 0.95094 0.0
C691 C 0.4425 0.49536 0.92686 0.0
H692 H 0.94241 0.4957 0.23503 0.0
H693 H 0.08895 0.59028 0.23135 0.0
H694 H 0.09885 0.59685 0.27375 0.0
H695 H 0.06663 0.57491 0.31185 0.0
H696 H 0.92024 0.4815 0.31605 0.0
H697 H 0.90977 0.47496 0.27346 0.0
C698 C 0.9765 0.5178 0.24348 0.0
C699 C 0.0148 0.54243 0.22993 0.0
C700 C 0.9821 0.52155 0.26798 0.0
C701 C 0.05874 0.57096 0.24126 0.0
C702 C 0.06454 0.57475 0.26555 0.0
C703 C 0.03231 0.55363 0.30349 0.0
C704 C 0.99429 0.52884 0.31712 0.0
C705 C 0.02652 0.5502 0.27907 0.0
C706 C 0.95019 0.50062 0.30595 0.0
C707 C 0.94414 0.49701 0.28161 0.0
loop_
_geom_bond_atom_site_label_1
_geom_bond_atom_site_label_2
_geom_bond_distance
_geom_bond_site_symmetry_2
_ccdc_geom_bond_type
Zn0 O6 1.969 . S
Zn0 O7 1.965 . S
Zn0 O11 2.024 . S
Zn0 O16 1.969 . S
Zn1 O8 1.969 . S
Zn1 O14 1.969 . S
Zn1 O15 1.965 . S
Zn1 O17 2.024 . S
C2 O3 1.229 . S
C2 O11 1.058 . S
O3 C2 1.229 . S
C4 O5 1.229 . S
C4 O17 1.058 . S
O5 C4 1.229 . S
O6 Zn0 1.969 . S
O6 C9 1.267 . S
O7 Zn0 1.965 . S
O7 C18 1.260 1_455 S
O8 Zn1 1.969 . S
O8 C18 1.258 . S
C9 O6 1.267 . S
C9 O10 1.228 . S
O10 C9 1.228 . S
O11 Zn0 2.024 . S
O11 C2 1.058 . S
C12 O13 1.228 . S
C12 O14 1.267 . S
O13 C12 1.228 . S
O14 Zn1 1.969 . S
O14 C12 1.267 . S
O15 Zn1 1.965 . S
O15 C19 1.260 1_655 S
O16 Zn0 1.969 . S
O16 C19 1.258 . S
O17 Zn1 2.024 . S
O17 C4 1.058 . S
C18 O7 1.260 1_655 S
C18 O8 1.258 . S
C19 O15 1.260 1_455 S
C19 O16 1.258 . S
Zn20 O26 1.969 . S
Zn20 O27 1.965 . S
Zn20 O31 2.024 . S
Zn20 O36 1.969 . S
Zn21 O28 1.969 . S
Zn21 O34 1.969 . S
Zn21 O35 1.965 . S
Zn21 O37 2.024 . S
C22 O23 1.229 . S
C22 O31 1.058 . S
O23 C22 1.229 . S
C24 O25 1.229 . S
C24 O37 1.058 . S
O25 C24 1.229 . S
O26 Zn20 1.969 . S
O26 C29 1.267 . S
O27 Zn20 1.965 . S
O27 C38 1.260 . S
O28 Zn21 1.969 . S
O28 C38 1.258 1_565 S
C29 O26 1.267 . S
C29 O30 1.228 . S
O30 C29 1.228 . S
O31 Zn20 2.024 . S
O31 C22 1.058 . S
C32 O33 1.228 . S
C32 O34 1.267 . S
O33 C32 1.228 . S
O34 Zn21 1.969 . S
O34 C32 1.267 . S
O35 Zn21 1.965 . S
O35 C39 1.260 1_565 S
O36 Zn20 1.969 . S
O36 C39 1.258 . S
O37 Zn21 2.024 . S
O37 C24 1.058 . S
C38 O27 1.260 . S
C38 O28 1.258 1_545 S
C39 O35 1.260 1_545 S
C39 O36 1.258 . S
Zn40 O46 1.969 . S
Zn40 O47 1.965 . S
Zn40 O51 2.024 . S
Zn40 O56 1.969 . S
Zn41 O48 1.969 . S
Zn41 O54 1.969 . S
Zn41 O55 1.965 . S
Zn41 O57 2.024 . S
C42 O43 1.229 . S
C42 O51 1.058 . S
O43 C42 1.229 . S
C44 O45 1.229 . S
C44 O57 1.058 . S
O45 C44 1.229 . S
O46 Zn40 1.969 . S
O46 C49 1.267 . S
O47 Zn40 1.965 . S
O47 C58 1.260 . S
O48 Zn41 1.969 . S
O48 C58 1.258 . S
C49 O46 1.267 . S
C49 O50 1.228 . S
O50 C49 1.228 . S
O51 Zn40 2.024 . S
O51 C42 1.058 . S
C52 O53 1.228 . S
C52 O54 1.267 . S
O53 C52 1.228 . S
O54 Zn41 1.969 . S
O54 C52 1.267 . S
O55 Zn41 1.965 . S
O55 C59 1.260 . S
O56 Zn40 1.969 . S
O56 C59 1.258 . S
O57 Zn41 2.024 . S
O57 C44 1.058 . S
C58 O47 1.260 . S
C58 O48 1.258 . S
C59 O55 1.260 . S
C59 O56 1.258 . S
C60 C61 1.391 . S
C60 C64 1.391 . S
C60 H102 0.948 . S
C61 C60 1.391 . S
C61 C62 1.391 . S
C62 C61 1.391 . S
C62 H118 0.947 . S
C62 C119 1.392 . S
C63 C64 1.391 . S
C63 C67 1.397 . S
C63 C119 1.419 . S
C64 C60 1.391 . S
C64 C63 1.391 . S
C64 C65 1.399 . S
C65 C64 1.399 . S
C65 C68 1.396 . S
C65 C77 1.453 . S
C65 C78 1.684 . S
H66 C90 0.948 . S
C67 C63 1.397 . S
C67 C68 1.394 . S
C67 C86 1.723 . S
C68 C65 1.396 . S
C68 C67 1.394 . S
C68 C98 1.723 1_545 S
H69 C92 0.947 . S
H70 C93 0.948 . S
H71 C99 0.982 . S
H72 C100 0.979 . S
H73 C100 0.980 . S
H74 C100 0.983 . S
H75 C99 0.979 . S
H76 C99 0.977 . S
C77 C65 1.453 . S
C77 H106 0.982 . S
C77 H107 0.979 . S
C77 H108 0.977 . S
C78 C65 1.684 . S
C78 H103 0.979 . S
C78 H104 0.980 . S
C78 H105 0.983 . S
C79 C80 1.391 . S
C79 C84 1.391 . S
C79 H109 0.948 . S
C80 C79 1.391 . S
C80 C81 1.391 1_545 S
C81 C80 1.391 1_565 S
C81 C82 1.392 . S
C81 H110 0.947 . S
C82 C81 1.392 . S
C82 C83 1.419 1_565 S
C82 H111 0.948 . S
C83 C82 1.419 1_545 S
C83 C84 1.391 . S
C83 C87 1.397 . S
C84 C79 1.391 . S
C84 C83 1.391 . S
C84 C85 1.399 . S
C85 C84 1.399 . S
C85 C86 1.396 . S
C85 C88 1.453 . S
C85 C89 1.684 . S
C86 C67 1.723 . S
C86 C85 1.396 . S
C86 C87 1.394 . S
C87 C83 1.397 . S
C87 C86 1.394 . S
C87 C97 1.723 1_545 S
C88 C85 1.453 . S
C88 H112 0.982 . S
C88 H113 0.979 . S
C88 H114 0.977 . S
C89 C85 1.684 . S
C89 H115 0.979 . S
C89 H116 0.980 . S
C89 H117 0.983 . S
C90 H66 0.948 . S
C90 C91 1.391 . S
C90 C95 1.391 . S
C91 C90 1.391 . S
C91 C92 1.391 . S
C92 H69 0.947 . S
C92 C91 1.391 . S
C92 C93 1.392 . S
C93 H70 0.948 . S
C93 C92 1.392 . S
C93 C94 1.419 . S
C94 C93 1.419 . S
C94 C95 1.391 . S
C94 C98 1.397 . S
C95 C90 1.391 . S
C95 C94 1.391 . S
C95 C96 1.399 . S
C96 C95 1.399 . S
C96 C97 1.396 . S
C96 C99 1.453 . S
C96 C100 1.684 . S
C97 C87 1.723 1_565 S
C97 C96 1.396 . S
C97 C98 1.394 . S
C98 C68 1.723 1_565 S
C98 C94 1.397 . S
C98 C97 1.394 . S
C99 H71 0.982 . S
C99 H75 0.979 . S
C99 H76 0.977 . S
C99 C96 1.453 . S
C100 H72 0.979 . S
C100 H73 0.980 . S
C100 H74 0.983 . S
C100 C96 1.684 . S
H101 C119 0.948 . S
H102 C60 0.948 . S
H103 C78 0.979 . S
H104 C78 0.980 . S
H105 C78 0.983 . S
H106 C77 0.982 . S
H107 C77 0.979 . S
H108 C77 0.977 . S
H109 C79 0.948 . S
H110 C81 0.947 . S
H111 C82 0.948 . S
H112 C88 0.982 . S
H113 C88 0.979 . S
H114 C88 0.977 . S
H115 C89 0.979 . S
H116 C89 0.980 . S
H117 C89 0.983 . S
H118 C62 0.947 . S
C119 C62 1.392 . S
C119 C63 1.419 . S
C119 H101 0.948 . S
C120 C121 1.391 . S
C120 C124 1.391 . S
C120 H162 0.948 . S
C121 C120 1.391 . S
C121 C122 1.391 . S
C122 C121 1.391 . S
C122 H178 0.947 . S
C122 C179 1.392 . S
C123 C124 1.391 . S
C123 C127 1.397 . S
C123 C179 1.419 . S
C124 C120 1.391 . S
C124 C123 1.391 . S
C124 C125 1.399 . S
C125 C124 1.399 . S
C125 C128 1.396 . S
C125 C137 1.453 . S
C125 C138 1.684 . S
H126 C150 0.948 . S
C127 C123 1.397 . S
C127 C128 1.394 . S
C127 C146 1.723 . S
C128 C125 1.396 . S
C128 C127 1.394 . S
C128 C158 1.723 . S
H129 C152 0.947 . S
H130 C153 0.948 . S
H131 C159 0.982 . S
H132 C160 0.979 . S
H133 C160 0.980 . S
H134 C160 0.983 . S
H135 C159 0.979 . S
H136 C159 0.977 . S
C137 C125 1.453 . S
C137 H166 0.982 . S
C137 H167 0.979 . S
C137 H168 0.977 . S
C138 C125 1.684 . S
C138 H163 0.979 . S
C138 H164 0.980 . S
C138 H165 0.983 . S
C139 C140 1.391 . S
C139 C144 1.391 . S
C139 H169 0.948 . S
C140 C139 1.391 . S
C140 C141 1.391 . S
C141 C140 1.391 . S
C141 C142 1.392 . S
C141 H170 0.947 . S
C142 C141 1.392 . S
C142 C143 1.419 . S
C142 H171 0.948 . S
C143 C142 1.419 . S
C143 C144 1.391 . S
C143 C147 1.397 . S
C144 C139 1.391 . S
C144 C143 1.391 . S
C144 C145 1.399 . S
C145 C144 1.399 . S
C145 C146 1.396 . S
C145 C148 1.453 . S
C145 C149 1.684 . S
C146 C127 1.723 . S
C146 C145 1.396 . S
C146 C147 1.394 . S
C147 C143 1.397 . S
C147 C146 1.394 . S
C147 C157 1.723 . S
C148 C145 1.453 . S
C148 H172 0.982 . S
C148 H173 0.979 . S
C148 H174 0.977 . S
C149 C145 1.684 . S
C149 H175 0.979 . S
C149 H176 0.980 . S
C149 H177 0.983 . S
C150 H126 0.948 . S
C150 C151 1.391 . S
C150 C155 1.391 . S
C151 C150 1.391 . S
C151 C152 1.391 . S
C152 H129 0.947 . S
C152 C151 1.391 . S
C152 C153 1.392 . S
C153 H130 0.948 . S
C153 C152 1.392 . S
C153 C154 1.419 . S
C154 C153 1.419 . S
C154 C155 1.391 . S
C154 C158 1.397 . S
C155 C150 1.391 . S
C155 C154 1.391 . S
C155 C156 1.399 . S
C156 C155 1.399 . S
C156 C157 1.396 . S
C156 C159 1.453 . S
C156 C160 1.684 . S
C157 C147 1.723 . S
C157 C156 1.396 . S
C157 C158 1.394 . S
C158 C128 1.723 . S
C158 C154 1.397 . S
C158 C157 1.394 . S
C159 H131 0.982 . S
C159 H135 0.979 . S
C159 H136 0.977 . S
C159 C156 1.453 . S
C160 H132 0.979 . S
C160 H133 0.980 . S
C160 H134 0.983 . S
C160 C156 1.684 . S
H161 C179 0.948 . S
H162 C120 0.948 . S
H163 C138 0.979 . S
H164 C138 0.980 . S
H165 C138 0.983 . S
H166 C137 0.982 . S
H167 C137 0.979 . S
H168 C137 0.977 . S
H169 C139 0.948 . S
H170 C141 0.947 . S
H171 C142 0.948 . S
H172 C148 0.982 . S
H173 C148 0.979 . S
H174 C148 0.977 . S
H175 C149 0.979 . S
H176 C149 0.980 . S
H177 C149 0.983 . S
H178 C122 0.947 . S
C179 C122 1.392 . S
C179 C123 1.419 . S
C179 H161 0.948 . S
C180 C181 1.391 . S
C180 C184 1.391 . S
C180 H222 0.948 . S
C181 C180 1.391 . S
C181 C182 1.391 . S
C182 C181 1.391 . S
C182 H238 0.947 . S
C182 C239 1.392 . S
C183 C184 1.391 . S
C183 C187 1.397 . S
C183 C239 1.419 . S
C184 C180 1.391 . S
C184 C183 1.391 . S
C184 C185 1.399 . S
C185 C184 1.399 . S
C185 C188 1.396 . S
C185 C197 1.453 . S
C185 C198 1.684 . S
H186 C210 0.948 . S
C187 C183 1.397 . S
C187 C188 1.394 . S
C187 C206 1.723 . S
C188 C185 1.396 . S
C188 C187 1.394 . S
C188 C218 1.750 . S
H189 C212 0.947 . S
H190 C213 0.948 . S
H191 C219 0.982 . S
H192 C220 0.979 . S
H193 C220 0.980 . S
H194 C220 0.983 . S
H195 C219 0.979 . S
H196 C219 0.977 . S
C197 C185 1.453 . S
C197 H226 0.982 . S
C197 H227 0.979 . S
C197 H228 0.977 . S
C198 C185 1.684 . S
C198 H223 0.979 . S
C198 H224 0.980 . S
C198 H225 0.983 . S
C199 C200 1.391 . S
C199 C204 1.391 . S
C199 H229 0.948 . S
C200 C199 1.391 . S
C200 C201 1.391 1_455 S
C201 C200 1.391 1_655 S
C201 C202 1.392 . S
C201 H230 0.947 . S
C202 C201 1.392 . S
C202 C203 1.419 1_655 S
C202 H231 0.948 . S
C203 C202 1.419 1_455 S
C203 C204 1.391 . S
C203 C207 1.397 . S
C204 C199 1.391 . S
C204 C203 1.391 . S
C204 C205 1.399 . S
C205 C204 1.399 . S
C205 C206 1.396 . S
C205 C208 1.453 . S
C205 C209 1.684 . S
C206 C187 1.723 . S
C206 C205 1.396 . S
C206 C207 1.394 . S
C207 C203 1.397 . S
C207 C206 1.394 . S
C207 C217 1.723 1_455 S
C208 C205 1.453 . S
C208 H232 0.982 . S
C208 H233 0.979 . S
C208 H234 0.977 . S
C209 C205 1.684 . S
C209 H235 0.979 . S
C209 H236 0.980 . S
C209 H237 0.983 . S
C210 H186 0.948 . S
C210 C211 1.391 . S
C210 C215 1.391 . S
C211 C210 1.391 . S
C211 C212 1.391 . S
C212 H189 0.947 . S
C212 C211 1.391 . S
C212 C213 1.392 . S
C213 H190 0.948 . S
C213 C212 1.392 . S
C213 C214 1.419 . S
C214 C213 1.419 . S
C214 C215 1.391 . S
C214 C218 1.375 1_655 S
C215 C210 1.391 . S
C215 C214 1.391 . S
C215 C216 1.399 . S
C216 C215 1.399 . S
C216 C217 1.396 . S
C216 C219 1.453 . S
C216 C220 1.684 . S
C217 C207 1.723 1_655 S
C217 C216 1.396 . S
C217 C218 1.384 1_655 S
C218 C188 1.750 . S
C218 C214 1.375 1_455 S
C218 C217 1.384 1_455 S
C219 H191 0.982 . S
C219 H195 0.979 . S
C219 H196 0.977 . S
C219 C216 1.453 . S
C220 H192 0.979 . S
C220 H193 0.980 . S
C220 H194 0.983 . S
C220 C216 1.684 . S
H221 C239 0.948 . S
H222 C180 0.948 . S
H223 C198 0.979 . S
H224 C198 0.980 . S
H225 C198 0.983 . S
H226 C197 0.982 . S
H227 C197 0.979 . S
H228 C197 0.977 . S
H229 C199 0.948 . S
H230 C201 0.947 . S
H231 C202 0.948 . S
H232 C208 0.982 . S
H233 C208 0.979 . S
H234 C208 0.977 . S
H235 C209 0.979 . S
H236 C209 0.980 . S
H237 C209 0.983 . S
H238 C182 0.947 . S
C239 C182 1.392 . S
C239 C183 1.419 . S
C239 H221 0.948 . S
C240 C241 1.391 . S
C240 C244 1.391 . S
C240 H282 0.948 . S
C241 C240 1.391 . S
C241 C242 1.391 . S
C242 C241 1.391 . S
C242 H298 0.947 . S
C242 C299 1.392 . S
C243 C244 1.391 . S
C243 C247 1.397 . S
C243 C299 1.419 . S
C244 C240 1.391 . S
C244 C243 1.391 . S
C244 C245 1.399 . S
C245 C244 1.399 . S
C245 C248 1.396 1_655 S
C245 C257 1.453 1_655 S
C245 C258 1.684 . S
H246 C270 0.948 . S
C247 C243 1.397 . S
C247 C248 1.394 1_655 S
C247 C266 1.723 . S
C248 C245 1.396 1_455 S
C248 C247 1.394 1_455 S
C248 C278 1.723 . S
H249 C272 0.947 . S
H250 C273 0.948 . S
H251 C279 0.982 . S
H252 C280 0.979 . S
H253 C280 0.980 . S
H254 C280 0.983 . S
H255 C279 0.979 . S
H256 C279 0.977 . S
C257 C245 1.453 1_455 S
C257 H286 0.982 . S
C257 H287 0.979 . S
C257 H288 0.977 . S
C258 C245 1.684 . S
C258 H283 0.979 . S
C258 H284 0.980 1_655 S
C258 H285 0.983 . S
C259 C260 1.391 1_655 S
C259 C264 1.391 . S
C259 H289 0.948 . S
C260 C259 1.391 1_455 S
C260 C261 1.391 . S
C261 C260 1.391 . S
C261 C262 1.392 . S
C261 H290 0.947 . S
C262 C261 1.392 . S
C262 C263 1.419 . S
C262 H291 0.948 . S
C263 C262 1.419 . S
C263 C264 1.391 1_455 S
C263 C267 1.397 . S
C264 C259 1.391 . S
C264 C263 1.391 1_655 S
C264 C265 1.399 . S
C265 C264 1.399 . S
C265 C266 1.396 . S
C265 C268 1.453 . S
C265 C269 1.684 . S
C266 C247 1.723 . S
C266 C265 1.396 . S
C266 C267 1.394 1_655 S
C267 C263 1.397 . S
C267 C266 1.394 1_455 S
C267 C277 1.723 . S
C268 C265 1.453 . S
C268 H292 0.982 . S
C268 H293 0.979 . S
C268 H294 0.977 . S
C269 C265 1.684 . S
C269 H295 0.979 . S
C269 H296 0.980 . S
C269 H297 0.983 . S
C270 H246 0.948 . S
C270 C271 1.391 . S
C270 C275 1.391 . S
C271 C270 1.391 . S
C271 C272 1.391 . S
C272 H249 0.947 . S
C272 C271 1.391 . S
C272 C273 1.392 . S
C273 H250 0.948 . S
C273 C272 1.392 . S
C273 C274 1.419 . S
C274 C273 1.419 . S
C274 C275 1.391 . S
C274 C278 1.397 . S
C275 C270 1.391 . S
C275 C274 1.391 . S
C275 C276 1.399 . S
C276 C275 1.399 . S
C276 C277 1.396 . S
C276 C279 1.453 . S
C276 C280 1.684 . S
C277 C267 1.723 . S
C277 C276 1.396 . S
C277 C278 1.394 . S
C278 C248 1.723 . S
C278 C274 1.397 . S
C278 C277 1.394 . S
C279 H251 0.982 . S
C279 H255 0.979 . S
C279 H256 0.977 . S
C279 C276 1.453 . S
C280 H252 0.979 . S
C280 H253 0.980 . S
C280 H254 0.983 . S
C280 C276 1.684 . S
H281 C299 0.948 . S
H282 C240 0.948 . S
H283 C258 0.979 . S
H284 C258 0.980 1_455 S
H285 C258 0.983 . S
H286 C257 0.982 . S
H287 C257 0.979 . S
H288 C257 0.977 . S
H289 C259 0.948 . S
H290 C261 0.947 . S
H291 C262 0.948 . S
H292 C268 0.982 . S
H293 C268 0.979 . S
H294 C268 0.977 . S
H295 C269 0.979 . S
H296 C269 0.980 . S
H297 C269 0.983 . S
H298 C242 0.947 . S
C299 C242 1.392 . S
C299 C243 1.419 . S
C299 H281 0.948 . S
C300 C301 1.391 . S
C300 C304 1.391 . S
C300 H342 0.948 . S
C301 C300 1.391 . S
C301 C302 1.391 . S
C302 C301 1.391 . S
C302 H358 0.947 . S
C302 C359 1.392 . S
C303 C304 1.391 . S
C303 C307 1.397 . S
C303 C359 1.419 . S
C304 C300 1.391 . S
C304 C303 1.391 . S
C304 C305 1.399 . S
C305 C304 1.399 . S
C305 C308 1.396 1_565 S
C305 C317 1.453 1_565 S
C305 C318 1.684 . S
H306 C330 0.948 . S
C307 C303 1.397 . S
C307 C308 1.394 1_565 S
C307 C326 1.723 . S
C308 C305 1.396 1_545 S
C308 C307 1.394 1_545 S
C308 C338 1.723 . S
H309 C332 0.947 . S
H310 C333 0.948 . S
H311 C339 0.982 . S
H312 C340 0.979 . S
H313 C340 0.980 . S
H314 C340 0.983 . S
H315 C339 0.979 . S
H316 C339 0.977 . S
C317 C305 1.453 1_545 S
C317 H346 0.982 . S
C317 H347 0.980 1_545 S
C317 H348 0.977 . S
C318 C305 1.684 . S
C318 H343 0.979 . S
C318 H344 0.980 1_565 S
C318 H345 0.983 . S
C319 C320 1.391 1_565 S
C319 C324 1.391 . S
C319 H349 0.948 . S
C320 C319 1.391 1_545 S
C320 C321 1.391 . S
C321 C320 1.391 . S
C321 C322 1.392 . S
C321 H350 0.947 . S
C322 C321 1.392 . S
C322 C323 1.419 . S
C322 H351 0.948 . S
C323 C322 1.419 . S
C323 C324 1.391 1_545 S
C323 C327 1.397 . S
C324 C319 1.391 . S
C324 C323 1.391 1_565 S
C324 C325 1.399 . S
C325 C324 1.399 . S
C325 C326 1.396 . S
C325 C328 1.453 . S
C325 C329 1.684 . S
C326 C307 1.723 . S
C326 C325 1.396 . S
C326 C327 1.394 1_565 S
C327 C323 1.397 . S
C327 C326 1.394 1_545 S
C327 C337 1.723 . S
C328 C325 1.453 . S
C328 H352 0.982 . S
C328 H353 0.979 . S
C328 H354 0.977 . S
C329 C325 1.684 . S
C329 H355 0.979 . S
C329 H356 0.980 . S
C329 H357 0.983 . S
C330 H306 0.948 . S
C330 C331 1.391 . S
C330 C335 1.391 . S
C331 C330 1.391 . S
C331 C332 1.391 . S
C332 H309 0.947 . S
C332 C331 1.391 . S
C332 C333 1.392 . S
C333 H310 0.948 . S
C333 C332 1.392 . S
C333 C334 1.419 . S
C334 C333 1.419 . S
C334 C335 1.391 . S
C334 C338 1.397 . S
C335 C330 1.391 . S
C335 C334 1.391 . S
C335 C336 1.399 . S
C336 C335 1.399 . S
C336 C337 1.396 . S
C336 C339 1.453 . S
C336 C340 1.684 . S
C337 C327 1.723 . S
C337 C336 1.396 . S
C337 C338 1.394 . S
C338 C308 1.723 . S
C338 C334 1.397 . S
C338 C337 1.394 . S
C339 H311 0.982 . S
C339 H315 0.979 . S
C339 H316 0.977 . S
C339 C336 1.453 . S
C340 H312 0.979 . S
C340 H313 0.980 . S
C340 H314 0.983 . S
C340 C336 1.684 . S
H341 C359 0.948 . S
H342 C300 0.948 . S
H343 C318 0.979 . S
H344 C318 0.980 1_545 S
H345 C318 0.983 . S
H346 C317 0.982 . S
H347 C317 0.980 1_565 S
H348 C317 0.977 . S
H349 C319 0.948 . S
H350 C321 0.947 . S
H351 C322 0.948 . S
H352 C328 0.982 . S
H353 C328 0.979 . S
H354 C328 0.977 . S
H355 C329 0.979 . S
H356 C329 0.980 . S
H357 C329 0.983 . S
H358 C302 0.947 . S
C359 C302 1.392 . S
C359 C303 1.419 . S
C359 H341 0.948 . S
C360 C361 1.391 . S
C360 C364 1.391 . S
C360 H402 0.948 . S
C361 C360 1.391 . S
C361 C362 1.391 . S
C362 C361 1.391 . S
C362 H418 0.947 . S
C362 C419 1.392 . S
C363 C364 1.391 . S
C363 C367 1.397 . S
C363 C419 1.419 . S
C364 C360 1.391 . S
C364 C363 1.391 . S
C364 C365 1.399 . S
C365 C364 1.399 . S
C365 C368 1.396 . S
C365 C377 1.453 . S
C365 C378 1.684 . S
H366 C390 0.948 . S
C367 C363 1.397 . S
C367 C368 1.394 . S
C367 C386 1.723 . S
C368 C365 1.396 . S
C368 C367 1.394 . S
C368 C398 1.723 . S
H369 C392 0.947 . S
H370 C393 0.948 . S
H371 C399 0.982 . S
H372 C400 0.979 . S
H373 C400 0.980 . S
H374 C400 0.983 . S
H375 C399 0.979 . S
H376 C399 0.977 . S
C377 C365 1.453 . S
C377 H406 0.982 . S
C377 H407 0.979 . S
C377 H408 0.977 . S
C378 C365 1.684 . S
C378 H403 0.979 . S
C378 H404 0.980 . S
C378 H405 0.983 . S
C379 C380 1.391 . S
C379 C384 1.391 . S
C379 H409 0.948 . S
C380 C379 1.391 . S
C380 C381 1.391 . S
C381 C380 1.391 . S
C381 C382 1.392 . S
C381 H410 0.947 . S
C382 C381 1.392 . S
C382 C383 1.419 . S
C382 H411 0.948 . S
C383 C382 1.419 . S
C383 C384 1.391 . S
C383 C387 1.397 . S
C384 C379 1.391 . S
C384 C383 1.391 . S
C384 C385 1.399 . S
C385 C384 1.399 . S
C385 C386 1.396 . S
C385 C388 1.453 . S
C385 C389 1.684 . S
C386 C367 1.723 . S
C386 C385 1.396 . S
C386 C387 1.394 . S
C387 C383 1.397 . S
C387 C386 1.394 . S
C387 C397 1.723 . S
C388 C385 1.453 . S
C388 H412 0.982 . S
C388 H413 0.979 . S
C388 H414 0.977 . S
C389 C385 1.684 . S
C389 H415 0.979 . S
C389 H416 0.980 . S
C389 H417 0.983 . S
C390 H366 0.948 . S
C390 C391 1.391 . S
C390 C395 1.391 . S
C391 C390 1.391 . S
C391 C392 1.391 . S
C392 H369 0.947 . S
C392 C391 1.391 . S
C392 C393 1.392 . S
C393 H370 0.948 . S
C393 C392 1.392 . S
C393 C394 1.419 . S
C394 C393 1.419 . S
C394 C395 1.391 . S
C394 C398 1.397 . S
C395 C390 1.391 . S
C395 C394 1.391 . S
C395 C396 1.399 . S
C396 C395 1.399 . S
C396 C397 1.396 . S
C396 C399 1.453 . S
C396 C400 1.684 . S
C397 C387 1.723 . S
C397 C396 1.396 . S
C397 C398 1.394 . S
C398 C368 1.723 . S
C398 C394 1.397 . S
C398 C397 1.394 . S
C399 H371 0.982 . S
C399 H375 0.979 . S
C399 H376 0.977 . S
C399 C396 1.453 . S
C400 H372 0.979 . S
C400 H373 0.980 . S
C400 H374 0.983 . S
C400 C396 1.684 . S
H401 C419 0.948 . S
H402 C360 0.948 . S
H403 C378 0.979 . S
H404 C378 0.980 . S
H405 C378 0.983 . S
H406 C377 0.982 . S
H407 C377 0.979 . S
H408 C377 0.977 . S
H409 C379 0.948 . S
H410 C381 0.947 . S
H411 C382 0.948 . S
H412 C388 0.982 . S
H413 C388 0.979 . S
H414 C388 0.977 . S
H415 C389 0.979 . S
H416 C389 0.980 . S
H417 C389 0.983 . S
H418 C362 0.947 . S
C419 C362 1.392 . S
C419 C363 1.419 . S
C419 H401 0.948 . S
H420 C426 0.930 . S
H421 C429 0.930 . S
H422 C430 0.930 . S
H423 C431 0.930 . S
H424 C434 0.930 . S
H425 C435 0.930 . S
C426 H420 0.930 . S
C426 C427 1.355 . S
C426 C428 1.415 . S
C427 C426 1.355 . S
C427 C429 1.419 . S
C428 C426 1.415 . S
C428 C433 1.425 . S
C428 C435 1.409 . S
C429 H421 0.930 . S
C429 C427 1.419 . S
C429 C430 1.362 . S
C430 H422 0.930 . S
C430 C429 1.362 . S
C430 C433 1.409 . S
C431 H423 0.930 . S
C431 C432 1.355 . S
C431 C433 1.415 . S
C432 C431 1.355 . S
C432 C434 1.419 . S
C433 C428 1.425 . S
C433 C430 1.409 . S
C433 C431 1.415 . S
C434 H424 0.930 . S
C434 C432 1.419 . S
C434 C435 1.362 . S
C435 H425 0.930 . S
C435 C428 1.409 . S
C435 C434 1.362 . S
H436 C442 0.930 . S
H437 C445 0.930 . S
H438 C446 0.930 . S
H439 C447 0.930 . S
H440 C450 0.930 . S
H441 C451 0.930 . S
C442 H436 0.930 . S
C442 C443 1.355 . S
C442 C444 1.415 . S
C443 C442 1.355 . S
C443 C445 1.419 . S
C444 C442 1.415 . S
C444 C449 1.425 . S
C444 C451 1.409 . S
C445 H437 0.930 . S
C445 C443 1.419 . S
C445 C446 1.362 . S
C446 H438 0.930 . S
C446 C445 1.362 . S
C446 C449 1.409 . S
C447 H439 0.930 . S
C447 C448 1.355 . S
C447 C449 1.415 . S
C448 C447 1.355 . S
C448 C450 1.419 . S
C449 C444 1.425 . S
C449 C446 1.409 . S
C449 C447 1.415 . S
C450 H440 0.930 . S
C450 C448 1.419 . S
C450 C451 1.362 . S
C451 H441 0.930 . S
C451 C444 1.409 . S
C451 C450 1.362 . S
H452 C458 0.930 . S
H453 C461 0.930 . S
H454 C462 0.930 . S
H455 C463 0.930 . S
H456 C466 0.930 . S
H457 C467 0.930 . S
C458 H452 0.930 . S
C458 C459 1.355 . S
C458 C460 1.415 . S
C459 C458 1.355 . S
C459 C461 1.419 . S
C460 C458 1.415 . S
C460 C465 1.425 . S
C460 C467 1.409 . S
C461 H453 0.930 . S
C461 C459 1.419 . S
C461 C462 1.362 . S
C462 H454 0.930 . S
C462 C461 1.362 . S
C462 C465 1.409 . S
C463 H455 0.930 . S
C463 C464 1.355 . S
C463 C465 1.415 . S
C464 C463 1.355 . S
C464 C466 1.419 . S
C465 C460 1.425 . S
C465 C462 1.409 . S
C465 C463 1.415 . S
C466 H456 0.930 . S
C466 C464 1.419 . S
C466 C467 1.362 . S
C467 H457 0.930 . S
C467 C460 1.409 . S
C467 C466 1.362 . S
H468 C474 0.930 . S
H469 C477 0.930 . S
H470 C478 0.930 . S
H471 C479 0.930 . S
H472 C482 0.930 . S
H473 C483 0.930 . S
C474 H468 0.930 . S
C474 C475 1.355 . S
C474 C476 1.415 . S
C475 C474 1.355 . S
C475 C477 1.419 . S
C476 C474 1.415 . S
C476 C481 1.425 . S
C476 C483 1.409 . S
C477 H469 0.930 . S
C477 C475 1.419 . S
C477 C478 1.362 . S
C478 H470 0.930 . S
C478 C477 1.362 . S
C478 C481 1.409 . S
C479 H471 0.930 . S
C479 C480 1.355 . S
C479 C481 1.415 . S
C480 C479 1.355 . S
C480 C482 1.419 . S
C481 C476 1.425 . S
C481 C478 1.409 . S
C481 C479 1.415 . S
C482 H472 0.930 . S
C482 C480 1.419 . S
C482 C483 1.362 . S
C483 H473 0.930 . S
C483 C476 1.409 . S
C483 C482 1.362 . S
H484 C490 0.930 . S
H485 C493 0.930 . S
H486 C494 0.930 . S
H487 C495 0.930 . S
H488 C498 0.930 . S
H489 C499 0.930 . S
C490 H484 0.930 . S
C490 C491 1.355 . S
C490 C492 1.415 . S
C491 C490 1.355 . S
C491 C493 1.419 . S
C492 C490 1.415 . S
C492 C497 1.425 . S
C492 C499 1.409 . S
C493 H485 0.930 . S
C493 C491 1.419 . S
C493 C494 1.362 . S
C494 H486 0.930 . S
C494 C493 1.362 . S
C494 C497 1.409 . S
C495 H487 0.930 . S
C495 C496 1.355 . S
C495 C497 1.415 . S
C496 C495 1.355 . S
C496 C498 1.419 . S
C497 C492 1.425 . S
C497 C494 1.409 . S
C497 C495 1.415 . S
C498 H488 0.930 . S
C498 C496 1.419 . S
C498 C499 1.362 . S
C499 H489 0.930 . S
C499 C492 1.409 . S
C499 C498 1.362 . S
H500 C506 0.930 . S
H501 C509 0.930 . S
H502 C510 0.930 . S
H503 C511 0.930 . S
H504 C514 0.930 . S
H505 C515 0.930 . S
C506 H500 0.930 . S
C506 C507 1.355 . S
C506 C508 1.415 . S
C507 C506 1.355 . S
C507 C509 1.419 . S
C508 C506 1.415 . S
C508 C513 1.425 . S
C508 C515 1.409 . S
C509 H501 0.930 . S
C509 C507 1.419 . S
C509 C510 1.362 . S
C510 H502 0.930 . S
C510 C509 1.362 . S
C510 C513 1.409 . S
C511 H503 0.930 . S
C511 C512 1.355 . S
C511 C513 1.415 . S
C512 C511 1.355 . S
C512 C514 1.419 . S
C513 C508 1.425 . S
C513 C510 1.409 . S
C513 C511 1.415 . S
C514 H504 0.930 . S
C514 C512 1.419 . S
C514 C515 1.362 . S
C515 H505 0.930 . S
C515 C508 1.409 . S
C515 C514 1.362 . S
H516 C522 0.930 . S
H517 C525 0.930 . S
H518 C526 0.930 . S
H519 C527 0.930 . S
H520 C530 0.930 . S
H521 C531 0.930 . S
C522 H516 0.930 . S
C522 C523 1.355 . S
C522 C524 1.415 . S
C523 C522 1.355 . S
C523 C525 1.419 . S
C524 C522 1.415 . S
C524 C529 1.425 . S
C524 C531 1.409 . S
C525 H517 0.930 . S
C525 C523 1.419 . S
C525 C526 1.362 . S
C526 H518 0.930 . S
C526 C525 1.362 . S
C526 C529 1.409 . S
C527 H519 0.930 . S
C527 C528 1.355 . S
C527 C529 1.415 . S
C528 C527 1.355 . S
C528 C530 1.419 . S
C529 C524 1.425 . S
C529 C526 1.409 . S
C529 C527 1.415 . S
C530 H520 0.930 . S
C530 C528 1.419 . S
C530 C531 1.362 . S
C531 H521 0.930 . S
C531 C524 1.409 . S
C531 C530 1.362 . S
H532 C538 0.930 . S
H533 C541 0.930 . S
H534 C542 0.930 . S
H535 C543 0.930 . S
H536 C546 0.930 . S
H537 C547 0.930 . S
C538 H532 0.930 . S
C538 C539 1.355 . S
C538 C540 1.415 . S
C539 C538 1.355 . S
C539 C541 1.419 . S
C540 C538 1.415 . S
C540 C545 1.425 . S
C540 C547 1.409 . S
C541 H533 0.930 . S
C541 C539 1.419 . S
C541 C542 1.362 . S
C542 H534 0.930 . S
C542 C541 1.362 . S
C542 C545 1.409 . S
C543 H535 0.930 . S
C543 C544 1.355 . S
C543 C545 1.415 . S
C544 C543 1.355 . S
C544 C546 1.419 . S
C545 C540 1.425 . S
C545 C542 1.409 . S
C545 C543 1.415 . S
C546 H536 0.930 . S
C546 C544 1.419 . S
C546 C547 1.362 . S
C547 H537 0.930 . S
C547 C540 1.409 . S
C547 C546 1.362 . S
H548 C554 0.930 . S
H549 C557 0.930 . S
H550 C558 0.930 . S
H551 C559 0.930 . S
H552 C562 0.930 . S
H553 C563 0.930 . S
C554 H548 0.930 . S
C554 C555 1.355 . S
C554 C556 1.415 . S
C555 C554 1.355 . S
C555 C557 1.419 . S
C556 C554 1.415 . S
C556 C561 1.425 . S
C556 C563 1.409 . S
C557 H549 0.930 . S
C557 C555 1.419 . S
C557 C558 1.362 . S
C558 H550 0.930 . S
C558 C557 1.362 . S
C558 C561 1.409 . S
C559 H551 0.930 . S
C559 C560 1.355 . S
C559 C561 1.415 . S
C560 C559 1.355 . S
C560 C562 1.419 . S
C561 C556 1.425 . S
C561 C558 1.409 . S
C561 C559 1.415 . S
C562 H552 0.930 . S
C562 C560 1.419 . S
C562 C563 1.362 . S
C563 H553 0.930 . S
C563 C556 1.409 . S
C563 C562 1.362 . S
H564 C570 0.930 . S
H565 C573 0.930 . S
H566 C574 0.930 . S
H567 C575 0.930 . S
H568 C578 0.930 . S
H569 C579 0.930 . S
C570 H564 0.930 . S
C570 C571 1.355 . S
C570 C572 1.415 . S
C571 C570 1.355 . S
C571 C573 1.419 . S
C572 C570 1.415 . S
C572 C577 1.425 . S
C572 C579 1.409 . S
C573 H565 0.930 . S
C573 C571 1.419 . S
C573 C574 1.362 . S
C574 H566 0.930 . S
C574 C573 1.362 . S
C574 C577 1.409 . S
C575 H567 0.930 . S
C575 C576 1.355 . S
C575 C577 1.415 . S
C576 C575 1.355 . S
C576 C578 1.419 . S
C577 C572 1.425 . S
C577 C574 1.409 . S
C577 C575 1.415 . S
C578 H568 0.930 . S
C578 C576 1.419 . S
C578 C579 1.362 . S
C579 H569 0.930 . S
C579 C572 1.409 . S
C579 C578 1.362 . S
H580 C586 0.930 . S
H581 C589 0.930 . S
H582 C590 0.930 . S
H583 C591 0.930 . S
H584 C594 0.930 . S
H585 C595 0.930 . S
C586 H580 0.930 . S
C586 C587 1.355 . S
C586 C588 1.415 . S
C587 C586 1.355 . S
C587 C589 1.419 . S
C588 C586 1.415 . S
C588 C593 1.425 . S
C588 C595 1.409 . S
C589 H581 0.930 . S
C589 C587 1.419 . S
C589 C590 1.362 . S
C590 H582 0.930 . S
C590 C589 1.362 . S
C590 C593 1.409 . S
C591 H583 0.930 . S
C591 C592 1.355 . S
C591 C593 1.415 . S
C592 C591 1.355 . S
C592 C594 1.419 . S
C593 C588 1.425 . S
C593 C590 1.409 . S
C593 C591 1.415 . S
C594 H584 0.930 . S
C594 C592 1.419 . S
C594 C595 1.362 . S
C595 H585 0.930 . S
C595 C588 1.409 . S
C595 C594 1.362 . S
H596 C602 0.930 . S
H597 C605 0.930 . S
H598 C606 0.930 . S
H599 C607 0.930 . S
H600 C610 0.930 . S
H601 C611 0.930 . S
C602 H596 0.930 . S
C602 C603 1.355 . S
C602 C604 1.415 . S
C603 C602 1.355 . S
C603 C605 1.419 . S
C604 C602 1.415 . S
C604 C609 1.425 . S
C604 C611 1.409 . S
C605 H597 0.930 . S
C605 C603 1.419 . S
C605 C606 1.362 . S
C606 H598 0.930 . S
C606 C605 1.362 . S
C606 C609 1.409 . S
C607 H599 0.930 . S
C607 C608 1.355 . S
C607 C609 1.415 . S
C608 C607 1.355 . S
C608 C610 1.419 . S
C609 C604 1.425 . S
C609 C606 1.409 . S
C609 C607 1.415 . S
C610 H600 0.930 . S
C610 C608 1.419 . S
C610 C611 1.362 . S
C611 H601 0.930 . S
C611 C604 1.409 . S
C611 C610 1.362 . S
H612 C618 0.930 . S
H613 C621 0.930 . S
H614 C622 0.930 . S
H615 C623 0.930 . S
H616 C626 0.930 . S
H617 C627 0.930 . S
C618 H612 0.930 . S
C618 C619 1.355 . S
C618 C620 1.415 . S
C619 C618 1.355 . S
C619 C621 1.419 1_455 S
C620 C618 1.415 . S
C620 C625 1.415 1_455 S
C620 C627 1.409 . S
C621 H613 0.930 . S
C621 C619 1.419 1_655 S
C621 C622 1.362 . S
C622 H614 0.930 . S
C622 C621 1.362 . S
C622 C625 1.420 . S
C623 H615 0.930 . S
C623 C624 1.355 1_655 S
C623 C625 1.414 . S
C624 C623 1.355 1_455 S
C624 C626 1.419 . S
C625 C620 1.415 1_655 S
C625 C622 1.420 . S
C625 C623 1.414 . S
C626 H616 0.930 . S
C626 C624 1.419 . S
C626 C627 1.362 . S
C627 H617 0.930 . S
C627 C620 1.409 . S
C627 C626 1.362 . S
H628 C634 0.930 . S
H629 C637 0.930 . S
H630 C638 0.930 . S
H631 C639 0.930 . S
H632 C642 0.930 . S
H633 C643 0.930 . S
C634 H628 0.930 . S
C634 C635 1.355 . S
C634 C636 1.415 . S
C635 C634 1.355 . S
C635 C637 1.419 1_545 S
C636 C634 1.415 . S
C636 C641 1.415 1_545 S
C636 C643 1.409 . S
C637 H629 0.930 . S
C637 C635 1.419 1_565 S
C637 C638 1.362 . S
C638 H630 0.930 . S
C638 C637 1.362 . S
C638 C641 1.420 . S
C639 H631 0.930 . S
C639 C640 1.355 1_565 S
C639 C641 1.414 . S
C640 C639 1.355 1_545 S
C640 C642 1.419 . S
C641 C636 1.415 1_565 S
C641 C638 1.420 . S
C641 C639 1.414 . S
C642 H632 0.930 . S
C642 C640 1.419 . S
C642 C643 1.362 . S
C643 H633 0.930 . S
C643 C636 1.409 . S
C643 C642 1.362 . S
H644 C650 0.930 . S
H645 C653 0.930 . S
H646 C654 0.930 . S
H647 C655 0.930 . S
H648 C658 0.930 . S
H649 C659 0.930 . S
C650 H644 0.930 . S
C650 C651 1.355 . S
C650 C652 1.415 . S
C651 C650 1.355 . S
C651 C653 1.419 . S
C652 C650 1.415 . S
C652 C657 1.425 . S
C652 C659 1.409 . S
C653 H645 0.930 . S
C653 C651 1.419 . S
C653 C654 1.362 . S
C654 H646 0.930 . S
C654 C653 1.362 . S
C654 C657 1.409 . S
C655 H647 0.930 . S
C655 C656 1.355 . S
C655 C657 1.415 . S
C656 C655 1.355 . S
C656 C658 1.419 . S
C657 C652 1.425 . S
C657 C654 1.409 . S
C657 C655 1.415 . S
C658 H648 0.930 . S
C658 C656 1.419 . S
C658 C659 1.362 . S
C659 H649 0.930 . S
C659 C652 1.409 . S
C659 C658 1.362 . S
H660 C666 0.930 . S
H661 C669 0.930 . S
H662 C670 0.930 . S
H663 C671 0.930 . S
H664 C674 0.930 . S
H665 C675 0.930 . S
C666 H660 0.930 . S
C666 C667 1.355 1_565 S
C666 C668 1.415 . S
C667 C666 1.355 1_545 S
C667 C669 1.419 . S
C668 C666 1.415 . S
C668 C673 1.425 1_565 S
C668 C675 1.409 . S
C669 H661 0.930 . S
C669 C667 1.419 . S
C669 C670 1.362 . S
C670 H662 0.930 . S
C670 C669 1.362 . S
C670 C673 1.409 . S
C671 H663 0.930 . S
C671 C672 1.355 . S
C671 C673 1.415 . S
C672 C671 1.355 . S
C672 C674 1.419 1_545 S
C673 C668 1.425 1_545 S
C673 C670 1.409 . S
C673 C671 1.415 . S
C674 H664 0.930 . S
C674 C672 1.419 1_565 S
C674 C675 1.362 . S
C675 H665 0.930 . S
C675 C668 1.409 . S
C675 C674 1.362 . S
H676 C682 0.930 . S
H677 C685 0.930 . S
H678 C686 0.930 . S
H679 C687 0.930 . S
H680 C690 0.930 . S
H681 C691 0.930 . S
C682 H676 0.930 . S
C682 C683 1.355 . S
C682 C684 1.415 . S
C683 C682 1.355 . S
C683 C685 1.419 . S
C684 C682 1.415 . S
C684 C689 1.425 . S
C684 C691 1.409 . S
C685 H677 0.930 . S
C685 C683 1.419 . S
C685 C686 1.362 . S
C686 H678 0.930 . S
C686 C685 1.362 . S
C686 C689 1.409 . S
C687 H679 0.930 . S
C687 C688 1.355 . S
C687 C689 1.415 . S
C688 C687 1.355 . S
C688 C690 1.419 . S
C689 C684 1.425 . S
C689 C686 1.409 . S
C689 C687 1.415 . S
C690 H680 0.930 . S
C690 C688 1.419 . S
C690 C691 1.362 . S
C691 H681 0.930 . S
C691 C684 1.409 . S
C691 C690 1.362 . S
H692 C698 0.930 . S
H693 C701 0.930 . S
H694 C702 0.930 . S
H695 C703 0.930 . S
H696 C706 0.930 . S
H697 C707 0.930 . S
C698 H692 0.930 . S
C698 C699 1.355 1_655 S
C698 C700 1.415 . S
C699 C698 1.355 1_455 S
C699 C701 1.419 . S
C700 C698 1.415 . S
C700 C705 1.425 1_655 S
C700 C707 1.409 . S
C701 H693 0.930 . S
C701 C699 1.419 . S
C701 C702 1.362 . S
C702 H694 0.930 . S
C702 C701 1.362 . S
C702 C705 1.409 . S
C703 H695 0.930 . S
C703 C704 1.346 1_455 S
C703 C705 1.415 . S
C704 C703 1.346 1_655 S
C704 C706 1.431 . S
C705 C700 1.425 1_455 S
C705 C702 1.409 . S
C705 C703 1.415 . S
C706 H696 0.930 . S
C706 C704 1.431 . S
C706 C707 1.362 . S
C707 H697 0.930 . S
C707 C700 1.409 . S
C707 C706 1.362 . S
C427 C2 1.418 . S
C432 C391 1.487 . S
C443 C22 1.358 . S
C448 C241 1.358 . S
C459 C44 1.400 . S
C464 C301 1.409 . S
C475 C4 1.616 . S
C480 C361 1.569 . S
C496 C271 1.691 . S
C491 C24 1.597 . S
C512 C331 1.643 . S
C507 C42 1.573 . S
C523 C32 1.334 . S
C528 C121 1.306 . S
C539 C49 1.311 . S
C544 C211 1.334 . S
C555 C9 1.281 . S
C560 C91 1.322 . S
C576 C151 1.309 . S
C571 C29 1.266 . S
C592 C181 1.268 . S
C587 C52 1.347 . S
C603 C12 1.282 . S
C608 C61 1.318 . S
C624 C200 1.429 1_554 S
C619 C18 1.418 1_455 S
C635 C38 1.406 . S
C640 C80 1.433 . S
C651 C58 1.400 . S
C656 C140 1.402 . S
C672 C320 1.491 . S
C667 C39 1.466 . S
C688 C380 1.472 1_556 S
C683 C59 1.491 . S
C699 C19 1.454 . S
C704 C260 1.486 1_655 S
