# Generated by pormake.
# Topology ptr, (4,4)-cn, num edge types: 1
# Building blocks:
#     Node 0, Type 0, BuildingBlock: KUFVIS_clean_sbu_0, # of connection points: 4
#     Node 1, Type 0, BuildingBlock: KUFVIS_clean_sbu_0, # of connection points: 4
#     Node 2, Type 0, BuildingBlock: KUFVIS_clean_sbu_0, # of connection points: 4
#     Node 3, Type 0, BuildingBlock: KUFVIS_clean_sbu_0, # of connection points: 4
#     Node 4, Type 0, BuildingBlock: KUFVIS_clean_sbu_0, # of connection points: 4
#     Node 5, Type 0, BuildingBlock: KUFVIS_clean_sbu_0, # of connection points: 4
#     Node 6, Type 0, BuildingBlock: KUFVIS_clean_sbu_0, # of connection points: 4
#     Node 7, Type 0, BuildingBlock: KUFVIS_clean_sbu_0, # of connection points: 4
#     Node 8, Type 0, BuildingBlock: KUFVIS_clean_sbu_0, # of connection points: 4
#     Node 9, Type 0, BuildingBlock: KUFVIS_clean_sbu_0, # of connection points: 4
#     Node 10, Type 0, BuildingBlock: KUFVIS_clean_sbu_0, # of connection points: 4
#     Node 11, Type 0, BuildingBlock: KUFVIS_clean_sbu_0, # of connection points: 4
#     Node 12, Type 0, BuildingBlock: KUFVIS_clean_sbu_0, # of connection points: 4
#     Node 13, Type 0, BuildingBlock: KUFVIS_clean_sbu_0, # of connection points: 4
#     Node 14, Type 0, BuildingBlock: KUFVIS_clean_sbu_0, # of connection points: 4
#     Node 15, Type 0, BuildingBlock: KUFVIS_clean_sbu_0, # of connection points: 4
#     Node 16, Type 0, BuildingBlock: KUFVIS_clean_sbu_0, # of connection points: 4
#     Node 17, Type 0, BuildingBlock: KUFVIS_clean_sbu_0, # of connection points: 4
#     Node 18, Type 1, BuildingBlock: MIFKUJ_clean_linker_1, # of connection points: 4
#     Node 19, Type 1, BuildingBlock: MIFKUJ_clean_linker_1, # of connection points: 4
#     Node 20, Type 1, BuildingBlock: MIFKUJ_clean_linker_1, # of connection points: 4
#     Node 21, Type 1, BuildingBlock: MIFKUJ_clean_linker_1, # of connection points: 4
#     Node 22, Type 1, BuildingBlock: MIFKUJ_clean_linker_1, # of connection points: 4
#     Node 23, Type 1, BuildingBlock: MIFKUJ_clean_linker_1, # of connection points: 4
#     Node 24, Type 1, BuildingBlock: MIFKUJ_clean_linker_1, # of connection points: 4
#     Node 25, Type 1, BuildingBlock: MIFKUJ_clean_linker_1, # of connection points: 4
#     Node 26, Type 1, BuildingBlock: MIFKUJ_clean_linker_1, # of connection points: 4
#     Node 27, Type 1, BuildingBlock: MIFKUJ_clean_linker_1, # of connection points: 4
#     Node 28, Type 1, BuildingBlock: MIFKUJ_clean_linker_1, # of connection points: 4
#     Node 29, Type 1, BuildingBlock: MIFKUJ_clean_linker_1, # of connection points: 4
#     Node 30, Type 1, BuildingBlock: MIFKUJ_clean_linker_1, # of connection points: 4
#     Node 31, Type 1, BuildingBlock: MIFKUJ_clean_linker_1, # of connection points: 4
#     Node 32, Type 1, BuildingBlock: MIFKUJ_clean_linker_1, # of connection points: 4
#     Node 33, Type 1, BuildingBlock: MIFKUJ_clean_linker_1, # of connection points: 4
#     Node 34, Type 1, BuildingBlock: MIFKUJ_clean_linker_1, # of connection points: 4
#     Node 35, Type 1, BuildingBlock: MIFKUJ_clean_linker_1, # of connection points: 4
#     Edge 36, Type (0, 1), BuildingBlock: UVAHIK_clean_linker_0, # of connection points: 2
#     Edge 37, Type (0, 1), BuildingBlock: UVAHIK_clean_linker_0, # of connection points: 2
#     Edge 38, Type (0, 1), BuildingBlock: UVAHIK_clean_linker_0, # of connection points: 2
#     Edge 39, Type (0, 1), BuildingBlock: UVAHIK_clean_linker_0, # of connection points: 2
#     Edge 40, Type (0, 1), BuildingBlock: UVAHIK_clean_linker_0, # of connection points: 2
#     Edge 41, Type (0, 1), BuildingBlock: UVAHIK_clean_linker_0, # of connection points: 2
#     Edge 42, Type (0, 1), BuildingBlock: UVAHIK_clean_linker_0, # of connection points: 2
#     Edge 43, Type (0, 1), BuildingBlock: UVAHIK_clean_linker_0, # of connection points: 2
#     Edge 44, Type (0, 1), BuildingBlock: UVAHIK_clean_linker_0, # of connection points: 2
#     Edge 45, Type (0, 1), BuildingBlock: UVAHIK_clean_linker_0, # of connection points: 2
#     Edge 46, Type (0, 1), BuildingBlock: UVAHIK_clean_linker_0, # of connection points: 2
#     Edge 47, Type (0, 1), BuildingBlock: UVAHIK_clean_linker_0, # of connection points: 2
#     Edge 48, Type (0, 1), BuildingBlock: UVAHIK_clean_linker_0, # of connection points: 2
#     Edge 49, Type (0, 1), BuildingBlock: UVAHIK_clean_linker_0, # of connection points: 2
#     Edge 50, Type (0, 1), BuildingBlock: UVAHIK_clean_linker_0, # of connection points: 2
#     Edge 51, Type (0, 1), BuildingBlock: UVAHIK_clean_linker_0, # of connection points: 2
#     Edge 52, Type (0, 1), BuildingBlock: UVAHIK_clean_linker_0, # of connection points: 2
#     Edge 53, Type (0, 1), BuildingBlock: UVAHIK_clean_linker_0, # of connection points: 2
#     Edge 54, Type (0, 1), BuildingBlock: UVAHIK_clean_linker_0, # of connection points: 2
#     Edge 55, Type (0, 1), BuildingBlock: UVAHIK_clean_linker_0, # of connection points: 2
#     Edge 56, Type (0, 1), BuildingBlock: UVAHIK_clean_linker_0, # of connection points: 2
#     Edge 57, Type (0, 1), BuildingBlock: UVAHIK_clean_linker_0, # of connection points: 2
#     Edge 58, Type (0, 1), BuildingBlock: UVAHIK_clean_linker_0, # of connection points: 2
#     Edge 59, Type (0, 1), BuildingBlock: UVAHIK_clean_linker_0, # of connection points: 2
#     Edge 60, Type (0, 1), BuildingBlock: UVAHIK_clean_linker_0, # of connection points: 2
#     Edge 61, Type (0, 1), BuildingBlock: UVAHIK_clean_linker_0, # of connection points: 2
#     Edge 62, Type (0, 1), BuildingBlock: UVAHIK_clean_linker_0, # of connection points: 2
#     Edge 63, Type (0, 1), BuildingBlock: UVAHIK_clean_linker_0, # of connection points: 2
#     Edge 64, Type (0, 1), BuildingBlock: UVAHIK_clean_linker_0, # of connection points: 2
#     Edge 65, Type (0, 1), BuildingBlock: UVAHIK_clean_linker_0, # of connection points: 2
#     Edge 66, Type (0, 1), BuildingBlock: UVAHIK_clean_linker_0, # of connection points: 2
#     Edge 67, Type (0, 1), BuildingBlock: UVAHIK_clean_linker_0, # of connection points: 2
#     Edge 68, Type (0, 1), BuildingBlock: UVAHIK_clean_linker_0, # of connection points: 2
#     Edge 69, Type (0, 1), BuildingBlock: UVAHIK_clean_linker_0, # of connection points: 2
#     Edge 70, Type (0, 1), BuildingBlock: UVAHIK_clean_linker_0, # of connection points: 2
#     Edge 71, Type (0, 1), BuildingBlock: UVAHIK_clean_linker_0, # of connection points: 2
#     Edge 72, Type (0, 1), BuildingBlock: UVAHIK_clean_linker_0, # of connection points: 2
#     Edge 73, Type (0, 1), BuildingBlock: UVAHIK_clean_linker_0, # of connection points: 2
#     Edge 74, Type (0, 1), BuildingBlock: UVAHIK_clean_linker_0, # of connection points: 2
#     Edge 75, Type (0, 1), BuildingBlock: UVAHIK_clean_linker_0, # of connection points: 2
#     Edge 76, Type (0, 1), BuildingBlock: UVAHIK_clean_linker_0, # of connection points: 2
#     Edge 77, Type (0, 1), BuildingBlock: UVAHIK_clean_linker_0, # of connection points: 2
#     Edge 78, Type (0, 1), BuildingBlock: UVAHIK_clean_linker_0, # of connection points: 2
#     Edge 79, Type (0, 1), BuildingBlock: UVAHIK_clean_linker_0, # of connection points: 2
#     Edge 80, Type (0, 1), BuildingBlock: UVAHIK_clean_linker_0, # of connection points: 2
#     Edge 81, Type (0, 1), BuildingBlock: UVAHIK_clean_linker_0, # of connection points: 2
#     Edge 82, Type (0, 1), BuildingBlock: UVAHIK_clean_linker_0, # of connection points: 2
#     Edge 83, Type (0, 1), BuildingBlock: UVAHIK_clean_linker_0, # of connection points: 2
#     Edge 84, Type (0, 1), BuildingBlock: UVAHIK_clean_linker_0, # of connection points: 2
#     Edge 85, Type (0, 1), BuildingBlock: UVAHIK_clean_linker_0, # of connection points: 2
#     Edge 86, Type (0, 1), BuildingBlock: UVAHIK_clean_linker_0, # of connection points: 2
#     Edge 87, Type (0, 1), BuildingBlock: UVAHIK_clean_linker_0, # of connection points: 2
#     Edge 88, Type (0, 1), BuildingBlock: UVAHIK_clean_linker_0, # of connection points: 2
#     Edge 89, Type (0, 1), BuildingBlock: UVAHIK_clean_linker_0, # of connection points: 2
#     Edge 90, Type (0, 1), BuildingBlock: UVAHIK_clean_linker_0, # of connection points: 2
#     Edge 91, Type (0, 1), BuildingBlock: UVAHIK_clean_linker_0, # of connection points: 2
#     Edge 92, Type (0, 1), BuildingBlock: UVAHIK_clean_linker_0, # of connection points: 2
#     Edge 93, Type (0, 1), BuildingBlock: UVAHIK_clean_linker_0, # of connection points: 2
#     Edge 94, Type (0, 1), BuildingBlock: UVAHIK_clean_linker_0, # of connection points: 2
#     Edge 95, Type (0, 1), BuildingBlock: UVAHIK_clean_linker_0, # of connection points: 2
#     Edge 96, Type (0, 1), BuildingBlock: UVAHIK_clean_linker_0, # of connection points: 2
#     Edge 97, Type (0, 1), BuildingBlock: UVAHIK_clean_linker_0, # of connection points: 2
#     Edge 98, Type (0, 1), BuildingBlock: UVAHIK_clean_linker_0, # of connection points: 2
#     Edge 99, Type (0, 1), BuildingBlock: UVAHIK_clean_linker_0, # of connection points: 2
#     Edge 100, Type (0, 1), BuildingBlock: UVAHIK_clean_linker_0, # of connection points: 2
#     Edge 101, Type (0, 1), BuildingBlock: UVAHIK_clean_linker_0, # of connection points: 2
#     Edge 102, Type (0, 1), BuildingBlock: UVAHIK_clean_linker_0, # of connection points: 2
#     Edge 103, Type (0, 1), BuildingBlock: UVAHIK_clean_linker_0, # of connection points: 2
#     Edge 104, Type (0, 1), BuildingBlock: UVAHIK_clean_linker_0, # of connection points: 2
#     Edge 105, Type (0, 1), BuildingBlock: UVAHIK_clean_linker_0, # of connection points: 2
#     Edge 106, Type (0, 1), BuildingBlock: UVAHIK_clean_linker_0, # of connection points: 2
#     Edge 107, Type (0, 1), BuildingBlock: UVAHIK_clean_linker_0, # of connection points: 2
# Relax obj value: 0.041
# Max RMSD: 0.153
# Mean RMSD: 0.069
data_MOF--net-ptr--node1-KUFVIS_clean_sbu_0--node2-MIFKUJ_clean_linker_1--edge1-UVAHIK_clean_linker_0
_symmetry_space_group_name_H-M    P1
_symmetry_Int_Tables_number       1
_symmetry_cell_setting            triclinic
loop_
_symmetry_equiv_pos_as_xyz
'x, y, z'
_cell_length_a     110.81668
_cell_length_b     110.35848
_cell_length_c     76.855959
_cell_angle_alpha  89.808038
_cell_angle_beta   90.491772
_cell_angle_gamma 119.49935
loop_
_atom_site_label
_atom_site_type_symbol
_atom_site_fract_x
_atom_site_fract_y
_atom_site_fract_z
_atom_type_partial_charge
Mn0 Mn 0.99846 0.34833 0.00744 0.0
Mn1 Mn 0.02744 0.37977 0.01053 0.0
C2 C 0.00147 0.36598 0.98878 0.0
C3 C 0.98672 0.32567 0.99667 0.0
C4 C 0.00331 0.37009 0.03528 0.0
O5 O 0.01142 0.3442 0.022 0.0
O6 O 0.03051 0.36541 0.02219 0.0
C7 C 0.04572 0.37399 0.98833 0.0
N8 N 0.03968 0.38185 0.992 0.0
C9 C 0.05141 0.39736 0.96822 0.0
C10 C 0.05782 0.38949 0.96425 0.0
C11 C 0.05492 0.37772 0.97431 0.0
C12 C 0.04231 0.39312 0.98232 0.0
H13 H 0.04353 0.36495 0.99606 0.0
C14 C 0.02401 0.35248 0.02624 0.0
O15 O 0.98288 0.32907 0.0109 0.0
O16 O 0.99758 0.33536 0.98897 0.0
N17 N 0.02613 0.39475 0.99981 0.0
C18 C 0.01853 0.40078 0.00479 0.0
C19 C 0.01988 0.41243 0.99569 0.0
C20 C 0.02918 0.4179 0.98177 0.0
C21 C 0.03704 0.41165 0.97705 0.0
C22 C 0.03523 0.40003 0.98656 0.0
H23 H 0.01144 0.39667 0.01556 0.0
O24 O 0.9892 0.35553 0.99151 0.0
O25 O 0.01173 0.3657 0.99682 0.0
O26 O 0.99553 0.35835 0.02805 0.0
O27 O 0.01545 0.37874 0.02994 0.0
C28 C 0.04647 0.41637 0.96315 0.0
C29 C 0.05357 0.40917 0.95865 0.0
H30 H 0.06492 0.39233 0.95345 0.0
H31 H 0.05978 0.37156 0.97128 0.0
H32 H 0.01378 0.41721 0.99942 0.0
H33 H 0.03014 0.42685 0.97473 0.0
H34 H 0.04822 0.42542 0.95568 0.0
H35 H 0.06062 0.41276 0.94775 0.0
Mn36 Mn 0.65022 0.64782 0.01575 0.0
Mn37 Mn 0.65095 0.61758 0.01493 0.0
C38 C 0.63704 0.63041 0.03527 0.0
C39 C 0.65968 0.67079 0.02518 0.0
C40 C 0.63431 0.62451 0.98921 0.0
O41 O 0.66722 0.65264 0.00122 0.0
O42 O 0.66738 0.63237 0.00269 0.0
C43 C 0.67577 0.62613 0.03721 0.0
N44 N 0.66212 0.61723 0.03378 0.0
C45 C 0.6604 0.60289 0.05832 0.0
C46 C 0.67446 0.61186 0.06207 0.0
C47 C 0.68216 0.62356 0.05151 0.0
C48 C 0.65458 0.60602 0.04395 0.0
H49 H 0.68173 0.63511 0.02909 0.0
C50 C 0.67263 0.64507 0.9978 0.0
O51 O 0.65217 0.66648 0.0111 0.0
O52 O 0.66183 0.66181 0.03358 0.0
N53 N 0.63586 0.6022 0.0263 0.0
C54 C 0.62227 0.59494 0.02137 0.0
C55 C 0.61305 0.58314 0.0309 0.0
C56 C 0.61794 0.57877 0.04517 0.0
C57 C 0.63202 0.58626 0.0498 0.0
C58 C 0.6407 0.59797 0.03987 0.0
H59 H 0.61848 0.59818 0.01031 0.0
O60 O 0.63413 0.6402 0.03179 0.0
O61 O 0.64785 0.63126 0.02755 0.0
O62 O 0.63747 0.63642 0.99551 0.0
O63 O 0.63898 0.61684 0.99535 0.0
C64 C 0.63775 0.58266 0.064 0.0
C65 C 0.6519 0.59103 0.06834 0.0
H66 H 0.67944 0.6099 0.07307 0.0
H67 H 0.69301 0.63056 0.05436 0.0
H68 H 0.6022 0.5774 0.02723 0.0
H69 H 0.61079 0.56969 0.05253 0.0
H70 H 0.63133 0.57356 0.07179 0.0
H71 H 0.65613 0.58828 0.07946 0.0
Mn72 Mn 0.34662 0.99862 0.01212 0.0
Mn73 Mn 0.37598 0.02951 0.01633 0.0
C74 C 0.36365 0.00073 0.03141 0.0
C75 C 0.32361 0.98434 0.02034 0.0
C76 C 0.37013 0.00977 0.98587 0.0
O77 O 0.34189 0.01226 1.00012 0.0
O78 O 0.36093 0.03255 0.0069 0.0
C79 C 0.36692 0.04166 0.04415 0.0
N80 N 0.37602 0.03774 0.03818 0.0
C81 C 0.38964 0.04559 0.06449 0.0
C82 C 0.38047 0.04981 0.07088 0.0
C83 C 0.36904 0.04779 0.06069 0.0
C84 C 0.38697 0.0395 0.04795 0.0
H85 H 0.35811 0.04009 0.03637 0.0
C86 C 0.34873 0.02554 0.00034 0.0
O87 O 0.32815 0.98252 0.00558 0.0
O88 O 0.33236 0.99453 0.03003 0.0
N89 N 0.39149 0.0283 0.02541 0.0
C90 C 0.39923 0.02346 0.01746 0.0
C91 C 0.41101 0.0246 0.02599 0.0
C92 C 0.41481 0.03086 0.04249 0.0
C93 C 0.40684 0.03602 0.05026 0.0
C94 C 0.39526 0.03465 0.0411 0.0
H95 H 0.39644 0.01873 0.00473 0.0
O96 O 0.35415 0.98853 0.02621 0.0
O97 O 0.36263 0.01126 0.0256 0.0
O98 O 0.35873 0.99973 0.99145 0.0
O99 O 0.3769 0.02146 0.99374 0.0
C100 C 0.40989 0.04237 0.06679 0.0
C101 C 0.40124 0.04707 0.07395 0.0
H102 H 0.38206 0.05454 0.08363 0.0
H103 H 0.36188 0.05096 0.06557 0.0
H104 H 0.41714 0.02065 0.01987 0.0
H105 H 0.42384 0.03163 0.04908 0.0
H106 H 0.41876 0.04355 0.07418 0.0
H107 H 0.40358 0.05176 0.08677 0.0
Mn108 Mn 0.99835 0.65153 0.00226 0.0
Mn109 Mn 0.02956 0.65318 0.00129 0.0
C110 C 0.00188 0.63761 0.98298 0.0
C111 C 0.98412 0.66052 0.99369 0.0
C112 C 0.00807 0.63786 0.02921 0.0
O113 O 0.01092 0.6691 0.01602 0.0
O114 O 0.03169 0.67076 0.01113 0.0
C115 C 0.04298 0.67545 0.97497 0.0
N116 N 0.039 0.66227 0.98045 0.0
C117 C 0.04862 0.65769 0.955 0.0
C118 C 0.05293 0.67126 0.94915 0.0
C119 C 0.05006 0.68016 0.95916 0.0
C120 C 0.04157 0.65357 0.97083 0.0
H121 H 0.04074 0.6823 0.9826 0.0
C122 C 0.02413 0.67557 0.01711 0.0
O123 O 0.98183 0.65335 0.00792 0.0
O124 O 0.99478 0.6626 0.98458 0.0
N125 N 0.02929 0.63697 0.99199 0.0
C126 C 0.02431 0.62416 0.99939 0.0
C127 C 0.0264 0.61404 0.99107 0.0
C128 C 0.03372 0.61724 0.97536 0.0
C129 C 0.03887 0.63053 0.96809 0.0
C130 C 0.03661 0.64024 0.97708 0.0
H131 H 0.0188 0.62167 0.01155 0.0
O132 O 0.9894 0.63481 0.98686 0.0
O133 O 0.01193 0.64881 0.98996 0.0
O134 O 0.99842 0.63949 0.02245 0.0
O135 O 0.02031 0.64324 0.02297 0.0
C136 C 0.0461 0.6345 0.95225 0.0
C137 C 0.05091 0.64805 0.94565 0.0
H138 H 0.05838 0.67493 0.93696 0.0
H139 H 0.05329 0.69062 0.95469 0.0
H140 H 0.02242 0.60381 0.99678 0.0
H141 H 0.03536 0.60943 0.96902 0.0
H142 H 0.04791 0.62717 0.94494 0.0
H143 H 0.05633 0.65094 0.93337 0.0
Mn144 Mn 0.34967 0.35456 0.01426 0.0
Mn145 Mn 0.38086 0.35608 0.01235 0.0
C146 C 0.3671 0.36874 0.03336 0.0
C147 C 0.32692 0.34395 0.02433 0.0
C148 C 0.37144 0.37068 0.98661 0.0
O149 O 0.34571 0.33754 0.99977 0.0
O150 O 0.36648 0.33851 0.00145 0.0
C151 C 0.37536 0.33276 0.03606 0.0
N152 N 0.38312 0.34644 0.03168 0.0
C153 C 0.39858 0.35079 0.05597 0.0
C154 C 0.39081 0.33673 0.06067 0.0
C155 C 0.37913 0.32769 0.0507 0.0
C156 C 0.39434 0.35524 0.04122 0.0
H157 H 0.36637 0.32579 0.02842 0.0
C158 C 0.35373 0.33258 0.99666 0.0
O159 O 0.33053 0.35129 0.01015 0.0
O160 O 0.33647 0.34253 0.03243 0.0
N161 N 0.39582 0.3725 0.02245 0.0
C162 C 0.40178 0.38589 0.01666 0.0
C163 C 0.4134 0.39632 0.02547 0.0
C164 C 0.41886 0.39287 0.04 0.0
C165 C 0.41267 0.37899 0.04559 0.0
C166 C 0.40115 0.36903 0.03623 0.0
H167 H 0.39766 0.38861 0.00546 0.0
O168 O 0.35675 0.37085 0.03031 0.0
O169 O 0.36683 0.35823 0.02539 0.0
O170 O 0.35994 0.3675 0.99386 0.0
O171 O 0.37971 0.36654 0.9921 0.0
C172 C 0.41728 0.3747 0.06028 0.0
C173 C 0.41022 0.36062 0.06549 0.0
H174 H 0.39365 0.33278 0.07199 0.0
H175 H 0.37305 0.31683 0.0543 0.0
H176 H 0.41812 0.40701 0.02109 0.0
H177 H 0.42776 0.40096 0.04685 0.0
H178 H 0.42611 0.38219 0.06783 0.0
H179 H 0.41374 0.35748 0.07695 0.0
Mn180 Mn 0.65325 0.00397 0.00794 0.0
Mn181 Mn 0.62301 0.97366 0.00778 0.0
C182 C 0.63559 0.00115 0.98937 0.0
C183 C 0.67587 0.01717 0.99789 0.0
C184 C 0.63126 0.99564 0.03592 0.0
O185 O 0.65798 0.99065 0.0208 0.0
O186 O 0.63796 0.9705 0.01721 0.0
C187 C 0.62969 0.95851 0.98128 0.0
N188 N 0.62142 0.96357 0.98694 0.0
C189 C 0.60656 0.95446 0.96177 0.0
C190 C 0.61487 0.94908 0.95572 0.0
C191 C 0.62651 0.95115 0.9655 0.0
C192 C 0.61024 0.96171 0.97759 0.0
H193 H 0.63867 0.96012 0.98874 0.0
C194 C 0.65059 0.97746 0.0224 0.0
O195 O 0.67213 0.02001 0.01262 0.0
O196 O 0.66656 0.00652 0.9893 0.0
N197 N 0.60761 0.97516 0.99888 0.0
C198 C 0.60092 0.98139 0.00626 0.0
C199 C 0.5891 0.9804 0.99804 0.0
C200 C 0.58423 0.97294 0.9824 0.0
C201 C 0.59121 0.96651 0.97512 0.0
C202 C 0.60285 0.96773 0.984 0.0
H203 H 0.60457 0.98709 0.01833 0.0
O204 O 0.64552 0.01353 0.99322 0.0
O205 O 0.63647 0.99083 0.99622 0.0
O206 O 0.64249 0.00485 0.02899 0.0
O207 O 0.6236 0.98351 0.02949 0.0
C208 C 0.58719 0.95909 0.95931 0.0
C209 C 0.59488 0.95311 0.95261 0.0
H210 H 0.61248 0.94343 0.94354 0.0
H211 H 0.63301 0.94708 0.96088 0.0
H212 H 0.58376 0.98539 0.00374 0.0
H213 H 0.57513 0.97224 0.97608 0.0
H214 H 0.57829 0.95806 0.95209 0.0
H215 H 0.59179 0.94758 0.94033 0.0
Mn216 Mn 0.66523 0.68405 0.3406 0.0
Mn217 Mn 0.69621 0.71348 0.34144 0.0
C218 C 0.66917 0.7021 0.32205 0.0
C219 C 0.65142 0.66138 0.33058 0.0
C220 C 0.67407 0.70602 0.36894 0.0
O221 O 0.67766 0.67858 0.35421 0.0
O222 O 0.69846 0.69778 0.3504 0.0
C223 C 0.71064 0.70611 0.31477 0.0
N224 N 0.70625 0.71488 0.32073 0.0
C225 C 0.7162 0.73015 0.29621 0.0
C226 C 0.72095 0.72135 0.28989 0.0
C227 C 0.71811 0.70926 0.29918 0.0
C228 C 0.70879 0.72646 0.3118 0.0
H229 H 0.7084 0.69677 0.32182 0.0
C230 C 0.69084 0.68525 0.3557 0.0
O231 O 0.64872 0.66556 0.34507 0.0
O232 O 0.66226 0.67032 0.32209 0.0
N233 N 0.69566 0.72953 0.33299 0.0
C234 C 0.69001 0.73671 0.34061 0.0
C235 C 0.69187 0.74907 0.33292 0.0
C236 C 0.6996 0.75398 0.31759 0.0
C237 C 0.70537 0.74647 0.31004 0.0
C238 C 0.70331 0.73431 0.3184 0.0
H239 H 0.68417 0.73308 0.35248 0.0
O240 O 0.65659 0.69248 0.32539 0.0
O241 O 0.67901 0.70064 0.3293 0.0
O242 O 0.66466 0.69513 0.36144 0.0
O243 O 0.6864 0.71314 0.36307 0.0
C244 C 0.713 0.75051 0.29448 0.0
C245 C 0.71835 0.74232 0.28753 0.0
H246 H 0.72669 0.72373 0.27786 0.0
H247 H 0.72166 0.70237 0.29433 0.0
H248 H 0.6874 0.75482 0.33884 0.0
H249 H 0.70104 0.76354 0.31175 0.0
H250 H 0.71468 0.75982 0.28767 0.0
H251 H 0.72404 0.74543 0.27544 0.0
Mn252 Mn 0.3138 0.98217 0.34749 0.0
Mn253 Mn 0.31088 0.95028 0.34491 0.0
C254 C 0.29921 0.96476 0.36622 0.0
C255 C 0.32489 0.00493 0.35808 0.0
C256 C 0.29703 0.96071 0.31944 0.0
O257 O 0.33063 0.98566 0.33317 0.0
O258 O 0.3285 0.96429 0.33408 0.0
C259 C 0.33412 0.95484 0.36828 0.0
N260 N 0.32041 0.94751 0.36399 0.0
C261 C 0.31586 0.93151 0.38763 0.0
C262 C 0.32995 0.93884 0.39225 0.0
C263 C 0.3391 0.95059 0.38257 0.0
C264 C 0.31149 0.93626 0.37329 0.0
H265 H 0.34119 0.96384 0.36082 0.0
C266 C 0.33497 0.97716 0.3297 0.0
O267 O 0.31768 0.00161 0.34374 0.0
O268 O 0.32596 0.99509 0.366 0.0
N269 N 0.29437 0.93565 0.35497 0.0
C270 C 0.28099 0.93023 0.34942 0.0
C271 C 0.27044 0.91871 0.3581 0.0
C272 C 0.27378 0.91274 0.3722 0.0
C273 C 0.28765 0.91839 0.37753 0.0
C274 C 0.29771 0.92991 0.36843 0.0
H275 H 0.27837 0.93471 0.33851 0.0
O276 O 0.29756 0.97544 0.36329 0.0
O277 O 0.30951 0.96467 0.35832 0.0
O278 O 0.30084 0.97239 0.32681 0.0
O279 O 0.30053 0.95191 0.32485 0.0
C280 C 0.29188 0.91315 0.39164 0.0
C281 C 0.30595 0.91976 0.39678 0.0
H282 H 0.33383 0.9356 0.40327 0.0
H283 H 0.34998 0.95633 0.3861 0.0
H284 H 0.25976 0.91441 0.35391 0.0
H285 H 0.26562 0.90388 0.3789 0.0
H286 H 0.28435 0.90414 0.39879 0.0
H287 H 0.30903 0.91578 0.40785 0.0
Mn288 Mn 0.0153 0.32959 0.34654 0.0
Mn289 Mn 0.04586 0.35958 0.34842 0.0
C290 C 0.03211 0.33171 0.36623 0.0
C291 C 0.99222 0.31658 0.35518 0.0
C292 C 0.03826 0.33792 0.31989 0.0
O293 O 0.01146 0.34336 0.33319 0.0
O294 O 0.03141 0.36328 0.33833 0.0
C295 C 0.03885 0.37474 0.37454 0.0
N296 N 0.04714 0.3696 0.36921 0.0
C297 C 0.06183 0.37889 0.39448 0.0
C298 C 0.05352 0.38438 0.40018 0.0
C299 C 0.04195 0.38226 0.39019 0.0
C300 C 0.05824 0.37152 0.37876 0.0
H301 H 0.02994 0.3731 0.36691 0.0
C302 C 0.01901 0.35657 0.33227 0.0
O303 O 0.99646 0.31388 0.34075 0.0
O304 O 0.0013 0.327 0.3643 0.0
N305 N 0.06083 0.35767 0.35802 0.0
C306 C 0.06732 0.35103 0.35119 0.0
C307 C 0.07889 0.3518 0.35987 0.0
C308 C 0.08375 0.3595 0.37534 0.0
C309 C 0.077 0.36637 0.38201 0.0
C310 C 0.06557 0.3653 0.37275 0.0
H311 H 0.06369 0.34515 0.33926 0.0
O312 O 0.02213 0.31951 0.3618 0.0
O313 O 0.03178 0.34232 0.35932 0.0
O314 O 0.0267 0.32874 0.32617 0.0
O315 O 0.04575 0.34991 0.32677 0.0
C316 C 0.08098 0.374 0.39769 0.0
C317 C 0.07338 0.38022 0.40394 0.0
H318 H 0.05584 0.39014 0.41228 0.0
H319 H 0.03544 0.3864 0.39456 0.0
H320 H 0.08404 0.34646 0.35464 0.0
H321 H 0.09261 0.35999 0.38206 0.0
H322 H 0.08972 0.37494 0.40518 0.0
H323 H 0.0764 0.38587 0.41614 0.0
Mn324 Mn 0.66708 0.98123 0.33559 0.0
Mn325 Mn 0.69682 0.97985 0.33841 0.0
C326 C 0.67049 0.96655 0.31745 0.0
C327 C 0.65423 0.99109 0.32462 0.0
C328 C 0.67337 0.96572 0.36418 0.0
O329 O 0.67987 0.99878 0.34925 0.0
O330 O 0.69945 0.99737 0.34906 0.0
C331 C 0.71406 0.00324 0.31486 0.0
N332 N 0.70853 0.98958 0.31929 0.0
C333 C 0.72038 0.98551 0.29589 0.0
C334 C 0.72627 0.99955 0.29112 0.0
C335 C 0.72304 0.00844 0.30061 0.0
C336 C 0.71146 0.98091 0.31017 0.0
H337 H 0.71165 0.0101 0.32218 0.0
C338 C 0.69267 0.00359 0.35298 0.0
O339 O 0.65105 0.98431 0.33922 0.0
O340 O 0.66509 0.99243 0.31661 0.0
N341 N 0.69593 0.96353 0.32857 0.0
C342 C 0.6888 0.95012 0.33428 0.0
C343 C 0.69049 0.9398 0.32581 0.0
C344 C 0.69967 0.94342 0.31177 0.0
C345 C 0.70705 0.95732 0.3063 0.0
C346 C 0.70488 0.96713 0.31517 0.0
H347 H 0.68182 0.94731 0.34515 0.0
O348 O 0.65807 0.96436 0.32047 0.0
O349 O 0.68061 0.9774 0.32494 0.0
O350 O 0.66514 0.96917 0.35683 0.0
O351 O 0.68547 0.96934 0.35849 0.0
C352 C 0.71635 0.96181 0.29226 0.0
C353 C 0.72292 0.97587 0.28697 0.0
H354 H 0.73321 0.00361 0.28015 0.0
H355 H 0.72751 0.01928 0.29697 0.0
H356 H 0.68476 0.92909 0.33012 0.0
H357 H 0.70092 0.93543 0.30524 0.0
H358 H 0.71839 0.9545 0.2853 0.0
H359 H 0.72986 0.97914 0.27596 0.0
Mn360 Mn 0.01919 0.68773 0.34942 0.0
Mn361 Mn 0.05029 0.68898 0.35098 0.0
C362 C 0.03547 0.70134 0.37015 0.0
C363 C 0.99591 0.67747 0.35737 0.0
C364 C 0.04335 0.70528 0.32485 0.0
O365 O 0.01571 0.67091 0.33486 0.0
O366 O 0.03677 0.67268 0.33715 0.0
C367 C 0.04171 0.66346 0.37185 0.0
N368 N 0.05027 0.67737 0.36948 0.0
C369 C 0.06369 0.67879 0.39493 0.0
C370 C 0.05507 0.66446 0.3976 0.0
C371 C 0.044 0.65679 0.38605 0.0
C372 C 0.06084 0.68488 0.38063 0.0
H373 H 0.03324 0.65752 0.36295 0.0
C374 C 0.02423 0.66661 0.33155 0.0
O375 O 0.00046 0.68501 0.34341 0.0
O376 O 0.0048 0.67558 0.36638 0.0
N377 N 0.06462 0.70405 0.36392 0.0
C378 C 0.07163 0.71786 0.35988 0.0
C379 C 0.08281 0.72706 0.37042 0.0
C380 C 0.08687 0.72193 0.38475 0.0
C381 C 0.07968 0.70764 0.38845 0.0
C382 C 0.06855 0.69899 0.37756 0.0
H383 H 0.06866 0.72182 0.34875 0.0
O384 O 0.0255 0.70373 0.36575 0.0
O385 O 0.03552 0.69083 0.36255 0.0
O386 O 0.03093 0.70098 0.32985 0.0
O387 O 0.05138 0.70141 0.33189 0.0
C388 C 0.08301 0.70165 0.40261 0.0
C389 C 0.07495 0.68726 0.40594 0.0
H390 H 0.05683 0.65927 0.40851 0.0
H391 H 0.03728 0.64574 0.38805 0.0
H392 H 0.08834 0.73807 0.36746 0.0
H393 H 0.09549 0.72907 0.39287 0.0
H394 H 0.09167 0.70804 0.41113 0.0
H395 H 0.07748 0.68282 0.41703 0.0
Mn396 Mn 0.3185 0.33811 0.34212 0.0
Mn397 Mn 0.28861 0.30752 0.34285 0.0
C398 C 0.30083 0.33448 0.32309 0.0
C399 C 0.34111 0.35125 0.33213 0.0
C400 C 0.29672 0.33019 0.3701 0.0
O401 O 0.32338 0.32534 0.35606 0.0
O402 O 0.30387 0.30474 0.3521 0.0
C403 C 0.29497 0.29183 0.31676 0.0
N404 N 0.28668 0.29688 0.32241 0.0
C405 C 0.27112 0.28666 0.29806 0.0
C406 C 0.27941 0.28124 0.29207 0.0
C407 C 0.29141 0.28388 0.30143 0.0
C408 C 0.27515 0.29447 0.31346 0.0
H409 H 0.30424 0.29391 0.32387 0.0
C410 C 0.31641 0.31211 0.35752 0.0
O411 O 0.33723 0.35442 0.34651 0.0
O412 O 0.33195 0.34029 0.32386 0.0
N413 N 0.27302 0.30871 0.33402 0.0
C414 C 0.26666 0.31546 0.34093 0.0
C415 C 0.25475 0.3143 0.33276 0.0
C416 C 0.24944 0.30614 0.31769 0.0
C417 C 0.25609 0.29921 0.3109 0.0
C418 C 0.26787 0.30068 0.31966 0.0
H419 H 0.27066 0.32171 0.35253 0.0
O420 O 0.31062 0.34703 0.32651 0.0
O421 O 0.30184 0.32446 0.33065 0.0
O422 O 0.30764 0.33945 0.36267 0.0
O423 O 0.28939 0.31779 0.36431 0.0
C424 C 0.25166 0.29115 0.29558 0.0
C425 C 0.25919 0.2849 0.28915 0.0
H426 H 0.27675 0.27516 0.2802 0.0
H427 H 0.29792 0.27981 0.29682 0.0
H428 H 0.24968 0.3197 0.33806 0.0
H429 H 0.24031 0.30537 0.31135 0.0
H430 H 0.24263 0.2899 0.28848 0.0
H431 H 0.25582 0.27892 0.2772 0.0
Mn432 Mn 0.32949 0.01889 0.67672 0.0
Mn433 Mn 0.35765 0.05101 0.67894 0.0
C434 C 0.33183 0.0358 0.65722 0.0
C435 C 0.31827 0.99593 0.66702 0.0
C436 C 0.33355 0.04089 0.70379 0.0
O437 O 0.34303 0.01581 0.69158 0.0
O438 O 0.36162 0.03741 0.69103 0.0
C439 C 0.37655 0.04601 0.65692 0.0
N440 N 0.36995 0.05337 0.66034 0.0
C441 C 0.3806 0.06839 0.63579 0.0
C442 C 0.38759 0.06103 0.63207 0.0
C443 C 0.38552 0.04977 0.64265 0.0
C444 C 0.37183 0.06419 0.65021 0.0
H445 H 0.37496 0.03734 0.66502 0.0
C446 C 0.35556 0.02457 0.69552 0.0
O447 O 0.31443 0.99958 0.68105 0.0
O448 O 0.3289 0.00558 0.65886 0.0
N449 N 0.35537 0.06528 0.66774 0.0
C450 C 0.34732 0.07083 0.67259 0.0
C451 C 0.34789 0.08199 0.66307 0.0
C452 C 0.35684 0.08742 0.64881 0.0
C453 C 0.36515 0.08164 0.64419 0.0
C454 C 0.3642 0.07059 0.65423 0.0
H455 H 0.34045 0.06673 0.68357 0.0
O456 O 0.31971 0.02518 0.66025 0.0
O457 O 0.34226 0.03616 0.66559 0.0
O458 O 0.32613 0.02899 0.69679 0.0
O459 O 0.34558 0.04977 0.6984 0.0
C460 C 0.37412 0.08622 0.62982 0.0
C461 C 0.38182 0.07958 0.6256 0.0
H462 H 0.39448 0.06386 0.62103 0.0
H463 H 0.39082 0.04399 0.63981 0.0
H464 H 0.34144 0.08639 0.6667 0.0
H465 H 0.35717 0.09595 0.64141 0.0
H466 H 0.37501 0.09469 0.62176 0.0
H467 H 0.38853 0.08305 0.61436 0.0
Mn468 Mn 0.98063 0.31474 0.67853 0.0
Mn469 Mn 0.97875 0.28328 0.67588 0.0
C470 C 0.96625 0.29707 0.69705 0.0
C471 C 0.99102 0.33741 0.6893 0.0
C472 C 0.96461 0.29326 0.6502 0.0
O473 O 0.99772 0.31877 0.66444 0.0
O474 O 0.99635 0.29772 0.66544 0.0
C475 C 0.00183 0.28833 0.69981 0.0
N476 N 0.98821 0.28072 0.69521 0.0
C477 C 0.98361 0.265 0.7192 0.0
C478 C 0.99762 0.27262 0.72413 0.0
C479 C 0.00675 0.28436 0.71442 0.0
C480 C 0.97932 0.26943 0.70449 0.0
H481 H 0.00887 0.29737 0.69239 0.0
C482 C 0.0025 0.31061 0.66112 0.0
O483 O 0.98395 0.33399 0.67485 0.0
O484 O 0.9924 0.32775 0.6972 0.0
N485 N 0.96228 0.26829 0.68557 0.0
C486 C 0.94896 0.26252 0.67961 0.0
C487 C 0.93845 0.25089 0.68818 0.0
C488 C 0.94175 0.24523 0.70265 0.0
C489 C 0.95555 0.25125 0.7084 0.0
C490 C 0.9656 0.26277 0.69929 0.0
H491 H 0.94637 0.2668 0.66847 0.0
O492 O 0.96423 0.30752 0.69413 0.0
O493 O 0.97676 0.29734 0.68925 0.0
O494 O 0.96797 0.30479 0.65772 0.0
O495 O 0.96846 0.28472 0.65558 0.0
C496 C 0.95969 0.24644 0.72306 0.0
C497 C 0.9737 0.25333 0.72847 0.0
H498 H 0.00145 0.26963 0.73544 0.0
H499 H 0.01756 0.29034 0.7182 0.0
H500 H 0.92782 0.24631 0.68366 0.0
H501 H 0.9336 0.23635 0.70932 0.0
H502 H 0.95213 0.2376 0.73042 0.0
H503 H 0.97672 0.24966 0.7399 0.0
Mn504 Mn 0.68065 0.66238 0.67575 0.0
Mn505 Mn 0.71078 0.69283 0.67611 0.0
C506 C 0.69823 0.66547 0.69476 0.0
C507 C 0.65791 0.64902 0.68547 0.0
C508 C 0.70316 0.67062 0.64833 0.0
O509 O 0.67582 0.67551 0.66255 0.0
O510 O 0.69581 0.69567 0.666 0.0
C511 C 0.70343 0.7081 0.70167 0.0
N512 N 0.71194 0.70315 0.69656 0.0
C513 C 0.72671 0.71319 0.72161 0.0
C514 C 0.71816 0.71847 0.7271 0.0
C515 C 0.70644 0.71587 0.71711 0.0
C516 C 0.72316 0.70548 0.70615 0.0
H517 H 0.69443 0.70614 0.69402 0.0
C518 C 0.68318 0.68868 0.66082 0.0
O519 O 0.66188 0.64619 0.67091 0.0
O520 O 0.66708 0.65972 0.69413 0.0
N521 N 0.72621 0.69174 0.6857 0.0
C522 C 0.73317 0.68557 0.67887 0.0
C523 C 0.74503 0.68699 0.68746 0.0
C524 C 0.74974 0.69487 0.70282 0.0
C525 C 0.74255 0.70132 0.70943 0.0
C526 C 0.7308 0.69955 0.70031 0.0
H527 H 0.72968 0.67959 0.667 0.0
O528 O 0.68843 0.65304 0.69084 0.0
O529 O 0.69729 0.6757 0.68772 0.0
O530 O 0.69167 0.66153 0.65491 0.0
O531 O 0.71068 0.68273 0.65487 0.0
C532 C 0.74651 0.70932 0.72479 0.0
C533 C 0.73855 0.71518 0.73095 0.0
H534 H 0.72045 0.72447 0.739 0.0
H535 H 0.69977 0.71986 0.72129 0.0
H536 H 0.75055 0.68201 0.68224 0.0
H537 H 0.75885 0.69588 0.70946 0.0
H538 H 0.75557 0.71089 0.7321 0.0
H539 H 0.74159 0.72113 0.74293 0.0
Mn540 Mn 0.33365 0.31686 0.66948 0.0
Mn541 Mn 0.36281 0.3143 0.67143 0.0
C542 C 0.33653 0.30255 0.65015 0.0
C543 C 0.32146 0.32785 0.6599 0.0
C544 C 0.33909 0.29986 0.69676 0.0
O545 O 0.34679 0.33362 0.6842 0.0
O546 O 0.36614 0.33182 0.68285 0.0
C547 C 0.38053 0.3379 0.64842 0.0
N548 N 0.3746 0.32412 0.6524 0.0
C549 C 0.38554 0.31989 0.62805 0.0
C550 C 0.39183 0.33406 0.62375 0.0
C551 C 0.38928 0.34309 0.63395 0.0
C552 C 0.37693 0.31533 0.64263 0.0
H553 H 0.37858 0.34487 0.65623 0.0
C554 C 0.35959 0.3381 0.6876 0.0
O555 O 0.31805 0.32041 0.67398 0.0
O556 O 0.33221 0.32921 0.65158 0.0
N557 N 0.36124 0.2979 0.66085 0.0
C558 C 0.35385 0.28443 0.66628 0.0
C559 C 0.355 0.27401 0.65723 0.0
C560 C 0.36384 0.27756 0.64284 0.0
C561 C 0.37147 0.29151 0.63765 0.0
C562 C 0.36997 0.30146 0.64723 0.0
H563 H 0.34709 0.28164 0.67737 0.0
O564 O 0.32426 0.30075 0.65324 0.0
O565 O 0.34683 0.31286 0.65823 0.0
O566 O 0.33107 0.30366 0.68962 0.0
O567 O 0.3513 0.30359 0.69136 0.0
C568 C 0.38029 0.29591 0.62311 0.0
C569 C 0.38729 0.31008 0.61829 0.0
H570 H 0.39855 0.33809 0.61256 0.0
H571 H 0.39404 0.35402 0.63066 0.0
H572 H 0.34906 0.26326 0.66132 0.0
H573 H 0.3646 0.26948 0.63581 0.0
H574 H 0.38159 0.28844 0.6154 0.0
H575 H 0.39388 0.3133 0.60695 0.0
Mn576 Mn 0.685 0.01906 0.67937 0.0
Mn577 Mn 0.7148 0.01772 0.6792 0.0
C578 C 0.70291 0.03312 0.69809 0.0
C579 C 0.66249 0.01076 0.68956 0.0
C580 C 0.70765 0.0332 0.65194 0.0
O581 O 0.6795 0.00101 0.66635 0.0
O582 O 0.69958 0.00064 0.66835 0.0
C583 C 0.70664 0.99413 0.70351 0.0
N584 N 0.71551 0.00758 0.699 0.0
C585 C 0.73041 0.01058 0.72349 0.0
C586 C 0.72148 0.99674 0.72835 0.0
C587 C 0.70951 0.9885 0.71836 0.0
C588 C 0.72698 0.01563 0.7086 0.0
H589 H 0.69747 0.98775 0.69583 0.0
C590 C 0.68683 0.99519 0.66374 0.0
O591 O 0.6664 0.01727 0.67479 0.0
O592 O 0.67151 0.00876 0.69806 0.0
N593 N 0.7305 0.03342 0.68941 0.0
C594 C 0.73764 0.04676 0.68347 0.0
C595 C 0.74965 0.05648 0.69235 0.0
C596 C 0.75433 0.05234 0.70705 0.0
C597 C 0.74692 0.0385 0.71275 0.0
C598 C 0.73499 0.02929 0.70343 0.0
H599 H 0.73416 0.04998 0.67209 0.0
O600 O 0.69332 0.03616 0.69412 0.0
O601 O 0.70164 0.02177 0.69124 0.0
O602 O 0.69597 0.03058 0.65823 0.0
O603 O 0.71522 0.02862 0.65861 0.0
C604 C 0.75082 0.03351 0.72744 0.0
C605 C 0.74251 0.0196 0.73289 0.0
H606 H 0.72366 0.99235 0.73978 0.0
H607 H 0.70255 0.97782 0.72206 0.0
H608 H 0.75532 0.06714 0.68786 0.0
H609 H 0.76357 0.05988 0.7139 0.0
H610 H 0.7601 0.04034 0.73477 0.0
H611 H 0.74549 0.01596 0.74438 0.0
Mn612 Mn 0.98473 0.67161 0.67365 0.0
Mn613 Mn 0.95356 0.64237 0.67135 0.0
C614 C 0.96827 0.67025 0.65394 0.0
C615 C 0.00778 0.68411 0.66502 0.0
C616 C 0.96182 0.66377 0.70027 0.0
O617 O 0.98798 0.65729 0.68651 0.0
O618 O 0.9674 0.63797 0.6818 0.0
C619 C 0.96002 0.62664 0.64545 0.0
N620 N 0.95214 0.63232 0.65054 0.0
C621 C 0.93782 0.62378 0.62485 0.0
C622 C 0.94573 0.61777 0.61938 0.0
C623 C 0.9569 0.61925 0.6297 0.0
C624 C 0.9414 0.63101 0.64068 0.0
H625 H 0.96862 0.62777 0.65336 0.0
C626 C 0.97987 0.64418 0.68771 0.0
O627 O 0.00375 0.68685 0.67959 0.0
O628 O 0.9985 0.67391 0.65579 0.0
N629 N 0.93917 0.64508 0.66142 0.0
C630 C 0.93305 0.65213 0.6681 0.0
C631 C 0.92189 0.65199 0.65914 0.0
C632 C 0.91705 0.64451 0.6435 0.0
C633 C 0.92344 0.63724 0.63695 0.0
C634 C 0.93446 0.63768 0.64651 0.0
H635 H 0.93669 0.65785 0.68015 0.0
O636 O 0.97839 0.68228 0.65867 0.0
O637 O 0.96819 0.65941 0.66073 0.0
O638 O 0.9736 0.67265 0.69422 0.0
O639 O 0.95386 0.65207 0.693 0.0
C640 C 0.91947 0.6298 0.62115 0.0
C641 C 0.92668 0.6231 0.61508 0.0
H642 H 0.94339 0.61211 0.60721 0.0
H643 H 0.9631 0.61469 0.62553 0.0
H644 H 0.91703 0.65765 0.66426 0.0
H645 H 0.90849 0.64449 0.63658 0.0
H646 H 0.91104 0.62935 0.61342 0.0
H647 H 0.92367 0.61759 0.60278 0.0
H648 H 0.14835 0.32336 0.18225 0.0
H649 H 0.1325 0.327 0.20045 0.0
H650 H 0.09805 0.28909 0.18028 0.0
H651 H 0.11415 0.28522 0.16262 0.0
H652 H 0.15343 0.30081 0.18233 0.0
H653 H 0.1447 0.32795 0.13353 0.0
H654 H 0.12783 0.33262 0.11879 0.0
H655 H 0.09927 0.28833 0.11548 0.0
H656 H 0.11664 0.28383 0.12942 0.0
H657 H 0.17493 0.28509 0.13939 0.0
H658 H 0.19475 0.28791 0.12243 0.0
H659 H 0.19894 0.32581 0.1002 0.0
H660 H 0.17914 0.32289 0.11708 0.0
H661 H 0.15271 0.30398 0.11796 0.0
H662 H 0.16466 0.28174 0.17912 0.0
H663 H 0.18381 0.28419 0.1976 0.0
H664 H 0.20897 0.32647 0.17932 0.0
H665 H 0.18998 0.32362 0.16035 0.0
C666 C 0.13241 0.30411 0.17094 0.0
C667 C 0.13738 0.31581 0.18179 0.0
C668 C 0.12827 0.31795 0.19205 0.0
C669 C 0.11395 0.30842 0.1917 0.0
C670 C 0.10901 0.29661 0.18092 0.0
C671 C 0.11817 0.29445 0.17067 0.0
C672 C 0.1423 0.30217 0.16002 0.0
C673 C 0.15309 0.30112 0.16823 0.0
C674 C 0.1421 0.303 0.1417 0.0
C675 C 0.13182 0.30558 0.13259 0.0
C676 C 0.13482 0.31928 0.12951 0.0
C677 C 0.12508 0.32191 0.12125 0.0
C678 C 0.11208 0.31086 0.11608 0.0
C679 C 0.1092 0.29709 0.11909 0.0
C680 C 0.11906 0.29449 0.12716 0.0
C681 C 0.17558 0.30382 0.12958 0.0
C682 C 0.18015 0.29402 0.13089 0.0
C683 C 0.1915 0.29566 0.1212 0.0
C684 C 0.19845 0.30709 0.10994 0.0
C685 C 0.19371 0.31677 0.10852 0.0
C686 C 0.1824 0.31514 0.1182 0.0
C687 C 0.16388 0.3025 0.14026 0.0
C688 C 0.15278 0.30303 0.13201 0.0
C689 C 0.16397 0.30148 0.15861 0.0
C690 C 0.17597 0.30247 0.16835 0.0
C691 C 0.17441 0.29143 0.17892 0.0
C692 C 0.18533 0.29291 0.18958 0.0
C693 C 0.19793 0.30559 0.19012 0.0
C694 C 0.19954 0.31649 0.17909 0.0
C695 C 0.18867 0.31492 0.16828 0.0
H696 H 0.71532 0.87694 0.17691 0.0
H697 H 0.71155 0.89284 0.19545 0.0
H698 H 0.6702 0.87623 0.17422 0.0
H699 H 0.67412 0.86056 0.15546 0.0
H700 H 0.69765 0.84684 0.17765 0.0
H701 H 0.71325 0.88556 0.13905 0.0
H702 H 0.7114 0.90371 0.12282 0.0
H703 H 0.67696 0.87211 0.09338 0.0
H704 H 0.67851 0.85399 0.10999 0.0
H705 H 0.67758 0.81946 0.1124 0.0
H706 H 0.67569 0.79977 0.09593 0.0
H707 H 0.71328 0.80519 0.12045 0.0
H708 H 0.71503 0.8249 0.1371 0.0
H709 H 0.69656 0.84615 0.11316 0.0
H710 H 0.67876 0.80772 0.1526 0.0
H711 H 0.67654 0.78926 0.17233 0.0
H712 H 0.71202 0.81926 0.2017 0.0
H713 H 0.71477 0.83762 0.18146 0.0
C714 C 0.69503 0.86767 0.16479 0.0
C715 C 0.70552 0.87687 0.17612 0.0
C716 C 0.70338 0.88594 0.18662 0.0
C717 C 0.69059 0.88571 0.18622 0.0
C718 C 0.68013 0.87656 0.17477 0.0
C719 C 0.68237 0.86768 0.16404 0.0
C720 C 0.69692 0.85742 0.15453 0.0
C721 C 0.69775 0.8468 0.16353 0.0
C722 C 0.6966 0.85729 0.13615 0.0
C723 C 0.69589 0.86838 0.12594 0.0
C724 C 0.70518 0.88252 0.12926 0.0
C725 C 0.70418 0.89289 0.11994 0.0
C726 C 0.69405 0.88929 0.10686 0.0
C727 C 0.68496 0.87516 0.10327 0.0
C728 C 0.68584 0.86481 0.11276 0.0
C729 C 0.6964 0.82362 0.12604 0.0
C730 C 0.68548 0.81649 0.11414 0.0
C731 C 0.68445 0.80525 0.10467 0.0
C732 C 0.69436 0.80091 0.10682 0.0
C733 C 0.70539 0.80816 0.11864 0.0
C734 C 0.70642 0.81944 0.12814 0.0
C735 C 0.69709 0.83533 0.13629 0.0
C736 C 0.69674 0.84626 0.12728 0.0
C737 C 0.69766 0.83563 0.15471 0.0
C738 C 0.69707 0.82408 0.16535 0.0
C739 C 0.68639 0.81028 0.16287 0.0
C740 C 0.68504 0.79975 0.17419 0.0
C741 C 0.69412 0.80293 0.18842 0.0
C742 C 0.70493 0.81662 0.19076 0.0
C743 C 0.70646 0.82708 0.17923 0.0
H744 H 0.1223 0.84106 0.17918 0.0
H745 H 0.10692 0.8231 0.19967 0.0
H746 H 0.11937 0.79473 0.17858 0.0
H747 H 0.13497 0.81277 0.15859 0.0
H748 H 0.1502 0.85274 0.17831 0.0
H749 H 0.11309 0.82833 0.13612 0.0
H750 H 0.09563 0.8082 0.11985 0.0
H751 H 0.12748 0.79915 0.1029 0.0
H752 H 0.14485 0.8195 0.11868 0.0
H753 H 0.17974 0.85435 0.11679 0.0
H754 H 0.19941 0.87074 0.09936 0.0
H755 H 0.19255 0.90421 0.11602 0.0
H756 H 0.17294 0.88776 0.13354 0.0
H757 H 0.15288 0.84664 0.11481 0.0
H758 H 0.18682 0.86359 0.1624 0.0
H759 H 0.20526 0.88066 0.18092 0.0
H760 H 0.18179 0.90212 0.18781 0.0
H761 H 0.16299 0.88433 0.17013 0.0
C762 C 0.1297 0.82824 0.16722 0.0
C763 C 0.12158 0.83091 0.17886 0.0
C764 C 0.11274 0.82062 0.19048 0.0
C765 C 0.11197 0.80751 0.19079 0.0
C766 C 0.11983 0.80476 0.17879 0.0
C767 C 0.12864 0.81502 0.1672 0.0
C768 C 0.14017 0.83952 0.15616 0.0
C769 C 0.15054 0.85157 0.16434 0.0
C770 C 0.14097 0.83779 0.13805 0.0
C771 C 0.13026 0.82542 0.12857 0.0
C772 C 0.11627 0.82197 0.1289 0.0
C773 C 0.10629 0.81041 0.11966 0.0
C774 C 0.11013 0.80206 0.10996 0.0
C775 C 0.12416 0.8055 0.10987 0.0
C776 C 0.13412 0.8171 0.11897 0.0
C777 C 0.17493 0.86983 0.1266 0.0
C778 C 0.18247 0.86522 0.11667 0.0
C779 C 0.19367 0.8746 0.10664 0.0
C780 C 0.19756 0.8888 0.10627 0.0
C781 C 0.18997 0.89339 0.11621 0.0
C782 C 0.17876 0.88399 0.12624 0.0
C783 C 0.16292 0.85974 0.137 0.0
C784 C 0.15229 0.84795 0.1287 0.0
C785 C 0.16199 0.86156 0.15504 0.0
C786 C 0.1736 0.87275 0.16493 0.0
C787 C 0.18573 0.87205 0.16785 0.0
C788 C 0.19633 0.88193 0.17835 0.0
C789 C 0.19513 0.89289 0.18596 0.0
C790 C 0.18304 0.89373 0.18253 0.0
C791 C 0.17231 0.88365 0.17229 0.0
H792 H 0.27527 0.16503 0.84583 0.0
H793 H 0.27813 0.18417 0.82697 0.0
H794 H 0.32255 0.20437 0.83526 0.0
H795 H 0.31938 0.18567 0.85486 0.0
H796 H 0.29145 0.14897 0.84074 0.0
H797 H 0.28323 0.17758 0.88132 0.0
H798 H 0.2892 0.19969 0.89539 0.0
H799 H 0.32658 0.20184 0.91621 0.0
H800 H 0.32097 0.18024 0.90131 0.0
H801 H 0.32099 0.14673 0.89925 0.0
H802 H 0.32559 0.13034 0.91532 0.0
H803 H 0.28406 0.09733 0.9036 0.0
H804 H 0.27968 0.11383 0.88712 0.0
H805 H 0.3016 0.15494 0.90411 0.0
H806 H 0.31738 0.13888 0.85476 0.0
H807 H 0.31892 0.12152 0.83692 0.0
H808 H 0.27411 0.09796 0.83365 0.0
H809 H 0.27282 0.11598 0.85078 0.0
C810 C 0.2971 0.17404 0.85179 0.0
C811 C 0.28557 0.1737 0.84366 0.0
C812 C 0.28727 0.18461 0.83277 0.0
C813 C 0.30059 0.19592 0.8295 0.0
C814 C 0.3121 0.1961 0.83771 0.0
C815 C 0.31034 0.18534 0.84883 0.0
C816 C 0.29555 0.16241 0.86288 0.0
C817 C 0.29317 0.15007 0.8547 0.0
C818 C 0.29853 0.16419 0.88092 0.0
C819 C 0.30173 0.17731 0.89005 0.0
C820 C 0.2928 0.18292 0.88873 0.0
C821 C 0.29615 0.19548 0.89697 0.0
C822 C 0.30843 0.20262 0.90687 0.0
C823 C 0.31719 0.1968 0.90842 0.0
C824 C 0.3139 0.18433 0.90007 0.0
C825 C 0.30001 0.1315 0.892 0.0
C826 C 0.31285 0.13598 0.90022 0.0
C827 C 0.31544 0.12658 0.90948 0.0
C828 C 0.30517 0.1125 0.91087 0.0
C829 C 0.29226 0.10804 0.90262 0.0
C830 C 0.28972 0.11746 0.89325 0.0
C831 C 0.29753 0.14157 0.88195 0.0
C832 C 0.29925 0.15361 0.89028 0.0
C833 C 0.29446 0.1398 0.86397 0.0
C834 C 0.29501 0.12865 0.85404 0.0
C835 C 0.30791 0.12993 0.85022 0.0
C836 C 0.30873 0.11989 0.84014 0.0
C837 C 0.29663 0.10821 0.83385 0.0
C838 C 0.28366 0.10688 0.83801 0.0
C839 C 0.28287 0.1171 0.84789 0.0
H840 H 0.83538 0.12209 0.84238 0.0
H841 H 0.81615 0.10595 0.82353 0.0
H842 H 0.79166 0.12421 0.84072 0.0
H843 H 0.81079 0.14015 0.85972 0.0
H844 H 0.84799 0.15226 0.83942 0.0
H845 H 0.82561 0.11575 0.88185 0.0
H846 H 0.80595 0.09851 0.8986 0.0
H847 H 0.79987 0.13132 0.91983 0.0
H848 H 0.81965 0.1485 0.90321 0.0
H849 H 0.85543 0.18303 0.90272 0.0
H850 H 0.87372 0.20269 0.91867 0.0
H851 H 0.9043 0.19402 0.89621 0.0
H852 H 0.88594 0.17443 0.88014 0.0
H853 H 0.84652 0.15592 0.90361 0.0
H854 H 0.86307 0.19076 0.85932 0.0
H855 H 0.87888 0.20903 0.8395 0.0
H856 H 0.89342 0.18169 0.8207 0.0
H857 H 0.87744 0.16336 0.84047 0.0
C858 C 0.82444 0.13223 0.85247 0.0
C859 C 0.82578 0.12246 0.84225 0.0
C860 C 0.81482 0.11325 0.83157 0.0
C861 C 0.80248 0.1139 0.83069 0.0
C862 C 0.8011 0.12356 0.84114 0.0
C863 C 0.81196 0.13259 0.85203 0.0
C864 C 0.83638 0.14278 0.86263 0.0
C865 C 0.84786 0.15287 0.85351 0.0
C866 C 0.83587 0.14387 0.8809 0.0
C867 C 0.82403 0.1334 0.89117 0.0
C868 C 0.81999 0.11921 0.89005 0.0
C869 C 0.80874 0.10937 0.89962 0.0
C870 C 0.8013 0.11352 0.91054 0.0
C871 C 0.80547 0.12777 0.91175 0.0
C872 C 0.81675 0.13761 0.9022 0.0
C873 C 0.86932 0.17732 0.89015 0.0
C874 C 0.86607 0.18533 0.90129 0.0
C875 C 0.87654 0.19654 0.91045 0.0
C876 C 0.89048 0.19993 0.90873 0.0
C877 C 0.8937 0.19182 0.89763 0.0
C878 C 0.88321 0.18061 0.88846 0.0
C879 C 0.85815 0.16548 0.88038 0.0
C880 C 0.84682 0.15516 0.88956 0.0
C881 C 0.85859 0.16436 0.8621 0.0
C882 C 0.86916 0.17576 0.8514 0.0
C883 C 0.86981 0.18878 0.85112 0.0
C884 C 0.87876 0.19916 0.83974 0.0
C885 C 0.88732 0.19673 0.82858 0.0
C886 C 0.88699 0.18384 0.82927 0.0
C887 C 0.87787 0.17338 0.84048 0.0
H888 H 0.81963 0.67236 0.83684 0.0
H889 H 0.80023 0.66875 0.81806 0.0
H890 H 0.80449 0.70785 0.83552 0.0
H891 H 0.82404 0.71147 0.85426 0.0
H892 H 0.84628 0.69242 0.83672 0.0
H893 H 0.80863 0.67376 0.87496 0.0
H894 H 0.78796 0.67113 0.8893 0.0
H895 H 0.81228 0.71148 0.91338 0.0
H896 H 0.83306 0.71413 0.89875 0.0
H897 H 0.87901 0.7171 0.89641 0.0
H898 H 0.89613 0.71494 0.91487 0.0
H899 H 0.87461 0.67056 0.90581 0.0
H900 H 0.85778 0.67282 0.88719 0.0
H901 H 0.84577 0.69795 0.90072 0.0
H902 H 0.88522 0.71217 0.86096 0.0
H903 H 0.90283 0.70919 0.84543 0.0
H904 H 0.87072 0.66986 0.82507 0.0
H905 H 0.85336 0.67269 0.84099 0.0
C906 C 0.82327 0.69218 0.84693 0.0
C907 C 0.81642 0.68018 0.83659 0.0
C908 C 0.80526 0.67807 0.826 0.0
C909 C 0.80082 0.68799 0.8254 0.0
C910 C 0.80775 0.70007 0.83567 0.0
C911 C 0.81886 0.70212 0.84642 0.0
C912 C 0.83497 0.69413 0.85831 0.0
C913 C 0.8462 0.69371 0.85071 0.0
C914 C 0.8348 0.69574 0.87656 0.0
C915 C 0.82234 0.69428 0.88549 0.0
C916 C 0.8095 0.68215 0.8831 0.0
C917 C 0.79768 0.68066 0.89131 0.0
C918 C 0.79845 0.69118 0.9023 0.0
C919 C 0.81137 0.70321 0.90499 0.0
C920 C 0.82323 0.70474 0.89664 0.0
C921 C 0.86721 0.69512 0.89048 0.0
C922 C 0.87802 0.70693 0.89847 0.0
C923 C 0.88777 0.70569 0.90891 0.0
C924 C 0.88661 0.69257 0.91178 0.0
C925 C 0.87564 0.68076 0.90393 0.0
C926 C 0.86608 0.68204 0.89328 0.0
C927 C 0.85705 0.69626 0.87905 0.0
C928 C 0.84606 0.69717 0.88668 0.0
C929 C 0.85712 0.69449 0.86087 0.0
C930 C 0.86799 0.69261 0.8522 0.0
C931 C 0.88204 0.70281 0.85338 0.0
C932 C 0.89207 0.70115 0.84438 0.0
C933 C 0.88819 0.68926 0.83406 0.0
C934 C 0.87411 0.67902 0.83313 0.0
C935 C 0.86414 0.68069 0.84209 0.0
H936 H 0.81584 0.65702 0.51779 0.0
H937 H 0.79886 0.65748 0.5373 0.0
H938 H 0.76586 0.62335 0.50897 0.0
H939 H 0.78303 0.62276 0.48948 0.0
H940 H 0.823 0.63841 0.51222 0.0
H941 H 0.80195 0.65976 0.47889 0.0
H942 H 0.78322 0.66155 0.46415 0.0
H943 H 0.77713 0.62845 0.42922 0.0
H944 H 0.79537 0.62611 0.44455 0.0
H945 H 0.84368 0.62374 0.46819 0.0
H946 H 0.86321 0.62625 0.45094 0.0
H947 H 0.86836 0.66484 0.42975 0.0
H948 H 0.84871 0.66214 0.44687 0.0
H949 H 0.8218 0.64304 0.44812 0.0
H950 H 0.83494 0.62088 0.50866 0.0
H951 H 0.8544 0.62379 0.52685 0.0
H952 H 0.87892 0.66593 0.50785 0.0
H953 H 0.8596 0.66266 0.48921 0.0
C954 C 0.80074 0.63987 0.50213 0.0
C955 C 0.80497 0.64953 0.51583 0.0
C956 C 0.79525 0.64977 0.527 0.0
C957 C 0.78103 0.64039 0.52474 0.0
C958 C 0.77674 0.63075 0.51096 0.0
C959 C 0.78654 0.63041 0.49983 0.0
C960 C 0.8114 0.63988 0.49047 0.0
C961 C 0.8226 0.63926 0.49818 0.0
C962 C 0.81107 0.64125 0.47214 0.0
C963 C 0.79988 0.64257 0.4631 0.0
C964 C 0.7964 0.65266 0.46832 0.0
C965 C 0.78576 0.65373 0.45986 0.0
C966 C 0.77874 0.64506 0.44568 0.0
C967 C 0.78242 0.63522 0.44016 0.0
C968 C 0.79284 0.63392 0.44888 0.0
C969 C 0.84479 0.64281 0.45893 0.0
C970 C 0.84903 0.63274 0.45983 0.0
C971 C 0.86023 0.63422 0.44999 0.0
C972 C 0.86743 0.64579 0.439 0.0
C973 C 0.86297 0.65571 0.43789 0.0
C974 C 0.85175 0.65421 0.44771 0.0
C975 C 0.83331 0.6416 0.46997 0.0
C976 C 0.82198 0.64192 0.46214 0.0
C977 C 0.83363 0.64035 0.48824 0.0
C978 C 0.84588 0.64154 0.4976 0.0
C979 C 0.84462 0.63064 0.50823 0.0
C980 C 0.85572 0.63238 0.51871 0.0
C981 C 0.86821 0.64516 0.519 0.0
C982 C 0.86956 0.65589 0.50782 0.0
C983 C 0.8585 0.65407 0.49719 0.0
H984 H 0.38196 0.21127 0.51102 0.0
H985 H 0.37913 0.2276 0.52992 0.0
H986 H 0.33749 0.21193 0.5101 0.0
H987 H 0.34039 0.19574 0.4912 0.0
H988 H 0.36388 0.18129 0.51246 0.0
H989 H 0.38003 0.21876 0.46971 0.0
H990 H 0.37801 0.23685 0.45365 0.0
H991 H 0.33763 0.20583 0.43458 0.0
H992 H 0.34002 0.18782 0.45014 0.0
H993 H 0.34092 0.15238 0.44784 0.0
H994 H 0.33864 0.13212 0.43217 0.0
H995 H 0.37659 0.13807 0.4562 0.0
H996 H 0.37871 0.15823 0.47199 0.0
H997 H 0.35961 0.1792 0.44807 0.0
H998 H 0.33979 0.14354 0.49047 0.0
H999 H 0.3359 0.12433 0.50988 0.0
H1000 H 0.37688 0.14931 0.53186 0.0
H1001 H 0.38072 0.16856 0.51241 0.0
C1002 C 0.36142 0.20239 0.49966 0.0
C1003 C 0.37231 0.21151 0.51061 0.0
C1004 C 0.3707 0.22084 0.52132 0.0
C1005 C 0.35808 0.22097 0.52147 0.0
C1006 C 0.34729 0.21198 0.51029 0.0
C1007 C 0.34896 0.2028 0.49943 0.0
C1008 C 0.36259 0.1917 0.48938 0.0
C1009 C 0.36338 0.18103 0.49834 0.0
C1010 C 0.36122 0.19103 0.47107 0.0
C1011 C 0.36018 0.20197 0.46108 0.0
C1012 C 0.37078 0.2159 0.46199 0.0
C1013 C 0.36956 0.22623 0.45288 0.0
C1014 C 0.35765 0.22284 0.44278 0.0
C1015 C 0.34707 0.20883 0.44192 0.0
C1016 C 0.34838 0.1985 0.45087 0.0
C1017 C 0.35993 0.15676 0.46119 0.0
C1018 C 0.3488 0.14937 0.44963 0.0
C1019 C 0.34754 0.13781 0.44064 0.0
C1020 C 0.35742 0.13344 0.44294 0.0
C1021 C 0.36867 0.14101 0.45434 0.0
C1022 C 0.36992 0.15256 0.46334 0.0
C1023 C 0.36098 0.16876 0.47115 0.0
C1024 C 0.36054 0.17963 0.46214 0.0
C1025 C 0.36224 0.16942 0.4895 0.0
C1026 C 0.36057 0.15742 0.49996 0.0
C1027 C 0.34802 0.14479 0.49926 0.0
C1028 C 0.34578 0.13388 0.51041 0.0
C1029 C 0.35608 0.13539 0.52237 0.0
C1030 C 0.36882 0.14787 0.52265 0.0
C1031 C 0.371 0.15886 0.51164 0.0
H1032 H 0.78954 0.17153 0.51182 0.0
H1033 H 0.77433 0.15269 0.53138 0.0
H1034 H 0.7871 0.12553 0.50724 0.0
H1035 H 0.80267 0.14452 0.48833 0.0
H1036 H 0.81736 0.18386 0.51005 0.0
H1037 H 0.7793 0.15752 0.47013 0.0
H1038 H 0.76251 0.1361 0.45534 0.0
H1039 H 0.7962 0.13364 0.4308 0.0
H1040 H 0.81284 0.15451 0.44628 0.0
H1041 H 0.84611 0.18749 0.44773 0.0
H1042 H 0.866 0.20431 0.43097 0.0
H1043 H 0.85919 0.23743 0.4493 0.0
H1044 H 0.8393 0.22052 0.46609 0.0
H1045 H 0.81913 0.17994 0.44597 0.0
H1046 H 0.85292 0.19479 0.49481 0.0
H1047 H 0.87157 0.21175 0.51321 0.0
H1048 H 0.84924 0.23449 0.51886 0.0
H1049 H 0.83021 0.21681 0.50131 0.0
C1050 C 0.79715 0.15942 0.49847 0.0
C1051 C 0.78899 0.16148 0.5107 0.0
C1052 C 0.78021 0.15067 0.52178 0.0
C1053 C 0.77949 0.13759 0.52091 0.0
C1054 C 0.78751 0.13551 0.50842 0.0
C1055 C 0.79631 0.14632 0.49743 0.0
C1056 C 0.80721 0.17115 0.48755 0.0
C1057 C 0.81747 0.18313 0.49598 0.0
C1058 C 0.80771 0.17004 0.46923 0.0
C1059 C 0.79735 0.15756 0.4595 0.0
C1060 C 0.78305 0.1523 0.46165 0.0
C1061 C 0.77345 0.14012 0.45305 0.0
C1062 C 0.778 0.13306 0.442 0.0
C1063 C 0.79232 0.13862 0.43949 0.0
C1064 C 0.80187 0.15068 0.44818 0.0
C1065 C 0.84128 0.20275 0.4583 0.0
C1066 C 0.84887 0.19837 0.44808 0.0
C1067 C 0.86021 0.208 0.43845 0.0
C1068 C 0.8642 0.22223 0.43878 0.0
C1069 C 0.85653 0.22658 0.44896 0.0
C1070 C 0.84515 0.21693 0.45857 0.0
C1071 C 0.82929 0.1924 0.46854 0.0
C1072 C 0.81869 0.18076 0.45998 0.0
C1073 C 0.82861 0.1936 0.48674 0.0
C1074 C 0.84026 0.2046 0.49675 0.0
C1075 C 0.85212 0.20348 0.49999 0.0
C1076 C 0.86285 0.2133 0.51041 0.0
C1077 C 0.86203 0.22461 0.51759 0.0
C1078 C 0.85018 0.22583 0.51389 0.0
C1079 C 0.83933 0.21581 0.50374 0.0
H1080 H 0.95711 0.50317 0.17621 0.0
H1081 H 0.95932 0.52225 0.15779 0.0
H1082 H 0.00379 0.54364 0.16605 0.0
H1083 H 0.00123 0.52496 0.18532 0.0
H1084 H 0.97338 0.48773 0.17075 0.0
H1085 H 0.96435 0.51492 0.21171 0.0
H1086 H 0.96902 0.53639 0.22638 0.0
H1087 H 0.00704 0.54027 0.24755 0.0
H1088 H 0.0027 0.51924 0.23202 0.0
H1089 H 0.00233 0.48331 0.22895 0.0
H1090 H 0.00533 0.4658 0.24493 0.0
H1091 H 0.9627 0.43525 0.23359 0.0
H1092 H 0.95996 0.45279 0.21719 0.0
H1093 H 0.98372 0.49329 0.23412 0.0
H1094 H 0.99796 0.47512 0.18471 0.0
H1095 H 0.99772 0.45675 0.167 0.0
H1096 H 0.95294 0.43653 0.16372 0.0
H1097 H 0.95348 0.45555 0.18066 0.0
C1098 C 0.97899 0.51274 0.18215 0.0
C1099 C 0.96728 0.51207 0.17412 0.0
C1100 C 0.96862 0.52297 0.16348 0.0
C1101 C 0.98176 0.53458 0.16028 0.0
C1102 C 0.99346 0.53511 0.16842 0.0
C1103 C 0.99206 0.52436 0.17935 0.0
C1104 C 0.97777 0.50112 0.19302 0.0
C1105 C 0.97524 0.48879 0.18469 0.0
C1106 C 0.98072 0.50276 0.21108 0.0
C1107 C 0.98328 0.51555 0.22051 0.0
C1108 C 0.9738 0.5205 0.2193 0.0
C1109 C 0.97639 0.5327 0.22791 0.0
C1110 C 0.98845 0.54013 0.23812 0.0
C1111 C 0.99779 0.53499 0.23955 0.0
C1112 C 0.99524 0.52286 0.23083 0.0
C1113 C 0.98095 0.46933 0.22186 0.0
C1114 C 0.99364 0.47284 0.22997 0.0
C1115 C 0.9953 0.46282 0.23917 0.0
C1116 C 0.98424 0.44908 0.24062 0.0
C1117 C 0.9715 0.44564 0.23253 0.0
C1118 C 0.96989 0.45567 0.22322 0.0
C1119 C 0.97937 0.47996 0.21182 0.0
C1120 C 0.98145 0.4921 0.22027 0.0
C1121 C 0.97622 0.4783 0.19385 0.0
C1122 C 0.97574 0.46664 0.18394 0.0
C1123 C 0.98811 0.46669 0.18018 0.0
C1124 C 0.98791 0.45607 0.17017 0.0
C1125 C 0.97529 0.44502 0.16391 0.0
C1126 C 0.96287 0.44493 0.16802 0.0
C1127 C 0.96312 0.45573 0.1778 0.0
H1128 H 0.50195 0.45711 0.17625 0.0
H1129 H 0.48318 0.4411 0.15677 0.0
H1130 H 0.45753 0.45787 0.17463 0.0
H1131 H 0.47624 0.47374 0.1941 0.0
H1132 H 0.5145 0.48653 0.17454 0.0
H1133 H 0.49102 0.45008 0.21649 0.0
H1134 H 0.47126 0.43274 0.23302 0.0
H1135 H 0.46425 0.46527 0.25315 0.0
H1136 H 0.48414 0.48255 0.23679 0.0
H1137 H 0.5193 0.51727 0.23678 0.0
H1138 H 0.53673 0.53707 0.25344 0.0
H1139 H 0.5686 0.52901 0.23404 0.0
H1140 H 0.55109 0.50922 0.21735 0.0
H1141 H 0.51089 0.49028 0.23838 0.0
H1142 H 0.52876 0.52493 0.193 0.0
H1143 H 0.54577 0.54306 0.17426 0.0
H1144 H 0.56199 0.51585 0.1605 0.0
H1145 H 0.54441 0.49754 0.17865 0.0
C1146 C 0.49043 0.46653 0.18667 0.0
C1147 C 0.49221 0.45718 0.17611 0.0
C1148 C 0.48149 0.44804 0.16507 0.0
C1149 C 0.46895 0.44831 0.16419 0.0
C1150 C 0.46713 0.45751 0.175 0.0
C1151 C 0.47776 0.46651 0.18619 0.0
C1152 C 0.5021 0.47706 0.19724 0.0
C1153 C 0.51387 0.48716 0.18856 0.0
C1154 C 0.50104 0.47815 0.21542 0.0
C1155 C 0.48899 0.46759 0.22533 0.0
C1156 C 0.48517 0.45345 0.22439 0.0
C1157 C 0.47386 0.44355 0.23383 0.0
C1158 C 0.46616 0.44761 0.24441 0.0
C1159 C 0.47007 0.46181 0.24535 0.0
C1160 C 0.4814 0.4717 0.23595 0.0
C1161 C 0.5339 0.51183 0.22572 0.0
C1162 C 0.53003 0.51973 0.23617 0.0
C1163 C 0.54001 0.53102 0.24573 0.0
C1164 C 0.55405 0.5346 0.24508 0.0
C1165 C 0.5579 0.52663 0.23464 0.0
C1166 C 0.5479 0.51532 0.2251 0.0
C1167 C 0.52321 0.49985 0.21564 0.0
C1168 C 0.51164 0.4895 0.2244 0.0
C1169 C 0.52431 0.49866 0.19749 0.0
C1170 C 0.53538 0.50994 0.18721 0.0
C1171 C 0.53608 0.52295 0.18603 0.0
C1172 C 0.54589 0.53334 0.17537 0.0
C1173 C 0.55531 0.53098 0.16578 0.0
C1174 C 0.55476 0.51799 0.16738 0.0
C1175 C 0.5448 0.50753 0.17786 0.0
H1176 H 0.54253 0.04225 0.17796 0.0
H1177 H 0.5608 0.04141 0.16127 0.0
H1178 H 0.54191 0.99723 0.17168 0.0
H1179 H 0.52429 0.99847 0.18914 0.0
H1180 H 0.51062 0.02168 0.17139 0.0
H1181 H 0.54779 0.0389 0.2151 0.0
H1182 H 0.56611 0.03684 0.23055 0.0
H1183 H 0.53568 0.99627 0.24936 0.0
H1184 H 0.51746 0.99831 0.23363 0.0
H1185 H 0.48279 0.99906 0.23649 0.0
H1186 H 0.46254 0.996 0.25232 0.0
H1187 H 0.46513 0.032 0.22634 0.0
H1188 H 0.48591 0.03544 0.21117 0.0
H1189 H 0.50842 0.01778 0.23574 0.0
H1190 H 0.47118 0.99953 0.19528 0.0
H1191 H 0.4521 0.99729 0.17713 0.0
H1192 H 0.48062 0.03416 0.14866 0.0
H1193 H 0.49938 0.03702 0.16794 0.0
C1194 C 0.53215 0.02044 0.18477 0.0
C1195 C 0.54246 0.03245 0.1767 0.0
C1196 C 0.55284 0.0319 0.16707 0.0
C1197 C 0.5529 0.01924 0.16503 0.0
C1198 C 0.54246 0.00723 0.17321 0.0
C1199 C 0.53226 0.00787 0.18307 0.0
C1200 C 0.521 0.02086 0.19469 0.0
C1201 C 0.51021 0.02118 0.18549 0.0
C1202 C 0.52032 0.01955 0.21297 0.0
C1203 C 0.5313 0.01871 0.22312 0.0
C1204 C 0.54508 0.02957 0.22256 0.0
C1205 C 0.55551 0.02842 0.23149 0.0
C1206 C 0.55233 0.01637 0.24111 0.0
C1207 C 0.53847 0.00561 0.24189 0.0
C1208 C 0.52804 0.0068 0.23303 0.0
C1209 C 0.48582 0.0174 0.22249 0.0
C1210 C 0.47912 0.00641 0.23434 0.0
C1211 C 0.46741 0.00457 0.24324 0.0
C1212 C 0.46206 0.01364 0.24044 0.0
C1213 C 0.46899 0.02486 0.22888 0.0
C1214 C 0.4808 0.02676 0.22006 0.0
C1215 C 0.49786 0.01878 0.2125 0.0
C1216 C 0.50883 0.01864 0.22167 0.0
C1217 C 0.49848 0.01988 0.19408 0.0
C1218 C 0.48671 0.01863 0.18327 0.0
C1219 C 0.47326 0.00736 0.18545 0.0
C1220 C 0.46236 0.00595 0.17479 0.0
C1221 C 0.46473 0.01552 0.1613 0.0
C1222 C 0.47826 0.02673 0.15909 0.0
C1223 C 0.48908 0.0283 0.17 0.0
H1224 H 0.48988 0.00976 0.85012 0.0
H1225 H 0.47318 0.01159 0.8689 0.0
H1226 H 0.44008 0.97409 0.84602 0.0
H1227 H 0.45689 0.97221 0.82736 0.0
H1228 H 0.49696 0.99013 0.84908 0.0
H1229 H 0.48209 0.01189 0.80479 0.0
H1230 H 0.46388 0.01444 0.79015 0.0
H1231 H 0.44311 0.97071 0.77649 0.0
H1232 H 0.46193 0.96855 0.79041 0.0
H1233 H 0.50435 0.97069 0.78091 0.0
H1234 H 0.5235 0.97183 0.76377 0.0
H1235 H 0.55249 0.00837 0.79246 0.0
H1236 H 0.53342 0.00759 0.80897 0.0
H1237 H 0.49387 0.98742 0.78463 0.0
H1238 H 0.51433 0.96882 0.82685 0.0
H1239 H 0.53286 0.96888 0.84473 0.0
H1240 H 0.54357 0.0096 0.86441 0.0
H1241 H 0.52502 0.00943 0.84674 0.0
C1242 C 0.47465 0.99089 0.83724 0.0
C1243 C 0.47903 0.00193 0.84913 0.0
C1244 C 0.46948 0.00294 0.85988 0.0
C1245 C 0.45532 0.99295 0.859 0.0
C1246 C 0.4509 0.98203 0.84688 0.0
C1247 C 0.46049 0.98096 0.83617 0.0
C1248 C 0.48506 0.98958 0.82653 0.0
C1249 C 0.4963 0.98958 0.83498 0.0
C1250 C 0.48412 0.98861 0.80819 0.0
C1251 C 0.47328 0.99005 0.79866 0.0
C1252 C 0.47365 0.00291 0.79849 0.0
C1253 C 0.46312 0.00428 0.79028 0.0
C1254 C 0.45185 0.99273 0.7823 0.0
C1255 C 0.45166 0.97986 0.78231 0.0
C1256 C 0.46236 0.97858 0.7903 0.0
C1257 C 0.51745 0.98883 0.79659 0.0
C1258 C 0.51482 0.97899 0.78344 0.0
C1259 C 0.52574 0.97964 0.77366 0.0
C1260 C 0.53947 0.99008 0.77698 0.0
C1261 C 0.54203 1.00006 0.78988 0.0
C1262 C 0.53113 0.99956 0.7994 0.0
C1263 C 0.50594 0.98812 0.8072 0.0
C1264 C 0.49443 0.98769 0.79873 0.0
C1265 C 0.50674 0.9889 0.8256 0.0
C1266 C 0.51834 0.98912 0.83552 0.0
C1267 C 0.52076 0.97778 0.83493 0.0
C1268 C 0.53128 0.97781 0.84515 0.0
C1269 C 0.53963 0.98926 0.85587 0.0
C1270 C 0.53737 0.00071 0.85611 0.0
C1271 C 0.52674 0.00059 0.84614 0.0
H1272 H 0.03657 0.5347 0.85075 0.0
H1273 H 0.03458 0.55122 0.8701 0.0
H1274 H 0.99852 0.54556 0.84152 0.0
H1275 H 0.99996 0.52841 0.82273 0.0
H1276 H 0.01998 0.50855 0.84728 0.0
H1277 H 0.03543 0.54756 0.80758 0.0
H1278 H 0.03265 0.56544 0.79209 0.0
H1279 H 0.99698 0.53325 0.76487 0.0
H1280 H 0.99928 0.51556 0.78115 0.0
H1281 H 0.99871 0.48043 0.78223 0.0
H1282 H 0.99732 0.4607 0.76616 0.0
H1283 H 0.03573 0.46794 0.7902 0.0
H1284 H 0.03693 0.48754 0.80637 0.0
H1285 H 0.01754 0.50781 0.78281 0.0
H1286 H 0.99728 0.4711 0.82564 0.0
H1287 H 0.99485 0.45194 0.84428 0.0
H1288 H 0.03635 0.47802 0.86419 0.0
H1289 H 0.03866 0.49721 0.84569 0.0
C1290 C 0.01853 0.5304 0.83509 0.0
C1291 C 0.02823 0.53701 0.84858 0.0
C1292 C 0.02714 0.54645 0.85959 0.0
C1293 C 0.01647 0.54965 0.85712 0.0
C1294 C 0.00692 0.54333 0.84347 0.0
C1295 C 0.00782 0.53362 0.83269 0.0
C1296 C 0.01915 0.5195 0.8244 0.0
C1297 C 0.01976 0.50863 0.83316 0.0
C1298 C 0.01833 0.51922 0.80596 0.0
C1299 C 0.01743 0.5302 0.79576 0.0
C1300 C 0.02695 0.54438 0.79838 0.0
C1301 C 0.02543 0.5546 0.78936 0.0
C1302 C 0.01449 0.55081 0.77735 0.0
C1303 C 0.00531 0.53658 0.77432 0.0
C1304 C 0.00673 0.52642 0.78347 0.0
C1305 C 0.01785 0.48538 0.79561 0.0
C1306 C 0.00686 0.4778 0.78395 0.0
C1307 C 0.00612 0.46656 0.77473 0.0
C1308 C 0.0164 0.46271 0.77692 0.0
C1309 C 0.02751 0.47047 0.78843 0.0
C1310 C 0.02823 0.4817 0.79765 0.0
C1311 C 0.01837 0.49704 0.80577 0.0
C1312 C 0.01801 0.508 0.79692 0.0
C1313 C 0.01917 0.49735 0.82411 0.0
C1314 C 0.01817 0.48551 0.83429 0.0
C1315 C 0.0059 0.47262 0.83389 0.0
C1316 C 0.0045 0.46174 0.84456 0.0
C1317 C 0.01542 0.46355 0.85563 0.0
C1318 C 0.02784 0.47635 0.85565 0.0
C1319 C 0.02915 0.4873 0.84518 0.0
H1320 H 0.45338 0.50545 0.83988 0.0
H1321 H 0.436 0.48715 0.85825 0.0
H1322 H 0.45676 0.46298 0.85148 0.0
H1323 H 0.47344 0.48095 0.83229 0.0
H1324 H 0.48539 0.5184 0.84602 0.0
H1325 H 0.4475 0.49191 0.80502 0.0
H1326 H 0.43079 0.4702 0.79079 0.0
H1327 H 0.46462 0.46583 0.77013 0.0
H1328 H 0.48116 0.48702 0.78519 0.0
H1329 H 0.5136 0.52081 0.78218 0.0
H1330 H 0.53303 0.5375 0.76474 0.0
H1331 H 0.52761 0.57095 0.78517 0.0
H1332 H 0.50821 0.55416 0.80274 0.0
H1333 H 0.48742 0.51298 0.78226 0.0
H1334 H 0.52397 0.5329 0.82242 0.0
H1335 H 0.54309 0.54889 0.84107 0.0
H1336 H 0.51612 0.56158 0.86557 0.0
H1337 H 0.49712 0.54592 0.84631 0.0
C1338 C 0.46459 0.49446 0.83469 0.0
C1339 C 0.45405 0.49612 0.8423 0.0
C1340 C 0.44419 0.48567 0.85292 0.0
C1341 C 0.4449 0.47349 0.85648 0.0
C1342 C 0.4556 0.47199 0.84881 0.0
C1343 C 0.46526 0.48232 0.83794 0.0
C1344 C 0.4752 0.50558 0.82374 0.0
C1345 C 0.48569 0.51747 0.832 0.0
C1346 C 0.47589 0.50383 0.80564 0.0
C1347 C 0.4656 0.491 0.79642 0.0
C1348 C 0.4513 0.48616 0.79763 0.0
C1349 C 0.44175 0.47383 0.78929 0.0
C1350 C 0.44633 0.46617 0.7794 0.0
C1351 C 0.46068 0.47126 0.77792 0.0
C1352 C 0.47018 0.48349 0.78637 0.0
C1353 C 0.50946 0.53622 0.79383 0.0
C1354 C 0.51653 0.53173 0.78283 0.0
C1355 C 0.52762 0.54129 0.77282 0.0
C1356 C 0.53187 0.55557 0.77351 0.0
C1357 C 0.52473 0.56005 0.78449 0.0
C1358 C 0.51362 0.55046 0.79452 0.0
C1359 C 0.49772 0.52594 0.8045 0.0
C1360 C 0.48701 0.51419 0.79621 0.0
C1361 C 0.49718 0.52748 0.82273 0.0
C1362 C 0.50912 0.5383 0.8328 0.0
C1363 C 0.52225 0.5394 0.83145 0.0
C1364 C 0.53314 0.54842 0.8423 0.0
C1365 C 0.53112 0.55643 0.85492 0.0
C1366 C 0.51808 0.55566 0.85589 0.0
C1367 C 0.50718 0.54665 0.84496 0.0
H1368 H 0.61913 0.84187 0.52805 0.0
H1369 H 0.62207 0.862 0.5111 0.0
H1370 H 0.65839 0.86464 0.48699 0.0
H1371 H 0.6557 0.84498 0.50433 0.0
H1372 H 0.63656 0.81915 0.50492 0.0
H1373 H 0.61717 0.83114 0.56928 0.0
H1374 H 0.62092 0.85153 0.58635 0.0
H1375 H 0.66113 0.87578 0.56274 0.0
H1376 H 0.65741 0.85544 0.54601 0.0
H1377 H 0.65782 0.8042 0.54768 0.0
H1378 H 0.66103 0.78709 0.56434 0.0
H1379 H 0.61986 0.77057 0.58539 0.0
H1380 H 0.61666 0.78772 0.56844 0.0
H1381 H 0.63407 0.81807 0.56936 0.0
H1382 H 0.65646 0.81324 0.50501 0.0
H1383 H 0.66014 0.79671 0.48821 0.0
H1384 H 0.62428 0.76262 0.51218 0.0
H1385 H 0.62027 0.77935 0.52844 0.0
C1386 C 0.63723 0.84194 0.51752 0.0
C1387 C 0.62778 0.84689 0.51922 0.0
C1388 C 0.62942 0.85831 0.50943 0.0
C1389 C 0.64051 0.86498 0.49777 0.0
C1390 C 0.64987 0.85992 0.49607 0.0
C1391 C 0.64826 0.84856 0.50584 0.0
C1392 C 0.63575 0.82989 0.52782 0.0
C1393 C 0.63599 0.8189 0.51901 0.0
C1394 C 0.63499 0.82956 0.5462 0.0
C1395 C 0.63696 0.84183 0.55629 0.0
C1396 C 0.62676 0.84088 0.5678 0.0
C1397 C 0.62888 0.85253 0.57743 0.0
C1398 C 0.64133 0.86523 0.57589 0.0
C1399 C 0.65149 0.8661 0.56434 0.0
C1400 C 0.64934 0.85452 0.55467 0.0
C1401 C 0.63697 0.79714 0.55674 0.0
C1402 C 0.64947 0.79686 0.55583 0.0
C1403 C 0.65131 0.78714 0.56544 0.0
C1404 C 0.6407 0.77751 0.57619 0.0
C1405 C 0.62816 0.77779 0.5771 0.0
C1406 C 0.62636 0.78762 0.56754 0.0
C1407 C 0.63515 0.80748 0.54642 0.0
C1408 C 0.63422 0.81812 0.55525 0.0
C1409 C 0.63607 0.80789 0.52806 0.0
C1410 C 0.6381 0.79756 0.51803 0.0
C1411 C 0.64932 0.80221 0.50659 0.0
C1412 C 0.65152 0.79272 0.49714 0.0
C1413 C 0.64259 0.77831 0.49895 0.0
C1414 C 0.63131 0.77364 0.5104 0.0
C1415 C 0.62907 0.78319 0.51981 0.0
H1416 H 0.16703 0.79313 0.51249 0.0
H1417 H 0.1475 0.77651 0.49441 0.0
H1418 H 0.12234 0.79332 0.5139 0.0
H1419 H 0.1418 0.80976 0.53211 0.0
H1420 H 0.17891 0.82324 0.51033 0.0
H1421 H 0.1584 0.78608 0.55227 0.0
H1422 H 0.13921 0.76812 0.56894 0.0
H1423 H 0.13177 0.79964 0.5916 0.0
H1424 H 0.15113 0.81754 0.5751 0.0
H1425 H 0.18667 0.85264 0.57493 0.0
H1426 H 0.20488 0.87203 0.59135 0.0
H1427 H 0.23578 0.86501 0.5666 0.0
H1428 H 0.21749 0.8456 0.55019 0.0
H1429 H 0.17842 0.82581 0.57475 0.0
H1430 H 0.19358 0.8613 0.53048 0.0
H1431 H 0.20951 0.87997 0.51113 0.0
H1432 H 0.225 0.85343 0.49233 0.0
H1433 H 0.20888 0.83468 0.51153 0.0
C1434 C 0.1558 0.80259 0.52365 0.0
C1435 C 0.15725 0.7931 0.51299 0.0
C1436 C 0.14611 0.78361 0.50276 0.0
C1437 C 0.13346 0.78369 0.50279 0.0
C1438 C 0.13201 0.79311 0.51361 0.0
C1439 C 0.14307 0.80243 0.52405 0.0
C1440 C 0.16779 0.81324 0.53366 0.0
C1441 C 0.17898 0.82364 0.52445 0.0
C1442 C 0.16759 0.814 0.55199 0.0
C1443 C 0.15612 0.80313 0.56234 0.0
C1444 C 0.1526 0.7891 0.5608 0.0
C1445 C 0.14161 0.77885 0.57032 0.0
C1446 C 0.13391 0.78243 0.58158 0.0
C1447 C 0.13759 0.79653 0.58325 0.0
C1448 C 0.14862 0.80678 0.57377 0.0
C1449 C 0.20071 0.84773 0.56124 0.0
C1450 C 0.19736 0.85524 0.57308 0.0
C1451 C 0.20778 0.86629 0.5825 0.0
C1452 C 0.22178 0.87004 0.5803 0.0
C1453 C 0.22512 0.86249 0.56842 0.0
C1454 C 0.21467 0.85141 0.55903 0.0
C1455 C 0.18955 0.83592 0.55142 0.0
C1456 C 0.1785 0.8253 0.56066 0.0
C1457 C 0.18973 0.83509 0.53308 0.0
C1458 C 0.20013 0.84667 0.52245 0.0
C1459 C 0.20052 0.85957 0.52232 0.0
C1460 C 0.20954 0.87018 0.51124 0.0
C1461 C 0.21844 0.8681 0.50028 0.0
C1462 C 0.21831 0.8553 0.50077 0.0
C1463 C 0.2091 0.8446 0.51164 0.0
H1464 H 0.1451 0.33823 0.52583 0.0
H1465 H 0.12569 0.33378 0.50639 0.0
H1466 H 0.14834 0.37609 0.48768 0.0
H1467 H 0.16783 0.38045 0.50704 0.0
H1468 H 0.18224 0.36417 0.50637 0.0
H1469 H 0.15425 0.34046 0.57072 0.0
H1470 H 0.13325 0.33598 0.58592 0.0
H1471 H 0.13386 0.37099 0.55967 0.0
H1472 H 0.15536 0.37588 0.54519 0.0
H1473 H 0.21952 0.38133 0.54946 0.0
H1474 H 0.23763 0.37957 0.56583 0.0
H1475 H 0.2067 0.34016 0.587 0.0
H1476 H 0.18868 0.34199 0.57059 0.0
H1477 H 0.17947 0.36033 0.57073 0.0
H1478 H 0.21503 0.38447 0.5136 0.0
H1479 H 0.23269 0.38245 0.49697 0.0
H1480 H 0.21132 0.33807 0.50683 0.0
H1481 H 0.19438 0.34048 0.52427 0.0
C1482 C 0.15783 0.35968 0.51791 0.0
C1483 C 0.14582 0.34657 0.51765 0.0
C1484 C 0.13479 0.34403 0.50652 0.0
C1485 C 0.13555 0.3546 0.49557 0.0
C1486 C 0.14748 0.36781 0.4961 0.0
C1487 C 0.1586 0.37029 0.50707 0.0
C1488 C 0.16984 0.362 0.52884 0.0
C1489 C 0.18179 0.36375 0.52047 0.0
C1490 C 0.16896 0.36079 0.54719 0.0
C1491 C 0.15634 0.35842 0.55666 0.0
C1492 C 0.14996 0.34728 0.56836 0.0
C1493 C 0.13784 0.34463 0.5769 0.0
C1494 C 0.13175 0.35302 0.57387 0.0
C1495 C 0.1383 0.36436 0.56238 0.0
C1496 C 0.15051 0.36707 0.55394 0.0
C1497 C 0.20276 0.36173 0.55867 0.0
C1498 C 0.21666 0.37228 0.55756 0.0
C1499 C 0.227 0.37127 0.56692 0.0
C1500 C 0.22361 0.35972 0.57769 0.0
C1501 C 0.20964 0.34928 0.579 0.0
C1502 C 0.19933 0.35029 0.5696 0.0
C1503 C 0.1918 0.36244 0.54822 0.0
C1504 C 0.18007 0.36121 0.55666 0.0
C1505 C 0.19261 0.36364 0.52992 0.0
C1506 C 0.20351 0.36264 0.52018 0.0
C1507 C 0.21431 0.37437 0.51227 0.0
C1508 C 0.22433 0.37315 0.50266 0.0
C1509 C 0.22351 0.36008 0.50046 0.0
C1510 C 0.21258 0.34836 0.5085 0.0
C1511 C 0.20276 0.34967 0.51836 0.0
C1512 C 0.98391 0.3704 0.05139 0.0
C1513 C 0.998 0.37425 0.05034 0.0
C1514 C 0.97924 0.37555 0.06483 0.0
C1515 C 0.98653 0.3896 0.10877 0.0
H1516 H 0.97166 0.41333 0.09422 0.0
C1517 C 0.98519 0.42974 0.1551 0.0
C1518 C 0.97524 0.434 0.15265 0.0
C1519 C 0.98599 0.4204 0.14359 0.0
C1520 C 0.97545 0.40649 0.09865 0.0
H1521 H 0.01813 0.38593 0.06285 0.0
H1522 H 0.00986 0.39452 0.08664 0.0
H1523 H 0.97626 0.40011 0.07256 0.0
H1524 H 0.9579 0.43115 0.13638 0.0
H1525 H 0.95874 0.41424 0.11707 0.0
H1526 H 0.98559 0.39571 0.13484 0.0
C1527 C 0.00249 0.38769 0.07696 0.0
C1528 C 0.97815 0.39897 0.08617 0.0
C1529 C 0.00722 0.38284 0.06333 0.0
C1530 C 0.96566 0.42809 0.13884 0.0
C1531 C 0.9663 0.41853 0.12752 0.0
C1532 C 0.98356 0.39688 0.12131 0.0
C1533 C 0.98853 0.38431 0.07765 0.0
C1534 C 0.984 0.39073 0.09109 0.0
C1535 C 0.97668 0.41478 0.12949 0.0
C1536 C 0.97832 0.40573 0.1164 0.0
H1537 H 0.97662 0.36386 0.04148 0.0
H1538 H 0.96843 0.37284 0.06512 0.0
H1539 H 0.99097 0.38322 0.11284 0.0
H1540 H 0.99255 0.43377 0.16579 0.0
H1541 H 0.99425 0.41797 0.14552 0.0
C1542 C 0.61495 0.6136 0.04939 0.0
C1543 C 0.62948 0.62039 0.04915 0.0
C1544 C 0.60768 0.60456 0.06297 0.0
C1545 C 0.61047 0.58234 0.09616 0.0
H1546 H 0.57963 0.58376 0.11761 0.0
C1547 C 0.56859 0.53797 0.1377 0.0
C1548 C 0.56525 0.5418 0.15365 0.0
C1549 C 0.57737 0.5481 0.12594 0.0
C1550 C 0.58827 0.58331 0.11178 0.0
H1551 H 0.64789 0.62418 0.06349 0.0
H1552 H 0.63516 0.60802 0.08715 0.0
H1553 H 0.59313 0.60068 0.09509 0.0
H1554 H 0.56902 0.55945 0.16984 0.0
H1555 H 0.58393 0.57709 0.14893 0.0
H1556 H 0.60539 0.56474 0.11257 0.0
C1557 C 0.6294 0.60941 0.07662 0.0
C1558 C 0.59591 0.5929 0.09884 0.0
C1559 C 0.63667 0.61854 0.06308 0.0
C1560 C 0.57109 0.55607 0.15757 0.0
C1561 C 0.57969 0.56619 0.14566 0.0
C1562 C 0.60268 0.57258 0.10888 0.0
C1563 C 0.61482 0.6023 0.07666 0.0
C1564 C 0.60704 0.59246 0.09084 0.0
C1565 C 0.58285 0.56229 0.12971 0.0
C1566 C 0.59148 0.57295 0.11676 0.0
H1567 H 0.60924 0.61517 0.03894 0.0
H1568 H 0.59645 0.59919 0.06264 0.0
H1569 H 0.61898 0.58177 0.09022 0.0
H1570 H 0.56411 0.52714 0.13402 0.0
H1571 H 0.57954 0.54483 0.11363 0.0
C1572 C 0.38232 0.99652 0.04278 0.0
C1573 C 0.37336 0.0019 0.04524 0.0
C1574 C 0.39148 0.99752 0.05602 0.0
C1575 C 0.40673 0.01602 0.09808 0.0
H1576 H 0.41972 0.98927 0.10064 0.0
C1577 C 0.45291 0.02516 0.14207 0.0
C1578 C 0.45327 0.0136 0.14927 0.0
C1579 C 0.44258 0.02335 0.13011 0.0
C1580 C 0.41608 0.99675 0.10036 0.0
H1581 H 0.36578 0.01123 0.06373 0.0
H1582 H 0.3812 0.01237 0.08727 0.0
H1583 H 0.40227 0.98613 0.07927 0.0
H1584 H 0.44274 0.99099 0.14951 0.0
H1585 H 0.42432 0.98787 0.12969 0.0
H1586 H 0.41998 0.02619 0.11982 0.0
C1587 C 0.3819 0.00815 0.07487 0.0
C1588 C 0.4062 0.99509 0.08778 0.0
C1589 C 0.373 0.00746 0.06144 0.0
C1590 C 0.44277 0.00018 0.1445 0.0
C1591 C 0.43229 0.99838 0.1328 0.0
C1592 C 0.41641 0.01753 0.11087 0.0
C1593 C 0.39146 0.00341 0.07227 0.0
C1594 C 0.40151 0.00481 0.08627 0.0
C1595 C 0.43214 0.00993 0.12524 0.0
C1596 C 0.42136 0.00801 0.11207 0.0
H1597 H 0.38253 0.99195 0.03041 0.0
H1598 H 0.39878 0.99396 0.05328 0.0
H1599 H 0.40353 0.02382 0.09737 0.0
H1600 H 0.46063 0.03566 0.14561 0.0
H1601 H 0.44299 0.03254 0.12445 0.0
C1602 C 0.37289 0.99419 0.96434 0.0
C1603 C 0.3765 0.00764 0.97011 0.0
C1604 C 0.38027 0.99233 0.95088 0.0
C1605 C 0.4147 0.01093 0.93026 0.0
H1606 H 0.3985 0.98099 0.89643 0.0
C1607 C 0.44886 0.99696 0.88872 0.0
C1608 C 0.44535 0.99378 0.87107 0.0
C1609 C 0.43977 0.99818 0.90009 0.0
C1610 C 0.40317 0.98948 0.9057 0.0
H1611 H 0.39008 0.02969 0.96545 0.0
H1612 H 0.40262 0.02646 0.9418 0.0
H1613 H 0.38349 0.98433 0.9167 0.0
H1614 H 0.42942 0.98918 0.85157 0.0
H1615 H 0.41353 0.99147 0.87145 0.0
H1616 H 0.4343 0.01628 0.91916 0.0
C1617 C 0.39441 0.01732 0.94799 0.0
C1618 C 0.39458 0.9913 0.91743 0.0
C1619 C 0.38714 0.01917 0.96151 0.0
C1620 C 0.43238 0.99156 0.86512 0.0
C1621 C 0.42327 0.99285 0.87652 0.0
C1622 C 0.42324 0.00913 0.91854 0.0
C1623 C 0.39135 0.00388 0.94283 0.0
C1624 C 0.40026 0.00204 0.92989 0.0
C1625 C 0.42693 0.99632 0.89412 0.0
C1626 C 0.41763 0.99833 0.9062 0.0
H1627 H 0.36479 0.98508 0.97073 0.0
H1628 H 0.37768 0.98183 0.94732 0.0
H1629 H 0.41949 0.01917 0.93982 0.0
H1630 H 0.45864 0.99843 0.89378 0.0
H1631 H 0.44279 0.00053 0.91363 0.0
C1632 C 0.99474 0.38188 0.97408 0.0
C1633 C 0.00338 0.37594 0.97492 0.0
C1634 C 0.99593 0.39071 0.96034 0.0
C1635 C 0.02008 0.41374 0.92758 0.0
H1636 H 0.98701 0.40928 0.90419 0.0
C1637 C 0.02366 0.44819 0.86909 0.0
C1638 C 0.01362 0.45239 0.86781 0.0
C1639 C 0.02216 0.43803 0.88114 0.0
C1640 C 0.99636 0.41083 0.91073 0.0
H1641 H 0.01914 0.37348 0.96154 0.0
H1642 H 0.02153 0.38928 0.93765 0.0
H1643 H 0.98492 0.39337 0.92752 0.0
H1644 H 0.99424 0.44945 0.87813 0.0
H1645 H 0.99183 0.43214 0.89959 0.0
H1646 H 0.03155 0.43147 0.91138 0.0
C1647 C 0.0141 0.38739 0.94781 0.0
C1648 C 0.99514 0.40165 0.92404 0.0
C1649 C 0.01282 0.37847 0.9615 0.0
C1650 C 0.00203 0.44623 0.87872 0.0
C1651 C 0.00064 0.43626 0.89096 0.0
C1652 C 0.0213 0.42306 0.91447 0.0
C1653 C 0.00567 0.3936 0.94712 0.0
C1654 C 0.00698 0.40307 0.93266 0.0
C1655 C 0.01071 0.43205 0.8924 0.0
C1656 C 0.00945 0.42178 0.90591 0.0
H1657 H 0.98716 0.37977 0.98413 0.0
H1658 H 0.98934 0.3954 0.96015 0.0
H1659 H 0.02937 0.41508 0.93402 0.0
H1660 H 0.03263 0.45272 0.8607 0.0
H1661 H 0.02999 0.43488 0.88159 0.0
C1662 C 0.62082 0.60586 0.96724 0.0
C1663 C 0.62431 0.6189 0.97444 0.0
C1664 C 0.61085 0.60004 0.95407 0.0
C1665 C 0.59207 0.60797 0.92008 0.0
H1666 H 0.56603 0.56845 0.92379 0.0
C1667 C 0.54477 0.57794 0.87331 0.0
C1668 C 0.54223 0.56472 0.86784 0.0
C1669 C 0.55481 0.58531 0.88612 0.0
C1670 C 0.57329 0.57946 0.92246 0.0
H1671 H 0.62019 0.63618 0.973 0.0
H1672 H 0.60266 0.62591 0.94994 0.0
H1673 H 0.58347 0.57998 0.94641 0.0
H1674 H 0.54825 0.54892 0.87159 0.0
H1675 H 0.56584 0.56183 0.89355 0.0
H1676 H 0.58182 0.60735 0.89601 0.0
C1677 C 0.60775 0.62026 0.95452 0.0
C1678 C 0.5833 0.58608 0.93543 0.0
C1679 C 0.61777 0.62612 0.96778 0.0
C1680 C 0.55005 0.55914 0.87531 0.0
C1681 C 0.56002 0.56647 0.88809 0.0
C1682 C 0.58201 0.60132 0.90705 0.0
C1683 C 0.60405 0.60706 0.94771 0.0
C1684 C 0.59295 0.60036 0.93429 0.0
C1685 C 0.56242 0.57956 0.8938 0.0
C1686 C 0.57265 0.58694 0.90798 0.0
H1687 H 0.62567 0.59999 0.9719 0.0
H1688 H 0.60845 0.58998 0.94886 0.0
H1689 H 0.5994 0.61897 0.91878 0.0
H1690 H 0.53899 0.58257 0.86772 0.0
H1691 H 0.55639 0.59535 0.89029 0.0
C1692 C 0.01059 0.6351 0.9542 0.0
C1693 C 0.00393 0.62914 0.96991 0.0
C1694 C 0.01193 0.62684 0.94143 0.0
C1695 C 0.01352 0.59488 0.93612 0.0
H1696 H 0.00296 0.5956 0.88809 0.0
C1697 C 0.0117 0.555 0.88685 0.0
C1698 C 0.0149 0.55899 0.86943 0.0
C1699 C 0.0103 0.56378 0.89868 0.0
C1700 C 0.00623 0.59544 0.90135 0.0
H1701 H 0.99262 0.60995 0.98431 0.0
H1702 H 0.99532 0.59551 0.96221 0.0
H1703 H 0.00092 0.61082 0.90942 0.0
H1704 H 0.01925 0.57517 0.85056 0.0
H1705 H 0.01753 0.59095 0.87139 0.0
H1706 H 0.01936 0.58 0.92823 0.0
C1707 C 0.99966 0.60655 0.95984 0.0
C1708 C 0.00498 0.60412 0.91358 0.0
C1709 C 0.99812 0.61477 0.97244 0.0
C1710 C 0.01671 0.57191 0.86397 0.0
C1711 C 0.01561 0.58087 0.87591 0.0
C1712 C 0.01509 0.58645 0.92388 0.0
C1713 C 0.00664 0.61252 0.94425 0.0
C1714 C 0.00846 0.60379 0.9311 0.0
C1715 C 0.0124 0.57693 0.89347 0.0
C1716 C 0.01128 0.58644 0.90634 0.0
H1717 H 0.01476 0.64613 0.95184 0.0
H1718 H 0.01733 0.63168 0.92952 0.0
H1719 H 0.01635 0.59448 0.94953 0.0
H1720 H 0.01013 0.54499 0.89124 0.0
H1721 H 0.00743 0.56014 0.9119 0.0
C1722 C 0.38429 0.3791 0.95867 0.0
C1723 C 0.37587 0.38015 0.97147 0.0
C1724 C 0.38948 0.38872 0.94508 0.0
C1725 C 0.40175 0.4246 0.93578 0.0
H1726 H 0.39791 0.41423 0.88708 0.0
C1727 C 0.42945 0.4662 0.88284 0.0
C1728 C 0.4348 0.46257 0.86846 0.0
C1729 C 0.42051 0.45604 0.8945 0.0
C1730 C 0.39928 0.41733 0.90061 0.0
H1731 H 0.36616 0.39199 0.98002 0.0
H1732 H 0.3757 0.40917 0.95646 0.0
H1733 H 0.38553 0.39643 0.90904 0.0
H1734 H 0.43437 0.44513 0.85489 0.0
H1735 H 0.4197 0.4277 0.87573 0.0
H1736 H 0.41614 0.44527 0.92777 0.0
C1737 C 0.37803 0.40072 0.95687 0.0
C1738 C 0.39206 0.40712 0.91315 0.0
C1739 C 0.37254 0.39088 0.97025 0.0
C1740 C 0.43075 0.44844 0.86597 0.0
C1741 C 0.42205 0.43834 0.87782 0.0
C1742 C 0.40922 0.43477 0.92332 0.0
C1743 C 0.38661 0.39976 0.94425 0.0
C1744 C 0.39331 0.41067 0.93084 0.0
C1745 C 0.41687 0.44198 0.89236 0.0
C1746 C 0.4082 0.43127 0.90553 0.0
H1747 H 0.387 0.37092 0.95928 0.0
H1748 H 0.39616 0.38783 0.93555 0.0
H1749 H 0.403 0.42754 0.9494 0.0
H1750 H 0.43239 0.47695 0.8854 0.0
H1751 H 0.41655 0.4593 0.90529 0.0
C1752 C 0.61762 0.00566 0.97613 0.0
C1753 C 0.62587 0.99931 0.97525 0.0
C1754 C 0.6085 0.004 0.96252 0.0
C1755 C 0.58407 0.99009 0.93703 0.0
H1756 H 0.59685 0.99732 0.8893 0.0
C1757 C 0.5467 0.97778 0.87875 0.0
C1758 C 0.55024 0.98909 0.86753 0.0
C1759 C 0.55625 0.97826 0.89112 0.0
C1760 C 0.59316 0.99523 0.90257 0.0
H1761 H 0.63214 0.98737 0.95913 0.0
H1762 H 0.61625 0.98455 0.93513 0.0
H1763 H 0.61311 0.00011 0.9128 0.0
H1764 H 0.56662 0.00947 0.85985 0.0
H1765 H 0.58342 0.01023 0.88132 0.0
H1766 H 0.56413 0.98522 0.92685 0.0
C1767 C 0.61657 0.99051 0.94647 0.0
C1768 C 0.60242 0.99676 0.91597 0.0
C1769 C 0.62552 0.99199 0.96021 0.0
C1770 C 0.56365 0.00065 0.86841 0.0
C1771 C 0.57326 0.00104 0.8806 0.0
C1772 C 0.57477 0.98834 0.92363 0.0
C1773 C 0.60783 0.99633 0.94761 0.0
C1774 C 0.59798 0.99434 0.93334 0.0
C1775 C 0.56954 0.98998 0.89229 0.0
C1776 C 0.57926 0.99102 0.9063 0.0
H1777 H 0.61804 0.01164 0.9875 0.0
H1778 H 0.60202 0.00877 0.96358 0.0
H1779 H 0.58038 0.98809 0.9503 0.0
H1780 H 0.53639 0.96879 0.8784 0.0
H1781 H 0.55318 0.96956 0.89993 0.0
C1782 C 0.62777 0.01259 0.05368 0.0
C1783 C 0.62626 0.99928 0.05172 0.0
C1784 C 0.62147 0.01546 0.06756 0.0
C1785 C 0.5932 0.99687 0.09982 0.0
H1786 H 0.60717 0.03403 0.11855 0.0
C1787 C 0.56818 0.00894 0.15801 0.0
C1788 C 0.56347 0.01838 0.15397 0.0
C1789 C 0.57716 0.00729 0.14686 0.0
C1790 C 0.6032 0.02361 0.11342 0.0
H1791 H 0.61776 0.97877 0.0632 0.0
H1792 H 0.60752 0.98395 0.08796 0.0
H1793 H 0.62086 0.02974 0.09722 0.0
H1794 H 0.56501 0.03379 0.13508 0.0
H1795 H 0.58118 0.03128 0.11613 0.0
H1796 H 0.57572 0.99076 0.11646 0.0
C1797 C 0.61295 0.99205 0.07843 0.0
C1798 C 0.61097 0.02113 0.1011 0.0
C1799 C 0.61895 0.98909 0.06433 0.0
C1800 C 0.56852 0.02657 0.13885 0.0
C1801 C 0.57774 0.02511 0.1279 0.0
C1802 C 0.58562 0.9993 0.11239 0.0
C1803 C 0.61376 0.00514 0.07999 0.0
C1804 C 0.606 0.00774 0.09395 0.0
C1805 C 0.58191 0.01527 0.13165 0.0
C1806 C 0.59047 0.0127 0.11915 0.0
H1807 H 0.63325 0.02059 0.04403 0.0
H1808 H 0.6222 0.0256 0.06807 0.0
H1809 H 0.58876 0.9865 0.09439 0.0
H1810 H 0.56485 0.0027 0.16972 0.0
H1811 H 0.58035 0.99971 0.15007 0.0
C1812 C 0.99107 0.61762 0.04683 0.0
C1813 C 0.00471 0.62852 0.04441 0.0
C1814 C 0.98805 0.60798 0.06022 0.0
C1815 C 0.99835 0.60217 0.10271 0.0
H1816 H 0.98339 0.56373 0.08839 0.0
C1817 C 0.99395 0.5597 0.15063 0.0
C1818 C 0.98337 0.54585 0.14809 0.0
C1819 C 0.99604 0.57006 0.13858 0.0
C1820 C 0.98726 0.57433 0.09276 0.0
H1821 H 0.02575 0.63814 0.05449 0.0
H1822 H 0.02031 0.62146 0.07833 0.0
H1823 H 0.98768 0.58148 0.06669 0.0
H1824 H 0.96646 0.53227 0.13083 0.0
H1825 H 0.96944 0.5504 0.11066 0.0
H1826 H 0.99753 0.5951 0.12882 0.0
C1827 C 0.01206 0.62036 0.06968 0.0
C1828 C 0.98982 0.5845 0.08025 0.0
C1829 C 0.01516 0.62985 0.05603 0.0
C1830 C 0.97463 0.54279 0.13345 0.0
C1831 C 0.97653 0.55321 0.12161 0.0
C1832 C 0.9955 0.59194 0.11532 0.0
C1833 C 0.99853 0.60922 0.07167 0.0
C1834 C 0.99547 0.5985 0.0851 0.0
C1835 C 0.98742 0.56696 0.12381 0.0
C1836 C 0.99001 0.57787 0.11051 0.0
H1837 H 0.98281 0.61626 0.03802 0.0
H1838 H 0.97754 0.59946 0.06156 0.0
H1839 H 0.00264 0.61292 0.10673 0.0
H1840 H 0.00074 0.5626 0.1619 0.0
H1841 H 0.00465 0.58044 0.14072 0.0
C1842 C 0.3837 0.39113 0.04752 0.0
C1843 C 0.37707 0.37657 0.04727 0.0
C1844 C 0.39322 0.39858 0.06072 0.0
C1845 C 0.40535 0.39487 0.10481 0.0
H1846 H 0.43821 0.42913 0.09177 0.0
C1847 C 0.45353 0.42529 0.14983 0.0
C1848 C 0.45809 0.43959 0.15136 0.0
C1849 C 0.44339 0.41721 0.13748 0.0
C1850 C 0.42905 0.41961 0.09559 0.0
H1851 H 0.3738 0.35823 0.06138 0.0
H1852 H 0.39076 0.37115 0.0842 0.0
H1853 H 0.4208 0.4157 0.06973 0.0
H1854 H 0.45585 0.4567 0.14111 0.0
H1855 H 0.43831 0.44262 0.11937 0.0
H1856 H 0.41393 0.39871 0.13064 0.0
C1857 C 0.38882 0.37693 0.07422 0.0
C1858 C 0.41901 0.41194 0.083 0.0
C1859 C 0.37928 0.3695 0.06102 0.0
C1860 C 0.45242 0.44567 0.14029 0.0
C1861 C 0.44247 0.43766 0.12778 0.0
C1862 C 0.41551 0.40245 0.11735 0.0
C1863 C 0.39614 0.39158 0.07405 0.0
C1864 C 0.40694 0.39955 0.08747 0.0
C1865 C 0.43786 0.42335 0.12626 0.0
C1866 C 0.42737 0.41496 0.11288 0.0
H1867 H 0.38176 0.39675 0.03729 0.0
H1868 H 0.3983 0.40984 0.06045 0.0
H1869 H 0.39613 0.38548 0.10881 0.0
H1870 H 0.45773 0.42037 0.15825 0.0
H1871 H 0.44003 0.40621 0.1365 0.0
C1872 C 0.68055 0.72241 0.39432 0.0
C1873 C 0.67035 0.71107 0.38478 0.0
C1874 C 0.67688 0.72774 0.40854 0.0
C1875 C 0.64776 0.73081 0.42533 0.0
H1876 H 0.66955 0.7426 0.46791 0.0
C1877 C 0.6338 0.75659 0.48084 0.0
C1878 C 0.64496 0.76833 0.48858 0.0
C1879 C 0.63618 0.74789 0.46992 0.0
C1880 C 0.66341 0.73946 0.45606 0.0
H1881 H 0.64831 0.69626 0.38307 0.0
H1882 H 0.64197 0.70566 0.40781 0.0
H1883 H 0.67523 0.73067 0.44545 0.0
H1884 H 0.66734 0.77968 0.49162 0.0
H1885 H 0.67152 0.76485 0.47217 0.0
H1886 H 0.63624 0.73998 0.43555 0.0
C1887 C 0.65278 0.71043 0.4042 0.0
C1888 C 0.66665 0.7326 0.44322 0.0
C1889 C 0.65645 0.70501 0.39007 0.0
C1890 C 0.65851 0.77087 0.48563 0.0
C1891 C 0.6609 0.76223 0.47465 0.0
C1892 C 0.64458 0.73775 0.4381 0.0
C1893 C 0.66294 0.72194 0.41346 0.0
C1894 C 0.65896 0.72835 0.42764 0.0
C1895 C 0.64978 0.75075 0.46643 0.0
C1896 C 0.65247 0.74232 0.45354 0.0
H1897 H 0.69135 0.72733 0.39064 0.0
H1898 H 0.68493 0.73671 0.41533 0.0
H1899 H 0.64175 0.72781 0.41337 0.0
H1900 H 0.62323 0.75436 0.48276 0.0
H1901 H 0.62736 0.73901 0.46402 0.0
C1902 C 0.29831 0.95238 0.39373 0.0
C1903 C 0.29133 0.95498 0.38019 0.0
C1904 C 0.29089 0.94356 0.40744 0.0
C1905 C 0.25777 0.92916 0.43063 0.0
H1906 H 0.26577 0.90006 0.44463 0.0
C1907 C 0.22161 0.88486 0.47649 0.0
C1908 C 0.22737 0.87901 0.48776 0.0
C1909 C 0.22982 0.8947 0.46408 0.0
C1910 C 0.26353 0.90826 0.44117 0.0
H1911 H 0.27137 0.95136 0.3708 0.0
H1912 H 0.25829 0.93583 0.39475 0.0
H1913 H 0.27954 0.91643 0.42209 0.0
H1914 H 0.24624 0.87904 0.49531 0.0
H1915 H 0.26079 0.89666 0.47416 0.0
H1916 H 0.2421 0.9214 0.4501 0.0
C1917 C 0.26947 0.94043 0.39469 0.0
C1918 C 0.27137 0.91758 0.42808 0.0
C1919 C 0.2769 0.94921 0.38095 0.0
C1920 C 0.24155 0.88334 0.48664 0.0
C1921 C 0.24984 0.89337 0.47443 0.0
C1922 C 0.25008 0.92001 0.44394 0.0
C1923 C 0.27638 0.93746 0.40803 0.0
C1924 C 0.26845 0.92799 0.42249 0.0
C1925 C 0.24406 0.89909 0.46284 0.0
C1926 C 0.25272 0.90931 0.44925 0.0
H1927 H 0.30952 0.95723 0.39374 0.0
H1928 H 0.29652 0.94165 0.41768 0.0
H1929 H 0.25545 0.93726 0.42681 0.0
H1930 H 0.21065 0.88155 0.47696 0.0
H1931 H 0.22489 0.89859 0.4552 0.0
C1932 C 0.04311 0.34109 0.39502 0.0
C1933 C 0.0417 0.33301 0.38033 0.0
C1934 C 0.05244 0.3426 0.4083 0.0
C1935 C 0.08362 0.3388 0.41581 0.0
H1936 H 0.07795 0.34494 0.46399 0.0
C1937 C 0.11906 0.34002 0.4721 0.0
C1938 C 0.12416 0.35167 0.48313 0.0
C1939 C 0.10861 0.33742 0.45995 0.0
C1940 C 0.07967 0.3433 0.45056 0.0
H1941 H 0.0475 0.31884 0.36869 0.0
H1942 H 0.06366 0.32117 0.39197 0.0
H1943 H 0.05981 0.34009 0.44246 0.0
H1944 H 0.12223 0.36958 0.49037 0.0
H1945 H 0.10367 0.36485 0.46927 0.0
H1946 H 0.10336 0.34165 0.42413 0.0
C1947 C 0.05814 0.32695 0.39297 0.0
C1948 C 0.06932 0.34058 0.43818 0.0
C1949 C 0.04884 0.32552 0.37969 0.0
C1950 C 0.11849 0.36056 0.48196 0.0
C1951 C 0.10786 0.35782 0.47 0.0
C1952 C 0.09386 0.34129 0.42824 0.0
C1953 C 0.06034 0.3358 0.40725 0.0
C1954 C 0.07116 0.33832 0.42062 0.0
C1955 C 0.10292 0.34629 0.45879 0.0
C1956 C 0.092 0.3436 0.4457 0.0
H1957 H 0.03722 0.3465 0.39605 0.0
H1958 H 0.05381 0.34951 0.41901 0.0
H1959 H 0.08561 0.33746 0.40239 0.0
H1960 H 0.12333 0.33306 0.47267 0.0
H1961 H 0.10492 0.32842 0.45151 0.0
C1962 C 0.03915 0.32049 0.29967 0.0
C1963 C 0.04383 0.33441 0.3044 0.0
C1964 C 0.04559 0.3173 0.28622 0.0
C1965 C 0.07898 0.33291 0.26275 0.0
H1966 H 0.05938 0.30181 0.2311 0.0
C1967 C 0.10644 0.32437 0.20502 0.0
C1968 C 0.10436 0.31083 0.20276 0.0
C1969 C 0.09815 0.32687 0.21639 0.0
C1970 C 0.06498 0.31048 0.23994 0.0
H1971 H 0.05841 0.3559 0.29801 0.0
H1972 H 0.06928 0.35038 0.27436 0.0
H1973 H 0.04639 0.30696 0.25265 0.0
H1974 H 0.09158 0.28923 0.21035 0.0
H1975 H 0.07697 0.29361 0.23009 0.0
H1976 H 0.09753 0.33648 0.25005 0.0
C1977 C 0.06096 0.34188 0.28136 0.0
C1978 C 0.05755 0.31342 0.2523 0.0
C1979 C 0.05465 0.34506 0.29487 0.0
C1980 C 0.09341 0.29976 0.21166 0.0
C1981 C 0.08504 0.30227 0.22299 0.0
C1982 C 0.08636 0.33003 0.25036 0.0
C1983 C 0.05676 0.32797 0.27713 0.0
C1984 C 0.06447 0.32472 0.26383 0.0
C1985 C 0.0875 0.31589 0.22571 0.0
C1986 C 0.07946 0.31882 0.23878 0.0
H1987 H 0.03088 0.31204 0.3068 0.0
H1988 H 0.04213 0.30646 0.2834 0.0
H1989 H 0.08473 0.34146 0.27169 0.0
H1990 H 0.11456 0.33309 0.19807 0.0
H1991 H 0.10012 0.33745 0.21795 0.0
C1992 C 0.66626 0.72129 0.30939 0.0
C1993 C 0.67172 0.71226 0.30824 0.0
C1994 C 0.66863 0.73087 0.2961 0.0
C1995 C 0.67566 0.73742 0.24996 0.0
H1996 H 0.69282 0.77647 0.26235 0.0
C1997 C 0.69246 0.78037 0.19748 0.0
C1998 C 0.69164 0.79229 0.20167 0.0
C1999 C 0.6902 0.77043 0.21027 0.0
C2000 C 0.68779 0.76561 0.25861 0.0
H2001 H 0.68283 0.70514 0.29197 0.0
H2002 H 0.68678 0.72176 0.26846 0.0
H2003 H 0.68768 0.75918 0.28493 0.0
H2004 H 0.68746 0.80312 0.22207 0.0
H2005 H 0.68277 0.78554 0.24416 0.0
H2006 H 0.67507 0.74365 0.22376 0.0
C2007 C 0.681 0.7217 0.27979 0.0
C2008 C 0.68496 0.75572 0.2716 0.0
C2009 C 0.67886 0.71232 0.29324 0.0
C2010 C 0.6883 0.79405 0.21866 0.0
C2011 C 0.68574 0.784 0.23133 0.0
C2012 C 0.67817 0.74728 0.23697 0.0
C2013 C 0.67607 0.73118 0.28123 0.0
C2014 C 0.67891 0.74157 0.2674 0.0
C2015 C 0.68678 0.77209 0.22739 0.0
C2016 C 0.68427 0.76153 0.24112 0.0
H2017 H 0.66045 0.72115 0.32073 0.0
H2018 H 0.66462 0.738 0.29739 0.0
H2019 H 0.67089 0.72652 0.24644 0.0
H2020 H 0.69506 0.77887 0.1844 0.0
H2021 H 0.69133 0.76155 0.20674 0.0
C2022 C 0.28817 0.94808 0.29123 0.0
C2023 C 0.28768 0.95681 0.30415 0.0
C2024 C 0.27877 0.94361 0.27732 0.0
C2025 C 0.24376 0.93363 0.26686 0.0
H2026 H 0.25476 0.93833 0.21847 0.0
C2027 C 0.20272 0.90841 0.21249 0.0
C2028 C 0.20615 0.90294 0.19802 0.0
C2029 C 0.2129 0.91701 0.22447 0.0
C2030 C 0.25147 0.93673 0.2319 0.0
H2031 H 0.27703 0.96776 0.31263 0.0
H2032 H 0.26019 0.95945 0.28852 0.0
H2033 H 0.27233 0.94943 0.24122 0.0
H2034 H 0.2233 0.90296 0.18453 0.0
H2035 H 0.24074 0.917 0.20592 0.0
H2036 H 0.22309 0.92022 0.25795 0.0
C2037 C 0.26806 0.95634 0.28908 0.0
C2038 C 0.26156 0.94322 0.24489 0.0
C2039 C 0.2777 0.96112 0.30278 0.0
C2040 C 0.22013 0.90665 0.19568 0.0
C2041 C 0.23025 0.915 0.20786 0.0
C2042 C 0.2337 0.92688 0.25393 0.0
C2043 C 0.26849 0.94751 0.2763 0.0
C2044 C 0.25778 0.94163 0.26246 0.0
C2045 C 0.22677 0.92017 0.22257 0.0
C2046 C 0.23741 0.92821 0.23624 0.0
H2047 H 0.29578 0.94464 0.29195 0.0
H2048 H 0.27922 0.93672 0.26767 0.0
H2049 H 0.24065 0.93214 0.28037 0.0
H2050 H 0.19209 0.90574 0.21493 0.0
H2051 H 0.2098 0.92102 0.23536 0.0
C2052 C 0.66461 0.94403 0.30325 0.0
C2053 C 0.67264 0.95858 0.3037 0.0
C2054 C 0.66623 0.93649 0.28977 0.0
C2055 C 0.69108 0.93869 0.25703 0.0
H2056 H 0.65897 0.9083 0.23479 0.0
C2057 C 0.69722 0.90888 0.19946 0.0
C2058 C 0.68796 0.89453 0.19832 0.0
C2059 C 0.69496 0.91709 0.21137 0.0
C2060 C 0.66808 0.9166 0.24103 0.0
H2061 H 0.68769 0.97682 0.28982 0.0
H2062 H 0.6908 0.96366 0.26637 0.0
H2063 H 0.65577 0.92167 0.25767 0.0
H2064 H 0.66917 0.87743 0.20871 0.0
H2065 H 0.66547 0.89155 0.23001 0.0
H2066 H 0.70345 0.93341 0.24103 0.0
C2067 C 0.68353 0.95803 0.27666 0.0
C2068 C 0.66622 0.9243 0.25409 0.0
C2069 C 0.68184 0.96555 0.29009 0.0
C2070 C 0.67637 0.88852 0.20923 0.0
C2071 C 0.67423 0.89666 0.22136 0.0
C2072 C 0.69296 0.93085 0.24422 0.0
C2073 C 0.67578 0.94341 0.27639 0.0
C2074 C 0.67771 0.9354 0.26227 0.0
C2075 C 0.68352 0.91107 0.22266 0.0
C2076 C 0.68149 0.91966 0.23603 0.0
H2077 H 0.65722 0.93849 0.31346 0.0
H2078 H 0.66016 0.92523 0.28994 0.0
H2079 H 0.70012 0.94717 0.26308 0.0
H2080 H 0.70618 0.91375 0.19106 0.0
H2081 H 0.70218 0.92816 0.21166 0.0
C2082 C 0.04145 0.72139 0.30294 0.0
C2083 C 0.0491 0.71563 0.31053 0.0
C2084 C 0.04734 0.73163 0.29002 0.0
C2085 C 0.0816 0.75789 0.27325 0.0
H2086 H 0.06139 0.75739 0.23157 0.0
C2087 C 0.10945 0.78981 0.21304 0.0
C2088 C 0.10376 0.79705 0.20429 0.0
C2089 C 0.10207 0.78028 0.22612 0.0
C2090 C 0.0671 0.75776 0.24325 0.0
H2091 H 0.06888 0.71597 0.31004 0.0
H2092 H 0.07894 0.73353 0.28757 0.0
H2093 H 0.04964 0.73988 0.25423 0.0
H2094 H 0.08572 0.79979 0.20226 0.0
H2095 H 0.07277 0.78306 0.22528 0.0
H2096 H 0.09908 0.77558 0.26226 0.0
C2097 C 0.0685 0.73037 0.2918 0.0
C2098 C 0.06038 0.74775 0.25622 0.0
C2099 C 0.06266 0.72019 0.30465 0.0
C2100 C 0.09042 0.79443 0.20885 0.0
C2101 C 0.08296 0.78479 0.22191 0.0
C2102 C 0.08829 0.76783 0.26032 0.0
C2103 C 0.06101 0.73635 0.28447 0.0
C2104 C 0.06764 0.74755 0.27122 0.0
C2105 C 0.08878 0.77771 0.2308 0.0
C2106 C 0.08121 0.76774 0.24502 0.0
H2107 H 0.03099 0.71815 0.30715 0.0
H2108 H 0.04131 0.73608 0.28466 0.0
H2109 H 0.08741 0.75826 0.28484 0.0
H2110 H 0.11977 0.7917 0.21001 0.0
H2111 H 0.10678 0.77487 0.23255 0.0
C2112 C 0.29008 0.32367 0.29477 0.0
C2113 C 0.29099 0.33208 0.30889 0.0
C2114 C 0.28068 0.32123 0.28124 0.0
C2115 C 0.264 0.32204 0.25032 0.0
H2116 H 0.2285 0.31825 0.26285 0.0
C2117 C 0.2231 0.31611 0.19876 0.0
C2118 C 0.20901 0.30775 0.20289 0.0
C2119 C 0.23341 0.31898 0.21126 0.0
C2120 C 0.23829 0.31909 0.25912 0.0
H2121 H 0.28405 0.34575 0.3193 0.0
H2122 H 0.26763 0.34169 0.29555 0.0
H2123 H 0.24602 0.32366 0.2852 0.0
H2124 H 0.1948 0.29568 0.22347 0.0
H2125 H 0.21271 0.30008 0.24485 0.0
H2126 H 0.25602 0.31687 0.22435 0.0
C2127 C 0.27372 0.33646 0.2952 0.0
C2128 C 0.24845 0.32245 0.27193 0.0
C2129 C 0.28313 0.33886 0.30875 0.0
C2130 C 0.20552 0.30201 0.21968 0.0
C2131 C 0.21582 0.30474 0.2321 0.0
C2132 C 0.25377 0.31853 0.23753 0.0
C2133 C 0.27217 0.32739 0.28145 0.0
C2134 C 0.26146 0.32401 0.26769 0.0
C2135 C 0.22989 0.31346 0.22816 0.0
C2136 C 0.24078 0.31702 0.24176 0.0
H2137 H 0.29648 0.31877 0.29438 0.0
H2138 H 0.27977 0.31416 0.27094 0.0
H2139 H 0.27394 0.32329 0.24654 0.0
H2140 H 0.22621 0.32055 0.1859 0.0
H2141 H 0.24412 0.32583 0.20777 0.0
C2142 C 0.29404 0.34771 0.38776 0.0
C2143 C 0.29176 0.3341 0.38574 0.0
C2144 C 0.28815 0.35105 0.40167 0.0
C2145 C 0.25986 0.33391 0.43421 0.0
H2146 H 0.27647 0.37124 0.45333 0.0
C2147 C 0.23736 0.34826 0.4931 0.0
C2148 C 0.23361 0.35848 0.4893 0.0
C2149 C 0.24574 0.34585 0.48177 0.0
C2150 C 0.27176 0.36078 0.44809 0.0
H2151 H 0.28219 0.3135 0.39715 0.0
H2152 H 0.27257 0.31944 0.42191 0.0
H2153 H 0.28903 0.36574 0.43161 0.0
H2154 H 0.2363 0.37448 0.47068 0.0
H2155 H 0.25145 0.37064 0.45141 0.0
H2156 H 0.24278 0.32895 0.45112 0.0
C2157 C 0.27836 0.32745 0.41241 0.0
C2158 C 0.27888 0.35762 0.43555 0.0
C2159 C 0.28398 0.32405 0.39829 0.0
C2160 C 0.23907 0.36667 0.47426 0.0
C2161 C 0.2477 0.36444 0.46313 0.0
C2162 C 0.25292 0.33701 0.44699 0.0
C2163 C 0.28007 0.34091 0.4141 0.0
C2164 C 0.27295 0.34417 0.42826 0.0
C2165 C 0.25086 0.35382 0.46661 0.0
C2166 C 0.25873 0.35049 0.45389 0.0
H2167 H 0.29989 0.35565 0.37819 0.0
H2168 H 0.28955 0.36146 0.40228 0.0
H2169 H 0.25474 0.32354 0.4287 0.0
H2170 H 0.23371 0.34199 0.50476 0.0
H2171 H 0.24816 0.33769 0.48478 0.0
C2172 C 0.67829 0.95546 0.39058 0.0
C2173 C 0.66866 0.95688 0.37996 0.0
C2174 C 0.6739 0.94678 0.40512 0.0
C2175 C 0.64421 0.91564 0.422 0.0
H2176 H 0.66486 0.92675 0.46549 0.0
C2177 C 0.63087 0.87699 0.47902 0.0
C2178 C 0.6423 0.87699 0.48708 0.0
C2179 C 0.63279 0.88777 0.46773 0.0
C2180 C 0.65902 0.92345 0.45341 0.0
H2181 H 0.64684 0.95033 0.37643 0.0
H2182 H 0.63917 0.93496 0.4018 0.0
H2183 H 0.67072 0.94373 0.44214 0.0
H2184 H 0.66465 0.88871 0.49037 0.0
H2185 H 0.66804 0.90719 0.47038 0.0
H2186 H 0.6329 0.89522 0.4329 0.0
C2187 C 0.65012 0.94066 0.39882 0.0
C2188 C 0.66236 0.93319 0.44007 0.0
C2189 C 0.65453 0.9495 0.38435 0.0
C2190 C 0.65563 0.88827 0.48414 0.0
C2191 C 0.65756 0.89899 0.47285 0.0
C2192 C 0.64094 0.90585 0.43529 0.0
C2193 C 0.65977 0.93919 0.4093 0.0
C2194 C 0.65518 0.92931 0.42411 0.0
C2195 C 0.64619 0.89878 0.46428 0.0
C2196 C 0.64851 0.90956 0.45102 0.0
H2197 H 0.68925 0.96101 0.38762 0.0
H2198 H 0.68155 0.94572 0.41283 0.0
H2199 H 0.63858 0.91232 0.40978 0.0
H2200 H 0.62047 0.86843 0.48095 0.0
H2201 H 0.62379 0.88737 0.46152 0.0
C2202 C 0.04661 0.702 0.39872 0.0
C2203 C 0.04469 0.70909 0.38475 0.0
C2204 C 0.05517 0.70941 0.41275 0.0
C2205 C 0.07023 0.74285 0.43583 0.0
H2206 H 0.09937 0.73482 0.44919 0.0
C2207 C 0.11588 0.77999 0.47983 0.0
C2208 C 0.12205 0.77443 0.49092 0.0
C2209 C 0.10557 0.77145 0.46798 0.0
C2210 C 0.09115 0.73706 0.44594 0.0
H2211 H 0.04907 0.72925 0.37499 0.0
H2212 H 0.06406 0.74229 0.39955 0.0
H2213 H 0.08257 0.72076 0.42699 0.0
H2214 H 0.12206 0.75559 0.49876 0.0
H2215 H 0.10364 0.74049 0.47857 0.0
H2216 H 0.07851 0.75894 0.45506 0.0
C2217 C 0.05918 0.73104 0.39955 0.0
C2218 C 0.08157 0.72903 0.43308 0.0
C2219 C 0.05071 0.72362 0.38548 0.0
C2220 C 0.11753 0.76012 0.49021 0.0
C2221 C 0.10704 0.75152 0.47856 0.0
C2222 C 0.07966 0.75075 0.44892 0.0
C2223 C 0.06162 0.72402 0.41323 0.0
C2224 C 0.07116 0.73197 0.4277 0.0
C2225 C 0.10102 0.75709 0.46712 0.0
C2226 C 0.0904 0.74811 0.45398 0.0
H2227 H 0.04154 0.69073 0.39874 0.0
H2228 H 0.0567 0.70372 0.42325 0.0
H2229 H 0.06217 0.74522 0.4321 0.0
H2230 H 0.11931 0.79103 0.47999 0.0
H2231 H 0.10145 0.77622 0.45919 0.0
C2232 C 0.33681 0.05411 0.73137 0.0
C2233 C 0.32787 0.04485 0.71865 0.0
C2234 C 0.33155 0.0584 0.74501 0.0
C2235 C 0.30502 0.06653 0.75495 0.0
H2236 H 0.31281 0.06326 0.80348 0.0
C2237 C 0.28836 0.0915 0.8085 0.0
C2238 C 0.29768 0.09786 0.82244 0.0
C2239 C 0.29012 0.08276 0.79692 0.0
C2240 C 0.31067 0.06443 0.79 0.0
H2241 H 0.30642 0.03278 0.71024 0.0
H2242 H 0.29727 0.04076 0.73386 0.0
H2243 H 0.31996 0.05252 0.78107 0.0
H2244 H 0.31572 0.09921 0.83561 0.0
H2245 H 0.31934 0.08487 0.81493 0.0
H2246 H 0.29661 0.07918 0.76347 0.0
C2247 C 0.30831 0.04444 0.73336 0.0
C2248 C 0.31467 0.05817 0.77721 0.0
C2249 C 0.31354 0.03987 0.71992 0.0
C2250 C 0.30851 0.09482 0.82481 0.0
C2251 C 0.31044 0.08631 0.81306 0.0
C2252 C 0.3013 0.07307 0.76767 0.0
C2253 C 0.31729 0.05376 0.74596 0.0
C2254 C 0.312 0.05929 0.75959 0.0
C2255 C 0.30139 0.08031 0.79877 0.0
C2256 C 0.30423 0.07228 0.78538 0.0
H2257 H 0.3479 0.05807 0.73073 0.0
H2258 H 0.33867 0.06568 0.75454 0.0
H2259 H 0.30299 0.06764 0.74139 0.0
H2260 H 0.27993 0.09362 0.80612 0.0
H2261 H 0.28274 0.07811 0.78634 0.0
C2262 C 0.96554 0.28481 0.72455 0.0
C2263 C 0.95847 0.28709 0.71086 0.0
C2264 C 0.95818 0.2753 0.7377 0.0
C2265 C 0.92316 0.2454 0.74672 0.0
H2266 H 0.93689 0.25084 0.79426 0.0
C2267 C 0.88999 0.21318 0.80461 0.0
C2268 C 0.89596 0.20732 0.81556 0.0
C2269 C 0.89793 0.22288 0.79194 0.0
C2270 C 0.93301 0.24916 0.781 0.0
H2271 H 0.93836 0.28254 0.70093 0.0
H2272 H 0.92538 0.26608 0.72403 0.0
H2273 H 0.95002 0.26837 0.77229 0.0
H2274 H 0.9149 0.20708 0.82206 0.0
H2275 H 0.92895 0.22438 0.80003 0.0
H2276 H 0.90591 0.2264 0.75568 0.0
C2277 C 0.93658 0.27107 0.72428 0.0
C2278 C 0.94054 0.25916 0.76837 0.0
C2279 C 0.94397 0.28054 0.71111 0.0
C2280 C 0.91007 0.21144 0.81373 0.0
C2281 C 0.91809 0.22135 0.80123 0.0
C2282 C 0.91555 0.23553 0.7594 0.0
C2283 C 0.94358 0.26811 0.73757 0.0
C2284 C 0.93568 0.25744 0.75106 0.0
C2285 C 0.91205 0.22706 0.79014 0.0
C2286 C 0.92038 0.23734 0.77665 0.0
H2287 H 0.97677 0.29022 0.72492 0.0
H2288 H 0.96396 0.27332 0.74765 0.0
H2289 H 0.91926 0.24351 0.73347 0.0
H2290 H 0.87911 0.21009 0.80567 0.0
H2291 H 0.89306 0.2272 0.78361 0.0
C2292 C 0.70842 0.67495 0.72381 0.0
C2293 C 0.708 0.66746 0.70892 0.0
C2294 C 0.71747 0.67663 0.73753 0.0
C2295 C 0.73998 0.66297 0.75513 0.0
H2296 H 0.75773 0.69827 0.77964 0.0
C2297 C 0.77708 0.67271 0.81297 0.0
C2298 C 0.78915 0.68578 0.81379 0.0
C2299 C 0.76641 0.67034 0.80129 0.0
C2300 C 0.75295 0.68839 0.77284 0.0
H2301 H 0.71591 0.65515 0.69687 0.0
H2302 H 0.7323 0.65865 0.72034 0.0
H2303 H 0.74068 0.69417 0.75709 0.0
H2304 H 0.79949 0.70666 0.80317 0.0
H2305 H 0.78099 0.7025 0.78254 0.0
H2306 H 0.75261 0.65737 0.77056 0.0
C2307 C 0.72555 0.66307 0.72173 0.0
C2308 C 0.74302 0.68596 0.75998 0.0
C2309 C 0.71629 0.66117 0.70817 0.0
C2310 C 0.79023 0.69652 0.80294 0.0
C2311 C 0.77961 0.69413 0.79115 0.0
C2312 C 0.74995 0.66542 0.76793 0.0
C2313 C 0.72633 0.6709 0.73658 0.0
C2314 C 0.73649 0.67327 0.75081 0.0
C2315 C 0.76762 0.68096 0.79005 0.0
C2316 C 0.75664 0.6782 0.77687 0.0
H2317 H 0.70172 0.67948 0.72484 0.0
H2318 H 0.71746 0.68241 0.74888 0.0
H2319 H 0.73499 0.65295 0.74867 0.0
H2320 H 0.77588 0.66429 0.82137 0.0
H2321 H 0.75722 0.66016 0.80106 0.0
C2322 C 0.70319 0.6528 0.62794 0.0
C2323 C 0.70871 0.66678 0.63307 0.0
C2324 C 0.70965 0.64915 0.61497 0.0
C2325 C 0.74413 0.66235 0.59557 0.0
H2326 H 0.72489 0.63342 0.56103 0.0
C2327 C 0.77364 0.64237 0.55478 0.0
C2328 C 0.77088 0.64088 0.53681 0.0
C2329 C 0.76494 0.64428 0.5661 0.0
C2330 C 0.7304 0.64157 0.57055 0.0
H2331 H 0.72483 0.68795 0.62774 0.0
H2332 H 0.73584 0.68163 0.60508 0.0
H2333 H 0.71159 0.63971 0.58075 0.0
H2334 H 0.7565 0.63964 0.51668 0.0
H2335 H 0.74127 0.64309 0.53651 0.0
H2336 H 0.76291 0.66444 0.58535 0.0
C2337 C 0.72676 0.67343 0.61136 0.0
C2338 C 0.72278 0.64509 0.58193 0.0
C2339 C 0.72037 0.67706 0.62431 0.0
C2340 C 0.75885 0.6407 0.53048 0.0
C2341 C 0.75013 0.64267 0.54184 0.0
C2342 C 0.75171 0.65883 0.58428 0.0
C2343 C 0.72172 0.65941 0.60685 0.0
C2344 C 0.72959 0.65557 0.59454 0.0
C2345 C 0.75327 0.64481 0.55974 0.0
C2346 C 0.74497 0.64837 0.57167 0.0
H2347 H 0.69423 0.6446 0.63442 0.0
H2348 H 0.70553 0.63825 0.61185 0.0
H2349 H 0.74972 0.67031 0.60528 0.0
H2350 H 0.78267 0.64226 0.56008 0.0
H2351 H 0.76747 0.64554 0.57985 0.0
C2352 C 0.32516 0.05123 0.64111 0.0
C2353 C 0.33358 0.0451 0.64262 0.0
C2354 C 0.327 0.06022 0.62729 0.0
C2355 C 0.3436 0.07163 0.58382 0.0
H2356 H 0.34094 0.10458 0.59436 0.0
C2357 C 0.36275 0.11959 0.53816 0.0
C2358 C 0.35321 0.1243 0.53523 0.0
C2359 C 0.36009 0.10937 0.5507 0.0
C2360 C 0.34164 0.09538 0.59123 0.0
H2361 H 0.34931 0.04209 0.63012 0.0
H2362 H 0.35295 0.05814 0.60627 0.0
H2363 H 0.33656 0.08753 0.61713 0.0
H2364 H 0.33355 0.12219 0.54315 0.0
H2365 H 0.329 0.10449 0.56523 0.0
H2366 H 0.34912 0.07985 0.55798 0.0
C2367 C 0.345 0.05621 0.6157 0.0
C2368 C 0.33904 0.08555 0.60422 0.0
C2369 C 0.34312 0.04721 0.62951 0.0
C2370 C 0.341 0.11864 0.54505 0.0
C2371 C 0.33845 0.10861 0.55775 0.0
C2372 C 0.34639 0.08158 0.57088 0.0
C2373 C 0.33717 0.06308 0.61462 0.0
C2374 C 0.33989 0.07349 0.60067 0.0
C2375 C 0.34798 0.10391 0.56071 0.0
C2376 C 0.34534 0.09349 0.57445 0.0
H2377 H 0.31742 0.04934 0.65085 0.0
H2378 H 0.32047 0.06497 0.62659 0.0
H2379 H 0.34417 0.0624 0.58052 0.0
H2380 H 0.37222 0.12377 0.53071 0.0
H2381 H 0.36762 0.10595 0.55282 0.0
C2382 C 0.95583 0.28038 0.62211 0.0
C2383 C 0.95528 0.28919 0.63488 0.0
C2384 C 0.9464 0.27574 0.60821 0.0
C2385 C 0.91131 0.2658 0.59774 0.0
H2386 H 0.92215 0.26952 0.54935 0.0
C2387 C 0.87002 0.24056 0.5437 0.0
C2388 C 0.8732 0.23466 0.52946 0.0
C2389 C 0.88033 0.24917 0.55553 0.0
C2390 C 0.9189 0.2682 0.56279 0.0
H2391 H 0.94454 0.30012 0.64306 0.0
H2392 H 0.92771 0.29156 0.61897 0.0
H2393 H 0.93984 0.28075 0.57194 0.0
H2394 H 0.89005 0.23393 0.51619 0.0
H2395 H 0.90771 0.24802 0.53734 0.0
H2396 H 0.89055 0.25256 0.58901 0.0
C2397 C 0.93561 0.2885 0.61965 0.0
C2398 C 0.92906 0.27475 0.57568 0.0
C2399 C 0.94525 0.29342 0.63334 0.0
C2400 C 0.88707 0.23796 0.52718 0.0
C2401 C 0.89732 0.24633 0.5392 0.0
C2402 C 0.90118 0.25899 0.58492 0.0
C2403 C 0.93608 0.27957 0.60704 0.0
C2404 C 0.92534 0.27353 0.59326 0.0
C2405 C 0.89408 0.25192 0.5537 0.0
C2406 C 0.90483 0.25998 0.56724 0.0
H2407 H 0.96347 0.27699 0.62295 0.0
H2408 H 0.94688 0.26878 0.59869 0.0
H2409 H 0.90822 0.26458 0.61126 0.0
H2410 H 0.85948 0.23821 0.54609 0.0
H2411 H 0.87743 0.25351 0.56625 0.0
C2412 C 0.33032 0.28001 0.6359 0.0
C2413 C 0.33839 0.29454 0.63624 0.0
C2414 C 0.33216 0.27235 0.62278 0.0
C2415 C 0.348 0.27559 0.57912 0.0
H2416 H 0.34591 0.24073 0.5927 0.0
C2417 C 0.36561 0.24411 0.53565 0.0
C2418 C 0.35588 0.2299 0.53394 0.0
C2419 C 0.3635 0.25239 0.54766 0.0
C2420 C 0.34646 0.25042 0.58872 0.0
H2421 H 0.35349 0.31267 0.62227 0.0
H2422 H 0.35715 0.29939 0.5996 0.0
H2423 H 0.34202 0.25449 0.61432 0.0
H2424 H 0.33645 0.21313 0.54354 0.0
H2425 H 0.33289 0.22754 0.56471 0.0
H2426 H 0.35286 0.27156 0.55356 0.0
C2427 C 0.34948 0.29378 0.60947 0.0
C2428 C 0.34414 0.25828 0.60106 0.0
C2429 C 0.34758 0.3014 0.6226 0.0
C2430 C 0.34405 0.22409 0.54449 0.0
C2431 C 0.34207 0.23229 0.55667 0.0
C2432 C 0.35053 0.2678 0.56682 0.0
C2433 C 0.34201 0.27912 0.60961 0.0
C2434 C 0.34471 0.2709 0.5964 0.0
C2435 C 0.35176 0.24651 0.55838 0.0
C2436 C 0.34964 0.25508 0.57148 0.0
H2437 H 0.32282 0.27456 0.64603 0.0
H2438 H 0.32587 0.26112 0.62301 0.0
H2439 H 0.34838 0.28515 0.57496 0.0
H2440 H 0.37479 0.24883 0.52762 0.0
H2441 H 0.37115 0.26331 0.54879 0.0
C2442 C 0.70672 0.04994 0.63019 0.0
C2443 C 0.71329 0.04273 0.63678 0.0
C2444 C 0.71293 0.0599 0.61701 0.0
C2445 C 0.74745 0.08324 0.59886 0.0
H2446 H 0.72742 0.08693 0.55946 0.0
C2447 C 0.77616 0.11815 0.54088 0.0
C2448 C 0.77097 0.12637 0.53351 0.0
C2449 C 0.76846 0.10791 0.55312 0.0
C2450 C 0.73312 0.08613 0.5705 0.0
H2451 H 0.73128 0.03995 0.63399 0.0
H2452 H 0.74191 0.05707 0.61109 0.0
H2453 H 0.71494 0.06892 0.58133 0.0
H2454 H 0.75344 0.13002 0.53307 0.0
H2455 H 0.74008 0.11223 0.55476 0.0
H2456 H 0.7656 0.10039 0.58822 0.0
C2457 C 0.73211 0.05526 0.61632 0.0
C2458 C 0.72598 0.07581 0.58301 0.0
C2459 C 0.72594 0.04535 0.62942 0.0
C2460 C 0.7578 0.12396 0.53861 0.0
C2461 C 0.75008 0.11368 0.5509 0.0
C2462 C 0.75456 0.09353 0.58643 0.0
C2463 C 0.72584 0.06286 0.61019 0.0
C2464 C 0.73312 0.07414 0.5972 0.0
C2465 C 0.75539 0.10561 0.55841 0.0
C2466 C 0.74754 0.095 0.57197 0.0
H2467 H 0.69699 0.0482 0.63554 0.0
H2468 H 0.70786 0.0656 0.61258 0.0
H2469 H 0.75321 0.08246 0.60985 0.0
H2470 H 0.78632 0.11981 0.53745 0.0
H2471 H 0.77279 0.10176 0.55844 0.0
C2472 C 0.95858 0.66123 0.6246 0.0
C2473 C 0.95945 0.66929 0.63909 0.0
C2474 C 0.94991 0.65991 0.6106 0.0
C2475 C 0.9343 0.66211 0.5794 0.0
H2476 H 0.89922 0.65952 0.59144 0.0
C2477 C 0.89344 0.65603 0.5275 0.0
C2478 C 0.87938 0.64765 0.53176 0.0
C2479 C 0.90382 0.65917 0.53999 0.0
C2480 C 0.9089 0.66006 0.58785 0.0
H2481 H 0.95337 0.68358 0.64972 0.0
H2482 H 0.93824 0.68146 0.62516 0.0
H2483 H 0.91652 0.66459 0.61396 0.0
H2484 H 0.86529 0.63586 0.55258 0.0
H2485 H 0.88332 0.64076 0.57398 0.0
H2486 H 0.92638 0.65696 0.55339 0.0
C2487 C 0.94377 0.67565 0.62484 0.0
C2488 C 0.91895 0.66322 0.60075 0.0
C2489 C 0.95245 0.67694 0.63885 0.0
C2490 C 0.87599 0.64219 0.5487 0.0
C2491 C 0.88635 0.64522 0.56111 0.0
C2492 C 0.92419 0.65883 0.5665 0.0
C2493 C 0.94211 0.66683 0.61073 0.0
C2494 C 0.93176 0.66422 0.59673 0.0
C2495 C 0.90039 0.65392 0.55702 0.0
C2496 C 0.91132 0.65767 0.57059 0.0
H2497 H 0.96436 0.65568 0.62429 0.0
H2498 H 0.94891 0.65299 0.60005 0.0
H2499 H 0.94411 0.66297 0.57577 0.0
H2500 H 0.89646 0.66027 0.51453 0.0
H2501 H 0.91451 0.66598 0.5364 0.0
C2502 C 0.94662 0.65633 0.72637 0.0
C2503 C 0.95674 0.66713 0.71628 0.0
C2504 C 0.94088 0.65927 0.7407 0.0
C2505 C 0.94485 0.68743 0.77073 0.0
H2506 H 0.90529 0.66307 0.77615 0.0
C2507 C 0.90882 0.69901 0.81423 0.0
C2508 C 0.89855 0.68769 0.82358 0.0
C2509 C 0.91741 0.69706 0.80267 0.0
C2510 C 0.91637 0.66987 0.77495 0.0
H2511 H 0.96909 0.68954 0.71362 0.0
H2512 H 0.95872 0.69473 0.73844 0.0
H2513 H 0.91735 0.65874 0.7529 0.0
H2514 H 0.88998 0.66569 0.82911 0.0
H2515 H 0.90483 0.66228 0.80881 0.0
H2516 H 0.9436 0.6988 0.79263 0.0
C2517 C 0.95541 0.68395 0.73545 0.0
C2518 C 0.92332 0.66738 0.76163 0.0
C2519 C 0.96133 0.68099 0.72119 0.0
C2520 C 0.89757 0.67456 0.82181 0.0
C2521 C 0.90608 0.6726 0.81022 0.0
C2522 C 0.93783 0.69002 0.78402 0.0
C2523 C 0.94492 0.6731 0.74518 0.0
C2524 C 0.93767 0.67603 0.75941 0.0
C2525 C 0.91584 0.68374 0.8002 0.0
C2526 C 0.92353 0.68118 0.78632 0.0
H2527 H 0.94303 0.64553 0.7231 0.0
H2528 H 0.93312 0.65065 0.74816 0.0
H2529 H 0.95592 0.69425 0.76949 0.0
H2530 H 0.90979 0.70924 0.8152 0.0
H2531 H 0.92481 0.70581 0.79505 0.0
C2532 C 0.31964 0.28047 0.71299 0.0
C2533 C 0.33384 0.29018 0.71166 0.0
C2534 C 0.31482 0.27066 0.72642 0.0
C2535 C 0.32146 0.26364 0.7703 0.0
H2536 H 0.30434 0.22479 0.7569 0.0
C2537 C 0.3135 0.22094 0.81968 0.0
C2538 C 0.30262 0.20724 0.81715 0.0
C2539 C 0.31615 0.2313 0.80739 0.0
C2540 C 0.30878 0.23553 0.76099 0.0
H2541 H 0.35406 0.29754 0.72364 0.0
H2542 H 0.3455 0.28065 0.74749 0.0
H2543 H 0.31082 0.24261 0.73459 0.0
H2544 H 0.28568 0.19395 0.79977 0.0
H2545 H 0.28967 0.21214 0.77908 0.0
H2546 H 0.31912 0.25673 0.79667 0.0
C2547 C 0.33819 0.28056 0.73798 0.0
C2548 C 0.31258 0.24573 0.74814 0.0
C2549 C 0.34306 0.29015 0.72432 0.0
C2550 C 0.29408 0.20436 0.80234 0.0
C2551 C 0.29655 0.2148 0.79023 0.0
C2552 C 0.31737 0.25343 0.7832 0.0
C2553 C 0.32406 0.27063 0.73898 0.0
C2554 C 0.31914 0.25986 0.75269 0.0
C2555 C 0.3078 0.22836 0.79237 0.0
C2556 C 0.31119 0.23922 0.77873 0.0
H2557 H 0.31231 0.28019 0.70334 0.0
H2558 H 0.30388 0.26307 0.72697 0.0
H2559 H 0.32642 0.2745 0.77408 0.0
H2560 H 0.32013 0.22371 0.83108 0.0
H2561 H 0.32501 0.24152 0.80952 0.0
C2562 C 0.71464 0.03398 0.72623 0.0
C2563 C 0.71299 0.04097 0.71193 0.0
C2564 C 0.72382 0.04148 0.73973 0.0
C2565 C 0.7408 0.07556 0.76111 0.0
H2566 H 0.76809 0.06542 0.77629 0.0
C2567 C 0.78616 0.11114 0.80647 0.0
C2568 C 0.79138 0.10506 0.81821 0.0
C2569 C 0.7761 0.10298 0.79414 0.0
C2570 C 0.7604 0.06828 0.7725 0.0
H2571 H 0.71867 0.06114 0.70096 0.0
H2572 H 0.73473 0.07434 0.72463 0.0
H2573 H 0.75118 0.05166 0.75399 0.0
H2574 H 0.79001 0.0857 0.82664 0.0
H2575 H 0.77199 0.07127 0.80563 0.0
H2576 H 0.74959 0.09188 0.77998 0.0
C2577 C 0.72916 0.06308 0.72527 0.0
C2578 C 0.75077 0.06043 0.75958 0.0
C2579 C 0.72006 0.05556 0.71172 0.0
C2580 C 0.7862 0.09063 0.81761 0.0
C2581 C 0.77594 0.08241 0.80548 0.0
C2582 C 0.75025 0.08327 0.77427 0.0
C2583 C 0.7312 0.05611 0.73935 0.0
C2584 C 0.74101 0.0641 0.75359 0.0
C2585 C 0.77084 0.08849 0.79345 0.0
C2586 C 0.76031 0.07985 0.78001 0.0
H2587 H 0.70879 0.02273 0.72699 0.0
H2588 H 0.72503 0.03585 0.75056 0.0
H2589 H 0.73322 0.07849 0.75693 0.0
H2590 H 0.79013 0.12229 0.80653 0.0
H2591 H 0.77271 0.10814 0.7849 0.0
C2592 C 0.04276 0.35601 0.04716 0.0
C2593 C 0.03171 0.34703 0.03631 0.0
C2594 C 0.05058 0.35123 0.05613 0.0
C2595 C 0.0512 0.31907 0.06966 0.0
H2596 H 0.09045 0.34519 0.07532 0.0
C2597 C 0.09301 0.30521 0.09406 0.0
C2598 C 0.10165 0.31377 0.10756 0.0
C2599 C 0.08368 0.30838 0.08562 0.0
C2600 C 0.07949 0.33782 0.07389 0.0
H2601 H 0.02005 0.32594 0.02648 0.0
H2602 H 0.03408 0.31765 0.04163 0.0
H2603 H 0.07583 0.35233 0.0597 0.0
H2604 H 0.10667 0.33202 0.12326 0.0
H2605 H 0.0908 0.33779 0.10804 0.0
H2606 H 0.0552 0.30444 0.08346 0.0
C2607 C 0.0365 0.32832 0.04358 0.0
C2608 C 0.07106 0.34191 0.06504 0.0
C2609 C 0.02849 0.33307 0.03482 0.0
C2610 C 0.10049 0.32539 0.11263 0.0
C2611 C 0.09133 0.32867 0.10402 0.0
C2612 C 0.05973 0.3149 0.07828 0.0
C2613 C 0.04776 0.3374 0.05421 0.0
C2614 C 0.05675 0.33268 0.06303 0.0
C2615 C 0.08295 0.32027 0.09035 0.0
C2616 C 0.0739 0.32432 0.08066 0.0
H2617 H 0.04536 0.36678 0.04878 0.0
H2618 H 0.05887 0.35844 0.06459 0.0
H2619 H 0.04022 0.31172 0.06854 0.0
H2620 H 0.09372 0.29627 0.08966 0.0
H2621 H 0.07735 0.30181 0.07503 0.0
C2622 C 0.663 0.69489 0.02247 0.0
C2623 C 0.66512 0.68513 0.03181 0.0
C2624 C 0.66751 0.7082 0.02927 0.0
C2625 C 0.69067 0.73314 0.06299 0.0
H2626 H 0.66573 0.74823 0.05873 0.0
C2627 C 0.69554 0.77876 0.1051 0.0
C2628 C 0.69295 0.78869 0.09697 0.0
C2629 C 0.69333 0.76682 0.09613 0.0
C2630 C 0.6729 0.74426 0.05984 0.0
H2631 H 0.67385 0.68173 0.05546 0.0
H2632 H 0.68149 0.70478 0.06745 0.0
H2633 H 0.65972 0.72617 0.0448 0.0
H2634 H 0.68661 0.79416 0.07275 0.0
H2635 H 0.68265 0.77329 0.05717 0.0
H2636 H 0.70369 0.75114 0.07839 0.0
C2637 C 0.67655 0.7023 0.05475 0.0
C2638 C 0.66947 0.73161 0.05182 0.0
C2639 C 0.67209 0.68903 0.04792 0.0
C2640 C 0.68845 0.78658 0.07951 0.0
C2641 C 0.68619 0.77464 0.07058 0.0
C2642 C 0.69407 0.74577 0.07109 0.0
C2643 C 0.67421 0.71201 0.0456 0.0
C2644 C 0.67826 0.72584 0.05339 0.0
C2645 C 0.68844 0.76454 0.07884 0.0
C2646 C 0.68518 0.75143 0.06969 0.0
H2647 H 0.65772 0.69222 0.00997 0.0
H2648 H 0.66572 0.71549 0.02175 0.0
H2649 H 0.69779 0.72912 0.06424 0.0
H2650 H 0.69885 0.77997 0.11859 0.0
H2651 H 0.69501 0.75916 0.10292 0.0
C2652 C 0.3003 0.96278 0.01728 0.0
C2653 C 0.30933 0.97497 0.02643 0.0
C2654 C 0.28717 0.95354 0.02394 0.0
C2655 C 0.26117 0.951 0.05612 0.0
H2656 H 0.24973 0.91166 0.05644 0.0
C2657 C 0.21887 0.9121 0.10201 0.0
C2658 C 0.20951 0.89878 0.09558 0.0
C2659 C 0.23022 0.92139 0.09211 0.0
C2660 C 0.25266 0.92259 0.05625 0.0
H2661 H 0.31154 0.9872 0.04951 0.0
H2662 H 0.28884 0.97116 0.06108 0.0
H2663 H 0.27083 0.92796 0.04129 0.0
H2664 H 0.20459 0.88493 0.07345 0.0
H2665 H 0.22444 0.90113 0.0562 0.0
H2666 H 0.24315 0.94566 0.07134 0.0
C2667 C 0.29176 0.96874 0.0487 0.0
C2668 C 0.26475 0.93193 0.04753 0.0
C2669 C 0.30484 0.97791 0.04211 0.0
C2670 C 0.21172 0.89502 0.07893 0.0
C2671 C 0.22309 0.90431 0.06902 0.0
C2672 C 0.2491 0.94167 0.06484 0.0
C2673 C 0.28281 0.95637 0.03982 0.0
C2674 C 0.26928 0.94628 0.04761 0.0
C2675 C 0.2325 0.91759 0.07551 0.0
C2676 C 0.24482 0.92738 0.06524 0.0
H2677 H 0.30346 0.96024 0.00516 0.0
H2678 H 0.28047 0.94417 0.01669 0.0
H2679 H 0.26423 0.96195 0.05617 0.0
H2680 H 0.21761 0.91526 0.11489 0.0
H2681 H 0.23739 0.93145 0.09762 0.0
C2682 C 0.34768 0.04751 0.99665 0.0
C2683 C 0.34251 0.03344 0.99232 0.0
C2684 C 0.34257 0.05535 0.98837 0.0
C2685 C 0.31372 0.05284 0.96063 0.0
H2686 H 0.34076 0.09108 0.94979 0.0
C2687 C 0.30314 0.08887 0.9149 0.0
C2688 C 0.30802 0.10257 0.92085 0.0
C2689 C 0.30644 0.07983 0.92392 0.0
C2690 C 0.33306 0.08045 0.95285 0.0
H2691 H 0.32767 0.01647 0.97616 0.0
H2692 H 0.31899 0.03029 0.96131 0.0
H2693 H 0.34817 0.0764 0.96478 0.0
H2694 H 0.31966 0.11723 0.94145 0.0
H2695 H 0.32565 0.10158 0.95687 0.0
H2696 H 0.29869 0.05696 0.94821 0.0
C2697 C 0.32683 0.0352 0.97135 0.0
C2698 C 0.33729 0.07203 0.96152 0.0
C2699 C 0.33184 0.02729 0.97982 0.0
C2700 C 0.316 0.10688 0.93624 0.0
C2701 C 0.3194 0.09791 0.94513 0.0
C2702 C 0.30952 0.06126 0.95176 0.0
C2703 C 0.33229 0.0494 0.97535 0.0
C2704 C 0.32767 0.05816 0.96572 0.0
C2705 C 0.31479 0.08435 0.93897 0.0
C2706 C 0.31914 0.07519 0.94796 0.0
H2707 H 0.35575 0.05254 0.00641 0.0
H2708 H 0.34676 0.06614 0.99216 0.0
H2709 H 0.306 0.04225 0.96377 0.0
H2710 H 0.29709 0.08524 0.90301 0.0
H2711 H 0.30283 0.06946 0.91881 0.0
C2712 C 0.98245 0.30854 0.97291 0.0
C2713 C 0.97858 0.31163 0.98894 0.0
C2714 C 0.97407 0.29575 0.96475 0.0
C2715 C 0.94525 0.25993 0.97202 0.0
H2716 H 0.93794 0.26155 0.92287 0.0
C2717 C 0.89957 0.21468 0.93564 0.0
C2718 C 0.90161 0.21195 0.91838 0.0
C2719 C 0.90981 0.22627 0.9445 0.0
C2720 C 0.94003 0.26085 0.93652 0.0
H2721 H 0.96315 0.30355 0.0093 0.0
H2722 H 0.94848 0.28124 0.99502 0.0
H2723 H 0.95447 0.28266 0.93804 0.0
H2724 H 0.91613 0.21924 0.89696 0.0
H2725 H 0.93413 0.23929 0.91255 0.0
H2726 H 0.93067 0.23813 0.97051 0.0
C2727 C 0.95804 0.28867 0.98881 0.0
C2728 C 0.94951 0.27297 0.94523 0.0
C2729 C 0.96641 0.30148 0.99695 0.0
C2730 C 0.91425 0.22096 0.91029 0.0
C2731 C 0.92451 0.23255 0.91917 0.0
C2732 C 0.93578 0.24779 0.96329 0.0
C2733 C 0.96165 0.28576 0.97247 0.0
C2734 C 0.95215 0.27268 0.96311 0.0
C2735 C 0.92237 0.23541 0.93633 0.0
C2736 C 0.93296 0.24813 0.94547 0.0
H2737 H 0.9918 0.31612 0.96644 0.0
H2738 H 0.97725 0.29374 0.9523 0.0
H2739 H 0.94719 0.25934 0.98574 0.0
H2740 H 0.89002 0.20785 0.94233 0.0
H2741 H 0.90775 0.22823 0.95764 0.0
C2742 C 0.69226 0.66516 0.98229 0.0
C2743 C 0.68566 0.65116 0.98767 0.0
C2744 C 0.70449 0.67074 0.97262 0.0
C2745 C 0.73451 0.68133 0.96105 0.0
H2746 H 0.73695 0.65845 0.92457 0.0
C2747 C 0.78612 0.69233 0.92899 0.0
C2748 C 0.7858 0.68928 0.9112 0.0
C2749 C 0.77387 0.68917 0.9377 0.0
C2750 C 0.7364 0.66506 0.93456 0.0
H2751 H 0.68694 0.63213 0.98724 0.0
H2752 H 0.70817 0.64186 0.97052 0.0
H2753 H 0.71555 0.64996 0.94082 0.0
H2754 H 0.77258 0.6814 0.88834 0.0
H2755 H 0.75126 0.67596 0.90349 0.0
H2756 H 0.75543 0.69645 0.95471 0.0
C2757 C 0.7038 0.64848 0.97357 0.0
C2758 C 0.72419 0.66011 0.94402 0.0
C2759 C 0.69165 0.64293 0.98326 0.0
C2760 C 0.77311 0.68361 0.90214 0.0
C2761 C 0.7609 0.68049 0.91081 0.0
C2762 C 0.74679 0.68628 0.9516 0.0
C2763 C 0.71033 0.66242 0.96806 0.0
C2764 C 0.72314 0.66811 0.9575 0.0
C2765 C 0.76109 0.68293 0.92878 0.0
C2766 C 0.74789 0.67815 0.93832 0.0
H2767 H 0.68798 0.67182 0.98547 0.0
H2768 H 0.70925 0.68149 0.96846 0.0
H2769 H 0.73404 0.6877 0.97142 0.0
H2770 H 0.79573 0.6966 0.93635 0.0
H2771 H 0.77436 0.69107 0.95157 0.0
C2772 C 0.96164 0.66064 0.99542 0.0
C2773 C 0.9747 0.66561 0.98773 0.0
C2774 C 0.95231 0.66465 0.98892 0.0
C2775 C 0.94944 0.69112 0.96292 0.0
H2776 H 0.91251 0.66119 0.95191 0.0
C2777 C 0.91113 0.69928 0.91951 0.0
C2778 C 0.89688 0.6911 0.9227 0.0
C2779 C 0.92073 0.69703 0.92886 0.0
C2780 C 0.92266 0.66974 0.9552 0.0
H2781 H 0.98843 0.67906 0.96764 0.0
H2782 H 0.97217 0.68621 0.95644 0.0
H2783 H 0.92908 0.65591 0.96607 0.0
H2784 H 0.88149 0.67466 0.9387 0.0
H2785 H 0.8982 0.67103 0.9555 0.0
H2786 H 0.94303 0.705 0.95223 0.0
C2787 C 0.96916 0.67918 0.96745 0.0
C2788 C 0.93218 0.66668 0.96326 0.0
C2789 C 0.97842 0.67503 0.9738 0.0
C2790 C 0.89243 0.68098 0.93585 0.0
C2791 C 0.90201 0.67887 0.94538 0.0
C2792 C 0.93986 0.69423 0.95504 0.0
C2793 C 0.95593 0.67385 0.97476 0.0
C2794 C 0.94569 0.67731 0.96707 0.0
C2795 C 0.91628 0.68666 0.94178 0.0
C2796 C 0.92636 0.68355 0.95093 0.0
H2797 H 0.95848 0.65337 0.00617 0.0
H2798 H 0.94222 0.66048 0.99488 0.0
H2799 H 0.95978 0.69953 0.96585 0.0
H2800 H 0.9148 0.70707 0.90932 0.0
H2801 H 0.93158 0.70311 0.92553 0.0
C2802 C 0.33379 0.31044 0.98477 0.0
C2803 C 0.34814 0.31921 0.9871 0.0
C2804 C 0.3287 0.29764 0.9762 0.0
C2805 C 0.33939 0.27186 0.96354 0.0
H2806 H 0.30798 0.25815 0.93181 0.0
C2807 C 0.32608 0.22676 0.91631 0.0
C2808 C 0.31217 0.21608 0.91554 0.0
C2809 C 0.32977 0.23916 0.92509 0.0
C2810 C 0.31669 0.26181 0.94076 0.0
H2811 H 0.36839 0.32154 0.98173 0.0
H2812 H 0.35958 0.29956 0.96653 0.0
H2813 H 0.31573 0.28021 0.94709 0.0
H2814 H 0.29119 0.21026 0.9232 0.0
H2815 H 0.29767 0.23213 0.93825 0.0
H2816 H 0.34054 0.25364 0.95692 0.0
C2817 C 0.3522 0.30231 0.97173 0.0
C2818 C 0.32111 0.27442 0.94955 0.0
C2819 C 0.35726 0.315 0.98038 0.0
C2820 C 0.30199 0.2183 0.92337 0.0
C2821 C 0.30568 0.23081 0.93203 0.0
C2822 C 0.33506 0.25937 0.95465 0.0
C2823 C 0.33786 0.29338 0.96969 0.0
C2824 C 0.33262 0.27967 0.96091 0.0
C2825 C 0.31963 0.24128 0.93317 0.0
C2826 C 0.32376 0.25428 0.94304 0.0
H2827 H 0.32647 0.31334 0.98983 0.0
H2828 H 0.31759 0.29097 0.97499 0.0
H2829 H 0.34806 0.27538 0.97251 0.0
H2830 H 0.33416 0.22557 0.91008 0.0
H2831 H 0.34058 0.24716 0.92549 0.0
C2832 C 0.69327 0.02272 0.97444 0.0
C2833 C 0.68981 0.0261 0.99057 0.0
C2834 C 0.7059 0.03169 0.96661 0.0
C2835 C 0.74101 0.0613 0.97466 0.0
H2836 H 0.73922 0.06827 0.92547 0.0
C2837 C 0.78674 0.10576 0.93755 0.0
C2838 C 0.78912 0.10304 0.92042 0.0
C2839 C 0.77504 0.09607 0.94661 0.0
C2840 C 0.73996 0.0663 0.93915 0.0
H2841 H 0.69711 0.04129 0.01144 0.0
H2842 H 0.71923 0.05704 0.99769 0.0
H2843 H 0.71826 0.05182 0.94055 0.0
H2844 H 0.78105 0.0879 0.89946 0.0
H2845 H 0.76087 0.07088 0.91539 0.0
H2846 H 0.76275 0.07584 0.97321 0.0
C2847 C 0.71216 0.0474 0.99116 0.0
C2848 C 0.72793 0.05688 0.9478 0.0
C2849 C 0.69948 0.03841 0.999 0.0
C2850 C 0.77962 0.0903 0.91268 0.0
C2851 C 0.76795 0.0806 0.92175 0.0
C2852 C 0.75308 0.07072 0.96597 0.0
C2853 C 0.71539 0.04425 0.97472 0.0
C2854 C 0.7283 0.05424 0.96565 0.0
C2855 C 0.76545 0.08341 0.93877 0.0
C2856 C 0.7527 0.07333 0.9481 0.0
H2857 H 0.6861 0.01326 0.96764 0.0
H2858 H 0.70819 0.02884 0.95409 0.0
H2859 H 0.74165 0.05939 0.98838 0.0
H2860 H 0.79394 0.1154 0.94398 0.0
H2861 H 0.77338 0.09863 0.95964 0.0
C2862 C 0.64835 0.95545 0.0347 0.0
C2863 C 0.6568 0.9696 0.03059 0.0
C2864 C 0.65401 0.94782 0.04215 0.0
C2865 C 0.68441 0.95122 0.06642 0.0
H2866 H 0.66915 0.91273 0.05214 0.0
C2867 C 0.69219 0.911 0.10614 0.0
C2868 C 0.69268 0.90018 0.09719 0.0
C2869 C 0.68967 0.92057 0.09713 0.0
C2870 C 0.67372 0.92351 0.05613 0.0
H2871 H 0.67791 0.98683 0.03122 0.0
H2872 H 0.68787 0.97338 0.04405 0.0
H2873 H 0.6614 0.92731 0.03777 0.0
H2874 H 0.69176 0.89134 0.07178 0.0
H2875 H 0.68773 0.90823 0.05596 0.0
H2876 H 0.69692 0.94743 0.08461 0.0
C2877 C 0.67679 0.96827 0.04167 0.0
C2878 C 0.6691 0.93183 0.04804 0.0
C2879 C 0.67109 0.97596 0.03426 0.0
C2880 C 0.6912 0.89946 0.07901 0.0
C2881 C 0.68885 0.90911 0.06998 0.0
C2882 C 0.68911 0.9429 0.07446 0.0
C2883 C 0.66831 0.95408 0.04559 0.0
C2884 C 0.67417 0.9457 0.0533 0.0
C2885 C 0.68774 0.9196 0.07896 0.0
C2886 C 0.68367 0.92888 0.06958 0.0
H2887 H 0.63728 0.9502 0.03224 0.0
H2888 H 0.64711 0.93701 0.04538 0.0
H2889 H 0.68849 0.96185 0.07084 0.0
H2890 H 0.69319 0.91172 0.12018 0.0
H2891 H 0.68871 0.92838 0.10452 0.0
C2892 C 0.02429 0.69314 0.03797 0.0
C2893 C 0.03122 0.68934 0.02575 0.0
C2894 C 0.03134 0.7059 0.04673 0.0
C2895 C 0.06144 0.74094 0.04381 0.0
H2896 H 0.06151 0.74059 0.09426 0.0
C2897 C 0.10303 0.7866 0.08358 0.0
C2898 C 0.09963 0.78986 0.09984 0.0
C2899 C 0.09344 0.77489 0.07431 0.0
C2900 C 0.06141 0.74098 0.08018 0.0
H2901 H 0.05083 0.69616 0.01274 0.0
H2902 H 0.06298 0.71848 0.02775 0.0
H2903 H 0.04667 0.71919 0.07826 0.0
H2904 H 0.08327 0.78337 0.11892 0.0
H2905 H 0.06634 0.76324 0.10242 0.0
H2906 H 0.07607 0.76267 0.04558 0.0
C2907 C 0.05215 0.71155 0.03064 0.0
C2908 C 0.05292 0.72869 0.07104 0.0
C2909 C 0.0452 0.69873 0.02214 0.0
C2910 C 0.08623 0.78126 0.10639 0.0
C2911 C 0.07657 0.76959 0.09701 0.0
C2912 C 0.06978 0.75326 0.05293 0.0
C2913 C 0.04534 0.71521 0.04314 0.0
C2914 C 0.0531 0.7285 0.05278 0.0
C2915 C 0.08009 0.76618 0.08091 0.0
C2916 C 0.07013 0.75338 0.07124 0.0
H2917 H 0.01353 0.68611 0.04107 0.0
H2918 H 0.02585 0.70852 0.05628 0.0
H2919 H 0.06162 0.74111 0.02972 0.0
H2920 H 0.11314 0.79309 0.07796 0.0
H2921 H 0.09664 0.77253 0.06211 0.0
C2922 C 0.30952 0.33132 0.04767 0.0
C2923 C 0.31277 0.3381 0.03147 0.0
C2924 C 0.29649 0.32672 0.05506 0.0
C2925 C 0.26695 0.33339 0.05361 0.0
H2926 H 0.24844 0.29923 0.08032 0.0
C2927 C 0.21267 0.31395 0.08266 0.0
C2928 C 0.21074 0.3091 0.09992 0.0
C2929 C 0.22454 0.3165 0.07351 0.0
C2930 C 0.25353 0.30885 0.073 0.0
H2931 H 0.30474 0.34495 0.01005 0.0
H2932 H 0.28194 0.33672 0.0228 0.0
H2933 H 0.27009 0.30527 0.06552 0.0
H2934 H 0.21977 0.30303 0.12101 0.0
H2935 H 0.24046 0.30744 0.10501 0.0
H2936 H 0.25047 0.33703 0.06117 0.0
C2937 C 0.28954 0.33519 0.02996 0.0
C2938 C 0.26595 0.31232 0.06452 0.0
C2939 C 0.30259 0.33983 0.02259 0.0
C2940 C 0.22084 0.30659 0.10767 0.0
C2941 C 0.23271 0.30912 0.0985 0.0
C2942 C 0.25454 0.32991 0.06204 0.0
C2943 C 0.28639 0.32875 0.0464 0.0
C2944 C 0.27286 0.32468 0.0548 0.0
C2945 C 0.23476 0.31425 0.08137 0.0
C2946 C 0.24772 0.31764 0.07193 0.0
H2947 H 0.31715 0.32986 0.05486 0.0
H2948 H 0.2945 0.32195 0.06781 0.0
H2949 H 0.27211 0.34312 0.04652 0.0
H2950 H 0.20498 0.31576 0.07618 0.0
H2951 H 0.22569 0.32022 0.06024 0.0
C2952 C 0.69131 0.66856 0.37751 0.0
C2953 C 0.69783 0.67832 0.36415 0.0
C2954 C 0.69843 0.66283 0.38631 0.0
C2955 C 0.72575 0.65413 0.38273 0.0
H2956 H 0.73372 0.66346 0.43161 0.0
C2957 C 0.76898 0.64927 0.41843 0.0
C2958 C 0.76786 0.64659 0.43635 0.0
C2959 C 0.75909 0.65143 0.40971 0.0
C2960 C 0.73136 0.66043 0.4181 0.0
H2961 H 0.71665 0.68934 0.34907 0.0
H2962 H 0.72886 0.67892 0.36405 0.0
H2963 H 0.71829 0.66963 0.416 0.0
H2964 H 0.75541 0.64353 0.45919 0.0
H2965 H 0.7377 0.6466 0.44389 0.0
H2966 H 0.7385 0.64467 0.3847 0.0
C2967 C 0.71835 0.67589 0.36784 0.0
C2968 C 0.72256 0.66405 0.40916 0.0
C2969 C 0.71139 0.68188 0.35935 0.0
C2970 C 0.75652 0.64572 0.44536 0.0
C2971 C 0.74645 0.64758 0.43658 0.0
C2972 C 0.7343 0.65022 0.39173 0.0
C2973 C 0.712 0.66649 0.38154 0.0
C2974 C 0.71993 0.66118 0.39135 0.0
C2975 C 0.74769 0.65066 0.41866 0.0
C2976 C 0.7375 0.65361 0.40946 0.0
H2977 H 0.6809 0.6657 0.38152 0.0
H2978 H 0.69338 0.6556 0.39688 0.0
H2979 H 0.72376 0.65175 0.36899 0.0
H2980 H 0.77774 0.65011 0.41127 0.0
H2981 H 0.76065 0.65408 0.39603 0.0
C2982 C 0.33748 0.02202 0.38199 0.0
C2983 C 0.33081 0.01904 0.36567 0.0
C2984 C 0.34194 0.03494 0.38993 0.0
C2985 C 0.34972 0.07116 0.3816 0.0
H2986 H 0.3407 0.07044 0.43037 0.0
C2987 C 0.35116 0.11824 0.41633 0.0
C2988 C 0.35587 0.12091 0.43369 0.0
C2989 C 0.34927 0.10624 0.40784 0.0
C2990 C 0.3435 0.07088 0.41682 0.0
H2991 H 0.324 0.02744 0.34462 0.0
H2992 H 0.33174 0.04995 0.35849 0.0
H2993 H 0.33568 0.04889 0.41579 0.0
H2994 H 0.36233 0.11304 0.45568 0.0
H2995 H 0.35934 0.09229 0.44075 0.0
H2996 H 0.35745 0.09316 0.38262 0.0
C2997 C 0.33361 0.04234 0.36512 0.0
C2998 C 0.34061 0.05851 0.40846 0.0
C2999 C 0.32911 0.02941 0.3572 0.0
C3000 C 0.35882 0.11138 0.44226 0.0
C3001 C 0.35695 0.09939 0.43376 0.0
C3002 C 0.35264 0.08355 0.38999 0.0
C3003 C 0.33986 0.04517 0.3817 0.0
C3004 C 0.3436 0.05848 0.39072 0.0
C3005 C 0.35205 0.09661 0.41648 0.0
C3006 C 0.34948 0.08355 0.40767 0.0
H3007 H 0.33899 0.01427 0.38884 0.0
H3008 H 0.34691 0.03686 0.4026 0.0
H3009 H 0.35231 0.07151 0.36798 0.0
H3010 H 0.34895 0.12544 0.40927 0.0
H3011 H 0.34535 0.10437 0.39459 0.0
C3012 C 0.96842 0.29575 0.35239 0.0
C3013 C 0.9779 0.30775 0.36154 0.0
C3014 C 0.95527 0.28689 0.35921 0.0
C3015 C 0.93001 0.28496 0.39215 0.0
H3016 H 0.917 0.24531 0.39058 0.0
C3017 C 0.88584 0.24546 0.43582 0.0
C3018 C 0.87638 0.23246 0.42864 0.0
C3019 C 0.89754 0.25487 0.42651 0.0
C3020 C 0.92036 0.25633 0.39093 0.0
H3021 H 0.98089 0.32004 0.38479 0.0
H3022 H 0.95809 0.30458 0.3967 0.0
H3023 H 0.93847 0.26138 0.37603 0.0
H3024 H 0.87158 0.21937 0.40575 0.0
H3025 H 0.89198 0.23578 0.38953 0.0
H3026 H 0.912 0.27991 0.40728 0.0
C3027 C 0.9607 0.30206 0.38419 0.0
C3028 C 0.93268 0.26556 0.38256 0.0
C3029 C 0.97383 0.31089 0.37739 0.0
C3030 C 0.87879 0.22919 0.4118 0.0
C3031 C 0.89048 0.2386 0.40249 0.0
C3032 C 0.9177 0.27574 0.40053 0.0
C3033 C 0.95132 0.28985 0.3753 0.0
C3034 C 0.93773 0.28 0.38321 0.0
C3035 C 0.90005 0.25152 0.40977 0.0
C3036 C 0.91279 0.26131 0.40017 0.0
H3037 H 0.97124 0.29306 0.34012 0.0
H3038 H 0.94823 0.27766 0.35192 0.0
H3039 H 0.93349 0.29601 0.39268 0.0
H3040 H 0.88441 0.24823 0.44884 0.0
H3041 H 0.9048 0.26465 0.43261 0.0
C3042 C 0.01931 0.3791 0.32707 0.0
C3043 C 0.0133 0.36475 0.32373 0.0
C3044 C 0.01437 0.38705 0.31869 0.0
C3045 C 0.99725 0.38881 0.27896 0.0
H3046 H 0.99163 0.41581 0.3046 0.0
C3047 C 0.97982 0.42456 0.24478 0.0
C3048 C 0.98602 0.43844 0.25057 0.0
C3049 C 0.98169 0.41466 0.25404 0.0
C3050 C 0.9933 0.40844 0.29719 0.0
H3051 H 0.99731 0.34749 0.30901 0.0
H3052 H 0.98882 0.36153 0.29407 0.0
H3053 H 0.9975 0.40013 0.32023 0.0
H3054 H 0.99883 0.45266 0.27093 0.0
H3055 H 0.00256 0.43563 0.28659 0.0
H3056 H 0.9936 0.39743 0.25586 0.0
C3057 C 0.99732 0.36654 0.30328 0.0
C3058 C 0.99658 0.39941 0.30618 0.0
C3059 C 0.00214 0.35851 0.3119 0.0
C3060 C 0.99406 0.44213 0.26591 0.0
C3061 C 0.99601 0.43227 0.27508 0.0
C3062 C 0.99412 0.39796 0.26993 0.0
C3063 C 0.00342 0.38089 0.30659 0.0
C3064 C 0.99877 0.38963 0.29715 0.0
C3065 C 0.98987 0.4184 0.26927 0.0
C3066 C 0.99229 0.40803 0.27891 0.0
H3067 H 0.02788 0.38424 0.33617 0.0
H3068 H 0.01935 0.39811 0.32137 0.0
H3069 H 0.99902 0.38146 0.27165 0.0
H3070 H 0.97368 0.42135 0.23293 0.0
H3071 H 0.97667 0.40405 0.24926 0.0
C3072 C 0.63025 0.63785 0.33259 0.0
C3073 C 0.64224 0.64727 0.32361 0.0
C3074 C 0.62114 0.62484 0.3254 0.0
C3075 C 0.61826 0.59961 0.2916 0.0
H3076 H 0.57899 0.58754 0.29364 0.0
C3077 C 0.57749 0.55595 0.2478 0.0
C3078 C 0.56463 0.54667 0.2552 0.0
C3079 C 0.58725 0.56756 0.25713 0.0
C3080 C 0.5899 0.59065 0.29316 0.0
H3081 H 0.65426 0.65032 0.30024 0.0
H3082 H 0.6383 0.62773 0.28762 0.0
H3083 H 0.59557 0.60888 0.3084 0.0
H3084 H 0.55214 0.54203 0.27843 0.0
H3085 H 0.56915 0.5623 0.29469 0.0
H3086 H 0.61257 0.58146 0.27612 0.0
C3087 C 0.636 0.6303 0.30031 0.0
C3088 C 0.59941 0.60288 0.30164 0.0
C3089 C 0.64511 0.64329 0.3075 0.0
C3090 C 0.56185 0.54913 0.27224 0.0
C3091 C 0.57159 0.56073 0.28156 0.0
C3092 C 0.60875 0.58737 0.2831 0.0
C3093 C 0.62382 0.62098 0.30907 0.0
C3094 C 0.61371 0.60757 0.30085 0.0
C3095 C 0.58436 0.57014 0.27407 0.0
C3096 C 0.59447 0.58281 0.28367 0.0
H3097 H 0.62779 0.64059 0.34507 0.0
H3098 H 0.61194 0.61782 0.33259 0.0
H3099 H 0.62919 0.60283 0.29095 0.0
H3100 H 0.57988 0.55445 0.23462 0.0
H3101 H 0.59691 0.57471 0.25089 0.0
C3102 C 0.35217 0.97267 0.31431 0.0
C3103 C 0.34825 0.98225 0.32032 0.0
C3104 C 0.3648 0.97721 0.30599 0.0
C3105 C 0.39295 0.00698 0.28287 0.0
H3106 H 0.41283 0.98706 0.29321 0.0
C3107 C 0.44772 0.02231 0.25581 0.0
C3108 C 0.44918 0.01117 0.24938 0.0
C3109 C 0.43571 0.01979 0.26468 0.0
C3110 C 0.40737 0.99268 0.29012 0.0
H3111 H 0.35459 0.00421 0.32202 0.0
H3112 H 0.37685 0.01219 0.30761 0.0
H3113 H 0.39151 0.98104 0.30857 0.0
H3114 H 0.43882 0.98869 0.2466 0.0
H3115 H 0.41812 0.98435 0.2623 0.0
H3116 H 0.40899 0.01865 0.2644 0.0
C3117 C 0.37 0.00111 0.30923 0.0
C3118 C 0.39512 0.98921 0.29889 0.0
C3119 C 0.35726 0.99654 0.31754 0.0
C3120 C 0.43824 0.9975 0.25175 0.0
C3121 C 0.42634 0.995 0.2607 0.0
C3122 C 0.4053 0.01052 0.27415 0.0
C3123 C 0.37396 0.99149 0.30353 0.0
C3124 C 0.38759 0.99611 0.29513 0.0
C3125 C 0.42499 0.0061 0.26741 0.0
C3126 C 0.41248 0.0032 0.27746 0.0
H3127 H 0.34547 0.96157 0.31602 0.0
H3128 H 0.36734 0.96948 0.3014 0.0
H3129 H 0.38737 0.01245 0.2796 0.0
H3130 H 0.45598 0.03295 0.25435 0.0
H3131 H 0.43497 0.02854 0.26979 0.0
C3132 C 0.64798 0.00199 0.30008 0.0
C3133 C 0.64535 0.99625 0.31689 0.0
C3134 C 0.63885 0.00565 0.29211 0.0
C3135 C 0.61037 0.01314 0.30057 0.0
H3136 H 0.59947 0.00038 0.25308 0.0
C3137 C 0.56376 0.00231 0.24888 0.0
C3138 C 0.56347 0.01487 0.25001 0.0
C3139 C 0.57432 0.00091 0.25701 0.0
C3140 C 0.60238 0.00398 0.26635 0.0
H3141 H 0.63135 0.99035 0.33879 0.0
H3142 H 0.61542 0.99675 0.32487 0.0
H3143 H 0.61711 0.99678 0.26757 0.0
H3144 H 0.57394 0.03576 0.26072 0.0
H3145 H 0.59246 0.03331 0.27493 0.0
H3146 H 0.59541 0.02009 0.29941 0.0
C3147 C 0.62457 0.99846 0.31788 0.0
C3148 C 0.6126 0.00206 0.27459 0.0
C3149 C 0.63366 0.99473 0.32582 0.0
C3150 C 0.57395 0.02599 0.25952 0.0
C3151 C 0.58447 0.02455 0.26777 0.0
C3152 C 0.6002 0.01514 0.29228 0.0
C3153 C 0.62693 0.00373 0.30082 0.0
C3154 C 0.61663 0.00651 0.29184 0.0
C3155 C 0.5848 0.01201 0.26654 0.0
C3156 C 0.596 0.01045 0.27514 0.0
H3157 H 0.65692 0.00333 0.29288 0.0
H3158 H 0.64104 0.00986 0.27904 0.0
H3159 H 0.61333 0.01677 0.31382 0.0
H3160 H 0.55591 0.99361 0.2415 0.0
H3161 H 0.57421 0.99107 0.25598 0.0
C3162 C 0.00542 0.64433 0.31832 0.0
C3163 C 0.01957 0.65384 0.32097 0.0
C3164 C 0.00127 0.63189 0.3092 0.0
C3165 C 0.01474 0.60846 0.29597 0.0
H3166 H 0.98347 0.59294 0.26396 0.0
C3167 C 0.00492 0.56442 0.24844 0.0
C3168 C 0.99131 0.55318 0.24723 0.0
C3169 C 0.00773 0.57653 0.25739 0.0
C3170 C 0.99215 0.59711 0.27298 0.0
H3171 H 0.04045 0.65798 0.31542 0.0
H3172 H 0.03328 0.63666 0.29929 0.0
H3173 H 0.98949 0.6145 0.27956 0.0
H3174 H 0.96994 0.54601 0.25445 0.0
H3175 H 0.97486 0.56731 0.26983 0.0
H3176 H 0.01756 0.59124 0.28918 0.0
C3177 C 0.02533 0.63852 0.30467 0.0
C3178 C 0.99559 0.60943 0.28195 0.0
C3179 C 0.02945 0.65083 0.31386 0.0
C3180 C 0.98052 0.5545 0.25492 0.0
C3181 C 0.98333 0.56669 0.26377 0.0
C3182 C 0.01138 0.59625 0.28692 0.0
C3183 C 0.01121 0.62877 0.30246 0.0
C3184 C 0.00703 0.61534 0.29341 0.0
C3185 C 0.99698 0.57777 0.26525 0.0
C3186 C 1.00014 0.5905 0.27521 0.0
H3187 H 0.99754 0.64632 0.32366 0.0
H3188 H 0.9903 0.62458 0.30782 0.0
H3189 H 0.0234 0.61249 0.30502 0.0
H3190 H 0.01344 0.56392 0.24236 0.0
H3191 H 0.01832 0.58499 0.25807 0.0
C3192 C 0.36458 0.37265 0.33296 0.0
C3193 C 0.35506 0.36013 0.32481 0.0
C3194 C 0.37726 0.38159 0.32508 0.0
C3195 C 0.39311 0.39046 0.2818 0.0
H3196 H 0.42782 0.41024 0.3073 0.0
C3197 C 0.44475 0.4242 0.24672 0.0
C3198 C 0.45402 0.43709 0.2543 0.0
C3199 C 0.43313 0.41445 0.25583 0.0
C3200 C 0.41818 0.40489 0.30003 0.0
H3201 H 0.35158 0.34688 0.30238 0.0
H3202 H 0.37367 0.36239 0.28875 0.0
H3203 H 0.40678 0.39378 0.32257 0.0
H3204 H 0.45853 0.44968 0.27761 0.0
H3205 H 0.43806 0.43282 0.29332 0.0
H3206 H 0.40435 0.40164 0.25935 0.0
C3207 C 0.37127 0.36542 0.30108 0.0
C3208 C 0.40614 0.39546 0.30878 0.0
C3209 C 0.35865 0.3565 0.30894 0.0
C3210 C 0.45149 0.43993 0.2713 0.0
C3211 C 0.43985 0.43018 0.28039 0.0
C3212 C 0.4051 0.3999 0.27309 0.0
C3213 C 0.38061 0.37818 0.30889 0.0
C3214 C 0.39349 0.38812 0.29974 0.0
C3215 C 0.43048 0.41737 0.27272 0.0
C3216 C 0.41779 0.40722 0.28208 0.0
H3217 H 0.3621 0.37573 0.34519 0.0
H3218 H 0.38421 0.39139 0.33137 0.0
H3219 H 0.38346 0.38517 0.27453 0.0
H3220 H 0.44631 0.42172 0.2336 0.0
H3221 H 0.42622 0.4046 0.24961 0.0
C3222 C 0.31825 0.29064 0.36175 0.0
C3223 C 0.3231 0.30474 0.36564 0.0
C3224 C 0.32432 0.28348 0.36951 0.0
C3225 C 0.34163 0.28189 0.40856 0.0
H3226 H 0.35219 0.25933 0.38089 0.0
C3227 C 0.36093 0.24706 0.44072 0.0
C3228 C 0.35614 0.23382 0.43331 0.0
C3229 C 0.35898 0.25715 0.43208 0.0
C3230 C 0.34917 0.26546 0.38884 0.0
H3231 H 0.33813 0.32239 0.38075 0.0
H3232 H 0.34851 0.30965 0.39477 0.0
H3233 H 0.34477 0.27431 0.36646 0.0
H3234 H 0.34596 0.22102 0.41066 0.0
H3235 H 0.34195 0.23825 0.39609 0.0
H3236 H 0.34526 0.27256 0.43095 0.0
C3237 C 0.34011 0.30427 0.38551 0.0
C3238 C 0.34502 0.2741 0.38055 0.0
C3239 C 0.3342 0.31154 0.37746 0.0
C3240 C 0.34958 0.23101 0.41693 0.0
C3241 C 0.34749 0.24102 0.4084 0.0
C3242 C 0.34558 0.27308 0.41688 0.0
C3243 C 0.33521 0.29019 0.38156 0.0
C3244 C 0.34101 0.28222 0.39034 0.0
C3245 C 0.35209 0.25421 0.41589 0.0
C3246 C 0.34916 0.26455 0.40712 0.0
H3247 H 0.30976 0.2851 0.35265 0.0
H3248 H 0.32028 0.27259 0.36637 0.0
H3249 H 0.33847 0.28798 0.41638 0.0
H3250 H 0.36592 0.24958 0.45339 0.0
H3251 H 0.36284 0.26724 0.43816 0.0
C3252 C 0.71377 0.02159 0.36859 0.0
C3253 C 0.7003 0.01712 0.36221 0.0
C3254 C 0.72128 0.03443 0.37687 0.0
C3255 C 0.71803 0.06225 0.3992 0.0
H3256 H 0.75747 0.08328 0.38996 0.0
C3257 C 0.75537 0.118 0.42626 0.0
C3258 C 0.76796 0.11984 0.43324 0.0
C3259 C 0.74631 0.10572 0.41739 0.0
C3260 C 0.74648 0.0775 0.39273 0.0
H3261 H 0.68411 0.02268 0.35976 0.0
H3262 H 0.69739 0.04532 0.37407 0.0
H3263 H 0.74312 0.06158 0.37448 0.0
H3264 H 0.78048 0.10989 0.43711 0.0
H3265 H 0.76487 0.08873 0.4214 0.0
H3266 H 0.72153 0.07837 0.41747 0.0
C3267 C 0.70204 0.03874 0.37279 0.0
C3268 C 0.73825 0.06504 0.3839 0.0
C3269 C 0.69445 0.02579 0.36453 0.0
C3270 C 0.77108 0.10901 0.43151 0.0
C3271 C 0.76211 0.09685 0.42256 0.0
C3272 C 0.72628 0.07483 0.40798 0.0
C3273 C 0.7156 0.04325 0.37889 0.0
C3274 C 0.72398 0.0571 0.38729 0.0
C3275 C 0.74972 0.09514 0.41523 0.0
C3276 C 0.74064 0.08241 0.40507 0.0
H3277 H 0.71859 0.01516 0.36724 0.0
H3278 H 0.73156 0.0374 0.38178 0.0
H3279 H 0.70708 0.05635 0.40218 0.0
H3280 H 0.75269 0.12617 0.42724 0.0
H3281 H 0.73683 0.10468 0.41181 0.0
C3282 C 0.97725 0.66482 0.37929 0.0
C3283 C 0.98151 0.67206 0.36345 0.0
C3284 C 0.96409 0.66074 0.38588 0.0
C3285 C 0.93614 0.66973 0.38332 0.0
H3286 H 0.91536 0.63527 0.40891 0.0
C3287 C 0.88201 0.65291 0.41194 0.0
C3288 C 0.8797 0.64765 0.42902 0.0
C3289 C 0.89375 0.65501 0.4028 0.0
C3290 C 0.92108 0.64497 0.4019 0.0
H3291 H 0.9751 0.68028 0.34181 0.0
H3292 H 0.95201 0.67298 0.35319 0.0
H3293 H 0.93687 0.64019 0.39463 0.0
H3294 H 0.88805 0.64059 0.44987 0.0
H3295 H 0.90843 0.64417 0.4339 0.0
H3296 H 0.9204 0.67455 0.39072 0.0
C3297 C 0.95895 0.67066 0.36067 0.0
C3298 C 0.93342 0.6478 0.39371 0.0
C3299 C 0.97215 0.67476 0.35408 0.0
C3300 C 0.88935 0.64442 0.43665 0.0
C3301 C 0.90106 0.64649 0.42748 0.0
C3302 C 0.92378 0.66688 0.39147 0.0
C3303 C 0.95482 0.66377 0.37678 0.0
C3304 C 0.9412 0.66029 0.38448 0.0
C3305 C 0.90344 0.65188 0.41048 0.0
C3306 C 0.91618 0.65454 0.40102 0.0
H3307 H 0.98423 0.6626 0.38686 0.0
H3308 H 0.96135 0.65562 0.39842 0.0
H3309 H 0.94195 0.67955 0.37657 0.0
H3310 H 0.87468 0.6553 0.40556 0.0
H3311 H 0.89518 0.65901 0.38964 0.0
C3312 C 0.37403 0.02896 0.71727 0.0
C3313 C 0.36379 0.01979 0.70566 0.0
C3314 C 0.38253 0.02495 0.72611 0.0
C3315 C 0.38692 0.99429 0.73695 0.0
H3316 H 0.42484 0.02332 0.74539 0.0
C3317 C 0.4337 0.98681 0.75884 0.0
C3318 C 0.44041 0.9942 0.77409 0.0
C3319 C 0.42342 0.98878 0.75079 0.0
C3320 C 0.41426 0.01514 0.74313 0.0
H3321 H 0.35421 0.99915 0.69433 0.0
H3322 H 0.36951 0.9923 0.70916 0.0
H3323 H 0.40885 0.02899 0.73041 0.0
H3324 H 0.44091 0.0089 0.79325 0.0
H3325 H 0.42353 0.01279 0.77865 0.0
H3326 H 0.39279 0.98039 0.74916 0.0
C3327 C 0.37075 0.00247 0.71187 0.0
C3328 C 0.40502 0.01837 0.7347 0.0
C3329 C 0.362 0.00639 0.7033 0.0
C3330 C 0.43631 0.00333 0.78127 0.0
C3331 C 0.42626 0.00548 0.77304 0.0
C3332 C 0.39629 0.99101 0.7451 0.0
C3333 C 0.38126 0.01178 0.72323 0.0
C3334 C 0.39115 0.00806 0.73172 0.0
C3335 C 0.41983 0.99833 0.75767 0.0
C3336 C 0.40997 0.00146 0.74844 0.0
H3337 H 0.37549 0.03929 0.71952 0.0
H3338 H 0.39016 0.03227 0.73516 0.0
H3339 H 0.37631 0.98609 0.73508 0.0
H3340 H 0.43665 0.97982 0.7528 0.0
H3341 H 0.41862 0.98323 0.73885 0.0
C3342 C 0.00284 0.35443 0.71352 0.0
C3343 C 0.99633 0.35138 0.6971 0.0
C3344 C 0.00658 0.3671 0.72171 0.0
C3345 C 0.01247 0.40278 0.71417 0.0
H3346 H 0.00257 0.40067 0.7628 0.0
C3347 C 0.01088 0.44795 0.74998 0.0
C3348 C 0.01543 0.45053 0.7674 0.0
C3349 C 0.00964 0.43631 0.74121 0.0
C3350 C 0.0056 0.4015 0.7493 0.0
H3351 H 0.98912 0.35944 0.6761 0.0
H3352 H 0.99562 0.38154 0.69041 0.0
H3353 H 0.9989 0.37975 0.74772 0.0
H3354 H 0.02227 0.44285 0.78923 0.0
H3355 H 0.02041 0.42275 0.77381 0.0
H3356 H 0.01908 0.42454 0.71574 0.0
C3357 C 0.9979 0.37417 0.69693 0.0
C3358 C 0.0035 0.3895 0.74065 0.0
C3359 C 0.99412 0.36148 0.68875 0.0
C3360 C 0.01886 0.44127 0.77577 0.0
C3361 C 0.01764 0.42964 0.76698 0.0
C3362 C 0.01461 0.41482 0.72285 0.0
C3363 C 0.00394 0.37702 0.71364 0.0
C3364 C 0.00683 0.38997 0.72296 0.0
C3365 C 0.01293 0.42697 0.74963 0.0
C3366 C 0.01112 0.4143 0.74049 0.0
H3367 H 0.00473 0.34688 0.72027 0.0
H3368 H 0.01141 0.36907 0.73447 0.0
H3369 H 0.0153 0.40353 0.7006 0.0
H3370 H 0.0083 0.45496 0.74308 0.0
H3371 H 0.00584 0.4345 0.72791 0.0
C3372 C 0.64012 0.64338 0.70849 0.0
C3373 C 0.64381 0.64014 0.69242 0.0
C3374 C 0.62717 0.6346 0.71574 0.0
C3375 C 0.59892 0.59817 0.71476 0.0
H3376 H 0.57914 0.61293 0.74068 0.0
C3377 C 0.54561 0.56244 0.74583 0.0
C3378 C 0.54379 0.56572 0.76293 0.0
C3379 C 0.55709 0.57173 0.73612 0.0
C3380 C 0.58458 0.60865 0.73359 0.0
H3381 H 0.63664 0.62532 0.67114 0.0
H3382 H 0.61391 0.61002 0.68373 0.0
H3383 H 0.60031 0.62882 0.72535 0.0
H3384 H 0.55265 0.58143 0.78318 0.0
H3385 H 0.57264 0.59766 0.76621 0.0
H3386 H 0.58326 0.57801 0.72314 0.0
C3387 C 0.62114 0.61927 0.69084 0.0
C3388 C 0.59672 0.61775 0.7248 0.0
C3389 C 0.63413 0.62808 0.68356 0.0
C3390 C 0.55362 0.57864 0.76997 0.0
C3391 C 0.56509 0.58795 0.76024 0.0
C3392 C 0.58676 0.58907 0.72352 0.0
C3393 C 0.61756 0.62236 0.70711 0.0
C3394 C 0.60413 0.61264 0.71544 0.0
C3395 C 0.56702 0.58456 0.74325 0.0
C3396 C 0.57954 0.59421 0.7332 0.0
H3397 H 0.64735 0.65258 0.71568 0.0
H3398 H 0.62486 0.63722 0.72839 0.0
H3399 H 0.60446 0.59387 0.70791 0.0
H3400 H 0.53811 0.55269 0.73989 0.0
H3401 H 0.55816 0.5689 0.72297 0.0
C3402 C 0.68448 0.71118 0.65221 0.0
C3403 C 0.67688 0.69655 0.65283 0.0
C3404 C 0.67868 0.71878 0.64508 0.0
C3405 C 0.65188 0.71653 0.61482 0.0
H3406 H 0.65961 0.75106 0.63731 0.0
C3407 C 0.63266 0.75324 0.58717 0.0
C3408 C 0.64288 0.76737 0.58654 0.0
C3409 C 0.6351 0.74366 0.59635 0.0
C3410 C 0.65739 0.74147 0.63085 0.0
H3411 H 0.65712 0.67847 0.64627 0.0
H3412 H 0.64697 0.69187 0.63373 0.0
H3413 H 0.6669 0.73584 0.65128 0.0
H3414 H 0.66344 0.7826 0.59546 0.0
H3415 H 0.66772 0.76595 0.61135 0.0
H3416 H 0.64259 0.72235 0.59421 0.0
C3417 C 0.65748 0.69738 0.63877 0.0
C3418 C 0.66157 0.73275 0.63884 0.0
C3419 C 0.66329 0.68972 0.646 0.0
C3420 C 0.65543 0.77176 0.59556 0.0
C3421 C 0.65782 0.76224 0.60481 0.0
C3422 C 0.64766 0.72527 0.60681 0.0
C3423 C 0.6651 0.71201 0.63835 0.0
C3424 C 0.65918 0.72036 0.63072 0.0
C3425 C 0.64773 0.74807 0.60524 0.0
C3426 C 0.65069 0.738 0.61456 0.0
H3427 H 0.69497 0.71685 0.6573 0.0
H3428 H 0.68493 0.73002 0.64466 0.0
H3429 H 0.64995 0.70709 0.6082 0.0
H3430 H 0.62292 0.74955 0.58024 0.0
H3431 H 0.62711 0.73281 0.59652 0.0
C3432 C 0.31307 0.97843 0.64338 0.0
C3433 C 0.31021 0.98166 0.65998 0.0
C3434 C 0.30443 0.96539 0.63592 0.0
C3435 C 0.26842 0.93676 0.63828 0.0
H3436 H 0.28157 0.91731 0.60879 0.0
C3437 C 0.23087 0.88358 0.60802 0.0
C3438 C 0.23281 0.8818 0.59036 0.0
C3439 C 0.24094 0.89498 0.61733 0.0
C3440 C 0.27775 0.92268 0.61691 0.0
H3441 H 0.29652 0.97352 0.68214 0.0
H3442 H 0.2816 0.95073 0.66926 0.0
H3443 H 0.29828 0.93853 0.62393 0.0
H3444 H 0.24693 0.89051 0.56868 0.0
H3445 H 0.26452 0.91047 0.58494 0.0
H3446 H 0.24793 0.92108 0.63114 0.0
C3447 C 0.29033 0.95835 0.66184 0.0
C3448 C 0.28731 0.93482 0.62558 0.0
C3449 C 0.29893 0.97139 0.66927 0.0
C3450 C 0.2452 0.89152 0.58232 0.0
C3451 C 0.25528 0.90294 0.59164 0.0
C3452 C 0.25888 0.92464 0.62966 0.0
C3453 C 0.29278 0.95531 0.64491 0.0
C3454 C 0.28275 0.94203 0.63631 0.0
C3455 C 0.25318 0.90489 0.60919 0.0
C3456 C 0.26342 0.91749 0.6188 0.0
H3457 H 0.32169 0.98613 0.63589 0.0
H3458 H 0.30655 0.96344 0.62281 0.0
H3459 H 0.26453 0.9422 0.64614 0.0
H3460 H 0.22156 0.87613 0.61468 0.0
H3461 H 0.23912 0.89605 0.63092 0.0
C3462 C 0.02044 0.30698 0.64619 0.0
C3463 C 0.01594 0.31616 0.65197 0.0
C3464 C 0.0332 0.312 0.638 0.0
C3465 C 0.06066 0.34238 0.61489 0.0
H3466 H 0.08202 0.32407 0.62574 0.0
C3467 C 0.11627 0.36047 0.58883 0.0
C3468 C 0.11854 0.34979 0.58256 0.0
C3469 C 0.10397 0.35728 0.59745 0.0
C3470 C 0.07614 0.32923 0.6225 0.0
H3471 H 0.02135 0.3379 0.65343 0.0
H3472 H 0.04382 0.3467 0.63929 0.0
H3473 H 0.06035 0.31705 0.64079 0.0
H3474 H 0.10933 0.32739 0.5798 0.0
H3475 H 0.0881 0.32187 0.59507 0.0
H3476 H 0.07664 0.35461 0.59661 0.0
C3477 C 0.03734 0.33558 0.64096 0.0
C3478 C 0.0637 0.3252 0.63109 0.0
C3479 C 0.02448 0.33053 0.64913 0.0
C3480 C 0.10811 0.33588 0.58484 0.0
C3481 C 0.09591 0.3327 0.59354 0.0
C3482 C 0.07321 0.34649 0.60635 0.0
C3483 C 0.04189 0.32636 0.63546 0.0
C3484 C 0.05565 0.33152 0.62717 0.0
C3485 C 0.09375 0.34335 0.60009 0.0
C3486 C 0.08093 0.33977 0.60986 0.0
H3487 H 0.01412 0.29584 0.64795 0.0
H3488 H 0.03621 0.30457 0.63357 0.0
H3489 H 0.05468 0.3474 0.61148 0.0
H3490 H 0.12412 0.37129 0.58745 0.0
H3491 H 0.10261 0.36569 0.60245 0.0
C3492 C 0.30127 0.33195 0.66237 0.0
C3493 C 0.31289 0.33371 0.65309 0.0
C3494 C 0.29237 0.33627 0.65526 0.0
C3495 C 0.28918 0.35816 0.62079 0.0
H3496 H 0.24987 0.33202 0.62499 0.0
C3497 C 0.24718 0.36171 0.57924 0.0
C3498 C 0.23459 0.35839 0.58732 0.0
C3499 C 0.25723 0.35982 0.58803 0.0
C3500 C 0.2608 0.33954 0.6239 0.0
H3501 H 0.32458 0.34184 0.62933 0.0
H3502 H 0.30896 0.34928 0.61682 0.0
H3503 H 0.26662 0.32695 0.63908 0.0
H3504 H 0.22292 0.35098 0.61121 0.0
H3505 H 0.24044 0.34769 0.62654 0.0
H3506 H 0.28329 0.37066 0.60539 0.0
C3507 C 0.30679 0.34466 0.62967 0.0
C3508 C 0.27041 0.33664 0.63199 0.0
C3509 C 0.31571 0.34035 0.63681 0.0
C3510 C 0.2324 0.35341 0.60451 0.0
C3511 C 0.24245 0.35153 0.61329 0.0
C3512 C 0.27954 0.36107 0.61267 0.0
C3513 C 0.29487 0.34244 0.63868 0.0
C3514 C 0.28472 0.34588 0.6305 0.0
C3515 C 0.25492 0.35456 0.60509 0.0
C3516 C 0.26523 0.35176 0.61409 0.0
H3517 H 0.29885 0.32696 0.675 0.0
H3518 H 0.28342 0.33464 0.66268 0.0
H3519 H 0.30012 0.36557 0.61955 0.0
H3520 H 0.24912 0.36541 0.56593 0.0
H3521 H 0.26664 0.36208 0.58125 0.0
C3522 C 0.66653 0.97466 0.6493 0.0
C3523 C 0.68034 0.98125 0.65537 0.0
C3524 C 0.66055 0.96138 0.64175 0.0
C3525 C 0.66486 0.93022 0.63965 0.0
H3526 H 0.64399 0.92222 0.59643 0.0
C3527 C 0.65689 0.88551 0.59474 0.0
C3528 C 0.64397 0.87752 0.58652 0.0
C3529 C 0.65968 0.89734 0.6043 0.0
C3530 C 0.64961 0.92422 0.60865 0.0
H3531 H 0.69866 0.97895 0.6581 0.0
H3532 H 0.68831 0.95607 0.64491 0.0
H3533 H 0.65187 0.9446 0.61095 0.0
H3534 H 0.62377 0.87561 0.58198 0.0
H3535 H 0.62867 0.8964 0.5988 0.0
H3536 H 0.6629 0.91003 0.6372 0.0
C3537 C 0.68202 0.96104 0.64618 0.0
C3538 C 0.65411 0.93703 0.61696 0.0
C3539 C 0.688 0.97426 0.65363 0.0
C3540 C 0.6338 0.88153 0.58826 0.0
C3541 C 0.63664 0.89348 0.59775 0.0
C3542 C 0.66038 0.91746 0.63136 0.0
C3543 C 0.66822 0.9544 0.64024 0.0
C3544 C 0.66208 0.94029 0.63234 0.0
C3545 C 0.64963 0.90152 0.60586 0.0
C3546 C 0.65299 0.91444 0.61556 0.0
H3547 H 0.66032 0.97973 0.65044 0.0
H3548 H 0.64986 0.95651 0.63734 0.0
H3549 H 0.6707 0.93229 0.65169 0.0
H3550 H 0.66488 0.8826 0.59379 0.0
H3551 H 0.66985 0.90339 0.6102 0.0
C3552 C 0.0316 0.70494 0.66728 0.0
C3553 C 0.02203 0.6928 0.65845 0.0
C3554 C 0.0445 0.7139 0.65993 0.0
C3555 C 0.0609 0.7239 0.61707 0.0
H3556 H 0.09534 0.74286 0.64329 0.0
C3557 C 0.11273 0.75878 0.58315 0.0
C3558 C 0.12189 0.77148 0.59125 0.0
C3559 C 0.10114 0.74868 0.59195 0.0
C3560 C 0.08578 0.73774 0.63582 0.0
H3561 H 0.01874 0.68017 0.63543 0.0
H3562 H 0.04122 0.6957 0.62275 0.0
H3563 H 0.0741 0.72597 0.65788 0.0
H3564 H 0.12623 0.78333 0.61518 0.0
H3565 H 0.10577 0.76587 0.63037 0.0
H3566 H 0.07239 0.73575 0.59512 0.0
C3567 C 0.03869 0.69844 0.63518 0.0
C3568 C 0.07363 0.72806 0.64418 0.0
C3569 C 0.02583 0.6895 0.64251 0.0
C3570 C 0.11928 0.77374 0.60847 0.0
C3571 C 0.10765 0.76365 0.61727 0.0
C3572 C 0.07299 0.73358 0.60875 0.0
C3573 C 0.04804 0.71089 0.6436 0.0
C3574 C 0.06107 0.72102 0.63487 0.0
C3575 C 0.09837 0.75105 0.60905 0.0
C3576 C 0.08559 0.74061 0.618 0.0
H3577 H 0.02896 0.70776 0.67958 0.0
H3578 H 0.05146 0.72346 0.66669 0.0
H3579 H 0.05134 0.71887 0.60961 0.0
H3580 H 0.11434 0.75673 0.56984 0.0
H3581 H 0.09431 0.73902 0.58531 0.0
C3582 C 0.97552 0.62158 0.70063 0.0
C3583 C 0.98493 0.63551 0.69645 0.0
C3584 C 0.98006 0.61323 0.70875 0.0
C3585 C 0.00883 0.61438 0.73469 0.0
H3586 H 0.99086 0.57535 0.72178 0.0
C3587 C 0.02375 0.57405 0.76233 0.0
C3588 C 0.0124 0.56154 0.76817 0.0
C3589 C 0.0216 0.58384 0.75322 0.0
C3590 C 0.99595 0.58623 0.72553 0.0
H3591 H 0.00656 0.65157 0.6976 0.0
H3592 H 0.01456 0.63681 0.71156 0.0
H3593 H 0.98518 0.59107 0.706 0.0
H3594 H 0.98993 0.5499 0.76968 0.0
H3595 H 0.98625 0.56675 0.75341 0.0
H3596 H 0.01966 0.60938 0.75421 0.0
C3597 C 0.00361 0.63246 0.70874 0.0
C3598 C 0.99266 0.59523 0.71656 0.0
C3599 C 0.99903 0.64089 0.70067 0.0
C3600 C 0.99891 0.55921 0.76497 0.0
C3601 C 0.99678 0.56889 0.75572 0.0
C3602 C 0.01223 0.60536 0.74358 0.0
C3603 C 0.99417 0.6185 0.71278 0.0
C3604 C 0.9988 0.60935 0.72129 0.0
C3605 C 0.00808 0.58123 0.74962 0.0
C3606 C 0.00557 0.59114 0.73932 0.0
H3607 H 0.96456 0.6171 0.69777 0.0
H3608 H 0.97243 0.60265 0.71205 0.0
H3609 H 0.01368 0.62517 0.73874 0.0
H3610 H 0.03427 0.57614 0.76443 0.0
H3611 H 0.03048 0.59328 0.7486 0.0
C3612 C 0.38061 0.35491 0.70445 0.0
C3613 C 0.3675 0.35129 0.69746 0.0
C3614 C 0.38838 0.36745 0.71331 0.0
C3615 C 0.38609 0.39601 0.73554 0.0
H3616 H 0.42591 0.41534 0.72885 0.0
C3617 C 0.42413 0.45143 0.76269 0.0
C3618 C 0.43629 0.45294 0.77064 0.0
C3619 C 0.41506 0.43914 0.75385 0.0
C3620 C 0.41482 0.41002 0.73093 0.0
H3621 H 0.35222 0.35804 0.69449 0.0
H3622 H 0.36598 0.38017 0.70972 0.0
H3623 H 0.41137 0.39393 0.71292 0.0
H3624 H 0.44803 0.44238 0.77619 0.0
H3625 H 0.43242 0.42118 0.76049 0.0
H3626 H 0.38969 0.41237 0.75345 0.0
C3627 C 0.37013 0.37315 0.70854 0.0
C3628 C 0.40647 0.39771 0.72185 0.0
C3629 C 0.36227 0.36049 0.69976 0.0
C3630 C 0.43898 0.44175 0.76986 0.0
C3631 C 0.43 0.42957 0.76091 0.0
C3632 C 0.39448 0.40844 0.74454 0.0
C3633 C 0.38335 0.37683 0.71529 0.0
C3634 C 0.39202 0.39041 0.72425 0.0
C3635 C 0.41803 0.42819 0.75266 0.0
C3636 C 0.40894 0.41543 0.74252 0.0
H3637 H 0.38492 0.34803 0.70314 0.0
H3638 H 0.39835 0.36975 0.7187 0.0
H3639 H 0.37503 0.39062 0.73781 0.0
H3640 H 0.42178 0.45986 0.76288 0.0
H3641 H 0.40593 0.43837 0.74752 0.0
C3642 C 0.63848 0.00769 0.68739 0.0
C3643 C 0.64876 0.00668 0.6971 0.0
C3644 C 0.62595 0.00483 0.69516 0.0
C3645 C 0.61208 0.00603 0.73746 0.0
H3646 H 0.57576 0.98172 0.71755 0.0
C3647 C 0.56285 0.99192 0.77616 0.0
C3648 C 0.55119 0.99062 0.76719 0.0
C3649 C 0.57424 0.99311 0.76708 0.0
C3650 C 0.58581 0.98871 0.72318 0.0
H3651 H 0.65382 0.00154 0.72242 0.0
H3652 H 0.63212 0.99678 0.73595 0.0
H3653 H 0.59654 0.98529 0.70226 0.0
H3654 H 0.54219 0.9894 0.7417 0.0
H3655 H 0.56229 0.99195 0.72571 0.0
H3656 H 0.60163 0.00989 0.75806 0.0
C3657 C 0.63374 0.99978 0.72237 0.0
C3658 C 0.5977 0.99069 0.71444 0.0
C3659 C 0.64613 0.00243 0.71457 0.0
C3660 C 0.55103 0.9903 0.74892 0.0
C3661 C 0.56254 0.99171 0.73979 0.0
C3662 C 0.60026 0.00423 0.74606 0.0
C3663 C 0.6236 0.00112 0.71282 0.0
C3664 C 0.61093 0.99925 0.72162 0.0
C3665 C 0.57437 0.99328 0.74875 0.0
C3666 C 0.58694 0.99541 0.73918 0.0
H3667 H 0.64021 0.01092 0.6739 0.0
H3668 H 0.61831 0.00598 0.68754 0.0
H3669 H 0.62217 0.01289 0.74314 0.0
H3670 H 0.56314 0.99198 0.79026 0.0
H3671 H 0.58295 0.99389 0.77448 0.0
loop_
_geom_bond_atom_site_label_1
_geom_bond_atom_site_label_2
_geom_bond_distance
_geom_bond_site_symmetry_2
_ccdc_geom_bond_type
Mn0 O5 2.095 1_655 S
Mn0 O15 2.162 . S
Mn0 O16 2.297 1_554 S
Mn0 O24 2.385 1_554 S
Mn0 O25 2.209 1_654 S
Mn0 O26 2.094 . S
Mn1 O6 2.121 . S
Mn1 N8 2.257 1_554 S
Mn1 N17 2.282 . S
Mn1 O25 2.215 1_554 S
Mn1 O27 2.117 . S
C2 O24 1.234 1_455 S
C2 O25 1.283 . S
C3 O15 1.281 1_556 S
C3 O16 1.236 . S
C4 O26 1.247 . S
C4 O27 1.248 1_655 S
O5 Mn0 2.095 1_455 S
O5 C14 1.250 . S
O6 Mn1 2.121 . S
O6 C14 1.258 . S
C7 N8 1.326 . S
C7 C11 1.460 . S
C7 H13 0.929 . S
N8 Mn1 2.257 1_556 S
N8 C7 1.326 . S
N8 C12 1.362 . S
C9 C10 1.258 . S
C9 C12 1.431 . S
C9 C29 1.449 . S
C10 C9 1.258 . S
C10 C11 1.477 . S
C10 H30 0.931 . S
C11 C7 1.460 . S
C11 C10 1.477 . S
C11 H31 0.930 . S
C12 N8 1.362 . S
C12 C9 1.431 . S
C12 C22 1.476 . S
H13 C7 0.929 . S
C14 O5 1.250 . S
C14 O6 1.258 . S
O15 Mn0 2.162 . S
O15 C3 1.281 1_554 S
O16 Mn0 2.297 1_556 S
O16 C3 1.236 . S
N17 Mn1 2.282 . S
N17 C18 1.328 . S
N17 C22 1.318 1_554 S
C18 N17 1.328 . S
C18 C19 1.441 1_554 S
C18 H23 0.929 . S
C19 C18 1.441 1_556 S
C19 C20 1.315 . S
C19 H32 0.924 1_556 S
C20 C19 1.315 . S
C20 C21 1.373 . S
C20 H33 0.929 . S
C21 C20 1.373 . S
C21 C22 1.396 . S
C21 C28 1.403 . S
C22 C12 1.476 . S
C22 N17 1.318 1_556 S
C22 C21 1.396 . S
H23 C18 0.929 . S
O24 Mn0 2.385 1_556 S
O24 C2 1.234 1_655 S
O25 Mn0 2.209 1_456 S
O25 Mn1 2.215 1_556 S
O25 C2 1.283 . S
O26 Mn0 2.094 . S
O26 C4 1.247 . S
O27 Mn1 2.117 . S
O27 C4 1.248 1_455 S
C28 C21 1.403 . S
C28 C29 1.399 . S
C28 H34 0.929 . S
C29 C9 1.449 . S
C29 C28 1.399 . S
C29 H35 0.930 . S
H30 C10 0.931 . S
H31 C11 0.930 . S
H32 C19 0.924 1_554 S
H33 C20 0.929 . S
H34 C28 0.929 . S
H35 C29 0.930 . S
Mn36 O41 2.095 1_554 S
Mn36 O51 2.162 . S
Mn36 O52 2.297 . S
Mn36 O60 2.385 . S
Mn36 O61 2.209 . S
Mn36 O62 2.094 1_554 S
Mn37 O42 2.121 . S
Mn37 N44 2.256 1_556 S
Mn37 N53 2.282 1_556 S
Mn37 O61 2.214 1_556 S
Mn37 O63 2.118 . S
C38 O60 1.234 . S
C38 O61 1.283 . S
C39 O51 1.281 . S
C39 O52 1.236 . S
C40 O62 1.240 . S
C40 O63 1.264 . S
O41 Mn36 2.095 1_556 S
O41 C50 1.250 . S
O42 Mn37 2.121 . S
O42 C50 1.258 . S
C43 N44 1.326 . S
C43 C47 1.460 . S
C43 H49 0.929 . S
N44 Mn37 2.256 1_554 S
N44 C43 1.326 . S
N44 C48 1.362 . S
C45 C46 1.258 . S
C45 C48 1.431 . S
C45 C65 1.449 . S
C46 C45 1.258 . S
C46 C47 1.477 . S
C46 H66 0.931 . S
C47 C43 1.460 . S
C47 C46 1.477 . S
C47 H67 0.930 . S
C48 N44 1.362 . S
C48 C45 1.431 . S
C48 C58 1.476 . S
H49 C43 0.929 . S
C50 O41 1.250 . S
C50 O42 1.258 . S
O51 Mn36 2.162 . S
O51 C39 1.281 . S
O52 Mn36 2.297 . S
O52 C39 1.236 . S
N53 Mn37 2.282 1_554 S
N53 C54 1.328 . S
N53 C58 1.318 . S
C54 N53 1.328 . S
C54 C55 1.457 . S
C54 H59 0.962 . S
C55 C54 1.457 . S
C55 C56 1.291 . S
C55 H68 0.931 . S
C56 C55 1.291 . S
C56 C57 1.373 . S
C56 H69 0.929 . S
C57 C56 1.373 . S
C57 C58 1.396 . S
C57 C64 1.403 . S
C58 C48 1.476 . S
C58 N53 1.318 . S
C58 C57 1.396 . S
H59 C54 0.962 . S
O60 Mn36 2.385 . S
O60 C38 1.234 . S
O61 Mn36 2.209 . S
O61 Mn37 2.214 1_554 S
O61 C38 1.283 . S
O62 Mn36 2.094 1_556 S
O62 C40 1.240 . S
O63 Mn37 2.118 . S
O63 C40 1.264 . S
C64 C57 1.403 . S
C64 C65 1.399 . S
C64 H70 0.929 . S
C65 C45 1.449 . S
C65 C64 1.399 . S
C65 H71 0.930 . S
H66 C46 0.931 . S
H67 C47 0.930 . S
H68 C55 0.931 . S
H69 C56 0.929 . S
H70 C64 0.929 . S
H71 C65 0.930 . S
Mn72 O77 2.095 1_564 S
Mn72 O87 2.162 . S
Mn72 O88 2.297 . S
Mn72 O96 2.385 . S
Mn72 O97 2.209 1_565 S
Mn72 O98 2.094 1_554 S
Mn73 O78 2.113 1_554 S
Mn73 N80 2.257 . S
Mn73 N89 2.282 . S
Mn73 O97 2.215 . S
Mn73 O99 2.117 1_554 S
C74 O96 1.234 1_545 S
C74 O97 1.283 . S
C75 O87 1.281 . S
C75 O88 1.236 . S
C76 O98 1.240 . S
C76 O99 1.264 1_565 S
O77 Mn72 2.095 1_546 S
O77 C86 1.250 . S
O78 Mn73 2.113 1_556 S
O78 C86 1.277 . S
C79 N80 1.326 . S
C79 C83 1.460 . S
C79 H85 0.929 . S
N80 Mn73 2.257 . S
N80 C79 1.326 . S
N80 C84 1.362 . S
C81 C82 1.258 . S
C81 C84 1.431 . S
C81 C101 1.449 . S
C82 C81 1.258 . S
C82 C83 1.477 . S
C82 H102 0.931 . S
C83 C79 1.460 . S
C83 C82 1.477 . S
C83 H103 0.930 . S
C84 N80 1.362 . S
C84 C81 1.431 . S
C84 C94 1.476 . S
H85 C79 0.929 . S
C86 O77 1.250 . S
C86 O78 1.277 . S
O87 Mn72 2.162 . S
O87 C75 1.281 . S
O88 Mn72 2.297 . S
O88 C75 1.236 . S
N89 Mn73 2.282 . S
N89 C90 1.328 . S
N89 C94 1.318 . S
C90 N89 1.328 . S
C90 C91 1.457 . S
C90 H95 0.929 . S
C91 C90 1.457 . S
C91 C92 1.291 . S
C91 H104 0.931 . S
C92 C91 1.291 . S
C92 C93 1.373 . S
C92 H105 0.929 . S
C93 C92 1.373 . S
C93 C94 1.396 . S
C93 C100 1.403 . S
C94 C84 1.476 . S
C94 N89 1.318 . S
C94 C93 1.396 . S
H95 C90 0.929 . S
O96 Mn72 2.385 . S
O96 C74 1.234 1_565 S
O97 Mn72 2.209 1_545 S
O97 Mn73 2.215 . S
O97 C74 1.283 . S
O98 Mn72 2.094 1_556 S
O98 C76 1.240 . S
O99 Mn73 2.117 1_556 S
O99 C76 1.264 1_545 S
C100 C93 1.403 . S
C100 C101 1.399 . S
C100 H106 0.929 . S
C101 C81 1.449 . S
C101 C100 1.399 . S
C101 H107 0.930 . S
H102 C82 0.931 . S
H103 C83 0.930 . S
H104 C91 0.931 . S
H105 C92 0.929 . S
H106 C100 0.929 . S
H107 C101 0.930 . S
Mn108 O113 2.095 1_655 S
Mn108 O123 2.162 . S
Mn108 O124 2.297 1_554 S
Mn108 O132 2.385 1_554 S
Mn108 O133 2.209 1_654 S
Mn108 O134 2.094 . S
Mn109 O114 2.121 . S
Mn109 N116 2.257 1_554 S
Mn109 N125 2.282 . S
Mn109 O133 2.215 1_554 S
Mn109 O135 2.117 . S
C110 O132 1.234 1_455 S
C110 O133 1.283 . S
C111 O123 1.281 1_556 S
C111 O124 1.236 . S
C112 O134 1.240 . S
C112 O135 1.264 1_655 S
O113 Mn108 2.095 1_455 S
O113 C122 1.250 . S
O114 Mn109 2.121 . S
O114 C122 1.258 . S
C115 N116 1.326 . S
C115 C119 1.460 . S
C115 H121 0.929 . S
N116 Mn109 2.257 1_556 S
N116 C115 1.326 . S
N116 C120 1.362 . S
C117 C118 1.258 . S
C117 C120 1.431 . S
C117 C137 1.449 . S
C118 C117 1.258 . S
C118 C119 1.477 . S
C118 H138 0.931 . S
C119 C115 1.460 . S
C119 C118 1.477 . S
C119 H139 0.930 . S
C120 N116 1.362 . S
C120 C117 1.431 . S
C120 C130 1.476 . S
H121 C115 0.929 . S
C122 O113 1.250 . S
C122 O114 1.258 . S
O123 Mn108 2.162 . S
O123 C111 1.281 1_554 S
O124 Mn108 2.297 1_556 S
O124 C111 1.236 . S
N125 Mn109 2.282 . S
N125 C126 1.328 . S
N125 C130 1.318 1_554 S
C126 N125 1.328 . S
C126 C127 1.443 1_554 S
C126 H131 0.929 . S
C127 C126 1.443 1_556 S
C127 C128 1.312 . S
C127 H140 0.925 1_556 S
C128 C127 1.312 . S
C128 C129 1.373 . S
C128 H141 0.929 . S
C129 C128 1.373 . S
C129 C130 1.396 . S
C129 C136 1.403 . S
C130 C120 1.476 . S
C130 N125 1.318 1_556 S
C130 C129 1.396 . S
H131 C126 0.929 . S
O132 Mn108 2.385 1_556 S
O132 C110 1.234 1_655 S
O133 Mn108 2.209 1_456 S
O133 Mn109 2.215 1_556 S
O133 C110 1.283 . S
O134 Mn108 2.094 . S
O134 C112 1.240 . S
O135 Mn109 2.117 . S
O135 C112 1.264 1_455 S
C136 C129 1.403 . S
C136 C137 1.399 . S
C136 H142 0.929 . S
C137 C117 1.449 . S
C137 C136 1.399 . S
C137 H143 0.930 . S
H138 C118 0.931 . S
H139 C119 0.930 . S
H140 C127 0.925 1_554 S
H141 C128 0.929 . S
H142 C136 0.929 . S
H143 C137 0.930 . S
Mn144 O149 2.095 1_554 S
Mn144 O159 2.162 . S
Mn144 O160 2.297 . S
Mn144 O168 2.385 . S
Mn144 O169 2.209 . S
Mn144 O170 2.094 1_554 S
Mn145 O150 2.121 1_554 S
Mn145 N152 2.257 . S
Mn145 N161 2.282 . S
Mn145 O169 2.215 . S
Mn145 O171 2.117 1_554 S
C146 O168 1.234 . S
C146 O169 1.283 . S
C147 O159 1.281 . S
C147 O160 1.236 . S
C148 O170 1.240 . S
C148 O171 1.264 . S
O149 Mn144 2.095 1_556 S
O149 C158 1.250 . S
O150 Mn145 2.121 1_556 S
O150 C158 1.258 . S
C151 N152 1.326 . S
C151 C155 1.460 . S
C151 H157 0.929 . S
N152 Mn145 2.257 . S
N152 C151 1.326 . S
N152 C156 1.362 . S
C153 C154 1.258 . S
C153 C156 1.431 . S
C153 C173 1.449 . S
C154 C153 1.258 . S
C154 C155 1.477 . S
C154 H174 0.931 . S
C155 C151 1.460 . S
C155 C154 1.477 . S
C155 H175 0.930 . S
C156 N152 1.362 . S
C156 C153 1.431 . S
C156 C166 1.476 . S
H157 C151 0.929 . S
C158 O149 1.250 . S
C158 O150 1.258 . S
O159 Mn144 2.162 . S
O159 C147 1.281 . S
O160 Mn144 2.297 . S
O160 C147 1.236 . S
N161 Mn145 2.282 . S
N161 C162 1.328 . S
N161 C166 1.318 . S
C162 N161 1.328 . S
C162 C163 1.457 . S
C162 H167 0.929 . S
C163 C162 1.457 . S
C163 C164 1.291 . S
C163 H176 0.931 . S
C164 C163 1.291 . S
C164 C165 1.373 . S
C164 H177 0.929 . S
C165 C164 1.373 . S
C165 C166 1.396 . S
C165 C172 1.403 . S
C166 C156 1.476 . S
C166 N161 1.318 . S
C166 C165 1.396 . S
H167 C162 0.929 . S
O168 Mn144 2.385 . S
O168 C146 1.234 . S
O169 Mn144 2.209 . S
O169 Mn145 2.215 . S
O169 C146 1.283 . S
O170 Mn144 2.094 1_556 S
O170 C148 1.240 . S
O171 Mn145 2.117 1_556 S
O171 C148 1.264 . S
C172 C165 1.403 . S
C172 C173 1.399 . S
C172 H178 0.929 . S
C173 C153 1.449 . S
C173 C172 1.399 . S
C173 H179 0.930 . S
H174 C154 0.931 . S
H175 C155 0.930 . S
H176 C163 0.931 . S
H177 C164 0.929 . S
H178 C172 0.929 . S
H179 C173 0.930 . S
Mn180 O185 2.095 1_545 S
Mn180 O195 2.162 . S
Mn180 O196 2.297 1_554 S
Mn180 O204 2.385 1_554 S
Mn180 O205 2.209 1_544 S
Mn180 O206 2.094 . S
Mn181 O186 2.121 . S
Mn181 N188 2.257 1_554 S
Mn181 N197 2.282 . S
Mn181 O205 2.215 1_554 S
Mn181 O207 2.117 . S
C182 O204 1.254 . S
C182 O205 1.264 1_545 S
C183 O195 1.281 1_556 S
C183 O196 1.236 . S
C184 O206 1.240 . S
C184 O207 1.264 1_545 S
O185 Mn180 2.095 1_565 S
O185 C194 1.250 . S
O186 Mn181 2.121 . S
O186 C194 1.258 . S
C187 N188 1.326 . S
C187 C191 1.460 . S
C187 H193 0.960 . S
N188 Mn181 2.257 1_556 S
N188 C187 1.326 . S
N188 C192 1.362 . S
C189 C190 1.258 . S
C189 C192 1.431 . S
C189 C209 1.449 . S
C190 C189 1.258 . S
C190 C191 1.477 . S
C190 H210 0.931 . S
C191 C187 1.460 . S
C191 C190 1.477 . S
C191 H211 0.930 . S
C192 N188 1.362 . S
C192 C189 1.431 . S
C192 C202 1.476 . S
H193 C187 0.960 . S
C194 O185 1.250 . S
C194 O186 1.258 . S
O195 Mn180 2.162 . S
O195 C183 1.281 1_554 S
O196 Mn180 2.297 1_556 S
O196 C183 1.236 . S
N197 Mn181 2.282 . S
N197 C198 1.328 . S
N197 C202 1.318 1_554 S
C198 N197 1.328 . S
C198 C199 1.458 . S
C198 H203 0.929 . S
C199 C198 1.458 . S
C199 C200 1.289 1_554 S
C199 H212 0.931 . S
C200 C199 1.289 1_556 S
C200 C201 1.373 . S
C200 H213 0.929 . S
C201 C200 1.373 . S
C201 C202 1.396 . S
C201 C208 1.403 . S
C202 C192 1.476 . S
C202 N197 1.318 1_556 S
C202 C201 1.396 . S
H203 C198 0.929 . S
O204 Mn180 2.385 1_556 S
O204 C182 1.254 . S
O205 Mn180 2.209 1_566 S
O205 Mn181 2.215 1_556 S
O205 C182 1.264 1_565 S
O206 Mn180 2.094 . S
O206 C184 1.240 . S
O207 Mn181 2.117 . S
O207 C184 1.264 1_565 S
C208 C201 1.403 . S
C208 C209 1.399 . S
C208 H214 0.929 . S
C209 C189 1.449 . S
C209 C208 1.399 . S
C209 H215 0.930 . S
H210 C190 0.931 . S
H211 C191 0.930 . S
H212 C199 0.931 . S
H213 C200 0.929 . S
H214 C208 0.929 . S
H215 C209 0.930 . S
Mn216 O221 2.095 . S
Mn216 O231 2.162 . S
Mn216 O232 2.297 . S
Mn216 O240 2.385 . S
Mn216 O241 2.209 . S
Mn216 O242 2.094 . S
Mn217 O222 2.121 . S
Mn217 N224 2.257 . S
Mn217 N233 2.282 . S
Mn217 O241 2.215 . S
Mn217 O243 2.117 . S
C218 O240 1.234 . S
C218 O241 1.283 . S
C219 O231 1.281 . S
C219 O232 1.236 . S
C220 O242 1.240 . S
C220 O243 1.264 . S
O221 Mn216 2.095 . S
O221 C230 1.250 . S
O222 Mn217 2.121 . S
O222 C230 1.258 . S
C223 N224 1.326 . S
C223 C227 1.460 . S
C223 H229 0.929 . S
N224 Mn217 2.257 . S
N224 C223 1.326 . S
N224 C228 1.362 . S
C225 C226 1.258 . S
C225 C228 1.431 . S
C225 C245 1.449 . S
C226 C225 1.258 . S
C226 C227 1.477 . S
C226 H246 0.931 . S
C227 C223 1.460 . S
C227 C226 1.477 . S
C227 H247 0.930 . S
C228 N224 1.362 . S
C228 C225 1.431 . S
C228 C238 1.476 . S
H229 C223 0.929 . S
C230 O221 1.250 . S
C230 O222 1.258 . S
O231 Mn216 2.162 . S
O231 C219 1.281 . S
O232 Mn216 2.297 . S
O232 C219 1.236 . S
N233 Mn217 2.282 . S
N233 C234 1.328 . S
N233 C238 1.318 . S
C234 N233 1.328 . S
C234 C235 1.457 . S
C234 H239 0.929 . S
C235 C234 1.457 . S
C235 C236 1.291 . S
C235 H248 0.931 . S
C236 C235 1.291 . S
C236 C237 1.373 . S
C236 H249 0.929 . S
C237 C236 1.373 . S
C237 C238 1.396 . S
C237 C244 1.403 . S
C238 C228 1.476 . S
C238 N233 1.318 . S
C238 C237 1.396 . S
H239 C234 0.929 . S
O240 Mn216 2.385 . S
O240 C218 1.234 . S
O241 Mn216 2.209 . S
O241 Mn217 2.215 . S
O241 C218 1.283 . S
O242 Mn216 2.094 . S
O242 C220 1.240 . S
O243 Mn217 2.117 . S
O243 C220 1.264 . S
C244 C237 1.403 . S
C244 C245 1.399 . S
C244 H250 0.929 . S
C245 C225 1.449 . S
C245 C244 1.399 . S
C245 H251 0.930 . S
H246 C226 0.931 . S
H247 C227 0.930 . S
H248 C235 0.931 . S
H249 C236 0.929 . S
H250 C244 0.929 . S
H251 C245 0.930 . S
Mn252 O257 2.095 . S
Mn252 O267 2.162 1_565 S
Mn252 O268 2.297 1_565 S
Mn252 O276 2.385 . S
Mn252 O277 2.209 . S
Mn252 O278 2.094 . S
Mn253 O258 2.121 . S
Mn253 N260 2.257 . S
Mn253 N269 2.282 . S
Mn253 O277 2.215 . S
Mn253 O279 2.117 . S
C254 O276 1.234 . S
C254 O277 1.283 . S
C255 O267 1.281 . S
C255 O268 1.236 . S
C256 O278 1.240 . S
C256 O279 1.264 . S
O257 Mn252 2.095 . S
O257 C266 1.250 . S
O258 Mn253 2.121 . S
O258 C266 1.258 . S
C259 N260 1.326 . S
C259 C263 1.460 . S
C259 H265 0.929 . S
N260 Mn253 2.257 . S
N260 C259 1.326 . S
N260 C264 1.362 . S
C261 C262 1.258 . S
C261 C264 1.431 . S
C261 C281 1.449 . S
C262 C261 1.258 . S
C262 C263 1.477 . S
C262 H282 0.931 . S
C263 C259 1.460 . S
C263 C262 1.477 . S
C263 H283 0.930 . S
C264 N260 1.362 . S
C264 C261 1.431 . S
C264 C274 1.476 . S
H265 C259 0.929 . S
C266 O257 1.250 . S
C266 O258 1.258 . S
O267 Mn252 2.162 1_545 S
O267 C255 1.281 . S
O268 Mn252 2.297 1_545 S
O268 C255 1.236 . S
N269 Mn253 2.282 . S
N269 C270 1.328 . S
N269 C274 1.318 . S
C270 N269 1.328 . S
C270 C271 1.457 . S
C270 H275 0.929 . S
C271 C270 1.457 . S
C271 C272 1.291 . S
C271 H284 0.931 . S
C272 C271 1.291 . S
C272 C273 1.373 . S
C272 H285 0.929 . S
C273 C272 1.373 . S
C273 C274 1.396 . S
C273 C280 1.403 . S
C274 C264 1.476 . S
C274 N269 1.318 . S
C274 C273 1.396 . S
H275 C270 0.929 . S
O276 Mn252 2.385 . S
O276 C254 1.234 . S
O277 Mn252 2.209 . S
O277 Mn253 2.215 . S
O277 C254 1.283 . S
O278 Mn252 2.094 . S
O278 C256 1.240 . S
O279 Mn253 2.117 . S
O279 C256 1.264 . S
C280 C273 1.403 . S
C280 C281 1.399 . S
C280 H286 0.929 . S
C281 C261 1.449 . S
C281 C280 1.399 . S
C281 H287 0.930 . S
H282 C262 0.931 . S
H283 C263 0.930 . S
H284 C271 0.931 . S
H285 C272 0.929 . S
H286 C280 0.929 . S
H287 C281 0.930 . S
Mn288 O293 2.095 . S
Mn288 O303 2.162 1_455 S
Mn288 O304 2.297 1_455 S
Mn288 O312 2.385 . S
Mn288 O313 2.209 . S
Mn288 O314 2.094 . S
Mn289 O294 2.121 . S
Mn289 N296 2.257 . S
Mn289 N305 2.282 . S
Mn289 O313 2.215 . S
Mn289 O315 2.117 . S
C290 O312 1.234 . S
C290 O313 1.283 . S
C291 O303 1.281 . S
C291 O304 1.236 . S
C292 O314 1.240 . S
C292 O315 1.264 . S
O293 Mn288 2.095 . S
O293 C302 1.250 . S
O294 Mn289 2.121 . S
O294 C302 1.258 . S
C295 N296 1.326 . S
C295 C299 1.460 . S
C295 H301 0.929 . S
N296 Mn289 2.257 . S
N296 C295 1.326 . S
N296 C300 1.362 . S
C297 C298 1.258 . S
C297 C300 1.431 . S
C297 C317 1.449 . S
C298 C297 1.258 . S
C298 C299 1.477 . S
C298 H318 0.931 . S
C299 C295 1.460 . S
C299 C298 1.477 . S
C299 H319 0.930 . S
C300 N296 1.362 . S
C300 C297 1.431 . S
C300 C310 1.476 . S
H301 C295 0.929 . S
C302 O293 1.250 . S
C302 O294 1.258 . S
O303 Mn288 2.162 1_655 S
O303 C291 1.281 . S
O304 Mn288 2.297 1_655 S
O304 C291 1.236 . S
N305 Mn289 2.282 . S
N305 C306 1.328 . S
N305 C310 1.318 . S
C306 N305 1.328 . S
C306 C307 1.457 . S
C306 H311 0.929 . S
C307 C306 1.457 . S
C307 C308 1.291 . S
C307 H320 0.931 . S
C308 C307 1.291 . S
C308 C309 1.373 . S
C308 H321 0.929 . S
C309 C308 1.373 . S
C309 C310 1.396 . S
C309 C316 1.403 . S
C310 C300 1.476 . S
C310 N305 1.318 . S
C310 C309 1.396 . S
H311 C306 0.929 . S
O312 Mn288 2.385 . S
O312 C290 1.234 . S
O313 Mn288 2.209 . S
O313 Mn289 2.215 . S
O313 C290 1.283 . S
O314 Mn288 2.094 . S
O314 C292 1.240 . S
O315 Mn289 2.117 . S
O315 C292 1.264 . S
C316 C309 1.403 . S
C316 C317 1.399 . S
C316 H322 0.929 . S
C317 C297 1.449 . S
C317 C316 1.399 . S
C317 H323 0.930 . S
H318 C298 0.931 . S
H319 C299 0.930 . S
H320 C307 0.931 . S
H321 C308 0.929 . S
H322 C316 0.929 . S
H323 C317 0.930 . S
Mn324 O329 2.095 . S
Mn324 O339 2.162 . S
Mn324 O340 2.297 . S
Mn324 O348 2.385 . S
Mn324 O349 2.209 . S
Mn324 O350 2.094 . S
Mn325 O330 2.121 1_565 S
Mn325 N332 2.257 . S
Mn325 N341 2.282 . S
Mn325 O349 2.215 . S
Mn325 O351 2.117 . S
C326 O348 1.234 . S
C326 O349 1.283 . S
C327 O339 1.281 . S
C327 O340 1.236 . S
C328 O350 1.240 . S
C328 O351 1.264 . S
O329 Mn324 2.095 . S
O329 C338 1.250 1_565 S
O330 Mn325 2.121 1_545 S
O330 C338 1.258 . S
C331 N332 1.326 1_545 S
C331 C335 1.460 . S
C331 H337 0.929 . S
N332 Mn325 2.257 . S
N332 C331 1.326 1_565 S
N332 C336 1.362 . S
C333 C334 1.258 . S
C333 C336 1.431 . S
C333 C353 1.449 . S
C334 C333 1.258 . S
C334 C335 1.477 1_565 S
C334 H354 0.931 . S
C335 C331 1.460 . S
C335 C334 1.477 1_545 S
C335 H355 0.930 . S
C336 N332 1.362 . S
C336 C333 1.431 . S
C336 C346 1.476 . S
H337 C331 0.929 . S
C338 O329 1.250 1_545 S
C338 O330 1.258 . S
O339 Mn324 2.162 . S
O339 C327 1.281 . S
O340 Mn324 2.297 . S
O340 C327 1.236 . S
N341 Mn325 2.282 . S
N341 C342 1.328 . S
N341 C346 1.318 . S
C342 N341 1.328 . S
C342 C343 1.457 . S
C342 H347 0.929 . S
C343 C342 1.457 . S
C343 C344 1.291 . S
C343 H356 0.931 . S
C344 C343 1.291 . S
C344 C345 1.373 . S
C344 H357 0.929 . S
C345 C344 1.373 . S
C345 C346 1.396 . S
C345 C352 1.403 . S
C346 C336 1.476 . S
C346 N341 1.318 . S
C346 C345 1.396 . S
H347 C342 0.929 . S
O348 Mn324 2.385 . S
O348 C326 1.234 . S
O349 Mn324 2.209 . S
O349 Mn325 2.215 . S
O349 C326 1.283 . S
O350 Mn324 2.094 . S
O350 C328 1.240 . S
O351 Mn325 2.117 . S
O351 C328 1.264 . S
C352 C345 1.403 . S
C352 C353 1.399 . S
C352 H358 0.929 . S
C353 C333 1.449 . S
C353 C352 1.399 . S
C353 H359 0.930 . S
H354 C334 0.931 . S
H355 C335 0.930 . S
H356 C343 0.931 . S
H357 C344 0.929 . S
H358 C352 0.929 . S
H359 C353 0.930 . S
Mn360 O365 2.095 . S
Mn360 O375 2.162 1_455 S
Mn360 O376 2.325 . S
Mn360 O384 2.385 . S
Mn360 O385 2.209 . S
Mn360 O386 2.094 . S
Mn361 O366 2.121 . S
Mn361 N368 2.257 . S
Mn361 N377 2.282 . S
Mn361 O385 2.215 . S
Mn361 O387 2.117 . S
C362 O384 1.234 . S
C362 O385 1.283 . S
C363 O375 1.281 . S
C363 O376 1.172 1_655 S
C364 O386 1.240 . S
C364 O387 1.264 . S
O365 Mn360 2.095 . S
O365 C374 1.250 . S
O366 Mn361 2.121 . S
O366 C374 1.258 . S
C367 N368 1.326 . S
C367 C371 1.460 . S
C367 H373 0.929 . S
N368 Mn361 2.257 . S
N368 C367 1.326 . S
N368 C372 1.362 . S
C369 C370 1.258 . S
C369 C372 1.431 . S
C369 C389 1.449 . S
C370 C369 1.258 . S
C370 C371 1.477 . S
C370 H390 0.931 . S
C371 C367 1.460 . S
C371 C370 1.477 . S
C371 H391 0.930 . S
C372 N368 1.362 . S
C372 C369 1.431 . S
C372 C382 1.476 . S
H373 C367 0.929 . S
C374 O365 1.250 . S
C374 O366 1.258 . S
O375 Mn360 2.162 1_655 S
O375 C363 1.281 . S
O376 Mn360 2.325 . S
O376 C363 1.172 1_455 S
N377 Mn361 2.282 . S
N377 C378 1.328 . S
N377 C382 1.318 . S
C378 N377 1.328 . S
C378 C379 1.457 . S
C378 H383 0.929 . S
C379 C378 1.457 . S
C379 C380 1.291 . S
C379 H392 0.931 . S
C380 C379 1.291 . S
C380 C381 1.373 . S
C380 H393 0.929 . S
C381 C380 1.373 . S
C381 C382 1.396 . S
C381 C388 1.403 . S
C382 C372 1.476 . S
C382 N377 1.318 . S
C382 C381 1.396 . S
H383 C378 0.929 . S
O384 Mn360 2.385 . S
O384 C362 1.234 . S
O385 Mn360 2.209 . S
O385 Mn361 2.215 . S
O385 C362 1.283 . S
O386 Mn360 2.094 . S
O386 C364 1.240 . S
O387 Mn361 2.117 . S
O387 C364 1.264 . S
C388 C381 1.403 . S
C388 C389 1.399 . S
C388 H394 0.929 . S
C389 C369 1.449 . S
C389 C388 1.399 . S
C389 H395 0.930 . S
H390 C370 0.931 . S
H391 C371 0.930 . S
H392 C379 0.931 . S
H393 C380 0.929 . S
H394 C388 0.929 . S
H395 C389 0.930 . S
Mn396 O401 2.095 . S
Mn396 O411 2.162 . S
Mn396 O412 2.297 . S
Mn396 O420 2.385 . S
Mn396 O421 2.209 . S
Mn396 O422 2.094 . S
Mn397 O402 2.121 . S
Mn397 N404 2.257 . S
Mn397 N413 2.282 . S
Mn397 O421 2.215 . S
Mn397 O423 2.117 . S
C398 O420 1.234 . S
C398 O421 1.283 . S
C399 O411 1.281 . S
C399 O412 1.236 . S
C400 O422 1.240 . S
C400 O423 1.264 . S
O401 Mn396 2.095 . S
O401 C410 1.250 . S
O402 Mn397 2.121 . S
O402 C410 1.258 . S
C403 N404 1.326 . S
C403 C407 1.460 . S
C403 H409 0.929 . S
N404 Mn397 2.257 . S
N404 C403 1.326 . S
N404 C408 1.362 . S
C405 C406 1.258 . S
C405 C408 1.431 . S
C405 C425 1.449 . S
C406 C405 1.258 . S
C406 C407 1.477 . S
C406 H426 0.931 . S
C407 C403 1.460 . S
C407 C406 1.477 . S
C407 H427 0.930 . S
C408 N404 1.362 . S
C408 C405 1.431 . S
C408 C418 1.476 . S
H409 C403 0.929 . S
C410 O401 1.250 . S
C410 O402 1.258 . S
O411 Mn396 2.162 . S
O411 C399 1.281 . S
O412 Mn396 2.297 . S
O412 C399 1.236 . S
N413 Mn397 2.282 . S
N413 C414 1.328 . S
N413 C418 1.318 . S
C414 N413 1.328 . S
C414 C415 1.457 . S
C414 H419 0.929 . S
C415 C414 1.457 . S
C415 C416 1.291 . S
C415 H428 0.931 . S
C416 C415 1.291 . S
C416 C417 1.373 . S
C416 H429 0.929 . S
C417 C416 1.373 . S
C417 C418 1.396 . S
C417 C424 1.403 . S
C418 C408 1.476 . S
C418 N413 1.318 . S
C418 C417 1.396 . S
H419 C414 0.929 . S
O420 Mn396 2.385 . S
O420 C398 1.234 . S
O421 Mn396 2.209 . S
O421 Mn397 2.215 . S
O421 C398 1.283 . S
O422 Mn396 2.094 . S
O422 C400 1.240 . S
O423 Mn397 2.117 . S
O423 C400 1.264 . S
C424 C417 1.403 . S
C424 C425 1.399 . S
C424 H430 0.929 . S
C425 C405 1.449 . S
C425 C424 1.399 . S
C425 H431 0.930 . S
H426 C406 0.931 . S
H427 C407 0.930 . S
H428 C415 0.931 . S
H429 C416 0.929 . S
H430 C424 0.929 . S
H431 C425 0.930 . S
Mn432 O437 2.095 . S
Mn432 O447 2.162 1_545 S
Mn432 O448 2.317 . S
Mn432 O456 2.385 . S
Mn432 O457 2.209 . S
Mn432 O458 2.094 . S
Mn433 O438 2.121 . S
Mn433 N440 2.257 . S
Mn433 N449 2.282 . S
Mn433 O457 2.215 . S
Mn433 O459 2.117 . S
C434 O456 1.234 . S
C434 O457 1.283 . S
C435 O447 1.281 . S
C435 O448 1.230 1_565 S
C436 O458 1.240 . S
C436 O459 1.264 . S
O437 Mn432 2.095 . S
O437 C446 1.250 . S
O438 Mn433 2.121 . S
O438 C446 1.258 . S
C439 N440 1.326 . S
C439 C443 1.460 . S
C439 H445 0.929 . S
N440 Mn433 2.257 . S
N440 C439 1.326 . S
N440 C444 1.362 . S
C441 C442 1.258 . S
C441 C444 1.431 . S
C441 C461 1.449 . S
C442 C441 1.258 . S
C442 C443 1.477 . S
C442 H462 0.931 . S
C443 C439 1.460 . S
C443 C442 1.477 . S
C443 H463 0.930 . S
C444 N440 1.362 . S
C444 C441 1.431 . S
C444 C454 1.476 . S
H445 C439 0.929 . S
C446 O437 1.250 . S
C446 O438 1.258 . S
O447 Mn432 2.162 1_565 S
O447 C435 1.281 . S
O448 Mn432 2.317 . S
O448 C435 1.230 1_545 S
N449 Mn433 2.282 . S
N449 C450 1.328 . S
N449 C454 1.318 . S
C450 N449 1.328 . S
C450 C451 1.457 . S
C450 H455 0.929 . S
C451 C450 1.457 . S
C451 C452 1.291 . S
C451 H464 0.931 . S
C452 C451 1.291 . S
C452 C453 1.373 . S
C452 H465 0.929 . S
C453 C452 1.373 . S
C453 C454 1.396 . S
C453 C460 1.403 . S
C454 C444 1.476 . S
C454 N449 1.318 . S
C454 C453 1.396 . S
H455 C450 0.929 . S
O456 Mn432 2.385 . S
O456 C434 1.234 . S
O457 Mn432 2.209 . S
O457 Mn433 2.215 . S
O457 C434 1.283 . S
O458 Mn432 2.094 . S
O458 C436 1.240 . S
O459 Mn433 2.117 . S
O459 C436 1.264 . S
C460 C453 1.403 . S
C460 C461 1.399 . S
C460 H466 0.929 . S
C461 C441 1.449 . S
C461 C460 1.399 . S
C461 H467 0.930 . S
H462 C442 0.931 . S
H463 C443 0.930 . S
H464 C451 0.931 . S
H465 C452 0.929 . S
H466 C460 0.929 . S
H467 C461 0.930 . S
Mn468 O473 2.095 . S
Mn468 O483 2.162 . S
Mn468 O484 2.297 . S
Mn468 O492 2.385 . S
Mn468 O493 2.209 . S
Mn468 O494 2.094 . S
Mn469 O474 2.124 1_655 S
Mn469 N476 2.257 . S
Mn469 N485 2.282 . S
Mn469 O493 2.215 . S
Mn469 O495 2.117 . S
C470 O492 1.234 . S
C470 O493 1.283 . S
C471 O483 1.281 . S
C471 O484 1.236 . S
C472 O494 1.240 . S
C472 O495 1.264 . S
O473 Mn468 2.095 . S
O473 C482 1.250 1_655 S
O474 Mn469 2.124 1_455 S
O474 C482 1.260 . S
C475 N476 1.326 1_455 S
C475 C479 1.460 . S
C475 H481 0.929 . S
N476 Mn469 2.257 . S
N476 C475 1.326 1_655 S
N476 C480 1.362 . S
C477 C478 1.258 . S
C477 C480 1.431 . S
C477 C497 1.449 . S
C478 C477 1.258 . S
C478 C479 1.477 1_655 S
C478 H498 0.931 . S
C479 C475 1.460 . S
C479 C478 1.477 1_455 S
C479 H499 0.930 . S
C480 N476 1.362 . S
C480 C477 1.431 . S
C480 C490 1.476 . S
H481 C475 0.929 . S
C482 O473 1.250 1_455 S
C482 O474 1.260 . S
O483 Mn468 2.162 . S
O483 C471 1.281 . S
O484 Mn468 2.297 . S
O484 C471 1.236 . S
N485 Mn469 2.282 . S
N485 C486 1.328 . S
N485 C490 1.318 . S
C486 N485 1.328 . S
C486 C487 1.457 . S
C486 H491 0.929 . S
C487 C486 1.457 . S
C487 C488 1.291 . S
C487 H500 0.931 . S
C488 C487 1.291 . S
C488 C489 1.373 . S
C488 H501 0.929 . S
C489 C488 1.373 . S
C489 C490 1.396 . S
C489 C496 1.403 . S
C490 C480 1.476 . S
C490 N485 1.318 . S
C490 C489 1.396 . S
H491 C486 0.929 . S
O492 Mn468 2.385 . S
O492 C470 1.234 . S
O493 Mn468 2.209 . S
O493 Mn469 2.215 . S
O493 C470 1.283 . S
O494 Mn468 2.094 . S
O494 C472 1.240 . S
O495 Mn469 2.117 . S
O495 C472 1.264 . S
C496 C489 1.403 . S
C496 C497 1.399 . S
C496 H502 0.929 . S
C497 C477 1.449 . S
C497 C496 1.399 . S
C497 H503 0.930 . S
H498 C478 0.931 . S
H499 C479 0.930 . S
H500 C487 0.931 . S
H501 C488 0.929 . S
H502 C496 0.929 . S
H503 C497 0.930 . S
Mn504 O509 2.095 . S
Mn504 O519 2.162 . S
Mn504 O520 2.297 . S
Mn504 O528 2.385 . S
Mn504 O529 2.209 . S
Mn504 O530 2.094 . S
Mn505 O510 2.121 . S
Mn505 N512 2.257 . S
Mn505 N521 2.282 . S
Mn505 O529 2.215 . S
Mn505 O531 2.117 . S
C506 O528 1.234 . S
C506 O529 1.283 . S
C507 O519 1.281 . S
C507 O520 1.236 . S
C508 O530 1.240 . S
C508 O531 1.264 . S
O509 Mn504 2.095 . S
O509 C518 1.250 . S
O510 Mn505 2.121 . S
O510 C518 1.258 . S
C511 N512 1.326 . S
C511 C515 1.460 . S
C511 H517 0.929 . S
N512 Mn505 2.257 . S
N512 C511 1.326 . S
N512 C516 1.362 . S
C513 C514 1.258 . S
C513 C516 1.431 . S
C513 C533 1.449 . S
C514 C513 1.258 . S
C514 C515 1.477 . S
C514 H534 0.931 . S
C515 C511 1.460 . S
C515 C514 1.477 . S
C515 H535 0.930 . S
C516 N512 1.362 . S
C516 C513 1.431 . S
C516 C526 1.476 . S
H517 C511 0.929 . S
C518 O509 1.250 . S
C518 O510 1.258 . S
O519 Mn504 2.162 . S
O519 C507 1.281 . S
O520 Mn504 2.297 . S
O520 C507 1.236 . S
N521 Mn505 2.282 . S
N521 C522 1.328 . S
N521 C526 1.318 . S
C522 N521 1.328 . S
C522 C523 1.457 . S
C522 H527 0.929 . S
C523 C522 1.457 . S
C523 C524 1.291 . S
C523 H536 0.931 . S
C524 C523 1.291 . S
C524 C525 1.373 . S
C524 H537 0.929 . S
C525 C524 1.373 . S
C525 C526 1.396 . S
C525 C532 1.403 . S
C526 C516 1.476 . S
C526 N521 1.318 . S
C526 C525 1.396 . S
H527 C522 0.929 . S
O528 Mn504 2.385 . S
O528 C506 1.234 . S
O529 Mn504 2.209 . S
O529 Mn505 2.215 . S
O529 C506 1.283 . S
O530 Mn504 2.094 . S
O530 C508 1.240 . S
O531 Mn505 2.117 . S
O531 C508 1.264 . S
C532 C525 1.403 . S
C532 C533 1.399 . S
C532 H538 0.929 . S
C533 C513 1.449 . S
C533 C532 1.399 . S
C533 H539 0.930 . S
H534 C514 0.931 . S
H535 C515 0.930 . S
H536 C523 0.931 . S
H537 C524 0.929 . S
H538 C532 0.929 . S
H539 C533 0.930 . S
Mn540 O545 2.095 . S
Mn540 O555 2.162 . S
Mn540 O556 2.297 . S
Mn540 O564 2.385 . S
Mn540 O565 2.209 . S
Mn540 O566 2.094 . S
Mn541 O546 2.121 . S
Mn541 N548 2.257 . S
Mn541 N557 2.282 . S
Mn541 O565 2.215 . S
Mn541 O567 2.117 . S
C542 O564 1.234 . S
C542 O565 1.283 . S
C543 O555 1.281 . S
C543 O556 1.236 . S
C544 O566 1.240 . S
C544 O567 1.264 . S
O545 Mn540 2.095 . S
O545 C554 1.250 . S
O546 Mn541 2.121 . S
O546 C554 1.258 . S
C547 N548 1.326 . S
C547 C551 1.460 . S
C547 H553 0.929 . S
N548 Mn541 2.257 . S
N548 C547 1.326 . S
N548 C552 1.362 . S
C549 C550 1.258 . S
C549 C552 1.431 . S
C549 C569 1.449 . S
C550 C549 1.258 . S
C550 C551 1.477 . S
C550 H570 0.931 . S
C551 C547 1.460 . S
C551 C550 1.477 . S
C551 H571 0.930 . S
C552 N548 1.362 . S
C552 C549 1.431 . S
C552 C562 1.476 . S
H553 C547 0.929 . S
C554 O545 1.250 . S
C554 O546 1.258 . S
O555 Mn540 2.162 . S
O555 C543 1.281 . S
O556 Mn540 2.297 . S
O556 C543 1.236 . S
N557 Mn541 2.282 . S
N557 C558 1.328 . S
N557 C562 1.318 . S
C558 N557 1.328 . S
C558 C559 1.457 . S
C558 H563 0.929 . S
C559 C558 1.457 . S
C559 C560 1.291 . S
C559 H572 0.931 . S
C560 C559 1.291 . S
C560 C561 1.373 . S
C560 H573 0.929 . S
C561 C560 1.373 . S
C561 C562 1.396 . S
C561 C568 1.403 . S
C562 C552 1.476 . S
C562 N557 1.318 . S
C562 C561 1.396 . S
H563 C558 0.929 . S
O564 Mn540 2.385 . S
O564 C542 1.234 . S
O565 Mn540 2.209 . S
O565 Mn541 2.215 . S
O565 C542 1.283 . S
O566 Mn540 2.094 . S
O566 C544 1.240 . S
O567 Mn541 2.117 . S
O567 C544 1.264 . S
C568 C561 1.403 . S
C568 C569 1.399 . S
C568 H574 0.929 . S
C569 C549 1.449 . S
C569 C568 1.399 . S
C569 H575 0.930 . S
H570 C550 0.931 . S
H571 C551 0.930 . S
H572 C559 0.931 . S
H573 C560 0.929 . S
H574 C568 0.929 . S
H575 C569 0.930 . S
Mn576 O581 2.095 . S
Mn576 O591 2.162 . S
Mn576 O592 2.297 . S
Mn576 O600 2.385 . S
Mn576 O601 2.209 . S
Mn576 O602 2.094 . S
Mn577 O582 2.121 1_545 S
Mn577 N584 2.257 . S
Mn577 N593 2.282 . S
Mn577 O601 2.215 . S
Mn577 O603 2.117 . S
C578 O600 1.234 . S
C578 O601 1.283 . S
C579 O591 1.281 . S
C579 O592 1.236 . S
C580 O602 1.240 . S
C580 O603 1.264 . S
O581 Mn576 2.095 . S
O581 C590 1.250 1_545 S
O582 Mn577 2.121 1_565 S
O582 C590 1.258 . S
C583 N584 1.326 1_565 S
C583 C587 1.460 . S
C583 H589 0.929 . S
N584 Mn577 2.257 . S
N584 C583 1.326 1_545 S
N584 C588 1.362 . S
C585 C586 1.258 . S
C585 C588 1.431 . S
C585 C605 1.449 . S
C586 C585 1.258 . S
C586 C587 1.477 1_545 S
C586 H606 0.991 . S
C587 C583 1.460 . S
C587 C586 1.477 1_565 S
C587 H607 0.930 . S
C588 N584 1.362 . S
C588 C585 1.431 . S
C588 C598 1.476 . S
H589 C583 0.929 . S
C590 O581 1.250 1_565 S
C590 O582 1.258 . S
O591 Mn576 2.162 . S
O591 C579 1.281 . S
O592 Mn576 2.297 . S
O592 C579 1.236 . S
N593 Mn577 2.282 . S
N593 C594 1.328 . S
N593 C598 1.318 . S
C594 N593 1.328 . S
C594 C595 1.457 . S
C594 H599 0.929 . S
C595 C594 1.457 . S
C595 C596 1.291 . S
C595 H608 0.931 . S
C596 C595 1.291 . S
C596 C597 1.373 . S
C596 H609 0.929 . S
C597 C596 1.373 . S
C597 C598 1.396 . S
C597 C604 1.403 . S
C598 C588 1.476 . S
C598 N593 1.318 . S
C598 C597 1.396 . S
H599 C594 0.929 . S
O600 Mn576 2.385 . S
O600 C578 1.234 . S
O601 Mn576 2.209 . S
O601 Mn577 2.215 . S
O601 C578 1.283 . S
O602 Mn576 2.094 . S
O602 C580 1.240 . S
O603 Mn577 2.117 . S
O603 C580 1.264 . S
C604 C597 1.403 . S
C604 C605 1.399 . S
C604 H610 0.929 . S
C605 C585 1.449 . S
C605 C604 1.399 . S
C605 H611 0.930 . S
H606 C586 0.991 . S
H607 C587 0.930 . S
H608 C595 0.931 . S
H609 C596 0.929 . S
H610 C604 0.929 . S
H611 C605 0.930 . S
Mn612 O617 2.095 . S
Mn612 O627 2.162 1_655 S
Mn612 O628 2.297 1_655 S
Mn612 O636 2.385 . S
Mn612 O637 2.209 . S
Mn612 O638 2.094 . S
Mn613 O618 2.121 . S
Mn613 N620 2.257 . S
Mn613 N629 2.282 . S
Mn613 O637 2.215 . S
Mn613 O639 2.117 . S
C614 O636 1.234 . S
C614 O637 1.283 . S
C615 O627 1.281 . S
C615 O628 1.236 . S
C616 O638 1.240 . S
C616 O639 1.264 . S
O617 Mn612 2.095 . S
O617 C626 1.250 . S
O618 Mn613 2.121 . S
O618 C626 1.258 . S
C619 N620 1.326 . S
C619 C623 1.460 . S
C619 H625 0.929 . S
N620 Mn613 2.257 . S
N620 C619 1.326 . S
N620 C624 1.362 . S
C621 C622 1.258 . S
C621 C624 1.431 . S
C621 C641 1.449 . S
C622 C621 1.258 . S
C622 C623 1.477 . S
C622 H642 0.931 . S
C623 C619 1.460 . S
C623 C622 1.477 . S
C623 H643 0.930 . S
C624 N620 1.362 . S
C624 C621 1.431 . S
C624 C634 1.476 . S
H625 C619 0.929 . S
C626 O617 1.250 . S
C626 O618 1.258 . S
O627 Mn612 2.162 1_455 S
O627 C615 1.281 . S
O628 Mn612 2.297 1_455 S
O628 C615 1.236 . S
N629 Mn613 2.282 . S
N629 C630 1.328 . S
N629 C634 1.318 . S
C630 N629 1.328 . S
C630 C631 1.457 . S
C630 H635 0.929 . S
C631 C630 1.457 . S
C631 C632 1.291 . S
C631 H644 0.931 . S
C632 C631 1.291 . S
C632 C633 1.373 . S
C632 H645 0.929 . S
C633 C632 1.373 . S
C633 C634 1.396 . S
C633 C640 1.403 . S
C634 C624 1.476 . S
C634 N629 1.318 . S
C634 C633 1.396 . S
H635 C630 0.929 . S
O636 Mn612 2.385 . S
O636 C614 1.234 . S
O637 Mn612 2.209 . S
O637 Mn613 2.215 . S
O637 C614 1.283 . S
O638 Mn612 2.094 . S
O638 C616 1.240 . S
O639 Mn613 2.117 . S
O639 C616 1.264 . S
C640 C633 1.403 . S
C640 C641 1.399 . S
C640 H646 0.929 . S
C641 C621 1.449 . S
C641 C640 1.399 . S
C641 H647 0.930 . S
H642 C622 0.931 . S
H643 C623 0.930 . S
H644 C631 0.931 . S
H645 C632 0.929 . S
H646 C640 0.929 . S
H647 C641 0.930 . S
H648 C667 0.949 . S
H649 C668 0.950 . S
H650 C670 0.950 . S
H651 C671 0.950 . S
H652 C673 0.950 . S
H653 C676 0.950 . S
H654 C677 0.950 . S
H655 C679 0.951 . S
H656 C680 0.949 . S
H657 C682 0.949 . S
H658 C683 0.950 . S
H659 C685 0.950 . S
H660 C686 0.950 . S
H661 C688 0.950 . S
H662 C691 0.950 . S
H663 C692 0.950 . S
H664 C694 0.951 . S
H665 C695 0.949 . S
C666 C667 1.376 . S
C666 C671 1.386 . S
C666 C672 1.483 . S
C667 H648 0.949 . S
C667 C666 1.376 . S
C667 C668 1.397 . S
C668 H649 0.950 . S
C668 C667 1.397 . S
C668 C669 1.391 . S
C669 C668 1.391 . S
C669 C670 1.405 . S
C670 H650 0.950 . S
C670 C669 1.405 . S
C670 C671 1.367 . S
C671 H651 0.950 . S
C671 C666 1.386 . S
C671 C670 1.367 . S
C672 C666 1.483 . S
C672 C673 1.382 . S
C672 C674 1.403 . S
C673 H652 0.950 . S
C673 C672 1.382 . S
C673 C689 1.411 . S
C674 C672 1.403 . S
C674 C675 1.489 . S
C674 C688 1.411 . S
C675 C674 1.489 . S
C675 C676 1.383 . S
C675 C680 1.382 . S
C676 H653 0.950 . S
C676 C675 1.383 . S
C676 C677 1.395 . S
C677 H654 0.950 . S
C677 C676 1.395 . S
C677 C678 1.288 . S
C678 C677 1.288 . S
C678 C679 1.392 . S
C679 H655 0.951 . S
C679 C678 1.392 . S
C679 C680 1.392 . S
C680 H656 0.949 . S
C680 C675 1.382 . S
C680 C679 1.392 . S
C681 C682 1.376 . S
C681 C686 1.386 . S
C681 C687 1.483 . S
C682 H657 0.949 . S
C682 C681 1.376 . S
C682 C683 1.397 . S
C683 H658 0.950 . S
C683 C682 1.397 . S
C683 C684 1.391 . S
C684 C683 1.391 . S
C684 C685 1.405 . S
C685 H659 0.950 . S
C685 C684 1.405 . S
C685 C686 1.367 . S
C686 H660 0.950 . S
C686 C681 1.386 . S
C686 C685 1.367 . S
C687 C681 1.483 . S
C687 C688 1.382 . S
C687 C689 1.403 . S
C688 H661 0.950 . S
C688 C674 1.411 . S
C688 C687 1.382 . S
C689 C673 1.411 . S
C689 C687 1.403 . S
C689 C690 1.489 . S
C690 C689 1.489 . S
C690 C691 1.383 . S
C690 C695 1.382 . S
C691 H662 0.950 . S
C691 C690 1.383 . S
C691 C692 1.395 . S
C692 H663 0.950 . S
C692 C691 1.395 . S
C692 C693 1.288 . S
C693 C692 1.288 . S
C693 C694 1.392 . S
C694 H664 0.951 . S
C694 C693 1.392 . S
C694 C695 1.392 . S
C695 H665 0.949 . S
C695 C690 1.382 . S
C695 C694 1.392 . S
H696 C715 0.949 . S
H697 C716 0.950 . S
H698 C718 0.950 . S
H699 C719 0.950 . S
H700 C721 0.950 . S
H701 C724 0.950 . S
H702 C725 0.950 . S
H703 C727 0.951 . S
H704 C728 0.949 . S
H705 C730 0.949 . S
H706 C731 0.950 . S
H707 C733 0.950 . S
H708 C734 0.950 . S
H709 C736 0.950 . S
H710 C739 0.950 . S
H711 C740 0.950 . S
H712 C742 0.951 . S
H713 C743 0.949 . S
C714 C715 1.376 . S
C714 C719 1.386 . S
C714 C720 1.483 . S
C715 H696 0.949 . S
C715 C714 1.376 . S
C715 C716 1.397 . S
C716 H697 0.950 . S
C716 C715 1.397 . S
C716 C717 1.391 . S
C717 C716 1.391 . S
C717 C718 1.405 . S
C718 H698 0.950 . S
C718 C717 1.405 . S
C718 C719 1.367 . S
C719 H699 0.950 . S
C719 C714 1.386 . S
C719 C718 1.367 . S
C720 C714 1.483 . S
C720 C721 1.382 . S
C720 C722 1.403 . S
C721 H700 0.950 . S
C721 C720 1.382 . S
C721 C737 1.411 . S
C722 C720 1.403 . S
C722 C723 1.489 . S
C722 C736 1.411 . S
C723 C722 1.489 . S
C723 C724 1.383 . S
C723 C728 1.382 . S
C724 H701 0.950 . S
C724 C723 1.383 . S
C724 C725 1.395 . S
C725 H702 0.950 . S
C725 C724 1.395 . S
C725 C726 1.288 . S
C726 C725 1.288 . S
C726 C727 1.392 . S
C727 H703 0.951 . S
C727 C726 1.392 . S
C727 C728 1.392 . S
C728 H704 0.949 . S
C728 C723 1.382 . S
C728 C727 1.392 . S
C729 C730 1.376 . S
C729 C734 1.386 . S
C729 C735 1.483 . S
C730 H705 0.949 . S
C730 C729 1.376 . S
C730 C731 1.397 . S
C731 H706 0.950 . S
C731 C730 1.397 . S
C731 C732 1.391 . S
C732 C731 1.391 . S
C732 C733 1.405 . S
C733 H707 0.950 . S
C733 C732 1.405 . S
C733 C734 1.367 . S
C734 H708 0.950 . S
C734 C729 1.386 . S
C734 C733 1.367 . S
C735 C729 1.483 . S
C735 C736 1.382 . S
C735 C737 1.403 . S
C736 H709 0.950 . S
C736 C722 1.411 . S
C736 C735 1.382 . S
C737 C721 1.411 . S
C737 C735 1.403 . S
C737 C738 1.489 . S
C738 C737 1.489 . S
C738 C739 1.383 . S
C738 C743 1.382 . S
C739 H710 0.950 . S
C739 C738 1.383 . S
C739 C740 1.395 . S
C740 H711 0.950 . S
C740 C739 1.395 . S
C740 C741 1.288 . S
C741 C740 1.288 . S
C741 C742 1.392 . S
C742 H712 0.951 . S
C742 C741 1.392 . S
C742 C743 1.392 . S
C743 H713 0.949 . S
C743 C738 1.382 . S
C743 C742 1.392 . S
H744 C763 0.949 . S
H745 C764 0.950 . S
H746 C766 0.950 . S
H747 C767 0.950 . S
H748 C769 0.950 . S
H749 C772 0.950 . S
H750 C773 0.950 . S
H751 C775 0.951 . S
H752 C776 0.949 . S
H753 C778 0.949 . S
H754 C779 0.950 . S
H755 C781 0.950 . S
H756 C782 0.950 . S
H757 C784 0.950 . S
H758 C787 0.950 . S
H759 C788 0.950 . S
H760 C790 0.951 . S
H761 C791 0.949 . S
C762 C763 1.376 . S
C762 C767 1.386 . S
C762 C768 1.483 . S
C763 H744 0.949 . S
C763 C762 1.376 . S
C763 C764 1.397 . S
C764 H745 0.950 . S
C764 C763 1.397 . S
C764 C765 1.391 . S
C765 C764 1.391 . S
C765 C766 1.405 . S
C766 H746 0.950 . S
C766 C765 1.405 . S
C766 C767 1.367 . S
C767 H747 0.950 . S
C767 C762 1.386 . S
C767 C766 1.367 . S
C768 C762 1.483 . S
C768 C769 1.382 . S
C768 C770 1.403 . S
C769 H748 0.950 . S
C769 C768 1.382 . S
C769 C785 1.411 . S
C770 C768 1.403 . S
C770 C771 1.489 . S
C770 C784 1.411 . S
C771 C770 1.489 . S
C771 C772 1.383 . S
C771 C776 1.382 . S
C772 H749 0.950 . S
C772 C771 1.383 . S
C772 C773 1.395 . S
C773 H750 0.950 . S
C773 C772 1.395 . S
C773 C774 1.288 . S
C774 C773 1.288 . S
C774 C775 1.392 . S
C775 H751 0.951 . S
C775 C774 1.392 . S
C775 C776 1.392 . S
C776 H752 0.949 . S
C776 C771 1.382 . S
C776 C775 1.392 . S
C777 C778 1.376 . S
C777 C782 1.386 . S
C777 C783 1.483 . S
C778 H753 0.949 . S
C778 C777 1.376 . S
C778 C779 1.397 . S
C779 H754 0.950 . S
C779 C778 1.397 . S
C779 C780 1.391 . S
C780 C779 1.391 . S
C780 C781 1.405 . S
C781 H755 0.950 . S
C781 C780 1.405 . S
C781 C782 1.367 . S
C782 H756 0.950 . S
C782 C777 1.386 . S
C782 C781 1.367 . S
C783 C777 1.483 . S
C783 C784 1.382 . S
C783 C785 1.403 . S
C784 H757 0.950 . S
C784 C770 1.411 . S
C784 C783 1.382 . S
C785 C769 1.411 . S
C785 C783 1.403 . S
C785 C786 1.489 . S
C786 C785 1.489 . S
C786 C787 1.383 . S
C786 C791 1.382 . S
C787 H758 0.950 . S
C787 C786 1.383 . S
C787 C788 1.395 . S
C788 H759 0.950 . S
C788 C787 1.395 . S
C788 C789 1.288 . S
C789 C788 1.288 . S
C789 C790 1.392 . S
C790 H760 0.951 . S
C790 C789 1.392 . S
C790 C791 1.392 . S
C791 H761 0.949 . S
C791 C786 1.382 . S
C791 C790 1.392 . S
H792 C811 0.949 . S
H793 C812 0.950 . S
H794 C814 0.950 . S
H795 C815 0.950 . S
H796 C817 0.950 . S
H797 C820 0.950 . S
H798 C821 0.950 . S
H799 C823 0.951 . S
H800 C824 0.949 . S
H801 C826 0.949 . S
H802 C827 0.950 . S
H803 C829 0.950 . S
H804 C830 0.950 . S
H805 C832 0.950 . S
H806 C835 0.950 . S
H807 C836 0.950 . S
H808 C838 0.951 . S
H809 C839 0.949 . S
C810 C811 1.376 . S
C810 C815 1.386 . S
C810 C816 1.483 . S
C811 H792 0.949 . S
C811 C810 1.376 . S
C811 C812 1.397 . S
C812 H793 0.950 . S
C812 C811 1.397 . S
C812 C813 1.391 . S
C813 C812 1.391 . S
C813 C814 1.405 . S
C814 H794 0.950 . S
C814 C813 1.405 . S
C814 C815 1.367 . S
C815 H795 0.950 . S
C815 C810 1.386 . S
C815 C814 1.367 . S
C816 C810 1.483 . S
C816 C817 1.382 . S
C816 C818 1.403 . S
C817 H796 0.950 . S
C817 C816 1.382 . S
C817 C833 1.411 . S
C818 C816 1.403 . S
C818 C819 1.489 . S
C818 C832 1.411 . S
C819 C818 1.489 . S
C819 C820 1.383 . S
C819 C824 1.382 . S
C820 H797 0.950 . S
C820 C819 1.383 . S
C820 C821 1.395 . S
C821 H798 0.950 . S
C821 C820 1.395 . S
C821 C822 1.288 . S
C822 C821 1.288 . S
C822 C823 1.392 . S
C823 H799 0.951 . S
C823 C822 1.392 . S
C823 C824 1.392 . S
C824 H800 0.949 . S
C824 C819 1.382 . S
C824 C823 1.392 . S
C825 C826 1.376 . S
C825 C830 1.386 . S
C825 C831 1.483 . S
C826 H801 0.949 . S
C826 C825 1.376 . S
C826 C827 1.397 . S
C827 H802 0.950 . S
C827 C826 1.397 . S
C827 C828 1.391 . S
C828 C827 1.391 . S
C828 C829 1.405 . S
C829 H803 0.950 . S
C829 C828 1.405 . S
C829 C830 1.367 . S
C830 H804 0.950 . S
C830 C825 1.386 . S
C830 C829 1.367 . S
C831 C825 1.483 . S
C831 C832 1.382 . S
C831 C833 1.403 . S
C832 H805 0.950 . S
C832 C818 1.411 . S
C832 C831 1.382 . S
C833 C817 1.411 . S
C833 C831 1.403 . S
C833 C834 1.489 . S
C834 C833 1.489 . S
C834 C835 1.383 . S
C834 C839 1.382 . S
C835 H806 0.950 . S
C835 C834 1.383 . S
C835 C836 1.395 . S
C836 H807 0.950 . S
C836 C835 1.395 . S
C836 C837 1.288 . S
C837 C836 1.288 . S
C837 C838 1.392 . S
C838 H808 0.951 . S
C838 C837 1.392 . S
C838 C839 1.392 . S
C839 H809 0.949 . S
C839 C834 1.382 . S
C839 C838 1.392 . S
H840 C859 0.949 . S
H841 C860 0.950 . S
H842 C862 0.950 . S
H843 C863 0.950 . S
H844 C865 0.950 . S
H845 C868 0.950 . S
H846 C869 0.950 . S
H847 C871 0.951 . S
H848 C872 0.949 . S
H849 C874 0.949 . S
H850 C875 0.950 . S
H851 C877 0.950 . S
H852 C878 0.950 . S
H853 C880 0.950 . S
H854 C883 0.950 . S
H855 C884 0.950 . S
H856 C886 0.951 . S
H857 C887 0.949 . S
C858 C859 1.376 . S
C858 C863 1.386 . S
C858 C864 1.483 . S
C859 H840 0.949 . S
C859 C858 1.376 . S
C859 C860 1.397 . S
C860 H841 0.950 . S
C860 C859 1.397 . S
C860 C861 1.391 . S
C861 C860 1.391 . S
C861 C862 1.405 . S
C862 H842 0.950 . S
C862 C861 1.405 . S
C862 C863 1.367 . S
C863 H843 0.950 . S
C863 C858 1.386 . S
C863 C862 1.367 . S
C864 C858 1.483 . S
C864 C865 1.382 . S
C864 C866 1.403 . S
C865 H844 0.950 . S
C865 C864 1.382 . S
C865 C881 1.411 . S
C866 C864 1.403 . S
C866 C867 1.489 . S
C866 C880 1.411 . S
C867 C866 1.489 . S
C867 C868 1.383 . S
C867 C872 1.382 . S
C868 H845 0.950 . S
C868 C867 1.383 . S
C868 C869 1.395 . S
C869 H846 0.950 . S
C869 C868 1.395 . S
C869 C870 1.288 . S
C870 C869 1.288 . S
C870 C871 1.392 . S
C871 H847 0.951 . S
C871 C870 1.392 . S
C871 C872 1.392 . S
C872 H848 0.949 . S
C872 C867 1.382 . S
C872 C871 1.392 . S
C873 C874 1.376 . S
C873 C878 1.386 . S
C873 C879 1.483 . S
C874 H849 0.949 . S
C874 C873 1.376 . S
C874 C875 1.397 . S
C875 H850 0.950 . S
C875 C874 1.397 . S
C875 C876 1.391 . S
C876 C875 1.391 . S
C876 C877 1.405 . S
C877 H851 0.950 . S
C877 C876 1.405 . S
C877 C878 1.367 . S
C878 H852 0.950 . S
C878 C873 1.386 . S
C878 C877 1.367 . S
C879 C873 1.483 . S
C879 C880 1.382 . S
C879 C881 1.403 . S
C880 H853 0.950 . S
C880 C866 1.411 . S
C880 C879 1.382 . S
C881 C865 1.411 . S
C881 C879 1.403 . S
C881 C882 1.489 . S
C882 C881 1.489 . S
C882 C883 1.383 . S
C882 C887 1.382 . S
C883 H854 0.950 . S
C883 C882 1.383 . S
C883 C884 1.395 . S
C884 H855 0.950 . S
C884 C883 1.395 . S
C884 C885 1.288 . S
C885 C884 1.288 . S
C885 C886 1.392 . S
C886 H856 0.951 . S
C886 C885 1.392 . S
C886 C887 1.392 . S
C887 H857 0.949 . S
C887 C882 1.382 . S
C887 C886 1.392 . S
H888 C907 0.949 . S
H889 C908 0.950 . S
H890 C910 0.950 . S
H891 C911 0.950 . S
H892 C913 0.950 . S
H893 C916 0.950 . S
H894 C917 0.950 . S
H895 C919 0.951 . S
H896 C920 0.949 . S
H897 C922 0.949 . S
H898 C923 0.950 . S
H899 C925 0.950 . S
H900 C926 0.950 . S
H901 C928 0.950 . S
H902 C931 0.950 . S
H903 C932 0.950 . S
H904 C934 0.951 . S
H905 C935 0.949 . S
C906 C907 1.376 . S
C906 C911 1.386 . S
C906 C912 1.483 . S
C907 H888 0.949 . S
C907 C906 1.376 . S
C907 C908 1.397 . S
C908 H889 0.950 . S
C908 C907 1.397 . S
C908 C909 1.391 . S
C909 C908 1.391 . S
C909 C910 1.405 . S
C910 H890 0.950 . S
C910 C909 1.405 . S
C910 C911 1.367 . S
C911 H891 0.950 . S
C911 C906 1.386 . S
C911 C910 1.367 . S
C912 C906 1.483 . S
C912 C913 1.382 . S
C912 C914 1.403 . S
C913 H892 0.950 . S
C913 C912 1.382 . S
C913 C929 1.411 . S
C914 C912 1.403 . S
C914 C915 1.489 . S
C914 C928 1.411 . S
C915 C914 1.489 . S
C915 C916 1.383 . S
C915 C920 1.382 . S
C916 H893 0.950 . S
C916 C915 1.383 . S
C916 C917 1.395 . S
C917 H894 0.950 . S
C917 C916 1.395 . S
C917 C918 1.288 . S
C918 C917 1.288 . S
C918 C919 1.392 . S
C919 H895 0.951 . S
C919 C918 1.392 . S
C919 C920 1.392 . S
C920 H896 0.949 . S
C920 C915 1.382 . S
C920 C919 1.392 . S
C921 C922 1.376 . S
C921 C926 1.386 . S
C921 C927 1.483 . S
C922 H897 0.949 . S
C922 C921 1.376 . S
C922 C923 1.397 . S
C923 H898 0.950 . S
C923 C922 1.397 . S
C923 C924 1.391 . S
C924 C923 1.391 . S
C924 C925 1.405 . S
C925 H899 0.950 . S
C925 C924 1.405 . S
C925 C926 1.367 . S
C926 H900 0.950 . S
C926 C921 1.386 . S
C926 C925 1.367 . S
C927 C921 1.483 . S
C927 C928 1.382 . S
C927 C929 1.403 . S
C928 H901 0.950 . S
C928 C914 1.411 . S
C928 C927 1.382 . S
C929 C913 1.411 . S
C929 C927 1.403 . S
C929 C930 1.489 . S
C930 C929 1.489 . S
C930 C931 1.383 . S
C930 C935 1.382 . S
C931 H902 0.950 . S
C931 C930 1.383 . S
C931 C932 1.395 . S
C932 H903 0.950 . S
C932 C931 1.395 . S
C932 C933 1.288 . S
C933 C932 1.288 . S
C933 C934 1.392 . S
C934 H904 0.951 . S
C934 C933 1.392 . S
C934 C935 1.392 . S
C935 H905 0.949 . S
C935 C930 1.382 . S
C935 C934 1.392 . S
H936 C955 0.949 . S
H937 C956 0.950 . S
H938 C958 0.950 . S
H939 C959 0.950 . S
H940 C961 0.950 . S
H941 C964 0.950 . S
H942 C965 0.950 . S
H943 C967 0.951 . S
H944 C968 0.949 . S
H945 C970 0.949 . S
H946 C971 0.950 . S
H947 C973 0.950 . S
H948 C974 0.950 . S
H949 C976 0.950 . S
H950 C979 0.950 . S
H951 C980 0.950 . S
H952 C982 0.951 . S
H953 C983 0.949 . S
C954 C955 1.376 . S
C954 C959 1.386 . S
C954 C960 1.483 . S
C955 H936 0.949 . S
C955 C954 1.376 . S
C955 C956 1.397 . S
C956 H937 0.950 . S
C956 C955 1.397 . S
C956 C957 1.391 . S
C957 C956 1.391 . S
C957 C958 1.405 . S
C958 H938 0.950 . S
C958 C957 1.405 . S
C958 C959 1.367 . S
C959 H939 0.950 . S
C959 C954 1.386 . S
C959 C958 1.367 . S
C960 C954 1.483 . S
C960 C961 1.382 . S
C960 C962 1.403 . S
C961 H940 0.950 . S
C961 C960 1.382 . S
C961 C977 1.411 . S
C962 C960 1.403 . S
C962 C963 1.489 . S
C962 C976 1.411 . S
C963 C962 1.489 . S
C963 C964 1.383 . S
C963 C968 1.382 . S
C964 H941 0.950 . S
C964 C963 1.383 . S
C964 C965 1.395 . S
C965 H942 0.950 . S
C965 C964 1.395 . S
C965 C966 1.288 . S
C966 C965 1.288 . S
C966 C967 1.392 . S
C967 H943 0.951 . S
C967 C966 1.392 . S
C967 C968 1.392 . S
C968 H944 0.949 . S
C968 C963 1.382 . S
C968 C967 1.392 . S
C969 C970 1.376 . S
C969 C974 1.386 . S
C969 C975 1.483 . S
C970 H945 0.949 . S
C970 C969 1.376 . S
C970 C971 1.397 . S
C971 H946 0.950 . S
C971 C970 1.397 . S
C971 C972 1.391 . S
C972 C971 1.391 . S
C972 C973 1.405 . S
C973 H947 0.950 . S
C973 C972 1.405 . S
C973 C974 1.367 . S
C974 H948 0.950 . S
C974 C969 1.386 . S
C974 C973 1.367 . S
C975 C969 1.483 . S
C975 C976 1.382 . S
C975 C977 1.403 . S
C976 H949 0.950 . S
C976 C962 1.411 . S
C976 C975 1.382 . S
C977 C961 1.411 . S
C977 C975 1.403 . S
C977 C978 1.489 . S
C978 C977 1.489 . S
C978 C979 1.383 . S
C978 C983 1.382 . S
C979 H950 0.950 . S
C979 C978 1.383 . S
C979 C980 1.395 . S
C980 H951 0.950 . S
C980 C979 1.395 . S
C980 C981 1.288 . S
C981 C980 1.288 . S
C981 C982 1.392 . S
C982 H952 0.951 . S
C982 C981 1.392 . S
C982 C983 1.392 . S
C983 H953 0.949 . S
C983 C978 1.382 . S
C983 C982 1.392 . S
H984 C1003 0.949 . S
H985 C1004 0.950 . S
H986 C1006 0.950 . S
H987 C1007 0.950 . S
H988 C1009 0.950 . S
H989 C1012 0.950 . S
H990 C1013 0.950 . S
H991 C1015 0.951 . S
H992 C1016 0.949 . S
H993 C1018 0.949 . S
H994 C1019 0.950 . S
H995 C1021 0.950 . S
H996 C1022 0.950 . S
H997 C1024 0.950 . S
H998 C1027 0.950 . S
H999 C1028 0.950 . S
H1000 C1030 0.951 . S
H1001 C1031 0.949 . S
C1002 C1003 1.376 . S
C1002 C1007 1.386 . S
C1002 C1008 1.483 . S
C1003 H984 0.949 . S
C1003 C1002 1.376 . S
C1003 C1004 1.397 . S
C1004 H985 0.950 . S
C1004 C1003 1.397 . S
C1004 C1005 1.391 . S
C1005 C1004 1.391 . S
C1005 C1006 1.405 . S
C1006 H986 0.950 . S
C1006 C1005 1.405 . S
C1006 C1007 1.367 . S
C1007 H987 0.950 . S
C1007 C1002 1.386 . S
C1007 C1006 1.367 . S
C1008 C1002 1.483 . S
C1008 C1009 1.382 . S
C1008 C1010 1.403 . S
C1009 H988 0.950 . S
C1009 C1008 1.382 . S
C1009 C1025 1.411 . S
C1010 C1008 1.403 . S
C1010 C1011 1.489 . S
C1010 C1024 1.411 . S
C1011 C1010 1.489 . S
C1011 C1012 1.383 . S
C1011 C1016 1.382 . S
C1012 H989 0.950 . S
C1012 C1011 1.383 . S
C1012 C1013 1.395 . S
C1013 H990 0.950 . S
C1013 C1012 1.395 . S
C1013 C1014 1.288 . S
C1014 C1013 1.288 . S
C1014 C1015 1.392 . S
C1015 H991 0.951 . S
C1015 C1014 1.392 . S
C1015 C1016 1.392 . S
C1016 H992 0.949 . S
C1016 C1011 1.382 . S
C1016 C1015 1.392 . S
C1017 C1018 1.376 . S
C1017 C1022 1.386 . S
C1017 C1023 1.483 . S
C1018 H993 0.949 . S
C1018 C1017 1.376 . S
C1018 C1019 1.397 . S
C1019 H994 0.950 . S
C1019 C1018 1.397 . S
C1019 C1020 1.391 . S
C1020 C1019 1.391 . S
C1020 C1021 1.405 . S
C1021 H995 0.950 . S
C1021 C1020 1.405 . S
C1021 C1022 1.367 . S
C1022 H996 0.950 . S
C1022 C1017 1.386 . S
C1022 C1021 1.367 . S
C1023 C1017 1.483 . S
C1023 C1024 1.382 . S
C1023 C1025 1.403 . S
C1024 H997 0.950 . S
C1024 C1010 1.411 . S
C1024 C1023 1.382 . S
C1025 C1009 1.411 . S
C1025 C1023 1.403 . S
C1025 C1026 1.489 . S
C1026 C1025 1.489 . S
C1026 C1027 1.383 . S
C1026 C1031 1.382 . S
C1027 H998 0.950 . S
C1027 C1026 1.383 . S
C1027 C1028 1.395 . S
C1028 H999 0.950 . S
C1028 C1027 1.395 . S
C1028 C1029 1.288 . S
C1029 C1028 1.288 . S
C1029 C1030 1.392 . S
C1030 H1000 0.951 . S
C1030 C1029 1.392 . S
C1030 C1031 1.392 . S
C1031 H1001 0.949 . S
C1031 C1026 1.382 . S
C1031 C1030 1.392 . S
H1032 C1051 0.949 . S
H1033 C1052 0.950 . S
H1034 C1054 0.950 . S
H1035 C1055 0.950 . S
H1036 C1057 0.950 . S
H1037 C1060 0.950 . S
H1038 C1061 0.950 . S
H1039 C1063 0.951 . S
H1040 C1064 0.949 . S
H1041 C1066 0.949 . S
H1042 C1067 0.950 . S
H1043 C1069 0.950 . S
H1044 C1070 0.950 . S
H1045 C1072 0.950 . S
H1046 C1075 0.950 . S
H1047 C1076 0.950 . S
H1048 C1078 0.951 . S
H1049 C1079 0.949 . S
C1050 C1051 1.376 . S
C1050 C1055 1.386 . S
C1050 C1056 1.483 . S
C1051 H1032 0.949 . S
C1051 C1050 1.376 . S
C1051 C1052 1.397 . S
C1052 H1033 0.950 . S
C1052 C1051 1.397 . S
C1052 C1053 1.391 . S
C1053 C1052 1.391 . S
C1053 C1054 1.405 . S
C1054 H1034 0.950 . S
C1054 C1053 1.405 . S
C1054 C1055 1.367 . S
C1055 H1035 0.950 . S
C1055 C1050 1.386 . S
C1055 C1054 1.367 . S
C1056 C1050 1.483 . S
C1056 C1057 1.382 . S
C1056 C1058 1.403 . S
C1057 H1036 0.950 . S
C1057 C1056 1.382 . S
C1057 C1073 1.411 . S
C1058 C1056 1.403 . S
C1058 C1059 1.489 . S
C1058 C1072 1.411 . S
C1059 C1058 1.489 . S
C1059 C1060 1.383 . S
C1059 C1064 1.382 . S
C1060 H1037 0.950 . S
C1060 C1059 1.383 . S
C1060 C1061 1.395 . S
C1061 H1038 0.950 . S
C1061 C1060 1.395 . S
C1061 C1062 1.288 . S
C1062 C1061 1.288 . S
C1062 C1063 1.392 . S
C1063 H1039 0.951 . S
C1063 C1062 1.392 . S
C1063 C1064 1.392 . S
C1064 H1040 0.949 . S
C1064 C1059 1.382 . S
C1064 C1063 1.392 . S
C1065 C1066 1.376 . S
C1065 C1070 1.386 . S
C1065 C1071 1.483 . S
C1066 H1041 0.949 . S
C1066 C1065 1.376 . S
C1066 C1067 1.397 . S
C1067 H1042 0.950 . S
C1067 C1066 1.397 . S
C1067 C1068 1.391 . S
C1068 C1067 1.391 . S
C1068 C1069 1.405 . S
C1069 H1043 0.950 . S
C1069 C1068 1.405 . S
C1069 C1070 1.367 . S
C1070 H1044 0.950 . S
C1070 C1065 1.386 . S
C1070 C1069 1.367 . S
C1071 C1065 1.483 . S
C1071 C1072 1.382 . S
C1071 C1073 1.403 . S
C1072 H1045 0.950 . S
C1072 C1058 1.411 . S
C1072 C1071 1.382 . S
C1073 C1057 1.411 . S
C1073 C1071 1.403 . S
C1073 C1074 1.489 . S
C1074 C1073 1.489 . S
C1074 C1075 1.383 . S
C1074 C1079 1.382 . S
C1075 H1046 0.950 . S
C1075 C1074 1.383 . S
C1075 C1076 1.395 . S
C1076 H1047 0.950 . S
C1076 C1075 1.395 . S
C1076 C1077 1.288 . S
C1077 C1076 1.288 . S
C1077 C1078 1.392 . S
C1078 H1048 0.951 . S
C1078 C1077 1.392 . S
C1078 C1079 1.392 . S
C1079 H1049 0.949 . S
C1079 C1074 1.382 . S
C1079 C1078 1.392 . S
H1080 C1099 0.949 . S
H1081 C1100 0.950 . S
H1082 C1102 0.950 . S
H1083 C1103 0.950 . S
H1084 C1105 0.950 . S
H1085 C1108 0.950 . S
H1086 C1109 0.950 . S
H1087 C1111 0.951 . S
H1088 C1112 0.949 . S
H1089 C1114 0.949 . S
H1090 C1115 0.950 . S
H1091 C1117 0.950 . S
H1092 C1118 0.950 . S
H1093 C1120 0.950 . S
H1094 C1123 0.950 . S
H1095 C1124 0.950 . S
H1096 C1126 0.951 . S
H1097 C1127 0.949 . S
C1098 C1099 1.376 . S
C1098 C1103 1.386 1_655 S
C1098 C1104 1.483 . S
C1099 H1080 0.949 . S
C1099 C1098 1.376 . S
C1099 C1100 1.397 . S
C1100 H1081 0.950 . S
C1100 C1099 1.397 . S
C1100 C1101 1.391 . S
C1101 C1100 1.391 . S
C1101 C1102 1.405 1_655 S
C1102 H1082 0.950 . S
C1102 C1101 1.405 1_455 S
C1102 C1103 1.367 . S
C1103 H1083 0.950 . S
C1103 C1098 1.386 1_455 S
C1103 C1102 1.367 . S
C1104 C1098 1.483 . S
C1104 C1105 1.382 . S
C1104 C1106 1.403 1_655 S
C1105 H1084 0.950 . S
C1105 C1104 1.382 . S
C1105 C1121 1.411 . S
C1106 C1104 1.403 1_455 S
C1106 C1107 1.489 . S
C1106 C1120 1.411 . S
C1107 C1106 1.489 . S
C1107 C1108 1.383 1_455 S
C1107 C1112 1.382 . S
C1108 H1085 0.950 . S
C1108 C1107 1.383 1_655 S
C1108 C1109 1.395 . S
C1109 H1086 0.950 . S
C1109 C1108 1.395 . S
C1109 C1110 1.288 1_655 S
C1110 C1109 1.288 1_455 S
C1110 C1111 1.392 . S
C1111 H1087 0.951 . S
C1111 C1110 1.392 . S
C1111 C1112 1.392 . S
C1112 H1088 0.949 . S
C1112 C1107 1.382 . S
C1112 C1111 1.392 . S
C1113 C1114 1.376 . S
C1113 C1118 1.386 1_455 S
C1113 C1119 1.483 . S
C1114 H1089 0.949 . S
C1114 C1113 1.376 . S
C1114 C1115 1.397 . S
C1115 H1090 0.950 . S
C1115 C1114 1.397 . S
C1115 C1116 1.391 . S
C1116 C1115 1.391 . S
C1116 C1117 1.405 1_455 S
C1117 H1091 0.950 . S
C1117 C1116 1.405 1_655 S
C1117 C1118 1.367 . S
C1118 H1092 0.950 . S
C1118 C1113 1.386 1_655 S
C1118 C1117 1.367 . S
C1119 C1113 1.483 . S
C1119 C1120 1.382 . S
C1119 C1121 1.403 1_455 S
C1120 H1093 0.950 . S
C1120 C1106 1.411 . S
C1120 C1119 1.382 . S
C1121 C1105 1.411 . S
C1121 C1119 1.403 1_655 S
C1121 C1122 1.489 . S
C1122 C1121 1.489 . S
C1122 C1123 1.383 1_655 S
C1122 C1127 1.382 . S
C1123 H1094 0.950 . S
C1123 C1122 1.383 1_455 S
C1123 C1124 1.395 . S
C1124 H1095 0.950 . S
C1124 C1123 1.395 . S
C1124 C1125 1.288 1_455 S
C1125 C1124 1.288 1_655 S
C1125 C1126 1.392 . S
C1126 H1096 0.951 . S
C1126 C1125 1.392 . S
C1126 C1127 1.392 . S
C1127 H1097 0.949 . S
C1127 C1122 1.382 . S
C1127 C1126 1.392 . S
H1128 C1147 0.949 . S
H1129 C1148 0.950 . S
H1130 C1150 0.950 . S
H1131 C1151 0.950 . S
H1132 C1153 0.950 . S
H1133 C1156 0.950 . S
H1134 C1157 0.950 . S
H1135 C1159 0.951 . S
H1136 C1160 0.949 . S
H1137 C1162 0.949 . S
H1138 C1163 0.950 . S
H1139 C1165 0.950 . S
H1140 C1166 0.950 . S
H1141 C1168 0.950 . S
H1142 C1171 0.950 . S
H1143 C1172 0.950 . S
H1144 C1174 0.951 . S
H1145 C1175 0.949 . S
C1146 C1147 1.376 . S
C1146 C1151 1.386 . S
C1146 C1152 1.483 . S
C1147 H1128 0.949 . S
C1147 C1146 1.376 . S
C1147 C1148 1.397 . S
C1148 H1129 0.950 . S
C1148 C1147 1.397 . S
C1148 C1149 1.391 . S
C1149 C1148 1.391 . S
C1149 C1150 1.405 . S
C1150 H1130 0.950 . S
C1150 C1149 1.405 . S
C1150 C1151 1.367 . S
C1151 H1131 0.950 . S
C1151 C1146 1.386 . S
C1151 C1150 1.367 . S
C1152 C1146 1.483 . S
C1152 C1153 1.382 . S
C1152 C1154 1.403 . S
C1153 H1132 0.950 . S
C1153 C1152 1.382 . S
C1153 C1169 1.411 . S
C1154 C1152 1.403 . S
C1154 C1155 1.489 . S
C1154 C1168 1.411 . S
C1155 C1154 1.489 . S
C1155 C1156 1.383 . S
C1155 C1160 1.382 . S
C1156 H1133 0.950 . S
C1156 C1155 1.383 . S
C1156 C1157 1.395 . S
C1157 H1134 0.950 . S
C1157 C1156 1.395 . S
C1157 C1158 1.288 . S
C1158 C1157 1.288 . S
C1158 C1159 1.392 . S
C1159 H1135 0.951 . S
C1159 C1158 1.392 . S
C1159 C1160 1.392 . S
C1160 H1136 0.949 . S
C1160 C1155 1.382 . S
C1160 C1159 1.392 . S
C1161 C1162 1.376 . S
C1161 C1166 1.386 . S
C1161 C1167 1.483 . S
C1162 H1137 0.949 . S
C1162 C1161 1.376 . S
C1162 C1163 1.397 . S
C1163 H1138 0.950 . S
C1163 C1162 1.397 . S
C1163 C1164 1.391 . S
C1164 C1163 1.391 . S
C1164 C1165 1.405 . S
C1165 H1139 0.950 . S
C1165 C1164 1.405 . S
C1165 C1166 1.367 . S
C1166 H1140 0.950 . S
C1166 C1161 1.386 . S
C1166 C1165 1.367 . S
C1167 C1161 1.483 . S
C1167 C1168 1.382 . S
C1167 C1169 1.403 . S
C1168 H1141 0.950 . S
C1168 C1154 1.411 . S
C1168 C1167 1.382 . S
C1169 C1153 1.411 . S
C1169 C1167 1.403 . S
C1169 C1170 1.489 . S
C1170 C1169 1.489 . S
C1170 C1171 1.383 . S
C1170 C1175 1.382 . S
C1171 H1142 0.950 . S
C1171 C1170 1.383 . S
C1171 C1172 1.395 . S
C1172 H1143 0.950 . S
C1172 C1171 1.395 . S
C1172 C1173 1.288 . S
C1173 C1172 1.288 . S
C1173 C1174 1.392 . S
C1174 H1144 0.951 . S
C1174 C1173 1.392 . S
C1174 C1175 1.392 . S
C1175 H1145 0.949 . S
C1175 C1170 1.382 . S
C1175 C1174 1.392 . S
H1176 C1195 0.949 . S
H1177 C1196 0.950 . S
H1178 C1198 0.950 . S
H1179 C1199 0.950 . S
H1180 C1201 0.950 . S
H1181 C1204 0.950 . S
H1182 C1205 0.950 . S
H1183 C1207 0.951 . S
H1184 C1208 0.949 . S
H1185 C1210 0.949 . S
H1186 C1211 0.950 . S
H1187 C1213 0.950 . S
H1188 C1214 0.950 . S
H1189 C1216 0.950 . S
H1190 C1219 0.950 . S
H1191 C1220 0.950 . S
H1192 C1222 0.951 . S
H1193 C1223 0.949 . S
C1194 C1195 1.376 . S
C1194 C1199 1.386 1_545 S
C1194 C1200 1.483 . S
C1195 H1176 0.949 . S
C1195 C1194 1.376 . S
C1195 C1196 1.397 . S
C1196 H1177 0.950 . S
C1196 C1195 1.397 . S
C1196 C1197 1.391 . S
C1197 C1196 1.391 . S
C1197 C1198 1.405 1_545 S
C1198 H1178 0.950 . S
C1198 C1197 1.405 1_565 S
C1198 C1199 1.367 . S
C1199 H1179 0.950 . S
C1199 C1194 1.386 1_565 S
C1199 C1198 1.367 . S
C1200 C1194 1.483 . S
C1200 C1201 1.382 . S
C1200 C1202 1.403 1_545 S
C1201 H1180 0.950 . S
C1201 C1200 1.382 . S
C1201 C1217 1.411 . S
C1202 C1200 1.403 1_565 S
C1202 C1203 1.489 . S
C1202 C1216 1.411 . S
C1203 C1202 1.489 . S
C1203 C1204 1.383 1_565 S
C1203 C1208 1.382 . S
C1204 H1181 0.950 . S
C1204 C1203 1.383 1_545 S
C1204 C1205 1.395 . S
C1205 H1182 0.950 . S
C1205 C1204 1.395 . S
C1205 C1206 1.288 1_545 S
C1206 C1205 1.288 1_565 S
C1206 C1207 1.392 . S
C1207 H1183 0.951 . S
C1207 C1206 1.392 . S
C1207 C1208 1.392 . S
C1208 H1184 0.949 . S
C1208 C1203 1.382 . S
C1208 C1207 1.392 . S
C1209 C1210 1.376 . S
C1209 C1214 1.386 1_565 S
C1209 C1215 1.483 . S
C1210 H1185 0.949 . S
C1210 C1209 1.376 . S
C1210 C1211 1.397 . S
C1211 H1186 0.950 . S
C1211 C1210 1.397 . S
C1211 C1212 1.391 . S
C1212 C1211 1.391 . S
C1212 C1213 1.405 1_565 S
C1213 H1187 0.950 . S
C1213 C1212 1.405 1_545 S
C1213 C1214 1.367 . S
C1214 H1188 0.950 . S
C1214 C1209 1.386 1_545 S
C1214 C1213 1.367 . S
C1215 C1209 1.483 . S
C1215 C1216 1.382 . S
C1215 C1217 1.403 1_565 S
C1216 H1189 0.950 . S
C1216 C1202 1.411 . S
C1216 C1215 1.382 . S
C1217 C1201 1.411 . S
C1217 C1215 1.403 1_545 S
C1217 C1218 1.489 . S
C1218 C1217 1.489 . S
C1218 C1219 1.383 1_545 S
C1218 C1223 1.382 . S
C1219 H1190 0.950 . S
C1219 C1218 1.383 1_565 S
C1219 C1220 1.395 . S
C1220 H1191 0.950 . S
C1220 C1219 1.395 . S
C1220 C1221 1.288 1_565 S
C1221 C1220 1.288 1_545 S
C1221 C1222 1.392 . S
C1222 H1192 0.951 . S
C1222 C1221 1.392 . S
C1222 C1223 1.392 . S
C1223 H1193 0.949 . S
C1223 C1218 1.382 . S
C1223 C1222 1.392 . S
H1224 C1243 0.949 . S
H1225 C1244 0.950 . S
H1226 C1246 0.950 . S
H1227 C1247 0.950 . S
H1228 C1249 0.950 . S
H1229 C1252 0.950 . S
H1230 C1253 0.950 . S
H1231 C1255 0.951 . S
H1232 C1256 0.949 . S
H1233 C1258 0.949 . S
H1234 C1259 0.950 . S
H1235 C1261 0.950 . S
H1236 C1262 0.950 . S
H1237 C1264 0.950 . S
H1238 C1267 0.950 . S
H1239 C1268 0.950 . S
H1240 C1270 0.951 . S
H1241 C1271 0.949 . S
C1242 C1243 1.378 . S
C1242 C1247 1.385 1_545 S
C1242 C1248 1.505 . S
C1243 H1224 0.949 . S
C1243 C1242 1.378 . S
C1243 C1244 1.397 . S
C1244 H1225 0.950 . S
C1244 C1243 1.397 . S
C1244 C1245 1.391 1_545 S
C1245 C1244 1.391 1_565 S
C1245 C1246 1.405 . S
C1246 H1226 0.950 . S
C1246 C1245 1.405 . S
C1246 C1247 1.367 . S
C1247 H1227 0.950 . S
C1247 C1242 1.385 1_565 S
C1247 C1246 1.367 . S
C1248 C1242 1.505 . S
C1248 C1249 1.361 . S
C1248 C1250 1.398 1_545 S
C1249 H1228 0.950 . S
C1249 C1248 1.361 . S
C1249 C1265 1.447 . S
C1250 C1248 1.398 1_565 S
C1250 C1251 1.486 . S
C1250 C1264 1.435 . S
C1251 C1250 1.486 . S
C1251 C1252 1.342 1_565 S
C1251 C1256 1.404 . S
C1252 H1229 0.950 . S
C1252 C1251 1.342 1_545 S
C1252 C1253 1.395 . S
C1253 H1230 0.950 . S
C1253 C1252 1.395 . S
C1253 C1254 1.331 . S
C1254 C1253 1.331 . S
C1254 C1255 1.312 1_545 S
C1255 H1231 0.951 . S
C1255 C1254 1.312 1_565 S
C1255 C1256 1.392 . S
C1256 H1232 0.949 . S
C1256 C1251 1.404 . S
C1256 C1255 1.392 . S
C1257 C1258 1.378 1_545 S
C1257 C1262 1.385 . S
C1257 C1263 1.496 1_545 S
C1258 H1233 0.949 . S
C1258 C1257 1.378 1_565 S
C1258 C1259 1.397 . S
C1259 H1234 0.950 . S
C1259 C1258 1.397 . S
C1259 C1260 1.391 1_565 S
C1260 C1259 1.391 1_545 S
C1260 C1261 1.405 . S
C1261 H1235 0.950 . S
C1261 C1260 1.405 . S
C1261 C1262 1.367 . S
C1262 H1236 0.950 . S
C1262 C1257 1.385 . S
C1262 C1261 1.367 . S
C1263 C1257 1.496 1_565 S
C1263 C1264 1.368 . S
C1263 C1265 1.398 1_565 S
C1264 H1237 0.950 . S
C1264 C1250 1.435 . S
C1264 C1263 1.368 . S
C1265 C1249 1.447 . S
C1265 C1263 1.398 1_545 S
C1265 C1266 1.486 . S
C1266 C1265 1.486 . S
C1266 C1267 1.321 1_545 S
C1266 C1271 1.417 . S
C1267 H1238 0.950 . S
C1267 C1266 1.321 1_565 S
C1267 C1268 1.395 . S
C1268 H1239 0.950 . S
C1268 C1267 1.395 . S
C1268 C1269 1.319 . S
C1269 C1268 1.319 . S
C1269 C1270 1.333 1_565 S
C1270 H1240 0.951 . S
C1270 C1269 1.333 1_545 S
C1270 C1271 1.392 . S
C1271 H1241 0.949 . S
C1271 C1266 1.417 . S
C1271 C1270 1.392 . S
H1272 C1291 0.949 . S
H1273 C1292 0.950 . S
H1274 C1294 0.950 . S
H1275 C1295 0.950 . S
H1276 C1297 0.950 . S
H1277 C1300 0.950 . S
H1278 C1301 0.950 . S
H1279 C1303 0.951 . S
H1280 C1304 0.949 . S
H1281 C1306 0.949 . S
H1282 C1307 0.950 . S
H1283 C1309 0.950 . S
H1284 C1310 0.950 . S
H1285 C1312 0.950 . S
H1286 C1315 0.950 . S
H1287 C1316 0.950 . S
H1288 C1318 0.951 . S
H1289 C1319 0.949 . S
C1290 C1291 1.376 . S
C1290 C1295 1.386 1_455 S
C1290 C1296 1.483 . S
C1291 H1272 0.949 . S
C1291 C1290 1.376 . S
C1291 C1292 1.397 . S
C1292 H1273 0.950 . S
C1292 C1291 1.397 . S
C1292 C1293 1.391 . S
C1293 C1292 1.391 . S
C1293 C1294 1.405 1_455 S
C1294 H1274 0.950 . S
C1294 C1293 1.405 1_655 S
C1294 C1295 1.367 . S
C1295 H1275 0.950 . S
C1295 C1290 1.386 1_655 S
C1295 C1294 1.367 . S
C1296 C1290 1.483 . S
C1296 C1297 1.382 . S
C1296 C1298 1.403 1_455 S
C1297 H1276 0.950 . S
C1297 C1296 1.382 . S
C1297 C1313 1.411 . S
C1298 C1296 1.403 1_655 S
C1298 C1299 1.489 . S
C1298 C1312 1.411 . S
C1299 C1298 1.489 . S
C1299 C1300 1.383 1_655 S
C1299 C1304 1.382 . S
C1300 H1277 0.950 . S
C1300 C1299 1.383 1_455 S
C1300 C1301 1.395 . S
C1301 H1278 0.950 . S
C1301 C1300 1.395 . S
C1301 C1302 1.288 1_455 S
C1302 C1301 1.288 1_655 S
C1302 C1303 1.392 . S
C1303 H1279 0.951 . S
C1303 C1302 1.392 . S
C1303 C1304 1.392 . S
C1304 H1280 0.949 . S
C1304 C1299 1.382 . S
C1304 C1303 1.392 . S
C1305 C1306 1.376 . S
C1305 C1310 1.386 1_655 S
C1305 C1311 1.483 . S
C1306 H1281 0.949 . S
C1306 C1305 1.376 . S
C1306 C1307 1.397 . S
C1307 H1282 0.950 . S
C1307 C1306 1.397 . S
C1307 C1308 1.391 . S
C1308 C1307 1.391 . S
C1308 C1309 1.405 1_655 S
C1309 H1283 0.950 . S
C1309 C1308 1.405 1_455 S
C1309 C1310 1.367 . S
C1310 H1284 0.950 . S
C1310 C1305 1.386 1_455 S
C1310 C1309 1.367 . S
C1311 C1305 1.483 . S
C1311 C1312 1.382 . S
C1311 C1313 1.403 1_655 S
C1312 H1285 0.950 . S
C1312 C1298 1.411 . S
C1312 C1311 1.382 . S
C1313 C1297 1.411 . S
C1313 C1311 1.403 1_455 S
C1313 C1314 1.489 . S
C1314 C1313 1.489 . S
C1314 C1315 1.383 1_455 S
C1314 C1319 1.382 . S
C1315 H1286 0.950 . S
C1315 C1314 1.383 1_655 S
C1315 C1316 1.395 . S
C1316 H1287 0.950 . S
C1316 C1315 1.395 . S
C1316 C1317 1.288 1_655 S
C1317 C1316 1.288 1_455 S
C1317 C1318 1.392 . S
C1318 H1288 0.951 . S
C1318 C1317 1.392 . S
C1318 C1319 1.392 . S
C1319 H1289 0.949 . S
C1319 C1314 1.382 . S
C1319 C1318 1.392 . S
H1320 C1339 0.949 . S
H1321 C1340 0.950 . S
H1322 C1342 0.950 . S
H1323 C1343 0.950 . S
H1324 C1345 0.950 . S
H1325 C1348 0.950 . S
H1326 C1349 0.950 . S
H1327 C1351 0.951 . S
H1328 C1352 0.949 . S
H1329 C1354 0.949 . S
H1330 C1355 0.950 . S
H1331 C1357 0.950 . S
H1332 C1358 0.950 . S
H1333 C1360 0.950 . S
H1334 C1363 0.950 . S
H1335 C1364 0.950 . S
H1336 C1366 0.951 . S
H1337 C1367 0.949 . S
C1338 C1339 1.376 . S
C1338 C1343 1.386 . S
C1338 C1344 1.483 . S
C1339 H1320 0.949 . S
C1339 C1338 1.376 . S
C1339 C1340 1.397 . S
C1340 H1321 0.950 . S
C1340 C1339 1.397 . S
C1340 C1341 1.391 . S
C1341 C1340 1.391 . S
C1341 C1342 1.405 . S
C1342 H1322 0.950 . S
C1342 C1341 1.405 . S
C1342 C1343 1.367 . S
C1343 H1323 0.950 . S
C1343 C1338 1.386 . S
C1343 C1342 1.367 . S
C1344 C1338 1.483 . S
C1344 C1345 1.382 . S
C1344 C1346 1.403 . S
C1345 H1324 0.950 . S
C1345 C1344 1.382 . S
C1345 C1361 1.411 . S
C1346 C1344 1.403 . S
C1346 C1347 1.489 . S
C1346 C1360 1.411 . S
C1347 C1346 1.489 . S
C1347 C1348 1.383 . S
C1347 C1352 1.382 . S
C1348 H1325 0.950 . S
C1348 C1347 1.383 . S
C1348 C1349 1.395 . S
C1349 H1326 0.950 . S
C1349 C1348 1.395 . S
C1349 C1350 1.288 . S
C1350 C1349 1.288 . S
C1350 C1351 1.392 . S
C1351 H1327 0.951 . S
C1351 C1350 1.392 . S
C1351 C1352 1.392 . S
C1352 H1328 0.949 . S
C1352 C1347 1.382 . S
C1352 C1351 1.392 . S
C1353 C1354 1.376 . S
C1353 C1358 1.386 . S
C1353 C1359 1.483 . S
C1354 H1329 0.949 . S
C1354 C1353 1.376 . S
C1354 C1355 1.397 . S
C1355 H1330 0.950 . S
C1355 C1354 1.397 . S
C1355 C1356 1.391 . S
C1356 C1355 1.391 . S
C1356 C1357 1.405 . S
C1357 H1331 0.950 . S
C1357 C1356 1.405 . S
C1357 C1358 1.367 . S
C1358 H1332 0.950 . S
C1358 C1353 1.386 . S
C1358 C1357 1.367 . S
C1359 C1353 1.483 . S
C1359 C1360 1.382 . S
C1359 C1361 1.403 . S
C1360 H1333 0.950 . S
C1360 C1346 1.411 . S
C1360 C1359 1.382 . S
C1361 C1345 1.411 . S
C1361 C1359 1.403 . S
C1361 C1362 1.489 . S
C1362 C1361 1.489 . S
C1362 C1363 1.383 . S
C1362 C1367 1.382 . S
C1363 H1334 0.950 . S
C1363 C1362 1.383 . S
C1363 C1364 1.395 . S
C1364 H1335 0.950 . S
C1364 C1363 1.395 . S
C1364 C1365 1.288 . S
C1365 C1364 1.288 . S
C1365 C1366 1.392 . S
C1366 H1336 0.951 . S
C1366 C1365 1.392 . S
C1366 C1367 1.392 . S
C1367 H1337 0.949 . S
C1367 C1362 1.382 . S
C1367 C1366 1.392 . S
H1368 C1387 0.949 . S
H1369 C1388 0.950 . S
H1370 C1390 0.950 . S
H1371 C1391 0.950 . S
H1372 C1393 0.950 . S
H1373 C1396 0.950 . S
H1374 C1397 0.950 . S
H1375 C1399 0.951 . S
H1376 C1400 0.949 . S
H1377 C1402 0.949 . S
H1378 C1403 0.950 . S
H1379 C1405 0.950 . S
H1380 C1406 0.950 . S
H1381 C1408 0.950 . S
H1382 C1411 0.950 . S
H1383 C1412 0.950 . S
H1384 C1414 0.951 . S
H1385 C1415 0.949 . S
C1386 C1387 1.376 . S
C1386 C1391 1.386 . S
C1386 C1392 1.483 . S
C1387 H1368 0.949 . S
C1387 C1386 1.376 . S
C1387 C1388 1.397 . S
C1388 H1369 0.950 . S
C1388 C1387 1.397 . S
C1388 C1389 1.391 . S
C1389 C1388 1.391 . S
C1389 C1390 1.405 . S
C1390 H1370 0.950 . S
C1390 C1389 1.405 . S
C1390 C1391 1.367 . S
C1391 H1371 0.950 . S
C1391 C1386 1.386 . S
C1391 C1390 1.367 . S
C1392 C1386 1.483 . S
C1392 C1393 1.382 . S
C1392 C1394 1.403 . S
C1393 H1372 0.950 . S
C1393 C1392 1.382 . S
C1393 C1409 1.411 . S
C1394 C1392 1.403 . S
C1394 C1395 1.489 . S
C1394 C1408 1.411 . S
C1395 C1394 1.489 . S
C1395 C1396 1.383 . S
C1395 C1400 1.382 . S
C1396 H1373 0.950 . S
C1396 C1395 1.383 . S
C1396 C1397 1.395 . S
C1397 H1374 0.950 . S
C1397 C1396 1.395 . S
C1397 C1398 1.288 . S
C1398 C1397 1.288 . S
C1398 C1399 1.392 . S
C1399 H1375 0.951 . S
C1399 C1398 1.392 . S
C1399 C1400 1.392 . S
C1400 H1376 0.949 . S
C1400 C1395 1.382 . S
C1400 C1399 1.392 . S
C1401 C1402 1.376 . S
C1401 C1406 1.386 . S
C1401 C1407 1.483 . S
C1402 H1377 0.949 . S
C1402 C1401 1.376 . S
C1402 C1403 1.397 . S
C1403 H1378 0.950 . S
C1403 C1402 1.397 . S
C1403 C1404 1.391 . S
C1404 C1403 1.391 . S
C1404 C1405 1.405 . S
C1405 H1379 0.950 . S
C1405 C1404 1.405 . S
C1405 C1406 1.367 . S
C1406 H1380 0.950 . S
C1406 C1401 1.386 . S
C1406 C1405 1.367 . S
C1407 C1401 1.483 . S
C1407 C1408 1.382 . S
C1407 C1409 1.403 . S
C1408 H1381 0.950 . S
C1408 C1394 1.411 . S
C1408 C1407 1.382 . S
C1409 C1393 1.411 . S
C1409 C1407 1.403 . S
C1409 C1410 1.489 . S
C1410 C1409 1.489 . S
C1410 C1411 1.383 . S
C1410 C1415 1.382 . S
C1411 H1382 0.950 . S
C1411 C1410 1.383 . S
C1411 C1412 1.395 . S
C1412 H1383 0.950 . S
C1412 C1411 1.395 . S
C1412 C1413 1.288 . S
C1413 C1412 1.288 . S
C1413 C1414 1.392 . S
C1414 H1384 0.951 . S
C1414 C1413 1.392 . S
C1414 C1415 1.392 . S
C1415 H1385 0.949 . S
C1415 C1410 1.382 . S
C1415 C1414 1.392 . S
H1416 C1435 0.949 . S
H1417 C1436 0.950 . S
H1418 C1438 0.950 . S
H1419 C1439 0.950 . S
H1420 C1441 0.950 . S
H1421 C1444 0.950 . S
H1422 C1445 0.950 . S
H1423 C1447 0.951 . S
H1424 C1448 0.949 . S
H1425 C1450 0.949 . S
H1426 C1451 0.950 . S
H1427 C1453 0.950 . S
H1428 C1454 0.950 . S
H1429 C1456 0.950 . S
H1430 C1459 0.950 . S
H1431 C1460 0.950 . S
H1432 C1462 0.951 . S
H1433 C1463 0.949 . S
C1434 C1435 1.376 . S
C1434 C1439 1.386 . S
C1434 C1440 1.483 . S
C1435 H1416 0.949 . S
C1435 C1434 1.376 . S
C1435 C1436 1.397 . S
C1436 H1417 0.950 . S
C1436 C1435 1.397 . S
C1436 C1437 1.391 . S
C1437 C1436 1.391 . S
C1437 C1438 1.405 . S
C1438 H1418 0.950 . S
C1438 C1437 1.405 . S
C1438 C1439 1.367 . S
C1439 H1419 0.950 . S
C1439 C1434 1.386 . S
C1439 C1438 1.367 . S
C1440 C1434 1.483 . S
C1440 C1441 1.382 . S
C1440 C1442 1.403 . S
C1441 H1420 0.950 . S
C1441 C1440 1.382 . S
C1441 C1457 1.411 . S
C1442 C1440 1.403 . S
C1442 C1443 1.489 . S
C1442 C1456 1.411 . S
C1443 C1442 1.489 . S
C1443 C1444 1.383 . S
C1443 C1448 1.382 . S
C1444 H1421 0.950 . S
C1444 C1443 1.383 . S
C1444 C1445 1.395 . S
C1445 H1422 0.950 . S
C1445 C1444 1.395 . S
C1445 C1446 1.288 . S
C1446 C1445 1.288 . S
C1446 C1447 1.392 . S
C1447 H1423 0.951 . S
C1447 C1446 1.392 . S
C1447 C1448 1.392 . S
C1448 H1424 0.949 . S
C1448 C1443 1.382 . S
C1448 C1447 1.392 . S
C1449 C1450 1.376 . S
C1449 C1454 1.386 . S
C1449 C1455 1.483 . S
C1450 H1425 0.949 . S
C1450 C1449 1.376 . S
C1450 C1451 1.397 . S
C1451 H1426 0.950 . S
C1451 C1450 1.397 . S
C1451 C1452 1.391 . S
C1452 C1451 1.391 . S
C1452 C1453 1.405 . S
C1453 H1427 0.950 . S
C1453 C1452 1.405 . S
C1453 C1454 1.367 . S
C1454 H1428 0.950 . S
C1454 C1449 1.386 . S
C1454 C1453 1.367 . S
C1455 C1449 1.483 . S
C1455 C1456 1.382 . S
C1455 C1457 1.403 . S
C1456 H1429 0.950 . S
C1456 C1442 1.411 . S
C1456 C1455 1.382 . S
C1457 C1441 1.411 . S
C1457 C1455 1.403 . S
C1457 C1458 1.489 . S
C1458 C1457 1.489 . S
C1458 C1459 1.383 . S
C1458 C1463 1.382 . S
C1459 H1430 0.950 . S
C1459 C1458 1.383 . S
C1459 C1460 1.395 . S
C1460 H1431 0.950 . S
C1460 C1459 1.395 . S
C1460 C1461 1.288 . S
C1461 C1460 1.288 . S
C1461 C1462 1.392 . S
C1462 H1432 0.951 . S
C1462 C1461 1.392 . S
C1462 C1463 1.392 . S
C1463 H1433 0.949 . S
C1463 C1458 1.382 . S
C1463 C1462 1.392 . S
H1464 C1483 0.949 . S
H1465 C1484 0.950 . S
H1466 C1486 0.950 . S
H1467 C1487 0.950 . S
H1468 C1489 0.950 . S
H1469 C1492 0.950 . S
H1470 C1493 0.950 . S
H1471 C1495 0.951 . S
H1472 C1496 0.949 . S
H1473 C1498 0.949 . S
H1474 C1499 0.950 . S
H1475 C1501 0.950 . S
H1476 C1502 0.950 . S
H1477 C1504 0.950 . S
H1478 C1507 0.950 . S
H1479 C1508 0.950 . S
H1480 C1510 0.951 . S
H1481 C1511 0.949 . S
C1482 C1483 1.376 . S
C1482 C1487 1.386 . S
C1482 C1488 1.483 . S
C1483 H1464 0.949 . S
C1483 C1482 1.376 . S
C1483 C1484 1.397 . S
C1484 H1465 0.950 . S
C1484 C1483 1.397 . S
C1484 C1485 1.391 . S
C1485 C1484 1.391 . S
C1485 C1486 1.405 . S
C1486 H1466 0.950 . S
C1486 C1485 1.405 . S
C1486 C1487 1.367 . S
C1487 H1467 0.950 . S
C1487 C1482 1.386 . S
C1487 C1486 1.367 . S
C1488 C1482 1.483 . S
C1488 C1489 1.382 . S
C1488 C1490 1.403 . S
C1489 H1468 0.950 . S
C1489 C1488 1.382 . S
C1489 C1505 1.411 . S
C1490 C1488 1.403 . S
C1490 C1491 1.489 . S
C1490 C1504 1.411 . S
C1491 C1490 1.489 . S
C1491 C1492 1.383 . S
C1491 C1496 1.382 . S
C1492 H1469 0.950 . S
C1492 C1491 1.383 . S
C1492 C1493 1.395 . S
C1493 H1470 0.950 . S
C1493 C1492 1.395 . S
C1493 C1494 1.288 . S
C1494 C1493 1.288 . S
C1494 C1495 1.392 . S
C1495 H1471 0.951 . S
C1495 C1494 1.392 . S
C1495 C1496 1.392 . S
C1496 H1472 0.949 . S
C1496 C1491 1.382 . S
C1496 C1495 1.392 . S
C1497 C1498 1.376 . S
C1497 C1502 1.386 . S
C1497 C1503 1.483 . S
C1498 H1473 0.949 . S
C1498 C1497 1.376 . S
C1498 C1499 1.397 . S
C1499 H1474 0.950 . S
C1499 C1498 1.397 . S
C1499 C1500 1.391 . S
C1500 C1499 1.391 . S
C1500 C1501 1.405 . S
C1501 H1475 0.950 . S
C1501 C1500 1.405 . S
C1501 C1502 1.367 . S
C1502 H1476 0.950 . S
C1502 C1497 1.386 . S
C1502 C1501 1.367 . S
C1503 C1497 1.483 . S
C1503 C1504 1.382 . S
C1503 C1505 1.403 . S
C1504 H1477 0.950 . S
C1504 C1490 1.411 . S
C1504 C1503 1.382 . S
C1505 C1489 1.411 . S
C1505 C1503 1.403 . S
C1505 C1506 1.489 . S
C1506 C1505 1.489 . S
C1506 C1507 1.383 . S
C1506 C1511 1.382 . S
C1507 H1478 0.950 . S
C1507 C1506 1.383 . S
C1507 C1508 1.395 . S
C1508 H1479 0.950 . S
C1508 C1507 1.395 . S
C1508 C1509 1.288 . S
C1509 C1508 1.288 . S
C1509 C1510 1.392 . S
C1510 H1480 0.951 . S
C1510 C1509 1.392 . S
C1510 C1511 1.392 . S
C1511 H1481 0.949 . S
C1511 C1506 1.382 . S
C1511 C1510 1.392 . S
C1512 C1513 1.349 . S
C1512 C1514 1.327 . S
C1512 H1537 0.950 . S
C1513 C1512 1.349 . S
C1513 C1529 1.327 1_655 S
C1514 C1512 1.327 . S
C1514 C1533 1.429 . S
C1514 H1538 0.950 . S
C1515 C1532 1.574 . S
C1515 C1534 1.368 1_455 S
C1515 H1539 0.949 . S
H1516 C1520 0.949 . S
C1517 C1518 1.298 1_455 S
C1517 C1519 1.323 . S
C1517 H1540 0.975 . S
C1518 C1517 1.298 1_655 S
C1518 C1530 1.349 . S
C1519 C1517 1.323 . S
C1519 C1535 1.408 1_455 S
C1519 H1541 1.011 . S
C1520 H1516 0.949 . S
C1520 C1528 1.574 . S
C1520 C1536 1.368 . S
H1521 C1529 1.008 . S
H1522 C1527 0.983 . S
H1523 C1528 0.949 . S
H1524 C1530 0.950 . S
H1525 C1531 0.950 . S
H1526 C1532 0.949 . S
C1527 H1522 0.983 . S
C1527 C1529 1.330 . S
C1527 C1533 1.368 1_455 S
C1528 C1520 1.574 . S
C1528 H1523 0.949 . S
C1528 C1534 1.368 . S
C1529 C1513 1.327 1_455 S
C1529 H1521 1.008 . S
C1529 C1527 1.330 . S
C1530 C1518 1.349 . S
C1530 H1524 0.950 . S
C1530 C1531 1.327 . S
C1531 H1525 0.950 . S
C1531 C1530 1.327 . S
C1531 C1535 1.429 . S
C1532 C1515 1.574 . S
C1532 H1526 0.949 . S
C1532 C1536 1.368 1_455 S
C1533 C1514 1.429 . S
C1533 C1527 1.368 1_655 S
C1533 C1534 1.523 . S
C1534 C1515 1.368 1_655 S
C1534 C1528 1.368 . S
C1534 C1533 1.523 . S
C1535 C1519 1.408 1_655 S
C1535 C1531 1.429 . S
C1535 C1536 1.523 . S
C1536 C1520 1.368 . S
C1536 C1532 1.368 1_655 S
C1536 C1535 1.523 . S
H1537 C1512 0.950 . S
H1538 C1514 0.950 . S
H1539 C1515 0.949 . S
H1540 C1517 0.975 . S
H1541 C1519 1.011 . S
C1542 C1543 1.349 . S
C1542 C1544 1.327 . S
C1542 H1567 0.950 . S
C1543 C1542 1.349 . S
C1543 C1559 1.349 . S
C1544 C1542 1.327 . S
C1544 C1563 1.429 . S
C1544 H1568 0.950 . S
C1545 C1562 1.574 . S
C1545 C1564 1.368 . S
C1545 H1569 0.949 . S
H1546 C1550 0.949 . S
C1547 C1548 1.349 . S
C1547 C1549 1.327 . S
C1547 H1570 0.950 . S
C1548 C1547 1.349 . S
C1548 C1560 1.349 . S
C1549 C1547 1.327 . S
C1549 C1565 1.429 . S
C1549 H1571 0.950 . S
C1550 H1546 0.949 . S
C1550 C1558 1.574 . S
C1550 C1566 1.368 . S
H1551 C1559 0.950 . S
H1552 C1557 0.950 . S
H1553 C1558 0.949 . S
H1554 C1560 0.950 . S
H1555 C1561 0.950 . S
H1556 C1562 0.949 . S
C1557 H1552 0.950 . S
C1557 C1559 1.327 . S
C1557 C1563 1.429 . S
C1558 C1550 1.574 . S
C1558 H1553 0.949 . S
C1558 C1564 1.368 . S
C1559 C1543 1.349 . S
C1559 H1551 0.950 . S
C1559 C1557 1.327 . S
C1560 C1548 1.349 . S
C1560 H1554 0.950 . S
C1560 C1561 1.327 . S
C1561 H1555 0.950 . S
C1561 C1560 1.327 . S
C1561 C1565 1.429 . S
C1562 C1545 1.574 . S
C1562 H1556 0.949 . S
C1562 C1566 1.368 . S
C1563 C1544 1.429 . S
C1563 C1557 1.429 . S
C1563 C1564 1.523 . S
C1564 C1545 1.368 . S
C1564 C1558 1.368 . S
C1564 C1563 1.523 . S
C1565 C1549 1.429 . S
C1565 C1561 1.429 . S
C1565 C1566 1.523 . S
C1566 C1550 1.368 . S
C1566 C1562 1.368 . S
C1566 C1565 1.523 . S
H1567 C1542 0.950 . S
H1568 C1544 0.950 . S
H1569 C1545 0.949 . S
H1570 C1547 0.950 . S
H1571 C1549 0.950 . S
C1572 C1573 1.349 1_565 S
C1572 C1574 1.327 . S
C1572 H1597 0.950 . S
C1573 C1572 1.349 1_545 S
C1573 C1589 1.349 . S
C1574 C1572 1.327 . S
C1574 C1593 1.429 1_565 S
C1574 H1598 0.950 . S
C1575 C1592 1.574 . S
C1575 C1594 1.368 . S
C1575 H1599 0.949 . S
H1576 C1580 0.949 . S
C1577 C1578 1.349 . S
C1577 C1579 1.327 . S
C1577 H1600 0.950 . S
C1578 C1577 1.349 . S
C1578 C1590 1.349 1_545 S
C1579 C1577 1.327 . S
C1579 C1595 1.429 . S
C1579 H1601 0.950 . S
C1580 H1576 0.949 . S
C1580 C1588 1.574 . S
C1580 C1596 1.368 1_565 S
H1581 C1589 0.950 . S
H1582 C1587 0.950 . S
H1583 C1588 0.949 . S
H1584 C1590 0.950 . S
H1585 C1591 0.950 . S
H1586 C1592 0.949 . S
C1587 H1582 0.950 . S
C1587 C1589 1.327 . S
C1587 C1593 1.429 . S
C1588 C1580 1.574 . S
C1588 H1583 0.949 . S
C1588 C1594 1.368 1_565 S
C1589 C1573 1.349 . S
C1589 H1581 0.950 . S
C1589 C1587 1.327 . S
C1590 C1578 1.349 1_565 S
C1590 H1584 0.950 . S
C1590 C1591 1.327 . S
C1591 H1585 0.950 . S
C1591 C1590 1.327 . S
C1591 C1595 1.429 1_565 S
C1592 C1575 1.574 . S
C1592 H1586 0.949 . S
C1592 C1596 1.368 . S
C1593 C1574 1.429 1_545 S
C1593 C1587 1.429 . S
C1593 C1594 1.523 . S
C1594 C1575 1.368 . S
C1594 C1588 1.368 1_545 S
C1594 C1593 1.523 . S
C1595 C1579 1.429 . S
C1595 C1591 1.429 1_545 S
C1595 C1596 1.523 . S
C1596 C1580 1.368 1_545 S
C1596 C1592 1.368 . S
C1596 C1595 1.523 . S
H1597 C1572 0.950 . S
H1598 C1574 0.950 . S
H1599 C1575 0.949 . S
H1600 C1577 0.950 . S
H1601 C1579 0.950 . S
C1602 C1603 1.349 . S
C1602 C1604 1.327 . S
C1602 H1627 0.950 . S
C1603 C1602 1.349 . S
C1603 C1619 1.349 1_565 S
C1604 C1602 1.327 . S
C1604 C1623 1.429 . S
C1604 H1628 0.950 . S
C1605 C1622 1.574 . S
C1605 C1624 1.368 1_545 S
C1605 H1629 0.949 . S
H1606 C1610 0.949 . S
C1607 C1608 1.349 1_545 S
C1607 C1609 1.327 . S
C1607 H1630 0.950 . S
C1608 C1607 1.349 1_565 S
C1608 C1620 1.349 . S
C1609 C1607 1.327 . S
C1609 C1625 1.429 1_545 S
C1609 H1631 0.950 . S
C1610 H1606 0.949 . S
C1610 C1618 1.574 . S
C1610 C1626 1.368 . S
H1611 C1619 0.950 . S
H1612 C1617 0.950 . S
H1613 C1618 0.949 . S
H1614 C1620 0.950 . S
H1615 C1621 0.950 . S
H1616 C1622 0.949 . S
C1617 H1612 0.950 . S
C1617 C1619 1.327 . S
C1617 C1623 1.429 1_545 S
C1618 C1610 1.574 . S
C1618 H1613 0.949 . S
C1618 C1624 1.368 . S
C1619 C1603 1.349 1_545 S
C1619 H1611 0.950 . S
C1619 C1617 1.327 . S
C1620 C1608 1.349 . S
C1620 H1614 0.950 . S
C1620 C1621 1.327 . S
C1621 H1615 0.950 . S
C1621 C1620 1.327 . S
C1621 C1625 1.429 . S
C1622 C1605 1.574 . S
C1622 H1616 0.949 . S
C1622 C1626 1.368 1_545 S
C1623 C1604 1.429 . S
C1623 C1617 1.429 1_565 S
C1623 C1624 1.523 . S
C1624 C1605 1.368 1_565 S
C1624 C1618 1.368 . S
C1624 C1623 1.523 . S
C1625 C1609 1.429 1_565 S
C1625 C1621 1.429 . S
C1625 C1626 1.523 . S
C1626 C1610 1.368 . S
C1626 C1622 1.368 1_565 S
C1626 C1625 1.523 . S
H1627 C1602 0.950 . S
H1628 C1604 0.950 . S
H1629 C1605 0.949 . S
H1630 C1607 0.950 . S
H1631 C1609 0.950 . S
C1632 C1633 1.349 1_655 S
C1632 C1634 1.327 . S
C1632 H1657 0.950 . S
C1633 C1632 1.349 1_455 S
C1633 C1649 1.349 . S
C1634 C1632 1.327 . S
C1634 C1653 1.429 1_655 S
C1634 H1658 0.950 . S
C1635 C1652 1.574 . S
C1635 C1654 1.368 . S
C1635 H1659 0.949 . S
H1636 C1640 0.949 . S
C1637 C1638 1.349 . S
C1637 C1639 1.327 . S
C1637 H1660 0.950 . S
C1638 C1637 1.349 . S
C1638 C1650 1.349 1_455 S
C1639 C1637 1.327 . S
C1639 C1655 1.429 . S
C1639 H1661 0.950 . S
C1640 H1636 0.949 . S
C1640 C1648 1.574 . S
C1640 C1656 1.368 1_655 S
H1641 C1649 0.950 . S
H1642 C1647 0.950 . S
H1643 C1648 0.949 . S
H1644 C1650 0.950 . S
H1645 C1651 0.950 . S
H1646 C1652 0.949 . S
C1647 H1642 0.950 . S
C1647 C1649 1.327 . S
C1647 C1653 1.429 . S
C1648 C1640 1.574 . S
C1648 H1643 0.949 . S
C1648 C1654 1.368 1_655 S
C1649 C1633 1.349 . S
C1649 H1641 0.950 . S
C1649 C1647 1.327 . S
C1650 C1638 1.349 1_655 S
C1650 H1644 0.950 . S
C1650 C1651 1.327 . S
C1651 H1645 0.950 . S
C1651 C1650 1.327 . S
C1651 C1655 1.429 1_655 S
C1652 C1635 1.574 . S
C1652 H1646 0.949 . S
C1652 C1656 1.368 . S
C1653 C1634 1.429 1_455 S
C1653 C1647 1.429 . S
C1653 C1654 1.523 . S
C1654 C1635 1.368 . S
C1654 C1648 1.368 1_455 S
C1654 C1653 1.523 . S
C1655 C1639 1.429 . S
C1655 C1651 1.429 1_455 S
C1655 C1656 1.523 . S
C1656 C1640 1.368 1_455 S
C1656 C1652 1.368 . S
C1656 C1655 1.523 . S
H1657 C1632 0.950 . S
H1658 C1634 0.950 . S
H1659 C1635 0.949 . S
H1660 C1637 0.950 . S
H1661 C1639 0.950 . S
C1662 C1663 1.349 . S
C1662 C1664 1.327 . S
C1662 H1687 0.950 . S
C1663 C1662 1.349 . S
C1663 C1679 1.349 . S
C1664 C1662 1.327 . S
C1664 C1683 1.429 . S
C1664 H1688 0.950 . S
C1665 C1682 1.574 . S
C1665 C1684 1.368 . S
C1665 H1689 0.949 . S
H1666 C1670 0.949 . S
C1667 C1668 1.349 . S
C1667 C1669 1.327 . S
C1667 H1690 0.950 . S
C1668 C1667 1.349 . S
C1668 C1680 1.349 . S
C1669 C1667 1.327 . S
C1669 C1685 1.429 . S
C1669 H1691 0.950 . S
C1670 H1666 0.949 . S
C1670 C1678 1.574 . S
C1670 C1686 1.368 . S
H1671 C1679 0.950 . S
H1672 C1677 0.950 . S
H1673 C1678 0.949 . S
H1674 C1680 0.950 . S
H1675 C1681 0.950 . S
H1676 C1682 0.949 . S
C1677 H1672 0.950 . S
C1677 C1679 1.327 . S
C1677 C1683 1.429 . S
C1678 C1670 1.574 . S
C1678 H1673 0.949 . S
C1678 C1684 1.368 . S
C1679 C1663 1.349 . S
C1679 H1671 0.950 . S
C1679 C1677 1.327 . S
C1680 C1668 1.349 . S
C1680 H1674 0.950 . S
C1680 C1681 1.327 . S
C1681 H1675 0.950 . S
C1681 C1680 1.327 . S
C1681 C1685 1.429 . S
C1682 C1665 1.574 . S
C1682 H1676 0.949 . S
C1682 C1686 1.368 . S
C1683 C1664 1.429 . S
C1683 C1677 1.429 . S
C1683 C1684 1.523 . S
C1684 C1665 1.368 . S
C1684 C1678 1.368 . S
C1684 C1683 1.523 . S
C1685 C1669 1.429 . S
C1685 C1681 1.429 . S
C1685 C1686 1.523 . S
C1686 C1670 1.368 . S
C1686 C1682 1.368 . S
C1686 C1685 1.523 . S
H1687 C1662 0.950 . S
H1688 C1664 0.950 . S
H1689 C1665 0.949 . S
H1690 C1667 0.950 . S
H1691 C1669 0.950 . S
C1692 C1693 1.349 . S
C1692 C1694 1.327 . S
C1692 H1717 0.950 . S
C1693 C1692 1.349 . S
C1693 C1709 1.349 . S
C1694 C1692 1.327 . S
C1694 C1713 1.429 . S
C1694 H1718 0.950 . S
C1695 C1712 1.574 . S
C1695 C1714 1.368 . S
C1695 H1719 0.949 . S
H1696 C1700 0.949 . S
C1697 C1698 1.349 . S
C1697 C1699 1.327 . S
C1697 H1720 0.950 . S
C1698 C1697 1.349 . S
C1698 C1710 1.349 . S
C1699 C1697 1.327 . S
C1699 C1715 1.429 . S
C1699 H1721 0.950 . S
C1700 H1696 0.949 . S
C1700 C1708 1.574 . S
C1700 C1716 1.368 . S
H1701 C1709 0.950 . S
H1702 C1707 0.950 . S
H1703 C1708 0.949 . S
H1704 C1710 0.950 . S
H1705 C1711 0.950 . S
H1706 C1712 0.949 . S
C1707 H1702 0.950 . S
C1707 C1709 1.327 . S
C1707 C1713 1.429 . S
C1708 C1700 1.574 . S
C1708 H1703 0.949 . S
C1708 C1714 1.368 . S
C1709 C1693 1.349 . S
C1709 H1701 0.950 . S
C1709 C1707 1.327 . S
C1710 C1698 1.349 . S
C1710 H1704 0.950 . S
C1710 C1711 1.327 . S
C1711 H1705 0.950 . S
C1711 C1710 1.327 . S
C1711 C1715 1.429 . S
C1712 C1695 1.574 . S
C1712 H1706 0.949 . S
C1712 C1716 1.368 . S
C1713 C1694 1.429 . S
C1713 C1707 1.429 . S
C1713 C1714 1.523 . S
C1714 C1695 1.368 . S
C1714 C1708 1.368 . S
C1714 C1713 1.523 . S
C1715 C1699 1.429 . S
C1715 C1711 1.429 . S
C1715 C1716 1.523 . S
C1716 C1700 1.368 . S
C1716 C1712 1.368 . S
C1716 C1715 1.523 . S
H1717 C1692 0.950 . S
H1718 C1694 0.950 . S
H1719 C1695 0.949 . S
H1720 C1697 0.950 . S
H1721 C1699 0.950 . S
C1722 C1723 1.349 . S
C1722 C1724 1.327 . S
C1722 H1747 0.950 . S
C1723 C1722 1.349 . S
C1723 C1739 1.349 . S
C1724 C1722 1.327 . S
C1724 C1743 1.429 . S
C1724 H1748 0.950 . S
C1725 C1742 1.574 . S
C1725 C1744 1.368 . S
C1725 H1749 0.949 . S
H1726 C1730 0.949 . S
C1727 C1728 1.349 . S
C1727 C1729 1.327 . S
C1727 H1750 0.950 . S
C1728 C1727 1.349 . S
C1728 C1740 1.349 . S
C1729 C1727 1.327 . S
C1729 C1745 1.429 . S
C1729 H1751 0.950 . S
C1730 H1726 0.949 . S
C1730 C1738 1.574 . S
C1730 C1746 1.368 . S
H1731 C1739 0.950 . S
H1732 C1737 0.950 . S
H1733 C1738 0.949 . S
H1734 C1740 0.950 . S
H1735 C1741 0.950 . S
H1736 C1742 0.949 . S
C1737 H1732 0.950 . S
C1737 C1739 1.327 . S
C1737 C1743 1.429 . S
C1738 C1730 1.574 . S
C1738 H1733 0.949 . S
C1738 C1744 1.368 . S
C1739 C1723 1.349 . S
C1739 H1731 0.950 . S
C1739 C1737 1.327 . S
C1740 C1728 1.349 . S
C1740 H1734 0.950 . S
C1740 C1741 1.327 . S
C1741 H1735 0.950 . S
C1741 C1740 1.327 . S
C1741 C1745 1.429 . S
C1742 C1725 1.574 . S
C1742 H1736 0.949 . S
C1742 C1746 1.368 . S
C1743 C1724 1.429 . S
C1743 C1737 1.429 . S
C1743 C1744 1.523 . S
C1744 C1725 1.368 . S
C1744 C1738 1.368 . S
C1744 C1743 1.523 . S
C1745 C1729 1.429 . S
C1745 C1741 1.429 . S
C1745 C1746 1.523 . S
C1746 C1730 1.368 . S
C1746 C1742 1.368 . S
C1746 C1745 1.523 . S
H1747 C1722 0.950 . S
H1748 C1724 0.950 . S
H1749 C1725 0.949 . S
H1750 C1727 0.950 . S
H1751 C1729 0.950 . S
C1752 C1753 1.349 1_545 S
C1752 C1754 1.327 . S
C1752 H1777 0.950 . S
C1753 C1752 1.349 1_565 S
C1753 C1769 1.349 . S
C1754 C1752 1.327 . S
C1754 C1773 1.429 1_545 S
C1754 H1778 0.950 . S
C1755 C1772 1.574 . S
C1755 C1774 1.368 . S
C1755 H1779 0.949 . S
H1756 C1760 0.949 . S
C1757 C1758 1.349 . S
C1757 C1759 1.327 . S
C1757 H1780 0.950 . S
C1758 C1757 1.349 . S
C1758 C1770 1.349 1_565 S
C1759 C1757 1.327 . S
C1759 C1775 1.429 . S
C1759 H1781 0.950 . S
C1760 H1756 0.949 . S
C1760 C1768 1.574 . S
C1760 C1776 1.368 1_545 S
H1761 C1769 0.950 . S
H1762 C1767 0.950 . S
H1763 C1768 0.949 . S
H1764 C1770 0.950 . S
H1765 C1771 0.950 . S
H1766 C1772 0.949 . S
C1767 H1762 0.950 . S
C1767 C1769 1.327 . S
C1767 C1773 1.429 . S
C1768 C1760 1.574 . S
C1768 H1763 0.949 . S
C1768 C1774 1.368 1_545 S
C1769 C1753 1.349 . S
C1769 H1761 0.950 . S
C1769 C1767 1.327 . S
C1770 C1758 1.349 1_545 S
C1770 H1764 0.950 . S
C1770 C1771 1.327 . S
C1771 H1765 0.950 . S
C1771 C1770 1.327 . S
C1771 C1775 1.429 1_545 S
C1772 C1755 1.574 . S
C1772 H1766 0.949 . S
C1772 C1776 1.368 . S
C1773 C1754 1.429 1_565 S
C1773 C1767 1.429 . S
C1773 C1774 1.523 . S
C1774 C1755 1.368 . S
C1774 C1768 1.368 1_565 S
C1774 C1773 1.523 . S
C1775 C1759 1.429 . S
C1775 C1771 1.429 1_565 S
C1775 C1776 1.523 . S
C1776 C1760 1.368 1_565 S
C1776 C1772 1.368 . S
C1776 C1775 1.523 . S
H1777 C1752 0.950 . S
H1778 C1754 0.950 . S
H1779 C1755 0.949 . S
H1780 C1757 0.950 . S
H1781 C1759 0.950 . S
C1782 C1783 1.349 . S
C1782 C1784 1.327 . S
C1782 H1807 0.950 . S
C1783 C1782 1.349 . S
C1783 C1799 1.349 1_545 S
C1784 C1782 1.327 . S
C1784 C1803 1.429 . S
C1784 H1808 0.950 . S
C1785 C1802 1.574 . S
C1785 C1804 1.368 1_565 S
C1785 H1809 0.949 . S
H1786 C1790 0.949 . S
C1787 C1788 1.349 1_565 S
C1787 C1789 1.327 . S
C1787 H1810 0.950 . S
C1788 C1787 1.349 1_545 S
C1788 C1800 1.349 . S
C1789 C1787 1.327 . S
C1789 C1805 1.429 1_565 S
C1789 H1811 0.950 . S
C1790 H1786 0.949 . S
C1790 C1798 1.574 . S
C1790 C1806 1.368 . S
H1791 C1799 0.950 . S
H1792 C1797 0.950 . S
H1793 C1798 0.949 . S
H1794 C1800 0.950 . S
H1795 C1801 0.950 . S
H1796 C1802 0.949 . S
C1797 H1792 0.950 . S
C1797 C1799 1.327 . S
C1797 C1803 1.429 1_565 S
C1798 C1790 1.574 . S
C1798 H1793 0.949 . S
C1798 C1804 1.368 . S
C1799 C1783 1.349 1_565 S
C1799 H1791 0.950 . S
C1799 C1797 1.327 . S
C1800 C1788 1.349 . S
C1800 H1794 0.950 . S
C1800 C1801 1.327 . S
C1801 H1795 0.950 . S
C1801 C1800 1.327 . S
C1801 C1805 1.429 . S
C1802 C1785 1.574 . S
C1802 H1796 0.949 . S
C1802 C1806 1.368 1_565 S
C1803 C1784 1.429 . S
C1803 C1797 1.429 1_545 S
C1803 C1804 1.523 . S
C1804 C1785 1.368 1_545 S
C1804 C1798 1.368 . S
C1804 C1803 1.523 . S
C1805 C1789 1.429 1_545 S
C1805 C1801 1.429 . S
C1805 C1806 1.523 . S
C1806 C1790 1.368 . S
C1806 C1802 1.368 1_545 S
C1806 C1805 1.523 . S
H1807 C1782 0.950 . S
H1808 C1784 0.950 . S
H1809 C1785 0.949 . S
H1810 C1787 0.950 . S
H1811 C1789 0.950 . S
C1812 C1813 1.317 1_455 S
C1812 C1814 1.319 . S
C1812 H1837 0.966 . S
C1813 C1812 1.317 1_655 S
C1813 C1829 1.349 . S
C1814 C1812 1.319 . S
C1814 C1833 1.410 1_455 S
C1814 H1838 0.998 . S
C1815 C1832 1.574 . S
C1815 C1834 1.368 . S
C1815 H1839 0.949 . S
H1816 C1820 0.949 . S
C1817 C1818 1.349 . S
C1817 C1819 1.327 . S
C1817 H1840 0.950 . S
C1818 C1817 1.349 . S
C1818 C1830 1.349 1_655 S
C1819 C1817 1.327 . S
C1819 C1835 1.429 . S
C1819 H1841 0.950 . S
C1820 H1816 0.949 . S
C1820 C1828 1.574 . S
C1820 C1836 1.368 1_455 S
H1821 C1829 0.950 . S
H1822 C1827 0.950 . S
H1823 C1828 0.949 . S
H1824 C1830 0.950 . S
H1825 C1831 0.950 . S
H1826 C1832 0.949 . S
C1827 H1822 0.950 . S
C1827 C1829 1.327 . S
C1827 C1833 1.429 . S
C1828 C1820 1.574 . S
C1828 H1823 0.949 . S
C1828 C1834 1.368 1_455 S
C1829 C1813 1.349 . S
C1829 H1821 0.950 . S
C1829 C1827 1.327 . S
C1830 C1818 1.349 1_455 S
C1830 H1824 0.950 . S
C1830 C1831 1.327 . S
C1831 H1825 0.950 . S
C1831 C1830 1.327 . S
C1831 C1835 1.429 1_455 S
C1832 C1815 1.574 . S
C1832 H1826 0.949 . S
C1832 C1836 1.368 . S
C1833 C1814 1.410 1_655 S
C1833 C1827 1.429 . S
C1833 C1834 1.523 . S
C1834 C1815 1.368 . S
C1834 C1828 1.368 1_655 S
C1834 C1833 1.523 . S
C1835 C1819 1.429 . S
C1835 C1831 1.429 1_655 S
C1835 C1836 1.523 . S
C1836 C1820 1.368 1_655 S
C1836 C1832 1.368 . S
C1836 C1835 1.523 . S
H1837 C1812 0.966 . S
H1838 C1814 0.998 . S
H1839 C1815 0.949 . S
H1840 C1817 0.950 . S
H1841 C1819 0.950 . S
C1842 C1843 1.349 . S
C1842 C1844 1.327 . S
C1842 H1867 0.950 . S
C1843 C1842 1.349 . S
C1843 C1859 1.349 . S
C1844 C1842 1.327 . S
C1844 C1863 1.429 . S
C1844 H1868 0.950 . S
C1845 C1862 1.574 . S
C1845 C1864 1.368 . S
C1845 H1869 0.949 . S
H1846 C1850 0.949 . S
C1847 C1848 1.349 . S
C1847 C1849 1.327 . S
C1847 H1870 0.950 . S
C1848 C1847 1.349 . S
C1848 C1860 1.349 . S
C1849 C1847 1.327 . S
C1849 C1865 1.429 . S
C1849 H1871 0.950 . S
C1850 H1846 0.949 . S
C1850 C1858 1.574 . S
C1850 C1866 1.368 . S
H1851 C1859 0.950 . S
H1852 C1857 0.950 . S
H1853 C1858 0.949 . S
H1854 C1860 0.950 . S
H1855 C1861 0.950 . S
H1856 C1862 0.949 . S
C1857 H1852 0.950 . S
C1857 C1859 1.327 . S
C1857 C1863 1.429 . S
C1858 C1850 1.574 . S
C1858 H1853 0.949 . S
C1858 C1864 1.368 . S
C1859 C1843 1.349 . S
C1859 H1851 0.950 . S
C1859 C1857 1.327 . S
C1860 C1848 1.349 . S
C1860 H1854 0.950 . S
C1860 C1861 1.327 . S
C1861 H1855 0.950 . S
C1861 C1860 1.327 . S
C1861 C1865 1.429 . S
C1862 C1845 1.574 . S
C1862 H1856 0.949 . S
C1862 C1866 1.368 . S
C1863 C1844 1.429 . S
C1863 C1857 1.429 . S
C1863 C1864 1.523 . S
C1864 C1845 1.368 . S
C1864 C1858 1.368 . S
C1864 C1863 1.523 . S
C1865 C1849 1.429 . S
C1865 C1861 1.429 . S
C1865 C1866 1.523 . S
C1866 C1850 1.368 . S
C1866 C1862 1.368 . S
C1866 C1865 1.523 . S
H1867 C1842 0.950 . S
H1868 C1844 0.950 . S
H1869 C1845 0.949 . S
H1870 C1847 0.950 . S
H1871 C1849 0.950 . S
C1872 C1873 1.349 . S
C1872 C1874 1.327 . S
C1872 H1897 0.950 . S
C1873 C1872 1.349 . S
C1873 C1889 1.349 . S
C1874 C1872 1.327 . S
C1874 C1893 1.429 . S
C1874 H1898 0.950 . S
C1875 C1892 1.574 . S
C1875 C1894 1.368 . S
C1875 H1899 0.949 . S
H1876 C1880 0.949 . S
C1877 C1878 1.349 . S
C1877 C1879 1.327 . S
C1877 H1900 0.950 . S
C1878 C1877 1.349 . S
C1878 C1890 1.349 . S
C1879 C1877 1.327 . S
C1879 C1895 1.429 . S
C1879 H1901 0.950 . S
C1880 H1876 0.949 . S
C1880 C1888 1.574 . S
C1880 C1896 1.368 . S
H1881 C1889 0.950 . S
H1882 C1887 0.950 . S
H1883 C1888 0.949 . S
H1884 C1890 0.950 . S
H1885 C1891 0.950 . S
H1886 C1892 0.949 . S
C1887 H1882 0.950 . S
C1887 C1889 1.327 . S
C1887 C1893 1.429 . S
C1888 C1880 1.574 . S
C1888 H1883 0.949 . S
C1888 C1894 1.368 . S
C1889 C1873 1.349 . S
C1889 H1881 0.950 . S
C1889 C1887 1.327 . S
C1890 C1878 1.349 . S
C1890 H1884 0.950 . S
C1890 C1891 1.327 . S
C1891 H1885 0.950 . S
C1891 C1890 1.327 . S
C1891 C1895 1.429 . S
C1892 C1875 1.574 . S
C1892 H1886 0.949 . S
C1892 C1896 1.368 . S
C1893 C1874 1.429 . S
C1893 C1887 1.429 . S
C1893 C1894 1.523 . S
C1894 C1875 1.368 . S
C1894 C1888 1.368 . S
C1894 C1893 1.523 . S
C1895 C1879 1.429 . S
C1895 C1891 1.429 . S
C1895 C1896 1.523 . S
C1896 C1880 1.368 . S
C1896 C1892 1.368 . S
C1896 C1895 1.523 . S
H1897 C1872 0.950 . S
H1898 C1874 0.950 . S
H1899 C1875 0.949 . S
H1900 C1877 0.950 . S
H1901 C1879 0.950 . S
C1902 C1903 1.349 . S
C1902 C1904 1.327 . S
C1902 H1927 0.950 . S
C1903 C1902 1.349 . S
C1903 C1919 1.349 . S
C1904 C1902 1.327 . S
C1904 C1923 1.429 . S
C1904 H1928 0.950 . S
C1905 C1922 1.574 . S
C1905 C1924 1.368 . S
C1905 H1929 0.949 . S
H1906 C1910 0.949 . S
C1907 C1908 1.349 . S
C1907 C1909 1.327 . S
C1907 H1930 0.950 . S
C1908 C1907 1.349 . S
C1908 C1920 1.349 . S
C1909 C1907 1.327 . S
C1909 C1925 1.429 . S
C1909 H1931 0.950 . S
C1910 H1906 0.949 . S
C1910 C1918 1.574 . S
C1910 C1926 1.368 . S
H1911 C1919 0.950 . S
H1912 C1917 0.950 . S
H1913 C1918 0.949 . S
H1914 C1920 0.950 . S
H1915 C1921 0.950 . S
H1916 C1922 0.949 . S
C1917 H1912 0.950 . S
C1917 C1919 1.327 . S
C1917 C1923 1.429 . S
C1918 C1910 1.574 . S
C1918 H1913 0.949 . S
C1918 C1924 1.368 . S
C1919 C1903 1.349 . S
C1919 H1911 0.950 . S
C1919 C1917 1.327 . S
C1920 C1908 1.349 . S
C1920 H1914 0.950 . S
C1920 C1921 1.327 . S
C1921 H1915 0.950 . S
C1921 C1920 1.327 . S
C1921 C1925 1.429 . S
C1922 C1905 1.574 . S
C1922 H1916 0.949 . S
C1922 C1926 1.368 . S
C1923 C1904 1.429 . S
C1923 C1917 1.429 . S
C1923 C1924 1.523 . S
C1924 C1905 1.368 . S
C1924 C1918 1.368 . S
C1924 C1923 1.523 . S
C1925 C1909 1.429 . S
C1925 C1921 1.429 . S
C1925 C1926 1.523 . S
C1926 C1910 1.368 . S
C1926 C1922 1.368 . S
C1926 C1925 1.523 . S
H1927 C1902 0.950 . S
H1928 C1904 0.950 . S
H1929 C1905 0.949 . S
H1930 C1907 0.950 . S
H1931 C1909 0.950 . S
C1932 C1933 1.349 . S
C1932 C1934 1.327 . S
C1932 H1957 0.950 . S
C1933 C1932 1.349 . S
C1933 C1949 1.349 . S
C1934 C1932 1.327 . S
C1934 C1953 1.429 . S
C1934 H1958 0.950 . S
C1935 C1952 1.574 . S
C1935 C1954 1.368 . S
C1935 H1959 0.949 . S
H1936 C1940 0.949 . S
C1937 C1938 1.349 . S
C1937 C1939 1.327 . S
C1937 H1960 0.950 . S
C1938 C1937 1.349 . S
C1938 C1950 1.349 . S
C1939 C1937 1.327 . S
C1939 C1955 1.429 . S
C1939 H1961 0.950 . S
C1940 H1936 0.949 . S
C1940 C1948 1.574 . S
C1940 C1956 1.368 . S
H1941 C1949 0.950 . S
H1942 C1947 0.950 . S
H1943 C1948 0.949 . S
H1944 C1950 0.950 . S
H1945 C1951 0.950 . S
H1946 C1952 0.949 . S
C1947 H1942 0.950 . S
C1947 C1949 1.327 . S
C1947 C1953 1.429 . S
C1948 C1940 1.574 . S
C1948 H1943 0.949 . S
C1948 C1954 1.368 . S
C1949 C1933 1.349 . S
C1949 H1941 0.950 . S
C1949 C1947 1.327 . S
C1950 C1938 1.349 . S
C1950 H1944 0.950 . S
C1950 C1951 1.327 . S
C1951 H1945 0.950 . S
C1951 C1950 1.327 . S
C1951 C1955 1.429 . S
C1952 C1935 1.574 . S
C1952 H1946 0.949 . S
C1952 C1956 1.368 . S
C1953 C1934 1.429 . S
C1953 C1947 1.429 . S
C1953 C1954 1.523 . S
C1954 C1935 1.368 . S
C1954 C1948 1.368 . S
C1954 C1953 1.523 . S
C1955 C1939 1.429 . S
C1955 C1951 1.429 . S
C1955 C1956 1.523 . S
C1956 C1940 1.368 . S
C1956 C1952 1.368 . S
C1956 C1955 1.523 . S
H1957 C1932 0.950 . S
H1958 C1934 0.950 . S
H1959 C1935 0.949 . S
H1960 C1937 0.950 . S
H1961 C1939 0.950 . S
C1962 C1963 1.349 . S
C1962 C1964 1.327 . S
C1962 H1987 0.950 . S
C1963 C1962 1.349 . S
C1963 C1979 1.349 . S
C1964 C1962 1.327 . S
C1964 C1983 1.429 . S
C1964 H1988 0.950 . S
C1965 C1982 1.574 . S
C1965 C1984 1.368 . S
C1965 H1989 0.949 . S
H1966 C1970 0.949 . S
C1967 C1968 1.349 . S
C1967 C1969 1.327 . S
C1967 H1990 0.950 . S
C1968 C1967 1.349 . S
C1968 C1980 1.349 . S
C1969 C1967 1.327 . S
C1969 C1985 1.429 . S
C1969 H1991 0.950 . S
C1970 H1966 0.949 . S
C1970 C1978 1.574 . S
C1970 C1986 1.368 . S
H1971 C1979 0.950 . S
H1972 C1977 0.950 . S
H1973 C1978 0.949 . S
H1974 C1980 0.950 . S
H1975 C1981 0.950 . S
H1976 C1982 0.949 . S
C1977 H1972 0.950 . S
C1977 C1979 1.327 . S
C1977 C1983 1.429 . S
C1978 C1970 1.574 . S
C1978 H1973 0.949 . S
C1978 C1984 1.368 . S
C1979 C1963 1.349 . S
C1979 H1971 0.950 . S
C1979 C1977 1.327 . S
C1980 C1968 1.349 . S
C1980 H1974 0.950 . S
C1980 C1981 1.327 . S
C1981 H1975 0.950 . S
C1981 C1980 1.327 . S
C1981 C1985 1.429 . S
C1982 C1965 1.574 . S
C1982 H1976 0.949 . S
C1982 C1986 1.368 . S
C1983 C1964 1.429 . S
C1983 C1977 1.429 . S
C1983 C1984 1.523 . S
C1984 C1965 1.368 . S
C1984 C1978 1.368 . S
C1984 C1983 1.523 . S
C1985 C1969 1.429 . S
C1985 C1981 1.429 . S
C1985 C1986 1.523 . S
C1986 C1970 1.368 . S
C1986 C1982 1.368 . S
C1986 C1985 1.523 . S
H1987 C1962 0.950 . S
H1988 C1964 0.950 . S
H1989 C1965 0.949 . S
H1990 C1967 0.950 . S
H1991 C1969 0.950 . S
C1992 C1993 1.349 . S
C1992 C1994 1.327 . S
C1992 H2017 0.950 . S
C1993 C1992 1.349 . S
C1993 C2009 1.349 . S
C1994 C1992 1.327 . S
C1994 C2013 1.429 . S
C1994 H2018 0.950 . S
C1995 C2012 1.574 . S
C1995 C2014 1.368 . S
C1995 H2019 0.949 . S
H1996 C2000 0.949 . S
C1997 C1998 1.349 . S
C1997 C1999 1.327 . S
C1997 H2020 0.950 . S
C1998 C1997 1.349 . S
C1998 C2010 1.349 . S
C1999 C1997 1.327 . S
C1999 C2015 1.429 . S
C1999 H2021 0.950 . S
C2000 H1996 0.949 . S
C2000 C2008 1.574 . S
C2000 C2016 1.368 . S
H2001 C2009 0.950 . S
H2002 C2007 0.950 . S
H2003 C2008 0.949 . S
H2004 C2010 0.950 . S
H2005 C2011 0.950 . S
H2006 C2012 0.949 . S
C2007 H2002 0.950 . S
C2007 C2009 1.327 . S
C2007 C2013 1.429 . S
C2008 C2000 1.574 . S
C2008 H2003 0.949 . S
C2008 C2014 1.368 . S
C2009 C1993 1.349 . S
C2009 H2001 0.950 . S
C2009 C2007 1.327 . S
C2010 C1998 1.349 . S
C2010 H2004 0.950 . S
C2010 C2011 1.327 . S
C2011 H2005 0.950 . S
C2011 C2010 1.327 . S
C2011 C2015 1.429 . S
C2012 C1995 1.574 . S
C2012 H2006 0.949 . S
C2012 C2016 1.368 . S
C2013 C1994 1.429 . S
C2013 C2007 1.429 . S
C2013 C2014 1.523 . S
C2014 C1995 1.368 . S
C2014 C2008 1.368 . S
C2014 C2013 1.523 . S
C2015 C1999 1.429 . S
C2015 C2011 1.429 . S
C2015 C2016 1.523 . S
C2016 C2000 1.368 . S
C2016 C2012 1.368 . S
C2016 C2015 1.523 . S
H2017 C1992 0.950 . S
H2018 C1994 0.950 . S
H2019 C1995 0.949 . S
H2020 C1997 0.950 . S
H2021 C1999 0.950 . S
C2022 C2023 1.349 . S
C2022 C2024 1.327 . S
C2022 H2047 0.950 . S
C2023 C2022 1.349 . S
C2023 C2039 1.349 . S
C2024 C2022 1.327 . S
C2024 C2043 1.429 . S
C2024 H2048 0.950 . S
C2025 C2042 1.574 . S
C2025 C2044 1.368 . S
C2025 H2049 0.949 . S
H2026 C2030 0.949 . S
C2027 C2028 1.349 . S
C2027 C2029 1.327 . S
C2027 H2050 0.950 . S
C2028 C2027 1.349 . S
C2028 C2040 1.349 . S
C2029 C2027 1.327 . S
C2029 C2045 1.429 . S
C2029 H2051 0.950 . S
C2030 H2026 0.949 . S
C2030 C2038 1.574 . S
C2030 C2046 1.368 . S
H2031 C2039 0.950 . S
H2032 C2037 0.950 . S
H2033 C2038 0.949 . S
H2034 C2040 0.950 . S
H2035 C2041 0.950 . S
H2036 C2042 0.949 . S
C2037 H2032 0.950 . S
C2037 C2039 1.327 . S
C2037 C2043 1.429 . S
C2038 C2030 1.574 . S
C2038 H2033 0.949 . S
C2038 C2044 1.368 . S
C2039 C2023 1.349 . S
C2039 H2031 0.950 . S
C2039 C2037 1.327 . S
C2040 C2028 1.349 . S
C2040 H2034 0.950 . S
C2040 C2041 1.327 . S
C2041 H2035 0.950 . S
C2041 C2040 1.327 . S
C2041 C2045 1.429 . S
C2042 C2025 1.574 . S
C2042 H2036 0.949 . S
C2042 C2046 1.368 . S
C2043 C2024 1.429 . S
C2043 C2037 1.429 . S
C2043 C2044 1.523 . S
C2044 C2025 1.368 . S
C2044 C2038 1.368 . S
C2044 C2043 1.523 . S
C2045 C2029 1.429 . S
C2045 C2041 1.429 . S
C2045 C2046 1.523 . S
C2046 C2030 1.368 . S
C2046 C2042 1.368 . S
C2046 C2045 1.523 . S
H2047 C2022 0.950 . S
H2048 C2024 0.950 . S
H2049 C2025 0.949 . S
H2050 C2027 0.950 . S
H2051 C2029 0.950 . S
C2052 C2053 1.349 . S
C2052 C2054 1.327 . S
C2052 H2077 0.950 . S
C2053 C2052 1.349 . S
C2053 C2069 1.349 . S
C2054 C2052 1.327 . S
C2054 C2073 1.429 . S
C2054 H2078 0.950 . S
C2055 C2072 1.574 . S
C2055 C2074 1.368 . S
C2055 H2079 0.949 . S
H2056 C2060 0.949 . S
C2057 C2058 1.349 . S
C2057 C2059 1.327 . S
C2057 H2080 0.950 . S
C2058 C2057 1.349 . S
C2058 C2070 1.349 . S
C2059 C2057 1.327 . S
C2059 C2075 1.429 . S
C2059 H2081 0.950 . S
C2060 H2056 0.949 . S
C2060 C2068 1.574 . S
C2060 C2076 1.368 . S
H2061 C2069 0.950 . S
H2062 C2067 0.950 . S
H2063 C2068 0.949 . S
H2064 C2070 0.950 . S
H2065 C2071 0.950 . S
H2066 C2072 0.949 . S
C2067 H2062 0.950 . S
C2067 C2069 1.327 . S
C2067 C2073 1.429 . S
C2068 C2060 1.574 . S
C2068 H2063 0.949 . S
C2068 C2074 1.368 . S
C2069 C2053 1.349 . S
C2069 H2061 0.950 . S
C2069 C2067 1.327 . S
C2070 C2058 1.349 . S
C2070 H2064 0.950 . S
C2070 C2071 1.327 . S
C2071 H2065 0.950 . S
C2071 C2070 1.327 . S
C2071 C2075 1.429 . S
C2072 C2055 1.574 . S
C2072 H2066 0.949 . S
C2072 C2076 1.368 . S
C2073 C2054 1.429 . S
C2073 C2067 1.429 . S
C2073 C2074 1.523 . S
C2074 C2055 1.368 . S
C2074 C2068 1.368 . S
C2074 C2073 1.523 . S
C2075 C2059 1.429 . S
C2075 C2071 1.429 . S
C2075 C2076 1.523 . S
C2076 C2060 1.368 . S
C2076 C2072 1.368 . S
C2076 C2075 1.523 . S
H2077 C2052 0.950 . S
H2078 C2054 0.950 . S
H2079 C2055 0.949 . S
H2080 C2057 0.950 . S
H2081 C2059 0.950 . S
C2082 C2083 1.349 . S
C2082 C2084 1.327 . S
C2082 H2107 0.950 . S
C2083 C2082 1.349 . S
C2083 C2099 1.349 . S
C2084 C2082 1.327 . S
C2084 C2103 1.429 . S
C2084 H2108 0.950 . S
C2085 C2102 1.574 . S
C2085 C2104 1.368 . S
C2085 H2109 0.949 . S
H2086 C2090 0.949 . S
C2087 C2088 1.349 . S
C2087 C2089 1.327 . S
C2087 H2110 0.950 . S
C2088 C2087 1.349 . S
C2088 C2100 1.349 . S
C2089 C2087 1.327 . S
C2089 C2105 1.429 . S
C2089 H2111 0.950 . S
C2090 H2086 0.949 . S
C2090 C2098 1.574 . S
C2090 C2106 1.368 . S
H2091 C2099 0.950 . S
H2092 C2097 0.950 . S
H2093 C2098 0.949 . S
H2094 C2100 0.950 . S
H2095 C2101 0.950 . S
H2096 C2102 0.949 . S
C2097 H2092 0.950 . S
C2097 C2099 1.327 . S
C2097 C2103 1.429 . S
C2098 C2090 1.574 . S
C2098 H2093 0.949 . S
C2098 C2104 1.368 . S
C2099 C2083 1.349 . S
C2099 H2091 0.950 . S
C2099 C2097 1.327 . S
C2100 C2088 1.349 . S
C2100 H2094 0.950 . S
C2100 C2101 1.327 . S
C2101 H2095 0.950 . S
C2101 C2100 1.327 . S
C2101 C2105 1.429 . S
C2102 C2085 1.574 . S
C2102 H2096 0.949 . S
C2102 C2106 1.368 . S
C2103 C2084 1.429 . S
C2103 C2097 1.429 . S
C2103 C2104 1.523 . S
C2104 C2085 1.368 . S
C2104 C2098 1.368 . S
C2104 C2103 1.523 . S
C2105 C2089 1.429 . S
C2105 C2101 1.429 . S
C2105 C2106 1.523 . S
C2106 C2090 1.368 . S
C2106 C2102 1.368 . S
C2106 C2105 1.523 . S
H2107 C2082 0.950 . S
H2108 C2084 0.950 . S
H2109 C2085 0.949 . S
H2110 C2087 0.950 . S
H2111 C2089 0.950 . S
C2112 C2113 1.349 . S
C2112 C2114 1.327 . S
C2112 H2137 0.950 . S
C2113 C2112 1.349 . S
C2113 C2129 1.349 . S
C2114 C2112 1.327 . S
C2114 C2133 1.429 . S
C2114 H2138 0.950 . S
C2115 C2132 1.574 . S
C2115 C2134 1.368 . S
C2115 H2139 0.949 . S
H2116 C2120 0.949 . S
C2117 C2118 1.349 . S
C2117 C2119 1.327 . S
C2117 H2140 0.950 . S
C2118 C2117 1.349 . S
C2118 C2130 1.349 . S
C2119 C2117 1.327 . S
C2119 C2135 1.429 . S
C2119 H2141 0.950 . S
C2120 H2116 0.949 . S
C2120 C2128 1.574 . S
C2120 C2136 1.368 . S
H2121 C2129 0.950 . S
H2122 C2127 0.950 . S
H2123 C2128 0.949 . S
H2124 C2130 0.950 . S
H2125 C2131 0.950 . S
H2126 C2132 0.949 . S
C2127 H2122 0.950 . S
C2127 C2129 1.327 . S
C2127 C2133 1.429 . S
C2128 C2120 1.574 . S
C2128 H2123 0.949 . S
C2128 C2134 1.368 . S
C2129 C2113 1.349 . S
C2129 H2121 0.950 . S
C2129 C2127 1.327 . S
C2130 C2118 1.349 . S
C2130 H2124 0.950 . S
C2130 C2131 1.327 . S
C2131 H2125 0.950 . S
C2131 C2130 1.327 . S
C2131 C2135 1.429 . S
C2132 C2115 1.574 . S
C2132 H2126 0.949 . S
C2132 C2136 1.368 . S
C2133 C2114 1.429 . S
C2133 C2127 1.429 . S
C2133 C2134 1.523 . S
C2134 C2115 1.368 . S
C2134 C2128 1.368 . S
C2134 C2133 1.523 . S
C2135 C2119 1.429 . S
C2135 C2131 1.429 . S
C2135 C2136 1.523 . S
C2136 C2120 1.368 . S
C2136 C2132 1.368 . S
C2136 C2135 1.523 . S
H2137 C2112 0.950 . S
H2138 C2114 0.950 . S
H2139 C2115 0.949 . S
H2140 C2117 0.950 . S
H2141 C2119 0.950 . S
C2142 C2143 1.349 . S
C2142 C2144 1.327 . S
C2142 H2167 0.950 . S
C2143 C2142 1.349 . S
C2143 C2159 1.349 . S
C2144 C2142 1.327 . S
C2144 C2163 1.429 . S
C2144 H2168 0.950 . S
C2145 C2162 1.574 . S
C2145 C2164 1.368 . S
C2145 H2169 0.949 . S
H2146 C2150 0.949 . S
C2147 C2148 1.349 . S
C2147 C2149 1.327 . S
C2147 H2170 0.950 . S
C2148 C2147 1.349 . S
C2148 C2160 1.349 . S
C2149 C2147 1.327 . S
C2149 C2165 1.429 . S
C2149 H2171 0.950 . S
C2150 H2146 0.949 . S
C2150 C2158 1.574 . S
C2150 C2166 1.368 . S
H2151 C2159 0.950 . S
H2152 C2157 0.950 . S
H2153 C2158 0.949 . S
H2154 C2160 0.950 . S
H2155 C2161 0.950 . S
H2156 C2162 0.949 . S
C2157 H2152 0.950 . S
C2157 C2159 1.327 . S
C2157 C2163 1.429 . S
C2158 C2150 1.574 . S
C2158 H2153 0.949 . S
C2158 C2164 1.368 . S
C2159 C2143 1.349 . S
C2159 H2151 0.950 . S
C2159 C2157 1.327 . S
C2160 C2148 1.349 . S
C2160 H2154 0.950 . S
C2160 C2161 1.327 . S
C2161 H2155 0.950 . S
C2161 C2160 1.327 . S
C2161 C2165 1.429 . S
C2162 C2145 1.574 . S
C2162 H2156 0.949 . S
C2162 C2166 1.368 . S
C2163 C2144 1.429 . S
C2163 C2157 1.429 . S
C2163 C2164 1.523 . S
C2164 C2145 1.368 . S
C2164 C2158 1.368 . S
C2164 C2163 1.523 . S
C2165 C2149 1.429 . S
C2165 C2161 1.429 . S
C2165 C2166 1.523 . S
C2166 C2150 1.368 . S
C2166 C2162 1.368 . S
C2166 C2165 1.523 . S
H2167 C2142 0.950 . S
H2168 C2144 0.950 . S
H2169 C2145 0.949 . S
H2170 C2147 0.950 . S
H2171 C2149 0.950 . S
C2172 C2173 1.349 . S
C2172 C2174 1.327 . S
C2172 H2197 0.950 . S
C2173 C2172 1.349 . S
C2173 C2189 1.349 . S
C2174 C2172 1.327 . S
C2174 C2193 1.429 . S
C2174 H2198 0.950 . S
C2175 C2192 1.574 . S
C2175 C2194 1.368 . S
C2175 H2199 0.949 . S
H2176 C2180 0.949 . S
C2177 C2178 1.349 . S
C2177 C2179 1.327 . S
C2177 H2200 0.950 . S
C2178 C2177 1.349 . S
C2178 C2190 1.349 . S
C2179 C2177 1.327 . S
C2179 C2195 1.429 . S
C2179 H2201 0.950 . S
C2180 H2176 0.949 . S
C2180 C2188 1.574 . S
C2180 C2196 1.368 . S
H2181 C2189 0.950 . S
H2182 C2187 0.950 . S
H2183 C2188 0.949 . S
H2184 C2190 0.950 . S
H2185 C2191 0.950 . S
H2186 C2192 0.949 . S
C2187 H2182 0.950 . S
C2187 C2189 1.327 . S
C2187 C2193 1.429 . S
C2188 C2180 1.574 . S
C2188 H2183 0.949 . S
C2188 C2194 1.368 . S
C2189 C2173 1.349 . S
C2189 H2181 0.950 . S
C2189 C2187 1.327 . S
C2190 C2178 1.349 . S
C2190 H2184 0.950 . S
C2190 C2191 1.327 . S
C2191 H2185 0.950 . S
C2191 C2190 1.327 . S
C2191 C2195 1.429 . S
C2192 C2175 1.574 . S
C2192 H2186 0.949 . S
C2192 C2196 1.368 . S
C2193 C2174 1.429 . S
C2193 C2187 1.429 . S
C2193 C2194 1.523 . S
C2194 C2175 1.368 . S
C2194 C2188 1.368 . S
C2194 C2193 1.523 . S
C2195 C2179 1.429 . S
C2195 C2191 1.429 . S
C2195 C2196 1.523 . S
C2196 C2180 1.368 . S
C2196 C2192 1.368 . S
C2196 C2195 1.523 . S
H2197 C2172 0.950 . S
H2198 C2174 0.950 . S
H2199 C2175 0.949 . S
H2200 C2177 0.950 . S
H2201 C2179 0.950 . S
C2202 C2203 1.349 . S
C2202 C2204 1.327 . S
C2202 H2227 0.950 . S
C2203 C2202 1.349 . S
C2203 C2219 1.349 . S
C2204 C2202 1.327 . S
C2204 C2223 1.429 . S
C2204 H2228 0.950 . S
C2205 C2222 1.574 . S
C2205 C2224 1.368 . S
C2205 H2229 0.949 . S
H2206 C2210 0.949 . S
C2207 C2208 1.349 . S
C2207 C2209 1.327 . S
C2207 H2230 0.950 . S
C2208 C2207 1.349 . S
C2208 C2220 1.349 . S
C2209 C2207 1.327 . S
C2209 C2225 1.429 . S
C2209 H2231 0.950 . S
C2210 H2206 0.949 . S
C2210 C2218 1.574 . S
C2210 C2226 1.368 . S
H2211 C2219 0.950 . S
H2212 C2217 0.950 . S
H2213 C2218 0.949 . S
H2214 C2220 0.950 . S
H2215 C2221 0.950 . S
H2216 C2222 0.949 . S
C2217 H2212 0.950 . S
C2217 C2219 1.327 . S
C2217 C2223 1.429 . S
C2218 C2210 1.574 . S
C2218 H2213 0.949 . S
C2218 C2224 1.368 . S
C2219 C2203 1.349 . S
C2219 H2211 0.950 . S
C2219 C2217 1.327 . S
C2220 C2208 1.349 . S
C2220 H2214 0.950 . S
C2220 C2221 1.327 . S
C2221 H2215 0.950 . S
C2221 C2220 1.327 . S
C2221 C2225 1.429 . S
C2222 C2205 1.574 . S
C2222 H2216 0.949 . S
C2222 C2226 1.368 . S
C2223 C2204 1.429 . S
C2223 C2217 1.429 . S
C2223 C2224 1.523 . S
C2224 C2205 1.368 . S
C2224 C2218 1.368 . S
C2224 C2223 1.523 . S
C2225 C2209 1.429 . S
C2225 C2221 1.429 . S
C2225 C2226 1.523 . S
C2226 C2210 1.368 . S
C2226 C2222 1.368 . S
C2226 C2225 1.523 . S
H2227 C2202 0.950 . S
H2228 C2204 0.950 . S
H2229 C2205 0.949 . S
H2230 C2207 0.950 . S
H2231 C2209 0.950 . S
C2232 C2233 1.349 . S
C2232 C2234 1.327 . S
C2232 H2257 0.950 . S
C2233 C2232 1.349 . S
C2233 C2249 1.349 . S
C2234 C2232 1.327 . S
C2234 C2253 1.429 . S
C2234 H2258 0.950 . S
C2235 C2252 1.574 . S
C2235 C2254 1.368 . S
C2235 H2259 0.949 . S
H2236 C2240 0.949 . S
C2237 C2238 1.349 . S
C2237 C2239 1.327 . S
C2237 H2260 0.950 . S
C2238 C2237 1.349 . S
C2238 C2250 1.349 . S
C2239 C2237 1.327 . S
C2239 C2255 1.429 . S
C2239 H2261 0.950 . S
C2240 H2236 0.949 . S
C2240 C2248 1.574 . S
C2240 C2256 1.368 . S
H2241 C2249 0.950 . S
H2242 C2247 0.950 . S
H2243 C2248 0.949 . S
H2244 C2250 0.950 . S
H2245 C2251 0.950 . S
H2246 C2252 0.949 . S
C2247 H2242 0.950 . S
C2247 C2249 1.327 . S
C2247 C2253 1.429 . S
C2248 C2240 1.574 . S
C2248 H2243 0.949 . S
C2248 C2254 1.368 . S
C2249 C2233 1.349 . S
C2249 H2241 0.950 . S
C2249 C2247 1.327 . S
C2250 C2238 1.349 . S
C2250 H2244 0.950 . S
C2250 C2251 1.327 . S
C2251 H2245 0.950 . S
C2251 C2250 1.327 . S
C2251 C2255 1.429 . S
C2252 C2235 1.574 . S
C2252 H2246 0.949 . S
C2252 C2256 1.368 . S
C2253 C2234 1.429 . S
C2253 C2247 1.429 . S
C2253 C2254 1.523 . S
C2254 C2235 1.368 . S
C2254 C2248 1.368 . S
C2254 C2253 1.523 . S
C2255 C2239 1.429 . S
C2255 C2251 1.429 . S
C2255 C2256 1.523 . S
C2256 C2240 1.368 . S
C2256 C2252 1.368 . S
C2256 C2255 1.523 . S
H2257 C2232 0.950 . S
H2258 C2234 0.950 . S
H2259 C2235 0.949 . S
H2260 C2237 0.950 . S
H2261 C2239 0.950 . S
C2262 C2263 1.349 . S
C2262 C2264 1.327 . S
C2262 H2287 0.950 . S
C2263 C2262 1.349 . S
C2263 C2279 1.349 . S
C2264 C2262 1.327 . S
C2264 C2283 1.429 . S
C2264 H2288 0.950 . S
C2265 C2282 1.574 . S
C2265 C2284 1.368 . S
C2265 H2289 0.949 . S
H2266 C2270 0.949 . S
C2267 C2268 1.349 . S
C2267 C2269 1.327 . S
C2267 H2290 0.950 . S
C2268 C2267 1.349 . S
C2268 C2280 1.349 . S
C2269 C2267 1.327 . S
C2269 C2285 1.429 . S
C2269 H2291 0.950 . S
C2270 H2266 0.949 . S
C2270 C2278 1.574 . S
C2270 C2286 1.368 . S
H2271 C2279 0.950 . S
H2272 C2277 0.950 . S
H2273 C2278 0.949 . S
H2274 C2280 0.950 . S
H2275 C2281 0.950 . S
H2276 C2282 0.949 . S
C2277 H2272 0.950 . S
C2277 C2279 1.327 . S
C2277 C2283 1.429 . S
C2278 C2270 1.574 . S
C2278 H2273 0.949 . S
C2278 C2284 1.368 . S
C2279 C2263 1.349 . S
C2279 H2271 0.950 . S
C2279 C2277 1.327 . S
C2280 C2268 1.349 . S
C2280 H2274 0.950 . S
C2280 C2281 1.327 . S
C2281 H2275 0.950 . S
C2281 C2280 1.327 . S
C2281 C2285 1.429 . S
C2282 C2265 1.574 . S
C2282 H2276 0.949 . S
C2282 C2286 1.368 . S
C2283 C2264 1.429 . S
C2283 C2277 1.429 . S
C2283 C2284 1.523 . S
C2284 C2265 1.368 . S
C2284 C2278 1.368 . S
C2284 C2283 1.523 . S
C2285 C2269 1.429 . S
C2285 C2281 1.429 . S
C2285 C2286 1.523 . S
C2286 C2270 1.368 . S
C2286 C2282 1.368 . S
C2286 C2285 1.523 . S
H2287 C2262 0.950 . S
H2288 C2264 0.950 . S
H2289 C2265 0.949 . S
H2290 C2267 0.950 . S
H2291 C2269 0.950 . S
C2292 C2293 1.349 . S
C2292 C2294 1.327 . S
C2292 H2317 0.950 . S
C2293 C2292 1.349 . S
C2293 C2309 1.349 . S
C2294 C2292 1.327 . S
C2294 C2313 1.429 . S
C2294 H2318 0.950 . S
C2295 C2312 1.574 . S
C2295 C2314 1.368 . S
C2295 H2319 0.949 . S
H2296 C2300 0.949 . S
C2297 C2298 1.349 . S
C2297 C2299 1.327 . S
C2297 H2320 0.950 . S
C2298 C2297 1.349 . S
C2298 C2310 1.349 . S
C2299 C2297 1.327 . S
C2299 C2315 1.429 . S
C2299 H2321 0.950 . S
C2300 H2296 0.949 . S
C2300 C2308 1.574 . S
C2300 C2316 1.368 . S
H2301 C2309 0.950 . S
H2302 C2307 0.950 . S
H2303 C2308 0.949 . S
H2304 C2310 0.950 . S
H2305 C2311 0.950 . S
H2306 C2312 0.949 . S
C2307 H2302 0.950 . S
C2307 C2309 1.327 . S
C2307 C2313 1.429 . S
C2308 C2300 1.574 . S
C2308 H2303 0.949 . S
C2308 C2314 1.368 . S
C2309 C2293 1.349 . S
C2309 H2301 0.950 . S
C2309 C2307 1.327 . S
C2310 C2298 1.349 . S
C2310 H2304 0.950 . S
C2310 C2311 1.327 . S
C2311 H2305 0.950 . S
C2311 C2310 1.327 . S
C2311 C2315 1.429 . S
C2312 C2295 1.574 . S
C2312 H2306 0.949 . S
C2312 C2316 1.368 . S
C2313 C2294 1.429 . S
C2313 C2307 1.429 . S
C2313 C2314 1.523 . S
C2314 C2295 1.368 . S
C2314 C2308 1.368 . S
C2314 C2313 1.523 . S
C2315 C2299 1.429 . S
C2315 C2311 1.429 . S
C2315 C2316 1.523 . S
C2316 C2300 1.368 . S
C2316 C2312 1.368 . S
C2316 C2315 1.523 . S
H2317 C2292 0.950 . S
H2318 C2294 0.950 . S
H2319 C2295 0.949 . S
H2320 C2297 0.950 . S
H2321 C2299 0.950 . S
C2322 C2323 1.349 . S
C2322 C2324 1.327 . S
C2322 H2347 0.950 . S
C2323 C2322 1.349 . S
C2323 C2339 1.349 . S
C2324 C2322 1.327 . S
C2324 C2343 1.429 . S
C2324 H2348 0.950 . S
C2325 C2342 1.574 . S
C2325 C2344 1.368 . S
C2325 H2349 0.949 . S
H2326 C2330 0.949 . S
C2327 C2328 1.349 . S
C2327 C2329 1.327 . S
C2327 H2350 0.950 . S
C2328 C2327 1.349 . S
C2328 C2340 1.349 . S
C2329 C2327 1.327 . S
C2329 C2345 1.429 . S
C2329 H2351 0.950 . S
C2330 H2326 0.949 . S
C2330 C2338 1.574 . S
C2330 C2346 1.368 . S
H2331 C2339 0.950 . S
H2332 C2337 0.950 . S
H2333 C2338 0.949 . S
H2334 C2340 0.950 . S
H2335 C2341 0.950 . S
H2336 C2342 0.949 . S
C2337 H2332 0.950 . S
C2337 C2339 1.327 . S
C2337 C2343 1.429 . S
C2338 C2330 1.574 . S
C2338 H2333 0.949 . S
C2338 C2344 1.368 . S
C2339 C2323 1.349 . S
C2339 H2331 0.950 . S
C2339 C2337 1.327 . S
C2340 C2328 1.349 . S
C2340 H2334 0.950 . S
C2340 C2341 1.327 . S
C2341 H2335 0.950 . S
C2341 C2340 1.327 . S
C2341 C2345 1.429 . S
C2342 C2325 1.574 . S
C2342 H2336 0.949 . S
C2342 C2346 1.368 . S
C2343 C2324 1.429 . S
C2343 C2337 1.429 . S
C2343 C2344 1.523 . S
C2344 C2325 1.368 . S
C2344 C2338 1.368 . S
C2344 C2343 1.523 . S
C2345 C2329 1.429 . S
C2345 C2341 1.429 . S
C2345 C2346 1.523 . S
C2346 C2330 1.368 . S
C2346 C2342 1.368 . S
C2346 C2345 1.523 . S
H2347 C2322 0.950 . S
H2348 C2324 0.950 . S
H2349 C2325 0.949 . S
H2350 C2327 0.950 . S
H2351 C2329 0.950 . S
C2352 C2353 1.349 . S
C2352 C2354 1.327 . S
C2352 H2377 0.950 . S
C2353 C2352 1.349 . S
C2353 C2369 1.349 . S
C2354 C2352 1.327 . S
C2354 C2373 1.429 . S
C2354 H2378 0.950 . S
C2355 C2372 1.574 . S
C2355 C2374 1.368 . S
C2355 H2379 0.949 . S
H2356 C2360 0.949 . S
C2357 C2358 1.349 . S
C2357 C2359 1.327 . S
C2357 H2380 0.950 . S
C2358 C2357 1.349 . S
C2358 C2370 1.349 . S
C2359 C2357 1.327 . S
C2359 C2375 1.429 . S
C2359 H2381 0.950 . S
C2360 H2356 0.949 . S
C2360 C2368 1.574 . S
C2360 C2376 1.368 . S
H2361 C2369 0.950 . S
H2362 C2367 0.950 . S
H2363 C2368 0.949 . S
H2364 C2370 0.950 . S
H2365 C2371 0.950 . S
H2366 C2372 0.949 . S
C2367 H2362 0.950 . S
C2367 C2369 1.327 . S
C2367 C2373 1.429 . S
C2368 C2360 1.574 . S
C2368 H2363 0.949 . S
C2368 C2374 1.368 . S
C2369 C2353 1.349 . S
C2369 H2361 0.950 . S
C2369 C2367 1.327 . S
C2370 C2358 1.349 . S
C2370 H2364 0.950 . S
C2370 C2371 1.327 . S
C2371 H2365 0.950 . S
C2371 C2370 1.327 . S
C2371 C2375 1.429 . S
C2372 C2355 1.574 . S
C2372 H2366 0.949 . S
C2372 C2376 1.368 . S
C2373 C2354 1.429 . S
C2373 C2367 1.429 . S
C2373 C2374 1.523 . S
C2374 C2355 1.368 . S
C2374 C2368 1.368 . S
C2374 C2373 1.523 . S
C2375 C2359 1.429 . S
C2375 C2371 1.429 . S
C2375 C2376 1.523 . S
C2376 C2360 1.368 . S
C2376 C2372 1.368 . S
C2376 C2375 1.523 . S
H2377 C2352 0.950 . S
H2378 C2354 0.950 . S
H2379 C2355 0.949 . S
H2380 C2357 0.950 . S
H2381 C2359 0.950 . S
C2382 C2383 1.349 . S
C2382 C2384 1.327 . S
C2382 H2407 0.950 . S
C2383 C2382 1.349 . S
C2383 C2399 1.349 . S
C2384 C2382 1.327 . S
C2384 C2403 1.429 . S
C2384 H2408 0.950 . S
C2385 C2402 1.574 . S
C2385 C2404 1.368 . S
C2385 H2409 0.949 . S
H2386 C2390 0.949 . S
C2387 C2388 1.349 . S
C2387 C2389 1.327 . S
C2387 H2410 0.950 . S
C2388 C2387 1.349 . S
C2388 C2400 1.349 . S
C2389 C2387 1.327 . S
C2389 C2405 1.429 . S
C2389 H2411 0.950 . S
C2390 H2386 0.949 . S
C2390 C2398 1.574 . S
C2390 C2406 1.368 . S
H2391 C2399 0.950 . S
H2392 C2397 0.950 . S
H2393 C2398 0.949 . S
H2394 C2400 0.950 . S
H2395 C2401 0.950 . S
H2396 C2402 0.949 . S
C2397 H2392 0.950 . S
C2397 C2399 1.327 . S
C2397 C2403 1.429 . S
C2398 C2390 1.574 . S
C2398 H2393 0.949 . S
C2398 C2404 1.368 . S
C2399 C2383 1.349 . S
C2399 H2391 0.950 . S
C2399 C2397 1.327 . S
C2400 C2388 1.349 . S
C2400 H2394 0.950 . S
C2400 C2401 1.327 . S
C2401 H2395 0.950 . S
C2401 C2400 1.327 . S
C2401 C2405 1.429 . S
C2402 C2385 1.574 . S
C2402 H2396 0.949 . S
C2402 C2406 1.368 . S
C2403 C2384 1.429 . S
C2403 C2397 1.429 . S
C2403 C2404 1.523 . S
C2404 C2385 1.368 . S
C2404 C2398 1.368 . S
C2404 C2403 1.523 . S
C2405 C2389 1.429 . S
C2405 C2401 1.429 . S
C2405 C2406 1.523 . S
C2406 C2390 1.368 . S
C2406 C2402 1.368 . S
C2406 C2405 1.523 . S
H2407 C2382 0.950 . S
H2408 C2384 0.950 . S
H2409 C2385 0.949 . S
H2410 C2387 0.950 . S
H2411 C2389 0.950 . S
C2412 C2413 1.349 . S
C2412 C2414 1.327 . S
C2412 H2437 0.950 . S
C2413 C2412 1.349 . S
C2413 C2429 1.349 . S
C2414 C2412 1.327 . S
C2414 C2433 1.429 . S
C2414 H2438 0.950 . S
C2415 C2432 1.574 . S
C2415 C2434 1.368 . S
C2415 H2439 0.949 . S
H2416 C2420 0.949 . S
C2417 C2418 1.349 . S
C2417 C2419 1.327 . S
C2417 H2440 0.950 . S
C2418 C2417 1.349 . S
C2418 C2430 1.349 . S
C2419 C2417 1.327 . S
C2419 C2435 1.429 . S
C2419 H2441 0.950 . S
C2420 H2416 0.949 . S
C2420 C2428 1.574 . S
C2420 C2436 1.368 . S
H2421 C2429 0.950 . S
H2422 C2427 0.950 . S
H2423 C2428 0.949 . S
H2424 C2430 0.950 . S
H2425 C2431 0.950 . S
H2426 C2432 0.949 . S
C2427 H2422 0.950 . S
C2427 C2429 1.327 . S
C2427 C2433 1.429 . S
C2428 C2420 1.574 . S
C2428 H2423 0.949 . S
C2428 C2434 1.368 . S
C2429 C2413 1.349 . S
C2429 H2421 0.950 . S
C2429 C2427 1.327 . S
C2430 C2418 1.349 . S
C2430 H2424 0.950 . S
C2430 C2431 1.327 . S
C2431 H2425 0.950 . S
C2431 C2430 1.327 . S
C2431 C2435 1.429 . S
C2432 C2415 1.574 . S
C2432 H2426 0.949 . S
C2432 C2436 1.368 . S
C2433 C2414 1.429 . S
C2433 C2427 1.429 . S
C2433 C2434 1.523 . S
C2434 C2415 1.368 . S
C2434 C2428 1.368 . S
C2434 C2433 1.523 . S
C2435 C2419 1.429 . S
C2435 C2431 1.429 . S
C2435 C2436 1.523 . S
C2436 C2420 1.368 . S
C2436 C2432 1.368 . S
C2436 C2435 1.523 . S
H2437 C2412 0.950 . S
H2438 C2414 0.950 . S
H2439 C2415 0.949 . S
H2440 C2417 0.950 . S
H2441 C2419 0.950 . S
C2442 C2443 1.349 . S
C2442 C2444 1.327 . S
C2442 H2467 0.950 . S
C2443 C2442 1.349 . S
C2443 C2459 1.349 . S
C2444 C2442 1.327 . S
C2444 C2463 1.429 . S
C2444 H2468 0.950 . S
C2445 C2462 1.574 . S
C2445 C2464 1.368 . S
C2445 H2469 0.949 . S
H2446 C2450 0.949 . S
C2447 C2448 1.349 . S
C2447 C2449 1.327 . S
C2447 H2470 0.950 . S
C2448 C2447 1.349 . S
C2448 C2460 1.349 . S
C2449 C2447 1.327 . S
C2449 C2465 1.429 . S
C2449 H2471 0.950 . S
C2450 H2446 0.949 . S
C2450 C2458 1.574 . S
C2450 C2466 1.368 . S
H2451 C2459 0.950 . S
H2452 C2457 0.950 . S
H2453 C2458 0.949 . S
H2454 C2460 0.950 . S
H2455 C2461 0.950 . S
H2456 C2462 0.949 . S
C2457 H2452 0.950 . S
C2457 C2459 1.327 . S
C2457 C2463 1.429 . S
C2458 C2450 1.574 . S
C2458 H2453 0.949 . S
C2458 C2464 1.368 . S
C2459 C2443 1.349 . S
C2459 H2451 0.950 . S
C2459 C2457 1.327 . S
C2460 C2448 1.349 . S
C2460 H2454 0.950 . S
C2460 C2461 1.327 . S
C2461 H2455 0.950 . S
C2461 C2460 1.327 . S
C2461 C2465 1.429 . S
C2462 C2445 1.574 . S
C2462 H2456 0.949 . S
C2462 C2466 1.368 . S
C2463 C2444 1.429 . S
C2463 C2457 1.429 . S
C2463 C2464 1.523 . S
C2464 C2445 1.368 . S
C2464 C2458 1.368 . S
C2464 C2463 1.523 . S
C2465 C2449 1.429 . S
C2465 C2461 1.429 . S
C2465 C2466 1.523 . S
C2466 C2450 1.368 . S
C2466 C2462 1.368 . S
C2466 C2465 1.523 . S
H2467 C2442 0.950 . S
H2468 C2444 0.950 . S
H2469 C2445 0.949 . S
H2470 C2447 0.950 . S
H2471 C2449 0.950 . S
C2472 C2473 1.349 . S
C2472 C2474 1.327 . S
C2472 H2497 0.950 . S
C2473 C2472 1.349 . S
C2473 C2489 1.349 . S
C2474 C2472 1.327 . S
C2474 C2493 1.429 . S
C2474 H2498 0.950 . S
C2475 C2492 1.574 . S
C2475 C2494 1.368 . S
C2475 H2499 0.949 . S
H2476 C2480 0.949 . S
C2477 C2478 1.349 . S
C2477 C2479 1.327 . S
C2477 H2500 0.950 . S
C2478 C2477 1.349 . S
C2478 C2490 1.349 . S
C2479 C2477 1.327 . S
C2479 C2495 1.429 . S
C2479 H2501 0.950 . S
C2480 H2476 0.949 . S
C2480 C2488 1.574 . S
C2480 C2496 1.368 . S
H2481 C2489 0.950 . S
H2482 C2487 0.950 . S
H2483 C2488 0.949 . S
H2484 C2490 0.950 . S
H2485 C2491 0.950 . S
H2486 C2492 0.949 . S
C2487 H2482 0.950 . S
C2487 C2489 1.327 . S
C2487 C2493 1.429 . S
C2488 C2480 1.574 . S
C2488 H2483 0.949 . S
C2488 C2494 1.368 . S
C2489 C2473 1.349 . S
C2489 H2481 0.950 . S
C2489 C2487 1.327 . S
C2490 C2478 1.349 . S
C2490 H2484 0.950 . S
C2490 C2491 1.327 . S
C2491 H2485 0.950 . S
C2491 C2490 1.327 . S
C2491 C2495 1.429 . S
C2492 C2475 1.574 . S
C2492 H2486 0.949 . S
C2492 C2496 1.368 . S
C2493 C2474 1.429 . S
C2493 C2487 1.429 . S
C2493 C2494 1.523 . S
C2494 C2475 1.368 . S
C2494 C2488 1.368 . S
C2494 C2493 1.523 . S
C2495 C2479 1.429 . S
C2495 C2491 1.429 . S
C2495 C2496 1.523 . S
C2496 C2480 1.368 . S
C2496 C2492 1.368 . S
C2496 C2495 1.523 . S
H2497 C2472 0.950 . S
H2498 C2474 0.950 . S
H2499 C2475 0.949 . S
H2500 C2477 0.950 . S
H2501 C2479 0.950 . S
C2502 C2503 1.349 . S
C2502 C2504 1.327 . S
C2502 H2527 0.950 . S
C2503 C2502 1.349 . S
C2503 C2519 1.349 . S
C2504 C2502 1.327 . S
C2504 C2523 1.429 . S
C2504 H2528 0.950 . S
C2505 C2522 1.574 . S
C2505 C2524 1.368 . S
C2505 H2529 0.949 . S
H2506 C2510 0.949 . S
C2507 C2508 1.349 . S
C2507 C2509 1.327 . S
C2507 H2530 0.950 . S
C2508 C2507 1.349 . S
C2508 C2520 1.349 . S
C2509 C2507 1.327 . S
C2509 C2525 1.429 . S
C2509 H2531 0.950 . S
C2510 H2506 0.949 . S
C2510 C2518 1.574 . S
C2510 C2526 1.368 . S
H2511 C2519 0.950 . S
H2512 C2517 0.950 . S
H2513 C2518 0.949 . S
H2514 C2520 0.950 . S
H2515 C2521 0.950 . S
H2516 C2522 0.949 . S
C2517 H2512 0.950 . S
C2517 C2519 1.327 . S
C2517 C2523 1.429 . S
C2518 C2510 1.574 . S
C2518 H2513 0.949 . S
C2518 C2524 1.368 . S
C2519 C2503 1.349 . S
C2519 H2511 0.950 . S
C2519 C2517 1.327 . S
C2520 C2508 1.349 . S
C2520 H2514 0.950 . S
C2520 C2521 1.327 . S
C2521 H2515 0.950 . S
C2521 C2520 1.327 . S
C2521 C2525 1.429 . S
C2522 C2505 1.574 . S
C2522 H2516 0.949 . S
C2522 C2526 1.368 . S
C2523 C2504 1.429 . S
C2523 C2517 1.429 . S
C2523 C2524 1.523 . S
C2524 C2505 1.368 . S
C2524 C2518 1.368 . S
C2524 C2523 1.523 . S
C2525 C2509 1.429 . S
C2525 C2521 1.429 . S
C2525 C2526 1.523 . S
C2526 C2510 1.368 . S
C2526 C2522 1.368 . S
C2526 C2525 1.523 . S
H2527 C2502 0.950 . S
H2528 C2504 0.950 . S
H2529 C2505 0.949 . S
H2530 C2507 0.950 . S
H2531 C2509 0.950 . S
C2532 C2533 1.349 . S
C2532 C2534 1.327 . S
C2532 H2557 0.950 . S
C2533 C2532 1.349 . S
C2533 C2549 1.349 . S
C2534 C2532 1.327 . S
C2534 C2553 1.429 . S
C2534 H2558 0.950 . S
C2535 C2552 1.574 . S
C2535 C2554 1.368 . S
C2535 H2559 0.949 . S
H2536 C2540 0.949 . S
C2537 C2538 1.349 . S
C2537 C2539 1.327 . S
C2537 H2560 0.950 . S
C2538 C2537 1.349 . S
C2538 C2550 1.349 . S
C2539 C2537 1.327 . S
C2539 C2555 1.429 . S
C2539 H2561 0.950 . S
C2540 H2536 0.949 . S
C2540 C2548 1.574 . S
C2540 C2556 1.368 . S
H2541 C2549 0.950 . S
H2542 C2547 0.950 . S
H2543 C2548 0.949 . S
H2544 C2550 0.950 . S
H2545 C2551 0.950 . S
H2546 C2552 0.949 . S
C2547 H2542 0.950 . S
C2547 C2549 1.327 . S
C2547 C2553 1.429 . S
C2548 C2540 1.574 . S
C2548 H2543 0.949 . S
C2548 C2554 1.368 . S
C2549 C2533 1.349 . S
C2549 H2541 0.950 . S
C2549 C2547 1.327 . S
C2550 C2538 1.349 . S
C2550 H2544 0.950 . S
C2550 C2551 1.327 . S
C2551 H2545 0.950 . S
C2551 C2550 1.327 . S
C2551 C2555 1.429 . S
C2552 C2535 1.574 . S
C2552 H2546 0.949 . S
C2552 C2556 1.368 . S
C2553 C2534 1.429 . S
C2553 C2547 1.429 . S
C2553 C2554 1.523 . S
C2554 C2535 1.368 . S
C2554 C2548 1.368 . S
C2554 C2553 1.523 . S
C2555 C2539 1.429 . S
C2555 C2551 1.429 . S
C2555 C2556 1.523 . S
C2556 C2540 1.368 . S
C2556 C2552 1.368 . S
C2556 C2555 1.523 . S
H2557 C2532 0.950 . S
H2558 C2534 0.950 . S
H2559 C2535 0.949 . S
H2560 C2537 0.950 . S
H2561 C2539 0.950 . S
C2562 C2563 1.349 . S
C2562 C2564 1.327 . S
C2562 H2587 0.950 . S
C2563 C2562 1.349 . S
C2563 C2579 1.349 . S
C2564 C2562 1.327 . S
C2564 C2583 1.429 . S
C2564 H2588 0.950 . S
C2565 C2582 1.574 . S
C2565 C2584 1.368 . S
C2565 H2589 0.949 . S
H2566 C2570 0.949 . S
C2567 C2568 1.349 . S
C2567 C2569 1.327 . S
C2567 H2590 0.950 . S
C2568 C2567 1.349 . S
C2568 C2580 1.349 . S
C2569 C2567 1.327 . S
C2569 C2585 1.429 . S
C2569 H2591 0.950 . S
C2570 H2566 0.949 . S
C2570 C2578 1.574 . S
C2570 C2586 1.368 . S
H2571 C2579 0.950 . S
H2572 C2577 0.950 . S
H2573 C2578 0.949 . S
H2574 C2580 0.950 . S
H2575 C2581 0.950 . S
H2576 C2582 0.949 . S
C2577 H2572 0.950 . S
C2577 C2579 1.327 . S
C2577 C2583 1.429 . S
C2578 C2570 1.574 . S
C2578 H2573 0.949 . S
C2578 C2584 1.368 . S
C2579 C2563 1.349 . S
C2579 H2571 0.950 . S
C2579 C2577 1.327 . S
C2580 C2568 1.349 . S
C2580 H2574 0.950 . S
C2580 C2581 1.327 . S
C2581 H2575 0.950 . S
C2581 C2580 1.327 . S
C2581 C2585 1.429 . S
C2582 C2565 1.574 . S
C2582 H2576 0.949 . S
C2582 C2586 1.368 . S
C2583 C2564 1.429 . S
C2583 C2577 1.429 . S
C2583 C2584 1.523 . S
C2584 C2565 1.368 . S
C2584 C2578 1.368 . S
C2584 C2583 1.523 . S
C2585 C2569 1.429 . S
C2585 C2581 1.429 . S
C2585 C2586 1.523 . S
C2586 C2570 1.368 . S
C2586 C2582 1.368 . S
C2586 C2585 1.523 . S
H2587 C2562 0.950 . S
H2588 C2564 0.950 . S
H2589 C2565 0.949 . S
H2590 C2567 0.950 . S
H2591 C2569 0.950 . S
C2592 C2593 1.349 . S
C2592 C2594 1.327 . S
C2592 H2617 0.950 . S
C2593 C2592 1.349 . S
C2593 C2609 1.349 . S
C2594 C2592 1.327 . S
C2594 C2613 1.429 . S
C2594 H2618 0.950 . S
C2595 C2612 1.574 . S
C2595 C2614 1.368 . S
C2595 H2619 0.949 . S
H2596 C2600 0.949 . S
C2597 C2598 1.349 . S
C2597 C2599 1.327 . S
C2597 H2620 0.950 . S
C2598 C2597 1.349 . S
C2598 C2610 1.349 . S
C2599 C2597 1.327 . S
C2599 C2615 1.429 . S
C2599 H2621 0.950 . S
C2600 H2596 0.949 . S
C2600 C2608 1.574 . S
C2600 C2616 1.368 . S
H2601 C2609 0.950 . S
H2602 C2607 0.950 . S
H2603 C2608 0.949 . S
H2604 C2610 0.950 . S
H2605 C2611 0.950 . S
H2606 C2612 0.949 . S
C2607 H2602 0.950 . S
C2607 C2609 1.327 . S
C2607 C2613 1.429 . S
C2608 C2600 1.574 . S
C2608 H2603 0.949 . S
C2608 C2614 1.368 . S
C2609 C2593 1.349 . S
C2609 H2601 0.950 . S
C2609 C2607 1.327 . S
C2610 C2598 1.349 . S
C2610 H2604 0.950 . S
C2610 C2611 1.327 . S
C2611 H2605 0.950 . S
C2611 C2610 1.327 . S
C2611 C2615 1.429 . S
C2612 C2595 1.574 . S
C2612 H2606 0.949 . S
C2612 C2616 1.368 . S
C2613 C2594 1.429 . S
C2613 C2607 1.429 . S
C2613 C2614 1.523 . S
C2614 C2595 1.368 . S
C2614 C2608 1.368 . S
C2614 C2613 1.523 . S
C2615 C2599 1.429 . S
C2615 C2611 1.429 . S
C2615 C2616 1.523 . S
C2616 C2600 1.368 . S
C2616 C2612 1.368 . S
C2616 C2615 1.523 . S
H2617 C2592 0.950 . S
H2618 C2594 0.950 . S
H2619 C2595 0.949 . S
H2620 C2597 0.950 . S
H2621 C2599 0.950 . S
C2622 C2623 1.349 . S
C2622 C2624 1.327 . S
C2622 H2647 0.950 . S
C2623 C2622 1.349 . S
C2623 C2639 1.349 . S
C2624 C2622 1.327 . S
C2624 C2643 1.429 . S
C2624 H2648 0.950 . S
C2625 C2642 1.574 . S
C2625 C2644 1.368 . S
C2625 H2649 0.949 . S
H2626 C2630 0.949 . S
C2627 C2628 1.349 . S
C2627 C2629 1.327 . S
C2627 H2650 0.950 . S
C2628 C2627 1.349 . S
C2628 C2640 1.349 . S
C2629 C2627 1.327 . S
C2629 C2645 1.429 . S
C2629 H2651 0.950 . S
C2630 H2626 0.949 . S
C2630 C2638 1.574 . S
C2630 C2646 1.368 . S
H2631 C2639 0.950 . S
H2632 C2637 0.950 . S
H2633 C2638 0.949 . S
H2634 C2640 0.950 . S
H2635 C2641 0.950 . S
H2636 C2642 0.949 . S
C2637 H2632 0.950 . S
C2637 C2639 1.327 . S
C2637 C2643 1.429 . S
C2638 C2630 1.574 . S
C2638 H2633 0.949 . S
C2638 C2644 1.368 . S
C2639 C2623 1.349 . S
C2639 H2631 0.950 . S
C2639 C2637 1.327 . S
C2640 C2628 1.349 . S
C2640 H2634 0.950 . S
C2640 C2641 1.327 . S
C2641 H2635 0.950 . S
C2641 C2640 1.327 . S
C2641 C2645 1.429 . S
C2642 C2625 1.574 . S
C2642 H2636 0.949 . S
C2642 C2646 1.368 . S
C2643 C2624 1.429 . S
C2643 C2637 1.429 . S
C2643 C2644 1.523 . S
C2644 C2625 1.368 . S
C2644 C2638 1.368 . S
C2644 C2643 1.523 . S
C2645 C2629 1.429 . S
C2645 C2641 1.429 . S
C2645 C2646 1.523 . S
C2646 C2630 1.368 . S
C2646 C2642 1.368 . S
C2646 C2645 1.523 . S
H2647 C2622 0.950 . S
H2648 C2624 0.950 . S
H2649 C2625 0.949 . S
H2650 C2627 0.950 . S
H2651 C2629 0.950 . S
C2652 C2653 1.349 . S
C2652 C2654 1.327 . S
C2652 H2677 0.950 . S
C2653 C2652 1.349 . S
C2653 C2669 1.349 . S
C2654 C2652 1.327 . S
C2654 C2673 1.429 . S
C2654 H2678 0.950 . S
C2655 C2672 1.574 . S
C2655 C2674 1.368 . S
C2655 H2679 0.949 . S
H2656 C2660 0.949 . S
C2657 C2658 1.349 . S
C2657 C2659 1.327 . S
C2657 H2680 0.950 . S
C2658 C2657 1.349 . S
C2658 C2670 1.349 . S
C2659 C2657 1.327 . S
C2659 C2675 1.429 . S
C2659 H2681 0.950 . S
C2660 H2656 0.949 . S
C2660 C2668 1.574 . S
C2660 C2676 1.368 . S
H2661 C2669 0.950 . S
H2662 C2667 0.950 . S
H2663 C2668 0.949 . S
H2664 C2670 0.950 . S
H2665 C2671 0.950 . S
H2666 C2672 0.949 . S
C2667 H2662 0.950 . S
C2667 C2669 1.327 . S
C2667 C2673 1.429 . S
C2668 C2660 1.574 . S
C2668 H2663 0.949 . S
C2668 C2674 1.368 . S
C2669 C2653 1.349 . S
C2669 H2661 0.950 . S
C2669 C2667 1.327 . S
C2670 C2658 1.349 . S
C2670 H2664 0.950 . S
C2670 C2671 1.327 . S
C2671 H2665 0.950 . S
C2671 C2670 1.327 . S
C2671 C2675 1.429 . S
C2672 C2655 1.574 . S
C2672 H2666 0.949 . S
C2672 C2676 1.368 . S
C2673 C2654 1.429 . S
C2673 C2667 1.429 . S
C2673 C2674 1.523 . S
C2674 C2655 1.368 . S
C2674 C2668 1.368 . S
C2674 C2673 1.523 . S
C2675 C2659 1.429 . S
C2675 C2671 1.429 . S
C2675 C2676 1.523 . S
C2676 C2660 1.368 . S
C2676 C2672 1.368 . S
C2676 C2675 1.523 . S
H2677 C2652 0.950 . S
H2678 C2654 0.950 . S
H2679 C2655 0.949 . S
H2680 C2657 0.950 . S
H2681 C2659 0.950 . S
C2682 C2683 1.349 . S
C2682 C2684 1.327 . S
C2682 H2707 0.950 1_556 S
C2683 C2682 1.349 . S
C2683 C2699 1.349 . S
C2684 C2682 1.327 . S
C2684 C2703 1.429 . S
C2684 H2708 0.950 . S
C2685 C2702 1.574 . S
C2685 C2704 1.368 . S
C2685 H2709 0.949 . S
H2686 C2690 0.949 . S
C2687 C2688 1.349 . S
C2687 C2689 1.327 . S
C2687 H2710 0.950 . S
C2688 C2687 1.349 . S
C2688 C2700 1.349 . S
C2689 C2687 1.327 . S
C2689 C2705 1.429 . S
C2689 H2711 0.950 . S
C2690 H2686 0.949 . S
C2690 C2698 1.574 . S
C2690 C2706 1.368 . S
H2691 C2699 0.950 . S
H2692 C2697 0.950 . S
H2693 C2698 0.949 . S
H2694 C2700 0.950 . S
H2695 C2701 0.950 . S
H2696 C2702 0.949 . S
C2697 H2692 0.950 . S
C2697 C2699 1.327 . S
C2697 C2703 1.429 . S
C2698 C2690 1.574 . S
C2698 H2693 0.949 . S
C2698 C2704 1.368 . S
C2699 C2683 1.349 . S
C2699 H2691 0.950 . S
C2699 C2697 1.327 . S
C2700 C2688 1.349 . S
C2700 H2694 0.950 . S
C2700 C2701 1.327 . S
C2701 H2695 0.950 . S
C2701 C2700 1.327 . S
C2701 C2705 1.429 . S
C2702 C2685 1.574 . S
C2702 H2696 0.949 . S
C2702 C2706 1.368 . S
C2703 C2684 1.429 . S
C2703 C2697 1.429 . S
C2703 C2704 1.523 . S
C2704 C2685 1.368 . S
C2704 C2698 1.368 . S
C2704 C2703 1.523 . S
C2705 C2689 1.429 . S
C2705 C2701 1.429 . S
C2705 C2706 1.523 . S
C2706 C2690 1.368 . S
C2706 C2702 1.368 . S
C2706 C2705 1.523 . S
H2707 C2682 0.950 1_554 S
H2708 C2684 0.950 . S
H2709 C2685 0.949 . S
H2710 C2687 0.950 . S
H2711 C2689 0.950 . S
C2712 C2713 1.349 . S
C2712 C2714 1.327 . S
C2712 H2737 0.950 . S
C2713 C2712 1.349 . S
C2713 C2729 1.349 . S
C2714 C2712 1.327 . S
C2714 C2733 1.429 . S
C2714 H2738 0.950 . S
C2715 C2732 1.574 . S
C2715 C2734 1.368 . S
C2715 H2739 0.949 . S
H2716 C2720 0.949 . S
C2717 C2718 1.349 . S
C2717 C2719 1.327 . S
C2717 H2740 0.950 . S
C2718 C2717 1.349 . S
C2718 C2730 1.349 . S
C2719 C2717 1.327 . S
C2719 C2735 1.429 . S
C2719 H2741 0.950 . S
C2720 H2716 0.949 . S
C2720 C2728 1.574 . S
C2720 C2736 1.368 . S
H2721 C2729 0.950 1_554 S
H2722 C2727 0.950 . S
H2723 C2728 0.949 . S
H2724 C2730 0.950 . S
H2725 C2731 0.950 . S
H2726 C2732 0.949 . S
C2727 H2722 0.950 . S
C2727 C2729 1.327 . S
C2727 C2733 1.429 . S
C2728 C2720 1.574 . S
C2728 H2723 0.949 . S
C2728 C2734 1.368 . S
C2729 C2713 1.349 . S
C2729 H2721 0.950 1_556 S
C2729 C2727 1.327 . S
C2730 C2718 1.349 . S
C2730 H2724 0.950 . S
C2730 C2731 1.327 . S
C2731 H2725 0.950 . S
C2731 C2730 1.327 . S
C2731 C2735 1.429 . S
C2732 C2715 1.574 . S
C2732 H2726 0.949 . S
C2732 C2736 1.368 . S
C2733 C2714 1.429 . S
C2733 C2727 1.429 . S
C2733 C2734 1.523 . S
C2734 C2715 1.368 . S
C2734 C2728 1.368 . S
C2734 C2733 1.523 . S
C2735 C2719 1.429 . S
C2735 C2731 1.429 . S
C2735 C2736 1.523 . S
C2736 C2720 1.368 . S
C2736 C2732 1.368 . S
C2736 C2735 1.523 . S
H2737 C2712 0.950 . S
H2738 C2714 0.950 . S
H2739 C2715 0.949 . S
H2740 C2717 0.950 . S
H2741 C2719 0.950 . S
C2742 C2743 1.349 . S
C2742 C2744 1.327 . S
C2742 H2767 0.950 . S
C2743 C2742 1.349 . S
C2743 C2759 1.349 . S
C2744 C2742 1.327 . S
C2744 C2763 1.429 . S
C2744 H2768 0.950 . S
C2745 C2762 1.574 . S
C2745 C2764 1.368 . S
C2745 H2769 0.949 . S
H2746 C2750 0.949 . S
C2747 C2748 1.349 . S
C2747 C2749 1.327 . S
C2747 H2770 0.950 . S
C2748 C2747 1.349 . S
C2748 C2760 1.349 . S
C2749 C2747 1.327 . S
C2749 C2765 1.429 . S
C2749 H2771 0.950 . S
C2750 H2746 0.949 . S
C2750 C2758 1.574 . S
C2750 C2766 1.368 . S
H2751 C2759 0.950 1_554 S
H2752 C2757 0.950 . S
H2753 C2758 0.949 . S
H2754 C2760 0.950 . S
H2755 C2761 0.950 . S
H2756 C2762 0.949 . S
C2757 H2752 0.950 . S
C2757 C2759 1.327 . S
C2757 C2763 1.429 . S
C2758 C2750 1.574 . S
C2758 H2753 0.949 . S
C2758 C2764 1.368 . S
C2759 C2743 1.349 . S
C2759 H2751 0.950 1_556 S
C2759 C2757 1.327 . S
C2760 C2748 1.349 . S
C2760 H2754 0.950 . S
C2760 C2761 1.327 . S
C2761 H2755 0.950 . S
C2761 C2760 1.327 . S
C2761 C2765 1.429 . S
C2762 C2745 1.574 . S
C2762 H2756 0.949 . S
C2762 C2766 1.368 . S
C2763 C2744 1.429 . S
C2763 C2757 1.429 . S
C2763 C2764 1.523 . S
C2764 C2745 1.368 . S
C2764 C2758 1.368 . S
C2764 C2763 1.523 . S
C2765 C2749 1.429 . S
C2765 C2761 1.429 . S
C2765 C2766 1.523 . S
C2766 C2750 1.368 . S
C2766 C2762 1.368 . S
C2766 C2765 1.523 . S
H2767 C2742 0.950 . S
H2768 C2744 0.950 . S
H2769 C2745 0.949 . S
H2770 C2747 0.950 . S
H2771 C2749 0.950 . S
C2772 C2773 1.349 . S
C2772 C2774 1.327 . S
C2772 H2797 0.950 . S
C2773 C2772 1.349 . S
C2773 C2789 1.349 . S
C2774 C2772 1.327 . S
C2774 C2793 1.429 . S
C2774 H2798 0.950 . S
C2775 C2792 1.574 . S
C2775 C2794 1.368 . S
C2775 H2799 0.949 . S
H2776 C2780 0.949 . S
C2777 C2778 1.349 . S
C2777 C2779 1.327 . S
C2777 H2800 0.950 . S
C2778 C2777 1.349 . S
C2778 C2790 1.349 . S
C2779 C2777 1.327 . S
C2779 C2795 1.429 . S
C2779 H2801 0.950 . S
C2780 H2776 0.949 . S
C2780 C2788 1.574 . S
C2780 C2796 1.368 . S
H2781 C2789 0.950 . S
H2782 C2787 0.950 . S
H2783 C2788 0.949 . S
H2784 C2790 0.950 . S
H2785 C2791 0.950 . S
H2786 C2792 0.949 . S
C2787 H2782 0.950 . S
C2787 C2789 1.327 . S
C2787 C2793 1.429 . S
C2788 C2780 1.574 . S
C2788 H2783 0.949 . S
C2788 C2794 1.368 . S
C2789 C2773 1.349 . S
C2789 H2781 0.950 . S
C2789 C2787 1.327 . S
C2790 C2778 1.349 . S
C2790 H2784 0.950 . S
C2790 C2791 1.327 . S
C2791 H2785 0.950 . S
C2791 C2790 1.327 . S
C2791 C2795 1.429 . S
C2792 C2775 1.574 . S
C2792 H2786 0.949 . S
C2792 C2796 1.368 . S
C2793 C2774 1.429 . S
C2793 C2787 1.429 . S
C2793 C2794 1.523 . S
C2794 C2775 1.368 . S
C2794 C2788 1.368 . S
C2794 C2793 1.523 . S
C2795 C2779 1.429 . S
C2795 C2791 1.429 . S
C2795 C2796 1.523 . S
C2796 C2780 1.368 . S
C2796 C2792 1.368 . S
C2796 C2795 1.523 . S
H2797 C2772 0.950 . S
H2798 C2774 0.950 . S
H2799 C2775 0.949 . S
H2800 C2777 0.950 . S
H2801 C2779 0.950 . S
C2802 C2803 1.349 . S
C2802 C2804 1.327 . S
C2802 H2827 0.950 1_556 S
C2803 C2802 1.349 . S
C2803 C2819 1.349 . S
C2804 C2802 1.327 . S
C2804 C2823 1.429 . S
C2804 H2828 0.950 . S
C2805 C2822 1.574 . S
C2805 C2824 1.368 . S
C2805 H2829 0.949 . S
H2806 C2810 0.949 . S
C2807 C2808 1.349 . S
C2807 C2809 1.327 . S
C2807 H2830 0.950 . S
C2808 C2807 1.349 . S
C2808 C2820 1.349 . S
C2809 C2807 1.327 . S
C2809 C2825 1.429 . S
C2809 H2831 0.950 . S
C2810 H2806 0.949 . S
C2810 C2818 1.574 . S
C2810 C2826 1.368 . S
H2811 C2819 0.950 . S
H2812 C2817 0.950 . S
H2813 C2818 0.949 . S
H2814 C2820 0.950 . S
H2815 C2821 0.950 . S
H2816 C2822 0.949 . S
C2817 H2812 0.950 . S
C2817 C2819 1.327 . S
C2817 C2823 1.429 . S
C2818 C2810 1.574 . S
C2818 H2813 0.949 . S
C2818 C2824 1.368 . S
C2819 C2803 1.349 . S
C2819 H2811 0.950 . S
C2819 C2817 1.327 . S
C2820 C2808 1.349 . S
C2820 H2814 0.950 . S
C2820 C2821 1.327 . S
C2821 H2815 0.950 . S
C2821 C2820 1.327 . S
C2821 C2825 1.429 . S
C2822 C2805 1.574 . S
C2822 H2816 0.949 . S
C2822 C2826 1.368 . S
C2823 C2804 1.429 . S
C2823 C2817 1.429 . S
C2823 C2824 1.523 . S
C2824 C2805 1.368 . S
C2824 C2818 1.368 . S
C2824 C2823 1.523 . S
C2825 C2809 1.429 . S
C2825 C2821 1.429 . S
C2825 C2826 1.523 . S
C2826 C2810 1.368 . S
C2826 C2822 1.368 . S
C2826 C2825 1.523 . S
H2827 C2802 0.950 1_554 S
H2828 C2804 0.950 . S
H2829 C2805 0.949 . S
H2830 C2807 0.950 . S
H2831 C2809 0.950 . S
C2832 C2833 1.349 . S
C2832 C2834 1.327 . S
C2832 H2857 0.950 . S
C2833 C2832 1.349 . S
C2833 C2849 1.349 . S
C2834 C2832 1.327 . S
C2834 C2853 1.429 . S
C2834 H2858 0.950 . S
C2835 C2852 1.574 . S
C2835 C2854 1.368 . S
C2835 H2859 0.949 . S
H2836 C2840 0.949 . S
C2837 C2838 1.349 . S
C2837 C2839 1.327 . S
C2837 H2860 0.950 . S
C2838 C2837 1.349 . S
C2838 C2850 1.349 . S
C2839 C2837 1.327 . S
C2839 C2855 1.429 . S
C2839 H2861 0.950 . S
C2840 H2836 0.949 . S
C2840 C2848 1.574 . S
C2840 C2856 1.368 . S
H2841 C2849 0.950 1_554 S
H2842 C2847 0.950 . S
H2843 C2848 0.949 . S
H2844 C2850 0.950 . S
H2845 C2851 0.950 . S
H2846 C2852 0.949 . S
C2847 H2842 0.950 . S
C2847 C2849 1.327 . S
C2847 C2853 1.429 . S
C2848 C2840 1.574 . S
C2848 H2843 0.949 . S
C2848 C2854 1.368 . S
C2849 C2833 1.349 . S
C2849 H2841 0.950 1_556 S
C2849 C2847 1.327 . S
C2850 C2838 1.349 . S
C2850 H2844 0.950 . S
C2850 C2851 1.327 . S
C2851 H2845 0.950 . S
C2851 C2850 1.327 . S
C2851 C2855 1.429 . S
C2852 C2835 1.574 . S
C2852 H2846 0.949 . S
C2852 C2856 1.368 . S
C2853 C2834 1.429 . S
C2853 C2847 1.429 . S
C2853 C2854 1.523 . S
C2854 C2835 1.368 . S
C2854 C2848 1.368 . S
C2854 C2853 1.523 . S
C2855 C2839 1.429 . S
C2855 C2851 1.429 . S
C2855 C2856 1.523 . S
C2856 C2840 1.368 . S
C2856 C2852 1.368 . S
C2856 C2855 1.523 . S
H2857 C2832 0.950 . S
H2858 C2834 0.950 . S
H2859 C2835 0.949 . S
H2860 C2837 0.950 . S
H2861 C2839 0.950 . S
C2862 C2863 1.349 . S
C2862 C2864 1.327 . S
C2862 H2887 0.950 . S
C2863 C2862 1.349 . S
C2863 C2879 1.349 . S
C2864 C2862 1.327 . S
C2864 C2883 1.429 . S
C2864 H2888 0.950 . S
C2865 C2882 1.574 . S
C2865 C2884 1.368 . S
C2865 H2889 0.949 . S
H2866 C2870 0.949 . S
C2867 C2868 1.349 . S
C2867 C2869 1.327 . S
C2867 H2890 0.950 . S
C2868 C2867 1.349 . S
C2868 C2880 1.349 . S
C2869 C2867 1.327 . S
C2869 C2885 1.429 . S
C2869 H2891 0.950 . S
C2870 H2866 0.949 . S
C2870 C2878 1.574 . S
C2870 C2886 1.368 . S
H2871 C2879 0.950 . S
H2872 C2877 0.950 . S
H2873 C2878 0.949 . S
H2874 C2880 0.950 . S
H2875 C2881 0.950 . S
H2876 C2882 0.949 . S
C2877 H2872 0.950 . S
C2877 C2879 1.327 . S
C2877 C2883 1.429 . S
C2878 C2870 1.574 . S
C2878 H2873 0.949 . S
C2878 C2884 1.368 . S
C2879 C2863 1.349 . S
C2879 H2871 0.950 . S
C2879 C2877 1.327 . S
C2880 C2868 1.349 . S
C2880 H2874 0.950 . S
C2880 C2881 1.327 . S
C2881 H2875 0.950 . S
C2881 C2880 1.327 . S
C2881 C2885 1.429 . S
C2882 C2865 1.574 . S
C2882 H2876 0.949 . S
C2882 C2886 1.368 . S
C2883 C2864 1.429 . S
C2883 C2877 1.429 . S
C2883 C2884 1.523 . S
C2884 C2865 1.368 . S
C2884 C2878 1.368 . S
C2884 C2883 1.523 . S
C2885 C2869 1.429 . S
C2885 C2881 1.429 . S
C2885 C2886 1.523 . S
C2886 C2870 1.368 . S
C2886 C2882 1.368 . S
C2886 C2885 1.523 . S
H2887 C2862 0.950 . S
H2888 C2864 0.950 . S
H2889 C2865 0.949 . S
H2890 C2867 0.950 . S
H2891 C2869 0.950 . S
C2892 C2893 1.349 . S
C2892 C2894 1.327 . S
C2892 H2917 0.950 . S
C2893 C2892 1.349 . S
C2893 C2909 1.349 . S
C2894 C2892 1.327 . S
C2894 C2913 1.429 . S
C2894 H2918 0.950 . S
C2895 C2912 1.574 . S
C2895 C2914 1.368 . S
C2895 H2919 0.949 . S
H2896 C2900 0.949 . S
C2897 C2898 1.349 . S
C2897 C2899 1.327 . S
C2897 H2920 0.950 . S
C2898 C2897 1.349 . S
C2898 C2910 1.349 . S
C2899 C2897 1.327 . S
C2899 C2915 1.429 . S
C2899 H2921 0.950 . S
C2900 H2896 0.949 . S
C2900 C2908 1.574 . S
C2900 C2916 1.368 . S
H2901 C2909 0.950 . S
H2902 C2907 0.950 . S
H2903 C2908 0.949 . S
H2904 C2910 0.950 . S
H2905 C2911 0.950 . S
H2906 C2912 0.949 . S
C2907 H2902 0.950 . S
C2907 C2909 1.327 . S
C2907 C2913 1.429 . S
C2908 C2900 1.574 . S
C2908 H2903 0.949 . S
C2908 C2914 1.368 . S
C2909 C2893 1.349 . S
C2909 H2901 0.950 . S
C2909 C2907 1.327 . S
C2910 C2898 1.349 . S
C2910 H2904 0.950 . S
C2910 C2911 1.327 . S
C2911 H2905 0.950 . S
C2911 C2910 1.327 . S
C2911 C2915 1.429 . S
C2912 C2895 1.574 . S
C2912 H2906 0.949 . S
C2912 C2916 1.368 . S
C2913 C2894 1.429 . S
C2913 C2907 1.429 . S
C2913 C2914 1.523 . S
C2914 C2895 1.368 . S
C2914 C2908 1.368 . S
C2914 C2913 1.523 . S
C2915 C2899 1.429 . S
C2915 C2911 1.429 . S
C2915 C2916 1.523 . S
C2916 C2900 1.368 . S
C2916 C2912 1.368 . S
C2916 C2915 1.523 . S
H2917 C2892 0.950 . S
H2918 C2894 0.950 . S
H2919 C2895 0.949 . S
H2920 C2897 0.950 . S
H2921 C2899 0.950 . S
C2922 C2923 1.349 . S
C2922 C2924 1.327 . S
C2922 H2947 0.950 . S
C2923 C2922 1.349 . S
C2923 C2939 1.349 . S
C2924 C2922 1.327 . S
C2924 C2943 1.429 . S
C2924 H2948 0.950 . S
C2925 C2942 1.574 . S
C2925 C2944 1.368 . S
C2925 H2949 0.949 . S
H2926 C2930 0.949 . S
C2927 C2928 1.349 . S
C2927 C2929 1.327 . S
C2927 H2950 0.950 . S
C2928 C2927 1.349 . S
C2928 C2940 1.349 . S
C2929 C2927 1.327 . S
C2929 C2945 1.429 . S
C2929 H2951 0.950 . S
C2930 H2926 0.949 . S
C2930 C2938 1.574 . S
C2930 C2946 1.368 . S
H2931 C2939 0.950 . S
H2932 C2937 0.950 . S
H2933 C2938 0.949 . S
H2934 C2940 0.950 . S
H2935 C2941 0.950 . S
H2936 C2942 0.949 . S
C2937 H2932 0.950 . S
C2937 C2939 1.327 . S
C2937 C2943 1.429 . S
C2938 C2930 1.574 . S
C2938 H2933 0.949 . S
C2938 C2944 1.368 . S
C2939 C2923 1.349 . S
C2939 H2931 0.950 . S
C2939 C2937 1.327 . S
C2940 C2928 1.349 . S
C2940 H2934 0.950 . S
C2940 C2941 1.327 . S
C2941 H2935 0.950 . S
C2941 C2940 1.327 . S
C2941 C2945 1.429 . S
C2942 C2925 1.574 . S
C2942 H2936 0.949 . S
C2942 C2946 1.368 . S
C2943 C2924 1.429 . S
C2943 C2937 1.429 . S
C2943 C2944 1.523 . S
C2944 C2925 1.368 . S
C2944 C2938 1.368 . S
C2944 C2943 1.523 . S
C2945 C2929 1.429 . S
C2945 C2941 1.429 . S
C2945 C2946 1.523 . S
C2946 C2930 1.368 . S
C2946 C2942 1.368 . S
C2946 C2945 1.523 . S
H2947 C2922 0.950 . S
H2948 C2924 0.950 . S
H2949 C2925 0.949 . S
H2950 C2927 0.950 . S
H2951 C2929 0.950 . S
C2952 C2953 1.349 . S
C2952 C2954 1.327 . S
C2952 H2977 0.950 . S
C2953 C2952 1.349 . S
C2953 C2969 1.349 . S
C2954 C2952 1.327 . S
C2954 C2973 1.429 . S
C2954 H2978 0.950 . S
C2955 C2972 1.574 . S
C2955 C2974 1.368 . S
C2955 H2979 0.949 . S
H2956 C2960 0.949 . S
C2957 C2958 1.349 . S
C2957 C2959 1.327 . S
C2957 H2980 0.950 . S
C2958 C2957 1.349 . S
C2958 C2970 1.349 . S
C2959 C2957 1.327 . S
C2959 C2975 1.429 . S
C2959 H2981 0.950 . S
C2960 H2956 0.949 . S
C2960 C2968 1.574 . S
C2960 C2976 1.368 . S
H2961 C2969 0.950 . S
H2962 C2967 0.950 . S
H2963 C2968 0.949 . S
H2964 C2970 0.950 . S
H2965 C2971 0.950 . S
H2966 C2972 0.949 . S
C2967 H2962 0.950 . S
C2967 C2969 1.327 . S
C2967 C2973 1.429 . S
C2968 C2960 1.574 . S
C2968 H2963 0.949 . S
C2968 C2974 1.368 . S
C2969 C2953 1.349 . S
C2969 H2961 0.950 . S
C2969 C2967 1.327 . S
C2970 C2958 1.349 . S
C2970 H2964 0.950 . S
C2970 C2971 1.327 . S
C2971 H2965 0.950 . S
C2971 C2970 1.327 . S
C2971 C2975 1.429 . S
C2972 C2955 1.574 . S
C2972 H2966 0.949 . S
C2972 C2976 1.368 . S
C2973 C2954 1.429 . S
C2973 C2967 1.429 . S
C2973 C2974 1.523 . S
C2974 C2955 1.368 . S
C2974 C2968 1.368 . S
C2974 C2973 1.523 . S
C2975 C2959 1.429 . S
C2975 C2971 1.429 . S
C2975 C2976 1.523 . S
C2976 C2960 1.368 . S
C2976 C2972 1.368 . S
C2976 C2975 1.523 . S
H2977 C2952 0.950 . S
H2978 C2954 0.950 . S
H2979 C2955 0.949 . S
H2980 C2957 0.950 . S
H2981 C2959 0.950 . S
C2982 C2983 1.349 . S
C2982 C2984 1.327 . S
C2982 H3007 0.950 . S
C2983 C2982 1.349 . S
C2983 C2999 1.349 . S
C2984 C2982 1.327 . S
C2984 C3003 1.429 . S
C2984 H3008 0.950 . S
C2985 C3002 1.574 . S
C2985 C3004 1.368 . S
C2985 H3009 0.949 . S
H2986 C2990 0.949 . S
C2987 C2988 1.349 . S
C2987 C2989 1.327 . S
C2987 H3010 0.950 . S
C2988 C2987 1.349 . S
C2988 C3000 1.349 . S
C2989 C2987 1.327 . S
C2989 C3005 1.429 . S
C2989 H3011 0.950 . S
C2990 H2986 0.949 . S
C2990 C2998 1.574 . S
C2990 C3006 1.368 . S
H2991 C2999 0.950 . S
H2992 C2997 0.950 . S
H2993 C2998 0.949 . S
H2994 C3000 0.950 . S
H2995 C3001 0.950 . S
H2996 C3002 0.949 . S
C2997 H2992 0.950 . S
C2997 C2999 1.327 . S
C2997 C3003 1.429 . S
C2998 C2990 1.574 . S
C2998 H2993 0.949 . S
C2998 C3004 1.368 . S
C2999 C2983 1.349 . S
C2999 H2991 0.950 . S
C2999 C2997 1.327 . S
C3000 C2988 1.349 . S
C3000 H2994 0.950 . S
C3000 C3001 1.327 . S
C3001 H2995 0.950 . S
C3001 C3000 1.327 . S
C3001 C3005 1.429 . S
C3002 C2985 1.574 . S
C3002 H2996 0.949 . S
C3002 C3006 1.368 . S
C3003 C2984 1.429 . S
C3003 C2997 1.429 . S
C3003 C3004 1.523 . S
C3004 C2985 1.368 . S
C3004 C2998 1.368 . S
C3004 C3003 1.523 . S
C3005 C2989 1.429 . S
C3005 C3001 1.429 . S
C3005 C3006 1.523 . S
C3006 C2990 1.368 . S
C3006 C3002 1.368 . S
C3006 C3005 1.523 . S
H3007 C2982 0.950 . S
H3008 C2984 0.950 . S
H3009 C2985 0.949 . S
H3010 C2987 0.950 . S
H3011 C2989 0.950 . S
C3012 C3013 1.349 . S
C3012 C3014 1.327 . S
C3012 H3037 0.950 . S
C3013 C3012 1.349 . S
C3013 C3029 1.349 . S
C3014 C3012 1.327 . S
C3014 C3033 1.429 . S
C3014 H3038 0.950 . S
C3015 C3032 1.574 . S
C3015 C3034 1.368 . S
C3015 H3039 0.949 . S
H3016 C3020 0.949 . S
C3017 C3018 1.349 . S
C3017 C3019 1.327 . S
C3017 H3040 0.950 . S
C3018 C3017 1.349 . S
C3018 C3030 1.349 . S
C3019 C3017 1.327 . S
C3019 C3035 1.429 . S
C3019 H3041 0.950 . S
C3020 H3016 0.949 . S
C3020 C3028 1.574 . S
C3020 C3036 1.368 . S
H3021 C3029 0.950 . S
H3022 C3027 0.950 . S
H3023 C3028 0.949 . S
H3024 C3030 0.950 . S
H3025 C3031 0.950 . S
H3026 C3032 0.949 . S
C3027 H3022 0.950 . S
C3027 C3029 1.327 . S
C3027 C3033 1.429 . S
C3028 C3020 1.574 . S
C3028 H3023 0.949 . S
C3028 C3034 1.368 . S
C3029 C3013 1.349 . S
C3029 H3021 0.950 . S
C3029 C3027 1.327 . S
C3030 C3018 1.349 . S
C3030 H3024 0.950 . S
C3030 C3031 1.327 . S
C3031 H3025 0.950 . S
C3031 C3030 1.327 . S
C3031 C3035 1.429 . S
C3032 C3015 1.574 . S
C3032 H3026 0.949 . S
C3032 C3036 1.368 . S
C3033 C3014 1.429 . S
C3033 C3027 1.429 . S
C3033 C3034 1.523 . S
C3034 C3015 1.368 . S
C3034 C3028 1.368 . S
C3034 C3033 1.523 . S
C3035 C3019 1.429 . S
C3035 C3031 1.429 . S
C3035 C3036 1.523 . S
C3036 C3020 1.368 . S
C3036 C3032 1.368 . S
C3036 C3035 1.523 . S
H3037 C3012 0.950 . S
H3038 C3014 0.950 . S
H3039 C3015 0.949 . S
H3040 C3017 0.950 . S
H3041 C3019 0.950 . S
C3042 C3043 1.349 . S
C3042 C3044 1.327 . S
C3042 H3067 0.950 . S
C3043 C3042 1.349 . S
C3043 C3059 1.349 . S
C3044 C3042 1.327 . S
C3044 C3063 1.429 . S
C3044 H3068 0.950 . S
C3045 C3062 1.574 . S
C3045 C3064 1.368 . S
C3045 H3069 0.949 . S
H3046 C3050 0.949 . S
C3047 C3048 1.349 . S
C3047 C3049 1.327 . S
C3047 H3070 0.944 1_455 S
C3048 C3047 1.349 . S
C3048 C3060 1.349 . S
C3049 C3047 1.327 . S
C3049 C3065 1.429 . S
C3049 H3071 0.924 . S
C3050 H3046 0.949 . S
C3050 C3058 1.574 . S
C3050 C3066 1.368 . S
H3051 C3059 0.950 . S
H3052 C3057 0.950 . S
H3053 C3058 0.949 . S
H3054 C3060 0.950 . S
H3055 C3061 0.950 . S
H3056 C3062 0.949 . S
C3057 H3052 0.950 . S
C3057 C3059 1.327 . S
C3057 C3063 1.429 . S
C3058 C3050 1.574 . S
C3058 H3053 0.949 . S
C3058 C3064 1.368 . S
C3059 C3043 1.349 . S
C3059 H3051 0.950 . S
C3059 C3057 1.327 . S
C3060 C3048 1.349 . S
C3060 H3054 0.950 . S
C3060 C3061 1.327 . S
C3061 H3055 0.950 . S
C3061 C3060 1.327 . S
C3061 C3065 1.429 . S
C3062 C3045 1.574 . S
C3062 H3056 0.949 . S
C3062 C3066 1.368 . S
C3063 C3044 1.429 . S
C3063 C3057 1.429 . S
C3063 C3064 1.523 . S
C3064 C3045 1.368 . S
C3064 C3058 1.368 . S
C3064 C3063 1.523 . S
C3065 C3049 1.429 . S
C3065 C3061 1.429 . S
C3065 C3066 1.523 . S
C3066 C3050 1.368 . S
C3066 C3062 1.368 . S
C3066 C3065 1.523 . S
H3067 C3042 0.950 . S
H3068 C3044 0.950 . S
H3069 C3045 0.949 . S
H3070 C3047 0.944 1_655 S
H3071 C3049 0.924 . S
C3072 C3073 1.349 . S
C3072 C3074 1.327 . S
C3072 H3097 0.950 . S
C3073 C3072 1.349 . S
C3073 C3089 1.349 . S
C3074 C3072 1.327 . S
C3074 C3093 1.429 . S
C3074 H3098 0.950 . S
C3075 C3092 1.574 . S
C3075 C3094 1.368 . S
C3075 H3099 0.949 . S
H3076 C3080 0.949 . S
C3077 C3078 1.349 . S
C3077 C3079 1.327 . S
C3077 H3100 0.950 . S
C3078 C3077 1.349 . S
C3078 C3090 1.349 . S
C3079 C3077 1.327 . S
C3079 C3095 1.429 . S
C3079 H3101 0.950 . S
C3080 H3076 0.949 . S
C3080 C3088 1.574 . S
C3080 C3096 1.368 . S
H3081 C3089 0.950 . S
H3082 C3087 0.950 . S
H3083 C3088 0.949 . S
H3084 C3090 0.950 . S
H3085 C3091 0.950 . S
H3086 C3092 0.949 . S
C3087 H3082 0.950 . S
C3087 C3089 1.327 . S
C3087 C3093 1.429 . S
C3088 C3080 1.574 . S
C3088 H3083 0.949 . S
C3088 C3094 1.368 . S
C3089 C3073 1.349 . S
C3089 H3081 0.950 . S
C3089 C3087 1.327 . S
C3090 C3078 1.349 . S
C3090 H3084 0.950 . S
C3090 C3091 1.327 . S
C3091 H3085 0.950 . S
C3091 C3090 1.327 . S
C3091 C3095 1.429 . S
C3092 C3075 1.574 . S
C3092 H3086 0.949 . S
C3092 C3096 1.368 . S
C3093 C3074 1.429 . S
C3093 C3087 1.429 . S
C3093 C3094 1.523 . S
C3094 C3075 1.368 . S
C3094 C3088 1.368 . S
C3094 C3093 1.523 . S
C3095 C3079 1.429 . S
C3095 C3091 1.429 . S
C3095 C3096 1.523 . S
C3096 C3080 1.368 . S
C3096 C3092 1.368 . S
C3096 C3095 1.523 . S
H3097 C3072 0.950 . S
H3098 C3074 0.950 . S
H3099 C3075 0.949 . S
H3100 C3077 0.950 . S
H3101 C3079 0.950 . S
C3102 C3103 1.349 . S
C3102 C3104 1.327 . S
C3102 H3127 0.950 . S
C3103 C3102 1.349 . S
C3103 C3119 1.349 . S
C3104 C3102 1.327 . S
C3104 C3123 1.429 . S
C3104 H3128 0.950 . S
C3105 C3122 1.574 . S
C3105 C3124 1.368 1_545 S
C3105 H3129 0.949 . S
H3106 C3110 0.949 . S
C3107 C3108 1.349 1_545 S
C3107 C3109 1.327 . S
C3107 H3130 0.950 . S
C3108 C3107 1.349 1_565 S
C3108 C3120 1.349 . S
C3109 C3107 1.327 . S
C3109 C3125 1.429 1_545 S
C3109 H3131 0.950 . S
C3110 H3106 0.949 . S
C3110 C3118 1.574 . S
C3110 C3126 1.368 . S
H3111 C3119 0.950 1_545 S
H3112 C3117 0.948 1_545 S
H3113 C3118 0.949 . S
H3114 C3120 0.950 . S
H3115 C3121 0.950 . S
H3116 C3122 0.949 . S
C3117 H3112 0.948 1_565 S
C3117 C3119 1.325 . S
C3117 C3123 1.431 . S
C3118 C3110 1.574 . S
C3118 H3113 0.949 . S
C3118 C3124 1.368 . S
C3119 C3103 1.349 . S
C3119 H3111 0.950 1_565 S
C3119 C3117 1.325 . S
C3120 C3108 1.349 . S
C3120 H3114 0.950 . S
C3120 C3121 1.327 . S
C3121 H3115 0.950 . S
C3121 C3120 1.327 . S
C3121 C3125 1.429 . S
C3122 C3105 1.574 . S
C3122 H3116 0.949 . S
C3122 C3126 1.368 1_545 S
C3123 C3104 1.429 . S
C3123 C3117 1.431 . S
C3123 C3124 1.523 . S
C3124 C3105 1.368 1_565 S
C3124 C3118 1.368 . S
C3124 C3123 1.523 . S
C3125 C3109 1.429 1_565 S
C3125 C3121 1.429 . S
C3125 C3126 1.523 . S
C3126 C3110 1.368 . S
C3126 C3122 1.368 1_565 S
C3126 C3125 1.523 . S
H3127 C3102 0.950 . S
H3128 C3104 0.950 . S
H3129 C3105 0.949 . S
H3130 C3107 0.950 . S
H3131 C3109 0.950 . S
C3132 C3133 1.349 . S
C3132 C3134 1.327 1_565 S
C3132 H3157 0.950 1_565 S
C3133 C3132 1.349 . S
C3133 C3149 1.349 . S
C3134 C3132 1.327 1_545 S
C3134 C3153 1.429 1_545 S
C3134 H3158 0.950 . S
C3135 C3152 1.574 . S
C3135 C3154 1.368 . S
C3135 H3159 0.949 . S
H3136 C3140 0.949 . S
C3137 C3138 1.349 . S
C3137 C3139 1.327 . S
C3137 H3160 0.950 . S
C3138 C3137 1.349 . S
C3138 C3150 1.349 1_565 S
C3139 C3137 1.327 . S
C3139 C3155 1.429 . S
C3139 H3161 0.950 . S
C3140 H3136 0.949 . S
C3140 C3148 1.574 . S
C3140 C3156 1.368 1_545 S
H3141 C3149 0.950 . S
H3142 C3147 0.950 . S
H3143 C3148 0.949 . S
H3144 C3150 0.950 . S
H3145 C3151 0.950 . S
H3146 C3152 0.949 . S
C3147 H3142 0.950 . S
C3147 C3149 1.327 . S
C3147 C3153 1.429 . S
C3148 C3140 1.574 . S
C3148 H3143 0.949 . S
C3148 C3154 1.368 1_545 S
C3149 C3133 1.349 . S
C3149 H3141 0.950 . S
C3149 C3147 1.327 . S
C3150 C3138 1.349 1_545 S
C3150 H3144 0.950 . S
C3150 C3151 1.327 . S
C3151 H3145 0.950 . S
C3151 C3150 1.327 . S
C3151 C3155 1.429 1_545 S
C3152 C3135 1.574 . S
C3152 H3146 0.949 . S
C3152 C3156 1.368 . S
C3153 C3134 1.429 1_565 S
C3153 C3147 1.429 . S
C3153 C3154 1.523 . S
C3154 C3135 1.368 . S
C3154 C3148 1.368 1_565 S
C3154 C3153 1.523 . S
C3155 C3139 1.429 . S
C3155 C3151 1.429 1_565 S
C3155 C3156 1.523 . S
C3156 C3140 1.368 1_565 S
C3156 C3152 1.368 . S
C3156 C3155 1.523 . S
H3157 C3132 0.950 1_545 S
H3158 C3134 0.950 . S
H3159 C3135 0.949 . S
H3160 C3137 0.950 . S
H3161 C3139 0.950 . S
C3162 C3163 1.393 . S
C3162 C3164 1.384 1_455 S
C3162 H3187 0.880 1_455 S
C3163 C3162 1.393 . S
C3163 C3179 1.349 . S
C3164 C3162 1.384 1_655 S
C3164 C3183 1.368 1_655 S
C3164 H3188 0.990 . S
C3165 C3182 1.574 . S
C3165 C3184 1.368 . S
C3165 H3189 0.949 . S
H3166 C3170 0.949 . S
C3167 C3168 1.349 . S
C3167 C3169 1.327 . S
C3167 H3190 0.950 . S
C3168 C3167 1.349 . S
C3168 C3180 1.349 1_455 S
C3169 C3167 1.327 . S
C3169 C3185 1.429 . S
C3169 H3191 0.950 . S
C3170 H3166 0.949 . S
C3170 C3178 1.574 . S
C3170 C3186 1.368 1_655 S
H3171 C3179 0.950 . S
H3172 C3177 0.950 . S
H3173 C3178 0.949 . S
H3174 C3180 0.950 . S
H3175 C3181 0.950 . S
H3176 C3182 0.949 . S
C3177 H3172 0.950 . S
C3177 C3179 1.327 . S
C3177 C3183 1.429 . S
C3178 C3170 1.574 . S
C3178 H3173 0.949 . S
C3178 C3184 1.368 1_655 S
C3179 C3163 1.349 . S
C3179 H3171 0.950 . S
C3179 C3177 1.327 . S
C3180 C3168 1.349 1_655 S
C3180 H3174 0.950 . S
C3180 C3181 1.327 . S
C3181 H3175 0.950 . S
C3181 C3180 1.327 . S
C3181 C3185 1.429 1_655 S
C3182 C3165 1.574 . S
C3182 H3176 0.949 . S
C3182 C3186 1.368 . S
C3183 C3164 1.368 1_455 S
C3183 C3177 1.429 . S
C3183 C3184 1.523 . S
C3184 C3165 1.368 . S
C3184 C3178 1.368 1_455 S
C3184 C3183 1.523 . S
C3185 C3169 1.429 . S
C3185 C3181 1.429 1_455 S
C3185 C3186 1.523 . S
C3186 C3170 1.368 1_455 S
C3186 C3182 1.368 . S
C3186 C3185 1.523 . S
H3187 C3162 0.880 1_655 S
H3188 C3164 0.990 . S
H3189 C3165 0.949 . S
H3190 C3167 0.950 . S
H3191 C3169 0.950 . S
C3192 C3193 1.349 . S
C3192 C3194 1.327 . S
C3192 H3217 0.950 . S
C3193 C3192 1.349 . S
C3193 C3209 1.349 . S
C3194 C3192 1.327 . S
C3194 C3213 1.429 . S
C3194 H3218 0.950 . S
C3195 C3212 1.574 . S
C3195 C3214 1.368 . S
C3195 H3219 0.949 . S
H3196 C3200 0.949 . S
C3197 C3198 1.349 . S
C3197 C3199 1.327 . S
C3197 H3220 0.950 . S
C3198 C3197 1.349 . S
C3198 C3210 1.349 . S
C3199 C3197 1.327 . S
C3199 C3215 1.429 . S
C3199 H3221 0.950 . S
C3200 H3196 0.949 . S
C3200 C3208 1.574 . S
C3200 C3216 1.368 . S
H3201 C3209 0.950 . S
H3202 C3207 0.950 . S
H3203 C3208 0.949 . S
H3204 C3210 0.950 . S
H3205 C3211 0.950 . S
H3206 C3212 0.949 . S
C3207 H3202 0.950 . S
C3207 C3209 1.327 . S
C3207 C3213 1.429 . S
C3208 C3200 1.574 . S
C3208 H3203 0.949 . S
C3208 C3214 1.368 . S
C3209 C3193 1.349 . S
C3209 H3201 0.950 . S
C3209 C3207 1.327 . S
C3210 C3198 1.349 . S
C3210 H3204 0.950 . S
C3210 C3211 1.327 . S
C3211 H3205 0.950 . S
C3211 C3210 1.327 . S
C3211 C3215 1.429 . S
C3212 C3195 1.574 . S
C3212 H3206 0.949 . S
C3212 C3216 1.368 . S
C3213 C3194 1.429 . S
C3213 C3207 1.429 . S
C3213 C3214 1.523 . S
C3214 C3195 1.368 . S
C3214 C3208 1.368 . S
C3214 C3213 1.523 . S
C3215 C3199 1.429 . S
C3215 C3211 1.429 . S
C3215 C3216 1.523 . S
C3216 C3200 1.368 . S
C3216 C3212 1.368 . S
C3216 C3215 1.523 . S
H3217 C3192 0.950 . S
H3218 C3194 0.950 . S
H3219 C3195 0.949 . S
H3220 C3197 0.950 . S
H3221 C3199 0.950 . S
C3222 C3223 1.349 . S
C3222 C3224 1.327 . S
C3222 H3247 0.950 . S
C3223 C3222 1.349 . S
C3223 C3239 1.349 . S
C3224 C3222 1.327 . S
C3224 C3243 1.429 . S
C3224 H3248 0.950 . S
C3225 C3242 1.574 . S
C3225 C3244 1.368 . S
C3225 H3249 0.949 . S
H3226 C3230 0.949 . S
C3227 C3228 1.349 . S
C3227 C3229 1.327 . S
C3227 H3250 0.950 . S
C3228 C3227 1.349 . S
C3228 C3240 1.349 . S
C3229 C3227 1.327 . S
C3229 C3245 1.429 . S
C3229 H3251 0.950 . S
C3230 H3226 0.949 . S
C3230 C3238 1.574 . S
C3230 C3246 1.368 . S
H3231 C3239 0.950 . S
H3232 C3237 0.950 . S
H3233 C3238 0.949 . S
H3234 C3240 0.950 . S
H3235 C3241 0.950 . S
H3236 C3242 0.949 . S
C3237 H3232 0.950 . S
C3237 C3239 1.327 . S
C3237 C3243 1.429 . S
C3238 C3230 1.574 . S
C3238 H3233 0.949 . S
C3238 C3244 1.368 . S
C3239 C3223 1.349 . S
C3239 H3231 0.950 . S
C3239 C3237 1.327 . S
C3240 C3228 1.349 . S
C3240 H3234 0.950 . S
C3240 C3241 1.327 . S
C3241 H3235 0.950 . S
C3241 C3240 1.327 . S
C3241 C3245 1.429 . S
C3242 C3225 1.574 . S
C3242 H3236 0.949 . S
C3242 C3246 1.368 . S
C3243 C3224 1.429 . S
C3243 C3237 1.429 . S
C3243 C3244 1.523 . S
C3244 C3225 1.368 . S
C3244 C3238 1.368 . S
C3244 C3243 1.523 . S
C3245 C3229 1.429 . S
C3245 C3241 1.429 . S
C3245 C3246 1.523 . S
C3246 C3230 1.368 . S
C3246 C3242 1.368 . S
C3246 C3245 1.523 . S
H3247 C3222 0.950 . S
H3248 C3224 0.950 . S
H3249 C3225 0.949 . S
H3250 C3227 0.950 . S
H3251 C3229 0.950 . S
C3252 C3253 1.349 . S
C3252 C3254 1.327 . S
C3252 H3277 0.950 . S
C3253 C3252 1.349 . S
C3253 C3269 1.349 . S
C3254 C3252 1.327 . S
C3254 C3273 1.429 . S
C3254 H3278 0.950 . S
C3255 C3272 1.574 . S
C3255 C3274 1.368 . S
C3255 H3279 0.949 . S
H3256 C3260 0.949 . S
C3257 C3258 1.349 . S
C3257 C3259 1.327 . S
C3257 H3280 0.950 . S
C3258 C3257 1.349 . S
C3258 C3270 1.349 . S
C3259 C3257 1.327 . S
C3259 C3275 1.429 . S
C3259 H3281 0.950 . S
C3260 H3256 0.949 . S
C3260 C3268 1.574 . S
C3260 C3276 1.368 . S
H3261 C3269 0.950 . S
H3262 C3267 0.950 . S
H3263 C3268 0.949 . S
H3264 C3270 0.950 . S
H3265 C3271 0.950 . S
H3266 C3272 0.949 . S
C3267 H3262 0.950 . S
C3267 C3269 1.327 . S
C3267 C3273 1.429 . S
C3268 C3260 1.574 . S
C3268 H3263 0.949 . S
C3268 C3274 1.368 . S
C3269 C3253 1.349 . S
C3269 H3261 0.950 . S
C3269 C3267 1.327 . S
C3270 C3258 1.349 . S
C3270 H3264 0.950 . S
C3270 C3271 1.327 . S
C3271 H3265 0.950 . S
C3271 C3270 1.327 . S
C3271 C3275 1.429 . S
C3272 C3255 1.574 . S
C3272 H3266 0.949 . S
C3272 C3276 1.368 . S
C3273 C3254 1.429 . S
C3273 C3267 1.429 . S
C3273 C3274 1.523 . S
C3274 C3255 1.368 . S
C3274 C3268 1.368 . S
C3274 C3273 1.523 . S
C3275 C3259 1.429 . S
C3275 C3271 1.429 . S
C3275 C3276 1.523 . S
C3276 C3260 1.368 . S
C3276 C3272 1.368 . S
C3276 C3275 1.523 . S
H3277 C3252 0.950 . S
H3278 C3254 0.950 . S
H3279 C3255 0.949 . S
H3280 C3257 0.950 . S
H3281 C3259 0.950 . S
C3282 C3283 1.349 . S
C3282 C3284 1.327 . S
C3282 H3307 0.950 . S
C3283 C3282 1.349 . S
C3283 C3299 1.349 . S
C3284 C3282 1.327 . S
C3284 C3303 1.429 . S
C3284 H3308 0.950 . S
C3285 C3302 1.574 . S
C3285 C3304 1.368 . S
C3285 H3309 0.949 . S
H3286 C3290 0.949 . S
C3287 C3288 1.349 . S
C3287 C3289 1.327 . S
C3287 H3310 0.950 . S
C3288 C3287 1.349 . S
C3288 C3300 1.349 . S
C3289 C3287 1.327 . S
C3289 C3305 1.429 . S
C3289 H3311 0.950 . S
C3290 H3286 0.949 . S
C3290 C3298 1.574 . S
C3290 C3306 1.368 . S
H3291 C3299 0.950 . S
H3292 C3297 0.950 . S
H3293 C3298 0.949 . S
H3294 C3300 0.950 . S
H3295 C3301 0.950 . S
H3296 C3302 0.949 . S
C3297 H3292 0.950 . S
C3297 C3299 1.327 . S
C3297 C3303 1.429 . S
C3298 C3290 1.574 . S
C3298 H3293 0.949 . S
C3298 C3304 1.368 . S
C3299 C3283 1.349 . S
C3299 H3291 0.950 . S
C3299 C3297 1.327 . S
C3300 C3288 1.349 . S
C3300 H3294 0.950 . S
C3300 C3301 1.327 . S
C3301 H3295 0.950 . S
C3301 C3300 1.327 . S
C3301 C3305 1.429 . S
C3302 C3285 1.574 . S
C3302 H3296 0.949 . S
C3302 C3306 1.368 . S
C3303 C3284 1.429 . S
C3303 C3297 1.429 . S
C3303 C3304 1.523 . S
C3304 C3285 1.368 . S
C3304 C3298 1.368 . S
C3304 C3303 1.523 . S
C3305 C3289 1.429 . S
C3305 C3301 1.429 . S
C3305 C3306 1.523 . S
C3306 C3290 1.368 . S
C3306 C3302 1.368 . S
C3306 C3305 1.523 . S
H3307 C3282 0.950 . S
H3308 C3284 0.950 . S
H3309 C3285 0.949 . S
H3310 C3287 0.950 . S
H3311 C3289 0.950 . S
C3312 C3313 1.349 . S
C3312 C3314 1.327 . S
C3312 H3337 0.950 . S
C3313 C3312 1.349 . S
C3313 C3329 1.349 . S
C3314 C3312 1.327 . S
C3314 C3333 1.429 . S
C3314 H3338 0.950 . S
C3315 C3332 1.574 . S
C3315 C3334 1.368 1_565 S
C3315 H3339 0.949 . S
H3316 C3320 0.949 . S
C3317 C3318 1.349 1_565 S
C3317 C3319 1.327 . S
C3317 H3340 0.950 . S
C3318 C3317 1.349 1_545 S
C3318 C3330 1.349 . S
C3319 C3317 1.327 . S
C3319 C3335 1.429 1_565 S
C3319 H3341 0.950 . S
C3320 H3316 0.949 . S
C3320 C3328 1.574 . S
C3320 C3336 1.368 . S
H3321 C3329 0.950 1_565 S
H3322 C3327 0.950 1_565 S
H3323 C3328 0.949 . S
H3324 C3330 0.950 . S
H3325 C3331 0.950 . S
H3326 C3332 0.949 . S
C3327 H3322 0.950 1_545 S
C3327 C3329 1.327 . S
C3327 C3333 1.429 . S
C3328 C3320 1.574 . S
C3328 H3323 0.949 . S
C3328 C3334 1.368 . S
C3329 C3313 1.349 . S
C3329 H3321 0.950 1_545 S
C3329 C3327 1.327 . S
C3330 C3318 1.349 . S
C3330 H3324 0.950 . S
C3330 C3331 1.327 . S
C3331 H3325 0.950 . S
C3331 C3330 1.327 . S
C3331 C3335 1.429 . S
C3332 C3315 1.574 . S
C3332 H3326 0.949 . S
C3332 C3336 1.368 1_565 S
C3333 C3314 1.429 . S
C3333 C3327 1.429 . S
C3333 C3334 1.523 . S
C3334 C3315 1.368 1_545 S
C3334 C3328 1.368 . S
C3334 C3333 1.523 . S
C3335 C3319 1.429 1_545 S
C3335 C3331 1.429 . S
C3335 C3336 1.523 . S
C3336 C3320 1.368 . S
C3336 C3332 1.368 1_545 S
C3336 C3335 1.523 . S
H3337 C3312 0.950 . S
H3338 C3314 0.950 . S
H3339 C3315 0.949 . S
H3340 C3317 0.950 . S
H3341 C3319 0.950 . S
C3342 C3343 1.349 . S
C3342 C3344 1.327 . S
C3342 H3367 0.950 . S
C3343 C3342 1.349 . S
C3343 C3359 1.349 . S
C3344 C3342 1.327 . S
C3344 C3363 1.429 . S
C3344 H3368 0.950 . S
C3345 C3362 1.574 . S
C3345 C3364 1.368 . S
C3345 H3369 0.949 . S
H3346 C3350 0.949 . S
C3347 C3348 1.349 . S
C3347 C3349 1.327 . S
C3347 H3370 0.950 . S
C3348 C3347 1.349 . S
C3348 C3360 1.349 . S
C3349 C3347 1.327 . S
C3349 C3365 1.429 . S
C3349 H3371 0.950 . S
C3350 H3346 0.949 . S
C3350 C3358 1.574 . S
C3350 C3366 1.368 . S
H3351 C3359 0.950 . S
H3352 C3357 0.950 . S
H3353 C3358 0.949 . S
H3354 C3360 0.950 . S
H3355 C3361 0.950 . S
H3356 C3362 0.949 . S
C3357 H3352 0.950 . S
C3357 C3359 1.327 . S
C3357 C3363 1.429 . S
C3358 C3350 1.574 . S
C3358 H3353 0.949 . S
C3358 C3364 1.368 . S
C3359 C3343 1.349 . S
C3359 H3351 0.950 . S
C3359 C3357 1.327 . S
C3360 C3348 1.349 . S
C3360 H3354 0.950 . S
C3360 C3361 1.327 . S
C3361 H3355 0.950 . S
C3361 C3360 1.327 . S
C3361 C3365 1.429 . S
C3362 C3345 1.574 . S
C3362 H3356 0.949 . S
C3362 C3366 1.368 . S
C3363 C3344 1.429 . S
C3363 C3357 1.429 . S
C3363 C3364 1.523 . S
C3364 C3345 1.368 . S
C3364 C3358 1.368 . S
C3364 C3363 1.523 . S
C3365 C3349 1.429 . S
C3365 C3361 1.429 . S
C3365 C3366 1.523 . S
C3366 C3350 1.368 . S
C3366 C3362 1.368 . S
C3366 C3365 1.523 . S
H3367 C3342 0.950 . S
H3368 C3344 0.950 . S
H3369 C3345 0.949 . S
H3370 C3347 0.950 . S
H3371 C3349 0.950 . S
C3372 C3373 1.349 . S
C3372 C3374 1.327 . S
C3372 H3397 0.950 . S
C3373 C3372 1.349 . S
C3373 C3389 1.349 . S
C3374 C3372 1.327 . S
C3374 C3393 1.429 . S
C3374 H3398 0.950 . S
C3375 C3392 1.574 . S
C3375 C3394 1.368 . S
C3375 H3399 0.949 . S
H3376 C3380 0.949 . S
C3377 C3378 1.349 . S
C3377 C3379 1.327 . S
C3377 H3400 0.950 . S
C3378 C3377 1.349 . S
C3378 C3390 1.349 . S
C3379 C3377 1.327 . S
C3379 C3395 1.429 . S
C3379 H3401 0.950 . S
C3380 H3376 0.949 . S
C3380 C3388 1.574 . S
C3380 C3396 1.368 . S
H3381 C3389 0.950 . S
H3382 C3387 0.950 . S
H3383 C3388 0.949 . S
H3384 C3390 0.950 . S
H3385 C3391 0.950 . S
H3386 C3392 0.949 . S
C3387 H3382 0.950 . S
C3387 C3389 1.327 . S
C3387 C3393 1.429 . S
C3388 C3380 1.574 . S
C3388 H3383 0.949 . S
C3388 C3394 1.368 . S
C3389 C3373 1.349 . S
C3389 H3381 0.950 . S
C3389 C3387 1.327 . S
C3390 C3378 1.349 . S
C3390 H3384 0.950 . S
C3390 C3391 1.327 . S
C3391 H3385 0.950 . S
C3391 C3390 1.327 . S
C3391 C3395 1.429 . S
C3392 C3375 1.574 . S
C3392 H3386 0.949 . S
C3392 C3396 1.368 . S
C3393 C3374 1.429 . S
C3393 C3387 1.429 . S
C3393 C3394 1.523 . S
C3394 C3375 1.368 . S
C3394 C3388 1.368 . S
C3394 C3393 1.523 . S
C3395 C3379 1.429 . S
C3395 C3391 1.429 . S
C3395 C3396 1.523 . S
C3396 C3380 1.368 . S
C3396 C3392 1.368 . S
C3396 C3395 1.523 . S
H3397 C3372 0.950 . S
H3398 C3374 0.950 . S
H3399 C3375 0.949 . S
H3400 C3377 0.950 . S
H3401 C3379 0.950 . S
C3402 C3403 1.349 . S
C3402 C3404 1.327 . S
C3402 H3427 0.950 . S
C3403 C3402 1.349 . S
C3403 C3419 1.349 . S
C3404 C3402 1.327 . S
C3404 C3423 1.429 . S
C3404 H3428 0.950 . S
C3405 C3422 1.574 . S
C3405 C3424 1.368 . S
C3405 H3429 0.949 . S
H3406 C3410 0.949 . S
C3407 C3408 1.349 . S
C3407 C3409 1.327 . S
C3407 H3430 0.950 . S
C3408 C3407 1.349 . S
C3408 C3420 1.349 . S
C3409 C3407 1.327 . S
C3409 C3425 1.429 . S
C3409 H3431 0.950 . S
C3410 H3406 0.949 . S
C3410 C3418 1.574 . S
C3410 C3426 1.368 . S
H3411 C3419 0.950 . S
H3412 C3417 0.950 . S
H3413 C3418 0.949 . S
H3414 C3420 0.950 . S
H3415 C3421 0.950 . S
H3416 C3422 0.949 . S
C3417 H3412 0.950 . S
C3417 C3419 1.327 . S
C3417 C3423 1.429 . S
C3418 C3410 1.574 . S
C3418 H3413 0.949 . S
C3418 C3424 1.368 . S
C3419 C3403 1.349 . S
C3419 H3411 0.950 . S
C3419 C3417 1.327 . S
C3420 C3408 1.349 . S
C3420 H3414 0.950 . S
C3420 C3421 1.327 . S
C3421 H3415 0.950 . S
C3421 C3420 1.327 . S
C3421 C3425 1.429 . S
C3422 C3405 1.574 . S
C3422 H3416 0.949 . S
C3422 C3426 1.368 . S
C3423 C3404 1.429 . S
C3423 C3417 1.429 . S
C3423 C3424 1.523 . S
C3424 C3405 1.368 . S
C3424 C3418 1.368 . S
C3424 C3423 1.523 . S
C3425 C3409 1.429 . S
C3425 C3421 1.429 . S
C3425 C3426 1.523 . S
C3426 C3410 1.368 . S
C3426 C3422 1.368 . S
C3426 C3425 1.523 . S
H3427 C3402 0.950 . S
H3428 C3404 0.950 . S
H3429 C3405 0.949 . S
H3430 C3407 0.950 . S
H3431 C3409 0.950 . S
C3432 C3433 1.349 . S
C3432 C3434 1.327 . S
C3432 H3457 0.950 . S
C3433 C3432 1.349 . S
C3433 C3449 1.349 . S
C3434 C3432 1.327 . S
C3434 C3453 1.429 . S
C3434 H3458 0.950 . S
C3435 C3452 1.574 . S
C3435 C3454 1.368 . S
C3435 H3459 0.949 . S
H3436 C3440 0.949 . S
C3437 C3438 1.349 . S
C3437 C3439 1.327 . S
C3437 H3460 0.950 . S
C3438 C3437 1.349 . S
C3438 C3450 1.349 . S
C3439 C3437 1.327 . S
C3439 C3455 1.429 . S
C3439 H3461 0.950 . S
C3440 H3436 0.949 . S
C3440 C3448 1.574 . S
C3440 C3456 1.368 . S
H3441 C3449 0.950 . S
H3442 C3447 0.950 . S
H3443 C3448 0.949 . S
H3444 C3450 0.950 . S
H3445 C3451 0.950 . S
H3446 C3452 0.949 . S
C3447 H3442 0.950 . S
C3447 C3449 1.327 . S
C3447 C3453 1.429 . S
C3448 C3440 1.574 . S
C3448 H3443 0.949 . S
C3448 C3454 1.368 . S
C3449 C3433 1.349 . S
C3449 H3441 0.950 . S
C3449 C3447 1.327 . S
C3450 C3438 1.349 . S
C3450 H3444 0.950 . S
C3450 C3451 1.327 . S
C3451 H3445 0.950 . S
C3451 C3450 1.327 . S
C3451 C3455 1.429 . S
C3452 C3435 1.574 . S
C3452 H3446 0.949 . S
C3452 C3456 1.368 . S
C3453 C3434 1.429 . S
C3453 C3447 1.429 . S
C3453 C3454 1.523 . S
C3454 C3435 1.368 . S
C3454 C3448 1.368 . S
C3454 C3453 1.523 . S
C3455 C3439 1.429 . S
C3455 C3451 1.429 . S
C3455 C3456 1.523 . S
C3456 C3440 1.368 . S
C3456 C3452 1.368 . S
C3456 C3455 1.523 . S
H3457 C3432 0.950 . S
H3458 C3434 0.950 . S
H3459 C3435 0.949 . S
H3460 C3437 0.950 . S
H3461 C3439 0.950 . S
C3462 C3463 1.349 . S
C3462 C3464 1.327 . S
C3462 H3487 0.950 . S
C3463 C3462 1.349 . S
C3463 C3479 1.349 . S
C3464 C3462 1.327 . S
C3464 C3483 1.429 . S
C3464 H3488 0.950 . S
C3465 C3482 1.574 . S
C3465 C3484 1.368 . S
C3465 H3489 0.949 . S
H3466 C3470 0.949 . S
C3467 C3468 1.349 . S
C3467 C3469 1.327 . S
C3467 H3490 0.950 . S
C3468 C3467 1.349 . S
C3468 C3480 1.349 . S
C3469 C3467 1.327 . S
C3469 C3485 1.429 . S
C3469 H3491 0.950 . S
C3470 H3466 0.949 . S
C3470 C3478 1.574 . S
C3470 C3486 1.368 . S
H3471 C3479 0.950 . S
H3472 C3477 0.950 . S
H3473 C3478 0.949 . S
H3474 C3480 0.950 . S
H3475 C3481 0.950 . S
H3476 C3482 0.949 . S
C3477 H3472 0.950 . S
C3477 C3479 1.327 . S
C3477 C3483 1.429 . S
C3478 C3470 1.574 . S
C3478 H3473 0.949 . S
C3478 C3484 1.368 . S
C3479 C3463 1.349 . S
C3479 H3471 0.950 . S
C3479 C3477 1.327 . S
C3480 C3468 1.349 . S
C3480 H3474 0.950 . S
C3480 C3481 1.327 . S
C3481 H3475 0.950 . S
C3481 C3480 1.327 . S
C3481 C3485 1.429 . S
C3482 C3465 1.574 . S
C3482 H3476 0.949 . S
C3482 C3486 1.368 . S
C3483 C3464 1.429 . S
C3483 C3477 1.429 . S
C3483 C3484 1.523 . S
C3484 C3465 1.368 . S
C3484 C3478 1.368 . S
C3484 C3483 1.523 . S
C3485 C3469 1.429 . S
C3485 C3481 1.429 . S
C3485 C3486 1.523 . S
C3486 C3470 1.368 . S
C3486 C3482 1.368 . S
C3486 C3485 1.523 . S
H3487 C3462 0.950 . S
H3488 C3464 0.950 . S
H3489 C3465 0.949 . S
H3490 C3467 0.950 . S
H3491 C3469 0.950 . S
C3492 C3493 1.349 . S
C3492 C3494 1.327 . S
C3492 H3517 0.950 . S
C3493 C3492 1.349 . S
C3493 C3509 1.349 . S
C3494 C3492 1.327 . S
C3494 C3513 1.429 . S
C3494 H3518 0.950 . S
C3495 C3512 1.574 . S
C3495 C3514 1.368 . S
C3495 H3519 0.949 . S
H3496 C3500 0.949 . S
C3497 C3498 1.349 . S
C3497 C3499 1.327 . S
C3497 H3520 0.950 . S
C3498 C3497 1.349 . S
C3498 C3510 1.349 . S
C3499 C3497 1.327 . S
C3499 C3515 1.429 . S
C3499 H3521 0.950 . S
C3500 H3496 0.949 . S
C3500 C3508 1.574 . S
C3500 C3516 1.368 . S
H3501 C3509 0.950 . S
H3502 C3507 0.950 . S
H3503 C3508 0.949 . S
H3504 C3510 0.950 . S
H3505 C3511 0.950 . S
H3506 C3512 0.949 . S
C3507 H3502 0.950 . S
C3507 C3509 1.327 . S
C3507 C3513 1.429 . S
C3508 C3500 1.574 . S
C3508 H3503 0.949 . S
C3508 C3514 1.368 . S
C3509 C3493 1.349 . S
C3509 H3501 0.950 . S
C3509 C3507 1.327 . S
C3510 C3498 1.349 . S
C3510 H3504 0.950 . S
C3510 C3511 1.327 . S
C3511 H3505 0.950 . S
C3511 C3510 1.327 . S
C3511 C3515 1.429 . S
C3512 C3495 1.574 . S
C3512 H3506 0.949 . S
C3512 C3516 1.368 . S
C3513 C3494 1.429 . S
C3513 C3507 1.429 . S
C3513 C3514 1.523 . S
C3514 C3495 1.368 . S
C3514 C3508 1.368 . S
C3514 C3513 1.523 . S
C3515 C3499 1.429 . S
C3515 C3511 1.429 . S
C3515 C3516 1.523 . S
C3516 C3500 1.368 . S
C3516 C3512 1.368 . S
C3516 C3515 1.523 . S
H3517 C3492 0.950 . S
H3518 C3494 0.950 . S
H3519 C3495 0.949 . S
H3520 C3497 0.950 . S
H3521 C3499 0.950 . S
C3522 C3523 1.349 . S
C3522 C3524 1.327 . S
C3522 H3547 0.950 . S
C3523 C3522 1.349 . S
C3523 C3539 1.349 . S
C3524 C3522 1.327 . S
C3524 C3543 1.429 . S
C3524 H3548 0.950 . S
C3525 C3542 1.574 . S
C3525 C3544 1.368 . S
C3525 H3549 0.949 . S
H3526 C3530 0.949 . S
C3527 C3528 1.349 . S
C3527 C3529 1.327 . S
C3527 H3550 0.950 . S
C3528 C3527 1.349 . S
C3528 C3540 1.349 . S
C3529 C3527 1.327 . S
C3529 C3545 1.429 . S
C3529 H3551 0.950 . S
C3530 H3526 0.949 . S
C3530 C3538 1.574 . S
C3530 C3546 1.368 . S
H3531 C3539 0.950 . S
H3532 C3537 0.950 . S
H3533 C3538 0.949 . S
H3534 C3540 0.950 . S
H3535 C3541 0.950 . S
H3536 C3542 0.949 . S
C3537 H3532 0.950 . S
C3537 C3539 1.327 . S
C3537 C3543 1.429 . S
C3538 C3530 1.574 . S
C3538 H3533 0.949 . S
C3538 C3544 1.368 . S
C3539 C3523 1.349 . S
C3539 H3531 0.950 . S
C3539 C3537 1.327 . S
C3540 C3528 1.349 . S
C3540 H3534 0.950 . S
C3540 C3541 1.327 . S
C3541 H3535 0.950 . S
C3541 C3540 1.327 . S
C3541 C3545 1.429 . S
C3542 C3525 1.574 . S
C3542 H3536 0.949 . S
C3542 C3546 1.368 . S
C3543 C3524 1.429 . S
C3543 C3537 1.429 . S
C3543 C3544 1.523 . S
C3544 C3525 1.368 . S
C3544 C3538 1.368 . S
C3544 C3543 1.523 . S
C3545 C3529 1.429 . S
C3545 C3541 1.429 . S
C3545 C3546 1.523 . S
C3546 C3530 1.368 . S
C3546 C3542 1.368 . S
C3546 C3545 1.523 . S
H3547 C3522 0.950 . S
H3548 C3524 0.950 . S
H3549 C3525 0.949 . S
H3550 C3527 0.950 . S
H3551 C3529 0.950 . S
C3552 C3553 1.349 . S
C3552 C3554 1.327 . S
C3552 H3577 0.950 . S
C3553 C3552 1.349 . S
C3553 C3569 1.349 . S
C3554 C3552 1.327 . S
C3554 C3573 1.429 . S
C3554 H3578 0.950 . S
C3555 C3572 1.574 . S
C3555 C3574 1.368 . S
C3555 H3579 0.949 . S
H3556 C3560 0.949 . S
C3557 C3558 1.349 . S
C3557 C3559 1.327 . S
C3557 H3580 0.950 . S
C3558 C3557 1.349 . S
C3558 C3570 1.349 . S
C3559 C3557 1.327 . S
C3559 C3575 1.429 . S
C3559 H3581 0.950 . S
C3560 H3556 0.949 . S
C3560 C3568 1.574 . S
C3560 C3576 1.368 . S
H3561 C3569 0.950 . S
H3562 C3567 0.950 . S
H3563 C3568 0.949 . S
H3564 C3570 0.950 . S
H3565 C3571 0.950 . S
H3566 C3572 0.949 . S
C3567 H3562 0.950 . S
C3567 C3569 1.327 . S
C3567 C3573 1.429 . S
C3568 C3560 1.574 . S
C3568 H3563 0.949 . S
C3568 C3574 1.368 . S
C3569 C3553 1.349 . S
C3569 H3561 0.950 . S
C3569 C3567 1.327 . S
C3570 C3558 1.349 . S
C3570 H3564 0.950 . S
C3570 C3571 1.327 . S
C3571 H3565 0.950 . S
C3571 C3570 1.327 . S
C3571 C3575 1.429 . S
C3572 C3555 1.574 . S
C3572 H3566 0.949 . S
C3572 C3576 1.368 . S
C3573 C3554 1.429 . S
C3573 C3567 1.429 . S
C3573 C3574 1.523 . S
C3574 C3555 1.368 . S
C3574 C3568 1.368 . S
C3574 C3573 1.523 . S
C3575 C3559 1.429 . S
C3575 C3571 1.429 . S
C3575 C3576 1.523 . S
C3576 C3560 1.368 . S
C3576 C3572 1.368 . S
C3576 C3575 1.523 . S
H3577 C3552 0.950 . S
H3578 C3554 0.950 . S
H3579 C3555 0.949 . S
H3580 C3557 0.950 . S
H3581 C3559 0.950 . S
C3582 C3583 1.349 . S
C3582 C3584 1.327 . S
C3582 H3607 0.950 . S
C3583 C3582 1.349 . S
C3583 C3599 1.338 1_655 S
C3584 C3582 1.327 . S
C3584 C3603 1.429 . S
C3584 H3608 0.950 . S
C3585 C3602 1.574 . S
C3585 C3604 1.368 1_455 S
C3585 H3609 0.949 . S
H3586 C3590 0.949 . S
C3587 C3588 1.349 1_455 S
C3587 C3589 1.327 . S
C3587 H3610 0.950 . S
C3588 C3587 1.349 1_655 S
C3588 C3600 1.349 . S
C3589 C3587 1.327 . S
C3589 C3605 1.429 1_455 S
C3589 H3611 0.950 . S
C3590 H3586 0.949 . S
C3590 C3598 1.574 . S
C3590 C3606 1.368 . S
H3591 C3599 0.955 . S
H3592 C3597 0.950 . S
H3593 C3598 0.949 . S
H3594 C3600 0.950 . S
H3595 C3601 0.950 . S
H3596 C3602 0.949 . S
C3597 H3592 0.950 . S
C3597 C3599 1.333 . S
C3597 C3603 1.429 1_455 S
C3598 C3590 1.574 . S
C3598 H3593 0.949 . S
C3598 C3604 1.368 . S
C3599 C3583 1.338 1_455 S
C3599 H3591 0.955 . S
C3599 C3597 1.333 . S
C3600 C3588 1.349 . S
C3600 H3594 0.950 . S
C3600 C3601 1.327 . S
C3601 H3595 0.950 . S
C3601 C3600 1.327 . S
C3601 C3605 1.429 . S
C3602 C3585 1.574 . S
C3602 H3596 0.949 . S
C3602 C3606 1.368 1_455 S
C3603 C3584 1.429 . S
C3603 C3597 1.429 1_655 S
C3603 C3604 1.523 . S
C3604 C3585 1.368 1_655 S
C3604 C3598 1.368 . S
C3604 C3603 1.523 . S
C3605 C3589 1.429 1_655 S
C3605 C3601 1.429 . S
C3605 C3606 1.523 . S
C3606 C3590 1.368 . S
C3606 C3602 1.368 1_655 S
C3606 C3605 1.523 . S
H3607 C3582 0.950 . S
H3608 C3584 0.950 . S
H3609 C3585 0.949 . S
H3610 C3587 0.950 . S
H3611 C3589 0.950 . S
C3612 C3613 1.349 . S
C3612 C3614 1.327 . S
C3612 H3637 0.950 . S
C3613 C3612 1.349 . S
C3613 C3629 1.349 . S
C3614 C3612 1.327 . S
C3614 C3633 1.429 . S
C3614 H3638 0.950 . S
C3615 C3632 1.574 . S
C3615 C3634 1.368 . S
C3615 H3639 0.949 . S
H3616 C3620 0.949 . S
C3617 C3618 1.349 . S
C3617 C3619 1.327 . S
C3617 H3640 0.950 . S
C3618 C3617 1.349 . S
C3618 C3630 1.349 . S
C3619 C3617 1.327 . S
C3619 C3635 1.429 . S
C3619 H3641 0.950 . S
C3620 H3616 0.949 . S
C3620 C3628 1.574 . S
C3620 C3636 1.368 . S
H3621 C3629 0.950 . S
H3622 C3627 0.950 . S
H3623 C3628 0.949 . S
H3624 C3630 0.950 . S
H3625 C3631 0.950 . S
H3626 C3632 0.949 . S
C3627 H3622 0.950 . S
C3627 C3629 1.327 . S
C3627 C3633 1.429 . S
C3628 C3620 1.574 . S
C3628 H3623 0.949 . S
C3628 C3634 1.368 . S
C3629 C3613 1.349 . S
C3629 H3621 0.950 . S
C3629 C3627 1.327 . S
C3630 C3618 1.349 . S
C3630 H3624 0.950 . S
C3630 C3631 1.327 . S
C3631 H3625 0.950 . S
C3631 C3630 1.327 . S
C3631 C3635 1.429 . S
C3632 C3615 1.574 . S
C3632 H3626 0.949 . S
C3632 C3636 1.368 . S
C3633 C3614 1.429 . S
C3633 C3627 1.429 . S
C3633 C3634 1.523 . S
C3634 C3615 1.368 . S
C3634 C3628 1.368 . S
C3634 C3633 1.523 . S
C3635 C3619 1.429 . S
C3635 C3631 1.429 . S
C3635 C3636 1.523 . S
C3636 C3620 1.368 . S
C3636 C3632 1.368 . S
C3636 C3635 1.523 . S
H3637 C3612 0.950 . S
H3638 C3614 0.950 . S
H3639 C3615 0.949 . S
H3640 C3617 0.950 . S
H3641 C3619 0.950 . S
C3642 C3643 1.349 . S
C3642 C3644 1.327 . S
C3642 H3667 0.950 . S
C3643 C3642 1.349 . S
C3643 C3659 1.349 . S
C3644 C3642 1.327 . S
C3644 C3663 1.429 . S
C3644 H3668 0.950 . S
C3645 C3662 1.574 . S
C3645 C3664 1.368 . S
C3645 H3669 0.949 . S
H3646 C3650 0.949 . S
C3647 C3648 1.349 . S
C3647 C3649 1.327 . S
C3647 H3670 0.941 1_545 S
C3648 C3647 1.349 . S
C3648 C3660 1.349 . S
C3649 C3647 1.327 . S
C3649 C3665 1.429 . S
C3649 H3671 0.990 . S
C3650 H3646 0.949 . S
C3650 C3658 1.574 . S
C3650 C3666 1.368 . S
H3651 C3659 0.950 . S
H3652 C3657 0.950 . S
H3653 C3658 0.949 . S
H3654 C3660 0.950 . S
H3655 C3661 0.950 . S
H3656 C3662 0.949 . S
C3657 H3652 0.950 . S
C3657 C3659 1.327 . S
C3657 C3663 1.429 . S
C3658 C3650 1.574 . S
C3658 H3653 0.949 . S
C3658 C3664 1.368 . S
C3659 C3643 1.349 . S
C3659 H3651 0.950 . S
C3659 C3657 1.327 . S
C3660 C3648 1.349 . S
C3660 H3654 0.950 . S
C3660 C3661 1.327 . S
C3661 H3655 0.950 . S
C3661 C3660 1.327 . S
C3661 C3665 1.429 . S
C3662 C3645 1.574 . S
C3662 H3656 0.949 . S
C3662 C3666 1.368 . S
C3663 C3644 1.429 . S
C3663 C3657 1.429 . S
C3663 C3664 1.523 . S
C3664 C3645 1.368 . S
C3664 C3658 1.368 . S
C3664 C3663 1.523 . S
C3665 C3649 1.429 . S
C3665 C3661 1.429 . S
C3665 C3666 1.523 . S
C3666 C3650 1.368 . S
C3666 C3662 1.368 . S
C3666 C3665 1.523 . S
H3667 C3642 0.950 . S
H3668 C3644 0.950 . S
H3669 C3645 0.949 . S
H3670 C3647 0.941 1_565 S
H3671 C3649 0.990 . S
C1513 C4 1.444 . S
C1518 C1125 1.445 . S
C1543 C38 1.700 . S
C1548 C1173 1.713 . S
C1578 C1221 1.455 . S
C1573 C74 1.434 . S
C1603 C76 1.415 . S
C1608 C1245 1.439 . S
C1633 C2 1.532 . S
C1638 C1317 1.566 . S
C1663 C40 1.530 . S
C1668 C1365 1.536 . S
C1693 C110 1.491 . S
C1698 C1293 1.521 . S
C1728 C1341 1.538 . S
C1723 C148 1.533 . S
C1758 C1269 1.554 . S
C1753 C182 1.508 1_565 S
C1783 C184 1.470 . S
C1788 C1197 1.496 . S
C1818 C1101 1.444 . S
C1813 C112 1.423 . S
C1843 C146 1.636 . S
C1848 C1149 1.648 . S
C1873 C220 1.642 . S
C1878 C1413 1.646 . S
C1903 C254 1.786 . S
C1908 C1461 1.790 . S
C1938 C1485 1.629 . S
C1933 C290 1.640 . S
C1963 C292 1.529 . S
C1968 C669 1.526 . S
C1993 C218 1.693 . S
C1998 C741 1.705 . S
C2023 C256 1.563 . S
C2028 C789 1.565 . S
C2053 C326 1.664 . S
C2058 C717 1.673 . S
C2083 C364 1.599 . S
C2088 C765 1.599 . S
C2118 C693 1.666 . S
C2113 C398 1.692 . S
C2148 C1509 1.651 . S
C2143 C400 1.673 . S
C2178 C1389 1.519 . S
C2173 C328 1.515 . S
C2208 C1437 1.726 . S
C2203 C362 1.723 . S
C2233 C436 1.553 . S
C2238 C837 1.558 . S
C2263 C470 1.754 . S
C2268 C885 1.762 . S
C2293 C506 1.644 . S
C2298 C909 1.637 . S
C2323 C508 1.617 . S
C2328 C957 1.613 . S
C2358 C1029 1.695 . S
C2353 C434 1.687 . S
C2388 C1077 1.595 . S
C2383 C472 1.595 . S
C2418 C1005 1.774 . S
C2413 C542 1.766 . S
C2448 C1053 1.618 . S
C2443 C580 1.620 . S
C2473 C614 1.673 . S
C2478 C981 1.642 . S
C2508 C933 1.551 . S
C2503 C616 1.571 . S
C2533 C544 1.532 . S
C2538 C813 1.538 . S
C2568 C861 1.684 . S
C2563 C578 1.677 . S
C2598 C678 1.612 . S
C2593 C14 1.575 . S
C2623 C39 1.516 . S
C2628 C732 1.493 . S
C2658 C780 1.510 . S
C2653 C75 1.538 . S
C2688 C828 1.427 . S
C2683 C86 1.404 . S
C2718 C876 1.564 . S
C2713 C3 1.588 . S
C2748 C918 1.511 . S
C2743 C50 1.478 . S
C2773 C111 1.580 . S
C2778 C924 1.576 . S
C2803 C158 1.422 . S
C2808 C822 1.420 . S
C2833 C183 1.665 . S
C2838 C870 1.624 . S
C2863 C194 1.560 . S
C2868 C726 1.567 . S
C2898 C774 1.456 . S
C2893 C122 1.459 . S
C2923 C147 1.428 . S
C2928 C684 1.419 . S
C2958 C966 1.568 . S
C2953 C230 1.533 . S
C2983 C255 1.658 . S
C2988 C1020 1.634 . S
C3013 C291 1.583 . S
C3018 C1068 1.556 . S
C3048 C1116 1.299 . S
C3043 C302 1.243 . S
C3073 C219 1.558 . S
C3078 C1164 1.538 . S
C3103 C266 1.340 . S
C3108 C1212 1.402 . S
C3133 C327 1.319 . S
C3138 C1206 1.309 . S
C3163 C374 1.298 . S
C3168 C1110 1.349 . S
C3198 C1158 1.591 . S
C3193 C399 1.627 . S
C3223 C410 1.532 . S
C3228 C1014 1.539 . S
C3253 C338 1.539 . S
C3258 C1062 1.550 . S
C3288 C972 1.560 . S
C3283 C363 1.570 . S
C3318 C1254 1.448 . S
C3313 C446 1.335 . S
C3343 C471 1.387 . S
C3348 C1308 1.387 . S
C3373 C507 1.492 . S
C3378 C1356 1.469 . S
C3408 C1404 1.411 . S
C3403 C518 1.398 . S
C3438 C1452 1.633 . S
C3433 C435 1.657 . S
C3463 C482 1.598 . S
C3468 C1494 1.645 . S
C3493 C543 1.510 . S
C3498 C1500 1.497 . S
C3523 C590 1.548 . S
C3528 C1398 1.559 . S
C3558 C1446 1.668 . S
C3553 C615 1.708 . S
C3588 C1302 1.398 . S
C3583 C626 1.334 . S
C3618 C1350 1.482 . S
C3613 C554 1.475 . S
C3643 C579 1.330 . S
C3648 C1260 1.331 . S
