# Generated by pormake.
# Topology anh, (6,3)-cn, num edge types: 1
# Building blocks:
#     Node 0, Type 0, BuildingBlock: INOVEN_clean_sbu_0, # of connection points: 6
#     Node 1, Type 0, BuildingBlock: INOVEN_clean_sbu_0, # of connection points: 6
#     Node 2, Type 0, BuildingBlock: INOVEN_clean_sbu_0, # of connection points: 6
#     Node 3, Type 1, BuildingBlock: KAKCAD_clean_linker_0, # of connection points: 3
#     Node 4, Type 1, BuildingBlock: KAKCAD_clean_linker_0, # of connection points: 3
#     Node 5, Type 1, BuildingBlock: KAKCAD_clean_linker_0, # of connection points: 3
#     Node 6, Type 1, BuildingBlock: KAKCAD_clean_linker_0, # of connection points: 3
#     Node 7, Type 1, BuildingBlock: KAKCAD_clean_linker_0, # of connection points: 3
#     Node 8, Type 1, BuildingBlock: KAKCAD_clean_linker_0, # of connection points: 3
#     Edge 9, Type (0, 1), BuildingBlock: EZIPEK_clean_linker_0, # of connection points: 2
#     Edge 10, Type (0, 1), BuildingBlock: EZIPEK_clean_linker_0, # of connection points: 2
#     Edge 11, Type (0, 1), BuildingBlock: EZIPEK_clean_linker_0, # of connection points: 2
#     Edge 12, Type (0, 1), BuildingBlock: EZIPEK_clean_linker_0, # of connection points: 2
#     Edge 13, Type (0, 1), BuildingBlock: EZIPEK_clean_linker_0, # of connection points: 2
#     Edge 14, Type (0, 1), BuildingBlock: EZIPEK_clean_linker_0, # of connection points: 2
#     Edge 15, Type (0, 1), BuildingBlock: EZIPEK_clean_linker_0, # of connection points: 2
#     Edge 16, Type (0, 1), BuildingBlock: EZIPEK_clean_linker_0, # of connection points: 2
#     Edge 17, Type (0, 1), BuildingBlock: EZIPEK_clean_linker_0, # of connection points: 2
#     Edge 18, Type (0, 1), BuildingBlock: EZIPEK_clean_linker_0, # of connection points: 2
#     Edge 19, Type (0, 1), BuildingBlock: EZIPEK_clean_linker_0, # of connection points: 2
#     Edge 20, Type (0, 1), BuildingBlock: EZIPEK_clean_linker_0, # of connection points: 2
#     Edge 21, Type (0, 1), BuildingBlock: EZIPEK_clean_linker_0, # of connection points: 2
#     Edge 22, Type (0, 1), BuildingBlock: EZIPEK_clean_linker_0, # of connection points: 2
#     Edge 23, Type (0, 1), BuildingBlock: EZIPEK_clean_linker_0, # of connection points: 2
#     Edge 24, Type (0, 1), BuildingBlock: EZIPEK_clean_linker_0, # of connection points: 2
#     Edge 25, Type (0, 1), BuildingBlock: EZIPEK_clean_linker_0, # of connection points: 2
#     Edge 26, Type (0, 1), BuildingBlock: EZIPEK_clean_linker_0, # of connection points: 2
# Relax obj value: 0.208
# Max RMSD: 0.228
# Mean RMSD: 0.166
data_MOF--net-anh--node1-INOVEN_clean_sbu_0--node2-KAKCAD_clean_linker_0--edge1-EZIPEK_clean_linker_0
_symmetry_space_group_name_H-M    P1
_symmetry_Int_Tables_number       1
_symmetry_cell_setting            triclinic
loop_
_symmetry_equiv_pos_as_xyz
'x, y, z'
_cell_length_a     30.923762
_cell_length_b     36.018348
_cell_length_c     52.389096
_cell_angle_alpha  92.930423
_cell_angle_beta   89.497926
_cell_angle_gamma 130.73324
loop_
_atom_site_label
_atom_site_type_symbol
_atom_site_fract_x
_atom_site_fract_y
_atom_site_fract_z
_atom_type_partial_charge
Gd0 Gd 0.1021 0.52323 0.14381 0.0
Gd1 Gd 1.03042 0.54791 0.14918 0.0
C2 C 0.16835 0.63904 0.14757 0.0
C3 C 0.15586 0.49318 0.13099 0.0
C4 C 0.21133 0.5096 0.13892 0.0
C5 C 0.22805 0.48384 0.12941 0.0
C6 C 0.24595 0.54877 0.15736 0.0
C7 C 0.3126 0.53484 0.1574 0.0
C8 C 0.2965 0.56133 0.16665 0.0
C9 C 0.27853 0.49648 0.13858 0.0
C10 C 0.09441 0.54317 0.19309 0.0
C11 C 0.96399 0.43401 0.14826 0.0
C12 C 0.97486 0.57242 0.16775 0.0
C13 C 0.92113 0.53971 0.18129 0.0
C14 C 0.87329 0.53204 0.17221 0.0
C15 C 0.91385 0.50757 0.19876 0.0
C16 C 0.8113 0.45587 0.19383 0.0
C17 C 0.8591 0.46605 0.2052 0.0
C18 C 0.81874 0.4903 0.17836 0.0
C19 C 1.03836 0.52652 0.09967 0.0
O20 O 0.17434 0.60583 0.14535 0.0
O21 O 0.11682 0.62511 0.1485 0.0
O22 O 0.11855 0.47436 0.14896 0.0
O23 O 0.15679 0.52333 0.11759 0.0
O24 O 0.14072 0.55625 0.18317 0.0
O25 O 0.05372 0.51847 0.17663 0.0
O26 O 0.96208 0.46804 0.15641 0.0
O27 O 1.01197 0.44708 0.13891 0.0
O28 O 0.97066 0.55927 0.14351 0.0
O29 O 1.02049 0.58506 0.17937 0.0
O30 O 0.99236 0.51479 0.10934 0.0
O31 O 0.07877 0.55182 0.11616 0.0
H32 H 0.20155 0.45341 0.11531 0.0
H33 H 0.23327 0.56888 0.1649 0.0
H34 H 0.3225 0.591 0.18116 0.0
H35 H 0.29069 0.47581 0.1313 0.0
H36 H 0.87784 0.55598 0.15859 0.0
H37 H 0.95006 0.5123 0.20589 0.0
H38 H 0.85402 0.44015 0.21743 0.0
H39 H 0.78212 0.48315 0.16961 0.0
Gd40 Gd 0.61612 0.02667 0.46723 0.0
Gd41 Gd 0.54485 0.05386 0.46509 0.0
C42 C 0.47702 0.93948 0.4615 0.0
C43 C 0.66204 0.99005 0.47945 0.0
C44 C 0.64471 0.94242 0.48584 0.0
C45 C 0.64537 0.91337 0.4671 0.0
C46 C 0.63127 0.9271 0.51102 0.0
C47 C 0.62139 0.85589 0.49866 0.0
C48 C 0.61964 0.88416 0.51734 0.0
C49 C 0.63366 0.87041 0.47345 0.0
C50 C 0.60222 0.04246 0.41927 0.0
C51 C 0.68505 0.14217 0.46587 0.0
C52 C 0.4969 0.09068 0.45781 0.0
C53 C 0.50934 0.13621 0.46677 0.0
C54 C 0.54568 0.16425 0.48825 0.0
C55 C 0.48504 0.15206 0.45374 0.0
C56 C 0.53167 0.22262 0.48402 0.0
C57 C 0.4962 0.1951 0.46229 0.0
C58 C 0.5566 0.20713 0.49688 0.0
C59 C 0.56484 0.04157 0.51322 0.0
O60 O 0.52545 0.95281 0.4708 0.0
O61 O 0.47582 0.97309 0.45361 0.0
O62 O 0.65303 0.99414 0.45584 0.0
O63 O 0.65181 0.01165 0.49611 0.0
O64 O 0.64859 0.05394 0.42845 0.0
O65 O 0.5631 0.02001 0.43546 0.0
O66 O 0.63415 0.12874 0.46166 0.0
O67 O 0.68944 0.10915 0.47125 0.0
O68 O 0.48127 0.05965 0.4752 0.0
O69 O 0.53359 0.09588 0.44237 0.0
O70 O 0.51693 0.02824 0.50509 0.0
O71 O 0.60056 0.06282 0.49585 0.0
H72 H 0.65617 0.92441 0.44762 0.0
H73 H 0.63091 0.94877 0.52599 0.0
H74 H 0.61053 0.87353 0.53693 0.0
H75 H 0.63551 0.8491 0.45885 0.0
H76 H 0.56517 0.15272 0.49842 0.0
H77 H 0.4572 0.13099 0.43705 0.0
H78 H 0.47665 0.20664 0.4522 0.0
H79 H 0.58412 0.22806 0.51367 0.0
Gd80 Gd 0.61808 0.58134 0.84421 0.0
Gd81 Gd 0.53993 0.47319 0.83856 0.0
C82 C 0.47631 0.52222 0.84476 0.0
C83 C 0.68436 0.6741 0.83544 0.0
C84 C 0.67585 0.70952 0.83104 0.0
C85 C 0.72225 0.76031 0.83343 0.0
C86 C 0.62262 0.69306 0.8223 0.0
C87 C 0.66332 0.77724 0.81681 0.0
C88 C 0.61656 0.72648 0.81505 0.0
C89 C 0.71597 0.79387 0.82658 0.0
C90 C 0.57704 0.53623 0.8888 0.0
C91 C 0.68313 0.53275 0.84308 0.0
C92 C 0.49086 0.38079 0.83742 0.0
C93 C 0.5094 0.35167 0.83452 0.0
C94 C 0.55268 0.36519 0.8176 0.0
C95 C 0.47981 0.30723 0.84651 0.0
C96 C 0.53317 0.28875 0.82319 0.0
C97 C 0.49176 0.27614 0.841 0.0
C98 C 0.56426 0.33401 0.81194 0.0
C99 C 0.55662 0.51746 0.79479 0.0
O100 O 0.52908 0.56309 0.83909 0.0
O101 O 0.47139 0.48271 0.84886 0.0
O102 O 0.6765 0.65839 0.85843 0.0
O103 O 0.66267 0.63894 0.81762 0.0
O104 O 0.58511 0.57528 0.88392 0.0
O105 O 0.59382 0.52509 0.87052 0.0
O106 O 0.62889 0.49039 0.83855 0.0
O107 O 0.68974 0.57386 0.84655 0.0
O108 O 0.49728 0.40387 0.81742 0.0
O109 O 0.50372 0.40701 0.85884 0.0
O110 O 0.50755 0.47842 0.80175 0.0
O111 O 0.59424 0.53056 0.81129 0.0
H112 H 0.76375 0.77402 0.84003 0.0
H113 H 0.58593 0.65425 0.82051 0.0
H114 H 0.57547 0.7127 0.80773 0.0
H115 H 0.75262 0.83279 0.82819 0.0
H116 H 0.57619 0.3991 0.80798 0.0
H117 H 0.4461 0.29575 0.85948 0.0
H118 H 0.46727 0.24142 0.84991 0.0
H119 H 0.59648 0.34461 0.79823 0.0
C120 C 0.6099 0.08271 0.29672 0.0
C121 C 0.5805 0.03819 0.30862 0.0
C122 C 0.607 0.08333 0.27007 0.0
C123 C 0.57681 0.03956 0.25434 0.0
C124 C 0.54866 0.99518 0.26657 0.0
C125 C 0.54903 0.99443 0.29321 0.0
C126 C 0.57472 0.03978 0.22553 0.0
C127 C 0.61674 0.08206 0.21237 0.0
C128 C 0.61529 0.08204 0.18548 0.0
C129 C 0.5718 0.0373 0.17122 0.0
C130 C 0.52949 0.99399 0.18405 0.0
C131 C 0.53058 0.99692 0.21092 0.0
C132 C 0.48343 0.94411 0.17093 0.0
C133 C 0.44261 0.93539 0.15365 0.0
C134 C 0.47412 0.90295 0.17957 0.0
C135 C 0.42412 0.85487 0.17268 0.0
C136 C 0.38178 0.84608 0.15668 0.0
C137 C 0.66038 0.12999 0.17351 0.0
C138 C 0.66324 0.17028 0.17908 0.0
C139 C 0.70626 0.13876 0.16068 0.0
C140 C 0.75454 0.18677 0.15453 0.0
C141 C 0.75806 0.22725 0.16092 0.0
C142 C 0.71099 0.21799 0.1727 0.0
C143 C 0.39242 0.88688 0.14653 0.0
H144 H 0.63459 0.11711 0.30814 0.0
H145 H 0.62833 0.11839 0.26207 0.0
H146 H 0.52671 0.9605 0.25582 0.0
H147 H 0.52602 0.95955 0.30183 0.0
H148 H 0.65188 0.11556 0.22286 0.0
H149 H 0.49573 0.96475 0.22038 0.0
H150 H 0.57104 0.03621 0.15052 0.0
H151 H 0.44779 0.96595 0.14685 0.0
H152 H 0.50448 0.90806 0.19287 0.0
H153 H 0.41749 0.82441 0.18069 0.0
H154 H 0.62924 0.16511 0.18933 0.0
H155 H 0.70616 0.10892 0.15662 0.0
H156 H 0.36057 0.88126 0.1341 0.0
H157 H 0.71223 0.24817 0.17794 0.0
H158 H 0.79011 0.19258 0.14561 0.0
C159 C 0.54522 0.54259 0.67276 0.0
C160 C 0.58601 0.54484 0.68621 0.0
C161 C 0.54698 0.54494 0.64619 0.0
C162 C 0.58898 0.54875 0.63261 0.0
C163 C 0.63023 0.55162 0.64612 0.0
C164 C 0.62912 0.55022 0.67275 0.0
C165 C 0.58852 0.54807 0.60434 0.0
C166 C 0.5859 0.57995 0.5917 0.0
C167 C 0.58395 0.57871 0.56483 0.0
C168 C 0.58387 0.54437 0.55064 0.0
C169 C 0.58632 0.51202 0.5631 0.0
C170 C 0.58914 0.51453 0.58996 0.0
C171 C 0.58359 0.47408 0.54839 0.0
C172 C 0.5431 0.44514 0.5282 0.0
C173 C 0.61882 0.46424 0.55562 0.0
C174 C 0.6123 0.42524 0.5436 0.0
C175 C 0.57043 0.39538 0.52416 0.0
C176 C 0.58343 0.61427 0.5519 0.0
C177 C 0.55097 0.62628 0.5615 0.0
C178 C 0.61795 0.63869 0.53086 0.0
C179 C 0.62165 0.67562 0.52037 0.0
C180 C 0.59095 0.68873 0.53074 0.0
C181 C 0.55483 0.66324 0.55105 0.0
C182 C 0.53647 0.40598 0.51623 0.0
H183 H 0.51161 0.53836 0.68283 0.0
H184 H 0.51455 0.54239 0.63616 0.0
H185 H 0.66323 0.55489 0.63605 0.0
H186 H 0.66103 0.55216 0.68285 0.0
H187 H 0.58682 0.6066 0.60292 0.0
H188 H 0.5896 0.48902 0.59979 0.0
H189 H 0.58175 0.5427 0.52994 0.0
H190 H 0.51499 0.45149 0.52237 0.0
H191 H 0.65082 0.48623 0.5709 0.0
H192 H 0.63887 0.41752 0.54989 0.0
H193 H 0.52322 0.60761 0.57738 0.0
H194 H 0.64383 0.63065 0.52314 0.0
H195 H 0.50382 0.3831 0.50129 0.0
H196 H 0.53071 0.67283 0.55922 0.0
H197 H 0.64983 0.69505 0.50469 0.0
C198 C 0.11592 0.55708 0.97757 0.0
C199 C 0.06278 0.52529 0.98909 0.0
C200 C 0.11951 0.55634 0.95082 0.0
C201 C 0.06995 0.52408 0.935 0.0
C202 C 1.01684 0.49201 0.94671 0.0
C203 C 1.01335 0.49252 0.97344 0.0
C204 C 0.07334 0.5249 0.90641 0.0
C205 C 0.11469 0.52565 0.89412 0.0
C206 C 0.12224 0.52763 0.8674 0.0
C207 C 0.08013 0.52777 0.85285 0.0
C208 C 1.03493 0.52662 0.86549 0.0
C209 C 1.03522 0.52534 0.89225 0.0
C210 C 0.98436 0.52545 0.85487 0.0
C211 C 0.99238 0.56702 0.84658 0.0
C212 C 0.92533 0.4864 0.86046 0.0
C213 C 0.87957 0.48805 0.85777 0.0
C214 C 0.88734 0.52941 0.84954 0.0
C215 C 0.17557 0.53014 0.85891 0.0
C216 C 0.2273 0.55747 0.87462 0.0
C217 C 0.17556 0.50105 0.83899 0.0
C218 C 0.22172 0.49929 0.83568 0.0
C219 C 0.27237 0.52579 0.85212 0.0
C220 C 0.27252 0.55524 0.87156 0.0
C221 C 0.94634 0.56869 0.84382 0.0
H222 H 0.15458 0.58271 0.98929 0.0
H223 H 0.161 0.58181 0.9425 0.0
H224 H 0.97788 0.46639 0.93518 0.0
H225 H 0.97194 0.46764 0.98192 0.0
H226 H 0.14125 0.52352 0.90614 0.0
H227 H 1.00488 0.52546 0.90271 0.0
H228 H 0.0826 0.52894 0.83227 0.0
H229 H 1.03547 0.59988 0.84303 0.0
H230 H 0.91417 0.45383 0.86808 0.0
H231 H 0.83712 0.45623 0.86292 0.0
H232 H 0.23311 0.58121 0.89033 0.0
H233 H 0.13857 0.47786 0.8261 0.0
H234 H 0.95779 0.6022 0.83754 0.0
H235 H 0.30855 0.57723 0.88502 0.0
H236 H 0.21669 0.47562 0.82016 0.0
C237 C 1.0211 0.51327 0.3159 0.0
C238 C 0.07124 0.53183 0.30316 0.0
C239 C 1.02035 0.5135 0.34266 0.0
C240 C 0.07003 0.53311 0.35711 0.0
C241 C 0.1201 0.55166 0.34423 0.0
C242 C 0.1206 0.55082 0.31752 0.0
C243 C 0.07017 0.53526 0.38555 0.0
C244 C 1.02683 0.49393 0.39859 0.0
C245 C 1.02586 0.495 0.42554 0.0
C246 C 0.07126 0.53969 0.43954 0.0
C247 C 0.11501 0.58235 0.42642 0.0
C248 C 0.11361 0.57894 0.39957 0.0
C249 C 0.16231 0.63216 0.43919 0.0
C250 C 0.16674 0.67244 0.43363 0.0
C251 C 0.20943 0.64224 0.4517 0.0
C252 C 0.26013 0.69119 0.45753 0.0
C253 C 0.26513 0.73135 0.45088 0.0
C254 C 0.97618 0.44846 0.43765 0.0
C255 C 0.92052 0.42037 0.4267 0.0
C256 C 0.98382 0.42809 0.45756 0.0
C257 C 0.93801 0.38021 0.46513 0.0
C258 C 0.88346 0.35137 0.45293 0.0
C259 C 0.87526 0.37273 0.43406 0.0
C260 C 0.21711 0.7211 0.43944 0.0
H261 H 0.98274 0.49886 0.30513 0.0
H262 H 0.98132 0.49936 0.35209 0.0
H263 H 0.15887 0.56668 0.35484 0.0
H264 H 0.15975 0.56549 0.30802 0.0
H265 H 0.99401 0.46014 0.3875 0.0
H266 H 0.14656 0.6111 0.38939 0.0
H267 H 0.07149 0.54173 0.46024 0.0
H268 H 0.1319 0.66623 0.42354 0.0
H269 H 0.20828 0.6124 0.45566 0.0
H270 H 0.29627 0.69775 0.46636 0.0
H271 H 0.91225 0.4347 0.41162 0.0
H272 H 1.02576 0.44811 0.4664 0.0
H273 H 0.21933 0.75095 0.43409 0.0
H274 H 0.83388 0.35191 0.42444 0.0
H275 H 0.94572 0.3649 0.47984 0.0
C276 C 0.57855 0.99146 0.6339 0.0
C277 C 0.59425 0.03276 0.62209 0.0
C278 C 0.58097 0.99134 0.66065 0.0
C279 C 0.60091 0.03313 0.67636 0.0
C280 C 0.61892 0.07512 0.66421 0.0
C281 C 0.61475 0.07462 0.63758 0.0
C282 C 0.60205 0.03298 0.70513 0.0
C283 C 0.60934 1.00354 0.71768 0.0
C284 C 0.61023 1.00335 0.74461 0.0
C285 C 0.605 0.03427 0.75923 0.0
C286 C 0.598 0.0643 0.74717 0.0
C287 C 0.59555 0.06247 0.72028 0.0
C288 C 0.59267 0.09774 0.7621 0.0
C289 C 0.55537 0.08127 0.78258 0.0
C290 C 0.62224 0.14585 0.7546 0.0
C291 C 0.61333 0.17597 0.76657 0.0
C292 C 0.57452 0.15881 0.78631 0.0
C293 C 0.61684 0.97069 0.75713 0.0
C294 C 0.58392 0.92117 0.74831 0.0
C295 C 0.65727 0.98887 0.77722 0.0
C296 C 0.66557 0.95865 0.78771 0.0
C297 C 0.63285 0.90931 0.77869 0.0
C298 C 0.59152 0.89081 0.75908 0.0
C299 C 0.54615 0.11142 0.79447 0.0
H300 H 0.56289 0.95874 0.62241 0.0
H301 H 0.56591 0.95793 0.66891 0.0
H302 H 0.63648 0.10878 0.67518 0.0
H303 H 0.62767 0.10715 0.62901 0.0
H304 H 0.61573 0.98136 0.70659 0.0
H305 H 0.58714 0.0836 0.71117 0.0
H306 H 0.60627 0.03488 0.77992 0.0
H307 H 0.53165 0.04441 0.78873 0.0
H308 H 0.65174 0.15999 0.73911 0.0
H309 H 0.63571 0.21234 0.75998 0.0
H310 H 0.55215 0.90585 0.73301 0.0
H311 H 0.6836 0.02684 0.78434 0.0
H312 H 0.51589 0.0974 0.80964 0.0
H313 H 0.56576 0.85296 0.75179 0.0
H314 H 0.69781 0.97383 0.80276 0.0
C315 C 0.55461 0.43333 0.99527 0.0
C316 C 0.57444 0.48026 0.99075 0.0
C317 C 0.54754 0.4188 0.02033 0.0
C318 C 0.56041 0.45113 0.04113 0.0
C319 C 0.58357 0.49908 0.03643 0.0
C320 C 0.59011 0.51336 0.01148 0.0
C321 C 0.54566 0.43431 0.06754 0.0
C322 C 0.55801 0.40654 0.07761 0.0
C323 C 0.54586 0.39329 0.10318 0.0
C324 C 0.52157 0.40815 0.11857 0.0
C325 C 0.50923 0.4357 0.10871 0.0
C326 C 0.52031 0.44783 0.08316 0.0
C327 C 0.48818 0.4549 0.12527 0.0
C328 C 0.44113 0.44925 0.11699 0.0
C329 C 0.51772 0.48244 0.14825 0.0
C330 C 0.50158 0.50563 0.16222 0.0
C331 C 0.45555 0.50097 0.15334 0.0
C332 C 0.56655 0.37127 0.11554 0.0
C333 C 0.62478 0.39525 0.1149 0.0
C334 C 0.53156 0.33298 0.13211 0.0
C335 C 0.55557 0.32207 0.14944 0.0
C336 C 0.61488 0.35029 0.15074 0.0
C337 C 0.64877 0.38502 0.13246 0.0
C338 C 0.42489 0.47202 0.13096 0.0
H339 H 0.54251 0.40741 0.97939 0.0
H340 H 0.5296 0.38168 0.02336 0.0
H341 H 0.59521 0.52524 0.05208 0.0
H342 H 0.60588 0.54982 0.00833 0.0
H343 H 0.57881 0.3968 0.06596 0.0
H344 H 0.5105 0.46917 0.07563 0.0
H345 H 0.51431 0.39993 0.13857 0.0
H346 H 0.41765 0.42802 0.09942 0.0
H347 H 0.55454 0.48759 0.1548 0.0
H348 H 0.52555 0.52797 0.17947 0.0
H349 H 0.65272 0.42508 0.10249 0.0
H350 H 0.48637 0.31384 0.13279 0.0
H351 H 0.38906 0.46803 0.12399 0.0
H352 H 0.69469 0.40695 0.13303 0.0
H353 H 0.52867 0.29451 0.16309 0.0
C354 C 0.35681 0.51265 0.18459 0.0
C355 C 0.36422 0.54521 0.16734 0.0
C356 C 0.45501 0.56917 0.15467 0.0
C357 C 0.43903 0.52731 0.16618 0.0
N358 N 0.38301 0.46489 0.19615 0.0
N359 N 0.42391 0.6114 0.13957 0.0
C360 C 0.39342 0.5018 0.18317 0.0
C361 C 0.41555 0.57689 0.15411 0.0
N362 N 0.31319 0.49083 0.20124 0.0
N363 N 0.50646 0.59944 0.14326 0.0
H364 H 0.3959 0.61823 0.13964 0.0
H365 H 0.45752 0.63252 0.12726 0.0
H366 H 0.53512 0.59331 0.14358 0.0
H367 H 0.52253 0.63208 0.13541 0.0
H368 H 0.30643 0.46823 0.21526 0.0
H369 H 0.28617 0.49874 0.20214 0.0
H370 H 0.34716 0.44114 0.20695 0.0
H371 H 0.41083 0.45783 0.1957 0.0
C372 C 0.7425 0.23353 0.47792 0.0
C373 C 0.73831 0.19593 0.46426 0.0
C374 C 0.83412 0.26066 0.44712 0.0
C375 C 0.83533 0.29804 0.45852 0.0
N376 N 0.78772 0.31979 0.48298 0.0
N377 N 0.77751 0.17536 0.43227 0.0
C378 C 0.78856 0.28427 0.47339 0.0
C379 C 0.78377 0.20998 0.44814 0.0
N380 N 0.70375 0.22095 0.49615 0.0
N381 N 0.8812 0.27349 0.43505 0.0
H382 H 0.74152 0.13835 0.43177 0.0
H383 H 0.80548 0.18373 0.41781 0.0
H384 H 0.9175 0.30978 0.43251 0.0
H385 H 0.88611 0.24836 0.42927 0.0
H386 H 0.70735 0.24637 0.5086 0.0
H387 H 0.67063 0.18477 0.50057 0.0
H388 H 0.75199 0.31222 0.49105 0.0
H389 H 0.82183 0.35717 0.48143 0.0
C390 C 0.68007 0.83396 0.78366 0.0
C391 C 0.65741 0.81268 0.80756 0.0
C392 C 0.62176 0.85711 0.81335 0.0
C393 C 0.64285 0.87716 0.7891 0.0
N394 N 0.69169 0.88536 0.7509 0.0
N395 N 0.60576 0.8023 0.84507 0.0
C396 C 0.67211 0.86585 0.77424 0.0
C397 C 0.62813 0.82398 0.82241 0.0
N398 N 0.70939 0.82359 0.77003 0.0
N399 N 0.59593 0.87018 0.82776 0.0
H400 H 0.61244 0.78032 0.85294 0.0
H401 H 0.5791 0.80441 0.85595 0.0
H402 H 0.58789 0.89209 0.82123 0.0
H403 H 0.58402 0.86116 0.84654 0.0
H404 H 0.73187 0.84072 0.75371 0.0
H405 H 0.71294 0.7982 0.77542 0.0
H406 H 0.70849 0.87566 0.73766 0.0
H407 H 0.69003 0.91117 0.74418 0.0
C408 C 0.71199 0.40783 0.20706 0.0
C409 C 0.75307 0.40773 0.1953 0.0
C410 C 0.67898 0.33797 0.16687 0.0
C411 C 0.64461 0.34997 0.17265 0.0
N412 N 0.61972 0.38607 0.20247 0.0
N413 N 0.7745 0.36539 0.16863 0.0
C414 C 0.65738 0.38024 0.19484 0.0
C415 C 0.73562 0.36909 0.17731 0.0
N416 N 0.72729 0.43693 0.22881 0.0
N417 N 0.65818 0.29919 0.14997 0.0
H418 H 0.81577 0.38724 0.17653 0.0
H419 H 0.76631 0.34123 0.15366 0.0
H420 H 0.61673 0.27747 0.14209 0.0
H421 H 0.67956 0.28651 0.1454 0.0
H422 H 0.69915 0.43766 0.23934 0.0
H423 H 0.76808 0.45761 0.23727 0.0
H424 H 0.62891 0.41184 0.21664 0.0
H425 H 0.5787 0.36479 0.19436 0.0
C426 C 0.42049 0.85177 0.44252 0.0
C427 C 0.42341 0.88572 0.4594 0.0
C428 C 0.32571 0.81704 0.47316 0.0
C429 C 0.32089 0.78408 0.45467 0.0
N430 N 0.36122 0.77206 0.41906 0.0
N431 N 0.37578 0.90125 0.4889 0.0
C432 C 0.36786 0.80197 0.43876 0.0
C433 C 0.37502 0.86845 0.4741 0.0
N434 N 0.46801 0.86713 0.4298 0.0
N435 N 0.28384 0.79882 0.49055 0.0
H436 H 0.41153 0.93846 0.4912 0.0
H437 H 0.3399 0.89234 0.4976 0.0
H438 H 0.24763 0.76168 0.49055 0.0
H439 H 0.28712 0.81941 0.50632 0.0
H440 H 0.47127 0.84331 0.41987 0.0
H441 H 0.50581 0.90362 0.43041 0.0
H442 H 0.39089 0.78412 0.40488 0.0
H443 H 0.32376 0.73577 0.41557 0.0
C444 C 0.50445 0.21529 0.79602 0.0
C445 C 0.54179 0.25347 0.81502 0.0
C446 C 0.59595 0.22532 0.81759 0.0
C447 C 0.56143 0.18975 0.79719 0.0
N448 N 0.48626 0.15339 0.76517 0.0
N449 N 0.62573 0.29785 0.84262 0.0
C450 C 0.51637 0.18526 0.78602 0.0
C451 C 0.58825 0.25923 0.8255 0.0
N452 N 0.4572 0.20753 0.78763 0.0
N453 N 0.63541 0.22594 0.82973 0.0
H454 H 0.62001 0.32197 0.84966 0.0
H455 H 0.66416 0.30788 0.84881 0.0
H456 H 0.64269 0.20225 0.82414 0.0
H457 H 0.65809 0.24728 0.84638 0.0
H458 H 0.42453 0.17695 0.77621 0.0
H459 H 0.44848 0.23014 0.7934 0.0
H460 H 0.45773 0.15237 0.75407 0.0
H461 H 0.49234 0.12967 0.75783 0.0
C462 C 0.65956 0.8203 0.51875 0.0
C463 C 0.61392 0.81272 0.50593 0.0
C464 C 0.55589 0.72355 0.50642 0.0
C465 C 0.59936 0.73134 0.52151 0.0
N466 N 0.68883 0.78688 0.54559 0.0
N467 N 0.5162 0.75801 0.49009 0.0
C468 C 0.65029 0.77968 0.5286 0.0
C469 C 0.56136 0.76452 0.50039 0.0
N470 N 0.71226 0.86622 0.52092 0.0
N471 N 0.51015 0.67709 0.49732 0.0
H472 H 0.51893 0.78717 0.48515 0.0
H473 H 0.47497 0.72414 0.48819 0.0
H474 H 0.50481 0.6463 0.50144 0.0
H475 H 0.47999 0.6694 0.48407 0.0
H476 H 0.74874 0.87313 0.52749 0.0
H477 H 0.72073 0.89702 0.51408 0.0
H478 H 0.72343 0.82124 0.55373 0.0
H479 H 0.68374 0.75816 0.55332 0.0
C480 C 0.74151 0.50313 0.82719 0.0
C481 C 0.73692 0.53323 0.8444 0.0
C482 C 0.83345 0.56435 0.86333 0.0
C483 C 0.83545 0.53127 0.84753 0.0
N484 N 0.78167 0.46397 0.81584 0.0
N485 N 0.77962 0.58675 0.88253 0.0
C486 C 0.78627 0.4992 0.83013 0.0
C487 C 0.7838 0.56246 0.86321 0.0
N488 N 0.70476 0.47998 0.80642 0.0
N489 N 0.8797 0.59846 0.87908 0.0
H490 H 0.74516 0.58561 0.88381 0.0
H491 H 0.80692 0.60379 0.89862 0.0
H492 H 0.9136 0.59905 0.88138 0.0
H493 H 0.88632 0.62804 0.8885 0.0
H494 H 0.70812 0.46191 0.79147 0.0
H495 H 0.67459 0.48349 0.80263 0.0
H496 H 0.74455 0.43479 0.80568 0.0
H497 H 0.81387 0.46204 0.81555 0.0
C498 C 0.22743 0.72776 0.16677 0.0
C499 C 0.22089 0.69344 0.1484 0.0
C500 C 0.31951 0.76003 0.13473 0.0
C501 C 0.32512 0.79435 0.1524 0.0
N502 N 0.28067 0.8127 0.18214 0.0
N503 N 0.25589 0.68191 0.11015 0.0
C504 C 0.27776 0.7787 0.16732 0.0
C505 C 0.26574 0.71103 0.1311 0.0
N506 N 0.18719 0.71177 0.18477 0.0
N507 N 0.36589 0.77411 0.12147 0.0
H508 H 0.21631 0.64736 0.10578 0.0
H509 H 0.28466 0.69405 0.09552 0.0
H510 H 0.40478 0.81008 0.12249 0.0
H511 H 0.36693 0.74952 0.11078 0.0
H512 H 0.19355 0.73329 0.20082 0.0
H513 H 0.14873 0.67599 0.18506 0.0
H514 H 0.24544 0.80529 0.19071 0.0
H515 H 0.31743 0.84959 0.18436 0.0
C516 C 0.58817 0.3137 0.48546 0.0
C517 C 0.5412 0.26692 0.49388 0.0
C518 C 0.51514 0.30469 0.52294 0.0
C519 C 0.55979 0.35105 0.51329 0.0
N520 N 0.63418 0.39962 0.48321 0.0
N521 N 0.45534 0.21616 0.51787 0.0
C522 C 0.59508 0.35556 0.49393 0.0
C523 C 0.50327 0.26192 0.51182 0.0
N524 N 0.62679 0.31816 0.46981 0.0
N525 N 0.48539 0.30182 0.54337 0.0
H526 H 0.44615 0.184 0.5108 0.0
H527 H 0.42253 0.20966 0.52843 0.0
H528 H 0.49215 0.33217 0.55181 0.0
H529 H 0.45696 0.27019 0.55323 0.0
H530 H 0.66537 0.3517 0.46526 0.0
H531 H 0.62214 0.28812 0.46264 0.0
H532 H 0.6571 0.40432 0.46719 0.0
H533 H 0.6408 0.4311 0.48922 0.0
C534 C 0.40608 0.5363 0.82591 0.0
C535 C 0.42237 0.52148 0.84635 0.0
C536 C 0.3372 0.50485 0.8693 0.0
C537 C 0.3237 0.5232 0.84969 0.0
N538 N 0.35612 0.56346 0.81024 0.0
N539 N 0.40378 0.49893 0.88991 0.0
C540 C 0.36133 0.54055 0.82832 0.0
C541 C 0.38739 0.50753 0.86851 0.0
N542 N 0.43192 0.54451 0.80314 0.0
N543 N 0.30025 0.48256 0.8888 0.0
H544 H 0.43904 0.50109 0.89037 0.0
H545 H 0.38619 0.49442 0.90771 0.0
H546 H 0.26454 0.47975 0.8902 0.0
H547 H 0.30177 0.46298 0.90215 0.0
H548 H 0.41922 0.54988 0.7864 0.0
H549 H 0.46262 0.54109 0.80039 0.0
H550 H 0.38522 0.58266 0.79588 0.0
H551 H 0.32512 0.56686 0.81097 0.0
C552 C 0.8827 0.34696 0.1294 0.0
C553 C 0.91218 0.38047 0.15119 0.0
C554 C 0.84489 0.31204 0.17897 0.0
C555 C 0.81225 0.27965 0.15724 0.0
N556 N 0.79593 0.26837 0.11161 0.0
N557 N 0.91434 0.3956 0.19689 0.0
C558 C 0.83032 0.29765 0.13238 0.0
C559 C 0.89107 0.36317 0.17598 0.0
N560 N 0.90427 0.36235 0.1057 0.0
N561 N 0.83345 0.29353 0.20259 0.0
H562 H 0.94957 0.43276 0.19618 0.0
H563 H 0.89598 0.38635 0.21475 0.0
H564 H 0.80105 0.25641 0.20563 0.0
H565 H 0.85958 0.31392 0.21877 0.0
H566 H 0.88924 0.33871 0.08944 0.0
H567 H 0.93959 0.39864 0.10246 0.0
H568 H 0.80287 0.28057 0.09322 0.0
H569 H 0.75755 0.23258 0.11304 0.0
C570 C 0.05544 0.49665 0.05933 0.0
C571 C 0.04732 0.52779 0.07152 0.0
C572 C 0.04818 0.55649 0.02967 0.0
C573 C 0.05861 0.52687 0.0176 0.0
N574 N 0.08003 0.47388 0.02093 0.0
N575 N 0.0473 0.59442 0.06914 0.0
C576 C 0.06464 0.4985 0.03247 0.0
C577 C 1.04677 0.55965 0.0569 0.0
N578 N 0.05246 0.46409 0.07333 0.0
N579 N 1.03858 0.58099 0.01503 0.0
H580 H 0.04697 0.59828 0.08899 0.0
H581 H 0.05317 0.62227 0.0599 0.0
H582 H 1.04158 0.58127 0.99518 0.0
H583 H 1.02391 0.59835 0.02228 0.0
H584 H 0.05112 0.43628 0.06536 0.0
H585 H 0.04771 0.46287 0.09304 0.0
H586 H 0.09152 0.45704 0.03089 0.0
H587 H 0.08514 0.473 0.00126 0.0
C588 C 0.5826 0.06765 0.37995 0.0
C589 C 0.59194 0.03837 0.39117 0.0
C590 C 0.60114 0.01386 0.34834 0.0
C591 C 0.58338 0.03737 0.33714 0.0
N592 N 0.54244 0.07576 0.34358 0.0
N593 N 0.5982 0.97509 0.38552 0.0
C594 C 0.56942 0.06087 0.35333 0.0
C595 C 0.59726 0.00862 0.37519 0.0
N596 N 0.59027 0.10437 0.39421 0.0
N597 N 0.625 0.99915 0.33376 0.0
H598 H 0.59446 0.96959 0.40505 0.0
H599 H 0.59676 0.94944 0.3744 0.0
H600 H 0.63262 1.00543 0.31439 0.0
H601 H 0.64324 0.98593 0.34155 0.0
H602 H 0.58829 0.12928 0.38638 0.0
H603 H 0.60604 0.11363 0.41302 0.0
H604 H 0.52759 0.08955 0.35515 0.0
H605 H 0.52932 0.06924 0.32441 0.0
C606 C 0.5689 0.49436 0.7512 0.0
C607 C 0.56894 0.52714 0.76742 0.0
C608 C 0.59008 0.57615 0.73098 0.0
C609 C 0.58209 0.53964 0.71431 0.0
N610 N 0.55361 0.45926 0.70819 0.0
N611 N 0.57247 0.59591 0.77253 0.0
C612 C 0.56891 0.49748 0.72431 0.0
C613 C 0.5777 0.56724 0.75727 0.0
N614 N 0.56999 0.46083 0.76147 0.0
N615 N 0.61104 0.61987 0.72185 0.0
H616 H 0.56389 0.59046 0.79187 0.0
H617 H 0.57223 0.6224 0.76565 0.0
H618 H 0.62148 0.62798 0.70278 0.0
H619 H 0.62307 0.6497 0.73358 0.0
H620 H 0.57587 0.43943 0.75064 0.0
H621 H 0.57092 0.45791 0.78111 0.0
H622 H 0.53769 0.42557 0.71456 0.0
H623 H 0.55146 0.45931 0.68835 0.0
C624 C 0.62907 0.07484 0.5537 0.0
C625 C 0.57618 0.03733 0.54029 0.0
C626 C 0.53462 0.99752 0.58069 0.0
C627 C 0.58856 0.03238 0.5936 0.0
N628 N 0.69051 0.09556 0.59012 0.0
N629 N 0.48565 0.95441 0.54031 0.0
C630 C 0.63689 0.06827 0.57936 0.0
C631 C 0.53111 0.99602 0.55357 0.0
N632 N 0.67083 0.11807 0.54291 0.0
N633 N 0.48607 0.96723 0.59418 0.0
H634 H 0.48353 0.95028 0.52042 0.0
H635 H 0.45402 0.92201 0.54908 0.0
H636 H 0.48596 0.96849 0.6141 0.0
H637 H 0.44534 0.94458 0.58557 0.0
H638 H 0.70735 0.14806 0.55309 0.0
H639 H 0.66686 0.12638 0.52486 0.0
H640 H 0.72741 0.1189 0.57978 0.0
H641 H 0.69801 0.09079 0.60855 0.0
C642 C 0.62827 0.54861 0.92945 0.0
C643 C 0.5762 0.5226 0.91508 0.0
C644 C 0.52308 0.47119 0.95094 0.0
C645 C 0.57534 0.49402 0.9644 0.0
N646 N 0.67813 0.54847 0.9649 0.0
N647 N 0.47589 0.45191 0.90984 0.0
C648 C 0.62818 0.53118 0.95323 0.0
C649 C 0.52411 0.48175 0.92513 0.0
N650 N 0.67771 0.59015 0.9205 0.0
N651 N 0.47242 0.4408 0.96305 0.0
H652 H 0.47532 0.45795 0.89072 0.0
H653 H 0.43818 0.41868 0.9154 0.0
H654 H 0.46962 0.43256 0.9821 0.0
H655 H 0.43366 0.4275 0.95493 0.0
H656 H 0.7157 0.61359 0.93135 0.0
H657 H 0.67998 0.6033 0.90283 0.0
H658 H 0.71763 0.57173 0.95643 0.0
H659 H 0.67954 0.53609 0.98219 0.0
C660 C 0.05747 0.49354 0.23219 0.0
C661 C 0.0866 0.53946 0.22118 0.0
C662 C 0.10256 0.57927 0.2637 0.0
C663 C 0.07349 0.53354 0.27476 0.0
N664 N 1.01752 0.44599 0.26993 0.0
N665 N 0.15008 0.62755 0.22688 0.0
C666 C 0.04914 0.49028 0.25908 0.0
C667 C 0.11269 0.58275 0.23706 0.0
N668 N 1.04241 0.45414 0.21725 0.0
N669 N 0.11871 0.61907 0.27858 0.0
H670 H 0.16057 0.63142 0.20771 0.0
H671 H 0.17522 0.66076 0.23774 0.0
H672 H 0.11183 0.61793 0.29816 0.0
H673 H 0.13417 0.65197 0.27126 0.0
H674 H 1.02669 0.42101 0.2243 0.0
H675 H 0.0495 0.45542 0.19771 0.0
H676 H 0.99245 0.41233 0.25951 0.0
H677 H 1.01336 0.44249 0.28963 0.0
loop_
_geom_bond_atom_site_label_1
_geom_bond_atom_site_label_2
_geom_bond_distance
_geom_bond_site_symmetry_2
_ccdc_geom_bond_type
Gd0 C3 2.818 . S
Gd0 O20 2.377 . S
Gd0 O22 2.448 . S
Gd0 O23 2.506 . S
Gd0 O24 2.435 . S
Gd0 O25 2.717 . S
Gd0 O27 2.395 1_455 S
Gd0 O31 2.327 . S
Gd1 C12 2.812 1_455 S
Gd1 O21 2.400 . S
Gd1 O25 2.331 . S
Gd1 O26 2.377 1_455 S
Gd1 O28 2.442 1_455 S
Gd1 O29 2.501 1_455 S
Gd1 O30 2.437 . S
Gd1 O31 2.723 . S
C2 O20 1.240 . S
C2 O21 1.240 . S
C3 Gd0 2.818 . S
C3 C4 1.510 . S
C3 O22 1.249 . S
C3 O23 1.252 . S
C4 C3 1.510 . S
C4 C5 1.404 . S
C4 C6 1.352 . S
C5 C4 1.404 . S
C5 C9 1.389 . S
C5 H32 0.930 . S
C6 C4 1.352 . S
C6 C8 1.374 . S
C6 H33 0.931 . S
C7 C8 1.359 . S
C7 C9 1.364 . S
C8 C6 1.374 . S
C8 C7 1.359 . S
C8 H34 0.931 . S
C9 C5 1.389 . S
C9 C7 1.364 . S
C9 H35 0.931 . S
C10 O24 1.256 . S
C10 O25 1.257 . S
C11 O26 1.240 . S
C11 O27 1.240 . S
C12 Gd1 2.812 1_655 S
C12 C13 1.510 . S
C12 O28 1.249 . S
C12 O29 1.252 . S
C13 C12 1.510 . S
C13 C14 1.404 . S
C13 C15 1.352 . S
C14 C13 1.404 . S
C14 C18 1.389 . S
C14 H36 0.930 . S
C15 C13 1.352 . S
C15 C17 1.374 . S
C15 H37 0.931 . S
C16 C17 1.359 . S
C16 C18 1.364 . S
C17 C15 1.374 . S
C17 C16 1.359 . S
C17 H38 0.931 . S
C18 C14 1.389 . S
C18 C16 1.364 . S
C18 H39 0.931 . S
C19 O30 1.256 . S
C19 O31 1.257 . S
O20 Gd0 2.377 . S
O20 C2 1.240 . S
O21 Gd1 2.400 . S
O21 C2 1.240 . S
O22 Gd0 2.448 . S
O22 C3 1.249 . S
O23 Gd0 2.506 . S
O23 C3 1.252 . S
O24 Gd0 2.435 . S
O24 C10 1.256 . S
O25 Gd0 2.717 . S
O25 Gd1 2.331 . S
O25 C10 1.257 . S
O26 Gd1 2.377 1_655 S
O26 C11 1.240 . S
O27 Gd0 2.395 1_655 S
O27 C11 1.240 . S
O28 Gd1 2.442 1_655 S
O28 C12 1.249 . S
O29 Gd1 2.501 1_655 S
O29 C12 1.252 . S
O30 Gd1 2.437 . S
O30 C19 1.256 . S
O31 Gd0 2.327 . S
O31 Gd1 2.723 . S
O31 C19 1.257 . S
H32 C5 0.930 . S
H33 C6 0.931 . S
H34 C8 0.931 . S
H35 C9 0.931 . S
H36 C14 0.930 . S
H37 C15 0.931 . S
H38 C17 0.931 . S
H39 C18 0.931 . S
Gd40 C43 2.818 . S
Gd40 O60 2.377 . S
Gd40 O62 2.448 . S
Gd40 O63 2.506 . S
Gd40 O64 2.435 . S
Gd40 O65 2.717 1_565 S
Gd40 O67 2.395 1_565 S
Gd40 O71 2.327 1_565 S
Gd41 C52 2.818 . S
Gd41 O61 2.395 1_545 S
Gd41 O65 2.327 . S
Gd41 O66 2.377 . S
Gd41 O68 2.448 . S
Gd41 O69 2.506 . S
Gd41 O70 2.435 . S
Gd41 O71 2.717 . S
C42 O60 1.240 . S
C42 O61 1.240 . S
C43 Gd40 2.818 . S
C43 C44 1.510 . S
C43 O62 1.249 . S
C43 O63 1.252 . S
C44 C43 1.510 . S
C44 C45 1.404 . S
C44 C46 1.352 . S
C45 C44 1.404 . S
C45 C49 1.389 . S
C45 H72 0.930 . S
C46 C44 1.352 . S
C46 C48 1.374 . S
C46 H73 0.931 . S
C47 C48 1.359 . S
C47 C49 1.364 . S
C48 C46 1.374 . S
C48 C47 1.359 . S
C48 H74 0.931 . S
C49 C45 1.389 . S
C49 C47 1.364 . S
C49 H75 0.931 . S
C50 O64 1.256 1_545 S
C50 O65 1.257 . S
C51 O66 1.240 . S
C51 O67 1.240 . S
C52 Gd41 2.818 . S
C52 C53 1.510 . S
C52 O68 1.249 . S
C52 O69 1.252 . S
C53 C52 1.510 . S
C53 C54 1.404 . S
C53 C55 1.352 . S
C54 C53 1.404 . S
C54 C58 1.389 . S
C54 H76 0.930 . S
C55 C53 1.352 . S
C55 C57 1.374 . S
C55 H77 0.931 . S
C56 C57 1.359 . S
C56 C58 1.364 . S
C57 C55 1.374 . S
C57 C56 1.359 . S
C57 H78 0.931 . S
C58 C54 1.389 . S
C58 C56 1.364 . S
C58 H79 0.931 . S
C59 O70 1.256 . S
C59 O71 1.257 . S
O60 Gd40 2.377 . S
O60 C42 1.240 . S
O61 Gd41 2.395 1_565 S
O61 C42 1.240 . S
O62 Gd40 2.448 . S
O62 C43 1.249 . S
O63 Gd40 2.506 . S
O63 C43 1.252 . S
O64 Gd40 2.435 . S
O64 C50 1.256 1_565 S
O65 Gd40 2.717 1_545 S
O65 Gd41 2.327 . S
O65 C50 1.257 . S
O66 Gd41 2.377 . S
O66 C51 1.240 . S
O67 Gd40 2.395 1_545 S
O67 C51 1.240 . S
O68 Gd41 2.448 . S
O68 C52 1.249 . S
O69 Gd41 2.506 . S
O69 C52 1.252 . S
O70 Gd41 2.435 . S
O70 C59 1.256 . S
O71 Gd40 2.327 1_545 S
O71 Gd41 2.717 . S
O71 C59 1.257 . S
H72 C45 0.930 . S
H73 C46 0.931 . S
H74 C48 0.931 . S
H75 C49 0.931 . S
H76 C54 0.930 . S
H77 C55 0.931 . S
H78 C57 0.931 . S
H79 C58 0.931 . S
Gd80 C83 2.818 . S
Gd80 O100 2.377 . S
Gd80 O102 2.448 . S
Gd80 O103 2.506 . S
Gd80 O104 2.435 . S
Gd80 O105 2.717 . S
Gd80 O107 2.395 . S
Gd80 O111 2.327 . S
Gd81 C92 2.818 . S
Gd81 O101 2.395 . S
Gd81 O105 2.327 . S
Gd81 O106 2.377 . S
Gd81 O108 2.448 . S
Gd81 O109 2.506 . S
Gd81 O110 2.435 . S
Gd81 O111 2.717 . S
C82 O100 1.240 . S
C82 O101 1.240 . S
C83 Gd80 2.818 . S
C83 C84 1.510 . S
C83 O102 1.249 . S
C83 O103 1.252 . S
C84 C83 1.510 . S
C84 C85 1.404 . S
C84 C86 1.352 . S
C85 C84 1.404 . S
C85 C89 1.389 . S
C85 H112 0.930 . S
C86 C84 1.352 . S
C86 C88 1.374 . S
C86 H113 0.931 . S
C87 C88 1.359 . S
C87 C89 1.364 . S
C88 C86 1.374 . S
C88 C87 1.359 . S
C88 H114 0.931 . S
C89 C85 1.389 . S
C89 C87 1.364 . S
C89 H115 0.931 . S
C90 O104 1.256 . S
C90 O105 1.257 . S
C91 O106 1.240 . S
C91 O107 1.240 . S
C92 Gd81 2.818 . S
C92 C93 1.510 . S
C92 O108 1.249 . S
C92 O109 1.252 . S
C93 C92 1.510 . S
C93 C94 1.404 . S
C93 C95 1.352 . S
C94 C93 1.404 . S
C94 C98 1.389 . S
C94 H116 0.930 . S
C95 C93 1.352 . S
C95 C97 1.374 . S
C95 H117 0.931 . S
C96 C97 1.359 . S
C96 C98 1.364 . S
C97 C95 1.374 . S
C97 C96 1.359 . S
C97 H118 0.931 . S
C98 C94 1.389 . S
C98 C96 1.364 . S
C98 H119 0.931 . S
C99 O110 1.256 . S
C99 O111 1.257 . S
O100 Gd80 2.377 . S
O100 C82 1.240 . S
O101 Gd81 2.395 . S
O101 C82 1.240 . S
O102 Gd80 2.448 . S
O102 C83 1.249 . S
O103 Gd80 2.506 . S
O103 C83 1.252 . S
O104 Gd80 2.435 . S
O104 C90 1.256 . S
O105 Gd80 2.717 . S
O105 Gd81 2.327 . S
O105 C90 1.257 . S
O106 Gd81 2.377 . S
O106 C91 1.240 . S
O107 Gd80 2.395 . S
O107 C91 1.240 . S
O108 Gd81 2.448 . S
O108 C92 1.249 . S
O109 Gd81 2.506 . S
O109 C92 1.252 . S
O110 Gd81 2.435 . S
O110 C99 1.256 . S
O111 Gd80 2.327 . S
O111 Gd81 2.717 . S
O111 C99 1.257 . S
H112 C85 0.930 . S
H113 C86 0.931 . S
H114 C88 0.931 . S
H115 C89 0.931 . S
H116 C94 0.930 . S
H117 C95 0.931 . S
H118 C97 0.931 . S
H119 C98 0.931 . S
C120 C121 1.386 . S
C120 C122 1.397 . S
C120 H144 0.931 . S
C121 C120 1.386 . S
C121 C125 1.397 1_545 S
C122 C120 1.397 . S
C122 C123 1.384 . S
C122 H145 0.930 . S
C123 C122 1.384 . S
C123 C124 1.377 1_545 S
C123 C126 1.481 . S
C124 C123 1.377 1_565 S
C124 C125 1.389 . S
C124 H146 0.929 . S
C125 C121 1.397 1_565 S
C125 C124 1.389 . S
C125 H147 0.931 . S
C126 C123 1.481 . S
C126 C127 1.387 . S
C126 C131 1.390 1_545 S
C127 C126 1.387 . S
C127 C128 1.401 . S
C127 H148 0.930 . S
C128 C127 1.401 . S
C128 C129 1.376 . S
C128 C137 1.511 . S
C129 C128 1.376 . S
C129 C130 1.392 1_545 S
C129 H150 0.931 . S
C130 C129 1.392 1_565 S
C130 C131 1.361 . S
C130 C132 1.500 . S
C131 C126 1.390 1_565 S
C131 C130 1.361 . S
C131 H149 0.931 . S
C132 C130 1.500 . S
C132 C133 1.371 . S
C132 C134 1.365 . S
C133 C132 1.371 . S
C133 C143 1.386 . S
C133 H151 0.931 . S
C134 C132 1.365 . S
C134 C135 1.409 . S
C134 H152 0.929 . S
C135 C134 1.409 . S
C135 C136 1.380 . S
C135 H153 0.930 . S
C136 C135 1.380 . S
C136 C143 1.357 . S
C137 C128 1.511 . S
C137 C138 1.341 . S
C137 C139 1.371 . S
C138 C137 1.341 . S
C138 C142 1.394 . S
C138 H154 0.930 . S
C139 C137 1.371 . S
C139 C140 1.392 . S
C139 H155 0.931 . S
C140 C139 1.392 . S
C140 C141 1.331 . S
C140 H158 0.932 . S
C141 C140 1.331 . S
C141 C142 1.336 . S
C142 C138 1.394 . S
C142 C141 1.336 . S
C142 H157 0.929 . S
C143 C133 1.386 . S
C143 C136 1.357 . S
C143 H156 0.928 . S
H144 C120 0.931 . S
H145 C122 0.930 . S
H146 C124 0.929 . S
H147 C125 0.931 . S
H148 C127 0.930 . S
H149 C131 0.931 . S
H150 C129 0.931 . S
H151 C133 0.931 . S
H152 C134 0.929 . S
H153 C135 0.930 . S
H154 C138 0.930 . S
H155 C139 0.931 . S
H156 C143 0.928 . S
H157 C142 0.929 . S
H158 C140 0.932 . S
C159 C160 1.386 . S
C159 C161 1.397 . S
C159 H183 0.931 . S
C160 C159 1.386 . S
C160 C164 1.397 . S
C161 C159 1.397 . S
C161 C162 1.384 . S
C161 H184 0.930 . S
C162 C161 1.384 . S
C162 C163 1.377 . S
C162 C165 1.481 . S
C163 C162 1.377 . S
C163 C164 1.389 . S
C163 H185 0.929 . S
C164 C160 1.397 . S
C164 C163 1.389 . S
C164 H186 0.931 . S
C165 C162 1.481 . S
C165 C166 1.387 . S
C165 C170 1.390 . S
C166 C165 1.387 . S
C166 C167 1.401 . S
C166 H187 0.930 . S
C167 C166 1.401 . S
C167 C168 1.376 . S
C167 C176 1.511 . S
C168 C167 1.376 . S
C168 C169 1.392 . S
C168 H189 0.931 . S
C169 C168 1.392 . S
C169 C170 1.361 . S
C169 C171 1.500 . S
C170 C165 1.390 . S
C170 C169 1.361 . S
C170 H188 0.931 . S
C171 C169 1.500 . S
C171 C172 1.371 . S
C171 C173 1.365 . S
C172 C171 1.371 . S
C172 C182 1.386 . S
C172 H190 0.931 . S
C173 C171 1.365 . S
C173 C174 1.409 . S
C173 H191 0.929 . S
C174 C173 1.409 . S
C174 C175 1.380 . S
C174 H192 0.930 . S
C175 C174 1.380 . S
C175 C182 1.357 . S
C176 C167 1.511 . S
C176 C177 1.341 . S
C176 C178 1.371 . S
C177 C176 1.341 . S
C177 C181 1.394 . S
C177 H193 0.930 . S
C178 C176 1.371 . S
C178 C179 1.392 . S
C178 H194 0.931 . S
C179 C178 1.392 . S
C179 C180 1.331 . S
C179 H197 0.932 . S
C180 C179 1.331 . S
C180 C181 1.336 . S
C181 C177 1.394 . S
C181 C180 1.336 . S
C181 H196 0.929 . S
C182 C172 1.386 . S
C182 C175 1.357 . S
C182 H195 0.928 . S
H183 C159 0.931 . S
H184 C161 0.930 . S
H185 C163 0.929 . S
H186 C164 0.931 . S
H187 C166 0.930 . S
H188 C170 0.931 . S
H189 C168 0.931 . S
H190 C172 0.931 . S
H191 C173 0.929 . S
H192 C174 0.930 . S
H193 C177 0.930 . S
H194 C178 0.931 . S
H195 C182 0.928 . S
H196 C181 0.929 . S
H197 C179 0.932 . S
C198 C199 1.381 1_556 S
C198 C200 1.397 . S
C198 H222 0.931 . S
C199 C198 1.381 1_554 S
C199 C203 1.392 1_554 S
C200 C198 1.397 . S
C200 C201 1.384 . S
C200 H223 0.930 . S
C201 C200 1.384 . S
C201 C202 1.377 . S
C201 C204 1.481 . S
C202 C201 1.377 . S
C202 C203 1.389 . S
C202 H224 0.929 1_455 S
C203 C199 1.392 1_556 S
C203 C202 1.389 . S
C203 H225 0.931 1_455 S
C204 C201 1.481 . S
C204 C205 1.387 . S
C204 C209 1.390 . S
C205 C204 1.387 . S
C205 C206 1.401 . S
C205 H226 0.930 . S
C206 C205 1.401 . S
C206 C207 1.376 . S
C206 C215 1.511 . S
C207 C206 1.376 . S
C207 C208 1.392 . S
C207 H228 0.931 . S
C208 C207 1.392 . S
C208 C209 1.361 . S
C208 C210 1.500 1_455 S
C209 C204 1.390 . S
C209 C208 1.361 . S
C209 H227 0.931 . S
C210 C208 1.500 1_655 S
C210 C211 1.371 1_655 S
C210 C212 1.365 . S
C211 C210 1.371 1_455 S
C211 C221 1.386 1_455 S
C211 H229 0.931 . S
C212 C210 1.365 . S
C212 C213 1.409 . S
C212 H230 0.929 . S
C213 C212 1.409 . S
C213 C214 1.380 . S
C213 H231 0.930 . S
C214 C213 1.380 . S
C214 C221 1.357 . S
C215 C206 1.511 . S
C215 C216 1.341 . S
C215 C217 1.371 . S
C216 C215 1.341 . S
C216 C220 1.394 . S
C216 H232 0.930 . S
C217 C215 1.371 . S
C217 C218 1.392 . S
C217 H233 0.931 . S
C218 C217 1.392 . S
C218 C219 1.331 . S
C218 H236 0.932 . S
C219 C218 1.331 . S
C219 C220 1.336 . S
C220 C216 1.394 . S
C220 C219 1.336 . S
C220 H235 0.929 . S
C221 C211 1.386 1_655 S
C221 C214 1.357 . S
C221 H234 0.928 . S
H222 C198 0.931 . S
H223 C200 0.930 . S
H224 C202 0.929 1_655 S
H225 C203 0.931 1_655 S
H226 C205 0.930 . S
H227 C209 0.931 . S
H228 C207 0.931 . S
H229 C211 0.931 . S
H230 C212 0.929 . S
H231 C213 0.930 . S
H232 C216 0.930 . S
H233 C217 0.931 . S
H234 C221 0.928 . S
H235 C220 0.929 . S
H236 C218 0.932 . S
C237 C238 1.405 . S
C237 C239 1.397 . S
C237 H261 0.931 . S
C238 C237 1.405 . S
C238 C242 1.379 1_655 S
C239 C237 1.397 . S
C239 C240 1.384 . S
C239 H262 0.930 . S
C240 C239 1.384 . S
C240 C241 1.377 1_655 S
C240 C243 1.481 . S
C241 C240 1.377 1_455 S
C241 C242 1.389 . S
C241 H263 0.929 . S
C242 C238 1.379 1_455 S
C242 C241 1.389 . S
C242 H264 0.931 . S
C243 C240 1.481 . S
C243 C244 1.387 . S
C243 C248 1.390 1_655 S
C244 C243 1.387 . S
C244 C245 1.401 . S
C244 H265 0.930 . S
C245 C244 1.401 . S
C245 C246 1.376 . S
C245 C254 1.511 . S
C246 C245 1.376 . S
C246 C247 1.392 1_655 S
C246 H267 0.931 . S
C247 C246 1.392 1_455 S
C247 C248 1.361 . S
C247 C249 1.500 . S
C248 C243 1.390 1_455 S
C248 C247 1.361 . S
C248 H266 0.931 . S
C249 C247 1.500 . S
C249 C250 1.371 . S
C249 C251 1.365 . S
C250 C249 1.371 . S
C250 C260 1.386 . S
C250 H268 0.931 . S
C251 C249 1.365 . S
C251 C252 1.409 . S
C251 H269 0.929 . S
C252 C251 1.409 . S
C252 C253 1.380 . S
C252 H270 0.930 . S
C253 C252 1.380 . S
C253 C260 1.357 . S
C254 C245 1.511 . S
C254 C255 1.341 . S
C254 C256 1.371 . S
C255 C254 1.341 . S
C255 C259 1.394 . S
C255 H271 0.930 . S
C256 C254 1.371 . S
C256 C257 1.392 . S
C256 H272 0.931 . S
C257 C256 1.392 . S
C257 C258 1.331 . S
C257 H275 0.932 . S
C258 C257 1.331 . S
C258 C259 1.336 . S
C259 C255 1.394 . S
C259 C258 1.336 . S
C259 H274 0.929 . S
C260 C250 1.386 . S
C260 C253 1.357 . S
C260 H273 0.928 . S
H261 C237 0.931 . S
H262 C239 0.930 . S
H263 C241 0.929 . S
H264 C242 0.931 . S
H265 C244 0.930 . S
H266 C248 0.931 . S
H267 C246 0.931 . S
H268 C250 0.931 . S
H269 C251 0.929 . S
H270 C252 0.930 . S
H271 C255 0.930 . S
H272 C256 0.931 . S
H273 C260 0.928 . S
H274 C259 0.929 . S
H275 C257 0.932 . S
C276 C277 1.386 . S
C276 C278 1.397 . S
C276 H300 0.931 . S
C277 C276 1.386 . S
C277 C281 1.397 1_565 S
C278 C276 1.397 . S
C278 C279 1.384 . S
C278 H301 0.930 . S
C279 C278 1.384 . S
C279 C280 1.377 1_565 S
C279 C282 1.481 . S
C280 C279 1.377 1_545 S
C280 C281 1.389 . S
C280 H302 0.929 . S
C281 C277 1.397 1_545 S
C281 C280 1.389 . S
C281 H303 0.931 . S
C282 C279 1.481 . S
C282 C283 1.387 . S
C282 C287 1.390 1_565 S
C283 C282 1.387 . S
C283 C284 1.401 . S
C283 H304 0.930 . S
C284 C283 1.401 . S
C284 C285 1.376 1_565 S
C284 C293 1.511 . S
C285 C284 1.376 1_545 S
C285 C286 1.392 . S
C285 H306 0.931 . S
C286 C285 1.392 . S
C286 C287 1.361 . S
C286 C288 1.500 . S
C287 C282 1.390 1_545 S
C287 C286 1.361 . S
C287 H305 0.931 . S
C288 C286 1.500 . S
C288 C289 1.371 . S
C288 C290 1.365 . S
C289 C288 1.371 . S
C289 C299 1.386 . S
C289 H307 0.931 . S
C290 C288 1.365 . S
C290 C291 1.409 . S
C290 H308 0.929 . S
C291 C290 1.409 . S
C291 C292 1.380 . S
C291 H309 0.930 . S
C292 C291 1.380 . S
C292 C299 1.357 . S
C293 C284 1.511 . S
C293 C294 1.341 . S
C293 C295 1.371 . S
C294 C293 1.341 . S
C294 C298 1.394 . S
C294 H310 0.930 . S
C295 C293 1.371 . S
C295 C296 1.392 . S
C295 H311 0.931 . S
C296 C295 1.392 . S
C296 C297 1.331 . S
C296 H314 0.932 . S
C297 C296 1.331 . S
C297 C298 1.336 . S
C298 C294 1.394 . S
C298 C297 1.336 . S
C298 H313 0.929 . S
C299 C289 1.386 . S
C299 C292 1.357 . S
C299 H312 0.928 . S
H300 C276 0.931 . S
H301 C278 0.930 . S
H302 C280 0.929 . S
H303 C281 0.931 . S
H304 C283 0.930 . S
H305 C287 0.931 . S
H306 C285 0.931 . S
H307 C289 0.931 . S
H308 C290 0.929 . S
H309 C291 0.930 . S
H310 C294 0.930 . S
H311 C295 0.931 . S
H312 C299 0.928 . S
H313 C298 0.929 . S
H314 C296 0.932 . S
C315 C316 1.386 . S
C315 C317 1.397 1_556 S
C315 H339 0.931 . S
C316 C315 1.386 . S
C316 C320 1.397 . S
C317 C315 1.397 1_554 S
C317 C318 1.384 . S
C317 H340 0.930 . S
C318 C317 1.384 . S
C318 C319 1.377 . S
C318 C321 1.481 . S
C319 C318 1.377 . S
C319 C320 1.389 1_554 S
C319 H341 0.929 . S
C320 C316 1.397 . S
C320 C319 1.389 1_556 S
C320 H342 0.931 . S
C321 C318 1.481 . S
C321 C322 1.387 . S
C321 C326 1.390 . S
C322 C321 1.387 . S
C322 C323 1.401 . S
C322 H343 0.930 . S
C323 C322 1.401 . S
C323 C324 1.376 . S
C323 C332 1.511 . S
C324 C323 1.376 . S
C324 C325 1.392 . S
C324 H345 0.931 . S
C325 C324 1.392 . S
C325 C326 1.361 . S
C325 C327 1.500 . S
C326 C321 1.390 . S
C326 C325 1.361 . S
C326 H344 0.931 . S
C327 C325 1.500 . S
C327 C328 1.371 . S
C327 C329 1.365 . S
C328 C327 1.371 . S
C328 C338 1.386 . S
C328 H346 0.931 . S
C329 C327 1.365 . S
C329 C330 1.409 . S
C329 H347 0.929 . S
C330 C329 1.409 . S
C330 C331 1.380 . S
C330 H348 0.930 . S
C331 C330 1.380 . S
C331 C338 1.357 . S
C332 C323 1.511 . S
C332 C333 1.341 . S
C332 C334 1.371 . S
C333 C332 1.341 . S
C333 C337 1.394 . S
C333 H349 0.930 . S
C334 C332 1.371 . S
C334 C335 1.392 . S
C334 H350 0.931 . S
C335 C334 1.392 . S
C335 C336 1.331 . S
C335 H353 0.932 . S
C336 C335 1.331 . S
C336 C337 1.336 . S
C337 C333 1.394 . S
C337 C336 1.336 . S
C337 H352 0.929 . S
C338 C328 1.386 . S
C338 C331 1.357 . S
C338 H351 0.928 . S
H339 C315 0.931 . S
H340 C317 0.930 . S
H341 C319 0.929 . S
H342 C320 0.931 . S
H343 C322 0.930 . S
H344 C326 0.931 . S
H345 C324 0.931 . S
H346 C328 0.931 . S
H347 C329 0.929 . S
H348 C330 0.930 . S
H349 C333 0.930 . S
H350 C334 0.931 . S
H351 C338 0.928 . S
H352 C337 0.929 . S
H353 C335 0.932 . S
C354 C355 1.363 . S
C354 C360 1.379 . S
C354 N362 1.356 . S
C355 C354 1.363 . S
C355 C361 1.363 . S
C356 C357 1.363 . S
C356 C361 1.379 . S
C356 N363 1.356 . S
C357 C356 1.363 . S
C357 C360 1.363 . S
N358 C360 1.356 . S
N358 H370 0.984 . S
N358 H371 0.985 . S
N359 C361 1.356 . S
N359 H364 0.984 . S
N359 H365 0.985 . S
C360 C354 1.379 . S
C360 C357 1.363 . S
C360 N358 1.356 . S
C361 C355 1.363 . S
C361 C356 1.379 . S
C361 N359 1.356 . S
N362 C354 1.356 . S
N362 H368 0.984 . S
N362 H369 0.984 . S
N363 C356 1.356 . S
N363 H366 0.984 . S
N363 H367 0.985 . S
H364 N359 0.984 . S
H365 N359 0.985 . S
H366 N363 0.984 . S
H367 N363 0.985 . S
H368 N362 0.984 . S
H369 N362 0.984 . S
H370 N358 0.984 . S
H371 N358 0.985 . S
C372 C373 1.363 . S
C372 C378 1.379 . S
C372 N380 1.356 . S
C373 C372 1.363 . S
C373 C379 1.363 . S
C374 C375 1.363 . S
C374 C379 1.379 . S
C374 N381 1.356 . S
C375 C374 1.363 . S
C375 C378 1.363 . S
N376 C378 1.356 . S
N376 H388 0.984 . S
N376 H389 0.985 . S
N377 C379 1.356 . S
N377 H382 0.984 . S
N377 H383 0.985 . S
C378 C372 1.379 . S
C378 C375 1.363 . S
C378 N376 1.356 . S
C379 C373 1.363 . S
C379 C374 1.379 . S
C379 N377 1.356 . S
N380 C372 1.356 . S
N380 H386 0.984 . S
N380 H387 0.984 . S
N381 C374 1.356 . S
N381 H384 0.984 . S
N381 H385 0.985 . S
H382 N377 0.984 . S
H383 N377 0.985 . S
H384 N381 0.984 . S
H385 N381 0.985 . S
H386 N380 0.984 . S
H387 N380 0.984 . S
H388 N376 0.984 . S
H389 N376 0.985 . S
C390 C391 1.363 . S
C390 C396 1.379 . S
C390 N398 1.356 . S
C391 C390 1.363 . S
C391 C397 1.363 . S
C392 C393 1.363 . S
C392 C397 1.379 . S
C392 N399 1.356 . S
C393 C392 1.363 . S
C393 C396 1.363 . S
N394 C396 1.356 . S
N394 H406 0.984 . S
N394 H407 0.985 . S
N395 C397 1.356 . S
N395 H400 0.984 . S
N395 H401 0.985 . S
C396 C390 1.379 . S
C396 C393 1.363 . S
C396 N394 1.356 . S
C397 C391 1.363 . S
C397 C392 1.379 . S
C397 N395 1.356 . S
N398 C390 1.356 . S
N398 H404 0.984 . S
N398 H405 0.984 . S
N399 C392 1.356 . S
N399 H402 0.984 . S
N399 H403 0.985 . S
H400 N395 0.984 . S
H401 N395 0.985 . S
H402 N399 0.984 . S
H403 N399 0.985 . S
H404 N398 0.984 . S
H405 N398 0.984 . S
H406 N394 0.984 . S
H407 N394 0.985 . S
C408 C409 1.363 . S
C408 C414 1.379 . S
C408 N416 1.356 . S
C409 C408 1.363 . S
C409 C415 1.363 . S
C410 C411 1.363 . S
C410 C415 1.379 . S
C410 N417 1.356 . S
C411 C410 1.363 . S
C411 C414 1.363 . S
N412 C414 1.356 . S
N412 H424 0.984 . S
N412 H425 0.985 . S
N413 C415 1.356 . S
N413 H418 0.984 . S
N413 H419 0.985 . S
C414 C408 1.379 . S
C414 C411 1.363 . S
C414 N412 1.356 . S
C415 C409 1.363 . S
C415 C410 1.379 . S
C415 N413 1.356 . S
N416 C408 1.356 . S
N416 H422 0.984 . S
N416 H423 0.984 . S
N417 C410 1.356 . S
N417 H420 0.984 . S
N417 H421 0.985 . S
H418 N413 0.984 . S
H419 N413 0.985 . S
H420 N417 0.984 . S
H421 N417 0.985 . S
H422 N416 0.984 . S
H423 N416 0.984 . S
H424 N412 0.984 . S
H425 N412 0.985 . S
C426 C427 1.363 . S
C426 C432 1.379 . S
C426 N434 1.356 . S
C427 C426 1.363 . S
C427 C433 1.363 . S
C428 C429 1.363 . S
C428 C433 1.379 . S
C428 N435 1.356 . S
C429 C428 1.363 . S
C429 C432 1.363 . S
N430 C432 1.356 . S
N430 H442 0.984 . S
N430 H443 0.985 . S
N431 C433 1.356 . S
N431 H436 0.984 . S
N431 H437 0.985 . S
C432 C426 1.379 . S
C432 C429 1.363 . S
C432 N430 1.356 . S
C433 C427 1.363 . S
C433 C428 1.379 . S
C433 N431 1.356 . S
N434 C426 1.356 . S
N434 H440 0.984 . S
N434 H441 0.984 . S
N435 C428 1.356 . S
N435 H438 0.984 . S
N435 H439 0.985 . S
H436 N431 0.984 . S
H437 N431 0.985 . S
H438 N435 0.984 . S
H439 N435 0.985 . S
H440 N434 0.984 . S
H441 N434 0.984 . S
H442 N430 0.984 . S
H443 N430 0.985 . S
C444 C445 1.363 . S
C444 C450 1.379 . S
C444 N452 1.356 . S
C445 C444 1.363 . S
C445 C451 1.363 . S
C446 C447 1.363 . S
C446 C451 1.379 . S
C446 N453 1.356 . S
C447 C446 1.363 . S
C447 C450 1.363 . S
N448 C450 1.356 . S
N448 H460 0.984 . S
N448 H461 0.985 . S
N449 C451 1.356 . S
N449 H454 0.984 . S
N449 H455 0.985 . S
C450 C444 1.379 . S
C450 C447 1.363 . S
C450 N448 1.356 . S
C451 C445 1.363 . S
C451 C446 1.379 . S
C451 N449 1.356 . S
N452 C444 1.356 . S
N452 H458 0.984 . S
N452 H459 0.984 . S
N453 C446 1.356 . S
N453 H456 0.984 . S
N453 H457 0.985 . S
H454 N449 0.984 . S
H455 N449 0.985 . S
H456 N453 0.984 . S
H457 N453 0.985 . S
H458 N452 0.984 . S
H459 N452 0.984 . S
H460 N448 0.984 . S
H461 N448 0.985 . S
C462 C463 1.363 . S
C462 C468 1.379 . S
C462 N470 1.356 . S
C463 C462 1.363 . S
C463 C469 1.363 . S
C464 C465 1.363 . S
C464 C469 1.379 . S
C464 N471 1.356 . S
C465 C464 1.363 . S
C465 C468 1.363 . S
N466 C468 1.356 . S
N466 H478 0.984 . S
N466 H479 0.985 . S
N467 C469 1.356 . S
N467 H472 0.984 . S
N467 H473 0.985 . S
C468 C462 1.379 . S
C468 C465 1.363 . S
C468 N466 1.356 . S
C469 C463 1.363 . S
C469 C464 1.379 . S
C469 N467 1.356 . S
N470 C462 1.356 . S
N470 H476 0.984 . S
N470 H477 0.984 . S
N471 C464 1.356 . S
N471 H474 0.984 . S
N471 H475 0.985 . S
H472 N467 0.984 . S
H473 N467 0.985 . S
H474 N471 0.984 . S
H475 N471 0.985 . S
H476 N470 0.984 . S
H477 N470 0.984 . S
H478 N466 0.984 . S
H479 N466 0.985 . S
C480 C481 1.363 . S
C480 C486 1.379 . S
C480 N488 1.356 . S
C481 C480 1.363 . S
C481 C487 1.363 . S
C482 C483 1.363 . S
C482 C487 1.379 . S
C482 N489 1.356 . S
C483 C482 1.363 . S
C483 C486 1.363 . S
N484 C486 1.356 . S
N484 H496 0.984 . S
N484 H497 0.985 . S
N485 C487 1.356 . S
N485 H490 0.984 . S
N485 H491 0.985 . S
C486 C480 1.379 . S
C486 C483 1.363 . S
C486 N484 1.356 . S
C487 C481 1.363 . S
C487 C482 1.379 . S
C487 N485 1.356 . S
N488 C480 1.356 . S
N488 H494 0.984 . S
N488 H495 0.984 . S
N489 C482 1.356 . S
N489 H492 0.984 . S
N489 H493 0.985 . S
H490 N485 0.984 . S
H491 N485 0.985 . S
H492 N489 0.984 . S
H493 N489 0.985 . S
H494 N488 0.984 . S
H495 N488 0.984 . S
H496 N484 0.984 . S
H497 N484 0.985 . S
C498 C499 1.363 . S
C498 C504 1.379 . S
C498 N506 1.356 . S
C499 C498 1.363 . S
C499 C505 1.363 . S
C500 C501 1.363 . S
C500 C505 1.379 . S
C500 N507 1.356 . S
C501 C500 1.363 . S
C501 C504 1.363 . S
N502 C504 1.356 . S
N502 H514 0.984 . S
N502 H515 0.985 . S
N503 C505 1.356 . S
N503 H508 0.984 . S
N503 H509 0.985 . S
C504 C498 1.379 . S
C504 C501 1.363 . S
C504 N502 1.356 . S
C505 C499 1.363 . S
C505 C500 1.379 . S
C505 N503 1.356 . S
N506 C498 1.356 . S
N506 H512 0.984 . S
N506 H513 0.984 . S
N507 C500 1.356 . S
N507 H510 0.984 . S
N507 H511 0.985 . S
H508 N503 0.984 . S
H509 N503 0.985 . S
H510 N507 0.984 . S
H511 N507 0.985 . S
H512 N506 0.984 . S
H513 N506 0.984 . S
H514 N502 0.984 . S
H515 N502 0.985 . S
C516 C517 1.363 . S
C516 C522 1.379 . S
C516 N524 1.356 . S
C517 C516 1.363 . S
C517 C523 1.363 . S
C518 C519 1.363 . S
C518 C523 1.379 . S
C518 N525 1.356 . S
C519 C518 1.363 . S
C519 C522 1.363 . S
N520 C522 1.356 . S
N520 H532 0.984 . S
N520 H533 0.985 . S
N521 C523 1.356 . S
N521 H526 0.984 . S
N521 H527 0.985 . S
C522 C516 1.379 . S
C522 C519 1.363 . S
C522 N520 1.356 . S
C523 C517 1.363 . S
C523 C518 1.379 . S
C523 N521 1.356 . S
N524 C516 1.356 . S
N524 H530 0.984 . S
N524 H531 0.984 . S
N525 C518 1.356 . S
N525 H528 0.984 . S
N525 H529 0.985 . S
H526 N521 0.984 . S
H527 N521 0.985 . S
H528 N525 0.984 . S
H529 N525 0.985 . S
H530 N524 0.984 . S
H531 N524 0.984 . S
H532 N520 0.984 . S
H533 N520 0.985 . S
C534 C535 1.363 . S
C534 C540 1.379 . S
C534 N542 1.356 . S
C535 C534 1.363 . S
C535 C541 1.363 . S
C536 C537 1.363 . S
C536 C541 1.379 . S
C536 N543 1.356 . S
C537 C536 1.363 . S
C537 C540 1.363 . S
N538 C540 1.356 . S
N538 H550 0.984 . S
N538 H551 0.985 . S
N539 C541 1.356 . S
N539 H544 0.984 . S
N539 H545 0.985 . S
C540 C534 1.379 . S
C540 C537 1.363 . S
C540 N538 1.356 . S
C541 C535 1.363 . S
C541 C536 1.379 . S
C541 N539 1.356 . S
N542 C534 1.356 . S
N542 H548 0.984 . S
N542 H549 0.984 . S
N543 C536 1.356 . S
N543 H546 0.984 . S
N543 H547 0.985 . S
H544 N539 0.984 . S
H545 N539 0.985 . S
H546 N543 0.984 . S
H547 N543 0.985 . S
H548 N542 0.984 . S
H549 N542 0.984 . S
H550 N538 0.984 . S
H551 N538 0.985 . S
C552 C553 1.363 . S
C552 C558 1.379 . S
C552 N560 1.356 . S
C553 C552 1.363 . S
C553 C559 1.363 . S
C554 C555 1.363 . S
C554 C559 1.379 . S
C554 N561 1.356 . S
C555 C554 1.363 . S
C555 C558 1.363 . S
N556 C558 1.356 . S
N556 H568 0.984 . S
N556 H569 0.985 . S
N557 C559 1.356 . S
N557 H562 0.984 . S
N557 H563 0.985 . S
C558 C552 1.379 . S
C558 C555 1.363 . S
C558 N556 1.356 . S
C559 C553 1.363 . S
C559 C554 1.379 . S
C559 N557 1.356 . S
N560 C552 1.356 . S
N560 H566 0.984 . S
N560 H567 0.984 . S
N561 C554 1.356 . S
N561 H564 0.984 . S
N561 H565 0.985 . S
H562 N557 0.984 . S
H563 N557 0.985 . S
H564 N561 0.984 . S
H565 N561 0.985 . S
H566 N560 0.984 . S
H567 N560 0.984 . S
H568 N556 0.984 . S
H569 N556 0.985 . S
C570 C571 1.363 . S
C570 C576 1.379 . S
C570 N578 1.356 . S
C571 C570 1.363 . S
C571 C577 1.363 . S
C572 C573 1.363 . S
C572 C577 1.379 . S
C572 N579 1.356 . S
C573 C572 1.363 . S
C573 C576 1.363 . S
N574 C576 1.356 . S
N574 H586 0.984 . S
N574 H587 0.985 . S
N575 C577 1.356 . S
N575 H580 0.984 . S
N575 H581 0.985 . S
C576 C570 1.379 . S
C576 C573 1.363 . S
C576 N574 1.356 . S
C577 C571 1.363 . S
C577 C572 1.379 . S
C577 N575 1.356 . S
N578 C570 1.356 . S
N578 H584 0.984 . S
N578 H585 0.984 . S
N579 C572 1.356 . S
N579 H582 0.984 . S
N579 H583 0.985 . S
H580 N575 0.984 . S
H581 N575 0.985 . S
H582 N579 0.984 . S
H583 N579 0.985 . S
H584 N578 0.984 . S
H585 N578 0.984 . S
H586 N574 0.984 . S
H587 N574 0.985 . S
C588 C589 1.363 . S
C588 C594 1.379 . S
C588 N596 1.356 . S
C589 C588 1.363 . S
C589 C595 1.363 1_545 S
C590 C591 1.363 1_565 S
C590 C595 1.379 . S
C590 N597 1.356 . S
C591 C590 1.363 1_545 S
C591 C594 1.363 . S
N592 C594 1.356 . S
N592 H604 0.984 . S
N592 H605 0.985 . S
N593 C595 1.356 . S
N593 H598 0.984 . S
N593 H599 0.985 . S
C594 C588 1.379 . S
C594 C591 1.363 . S
C594 N592 1.356 . S
C595 C589 1.363 1_565 S
C595 C590 1.379 . S
C595 N593 1.356 . S
N596 C588 1.356 . S
N596 H602 0.984 . S
N596 H603 0.984 . S
N597 C590 1.356 . S
N597 H600 0.984 . S
N597 H601 0.985 . S
H598 N593 0.984 . S
H599 N593 0.985 . S
H600 N597 0.984 . S
H601 N597 0.985 . S
H602 N596 0.984 . S
H603 N596 0.984 . S
H604 N592 0.984 . S
H605 N592 0.985 . S
C606 C607 1.363 . S
C606 C612 1.379 . S
C606 N614 1.356 . S
C607 C606 1.363 . S
C607 C613 1.363 . S
C608 C609 1.363 . S
C608 C613 1.379 . S
C608 N615 1.356 . S
C609 C608 1.363 . S
C609 C612 1.363 . S
N610 C612 1.356 . S
N610 H622 0.984 . S
N610 H623 0.985 . S
N611 C613 1.356 . S
N611 H616 0.984 . S
N611 H617 0.985 . S
C612 C606 1.379 . S
C612 C609 1.363 . S
C612 N610 1.356 . S
C613 C607 1.363 . S
C613 C608 1.379 . S
C613 N611 1.356 . S
N614 C606 1.356 . S
N614 H620 0.984 . S
N614 H621 0.984 . S
N615 C608 1.356 . S
N615 H618 0.984 . S
N615 H619 0.985 . S
H616 N611 0.984 . S
H617 N611 0.985 . S
H618 N615 0.984 . S
H619 N615 0.985 . S
H620 N614 0.984 . S
H621 N614 0.984 . S
H622 N610 0.984 . S
H623 N610 0.985 . S
C624 C625 1.363 . S
C624 C630 1.379 . S
C624 N632 1.356 . S
C625 C624 1.363 . S
C625 C631 1.363 1_545 S
C626 C627 1.363 . S
C626 C631 1.379 . S
C626 N633 1.356 . S
C627 C626 1.363 . S
C627 C630 1.363 1_565 S
N628 C630 1.356 . S
N628 H640 0.984 . S
N628 H641 0.985 . S
N629 C631 1.356 . S
N629 H634 0.984 . S
N629 H635 0.985 . S
C630 C624 1.379 . S
C630 C627 1.363 1_545 S
C630 N628 1.356 . S
C631 C625 1.363 1_565 S
C631 C626 1.379 . S
C631 N629 1.356 . S
N632 C624 1.356 . S
N632 H638 0.984 . S
N632 H639 0.984 . S
N633 C626 1.356 . S
N633 H636 0.984 . S
N633 H637 0.985 . S
H634 N629 0.984 . S
H635 N629 0.985 . S
H636 N633 0.984 . S
H637 N633 0.985 . S
H638 N632 0.984 . S
H639 N632 0.984 . S
H640 N628 0.984 . S
H641 N628 0.985 . S
C642 C643 1.363 . S
C642 C648 1.379 . S
C642 N650 1.356 . S
C643 C642 1.363 . S
C643 C649 1.363 . S
C644 C645 1.363 . S
C644 C649 1.379 . S
C644 N651 1.356 . S
C645 C644 1.363 . S
C645 C648 1.363 . S
N646 C648 1.356 . S
N646 H658 0.984 . S
N646 H659 0.985 . S
N647 C649 1.356 . S
N647 H652 0.984 . S
N647 H653 0.985 . S
C648 C642 1.379 . S
C648 C645 1.363 . S
C648 N646 1.356 . S
C649 C643 1.363 . S
C649 C644 1.379 . S
C649 N647 1.356 . S
N650 C642 1.356 . S
N650 H656 0.984 . S
N650 H657 0.984 . S
N651 C644 1.356 . S
N651 H654 0.984 . S
N651 H655 0.985 . S
H652 N647 0.984 . S
H653 N647 0.985 . S
H654 N651 0.984 . S
H655 N651 0.985 . S
H656 N650 0.984 . S
H657 N650 0.984 . S
H658 N646 0.984 . S
H659 N646 0.985 . S
C660 C661 1.363 1_655 S
C660 C666 1.379 . S
C660 N668 1.356 . S
C661 C660 1.363 1_455 S
C661 C667 1.363 . S
C662 C663 1.363 . S
C662 C667 1.379 . S
C662 N669 1.356 . S
C663 C662 1.363 . S
C663 C666 1.363 1_455 S
N664 C666 1.356 . S
N664 H676 0.984 . S
N664 H677 0.985 . S
N665 C667 1.356 . S
N665 H670 0.984 . S
N665 H671 0.985 . S
C666 C660 1.379 . S
C666 C663 1.363 1_655 S
C666 N664 1.356 . S
C667 C661 1.363 . S
C667 C662 1.379 . S
C667 N665 1.356 . S
N668 C660 1.356 . S
N668 H674 0.984 . S
N668 H675 0.984 . S
N669 C662 1.356 . S
N669 H672 0.984 . S
N669 H673 0.985 . S
H670 N665 0.984 . S
H671 N665 0.985 . S
H672 N669 0.984 . S
H673 N669 0.985 . S
H674 N668 0.984 . S
H675 N668 0.984 . S
H676 N664 0.984 . S
H677 N664 0.985 . S
C355 C7 0.986 . S
C357 C331 1.057 . S
C373 C51 2.024 . S
C375 C258 1.959 . S
C391 C87 1.360 . S
C393 C297 1.409 . S
C409 C16 0.639 . S
C411 C336 0.571 . S
C429 C253 2.072 . S
C427 C42 2.181 . S
C447 C292 1.404 . S
C445 C96 1.386 . S
C463 C47 1.281 . S
C465 C180 1.311 . S
C481 C91 3.205 . S
C483 C214 3.130 . S
C499 C2 2.219 . S
C501 C136 2.129 . S
C519 C175 1.412 . S
C517 C56 1.377 . S
C537 C219 3.033 . S
C535 C82 3.099 . S
C553 C11 2.020 . S
C555 C141 1.967 . S
C573 C199 1.802 . S
C571 C19 1.720 . S
C589 C50 1.337 . S
C591 C121 1.375 . S
C607 C99 1.462 . S
C609 C160 1.512 . S
C627 C277 1.493 . S
C625 C59 1.458 . S
C645 C316 1.130 . S
C643 C90 1.140 . S
C661 C10 1.331 . S
C663 C238 1.358 1_455 S
