# Generated by pormake.
# Topology anh, (6,3)-cn, num edge types: 1
# Building blocks:
#     Node 0, Type 0, BuildingBlock: PAMTUU_clean_sbu_0, # of connection points: 6
#     Node 1, Type 0, BuildingBlock: PAMTUU_clean_sbu_0, # of connection points: 6
#     Node 2, Type 0, BuildingBlock: PAMTUU_clean_sbu_0, # of connection points: 6
#     Node 3, Type 1, BuildingBlock: KAKCAD_clean_linker_0, # of connection points: 3
#     Node 4, Type 1, BuildingBlock: KAKCAD_clean_linker_0, # of connection points: 3
#     Node 5, Type 1, BuildingBlock: KAKCAD_clean_linker_0, # of connection points: 3
#     Node 6, Type 1, BuildingBlock: KAKCAD_clean_linker_0, # of connection points: 3
#     Node 7, Type 1, BuildingBlock: KAKCAD_clean_linker_0, # of connection points: 3
#     Node 8, Type 1, BuildingBlock: KAKCAD_clean_linker_0, # of connection points: 3
#     Edge 9, Type (0, 1), BuildingBlock: EZIPEK_clean_linker_0, # of connection points: 2
#     Edge 10, Type (0, 1), BuildingBlock: EZIPEK_clean_linker_0, # of connection points: 2
#     Edge 11, Type (0, 1), BuildingBlock: EZIPEK_clean_linker_0, # of connection points: 2
#     Edge 12, Type (0, 1), BuildingBlock: EZIPEK_clean_linker_0, # of connection points: 2
#     Edge 13, Type (0, 1), BuildingBlock: EZIPEK_clean_linker_0, # of connection points: 2
#     Edge 14, Type (0, 1), BuildingBlock: EZIPEK_clean_linker_0, # of connection points: 2
#     Edge 15, Type (0, 1), BuildingBlock: EZIPEK_clean_linker_0, # of connection points: 2
#     Edge 16, Type (0, 1), BuildingBlock: EZIPEK_clean_linker_0, # of connection points: 2
#     Edge 17, Type (0, 1), BuildingBlock: EZIPEK_clean_linker_0, # of connection points: 2
#     Edge 18, Type (0, 1), BuildingBlock: EZIPEK_clean_linker_0, # of connection points: 2
#     Edge 19, Type (0, 1), BuildingBlock: EZIPEK_clean_linker_0, # of connection points: 2
#     Edge 20, Type (0, 1), BuildingBlock: EZIPEK_clean_linker_0, # of connection points: 2
#     Edge 21, Type (0, 1), BuildingBlock: EZIPEK_clean_linker_0, # of connection points: 2
#     Edge 22, Type (0, 1), BuildingBlock: EZIPEK_clean_linker_0, # of connection points: 2
#     Edge 23, Type (0, 1), BuildingBlock: EZIPEK_clean_linker_0, # of connection points: 2
#     Edge 24, Type (0, 1), BuildingBlock: EZIPEK_clean_linker_0, # of connection points: 2
#     Edge 25, Type (0, 1), BuildingBlock: EZIPEK_clean_linker_0, # of connection points: 2
#     Edge 26, Type (0, 1), BuildingBlock: EZIPEK_clean_linker_0, # of connection points: 2
# Relax obj value: 0.302
# Max RMSD: 0.198
# Mean RMSD: 0.163
data_MOF--net-anh--node1-PAMTUU_clean_sbu_0--node2-KAKCAD_clean_linker_0--edge1-EZIPEK_clean_linker_0
_symmetry_space_group_name_H-M    P1
_symmetry_Int_Tables_number       1
_symmetry_cell_setting            triclinic
loop_
_symmetry_equiv_pos_as_xyz
'x, y, z'
_cell_length_a     29.40739
_cell_length_b     29.518693
_cell_length_c     52.40981
_cell_angle_alpha  93.093809
_cell_angle_beta   91.080921
_cell_angle_gamma 120.09016
loop_
_atom_site_label
_atom_site_type_symbol
_atom_site_fract_x
_atom_site_fract_y
_atom_site_fract_z
_atom_type_partial_charge
Tb0 Tb 0.11517 0.65746 0.16022 0.0
Tb1 Tb 0.1757 0.59557 0.17215 0.0
C2 C 0.16129 0.62085 0.11424 0.0
C3 C 1.01126 0.6863 0.16807 0.0
C4 C 0.9111 0.62459 0.18673 0.0
C5 C 0.91652 0.64349 0.16225 0.0
C6 C 0.96629 0.67424 0.153 0.0
C7 C 1.00595 0.67271 0.19366 0.0
C8 C 0.95606 0.64236 0.20301 0.0
C9 C 1.06031 0.70017 0.15538 0.0
O10 O 1.0483 0.57501 0.16624 0.0
O11 O 1.09196 0.53008 0.17203 0.0
O12 O 0.14313 0.59972 0.20844 0.0
O13 O 0.12652 0.66594 0.20136 0.0
O14 O 0.18182 0.52836 0.16603 0.0
O15 O 0.23649 0.5926 0.19236 0.0
O16 O 0.23994 0.68064 0.17788 0.0
O17 O 0.20011 0.72149 0.15957 0.0
O18 O 0.13368 0.64232 0.12185 0.0
O19 O 0.18179 0.60245 0.13048 0.0
C20 C 1.04685 0.52999 0.17034 0.0
O21 O 0.10305 0.7205 0.17013 0.0
O22 O 1.05695 0.66327 0.13929 0.0
C23 C 0.13075 0.63459 0.21652 0.0
C24 C 0.26629 0.54144 0.17038 0.0
C25 C 0.33575 0.51939 0.14442 0.0
C26 C 0.30404 0.48603 0.16259 0.0
C27 C 0.2695 0.49709 0.17556 0.0
C28 C 0.29932 0.57597 0.15284 0.0
C29 C 0.33435 0.56513 0.13999 0.0
C30 C 0.22392 0.5471 0.1811 0.0
C31 C 0.24332 0.72438 0.17 0.0
H32 H 0.88232 0.63026 0.14932 0.0
H33 H 0.96945 0.68405 0.13324 0.0
H34 H 1.04004 0.68149 0.20577 0.0
H35 H 0.95269 0.62892 0.22207 0.0
H36 H 0.30496 0.45066 0.16614 0.0
H37 H 0.2438 0.46994 0.18889 0.0
H38 H 0.29663 0.61003 0.14846 0.0
H39 H 0.35877 0.59108 0.12594 0.0
Tb40 Tb 0.59363 1.04764 0.48657 0.0
Tb41 Tb 0.71538 0.10948 0.50066 0.0
C42 C 0.67183 0.09023 0.44352 0.0
C43 C 0.45104 1.00484 0.48127 0.0
C44 C 0.36143 1.00982 0.49405 0.0
C45 C 0.35932 0.97709 0.47306 0.0
C46 C 0.4038 0.97465 0.46671 0.0
C47 C 0.45392 1.03881 0.50192 0.0
C48 C 0.40917 1.04144 0.50827 0.0
C49 C 0.49618 0.99905 0.47489 0.0
O50 O 0.61026 0.98305 0.49632 0.0
O51 O 0.69935 1.02648 0.49413 0.0
O52 O 0.67631 0.07255 0.53491 0.0
O53 O 0.60092 0.07366 0.52647 0.0
O54 O 0.79226 0.1311 0.49088 0.0
O55 O 0.77729 0.15645 0.52762 0.0
O56 O 0.69581 0.17391 0.50681 0.0
O57 O 0.61206 0.13223 0.48867 0.0
O58 O 0.63052 1.04846 0.45081 0.0
O59 O 0.70616 0.12508 0.46082 0.0
C60 C 0.65486 0.98147 0.4966 0.0
O61 O 0.53119 1.03505 0.46148 0.0
O62 O 0.51772 0.98752 0.49348 0.0
C63 C 0.63331 0.07056 0.54265 0.0
C64 C 0.85018 0.21794 0.50745 0.0
C65 C 0.90875 0.32694 0.50457 0.0
C66 C 0.9194 0.30377 0.52477 0.0
C67 C 0.89002 0.24934 0.52624 0.0
C68 C 0.84132 0.24122 0.48671 0.0
C69 C 0.87055 0.29534 0.48526 0.0
C70 C 0.81283 0.16288 0.51147 0.0
C71 C 0.65371 0.17629 0.49903 0.0
H72 H 0.3227 0.95238 0.46194 0.0
H73 H 0.40105 0.9484 0.45071 0.0
H74 H 0.49033 1.06233 0.51334 0.0
H75 H 0.41132 0.06679 0.52454 0.0
H76 H 0.94895 0.32791 0.53977 0.0
H77 H 0.89681 0.23204 0.54254 0.0
H78 H 0.81026 0.21787 0.4722 0.0
H79 H 0.86206 0.31284 0.46955 0.0
Tb80 Tb 0.6408 0.52882 0.82092 0.0
Tb81 Tb 0.70942 0.65209 0.833 0.0
C82 C 0.68051 0.60079 0.77607 0.0
C83 C 0.56181 0.37955 0.82092 0.0
C84 C 0.4978 0.27587 0.83371 0.0
C85 C 0.51963 0.2862 0.80968 0.0
C86 C 0.55136 0.33771 0.80331 0.0
C87 C 0.5434 0.36916 0.84579 0.0
C88 C 0.51134 0.31738 0.85214 0.0
C89 C 0.58095 0.43143 0.81116 0.0
O90 O 0.72489 0.54377 0.82181 0.0
O91 O 0.7715 0.63003 0.83741 0.0
O92 O 0.68895 0.62173 0.87068 0.0
O93 O 0.66643 0.53615 0.86039 0.0
O94 O 0.73853 0.72494 0.81777 0.0
O95 O 0.75958 0.72011 0.85668 0.0
O96 O 0.62684 0.63951 0.83383 0.0
O97 O 0.57979 0.55018 0.83167 0.0
O98 O 0.64004 0.56045 0.78467 0.0
O99 O 0.71796 0.6357 0.79225 0.0
C100 C 0.7707 0.58554 0.83077 0.0
O101 O 0.56801 0.46205 0.82373 0.0
O102 O 0.62839 0.45703 0.80299 0.0
C103 C 0.6796 0.57561 0.87715 0.0
C104 C 0.74782 0.7917 0.84737 0.0
C105 C 0.70789 0.85846 0.85924 0.0
C106 C 0.71837 0.83387 0.87882 0.0
C107 C 0.73773 0.80004 0.87286 0.0
C108 C 0.74175 0.82031 0.82842 0.0
C109 C 0.72149 0.85292 0.83425 0.0
C110 C 0.76084 0.75103 0.83954 0.0
C111 C 0.58048 0.59552 0.83468 0.0
H112 H 0.50971 0.25432 0.79535 0.0
H113 H 0.56469 0.34484 0.78403 0.0
H114 H 0.55088 0.40091 0.85972 0.0
H115 H 0.49501 0.30981 0.87082 0.0
H116 H 0.7089 0.83859 0.89829 0.0
H117 H 0.7429 0.77913 0.88795 0.0
H118 H 0.75024 0.81547 0.80875 0.0
H119 H 0.71433 0.87227 0.81897 0.0
C120 C 0.69272 0.16321 0.32241 0.0
C121 C 0.67942 0.11533 0.33277 0.0
C122 C 0.68996 0.16651 0.29573 0.0
C123 C 0.67342 0.1219 0.27858 0.0
C124 C 0.66113 0.07423 0.2891 0.0
C125 C 0.66415 0.07104 0.31575 0.0
C126 C 0.66646 0.12436 0.25005 0.0
C127 C 0.70349 0.16746 0.23715 0.0
C128 C 0.69801 0.17266 0.21065 0.0
C129 C 0.65051 0.1292 0.19689 0.0
C130 C 0.61048 0.08407 0.20989 0.0
C131 C 0.62162 0.08385 0.23624 0.0
C132 C 0.55539 1.03631 0.19898 0.0
C133 C 0.54719 1.00293 0.1766 0.0
C134 C 0.51027 1.01784 0.21407 0.0
C135 C 0.46207 0.96938 0.20817 0.0
C136 C 0.45387 0.93521 0.18629 0.0
C137 C 0.74325 0.22533 0.20012 0.0
C138 C 0.76562 0.27394 0.21545 0.0
C139 C 0.7705 0.22859 0.17745 0.0
C140 C 0.81729 0.27638 0.17123 0.0
C141 C 0.84028 0.32421 0.18727 0.0
C142 C 0.81209 0.32104 0.2094 0.0
C143 C 0.49804 0.9543 0.1704 0.0
H144 H 0.70442 0.19797 0.33504 0.0
H145 H 0.69925 0.20379 0.28859 0.0
H146 H 0.6489 1.03908 0.2767 0.0
H147 H 0.65369 1.03364 0.32312 0.0
H148 H 0.73822 0.19736 0.24814 0.0
H149 H 0.59392 1.05128 0.24664 0.0
H150 H 0.64391 0.1314 0.17674 0.0
H151 H 0.57945 1.0133 0.16418 0.0
H152 H 0.5125 1.04073 0.23139 0.0
H153 H 0.43077 0.95825 0.22129 0.0
H154 H 0.74746 0.27565 0.23297 0.0
H155 H 0.75692 0.19352 0.16481 0.0
H156 H 0.49504 0.93092 0.15314 0.0
H157 H 0.82663 0.35549 0.22259 0.0
H158 H 0.83643 0.27537 0.15395 0.0
C159 C 0.63973 0.6088 0.65062 0.0
C160 C 0.67773 0.60169 0.66371 0.0
C161 C 0.63602 0.60609 0.62366 0.0
C162 C 0.66974 0.59549 0.60894 0.0
C163 C 0.70787 0.58862 0.62211 0.0
C164 C 0.71203 0.59204 0.64905 0.0
C165 C 0.66497 0.5911 0.58002 0.0
C166 C 0.6608 0.62911 0.56672 0.0
C167 C 0.65966 0.62946 0.53962 0.0
C168 C 0.65705 0.58304 0.52576 0.0
C169 C 0.65817 0.54065 0.53916 0.0
C170 C 0.66469 0.54882 0.56618 0.0
C171 C 0.65239 0.48651 0.52802 0.0
C172 C 0.67778 0.4794 0.50653 0.0
C173 C 0.62558 0.44053 0.54192 0.0
C174 C 0.62637 0.39295 0.53603 0.0
C175 C 0.65251 0.38577 0.51508 0.0
C176 C 0.66174 0.68008 0.52875 0.0
C177 C 0.68765 0.72954 0.54355 0.0
C178 C 0.63564 0.68141 0.5058 0.0
C179 C 0.63452 0.728 0.49895 0.0
C180 C 0.65839 0.7764 0.51476 0.0
C181 C 0.68496 0.77478 0.53725 0.0
C182 C 0.67741 0.43065 0.50017 0.0
H183 H 0.61258 0.61607 0.6613 0.0
H184 H 0.60593 0.61123 0.61431 0.0
H185 H 0.7349 0.58095 0.61156 0.0
H186 H 0.74178 0.5865 0.6585 0.0
H187 H 0.65919 0.65978 0.5782 0.0
H188 H 0.66871 0.52081 0.57711 0.0
H189 H 0.65407 0.5799 0.50507 0.0
H190 H 0.69949 0.51209 0.49489 0.0
H191 H 0.60401 0.44131 0.55828 0.0
H192 H 0.60621 0.36119 0.54839 0.0
H193 H 0.71073 0.73403 0.5608 0.0
H194 H 0.61492 0.64602 0.4932 0.0
H195 H 0.69774 0.42852 0.48355 0.0
H196 H 0.70448 0.80943 0.55042 0.0
H197 H 0.61411 0.72571 0.4811 0.0
C198 C 0.2263 0.63867 0.98999 0.0
C199 C 0.17883 0.61095 0.00239 0.0
C200 C 0.22703 0.63643 0.96303 0.0
C201 C 0.18031 0.60607 0.9475 0.0
C202 C 0.13297 0.57794 0.96013 0.0
C203 C 0.13225 0.58052 0.98702 0.0
C204 C 0.18033 0.60292 0.91841 0.0
C205 C 0.2216 0.60187 0.90558 0.0
C206 C 0.2217 0.59451 0.87851 0.0
C207 C 0.17576 0.59013 0.86408 0.0
C208 C 0.13212 0.59179 0.87681 0.0
C209 C 0.13792 0.59957 0.90384 0.0
C210 C 1.07845 0.58462 0.86485 0.0
C211 C 1.07283 0.60778 0.84272 0.0
C212 C 1.03121 0.55892 0.87842 0.0
C213 C 0.98381 0.55898 0.87168 0.0
C214 C 0.97811 0.58297 0.85007 0.0
C215 C 0.27063 0.59084 0.86801 0.0
C216 C 0.29777 0.57233 0.88349 0.0
C217 C 0.29486 0.6088 0.84445 0.0
C218 C 0.3429 0.60945 0.8376 0.0
C219 C 0.371 0.59323 0.85398 0.0
C220 C 0.34602 0.57464 0.87711 0.0
C221 C 1.02426 0.60653 0.83547 0.0
H222 H 0.2629 0.66254 0.00123 0.0
H223 H 0.26431 0.65924 0.95439 0.0
H224 H 0.09614 0.55316 0.94922 0.0
H225 H 1.09506 0.55854 0.99589 0.0
H226 H 0.25447 0.60673 0.91735 0.0
H227 H 0.1087 0.60404 0.91414 0.0
H228 H 0.17328 0.58402 0.84345 0.0
H229 H 0.10653 0.62846 0.83126 0.0
H230 H 1.03079 0.53889 0.8952 0.0
H231 H 0.95102 0.54002 0.88387 0.0
H232 H 0.2818 0.55538 0.90125 0.0
H233 H 0.27732 0.62348 0.83131 0.0
H234 H 1.02328 0.62519 0.81842 0.0
H235 H 0.36395 0.56114 0.89072 0.0
H236 H 0.35837 0.62333 0.81926 0.0
C237 C 1.06804 0.70426 0.32405 0.0
C238 C 1.08679 0.66923 0.32014 0.0
C239 C 1.05536 0.71424 0.3485 0.0
C240 C 1.06083 0.68889 0.36929 0.0
C241 C 1.0799 0.65397 0.36519 0.0
C242 C 1.09277 0.64425 0.34081 0.0
C243 C 1.04838 0.69965 0.39542 0.0
C244 C 1.02181 0.6583 0.41124 0.0
C245 C 1.01722 0.66826 0.43726 0.0
C246 C 1.03798 0.72023 0.44732 0.0
C247 C 1.06428 0.76217 0.43171 0.0
C248 C 1.06839 0.75147 0.40562 0.0
C249 C 0.09609 0.81629 0.44374 0.0
C250 C 1.07629 0.83583 0.46298 0.0
C251 C 0.14928 0.84608 0.43825 0.0
C252 C 0.18277 0.89241 0.45279 0.0
C253 C 0.16394 0.91028 0.47306 0.0
C254 C 0.99835 0.62467 0.45428 0.0
C255 C 0.95289 0.57638 0.44711 0.0
C256 C 1.02983 0.62875 0.47582 0.0
C257 C 1.01798 0.58442 0.48888 0.0
C258 C 0.97435 0.53572 0.48064 0.0
C259 C 0.94093 0.5322 0.46025 0.0
C260 C 0.10999 0.88301 0.4774 0.0
H261 H 1.06308 0.72366 0.30815 0.0
H262 H 1.04076 0.74126 0.35112 0.0
H263 H 1.08555 0.63467 0.38093 0.0
H264 H 0.10723 0.61713 0.33803 0.0
H265 H 1.00741 0.61829 0.4036 0.0
H266 H 1.09038 0.78368 0.3937 0.0
H267 H 1.03675 0.72807 0.46767 0.0
H268 H 1.03528 0.81368 0.46745 0.0
H269 H 0.166 0.83187 0.42386 0.0
H270 H 0.22427 0.91294 0.44908 0.0
H271 H 0.92798 0.57233 0.43064 0.0
H272 H 1.06549 0.66535 0.48152 0.0
H273 H 1.09457 0.89672 0.49267 0.0
H274 H 0.90712 0.49469 0.45372 0.0
H275 H 1.04418 0.58748 0.50454 0.0
C276 C 0.55919 0.98451 0.65718 0.0
C277 C 0.56441 1.02872 0.64582 0.0
C278 C 0.53873 0.97277 0.68134 0.0
C279 C 0.52323 1.00514 0.69459 0.0
C280 C 0.52909 1.04975 0.68317 0.0
C281 C 0.54938 1.06133 0.65897 0.0
C282 C 0.50246 0.9933 0.72053 0.0
C283 C 0.52684 0.97786 0.73873 0.0
C284 C 0.51058 0.97097 0.76395 0.0
C285 C 0.46852 0.97787 0.77064 0.0
C286 C 0.44477 0.99488 0.7531 0.0
C287 C 0.46119 1.00153 0.7279 0.0
C288 C 0.41359 1.01786 0.76337 0.0
C289 C 0.37866 0.99415 0.78289 0.0
C290 C 0.43049 0.07039 0.75914 0.0
C291 C 0.42029 0.10082 0.77668 0.0
C292 C 0.39267 0.07907 0.79847 0.0
C293 C 0.54025 0.96139 0.78405 0.0
C294 C 0.55706 0.92503 0.77919 0.0
C295 C 0.55181 0.98868 0.8084 0.0
C296 C 0.57877 0.97907 0.82759 0.0
C297 C 0.59521 0.94263 0.82259 0.0
C298 C 0.5843 0.91572 0.79834 0.0
C299 C 0.36808 1.02474 0.80041 0.0
H300 H 0.57032 0.95875 0.64715 0.0
H301 H 0.53442 0.93798 0.68951 0.0
H302 H 0.5186 0.07612 0.69305 0.0
H303 H 0.5531 0.09556 0.65041 0.0
H304 H 0.56057 0.97433 0.73371 0.0
H305 H 0.44318 1.01514 0.71438 0.0
H306 H 0.45694 0.97382 0.79027 0.0
H307 H 0.36435 0.95339 0.78626 0.0
H308 H 0.4573 0.08988 0.7443 0.0
H309 H 0.4388 0.14267 0.77466 0.0
H310 H 0.54846 0.90324 0.76074 0.0
H311 H 0.54035 1.01779 0.81258 0.0
H312 H 0.34554 1.00716 0.81682 0.0
H313 H 0.59667 0.88724 0.79432 0.0
H314 H 0.58699 1.00007 0.84624 0.0
C315 C 0.63188 0.42913 0.96804 0.0
C316 C 0.67353 0.48125 0.96965 0.0
C317 C 0.61924 0.4 0.98956 0.0
C318 C 0.64819 0.42264 0.01293 0.0
C319 C 0.69265 0.47334 0.01384 0.0
C320 C 0.70505 0.50259 0.99235 0.0
C321 C 0.62511 0.40015 0.03717 0.0
C322 C 0.65649 0.39948 0.05754 0.0
C323 C 0.63916 0.39411 0.08271 0.0
C324 C 0.58932 0.3879 0.08685 0.0
C325 C 0.5579 0.38876 0.06667 0.0
C326 C 0.57495 0.39226 0.04176 0.0
C327 C 0.51504 0.39952 0.07258 0.0
C328 C 0.48093 0.37437 0.09209 0.0
C329 C 0.5138 0.44139 0.06155 0.0
C330 C 0.48148 0.45969 0.07085 0.0
C331 C 0.45019 0.43661 0.09136 0.0
C332 C 0.67646 0.40754 0.10525 0.0
C333 C 0.72841 0.44946 0.10459 0.0
C334 C 0.65814 0.38608 0.12891 0.0
C335 C 0.68877 0.41002 0.15164 0.0
C336 C 0.73858 0.45471 0.15084 0.0
C337 C 0.75916 0.47251 0.12716 0.0
C338 C 0.44878 0.39297 0.10148 0.0
H339 H 0.60734 0.41212 0.95057 0.0
H340 H 0.58461 0.36119 0.98845 0.0
H341 H 0.71505 0.4921 0.03172 0.0
H342 H 0.73734 0.5428 0.99384 0.0
H343 H 0.69575 0.40698 0.05397 0.0
H344 H 0.55165 0.39516 0.02632 0.0
H345 H 0.57765 0.38903 0.10625 0.0
H346 H 0.48105 0.34204 0.10087 0.0
H347 H 0.54036 0.46244 0.04691 0.0
H348 H 0.48293 0.49357 0.06299 0.0
H349 H 0.74407 0.46775 0.08703 0.0
H350 H 0.61873 0.35307 0.13005 0.0
H351 H 0.42451 0.37484 0.11734 0.0
H352 H 0.79779 0.50697 0.12629 0.0
H353 H 0.67254 0.39563 0.16982 0.0
C354 C 0.34607 0.47296 0.10578 0.0
C355 C 0.36808 0.50406 0.12914 0.0
C356 C 0.44714 0.49716 0.12546 0.0
C357 C 0.42251 0.4612 0.10373 0.0
N358 N 0.3483 0.41182 0.07367 0.0
N359 N 0.4374 0.54431 0.16232 0.0
C360 C 0.37203 0.44856 0.09386 0.0
C361 C 0.41824 0.51609 0.13922 0.0
N362 N 0.3005 0.46709 0.09502 0.0
N363 N 0.49847 0.51386 0.13256 0.0
H364 H 0.41837 0.56097 0.17232 0.0
H365 H 0.47057 0.54895 0.17231 0.0
H366 H 0.52065 0.50008 0.1232 0.0
H367 H 0.52049 0.54416 0.14648 0.0
H368 H 0.28528 0.44964 0.07674 0.0
H369 H 0.27958 0.48321 0.1036 0.0
H370 H 0.30924 0.39635 0.06731 0.0
H371 H 0.36677 0.39403 0.06413 0.0
C372 C 0.9139 0.41268 0.51668 0.0
C373 C 0.93518 0.38457 0.50373 0.0
C374 C 0.98972 0.45975 0.47921 0.0
C375 C 0.96652 0.48699 0.49117 0.0
N376 N 0.91629 0.49583 0.52476 0.0
N377 N 1.00204 0.38424 0.47818 0.0
C378 C 0.93195 0.46556 0.51123 0.0
C379 C 0.9762 0.40929 0.48683 0.0
N380 N 0.87489 0.38789 0.53326 0.0
N381 N 1.02266 0.48115 0.45974 0.0
H382 H 0.99263 0.3471 0.48355 0.0
H383 H 1.03549 0.40171 0.46762 0.0
H384 H 1.03505 0.51887 0.45424 0.0
H385 H 1.03575 0.46078 0.44811 0.0
H386 H 0.85425 0.40424 0.54176 0.0
H387 H 0.8615 0.3495 0.53799 0.0
H388 H 0.89436 0.48447 0.54094 0.0
H389 H 0.92861 0.53448 0.52084 0.0
C390 C 0.70634 0.94119 0.85872 0.0
C391 C 0.67932 0.88739 0.86333 0.0
C392 C 0.59524 0.88239 0.85384 0.0
C393 C 0.62308 0.93086 0.84259 0.0
N394 N 0.70443 1.01041 0.83666 0.0
N395 N 0.59798 0.80783 0.86937 0.0
C396 C 0.67848 0.96232 0.84642 0.0
C397 C 0.62355 0.85872 0.86296 0.0
N398 N 0.75895 0.9707 0.86513 0.0
N399 N 0.5418 0.85873 0.8549 0.0
H400 H 0.61758 0.7898 0.87669 0.0
H401 H 0.55747 0.78295 0.8671 0.0
H402 H 0.52078 0.87589 0.84812 0.0
H403 H 0.51899 0.82495 0.86431 0.0
H404 H 0.78099 1.01112 0.86381 0.0
H405 H 0.77927 0.95472 0.874 0.0
H406 H 0.74521 1.03282 0.83628 0.0
H407 H 0.68479 1.02725 0.82802 0.0
C408 C 0.81364 0.58132 0.18888 0.0
C409 C 0.85988 0.57849 0.19225 0.0
C410 C 0.8086 0.48291 0.18504 0.0
C411 C 0.76775 0.48849 0.17408 0.0
N412 N 0.72344 0.53778 0.17107 0.0
N413 N 0.90167 0.52863 0.19909 0.0
C414 C 0.76711 0.53588 0.17862 0.0
C415 C 0.85673 0.52915 0.19307 0.0
N416 N 0.81579 0.62808 0.19435 0.0
N417 N 0.8015 0.43381 0.18646 0.0
H418 H 0.90493 0.49501 0.19881 0.0
H419 H 0.90493 0.49501 0.19881 0.0
H420 H 0.76623 0.40035 0.17996 0.0
H421 H 0.82783 0.42601 0.19602 0.0
H422 H 0.78328 0.63319 0.19329 0.0
H423 H 0.85042 0.6612 0.20183 0.0
H424 H 0.72145 0.57198 0.17144 0.0
H425 H 0.6888 0.50406 0.16414 0.0
C426 C 0.29045 1.02985 0.48556 0.0
C427 C 0.31157 1.00669 0.50126 0.0
C428 C 0.22323 0.94096 0.51197 0.0
C429 C 0.20354 0.95428 0.49056 0.0
N430 N 0.21228 1.01927 0.46268 0.0
N431 N 0.30067 0.94954 0.5344 0.0
C432 C 0.2352 1.0027 0.47986 0.0
C433 C 0.27859 0.96629 0.51681 0.0
N434 N 0.32395 0.07541 0.47495 0.0
N435 N 0.18903 0.90227 0.52644 0.0
H436 H 0.34122 0.96897 0.53851 0.0
H437 H 0.27952 0.91673 0.5447 0.0
H438 H 0.14841 0.88386 0.52294 0.0
H439 H 0.20016 0.89146 0.54294 0.0
H440 H 0.312 0.09502 0.46307 0.0
H441 H 0.36447 0.09485 0.47931 0.0
H442 H 0.23259 1.0528 0.45276 0.0
H443 H 0.17154 0.99872 0.45883 0.0
C444 C 0.40613 0.20151 0.8274 0.0
C445 C 0.45784 0.22121 0.838 0.0
C446 C 0.44337 0.1324 0.83765 0.0
C447 C 0.39927 0.11595 0.82043 0.0
N448 N 0.33044 0.12841 0.80373 0.0
N449 N 0.52292 0.20652 0.85798 0.0
C450 C 0.37704 0.14821 0.81761 0.0
C451 C 0.47491 0.18661 0.84539 0.0
N452 N 0.38675 0.23472 0.82561 0.0
N453 N 0.45617 0.09654 0.84531 0.0
H454 H 0.54542 0.24607 0.86446 0.0
H455 H 0.54091 0.18467 0.86153 0.0
H456 H 0.43317 1.05664 0.83982 0.0
H457 H 0.48638 0.10526 0.85879 0.0
H458 H 0.34869 0.22302 0.81885 0.0
H459 H 0.40827 0.27395 0.83271 0.0
H460 H 0.31343 0.15042 0.7987 0.0
H461 H 0.30893 0.08884 0.79711 0.0
C462 C 0.69998 0.92766 0.51211 0.0
C463 C 0.65541 0.92813 0.50047 0.0
C464 C 0.61016 0.82855 0.50032 0.0
C465 C 0.65711 0.82841 0.50851 0.0
N466 N 0.75138 0.88386 0.51424 0.0
N467 N 0.57153 0.87214 0.47748 0.0
C468 C 0.70316 0.8798 0.51202 0.0
C469 C 0.61159 0.87651 0.49293 0.0
N470 N 0.73893 0.97228 0.52494 0.0
N471 N 0.56288 0.7833 0.50062 0.0
H472 H 0.57208 0.90429 0.46993 0.0
H473 H 0.54122 0.83614 0.46951 0.0
H474 H 0.5592 0.74886 0.507 0.0
H475 H 0.52705 0.78181 0.4974 0.0
H476 H 0.76972 0.97303 0.53551 0.0
H477 H 0.73676 1.00622 0.52814 0.0
H478 H 0.78644 0.91972 0.51452 0.0
H479 H 0.75634 0.85127 0.51244 0.0
C480 C 0.87452 0.62767 0.83011 0.0
C481 C 0.82363 0.58333 0.83418 0.0
C482 C 0.87371 0.53644 0.84376 0.0
C483 C 0.92474 0.58301 0.84352 0.0
N484 N 0.9687 0.67701 0.8417 0.0
N485 N 0.78032 0.49815 0.85134 0.0
C486 C 0.92346 0.62958 0.83807 0.0
C487 C 0.82501 0.53852 0.84272 0.0
N488 N 0.87696 0.66789 0.81738 0.0
N489 N 0.8709 0.4889 0.8438 0.0
H490 H 0.74521 0.49855 0.85242 0.0
H491 H 0.77994 0.46724 0.86025 0.0
H492 H 0.90409 0.48486 0.84292 0.0
H493 H 0.83543 0.45339 0.84153 0.0
H494 H 0.91218 0.69872 0.81167 0.0
H495 H 0.84363 0.66707 0.80964 0.0
H496 H 0.96956 0.71259 0.84067 0.0
H497 H 1.00407 0.68106 0.84865 0.0
C498 C 0.30031 0.8277 0.18089 0.0
C499 C 0.29758 0.77878 0.17332 0.0
C500 C 0.3975 0.83128 0.17607 0.0
C501 C 0.39991 0.88093 0.18072 0.0
N502 N 0.348 0.92328 0.18079 0.0
N503 N 0.34846 0.74044 0.15789 0.0
C504 C 0.34957 0.8779 0.18118 0.0
C505 C 0.3477 0.78266 0.16935 0.0
N506 N 0.25627 0.82677 0.18936 0.0
N507 N 0.44267 0.8294 0.17921 0.0
H508 H 0.31432 0.70595 0.15138 0.0
H509 H 0.38285 0.74192 0.1521 0.0
H510 H 0.47878 0.86241 0.18491 0.0
H511 H 0.44315 0.79432 0.17888 0.0
H512 H 0.25669 0.85993 0.19758 0.0
H513 H 0.22087 0.7921 0.19108 0.0
H514 H 0.31304 0.92387 0.17847 0.0
H515 H 0.38172 0.95986 0.17972 0.0
C516 C 0.60739 0.23271 0.50929 0.0
C517 C 0.65324 0.23027 0.50229 0.0
C518 C 0.70019 0.33007 0.50532 0.0
C519 C 0.65296 0.33207 0.50949 0.0
N520 N 0.55831 0.27917 0.50799 0.0
N521 N 0.74086 0.28147 0.48751 0.0
C522 C 0.60583 0.2815 0.50933 0.0
C523 C 0.69883 0.28048 0.49864 0.0
N524 N 0.56526 0.18885 0.51738 0.0
N525 N 0.74752 0.37547 0.50881 0.0
H526 H 0.74076 0.24749 0.48093 0.0
H527 H 0.77299 0.31574 0.48194 0.0
H528 H 0.75101 0.4113 0.51492 0.0
H529 H 0.78342 0.37657 0.50828 0.0
H530 H 0.53292 0.18904 0.52506 0.0
H531 H 0.56538 0.15402 0.51941 0.0
H532 H 0.52267 0.24393 0.50525 0.0
H533 H 0.55483 0.31237 0.50643 0.0
C534 C 0.48367 0.55488 0.85173 0.0
C535 C 0.52691 0.59603 0.83936 0.0
C536 C 0.46999 0.63861 0.83839 0.0
C537 C 0.42462 0.59412 0.84764 0.0
N538 N 0.38872 0.50282 0.8552 0.0
N539 N 0.55082 0.67181 0.81529 0.0
C540 C 0.43191 0.55045 0.85198 0.0
C541 C 0.51692 0.63636 0.83117 0.0
N542 N 0.49185 0.52063 0.8648 0.0
N543 N 0.46984 0.6846 0.83733 0.0
H544 H 0.5828 0.67024 0.80813 0.0
H545 H 0.54345 0.69865 0.80668 0.0
H546 H 0.43894 0.68926 0.84361 0.0
H547 H 0.50261 0.71949 0.83283 0.0
H548 H 0.4636 0.49327 0.87605 0.0
H549 H 0.52859 0.52395 0.86734 0.0
H550 H 0.39055 0.46855 0.85601 0.0
H551 H 0.35049 0.49638 0.85371 0.0
C552 C 0.94844 0.45514 0.15632 0.0
C553 C 0.99304 0.47731 0.17441 0.0
C554 C 0.93972 0.39644 0.19888 0.0
C555 C 0.89365 0.3764 0.18201 0.0
N556 N 0.85449 0.39371 0.14595 0.0
N557 N 1.02394 0.4701 0.21603 0.0
C558 C 0.89853 0.40782 0.16105 0.0
C559 C 0.98641 0.44784 0.19641 0.0
N560 N 0.95414 0.47817 0.13381 0.0
N561 N 0.94007 0.36513 0.21705 0.0
H562 H 1.05759 0.50682 0.21549 0.0
H563 H 1.01926 0.4548 0.23386 0.0
H564 H 0.90804 0.328 0.2194 0.0
H565 H 0.97364 0.37352 0.22801 0.0
H566 H 0.92643 0.46176 0.11846 0.0
H567 H 0.98883 0.51166 0.12962 0.0
H568 H 0.85234 0.41737 0.13251 0.0
H569 H 0.81844 0.36022 0.14849 0.0
C570 C 0.19118 0.66503 0.07261 0.0
C571 C 0.16995 0.61844 0.08593 0.0
C572 C 0.1629 0.56867 0.04506 0.0
C573 C 0.17749 0.61399 0.03135 0.0
N574 N 0.1973 0.70387 0.03225 0.0
N575 N 0.128 0.52398 0.0837 0.0
C576 C 0.18955 0.66183 0.04522 0.0
C577 C 0.15405 0.56974 0.07186 0.0
N578 N 0.21481 0.71282 0.08617 0.0
N579 N 0.15885 0.52481 0.03263 0.0
H580 H 0.11991 0.52275 0.10301 0.0
H581 H 0.11021 0.48703 0.07388 0.0
H582 H 0.16556 0.52269 0.01324 0.0
H583 H 0.15386 0.49251 0.042 0.0
H584 H 0.23575 0.74826 0.0777 0.0
H585 H 0.21838 0.71694 0.10612 0.0
H586 H 0.20039 0.73777 0.04118 0.0
H587 H 0.19571 0.70313 0.01234 0.0
C588 C 0.63773 0.1071 0.40243 0.0
C589 C 0.67638 0.10001 0.41545 0.0
C590 C 0.7208 0.1094 0.37481 0.0
C591 C 0.67905 0.1109 0.3614 0.0
N592 N 0.59378 0.10373 0.36208 0.0
N593 N 0.75218 0.08929 0.41356 0.0
C594 C 0.63647 0.10776 0.37516 0.0
C595 C 0.71746 0.1001 0.40151 0.0
N596 N 0.60342 0.11555 0.41629 0.0
N597 N 0.76429 0.11808 0.3621 0.0
H598 H 0.75131 0.083 0.43298 0.0
H599 H 0.77941 0.08285 0.40405 0.0
H600 H 0.7677 0.12428 0.34265 0.0
H601 H 0.79855 0.12316 0.37112 0.0
H602 H 0.57795 0.12649 0.40833 0.0
H603 H 0.60408 0.11692 0.43621 0.0
H604 H 0.55887 0.09508 0.37057 0.0
H605 H 0.5915 0.1047 0.34225 0.0
C606 C 0.69091 0.64836 0.73527 0.0
C607 C 0.68467 0.60378 0.74745 0.0
C608 C 0.66984 0.55683 0.70491 0.0
C609 C 0.68065 0.6028 0.69266 0.0
N610 N 0.71212 0.69576 0.69671 0.0
N611 N 0.68151 0.52046 0.7432 0.0
C612 C 0.69432 0.6496 0.70803 0.0
C613 C 0.67802 0.55946 0.73203 0.0
N614 N 0.69098 0.68858 0.74948 0.0
N615 N 0.64952 0.50986 0.69081 0.0
H616 H 0.68977 0.52191 0.76277 0.0
H617 H 0.68214 0.48974 0.73276 0.0
H618 H 0.64155 0.50573 0.67109 0.0
H619 H 0.6356 0.47417 0.69902 0.0
H620 H 0.68954 0.71935 0.74141 0.0
H621 H 0.68765 0.68885 0.76924 0.0
H622 H 0.72782 0.73205 0.70703 0.0
H623 H 0.71586 0.69844 0.67702 0.0
C624 C 0.56948 1.01332 0.57371 0.0
C625 C 0.6178 1.05902 0.56931 0.0
C626 C 0.63428 0.08162 0.61557 0.0
C627 C 0.58319 1.03937 0.61954 0.0
N628 N 0.49826 0.97071 0.60201 0.0
N629 N 0.69322 0.14085 0.58561 0.0
C630 C 0.54965 1.00682 0.59849 0.0
C631 C 0.64963 0.09429 0.59014 0.0
N632 N 0.54365 0.97481 0.55448 0.0
N633 N 0.66849 0.10878 0.63608 0.0
H634 H 0.70548 0.15162 0.56726 0.0
H635 H 0.71476 0.17063 0.59986 0.0
H636 H 0.65846 0.10068 0.65496 0.0
H637 H 0.70802 0.13629 0.63436 0.0
H638 H 0.51106 0.93838 0.55726 0.0
H639 H 0.55822 0.97694 0.53637 0.0
H640 H 0.47057 0.95009 0.58693 0.0
H641 H 0.48198 0.96477 0.61988 0.0
C642 C 0.64384 0.55411 0.92055 0.0
C643 C 0.68554 0.56666 0.90413 0.0
C644 C 0.72306 0.52869 0.93213 0.0
C645 C 0.68066 0.51479 0.94831 0.0
N646 N 0.60888 0.52619 0.96201 0.0
N647 N 0.77291 0.58226 0.89829 0.0
C648 C 0.64363 0.53146 0.94384 0.0
C649 C 0.72787 0.55924 0.9113 0.0
N650 N 0.6035 0.56184 0.91332 0.0
N651 N 0.7572 0.51069 0.93594 0.0
H652 H 0.77796 0.60722 0.88394 0.0
H653 H 0.80692 0.58168 0.90358 0.0
H654 H 0.7551 0.48843 0.95113 0.0
H655 H 0.78521 0.51456 0.92302 0.0
H656 H 0.56854 0.54737 0.92273 0.0
H657 H 0.60432 0.58119 0.89711 0.0
H658 H 0.58413 0.54181 0.96094 0.0
H659 H 0.60794 0.51003 0.97935 0.0
C660 C 1.06744 0.61359 0.25127 0.0
C661 C 0.1202 0.63891 0.2437 0.0
C662 C 0.15139 0.68448 0.28634 0.0
C663 C 0.09883 0.65752 0.29413 0.0
N664 N 1.00833 0.58923 0.28611 0.0
N665 N 0.21321 0.69181 0.25444 0.0
C666 C 1.05729 0.61977 0.27721 0.0
C667 C 0.16251 0.6722 0.26144 0.0
N668 N 1.02688 0.58506 0.23348 0.0
N669 N 0.19024 0.72306 0.30245 0.0
H670 H 0.22258 0.68442 0.23616 0.0
H671 H 0.24594 0.71205 0.26714 0.0
H672 H 0.18364 0.73238 0.32098 0.0
H673 H 0.22821 0.74825 0.29702 0.0
H674 H 0.98746 0.57032 0.23717 0.0
H675 H 1.0327 0.579 0.21438 0.0
H676 H 0.97787 0.557 0.27555 0.0
H677 H 0.99919 0.59335 0.30491 0.0
loop_
_geom_bond_atom_site_label_1
_geom_bond_atom_site_label_2
_geom_bond_distance
_geom_bond_site_symmetry_2
_ccdc_geom_bond_type
Tb0 C9 2.764 1_455 S
Tb0 O10 2.325 1_455 S
Tb0 O13 2.303 . S
Tb0 O17 2.322 . S
Tb0 O18 2.349 . S
Tb0 O21 2.415 1_455 S
Tb0 O22 2.399 1_455 S
Tb1 O11 2.322 1_455 S
Tb1 O12 2.349 . S
Tb1 O14 2.415 . S
Tb1 O15 2.399 . S
Tb1 O16 2.325 . S
Tb1 O19 2.303 . S
Tb1 C30 2.764 . S
C2 O18 1.261 . S
C2 O19 1.257 . S
C3 C6 1.358 . S
C3 C7 1.332 . S
C3 C9 1.504 . S
C4 C5 1.373 . S
C4 C8 1.308 . S
C5 C4 1.373 . S
C5 C6 1.429 . S
C5 H32 0.932 . S
C6 C3 1.358 . S
C6 C5 1.429 . S
C6 H33 0.930 . S
C7 C3 1.332 . S
C7 C8 1.394 . S
C7 H34 0.932 . S
C8 C4 1.308 . S
C8 C7 1.394 . S
C8 H35 0.929 . S
C9 Tb0 2.764 1_655 S
C9 C3 1.504 . S
C9 O21 1.239 . S
C9 O22 1.263 . S
O10 Tb0 2.325 1_655 S
O10 C20 1.236 . S
O11 Tb1 2.322 1_655 S
O11 C20 1.257 . S
O12 Tb1 2.349 . S
O12 C23 1.261 . S
O13 Tb0 2.303 . S
O13 C23 1.257 . S
O14 Tb1 2.415 . S
O14 C30 1.239 . S
O15 Tb1 2.399 . S
O15 C30 1.263 . S
O16 Tb1 2.325 . S
O16 C31 1.236 . S
O17 Tb0 2.322 . S
O17 C31 1.257 . S
O18 Tb0 2.349 . S
O18 C2 1.261 . S
O19 Tb1 2.303 . S
O19 C2 1.257 . S
C20 O10 1.236 . S
C20 O11 1.257 . S
O21 Tb0 2.415 1_655 S
O21 C9 1.239 . S
O22 Tb0 2.399 1_655 S
O22 C9 1.263 . S
C23 O12 1.261 . S
C23 O13 1.257 . S
C24 C27 1.358 . S
C24 C28 1.332 . S
C24 C30 1.504 . S
C25 C26 1.373 . S
C25 C29 1.308 . S
C26 C25 1.373 . S
C26 C27 1.429 . S
C26 H36 0.932 . S
C27 C24 1.358 . S
C27 C26 1.429 . S
C27 H37 0.930 . S
C28 C24 1.332 . S
C28 C29 1.394 . S
C28 H38 0.932 . S
C29 C25 1.308 . S
C29 C28 1.394 . S
C29 H39 0.929 . S
C30 Tb1 2.764 . S
C30 O14 1.239 . S
C30 O15 1.263 . S
C30 C24 1.504 . S
C31 O16 1.236 . S
C31 O17 1.257 . S
H32 C5 0.932 . S
H33 C6 0.930 . S
H34 C7 0.932 . S
H35 C8 0.929 . S
H36 C26 0.932 . S
H37 C27 0.930 . S
H38 C28 0.932 . S
H39 C29 0.929 . S
Tb40 C49 2.764 . S
Tb40 O50 2.325 . S
Tb40 O53 2.303 1_565 S
Tb40 O57 2.322 1_565 S
Tb40 O58 2.349 1_565 S
Tb40 O61 2.415 . S
Tb40 O62 2.399 . S
Tb41 O51 2.322 1_545 S
Tb41 O52 2.349 . S
Tb41 O54 2.415 . S
Tb41 O55 2.399 . S
Tb41 O56 2.325 . S
Tb41 O59 2.303 . S
Tb41 C70 2.764 . S
C42 O58 1.261 . S
C42 O59 1.257 . S
C43 C46 1.358 . S
C43 C47 1.332 . S
C43 C49 1.504 . S
C44 C45 1.373 . S
C44 C48 1.308 . S
C45 C44 1.373 . S
C45 C46 1.429 . S
C45 H72 0.932 . S
C46 C43 1.358 . S
C46 C45 1.429 . S
C46 H73 0.930 . S
C47 C43 1.332 . S
C47 C48 1.394 . S
C47 H74 0.932 . S
C48 C44 1.308 . S
C48 C47 1.394 . S
C48 H75 0.929 . S
C49 Tb40 2.764 . S
C49 C43 1.504 . S
C49 O61 1.239 . S
C49 O62 1.263 . S
O50 Tb40 2.325 . S
O50 C60 1.236 . S
O51 Tb41 2.322 1_565 S
O51 C60 1.257 . S
O52 Tb41 2.349 . S
O52 C63 1.261 . S
O53 Tb40 2.303 1_545 S
O53 C63 1.257 . S
O54 Tb41 2.415 . S
O54 C70 1.239 . S
O55 Tb41 2.399 . S
O55 C70 1.263 . S
O56 Tb41 2.325 . S
O56 C71 1.236 . S
O57 Tb40 2.322 1_545 S
O57 C71 1.257 . S
O58 Tb40 2.349 1_545 S
O58 C42 1.261 . S
O59 Tb41 2.303 . S
O59 C42 1.257 . S
C60 O50 1.236 . S
C60 O51 1.257 . S
O61 Tb40 2.415 . S
O61 C49 1.239 . S
O62 Tb40 2.399 . S
O62 C49 1.263 . S
C63 O52 1.261 . S
C63 O53 1.257 . S
C64 C67 1.358 . S
C64 C68 1.332 . S
C64 C70 1.504 . S
C65 C66 1.373 . S
C65 C69 1.308 . S
C66 C65 1.373 . S
C66 C67 1.429 . S
C66 H76 0.932 . S
C67 C64 1.358 . S
C67 C66 1.429 . S
C67 H77 0.930 . S
C68 C64 1.332 . S
C68 C69 1.394 . S
C68 H78 0.932 . S
C69 C65 1.308 . S
C69 C68 1.394 . S
C69 H79 0.929 . S
C70 Tb41 2.764 . S
C70 O54 1.239 . S
C70 O55 1.263 . S
C70 C64 1.504 . S
C71 O56 1.236 . S
C71 O57 1.257 . S
H72 C45 0.932 . S
H73 C46 0.930 . S
H74 C47 0.932 . S
H75 C48 0.929 . S
H76 C66 0.932 . S
H77 C67 0.930 . S
H78 C68 0.932 . S
H79 C69 0.929 . S
Tb80 C89 2.764 . S
Tb80 O90 2.325 . S
Tb80 O93 2.303 . S
Tb80 O97 2.322 . S
Tb80 O98 2.349 . S
Tb80 O101 2.415 . S
Tb80 O102 2.399 . S
Tb81 O91 2.322 . S
Tb81 O92 2.349 . S
Tb81 O94 2.415 . S
Tb81 O95 2.399 . S
Tb81 O96 2.325 . S
Tb81 O99 2.303 . S
Tb81 C110 2.764 . S
C82 O98 1.261 . S
C82 O99 1.257 . S
C83 C86 1.358 . S
C83 C87 1.332 . S
C83 C89 1.504 . S
C84 C85 1.373 . S
C84 C88 1.308 . S
C85 C84 1.373 . S
C85 C86 1.429 . S
C85 H112 0.932 . S
C86 C83 1.358 . S
C86 C85 1.429 . S
C86 H113 0.930 . S
C87 C83 1.332 . S
C87 C88 1.394 . S
C87 H114 0.932 . S
C88 C84 1.308 . S
C88 C87 1.394 . S
C88 H115 0.929 . S
C89 Tb80 2.764 . S
C89 C83 1.504 . S
C89 O101 1.239 . S
C89 O102 1.263 . S
O90 Tb80 2.325 . S
O90 C100 1.236 . S
O91 Tb81 2.322 . S
O91 C100 1.257 . S
O92 Tb81 2.349 . S
O92 C103 1.261 . S
O93 Tb80 2.303 . S
O93 C103 1.257 . S
O94 Tb81 2.415 . S
O94 C110 1.239 . S
O95 Tb81 2.399 . S
O95 C110 1.263 . S
O96 Tb81 2.325 . S
O96 C111 1.236 . S
O97 Tb80 2.322 . S
O97 C111 1.257 . S
O98 Tb80 2.349 . S
O98 C82 1.261 . S
O99 Tb81 2.303 . S
O99 C82 1.257 . S
C100 O90 1.236 . S
C100 O91 1.257 . S
O101 Tb80 2.415 . S
O101 C89 1.239 . S
O102 Tb80 2.399 . S
O102 C89 1.263 . S
C103 O92 1.261 . S
C103 O93 1.257 . S
C104 C107 1.358 . S
C104 C108 1.332 . S
C104 C110 1.504 . S
C105 C106 1.373 . S
C105 C109 1.308 . S
C106 C105 1.373 . S
C106 C107 1.429 . S
C106 H116 0.932 . S
C107 C104 1.358 . S
C107 C106 1.429 . S
C107 H117 0.930 . S
C108 C104 1.332 . S
C108 C109 1.394 . S
C108 H118 0.932 . S
C109 C105 1.308 . S
C109 C108 1.394 . S
C109 H119 0.929 . S
C110 Tb81 2.764 . S
C110 O94 1.239 . S
C110 O95 1.263 . S
C110 C104 1.504 . S
C111 O96 1.236 . S
C111 O97 1.257 . S
H112 C85 0.932 . S
H113 C86 0.930 . S
H114 C87 0.932 . S
H115 C88 0.929 . S
H116 C106 0.932 . S
H117 C107 0.930 . S
H118 C108 0.932 . S
H119 C109 0.929 . S
C120 C121 1.386 . S
C120 C122 1.397 . S
C120 H144 0.931 . S
C121 C120 1.386 . S
C121 C125 1.397 . S
C122 C120 1.397 . S
C122 C123 1.384 . S
C122 H145 0.930 . S
C123 C122 1.384 . S
C123 C124 1.377 . S
C123 C126 1.481 . S
C124 C123 1.377 . S
C124 C125 1.389 . S
C124 H146 0.929 1_545 S
C125 C121 1.397 . S
C125 C124 1.389 . S
C125 H147 0.931 1_545 S
C126 C123 1.481 . S
C126 C127 1.387 . S
C126 C131 1.390 1_545 S
C127 C126 1.387 . S
C127 C128 1.401 . S
C127 H148 0.930 . S
C128 C127 1.401 . S
C128 C129 1.376 . S
C128 C137 1.511 . S
C129 C128 1.376 . S
C129 C130 1.392 1_545 S
C129 H150 0.931 . S
C130 C129 1.392 1_565 S
C130 C131 1.361 . S
C130 C132 1.500 . S
C131 C126 1.390 1_565 S
C131 C130 1.361 . S
C131 H149 0.931 . S
C132 C130 1.500 . S
C132 C133 1.371 . S
C132 C134 1.365 . S
C133 C132 1.371 . S
C133 C143 1.386 . S
C133 H151 0.931 . S
C134 C132 1.365 . S
C134 C135 1.409 . S
C134 H152 0.929 . S
C135 C134 1.409 . S
C135 C136 1.380 . S
C135 H153 0.930 . S
C136 C135 1.380 . S
C136 C143 1.357 . S
C137 C128 1.511 . S
C137 C138 1.341 . S
C137 C139 1.371 . S
C138 C137 1.341 . S
C138 C142 1.394 . S
C138 H154 0.930 . S
C139 C137 1.371 . S
C139 C140 1.392 . S
C139 H155 0.931 . S
C140 C139 1.392 . S
C140 C141 1.331 . S
C140 H158 0.932 . S
C141 C140 1.331 . S
C141 C142 1.336 . S
C142 C138 1.394 . S
C142 C141 1.336 . S
C142 H157 0.929 . S
C143 C133 1.386 . S
C143 C136 1.357 . S
C143 H156 0.928 . S
H144 C120 0.931 . S
H145 C122 0.930 . S
H146 C124 0.929 1_565 S
H147 C125 0.931 1_565 S
H148 C127 0.930 . S
H149 C131 0.931 . S
H150 C129 0.931 . S
H151 C133 0.931 . S
H152 C134 0.929 . S
H153 C135 0.930 . S
H154 C138 0.930 . S
H155 C139 0.931 . S
H156 C143 0.928 . S
H157 C142 0.929 . S
H158 C140 0.932 . S
C159 C160 1.386 . S
C159 C161 1.397 . S
C159 H183 0.931 . S
C160 C159 1.386 . S
C160 C164 1.397 . S
C161 C159 1.397 . S
C161 C162 1.384 . S
C161 H184 0.930 . S
C162 C161 1.384 . S
C162 C163 1.377 . S
C162 C165 1.481 . S
C163 C162 1.377 . S
C163 C164 1.389 . S
C163 H185 0.929 . S
C164 C160 1.397 . S
C164 C163 1.389 . S
C164 H186 0.931 . S
C165 C162 1.481 . S
C165 C166 1.387 . S
C165 C170 1.390 . S
C166 C165 1.387 . S
C166 C167 1.401 . S
C166 H187 0.930 . S
C167 C166 1.401 . S
C167 C168 1.376 . S
C167 C176 1.511 . S
C168 C167 1.376 . S
C168 C169 1.392 . S
C168 H189 0.931 . S
C169 C168 1.392 . S
C169 C170 1.361 . S
C169 C171 1.500 . S
C170 C165 1.390 . S
C170 C169 1.361 . S
C170 H188 0.931 . S
C171 C169 1.500 . S
C171 C172 1.371 . S
C171 C173 1.365 . S
C172 C171 1.371 . S
C172 C182 1.386 . S
C172 H190 0.931 . S
C173 C171 1.365 . S
C173 C174 1.409 . S
C173 H191 0.929 . S
C174 C173 1.409 . S
C174 C175 1.380 . S
C174 H192 0.930 . S
C175 C174 1.380 . S
C175 C182 1.357 . S
C176 C167 1.511 . S
C176 C177 1.341 . S
C176 C178 1.371 . S
C177 C176 1.341 . S
C177 C181 1.394 . S
C177 H193 0.930 . S
C178 C176 1.371 . S
C178 C179 1.392 . S
C178 H194 0.931 . S
C179 C178 1.392 . S
C179 C180 1.331 . S
C179 H197 0.932 . S
C180 C179 1.331 . S
C180 C181 1.336 . S
C181 C177 1.394 . S
C181 C180 1.336 . S
C181 H196 0.929 . S
C182 C172 1.386 . S
C182 C175 1.357 . S
C182 H195 0.928 . S
H183 C159 0.931 . S
H184 C161 0.930 . S
H185 C163 0.929 . S
H186 C164 0.931 . S
H187 C166 0.930 . S
H188 C170 0.931 . S
H189 C168 0.931 . S
H190 C172 0.931 . S
H191 C173 0.929 . S
H192 C174 0.930 . S
H193 C177 0.930 . S
H194 C178 0.931 . S
H195 C182 0.928 . S
H196 C181 0.929 . S
H197 C179 0.932 . S
C198 C199 1.386 1_556 S
C198 C200 1.397 . S
C198 H222 0.931 1_556 S
C199 C198 1.386 1_554 S
C199 C203 1.397 1_554 S
C200 C198 1.397 . S
C200 C201 1.384 . S
C200 H223 0.930 . S
C201 C200 1.384 . S
C201 C202 1.377 . S
C201 C204 1.481 . S
C202 C201 1.377 . S
C202 C203 1.389 . S
C202 H224 0.929 1_455 S
C203 C199 1.397 1_556 S
C203 C202 1.389 . S
C203 H225 0.931 1_455 S
C204 C201 1.481 . S
C204 C205 1.387 . S
C204 C209 1.390 . S
C205 C204 1.387 . S
C205 C206 1.401 . S
C205 H226 0.930 . S
C206 C205 1.401 . S
C206 C207 1.376 . S
C206 C215 1.511 . S
C207 C206 1.376 . S
C207 C208 1.392 . S
C207 H228 0.931 . S
C208 C207 1.392 . S
C208 C209 1.361 . S
C208 C210 1.500 1_455 S
C209 C204 1.390 . S
C209 C208 1.361 . S
C209 H227 0.931 . S
C210 C208 1.500 1_655 S
C210 C211 1.371 . S
C210 C212 1.365 . S
C211 C210 1.371 . S
C211 C221 1.386 . S
C211 H229 0.931 1_655 S
C212 C210 1.365 . S
C212 C213 1.409 . S
C212 H230 0.929 . S
C213 C212 1.409 . S
C213 C214 1.380 . S
C213 H231 0.930 . S
C214 C213 1.380 . S
C214 C221 1.357 . S
C215 C206 1.511 . S
C215 C216 1.341 . S
C215 C217 1.371 . S
C216 C215 1.341 . S
C216 C220 1.394 . S
C216 H232 0.930 . S
C217 C215 1.371 . S
C217 C218 1.392 . S
C217 H233 0.931 . S
C218 C217 1.392 . S
C218 C219 1.331 . S
C218 H236 0.932 . S
C219 C218 1.331 . S
C219 C220 1.336 . S
C220 C216 1.394 . S
C220 C219 1.336 . S
C220 H235 0.929 . S
C221 C211 1.386 . S
C221 C214 1.357 . S
C221 H234 0.928 . S
H222 C198 0.931 1_554 S
H223 C200 0.930 . S
H224 C202 0.929 1_655 S
H225 C203 0.931 1_655 S
H226 C205 0.930 . S
H227 C209 0.931 . S
H228 C207 0.931 . S
H229 C211 0.931 1_455 S
H230 C212 0.929 . S
H231 C213 0.930 . S
H232 C216 0.930 . S
H233 C217 0.931 . S
H234 C221 0.928 . S
H235 C220 0.929 . S
H236 C218 0.932 . S
C237 C238 1.386 . S
C237 C239 1.397 . S
C237 H261 0.931 . S
C238 C237 1.386 . S
C238 C242 1.397 1_655 S
C239 C237 1.397 . S
C239 C240 1.384 . S
C239 H262 0.930 . S
C240 C239 1.384 . S
C240 C241 1.377 1_655 S
C240 C243 1.481 . S
C241 C240 1.377 1_455 S
C241 C242 1.389 . S
C241 H263 0.929 . S
C242 C238 1.397 1_455 S
C242 C241 1.389 . S
C242 H264 0.931 . S
C243 C240 1.481 . S
C243 C244 1.387 . S
C243 C248 1.390 1_655 S
C244 C243 1.387 . S
C244 C245 1.401 . S
C244 H265 0.930 . S
C245 C244 1.401 . S
C245 C246 1.364 1_655 S
C245 C254 1.511 . S
C246 C245 1.364 1_455 S
C246 C247 1.406 . S
C246 H267 0.930 . S
C247 C246 1.406 . S
C247 C248 1.361 . S
C247 C249 1.500 . S
C248 C243 1.390 1_455 S
C248 C247 1.361 . S
C248 H266 0.931 . S
C249 C247 1.500 . S
C249 C250 1.371 . S
C249 C251 1.365 . S
C250 C249 1.371 . S
C250 C260 1.386 . S
C250 H268 0.931 . S
C251 C249 1.365 . S
C251 C252 1.409 . S
C251 H269 0.929 . S
C252 C251 1.409 . S
C252 C253 1.380 . S
C252 H270 0.930 . S
C253 C252 1.380 . S
C253 C260 1.357 . S
C254 C245 1.511 . S
C254 C255 1.341 . S
C254 C256 1.371 . S
C255 C254 1.341 . S
C255 C259 1.394 . S
C255 H271 0.930 . S
C256 C254 1.371 . S
C256 C257 1.392 . S
C256 H272 0.931 . S
C257 C256 1.392 . S
C257 C258 1.331 . S
C257 H275 0.932 . S
C258 C257 1.331 . S
C258 C259 1.336 . S
C259 C255 1.394 . S
C259 C258 1.336 . S
C259 H274 0.929 . S
C260 C250 1.386 . S
C260 C253 1.357 . S
C260 H273 0.928 . S
H261 C237 0.931 . S
H262 C239 0.930 . S
H263 C241 0.929 . S
H264 C242 0.931 . S
H265 C244 0.930 . S
H266 C248 0.931 . S
H267 C246 0.930 . S
H268 C250 0.931 . S
H269 C251 0.929 . S
H270 C252 0.930 . S
H271 C255 0.930 . S
H272 C256 0.931 . S
H273 C260 0.928 . S
H274 C259 0.929 . S
H275 C257 0.932 . S
C276 C277 1.386 . S
C276 C278 1.397 . S
C276 H300 0.931 . S
C277 C276 1.386 . S
C277 C281 1.397 1_565 S
C278 C276 1.397 . S
C278 C279 1.384 . S
C278 H301 0.930 . S
C279 C278 1.384 . S
C279 C280 1.377 1_565 S
C279 C282 1.481 . S
C280 C279 1.377 1_545 S
C280 C281 1.389 . S
C280 H302 0.929 . S
C281 C277 1.397 1_545 S
C281 C280 1.389 . S
C281 H303 0.931 . S
C282 C279 1.481 . S
C282 C283 1.387 . S
C282 C287 1.390 1_565 S
C283 C282 1.387 . S
C283 C284 1.401 . S
C283 H304 0.930 . S
C284 C283 1.401 . S
C284 C285 1.376 1_565 S
C284 C293 1.511 . S
C285 C284 1.376 1_545 S
C285 C286 1.392 . S
C285 H306 0.931 . S
C286 C285 1.392 . S
C286 C287 1.361 . S
C286 C288 1.500 . S
C287 C282 1.390 1_545 S
C287 C286 1.361 . S
C287 H305 0.931 . S
C288 C286 1.500 . S
C288 C289 1.371 . S
C288 C290 1.365 . S
C289 C288 1.371 . S
C289 C299 1.386 . S
C289 H307 0.931 . S
C290 C288 1.365 . S
C290 C291 1.409 . S
C290 H308 0.929 . S
C291 C290 1.409 . S
C291 C292 1.380 . S
C291 H309 0.930 . S
C292 C291 1.380 . S
C292 C299 1.357 . S
C293 C284 1.511 . S
C293 C294 1.341 . S
C293 C295 1.371 . S
C294 C293 1.341 . S
C294 C298 1.394 . S
C294 H310 0.930 . S
C295 C293 1.371 . S
C295 C296 1.392 . S
C295 H311 0.931 . S
C296 C295 1.392 . S
C296 C297 1.331 . S
C296 H314 0.932 . S
C297 C296 1.331 . S
C297 C298 1.336 . S
C298 C294 1.394 . S
C298 C297 1.336 . S
C298 H313 0.929 . S
C299 C289 1.386 . S
C299 C292 1.357 . S
C299 H312 0.928 . S
H300 C276 0.931 . S
H301 C278 0.930 . S
H302 C280 0.929 . S
H303 C281 0.931 . S
H304 C283 0.930 . S
H305 C287 0.931 . S
H306 C285 0.931 . S
H307 C289 0.931 . S
H308 C290 0.929 . S
H309 C291 0.930 . S
H310 C294 0.930 . S
H311 C295 0.931 . S
H312 C299 0.928 . S
H313 C298 0.929 . S
H314 C296 0.932 . S
C315 C316 1.386 . S
C315 C317 1.397 1_556 S
C315 H339 0.931 . S
C316 C315 1.386 . S
C316 C320 1.397 . S
C317 C315 1.397 1_554 S
C317 C318 1.384 . S
C317 H340 0.930 . S
C318 C317 1.384 . S
C318 C319 1.377 . S
C318 C321 1.481 . S
C319 C318 1.377 . S
C319 C320 1.389 1_554 S
C319 H341 0.929 . S
C320 C316 1.397 . S
C320 C319 1.389 1_556 S
C320 H342 0.931 . S
C321 C318 1.481 . S
C321 C322 1.387 . S
C321 C326 1.390 . S
C322 C321 1.387 . S
C322 C323 1.401 . S
C322 H343 0.930 . S
C323 C322 1.401 . S
C323 C324 1.376 . S
C323 C332 1.511 . S
C324 C323 1.376 . S
C324 C325 1.392 . S
C324 H345 0.931 . S
C325 C324 1.392 . S
C325 C326 1.361 . S
C325 C327 1.500 . S
C326 C321 1.390 . S
C326 C325 1.361 . S
C326 H344 0.931 . S
C327 C325 1.500 . S
C327 C328 1.371 . S
C327 C329 1.365 . S
C328 C327 1.371 . S
C328 C338 1.386 . S
C328 H346 0.931 . S
C329 C327 1.365 . S
C329 C330 1.409 . S
C329 H347 0.929 . S
C330 C329 1.409 . S
C330 C331 1.380 . S
C330 H348 0.930 . S
C331 C330 1.380 . S
C331 C338 1.357 . S
C332 C323 1.511 . S
C332 C333 1.341 . S
C332 C334 1.371 . S
C333 C332 1.341 . S
C333 C337 1.394 . S
C333 H349 0.930 . S
C334 C332 1.371 . S
C334 C335 1.392 . S
C334 H350 0.931 . S
C335 C334 1.392 . S
C335 C336 1.331 . S
C335 H353 0.932 . S
C336 C335 1.331 . S
C336 C337 1.336 . S
C337 C333 1.394 . S
C337 C336 1.336 . S
C337 H352 0.929 . S
C338 C328 1.386 . S
C338 C331 1.357 . S
C338 H351 0.928 . S
H339 C315 0.931 . S
H340 C317 0.930 . S
H341 C319 0.929 . S
H342 C320 0.931 . S
H343 C322 0.930 . S
H344 C326 0.931 . S
H345 C324 0.931 . S
H346 C328 0.931 . S
H347 C329 0.929 . S
H348 C330 0.930 . S
H349 C333 0.930 . S
H350 C334 0.931 . S
H351 C338 0.928 . S
H352 C337 0.929 . S
H353 C335 0.932 . S
C354 C355 1.363 . S
C354 C360 1.379 . S
C354 N362 1.356 . S
C355 C354 1.363 . S
C355 C361 1.363 . S
C356 C357 1.363 . S
C356 C361 1.379 . S
C356 N363 1.356 . S
C357 C356 1.363 . S
C357 C360 1.363 . S
N358 C360 1.356 . S
N358 H370 0.984 . S
N358 H371 0.985 . S
N359 C361 1.356 . S
N359 H364 0.984 . S
N359 H365 0.985 . S
C360 C354 1.379 . S
C360 C357 1.363 . S
C360 N358 1.356 . S
C361 C355 1.363 . S
C361 C356 1.379 . S
C361 N359 1.356 . S
N362 C354 1.356 . S
N362 H368 0.984 . S
N362 H369 0.984 . S
N363 C356 1.356 . S
N363 H366 0.984 . S
N363 H367 0.985 . S
H364 N359 0.984 . S
H365 N359 0.985 . S
H366 N363 0.984 . S
H367 N363 0.985 . S
H368 N362 0.984 . S
H369 N362 0.984 . S
H370 N358 0.984 . S
H371 N358 0.985 . S
C372 C373 1.363 . S
C372 C378 1.379 . S
C372 N380 1.356 . S
C373 C372 1.363 . S
C373 C379 1.363 . S
C374 C375 1.363 . S
C374 C379 1.379 . S
C374 N381 1.356 . S
C375 C374 1.363 . S
C375 C378 1.363 . S
N376 C378 1.356 . S
N376 H388 0.984 . S
N376 H389 0.985 . S
N377 C379 1.356 . S
N377 H382 0.984 . S
N377 H383 0.985 . S
C378 C372 1.379 . S
C378 C375 1.363 . S
C378 N376 1.356 . S
C379 C373 1.363 . S
C379 C374 1.379 . S
C379 N377 1.356 . S
N380 C372 1.356 . S
N380 H386 0.984 . S
N380 H387 0.984 . S
N381 C374 1.356 . S
N381 H384 0.984 . S
N381 H385 0.985 . S
H382 N377 0.984 . S
H383 N377 0.985 . S
H384 N381 0.984 . S
H385 N381 0.985 . S
H386 N380 0.984 . S
H387 N380 0.984 . S
H388 N376 0.984 . S
H389 N376 0.985 . S
C390 C391 1.363 . S
C390 C396 1.379 . S
C390 N398 1.356 . S
C391 C390 1.363 . S
C391 C397 1.363 . S
C392 C393 1.363 . S
C392 C397 1.379 . S
C392 N399 1.356 . S
C393 C392 1.363 . S
C393 C396 1.363 . S
N394 C396 1.356 . S
N394 H406 0.984 . S
N394 H407 0.985 . S
N395 C397 1.356 . S
N395 H400 0.984 . S
N395 H401 0.985 . S
C396 C390 1.379 . S
C396 C393 1.363 . S
C396 N394 1.356 . S
C397 C391 1.363 . S
C397 C392 1.379 . S
C397 N395 1.356 . S
N398 C390 1.356 . S
N398 H404 0.984 . S
N398 H405 0.984 . S
N399 C392 1.356 . S
N399 H402 0.984 . S
N399 H403 0.985 . S
H400 N395 0.984 . S
H401 N395 0.985 . S
H402 N399 0.984 . S
H403 N399 0.985 . S
H404 N398 0.984 . S
H405 N398 0.984 . S
H406 N394 0.984 . S
H407 N394 0.985 . S
C408 C409 1.363 . S
C408 C414 1.379 . S
C408 N416 1.356 . S
C409 C408 1.363 . S
C409 C415 1.363 . S
C410 C411 1.363 . S
C410 C415 1.379 . S
C410 N417 1.356 . S
C411 C410 1.363 . S
C411 C414 1.363 . S
N412 C414 1.356 . S
N412 H424 0.984 . S
N412 H425 0.985 . S
N413 C415 1.356 . S
N413 H418 0.984 . S
N413 H419 0.985 . S
C414 C408 1.379 . S
C414 C411 1.363 . S
C414 N412 1.356 . S
C415 C409 1.363 . S
C415 C410 1.379 . S
C415 N413 1.356 . S
N416 C408 1.356 . S
N416 H422 0.984 . S
N416 H423 0.984 . S
N417 C410 1.356 . S
N417 H420 0.984 . S
N417 H421 0.985 . S
H418 N413 0.984 . S
H419 N413 0.985 . S
H420 N417 0.984 . S
H421 N417 0.985 . S
H422 N416 0.984 . S
H423 N416 0.984 . S
H424 N412 0.984 . S
H425 N412 0.985 . S
C426 C427 1.363 . S
C426 C432 1.379 . S
C426 N434 1.356 . S
C427 C426 1.363 . S
C427 C433 1.363 . S
C428 C429 1.363 . S
C428 C433 1.379 . S
C428 N435 1.356 . S
C429 C428 1.363 . S
C429 C432 1.363 . S
N430 C432 1.356 . S
N430 H442 0.984 . S
N430 H443 0.985 . S
N431 C433 1.356 . S
N431 H436 0.984 . S
N431 H437 0.985 . S
C432 C426 1.379 . S
C432 C429 1.363 . S
C432 N430 1.356 . S
C433 C427 1.363 . S
C433 C428 1.379 . S
C433 N431 1.356 . S
N434 C426 1.356 . S
N434 H440 0.984 . S
N434 H441 0.984 . S
N435 C428 1.356 . S
N435 H438 0.984 . S
N435 H439 0.985 . S
H436 N431 0.984 . S
H437 N431 0.985 . S
H438 N435 0.984 . S
H439 N435 0.985 . S
H440 N434 0.984 . S
H441 N434 0.984 . S
H442 N430 0.984 . S
H443 N430 0.985 . S
C444 C445 1.363 . S
C444 C450 1.379 . S
C444 N452 1.356 . S
C445 C444 1.363 . S
C445 C451 1.363 . S
C446 C447 1.363 . S
C446 C451 1.379 . S
C446 N453 1.356 . S
C447 C446 1.363 . S
C447 C450 1.363 . S
N448 C450 1.356 . S
N448 H460 0.984 . S
N448 H461 0.985 . S
N449 C451 1.356 . S
N449 H454 0.984 . S
N449 H455 0.985 . S
C450 C444 1.379 . S
C450 C447 1.363 . S
C450 N448 1.356 . S
C451 C445 1.363 . S
C451 C446 1.379 . S
C451 N449 1.356 . S
N452 C444 1.356 . S
N452 H458 0.984 . S
N452 H459 0.984 . S
N453 C446 1.356 . S
N453 H456 0.984 . S
N453 H457 0.985 . S
H454 N449 0.984 . S
H455 N449 0.985 . S
H456 N453 0.984 . S
H457 N453 0.985 . S
H458 N452 0.984 . S
H459 N452 0.984 . S
H460 N448 0.984 . S
H461 N448 0.985 . S
C462 C463 1.363 . S
C462 C468 1.379 . S
C462 N470 1.356 . S
C463 C462 1.363 . S
C463 C469 1.363 . S
C464 C465 1.363 . S
C464 C469 1.379 . S
C464 N471 1.356 . S
C465 C464 1.363 . S
C465 C468 1.363 . S
N466 C468 1.356 . S
N466 H478 0.984 . S
N466 H479 0.985 . S
N467 C469 1.356 . S
N467 H472 0.984 . S
N467 H473 0.985 . S
C468 C462 1.379 . S
C468 C465 1.363 . S
C468 N466 1.356 . S
C469 C463 1.363 . S
C469 C464 1.379 . S
C469 N467 1.356 . S
N470 C462 1.356 . S
N470 H476 0.984 . S
N470 H477 0.984 . S
N471 C464 1.356 . S
N471 H474 0.984 . S
N471 H475 0.985 . S
H472 N467 0.984 . S
H473 N467 0.985 . S
H474 N471 0.984 . S
H475 N471 0.985 . S
H476 N470 0.984 . S
H477 N470 0.984 . S
H478 N466 0.984 . S
H479 N466 0.985 . S
C480 C481 1.363 . S
C480 C486 1.379 . S
C480 N488 1.356 . S
C481 C480 1.363 . S
C481 C487 1.363 . S
C482 C483 1.363 . S
C482 C487 1.379 . S
C482 N489 1.356 . S
C483 C482 1.363 . S
C483 C486 1.363 . S
N484 C486 1.356 . S
N484 H496 0.984 . S
N484 H497 0.985 . S
N485 C487 1.356 . S
N485 H490 0.984 . S
N485 H491 0.985 . S
C486 C480 1.379 . S
C486 C483 1.363 . S
C486 N484 1.356 . S
C487 C481 1.363 . S
C487 C482 1.379 . S
C487 N485 1.356 . S
N488 C480 1.356 . S
N488 H494 0.984 . S
N488 H495 0.984 . S
N489 C482 1.356 . S
N489 H492 0.984 . S
N489 H493 0.985 . S
H490 N485 0.984 . S
H491 N485 0.985 . S
H492 N489 0.984 . S
H493 N489 0.985 . S
H494 N488 0.984 . S
H495 N488 0.984 . S
H496 N484 0.984 . S
H497 N484 0.985 . S
C498 C499 1.363 . S
C498 C504 1.379 . S
C498 N506 1.356 . S
C499 C498 1.363 . S
C499 C505 1.363 . S
C500 C501 1.363 . S
C500 C505 1.379 . S
C500 N507 1.356 . S
C501 C500 1.363 . S
C501 C504 1.363 . S
N502 C504 1.356 . S
N502 H514 0.984 . S
N502 H515 0.985 . S
N503 C505 1.356 . S
N503 H508 0.984 . S
N503 H509 0.985 . S
C504 C498 1.379 . S
C504 C501 1.363 . S
C504 N502 1.356 . S
C505 C499 1.363 . S
C505 C500 1.379 . S
C505 N503 1.356 . S
N506 C498 1.356 . S
N506 H512 0.984 . S
N506 H513 0.984 . S
N507 C500 1.356 . S
N507 H510 0.984 . S
N507 H511 0.985 . S
H508 N503 0.984 . S
H509 N503 0.985 . S
H510 N507 0.984 . S
H511 N507 0.985 . S
H512 N506 0.984 . S
H513 N506 0.984 . S
H514 N502 0.984 . S
H515 N502 0.985 . S
C516 C517 1.363 . S
C516 C522 1.379 . S
C516 N524 1.356 . S
C517 C516 1.363 . S
C517 C523 1.363 . S
C518 C519 1.363 . S
C518 C523 1.379 . S
C518 N525 1.356 . S
C519 C518 1.363 . S
C519 C522 1.363 . S
N520 C522 1.356 . S
N520 H532 0.984 . S
N520 H533 0.985 . S
N521 C523 1.356 . S
N521 H526 0.984 . S
N521 H527 0.985 . S
C522 C516 1.379 . S
C522 C519 1.363 . S
C522 N520 1.356 . S
C523 C517 1.363 . S
C523 C518 1.379 . S
C523 N521 1.356 . S
N524 C516 1.356 . S
N524 H530 0.984 . S
N524 H531 0.984 . S
N525 C518 1.356 . S
N525 H528 0.984 . S
N525 H529 0.985 . S
H526 N521 0.984 . S
H527 N521 0.985 . S
H528 N525 0.984 . S
H529 N525 0.985 . S
H530 N524 0.984 . S
H531 N524 0.984 . S
H532 N520 0.984 . S
H533 N520 0.985 . S
C534 C535 1.363 . S
C534 C540 1.379 . S
C534 N542 1.356 . S
C535 C534 1.363 . S
C535 C541 1.363 . S
C536 C537 1.363 . S
C536 C541 1.379 . S
C536 N543 1.356 . S
C537 C536 1.363 . S
C537 C540 1.363 . S
N538 C540 1.356 . S
N538 H550 0.984 . S
N538 H551 0.985 . S
N539 C541 1.356 . S
N539 H544 0.984 . S
N539 H545 0.985 . S
C540 C534 1.379 . S
C540 C537 1.363 . S
C540 N538 1.356 . S
C541 C535 1.363 . S
C541 C536 1.379 . S
C541 N539 1.356 . S
N542 C534 1.356 . S
N542 H548 0.984 . S
N542 H549 0.984 . S
N543 C536 1.356 . S
N543 H546 0.984 . S
N543 H547 0.985 . S
H544 N539 0.984 . S
H545 N539 0.985 . S
H546 N543 0.984 . S
H547 N543 0.985 . S
H548 N542 0.984 . S
H549 N542 0.984 . S
H550 N538 0.984 . S
H551 N538 0.985 . S
C552 C553 1.363 . S
C552 C558 1.379 . S
C552 N560 1.356 . S
C553 C552 1.363 . S
C553 C559 1.363 . S
C554 C555 1.363 . S
C554 C559 1.379 . S
C554 N561 1.356 . S
C555 C554 1.363 . S
C555 C558 1.363 . S
N556 C558 1.356 . S
N556 H568 0.984 . S
N556 H569 0.985 . S
N557 C559 1.356 . S
N557 H562 0.984 . S
N557 H563 0.985 . S
C558 C552 1.379 . S
C558 C555 1.363 . S
C558 N556 1.356 . S
C559 C553 1.363 . S
C559 C554 1.379 . S
C559 N557 1.356 . S
N560 C552 1.356 . S
N560 H566 0.984 . S
N560 H567 0.984 . S
N561 C554 1.356 . S
N561 H564 0.984 . S
N561 H565 0.985 . S
H562 N557 0.984 . S
H563 N557 0.985 . S
H564 N561 0.984 . S
H565 N561 0.985 . S
H566 N560 0.984 . S
H567 N560 0.984 . S
H568 N556 0.984 . S
H569 N556 0.985 . S
C570 C571 1.363 . S
C570 C576 1.379 . S
C570 N578 1.356 . S
C571 C570 1.363 . S
C571 C577 1.363 . S
C572 C573 1.363 . S
C572 C577 1.379 . S
C572 N579 1.356 . S
C573 C572 1.363 . S
C573 C576 1.363 . S
N574 C576 1.356 . S
N574 H586 0.984 . S
N574 H587 0.985 . S
N575 C577 1.356 . S
N575 H580 0.984 . S
N575 H581 0.985 . S
C576 C570 1.379 . S
C576 C573 1.363 . S
C576 N574 1.356 . S
C577 C571 1.363 . S
C577 C572 1.379 . S
C577 N575 1.356 . S
N578 C570 1.356 . S
N578 H584 0.984 . S
N578 H585 0.984 . S
N579 C572 1.356 . S
N579 H582 0.984 . S
N579 H583 0.985 . S
H580 N575 0.984 . S
H581 N575 0.985 . S
H582 N579 0.984 . S
H583 N579 0.985 . S
H584 N578 0.984 . S
H585 N578 0.984 . S
H586 N574 0.984 . S
H587 N574 0.985 . S
C588 C589 1.363 . S
C588 C594 1.379 . S
C588 N596 1.356 . S
C589 C588 1.363 . S
C589 C595 1.363 . S
C590 C591 1.363 . S
C590 C595 1.379 . S
C590 N597 1.356 1_545 S
C591 C590 1.363 . S
C591 C594 1.363 . S
N592 C594 1.356 . S
N592 H604 0.984 . S
N592 H605 0.985 . S
N593 C595 1.356 1_565 S
N593 H598 0.984 . S
N593 H599 0.985 . S
C594 C588 1.379 . S
C594 C591 1.363 . S
C594 N592 1.356 . S
C595 C589 1.363 . S
C595 C590 1.379 . S
C595 N593 1.356 1_545 S
N596 C588 1.356 . S
N596 H602 0.984 . S
N596 H603 0.984 . S
N597 C590 1.356 1_565 S
N597 H600 0.984 . S
N597 H601 0.985 . S
H598 N593 0.984 . S
H599 N593 0.985 . S
H600 N597 0.984 . S
H601 N597 0.985 . S
H602 N596 0.984 . S
H603 N596 0.984 . S
H604 N592 0.984 . S
H605 N592 0.985 . S
C606 C607 1.363 . S
C606 C612 1.379 . S
C606 N614 1.356 . S
C607 C606 1.363 . S
C607 C613 1.363 . S
C608 C609 1.363 . S
C608 C613 1.379 . S
C608 N615 1.356 . S
C609 C608 1.363 . S
C609 C612 1.363 . S
N610 C612 1.356 . S
N610 H622 0.984 . S
N610 H623 0.985 . S
N611 C613 1.356 . S
N611 H616 0.984 . S
N611 H617 0.985 . S
C612 C606 1.379 . S
C612 C609 1.363 . S
C612 N610 1.356 . S
C613 C607 1.363 . S
C613 C608 1.379 . S
C613 N611 1.356 . S
N614 C606 1.356 . S
N614 H620 0.984 . S
N614 H621 0.984 . S
N615 C608 1.356 . S
N615 H618 0.984 . S
N615 H619 0.985 . S
H616 N611 0.984 . S
H617 N611 0.985 . S
H618 N615 0.984 . S
H619 N615 0.985 . S
H620 N614 0.984 . S
H621 N614 0.984 . S
H622 N610 0.984 . S
H623 N610 0.985 . S
C624 C625 1.363 1_565 S
C624 C630 1.379 . S
C624 N632 1.356 . S
C625 C624 1.363 1_545 S
C625 C631 1.363 . S
C626 C627 1.363 1_545 S
C626 C631 1.379 . S
C626 N633 1.356 . S
C627 C626 1.363 1_565 S
C627 C630 1.363 . S
N628 C630 1.356 . S
N628 H640 0.984 . S
N628 H641 0.985 . S
N629 C631 1.356 . S
N629 H634 0.984 . S
N629 H635 0.985 . S
C630 C624 1.379 . S
C630 C627 1.363 . S
C630 N628 1.356 . S
C631 C625 1.363 . S
C631 C626 1.379 . S
C631 N629 1.356 . S
N632 C624 1.356 . S
N632 H638 0.984 . S
N632 H639 0.984 . S
N633 C626 1.356 . S
N633 H636 0.984 . S
N633 H637 0.985 . S
H634 N629 0.984 . S
H635 N629 0.985 . S
H636 N633 0.984 . S
H637 N633 0.985 . S
H638 N632 0.984 . S
H639 N632 0.984 . S
H640 N628 0.984 . S
H641 N628 0.985 . S
C642 C643 1.363 . S
C642 C648 1.379 . S
C642 N650 1.356 . S
C643 C642 1.363 . S
C643 C649 1.363 . S
C644 C645 1.363 . S
C644 C649 1.379 . S
C644 N651 1.356 . S
C645 C644 1.363 . S
C645 C648 1.363 . S
N646 C648 1.356 . S
N646 H658 0.984 . S
N646 H659 0.985 . S
N647 C649 1.356 . S
N647 H652 0.984 . S
N647 H653 0.985 . S
C648 C642 1.379 . S
C648 C645 1.363 . S
C648 N646 1.356 . S
C649 C643 1.363 . S
C649 C644 1.379 . S
C649 N647 1.356 . S
N650 C642 1.356 . S
N650 H656 0.984 . S
N650 H657 0.984 . S
N651 C644 1.356 . S
N651 H654 0.984 . S
N651 H655 0.985 . S
H652 N647 0.984 . S
H653 N647 0.985 . S
H654 N651 0.984 . S
H655 N651 0.985 . S
H656 N650 0.984 . S
H657 N650 0.984 . S
H658 N646 0.984 . S
H659 N646 0.985 . S
C660 C661 1.363 1_655 S
C660 C666 1.379 . S
C660 N668 1.356 . S
C661 C660 1.363 1_455 S
C661 C667 1.363 . S
C662 C663 1.363 . S
C662 C667 1.379 . S
C662 N669 1.356 . S
C663 C662 1.363 . S
C663 C666 1.363 1_455 S
N664 C666 1.356 . S
N664 H676 0.984 . S
N664 H677 0.985 . S
N665 C667 1.356 . S
N665 H670 0.984 . S
N665 H671 0.985 . S
C666 C660 1.379 . S
C666 C663 1.363 1_655 S
C666 N664 1.356 . S
C667 C661 1.363 . S
C667 C662 1.379 . S
C667 N665 1.356 . S
N668 C660 1.356 . S
N668 H674 0.984 . S
N668 H675 0.984 . S
N669 C662 1.356 . S
N669 H672 0.984 . S
N669 H673 0.985 . S
H670 N665 0.984 . S
H671 N665 0.985 . S
H672 N669 0.984 . S
H673 N669 0.985 . S
H674 N668 0.984 . S
H675 N668 0.984 . S
H676 N664 0.984 . S
H677 N664 0.985 . S
C355 C25 0.687 . S
C357 C331 0.676 . S
C373 C65 0.649 . S
C375 C258 0.554 . S
C391 C105 0.737 . S
C393 C297 0.726 . S
C409 C4 0.738 . S
C411 C336 0.729 . S
C429 C253 0.573 . S
C427 C44 0.615 . S
C447 C292 0.672 . S
C445 C84 0.683 . S
C463 C60 3.030 . S
C465 C180 2.971 . S
C481 C100 3.195 . S
C483 C214 3.118 . S
C499 C31 3.212 . S
C501 C136 3.115 . S
C519 C175 3.122 . S
C517 C71 3.209 . S
C537 C219 2.986 . S
C535 C111 3.046 . S
C553 C20 3.036 . S
C555 C141 2.978 . S
C573 C199 1.826 . S
C571 C2 1.750 . S
C589 C42 1.778 . S
C591 C121 1.818 . S
C607 C82 1.768 . S
C609 C160 1.821 . S
C627 C277 1.057 . S
C625 C63 1.070 . S
C645 C316 1.117 . S
C643 C103 1.133 . S
C661 C23 1.031 . S
C663 C238 1.027 1_455 S
