# Generated by pormake.
# Topology ptr, (4,4)-cn, num edge types: 1
# Building blocks:
#     Node 0, Type 0, BuildingBlock: QUQFOY_clean_sbu_1, # of connection points: 4
#     Node 1, Type 0, BuildingBlock: QUQFOY_clean_sbu_1, # of connection points: 4
#     Node 2, Type 0, BuildingBlock: QUQFOY_clean_sbu_1, # of connection points: 4
#     Node 3, Type 0, BuildingBlock: QUQFOY_clean_sbu_1, # of connection points: 4
#     Node 4, Type 0, BuildingBlock: QUQFOY_clean_sbu_1, # of connection points: 4
#     Node 5, Type 0, BuildingBlock: QUQFOY_clean_sbu_1, # of connection points: 4
#     Node 6, Type 0, BuildingBlock: QUQFOY_clean_sbu_1, # of connection points: 4
#     Node 7, Type 0, BuildingBlock: QUQFOY_clean_sbu_1, # of connection points: 4
#     Node 8, Type 0, BuildingBlock: QUQFOY_clean_sbu_1, # of connection points: 4
#     Node 9, Type 0, BuildingBlock: QUQFOY_clean_sbu_1, # of connection points: 4
#     Node 10, Type 0, BuildingBlock: QUQFOY_clean_sbu_1, # of connection points: 4
#     Node 11, Type 0, BuildingBlock: QUQFOY_clean_sbu_1, # of connection points: 4
#     Node 12, Type 0, BuildingBlock: QUQFOY_clean_sbu_1, # of connection points: 4
#     Node 13, Type 0, BuildingBlock: QUQFOY_clean_sbu_1, # of connection points: 4
#     Node 14, Type 0, BuildingBlock: QUQFOY_clean_sbu_1, # of connection points: 4
#     Node 15, Type 0, BuildingBlock: QUQFOY_clean_sbu_1, # of connection points: 4
#     Node 16, Type 0, BuildingBlock: QUQFOY_clean_sbu_1, # of connection points: 4
#     Node 17, Type 0, BuildingBlock: QUQFOY_clean_sbu_1, # of connection points: 4
#     Node 18, Type 1, BuildingBlock: NAWXER_clean_linker_0, # of connection points: 4
#     Node 19, Type 1, BuildingBlock: NAWXER_clean_linker_0, # of connection points: 4
#     Node 20, Type 1, BuildingBlock: NAWXER_clean_linker_0, # of connection points: 4
#     Node 21, Type 1, BuildingBlock: NAWXER_clean_linker_0, # of connection points: 4
#     Node 22, Type 1, BuildingBlock: NAWXER_clean_linker_0, # of connection points: 4
#     Node 23, Type 1, BuildingBlock: NAWXER_clean_linker_0, # of connection points: 4
#     Node 24, Type 1, BuildingBlock: NAWXER_clean_linker_0, # of connection points: 4
#     Node 25, Type 1, BuildingBlock: NAWXER_clean_linker_0, # of connection points: 4
#     Node 26, Type 1, BuildingBlock: NAWXER_clean_linker_0, # of connection points: 4
#     Node 27, Type 1, BuildingBlock: NAWXER_clean_linker_0, # of connection points: 4
#     Node 28, Type 1, BuildingBlock: NAWXER_clean_linker_0, # of connection points: 4
#     Node 29, Type 1, BuildingBlock: NAWXER_clean_linker_0, # of connection points: 4
#     Node 30, Type 1, BuildingBlock: NAWXER_clean_linker_0, # of connection points: 4
#     Node 31, Type 1, BuildingBlock: NAWXER_clean_linker_0, # of connection points: 4
#     Node 32, Type 1, BuildingBlock: NAWXER_clean_linker_0, # of connection points: 4
#     Node 33, Type 1, BuildingBlock: NAWXER_clean_linker_0, # of connection points: 4
#     Node 34, Type 1, BuildingBlock: NAWXER_clean_linker_0, # of connection points: 4
#     Node 35, Type 1, BuildingBlock: NAWXER_clean_linker_0, # of connection points: 4
#     Edge 36, Type (0, 1), BuildingBlock: OJICUG_clean_linker_0, # of connection points: 2
#     Edge 37, Type (0, 1), BuildingBlock: OJICUG_clean_linker_0, # of connection points: 2
#     Edge 38, Type (0, 1), BuildingBlock: OJICUG_clean_linker_0, # of connection points: 2
#     Edge 39, Type (0, 1), BuildingBlock: OJICUG_clean_linker_0, # of connection points: 2
#     Edge 40, Type (0, 1), BuildingBlock: OJICUG_clean_linker_0, # of connection points: 2
#     Edge 41, Type (0, 1), BuildingBlock: OJICUG_clean_linker_0, # of connection points: 2
#     Edge 42, Type (0, 1), BuildingBlock: OJICUG_clean_linker_0, # of connection points: 2
#     Edge 43, Type (0, 1), BuildingBlock: OJICUG_clean_linker_0, # of connection points: 2
#     Edge 44, Type (0, 1), BuildingBlock: OJICUG_clean_linker_0, # of connection points: 2
#     Edge 45, Type (0, 1), BuildingBlock: OJICUG_clean_linker_0, # of connection points: 2
#     Edge 46, Type (0, 1), BuildingBlock: OJICUG_clean_linker_0, # of connection points: 2
#     Edge 47, Type (0, 1), BuildingBlock: OJICUG_clean_linker_0, # of connection points: 2
#     Edge 48, Type (0, 1), BuildingBlock: OJICUG_clean_linker_0, # of connection points: 2
#     Edge 49, Type (0, 1), BuildingBlock: OJICUG_clean_linker_0, # of connection points: 2
#     Edge 50, Type (0, 1), BuildingBlock: OJICUG_clean_linker_0, # of connection points: 2
#     Edge 51, Type (0, 1), BuildingBlock: OJICUG_clean_linker_0, # of connection points: 2
#     Edge 52, Type (0, 1), BuildingBlock: OJICUG_clean_linker_0, # of connection points: 2
#     Edge 53, Type (0, 1), BuildingBlock: OJICUG_clean_linker_0, # of connection points: 2
#     Edge 54, Type (0, 1), BuildingBlock: OJICUG_clean_linker_0, # of connection points: 2
#     Edge 55, Type (0, 1), BuildingBlock: OJICUG_clean_linker_0, # of connection points: 2
#     Edge 56, Type (0, 1), BuildingBlock: OJICUG_clean_linker_0, # of connection points: 2
#     Edge 57, Type (0, 1), BuildingBlock: OJICUG_clean_linker_0, # of connection points: 2
#     Edge 58, Type (0, 1), BuildingBlock: OJICUG_clean_linker_0, # of connection points: 2
#     Edge 59, Type (0, 1), BuildingBlock: OJICUG_clean_linker_0, # of connection points: 2
#     Edge 60, Type (0, 1), BuildingBlock: OJICUG_clean_linker_0, # of connection points: 2
#     Edge 61, Type (0, 1), BuildingBlock: OJICUG_clean_linker_0, # of connection points: 2
#     Edge 62, Type (0, 1), BuildingBlock: OJICUG_clean_linker_0, # of connection points: 2
#     Edge 63, Type (0, 1), BuildingBlock: OJICUG_clean_linker_0, # of connection points: 2
#     Edge 64, Type (0, 1), BuildingBlock: OJICUG_clean_linker_0, # of connection points: 2
#     Edge 65, Type (0, 1), BuildingBlock: OJICUG_clean_linker_0, # of connection points: 2
#     Edge 66, Type (0, 1), BuildingBlock: OJICUG_clean_linker_0, # of connection points: 2
#     Edge 67, Type (0, 1), BuildingBlock: OJICUG_clean_linker_0, # of connection points: 2
#     Edge 68, Type (0, 1), BuildingBlock: OJICUG_clean_linker_0, # of connection points: 2
#     Edge 69, Type (0, 1), BuildingBlock: OJICUG_clean_linker_0, # of connection points: 2
#     Edge 70, Type (0, 1), BuildingBlock: OJICUG_clean_linker_0, # of connection points: 2
#     Edge 71, Type (0, 1), BuildingBlock: OJICUG_clean_linker_0, # of connection points: 2
#     Edge 72, Type (0, 1), BuildingBlock: OJICUG_clean_linker_0, # of connection points: 2
#     Edge 73, Type (0, 1), BuildingBlock: OJICUG_clean_linker_0, # of connection points: 2
#     Edge 74, Type (0, 1), BuildingBlock: OJICUG_clean_linker_0, # of connection points: 2
#     Edge 75, Type (0, 1), BuildingBlock: OJICUG_clean_linker_0, # of connection points: 2
#     Edge 76, Type (0, 1), BuildingBlock: OJICUG_clean_linker_0, # of connection points: 2
#     Edge 77, Type (0, 1), BuildingBlock: OJICUG_clean_linker_0, # of connection points: 2
#     Edge 78, Type (0, 1), BuildingBlock: OJICUG_clean_linker_0, # of connection points: 2
#     Edge 79, Type (0, 1), BuildingBlock: OJICUG_clean_linker_0, # of connection points: 2
#     Edge 80, Type (0, 1), BuildingBlock: OJICUG_clean_linker_0, # of connection points: 2
#     Edge 81, Type (0, 1), BuildingBlock: OJICUG_clean_linker_0, # of connection points: 2
#     Edge 82, Type (0, 1), BuildingBlock: OJICUG_clean_linker_0, # of connection points: 2
#     Edge 83, Type (0, 1), BuildingBlock: OJICUG_clean_linker_0, # of connection points: 2
#     Edge 84, Type (0, 1), BuildingBlock: OJICUG_clean_linker_0, # of connection points: 2
#     Edge 85, Type (0, 1), BuildingBlock: OJICUG_clean_linker_0, # of connection points: 2
#     Edge 86, Type (0, 1), BuildingBlock: OJICUG_clean_linker_0, # of connection points: 2
#     Edge 87, Type (0, 1), BuildingBlock: OJICUG_clean_linker_0, # of connection points: 2
#     Edge 88, Type (0, 1), BuildingBlock: OJICUG_clean_linker_0, # of connection points: 2
#     Edge 89, Type (0, 1), BuildingBlock: OJICUG_clean_linker_0, # of connection points: 2
#     Edge 90, Type (0, 1), BuildingBlock: OJICUG_clean_linker_0, # of connection points: 2
#     Edge 91, Type (0, 1), BuildingBlock: OJICUG_clean_linker_0, # of connection points: 2
#     Edge 92, Type (0, 1), BuildingBlock: OJICUG_clean_linker_0, # of connection points: 2
#     Edge 93, Type (0, 1), BuildingBlock: OJICUG_clean_linker_0, # of connection points: 2
#     Edge 94, Type (0, 1), BuildingBlock: OJICUG_clean_linker_0, # of connection points: 2
#     Edge 95, Type (0, 1), BuildingBlock: OJICUG_clean_linker_0, # of connection points: 2
#     Edge 96, Type (0, 1), BuildingBlock: OJICUG_clean_linker_0, # of connection points: 2
#     Edge 97, Type (0, 1), BuildingBlock: OJICUG_clean_linker_0, # of connection points: 2
#     Edge 98, Type (0, 1), BuildingBlock: OJICUG_clean_linker_0, # of connection points: 2
#     Edge 99, Type (0, 1), BuildingBlock: OJICUG_clean_linker_0, # of connection points: 2
#     Edge 100, Type (0, 1), BuildingBlock: OJICUG_clean_linker_0, # of connection points: 2
#     Edge 101, Type (0, 1), BuildingBlock: OJICUG_clean_linker_0, # of connection points: 2
#     Edge 102, Type (0, 1), BuildingBlock: OJICUG_clean_linker_0, # of connection points: 2
#     Edge 103, Type (0, 1), BuildingBlock: OJICUG_clean_linker_0, # of connection points: 2
#     Edge 104, Type (0, 1), BuildingBlock: OJICUG_clean_linker_0, # of connection points: 2
#     Edge 105, Type (0, 1), BuildingBlock: OJICUG_clean_linker_0, # of connection points: 2
#     Edge 106, Type (0, 1), BuildingBlock: OJICUG_clean_linker_0, # of connection points: 2
#     Edge 107, Type (0, 1), BuildingBlock: OJICUG_clean_linker_0, # of connection points: 2
# Relax obj value: 0.008
# Max RMSD: 0.054
# Mean RMSD: 0.038
data_MOF--net-ptr--node1-QUQFOY_clean_sbu_1--node2-NAWXER_clean_linker_0--edge1-OJICUG_clean_linker_0
_symmetry_space_group_name_H-M    P1
_symmetry_Int_Tables_number       1
_symmetry_cell_setting            triclinic
loop_
_symmetry_equiv_pos_as_xyz
'x, y, z'
_cell_length_a     69.786581
_cell_length_b     69.791602
_cell_length_c     50.50984
_cell_angle_alpha  90.109837
_cell_angle_beta   89.853966
_cell_angle_gamma 119.88807
loop_
_atom_site_label
_atom_site_type_symbol
_atom_site_fract_x
_atom_site_fract_y
_atom_site_fract_z
_atom_type_partial_charge
O0 O 0.02009 0.38896 0.04904 0.0
Cd1 Cd 0.02691 0.37525 0.01694 0.0
Cd2 Cd 0.98321 0.35405 0.01126 0.0
O3 O 0.984 0.36677 0.04877 0.0
O4 O 0.05707 0.37972 0.02309 0.0
O5 O 0.02669 0.34687 0.02446 0.0
C6 C 0.04782 0.35878 0.0276 0.0
C7 C 0.9615 0.31674 1.00099 0.0
C8 C 0.00129 0.38208 0.05973 0.0
C9 C 0.00976 0.38661 0.96888 0.0
O10 O 0.9907 0.37474 0.97902 0.0
O11 O 0.02678 0.38808 0.98002 0.0
O12 O 0.95274 0.32893 1.00536 0.0
O13 O 0.98262 0.32548 1.00378 0.0
O14 O 0.61257 0.62741 0.05537 0.0
Cd15 Cd 0.62581 0.64845 0.02344 0.0
Cd16 Cd 0.64861 0.62763 0.01879 0.0
O17 O 0.63653 0.61563 0.05636 0.0
O18 O 0.61861 0.67223 0.0305 0.0
O19 O 0.6528 0.67804 0.03024 0.0
C20 C 0.63943 0.68554 0.03421 0.0
C21 C 0.68591 0.64449 1.00767 0.0
C22 C 0.62025 0.61639 0.0666 0.0
C23 C 0.61578 0.61984 0.97594 0.0
O24 O 0.62758 0.61305 0.98716 0.0
O25 O 0.61406 0.63562 0.98611 0.0
O26 O 0.67456 0.62358 0.01246 0.0
O27 O 0.67635 0.65616 0.01055 0.0
O28 O 0.38945 0.01563 0.98899 0.0
Cd29 Cd 0.37518 0.02189 0.0212 0.0
Cd30 Cd 0.35545 0.97832 0.02574 0.0
O31 O 0.36754 0.9795 0.98791 0.0
O32 O 0.37974 0.0521 0.01518 0.0
O33 O 0.34688 0.02179 0.01336 0.0
C34 C 0.35886 0.04293 0.01042 0.0
C35 C 0.31857 0.95497 0.03741 0.0
C36 C 0.38282 0.99714 0.97753 0.0
C37 C 0.38784 0.00516 0.06826 0.0
O38 O 0.37723 0.98646 0.05693 0.0
O39 O 0.38767 0.02186 0.05847 0.0
O40 O 0.33185 0.94744 0.03317 0.0
O41 O 0.32597 0.9758 0.03355 0.0
O42 O 0.9918 0.61668 0.98267 0.0
Cd43 Cd 0.9835 0.6298 0.01431 0.0
Cd44 Cd 0.02761 0.6518 0.01958 0.0
O45 O 0.02782 0.63919 0.98242 0.0
O46 O 0.95255 0.6218 1.00616 0.0
O47 O 0.98003 0.65636 1.00736 0.0
C48 C 0.95945 0.64252 1.00265 0.0
C49 C 0.05104 0.6887 0.03106 0.0
C50 C 0.01057 0.6235 0.97189 0.0
C51 C 1.00057 0.61908 0.06236 0.0
O52 O 0.01937 0.63081 0.05159 0.0
O53 O 0.98335 0.61743 0.05162 0.0
O54 O 0.05841 0.67523 0.02748 0.0
O55 O 0.03036 0.68155 0.02639 0.0
O56 O 0.3927 0.37626 0.9865 0.0
Cd57 Cd 0.37888 0.35442 0.01761 0.0
Cd58 Cd 0.35759 0.37699 0.02482 0.0
O59 O 0.36923 0.38872 0.98709 0.0
O60 O 0.38435 0.3296 0.00969 0.0
O61 O 0.351 0.32611 0.00909 0.0
C62 C 0.36346 0.31752 1.00523 0.0
C63 C 0.32117 0.36483 0.03768 0.0
C64 C 0.38508 0.38764 0.97604 0.0
C65 C 0.39026 0.3815 0.06651 0.0
O66 O 0.37939 0.38966 0.05604 0.0
O67 O 0.3908 0.36541 0.05541 0.0
O68 O 0.33502 0.38548 0.03377 0.0
O69 O 0.32764 0.35078 0.03262 0.0
O70 O 0.61123 0.98515 0.0543 0.0
Cd71 Cd 0.62441 0.97641 0.023 0.0
Cd72 Cd 0.64823 0.02036 0.01756 0.0
O73 O 0.63553 0.02077 0.05461 0.0
O74 O 0.61763 0.94581 0.0312 0.0
O75 O 0.65169 0.97432 0.03017 0.0
C76 C 0.63851 0.95354 0.03471 0.0
C77 C 0.68501 0.04453 1.00604 0.0
C78 C 0.61906 0.00408 0.06503 0.0
C79 C 0.61545 0.99405 0.97442 0.0
O80 O 0.62766 0.01268 0.98529 0.0
O81 O 0.61273 0.97647 0.98536 0.0
O82 O 0.67113 0.05137 0.00964 0.0
O83 O 0.67839 0.02397 0.01083 0.0
O84 O 0.67835 0.72329 0.38924 0.0
Cd85 Cd 0.6881 0.71054 0.35853 0.0
Cd86 Cd 0.64393 0.68739 0.35125 0.0
O87 O 0.64258 0.69962 0.38825 0.0
O88 O 0.71877 0.7185 0.36831 0.0
O89 O 0.69129 0.68395 0.36629 0.0
C90 C 0.71173 0.69774 0.3718 0.0
C91 C 0.62036 0.6507 0.33905 0.0
C92 C 0.6592 0.71571 0.39926 0.0
C93 C 0.67201 0.72031 0.30904 0.0
O94 O 0.65299 0.70838 0.3192 0.0
O95 O 0.6891 0.7225 0.32075 0.0
O96 O 0.61322 0.66441 0.34209 0.0
O97 O 0.64081 0.65746 0.34473 0.0
O98 O 0.28039 0.96334 0.38996 0.0
Cd99 Cd 0.2936 0.98433 0.35798 0.0
Cd100 Cd 0.31575 0.96231 0.35325 0.0
O101 O 0.3031 0.94998 0.39051 0.0
O102 O 0.28646 0.00805 0.36542 0.0
O103 O 0.32066 0.01391 0.36481 0.0
C104 C 0.30727 0.02135 0.36905 0.0
C105 C 0.35243 0.97467 0.34154 0.0
C106 C 0.28737 0.95161 0.40096 0.0
C107 C 0.28317 0.95626 0.31021 0.0
O108 O 0.29486 0.9493 0.32131 0.0
O109 O 0.28137 0.97188 0.32066 0.0
O110 O 0.33859 0.95402 0.34542 0.0
O111 O 0.34583 0.98868 0.34615 0.0
O112 O 0.05684 0.34932 0.31539 0.0
Cd113 Cd 0.04409 0.3577 0.34739 0.0
Cd114 Cd 0.02031 0.31426 0.35233 0.0
O115 O 0.03181 0.31398 0.31448 0.0
O116 O 0.05165 0.3887 0.3401 0.0
O117 O 0.01731 0.36071 0.34058 0.0
C118 C 0.03087 0.38144 0.33635 0.0
C119 C 0.98301 0.29409 0.36375 0.0
C120 C 0.04839 0.33057 0.30411 0.0
C121 C 0.05393 0.33893 0.39467 0.0
O122 O 0.04165 0.32038 0.38358 0.0
O123 O 0.05593 0.35653 0.38459 0.0
O124 O 0.99425 0.28441 0.3587 0.0
O125 O 0.99268 0.3153 0.36112 0.0
O126 O 0.65913 0.94925 0.31947 0.0
Cd127 Cd 0.65061 0.96144 0.35186 0.0
Cd128 Cd 0.69464 0.9811 0.35857 0.0
O129 O 0.69536 0.97019 0.32066 0.0
O130 O 0.61963 0.9531 0.34317 0.0
O131 O 0.64659 0.98781 0.34543 0.0
C132 C 0.62621 0.97378 0.34001 0.0
C133 C 0.71728 0.01762 0.37184 0.0
C134 C 0.67797 0.95571 0.30907 0.0
C135 C 0.66586 0.94748 0.3993 0.0
O136 O 0.68498 0.95851 0.38905 0.0
O137 O 0.64945 0.94771 0.3887 0.0
O138 O 0.72504 0.00445 0.36826 0.0
O139 O 0.69668 0.01032 0.36645 0.0
O140 O 0.0561 0.70452 0.31825 0.0
Cd141 Cd 0.04298 0.68341 0.35012 0.0
Cd142 Cd 0.02017 0.70461 0.35468 0.0
O143 O 0.03272 0.71705 0.31748 0.0
O144 O 0.05023 0.6598 0.34254 0.0
O145 O 0.01599 0.65389 0.34303 0.0
C146 C 0.02943 0.64652 0.3387 0.0
C147 C 0.98338 0.6918 0.36612 0.0
C148 C 0.04873 0.71586 0.30713 0.0
C149 C 0.05275 0.7112 0.39795 0.0
O150 O 0.04088 0.71788 0.38673 0.0
O151 O 0.05491 0.69578 0.38754 0.0
O152 O 0.99705 0.7125 0.36233 0.0
O153 O 0.99024 0.67798 0.3616 0.0
O154 O 0.28029 0.31865 0.38771 0.0
Cd155 Cd 0.29326 0.31036 0.35587 0.0
Cd156 Cd 0.3169 0.35381 0.35089 0.0
O157 O 0.30532 0.35399 0.38874 0.0
O158 O 0.28598 0.27947 0.36339 0.0
O159 O 0.32021 0.30768 0.36298 0.0
C160 C 0.30677 0.28694 0.36733 0.0
C161 C 0.35417 0.37462 0.33954 0.0
C162 C 0.28872 0.33737 0.39904 0.0
C163 C 0.28335 0.32893 0.3085 0.0
O164 O 0.29552 0.34749 0.31963 0.0
O165 O 0.28145 0.31137 0.31858 0.0
O166 O 0.34258 0.38392 0.34461 0.0
O167 O 0.34487 0.35342 0.34209 0.0
O168 O 0.34433 0.0536 0.72401 0.0
Cd169 Cd 0.35374 0.04105 0.6927 0.0
Cd170 Cd 0.30947 0.01753 0.68618 0.0
O171 O 0.30854 0.02996 0.7232 0.0
O172 O 0.38482 0.04957 0.7011 0.0
O173 O 0.35773 0.01482 0.69983 0.0
C174 C 0.37826 0.0289 0.70447 0.0
C175 C 0.28562 0.98064 0.67478 0.0
C176 C 0.32522 0.04602 0.73417 0.0
C177 C 0.33671 0.05078 0.64385 0.0
O178 O 0.31779 0.03845 0.65407 0.0
O179 O 0.35399 0.05318 0.65526 0.0
O180 O 0.27858 0.99441 0.67803 0.0
O181 O 0.30622 0.98751 0.67961 0.0
O182 O 0.94624 0.28976 0.72057 0.0
Cd183 Cd 0.95869 0.31214 0.68971 0.0
Cd184 Cd 0.97966 0.28886 0.6801 0.0
O185 O 0.96801 0.2754 0.71718 0.0
O186 O 0.95087 0.33492 0.70011 0.0
O187 O 0.98539 0.34205 0.69671 0.0
C188 C 0.97167 0.34876 0.70267 0.0
C189 C 0.01595 0.3011 0.66665 0.0
C190 C 0.95298 0.27711 0.72942 0.0
C191 C 0.94647 0.28599 0.63979 0.0
O192 O 0.95776 0.27777 0.6489 0.0
O193 O 0.94573 0.30148 0.65219 0.0
O194 O 0.00187 0.28037 0.6694 0.0
O195 O 0.00978 0.31513 0.67318 0.0
O196 O 0.72289 0.6795 0.65065 0.0
Cd197 Cd 0.71094 0.6889 0.68273 0.0
Cd198 Cd 0.69064 0.64505 0.69289 0.0
O199 O 0.703 0.64336 0.65632 0.0
O200 O 0.71616 0.71899 0.67414 0.0
O201 O 0.68275 0.68945 0.67621 0.0
C202 C 0.69509 0.7103 0.67138 0.0
C203 C 0.65409 0.62101 0.70539 0.0
C204 C 0.71684 0.65995 0.64291 0.0
C205 C 0.72424 0.67531 0.73251 0.0
O206 O 0.71232 0.65569 0.72409 0.0
O207 O 0.7251 0.69144 0.71977 0.0
O208 O 0.66825 0.61435 0.70306 0.0
O209 O 0.6604 0.64125 0.69912 0.0
O210 O 0.31566 0.27829 0.6572 0.0
Cd211 Cd 0.30759 0.29098 0.68926 0.0
Cd212 Cd 0.35144 0.31175 0.69748 0.0
O213 O 0.35187 0.29895 0.66033 0.0
O214 O 0.2778 0.28675 0.68142 0.0
O215 O 0.30813 0.31966 0.68264 0.0
C216 C 0.28718 0.30784 0.67809 0.0
C217 C 0.37588 0.34867 0.70819 0.0
C218 C 0.33484 0.28459 0.64797 0.0
C219 C 0.32203 0.27826 0.73832 0.0
O220 O 0.34154 0.29084 0.72985 0.0
O221 O 0.3055 0.27649 0.72566 0.0
O222 O 0.38244 0.33442 0.70605 0.0
O223 O 0.35543 0.34217 0.70291 0.0
O224 O 0.72228 0.04601 0.64961 0.0
Cd225 Cd 0.7095 0.02448 0.68115 0.0
Cd226 Cd 0.6887 0.0478 0.68845 0.0
O227 O 0.70064 0.06057 0.65116 0.0
O228 O 0.71778 0.00179 0.67215 0.0
O229 O 0.6831 0.99432 0.67431 0.0
C230 C 0.69708 0.98779 0.66907 0.0
C231 C 0.65184 0.03426 0.7005 0.0
C232 C 0.71573 0.05848 0.6397 0.0
C233 C 0.72184 0.05229 0.72976 0.0
O234 O 0.71049 0.06015 0.71984 0.0
O235 O 0.72245 0.03631 0.71841 0.0
O236 O 0.66533 0.05512 0.69752 0.0
O237 O 0.65902 0.0208 0.69522 0.0
O238 O 0.94361 0.65492 0.72182 0.0
Cd239 Cd 0.95635 0.64521 0.69098 0.0
Cd240 Cd 0.97866 0.68927 0.6827 0.0
O241 O 0.96681 0.69077 0.71991 0.0
O242 O 0.94885 0.61464 0.70095 0.0
O243 O 0.98322 0.64237 0.69847 0.0
C244 C 0.96967 0.62191 0.70418 0.0
C245 C 0.01546 0.71296 0.67039 0.0
C246 C 0.95103 0.67418 0.73141 0.0
C247 C 0.94498 0.66046 0.64168 0.0
O248 O 0.95686 0.6797 0.65129 0.0
O249 O 0.94371 0.64375 0.65344 0.0
O250 O 0.00165 0.71999 0.67329 0.0
O251 O 0.00866 0.69247 0.67587 0.0
C252 C 0.24169 0.35215 0.11781 0.0
C253 C 0.24024 0.33967 0.09521 0.0
C254 C 0.22283 0.34714 0.13266 0.0
C255 C 0.20215 0.32948 0.12526 0.0
C256 C 0.21955 0.32182 0.08806 0.0
C257 C 0.20066 0.31692 0.10281 0.0
C258 C 0.18179 0.3253 0.13929 0.0
C259 C 0.22152 0.31123 0.19979 0.0
C260 C 0.22727 0.32517 0.22207 0.0
C261 C 0.20604 0.31037 0.18144 0.0
C262 C 0.19603 0.32336 0.18518 0.0
C263 C 0.21716 0.33809 0.22564 0.0
C264 C 0.20167 0.33709 0.20751 0.0
C265 C 0.17891 0.3223 0.16696 0.0
C266 C 0.09925 0.30347 0.21535 0.0
C267 C 0.09438 0.32073 0.21403 0.0
C268 C 0.11439 0.30276 0.19779 0.0
C269 C 0.12485 0.31911 0.17834 0.0
C270 C 0.10418 0.33659 0.19381 0.0
C271 C 0.11935 0.33587 0.17624 0.0
C272 C 0.14381 0.32036 0.16354 0.0
C273 C 0.12508 0.35012 0.08891 0.0
C274 C 0.10304 0.33329 0.08489 0.0
C275 C 0.13917 0.34671 0.10527 0.0
C276 C 0.13148 0.32667 0.11873 0.0
C277 C 0.0955 0.313 0.0982 0.0
C278 C 0.10955 0.30981 0.11516 0.0
C279 C 0.14686 0.32372 0.13596 0.0
H280 H 0.25743 0.36591 0.12393 0.0
H281 H 0.22434 0.35742 0.14951 0.0
H282 H 0.21788 0.31205 0.07062 0.0
H283 H 0.1848 0.30341 0.09655 0.0
H284 H 0.22903 0.30109 0.19653 0.0
H285 H 0.20167 0.29934 0.16461 0.0
H286 H 0.2209 0.34869 0.24281 0.0
H287 H 0.19406 0.34715 0.21094 0.0
H288 H 0.0923 0.29117 0.23086 0.0
H289 H 0.11859 0.28985 0.20006 0.0
H290 H 0.10068 0.35002 0.19211 0.0
H291 H 0.12764 0.3491 0.16202 0.0
H292 H 0.1315 0.36622 0.07987 0.0
H293 H 0.15604 0.35997 0.1079 0.0
H294 H 0.07883 0.29947 0.09543 0.0
H295 H 0.1034 0.29412 0.12521 0.0
N296 N 0.16568 0.32596 0.12491 0.0
N297 N 0.15999 0.31984 0.17788 0.0
C298 C 0.65387 0.88902 0.11316 0.0
C299 C 0.66697 0.90023 0.0911 0.0
C300 C 0.65911 0.87593 0.12896 0.0
C301 C 0.67768 0.87383 0.1232 0.0
C302 C 0.68573 0.89839 0.08548 0.0
C303 C 0.69089 0.88506 0.10124 0.0
C304 C 0.68183 0.85827 0.13866 0.0
C305 C 0.69581 0.9131 0.19843 0.0
C306 C 0.68032 0.90582 0.21925 0.0
C307 C 0.69603 0.89788 0.18041 0.0
C308 C 0.68094 0.87519 0.18323 0.0
C309 C 0.66499 0.88316 0.22152 0.0
C310 C 0.66539 0.86805 0.20384 0.0
C311 C 0.68212 0.85835 0.16661 0.0
C312 C 0.69296 0.7814 0.19868 0.0
C313 C 0.67717 0.77361 0.21919 0.0
C314 C 0.694 0.79716 0.18061 0.0
C315 C 0.67941 0.80546 0.18307 0.0
C316 C 0.66235 0.78166 0.22107 0.0
C317 C 0.66355 0.79746 0.20334 0.0
C318 C 0.68149 0.82386 0.16652 0.0
C319 C 0.65322 0.7653 0.11219 0.0
C320 C 0.66667 0.76716 0.09047 0.0
C321 C 0.65836 0.78356 0.12816 0.0
C322 C 0.67716 0.80409 0.1229 0.0
C323 C 0.68563 0.78766 0.08532 0.0
C324 C 0.69068 0.80605 0.10125 0.0
C325 C 0.68137 0.82375 0.13856 0.0
H326 H 0.63941 0.89025 0.11812 0.0
H327 H 0.64826 0.86694 0.14529 0.0
H328 H 0.69603 0.90674 0.06849 0.0
H329 H 0.70508 0.88338 0.09621 0.0
H330 H 0.7078 0.93049 0.19623 0.0
H331 H 0.70837 0.90372 0.16485 0.0
H332 H 0.65309 0.87697 0.23757 0.0
H333 H 0.65367 0.85062 0.20649 0.0
H334 H 0.70457 0.77545 0.19676 0.0
H335 H 0.70657 0.80334 0.16533 0.0
H336 H 0.65023 0.77629 0.23686 0.0
H337 H 0.65221 0.80372 0.20571 0.0
H338 H 0.63862 0.74969 0.1168 0.0
H339 H 0.64729 0.78173 0.14425 0.0
H340 H 0.6962 0.78959 0.0686 0.0
H341 H 0.70506 0.82183 0.0966 0.0
N342 N 0.68163 0.84103 0.12567 0.0
N343 N 0.6819 0.84115 0.17929 0.0
C344 C 0.1158 0.76576 0.11234 0.0
C345 C 0.10465 0.76842 0.09078 0.0
C346 C 0.12884 0.78351 0.12899 0.0
C347 C 0.13091 0.80431 0.12459 0.0
C348 C 0.10649 0.78918 0.08653 0.0
C349 C 0.11974 0.80705 0.10314 0.0
C350 C 0.14639 0.82351 0.1408 0.0
C351 C 0.09199 0.77951 0.19927 0.0
C352 C 0.0997 0.77168 0.22 0.0
C353 C 0.10695 0.79573 0.18179 0.0
C354 C 0.12981 0.80442 0.18496 0.0
C355 C 0.12257 0.7802 0.22269 0.0
C356 C 0.1374 0.79641 0.20548 0.0
C357 C 0.1463 0.82306 0.16876 0.0
C358 C 0.22149 0.91217 0.2012 0.0
C359 C 0.22927 0.90476 0.2223 0.0
C360 C 0.206 0.89701 0.18328 0.0
C361 C 0.19795 0.87424 0.18638 0.0
C362 C 0.22135 0.882 0.22499 0.0
C363 C 0.20583 0.86695 0.20734 0.0
C364 C 0.18012 0.85752 0.16948 0.0
C365 C 0.23912 0.8892 0.11592 0.0
C366 C 0.23716 0.90058 0.09411 0.0
C367 C 0.22083 0.87589 0.1317 0.0
C368 C 0.20013 0.87374 0.12618 0.0
C369 C 0.21652 0.89867 0.08873 0.0
C370 C 0.19808 0.88513 0.10448 0.0
C371 C 0.18045 0.85794 0.14152 0.0
H372 H 0.11456 0.74992 0.11627 0.0
H373 H 0.13778 0.78108 0.14492 0.0
H374 H 0.09819 0.79173 0.06996 0.0
H375 H 0.1214 0.82306 0.09914 0.0
H376 H 0.07445 0.77323 0.19669 0.0
H377 H 0.10071 0.8019 0.16636 0.0
H378 H 0.12911 0.77486 0.23869 0.0
H379 H 0.15495 0.80293 0.20844 0.0
H380 H 0.22732 0.92963 0.19865 0.0
H381 H 0.19988 0.903 0.16751 0.0
H382 H 0.22669 0.8757 0.24126 0.0
H383 H 0.19978 0.84947 0.21026 0.0
H384 H 0.25485 0.89048 0.12069 0.0
H385 H 0.22275 0.86678 0.14783 0.0
H386 H 0.21451 0.90715 0.07195 0.0
H387 H 0.18219 0.88342 0.09961 0.0
N388 N 0.16345 0.84099 0.12825 0.0
N389 N 0.16311 0.8401 0.18184 0.0
C390 C 0.33162 0.10142 0.84437 0.0
C391 C 0.31522 0.09165 0.82477 0.0
C392 C 0.331 0.11598 0.86291 0.0
C393 C 0.31367 0.12077 0.86275 0.0
C394 C 0.29749 0.09585 0.82518 0.0
C395 C 0.29679 0.11031 0.8439 0.0
C396 C 0.31486 0.13905 0.8791 0.0
C397 C 0.31259 0.09112 0.9417 0.0
C398 C 0.33325 0.09857 0.95398 0.0
C399 C 0.30891 0.10526 0.92551 0.0
C400 C 0.32567 0.12721 0.92163 0.0
C401 C 0.35004 0.12058 0.94955 0.0
C402 C 0.34615 0.13478 0.93395 0.0
C403 C 0.32182 0.14278 0.90584 0.0
C404 C 0.31548 0.2214 0.9401 0.0
C405 C 0.33699 0.23549 0.94976 0.0
C406 C 0.31085 0.20279 0.92489 0.0
C407 C 0.3275 0.19767 0.91946 0.0
C408 C 0.35368 0.2304 0.9436 0.0
C409 C 0.34889 0.21154 0.92897 0.0
C410 C 0.3225 0.17728 0.90506 0.0
C411 C 0.33484 0.22414 0.83616 0.0
C412 C 0.31491 0.22159 0.82592 0.0
C413 C 0.33473 0.20899 0.85426 0.0
C414 C 0.31476 0.19069 0.86225 0.0
C415 C 0.29485 0.20353 0.83485 0.0
C416 C 0.29481 0.18807 0.85254 0.0
C417 C 0.31517 0.17344 0.87866 0.0
H418 H 0.34541 0.0984 0.84485 0.0
H419 H 0.34477 0.12437 0.87638 0.0
H420 H 0.28472 0.08889 0.81021 0.0
H421 H 0.28342 0.11396 0.84303 0.0
H422 H 0.29909 0.07449 0.94484 0.0
H423 H 0.29284 0.0992 0.91646 0.0
H424 H 0.36639 0.12692 0.95783 0.0
H425 H 0.35934 0.15166 0.93114 0.0
H426 H 0.30207 0.22443 0.94465 0.0
H427 H 0.29414 0.19207 0.91795 0.0
H428 H 0.37058 0.24105 0.94986 0.0
H429 H 0.36197 0.20786 0.92486 0.0
H430 H 0.35069 0.23736 0.82949 0.0
H431 H 0.35033 0.21107 0.86124 0.0
H432 H 0.27912 0.20111 0.82798 0.0
H433 H 0.27923 0.17396 0.85847 0.0
N434 N 0.3117 0.15454 0.86662 0.0
N435 N 0.32556 0.16185 0.91769 0.0
C436 C 0.91125 0.22038 0.93632 0.0
C437 C 0.90412 0.23392 0.94866 0.0
C438 C 0.89668 0.20223 0.92087 0.0
C439 C 0.87463 0.19702 0.91789 0.0
C440 C 0.88197 0.22858 0.94521 0.0
C441 C 0.86735 0.21017 0.93041 0.0
C442 C 0.85869 0.17755 0.90252 0.0
C443 C 0.89902 0.22866 0.84048 0.0
C444 C 0.908 0.22169 0.82016 0.0
C445 C 0.88464 0.21365 0.85924 0.0
C446 C 0.87929 0.19139 0.85857 0.0
C447 C 0.90316 0.19956 0.82 0.0
C448 C 0.88892 0.18459 0.83893 0.0
C449 C 0.86128 0.17457 0.87538 0.0
C450 C 0.77168 0.10662 0.84032 0.0
C451 C 0.77753 0.09618 0.82058 0.0
C452 C 0.78718 0.12044 0.85904 0.0
C453 C 0.80878 0.12379 0.85879 0.0
C454 C 0.79899 0.09912 0.82084 0.0
C455 C 0.81444 0.11283 0.83966 0.0
C456 C 0.82634 0.141 0.87562 0.0
C457 C 0.77557 0.09196 0.93246 0.0
C458 C 0.76724 0.10108 0.95101 0.0
C459 C 0.79404 0.10565 0.91688 0.0
C460 C 0.80429 0.12877 0.9191 0.0
C461 C 0.77816 0.12419 0.95391 0.0
C462 C 0.79635 0.13781 0.93813 0.0
C463 C 0.82387 0.14394 0.90292 0.0
H464 H 0.92799 0.22359 0.93875 0.0
H465 H 0.90251 0.19206 0.91162 0.0
H466 H 0.87583 0.23879 0.95355 0.0
H467 H 0.85039 0.20644 0.92825 0.0
H468 H 0.90253 0.24561 0.84142 0.0
H469 H 0.87686 0.21933 0.87334 0.0
H470 H 0.90949 0.19349 0.80447 0.0
H471 H 0.88479 0.16746 0.83766 0.0
H472 H 0.75525 0.10458 0.8409 0.0
H473 H 0.7825 0.12919 0.873 0.0
H474 H 0.80424 0.09167 0.80574 0.0
H475 H 0.83109 0.11544 0.83875 0.0
H476 H 0.7676 0.07425 0.92959 0.0
H477 H 0.80027 0.09811 0.90314 0.0
H478 H 0.77267 0.13186 0.96842 0.0
H479 H 0.8041 0.15555 0.94069 0.0
N480 N 0.84015 0.16218 0.91511 0.0
N481 N 0.84504 0.15634 0.86314 0.0
C482 C 0.78137 0.69276 0.94068 0.0
C483 C 0.76851 0.67212 0.95321 0.0
C484 C 0.79952 0.69678 0.92482 0.0
C485 C 0.80539 0.6804 0.92157 0.0
C486 C 0.77448 0.65576 0.94946 0.0
C487 C 0.79287 0.65999 0.93422 0.0
C488 C 0.82487 0.68434 0.90577 0.0
C489 C 0.7731 0.67313 0.84452 0.0
C490 C 0.7798 0.68877 0.82397 0.0
C491 C 0.7883 0.67409 0.86319 0.0
C492 C 0.81048 0.69111 0.86226 0.0
C493 C 0.8018 0.70626 0.82364 0.0
C494 C 0.81695 0.70736 0.84254 0.0
C495 C 0.82759 0.6901 0.87868 0.0
C496 C 0.89591 0.66915 0.84161 0.0
C497 C 0.90616 0.6855 0.82199 0.0
C498 C 0.88202 0.67062 0.86053 0.0
C499 C 0.87845 0.68874 0.86066 0.0
C500 C 0.90293 0.70385 0.82254 0.0
C501 C 0.88918 0.70539 0.84159 0.0
C502 C 0.86134 0.68897 0.87796 0.0
C503 C 0.9111 0.68687 0.93297 0.0
C504 C 0.90224 0.66907 0.95093 0.0
C505 C 0.89718 0.69189 0.91825 0.0
C506 C 0.87408 0.67892 0.92075 0.0
C507 C 0.87917 0.65681 0.95421 0.0
C508 C 0.86531 0.66163 0.93928 0.0
C509 C 0.85869 0.68341 0.90519 0.0
H510 H 0.77764 0.70595 0.9433 0.0
H511 H 0.80919 0.71277 0.91547 0.0
H512 H 0.76479 0.63943 0.95792 0.0
H513 H 0.79708 0.64708 0.93185 0.0
H514 H 0.75625 0.65957 0.84561 0.0
H515 H 0.78285 0.66076 0.87733 0.0
H516 H 0.80766 0.71845 0.80797 0.0
H517 H 0.83402 0.72046 0.84108 0.0
H518 H 0.89817 0.65489 0.842 0.0
H519 H 0.87344 0.65714 0.87438 0.0
H520 H 0.91022 0.71658 0.80754 0.0
H521 H 0.88639 0.71933 0.84095 0.0
H522 H 0.92877 0.69667 0.92985 0.0
H523 H 0.9045 0.70586 0.90487 0.0
H524 H 0.87171 0.64338 0.96833 0.0
H525 H 0.8476 0.65157 0.94203 0.0
N526 N 0.84048 0.68123 0.91784 0.0
N527 N 0.84578 0.69228 0.866 0.0
C528 C 0.75857 0.65235 0.44257 0.0
C529 C 0.76776 0.67033 0.42489 0.0
C530 C 0.77218 0.64674 0.45702 0.0
C531 C 0.79531 0.65922 0.45444 0.0
C532 C 0.79086 0.6823 0.42175 0.0
C533 C 0.80441 0.67684 0.43635 0.0
C534 C 0.81035 0.6538 0.46933 0.0
C535 C 0.77922 0.67009 0.5399 0.0
C536 C 0.76259 0.6507 0.55206 0.0
C537 C 0.79309 0.66904 0.52065 0.0
C538 C 0.79092 0.64866 0.51345 0.0
C539 C 0.75994 0.63021 0.54377 0.0
C540 C 0.77424 0.62926 0.52503 0.0
C541 C 0.80775 0.64804 0.49638 0.0
C542 C 0.89619 0.66602 0.53077 0.0
C543 C 0.88991 0.64974 0.55054 0.0
C544 C 0.88088 0.66483 0.51207 0.0
C545 C 0.85905 0.64708 0.51231 0.0
C546 C 0.86821 0.63169 0.55025 0.0
C547 C 0.85296 0.63044 0.53142 0.0
C548 C 0.84173 0.64744 0.49566 0.0
C549 C 0.89212 0.64832 0.43862 0.0
C550 C 0.90068 0.66586 0.42029 0.0
C551 C 0.8736 0.64367 0.4541 0.0
C552 C 0.86358 0.65679 0.45201 0.0
C553 C 0.88988 0.67818 0.41738 0.0
C554 C 0.8717 0.67379 0.4331 0.0
C555 C 0.84421 0.65285 0.46838 0.0
H556 H 0.74087 0.64277 0.44556 0.0
H557 H 0.76454 0.63249 0.46992 0.0
H558 H 0.79855 0.6959 0.4079 0.0
H559 H 0.82215 0.68659 0.4336 0.0
H560 H 0.78228 0.68625 0.54594 0.0
H561 H 0.80618 0.68424 0.51224 0.0
H562 H 0.74707 0.61484 0.55203 0.0
H563 H 0.77244 0.61338 0.51976 0.0
H564 H 0.91281 0.68004 0.53018 0.0
H565 H 0.88591 0.6783 0.49816 0.0
H566 H 0.86262 0.61903 0.56535 0.0
H567 H 0.83613 0.61679 0.53234 0.0
H568 H 0.89998 0.63845 0.44144 0.0
H569 H 0.86723 0.62988 0.46773 0.0
H570 H 0.89551 0.69139 0.40299 0.0
H571 H 0.86414 0.68398 0.43063 0.0
N572 N 0.82841 0.65584 0.45651 0.0
N573 N 0.82347 0.64507 0.50839 0.0
C574 C 0.31945 0.22266 0.44917 0.0
C575 C 0.33318 0.23371 0.42746 0.0
C576 C 0.32417 0.20959 0.46575 0.0
C577 C 0.34281 0.20735 0.46113 0.0
C578 C 0.35206 0.2318 0.42306 0.0
C579 C 0.35668 0.2185 0.4396 0.0
C580 C 0.34625 0.19146 0.47691 0.0
C581 C 0.35702 0.24449 0.53814 0.0
C582 C 0.34077 0.23647 0.55813 0.0
C583 C 0.35813 0.2299 0.51985 0.0
C584 C 0.34315 0.2071 0.52155 0.0
C585 C 0.32555 0.2137 0.55924 0.0
C586 C 0.32682 0.19922 0.54129 0.0
C587 C 0.34531 0.19083 0.50486 0.0
C588 C 0.35717 0.11402 0.53567 0.0
C589 C 0.34131 0.10582 0.5561 0.0
C590 C 0.35822 0.13007 0.51809 0.0
C591 C 0.34354 0.13824 0.52087 0.0
C592 C 0.32644 0.11379 0.55838 0.0
C593 C 0.32763 0.12986 0.54108 0.0
C594 C 0.34547 0.15671 0.50454 0.0
C595 C 0.31947 0.09935 0.44859 0.0
C596 C 0.33345 0.10183 0.42722 0.0
C597 C 0.32406 0.11721 0.46502 0.0
C598 C 0.34283 0.13794 0.4606 0.0
C599 C 0.35242 0.12251 0.42294 0.0
C600 C 0.35692 0.1405 0.43934 0.0
C601 C 0.34635 0.15721 0.4766 0.0
H602 H 0.30489 0.22396 0.4532 0.0
H603 H 0.31278 0.20063 0.48167 0.0
H604 H 0.36284 0.24001 0.40638 0.0
H605 H 0.37094 0.2167 0.4354 0.0
H606 H 0.36894 0.26197 0.53682 0.0
H607 H 0.37107 0.2363 0.50502 0.0
H608 H 0.31306 0.20693 0.57461 0.0
H609 H 0.31517 0.18169 0.54309 0.0
H610 H 0.36883 0.10816 0.53343 0.0
H611 H 0.37087 0.13654 0.50289 0.0
H612 H 0.31428 0.10812 0.57414 0.0
H613 H 0.31621 0.13598 0.54372 0.0
H614 H 0.30483 0.08358 0.45252 0.0
H615 H 0.31255 0.11492 0.48078 0.0
H616 H 0.3634 0.12489 0.40651 0.0
H617 H 0.3713 0.15645 0.43533 0.0
N618 N 0.34685 0.17465 0.46386 0.0
N619 N 0.34498 0.17352 0.51742 0.0
C620 C 0.78105 0.09978 0.45023 0.0
C621 C 0.76997 0.10027 0.42723 0.0
C622 C 0.79422 0.11911 0.46453 0.0
C623 C 0.79651 0.13932 0.45621 0.0
C624 C 0.77207 0.12049 0.41911 0.0
C625 C 0.78541 0.13988 0.43334 0.0
C626 C 0.81195 0.16014 0.46987 0.0
C627 C 0.75781 0.12051 0.53041 0.0
C628 C 0.76613 0.11491 0.55263 0.0
C629 C 0.77231 0.13599 0.51194 0.0
C630 C 0.79529 0.14621 0.51565 0.0
C631 C 0.78911 0.12519 0.55614 0.0
C632 C 0.80349 0.14074 0.53797 0.0
C633 C 0.81124 0.16333 0.49738 0.0
C634 C 0.87088 0.24165 0.54728 0.0
C635 C 0.89282 0.24594 0.54659 0.0
C636 C 0.85547 0.22744 0.52878 0.0
C637 C 0.86162 0.21732 0.50908 0.0
C638 C 0.89926 0.2368 0.5259 0.0
C639 C 0.88379 0.22248 0.50748 0.0
C640 C 0.84411 0.19854 0.49401 0.0
C641 C 0.89396 0.21675 0.42052 0.0
C642 C 0.90008 0.23916 0.41742 0.0
C643 C 0.87579 0.20262 0.43604 0.0
C644 C 0.86363 0.21059 0.44955 0.0
C645 C 0.88745 0.24696 0.43063 0.0
C646 C 0.86953 0.23285 0.44673 0.0
C647 C 0.84497 0.19528 0.46652 0.0
H648 H 0.77962 0.08442 0.45708 0.0
H649 H 0.80306 0.11834 0.48172 0.0
H650 H 0.76391 0.12141 0.40134 0.0
H651 H 0.78721 0.15537 0.42638 0.0
H652 H 0.74016 0.11283 0.52725 0.0
H653 H 0.76561 0.14021 0.49505 0.0
H654 H 0.79602 0.1215 0.57326 0.0
H655 H 0.82113 0.14849 0.54134 0.0
H656 H 0.86522 0.24813 0.56307 0.0
H657 H 0.83841 0.22347 0.53068 0.0
H658 H 0.91608 0.23995 0.5246 0.0
H659 H 0.88893 0.21441 0.49311 0.0
H660 H 0.90346 0.21006 0.41151 0.0
H661 H 0.8716 0.18551 0.43812 0.0
H662 H 0.89129 0.26393 0.4285 0.0
H663 H 0.86018 0.23926 0.45683 0.0
N664 N 0.82881 0.17623 0.45552 0.0
N665 N 0.82729 0.18241 0.50824 0.0
C666 C 0.98027 0.55528 0.17002 0.0
C667 C 0.99599 0.56341 0.14944 0.0
C668 C 0.97926 0.5392 0.18753 0.0
C669 C 0.99385 0.53094 0.18455 0.0
C670 C 0.01073 0.5553 0.1469 0.0
C671 C 0.00959 0.53922 0.16415 0.0
C672 C 0.99205 0.51252 0.20092 0.0
C673 C 0.01755 0.56972 0.25729 0.0
C674 C 0.0036 0.56694 0.27881 0.0
C675 C 0.01307 0.55205 0.24059 0.0
C676 C 0.99445 0.53119 0.24492 0.0
C677 C 0.98474 0.54615 0.28295 0.0
C678 C 0.98036 0.52834 0.26629 0.0
C679 C 0.99117 0.51204 0.22886 0.0
C680 C 0.01863 0.44694 0.25615 0.0
C681 C 0.00486 0.43567 0.27773 0.0
C682 C 0.01389 0.4601 0.23975 0.0
C683 C 0.99518 0.46218 0.24442 0.0
C684 C 0.98594 0.4375 0.28224 0.0
C685 C 0.98129 0.45087 0.26588 0.0
C686 C 0.99155 0.47794 0.22862 0.0
C687 C 0.98108 0.42441 0.16883 0.0
C688 C 0.99678 0.43222 0.14822 0.0
C689 C 0.97996 0.43925 0.1867 0.0
C690 C 0.99443 0.46209 0.18404 0.0
C691 C 0.01143 0.45506 0.14605 0.0
C692 C 0.01019 0.46978 0.16365 0.0
C693 C 0.99239 0.47848 0.20067 0.0
H694 H 0.96871 0.56124 0.17247 0.0
H695 H 0.96672 0.53281 0.20287 0.0
H696 H 0.02277 0.56089 0.13101 0.0
H697 H 0.02095 0.53303 0.16133 0.0
H698 H 0.0321 0.58559 0.25348 0.0
H699 H 0.02458 0.55455 0.22474 0.0
H700 H 0.97379 0.54353 0.29949 0.0
H701 H 0.9661 0.51229 0.27023 0.0
H702 H 0.03322 0.4457 0.25202 0.0
H703 H 0.02526 0.46916 0.22385 0.0
H704 H 0.97513 0.42912 0.29884 0.0
H705 H 0.96697 0.45255 0.27011 0.0
H706 H 0.9696 0.40689 0.171 0.0
H707 H 0.96743 0.43295 0.20203 0.0
H708 H 0.02346 0.46167 0.13016 0.0
H709 H 0.02144 0.48733 0.16109 0.0
N710 N 0.9926 0.49573 0.18807 0.0
N711 N 0.99083 0.49469 0.24163 0.0
C712 C 0.4665 0.43032 0.15727 0.0
C713 C 0.44435 0.42535 0.15817 0.0
C714 C 0.48186 0.44507 0.17543 0.0
C715 C 0.47544 0.45503 0.19503 0.0
C716 C 0.43771 0.43455 0.1786 0.0
C717 C 0.45313 0.44936 0.19673 0.0
C718 C 0.49269 0.4738 0.21034 0.0
C719 C 0.44266 0.45355 0.28372 0.0
C720 C 0.43692 0.43122 0.28641 0.0
C721 C 0.46077 0.4681 0.2684 0.0
C722 C 0.47325 0.46063 0.25467 0.0
C723 C 0.44987 0.42391 0.27295 0.0
C724 C 0.46774 0.43844 0.25704 0.0
C725 C 0.49187 0.47639 0.23796 0.0
C726 C 0.55605 0.5713 0.25816 0.0
C727 C 0.56697 0.56983 0.28079 0.0
C728 C 0.54282 0.55256 0.24291 0.0
C729 C 0.54034 0.53199 0.2499 0.0
C730 C 0.56468 0.54927 0.28755 0.0
C731 C 0.55131 0.53049 0.27238 0.0
C732 C 0.52475 0.5117 0.23544 0.0
C733 C 0.57845 0.55347 0.17533 0.0
C734 C 0.56997 0.55915 0.15331 0.0
C735 C 0.56411 0.53753 0.19352 0.0
C736 C 0.54111 0.52696 0.18981 0.0
C737 C 0.54696 0.5485 0.14981 0.0
C738 C 0.53275 0.53255 0.16775 0.0
C739 C 0.52532 0.5093 0.20772 0.0
H740 H 0.47228 0.42382 0.14163 0.0
H741 H 0.49903 0.44943 0.17346 0.0
H742 H 0.42075 0.43093 0.18 0.0
H743 H 0.44778 0.45728 0.21106 0.0
H744 H 0.4329 0.45987 0.29293 0.0
H745 H 0.46466 0.48514 0.26666 0.0
H746 H 0.44633 0.40701 0.27474 0.0
H747 H 0.47734 0.43242 0.24676 0.0
H748 H 0.55763 0.58695 0.25233 0.0
H749 H 0.53409 0.55406 0.22605 0.0
H750 H 0.57271 0.54759 0.305 0.0
H751 H 0.54935 0.5147 0.27833 0.0
H752 H 0.59611 0.56139 0.17852 0.0
H753 H 0.57098 0.53322 0.21015 0.0
H754 H 0.53988 0.55217 0.13284 0.0
H755 H 0.51509 0.52454 0.16435 0.0
N756 N 0.50935 0.49039 0.1964 0.0
N757 N 0.50798 0.49518 0.24944 0.0
C758 C 0.44303 0.01681 0.2679 0.0
C759 C 0.43462 0.99955 0.2866 0.0
C760 C 0.46149 0.0213 0.25237 0.0
C761 C 0.4716 0.00828 0.25481 0.0
C762 C 0.44547 0.98729 0.28976 0.0
C763 C 0.46361 0.99154 0.27404 0.0
C764 C 0.49101 0.01217 0.23855 0.0
C765 C 0.43853 0.99795 0.17653 0.0
C766 C 0.44447 0.01442 0.15711 0.0
C767 C 0.45409 0.99912 0.19484 0.0
C768 C 0.47586 0.01699 0.19444 0.0
C769 C 0.46615 0.03252 0.15715 0.0
C770 C 0.48167 0.03371 0.17551 0.0
C771 C 0.49329 0.01693 0.21113 0.0
C772 C 0.56289 0.99765 0.17492 0.0
C773 C 0.5731 0.01403 0.15533 0.0
C774 C 0.54881 0.99893 0.19372 0.0
C775 C 0.54492 0.01684 0.19365 0.0
C776 C 0.56955 0.03219 0.15572 0.0
C777 C 0.55554 0.0335 0.17458 0.0
C778 C 0.5276 0.01683 0.21074 0.0
C779 C 0.57791 0.01627 0.26669 0.0
C780 C 0.56909 0.99892 0.28529 0.0
C781 C 0.56393 0.02087 0.25139 0.0
C782 C 0.54084 0.00792 0.25402 0.0
C783 C 0.54603 0.98668 0.28857 0.0
C784 C 0.53214 0.99107 0.27312 0.0
C785 C 0.52531 0.01202 0.23816 0.0
H786 H 0.43513 0.02661 0.26485 0.0
H787 H 0.46776 0.03489 0.23847 0.0
H788 H 0.43993 0.97428 0.30441 0.0
H789 H 0.47125 0.98145 0.27676 0.0
H790 H 0.42195 0.98386 0.17722 0.0
H791 H 0.44929 0.98564 0.20866 0.0
H792 H 0.47144 0.04532 0.14225 0.0
H793 H 0.49845 0.04745 0.17449 0.0
H794 H 0.56538 0.98352 0.17537 0.0
H795 H 0.54033 0.98548 0.20764 0.0
H796 H 0.5768 0.04493 0.14073 0.0
H797 H 0.5525 0.04727 0.17381 0.0
H798 H 0.59558 0.02605 0.26356 0.0
H799 H 0.57122 0.03451 0.23756 0.0
H800 H 0.5386 0.9736 0.30314 0.0
H801 H 0.51444 0.98102 0.27596 0.0
N802 N 0.50713 0.00994 0.25075 0.0
N803 N 0.51159 0.01926 0.19852 0.0
C804 C 0.57242 0.01986 0.77975 0.0
C805 C 0.5704 0.00677 0.75759 0.0
C806 C 0.55417 0.01474 0.79573 0.0
C807 C 0.53347 0.99631 0.79009 0.0
C808 C 0.54974 0.98816 0.75205 0.0
C809 C 0.53135 0.98313 0.76802 0.0
C810 C 0.51387 0.99219 0.8059 0.0
C811 C 0.55499 0.9779 0.86462 0.0
C812 C 0.56313 0.99312 0.8857 0.0
C813 C 0.53955 0.9779 0.84687 0.0
C814 C 0.53191 0.99296 0.85018 0.0
C815 C 0.55573 0.00842 0.88847 0.0
C816 C 0.54024 0.00824 0.87103 0.0
C817 C 0.51384 0.99192 0.83386 0.0
C818 C 0.4256 0.98005 0.86668 0.0
C819 C 0.43333 0.99531 0.88775 0.0
C820 C 0.4405 0.97939 0.8485 0.0
C821 C 0.46333 0.99389 0.85128 0.0
C822 C 0.45614 0.01003 0.89001 0.0
C823 C 0.47093 0.00925 0.87208 0.0
C824 C 0.47982 0.99224 0.83439 0.0
C825 C 0.4474 0.01878 0.781 0.0
C826 C 0.43575 0.005 0.75959 0.0
C827 C 0.46127 0.01436 0.79647 0.0
C828 C 0.4637 0.99595 0.79104 0.0
C829 C 0.43807 0.98647 0.75422 0.0
C830 C 0.45214 0.98213 0.76967 0.0
C831 C 0.47961 0.99228 0.80642 0.0
H832 H 0.58815 0.03419 0.78467 0.0
H833 H 0.55615 0.02558 0.81216 0.0
H834 H 0.54768 0.97788 0.735 0.0
H835 H 0.51545 0.96904 0.76307 0.0
H836 H 0.56043 0.96595 0.86202 0.0
H837 H 0.53309 0.96574 0.83114 0.0
H838 H 0.56139 0.02011 0.90472 0.0
H839 H 0.53448 0.01992 0.87408 0.0
H840 H 0.4081 0.96853 0.86443 0.0
H841 H 0.43428 0.96716 0.83284 0.0
H842 H 0.46271 0.02172 0.90622 0.0
H843 H 0.48846 0.02051 0.87473 0.0
H844 H 0.44582 0.03307 0.78578 0.0
H845 H 0.47046 0.02564 0.81237 0.0
H846 H 0.42944 0.97568 0.73772 0.0
H847 H 0.45405 0.96803 0.7649 0.0
N848 N 0.49664 0.99218 0.79322 0.0
N849 N 0.49688 0.99201 0.84685 0.0
C850 C 0.98604 0.55692 0.78286 0.0
C851 C 0.99796 0.56786 0.75996 0.0
C852 C 0.99167 0.54341 0.79736 0.0
C853 C 0.00942 0.54064 0.78938 0.0
C854 C 0.01591 0.5653 0.75216 0.0
C855 C 0.02143 0.55161 0.7666 0.0
C856 C 0.01412 0.52476 0.80327 0.0
C857 C 0.0292 0.5792 0.86341 0.0
C858 C 0.01512 0.57141 0.88559 0.0
C859 C 0.02975 0.56428 0.84517 0.0
C860 C 0.01635 0.54138 0.84903 0.0
C861 C 0.00181 0.5485 0.88927 0.0
C862 C 0.00252 0.5337 0.87131 0.0
C863 C 0.01703 0.52499 0.83096 0.0
C864 C 0.03582 0.45774 0.86867 0.0
C865 C 0.01559 0.44155 0.87973 0.0
C866 C 0.03652 0.47346 0.85094 0.0
C867 C 0.01697 0.47278 0.84301 0.0
C868 C 0.996 0.44087 0.87128 0.0
C869 C 0.99671 0.45624 0.85303 0.0
C870 C 0.01781 0.49124 0.82791 0.0
C871 C 0.98761 0.44443 0.75037 0.0
C872 C 0.99994 0.43358 0.75282 0.0
C873 C 0.99283 0.46318 0.76548 0.0
C874 C 0.01054 0.47165 0.78339 0.0
C875 C 0.0183 0.44265 0.76992 0.0
C876 C 0.02366 0.4616 0.78483 0.0
C877 C 0.0148 0.49084 0.80023 0.0
H878 H 0.97223 0.55868 0.7895 0.0
H879 H 0.98175 0.53467 0.81444 0.0
H880 H 0.02527 0.57335 0.73447 0.0
H881 H 0.03498 0.54944 0.75986 0.0
H882 H 0.03964 0.59678 0.8601 0.0
H883 H 0.04082 0.57059 0.82834 0.0
H884 H 0.99107 0.54197 0.90638 0.0
H885 H 0.99214 0.51613 0.87481 0.0
H886 H 0.05124 0.45865 0.87408 0.0
H887 H 0.05236 0.48639 0.84374 0.0
H888 H 0.98012 0.42914 0.87961 0.0
H889 H 0.9815 0.45585 0.84765 0.0
H890 H 0.97374 0.43834 0.73691 0.0
H891 H 0.98263 0.47078 0.76359 0.0
H892 H 0.02823 0.43483 0.77234 0.0
H893 H 0.03805 0.46834 0.79745 0.0
N894 N 0.01311 0.50769 0.78902 0.0
N895 N 0.01871 0.50818 0.8421 0.0
C896 C 0.55168 0.56354 0.75424 0.0
C897 C 0.57226 0.56603 0.76139 0.0
C898 C 0.53273 0.54994 0.7691 0.0
C899 C 0.53409 0.53893 0.79164 0.0
C900 C 0.57354 0.55502 0.78403 0.0
C901 C 0.55466 0.54155 0.79893 0.0
C902 C 0.51375 0.52328 0.80604 0.0
C903 C 0.55055 0.54582 0.89169 0.0
C904 C 0.56052 0.56881 0.8884 0.0
C905 C 0.53494 0.53142 0.87362 0.0
C906 C 0.52901 0.53958 0.85164 0.0
C907 C 0.55458 0.57707 0.8664 0.0
C908 C 0.53897 0.56255 0.84809 0.0
C909 C 0.51151 0.5236 0.83379 0.0
C910 C 0.43939 0.43543 0.86441 0.0
C911 C 0.42938 0.44162 0.88435 0.0
C912 C 0.45381 0.45097 0.84605 0.0
C913 C 0.45827 0.47292 0.84709 0.0
C914 C 0.4333 0.46344 0.88465 0.0
C915 C 0.44766 0.47891 0.8663 0.0
C916 C 0.47641 0.49048 0.83137 0.0
C917 C 0.42563 0.44275 0.77465 0.0
C918 C 0.43416 0.43388 0.75602 0.0
C919 C 0.43984 0.46146 0.78955 0.0
C920 C 0.46289 0.4714 0.78651 0.0
C921 C 0.45714 0.4448 0.75186 0.0
C922 C 0.47129 0.46326 0.76694 0.0
C923 C 0.47864 0.48999 0.80355 0.0
H924 H 0.55013 0.57164 0.73676 0.0
H925 H 0.51696 0.54788 0.7629 0.0
H926 H 0.58918 0.55674 0.79018 0.0
H927 H 0.55606 0.53277 0.8158 0.0
H928 H 0.55444 0.5389 0.90864 0.0
H929 H 0.52739 0.51378 0.87689 0.0
H930 H 0.562 0.59472 0.86337 0.0
H931 H 0.53439 0.56924 0.83151 0.0
H932 H 0.43659 0.41872 0.86347 0.0
H933 H 0.46221 0.44606 0.83184 0.0
H934 H 0.42621 0.46892 0.89992 0.0
H935 H 0.45114 0.49584 0.86775 0.0
H936 H 0.40803 0.43484 0.77838 0.0
H937 H 0.43279 0.46785 0.80375 0.0
H938 H 0.4643 0.43887 0.7372 0.0
H939 H 0.48895 0.47078 0.76379 0.0
N940 N 0.49723 0.50651 0.79206 0.0
N941 N 0.4929 0.50726 0.8452 0.0
C942 C 0.66574 0.77002 0.51038 0.0
C943 C 0.64938 0.76064 0.49068 0.0
C944 C 0.66529 0.78453 0.52915 0.0
C945 C 0.64818 0.78961 0.52908 0.0
C946 C 0.63184 0.76512 0.49122 0.0
C947 C 0.63131 0.77951 0.51015 0.0
C948 C 0.6496 0.80792 0.54556 0.0
C949 C 0.64724 0.75916 0.60714 0.0
C950 C 0.66818 0.76654 0.61865 0.0
C951 C 0.64314 0.77342 0.59174 0.0
C952 C 0.65974 0.79545 0.58798 0.0
C953 C 0.68476 0.78867 0.61439 0.0
C954 C 0.68046 0.80299 0.59966 0.0
C955 C 0.65573 0.81106 0.57251 0.0
C956 C 0.65294 0.89465 0.60019 0.0
C957 C 0.67091 0.90382 0.61788 0.0
C958 C 0.64796 0.87565 0.58556 0.0
C959 C 0.66113 0.8657 0.58787 0.0
C960 C 0.68337 0.89318 0.621 0.0
C961 C 0.67858 0.87443 0.60616 0.0
C962 C 0.65669 0.84582 0.57225 0.0
C963 C 0.67088 0.89711 0.50883 0.0
C964 C 0.65442 0.89115 0.48941 0.0
C965 C 0.66937 0.88176 0.52768 0.0
C966 C 0.65113 0.86021 0.52792 0.0
C967 C 0.63593 0.86972 0.4901 0.0
C968 C 0.63437 0.85443 0.50906 0.0
C969 C 0.65089 0.84286 0.54509 0.0
H970 H 0.67939 0.76678 0.51074 0.0
H971 H 0.67904 0.79265 0.5427 0.0
H972 H 0.61911 0.75844 0.47618 0.0
H973 H 0.61812 0.78342 0.50937 0.0
H974 H 0.63387 0.74244 0.61019 0.0
H975 H 0.62692 0.76737 0.58312 0.0
H976 H 0.7013 0.79501 0.62204 0.0
H977 H 0.69353 0.81992 0.59686 0.0
H978 H 0.64297 0.90237 0.5972 0.0
H979 H 0.63388 0.86885 0.57237 0.0
H980 H 0.69695 0.89935 0.6349 0.0
H981 H 0.68879 0.86691 0.60876 0.0
H982 H 0.68526 0.91352 0.50908 0.0
H983 H 0.68292 0.88654 0.54138 0.0
H984 H 0.6231 0.86441 0.47526 0.0
H985 H 0.62032 0.8378 0.50852 0.0
N986 N 0.64736 0.82392 0.53304 0.0
N987 N 0.65901 0.82983 0.58471 0.0
C988 C 0.11355 0.75591 0.50738 0.0
C989 C 0.10577 0.76313 0.48611 0.0
C990 C 0.12889 0.77121 0.52531 0.0
C991 C 0.13678 0.79393 0.52204 0.0
C992 C 0.1135 0.78585 0.48326 0.0
C993 C 0.12888 0.80104 0.50091 0.0
C994 C 0.15453 0.81078 0.53888 0.0
C995 C 0.09518 0.779 0.59184 0.0
C996 C 0.09707 0.76783 0.61393 0.0
C997 C 0.11359 0.79241 0.57625 0.0
C998 C 0.13434 0.79486 0.58221 0.0
C999 C 0.1178 0.77009 0.6198 0.0
C1000 C 0.13634 0.78372 0.60422 0.0
C1001 C 0.1541 0.8106 0.56685 0.0
C1002 C 0.21952 0.90296 0.59493 0.0
C1003 C 0.23071 0.90039 0.61652 0.0
C1004 C 0.20621 0.88506 0.57862 0.0
C1005 C 0.20388 0.8642 0.5834 0.0
C1006 C 0.22858 0.87956 0.62118 0.0
C1007 C 0.21505 0.86154 0.6049 0.0
C1008 C 0.18828 0.84493 0.56737 0.0
C1009 C 0.24306 0.88812 0.50882 0.0
C1010 C 0.23556 0.89597 0.48789 0.0
C1011 C 0.22795 0.87209 0.52635 0.0
C1012 C 0.20512 0.86359 0.52306 0.0
C1013 C 0.21273 0.88762 0.48504 0.0
C1014 C 0.19773 0.87159 0.50231 0.0
C1015 C 0.18846 0.84515 0.5394 0.0
H1016 H 0.10786 0.73849 0.51005 0.0
H1017 H 0.13504 0.76537 0.54123 0.0
H1018 H 0.10815 0.792 0.46686 0.0
H1019 H 0.13482 0.81848 0.49787 0.0
H1020 H 0.07942 0.77746 0.58666 0.0
H1021 H 0.11167 0.80132 0.55989 0.0
H1022 H 0.11978 0.76183 0.63681 0.0
H1023 H 0.15226 0.78565 0.60943 0.0
H1024 H 0.22098 0.91884 0.59069 0.0
H1025 H 0.19729 0.88744 0.56262 0.0
H1026 H 0.23689 0.87708 0.63779 0.0
H1027 H 0.21321 0.8455 0.60918 0.0
H1028 H 0.26056 0.89427 0.51152 0.0
H1029 H 0.23404 0.86591 0.54195 0.0
H1030 H 0.20633 0.89299 0.46891 0.0
H1031 H 0.18022 0.8652 0.49924 0.0
N1032 N 0.17163 0.82805 0.52641 0.0
N1033 N 0.17111 0.82761 0.58003 0.0
C1034 C 0.23793 0.36434 0.48808 0.0
C1035 C 0.24273 0.34704 0.48925 0.0
C1036 C 0.2228 0.36502 0.50568 0.0
C1037 C 0.21227 0.34859 0.52502 0.0
C1038 C 0.23289 0.3311 0.50939 0.0
C1039 C 0.21772 0.3318 0.527 0.0
C1040 C 0.19328 0.34729 0.53978 0.0
C1041 C 0.21146 0.31699 0.61432 0.0
C1042 C 0.23332 0.33393 0.61911 0.0
C1043 C 0.19761 0.32047 0.59763 0.0
C1044 C 0.20539 0.34069 0.58458 0.0
C1045 C 0.24099 0.35436 0.60608 0.0
C1046 C 0.22719 0.35763 0.58878 0.0
C1047 C 0.19013 0.34381 0.56733 0.0
C1048 C 0.09527 0.31519 0.58527 0.0
C1049 C 0.09671 0.32732 0.60821 0.0
C1050 C 0.11414 0.32041 0.57033 0.0
C1051 C 0.13482 0.33796 0.57795 0.0
C1052 C 0.11739 0.34508 0.61557 0.0
C1053 C 0.13629 0.3502 0.60071 0.0
C1054 C 0.15521 0.34224 0.56394 0.0
C1055 C 0.11559 0.35642 0.50344 0.0
C1056 C 0.1099 0.34253 0.48112 0.0
C1057 C 0.13105 0.35728 0.52181 0.0
C1058 C 0.1411 0.34433 0.51803 0.0
C1059 C 0.12004 0.32966 0.47753 0.0
C1060 C 0.13552 0.33064 0.49567 0.0
C1061 C 0.15817 0.34535 0.53628 0.0
H1062 H 0.24491 0.37671 0.47264 0.0
H1063 H 0.21863 0.37796 0.50349 0.0
H1064 H 0.23633 0.31763 0.51098 0.0
H1065 H 0.20939 0.31849 0.54113 0.0
H1066 H 0.20499 0.30079 0.62309 0.0
H1067 H 0.18084 0.30715 0.5945 0.0
H1068 H 0.25754 0.36794 0.60941 0.0
H1069 H 0.23339 0.37345 0.57905 0.0
H1070 H 0.07954 0.30152 0.57897 0.0
H1071 H 0.11264 0.31035 0.55326 0.0
H1072 H 0.11906 0.35457 0.63327 0.0
H1073 H 0.15214 0.3636 0.60715 0.0
H1074 H 0.10805 0.36654 0.50672 0.0
H1075 H 0.13538 0.36826 0.53868 0.0
H1076 H 0.11634 0.3191 0.46033 0.0
H1077 H 0.14315 0.32061 0.49222 0.0
N1078 N 0.17713 0.34787 0.52541 0.0
N1079 N 0.17129 0.34152 0.57833 0.0
C1080 C 0.97912 0.38866 0.09432 0.0
C1081 C 0.99969 0.39281 0.08437 0.0
H1082 H 0.96204 0.39789 0.12243 0.0
C1083 C 0.01904 0.40837 0.0974 0.0
H1084 H 0.96389 0.37672 0.08481 0.0
C1085 C 0.01796 0.4203 0.11897 0.0
C1086 C 0.99751 0.41706 0.12805 0.0
H1087 H 0.03516 0.41178 0.09054 0.0
H1088 H 0.03323 0.43252 0.12816 0.0
C1089 C 0.97804 0.40068 0.11597 0.0
C1090 C 0.61523 0.58872 0.10189 0.0
C1091 C 0.60921 0.60345 0.09078 0.0
H1092 H 0.60754 0.56313 0.13046 0.0
C1093 C 0.5915 0.60482 0.10211 0.0
H1094 H 0.62882 0.58729 0.09371 0.0
C1095 C 0.57944 0.5911 0.12312 0.0
C1096 C 0.58473 0.57562 0.1334 0.0
H1097 H 0.58652 0.61613 0.09431 0.0
H1098 H 0.56561 0.59229 0.13098 0.0
C1099 C 0.60312 0.57496 0.12303 0.0
C1100 C 0.41421 0.02816 0.10437 0.0
C1101 C 0.40114 0.00748 0.09222 0.0
H1102 H 0.43783 0.04655 0.13462 0.0
C1103 C 0.40159 0.989 0.10254 0.0
H1104 H 0.41422 0.04273 0.09702 0.0
C1105 C 0.41518 0.99121 0.12395 0.0
C1106 C 0.4287 0.01196 0.13571 0.0
H1107 H 0.39177 0.9728 0.09373 0.0
H1108 H 0.41562 0.97671 0.13069 0.0
C1109 C 0.42784 0.03037 0.12585 0.0
C1110 C 0.40929 0.01604 0.94027 0.0
C1111 C 0.39374 0.99631 0.95267 0.0
H1112 H 0.43349 0.03114 0.90967 0.0
C1113 C 0.38968 0.97606 0.94178 0.0
H1114 H 0.41263 0.03194 0.94786 0.0
C1115 C 0.40177 0.97563 0.91982 0.0
C1116 C 0.41813 0.99544 0.90833 0.0
H1117 H 0.37775 0.96055 0.95078 0.0
H1118 H 0.39905 0.95983 0.91264 0.0
C1119 C 0.42129 0.0156 0.91837 0.0
C1120 C 0.9948 0.39224 0.92644 0.0
C1121 C 0.01212 0.39963 0.9448 0.0
H1122 H 0.98271 0.39889 0.89086 0.0
C1123 C 0.0312 0.42018 0.94073 0.0
H1124 H 0.97998 0.37633 0.92894 0.0
C1125 C 0.03251 0.43355 0.91941 0.0
C1126 C 0.01497 0.42646 0.9012 0.0
H1127 H 0.04475 0.42638 0.9547 0.0
H1128 H 0.04699 0.4498 0.91793 0.0
C1129 C 0.99633 0.40533 0.90471 0.0
C1130 C 0.58808 0.61385 0.94035 0.0
C1131 C 0.60322 0.6085 0.9517 0.0
H1132 H 0.56269 0.6055 0.91135 0.0
C1133 C 0.60551 0.59131 0.94042 0.0
H1134 H 0.58595 0.62704 0.94849 0.0
C1135 C 0.59231 0.57912 0.91915 0.0
C1136 C 0.57645 0.58375 0.90859 0.0
H1137 H 0.61716 0.58688 0.94841 0.0
H1138 H 0.5942 0.5657 0.91129 0.0
C1139 C 0.57484 0.60161 0.91898 0.0
C1140 C 0.9927 0.59528 0.93613 0.0
C1141 C 0.0121 0.61211 0.94781 0.0
H1142 H 0.9785 0.56961 0.90708 0.0
C1143 C 0.03265 0.61686 0.93712 0.0
H1144 H 0.97656 0.5913 0.94357 0.0
C1145 C 0.03372 0.60431 0.91604 0.0
C1146 C 0.01427 0.58676 0.90536 0.0
H1147 H 0.04791 0.62976 0.94559 0.0
H1148 H 0.04976 0.6077 0.90889 0.0
C1149 C 0.99378 0.58278 0.91521 0.0
C1150 C 0.41348 0.39987 0.93994 0.0
C1151 C 0.39524 0.40017 0.95137 0.0
H1152 H 0.43857 0.41272 0.9101 0.0
C1153 C 0.38733 0.41307 0.93943 0.0
H1154 H 0.42001 0.39011 0.94855 0.0
C1155 C 0.39788 0.4259 0.91709 0.0
C1156 C 0.41658 0.42616 0.90619 0.0
H1157 H 0.37321 0.41356 0.94757 0.0
H1158 H 0.39153 0.43585 0.90854 0.0
C1159 C 0.42403 0.41271 0.91767 0.0
C1160 C 0.58677 0.97302 0.93948 0.0
C1161 C 0.60373 0.99316 0.9496 0.0
H1162 H 0.56056 0.9572 0.91113 0.0
C1163 C 0.60869 0.0129 0.93658 0.0
H1164 H 0.5826 0.95752 0.94898 0.0
C1165 C 0.59624 0.01268 0.91493 0.0
C1166 C 0.57846 0.99273 0.90574 0.0
H1167 H 0.62186 0.02869 0.94354 0.0
H1168 H 0.60012 0.02825 0.90581 0.0
C1169 C 0.57424 0.97282 0.91771 0.0
C1170 C 0.61606 0.02738 0.10117 0.0
C1171 C 0.60832 0.00661 0.08918 0.0
H1172 H 0.61133 0.046 0.13173 0.0
C1173 C 0.58962 0.98821 0.09998 0.0
H1174 H 0.63047 0.04189 0.09346 0.0
C1175 C 0.5786 0.99059 0.12176 0.0
C1176 C 0.58599 0.01142 0.13343 0.0
H1177 H 0.58315 0.97195 0.09129 0.0
H1178 H 0.56382 0.97615 0.12889 0.0
C1179 C 0.60502 0.02975 0.12304 0.0
C1180 C 0.97834 0.59005 0.0965 0.0
C1181 C 0.99892 0.60653 0.08676 0.0
H1182 H 0.96125 0.56342 0.12406 0.0
C1183 C 0.01826 0.61012 0.09967 0.0
H1184 H 0.96313 0.58691 0.08707 0.0
C1185 C 0.01716 0.59683 0.12088 0.0
C1186 C 0.99671 0.57954 0.1297 0.0
H1187 H 0.03438 0.62286 0.09298 0.0
H1188 H 0.03242 0.59973 0.12997 0.0
C1189 C 0.97725 0.57667 0.11779 0.0
C1190 C 0.40201 0.40911 0.10335 0.0
C1191 C 0.40284 0.39139 0.09121 0.0
H1192 H 0.41445 0.4337 0.1337 0.0
C1193 C 0.41634 0.38388 0.10241 0.0
H1194 H 0.39178 0.41533 0.09533 0.0
C1195 C 0.42926 0.39436 0.12471 0.0
C1196 C 0.42893 0.41254 0.13633 0.0
H1197 H 0.41727 0.37019 0.09366 0.0
H1198 H 0.43973 0.3884 0.13266 0.0
C1199 C 0.41489 0.41955 0.12558 0.0
C1200 C 0.67498 0.74437 0.43492 0.0
C1201 C 0.65648 0.72622 0.42347 0.0
H1202 H 0.68722 0.76949 0.46459 0.0
C1203 C 0.63558 0.7188 0.43501 0.0
H1204 H 0.69134 0.75062 0.42659 0.0
C1205 C 0.63324 0.72958 0.45718 0.0
C1206 C 0.65174 0.748 0.46831 0.0
H1207 H 0.62099 0.70482 0.42675 0.0
H1208 H 0.61692 0.72353 0.46556 0.0
C1209 C 0.67264 0.75512 0.45696 0.0
C1210 C 0.28041 0.92274 0.43543 0.0
C1211 C 0.27618 0.93903 0.42528 0.0
H1212 H 0.27085 0.89629 0.46327 0.0
C1213 C 0.26007 0.94243 0.43774 0.0
H1214 H 0.29275 0.91974 0.42636 0.0
C1215 C 0.24771 0.92916 0.45889 0.0
C1216 C 0.25105 0.91207 0.46815 0.0
H1217 H 0.25656 0.95502 0.43072 0.0
H1218 H 0.23509 0.93192 0.46762 0.0
C1219 C 0.26795 0.90938 0.45668 0.0
C1220 C 0.08188 0.36031 0.43015 0.0
C1221 C 0.06675 0.33995 0.41857 0.0
H1222 H 0.1074 0.37712 0.45906 0.0
C1223 C 0.06473 0.32043 0.42927 0.0
H1224 H 0.08382 0.37565 0.42246 0.0
C1225 C 0.07816 0.3213 0.45021 0.0
C1226 C 0.09394 0.34168 0.46105 0.0
H1227 H 0.05311 0.30443 0.42108 0.0
H1228 H 0.07644 0.30597 0.45765 0.0
C1229 C 0.09532 0.36116 0.45121 0.0
C1230 C 0.05135 0.30719 0.26807 0.0
C1231 C 0.05867 0.32808 0.27953 0.0
H1232 H 0.05661 0.28847 0.2381 0.0
C1233 C 0.07674 0.34662 0.26799 0.0
H1234 H 0.03742 0.29256 0.27636 0.0
C1235 C 0.08774 0.34428 0.24617 0.0
C1236 C 0.08097 0.32332 0.23526 0.0
H1237 H 0.08282 0.36299 0.27622 0.0
H1238 H 0.10214 0.35885 0.23855 0.0
C1239 C 0.06241 0.30483 0.2462 0.0
C1240 C 0.69459 0.74882 0.27452 0.0
C1241 C 0.67395 0.73228 0.28405 0.0
H1242 H 0.71182 0.77492 0.24633 0.0
C1243 C 0.65476 0.72794 0.27017 0.0
H1244 H 0.70969 0.7525 0.28468 0.0
C1245 C 0.65601 0.7406 0.24822 0.0
C1246 C 0.67646 0.75798 0.23959 0.0
H1247 H 0.63861 0.71511 0.27666 0.0
H1248 H 0.64083 0.7372 0.23843 0.0
C1249 C 0.69583 0.76157 0.25246 0.0
C1250 C 0.27511 0.92969 0.27299 0.0
C1251 C 0.27099 0.94524 0.28568 0.0
H1252 H 0.26556 0.90521 0.24268 0.0
C1253 C 0.25443 0.94904 0.2755 0.0
H1254 H 0.28794 0.92655 0.28001 0.0
C1255 C 0.24149 0.93666 0.25398 0.0
C1256 C 0.2449 0.92028 0.24231 0.0
H1257 H 0.25091 0.96096 0.28475 0.0
H1258 H 0.22816 0.93917 0.24733 0.0
C1259 C 0.26226 0.91741 0.25158 0.0
C1260 C 0.69958 0.94855 0.27423 0.0
C1261 C 0.67929 0.94536 0.28398 0.0
H1262 H 0.71585 0.93851 0.24587 0.0
C1263 C 0.65979 0.931 0.2703 0.0
H1264 H 0.71491 0.95957 0.28424 0.0
C1265 C 0.66036 0.91913 0.24837 0.0
C1266 C 0.68043 0.92128 0.23955 0.0
H1267 H 0.6439 0.92838 0.27697 0.0
H1268 H 0.64495 0.90772 0.23877 0.0
C1269 C 0.70014 0.9366 0.25218 0.0
C1270 C 0.05518 0.74457 0.27271 0.0
C1271 C 0.05971 0.72846 0.28278 0.0
H1272 H 0.06432 0.77095 0.24489 0.0
C1273 C 0.07587 0.72524 0.27016 0.0
H1274 H 0.04278 0.74741 0.28191 0.0
C1275 C 0.08801 0.73854 0.24891 0.0
C1276 C 0.08439 0.75547 0.23976 0.0
H1277 H 0.07959 0.71278 0.27711 0.0
H1278 H 0.10068 0.73592 0.24005 0.0
C1279 C 0.06742 0.75796 0.2514 0.0
C1280 C 0.27251 0.34735 0.27384 0.0
C1281 C 0.27051 0.32786 0.28459 0.0
H1282 H 0.26077 0.36177 0.24544 0.0
C1283 C 0.25536 0.30747 0.27307 0.0
H1284 H 0.28413 0.36336 0.28199 0.0
C1285 C 0.24189 0.30659 0.25201 0.0
C1286 C 0.24325 0.32605 0.24213 0.0
H1287 H 0.25343 0.29214 0.28079 0.0
H1288 H 0.22979 0.29061 0.2442 0.0
C1289 C 0.25906 0.34645 0.25291 0.0
C1290 C 0.26027 0.32125 0.43506 0.0
C1291 C 0.2784 0.33982 0.42362 0.0
H1292 H 0.23485 0.30898 0.46446 0.0
C1293 C 0.28576 0.36067 0.43521 0.0
H1294 H 0.25416 0.30492 0.42673 0.0
C1295 C 0.27472 0.36298 0.45711 0.0
C1296 C 0.25612 0.34448 0.46797 0.0
H1297 H 0.29974 0.37531 0.427 0.0
H1298 H 0.28056 0.37931 0.46532 0.0
C1299 C 0.24929 0.32356 0.45692 0.0
C1300 C 0.64198 0.92127 0.43513 0.0
C1301 C 0.66286 0.9339 0.42322 0.0
H1302 H 0.62297 0.8982 0.46564 0.0
C1303 C 0.68097 0.93302 0.43397 0.0
H1304 H 0.62769 0.92162 0.42744 0.0
C1305 C 0.67824 0.91953 0.45568 0.0
C1306 C 0.65734 0.90658 0.46737 0.0
H1307 H 0.69729 0.94247 0.42533 0.0
H1308 H 0.69249 0.91878 0.46278 0.0
C1309 C 0.63926 0.90776 0.45696 0.0
C1310 C 0.06025 0.73768 0.4351 0.0
C1311 C 0.0647 0.72232 0.42255 0.0
H1312 H 0.06934 0.76215 0.46535 0.0
C1313 C 0.08137 0.71878 0.43294 0.0
H1314 H 0.04732 0.74061 0.42791 0.0
C1315 C 0.0941 0.73127 0.45453 0.0
C1316 C 0.09035 0.74748 0.46606 0.0
H1317 H 0.08516 0.707 0.4238 0.0
H1318 H 0.10752 0.72898 0.46135 0.0
C1319 C 0.07288 0.75007 0.45657 0.0
C1320 C 0.34098 0.07496 0.76956 0.0
C1321 C 0.32253 0.05663 0.75832 0.0
H1322 H 0.35313 0.10043 0.7988 0.0
C1323 C 0.30163 0.04921 0.76987 0.0
H1324 H 0.35734 0.08121 0.7612 0.0
C1325 C 0.29923 0.06019 0.7918 0.0
C1326 C 0.31768 0.07882 0.80268 0.0
H1327 H 0.28707 0.0351 0.76178 0.0
H1328 H 0.28291 0.05413 0.80017 0.0
C1329 C 0.33859 0.08592 0.79136 0.0
C1330 C 0.94949 0.24964 0.76415 0.0
C1331 C 0.94255 0.26381 0.75357 0.0
H1332 H 0.94439 0.22556 0.79376 0.0
C1333 C 0.92488 0.26468 0.76581 0.0
H1334 H 0.9631 0.24862 0.75529 0.0
C1335 C 0.91408 0.25138 0.78765 0.0
C1336 C 0.9207 0.2369 0.79802 0.0
H1337 H 0.91901 0.27533 0.75821 0.0
H1338 H 0.90005 0.25199 0.79586 0.0
C1339 C 0.93869 0.23634 0.78614 0.0
C1340 C 0.73721 0.66104 0.76968 0.0
C1341 C 0.73762 0.67907 0.75679 0.0
H1342 H 0.75027 0.64995 0.80035 0.0
C1343 C 0.75134 0.70044 0.76692 0.0
H1344 H 0.72692 0.64433 0.76246 0.0
C1345 C 0.76467 0.70367 0.78911 0.0
C1346 C 0.76455 0.68559 0.80163 0.0
H1347 H 0.752 0.7147 0.75753 0.0
H1348 H 0.77513 0.72032 0.79638 0.0
C1349 C 0.75052 0.66425 0.79168 0.0
C1350 C 0.73047 0.63861 0.61689 0.0
C1351 C 0.72682 0.6566 0.61877 0.0
H1352 H 0.74526 0.62308 0.59524 0.0
C1353 C 0.73374 0.67191 0.59795 0.0
H1354 H 0.72545 0.62665 0.63278 0.0
C1355 C 0.74443 0.66948 0.57582 0.0
C1356 C 0.74908 0.65203 0.57433 0.0
H1357 H 0.73089 0.68581 0.59877 0.0
H1358 H 0.74919 0.68146 0.56002 0.0
C1359 C 0.74171 0.63651 0.59513 0.0
C1360 C 0.35897 0.07985 0.60978 0.0
C1361 C 0.33839 0.06318 0.61931 0.0
H1362 H 0.37605 0.10645 0.58221 0.0
C1363 C 0.31909 0.05924 0.606 0.0
H1364 H 0.37416 0.08326 0.61952 0.0
C1365 C 0.32021 0.07238 0.58461 0.0
C1366 C 0.34063 0.08983 0.57599 0.0
H1367 H 0.30298 0.04635 0.61252 0.0
H1368 H 0.30497 0.06924 0.57523 0.0
C1369 C 0.36007 0.09305 0.58831 0.0
C1370 C 0.93432 0.25941 0.60182 0.0
C1371 C 0.93384 0.27697 0.61491 0.0
H1372 H 0.92176 0.23585 0.57039 0.0
C1373 C 0.92081 0.28527 0.60431 0.0
H1374 H 0.94418 0.25259 0.60936 0.0
C1375 C 0.90807 0.27577 0.58159 0.0
C1376 C 0.90808 0.25777 0.56897 0.0
H1377 H 0.92017 0.29888 0.61379 0.0
H1378 H 0.89801 0.28237 0.57407 0.0
C1379 C 0.9216 0.24993 0.57922 0.0
C1380 C 0.35771 0.27802 0.6143 0.0
C1381 C 0.33703 0.27439 0.62319 0.0
H1382 H 0.37514 0.26888 0.58658 0.0
C1383 C 0.31802 0.25994 0.60874 0.0
H1384 H 0.37268 0.28912 0.6249 0.0
C1385 C 0.31946 0.24855 0.58682 0.0
C1386 C 0.33994 0.25125 0.57875 0.0
H1387 H 0.30185 0.25696 0.61473 0.0
H1388 H 0.30442 0.23714 0.57655 0.0
C1389 C 0.35914 0.26655 0.59226 0.0
C1390 C 0.72147 0.08682 0.60498 0.0
C1391 C 0.72677 0.07137 0.61551 0.0
H1392 H 0.72974 0.11269 0.5766 0.0
C1393 C 0.74374 0.0691 0.6035 0.0
H1394 H 0.70845 0.08893 0.61368 0.0
C1395 C 0.75583 0.08263 0.5824 0.0
C1396 C 0.75125 0.09875 0.57265 0.0
H1397 H 0.74816 0.05725 0.61085 0.0
H1398 H 0.76914 0.0808 0.57403 0.0
C1399 C 0.73357 0.10034 0.58367 0.0
C1400 C 0.93212 0.67603 0.60569 0.0
C1401 C 0.93198 0.65765 0.61728 0.0
H1402 H 0.91889 0.68794 0.57607 0.0
C1403 C 0.91875 0.6367 0.60585 0.0
H1404 H 0.94206 0.69243 0.61394 0.0
C1405 C 0.90557 0.63415 0.58374 0.0
C1406 C 0.90528 0.65248 0.5726 0.0
H1407 H 0.91833 0.6222 0.61416 0.0
H1408 H 0.8955 0.61778 0.5755 0.0
C1409 C 0.91892 0.67347 0.58373 0.0
C1410 C 0.94843 0.6981 0.76709 0.0
C1411 C 0.94055 0.67715 0.75553 0.0
H1412 H 0.94412 0.71715 0.79744 0.0
C1413 C 0.92196 0.65893 0.76678 0.0
H1414 H 0.96277 0.71247 0.75903 0.0
C1415 C 0.91118 0.66163 0.78858 0.0
C1416 C 0.91874 0.68261 0.7999 0.0
H1417 H 0.91536 0.64254 0.7584 0.0
H1418 H 0.89646 0.64729 0.79601 0.0
C1419 C 0.93766 0.70079 0.78905 0.0
C1420 C 0.33455 0.2726 0.78244 0.0
C1421 C 0.31873 0.26471 0.76217 0.0
H1422 H 0.34512 0.26587 0.81911 0.0
C1423 C 0.30065 0.24317 0.76399 0.0
H1424 H 0.34852 0.28926 0.78167 0.0
C1425 C 0.29908 0.22936 0.78496 0.0
C1426 C 0.31529 0.23695 0.80498 0.0
H1427 H 0.28829 0.23661 0.7485 0.0
H1428 H 0.28561 0.21245 0.78473 0.0
C1429 C 0.33267 0.25904 0.80378 0.0
C1430 C 0.73553 0.08115 0.76538 0.0
C1431 C 0.73499 0.06245 0.75407 0.0
H1432 H 0.74945 0.1065 0.79476 0.0
C1433 C 0.74768 0.05418 0.76571 0.0
H1434 H 0.72601 0.08803 0.75696 0.0
C1435 C 0.76101 0.06469 0.78773 0.0
C1436 C 0.76199 0.08375 0.7986 0.0
H1437 H 0.74757 0.03974 0.75761 0.0
H1438 H 0.77067 0.05796 0.79614 0.0
C1439 C 0.74888 0.09167 0.78728 0.0
C1440 C 0.08325 0.35856 0.03242 0.0
C1441 C 0.06085 0.34944 0.03893 0.0
H1442 H 0.11376 0.35967 0.04049 0.0
C1443 C 0.05178 0.33332 0.05884 0.0
H1444 H 0.09059 0.37091 0.01699 0.0
C1445 C 0.06526 0.32754 0.07326 0.0
C1446 C 0.08802 0.33738 0.06763 0.0
H1447 H 0.03457 0.32621 0.06443 0.0
H1448 H 0.05794 0.31618 0.08964 0.0
C1449 C 0.09658 0.3523 0.04625 0.0
C1450 C 0.6319 0.71476 0.0513 0.0
C1451 C 0.64724 0.70793 0.04519 0.0
H1452 H 0.6261 0.73888 0.07015 0.0
C1453 C 0.66955 0.72178 0.05206 0.0
H1454 H 0.61462 0.70459 0.04619 0.0
C1455 C 0.67613 0.74154 0.06588 0.0
C1456 C 0.66049 0.74768 0.07322 0.0
H1457 H 0.68178 0.71699 0.04763 0.0
H1458 H 0.69325 0.75149 0.07182 0.0
C1459 C 0.63844 0.73436 0.0652 0.0
C1460 C 0.28969 0.91837 0.05496 0.0
C1461 C 0.2963 0.94043 0.04873 0.0
H1462 H 0.2658 0.88854 0.07395 0.0
C1463 C 0.28231 0.94878 0.05564 0.0
H1464 H 0.29998 0.91134 0.04984 0.0
C1465 C 0.2626 0.93561 0.06953 0.0
C1466 C 0.25666 0.91393 0.07693 0.0
H1467 H 0.28693 0.96571 0.05112 0.0
H1468 H 0.2525 0.94267 0.07545 0.0
C1469 C 0.27016 0.90532 0.06894 0.0
C1470 C 0.35919 0.07865 1.00543 0.0
C1471 C 0.34967 0.05616 0.99917 0.0
H1472 H 0.36065 0.10932 0.99736 0.0
C1473 C 0.33325 0.04715 0.97961 0.0
H1474 H 0.37179 0.08596 0.02058 0.0
C1475 C 0.32748 0.06072 0.96536 0.0
C1476 C 0.33765 0.08354 0.97081 0.0
H1477 H 0.32584 0.02988 0.97418 0.0
H1478 H 0.31579 0.05342 0.9493 0.0
C1479 C 0.35299 0.09209 0.99177 0.0
C1480 C 0.92559 0.28148 0.998 0.0
C1481 C 0.94785 0.29413 0.99062 0.0
H1482 H 0.89473 0.25206 0.9919 0.0
C1483 C 0.95626 0.28603 0.97102 0.0
H1484 H 0.91878 0.28731 0.01323 0.0
C1485 C 0.94227 0.26625 0.95782 0.0
C1486 C 0.91966 0.25385 0.96443 0.0
H1487 H 0.97336 0.29563 0.96478 0.0
H1488 H 0.94907 0.26131 0.94166 0.0
C1489 C 0.91176 0.26139 0.98542 0.0
C1490 C 0.72192 0.64531 1.00375 0.0
C1491 C 0.70847 0.65413 0.99675 0.0
H1492 H 0.75189 0.64496 0.99682 0.0
C1493 C 0.71573 0.67041 0.97702 0.0
H1494 H 0.71677 0.63285 0.01908 0.0
C1495 C 0.73546 0.67672 0.96331 0.0
C1496 C 0.74864 0.66726 0.96951 0.0
H1497 H 0.70551 0.6773 0.97107 0.0
H1498 H 0.73977 0.68826 0.94709 0.0
C1499 C 0.74194 0.65207 0.99065 0.0
C1500 C 0.92333 0.63385 0.9827 0.0
C1501 C 0.94447 0.64974 0.99147 0.0
H1502 H 0.89392 0.62736 0.96249 0.0
C1503 C 0.95149 0.67224 0.98759 0.0
H1504 H 0.91744 0.61637 0.98511 0.0
C1505 C 0.93775 0.67863 0.97482 0.0
C1506 C 0.91675 0.66265 0.96552 0.0
H1507 H 0.96771 0.68489 0.9941 0.0
H1508 H 0.94359 0.69608 0.97223 0.0
C1509 C 0.90974 0.64019 0.96978 0.0
C1510 C 0.33715 0.28699 0.97562 0.0
C1511 C 0.35465 0.29522 0.9938 0.0
H1512 H 0.31841 0.26233 0.94669 0.0
C1513 C 0.36524 0.28301 0.99881 0.0
H1514 H 0.32887 0.29624 0.97117 0.0
C1515 C 0.35887 0.26322 0.98538 0.0
C1516 C 0.34219 0.25547 0.96596 0.0
H1517 H 0.37869 0.28893 0.0129 0.0
H1518 H 0.36732 0.2542 0.99007 0.0
C1519 C 0.33114 0.26746 0.96163 0.0
C1520 C 0.71208 0.08058 0.98566 0.0
C1521 C 0.70701 0.05945 0.99433 0.0
H1522 H 0.7344 0.10978 0.96465 0.0
C1523 C 0.72231 0.05229 0.98956 0.0
H1524 H 0.70061 0.08658 0.98875 0.0
C1525 C 0.74205 0.06586 0.97591 0.0
C1526 C 0.74683 0.08681 0.96662 0.0
H1527 H 0.71887 0.03608 0.99595 0.0
H1528 H 0.75351 0.05989 0.97259 0.0
C1529 C 0.73161 0.09399 0.97188 0.0
C1530 C 0.66905 0.94791 0.05244 0.0
C1531 C 0.64664 0.93929 0.04591 0.0
H1532 H 0.69313 0.94224 0.07189 0.0
C1533 C 0.63149 0.91721 0.05239 0.0
H1534 H 0.68113 0.96486 0.04772 0.0
C1535 C 0.63833 0.90441 0.06626 0.0
C1536 C 0.66049 0.9133 0.07391 0.0
H1537 H 0.61414 0.90997 0.04754 0.0
H1538 H 0.62613 0.88761 0.07148 0.0
C1539 C 0.67593 0.93498 0.06624 0.0
C1540 C 0.05703 0.72456 0.05036 0.0
C1541 C 0.06549 0.71079 0.04283 0.0
H1542 H 0.06283 0.7537 0.07152 0.0
C1543 C 0.08749 0.71726 0.04919 0.0
H1544 H 0.04014 0.72004 0.04579 0.0
C1545 C 0.10035 0.73635 0.06397 0.0
C1546 C 0.09158 0.74954 0.07268 0.0
H1547 H 0.09461 0.70714 0.04358 0.0
H1548 H 0.11707 0.74057 0.06908 0.0
C1549 C 0.07001 0.74383 0.06508 0.0
C1550 C 0.28444 0.33556 0.05551 0.0
C1551 C 0.29935 0.35791 0.04992 0.0
H1552 H 0.25405 0.31225 0.07434 0.0
C1553 C 0.29406 0.37397 0.05817 0.0
H1554 H 0.28806 0.32279 0.0495 0.0
C1555 C 0.27476 0.36797 0.07252 0.0
C1556 C 0.26017 0.34573 0.07883 0.0
H1557 H 0.30514 0.39134 0.05418 0.0
H1558 H 0.27131 0.38079 0.07882 0.0
C1559 C 0.26498 0.32952 0.06974 0.0
C1560 C 0.7192 0.66782 0.38733 0.0
C1561 C 0.72639 0.69036 0.38362 0.0
H1562 H 0.72669 0.64373 0.40281 0.0
C1563 C 0.74739 0.70611 0.39296 0.0
H1564 H 0.70309 0.65528 0.38038 0.0
C1565 C 0.7607 0.69956 0.40617 0.0
C1566 C 0.75352 0.67704 0.41021 0.0
H1567 H 0.75339 0.72363 0.39069 0.0
H1568 H 0.77645 0.71226 0.41381 0.0
C1569 C 0.73265 0.66122 0.40042 0.0
C1570 C 0.29962 0.05048 0.38605 0.0
C1571 C 0.31501 0.04363 0.38035 0.0
H1572 H 0.29349 0.07431 0.40508 0.0
C1573 C 0.33716 0.05724 0.38805 0.0
H1574 H 0.28247 0.04051 0.38028 0.0
C1575 C 0.34348 0.07673 0.40236 0.0
C1576 C 0.32772 0.08281 0.40935 0.0
H1577 H 0.34941 0.05241 0.38396 0.0
H1578 H 0.36042 0.08647 0.40899 0.0
C1579 C 0.30589 0.0698 0.40042 0.0
C1580 C 0.9532 0.29012 0.39462 0.0
C1581 C 0.96039 0.28125 0.37452 0.0
H1582 H 0.92912 0.28378 0.4246 0.0
C1583 C 0.94677 0.25918 0.36692 0.0
H1584 H 0.96355 0.30707 0.40102 0.0
C1585 C 0.92664 0.24596 0.37978 0.0
C1586 C 0.92 0.25423 0.40127 0.0
H1587 H 0.95187 0.25202 0.35129 0.0
H1588 H 0.91657 0.22906 0.37315 0.0
C1589 C 0.93336 0.2767 0.40808 0.0
C1590 C 0.03886 0.41807 0.31856 0.0
C1591 C 0.02332 0.39607 0.32487 0.0
H1592 H 0.04512 0.44779 0.29897 0.0
C1593 C 0.00111 0.38776 0.31757 0.0
H1594 H 0.05607 0.42506 0.32399 0.0
C1595 C 0.99484 0.40088 0.30312 0.0
C1596 C 0.01069 0.42246 0.29557 0.0
H1597 H 0.98874 0.37088 0.32211 0.0
H1598 H 0.97781 0.39382 0.29685 0.0
C1599 C 0.03263 0.43107 0.30405 0.0
C1600 C 0.58458 0.62299 0.31854 0.0
C1601 C 0.60599 0.62875 0.32692 0.0
H1602 H 0.55554 0.59991 0.29756 0.0
C1603 C 0.61404 0.61428 0.32134 0.0
H1604 H 0.57782 0.6337 0.32254 0.0
C1605 C 0.60119 0.59484 0.3069 0.0
C1606 C 0.58016 0.58962 0.29759 0.0
H1607 H 0.63049 0.61828 0.32745 0.0
H1608 H 0.60803 0.5843 0.30223 0.0
C1609 C 0.57186 0.60371 0.304 0.0
C1610 C 0.37942 0.9654 0.32122 0.0
C1611 C 0.37439 0.98156 0.32976 0.0
H1612 H 0.40169 0.95825 0.30034 0.0
C1613 C 0.3897 0.00392 0.32484 0.0
H1614 H 0.36793 0.948 0.32441 0.0
C1615 C 0.40943 0.0099 0.3112 0.0
C1616 C 0.41418 0.99363 0.30209 0.0
H1617 H 0.38629 0.01677 0.33112 0.0
H1618 H 0.42091 0.02726 0.30777 0.0
C1619 C 0.39892 0.97132 0.30745 0.0
C1620 C 0.61818 0.00311 0.32351 0.0
C1621 C 0.61121 0.98073 0.3282 0.0
H1622 H 0.6103 0.02654 0.30666 0.0
C1623 C 0.59018 0.9646 0.31941 0.0
H1624 H 0.63433 0.01594 0.32997 0.0
C1625 C 0.57665 0.97059 0.30569 0.0
C1626 C 0.58361 0.99293 0.3006 0.0
H1627 H 0.58432 0.94718 0.32241 0.0
H1628 H 0.56092 0.95756 0.29844 0.0
C1629 C 0.60449 0.00916 0.3099 0.0
C1630 C 0.99967 0.61083 0.3192 0.0
C1631 C 0.02179 0.62441 0.32698 0.0
H1632 H 0.97649 0.58187 0.29778 0.0
C1633 C 0.03726 0.61774 0.32087 0.0
H1634 H 0.98736 0.61552 0.32359 0.0
C1635 C 0.03108 0.59866 0.30604 0.0
C1636 C 0.00926 0.58571 0.29706 0.0
H1637 H 0.05441 0.6277 0.32668 0.0
H1638 H 0.04354 0.5943 0.30108 0.0
C1639 C 0.99343 0.59158 0.30444 0.0
C1640 C 0.39009 0.40989 0.33682 0.0
C1641 C 0.37678 0.38786 0.32889 0.0
H1642 H 0.42 0.44038 0.33099 0.0
C1643 C 0.38425 0.37945 0.30858 0.0
H1644 H 0.38477 0.41671 0.35262 0.0
C1645 C 0.40405 0.39327 0.29524 0.0
C1646 C 0.41708 0.41571 0.30239 0.0
H1647 H 0.37415 0.36253 0.30192 0.0
H1648 H 0.40851 0.38654 0.27855 0.0
C1649 C 0.41017 0.42353 0.32409 0.0
C1650 C 0.299 0.25059 0.38585 0.0
C1651 C 0.31445 0.27254 0.37922 0.0
H1652 H 0.29288 0.22116 0.40606 0.0
C1653 C 0.33666 0.28105 0.38662 0.0
H1654 H 0.28178 0.24344 0.38037 0.0
C1655 C 0.34303 0.26819 0.40145 0.0
C1656 C 0.32726 0.24667 0.4093 0.0
H1657 H 0.34897 0.29791 0.38184 0.0
H1658 H 0.36007 0.2754 0.40775 0.0
C1659 C 0.30531 0.23785 0.40075 0.0
C1660 C 0.72296 0.0541 0.38843 0.0
C1661 C 0.73129 0.03973 0.38375 0.0
H1662 H 0.72867 0.08454 0.40594 0.0
C1663 C 0.75276 0.04598 0.39237 0.0
H1664 H 0.70646 0.04974 0.3821 0.0
C1665 C 0.76534 0.06574 0.40612 0.0
C1666 C 0.75683 0.07983 0.41147 0.0
H1667 H 0.75973 0.03535 0.38907 0.0
H1668 H 0.78174 0.06995 0.4127 0.0
C1669 C 0.73566 0.07402 0.40206 0.0
C1670 C 0.95613 0.70063 0.38652 0.0
C1671 C 0.96131 0.68464 0.37771 0.0
H1672 H 0.93363 0.70738 0.40747 0.0
C1673 C 0.94604 0.6622 0.38217 0.0
H1674 H 0.96759 0.71808 0.3837 0.0
C1675 C 0.92617 0.65595 0.3956 0.0
C1676 C 0.92126 0.67204 0.40499 0.0
H1677 H 0.94959 0.64948 0.37567 0.0
H1678 H 0.91471 0.63853 0.39867 0.0
C1679 C 0.9365 0.69444 0.40011 0.0
C1680 C 0.41546 0.03805 0.72139 0.0
C1681 C 0.39355 0.022 0.71549 0.0
H1682 H 0.44594 0.04518 0.73962 0.0
C1683 C 0.38611 0.99985 0.72233 0.0
H1684 H 0.42181 0.05524 0.71627 0.0
C1685 C 0.40005 0.99409 0.73583 0.0
C1686 C 0.42159 0.01039 0.74287 0.0
H1687 H 0.36932 0.9871 0.71807 0.0
H1688 H 0.39367 0.97706 0.74172 0.0
C1689 C 0.42928 0.03232 0.73494 0.0
C1690 C 0.00183 0.38664 0.71624 0.0
C1691 C 0.97924 0.3711 0.7137 0.0
H1692 H 0.02618 0.41873 0.73005 0.0
C1693 C 0.96364 0.37659 0.72323 0.0
H1694 H 0.01426 0.38292 0.70907 0.0
C1695 C 0.97042 0.39687 0.73558 0.0
C1696 C 0.99301 0.41238 0.73853 0.0
H1697 H 0.9461 0.36496 0.7218 0.0
H1698 H 0.95785 0.40007 0.74349 0.0
C1699 C 0.00865 0.4071 0.72847 0.0
C1700 C 0.61709 0.61387 0.72202 0.0
C1701 C 0.63202 0.60628 0.71706 0.0
H1702 H 0.58647 0.60713 0.74008 0.0
C1703 C 0.62646 0.58491 0.72538 0.0
H1704 H 0.62091 0.63027 0.71592 0.0
C1705 C 0.60688 0.57177 0.73925 0.0
C1706 C 0.59231 0.57961 0.74508 0.0
H1707 H 0.63751 0.57848 0.72181 0.0
H1708 H 0.60324 0.55549 0.74565 0.0
C1709 C 0.59737 0.60062 0.73584 0.0
C1710 C 0.66886 0.71485 0.64201 0.0
C1711 C 0.68586 0.7237 0.66087 0.0
H1712 H 0.65055 0.72138 0.61312 0.0
C1713 C 0.69567 0.74616 0.66738 0.0
H1714 H 0.66121 0.69759 0.63644 0.0
C1715 C 0.68909 0.75972 0.65474 0.0
C1716 C 0.67309 0.75135 0.63447 0.0
H1717 H 0.70871 0.75333 0.68204 0.0
H1718 H 0.69694 0.7769 0.66062 0.0
C1719 C 0.66273 0.72856 0.6287 0.0
C1720 C 0.27897 0.94437 0.65605 0.0
C1721 C 0.27088 0.9585 0.6633 0.0
H1722 H 0.27256 0.91479 0.63548 0.0
C1723 C 0.24892 0.95229 0.65704 0.0
H1724 H 0.29582 0.94869 0.66056 0.0
C1725 C 0.23574 0.93306 0.64264 0.0
C1726 C 0.24413 0.91947 0.63423 0.0
H1727 H 0.24208 0.96269 0.66244 0.0
H1728 H 0.21906 0.92902 0.63762 0.0
C1729 C 0.26567 0.92496 0.64171 0.0
C1730 C 0.04289 0.29232 0.64498 0.0
C1731 C 0.03771 0.30824 0.65414 0.0
H1732 H 0.06553 0.28588 0.62348 0.0
C1733 C 0.05267 0.33069 0.6492 0.0
H1734 H 0.03179 0.27488 0.64847 0.0
C1735 C 0.07208 0.33699 0.63472 0.0
C1736 C 0.07679 0.32095 0.62476 0.0
H1737 H 0.04913 0.34336 0.6559 0.0
H1738 H 0.08304 0.35436 0.63063 0.0
C1739 C 0.06215 0.29859 0.63043 0.0
C1740 C 0.25199 0.30831 0.67233 0.0
C1741 C 0.27453 0.31751 0.66655 0.0
H1742 H 0.22166 0.30722 0.66323 0.0
C1743 C 0.28406 0.33388 0.64697 0.0
H1744 H 0.2443 0.29575 0.68749 0.0
C1745 C 0.2709 0.33979 0.63209 0.0
C1746 C 0.248 0.32981 0.63693 0.0
H1747 H 0.30139 0.34104 0.64195 0.0
H1748 H 0.27856 0.35134 0.61595 0.0
C1749 C 0.23897 0.31469 0.65806 0.0
C1750 C 0.70596 0.96045 0.64891 0.0
C1751 C 0.68998 0.96559 0.65792 0.0
H1752 H 0.71258 0.93752 0.6287 0.0
C1753 C 0.66751 0.94996 0.65445 0.0
H1754 H 0.72343 0.97217 0.65101 0.0
C1755 C 0.66121 0.92975 0.64185 0.0
C1756 C 0.67726 0.92482 0.63232 0.0
H1757 H 0.6548 0.95343 0.66116 0.0
H1758 H 0.64377 0.91802 0.63958 0.0
C1759 C 0.6997 0.94044 0.63617 0.0
C1760 C 0.05215 0.71965 0.65287 0.0
C1761 C 0.03768 0.72762 0.65895 0.0
H1762 H 0.08237 0.72615 0.63383 0.0
C1763 C 0.04382 0.74942 0.6519 0.0
H1764 H 0.0479 0.70293 0.65802 0.0
C1765 C 0.0634 0.76258 0.63803 0.0
C1766 C 0.07742 0.75435 0.63091 0.0
H1767 H 0.03318 0.75617 0.65638 0.0
H1768 H 0.0674 0.77916 0.63249 0.0
C1769 C 0.07189 0.73294 0.63906 0.0
C1770 C 0.96189 0.58615 0.7247 0.0
C1771 C 0.97739 0.60753 0.7161 0.0
H1772 H 0.95624 0.55694 0.74508 0.0
C1773 C 0.99996 0.61541 0.72084 0.0
H1774 H 0.94437 0.57951 0.72136 0.0
C1775 C 0.00677 0.60237 0.73453 0.0
C1776 C 0.99113 0.58132 0.74396 0.0
H1777 H 0.01232 0.63182 0.71452 0.0
H1778 H 0.02421 0.60904 0.73848 0.0
C1779 C 0.96866 0.57325 0.73851 0.0
C1780 C 0.41259 0.37684 0.72612 0.0
C1781 C 0.39112 0.37121 0.71826 0.0
H1782 H 0.44261 0.40053 0.74462 0.0
C1783 C 0.38409 0.38674 0.72187 0.0
H1784 H 0.41853 0.36525 0.72382 0.0
C1785 C 0.39811 0.40728 0.73364 0.0
C1786 C 0.41944 0.41268 0.74208 0.0
H1787 H 0.36763 0.3829 0.71603 0.0
H1788 H 0.39221 0.41887 0.7362 0.0
C1789 C 0.42651 0.39722 0.73795 0.0
C1790 C 0.62299 0.04184 0.71881 0.0
C1791 C 0.62956 0.02643 0.71191 0.0
H1792 H 0.59912 0.04762 0.73835 0.0
C1793 C 0.6155 0.00403 0.71821 0.0
H1794 H 0.63332 0.0592 0.71415 0.0
C1795 C 0.59577 0.99738 0.73218 0.0
C1796 C 0.58988 0.01305 0.74026 0.0
H1797 H 0.62008 0.99175 0.71317 0.0
H1798 H 0.58563 0.98017 0.73764 0.0
C1799 C 0.60344 0.03524 0.73285 0.0
loop_
_geom_bond_atom_site_label_1
_geom_bond_atom_site_label_2
_geom_bond_distance
_geom_bond_site_symmetry_2
_ccdc_geom_bond_type
O0 Cd1 2.223 . S
O0 C8 1.315 . S
Cd1 O0 2.223 . S
Cd1 O4 2.297 . S
Cd1 O5 2.439 . S
Cd1 O11 2.240 1_554 S
Cd2 O3 2.240 . S
Cd2 O10 2.223 1_554 S
Cd2 O12 2.297 1_554 S
Cd2 O13 2.439 1_554 S
O3 Cd2 2.240 . S
O3 C8 1.279 1_655 S
O4 Cd1 2.297 . S
O4 C6 1.247 . S
O5 Cd1 2.439 . S
O5 C6 1.208 . S
C6 O4 1.247 . S
C6 O5 1.208 . S
C7 O12 1.247 . S
C7 O13 1.208 . S
C8 O0 1.315 . S
C8 O3 1.279 1_455 S
C9 O10 1.315 . S
C9 O11 1.279 1_655 S
O10 Cd2 2.223 1_556 S
O10 C9 1.315 . S
O11 Cd1 2.240 1_556 S
O11 C9 1.279 1_455 S
O12 Cd2 2.297 1_556 S
O12 C7 1.247 . S
O13 Cd2 2.439 1_556 S
O13 C7 1.208 . S
O14 Cd15 2.223 . S
O14 C22 1.315 . S
Cd15 O14 2.223 . S
Cd15 O18 2.297 . S
Cd15 O19 2.439 . S
Cd15 O25 2.240 1_554 S
Cd16 O17 2.240 . S
Cd16 O24 2.223 1_554 S
Cd16 O26 2.297 1_554 S
Cd16 O27 2.439 1_554 S
O17 Cd16 2.240 . S
O17 C22 1.279 . S
O18 Cd15 2.297 . S
O18 C20 1.247 . S
O19 Cd15 2.439 . S
O19 C20 1.208 . S
C20 O18 1.247 . S
C20 O19 1.208 . S
C21 O26 1.247 . S
C21 O27 1.208 . S
C22 O14 1.315 . S
C22 O17 1.279 . S
C23 O24 1.315 . S
C23 O25 1.279 . S
O24 Cd16 2.223 1_556 S
O24 C23 1.315 . S
O25 Cd15 2.240 1_556 S
O25 C23 1.279 . S
O26 Cd16 2.297 1_556 S
O26 C21 1.247 . S
O27 Cd16 2.439 1_556 S
O27 C21 1.208 . S
O28 Cd29 2.223 1_556 S
O28 C36 1.315 . S
Cd29 O28 2.223 1_554 S
Cd29 O32 2.297 1_554 S
Cd29 O33 2.439 1_554 S
Cd29 O39 2.240 . S
Cd30 O31 2.240 1_554 S
Cd30 O38 2.223 . S
Cd30 O40 2.297 . S
Cd30 O41 2.439 . S
O31 Cd30 2.240 1_556 S
O31 C36 1.279 1_565 S
O32 Cd29 2.297 1_556 S
O32 C34 1.247 . S
O33 Cd29 2.439 1_556 S
O33 C34 1.208 . S
C34 O32 1.247 . S
C34 O33 1.208 . S
C35 O40 1.247 . S
C35 O41 1.208 . S
C36 O28 1.315 . S
C36 O31 1.279 1_545 S
C37 O38 1.315 . S
C37 O39 1.279 1_565 S
O38 Cd30 2.223 . S
O38 C37 1.315 . S
O39 Cd29 2.240 . S
O39 C37 1.279 1_545 S
O40 Cd30 2.297 . S
O40 C35 1.247 . S
O41 Cd30 2.439 . S
O41 C35 1.208 . S
O42 Cd43 2.223 1_556 S
O42 C50 1.315 . S
Cd43 O42 2.223 1_554 S
Cd43 O46 2.297 1_554 S
Cd43 O47 2.439 1_554 S
Cd43 O53 2.240 . S
Cd44 O45 2.240 1_554 S
Cd44 O52 2.223 . S
Cd44 O54 2.297 . S
Cd44 O55 2.439 . S
O45 Cd44 2.240 1_556 S
O45 C50 1.279 1_455 S
O46 Cd43 2.297 1_556 S
O46 C48 1.247 . S
O47 Cd43 2.439 1_556 S
O47 C48 1.208 . S
C48 O46 1.247 . S
C48 O47 1.208 . S
C49 O54 1.247 . S
C49 O55 1.208 . S
C50 O42 1.315 . S
C50 O45 1.279 1_655 S
C51 O52 1.315 . S
C51 O53 1.279 1_455 S
O52 Cd44 2.223 . S
O52 C51 1.315 . S
O53 Cd43 2.240 . S
O53 C51 1.279 1_655 S
O54 Cd44 2.297 . S
O54 C49 1.247 . S
O55 Cd44 2.439 . S
O55 C49 1.208 . S
O56 Cd57 2.223 1_556 S
O56 C64 1.315 . S
Cd57 O56 2.223 1_554 S
Cd57 O60 2.297 1_554 S
Cd57 O61 2.439 1_554 S
Cd57 O67 2.240 . S
Cd58 O59 2.240 1_554 S
Cd58 O66 2.223 . S
Cd58 O68 2.297 . S
Cd58 O69 2.439 . S
O59 Cd58 2.240 1_556 S
O59 C64 1.279 . S
O60 Cd57 2.297 1_556 S
O60 C62 1.247 . S
O61 Cd57 2.439 1_556 S
O61 C62 1.208 . S
C62 O60 1.247 . S
C62 O61 1.208 . S
C63 O68 1.247 . S
C63 O69 1.208 . S
C64 O56 1.315 . S
C64 O59 1.279 . S
C65 O66 1.315 . S
C65 O67 1.279 . S
O66 Cd58 2.223 . S
O66 C65 1.315 . S
O67 Cd57 2.240 . S
O67 C65 1.279 . S
O68 Cd58 2.297 . S
O68 C63 1.247 . S
O69 Cd58 2.439 . S
O69 C63 1.208 . S
O70 Cd71 2.223 . S
O70 C78 1.315 . S
Cd71 O70 2.223 . S
Cd71 O74 2.297 . S
Cd71 O75 2.439 . S
Cd71 O81 2.240 1_554 S
Cd72 O73 2.240 . S
Cd72 O80 2.223 1_554 S
Cd72 O82 2.297 1_554 S
Cd72 O83 2.439 1_554 S
O73 Cd72 2.240 . S
O73 C78 1.279 1_545 S
O74 Cd71 2.297 . S
O74 C76 1.247 . S
O75 Cd71 2.439 . S
O75 C76 1.208 . S
C76 O74 1.247 . S
C76 O75 1.208 . S
C77 O82 1.247 . S
C77 O83 1.208 . S
C78 O70 1.315 . S
C78 O73 1.279 1_565 S
C79 O80 1.315 . S
C79 O81 1.279 1_545 S
O80 Cd72 2.223 1_556 S
O80 C79 1.315 . S
O81 Cd71 2.240 1_556 S
O81 C79 1.279 1_565 S
O82 Cd72 2.297 1_556 S
O82 C77 1.247 . S
O83 Cd72 2.439 1_556 S
O83 C77 1.208 . S
O84 Cd85 2.223 . S
O84 C92 1.315 . S
Cd85 O84 2.223 . S
Cd85 O88 2.297 . S
Cd85 O89 2.439 . S
Cd85 O95 2.240 . S
Cd86 O87 2.240 . S
Cd86 O94 2.223 . S
Cd86 O96 2.297 . S
Cd86 O97 2.439 . S
O87 Cd86 2.240 . S
O87 C92 1.279 . S
O88 Cd85 2.297 . S
O88 C90 1.247 . S
O89 Cd85 2.439 . S
O89 C90 1.208 . S
C90 O88 1.247 . S
C90 O89 1.208 . S
C91 O96 1.247 . S
C91 O97 1.208 . S
C92 O84 1.315 . S
C92 O87 1.279 . S
C93 O94 1.315 . S
C93 O95 1.279 . S
O94 Cd86 2.223 . S
O94 C93 1.315 . S
O95 Cd85 2.240 . S
O95 C93 1.279 . S
O96 Cd86 2.297 . S
O96 C91 1.247 . S
O97 Cd86 2.439 . S
O97 C91 1.208 . S
O98 Cd99 2.223 . S
O98 C106 1.315 . S
Cd99 O98 2.223 . S
Cd99 O102 2.297 1_565 S
Cd99 O103 2.439 1_565 S
Cd99 O109 2.240 . S
Cd100 O101 2.240 . S
Cd100 O108 2.223 . S
Cd100 O110 2.297 . S
Cd100 O111 2.439 . S
O101 Cd100 2.240 . S
O101 C106 1.279 . S
O102 Cd99 2.297 1_545 S
O102 C104 1.247 . S
O103 Cd99 2.439 1_545 S
O103 C104 1.208 . S
C104 O102 1.247 . S
C104 O103 1.208 . S
C105 O110 1.247 . S
C105 O111 1.208 . S
C106 O98 1.315 . S
C106 O101 1.279 . S
C107 O108 1.315 . S
C107 O109 1.279 . S
O108 Cd100 2.223 . S
O108 C107 1.315 . S
O109 Cd99 2.240 . S
O109 C107 1.279 . S
O110 Cd100 2.297 . S
O110 C105 1.247 . S
O111 Cd100 2.439 . S
O111 C105 1.208 . S
O112 Cd113 2.223 . S
O112 C120 1.315 . S
Cd113 O112 2.223 . S
Cd113 O116 2.297 . S
Cd113 O117 2.439 . S
Cd113 O123 2.240 . S
Cd114 O115 2.240 . S
Cd114 O122 2.223 . S
Cd114 O124 2.297 1_455 S
Cd114 O125 2.439 1_455 S
O115 Cd114 2.240 . S
O115 C120 1.279 . S
O116 Cd113 2.297 . S
O116 C118 1.247 . S
O117 Cd113 2.439 . S
O117 C118 1.208 . S
C118 O116 1.247 . S
C118 O117 1.208 . S
C119 O124 1.247 . S
C119 O125 1.208 . S
C120 O112 1.315 . S
C120 O115 1.279 . S
C121 O122 1.315 . S
C121 O123 1.279 . S
O122 Cd114 2.223 . S
O122 C121 1.315 . S
O123 Cd113 2.240 . S
O123 C121 1.279 . S
O124 Cd114 2.297 1_655 S
O124 C119 1.247 . S
O125 Cd114 2.439 1_655 S
O125 C119 1.208 . S
O126 Cd127 2.223 . S
O126 C134 1.315 . S
Cd127 O126 2.223 . S
Cd127 O130 2.297 . S
Cd127 O131 2.439 . S
Cd127 O137 2.240 . S
Cd128 O129 2.240 . S
Cd128 O136 2.223 . S
Cd128 O138 2.297 1_565 S
Cd128 O139 2.439 1_565 S
O129 Cd128 2.240 . S
O129 C134 1.279 . S
O130 Cd127 2.297 . S
O130 C132 1.247 . S
O131 Cd127 2.439 . S
O131 C132 1.208 . S
C132 O130 1.247 . S
C132 O131 1.208 . S
C133 O138 1.247 . S
C133 O139 1.208 . S
C134 O126 1.315 . S
C134 O129 1.279 . S
C135 O136 1.315 . S
C135 O137 1.279 . S
O136 Cd128 2.223 . S
O136 C135 1.315 . S
O137 Cd127 2.240 . S
O137 C135 1.279 . S
O138 Cd128 2.297 1_545 S
O138 C133 1.247 . S
O139 Cd128 2.439 1_545 S
O139 C133 1.208 . S
O140 Cd141 2.223 . S
O140 C148 1.315 . S
Cd141 O140 2.223 . S
Cd141 O144 2.297 . S
Cd141 O145 2.439 . S
Cd141 O151 2.240 . S
Cd142 O143 2.240 . S
Cd142 O150 2.223 . S
Cd142 O152 2.297 1_455 S
Cd142 O153 2.439 1_455 S
O143 Cd142 2.240 . S
O143 C148 1.279 . S
O144 Cd141 2.297 . S
O144 C146 1.247 . S
O145 Cd141 2.439 . S
O145 C146 1.208 . S
C146 O144 1.247 . S
C146 O145 1.208 . S
C147 O152 1.247 . S
C147 O153 1.208 . S
C148 O140 1.315 . S
C148 O143 1.279 . S
C149 O150 1.315 . S
C149 O151 1.279 . S
O150 Cd142 2.223 . S
O150 C149 1.315 . S
O151 Cd141 2.240 . S
O151 C149 1.279 . S
O152 Cd142 2.297 1_655 S
O152 C147 1.247 . S
O153 Cd142 2.439 1_655 S
O153 C147 1.208 . S
O154 Cd155 2.223 . S
O154 C162 1.315 . S
Cd155 O154 2.223 . S
Cd155 O158 2.297 . S
Cd155 O159 2.439 . S
Cd155 O165 2.240 . S
Cd156 O157 2.240 . S
Cd156 O164 2.223 . S
Cd156 O166 2.297 . S
Cd156 O167 2.439 . S
O157 Cd156 2.240 . S
O157 C162 1.279 . S
O158 Cd155 2.297 . S
O158 C160 1.247 . S
O159 Cd155 2.439 . S
O159 C160 1.208 . S
C160 O158 1.247 . S
C160 O159 1.208 . S
C161 O166 1.247 . S
C161 O167 1.208 . S
C162 O154 1.315 . S
C162 O157 1.279 . S
C163 O164 1.315 . S
C163 O165 1.279 . S
O164 Cd156 2.223 . S
O164 C163 1.315 . S
O165 Cd155 2.240 . S
O165 C163 1.279 . S
O166 Cd156 2.297 . S
O166 C161 1.247 . S
O167 Cd156 2.439 . S
O167 C161 1.208 . S
O168 Cd169 2.223 . S
O168 C176 1.315 . S
Cd169 O168 2.223 . S
Cd169 O172 2.297 . S
Cd169 O173 2.439 . S
Cd169 O179 2.240 . S
Cd170 O171 2.240 . S
Cd170 O178 2.223 . S
Cd170 O180 2.297 1_545 S
Cd170 O181 2.439 1_545 S
O171 Cd170 2.240 . S
O171 C176 1.279 . S
O172 Cd169 2.297 . S
O172 C174 1.247 . S
O173 Cd169 2.439 . S
O173 C174 1.208 . S
C174 O172 1.247 . S
C174 O173 1.208 . S
C175 O180 1.247 . S
C175 O181 1.208 . S
C176 O168 1.315 . S
C176 O171 1.279 . S
C177 O178 1.315 . S
C177 O179 1.279 . S
O178 Cd170 2.223 . S
O178 C177 1.315 . S
O179 Cd169 2.240 . S
O179 C177 1.279 . S
O180 Cd170 2.297 1_565 S
O180 C175 1.247 . S
O181 Cd170 2.439 1_565 S
O181 C175 1.208 . S
O182 Cd183 2.223 . S
O182 C190 1.315 . S
Cd183 O182 2.223 . S
Cd183 O186 2.297 . S
Cd183 O187 2.439 . S
Cd183 O193 2.240 . S
Cd184 O185 2.240 . S
Cd184 O192 2.223 . S
Cd184 O194 2.297 1_655 S
Cd184 O195 2.439 1_655 S
O185 Cd184 2.240 . S
O185 C190 1.279 . S
O186 Cd183 2.297 . S
O186 C188 1.247 . S
O187 Cd183 2.439 . S
O187 C188 1.208 . S
C188 O186 1.247 . S
C188 O187 1.208 . S
C189 O194 1.247 . S
C189 O195 1.208 . S
C190 O182 1.315 . S
C190 O185 1.279 . S
C191 O192 1.315 . S
C191 O193 1.279 . S
O192 Cd184 2.223 . S
O192 C191 1.315 . S
O193 Cd183 2.240 . S
O193 C191 1.279 . S
O194 Cd184 2.297 1_455 S
O194 C189 1.247 . S
O195 Cd184 2.439 1_455 S
O195 C189 1.208 . S
O196 Cd197 2.223 . S
O196 C204 1.315 . S
Cd197 O196 2.223 . S
Cd197 O200 2.297 . S
Cd197 O201 2.439 . S
Cd197 O207 2.240 . S
Cd198 O199 2.240 . S
Cd198 O206 2.223 . S
Cd198 O208 2.297 . S
Cd198 O209 2.439 . S
O199 Cd198 2.240 . S
O199 C204 1.279 . S
O200 Cd197 2.297 . S
O200 C202 1.247 . S
O201 Cd197 2.439 . S
O201 C202 1.208 . S
C202 O200 1.247 . S
C202 O201 1.208 . S
C203 O208 1.247 . S
C203 O209 1.208 . S
C204 O196 1.315 . S
C204 O199 1.279 . S
C205 O206 1.315 . S
C205 O207 1.279 . S
O206 Cd198 2.223 . S
O206 C205 1.315 . S
O207 Cd197 2.240 . S
O207 C205 1.279 . S
O208 Cd198 2.297 . S
O208 C203 1.247 . S
O209 Cd198 2.439 . S
O209 C203 1.208 . S
O210 Cd211 2.223 . S
O210 C218 1.315 . S
Cd211 O210 2.223 . S
Cd211 O214 2.297 . S
Cd211 O215 2.439 . S
Cd211 O221 2.240 . S
Cd212 O213 2.240 . S
Cd212 O220 2.223 . S
Cd212 O222 2.297 . S
Cd212 O223 2.439 . S
O213 Cd212 2.240 . S
O213 C218 1.279 . S
O214 Cd211 2.297 . S
O214 C216 1.247 . S
O215 Cd211 2.439 . S
O215 C216 1.208 . S
C216 O214 1.247 . S
C216 O215 1.208 . S
C217 O222 1.247 . S
C217 O223 1.208 . S
C218 O210 1.315 . S
C218 O213 1.279 . S
C219 O220 1.315 . S
C219 O221 1.279 . S
O220 Cd212 2.223 . S
O220 C219 1.315 . S
O221 Cd211 2.240 . S
O221 C219 1.279 . S
O222 Cd212 2.297 . S
O222 C217 1.247 . S
O223 Cd212 2.439 . S
O223 C217 1.208 . S
O224 Cd225 2.223 . S
O224 C232 1.315 . S
Cd225 O224 2.223 . S
Cd225 O228 2.297 1_545 S
Cd225 O229 2.439 1_545 S
Cd225 O235 2.240 . S
Cd226 O227 2.240 . S
Cd226 O234 2.223 . S
Cd226 O236 2.297 . S
Cd226 O237 2.439 . S
O227 Cd226 2.240 . S
O227 C232 1.279 . S
O228 Cd225 2.297 1_565 S
O228 C230 1.247 . S
O229 Cd225 2.439 1_565 S
O229 C230 1.208 . S
C230 O228 1.247 . S
C230 O229 1.208 . S
C231 O236 1.247 . S
C231 O237 1.208 . S
C232 O224 1.315 . S
C232 O227 1.279 . S
C233 O234 1.315 . S
C233 O235 1.279 . S
O234 Cd226 2.223 . S
O234 C233 1.315 . S
O235 Cd225 2.240 . S
O235 C233 1.279 . S
O236 Cd226 2.297 . S
O236 C231 1.247 . S
O237 Cd226 2.439 . S
O237 C231 1.208 . S
O238 Cd239 2.223 . S
O238 C246 1.315 . S
Cd239 O238 2.223 . S
Cd239 O242 2.297 . S
Cd239 O243 2.439 . S
Cd239 O249 2.240 . S
Cd240 O241 2.240 . S
Cd240 O248 2.223 . S
Cd240 O250 2.297 1_655 S
Cd240 O251 2.439 1_655 S
O241 Cd240 2.240 . S
O241 C246 1.279 . S
O242 Cd239 2.297 . S
O242 C244 1.247 . S
O243 Cd239 2.439 . S
O243 C244 1.208 . S
C244 O242 1.247 . S
C244 O243 1.208 . S
C245 O250 1.247 . S
C245 O251 1.208 . S
C246 O238 1.315 . S
C246 O241 1.279 . S
C247 O248 1.315 . S
C247 O249 1.279 . S
O248 Cd240 2.223 . S
O248 C247 1.315 . S
O249 Cd239 2.240 . S
O249 C247 1.279 . S
O250 Cd240 2.297 1_455 S
O250 C245 1.247 . S
O251 Cd240 2.439 1_455 S
O251 C245 1.208 . S
C252 C253 1.384 . S
C252 C254 1.384 . S
C252 H280 0.931 . S
C253 C252 1.384 . S
C253 C256 1.382 . S
C254 C252 1.384 . S
C254 C255 1.381 . S
C254 H281 0.930 . S
C255 C254 1.381 . S
C255 C257 1.381 . S
C255 C258 1.487 . S
C256 C253 1.382 . S
C256 C257 1.387 . S
C256 H282 0.930 . S
C257 C255 1.381 . S
C257 C256 1.387 . S
C257 H283 0.931 . S
C258 C255 1.487 . S
C258 C265 1.399 . S
C258 N296 1.343 . S
C259 C260 1.384 . S
C259 C261 1.384 . S
C259 H284 0.931 . S
C260 C259 1.384 . S
C260 C263 1.382 . S
C261 C259 1.384 . S
C261 C262 1.381 . S
C261 H285 0.930 . S
C262 C261 1.381 . S
C262 C264 1.381 . S
C262 C265 1.487 . S
C263 C260 1.382 . S
C263 C264 1.387 . S
C263 H286 0.930 . S
C264 C262 1.381 . S
C264 C263 1.387 . S
C264 H287 0.931 . S
C265 C258 1.399 . S
C265 C262 1.487 . S
C265 N297 1.343 . S
C266 C267 1.384 . S
C266 C268 1.384 . S
C266 H288 0.931 . S
C267 C266 1.384 . S
C267 C270 1.382 . S
C268 C266 1.384 . S
C268 C269 1.381 . S
C268 H289 0.930 . S
C269 C268 1.381 . S
C269 C271 1.381 . S
C269 C272 1.487 . S
C270 C267 1.382 . S
C270 C271 1.387 . S
C270 H290 0.930 . S
C271 C269 1.381 . S
C271 C270 1.387 . S
C271 H291 0.931 . S
C272 C269 1.487 . S
C272 C279 1.399 . S
C272 N297 1.343 . S
C273 C274 1.384 . S
C273 C275 1.384 . S
C273 H292 0.931 . S
C274 C273 1.384 . S
C274 C277 1.382 . S
C275 C273 1.384 . S
C275 C276 1.381 . S
C275 H293 0.930 . S
C276 C275 1.381 . S
C276 C278 1.381 . S
C276 C279 1.487 . S
C277 C274 1.382 . S
C277 C278 1.387 . S
C277 H294 0.930 . S
C278 C276 1.381 . S
C278 C277 1.387 . S
C278 H295 0.931 . S
C279 C272 1.399 . S
C279 C276 1.487 . S
C279 N296 1.343 . S
H280 C252 0.931 . S
H281 C254 0.930 . S
H282 C256 0.930 . S
H283 C257 0.931 . S
H284 C259 0.931 . S
H285 C261 0.930 . S
H286 C263 0.930 . S
H287 C264 0.931 . S
H288 C266 0.931 . S
H289 C268 0.930 . S
H290 C270 0.930 . S
H291 C271 0.931 . S
H292 C273 0.931 . S
H293 C275 0.930 . S
H294 C277 0.930 . S
H295 C278 0.931 . S
N296 C258 1.343 . S
N296 C279 1.343 . S
N297 C265 1.343 . S
N297 C272 1.343 . S
C298 C299 1.384 . S
C298 C300 1.384 . S
C298 H326 0.931 . S
C299 C298 1.384 . S
C299 C302 1.382 . S
C300 C298 1.384 . S
C300 C301 1.381 . S
C300 H327 0.930 . S
C301 C300 1.381 . S
C301 C303 1.381 . S
C301 C304 1.487 . S
C302 C299 1.382 . S
C302 C303 1.387 . S
C302 H328 0.930 . S
C303 C301 1.381 . S
C303 C302 1.387 . S
C303 H329 0.931 . S
C304 C301 1.487 . S
C304 C311 1.399 . S
C304 N342 1.343 . S
C305 C306 1.384 . S
C305 C307 1.384 . S
C305 H330 0.931 . S
C306 C305 1.384 . S
C306 C309 1.382 . S
C307 C305 1.384 . S
C307 C308 1.381 . S
C307 H331 0.930 . S
C308 C307 1.381 . S
C308 C310 1.381 . S
C308 C311 1.487 . S
C309 C306 1.382 . S
C309 C310 1.387 . S
C309 H332 0.930 . S
C310 C308 1.381 . S
C310 C309 1.387 . S
C310 H333 0.931 . S
C311 C304 1.399 . S
C311 C308 1.487 . S
C311 N343 1.343 . S
C312 C313 1.384 . S
C312 C314 1.384 . S
C312 H334 0.931 . S
C313 C312 1.384 . S
C313 C316 1.382 . S
C314 C312 1.384 . S
C314 C315 1.381 . S
C314 H335 0.930 . S
C315 C314 1.381 . S
C315 C317 1.381 . S
C315 C318 1.487 . S
C316 C313 1.382 . S
C316 C317 1.387 . S
C316 H336 0.930 . S
C317 C315 1.381 . S
C317 C316 1.387 . S
C317 H337 0.931 . S
C318 C315 1.487 . S
C318 C325 1.399 . S
C318 N343 1.343 . S
C319 C320 1.384 . S
C319 C321 1.384 . S
C319 H338 0.931 . S
C320 C319 1.384 . S
C320 C323 1.382 . S
C321 C319 1.384 . S
C321 C322 1.381 . S
C321 H339 0.930 . S
C322 C321 1.381 . S
C322 C324 1.381 . S
C322 C325 1.487 . S
C323 C320 1.382 . S
C323 C324 1.387 . S
C323 H340 0.930 . S
C324 C322 1.381 . S
C324 C323 1.387 . S
C324 H341 0.931 . S
C325 C318 1.399 . S
C325 C322 1.487 . S
C325 N342 1.343 . S
H326 C298 0.931 . S
H327 C300 0.930 . S
H328 C302 0.930 . S
H329 C303 0.931 . S
H330 C305 0.931 . S
H331 C307 0.930 . S
H332 C309 0.930 . S
H333 C310 0.931 . S
H334 C312 0.931 . S
H335 C314 0.930 . S
H336 C316 0.930 . S
H337 C317 0.931 . S
H338 C319 0.931 . S
H339 C321 0.930 . S
H340 C323 0.930 . S
H341 C324 0.931 . S
N342 C304 1.343 . S
N342 C325 1.343 . S
N343 C311 1.343 . S
N343 C318 1.343 . S
C344 C345 1.384 . S
C344 C346 1.384 . S
C344 H372 0.931 . S
C345 C344 1.384 . S
C345 C348 1.382 . S
C346 C344 1.384 . S
C346 C347 1.381 . S
C346 H373 0.930 . S
C347 C346 1.381 . S
C347 C349 1.381 . S
C347 C350 1.487 . S
C348 C345 1.382 . S
C348 C349 1.387 . S
C348 H374 0.930 . S
C349 C347 1.381 . S
C349 C348 1.387 . S
C349 H375 0.931 . S
C350 C347 1.487 . S
C350 C357 1.399 . S
C350 N388 1.343 . S
C351 C352 1.384 . S
C351 C353 1.384 . S
C351 H376 0.931 . S
C352 C351 1.384 . S
C352 C355 1.382 . S
C353 C351 1.384 . S
C353 C354 1.381 . S
C353 H377 0.930 . S
C354 C353 1.381 . S
C354 C356 1.381 . S
C354 C357 1.487 . S
C355 C352 1.382 . S
C355 C356 1.387 . S
C355 H378 0.930 . S
C356 C354 1.381 . S
C356 C355 1.387 . S
C356 H379 0.931 . S
C357 C350 1.399 . S
C357 C354 1.487 . S
C357 N389 1.343 . S
C358 C359 1.384 . S
C358 C360 1.384 . S
C358 H380 0.931 . S
C359 C358 1.384 . S
C359 C362 1.382 . S
C360 C358 1.384 . S
C360 C361 1.381 . S
C360 H381 0.930 . S
C361 C360 1.381 . S
C361 C363 1.381 . S
C361 C364 1.487 . S
C362 C359 1.382 . S
C362 C363 1.387 . S
C362 H382 0.930 . S
C363 C361 1.381 . S
C363 C362 1.387 . S
C363 H383 0.931 . S
C364 C361 1.487 . S
C364 C371 1.399 . S
C364 N389 1.343 . S
C365 C366 1.384 . S
C365 C367 1.384 . S
C365 H384 0.931 . S
C366 C365 1.384 . S
C366 C369 1.382 . S
C367 C365 1.384 . S
C367 C368 1.381 . S
C367 H385 0.930 . S
C368 C367 1.381 . S
C368 C370 1.381 . S
C368 C371 1.487 . S
C369 C366 1.382 . S
C369 C370 1.387 . S
C369 H386 0.930 . S
C370 C368 1.381 . S
C370 C369 1.387 . S
C370 H387 0.931 . S
C371 C364 1.399 . S
C371 C368 1.487 . S
C371 N388 1.343 . S
H372 C344 0.931 . S
H373 C346 0.930 . S
H374 C348 0.930 . S
H375 C349 0.931 . S
H376 C351 0.931 . S
H377 C353 0.930 . S
H378 C355 0.930 . S
H379 C356 0.931 . S
H380 C358 0.931 . S
H381 C360 0.930 . S
H382 C362 0.930 . S
H383 C363 0.931 . S
H384 C365 0.931 . S
H385 C367 0.930 . S
H386 C369 0.930 . S
H387 C370 0.931 . S
N388 C350 1.343 . S
N388 C371 1.343 . S
N389 C357 1.343 . S
N389 C364 1.343 . S
C390 C391 1.384 . S
C390 C392 1.384 . S
C390 H418 0.931 . S
C391 C390 1.384 . S
C391 C394 1.382 . S
C392 C390 1.384 . S
C392 C393 1.381 . S
C392 H419 0.930 . S
C393 C392 1.381 . S
C393 C395 1.381 . S
C393 C396 1.487 . S
C394 C391 1.382 . S
C394 C395 1.387 . S
C394 H420 0.930 . S
C395 C393 1.381 . S
C395 C394 1.387 . S
C395 H421 0.931 . S
C396 C393 1.487 . S
C396 C403 1.399 . S
C396 N434 1.343 . S
C397 C398 1.384 . S
C397 C399 1.384 . S
C397 H422 0.931 . S
C398 C397 1.384 . S
C398 C401 1.382 . S
C399 C397 1.384 . S
C399 C400 1.381 . S
C399 H423 0.930 . S
C400 C399 1.381 . S
C400 C402 1.381 . S
C400 C403 1.487 . S
C401 C398 1.382 . S
C401 C402 1.387 . S
C401 H424 0.930 . S
C402 C400 1.381 . S
C402 C401 1.387 . S
C402 H425 0.931 . S
C403 C396 1.399 . S
C403 C400 1.487 . S
C403 N435 1.343 . S
C404 C405 1.384 . S
C404 C406 1.384 . S
C404 H426 0.931 . S
C405 C404 1.384 . S
C405 C408 1.382 . S
C406 C404 1.384 . S
C406 C407 1.381 . S
C406 H427 0.930 . S
C407 C406 1.381 . S
C407 C409 1.381 . S
C407 C410 1.487 . S
C408 C405 1.382 . S
C408 C409 1.387 . S
C408 H428 0.930 . S
C409 C407 1.381 . S
C409 C408 1.387 . S
C409 H429 0.931 . S
C410 C407 1.487 . S
C410 C417 1.399 . S
C410 N435 1.343 . S
C411 C412 1.384 . S
C411 C413 1.384 . S
C411 H430 0.931 . S
C412 C411 1.384 . S
C412 C415 1.382 . S
C413 C411 1.384 . S
C413 C414 1.381 . S
C413 H431 0.930 . S
C414 C413 1.381 . S
C414 C416 1.381 . S
C414 C417 1.487 . S
C415 C412 1.382 . S
C415 C416 1.387 . S
C415 H432 0.930 . S
C416 C414 1.381 . S
C416 C415 1.387 . S
C416 H433 0.931 . S
C417 C410 1.399 . S
C417 C414 1.487 . S
C417 N434 1.343 . S
H418 C390 0.931 . S
H419 C392 0.930 . S
H420 C394 0.930 . S
H421 C395 0.931 . S
H422 C397 0.931 . S
H423 C399 0.930 . S
H424 C401 0.930 . S
H425 C402 0.931 . S
H426 C404 0.931 . S
H427 C406 0.930 . S
H428 C408 0.930 . S
H429 C409 0.931 . S
H430 C411 0.931 . S
H431 C413 0.930 . S
H432 C415 0.930 . S
H433 C416 0.931 . S
N434 C396 1.343 . S
N434 C417 1.343 . S
N435 C403 1.343 . S
N435 C410 1.343 . S
C436 C437 1.384 . S
C436 C438 1.384 . S
C436 H464 0.931 . S
C437 C436 1.384 . S
C437 C440 1.382 . S
C438 C436 1.384 . S
C438 C439 1.381 . S
C438 H465 0.930 . S
C439 C438 1.381 . S
C439 C441 1.381 . S
C439 C442 1.487 . S
C440 C437 1.382 . S
C440 C441 1.387 . S
C440 H466 0.930 . S
C441 C439 1.381 . S
C441 C440 1.387 . S
C441 H467 0.931 . S
C442 C439 1.487 . S
C442 C449 1.399 . S
C442 N480 1.343 . S
C443 C444 1.384 . S
C443 C445 1.384 . S
C443 H468 0.931 . S
C444 C443 1.384 . S
C444 C447 1.382 . S
C445 C443 1.384 . S
C445 C446 1.381 . S
C445 H469 0.930 . S
C446 C445 1.381 . S
C446 C448 1.381 . S
C446 C449 1.487 . S
C447 C444 1.382 . S
C447 C448 1.387 . S
C447 H470 0.930 . S
C448 C446 1.381 . S
C448 C447 1.387 . S
C448 H471 0.931 . S
C449 C442 1.399 . S
C449 C446 1.487 . S
C449 N481 1.343 . S
C450 C451 1.384 . S
C450 C452 1.384 . S
C450 H472 0.931 . S
C451 C450 1.384 . S
C451 C454 1.382 . S
C452 C450 1.384 . S
C452 C453 1.381 . S
C452 H473 0.930 . S
C453 C452 1.381 . S
C453 C455 1.381 . S
C453 C456 1.487 . S
C454 C451 1.382 . S
C454 C455 1.387 . S
C454 H474 0.930 . S
C455 C453 1.381 . S
C455 C454 1.387 . S
C455 H475 0.931 . S
C456 C453 1.487 . S
C456 C463 1.399 . S
C456 N481 1.343 . S
C457 C458 1.384 . S
C457 C459 1.384 . S
C457 H476 0.931 . S
C458 C457 1.384 . S
C458 C461 1.382 . S
C459 C457 1.384 . S
C459 C460 1.381 . S
C459 H477 0.930 . S
C460 C459 1.381 . S
C460 C462 1.381 . S
C460 C463 1.487 . S
C461 C458 1.382 . S
C461 C462 1.387 . S
C461 H478 0.930 . S
C462 C460 1.381 . S
C462 C461 1.387 . S
C462 H479 0.931 . S
C463 C456 1.399 . S
C463 C460 1.487 . S
C463 N480 1.343 . S
H464 C436 0.931 . S
H465 C438 0.930 . S
H466 C440 0.930 . S
H467 C441 0.931 . S
H468 C443 0.931 . S
H469 C445 0.930 . S
H470 C447 0.930 . S
H471 C448 0.931 . S
H472 C450 0.931 . S
H473 C452 0.930 . S
H474 C454 0.930 . S
H475 C455 0.931 . S
H476 C457 0.931 . S
H477 C459 0.930 . S
H478 C461 0.930 . S
H479 C462 0.931 . S
N480 C442 1.343 . S
N480 C463 1.343 . S
N481 C449 1.343 . S
N481 C456 1.343 . S
C482 C483 1.384 . S
C482 C484 1.384 . S
C482 H510 0.931 . S
C483 C482 1.384 . S
C483 C486 1.382 . S
C484 C482 1.384 . S
C484 C485 1.381 . S
C484 H511 0.930 . S
C485 C484 1.381 . S
C485 C487 1.381 . S
C485 C488 1.487 . S
C486 C483 1.382 . S
C486 C487 1.387 . S
C486 H512 0.930 . S
C487 C485 1.381 . S
C487 C486 1.387 . S
C487 H513 0.931 . S
C488 C485 1.487 . S
C488 C495 1.399 . S
C488 N526 1.343 . S
C489 C490 1.384 . S
C489 C491 1.384 . S
C489 H514 0.931 . S
C490 C489 1.384 . S
C490 C493 1.382 . S
C491 C489 1.384 . S
C491 C492 1.381 . S
C491 H515 0.930 . S
C492 C491 1.381 . S
C492 C494 1.381 . S
C492 C495 1.487 . S
C493 C490 1.382 . S
C493 C494 1.387 . S
C493 H516 0.930 . S
C494 C492 1.381 . S
C494 C493 1.387 . S
C494 H517 0.931 . S
C495 C488 1.399 . S
C495 C492 1.487 . S
C495 N527 1.343 . S
C496 C497 1.384 . S
C496 C498 1.384 . S
C496 H518 0.931 . S
C497 C496 1.384 . S
C497 C500 1.382 . S
C498 C496 1.384 . S
C498 C499 1.381 . S
C498 H519 0.930 . S
C499 C498 1.381 . S
C499 C501 1.381 . S
C499 C502 1.487 . S
C500 C497 1.382 . S
C500 C501 1.387 . S
C500 H520 0.930 . S
C501 C499 1.381 . S
C501 C500 1.387 . S
C501 H521 0.931 . S
C502 C499 1.487 . S
C502 C509 1.399 . S
C502 N527 1.343 . S
C503 C504 1.384 . S
C503 C505 1.384 . S
C503 H522 0.931 . S
C504 C503 1.384 . S
C504 C507 1.382 . S
C505 C503 1.384 . S
C505 C506 1.381 . S
C505 H523 0.930 . S
C506 C505 1.381 . S
C506 C508 1.381 . S
C506 C509 1.487 . S
C507 C504 1.382 . S
C507 C508 1.387 . S
C507 H524 0.930 . S
C508 C506 1.381 . S
C508 C507 1.387 . S
C508 H525 0.931 . S
C509 C502 1.399 . S
C509 C506 1.487 . S
C509 N526 1.343 . S
H510 C482 0.931 . S
H511 C484 0.930 . S
H512 C486 0.930 . S
H513 C487 0.931 . S
H514 C489 0.931 . S
H515 C491 0.930 . S
H516 C493 0.930 . S
H517 C494 0.931 . S
H518 C496 0.931 . S
H519 C498 0.930 . S
H520 C500 0.930 . S
H521 C501 0.931 . S
H522 C503 0.931 . S
H523 C505 0.930 . S
H524 C507 0.930 . S
H525 C508 0.931 . S
N526 C488 1.343 . S
N526 C509 1.343 . S
N527 C495 1.343 . S
N527 C502 1.343 . S
C528 C529 1.384 . S
C528 C530 1.384 . S
C528 H556 0.931 . S
C529 C528 1.384 . S
C529 C532 1.382 . S
C530 C528 1.384 . S
C530 C531 1.381 . S
C530 H557 0.930 . S
C531 C530 1.381 . S
C531 C533 1.381 . S
C531 C534 1.487 . S
C532 C529 1.382 . S
C532 C533 1.387 . S
C532 H558 0.930 . S
C533 C531 1.381 . S
C533 C532 1.387 . S
C533 H559 0.931 . S
C534 C531 1.487 . S
C534 C541 1.399 . S
C534 N572 1.343 . S
C535 C536 1.384 . S
C535 C537 1.384 . S
C535 H560 0.931 . S
C536 C535 1.384 . S
C536 C539 1.382 . S
C537 C535 1.384 . S
C537 C538 1.381 . S
C537 H561 0.930 . S
C538 C537 1.381 . S
C538 C540 1.381 . S
C538 C541 1.487 . S
C539 C536 1.382 . S
C539 C540 1.387 . S
C539 H562 0.930 . S
C540 C538 1.381 . S
C540 C539 1.387 . S
C540 H563 0.931 . S
C541 C534 1.399 . S
C541 C538 1.487 . S
C541 N573 1.343 . S
C542 C543 1.384 . S
C542 C544 1.384 . S
C542 H564 0.931 . S
C543 C542 1.384 . S
C543 C546 1.382 . S
C544 C542 1.384 . S
C544 C545 1.381 . S
C544 H565 0.930 . S
C545 C544 1.381 . S
C545 C547 1.381 . S
C545 C548 1.487 . S
C546 C543 1.382 . S
C546 C547 1.387 . S
C546 H566 0.930 . S
C547 C545 1.381 . S
C547 C546 1.387 . S
C547 H567 0.931 . S
C548 C545 1.487 . S
C548 C555 1.399 . S
C548 N573 1.343 . S
C549 C550 1.384 . S
C549 C551 1.384 . S
C549 H568 0.931 . S
C550 C549 1.384 . S
C550 C553 1.382 . S
C551 C549 1.384 . S
C551 C552 1.381 . S
C551 H569 0.930 . S
C552 C551 1.381 . S
C552 C554 1.381 . S
C552 C555 1.487 . S
C553 C550 1.382 . S
C553 C554 1.387 . S
C553 H570 0.930 . S
C554 C552 1.381 . S
C554 C553 1.387 . S
C554 H571 0.931 . S
C555 C548 1.399 . S
C555 C552 1.487 . S
C555 N572 1.343 . S
H556 C528 0.931 . S
H557 C530 0.930 . S
H558 C532 0.930 . S
H559 C533 0.931 . S
H560 C535 0.931 . S
H561 C537 0.930 . S
H562 C539 0.930 . S
H563 C540 0.931 . S
H564 C542 0.931 . S
H565 C544 0.930 . S
H566 C546 0.930 . S
H567 C547 0.931 . S
H568 C549 0.931 . S
H569 C551 0.930 . S
H570 C553 0.930 . S
H571 C554 0.931 . S
N572 C534 1.343 . S
N572 C555 1.343 . S
N573 C541 1.343 . S
N573 C548 1.343 . S
C574 C575 1.384 . S
C574 C576 1.384 . S
C574 H602 0.931 . S
C575 C574 1.384 . S
C575 C578 1.382 . S
C576 C574 1.384 . S
C576 C577 1.381 . S
C576 H603 0.930 . S
C577 C576 1.381 . S
C577 C579 1.381 . S
C577 C580 1.487 . S
C578 C575 1.382 . S
C578 C579 1.387 . S
C578 H604 0.930 . S
C579 C577 1.381 . S
C579 C578 1.387 . S
C579 H605 0.931 . S
C580 C577 1.487 . S
C580 C587 1.399 . S
C580 N618 1.343 . S
C581 C582 1.384 . S
C581 C583 1.384 . S
C581 H606 0.931 . S
C582 C581 1.384 . S
C582 C585 1.382 . S
C583 C581 1.384 . S
C583 C584 1.381 . S
C583 H607 0.930 . S
C584 C583 1.381 . S
C584 C586 1.381 . S
C584 C587 1.487 . S
C585 C582 1.382 . S
C585 C586 1.387 . S
C585 H608 0.930 . S
C586 C584 1.381 . S
C586 C585 1.387 . S
C586 H609 0.931 . S
C587 C580 1.399 . S
C587 C584 1.487 . S
C587 N619 1.343 . S
C588 C589 1.384 . S
C588 C590 1.384 . S
C588 H610 0.931 . S
C589 C588 1.384 . S
C589 C592 1.382 . S
C590 C588 1.384 . S
C590 C591 1.381 . S
C590 H611 0.930 . S
C591 C590 1.381 . S
C591 C593 1.381 . S
C591 C594 1.487 . S
C592 C589 1.382 . S
C592 C593 1.387 . S
C592 H612 0.930 . S
C593 C591 1.381 . S
C593 C592 1.387 . S
C593 H613 0.931 . S
C594 C591 1.487 . S
C594 C601 1.399 . S
C594 N619 1.343 . S
C595 C596 1.384 . S
C595 C597 1.384 . S
C595 H614 0.931 . S
C596 C595 1.384 . S
C596 C599 1.382 . S
C597 C595 1.384 . S
C597 C598 1.381 . S
C597 H615 0.930 . S
C598 C597 1.381 . S
C598 C600 1.381 . S
C598 C601 1.487 . S
C599 C596 1.382 . S
C599 C600 1.387 . S
C599 H616 0.930 . S
C600 C598 1.381 . S
C600 C599 1.387 . S
C600 H617 0.931 . S
C601 C594 1.399 . S
C601 C598 1.487 . S
C601 N618 1.343 . S
H602 C574 0.931 . S
H603 C576 0.930 . S
H604 C578 0.930 . S
H605 C579 0.931 . S
H606 C581 0.931 . S
H607 C583 0.930 . S
H608 C585 0.930 . S
H609 C586 0.931 . S
H610 C588 0.931 . S
H611 C590 0.930 . S
H612 C592 0.930 . S
H613 C593 0.931 . S
H614 C595 0.931 . S
H615 C597 0.930 . S
H616 C599 0.930 . S
H617 C600 0.931 . S
N618 C580 1.343 . S
N618 C601 1.343 . S
N619 C587 1.343 . S
N619 C594 1.343 . S
C620 C621 1.384 . S
C620 C622 1.384 . S
C620 H648 0.931 . S
C621 C620 1.384 . S
C621 C624 1.382 . S
C622 C620 1.384 . S
C622 C623 1.381 . S
C622 H649 0.930 . S
C623 C622 1.381 . S
C623 C625 1.381 . S
C623 C626 1.487 . S
C624 C621 1.382 . S
C624 C625 1.387 . S
C624 H650 0.930 . S
C625 C623 1.381 . S
C625 C624 1.387 . S
C625 H651 0.931 . S
C626 C623 1.487 . S
C626 C633 1.399 . S
C626 N664 1.343 . S
C627 C628 1.384 . S
C627 C629 1.384 . S
C627 H652 0.931 . S
C628 C627 1.384 . S
C628 C631 1.382 . S
C629 C627 1.384 . S
C629 C630 1.381 . S
C629 H653 0.930 . S
C630 C629 1.381 . S
C630 C632 1.381 . S
C630 C633 1.487 . S
C631 C628 1.382 . S
C631 C632 1.387 . S
C631 H654 0.930 . S
C632 C630 1.381 . S
C632 C631 1.387 . S
C632 H655 0.931 . S
C633 C626 1.399 . S
C633 C630 1.487 . S
C633 N665 1.343 . S
C634 C635 1.384 . S
C634 C636 1.384 . S
C634 H656 0.931 . S
C635 C634 1.384 . S
C635 C638 1.382 . S
C636 C634 1.384 . S
C636 C637 1.381 . S
C636 H657 0.930 . S
C637 C636 1.381 . S
C637 C639 1.381 . S
C637 C640 1.487 . S
C638 C635 1.382 . S
C638 C639 1.387 . S
C638 H658 0.930 . S
C639 C637 1.381 . S
C639 C638 1.387 . S
C639 H659 0.931 . S
C640 C637 1.487 . S
C640 C647 1.399 . S
C640 N665 1.343 . S
C641 C642 1.384 . S
C641 C643 1.384 . S
C641 H660 0.931 . S
C642 C641 1.384 . S
C642 C645 1.382 . S
C643 C641 1.384 . S
C643 C644 1.381 . S
C643 H661 0.930 . S
C644 C643 1.381 . S
C644 C646 1.381 . S
C644 C647 1.487 . S
C645 C642 1.382 . S
C645 C646 1.387 . S
C645 H662 0.930 . S
C646 C644 1.381 . S
C646 C645 1.387 . S
C646 H663 0.931 . S
C647 C640 1.399 . S
C647 C644 1.487 . S
C647 N664 1.343 . S
H648 C620 0.931 . S
H649 C622 0.930 . S
H650 C624 0.930 . S
H651 C625 0.931 . S
H652 C627 0.931 . S
H653 C629 0.930 . S
H654 C631 0.930 . S
H655 C632 0.931 . S
H656 C634 0.931 . S
H657 C636 0.930 . S
H658 C638 0.930 . S
H659 C639 0.931 . S
H660 C641 0.931 . S
H661 C643 0.930 . S
H662 C645 0.930 . S
H663 C646 0.931 . S
N664 C626 1.343 . S
N664 C647 1.343 . S
N665 C633 1.343 . S
N665 C640 1.343 . S
C666 C667 1.384 . S
C666 C668 1.384 . S
C666 H694 0.931 . S
C667 C666 1.384 . S
C667 C670 1.382 1_655 S
C668 C666 1.384 . S
C668 C669 1.385 . S
C668 H695 0.930 . S
C669 C668 1.385 . S
C669 C671 1.379 1_655 S
C669 C672 1.477 1_655 S
C670 C667 1.382 1_455 S
C670 C671 1.387 . S
C670 H696 0.930 . S
C671 C669 1.379 1_455 S
C671 C670 1.387 . S
C671 H697 0.931 . S
C672 C669 1.477 1_455 S
C672 C679 1.399 1_455 S
C672 N710 1.352 . S
C673 C674 1.384 . S
C673 C675 1.384 . S
C673 H698 0.931 . S
C674 C673 1.384 . S
C674 C677 1.382 1_455 S
C675 C673 1.384 . S
C675 C676 1.384 . S
C675 H699 0.930 . S
C676 C675 1.384 . S
C676 C678 1.375 1_455 S
C676 C679 1.495 1_455 S
C677 C674 1.382 1_655 S
C677 C678 1.387 . S
C677 H700 0.930 . S
C678 C676 1.375 1_655 S
C678 C677 1.387 . S
C678 H701 0.931 . S
C679 C672 1.399 1_655 S
C679 C676 1.495 1_655 S
C679 N711 1.365 . S
C680 C681 1.384 . S
C680 C682 1.384 . S
C680 H702 0.931 . S
C681 C680 1.384 . S
C681 C684 1.382 1_455 S
C682 C680 1.384 . S
C682 C683 1.398 . S
C682 H703 0.930 . S
C683 C682 1.398 . S
C683 C685 1.372 1_455 S
C683 C686 1.477 1_455 S
C684 C681 1.382 1_655 S
C684 C685 1.387 . S
C684 H704 0.930 . S
C685 C683 1.372 1_655 S
C685 C684 1.387 . S
C685 H705 0.931 . S
C686 C683 1.477 1_655 S
C686 C693 1.399 1_655 S
C686 N711 1.318 . S
C687 C688 1.384 . S
C687 C689 1.384 . S
C687 H706 0.931 . S
C688 C687 1.384 . S
C688 C691 1.382 1_655 S
C689 C687 1.384 . S
C689 C690 1.381 . S
C689 H707 0.930 . S
C690 C689 1.381 . S
C690 C692 1.383 1_655 S
C690 C693 1.495 1_655 S
C691 C688 1.382 1_455 S
C691 C692 1.387 . S
C691 H708 0.930 . S
C692 C690 1.383 1_455 S
C692 C691 1.387 . S
C692 H709 0.931 . S
C693 C686 1.399 1_455 S
C693 C690 1.495 1_455 S
C693 N710 1.334 . S
H694 C666 0.931 . S
H695 C668 0.930 . S
H696 C670 0.930 . S
H697 C671 0.931 . S
H698 C673 0.931 . S
H699 C675 0.930 . S
H700 C677 0.930 . S
H701 C678 0.931 . S
H702 C680 0.931 . S
H703 C682 0.930 . S
H704 C684 0.930 . S
H705 C685 0.931 . S
H706 C687 0.931 . S
H707 C689 0.930 . S
H708 C691 0.930 . S
H709 C692 0.931 . S
N710 C672 1.352 . S
N710 C693 1.334 . S
N711 C679 1.365 . S
N711 C686 1.318 . S
C712 C713 1.384 . S
C712 C714 1.384 . S
C712 H740 0.931 . S
C713 C712 1.384 . S
C713 C716 1.382 . S
C714 C712 1.384 . S
C714 C715 1.381 . S
C714 H741 0.930 . S
C715 C714 1.381 . S
C715 C717 1.381 . S
C715 C718 1.487 . S
C716 C713 1.382 . S
C716 C717 1.387 . S
C716 H742 0.930 . S
C717 C715 1.381 . S
C717 C716 1.387 . S
C717 H743 0.931 . S
C718 C715 1.487 . S
C718 C725 1.399 . S
C718 N756 1.343 . S
C719 C720 1.384 . S
C719 C721 1.384 . S
C719 H744 0.931 . S
C720 C719 1.384 . S
C720 C723 1.382 . S
C721 C719 1.384 . S
C721 C722 1.381 . S
C721 H745 0.930 . S
C722 C721 1.381 . S
C722 C724 1.381 . S
C722 C725 1.487 . S
C723 C720 1.382 . S
C723 C724 1.387 . S
C723 H746 0.930 . S
C724 C722 1.381 . S
C724 C723 1.387 . S
C724 H747 0.931 . S
C725 C718 1.399 . S
C725 C722 1.487 . S
C725 N757 1.343 . S
C726 C727 1.384 . S
C726 C728 1.384 . S
C726 H748 0.931 . S
C727 C726 1.384 . S
C727 C730 1.382 . S
C728 C726 1.384 . S
C728 C729 1.381 . S
C728 H749 0.930 . S
C729 C728 1.381 . S
C729 C731 1.381 . S
C729 C732 1.487 . S
C730 C727 1.382 . S
C730 C731 1.387 . S
C730 H750 0.930 . S
C731 C729 1.381 . S
C731 C730 1.387 . S
C731 H751 0.931 . S
C732 C729 1.487 . S
C732 C739 1.399 . S
C732 N757 1.343 . S
C733 C734 1.384 . S
C733 C735 1.384 . S
C733 H752 0.931 . S
C734 C733 1.384 . S
C734 C737 1.382 . S
C735 C733 1.384 . S
C735 C736 1.381 . S
C735 H753 0.930 . S
C736 C735 1.381 . S
C736 C738 1.381 . S
C736 C739 1.487 . S
C737 C734 1.382 . S
C737 C738 1.387 . S
C737 H754 0.930 . S
C738 C736 1.381 . S
C738 C737 1.387 . S
C738 H755 0.931 . S
C739 C732 1.399 . S
C739 C736 1.487 . S
C739 N756 1.343 . S
H740 C712 0.931 . S
H741 C714 0.930 . S
H742 C716 0.930 . S
H743 C717 0.931 . S
H744 C719 0.931 . S
H745 C721 0.930 . S
H746 C723 0.930 . S
H747 C724 0.931 . S
H748 C726 0.931 . S
H749 C728 0.930 . S
H750 C730 0.930 . S
H751 C731 0.931 . S
H752 C733 0.931 . S
H753 C735 0.930 . S
H754 C737 0.930 . S
H755 C738 0.931 . S
N756 C718 1.343 . S
N756 C739 1.343 . S
N757 C725 1.343 . S
N757 C732 1.343 . S
C758 C759 1.384 1_545 S
C758 C760 1.384 . S
C758 H786 0.931 . S
C759 C758 1.384 1_565 S
C759 C762 1.382 . S
C760 C758 1.384 . S
C760 C761 1.381 1_545 S
C760 H787 0.930 . S
C761 C760 1.381 1_565 S
C761 C763 1.381 . S
C761 C764 1.487 . S
C762 C759 1.382 . S
C762 C763 1.387 . S
C762 H788 0.930 . S
C763 C761 1.381 . S
C763 C762 1.387 . S
C763 H789 0.931 . S
C764 C761 1.487 . S
C764 C771 1.399 1_565 S
C764 N802 1.343 . S
C765 C766 1.384 1_565 S
C765 C767 1.384 . S
C765 H790 0.931 . S
C766 C765 1.384 1_545 S
C766 C769 1.382 . S
C767 C765 1.384 . S
C767 C768 1.381 1_565 S
C767 H791 0.930 . S
C768 C767 1.381 1_545 S
C768 C770 1.381 . S
C768 C771 1.487 . S
C769 C766 1.382 . S
C769 C770 1.387 . S
C769 H792 0.930 . S
C770 C768 1.381 . S
C770 C769 1.387 . S
C770 H793 0.931 . S
C771 C764 1.399 1_545 S
C771 C768 1.487 . S
C771 N803 1.343 . S
C772 C773 1.384 1_565 S
C772 C774 1.384 . S
C772 H794 0.931 . S
C773 C772 1.384 1_545 S
C773 C776 1.382 . S
C774 C772 1.384 . S
C774 C775 1.381 1_565 S
C774 H795 0.930 . S
C775 C774 1.381 1_545 S
C775 C777 1.381 . S
C775 C778 1.487 . S
C776 C773 1.382 . S
C776 C777 1.387 . S
C776 H796 0.930 . S
C777 C775 1.381 . S
C777 C776 1.387 . S
C777 H797 0.931 . S
C778 C775 1.487 . S
C778 C785 1.399 1_545 S
C778 N803 1.343 . S
C779 C780 1.384 1_545 S
C779 C781 1.384 . S
C779 H798 0.931 . S
C780 C779 1.384 1_565 S
C780 C783 1.382 . S
C781 C779 1.384 . S
C781 C782 1.381 1_545 S
C781 H799 0.930 . S
C782 C781 1.381 1_565 S
C782 C784 1.381 . S
C782 C785 1.487 . S
C783 C780 1.382 . S
C783 C784 1.387 . S
C783 H800 0.930 . S
C784 C782 1.381 . S
C784 C783 1.387 . S
C784 H801 0.931 . S
C785 C778 1.399 1_565 S
C785 C782 1.487 . S
C785 N802 1.343 . S
H786 C758 0.931 . S
H787 C760 0.930 . S
H788 C762 0.930 . S
H789 C763 0.931 . S
H790 C765 0.931 . S
H791 C767 0.930 . S
H792 C769 0.930 . S
H793 C770 0.931 . S
H794 C772 0.931 . S
H795 C774 0.930 . S
H796 C776 0.930 . S
H797 C777 0.931 . S
H798 C779 0.931 . S
H799 C781 0.930 . S
H800 C783 0.930 . S
H801 C784 0.931 . S
N802 C764 1.343 . S
N802 C785 1.343 . S
N803 C771 1.343 . S
N803 C778 1.343 . S
C804 C805 1.384 . S
C804 C806 1.384 . S
C804 H832 0.931 . S
C805 C804 1.384 . S
C805 C808 1.382 1_545 S
C806 C804 1.384 . S
C806 C807 1.384 . S
C806 H833 0.930 . S
C807 C806 1.384 . S
C807 C809 1.375 1_545 S
C807 C810 1.495 1_545 S
C808 C805 1.382 1_565 S
C808 C809 1.387 . S
C808 H834 0.930 . S
C809 C807 1.375 1_565 S
C809 C808 1.387 . S
C809 H835 0.931 . S
C810 C807 1.495 1_565 S
C810 C817 1.399 1_565 S
C810 N848 1.365 . S
C811 C812 1.384 . S
C811 C813 1.384 . S
C811 H836 0.931 . S
C812 C811 1.384 . S
C812 C815 1.382 1_565 S
C813 C811 1.384 . S
C813 C814 1.385 . S
C813 H837 0.930 . S
C814 C813 1.385 . S
C814 C816 1.379 1_565 S
C814 C817 1.477 1_565 S
C815 C812 1.382 1_545 S
C815 C816 1.387 . S
C815 H838 0.930 . S
C816 C814 1.379 1_545 S
C816 C815 1.387 . S
C816 H839 0.931 . S
C817 C810 1.399 1_545 S
C817 C814 1.477 1_545 S
C817 N849 1.352 . S
C818 C819 1.384 . S
C818 C820 1.384 . S
C818 H840 0.931 . S
C819 C818 1.384 . S
C819 C822 1.382 1_565 S
C820 C818 1.384 . S
C820 C821 1.381 . S
C820 H841 0.930 . S
C821 C820 1.381 . S
C821 C823 1.383 1_565 S
C821 C824 1.495 1_565 S
C822 C819 1.382 1_545 S
C822 C823 1.387 . S
C822 H842 0.930 . S
C823 C821 1.383 1_545 S
C823 C822 1.387 . S
C823 H843 0.931 . S
C824 C821 1.495 1_545 S
C824 C831 1.399 1_545 S
C824 N849 1.334 . S
C825 C826 1.384 . S
C825 C827 1.384 . S
C825 H844 0.931 . S
C826 C825 1.384 . S
C826 C829 1.382 1_545 S
C827 C825 1.384 . S
C827 C828 1.398 . S
C827 H845 0.930 . S
C828 C827 1.398 . S
C828 C830 1.372 1_545 S
C828 C831 1.477 1_545 S
C829 C826 1.382 1_565 S
C829 C830 1.387 . S
C829 H846 0.930 . S
C830 C828 1.372 1_565 S
C830 C829 1.387 . S
C830 H847 0.931 . S
C831 C824 1.399 1_565 S
C831 C828 1.477 1_565 S
C831 N848 1.318 . S
H832 C804 0.931 . S
H833 C806 0.930 . S
H834 C808 0.930 . S
H835 C809 0.931 . S
H836 C811 0.931 . S
H837 C813 0.930 . S
H838 C815 0.930 . S
H839 C816 0.931 . S
H840 C818 0.931 . S
H841 C820 0.930 . S
H842 C822 0.930 . S
H843 C823 0.931 . S
H844 C825 0.931 . S
H845 C827 0.930 . S
H846 C829 0.930 . S
H847 C830 0.931 . S
N848 C810 1.365 . S
N848 C831 1.318 . S
N849 C817 1.352 . S
N849 C824 1.334 . S
C850 C851 1.384 . S
C850 C852 1.384 . S
C850 H878 0.931 . S
C851 C850 1.384 . S
C851 C854 1.382 1_655 S
C852 C850 1.384 . S
C852 C853 1.402 . S
C852 H879 0.930 . S
C853 C852 1.402 . S
C853 C855 1.370 1_655 S
C853 C856 1.476 1_655 S
C854 C851 1.382 1_455 S
C854 C855 1.387 . S
C854 H880 0.930 . S
C855 C853 1.370 1_455 S
C855 C854 1.387 . S
C855 H881 0.931 . S
C856 C853 1.476 1_455 S
C856 C863 1.399 1_455 S
C856 N894 1.319 . S
C857 C858 1.384 . S
C857 C859 1.384 . S
C857 H882 0.931 . S
C858 C857 1.384 . S
C858 C861 1.382 1_455 S
C859 C857 1.384 . S
C859 C860 1.381 . S
C859 H883 0.930 . S
C860 C859 1.381 . S
C860 C862 1.381 1_455 S
C860 C863 1.495 1_455 S
C861 C858 1.382 1_655 S
C861 C862 1.387 . S
C861 H884 0.930 . S
C862 C860 1.381 1_655 S
C862 C861 1.387 . S
C862 H885 0.931 . S
C863 C856 1.399 1_655 S
C863 C860 1.495 1_655 S
C863 N895 1.335 . S
C864 C865 1.384 . S
C864 C866 1.384 . S
C864 H886 0.931 . S
C865 C864 1.384 . S
C865 C868 1.382 1_455 S
C866 C864 1.384 . S
C866 C867 1.389 . S
C866 H887 0.930 . S
C867 C866 1.389 . S
C867 C869 1.377 1_455 S
C867 C870 1.476 1_455 S
C868 C865 1.382 1_655 S
C868 C869 1.387 . S
C868 H888 0.930 . S
C869 C867 1.377 1_655 S
C869 C868 1.387 . S
C869 H889 0.931 . S
C870 C867 1.476 1_655 S
C870 C877 1.399 1_655 S
C870 N895 1.351 . S
C871 C872 1.384 . S
C871 C873 1.384 . S
C871 H890 0.931 . S
C872 C871 1.384 . S
C872 C875 1.382 1_655 S
C873 C871 1.384 . S
C873 C874 1.384 . S
C873 H891 0.930 . S
C874 C873 1.384 . S
C874 C876 1.373 1_655 S
C874 C877 1.495 1_655 S
C875 C872 1.382 1_455 S
C875 C876 1.387 . S
C875 H892 0.930 . S
C876 C874 1.373 1_455 S
C876 C875 1.387 . S
C876 H893 0.931 . S
C877 C870 1.399 1_455 S
C877 C874 1.495 1_455 S
C877 N894 1.365 . S
H878 C850 0.931 . S
H879 C852 0.930 . S
H880 C854 0.930 . S
H881 C855 0.931 . S
H882 C857 0.931 . S
H883 C859 0.930 . S
H884 C861 0.930 . S
H885 C862 0.931 . S
H886 C864 0.931 . S
H887 C866 0.930 . S
H888 C868 0.930 . S
H889 C869 0.931 . S
H890 C871 0.931 . S
H891 C873 0.930 . S
H892 C875 0.930 . S
H893 C876 0.931 . S
N894 C856 1.319 . S
N894 C877 1.365 . S
N895 C863 1.335 . S
N895 C870 1.351 . S
C896 C897 1.384 . S
C896 C898 1.384 . S
C896 H924 0.931 . S
C897 C896 1.384 . S
C897 C900 1.382 . S
C898 C896 1.384 . S
C898 C899 1.381 . S
C898 H925 0.930 . S
C899 C898 1.381 . S
C899 C901 1.381 . S
C899 C902 1.487 . S
C900 C897 1.382 . S
C900 C901 1.387 . S
C900 H926 0.930 . S
C901 C899 1.381 . S
C901 C900 1.387 . S
C901 H927 0.931 . S
C902 C899 1.487 . S
C902 C909 1.399 . S
C902 N940 1.343 . S
C903 C904 1.384 . S
C903 C905 1.384 . S
C903 H928 0.931 . S
C904 C903 1.384 . S
C904 C907 1.382 . S
C905 C903 1.384 . S
C905 C906 1.381 . S
C905 H929 0.930 . S
C906 C905 1.381 . S
C906 C908 1.381 . S
C906 C909 1.487 . S
C907 C904 1.382 . S
C907 C908 1.387 . S
C907 H930 0.930 . S
C908 C906 1.381 . S
C908 C907 1.387 . S
C908 H931 0.931 . S
C909 C902 1.399 . S
C909 C906 1.487 . S
C909 N941 1.343 . S
C910 C911 1.384 . S
C910 C912 1.384 . S
C910 H932 0.931 . S
C911 C910 1.384 . S
C911 C914 1.382 . S
C912 C910 1.384 . S
C912 C913 1.381 . S
C912 H933 0.930 . S
C913 C912 1.381 . S
C913 C915 1.381 . S
C913 C916 1.487 . S
C914 C911 1.382 . S
C914 C915 1.387 . S
C914 H934 0.930 . S
C915 C913 1.381 . S
C915 C914 1.387 . S
C915 H935 0.931 . S
C916 C913 1.487 . S
C916 C923 1.399 . S
C916 N941 1.343 . S
C917 C918 1.384 . S
C917 C919 1.384 . S
C917 H936 0.931 . S
C918 C917 1.384 . S
C918 C921 1.382 . S
C919 C917 1.384 . S
C919 C920 1.381 . S
C919 H937 0.930 . S
C920 C919 1.381 . S
C920 C922 1.381 . S
C920 C923 1.487 . S
C921 C918 1.382 . S
C921 C922 1.387 . S
C921 H938 0.930 . S
C922 C920 1.381 . S
C922 C921 1.387 . S
C922 H939 0.931 . S
C923 C916 1.399 . S
C923 C920 1.487 . S
C923 N940 1.343 . S
H924 C896 0.931 . S
H925 C898 0.930 . S
H926 C900 0.930 . S
H927 C901 0.931 . S
H928 C903 0.931 . S
H929 C905 0.930 . S
H930 C907 0.930 . S
H931 C908 0.931 . S
H932 C910 0.931 . S
H933 C912 0.930 . S
H934 C914 0.930 . S
H935 C915 0.931 . S
H936 C917 0.931 . S
H937 C919 0.930 . S
H938 C921 0.930 . S
H939 C922 0.931 . S
N940 C902 1.343 . S
N940 C923 1.343 . S
N941 C909 1.343 . S
N941 C916 1.343 . S
C942 C943 1.384 . S
C942 C944 1.384 . S
C942 H970 0.931 . S
C943 C942 1.384 . S
C943 C946 1.382 . S
C944 C942 1.384 . S
C944 C945 1.381 . S
C944 H971 0.930 . S
C945 C944 1.381 . S
C945 C947 1.381 . S
C945 C948 1.487 . S
C946 C943 1.382 . S
C946 C947 1.387 . S
C946 H972 0.930 . S
C947 C945 1.381 . S
C947 C946 1.387 . S
C947 H973 0.931 . S
C948 C945 1.487 . S
C948 C955 1.399 . S
C948 N986 1.343 . S
C949 C950 1.384 . S
C949 C951 1.384 . S
C949 H974 0.931 . S
C950 C949 1.384 . S
C950 C953 1.382 . S
C951 C949 1.384 . S
C951 C952 1.381 . S
C951 H975 0.930 . S
C952 C951 1.381 . S
C952 C954 1.381 . S
C952 C955 1.487 . S
C953 C950 1.382 . S
C953 C954 1.387 . S
C953 H976 0.930 . S
C954 C952 1.381 . S
C954 C953 1.387 . S
C954 H977 0.931 . S
C955 C948 1.399 . S
C955 C952 1.487 . S
C955 N987 1.343 . S
C956 C957 1.384 . S
C956 C958 1.384 . S
C956 H978 0.931 . S
C957 C956 1.384 . S
C957 C960 1.382 . S
C958 C956 1.384 . S
C958 C959 1.381 . S
C958 H979 0.930 . S
C959 C958 1.381 . S
C959 C961 1.381 . S
C959 C962 1.487 . S
C960 C957 1.382 . S
C960 C961 1.387 . S
C960 H980 0.930 . S
C961 C959 1.381 . S
C961 C960 1.387 . S
C961 H981 0.931 . S
C962 C959 1.487 . S
C962 C969 1.399 . S
C962 N987 1.343 . S
C963 C964 1.384 . S
C963 C965 1.384 . S
C963 H982 0.931 . S
C964 C963 1.384 . S
C964 C967 1.382 . S
C965 C963 1.384 . S
C965 C966 1.381 . S
C965 H983 0.930 . S
C966 C965 1.381 . S
C966 C968 1.381 . S
C966 C969 1.487 . S
C967 C964 1.382 . S
C967 C968 1.387 . S
C967 H984 0.930 . S
C968 C966 1.381 . S
C968 C967 1.387 . S
C968 H985 0.931 . S
C969 C962 1.399 . S
C969 C966 1.487 . S
C969 N986 1.343 . S
H970 C942 0.931 . S
H971 C944 0.930 . S
H972 C946 0.930 . S
H973 C947 0.931 . S
H974 C949 0.931 . S
H975 C951 0.930 . S
H976 C953 0.930 . S
H977 C954 0.931 . S
H978 C956 0.931 . S
H979 C958 0.930 . S
H980 C960 0.930 . S
H981 C961 0.931 . S
H982 C963 0.931 . S
H983 C965 0.930 . S
H984 C967 0.930 . S
H985 C968 0.931 . S
N986 C948 1.343 . S
N986 C969 1.343 . S
N987 C955 1.343 . S
N987 C962 1.343 . S
C988 C989 1.384 . S
C988 C990 1.384 . S
C988 H1016 0.931 . S
C989 C988 1.384 . S
C989 C992 1.382 . S
C990 C988 1.384 . S
C990 C991 1.381 . S
C990 H1017 0.930 . S
C991 C990 1.381 . S
C991 C993 1.381 . S
C991 C994 1.487 . S
C992 C989 1.382 . S
C992 C993 1.387 . S
C992 H1018 0.930 . S
C993 C991 1.381 . S
C993 C992 1.387 . S
C993 H1019 0.931 . S
C994 C991 1.487 . S
C994 C1001 1.399 . S
C994 N1032 1.343 . S
C995 C996 1.384 . S
C995 C997 1.384 . S
C995 H1020 0.931 . S
C996 C995 1.384 . S
C996 C999 1.382 . S
C997 C995 1.384 . S
C997 C998 1.381 . S
C997 H1021 0.930 . S
C998 C997 1.381 . S
C998 C1000 1.381 . S
C998 C1001 1.487 . S
C999 C996 1.382 . S
C999 C1000 1.387 . S
C999 H1022 0.930 . S
C1000 C998 1.381 . S
C1000 C999 1.387 . S
C1000 H1023 0.931 . S
C1001 C994 1.399 . S
C1001 C998 1.487 . S
C1001 N1033 1.343 . S
C1002 C1003 1.384 . S
C1002 C1004 1.384 . S
C1002 H1024 0.931 . S
C1003 C1002 1.384 . S
C1003 C1006 1.382 . S
C1004 C1002 1.384 . S
C1004 C1005 1.381 . S
C1004 H1025 0.930 . S
C1005 C1004 1.381 . S
C1005 C1007 1.381 . S
C1005 C1008 1.487 . S
C1006 C1003 1.382 . S
C1006 C1007 1.387 . S
C1006 H1026 0.930 . S
C1007 C1005 1.381 . S
C1007 C1006 1.387 . S
C1007 H1027 0.931 . S
C1008 C1005 1.487 . S
C1008 C1015 1.399 . S
C1008 N1033 1.343 . S
C1009 C1010 1.384 . S
C1009 C1011 1.384 . S
C1009 H1028 0.931 . S
C1010 C1009 1.384 . S
C1010 C1013 1.382 . S
C1011 C1009 1.384 . S
C1011 C1012 1.381 . S
C1011 H1029 0.930 . S
C1012 C1011 1.381 . S
C1012 C1014 1.381 . S
C1012 C1015 1.487 . S
C1013 C1010 1.382 . S
C1013 C1014 1.387 . S
C1013 H1030 0.930 . S
C1014 C1012 1.381 . S
C1014 C1013 1.387 . S
C1014 H1031 0.931 . S
C1015 C1008 1.399 . S
C1015 C1012 1.487 . S
C1015 N1032 1.343 . S
H1016 C988 0.931 . S
H1017 C990 0.930 . S
H1018 C992 0.930 . S
H1019 C993 0.931 . S
H1020 C995 0.931 . S
H1021 C997 0.930 . S
H1022 C999 0.930 . S
H1023 C1000 0.931 . S
H1024 C1002 0.931 . S
H1025 C1004 0.930 . S
H1026 C1006 0.930 . S
H1027 C1007 0.931 . S
H1028 C1009 0.931 . S
H1029 C1011 0.930 . S
H1030 C1013 0.930 . S
H1031 C1014 0.931 . S
N1032 C994 1.343 . S
N1032 C1015 1.343 . S
N1033 C1001 1.343 . S
N1033 C1008 1.343 . S
C1034 C1035 1.384 . S
C1034 C1036 1.384 . S
C1034 H1062 0.931 . S
C1035 C1034 1.384 . S
C1035 C1038 1.382 . S
C1036 C1034 1.384 . S
C1036 C1037 1.381 . S
C1036 H1063 0.930 . S
C1037 C1036 1.381 . S
C1037 C1039 1.381 . S
C1037 C1040 1.487 . S
C1038 C1035 1.382 . S
C1038 C1039 1.387 . S
C1038 H1064 0.930 . S
C1039 C1037 1.381 . S
C1039 C1038 1.387 . S
C1039 H1065 0.931 . S
C1040 C1037 1.487 . S
C1040 C1047 1.399 . S
C1040 N1078 1.343 . S
C1041 C1042 1.384 . S
C1041 C1043 1.384 . S
C1041 H1066 0.931 . S
C1042 C1041 1.384 . S
C1042 C1045 1.382 . S
C1043 C1041 1.384 . S
C1043 C1044 1.381 . S
C1043 H1067 0.930 . S
C1044 C1043 1.381 . S
C1044 C1046 1.381 . S
C1044 C1047 1.487 . S
C1045 C1042 1.382 . S
C1045 C1046 1.387 . S
C1045 H1068 0.930 . S
C1046 C1044 1.381 . S
C1046 C1045 1.387 . S
C1046 H1069 0.931 . S
C1047 C1040 1.399 . S
C1047 C1044 1.487 . S
C1047 N1079 1.343 . S
C1048 C1049 1.384 . S
C1048 C1050 1.384 . S
C1048 H1070 0.931 . S
C1049 C1048 1.384 . S
C1049 C1052 1.382 . S
C1050 C1048 1.384 . S
C1050 C1051 1.381 . S
C1050 H1071 0.930 . S
C1051 C1050 1.381 . S
C1051 C1053 1.381 . S
C1051 C1054 1.487 . S
C1052 C1049 1.382 . S
C1052 C1053 1.387 . S
C1052 H1072 0.930 . S
C1053 C1051 1.381 . S
C1053 C1052 1.387 . S
C1053 H1073 0.931 . S
C1054 C1051 1.487 . S
C1054 C1061 1.399 . S
C1054 N1079 1.343 . S
C1055 C1056 1.384 . S
C1055 C1057 1.384 . S
C1055 H1074 0.931 . S
C1056 C1055 1.384 . S
C1056 C1059 1.382 . S
C1057 C1055 1.384 . S
C1057 C1058 1.381 . S
C1057 H1075 0.930 . S
C1058 C1057 1.381 . S
C1058 C1060 1.381 . S
C1058 C1061 1.487 . S
C1059 C1056 1.382 . S
C1059 C1060 1.387 . S
C1059 H1076 0.930 . S
C1060 C1058 1.381 . S
C1060 C1059 1.387 . S
C1060 H1077 0.931 . S
C1061 C1054 1.399 . S
C1061 C1058 1.487 . S
C1061 N1078 1.343 . S
H1062 C1034 0.931 . S
H1063 C1036 0.930 . S
H1064 C1038 0.930 . S
H1065 C1039 0.931 . S
H1066 C1041 0.931 . S
H1067 C1043 0.930 . S
H1068 C1045 0.930 . S
H1069 C1046 0.931 . S
H1070 C1048 0.931 . S
H1071 C1050 0.930 . S
H1072 C1052 0.930 . S
H1073 C1053 0.931 . S
H1074 C1055 0.931 . S
H1075 C1057 0.930 . S
H1076 C1059 0.930 . S
H1077 C1060 0.931 . S
N1078 C1040 1.343 . S
N1078 C1061 1.343 . S
N1079 C1047 1.343 . S
N1079 C1054 1.343 . S
C1080 C1081 1.387 . S
C1080 H1084 0.950 . S
C1080 C1089 1.390 . S
C1081 C1080 1.387 . S
C1081 C1083 1.387 1_655 S
H1082 C1089 0.950 . S
C1083 C1081 1.387 1_455 S
C1083 C1085 1.390 . S
C1083 H1087 0.950 . S
H1084 C1080 0.950 . S
C1085 C1083 1.390 . S
C1085 C1086 1.387 1_455 S
C1085 H1088 0.950 . S
C1086 C1085 1.387 1_655 S
C1086 C1089 1.387 . S
H1087 C1083 0.950 . S
H1088 C1085 0.950 . S
C1089 C1080 1.390 . S
C1089 H1082 0.950 . S
C1089 C1086 1.387 . S
C1090 C1091 1.387 . S
C1090 H1094 0.950 . S
C1090 C1099 1.390 . S
C1091 C1090 1.387 . S
C1091 C1093 1.387 . S
H1092 C1099 0.950 . S
C1093 C1091 1.387 . S
C1093 C1095 1.390 . S
C1093 H1097 0.950 . S
H1094 C1090 0.950 . S
C1095 C1093 1.390 . S
C1095 C1096 1.387 . S
C1095 H1098 0.950 . S
C1096 C1095 1.387 . S
C1096 C1099 1.387 . S
H1097 C1093 0.950 . S
H1098 C1095 0.950 . S
C1099 C1090 1.390 . S
C1099 H1092 0.950 . S
C1099 C1096 1.387 . S
C1100 C1101 1.387 . S
C1100 H1104 0.950 . S
C1100 C1109 1.390 . S
C1101 C1100 1.387 . S
C1101 C1103 1.387 1_545 S
H1102 C1109 0.950 . S
C1103 C1101 1.387 1_565 S
C1103 C1105 1.390 . S
C1103 H1107 0.950 . S
H1104 C1100 0.950 . S
C1105 C1103 1.390 . S
C1105 C1106 1.387 1_565 S
C1105 H1108 0.950 . S
C1106 C1105 1.387 1_545 S
C1106 C1109 1.387 . S
H1107 C1103 0.950 . S
H1108 C1105 0.950 . S
C1109 C1100 1.390 . S
C1109 H1102 0.950 . S
C1109 C1106 1.387 . S
C1110 C1111 1.387 1_545 S
C1110 H1114 0.950 . S
C1110 C1119 1.390 . S
C1111 C1110 1.387 1_565 S
C1111 C1113 1.387 . S
H1112 C1119 0.950 . S
C1113 C1111 1.387 . S
C1113 C1115 1.390 . S
C1113 H1117 0.950 . S
H1114 C1110 0.950 . S
C1115 C1113 1.390 . S
C1115 C1116 1.387 . S
C1115 H1118 0.950 . S
C1116 C1115 1.387 . S
C1116 C1119 1.387 1_565 S
H1117 C1113 0.950 . S
H1118 C1115 0.950 . S
C1119 C1110 1.390 . S
C1119 H1112 0.950 . S
C1119 C1116 1.387 1_545 S
C1120 C1121 1.387 1_655 S
C1120 H1124 0.950 . S
C1120 C1129 1.390 . S
C1121 C1120 1.387 1_455 S
C1121 C1123 1.387 . S
H1122 C1129 0.950 . S
C1123 C1121 1.387 . S
C1123 C1125 1.390 . S
C1123 H1127 0.950 . S
H1124 C1120 0.950 . S
C1125 C1123 1.390 . S
C1125 C1126 1.387 . S
C1125 H1128 0.950 . S
C1126 C1125 1.387 . S
C1126 C1129 1.387 1_455 S
H1127 C1123 0.950 . S
H1128 C1125 0.950 . S
C1129 C1120 1.390 . S
C1129 H1122 0.950 . S
C1129 C1126 1.387 1_655 S
C1130 C1131 1.387 . S
C1130 H1134 0.950 . S
C1130 C1139 1.390 . S
C1131 C1130 1.387 . S
C1131 C1133 1.387 . S
H1132 C1139 0.950 . S
C1133 C1131 1.387 . S
C1133 C1135 1.390 . S
C1133 H1137 0.950 . S
H1134 C1130 0.950 . S
C1135 C1133 1.390 . S
C1135 C1136 1.387 . S
C1135 H1138 0.950 . S
C1136 C1135 1.387 . S
C1136 C1139 1.387 . S
H1137 C1133 0.950 . S
H1138 C1135 0.950 . S
C1139 C1130 1.390 . S
C1139 H1132 0.950 . S
C1139 C1136 1.387 . S
C1140 C1141 1.387 1_655 S
C1140 H1144 0.950 . S
C1140 C1149 1.390 . S
C1141 C1140 1.387 1_455 S
C1141 C1143 1.387 . S
H1142 C1149 0.950 . S
C1143 C1141 1.387 . S
C1143 C1145 1.390 . S
C1143 H1147 0.950 . S
H1144 C1140 0.950 . S
C1145 C1143 1.390 . S
C1145 C1146 1.387 . S
C1145 H1148 0.950 . S
C1146 C1145 1.387 . S
C1146 C1149 1.387 1_455 S
H1147 C1143 0.950 . S
H1148 C1145 0.950 . S
C1149 C1140 1.390 . S
C1149 H1142 0.950 . S
C1149 C1146 1.387 1_655 S
C1150 C1151 1.387 . S
C1150 H1154 0.950 . S
C1150 C1159 1.390 . S
C1151 C1150 1.387 . S
C1151 C1153 1.387 . S
H1152 C1159 0.950 . S
C1153 C1151 1.387 . S
C1153 C1155 1.390 . S
C1153 H1157 0.950 . S
H1154 C1150 0.950 . S
C1155 C1153 1.390 . S
C1155 C1156 1.387 . S
C1155 H1158 0.950 . S
C1156 C1155 1.387 . S
C1156 C1159 1.387 . S
H1157 C1153 0.950 . S
H1158 C1155 0.950 . S
C1159 C1150 1.390 . S
C1159 H1152 0.950 . S
C1159 C1156 1.387 . S
C1160 C1161 1.387 . S
C1160 H1164 0.950 . S
C1160 C1169 1.390 . S
C1161 C1160 1.387 . S
C1161 C1163 1.387 1_565 S
H1162 C1169 0.950 . S
C1163 C1161 1.387 1_545 S
C1163 C1165 1.390 . S
C1163 H1167 0.950 . S
H1164 C1160 0.950 . S
C1165 C1163 1.390 . S
C1165 C1166 1.387 1_545 S
C1165 H1168 0.950 . S
C1166 C1165 1.387 1_565 S
C1166 C1169 1.387 . S
H1167 C1163 0.950 . S
H1168 C1165 0.950 . S
C1169 C1160 1.390 . S
C1169 H1162 0.950 . S
C1169 C1166 1.387 . S
C1170 C1171 1.387 . S
C1170 H1174 0.950 . S
C1170 C1179 1.390 . S
C1171 C1170 1.387 . S
C1171 C1173 1.387 1_545 S
H1172 C1179 0.950 . S
C1173 C1171 1.387 1_565 S
C1173 C1175 1.390 . S
C1173 H1177 0.950 . S
H1174 C1170 0.950 . S
C1175 C1173 1.390 . S
C1175 C1176 1.387 1_565 S
C1175 H1178 0.950 . S
C1176 C1175 1.387 1_545 S
C1176 C1179 1.387 . S
H1177 C1173 0.950 . S
H1178 C1175 0.950 . S
C1179 C1170 1.390 . S
C1179 H1172 0.950 . S
C1179 C1176 1.387 . S
C1180 C1181 1.387 . S
C1180 H1184 0.950 . S
C1180 C1189 1.390 . S
C1181 C1180 1.387 . S
C1181 C1183 1.387 1_655 S
H1182 C1189 0.950 . S
C1183 C1181 1.387 1_455 S
C1183 C1185 1.390 . S
C1183 H1187 0.950 . S
H1184 C1180 0.950 . S
C1185 C1183 1.390 . S
C1185 C1186 1.387 1_455 S
C1185 H1188 0.950 . S
C1186 C1185 1.387 1_655 S
C1186 C1189 1.387 . S
H1187 C1183 0.950 . S
H1188 C1185 0.950 . S
C1189 C1180 1.390 . S
C1189 H1182 0.950 . S
C1189 C1186 1.387 . S
C1190 C1191 1.387 . S
C1190 H1194 0.950 . S
C1190 C1199 1.390 . S
C1191 C1190 1.387 . S
C1191 C1193 1.387 . S
H1192 C1199 0.950 . S
C1193 C1191 1.387 . S
C1193 C1195 1.390 . S
C1193 H1197 0.950 . S
H1194 C1190 0.950 . S
C1195 C1193 1.390 . S
C1195 C1196 1.387 . S
C1195 H1198 0.950 . S
C1196 C1195 1.387 . S
C1196 C1199 1.387 . S
H1197 C1193 0.950 . S
H1198 C1195 0.950 . S
C1199 C1190 1.390 . S
C1199 H1192 0.950 . S
C1199 C1196 1.387 . S
C1200 C1201 1.387 . S
C1200 H1204 0.950 . S
C1200 C1209 1.390 . S
C1201 C1200 1.387 . S
C1201 C1203 1.387 . S
H1202 C1209 0.950 . S
C1203 C1201 1.387 . S
C1203 C1205 1.390 . S
C1203 H1207 0.950 . S
H1204 C1200 0.950 . S
C1205 C1203 1.390 . S
C1205 C1206 1.387 . S
C1205 H1208 0.950 . S
C1206 C1205 1.387 . S
C1206 C1209 1.387 . S
H1207 C1203 0.950 . S
H1208 C1205 0.950 . S
C1209 C1200 1.390 . S
C1209 H1202 0.950 . S
C1209 C1206 1.387 . S
C1210 C1211 1.387 . S
C1210 H1214 0.950 . S
C1210 C1219 1.390 . S
C1211 C1210 1.387 . S
C1211 C1213 1.387 . S
H1212 C1219 0.950 . S
C1213 C1211 1.387 . S
C1213 C1215 1.390 . S
C1213 H1217 0.950 . S
H1214 C1210 0.950 . S
C1215 C1213 1.390 . S
C1215 C1216 1.387 . S
C1215 H1218 0.950 . S
C1216 C1215 1.387 . S
C1216 C1219 1.387 . S
H1217 C1213 0.950 . S
H1218 C1215 0.950 . S
C1219 C1210 1.390 . S
C1219 H1212 0.950 . S
C1219 C1216 1.387 . S
C1220 C1221 1.387 . S
C1220 H1224 0.950 . S
C1220 C1229 1.390 . S
C1221 C1220 1.387 . S
C1221 C1223 1.387 . S
H1222 C1229 0.950 . S
C1223 C1221 1.387 . S
C1223 C1225 1.390 . S
C1223 H1227 0.950 . S
H1224 C1220 0.950 . S
C1225 C1223 1.390 . S
C1225 C1226 1.387 . S
C1225 H1228 0.950 . S
C1226 C1225 1.387 . S
C1226 C1229 1.387 . S
H1227 C1223 0.950 . S
H1228 C1225 0.950 . S
C1229 C1220 1.390 . S
C1229 H1222 0.950 . S
C1229 C1226 1.387 . S
C1230 C1231 1.387 . S
C1230 H1234 0.950 . S
C1230 C1239 1.390 . S
C1231 C1230 1.387 . S
C1231 C1233 1.387 . S
H1232 C1239 0.950 . S
C1233 C1231 1.387 . S
C1233 C1235 1.390 . S
C1233 H1237 0.950 . S
H1234 C1230 0.950 . S
C1235 C1233 1.390 . S
C1235 C1236 1.387 . S
C1235 H1238 0.950 . S
C1236 C1235 1.387 . S
C1236 C1239 1.387 . S
H1237 C1233 0.950 . S
H1238 C1235 0.950 . S
C1239 C1230 1.390 . S
C1239 H1232 0.950 . S
C1239 C1236 1.387 . S
C1240 C1241 1.387 . S
C1240 H1244 0.950 . S
C1240 C1249 1.390 . S
C1241 C1240 1.387 . S
C1241 C1243 1.387 . S
H1242 C1249 0.950 . S
C1243 C1241 1.387 . S
C1243 C1245 1.390 . S
C1243 H1247 0.950 . S
H1244 C1240 0.950 . S
C1245 C1243 1.390 . S
C1245 C1246 1.387 . S
C1245 H1248 0.950 . S
C1246 C1245 1.387 . S
C1246 C1249 1.387 . S
H1247 C1243 0.950 . S
H1248 C1245 0.950 . S
C1249 C1240 1.390 . S
C1249 H1242 0.950 . S
C1249 C1246 1.387 . S
C1250 C1251 1.387 . S
C1250 H1254 0.950 . S
C1250 C1259 1.390 . S
C1251 C1250 1.387 . S
C1251 C1253 1.387 . S
H1252 C1259 0.950 . S
C1253 C1251 1.387 . S
C1253 C1255 1.390 . S
C1253 H1257 0.950 . S
H1254 C1250 0.950 . S
C1255 C1253 1.390 . S
C1255 C1256 1.387 . S
C1255 H1258 0.950 . S
C1256 C1255 1.387 . S
C1256 C1259 1.387 . S
H1257 C1253 0.950 . S
H1258 C1255 0.950 . S
C1259 C1250 1.390 . S
C1259 H1252 0.950 . S
C1259 C1256 1.387 . S
C1260 C1261 1.387 . S
C1260 H1264 0.950 . S
C1260 C1269 1.390 . S
C1261 C1260 1.387 . S
C1261 C1263 1.387 . S
H1262 C1269 0.950 . S
C1263 C1261 1.387 . S
C1263 C1265 1.390 . S
C1263 H1267 0.950 . S
H1264 C1260 0.950 . S
C1265 C1263 1.390 . S
C1265 C1266 1.387 . S
C1265 H1268 0.950 . S
C1266 C1265 1.387 . S
C1266 C1269 1.387 . S
H1267 C1263 0.950 . S
H1268 C1265 0.950 . S
C1269 C1260 1.390 . S
C1269 H1262 0.950 . S
C1269 C1266 1.387 . S
C1270 C1271 1.387 . S
C1270 H1274 0.950 . S
C1270 C1279 1.390 . S
C1271 C1270 1.387 . S
C1271 C1273 1.387 . S
H1272 C1279 0.950 . S
C1273 C1271 1.387 . S
C1273 C1275 1.390 . S
C1273 H1277 0.950 . S
H1274 C1270 0.950 . S
C1275 C1273 1.390 . S
C1275 C1276 1.387 . S
C1275 H1278 0.950 . S
C1276 C1275 1.387 . S
C1276 C1279 1.387 . S
H1277 C1273 0.950 . S
H1278 C1275 0.950 . S
C1279 C1270 1.390 . S
C1279 H1272 0.950 . S
C1279 C1276 1.387 . S
C1280 C1281 1.387 . S
C1280 H1284 0.950 . S
C1280 C1289 1.390 . S
C1281 C1280 1.387 . S
C1281 C1283 1.387 . S
H1282 C1289 0.950 . S
C1283 C1281 1.387 . S
C1283 C1285 1.390 . S
C1283 H1287 0.950 . S
H1284 C1280 0.950 . S
C1285 C1283 1.390 . S
C1285 C1286 1.387 . S
C1285 H1288 0.950 . S
C1286 C1285 1.387 . S
C1286 C1289 1.387 . S
H1287 C1283 0.950 . S
H1288 C1285 0.950 . S
C1289 C1280 1.390 . S
C1289 H1282 0.950 . S
C1289 C1286 1.387 . S
C1290 C1291 1.387 . S
C1290 H1294 0.950 . S
C1290 C1299 1.390 . S
C1291 C1290 1.387 . S
C1291 C1293 1.387 . S
H1292 C1299 0.950 . S
C1293 C1291 1.387 . S
C1293 C1295 1.390 . S
C1293 H1297 0.950 . S
H1294 C1290 0.950 . S
C1295 C1293 1.390 . S
C1295 C1296 1.387 . S
C1295 H1298 0.950 . S
C1296 C1295 1.387 . S
C1296 C1299 1.387 . S
H1297 C1293 0.950 . S
H1298 C1295 0.950 . S
C1299 C1290 1.390 . S
C1299 H1292 0.950 . S
C1299 C1296 1.387 . S
C1300 C1301 1.387 . S
C1300 H1304 0.950 . S
C1300 C1309 1.390 . S
C1301 C1300 1.387 . S
C1301 C1303 1.387 . S
H1302 C1309 0.950 . S
C1303 C1301 1.387 . S
C1303 C1305 1.390 . S
C1303 H1307 0.950 . S
H1304 C1300 0.950 . S
C1305 C1303 1.390 . S
C1305 C1306 1.387 . S
C1305 H1308 0.950 . S
C1306 C1305 1.387 . S
C1306 C1309 1.387 . S
H1307 C1303 0.950 . S
H1308 C1305 0.950 . S
C1309 C1300 1.390 . S
C1309 H1302 0.950 . S
C1309 C1306 1.387 . S
C1310 C1311 1.387 . S
C1310 H1314 0.950 . S
C1310 C1319 1.390 . S
C1311 C1310 1.387 . S
C1311 C1313 1.387 . S
H1312 C1319 0.950 . S
C1313 C1311 1.387 . S
C1313 C1315 1.390 . S
C1313 H1317 0.950 . S
H1314 C1310 0.950 . S
C1315 C1313 1.390 . S
C1315 C1316 1.387 . S
C1315 H1318 0.950 . S
C1316 C1315 1.387 . S
C1316 C1319 1.387 . S
H1317 C1313 0.950 . S
H1318 C1315 0.950 . S
C1319 C1310 1.390 . S
C1319 H1312 0.950 . S
C1319 C1316 1.387 . S
C1320 C1321 1.387 . S
C1320 H1324 0.950 . S
C1320 C1329 1.390 . S
C1321 C1320 1.387 . S
C1321 C1323 1.387 . S
H1322 C1329 0.950 . S
C1323 C1321 1.387 . S
C1323 C1325 1.390 . S
C1323 H1327 0.950 . S
H1324 C1320 0.950 . S
C1325 C1323 1.390 . S
C1325 C1326 1.387 . S
C1325 H1328 0.950 . S
C1326 C1325 1.387 . S
C1326 C1329 1.387 . S
H1327 C1323 0.950 . S
H1328 C1325 0.950 . S
C1329 C1320 1.390 . S
C1329 H1322 0.950 . S
C1329 C1326 1.387 . S
C1330 C1331 1.387 . S
C1330 H1334 0.950 . S
C1330 C1339 1.390 . S
C1331 C1330 1.387 . S
C1331 C1333 1.387 . S
H1332 C1339 0.950 . S
C1333 C1331 1.387 . S
C1333 C1335 1.390 . S
C1333 H1337 0.950 . S
H1334 C1330 0.950 . S
C1335 C1333 1.390 . S
C1335 C1336 1.387 . S
C1335 H1338 0.950 . S
C1336 C1335 1.387 . S
C1336 C1339 1.387 . S
H1337 C1333 0.950 . S
H1338 C1335 0.950 . S
C1339 C1330 1.390 . S
C1339 H1332 0.950 . S
C1339 C1336 1.387 . S
C1340 C1341 1.387 . S
C1340 H1344 0.950 . S
C1340 C1349 1.390 . S
C1341 C1340 1.387 . S
C1341 C1343 1.387 . S
H1342 C1349 0.950 . S
C1343 C1341 1.387 . S
C1343 C1345 1.390 . S
C1343 H1347 0.950 . S
H1344 C1340 0.950 . S
C1345 C1343 1.390 . S
C1345 C1346 1.387 . S
C1345 H1348 0.950 . S
C1346 C1345 1.387 . S
C1346 C1349 1.387 . S
H1347 C1343 0.950 . S
H1348 C1345 0.950 . S
C1349 C1340 1.390 . S
C1349 H1342 0.950 . S
C1349 C1346 1.387 . S
C1350 C1351 1.387 . S
C1350 H1354 0.950 . S
C1350 C1359 1.390 . S
C1351 C1350 1.387 . S
C1351 C1353 1.387 . S
H1352 C1359 0.950 . S
C1353 C1351 1.387 . S
C1353 C1355 1.390 . S
C1353 H1357 0.950 . S
H1354 C1350 0.950 . S
C1355 C1353 1.390 . S
C1355 C1356 1.387 . S
C1355 H1358 0.950 . S
C1356 C1355 1.387 . S
C1356 C1359 1.387 . S
H1357 C1353 0.950 . S
H1358 C1355 0.950 . S
C1359 C1350 1.390 . S
C1359 H1352 0.950 . S
C1359 C1356 1.387 . S
C1360 C1361 1.387 . S
C1360 H1364 0.950 . S
C1360 C1369 1.390 . S
C1361 C1360 1.387 . S
C1361 C1363 1.387 . S
H1362 C1369 0.950 . S
C1363 C1361 1.387 . S
C1363 C1365 1.390 . S
C1363 H1367 0.950 . S
H1364 C1360 0.950 . S
C1365 C1363 1.390 . S
C1365 C1366 1.387 . S
C1365 H1368 0.950 . S
C1366 C1365 1.387 . S
C1366 C1369 1.387 . S
H1367 C1363 0.950 . S
H1368 C1365 0.950 . S
C1369 C1360 1.390 . S
C1369 H1362 0.950 . S
C1369 C1366 1.387 . S
C1370 C1371 1.387 . S
C1370 H1374 0.950 . S
C1370 C1379 1.390 . S
C1371 C1370 1.387 . S
C1371 C1373 1.387 . S
H1372 C1379 0.950 . S
C1373 C1371 1.387 . S
C1373 C1375 1.390 . S
C1373 H1377 0.950 . S
H1374 C1370 0.950 . S
C1375 C1373 1.390 . S
C1375 C1376 1.387 . S
C1375 H1378 0.950 . S
C1376 C1375 1.387 . S
C1376 C1379 1.387 . S
H1377 C1373 0.950 . S
H1378 C1375 0.950 . S
C1379 C1370 1.390 . S
C1379 H1372 0.950 . S
C1379 C1376 1.387 . S
C1380 C1381 1.387 . S
C1380 H1384 0.950 . S
C1380 C1389 1.390 . S
C1381 C1380 1.387 . S
C1381 C1383 1.387 . S
H1382 C1389 0.950 . S
C1383 C1381 1.387 . S
C1383 C1385 1.390 . S
C1383 H1387 0.950 . S
H1384 C1380 0.950 . S
C1385 C1383 1.390 . S
C1385 C1386 1.387 . S
C1385 H1388 0.950 . S
C1386 C1385 1.387 . S
C1386 C1389 1.387 . S
H1387 C1383 0.950 . S
H1388 C1385 0.950 . S
C1389 C1380 1.390 . S
C1389 H1382 0.950 . S
C1389 C1386 1.387 . S
C1390 C1391 1.387 . S
C1390 H1394 0.950 . S
C1390 C1399 1.390 . S
C1391 C1390 1.387 . S
C1391 C1393 1.387 . S
H1392 C1399 0.950 . S
C1393 C1391 1.387 . S
C1393 C1395 1.390 . S
C1393 H1397 0.950 . S
H1394 C1390 0.950 . S
C1395 C1393 1.390 . S
C1395 C1396 1.387 . S
C1395 H1398 0.950 . S
C1396 C1395 1.387 . S
C1396 C1399 1.387 . S
H1397 C1393 0.950 . S
H1398 C1395 0.950 . S
C1399 C1390 1.390 . S
C1399 H1392 0.950 . S
C1399 C1396 1.387 . S
C1400 C1401 1.387 . S
C1400 H1404 0.950 . S
C1400 C1409 1.390 . S
C1401 C1400 1.387 . S
C1401 C1403 1.387 . S
H1402 C1409 0.950 . S
C1403 C1401 1.387 . S
C1403 C1405 1.390 . S
C1403 H1407 0.950 . S
H1404 C1400 0.950 . S
C1405 C1403 1.390 . S
C1405 C1406 1.387 . S
C1405 H1408 0.950 . S
C1406 C1405 1.387 . S
C1406 C1409 1.387 . S
H1407 C1403 0.950 . S
H1408 C1405 0.950 . S
C1409 C1400 1.390 . S
C1409 H1402 0.950 . S
C1409 C1406 1.387 . S
C1410 C1411 1.387 . S
C1410 H1414 0.950 . S
C1410 C1419 1.390 . S
C1411 C1410 1.387 . S
C1411 C1413 1.387 . S
H1412 C1419 0.950 . S
C1413 C1411 1.387 . S
C1413 C1415 1.390 . S
C1413 H1417 0.950 . S
H1414 C1410 0.950 . S
C1415 C1413 1.390 . S
C1415 C1416 1.387 . S
C1415 H1418 0.950 . S
C1416 C1415 1.387 . S
C1416 C1419 1.387 . S
H1417 C1413 0.950 . S
H1418 C1415 0.950 . S
C1419 C1410 1.390 . S
C1419 H1412 0.950 . S
C1419 C1416 1.387 . S
C1420 C1421 1.387 . S
C1420 H1424 0.950 . S
C1420 C1429 1.390 . S
C1421 C1420 1.387 . S
C1421 C1423 1.387 . S
H1422 C1429 0.950 . S
C1423 C1421 1.387 . S
C1423 C1425 1.390 . S
C1423 H1427 0.950 . S
H1424 C1420 0.950 . S
C1425 C1423 1.390 . S
C1425 C1426 1.387 . S
C1425 H1428 0.950 . S
C1426 C1425 1.387 . S
C1426 C1429 1.387 . S
H1427 C1423 0.950 . S
H1428 C1425 0.950 . S
C1429 C1420 1.390 . S
C1429 H1422 0.950 . S
C1429 C1426 1.387 . S
C1430 C1431 1.387 . S
C1430 H1434 0.950 . S
C1430 C1439 1.390 . S
C1431 C1430 1.387 . S
C1431 C1433 1.387 . S
H1432 C1439 0.950 . S
C1433 C1431 1.387 . S
C1433 C1435 1.390 . S
C1433 H1437 0.950 . S
H1434 C1430 0.950 . S
C1435 C1433 1.390 . S
C1435 C1436 1.387 . S
C1435 H1438 0.950 . S
C1436 C1435 1.387 . S
C1436 C1439 1.387 . S
H1437 C1433 0.950 . S
H1438 C1435 0.950 . S
C1439 C1430 1.390 . S
C1439 H1432 0.950 . S
C1439 C1436 1.387 . S
C1440 C1441 1.387 . S
C1440 H1444 0.950 . S
C1440 C1449 1.390 . S
C1441 C1440 1.387 . S
C1441 C1443 1.387 . S
H1442 C1449 0.950 . S
C1443 C1441 1.387 . S
C1443 C1445 1.390 . S
C1443 H1447 0.950 . S
H1444 C1440 0.950 . S
C1445 C1443 1.390 . S
C1445 C1446 1.387 . S
C1445 H1448 0.950 . S
C1446 C1445 1.387 . S
C1446 C1449 1.387 . S
H1447 C1443 0.950 . S
H1448 C1445 0.950 . S
C1449 C1440 1.390 . S
C1449 H1442 0.950 . S
C1449 C1446 1.387 . S
C1450 C1451 1.387 . S
C1450 H1454 0.950 . S
C1450 C1459 1.390 . S
C1451 C1450 1.387 . S
C1451 C1453 1.387 . S
H1452 C1459 0.950 . S
C1453 C1451 1.387 . S
C1453 C1455 1.390 . S
C1453 H1457 0.950 . S
H1454 C1450 0.950 . S
C1455 C1453 1.390 . S
C1455 C1456 1.387 . S
C1455 H1458 0.950 . S
C1456 C1455 1.387 . S
C1456 C1459 1.387 . S
H1457 C1453 0.950 . S
H1458 C1455 0.950 . S
C1459 C1450 1.390 . S
C1459 H1452 0.950 . S
C1459 C1456 1.387 . S
C1460 C1461 1.387 . S
C1460 H1464 0.950 . S
C1460 C1469 1.390 . S
C1461 C1460 1.387 . S
C1461 C1463 1.387 . S
H1462 C1469 0.950 . S
C1463 C1461 1.387 . S
C1463 C1465 1.390 . S
C1463 H1467 0.950 . S
H1464 C1460 0.950 . S
C1465 C1463 1.390 . S
C1465 C1466 1.387 . S
C1465 H1468 0.950 . S
C1466 C1465 1.387 . S
C1466 C1469 1.387 . S
H1467 C1463 0.950 . S
H1468 C1465 0.950 . S
C1469 C1460 1.390 . S
C1469 H1462 0.950 . S
C1469 C1466 1.387 . S
C1470 C1471 1.387 . S
C1470 H1474 0.950 . S
C1470 C1479 1.390 . S
C1471 C1470 1.387 . S
C1471 C1473 1.387 . S
H1472 C1479 0.950 . S
C1473 C1471 1.387 . S
C1473 C1475 1.390 . S
C1473 H1477 0.950 . S
H1474 C1470 0.950 . S
C1475 C1473 1.390 . S
C1475 C1476 1.387 . S
C1475 H1478 0.950 . S
C1476 C1475 1.387 . S
C1476 C1479 1.387 . S
H1477 C1473 0.950 . S
H1478 C1475 0.950 . S
C1479 C1470 1.390 . S
C1479 H1472 0.950 . S
C1479 C1476 1.387 . S
C1480 C1481 1.387 . S
C1480 H1484 0.950 . S
C1480 C1489 1.390 . S
C1481 C1480 1.387 . S
C1481 C1483 1.387 . S
H1482 C1489 0.950 . S
C1483 C1481 1.387 . S
C1483 C1485 1.390 . S
C1483 H1487 0.950 . S
H1484 C1480 0.950 . S
C1485 C1483 1.390 . S
C1485 C1486 1.387 . S
C1485 H1488 0.950 . S
C1486 C1485 1.387 . S
C1486 C1489 1.387 . S
H1487 C1483 0.950 . S
H1488 C1485 0.950 . S
C1489 C1480 1.390 . S
C1489 H1482 0.950 . S
C1489 C1486 1.387 . S
C1490 C1491 1.387 . S
C1490 H1494 0.950 . S
C1490 C1499 1.390 . S
C1491 C1490 1.387 . S
C1491 C1493 1.387 . S
H1492 C1499 0.950 . S
C1493 C1491 1.387 . S
C1493 C1495 1.390 . S
C1493 H1497 0.950 . S
H1494 C1490 0.950 . S
C1495 C1493 1.390 . S
C1495 C1496 1.387 . S
C1495 H1498 0.950 . S
C1496 C1495 1.387 . S
C1496 C1499 1.387 . S
H1497 C1493 0.950 . S
H1498 C1495 0.950 . S
C1499 C1490 1.390 . S
C1499 H1492 0.950 . S
C1499 C1496 1.387 . S
C1500 C1501 1.387 . S
C1500 H1504 0.950 . S
C1500 C1509 1.390 . S
C1501 C1500 1.387 . S
C1501 C1503 1.387 . S
H1502 C1509 0.950 . S
C1503 C1501 1.387 . S
C1503 C1505 1.390 . S
C1503 H1507 0.950 . S
H1504 C1500 0.950 . S
C1505 C1503 1.390 . S
C1505 C1506 1.387 . S
C1505 H1508 0.950 . S
C1506 C1505 1.387 . S
C1506 C1509 1.387 . S
H1507 C1503 0.950 . S
H1508 C1505 0.950 . S
C1509 C1500 1.390 . S
C1509 H1502 0.950 . S
C1509 C1506 1.387 . S
C1510 C1511 1.387 . S
C1510 H1514 0.950 . S
C1510 C1519 1.390 . S
C1511 C1510 1.387 . S
C1511 C1513 1.387 . S
H1512 C1519 0.950 . S
C1513 C1511 1.387 . S
C1513 C1515 1.390 . S
C1513 H1517 0.950 . S
H1514 C1510 0.950 . S
C1515 C1513 1.390 . S
C1515 C1516 1.387 . S
C1515 H1518 0.950 . S
C1516 C1515 1.387 . S
C1516 C1519 1.387 . S
H1517 C1513 0.950 . S
H1518 C1515 0.950 . S
C1519 C1510 1.390 . S
C1519 H1512 0.950 . S
C1519 C1516 1.387 . S
C1520 C1521 1.387 . S
C1520 H1524 0.950 . S
C1520 C1529 1.390 . S
C1521 C1520 1.387 . S
C1521 C1523 1.387 . S
H1522 C1529 0.950 . S
C1523 C1521 1.387 . S
C1523 C1525 1.390 . S
C1523 H1527 0.950 . S
H1524 C1520 0.950 . S
C1525 C1523 1.390 . S
C1525 C1526 1.387 . S
C1525 H1528 0.950 . S
C1526 C1525 1.387 . S
C1526 C1529 1.387 . S
H1527 C1523 0.950 . S
H1528 C1525 0.950 . S
C1529 C1520 1.390 . S
C1529 H1522 0.950 . S
C1529 C1526 1.387 . S
C1530 C1531 1.387 . S
C1530 H1534 0.950 . S
C1530 C1539 1.390 . S
C1531 C1530 1.387 . S
C1531 C1533 1.387 . S
H1532 C1539 0.950 . S
C1533 C1531 1.387 . S
C1533 C1535 1.390 . S
C1533 H1537 0.950 . S
H1534 C1530 0.950 . S
C1535 C1533 1.390 . S
C1535 C1536 1.387 . S
C1535 H1538 0.950 . S
C1536 C1535 1.387 . S
C1536 C1539 1.387 . S
H1537 C1533 0.950 . S
H1538 C1535 0.950 . S
C1539 C1530 1.390 . S
C1539 H1532 0.950 . S
C1539 C1536 1.387 . S
C1540 C1541 1.387 . S
C1540 H1544 0.950 . S
C1540 C1549 1.390 . S
C1541 C1540 1.387 . S
C1541 C1543 1.387 . S
H1542 C1549 0.950 . S
C1543 C1541 1.387 . S
C1543 C1545 1.390 . S
C1543 H1547 0.950 . S
H1544 C1540 0.950 . S
C1545 C1543 1.390 . S
C1545 C1546 1.387 . S
C1545 H1548 0.950 . S
C1546 C1545 1.387 . S
C1546 C1549 1.387 . S
H1547 C1543 0.950 . S
H1548 C1545 0.950 . S
C1549 C1540 1.390 . S
C1549 H1542 0.950 . S
C1549 C1546 1.387 . S
C1550 C1551 1.387 . S
C1550 H1554 0.950 . S
C1550 C1559 1.390 . S
C1551 C1550 1.387 . S
C1551 C1553 1.387 . S
H1552 C1559 0.950 . S
C1553 C1551 1.387 . S
C1553 C1555 1.390 . S
C1553 H1557 0.950 . S
H1554 C1550 0.950 . S
C1555 C1553 1.390 . S
C1555 C1556 1.387 . S
C1555 H1558 0.950 . S
C1556 C1555 1.387 . S
C1556 C1559 1.387 . S
H1557 C1553 0.950 . S
H1558 C1555 0.950 . S
C1559 C1550 1.390 . S
C1559 H1552 0.950 . S
C1559 C1556 1.387 . S
C1560 C1561 1.387 . S
C1560 H1564 0.950 . S
C1560 C1569 1.390 . S
C1561 C1560 1.387 . S
C1561 C1563 1.387 . S
H1562 C1569 0.950 . S
C1563 C1561 1.387 . S
C1563 C1565 1.390 . S
C1563 H1567 0.950 . S
H1564 C1560 0.950 . S
C1565 C1563 1.390 . S
C1565 C1566 1.387 . S
C1565 H1568 0.950 . S
C1566 C1565 1.387 . S
C1566 C1569 1.387 . S
H1567 C1563 0.950 . S
H1568 C1565 0.950 . S
C1569 C1560 1.390 . S
C1569 H1562 0.950 . S
C1569 C1566 1.387 . S
C1570 C1571 1.387 . S
C1570 H1574 0.950 . S
C1570 C1579 1.390 . S
C1571 C1570 1.387 . S
C1571 C1573 1.387 . S
H1572 C1579 0.950 . S
C1573 C1571 1.387 . S
C1573 C1575 1.390 . S
C1573 H1577 0.950 . S
H1574 C1570 0.950 . S
C1575 C1573 1.390 . S
C1575 C1576 1.387 . S
C1575 H1578 0.950 . S
C1576 C1575 1.387 . S
C1576 C1579 1.387 . S
H1577 C1573 0.950 . S
H1578 C1575 0.950 . S
C1579 C1570 1.390 . S
C1579 H1572 0.950 . S
C1579 C1576 1.387 . S
C1580 C1581 1.387 . S
C1580 H1584 0.950 . S
C1580 C1589 1.390 . S
C1581 C1580 1.387 . S
C1581 C1583 1.387 . S
H1582 C1589 0.950 . S
C1583 C1581 1.387 . S
C1583 C1585 1.390 . S
C1583 H1587 0.950 . S
H1584 C1580 0.950 . S
C1585 C1583 1.390 . S
C1585 C1586 1.387 . S
C1585 H1588 0.950 . S
C1586 C1585 1.387 . S
C1586 C1589 1.387 . S
H1587 C1583 0.950 . S
H1588 C1585 0.950 . S
C1589 C1580 1.390 . S
C1589 H1582 0.950 . S
C1589 C1586 1.387 . S
C1590 C1591 1.387 . S
C1590 H1594 0.950 . S
C1590 C1599 1.390 . S
C1591 C1590 1.387 . S
C1591 C1593 1.387 . S
H1592 C1599 0.950 . S
C1593 C1591 1.387 . S
C1593 C1595 1.390 . S
C1593 H1597 0.950 . S
H1594 C1590 0.950 . S
C1595 C1593 1.390 . S
C1595 C1596 1.387 . S
C1595 H1598 0.948 1_455 S
C1596 C1595 1.387 . S
C1596 C1599 1.387 . S
H1597 C1593 0.950 . S
H1598 C1595 0.948 1_655 S
C1599 C1590 1.390 . S
C1599 H1592 0.950 . S
C1599 C1596 1.387 . S
C1600 C1601 1.387 . S
C1600 H1604 0.950 . S
C1600 C1609 1.390 . S
C1601 C1600 1.387 . S
C1601 C1603 1.387 . S
H1602 C1609 0.950 . S
C1603 C1601 1.387 . S
C1603 C1605 1.390 . S
C1603 H1607 0.950 . S
H1604 C1600 0.950 . S
C1605 C1603 1.390 . S
C1605 C1606 1.387 . S
C1605 H1608 0.950 . S
C1606 C1605 1.387 . S
C1606 C1609 1.387 . S
H1607 C1603 0.950 . S
H1608 C1605 0.950 . S
C1609 C1600 1.390 . S
C1609 H1602 0.950 . S
C1609 C1606 1.387 . S
C1610 C1611 1.387 . S
C1610 H1614 0.950 . S
C1610 C1619 1.390 . S
C1611 C1610 1.387 . S
C1611 C1613 1.387 1_565 S
H1612 C1619 0.950 . S
C1613 C1611 1.387 1_545 S
C1613 C1615 1.390 . S
C1613 H1617 0.950 . S
H1614 C1610 0.950 . S
C1615 C1613 1.390 . S
C1615 C1616 1.387 1_545 S
C1615 H1618 0.950 . S
C1616 C1615 1.387 1_565 S
C1616 C1619 1.387 . S
H1617 C1613 0.950 . S
H1618 C1615 0.950 . S
C1619 C1610 1.390 . S
C1619 H1612 0.950 . S
C1619 C1616 1.387 . S
C1620 C1621 1.387 1_545 S
C1620 H1624 0.950 . S
C1620 C1629 1.390 . S
C1621 C1620 1.387 1_565 S
C1621 C1623 1.387 . S
H1622 C1629 0.950 . S
C1623 C1621 1.387 . S
C1623 C1625 1.390 . S
C1623 H1627 0.950 . S
H1624 C1620 0.950 . S
C1625 C1623 1.390 . S
C1625 C1626 1.387 . S
C1625 H1628 0.950 . S
C1626 C1625 1.387 . S
C1626 C1629 1.387 1_565 S
H1627 C1623 0.950 . S
H1628 C1625 0.950 . S
C1629 C1620 1.390 . S
C1629 H1622 0.950 . S
C1629 C1626 1.387 1_545 S
C1630 C1631 1.387 1_655 S
C1630 H1634 0.950 . S
C1630 C1639 1.390 . S
C1631 C1630 1.387 1_455 S
C1631 C1633 1.387 . S
H1632 C1639 0.950 . S
C1633 C1631 1.387 . S
C1633 C1635 1.390 . S
C1633 H1637 0.950 . S
H1634 C1630 0.950 . S
C1635 C1633 1.390 . S
C1635 C1636 1.387 . S
C1635 H1638 0.950 . S
C1636 C1635 1.387 . S
C1636 C1639 1.387 1_455 S
H1637 C1633 0.950 . S
H1638 C1635 0.950 . S
C1639 C1630 1.390 . S
C1639 H1632 0.950 . S
C1639 C1636 1.387 1_655 S
C1640 C1641 1.387 . S
C1640 H1644 0.950 . S
C1640 C1649 1.390 . S
C1641 C1640 1.387 . S
C1641 C1643 1.387 . S
H1642 C1649 0.950 . S
C1643 C1641 1.387 . S
C1643 C1645 1.390 . S
C1643 H1647 0.950 . S
H1644 C1640 0.950 . S
C1645 C1643 1.390 . S
C1645 C1646 1.387 . S
C1645 H1648 0.950 . S
C1646 C1645 1.387 . S
C1646 C1649 1.387 . S
H1647 C1643 0.950 . S
H1648 C1645 0.950 . S
C1649 C1640 1.390 . S
C1649 H1642 0.950 . S
C1649 C1646 1.387 . S
C1650 C1651 1.387 . S
C1650 H1654 0.950 . S
C1650 C1659 1.390 . S
C1651 C1650 1.387 . S
C1651 C1653 1.387 . S
H1652 C1659 0.950 . S
C1653 C1651 1.387 . S
C1653 C1655 1.390 . S
C1653 H1657 0.950 . S
H1654 C1650 0.950 . S
C1655 C1653 1.390 . S
C1655 C1656 1.387 . S
C1655 H1658 0.950 . S
C1656 C1655 1.387 . S
C1656 C1659 1.387 . S
H1657 C1653 0.950 . S
H1658 C1655 0.950 . S
C1659 C1650 1.390 . S
C1659 H1652 0.950 . S
C1659 C1656 1.387 . S
C1660 C1661 1.387 . S
C1660 H1664 0.950 . S
C1660 C1669 1.390 . S
C1661 C1660 1.387 . S
C1661 C1663 1.387 . S
H1662 C1669 0.950 . S
C1663 C1661 1.387 . S
C1663 C1665 1.390 . S
C1663 H1667 0.950 . S
H1664 C1660 0.950 . S
C1665 C1663 1.390 . S
C1665 C1666 1.387 . S
C1665 H1668 0.950 . S
C1666 C1665 1.387 . S
C1666 C1669 1.387 . S
H1667 C1663 0.950 . S
H1668 C1665 0.950 . S
C1669 C1660 1.390 . S
C1669 H1662 0.950 . S
C1669 C1666 1.387 . S
C1670 C1671 1.387 . S
C1670 H1674 0.950 . S
C1670 C1679 1.390 . S
C1671 C1670 1.387 . S
C1671 C1673 1.387 . S
H1672 C1679 0.950 . S
C1673 C1671 1.387 . S
C1673 C1675 1.390 . S
C1673 H1677 0.950 . S
H1674 C1670 0.950 . S
C1675 C1673 1.390 . S
C1675 C1676 1.387 . S
C1675 H1678 0.950 . S
C1676 C1675 1.387 . S
C1676 C1679 1.387 . S
H1677 C1673 0.950 . S
H1678 C1675 0.950 . S
C1679 C1670 1.390 . S
C1679 H1672 0.950 . S
C1679 C1676 1.387 . S
C1680 C1681 1.387 . S
C1680 H1684 0.950 . S
C1680 C1689 1.390 . S
C1681 C1680 1.387 . S
C1681 C1683 1.387 1_545 S
H1682 C1689 0.950 . S
C1683 C1681 1.387 1_565 S
C1683 C1685 1.390 . S
C1683 H1687 0.950 . S
H1684 C1680 0.950 . S
C1685 C1683 1.390 . S
C1685 C1686 1.387 1_565 S
C1685 H1688 0.950 . S
C1686 C1685 1.387 1_545 S
C1686 C1689 1.387 . S
H1687 C1683 0.950 . S
H1688 C1685 0.950 . S
C1689 C1680 1.390 . S
C1689 H1682 0.950 . S
C1689 C1686 1.387 . S
C1690 C1691 1.387 1_455 S
C1690 H1694 0.950 . S
C1690 C1699 1.390 . S
C1691 C1690 1.387 1_655 S
C1691 C1693 1.387 . S
H1692 C1699 0.950 . S
C1693 C1691 1.387 . S
C1693 C1695 1.390 . S
C1693 H1697 0.950 . S
H1694 C1690 0.950 . S
C1695 C1693 1.390 . S
C1695 C1696 1.387 . S
C1695 H1698 0.950 . S
C1696 C1695 1.387 . S
C1696 C1699 1.387 1_655 S
H1697 C1693 0.950 . S
H1698 C1695 0.950 . S
C1699 C1690 1.390 . S
C1699 H1692 0.950 . S
C1699 C1696 1.387 1_455 S
C1700 C1701 1.387 . S
C1700 H1704 0.950 . S
C1700 C1709 1.390 . S
C1701 C1700 1.387 . S
C1701 C1703 1.387 . S
H1702 C1709 0.950 . S
C1703 C1701 1.387 . S
C1703 C1705 1.390 . S
C1703 H1707 0.950 . S
H1704 C1700 0.950 . S
C1705 C1703 1.390 . S
C1705 C1706 1.387 . S
C1705 H1708 0.950 . S
C1706 C1705 1.387 . S
C1706 C1709 1.387 . S
H1707 C1703 0.950 . S
H1708 C1705 0.950 . S
C1709 C1700 1.390 . S
C1709 H1702 0.950 . S
C1709 C1706 1.387 . S
C1710 C1711 1.387 . S
C1710 H1714 0.950 . S
C1710 C1719 1.390 . S
C1711 C1710 1.387 . S
C1711 C1713 1.387 . S
H1712 C1719 0.950 . S
C1713 C1711 1.387 . S
C1713 C1715 1.390 . S
C1713 H1717 0.950 . S
H1714 C1710 0.950 . S
C1715 C1713 1.390 . S
C1715 C1716 1.387 . S
C1715 H1718 0.950 . S
C1716 C1715 1.387 . S
C1716 C1719 1.387 . S
H1717 C1713 0.950 . S
H1718 C1715 0.950 . S
C1719 C1710 1.390 . S
C1719 H1712 0.950 . S
C1719 C1716 1.387 . S
C1720 C1721 1.387 . S
C1720 H1724 0.950 . S
C1720 C1729 1.390 . S
C1721 C1720 1.387 . S
C1721 C1723 1.387 . S
H1722 C1729 0.950 . S
C1723 C1721 1.387 . S
C1723 C1725 1.390 . S
C1723 H1727 0.950 . S
H1724 C1720 0.950 . S
C1725 C1723 1.390 . S
C1725 C1726 1.387 . S
C1725 H1728 0.950 . S
C1726 C1725 1.387 . S
C1726 C1729 1.387 . S
H1727 C1723 0.950 . S
H1728 C1725 0.950 . S
C1729 C1720 1.390 . S
C1729 H1722 0.950 . S
C1729 C1726 1.387 . S
C1730 C1731 1.387 . S
C1730 H1734 0.950 . S
C1730 C1739 1.390 . S
C1731 C1730 1.387 . S
C1731 C1733 1.387 . S
H1732 C1739 0.950 . S
C1733 C1731 1.387 . S
C1733 C1735 1.390 . S
C1733 H1737 0.950 . S
H1734 C1730 0.950 . S
C1735 C1733 1.390 . S
C1735 C1736 1.387 . S
C1735 H1738 0.950 . S
C1736 C1735 1.387 . S
C1736 C1739 1.387 . S
H1737 C1733 0.950 . S
H1738 C1735 0.950 . S
C1739 C1730 1.390 . S
C1739 H1732 0.950 . S
C1739 C1736 1.387 . S
C1740 C1741 1.387 . S
C1740 H1744 0.950 . S
C1740 C1749 1.390 . S
C1741 C1740 1.387 . S
C1741 C1743 1.387 . S
H1742 C1749 0.950 . S
C1743 C1741 1.387 . S
C1743 C1745 1.390 . S
C1743 H1747 0.950 . S
H1744 C1740 0.950 . S
C1745 C1743 1.390 . S
C1745 C1746 1.387 . S
C1745 H1748 0.950 . S
C1746 C1745 1.387 . S
C1746 C1749 1.387 . S
H1747 C1743 0.950 . S
H1748 C1745 0.950 . S
C1749 C1740 1.390 . S
C1749 H1742 0.950 . S
C1749 C1746 1.387 . S
C1750 C1751 1.387 . S
C1750 H1754 0.950 . S
C1750 C1759 1.390 . S
C1751 C1750 1.387 . S
C1751 C1753 1.387 . S
H1752 C1759 0.950 . S
C1753 C1751 1.387 . S
C1753 C1755 1.390 . S
C1753 H1757 0.950 . S
H1754 C1750 0.950 . S
C1755 C1753 1.390 . S
C1755 C1756 1.387 . S
C1755 H1758 0.950 . S
C1756 C1755 1.387 . S
C1756 C1759 1.387 . S
H1757 C1753 0.950 . S
H1758 C1755 0.950 . S
C1759 C1750 1.390 . S
C1759 H1752 0.950 . S
C1759 C1756 1.387 . S
C1760 C1761 1.387 . S
C1760 H1764 0.950 . S
C1760 C1769 1.390 . S
C1761 C1760 1.387 . S
C1761 C1763 1.387 . S
H1762 C1769 0.950 . S
C1763 C1761 1.387 . S
C1763 C1765 1.390 . S
C1763 H1767 0.950 . S
H1764 C1760 0.950 . S
C1765 C1763 1.390 . S
C1765 C1766 1.387 . S
C1765 H1768 0.950 . S
C1766 C1765 1.387 . S
C1766 C1769 1.387 . S
H1767 C1763 0.950 . S
H1768 C1765 0.950 . S
C1769 C1760 1.390 . S
C1769 H1762 0.950 . S
C1769 C1766 1.387 . S
C1770 C1771 1.387 . S
C1770 H1774 0.950 . S
C1770 C1779 1.390 . S
C1771 C1770 1.387 . S
C1771 C1773 1.387 1_655 S
H1772 C1779 0.950 . S
C1773 C1771 1.387 1_455 S
C1773 C1775 1.390 . S
C1773 H1777 0.950 . S
H1774 C1770 0.950 . S
C1775 C1773 1.390 . S
C1775 C1776 1.387 1_455 S
C1775 H1778 0.950 . S
C1776 C1775 1.387 1_655 S
C1776 C1779 1.387 . S
H1777 C1773 0.950 . S
H1778 C1775 0.950 . S
C1779 C1770 1.390 . S
C1779 H1772 0.950 . S
C1779 C1776 1.387 . S
C1780 C1781 1.387 . S
C1780 H1784 0.950 . S
C1780 C1789 1.390 . S
C1781 C1780 1.387 . S
C1781 C1783 1.387 . S
H1782 C1789 0.950 . S
C1783 C1781 1.387 . S
C1783 C1785 1.390 . S
C1783 H1787 0.950 . S
H1784 C1780 0.950 . S
C1785 C1783 1.390 . S
C1785 C1786 1.387 . S
C1785 H1788 0.950 . S
C1786 C1785 1.387 . S
C1786 C1789 1.387 . S
H1787 C1783 0.950 . S
H1788 C1785 0.950 . S
C1789 C1780 1.390 . S
C1789 H1782 0.950 . S
C1789 C1786 1.387 . S
C1790 C1791 1.387 . S
C1790 H1794 0.950 . S
C1790 C1799 1.390 . S
C1791 C1790 1.387 . S
C1791 C1793 1.387 1_545 S
H1792 C1799 0.950 . S
C1793 C1791 1.387 1_565 S
C1793 C1795 1.390 . S
C1793 H1797 0.950 . S
H1794 C1790 0.950 . S
C1795 C1793 1.390 . S
C1795 C1796 1.387 1_565 S
C1795 H1798 0.950 . S
C1796 C1795 1.387 1_545 S
C1796 C1799 1.387 . S
H1797 C1793 0.950 . S
H1798 C1795 0.950 . S
C1799 C1790 1.390 . S
C1799 H1792 0.950 . S
C1799 C1796 1.387 . S
C1081 C8 1.463 1_655 S
C1086 C688 1.486 . S
C1091 C22 1.579 . S
C1096 C734 1.562 . S
C1106 C766 1.496 . S
C1101 C37 1.467 1_545 S
C1111 C36 1.464 1_565 S
C1116 C819 1.486 . S
C1121 C9 1.466 1_455 S
C1126 C865 1.496 . S
C1131 C23 1.579 . S
C1136 C904 1.573 . S
C1141 C50 1.456 1_455 S
C1146 C858 1.480 . S
C1156 C911 1.572 . S
C1151 C64 1.579 . S
C1166 C812 1.498 . S
C1161 C79 1.473 1_565 S
C1171 C78 1.457 1_545 S
C1176 C773 1.481 . S
C1186 C667 1.498 . S
C1181 C51 1.473 1_655 S
C1191 C65 1.579 . S
C1196 C713 1.560 . S
C1201 C92 1.621 . S
C1206 C943 1.614 . S
C1211 C106 1.637 . S
C1216 C1010 1.611 . S
C1226 C1056 1.584 . S
C1221 C121 1.606 . S
C1231 C120 1.566 . S
C1236 C267 1.545 . S
C1241 C93 1.592 . S
C1246 C313 1.572 . S
C1251 C107 1.605 . S
C1256 C359 1.579 . S
C1261 C134 1.565 . S
C1266 C306 1.545 . S
C1271 C148 1.606 . S
C1276 C352 1.582 . S
C1286 C260 1.572 . S
C1281 C163 1.590 . S
C1296 C1035 1.602 . S
C1291 C162 1.624 . S
C1306 C964 1.593 . S
C1301 C135 1.603 . S
C1316 C989 1.612 . S
C1311 C149 1.637 . S
C1321 C176 1.565 . S
C1326 C391 1.558 . S
C1331 C190 1.605 . S
C1336 C444 1.593 . S
C1341 C205 1.591 . S
C1346 C490 1.584 . S
C1351 C204 1.622 . S
C1356 C536 1.614 . S
C1366 C589 1.583 . S
C1361 C177 1.606 . S
C1376 C635 1.611 . S
C1371 C191 1.636 . S
C1386 C582 1.603 . S
C1381 C218 1.624 . S
C1396 C628 1.611 . S
C1391 C232 1.637 . S
C1401 C247 1.604 . S
C1406 C543 1.593 . S
C1416 C497 1.556 . S
C1411 C246 1.565 . S
C1421 C219 1.590 . S
C1426 C412 1.584 . S
C1436 C451 1.594 . S
C1431 C233 1.607 . S
C1446 C274 1.560 . S
C1441 C6 1.561 . S
C1451 C20 1.520 . S
C1456 C320 1.522 . S
C1466 C366 1.566 . S
C1461 C35 1.570 . S
C1476 C398 1.548 . S
C1471 C34 1.561 . S
C1486 C437 1.553 . S
C1481 C7 1.571 . S
C1496 C483 1.512 . S
C1491 C21 1.522 . S
C1501 C48 1.564 . S
C1506 C504 1.558 . S
C1511 C62 1.520 . S
C1516 C405 1.510 . S
C1521 C77 1.570 . S
C1526 C458 1.550 . S
C1531 C76 1.565 . S
C1536 C299 1.568 . S
C1546 C345 1.563 . S
C1541 C49 1.569 . S
C1551 C63 1.519 . S
C1556 C253 1.521 . S
C1566 C529 1.534 . S
C1561 C90 1.539 . S
C1571 C104 1.569 . S
C1576 C596 1.580 . S
C1581 C119 1.573 . S
C1586 C642 1.583 . S
C1596 C681 1.488 . S
C1591 C118 1.445 . S
C1601 C91 1.544 . S
C1606 C727 1.549 . S
C1611 C105 1.448 . S
C1616 C759 1.491 . S
C1621 C132 1.444 . S
C1626 C780 1.482 . S
C1631 C146 1.452 . S
C1636 C674 1.493 . S
C1646 C720 1.552 . S
C1641 C161 1.545 . S
C1651 C160 1.540 . S
C1656 C575 1.547 . S
C1661 C133 1.572 . S
C1666 C621 1.580 . S
C1676 C550 1.570 . S
C1671 C147 1.569 . S
C1686 C826 1.488 . S
C1681 C174 1.444 . S
C1691 C188 1.450 . S
C1696 C872 1.492 . S
C1701 C203 1.543 . S
C1706 C897 1.541 . S
C1716 C950 1.535 . S
C1711 C202 1.537 . S
C1726 C1003 1.583 . S
C1721 C175 1.573 . S
C1731 C189 1.569 . S
C1736 C1049 1.580 . S
C1741 C216 1.542 . S
C1746 C1042 1.547 . S
C1751 C230 1.569 . S
C1756 C957 1.570 . S
C1766 C996 1.580 . S
C1761 C245 1.572 . S
C1776 C851 1.487 . S
C1771 C244 1.442 . S
C1786 C918 1.542 . S
C1781 C217 1.545 . S
C1791 C231 1.452 . S
C1796 C805 1.493 . S
