# Generated by pormake.
# Topology anh, (6,3)-cn, num edge types: 1
# Building blocks:
#     Node 0, Type 0, BuildingBlock: NUHQIS_clean_sbu_0, # of connection points: 6
#     Node 1, Type 0, BuildingBlock: NUHQIS_clean_sbu_0, # of connection points: 6
#     Node 2, Type 0, BuildingBlock: NUHQIS_clean_sbu_0, # of connection points: 6
#     Node 3, Type 1, BuildingBlock: CUQRIR_clean_linker_1, # of connection points: 3
#     Node 4, Type 1, BuildingBlock: CUQRIR_clean_linker_1, # of connection points: 3
#     Node 5, Type 1, BuildingBlock: CUQRIR_clean_linker_1, # of connection points: 3
#     Node 6, Type 1, BuildingBlock: CUQRIR_clean_linker_1, # of connection points: 3
#     Node 7, Type 1, BuildingBlock: CUQRIR_clean_linker_1, # of connection points: 3
#     Node 8, Type 1, BuildingBlock: CUQRIR_clean_linker_1, # of connection points: 3
#     Edge 9, Type (0, 1), BuildingBlock: UVAHIK_clean_linker_0, # of connection points: 2
#     Edge 10, Type (0, 1), BuildingBlock: UVAHIK_clean_linker_0, # of connection points: 2
#     Edge 11, Type (0, 1), BuildingBlock: UVAHIK_clean_linker_0, # of connection points: 2
#     Edge 12, Type (0, 1), BuildingBlock: UVAHIK_clean_linker_0, # of connection points: 2
#     Edge 13, Type (0, 1), BuildingBlock: UVAHIK_clean_linker_0, # of connection points: 2
#     Edge 14, Type (0, 1), BuildingBlock: UVAHIK_clean_linker_0, # of connection points: 2
#     Edge 15, Type (0, 1), BuildingBlock: UVAHIK_clean_linker_0, # of connection points: 2
#     Edge 16, Type (0, 1), BuildingBlock: UVAHIK_clean_linker_0, # of connection points: 2
#     Edge 17, Type (0, 1), BuildingBlock: UVAHIK_clean_linker_0, # of connection points: 2
#     Edge 18, Type (0, 1), BuildingBlock: UVAHIK_clean_linker_0, # of connection points: 2
#     Edge 19, Type (0, 1), BuildingBlock: UVAHIK_clean_linker_0, # of connection points: 2
#     Edge 20, Type (0, 1), BuildingBlock: UVAHIK_clean_linker_0, # of connection points: 2
#     Edge 21, Type (0, 1), BuildingBlock: UVAHIK_clean_linker_0, # of connection points: 2
#     Edge 22, Type (0, 1), BuildingBlock: UVAHIK_clean_linker_0, # of connection points: 2
#     Edge 23, Type (0, 1), BuildingBlock: UVAHIK_clean_linker_0, # of connection points: 2
#     Edge 24, Type (0, 1), BuildingBlock: UVAHIK_clean_linker_0, # of connection points: 2
#     Edge 25, Type (0, 1), BuildingBlock: UVAHIK_clean_linker_0, # of connection points: 2
#     Edge 26, Type (0, 1), BuildingBlock: UVAHIK_clean_linker_0, # of connection points: 2
# Relax obj value: 0.227
# Max RMSD: 0.218
# Mean RMSD: 0.156
data_MOF--net-anh--node1-NUHQIS_clean_sbu_0--node2-CUQRIR_clean_linker_1--edge1-UVAHIK_clean_linker_0
_symmetry_space_group_name_H-M    P1
_symmetry_Int_Tables_number       1
_symmetry_cell_setting            triclinic
loop_
_symmetry_equiv_pos_as_xyz
'x, y, z'
_cell_length_a     36.404725
_cell_length_b     36.414299
_cell_length_c     61.63332
_cell_angle_alpha  88.190249
_cell_angle_beta   89.587167
_cell_angle_gamma 120.10714
loop_
_atom_site_label
_atom_site_type_symbol
_atom_site_fract_x
_atom_site_fract_y
_atom_site_fract_z
_atom_type_partial_charge
Tb0 Tb 0.18698 0.58908 0.17063 0.0
Eu1 Eu 0.13838 0.63811 0.15299 0.0
C2 C 0.15127 0.62842 0.2033 0.0
C3 C 1.08756 0.53745 0.16309 0.0
C4 C 0.25707 0.56165 0.20222 0.0
C5 C 0.28123 0.53983 0.23413 0.0
C6 C 0.24925 0.53263 0.21959 0.0
C7 C 0.29658 0.59925 0.2003 0.0
C8 C 0.32869 0.60627 0.21468 0.0
C9 C 0.32185 0.576 0.23138 0.0
C10 C 0.22387 0.55169 0.1862 0.0
O11 O 0.17474 0.57363 0.13641 0.0
O12 O 0.17858 0.6359 0.12606 0.0
O13 O 0.20114 0.69073 0.16459 0.0
O14 O 0.23801 0.65468 0.16331 0.0
C15 C 0.17951 0.60177 0.12113 0.0
O16 O 0.12757 0.671 0.12576 0.0
O17 O 1.09396 0.66145 0.15634 0.0
O18 O 0.1243 0.62646 0.18879 0.0
O19 O 0.18371 0.62384 0.19798 0.0
O20 O 0.11938 0.54301 0.17519 0.0
O21 O 1.09117 0.56798 0.1497 0.0
C22 C 0.23716 0.69038 0.16467 0.0
O23 O 0.18816 0.54647 0.19394 0.0
O24 O 0.23517 0.57371 0.16779 0.0
C25 C 1.05571 0.64999 0.1241 0.0
C26 C 0.98265 0.60502 0.0993 0.0
C27 C 1.01523 0.64571 0.0922 0.0
C28 C 1.05148 0.668 0.10452 0.0
C29 C 1.02326 0.60943 0.13122 0.0
C30 C 0.98703 0.58732 0.11903 0.0
C31 C 1.0959 0.67105 0.13564 0.0
H32 H 0.27467 0.51619 0.24698 0.0
H33 H 0.2187 0.50374 0.22157 0.0
H34 H 0.30324 0.62256 0.18725 0.0
H35 H 0.35966 0.63421 0.21181 0.0
H36 H 1.013 0.6601 0.07699 0.0
H37 H 1.07661 0.69888 0.09855 0.0
H38 H 1.02608 0.59445 0.14609 0.0
H39 H 0.96224 0.55648 0.12525 0.0
Tb40 Tb 0.74719 0.13377 0.49979 0.0
Eu41 Eu 0.64507 0.07754 0.49715 0.0
C42 C 0.68869 0.10171 0.54091 0.0
C43 C 0.70279 1.03288 0.50037 0.0
C44 C 0.84311 0.23103 0.50538 0.0
C45 C 0.88956 0.30071 0.48863 0.0
C46 C 0.88011 0.25904 0.49342 0.0
C47 C 0.81784 0.24632 0.51418 0.0
C48 C 0.82701 0.28771 0.50924 0.0
C49 C 0.86165 0.31466 0.49539 0.0
C50 C 0.82491 0.185 0.50381 0.0
O51 O 0.73467 0.11486 0.46602 0.0
O52 O 0.66799 0.10608 0.46369 0.0
O53 O 0.66022 0.14484 0.50349 0.0
O54 O 0.72876 0.18058 0.49042 0.0
C55 C 0.70341 0.11266 0.45443 0.0
O56 O 0.58581 1.02663 0.48485 0.0
O57 O 0.5845 1.06699 0.50967 0.0
O58 O 0.66428 1.06808 0.53021 0.0
O59 O 0.71696 0.13622 0.53018 0.0
O60 O 0.7349 1.069 0.50665 0.0
O61 O 0.66801 1.03073 0.49284 0.0
C62 C 0.69421 0.18043 0.49683 0.0
O63 O 0.8001 0.16136 0.51996 0.0
O64 O 0.8078 0.17089 0.4852 0.0
C65 C 0.53044 0.99618 0.51141 0.0
C66 C 0.46828 0.92806 0.53736 0.0
C67 C 0.45732 0.95259 0.52367 0.0
C68 C 0.48815 0.98636 0.51085 0.0
C69 C 0.54192 0.97224 0.52511 0.0
C70 C 0.51093 0.93814 0.53794 0.0
C71 C 0.56242 1.03313 0.49863 0.0
H72 H 0.91743 0.32115 0.47856 0.0
H73 H 0.89988 0.24782 0.48638 0.0
H74 H 0.78878 0.22521 0.52329 0.0
H75 H 0.80482 0.29713 0.51485 0.0
H76 H 0.42461 0.945 0.52238 0.0
H77 H 0.47894 1.00479 0.50047 0.0
H78 H 0.57476 0.97998 0.52589 0.0
H79 H 0.52022 0.91972 0.54826 0.0
Tb80 Tb 0.70226 0.68568 0.83117 0.0
Eu81 Eu 0.6486 0.58305 0.82752 0.0
C82 C 0.6687 0.62524 0.87284 0.0
C83 C 0.75115 0.63434 0.83171 0.0
C84 C 0.72137 0.79314 0.83103 0.0
C85 C 0.71471 0.84764 0.81083 0.0
C86 C 0.73864 0.82875 0.81666 0.0
C87 C 0.68131 0.77881 0.84088 0.0
C88 C 0.6574 0.79763 0.83507 0.0
C89 C 0.67309 0.831 0.81925 0.0
C90 C 0.74002 0.76558 0.83155 0.0
O91 O 0.70853 0.66971 0.79785 0.0
O92 O 0.64347 0.61117 0.79574 0.0
O93 O 0.59914 0.60123 0.83485 0.0
O94 O 0.63705 0.67317 0.82686 0.0
C95 C 0.67645 0.64357 0.78624 0.0
O96 O 0.63824 0.52509 0.81242 0.0
O97 O 0.595 0.52209 0.83786 0.0
O98 O 0.66981 0.59575 0.86175 0.0
O99 O 0.67248 0.6596 0.86307 0.0
O100 O 0.74889 0.6666 0.8393 0.0
O101 O 0.71812 0.60248 0.82289 0.0
C102 C 0.60088 0.6379 0.83159 0.0
O103 O 0.73252 0.74133 0.84896 0.0
O104 O 0.73367 0.74445 0.81402 0.0
C105 C 0.60359 0.46218 0.83508 0.0
C106 C 0.58459 0.38154 0.85173 0.0
C107 C 0.59495 0.39278 0.82955 0.0
C108 C 0.60422 0.43266 0.82132 0.0
C109 C 0.59601 0.45216 0.85751 0.0
C110 C 0.58641 0.41203 0.86575 0.0
C111 C 0.60585 0.50069 0.82536 0.0
H112 H 0.72795 0.87389 0.79892 0.0
H113 H 0.76933 0.84 0.80875 0.0
H114 H 0.66712 0.75104 0.85184 0.0
H115 H 0.62543 0.78397 0.8418 0.0
H116 H 0.59316 0.36981 0.81823 0.0
H117 H 0.60976 0.43965 0.80399 0.0
H118 H 0.59562 0.47453 0.86855 0.0
H119 H 0.57884 0.40429 0.88291 0.0
C120 C 0.66392 0.11299 0.19168 0.0
N121 N 0.69161 0.14136 0.20575 0.0
N122 N 0.62999 0.08024 0.20257 0.0
C123 C 0.67101 0.11641 0.16749 0.0
C124 C 0.63808 0.09003 0.22367 0.0
N125 N 0.67513 0.12685 0.22562 0.0
C126 C 0.60979 1.06344 0.24258 0.0
H127 H 0.68656 0.15013 0.1616 0.0
H128 H 0.64091 0.09763 0.15893 0.0
H129 H 0.69239 0.10399 0.16343 0.0
H130 H 0.61965 1.04049 0.24818 0.0
H131 H 0.57609 1.04544 0.23782 0.0
H132 H 0.61268 0.08358 0.25634 0.0
C133 C 0.70566 0.61016 0.52324 0.0
N134 N 0.70152 0.63552 0.53773 0.0
N135 N 0.70288 0.57512 0.53351 0.0
C136 C 0.71283 0.61973 0.4992 0.0
C137 C 0.69651 0.57993 0.55465 0.0
N138 N 0.69552 0.6162 0.5572 0.0
C139 C 0.69204 0.54938 0.57292 0.0
H140 H 0.69609 0.63643 0.49338 0.0
H141 H 0.70201 0.5904 0.49013 0.0
H142 H 0.74733 0.64076 0.49574 0.0
H143 H 0.72407 0.55871 0.57897 0.0
H144 H 0.67744 0.51648 0.56724 0.0
H145 H 0.67255 0.54998 0.58665 0.0
C146 C 0.17116 0.6241 0.86105 0.0
N147 N 0.19728 0.61929 0.87526 0.0
N148 N 0.13516 0.61804 0.87137 0.0
C149 C 0.1787 0.63086 0.83689 0.0
C150 C 0.14043 0.60959 0.89229 0.0
N151 N 0.17749 0.60984 0.89463 0.0
C152 C 0.11036 0.6034 0.91083 0.0
H153 H 0.19685 0.66547 0.83281 0.0
H154 H 0.14815 0.61707 0.82835 0.0
H155 H 0.19726 0.61636 0.83105 0.0
H156 H 1.08733 0.56897 0.91341 0.0
H157 H 1.09254 0.62013 0.90727 0.0
H158 H 0.12776 0.61525 0.92608 0.0
C159 C 1.08677 0.70734 0.45766 0.0
N160 N 1.07576 0.70061 0.43656 0.0
N161 N 0.12945 0.72895 0.45934 0.0
C162 C 1.0562 0.68646 0.47674 0.0
C163 C 0.14413 0.73501 0.43858 0.0
N164 N 0.11163 0.71737 0.42468 0.0
C165 C 0.1905 0.7563 0.43224 0.0
H166 H 1.07269 0.69244 0.4924 0.0
H167 H 1.03707 0.65166 0.4747 0.0
H168 H 1.03404 0.69896 0.4774 0.0
H169 H 0.20134 0.7328 0.43373 0.0
H170 H 0.20947 0.78217 0.44339 0.0
H171 H 0.19622 0.76945 0.41527 0.0
C172 C 0.39221 0.98942 0.75692 0.0
N173 N 0.41385 0.98996 0.73886 0.0
N174 N 0.39504 1.0276 0.75963 0.0
C175 C 0.37204 0.9526 0.77329 0.0
C176 C 0.41626 1.05038 0.7413 0.0
N177 N 0.42736 1.02749 0.72875 0.0
C178 C 0.43046 0.09659 0.73697 0.0
H179 H 0.35231 0.95712 0.78554 0.0
H180 H 0.397 0.94882 0.78157 0.0
H181 H 0.35174 0.92286 0.76481 0.0
H182 H 0.45443 0.11597 0.74898 0.0
H183 H 0.40307 0.10169 0.73879 0.0
H184 H 0.44419 0.10777 0.72034 0.0
C185 C 0.59146 0.50839 0.12954 0.0
N186 N 0.59415 0.50827 0.10765 0.0
N187 N 0.56924 0.52719 0.13552 0.0
C188 C 0.61513 0.49521 0.14488 0.0
C189 C 0.55866 0.53873 0.11654 0.0
N190 N 0.57384 0.52723 0.09956 0.0
C191 C 0.53417 0.56177 0.11479 0.0
H192 H 0.60277 0.46063 0.14377 0.0
H193 H 0.61182 0.50213 0.16194 0.0
H194 H 0.64931 0.51192 0.14 0.0
H195 H 0.55667 0.59645 0.11523 0.0
H196 H 0.51134 0.55247 0.12873 0.0
H197 H 0.51686 0.55503 0.09935 0.0
C198 C 0.3626 0.5423 0.24531 0.0
C199 C 0.35873 0.57871 0.24298 0.0
C200 C 0.40214 0.54615 0.24873 0.0
C201 C 0.49017 0.55979 0.24798 0.0
H202 H 0.54409 0.63661 0.19808 0.0
C203 C 0.58919 0.58204 0.16231 0.0
C204 C 0.56499 0.53952 0.15678 0.0
C205 C 0.58237 0.59483 0.18234 0.0
C206 C 0.5308 0.61572 0.21238 0.0
H207 H 0.39147 0.64684 0.24677 0.0
H208 H 0.46088 0.65363 0.25246 0.0
H209 H 0.49701 0.64667 0.22138 0.0
H210 H 0.5169 0.47642 0.16765 0.0
H211 H 0.50308 0.4985 0.20233 0.0
H212 H 0.52172 0.52682 0.23765 0.0
C213 C 0.43351 0.62219 0.25108 0.0
C214 C 0.50361 0.62163 0.22595 0.0
C215 C 0.39381 0.61833 0.24767 0.0
C216 C 0.53555 0.5094 0.17181 0.0
C217 C 0.52825 0.52213 0.19173 0.0
C218 C 0.51756 0.5539 0.23439 0.0
C219 C 0.43865 0.58653 0.24973 0.0
C220 C 0.48016 0.59159 0.24277 0.0
C221 C 0.55065 0.56528 0.19697 0.0
C222 C 0.5354 0.57984 0.21546 0.0
H223 H 0.33635 0.51117 0.24194 0.0
H224 H 0.40457 0.51781 0.2477 0.0
H225 H 0.47351 0.53682 0.26122 0.0
H226 H 0.61249 0.60542 0.15084 0.0
H227 H 0.60062 0.62814 0.18595 0.0
C228 C 0.85366 0.37936 0.49813 0.0
C229 C 0.86569 0.35475 0.48606 0.0
C230 C 0.85596 0.41597 0.48877 0.0
C231 C 0.87863 0.47803 0.43539 0.0
H232 H 0.93004 0.57392 0.4727 0.0
C233 C 1.0295 0.63134 0.42115 0.0
C234 C 1.03453 0.66877 0.4297 0.0
C235 C 0.98957 0.59489 0.42131 0.0
C236 C 0.91439 0.54745 0.46209 0.0
H237 H 0.88764 0.34861 0.45424 0.0
H238 H 0.89487 0.41346 0.43865 0.0
H239 H 0.8964 0.50273 0.48872 0.0
H240 H 1.00171 0.69927 0.44261 0.0
H241 H 0.93178 0.63428 0.44439 0.0
H242 H 0.90219 0.52382 0.40866 0.0
C243 C 0.88227 0.40413 0.45511 0.0
C244 C 0.89506 0.50634 0.4713 0.0
C245 C 0.87932 0.36731 0.46432 0.0
C246 C 0.99835 0.67049 0.43612 0.0
C247 C 0.95849 0.63357 0.43699 0.0
C248 C 0.89903 0.51927 0.42617 0.0
C249 C 0.87086 0.42919 0.4672 0.0
C250 C 0.87941 0.47116 0.45799 0.0
C251 C 0.95439 0.595 0.43071 0.0
C252 C 0.91915 0.55419 0.43946 0.0
H253 H 0.84291 0.37072 0.51491 0.0
H254 H 0.84651 0.43412 0.49858 0.0
H255 H 0.86525 0.45167 0.42466 0.0
H256 H 1.05686 0.62881 0.41659 0.0
H257 H 0.98738 0.56541 0.41665 0.0
C258 C 0.61547 0.84919 0.82329 0.0
C259 C 0.64452 0.84505 0.80995 0.0
C260 C 0.58672 0.85967 0.81423 0.0
C261 C 0.55195 0.91057 0.79225 0.0
H262 H 0.49773 0.86677 0.73755 0.0
C263 C 0.48178 0.99427 0.74541 0.0
C264 C 0.43931 0.96991 0.73944 0.0
C265 C 0.50489 0.97494 0.7514 0.0
C266 C 0.51241 0.87888 0.75291 0.0
H267 H 0.66554 0.84775 0.77659 0.0
H268 H 0.61645 0.86757 0.76088 0.0
H269 H 0.54051 0.83934 0.75447 0.0
H270 H 0.38795 0.90638 0.73418 0.0
H271 H 0.42865 0.87167 0.7452 0.0
H272 H 0.52416 0.95005 0.79081 0.0
C273 C 0.61548 0.86211 0.77831 0.0
C274 C 0.53712 0.86355 0.76249 0.0
C275 C 0.64416 0.85157 0.78736 0.0
C276 C 0.42087 0.92568 0.73847 0.0
C277 C 0.44407 0.90601 0.74477 0.0
C278 C 0.52748 0.92585 0.7827 0.0
C279 C 0.58647 0.8663 0.79164 0.0
C280 C 0.55762 0.87976 0.78212 0.0
C281 C 0.48572 0.93058 0.75213 0.0
C282 C 0.50824 0.91087 0.76273 0.0
H283 H 0.61497 0.84439 0.84075 0.0
H284 H 0.56452 0.86237 0.82492 0.0
H285 H 0.56755 0.92399 0.80725 0.0
H286 H 0.49616 1.02816 0.74712 0.0
H287 H 0.53711 0.99465 0.75672 0.0
C288 C 0.92197 0.53728 0.08606 0.0
C289 C 0.94307 0.58184 0.08696 0.0
C290 C 0.88105 0.51492 0.07796 0.0
C291 C 0.79665 0.52746 0.0509 0.0
H292 H 0.72596 0.45522 0.09926 0.0
C293 C 0.65829 0.53652 0.08451 0.0
C294 C 0.6244 0.50192 0.0957 0.0
C295 C 0.69037 0.53215 0.07476 0.0
C296 C 0.74468 0.47402 0.08517 0.0
H297 H 0.93909 0.63795 0.07835 0.0
H298 H 0.86821 0.59917 0.06414 0.0
H299 H 0.79983 0.47405 0.09666 0.0
H300 H 0.59581 0.43526 0.10482 0.0
H301 H 0.65283 0.42736 0.08801 0.0
H302 H 0.74198 0.52982 0.04032 0.0
C303 C 0.88325 0.58141 0.06956 0.0
C304 C 0.78722 0.48489 0.08368 0.0
C305 C 0.92395 0.60372 0.0778 0.0
C306 C 0.62202 0.46228 0.09631 0.0
C307 C 0.6544 0.45785 0.08665 0.0
C308 C 0.75399 0.51636 0.05231 0.0
C309 C 0.86069 0.53674 0.07041 0.0
C310 C 0.81423 0.51401 0.06737 0.0
C311 C 0.6895 0.49309 0.07624 0.0
C312 C 0.72845 0.49199 0.07031 0.0
H313 H 0.93634 0.51953 0.09248 0.0
H314 H 0.86451 0.48051 0.07862 0.0
H315 H 0.81664 0.5493 0.03791 0.0
H316 H 0.66094 0.5675 0.08424 0.0
H317 H 0.71732 0.56024 0.06739 0.0
C318 C 0.39914 0.89108 0.55805 0.0
C319 C 0.43405 0.88988 0.5491 0.0
C320 C 0.36052 0.85365 0.56174 0.0
C321 C 0.31069 0.75756 0.53155 0.0
H322 H 0.21098 0.75571 0.55541 0.0
C323 C 0.16429 0.76032 0.4933 0.0
C324 C 0.15249 0.72895 0.47807 0.0
C325 C 0.18939 0.7618 0.51068 0.0
C326 C 0.2384 0.75529 0.54879 0.0
H327 H 0.45866 0.84849 0.54128 0.0
H328 H 0.39172 0.78293 0.54871 0.0
H329 H 0.27714 0.78934 0.57517 0.0
H330 H 0.15417 0.67284 0.46936 0.0
H331 H 0.19835 0.67522 0.49975 0.0
H332 H 0.27296 0.7258 0.50466 0.0
C333 C 0.39339 0.81283 0.55178 0.0
C334 C 0.27634 0.77455 0.56008 0.0
C335 C 0.43196 0.85045 0.5477 0.0
C336 C 0.16379 0.6976 0.48095 0.0
C337 C 0.18873 0.69891 0.4983 0.0
C338 C 0.27278 0.73791 0.52046 0.0
C339 C 0.35629 0.81427 0.55672 0.0
C340 C 0.31384 0.77909 0.55065 0.0
C341 C 0.20289 0.73179 0.513 0.0
C342 C 0.23718 0.73935 0.52818 0.0
H343 H 0.40041 0.92115 0.56006 0.0
H344 H 0.33317 0.85651 0.56592 0.0
H345 H 0.33847 0.75999 0.52361 0.0
H346 H 0.15535 0.78442 0.49126 0.0
H347 H 0.2003 0.78793 0.5215 0.0
C348 C 0.58273 0.31218 0.85079 0.0
C349 C 0.56633 0.33654 0.85915 0.0
C350 C 0.55872 0.26801 0.85208 0.0
C351 C 0.44551 0.1889 0.85221 0.0
H352 H 0.49454 0.11961 0.8381 0.0
C353 C 0.38244 0.07404 0.7834 0.0
C354 C 0.39735 1.04573 0.78043 0.0
C355 C 0.39342 0.0986 0.80182 0.0
C356 C 0.47921 0.13731 0.84244 0.0
H357 H 0.51456 0.33394 0.87811 0.0
H358 H 0.4733 0.25666 0.88116 0.0
H359 H 0.53497 0.18226 0.85829 0.0
H360 H 0.43243 1.01842 0.79546 0.0
H361 H 0.44583 1.05581 0.82854 0.0
H362 H 0.38925 0.14337 0.83689 0.0
C363 C 0.50402 0.27163 0.87285 0.0
C364 C 0.50309 0.17405 0.85384 0.0
C365 C 0.52795 0.31598 0.87135 0.0
C366 C 0.41961 1.03928 0.79728 0.0
C367 C 0.42851 1.06194 0.81613 0.0
C368 C 0.421 0.15134 0.8414 0.0
C369 C 0.51789 0.24717 0.86202 0.0
C370 C 0.48784 0.20197 0.85737 0.0
C371 C 0.41819 0.09408 0.8181 0.0
C372 C 0.43861 0.12659 0.83495 0.0
H373 H 0.61266 0.32726 0.84169 0.0
H374 H 0.57079 0.25064 0.84347 0.0
H375 H 0.43225 0.20923 0.8548 0.0
H376 H 0.36433 0.07887 0.77096 0.0
H377 H 0.38463 0.12285 0.80244 0.0
C378 C 0.73652 0.99132 0.51511 0.0
C379 C 0.70471 0.99279 0.5029 0.0
C380 C 0.7369 0.95312 0.5184 0.0
C381 C 0.66696 0.8347 0.51499 0.0
H382 H 0.77316 0.83558 0.52142 0.0
C383 C 0.66976 0.68155 0.5415 0.0
C384 C 0.70238 0.67543 0.5334 0.0
C385 C 0.67061 0.72019 0.53765 0.0
C386 C 0.74309 0.83444 0.51943 0.0
H387 H 0.64885 0.95477 0.48413 0.0
H388 H 0.65024 0.88895 0.48919 0.0
H389 H 0.77394 0.90199 0.51412 0.0
H390 H 0.76179 0.70548 0.51501 0.0
H391 H 0.76267 0.77223 0.50742 0.0
H392 H 0.63615 0.76708 0.51946 0.0
C393 C 0.67437 0.91695 0.49684 0.0
C394 C 0.74351 0.87293 0.51555 0.0
C395 C 0.67375 0.95502 0.49375 0.0
C396 C 0.7359 0.70898 0.52124 0.0
C397 C 0.73662 0.74758 0.51719 0.0
C398 C 0.66655 0.79623 0.51868 0.0
C399 C 0.7057 0.91512 0.50941 0.0
C400 C 0.70543 0.87382 0.51332 0.0
C401 C 0.70398 0.75395 0.52535 0.0
C402 C 0.70459 0.79533 0.52107 0.0
H403 H 0.76075 1.01957 0.52257 0.0
H404 H 0.76126 0.95333 0.52844 0.0
H405 H 0.63679 0.83362 0.51373 0.0
H406 H 0.64326 0.6562 0.5507 0.0
H407 H 0.64514 0.72361 0.54459 0.0
C408 C 0.82463 0.66201 0.84666 0.0
C409 C 0.79181 0.63352 0.83351 0.0
C410 C 0.86237 0.66065 0.84877 0.0
C411 C 0.90882 0.59029 0.83926 0.0
H412 H 1.01454 0.6927 0.85056 0.0
C413 C 1.05727 0.58373 0.86744 0.0
C414 C 1.09822 0.61811 0.86264 0.0
C415 C 1.02096 0.58567 0.8619 0.0
C416 C 0.98556 0.66374 0.84711 0.0
H417 H 0.77391 0.58168 0.81192 0.0
H418 H 0.8398 0.58014 0.81498 0.0
H419 H 0.95069 0.69664 0.84444 0.0
H420 H 0.13311 0.68091 0.84736 0.0
H421 H 1.0698 0.68403 0.83679 0.0
H422 H 0.94391 0.55762 0.84115 0.0
C423 C 0.83614 0.60292 0.82424 0.0
C424 C 0.94843 0.66589 0.84395 0.0
C425 C 0.79819 0.60397 0.82233 0.0
C426 C 1.10197 0.65387 0.8512 0.0
C427 C 1.06553 0.65578 0.84546 0.0
C428 C 0.946 0.58821 0.84221 0.0
C429 C 0.8689 0.63106 0.83762 0.0
C430 C 0.9092 0.62912 0.8402 0.0
C431 C 1.02429 0.62197 0.85108 0.0
C432 C 0.98502 0.62479 0.84647 0.0
H433 H 0.82094 0.68507 0.85566 0.0
H434 H 0.88608 0.68243 0.85956 0.0
H435 H 0.87955 0.56101 0.83668 0.0
H436 H 1.05339 0.55565 0.87614 0.0
H437 H 0.99028 0.55907 0.86687 0.0
C438 C 0.27922 0.76698 0.17515 0.0
C439 C 0.27814 0.7312 0.16648 0.0
C440 C 0.31794 0.8049 0.17746 0.0
C441 C 0.43657 0.84845 0.17683 0.0
H442 H 0.43954 0.95626 0.17633 0.0
C443 C 0.58673 1.00189 0.20248 0.0
C444 C 0.59467 1.04184 0.19451 0.0
C445 C 0.54939 0.96463 0.19748 0.0
C446 C 0.43979 0.92669 0.17618 0.0
H447 H 0.31729 0.70789 0.15292 0.0
H448 H 0.38415 0.77402 0.15585 0.0
H449 H 0.37328 0.89177 0.17006 0.0
H450 H 0.56989 0.07394 0.17466 0.0
H451 H 0.50589 1.00893 0.16461 0.0
H452 H 0.50343 0.8835 0.18176 0.0
C453 C 0.35546 0.77276 0.16174 0.0
C454 C 0.40116 0.88915 0.17298 0.0
C455 C 0.31683 0.73463 0.15985 0.0
C456 C 0.56496 1.04353 0.18073 0.0
C457 C 0.52778 1.00612 0.17537 0.0
C458 C 0.47529 0.88601 0.17962 0.0
C459 C 0.3569 0.8086 0.17078 0.0
C460 C 0.39865 0.84918 0.17348 0.0
C461 C 0.51887 0.96594 0.18399 0.0
C462 C 0.47764 0.92588 0.17965 0.0
H463 H 0.25012 0.76545 0.18063 0.0
H464 H 0.31715 0.83099 0.18492 0.0
H465 H 0.43654 0.81872 0.17769 0.0
H466 H 0.60898 0.99969 0.21325 0.0
H467 H 0.54401 0.93497 0.20491 0.0
C468 C 0.66253 0.22442 0.50913 0.0
C469 C 0.69451 0.22164 0.49761 0.0
C470 C 0.66404 0.26355 0.51087 0.0
C471 C 0.73893 0.38117 0.50498 0.0
H472 H 0.635 0.38557 0.50906 0.0
C473 C 0.73784 0.53191 0.53236 0.0
C474 C 0.70646 0.54046 0.52483 0.0
C475 C 0.73758 0.49462 0.52697 0.0
C476 C 0.66452 0.38532 0.50763 0.0
H477 H 0.75275 0.25825 0.47843 0.0
H478 H 0.75507 0.326 0.48109 0.0
H479 H 0.63153 0.31821 0.50323 0.0
H480 H 0.65049 0.51689 0.50546 0.0
H481 H 0.65074 0.45256 0.49511 0.0
H482 H 0.77205 0.44845 0.50871 0.0
C483 C 0.72911 0.29817 0.48923 0.0
C484 C 0.66247 0.34623 0.50463 0.0
C485 C 0.72766 0.25906 0.48757 0.0
C486 C 0.67548 0.51145 0.51117 0.0
C487 C 0.67531 0.47418 0.5056 0.0
C488 C 0.74103 0.42033 0.50778 0.0
C489 C 0.69746 0.30121 0.50105 0.0
C490 C 0.69963 0.34336 0.50345 0.0
C491 C 0.70589 0.46466 0.51376 0.0
C492 C 0.70383 0.4231 0.5094 0.0
H493 H 0.63666 0.19646 0.51724 0.0
H494 H 0.63938 0.26429 0.52043 0.0
H495 H 0.76827 0.38051 0.50451 0.0
H496 H 0.76178 0.55353 0.54313 0.0
H497 H 0.76136 0.48862 0.53394 0.0
C498 C 0.52135 0.6029 0.82944 0.0
C499 C 0.56044 0.63894 0.83387 0.0
C500 C 0.48285 0.60224 0.83289 0.0
C501 C 0.43646 0.67211 0.84636 0.0
H502 H 0.3362 0.56274 0.85916 0.0
C503 C 0.2695 0.65624 0.85761 0.0
C504 C 0.23805 0.62233 0.87056 0.0
C505 C 0.30865 0.65889 0.85284 0.0
C506 C 0.36372 0.59385 0.85601 0.0
H507 H 0.58936 0.70262 0.84554 0.0
H508 H 0.52262 0.70116 0.85257 0.0
H509 H 0.40339 0.56672 0.85242 0.0
H510 H 0.2236 0.56447 0.88857 0.0
H511 H 0.29221 0.57047 0.88185 0.0
H512 H 0.39715 0.69945 0.85144 0.0
C513 C 0.52129 0.6736 0.84565 0.0
C514 C 0.40272 0.59608 0.85158 0.0
C515 C 0.55994 0.67455 0.84168 0.0
C516 C 0.24718 0.59146 0.87886 0.0
C517 C 0.28662 0.59455 0.87453 0.0
C518 C 0.39756 0.66996 0.85127 0.0
C519 C 0.48182 0.63721 0.84151 0.0
C520 C 0.43994 0.6352 0.84648 0.0
C521 C 0.31815 0.62813 0.86125 0.0
C522 C 0.36025 0.63073 0.85612 0.0
H523 H 0.52046 0.57499 0.82321 0.0
H524 H 0.45388 0.574 0.82869 0.0
H525 H 0.46369 0.70298 0.84229 0.0
H526 H 0.26387 0.68092 0.85118 0.0
H527 H 0.33115 0.68498 0.84228 0.0
C528 C 1.01018 0.48853 0.15403 0.0
C529 C 1.04644 0.49614 0.16557 0.0
C530 C 0.97155 0.44991 0.15714 0.0
C531 C 0.92648 0.33796 0.1797 0.0
H532 H 0.81984 0.33746 0.18016 0.0
C533 C 0.76378 0.18024 0.18835 0.0
C534 C 0.73117 0.1804 0.2006 0.0
C535 C 0.80177 0.2183 0.18315 0.0
C536 C 0.84928 0.3369 0.18027 0.0
H537 H 1.06986 0.46838 0.18949 0.0
H538 H 1.00325 0.40215 0.19504 0.0
H539 H 0.88618 0.40398 0.17295 0.0
H540 H 0.71255 0.22062 0.21664 0.0
H541 H 0.77896 0.2868 0.20829 0.0
H542 H 0.88985 0.27121 0.18765 0.0
C543 C 1.00449 0.42549 0.18327 0.0
C544 C 0.8875 0.37519 0.17581 0.0
C545 C 1.04291 0.4639 0.18017 0.0
C546 C 0.7374 0.21946 0.20751 0.0
C547 C 0.77533 0.25751 0.20238 0.0
C548 C 0.88833 0.29973 0.18417 0.0
C549 C 0.96807 0.41772 0.17186 0.0
C550 C 0.92683 0.37647 0.17562 0.0
C551 C 0.80823 0.25766 0.19007 0.0
C552 C 0.84903 0.29852 0.18469 0.0
H553 H 1.01151 0.51246 0.14264 0.0
H554 H 0.94451 0.44518 0.14783 0.0
H555 H 0.95583 0.3372 0.17941 0.0
H556 H 0.75993 0.15057 0.18289 0.0
H557 H 0.82587 0.21683 0.17345 0.0
C558 C 0.16882 0.61342 0.08228 0.0
C559 C 0.18339 0.59495 0.09784 0.0
C560 C 0.17251 0.60855 0.06017 0.0
C561 C 0.2344 0.59859 0.01845 0.0
H562 H 0.1311 0.5515 0.98559 0.0
C563 C 0.22338 0.63369 0.92644 0.0
C564 C 0.19156 0.60074 0.91482 0.0
C565 C 0.22853 0.62716 0.94852 0.0
C566 C 0.16027 0.56415 0.99447 0.0
H567 H 0.21362 0.55709 0.10236 0.0
H568 H 0.22126 0.54956 0.06314 0.0
H569 H 0.12684 0.55021 0.0251 0.0
H570 H 0.14245 0.53474 0.91629 0.0
H571 H 0.15163 0.52284 0.95468 0.0
H572 H 0.26794 0.61457 0.98759 0.0
C573 C 0.20657 0.56742 0.06838 0.0
C574 C 0.15776 0.56352 0.0171 0.0
C575 C 0.20199 0.57151 0.09072 0.0
C576 C 0.16733 0.56039 0.92503 0.0
C577 C 0.17236 0.55381 0.94699 0.0
C578 C 0.23699 0.59986 0.99565 0.0
C579 C 0.19157 0.58576 0.05296 0.0
C580 C 0.19474 0.58123 0.0293 0.0
C581 C 0.20168 0.58759 0.95925 0.0
C582 C 0.19989 0.58304 0.98341 0.0
H583 H 0.15408 0.63145 0.08719 0.0
H584 H 0.16078 0.62305 0.04862 0.0
H585 H 0.26337 0.61285 0.02753 0.0
H586 H 0.2419 0.66516 0.91887 0.0
H587 H 0.25124 0.65388 0.95753 0.0
C588 C 0.67136 0.10414 0.41789 0.0
C589 C 0.70777 0.11804 0.43039 0.0
C590 C 0.67479 0.11108 0.39537 0.0
C591 C 0.74884 0.1396 0.34761 0.0
H592 H 0.6643 0.15951 0.32055 0.0
C593 C 0.68976 0.17031 0.25764 0.0
C594 C 0.69621 0.14172 0.24581 0.0
C595 C 0.70009 0.17605 0.27959 0.0
C596 C 0.68883 0.15491 0.3277 0.0
H597 H 0.77651 0.14983 0.42894 0.0
H598 H 0.7827 0.16302 0.38953 0.0
H599 H 0.66483 0.15289 0.35967 0.0
H600 H 0.71898 0.09732 0.24718 0.0
H601 H 0.73602 0.106 0.28556 0.0
H602 H 0.77357 0.14289 0.31552 0.0
C603 C 0.75132 0.14599 0.39713 0.0
C604 C 0.68857 0.15018 0.35029 0.0
C605 C 0.74782 0.13852 0.41975 0.0
C606 C 0.71487 0.12036 0.25596 0.0
C607 C 0.72452 0.12541 0.27799 0.0
C608 C 0.74946 0.14488 0.32494 0.0
C609 C 0.7148 0.13276 0.38464 0.0
C610 C 0.71785 0.1414 0.36059 0.0
C611 C 0.71588 0.15225 0.29036 0.0
C612 C 0.71889 0.15175 0.31459 0.0
H613 H 0.63995 0.08779 0.4255 0.0
H614 H 0.64583 0.0992 0.38637 0.0
H615 H 0.7719 0.13282 0.35486 0.0
H616 H 0.67426 0.18615 0.25025 0.0
H617 H 0.69382 0.19773 0.28832 0.0
C618 C 0.64142 0.62425 0.75035 0.0
C619 C 0.67825 0.64839 0.76219 0.0
C620 C 0.6429 0.62659 0.72768 0.0
C621 C 0.7086 0.6897 0.67916 0.0
H622 H 0.64207 0.58256 0.65134 0.0
C623 C 0.72896 0.66064 0.5884 0.0
C624 C 0.69219 0.63219 0.57772 0.0
C625 C 0.72669 0.66854 0.61035 0.0
C626 C 0.66033 0.61292 0.65877 0.0
H627 H 0.74542 0.69493 0.7594 0.0
H628 H 0.74828 0.69832 0.71967 0.0
H629 H 0.64 0.58441 0.6906 0.0
H630 H 0.62425 0.59136 0.58075 0.0
H631 H 0.6197 0.60564 0.61895 0.0
H632 H 0.72969 0.71779 0.64704 0.0
C633 C 0.71804 0.67797 0.72797 0.0
C634 C 0.65915 0.614 0.68137 0.0
C635 C 0.71648 0.67587 0.75077 0.0
C636 C 0.65282 0.6137 0.58878 0.0
C637 C 0.65044 0.62153 0.61064 0.0
C638 C 0.70995 0.68855 0.65643 0.0
C639 C 0.68135 0.65283 0.71613 0.0
C640 C 0.68308 0.65238 0.69193 0.0
C641 C 0.68753 0.64781 0.62193 0.0
C642 C 0.68564 0.65012 0.64598 0.0
H643 H 0.61128 0.6032 0.75859 0.0
H644 H 0.61376 0.60756 0.71918 0.0
H645 H 0.72717 0.71989 0.68669 0.0
H646 H 0.75964 0.67463 0.58011 0.0
H647 H 0.75587 0.68875 0.61856 0.0
C648 C 0.66934 0.13591 0.56975 0.0
C649 C 0.67578 0.10287 0.5634 0.0
C650 C 0.64725 0.13186 0.58921 0.0
C651 C 0.56949 1.04592 0.62716 0.0
H652 H 0.58078 0.14019 0.6597 0.0
C653 C 0.44233 1.01927 0.69094 0.0
C654 C 0.45534 1.04221 0.70986 0.0
C655 C 0.47059 1.03001 0.67328 0.0
C656 C 0.57742 0.11337 0.65098 0.0
H657 H 0.66762 1.04149 0.57287 0.0
H658 H 0.63205 1.03561 0.60748 0.0
H659 H 0.63186 0.15321 0.63054 0.0
H660 H 0.5079 0.09398 0.72555 0.0
H661 H 0.55813 0.11206 0.69509 0.0
H662 H 0.51658 1.00577 0.64812 0.0
C663 C 0.64187 1.06375 0.59713 0.0
C664 C 0.6065 0.12095 0.63402 0.0
C665 C 0.66286 1.06731 0.57747 0.0
C666 C 0.49702 0.07648 0.71085 0.0
C667 C 0.52568 0.08675 0.69337 0.0
C668 C 0.54102 1.03829 0.6443 0.0
C669 C 0.63194 0.095 0.60282 0.0
C670 C 0.60278 0.08731 0.62176 0.0
C671 C 0.51303 1.06323 0.67442 0.0
C672 C 0.54416 1.07189 0.65632 0.0
H673 H 0.6785 0.16338 0.55895 0.0
H674 H 0.64007 0.15651 0.59284 0.0
H675 H 0.5647 1.01915 0.61792 0.0
H676 H 0.41033 0.99262 0.69 0.0
H677 H 0.45916 1.0118 0.65883 0.0
C678 C 0.64664 0.57736 0.90609 0.0
C679 C 0.65945 0.61763 0.89648 0.0
C680 C 0.63573 0.56904 0.92815 0.0
C681 C 0.60313 0.60797 0.97521 0.0
H682 H 0.6326 0.5336 0.00746 0.0
C683 C 0.58903 0.57933 0.06927 0.0
C684 C 0.57313 0.53713 0.07682 0.0
C685 C 0.59593 0.58988 0.04702 0.0
C686 C 0.62377 0.55407 -0.0014 0.0
H687 H 0.67131 0.68096 0.90257 0.0
H688 H 0.65337 0.66675 0.94137 0.0
H689 H 0.6549 0.55232 0.96951 0.0
H690 H 0.55004 0.47272 0.06738 0.0
H691 H 0.56225 0.49098 0.02841 0.0
H692 H 0.57284 0.61029 0.00475 0.0
C693 C 0.65094 0.64134 0.9317 0.0
C694 C 0.6365 0.56479 0.97683 0.0
C695 C 0.66153 0.64959 0.9095 0.0
C696 C 0.56228 0.5054 0.0618 0.0
C697 C 0.56952 0.51592 0.03962 0.0
C698 C 0.59076 0.59756 -0.00287 0.0
C699 C 0.63778 0.60088 0.94126 0.0
C700 C 0.62592 0.59145 0.96476 0.0
C701 C 0.58749 0.55841 0.03207 0.0
C702 C 0.60054 0.57007 0.00892 0.0
H703 H 0.64417 0.55182 0.89651 0.0
H704 H 0.62492 0.53727 0.93481 0.0
H705 H 0.59404 0.62821 0.96636 0.0
H706 H 0.59856 0.60443 0.08062 0.0
H707 H 0.61012 0.62292 0.04163 0.0
C708 C 0.11628 0.6502 0.23118 0.0
C709 C 0.14563 0.63724 0.22597 0.0
C710 C 0.11099 0.6587 0.25256 0.0
C711 C 0.12505 0.63442 0.30899 0.0
H712 H 0.12354 0.73737 0.32154 0.0
C713 C 0.1383 0.69062 0.39593 0.0
C714 C 0.11468 0.70955 0.40215 0.0
C715 C 0.14027 0.6815 0.37431 0.0
C716 C 0.12322 0.70816 0.3183 0.0
H717 H 0.19228 0.62282 0.23916 0.0
H718 H 0.18274 0.63737 0.27654 0.0
H719 H 0.13046 0.72189 0.28396 0.0
H720 H 1.07338 0.73245 0.39104 0.0
H721 H 1.076 0.7158 0.35295 0.0
H722 H 0.11739 0.62028 0.34318 0.0
C723 C 0.16382 0.64088 0.26405 0.0
C724 C 0.12732 0.69939 0.29678 0.0
C725 C 0.16944 0.63279 0.24262 0.0
C726 C 1.09228 0.71844 0.38644 0.0
C727 C 1.094 0.70907 0.36472 0.0
C728 C 0.1206 0.64298 0.33046 0.0
C729 C 0.13459 0.65398 0.26922 0.0
C730 C 0.12877 0.66266 0.29195 0.0
C731 C 0.11804 0.69043 0.35841 0.0
C732 C 0.1202 0.68024 0.33543 0.0
H733 H 1.09747 0.65401 0.21873 0.0
H734 H 1.08799 0.66842 0.25612 0.0
H735 H 0.1253 0.60549 0.3057 0.0
H736 H 0.15462 0.6821 0.4079 0.0
H737 H 0.15944 0.66759 0.37007 0.0
loop_
_geom_bond_atom_site_label_1
_geom_bond_atom_site_label_2
_geom_bond_distance
_geom_bond_site_symmetry_2
_ccdc_geom_bond_type
Tb0 C10 2.825 . S
Tb0 O11 2.347 . S
Tb0 O14 2.366 . S
Tb0 O19 2.418 . S
Tb0 O20 2.384 1_455 S
Tb0 O23 2.479 . S
Tb0 O24 2.471 . S
Eu1 O12 2.418 . S
Eu1 O13 2.384 1_655 S
Eu1 O16 2.479 . S
Eu1 O17 2.471 . S
Eu1 O18 2.347 . S
Eu1 O21 2.366 . S
Eu1 C31 2.825 . S
C2 O18 1.259 1_455 S
C2 O19 1.265 . S
C3 O20 1.255 . S
C3 O21 1.265 . S
C4 C6 1.380 . S
C4 C7 1.374 . S
C4 C10 1.507 . S
C5 C6 1.384 . S
C5 C9 1.387 . S
C5 H32 0.930 . S
C6 C4 1.380 . S
C6 C5 1.384 . S
C6 H33 0.931 . S
C7 C4 1.374 . S
C7 C8 1.390 . S
C7 H34 0.930 . S
C8 C7 1.390 . S
C8 C9 1.391 . S
C8 H35 0.930 . S
C9 C5 1.387 . S
C9 C8 1.391 . S
C10 Tb0 2.825 . S
C10 C4 1.507 . S
C10 O23 1.238 . S
C10 O24 1.247 . S
O11 Tb0 2.347 . S
O11 C15 1.264 . S
O12 Eu1 2.418 . S
O12 C15 1.255 1_655 S
O13 Eu1 2.384 1_455 S
O13 C22 1.255 . S
O14 Tb0 2.366 . S
O14 C22 1.265 . S
C15 O11 1.264 . S
C15 O12 1.255 1_455 S
O16 Eu1 2.479 . S
O16 C31 1.238 . S
O17 Eu1 2.471 . S
O17 C31 1.247 . S
O18 Eu1 2.347 . S
O18 C2 1.259 1_655 S
O19 Tb0 2.418 . S
O19 C2 1.265 . S
O20 Tb0 2.384 1_655 S
O20 C3 1.255 . S
O21 Eu1 2.366 . S
O21 C3 1.265 . S
C22 O13 1.255 . S
C22 O14 1.265 . S
O23 Tb0 2.479 . S
O23 C10 1.238 . S
O24 Tb0 2.471 . S
O24 C10 1.247 . S
C25 C28 1.380 . S
C25 C29 1.374 . S
C25 C31 1.507 . S
C26 C27 1.387 . S
C26 C30 1.391 . S
C27 C26 1.387 . S
C27 C28 1.384 . S
C27 H36 0.930 . S
C28 C25 1.380 . S
C28 C27 1.384 . S
C28 H37 0.931 . S
C29 C25 1.374 . S
C29 C30 1.390 . S
C29 H38 0.930 . S
C30 C26 1.391 . S
C30 C29 1.390 . S
C30 H39 0.930 . S
C31 Eu1 2.825 . S
C31 O16 1.238 . S
C31 O17 1.247 . S
C31 C25 1.507 . S
H32 C5 0.930 . S
H33 C6 0.931 . S
H34 C7 0.930 . S
H35 C8 0.930 . S
H36 C27 0.930 . S
H37 C28 0.931 . S
H38 C29 0.930 . S
H39 C30 0.930 . S
Tb40 C50 2.825 . S
Tb40 O51 2.347 . S
Tb40 O54 2.366 . S
Tb40 O59 2.418 . S
Tb40 O60 2.384 . S
Tb40 O63 2.479 . S
Tb40 O64 2.471 . S
Eu41 O52 2.418 . S
Eu41 O53 2.384 . S
Eu41 O56 2.479 1_545 S
Eu41 O57 2.471 1_545 S
Eu41 O58 2.347 . S
Eu41 O61 2.366 1_545 S
Eu41 C71 2.825 1_545 S
C42 O58 1.259 . S
C42 O59 1.265 . S
C43 O60 1.255 1_565 S
C43 O61 1.265 . S
C44 C46 1.380 . S
C44 C47 1.374 . S
C44 C50 1.507 . S
C45 C46 1.384 . S
C45 C49 1.387 . S
C45 H72 0.930 . S
C46 C44 1.380 . S
C46 C45 1.384 . S
C46 H73 0.931 . S
C47 C44 1.374 . S
C47 C48 1.390 . S
C47 H74 0.930 . S
C48 C47 1.390 . S
C48 C49 1.391 . S
C48 H75 0.930 . S
C49 C45 1.387 . S
C49 C48 1.391 . S
C50 Tb40 2.825 . S
C50 C44 1.507 . S
C50 O63 1.238 . S
C50 O64 1.247 . S
O51 Tb40 2.347 . S
O51 C55 1.259 . S
O52 Eu41 2.418 . S
O52 C55 1.265 . S
O53 Eu41 2.384 . S
O53 C62 1.255 . S
O54 Tb40 2.366 . S
O54 C62 1.265 . S
C55 O51 1.259 . S
C55 O52 1.265 . S
O56 Eu41 2.479 1_565 S
O56 C71 1.238 . S
O57 Eu41 2.471 1_565 S
O57 C71 1.247 . S
O58 Eu41 2.347 . S
O58 C42 1.259 . S
O59 Tb40 2.418 . S
O59 C42 1.265 . S
O60 Tb40 2.384 . S
O60 C43 1.255 1_545 S
O61 Eu41 2.366 1_565 S
O61 C43 1.265 . S
C62 O53 1.255 . S
C62 O54 1.265 . S
O63 Tb40 2.479 . S
O63 C50 1.238 . S
O64 Tb40 2.471 . S
O64 C50 1.247 . S
C65 C68 1.380 . S
C65 C69 1.374 . S
C65 C71 1.507 . S
C66 C67 1.387 . S
C66 C70 1.391 . S
C67 C66 1.387 . S
C67 C68 1.384 . S
C67 H76 0.930 . S
C68 C65 1.380 . S
C68 C67 1.384 . S
C68 H77 0.931 . S
C69 C65 1.374 . S
C69 C70 1.390 . S
C69 H78 0.930 . S
C70 C66 1.391 . S
C70 C69 1.390 . S
C70 H79 0.930 . S
C71 Eu41 2.825 1_565 S
C71 O56 1.238 . S
C71 O57 1.247 . S
C71 C65 1.507 . S
H72 C45 0.930 . S
H73 C46 0.931 . S
H74 C47 0.930 . S
H75 C48 0.930 . S
H76 C67 0.930 . S
H77 C68 0.931 . S
H78 C69 0.930 . S
H79 C70 0.930 . S
Tb80 C90 2.825 . S
Tb80 O91 2.347 . S
Tb80 O94 2.366 . S
Tb80 O99 2.418 . S
Tb80 O100 2.384 . S
Tb80 O103 2.479 . S
Tb80 O104 2.471 . S
Eu81 O92 2.418 . S
Eu81 O93 2.384 . S
Eu81 O96 2.479 . S
Eu81 O97 2.471 . S
Eu81 O98 2.347 . S
Eu81 O101 2.366 . S
Eu81 C111 2.825 . S
C82 O98 1.259 . S
C82 O99 1.265 . S
C83 O100 1.255 . S
C83 O101 1.265 . S
C84 C86 1.380 . S
C84 C87 1.374 . S
C84 C90 1.507 . S
C85 C86 1.384 . S
C85 C89 1.387 . S
C85 H112 0.930 . S
C86 C84 1.380 . S
C86 C85 1.384 . S
C86 H113 0.931 . S
C87 C84 1.374 . S
C87 C88 1.390 . S
C87 H114 0.930 . S
C88 C87 1.390 . S
C88 C89 1.391 . S
C88 H115 0.930 . S
C89 C85 1.387 . S
C89 C88 1.391 . S
C90 Tb80 2.825 . S
C90 C84 1.507 . S
C90 O103 1.238 . S
C90 O104 1.247 . S
O91 Tb80 2.347 . S
O91 C95 1.259 . S
O92 Eu81 2.418 . S
O92 C95 1.265 . S
O93 Eu81 2.384 . S
O93 C102 1.255 . S
O94 Tb80 2.366 . S
O94 C102 1.265 . S
C95 O91 1.259 . S
C95 O92 1.265 . S
O96 Eu81 2.479 . S
O96 C111 1.238 . S
O97 Eu81 2.471 . S
O97 C111 1.247 . S
O98 Eu81 2.347 . S
O98 C82 1.259 . S
O99 Tb80 2.418 . S
O99 C82 1.265 . S
O100 Tb80 2.384 . S
O100 C83 1.255 . S
O101 Eu81 2.366 . S
O101 C83 1.265 . S
C102 O93 1.255 . S
C102 O94 1.265 . S
O103 Tb80 2.479 . S
O103 C90 1.238 . S
O104 Tb80 2.471 . S
O104 C90 1.247 . S
C105 C108 1.380 . S
C105 C109 1.374 . S
C105 C111 1.507 . S
C106 C107 1.387 . S
C106 C110 1.391 . S
C107 C106 1.387 . S
C107 C108 1.384 . S
C107 H116 0.930 . S
C108 C105 1.380 . S
C108 C107 1.384 . S
C108 H117 0.931 . S
C109 C105 1.374 . S
C109 C110 1.390 . S
C109 H118 0.930 . S
C110 C106 1.391 . S
C110 C109 1.390 . S
C110 H119 0.930 . S
C111 Eu81 2.825 . S
C111 O96 1.238 . S
C111 O97 1.247 . S
C111 C105 1.507 . S
H112 C85 0.930 . S
H113 C86 0.931 . S
H114 C87 0.930 . S
H115 C88 0.930 . S
H116 C107 0.930 . S
H117 C108 0.931 . S
H118 C109 0.930 . S
H119 C110 0.930 . S
C120 N121 1.317 1_565 S
C120 N122 1.348 . S
C120 C123 1.485 1_565 S
N121 C120 1.317 1_545 S
N121 N125 1.370 . S
N122 C120 1.348 . S
N122 C124 1.346 . S
C123 C120 1.485 1_545 S
C123 H127 0.960 . S
C123 H128 0.961 1_545 S
C123 H129 0.960 . S
C124 N122 1.346 . S
C124 N125 1.307 1_565 S
C124 C126 1.486 . S
N125 N121 1.370 . S
N125 C124 1.307 1_545 S
C126 C124 1.486 . S
C126 H130 0.960 . S
C126 H131 0.960 . S
C126 H132 0.959 . S
H127 C123 0.960 . S
H128 C123 0.961 1_565 S
H129 C123 0.960 . S
H130 C126 0.960 . S
H131 C126 0.960 . S
H132 C126 0.959 . S
C133 N134 1.317 . S
C133 N135 1.348 . S
C133 C136 1.485 . S
N134 C133 1.317 . S
N134 N138 1.370 . S
N135 C133 1.348 . S
N135 C137 1.346 . S
C136 C133 1.485 . S
C136 H140 0.960 . S
C136 H141 0.961 . S
C136 H142 0.960 . S
C137 N135 1.346 . S
C137 N138 1.307 . S
C137 C139 1.486 . S
N138 N134 1.370 . S
N138 C137 1.307 . S
C139 C137 1.486 . S
C139 H143 0.960 . S
C139 H144 0.960 . S
C139 H145 0.959 . S
H140 C136 0.960 . S
H141 C136 0.961 . S
H142 C136 0.960 . S
H143 C139 0.960 . S
H144 C139 0.960 . S
H145 C139 0.959 . S
C146 N147 1.317 . S
C146 N148 1.348 1_455 S
C146 C149 1.485 . S
N147 C146 1.317 . S
N147 N151 1.370 . S
N148 C146 1.348 1_655 S
N148 C150 1.346 . S
C149 C146 1.485 . S
C149 H153 0.960 . S
C149 H154 0.961 . S
C149 H155 0.960 . S
C150 N148 1.346 . S
C150 N151 1.307 1_655 S
C150 C152 1.486 . S
N151 N147 1.370 . S
N151 C150 1.307 1_455 S
C152 C150 1.486 . S
C152 H156 0.960 . S
C152 H157 0.960 . S
C152 H158 0.959 . S
H153 C149 0.960 . S
H154 C149 0.961 . S
H155 C149 0.960 . S
H156 C152 0.960 . S
H157 C152 0.960 . S
H158 C152 0.959 . S
C159 N160 1.317 . S
C159 N161 1.348 . S
C159 C162 1.485 . S
N160 C159 1.317 . S
N160 N164 1.370 . S
N161 C159 1.348 . S
N161 C163 1.346 . S
C162 C159 1.485 . S
C162 H166 0.960 . S
C162 H167 0.961 . S
C162 H168 0.960 . S
C163 N161 1.346 . S
C163 N164 1.307 . S
C163 C165 1.486 . S
N164 N160 1.370 . S
N164 C163 1.307 . S
C165 C163 1.486 . S
C165 H169 0.960 . S
C165 H170 0.960 . S
C165 H171 0.959 . S
H166 C162 0.960 . S
H167 C162 0.961 . S
H168 C162 0.960 . S
H169 C165 0.960 . S
H170 C165 0.960 . S
H171 C165 0.959 . S
C172 N173 1.317 . S
C172 N174 1.348 . S
C172 C175 1.485 . S
N173 C172 1.317 . S
N173 N177 1.370 . S
N174 C172 1.348 . S
N174 C176 1.346 . S
C175 C172 1.485 . S
C175 H179 0.960 . S
C175 H180 0.961 . S
C175 H181 0.960 . S
C176 N174 1.346 . S
C176 N177 1.307 . S
C176 C178 1.486 . S
N177 N173 1.370 . S
N177 C176 1.307 . S
C178 C176 1.486 . S
C178 H182 0.960 . S
C178 H183 0.960 . S
C178 H184 0.959 . S
H179 C175 0.960 . S
H180 C175 0.961 . S
H181 C175 0.960 . S
H182 C178 0.960 . S
H183 C178 0.960 . S
H184 C178 0.959 . S
C185 N186 1.317 . S
C185 N187 1.348 . S
C185 C188 1.485 . S
N186 C185 1.317 . S
N186 N190 1.370 . S
N187 C185 1.348 . S
N187 C189 1.346 . S
C188 C185 1.485 . S
C188 H192 0.960 . S
C188 H193 0.961 . S
C188 H194 0.960 . S
C189 N187 1.346 . S
C189 N190 1.307 . S
C189 C191 1.486 . S
N190 N186 1.370 . S
N190 C189 1.307 . S
C191 C189 1.486 . S
C191 H195 0.960 . S
C191 H196 0.960 . S
C191 H197 0.959 . S
H192 C188 0.960 . S
H193 C188 0.961 . S
H194 C188 0.960 . S
H195 C191 0.960 . S
H196 C191 0.960 . S
H197 C191 0.959 . S
C198 C199 1.349 . S
C198 C200 1.327 . S
C198 H223 0.950 . S
C199 C198 1.349 . S
C199 C215 1.349 . S
C200 C198 1.327 . S
C200 C219 1.429 . S
C200 H224 0.950 . S
C201 C218 1.574 . S
C201 C220 1.368 . S
C201 H225 0.949 . S
H202 C206 0.949 . S
C203 C204 1.349 . S
C203 C205 1.327 . S
C203 H226 0.950 . S
C204 C203 1.349 . S
C204 C216 1.349 . S
C205 C203 1.327 . S
C205 C221 1.429 . S
C205 H227 0.950 . S
C206 H202 0.949 . S
C206 C214 1.574 . S
C206 C222 1.368 . S
H207 C215 0.950 . S
H208 C213 0.950 . S
H209 C214 0.949 . S
H210 C216 0.950 . S
H211 C217 0.950 . S
H212 C218 0.949 . S
C213 H208 0.950 . S
C213 C215 1.327 . S
C213 C219 1.429 . S
C214 C206 1.574 . S
C214 H209 0.949 . S
C214 C220 1.368 . S
C215 C199 1.349 . S
C215 H207 0.950 . S
C215 C213 1.327 . S
C216 C204 1.349 . S
C216 H210 0.950 . S
C216 C217 1.327 . S
C217 H211 0.950 . S
C217 C216 1.327 . S
C217 C221 1.429 . S
C218 C201 1.574 . S
C218 H212 0.949 . S
C218 C222 1.368 . S
C219 C200 1.429 . S
C219 C213 1.429 . S
C219 C220 1.523 . S
C220 C201 1.368 . S
C220 C214 1.368 . S
C220 C219 1.523 . S
C221 C205 1.429 . S
C221 C217 1.429 . S
C221 C222 1.523 . S
C222 C206 1.368 . S
C222 C218 1.368 . S
C222 C221 1.523 . S
H223 C198 0.950 . S
H224 C200 0.950 . S
H225 C201 0.949 . S
H226 C203 0.950 . S
H227 C205 0.950 . S
C228 C229 1.349 . S
C228 C230 1.327 . S
C228 H253 0.950 . S
C229 C228 1.349 . S
C229 C245 1.349 . S
C230 C228 1.327 . S
C230 C249 1.429 . S
C230 H254 0.950 . S
C231 C248 1.574 . S
C231 C250 1.368 . S
C231 H255 0.949 . S
H232 C236 0.949 . S
C233 C234 1.349 1_655 S
C233 C235 1.327 . S
C233 H256 0.950 . S
C234 C233 1.349 1_455 S
C234 C246 1.349 . S
C235 C233 1.327 . S
C235 C251 1.429 . S
C235 H257 0.950 . S
C236 H232 0.949 . S
C236 C244 1.574 . S
C236 C252 1.368 . S
H237 C245 0.950 . S
H238 C243 0.950 . S
H239 C244 0.949 . S
H240 C246 0.950 . S
H241 C247 0.950 . S
H242 C248 0.949 . S
C243 H238 0.950 . S
C243 C245 1.327 . S
C243 C249 1.429 . S
C244 C236 1.574 . S
C244 H239 0.949 . S
C244 C250 1.368 . S
C245 C229 1.349 . S
C245 H237 0.950 . S
C245 C243 1.327 . S
C246 C234 1.349 . S
C246 H240 0.950 . S
C246 C247 1.327 1_455 S
C247 H241 0.950 . S
C247 C246 1.327 1_655 S
C247 C251 1.429 . S
C248 C231 1.574 . S
C248 H242 0.949 . S
C248 C252 1.368 . S
C249 C230 1.429 . S
C249 C243 1.429 . S
C249 C250 1.523 . S
C250 C231 1.368 . S
C250 C244 1.368 . S
C250 C249 1.523 . S
C251 C235 1.429 . S
C251 C247 1.429 . S
C251 C252 1.523 . S
C252 C236 1.368 . S
C252 C248 1.368 . S
C252 C251 1.523 . S
H253 C228 0.950 . S
H254 C230 0.950 . S
H255 C231 0.949 . S
H256 C233 0.950 . S
H257 C235 0.950 . S
C258 C259 1.349 . S
C258 C260 1.327 . S
C258 H283 0.950 . S
C259 C258 1.349 . S
C259 C275 1.349 . S
C260 C258 1.327 . S
C260 C279 1.429 . S
C260 H284 0.950 . S
C261 C278 1.574 . S
C261 C280 1.368 . S
C261 H285 0.949 . S
H262 C266 0.949 . S
C263 C264 1.349 . S
C263 C265 1.327 1_545 S
C263 H286 0.950 . S
C264 C263 1.349 . S
C264 C276 1.349 1_545 S
C265 C263 1.327 1_565 S
C265 C281 1.429 . S
C265 H287 0.950 . S
C266 H262 0.949 . S
C266 C274 1.574 . S
C266 C282 1.368 . S
H267 C275 0.950 . S
H268 C273 0.950 . S
H269 C274 0.949 . S
H270 C276 0.950 . S
H271 C277 0.950 . S
H272 C278 0.949 . S
C273 H268 0.950 . S
C273 C275 1.327 . S
C273 C279 1.429 . S
C274 C266 1.574 . S
C274 H269 0.949 . S
C274 C280 1.368 . S
C275 C259 1.349 . S
C275 H267 0.950 . S
C275 C273 1.327 . S
C276 C264 1.349 1_565 S
C276 H270 0.950 . S
C276 C277 1.327 . S
C277 H271 0.950 . S
C277 C276 1.327 . S
C277 C281 1.429 . S
C278 C261 1.574 . S
C278 H272 0.949 . S
C278 C282 1.368 . S
C279 C260 1.429 . S
C279 C273 1.429 . S
C279 C280 1.523 . S
C280 C261 1.368 . S
C280 C274 1.368 . S
C280 C279 1.523 . S
C281 C265 1.429 . S
C281 C277 1.429 . S
C281 C282 1.523 . S
C282 C266 1.368 . S
C282 C278 1.368 . S
C282 C281 1.523 . S
H283 C258 0.950 . S
H284 C260 0.950 . S
H285 C261 0.949 . S
H286 C263 0.950 . S
H287 C265 0.950 . S
C288 C289 1.349 . S
C288 C290 1.327 . S
C288 H313 0.950 . S
C289 C288 1.349 . S
C289 C305 1.349 . S
C290 C288 1.327 . S
C290 C309 1.429 . S
C290 H314 0.950 . S
C291 C308 1.574 . S
C291 C310 1.368 . S
C291 H315 0.949 . S
H292 C296 0.949 . S
C293 C294 1.349 . S
C293 C295 1.327 . S
C293 H316 0.950 . S
C294 C293 1.349 . S
C294 C306 1.349 . S
C295 C293 1.327 . S
C295 C311 1.429 . S
C295 H317 0.950 . S
C296 H292 0.949 . S
C296 C304 1.574 . S
C296 C312 1.368 . S
H297 C305 0.950 . S
H298 C303 0.950 . S
H299 C304 0.949 . S
H300 C306 0.950 . S
H301 C307 0.950 . S
H302 C308 0.949 . S
C303 H298 0.950 . S
C303 C305 1.327 . S
C303 C309 1.429 . S
C304 C296 1.574 . S
C304 H299 0.949 . S
C304 C310 1.368 . S
C305 C289 1.349 . S
C305 H297 0.950 . S
C305 C303 1.327 . S
C306 C294 1.349 . S
C306 H300 0.950 . S
C306 C307 1.327 . S
C307 H301 0.950 . S
C307 C306 1.327 . S
C307 C311 1.429 . S
C308 C291 1.574 . S
C308 H302 0.949 . S
C308 C312 1.368 . S
C309 C290 1.429 . S
C309 C303 1.429 . S
C309 C310 1.523 . S
C310 C291 1.368 . S
C310 C304 1.368 . S
C310 C309 1.523 . S
C311 C295 1.429 . S
C311 C307 1.429 . S
C311 C312 1.523 . S
C312 C296 1.368 . S
C312 C308 1.368 . S
C312 C311 1.523 . S
H313 C288 0.950 . S
H314 C290 0.950 . S
H315 C291 0.949 . S
H316 C293 0.950 . S
H317 C295 0.950 . S
C318 C319 1.349 . S
C318 C320 1.327 . S
C318 H343 0.950 . S
C319 C318 1.349 . S
C319 C335 1.349 . S
C320 C318 1.327 . S
C320 C339 1.429 . S
C320 H344 0.950 . S
C321 C338 1.574 . S
C321 C340 1.368 . S
C321 H345 0.949 . S
H322 C326 0.949 . S
C323 C324 1.349 . S
C323 C325 1.327 . S
C323 H346 0.950 . S
C324 C323 1.349 . S
C324 C336 1.349 . S
C325 C323 1.327 . S
C325 C341 1.429 . S
C325 H347 0.950 . S
C326 H322 0.949 . S
C326 C334 1.574 . S
C326 C342 1.368 . S
H327 C335 0.950 . S
H328 C333 0.950 . S
H329 C334 0.949 . S
H330 C336 0.950 . S
H331 C337 0.950 . S
H332 C338 0.949 . S
C333 H328 0.950 . S
C333 C335 1.327 . S
C333 C339 1.429 . S
C334 C326 1.574 . S
C334 H329 0.949 . S
C334 C340 1.368 . S
C335 C319 1.349 . S
C335 H327 0.950 . S
C335 C333 1.327 . S
C336 C324 1.349 . S
C336 H330 0.950 . S
C336 C337 1.327 . S
C337 H331 0.950 . S
C337 C336 1.327 . S
C337 C341 1.429 . S
C338 C321 1.574 . S
C338 H332 0.949 . S
C338 C342 1.368 . S
C339 C320 1.429 . S
C339 C333 1.429 . S
C339 C340 1.523 . S
C340 C321 1.368 . S
C340 C334 1.368 . S
C340 C339 1.523 . S
C341 C325 1.429 . S
C341 C337 1.429 . S
C341 C342 1.523 . S
C342 C326 1.368 . S
C342 C338 1.368 . S
C342 C341 1.523 . S
H343 C318 0.950 . S
H344 C320 0.950 . S
H345 C321 0.949 . S
H346 C323 0.950 . S
H347 C325 0.950 . S
C348 C349 1.349 . S
C348 C350 1.327 . S
C348 H373 0.950 . S
C349 C348 1.349 . S
C349 C365 1.349 . S
C350 C348 1.327 . S
C350 C369 1.429 . S
C350 H374 0.950 . S
C351 C368 1.574 . S
C351 C370 1.368 . S
C351 H375 0.949 . S
H352 C356 0.949 . S
C353 C354 1.349 . S
C353 C355 1.327 . S
C353 H376 0.950 . S
C354 C353 1.349 . S
C354 C366 1.349 . S
C355 C353 1.327 . S
C355 C371 1.429 . S
C355 H377 0.950 . S
C356 H352 0.949 . S
C356 C364 1.574 . S
C356 C372 1.368 . S
H357 C365 0.950 . S
H358 C363 0.950 . S
H359 C364 0.949 . S
H360 C366 0.950 . S
H361 C367 0.950 . S
H362 C368 0.949 . S
C363 H358 0.950 . S
C363 C365 1.327 . S
C363 C369 1.429 . S
C364 C356 1.574 . S
C364 H359 0.949 . S
C364 C370 1.368 . S
C365 C349 1.349 . S
C365 H357 0.950 . S
C365 C363 1.327 . S
C366 C354 1.349 . S
C366 H360 0.950 . S
C366 C367 1.327 . S
C367 H361 0.950 . S
C367 C366 1.327 . S
C367 C371 1.429 . S
C368 C351 1.574 . S
C368 H362 0.949 . S
C368 C372 1.368 . S
C369 C350 1.429 . S
C369 C363 1.429 . S
C369 C370 1.523 . S
C370 C351 1.368 . S
C370 C364 1.368 . S
C370 C369 1.523 . S
C371 C355 1.429 . S
C371 C367 1.429 . S
C371 C372 1.523 . S
C372 C356 1.368 . S
C372 C368 1.368 . S
C372 C371 1.523 . S
H373 C348 0.950 . S
H374 C350 0.950 . S
H375 C351 0.949 . S
H376 C353 0.950 . S
H377 C355 0.950 . S
C378 C379 1.349 . S
C378 C380 1.327 . S
C378 H403 0.950 . S
C379 C378 1.349 . S
C379 C395 1.349 . S
C380 C378 1.327 . S
C380 C399 1.429 . S
C380 H404 0.950 . S
C381 C398 1.574 . S
C381 C400 1.368 . S
C381 H405 0.949 . S
H382 C386 0.949 . S
C383 C384 1.349 . S
C383 C385 1.327 . S
C383 H406 0.950 . S
C384 C383 1.349 . S
C384 C396 1.349 . S
C385 C383 1.327 . S
C385 C401 1.429 . S
C385 H407 0.950 . S
C386 H382 0.949 . S
C386 C394 1.574 . S
C386 C402 1.368 . S
H387 C395 0.950 . S
H388 C393 0.950 . S
H389 C394 0.949 . S
H390 C396 0.950 . S
H391 C397 0.950 . S
H392 C398 0.949 . S
C393 H388 0.950 . S
C393 C395 1.327 . S
C393 C399 1.429 . S
C394 C386 1.574 . S
C394 H389 0.949 . S
C394 C400 1.368 . S
C395 C379 1.349 . S
C395 H387 0.950 . S
C395 C393 1.327 . S
C396 C384 1.349 . S
C396 H390 0.950 . S
C396 C397 1.327 . S
C397 H391 0.950 . S
C397 C396 1.327 . S
C397 C401 1.429 . S
C398 C381 1.574 . S
C398 H392 0.949 . S
C398 C402 1.368 . S
C399 C380 1.429 . S
C399 C393 1.429 . S
C399 C400 1.523 . S
C400 C381 1.368 . S
C400 C394 1.368 . S
C400 C399 1.523 . S
C401 C385 1.429 . S
C401 C397 1.429 . S
C401 C402 1.523 . S
C402 C386 1.368 . S
C402 C398 1.368 . S
C402 C401 1.523 . S
H403 C378 0.950 . S
H404 C380 0.950 . S
H405 C381 0.949 . S
H406 C383 0.950 . S
H407 C385 0.950 . S
C408 C409 1.349 . S
C408 C410 1.327 . S
C408 H433 0.950 . S
C409 C408 1.349 . S
C409 C425 1.349 . S
C410 C408 1.327 . S
C410 C429 1.429 . S
C410 H434 0.950 . S
C411 C428 1.574 . S
C411 C430 1.368 . S
C411 H435 0.949 . S
H412 C416 0.949 . S
C413 C414 1.349 . S
C413 C415 1.327 . S
C413 H436 0.950 . S
C414 C413 1.349 . S
C414 C426 1.349 . S
C415 C413 1.327 . S
C415 C431 1.429 . S
C415 H437 0.950 . S
C416 H412 0.949 . S
C416 C424 1.574 . S
C416 C432 1.368 . S
H417 C425 0.950 . S
H418 C423 0.950 . S
H419 C424 0.949 . S
H420 C426 0.950 . S
H421 C427 0.950 . S
H422 C428 0.949 . S
C423 H418 0.950 . S
C423 C425 1.327 . S
C423 C429 1.429 . S
C424 C416 1.574 . S
C424 H419 0.949 . S
C424 C430 1.368 . S
C425 C409 1.349 . S
C425 H417 0.950 . S
C425 C423 1.327 . S
C426 C414 1.349 . S
C426 H420 0.950 . S
C426 C427 1.327 . S
C427 H421 0.950 . S
C427 C426 1.327 . S
C427 C431 1.429 . S
C428 C411 1.574 . S
C428 H422 0.949 . S
C428 C432 1.368 . S
C429 C410 1.429 . S
C429 C423 1.429 . S
C429 C430 1.523 . S
C430 C411 1.368 . S
C430 C424 1.368 . S
C430 C429 1.523 . S
C431 C415 1.429 . S
C431 C427 1.429 . S
C431 C432 1.523 . S
C432 C416 1.368 . S
C432 C428 1.368 . S
C432 C431 1.523 . S
H433 C408 0.950 . S
H434 C410 0.950 . S
H435 C411 0.949 . S
H436 C413 0.950 . S
H437 C415 0.950 . S
C438 C439 1.349 . S
C438 C440 1.327 . S
C438 H463 0.950 . S
C439 C438 1.349 . S
C439 C455 1.349 . S
C440 C438 1.327 . S
C440 C459 1.429 . S
C440 H464 0.950 . S
C441 C458 1.574 . S
C441 C460 1.368 . S
C441 H465 0.949 . S
H442 C446 0.949 . S
C443 C444 1.349 . S
C443 C445 1.327 . S
C443 H466 0.950 . S
C444 C443 1.349 . S
C444 C456 1.349 . S
C445 C443 1.327 . S
C445 C461 1.429 . S
C445 H467 0.950 . S
C446 H442 0.949 . S
C446 C454 1.574 . S
C446 C462 1.368 . S
H447 C455 0.950 . S
H448 C453 0.950 . S
H449 C454 0.949 . S
H450 C456 0.950 . S
H451 C457 0.950 . S
H452 C458 0.949 . S
C453 H448 0.950 . S
C453 C455 1.327 . S
C453 C459 1.429 . S
C454 C446 1.574 . S
C454 H449 0.949 . S
C454 C460 1.368 . S
C455 C439 1.349 . S
C455 H447 0.950 . S
C455 C453 1.327 . S
C456 C444 1.349 . S
C456 H450 0.950 . S
C456 C457 1.327 . S
C457 H451 0.950 . S
C457 C456 1.327 . S
C457 C461 1.429 . S
C458 C441 1.574 . S
C458 H452 0.949 . S
C458 C462 1.368 . S
C459 C440 1.429 . S
C459 C453 1.429 . S
C459 C460 1.523 . S
C460 C441 1.368 . S
C460 C454 1.368 . S
C460 C459 1.523 . S
C461 C445 1.429 . S
C461 C457 1.429 . S
C461 C462 1.523 . S
C462 C446 1.368 . S
C462 C458 1.368 . S
C462 C461 1.523 . S
H463 C438 0.950 . S
H464 C440 0.950 . S
H465 C441 0.949 . S
H466 C443 0.950 . S
H467 C445 0.950 . S
C468 C469 1.349 . S
C468 C470 1.327 . S
C468 H493 0.950 . S
C469 C468 1.349 . S
C469 C485 1.349 . S
C470 C468 1.327 . S
C470 C489 1.429 . S
C470 H494 0.950 . S
C471 C488 1.574 . S
C471 C490 1.368 . S
C471 H495 0.949 . S
H472 C476 0.949 . S
C473 C474 1.349 . S
C473 C475 1.327 . S
C473 H496 0.950 . S
C474 C473 1.349 . S
C474 C486 1.349 . S
C475 C473 1.327 . S
C475 C491 1.429 . S
C475 H497 0.950 . S
C476 H472 0.949 . S
C476 C484 1.574 . S
C476 C492 1.368 . S
H477 C485 0.950 . S
H478 C483 0.950 . S
H479 C484 0.949 . S
H480 C486 0.950 . S
H481 C487 0.950 . S
H482 C488 0.949 . S
C483 H478 0.950 . S
C483 C485 1.327 . S
C483 C489 1.429 . S
C484 C476 1.574 . S
C484 H479 0.949 . S
C484 C490 1.368 . S
C485 C469 1.349 . S
C485 H477 0.950 . S
C485 C483 1.327 . S
C486 C474 1.349 . S
C486 H480 0.950 . S
C486 C487 1.327 . S
C487 H481 0.950 . S
C487 C486 1.327 . S
C487 C491 1.429 . S
C488 C471 1.574 . S
C488 H482 0.949 . S
C488 C492 1.368 . S
C489 C470 1.429 . S
C489 C483 1.429 . S
C489 C490 1.523 . S
C490 C471 1.368 . S
C490 C484 1.368 . S
C490 C489 1.523 . S
C491 C475 1.429 . S
C491 C487 1.429 . S
C491 C492 1.523 . S
C492 C476 1.368 . S
C492 C488 1.368 . S
C492 C491 1.523 . S
H493 C468 0.950 . S
H494 C470 0.950 . S
H495 C471 0.949 . S
H496 C473 0.950 . S
H497 C475 0.950 . S
C498 C499 1.349 . S
C498 C500 1.327 . S
C498 H523 0.950 . S
C499 C498 1.349 . S
C499 C515 1.349 . S
C500 C498 1.327 . S
C500 C519 1.429 . S
C500 H524 0.950 . S
C501 C518 1.574 . S
C501 C520 1.368 . S
C501 H525 0.949 . S
H502 C506 0.949 . S
C503 C504 1.349 . S
C503 C505 1.327 . S
C503 H526 0.950 . S
C504 C503 1.349 . S
C504 C516 1.349 . S
C505 C503 1.327 . S
C505 C521 1.429 . S
C505 H527 0.950 . S
C506 H502 0.949 . S
C506 C514 1.574 . S
C506 C522 1.368 . S
H507 C515 0.950 . S
H508 C513 0.950 . S
H509 C514 0.949 . S
H510 C516 0.950 . S
H511 C517 0.950 . S
H512 C518 0.949 . S
C513 H508 0.950 . S
C513 C515 1.327 . S
C513 C519 1.429 . S
C514 C506 1.574 . S
C514 H509 0.949 . S
C514 C520 1.368 . S
C515 C499 1.349 . S
C515 H507 0.950 . S
C515 C513 1.327 . S
C516 C504 1.349 . S
C516 H510 0.950 . S
C516 C517 1.327 . S
C517 H511 0.950 . S
C517 C516 1.327 . S
C517 C521 1.429 . S
C518 C501 1.574 . S
C518 H512 0.949 . S
C518 C522 1.368 . S
C519 C500 1.429 . S
C519 C513 1.429 . S
C519 C520 1.523 . S
C520 C501 1.368 . S
C520 C514 1.368 . S
C520 C519 1.523 . S
C521 C505 1.429 . S
C521 C517 1.429 . S
C521 C522 1.523 . S
C522 C506 1.368 . S
C522 C518 1.368 . S
C522 C521 1.523 . S
H523 C498 0.950 . S
H524 C500 0.950 . S
H525 C501 0.949 . S
H526 C503 0.950 . S
H527 C505 0.950 . S
C528 C529 1.349 . S
C528 C530 1.327 . S
C528 H553 0.950 . S
C529 C528 1.349 . S
C529 C545 1.349 . S
C530 C528 1.327 . S
C530 C549 1.429 . S
C530 H554 0.950 . S
C531 C548 1.574 . S
C531 C550 1.368 . S
C531 H555 0.949 . S
H532 C536 0.949 . S
C533 C534 1.349 . S
C533 C535 1.327 . S
C533 H556 0.950 . S
C534 C533 1.349 . S
C534 C546 1.349 . S
C535 C533 1.327 . S
C535 C551 1.429 . S
C535 H557 0.950 . S
C536 H532 0.949 . S
C536 C544 1.574 . S
C536 C552 1.368 . S
H537 C545 0.950 . S
H538 C543 0.950 . S
H539 C544 0.949 . S
H540 C546 0.950 . S
H541 C547 0.950 . S
H542 C548 0.949 . S
C543 H538 0.950 . S
C543 C545 1.327 . S
C543 C549 1.429 . S
C544 C536 1.574 . S
C544 H539 0.949 . S
C544 C550 1.368 . S
C545 C529 1.349 . S
C545 H537 0.950 . S
C545 C543 1.327 . S
C546 C534 1.349 . S
C546 H540 0.950 . S
C546 C547 1.327 . S
C547 H541 0.950 . S
C547 C546 1.327 . S
C547 C551 1.429 . S
C548 C531 1.574 . S
C548 H542 0.949 . S
C548 C552 1.368 . S
C549 C530 1.429 . S
C549 C543 1.429 . S
C549 C550 1.523 . S
C550 C531 1.368 . S
C550 C544 1.368 . S
C550 C549 1.523 . S
C551 C535 1.429 . S
C551 C547 1.429 . S
C551 C552 1.523 . S
C552 C536 1.368 . S
C552 C548 1.368 . S
C552 C551 1.523 . S
H553 C528 0.950 . S
H554 C530 0.950 . S
H555 C531 0.949 . S
H556 C533 0.950 . S
H557 C535 0.950 . S
C558 C559 1.349 1_655 S
C558 C560 1.327 . S
C558 H583 0.950 . S
C559 C558 1.349 1_455 S
C559 C575 1.349 . S
C560 C558 1.327 . S
C560 C579 1.429 1_655 S
C560 H584 0.950 . S
C561 C578 1.574 1_554 S
C561 C580 1.368 . S
C561 H585 0.949 . S
H562 C566 0.949 . S
C563 C564 1.349 . S
C563 C565 1.327 . S
C563 H586 0.950 . S
C564 C563 1.349 . S
C564 C576 1.349 1_455 S
C565 C563 1.327 . S
C565 C581 1.429 . S
C565 H587 0.950 . S
C566 H562 0.949 . S
C566 C574 1.574 1_556 S
C566 C582 1.368 1_655 S
H567 C575 0.950 . S
H568 C573 0.950 . S
H569 C574 0.949 . S
H570 C576 0.950 . S
H571 C577 0.950 . S
H572 C578 0.949 . S
C573 H568 0.950 . S
C573 C575 1.327 . S
C573 C579 1.429 . S
C574 C566 1.574 1_554 S
C574 H569 0.949 . S
C574 C580 1.368 1_655 S
C575 C559 1.349 . S
C575 H567 0.950 . S
C575 C573 1.327 . S
C576 C564 1.349 1_655 S
C576 H570 0.950 . S
C576 C577 1.327 . S
C577 H571 0.950 . S
C577 C576 1.327 . S
C577 C581 1.429 1_655 S
C578 C561 1.574 1_556 S
C578 H572 0.949 . S
C578 C582 1.368 . S
C579 C560 1.429 1_455 S
C579 C573 1.429 . S
C579 C580 1.523 . S
C580 C561 1.368 . S
C580 C574 1.368 1_455 S
C580 C579 1.523 . S
C581 C565 1.429 . S
C581 C577 1.429 1_455 S
C581 C582 1.523 . S
C582 C566 1.368 1_455 S
C582 C578 1.368 . S
C582 C581 1.523 . S
H583 C558 0.950 . S
H584 C560 0.950 . S
H585 C561 0.949 . S
H586 C563 0.950 . S
H587 C565 0.950 . S
C588 C589 1.349 . S
C588 C590 1.327 . S
C588 H613 0.950 1_545 S
C589 C588 1.349 . S
C589 C605 1.349 . S
C590 C588 1.327 . S
C590 C609 1.429 . S
C590 H614 0.950 1_545 S
C591 C608 1.574 . S
C591 C610 1.368 . S
C591 H615 0.949 . S
H592 C596 0.949 . S
C593 C594 1.349 . S
C593 C595 1.327 . S
C593 H616 0.950 . S
C594 C593 1.349 . S
C594 C606 1.349 1_545 S
C595 C593 1.327 . S
C595 C611 1.429 . S
C595 H617 0.950 . S
C596 H592 0.949 . S
C596 C604 1.574 1_565 S
C596 C612 1.368 1_565 S
H597 C605 0.950 . S
H598 C603 0.950 . S
H599 C604 0.951 1_565 S
H600 C606 0.950 . S
H601 C607 0.950 . S
H602 C608 0.949 . S
C603 H598 0.950 . S
C603 C605 1.327 . S
C603 C609 1.429 . S
C604 C596 1.574 1_545 S
C604 H599 0.951 1_545 S
C604 C610 1.366 . S
C605 C589 1.349 . S
C605 H597 0.950 . S
C605 C603 1.327 . S
C606 C594 1.349 1_565 S
C606 H600 0.950 . S
C606 C607 1.327 . S
C607 H601 0.950 . S
C607 C606 1.327 . S
C607 C611 1.429 1_565 S
C608 C591 1.574 . S
C608 H602 0.949 . S
C608 C612 1.368 . S
C609 C590 1.429 . S
C609 C603 1.429 . S
C609 C610 1.523 . S
C610 C591 1.368 . S
C610 C604 1.366 . S
C610 C609 1.523 . S
C611 C595 1.429 . S
C611 C607 1.429 1_545 S
C611 C612 1.523 . S
C612 C596 1.368 1_545 S
C612 C608 1.368 . S
C612 C611 1.523 . S
H613 C588 0.950 1_565 S
H614 C590 0.950 1_565 S
H615 C591 0.949 . S
H616 C593 0.950 . S
H617 C595 0.950 . S
C618 C619 1.349 . S
C618 C620 1.327 . S
C618 H643 0.950 . S
C619 C618 1.349 . S
C619 C635 1.349 . S
C620 C618 1.327 . S
C620 C639 1.429 . S
C620 H644 0.950 . S
C621 C638 1.574 . S
C621 C640 1.368 . S
C621 H645 0.949 . S
H622 C626 0.949 . S
C623 C624 1.349 . S
C623 C625 1.327 . S
C623 H646 0.950 . S
C624 C623 1.349 . S
C624 C636 1.349 . S
C625 C623 1.327 . S
C625 C641 1.429 . S
C625 H647 0.950 . S
C626 H622 0.949 . S
C626 C634 1.574 . S
C626 C642 1.368 . S
H627 C635 0.950 . S
H628 C633 0.950 . S
H629 C634 0.949 . S
H630 C636 0.950 . S
H631 C637 0.950 . S
H632 C638 0.949 . S
C633 H628 0.950 . S
C633 C635 1.327 . S
C633 C639 1.429 . S
C634 C626 1.574 . S
C634 H629 0.949 . S
C634 C640 1.368 . S
C635 C619 1.349 . S
C635 H627 0.950 . S
C635 C633 1.327 . S
C636 C624 1.349 . S
C636 H630 0.950 . S
C636 C637 1.327 . S
C637 H631 0.950 . S
C637 C636 1.327 . S
C637 C641 1.429 . S
C638 C621 1.574 . S
C638 H632 0.949 . S
C638 C642 1.368 . S
C639 C620 1.429 . S
C639 C633 1.429 . S
C639 C640 1.523 . S
C640 C621 1.368 . S
C640 C634 1.368 . S
C640 C639 1.523 . S
C641 C625 1.429 . S
C641 C637 1.429 . S
C641 C642 1.523 . S
C642 C626 1.368 . S
C642 C638 1.368 . S
C642 C641 1.523 . S
H643 C618 0.950 . S
H644 C620 0.950 . S
H645 C621 0.949 . S
H646 C623 0.950 . S
H647 C625 0.950 . S
C648 C649 1.349 . S
C648 C650 1.327 . S
C648 H673 0.950 . S
C649 C648 1.349 . S
C649 C665 1.349 . S
C650 C648 1.327 . S
C650 C669 1.429 . S
C650 H674 0.950 . S
C651 C668 1.574 . S
C651 C670 1.368 . S
C651 H675 0.949 1_545 S
H652 C656 0.949 . S
C653 C654 1.349 . S
C653 C655 1.327 . S
C653 H676 0.950 1_545 S
C654 C653 1.349 . S
C654 C666 1.349 . S
C655 C653 1.327 . S
C655 C671 1.429 . S
C655 H677 0.950 1_545 S
C656 H652 0.949 . S
C656 C664 1.574 . S
C656 C672 1.368 . S
H657 C665 0.950 1_565 S
H658 C663 0.950 1_565 S
H659 C664 0.949 . S
H660 C666 0.950 . S
H661 C667 0.950 . S
H662 C668 0.949 1_565 S
C663 H658 0.950 1_545 S
C663 C665 1.327 . S
C663 C669 1.429 . S
C664 C656 1.574 . S
C664 H659 0.949 . S
C664 C670 1.368 . S
C665 C649 1.349 . S
C665 H657 0.950 1_545 S
C665 C663 1.327 . S
C666 C654 1.349 . S
C666 H660 0.950 . S
C666 C667 1.327 . S
C667 H661 0.950 . S
C667 C666 1.327 . S
C667 C671 1.429 . S
C668 C651 1.574 . S
C668 H662 0.949 1_545 S
C668 C672 1.368 . S
C669 C650 1.429 . S
C669 C663 1.429 . S
C669 C670 1.523 . S
C670 C651 1.368 . S
C670 C664 1.368 . S
C670 C669 1.523 . S
C671 C655 1.429 . S
C671 C667 1.429 . S
C671 C672 1.523 . S
C672 C656 1.368 . S
C672 C668 1.368 . S
C672 C671 1.523 . S
H673 C648 0.950 . S
H674 C650 0.950 . S
H675 C651 0.949 1_565 S
H676 C653 0.950 1_565 S
H677 C655 0.950 1_565 S
C678 C679 1.349 . S
C678 C680 1.327 . S
C678 H703 0.950 . S
C679 C678 1.349 . S
C679 C695 1.349 . S
C680 C678 1.327 . S
C680 C699 1.429 . S
C680 H704 0.950 . S
C681 C698 1.574 1_556 S
C681 C700 1.368 . S
C681 H705 0.949 . S
H682 C686 0.951 1_554 S
C683 C684 1.349 . S
C683 C685 1.327 . S
C683 H706 0.950 . S
C684 C683 1.349 . S
C684 C696 1.349 . S
C685 C683 1.327 . S
C685 C701 1.429 . S
C685 H707 0.950 . S
C686 H682 0.951 1_556 S
C686 C694 1.569 . S
C686 C702 1.371 1_556 S
H687 C695 0.950 . S
H688 C693 0.950 . S
H689 C694 0.949 . S
H690 C696 0.950 . S
H691 C697 0.950 . S
H692 C698 0.949 . S
C693 H688 0.950 . S
C693 C695 1.327 . S
C693 C699 1.429 . S
C694 C686 1.569 . S
C694 H689 0.949 . S
C694 C700 1.368 . S
C695 C679 1.349 . S
C695 H687 0.950 . S
C695 C693 1.327 . S
C696 C684 1.349 . S
C696 H690 0.950 . S
C696 C697 1.327 . S
C697 H691 0.950 . S
C697 C696 1.327 . S
C697 C701 1.429 . S
C698 C681 1.574 1_554 S
C698 H692 0.949 . S
C698 C702 1.368 . S
C699 C680 1.429 . S
C699 C693 1.429 . S
C699 C700 1.523 . S
C700 C681 1.368 . S
C700 C694 1.368 . S
C700 C699 1.523 . S
C701 C685 1.429 . S
C701 C697 1.429 . S
C701 C702 1.523 . S
C702 C686 1.371 1_554 S
C702 C698 1.368 . S
C702 C701 1.523 . S
H703 C678 0.950 . S
H704 C680 0.950 . S
H705 C681 0.949 . S
H706 C683 0.950 . S
H707 C685 0.950 . S
C708 C709 1.349 . S
C708 C710 1.327 . S
C708 H733 0.950 . S
C709 C708 1.349 . S
C709 C725 1.349 1_455 S
C710 C708 1.327 . S
C710 C729 1.429 . S
C710 H734 0.950 . S
C711 C728 1.574 . S
C711 C730 1.368 . S
C711 H735 0.949 1_455 S
H712 C716 0.949 . S
C713 C714 1.349 . S
C713 C715 1.327 . S
C713 H736 0.950 . S
C714 C713 1.349 . S
C714 C726 1.349 . S
C715 C713 1.327 . S
C715 C731 1.429 . S
C715 H737 0.950 . S
C716 H712 0.949 . S
C716 C724 1.574 . S
C716 C732 1.368 . S
H717 C725 0.950 . S
H718 C723 0.950 . S
H719 C724 0.949 . S
H720 C726 0.950 . S
H721 C727 0.950 . S
H722 C728 0.949 1_655 S
C723 H718 0.950 . S
C723 C725 1.327 . S
C723 C729 1.429 1_655 S
C724 C716 1.574 . S
C724 H719 0.949 . S
C724 C730 1.368 . S
C725 C709 1.349 1_655 S
C725 H717 0.950 . S
C725 C723 1.327 . S
C726 C714 1.349 . S
C726 H720 0.950 . S
C726 C727 1.327 . S
C727 H721 0.950 . S
C727 C726 1.327 . S
C727 C731 1.429 . S
C728 C711 1.574 . S
C728 H722 0.949 1_455 S
C728 C732 1.368 . S
C729 C710 1.429 . S
C729 C723 1.429 1_455 S
C729 C730 1.523 . S
C730 C711 1.368 . S
C730 C724 1.368 . S
C730 C729 1.523 . S
C731 C715 1.429 . S
C731 C727 1.429 . S
C731 C732 1.523 . S
C732 C716 1.368 . S
C732 C728 1.368 . S
C732 C731 1.523 . S
H733 C708 0.950 . S
H734 C710 0.950 . S
H735 C711 0.949 1_655 S
H736 C713 0.950 . S
H737 C715 0.950 . S
C199 C9 0.257 . S
C204 N187 0.260 . S
C229 C49 0.168 . S
C234 N160 0.223 . S
C259 C89 0.164 . S
C264 N173 0.211 . S
C289 C26 0.562 . S
C294 N186 0.530 . S
C324 N161 0.446 . S
C319 C66 0.519 . S
C354 N174 0.428 . S
C349 C106 0.507 . S
C379 C43 2.792 . S
C384 N134 2.790 . S
C409 C83 2.698 . S
C414 N148 2.650 . S
C439 C22 3.149 . S
C444 N122 3.118 . S
C474 N135 3.126 . S
C469 C62 3.152 . S
C504 N147 3.310 . S
C499 C102 3.296 . S
C529 C3 2.792 . S
C534 N121 2.794 . S
C564 N151 1.760 . S
C559 C15 1.743 . S
C589 C55 1.706 . S
C594 N125 1.768 . S
C619 C95 1.695 . S
C624 N138 1.753 . S
C654 N177 1.275 . S
C649 C42 1.278 . S
C684 N190 1.243 . S
C679 C82 1.248 . S
C709 C2 1.275 . S
C714 N164 1.276 . S
