# Generated by pormake.
# Topology ctn, (3,4)-cn, num edge types: 1
# Building blocks:
#     Node 0, Type 0, BuildingBlock: KAKCAD_clean_linker_0, # of connection points: 3
#     Node 1, Type 0, BuildingBlock: KAKCAD_clean_linker_0, # of connection points: 3
#     Node 2, Type 0, BuildingBlock: KAKCAD_clean_linker_0, # of connection points: 3
#     Node 3, Type 0, BuildingBlock: KAKCAD_clean_linker_0, # of connection points: 3
#     Node 4, Type 0, BuildingBlock: KAKCAD_clean_linker_0, # of connection points: 3
#     Node 5, Type 0, BuildingBlock: KAKCAD_clean_linker_0, # of connection points: 3
#     Node 6, Type 0, BuildingBlock: KAKCAD_clean_linker_0, # of connection points: 3
#     Node 7, Type 0, BuildingBlock: KAKCAD_clean_linker_0, # of connection points: 3
#     Node 8, Type 0, BuildingBlock: KAKCAD_clean_linker_0, # of connection points: 3
#     Node 9, Type 0, BuildingBlock: KAKCAD_clean_linker_0, # of connection points: 3
#     Node 10, Type 0, BuildingBlock: KAKCAD_clean_linker_0, # of connection points: 3
#     Node 11, Type 0, BuildingBlock: KAKCAD_clean_linker_0, # of connection points: 3
#     Node 12, Type 0, BuildingBlock: KAKCAD_clean_linker_0, # of connection points: 3
#     Node 13, Type 0, BuildingBlock: KAKCAD_clean_linker_0, # of connection points: 3
#     Node 14, Type 0, BuildingBlock: KAKCAD_clean_linker_0, # of connection points: 3
#     Node 15, Type 0, BuildingBlock: KAKCAD_clean_linker_0, # of connection points: 3
#     Node 16, Type 1, BuildingBlock: AZAVOO_clean_sbu_0, # of connection points: 4
#     Node 17, Type 1, BuildingBlock: AZAVOO_clean_sbu_0, # of connection points: 4
#     Node 18, Type 1, BuildingBlock: AZAVOO_clean_sbu_0, # of connection points: 4
#     Node 19, Type 1, BuildingBlock: AZAVOO_clean_sbu_0, # of connection points: 4
#     Node 20, Type 1, BuildingBlock: AZAVOO_clean_sbu_0, # of connection points: 4
#     Node 21, Type 1, BuildingBlock: AZAVOO_clean_sbu_0, # of connection points: 4
#     Node 22, Type 1, BuildingBlock: AZAVOO_clean_sbu_0, # of connection points: 4
#     Node 23, Type 1, BuildingBlock: AZAVOO_clean_sbu_0, # of connection points: 4
#     Node 24, Type 1, BuildingBlock: AZAVOO_clean_sbu_0, # of connection points: 4
#     Node 25, Type 1, BuildingBlock: AZAVOO_clean_sbu_0, # of connection points: 4
#     Node 26, Type 1, BuildingBlock: AZAVOO_clean_sbu_0, # of connection points: 4
#     Node 27, Type 1, BuildingBlock: AZAVOO_clean_sbu_0, # of connection points: 4
#     Edge 28, Type (0, 1), BuildingBlock: TEMPAE_clean_linker_10, # of connection points: 2
#     Edge 29, Type (0, 1), BuildingBlock: TEMPAE_clean_linker_10, # of connection points: 2
#     Edge 30, Type (0, 1), BuildingBlock: TEMPAE_clean_linker_10, # of connection points: 2
#     Edge 31, Type (0, 1), BuildingBlock: TEMPAE_clean_linker_10, # of connection points: 2
#     Edge 32, Type (0, 1), BuildingBlock: TEMPAE_clean_linker_10, # of connection points: 2
#     Edge 33, Type (0, 1), BuildingBlock: TEMPAE_clean_linker_10, # of connection points: 2
#     Edge 34, Type (0, 1), BuildingBlock: TEMPAE_clean_linker_10, # of connection points: 2
#     Edge 35, Type (0, 1), BuildingBlock: TEMPAE_clean_linker_10, # of connection points: 2
#     Edge 36, Type (0, 1), BuildingBlock: TEMPAE_clean_linker_10, # of connection points: 2
#     Edge 37, Type (0, 1), BuildingBlock: TEMPAE_clean_linker_10, # of connection points: 2
#     Edge 38, Type (0, 1), BuildingBlock: TEMPAE_clean_linker_10, # of connection points: 2
#     Edge 39, Type (0, 1), BuildingBlock: TEMPAE_clean_linker_10, # of connection points: 2
#     Edge 40, Type (0, 1), BuildingBlock: TEMPAE_clean_linker_10, # of connection points: 2
#     Edge 41, Type (0, 1), BuildingBlock: TEMPAE_clean_linker_10, # of connection points: 2
#     Edge 42, Type (0, 1), BuildingBlock: TEMPAE_clean_linker_10, # of connection points: 2
#     Edge 43, Type (0, 1), BuildingBlock: TEMPAE_clean_linker_10, # of connection points: 2
#     Edge 44, Type (0, 1), BuildingBlock: TEMPAE_clean_linker_10, # of connection points: 2
#     Edge 45, Type (0, 1), BuildingBlock: TEMPAE_clean_linker_10, # of connection points: 2
#     Edge 46, Type (0, 1), BuildingBlock: TEMPAE_clean_linker_10, # of connection points: 2
#     Edge 47, Type (0, 1), BuildingBlock: TEMPAE_clean_linker_10, # of connection points: 2
#     Edge 48, Type (0, 1), BuildingBlock: TEMPAE_clean_linker_10, # of connection points: 2
#     Edge 49, Type (0, 1), BuildingBlock: TEMPAE_clean_linker_10, # of connection points: 2
#     Edge 50, Type (0, 1), BuildingBlock: TEMPAE_clean_linker_10, # of connection points: 2
#     Edge 51, Type (0, 1), BuildingBlock: TEMPAE_clean_linker_10, # of connection points: 2
#     Edge 52, Type (0, 1), BuildingBlock: TEMPAE_clean_linker_10, # of connection points: 2
#     Edge 53, Type (0, 1), BuildingBlock: TEMPAE_clean_linker_10, # of connection points: 2
#     Edge 54, Type (0, 1), BuildingBlock: TEMPAE_clean_linker_10, # of connection points: 2
#     Edge 55, Type (0, 1), BuildingBlock: TEMPAE_clean_linker_10, # of connection points: 2
#     Edge 56, Type (0, 1), BuildingBlock: TEMPAE_clean_linker_10, # of connection points: 2
#     Edge 57, Type (0, 1), BuildingBlock: TEMPAE_clean_linker_10, # of connection points: 2
#     Edge 58, Type (0, 1), BuildingBlock: TEMPAE_clean_linker_10, # of connection points: 2
#     Edge 59, Type (0, 1), BuildingBlock: TEMPAE_clean_linker_10, # of connection points: 2
#     Edge 60, Type (0, 1), BuildingBlock: TEMPAE_clean_linker_10, # of connection points: 2
#     Edge 61, Type (0, 1), BuildingBlock: TEMPAE_clean_linker_10, # of connection points: 2
#     Edge 62, Type (0, 1), BuildingBlock: TEMPAE_clean_linker_10, # of connection points: 2
#     Edge 63, Type (0, 1), BuildingBlock: TEMPAE_clean_linker_10, # of connection points: 2
#     Edge 64, Type (0, 1), BuildingBlock: TEMPAE_clean_linker_10, # of connection points: 2
#     Edge 65, Type (0, 1), BuildingBlock: TEMPAE_clean_linker_10, # of connection points: 2
#     Edge 66, Type (0, 1), BuildingBlock: TEMPAE_clean_linker_10, # of connection points: 2
#     Edge 67, Type (0, 1), BuildingBlock: TEMPAE_clean_linker_10, # of connection points: 2
#     Edge 68, Type (0, 1), BuildingBlock: TEMPAE_clean_linker_10, # of connection points: 2
#     Edge 69, Type (0, 1), BuildingBlock: TEMPAE_clean_linker_10, # of connection points: 2
#     Edge 70, Type (0, 1), BuildingBlock: TEMPAE_clean_linker_10, # of connection points: 2
#     Edge 71, Type (0, 1), BuildingBlock: TEMPAE_clean_linker_10, # of connection points: 2
#     Edge 72, Type (0, 1), BuildingBlock: TEMPAE_clean_linker_10, # of connection points: 2
#     Edge 73, Type (0, 1), BuildingBlock: TEMPAE_clean_linker_10, # of connection points: 2
#     Edge 74, Type (0, 1), BuildingBlock: TEMPAE_clean_linker_10, # of connection points: 2
#     Edge 75, Type (0, 1), BuildingBlock: TEMPAE_clean_linker_10, # of connection points: 2
# Relax obj value: 0.001
# Max RMSD: 0.042
# Mean RMSD: 0.022
data_MOF--net-ctn--node1-AZAVOO_clean_sbu_0--node2-KAKCAD_clean_linker_0--edge1-TEMPAE_clean_linker_10
_symmetry_space_group_name_H-M    P1
_symmetry_Int_Tables_number       1
_symmetry_cell_setting            triclinic
loop_
_symmetry_equiv_pos_as_xyz
'x, y, z'
_cell_length_a     67.422554
_cell_length_b     68.346262
_cell_length_c     68.271584
_cell_angle_alpha  90.191396
_cell_angle_beta   92.991563
_cell_angle_gamma 93.128939
loop_
_atom_site_label
_atom_site_type_symbol
_atom_site_fract_x
_atom_site_fract_y
_atom_site_fract_z
_atom_type_partial_charge
C0 C 0.02501 0.06786 0.95295 0.0
C1 C 0.01776 0.08513 0.96027 0.0
C2 C 0.02588 0.05119 0.96474 0.0
C3 C 0.02004 0.05167 0.98426 0.0
C4 C 0.01247 0.06903 0.9913 0.0
C5 C 0.01114 0.08547 0.97936 0.0
C6 C 0.02297 0.03476 0.99769 0.0
C7 C 0.0395 0.02323 0.99628 0.0
C8 C 0.04344 0.00854 0.01007 0.0
C9 C 0.0309 0.00571 0.02576 0.0
C10 C 0.0144 0.01717 0.02755 0.0
C11 C 0.01019 0.03109 0.01304 0.0
C12 C 0.00253 0.01588 0.04534 0.0
C13 C 0.9979 0.9978 0.05428 0.0
C14 C 0.99642 0.0331 0.054 0.0
C15 C 0.98615 0.03232 0.0712 0.0
C16 C 0.98188 0.01434 0.0804 0.0
C17 C 0.06124 0.99682 0.00851 0.0
C18 C 0.06622 0.98948 0.99025 0.0
C19 C 0.07349 0.99308 0.02522 0.0
C20 C 0.09026 0.98215 0.02372 0.0
C21 C 0.09518 0.97469 0.00548 0.0
C22 C 0.08298 0.9785 0.98875 0.0
C23 C 0.98767 0.99703 0.07163 0.0
H24 H 0.03019 0.06737 0.93821 0.0
H25 H 0.03143 0.03805 0.95862 0.0
H26 H 0.00828 0.0703 0.00632 0.0
H27 H 0.00579 0.09878 0.98537 0.0
H28 H 0.04992 0.02623 0.98498 0.0
H29 H 0.99703 0.03939 0.01397 0.0
H30 H 0.03429 0.9949 0.03683 0.0
H31 H 0.00224 0.98424 0.04792 0.0
H32 H 0.99997 0.04733 0.04776 0.0
H33 H 0.98162 0.04591 0.07736 0.0
H34 H 0.05701 0.99202 0.97712 0.0
H35 H 0.07022 0.99875 0.03946 0.0
H36 H 0.98469 0.98294 0.0784 0.0
H37 H 0.08644 0.97307 0.97448 0.0
H38 H 0.09921 0.97927 0.03692 0.0
C39 C 0.37004 0.74954 0.27972 0.0
C40 C 0.37974 0.73333 0.28744 0.0
C41 C 0.35391 0.74689 0.26608 0.0
C42 C 0.34717 0.72798 0.25969 0.0
C43 C 0.35693 0.7118 0.26736 0.0
C44 C 0.37291 0.71443 0.28113 0.0
C45 C 0.3302 0.72505 0.24492 0.0
C46 C 0.3279 0.73807 0.22916 0.0
C47 C 0.31244 0.73478 0.2148 0.0
C48 C 0.29913 0.71842 0.21615 0.0
C49 C 0.30086 0.70548 0.23199 0.0
C50 C 0.31641 0.70896 0.24634 0.0
C51 C 0.28646 0.68836 0.2336 0.0
C52 C 0.26606 0.69011 0.22889 0.0
C53 C 0.29299 0.67013 0.23992 0.0
C54 C 0.27945 0.6541 0.24169 0.0
C55 C 0.25907 0.6559 0.2371 0.0
C56 C 0.31003 0.74846 0.19832 0.0
C57 C 0.30501 0.76778 0.20178 0.0
C58 C 0.31171 0.74195 0.179 0.0
C59 C 0.30815 0.75454 0.16329 0.0
C60 C 0.30244 0.77365 0.16669 0.0
C61 C 0.301 0.78024 0.18604 0.0
C62 C 0.25253 0.67404 0.23057 0.0
H63 H 0.37502 0.76432 0.28408 0.0
H64 H 0.34663 0.75969 0.26067 0.0
H65 H 0.35237 0.69703 0.26259 0.0
H66 H 0.37979 0.70158 0.28695 0.0
H67 H 0.33841 0.75048 0.22765 0.0
H68 H 0.31754 0.69931 0.25885 0.0
H69 H 0.2874 0.71585 0.20482 0.0
H70 H 0.26049 0.70401 0.22424 0.0
H71 H 0.30862 0.66817 0.24332 0.0
H72 H 0.28498 0.64022 0.24646 0.0
H73 H 0.30355 0.77299 0.21661 0.0
H74 H 0.31555 0.72707 0.17609 0.0
H75 H 0.23688 0.67591 0.22714 0.0
H76 H 0.29654 0.79492 0.18892 0.0
H77 H 0.30916 0.74915 0.14845 0.0
C78 C 0.01121 0.48696 0.11726 0.0
C79 C 0.03163 0.49103 0.11511 0.0
C80 C 0.99812 0.48458 0.10072 0.0
C81 C 0.00533 0.48581 0.0818 0.0
C82 C 0.02573 0.48991 0.07967 0.0
C83 C 0.03874 0.49267 0.09618 0.0
C84 C 0.99172 0.48226 0.06427 0.0
C85 C 0.97446 0.49273 0.06154 0.0
C86 C 0.96162 0.48949 0.0448 0.0
C87 C 0.96607 0.47528 0.03098 0.0
C88 C 0.98317 0.4645 0.03364 0.0
C89 C 0.99601 0.46826 0.05025 0.0
C90 C 0.9873 0.44884 0.01947 0.0
C91 C 0.97184 0.43587 0.01194 0.0
C92 C 0.0068 0.44626 0.01396 0.0
C93 C 0.01081 0.43077 0.0016 0.0
C94 C 0.99541 0.41754 0.99445 0.0
C95 C 0.94371 0.50109 0.04161 0.0
C96 C 0.93179 0.50515 0.05726 0.0
C97 C 0.93855 0.50843 0.02292 0.0
C98 C 0.92203 0.51977 0.02 0.0
C99 C 0.91026 0.52404 0.03571 0.0
C100 C 0.91526 0.51648 0.05434 0.0
C101 C 0.97585 0.42042 0.99957 0.0
H102 H 0.0054 0.48566 0.13172 0.0
H103 H 0.98245 0.48133 0.1027 0.0
H104 H 0.03161 0.49098 0.06522 0.0
H105 H 0.05445 0.49567 0.09416 0.0
H106 H 0.97138 0.5038 0.07221 0.0
H107 H 0.00906 0.45982 0.05268 0.0
H108 H 0.95615 0.47255 0.01815 0.0
H109 H 0.9567 0.43725 0.01612 0.0
H110 H 0.01899 0.45619 0.01925 0.0
H111 H 0.026 0.42909 0.99772 0.0
H112 H 0.93523 0.49954 0.07179 0.0
H113 H 0.94752 0.50573 0.01058 0.0
H114 H 0.9637 0.41031 0.99455 0.0
H115 H 0.90664 0.51968 0.0668 0.0
H116 H 0.91849 0.52524 0.00543 0.0
C117 C 0.70292 0.76738 0.15937 0.0
C118 C 0.72223 0.76441 0.15346 0.0
C119 C 0.69941 0.78291 0.1719 0.0
C120 C 0.71518 0.79565 0.1793 0.0
C121 C 0.73449 0.79254 0.1735 0.0
C122 C 0.7379 0.7774 0.16056 0.0
C123 C 0.71174 0.81173 0.19342 0.0
C124 C 0.69688 0.80943 0.20706 0.0
C125 C 0.69432 0.82403 0.22108 0.0
C126 C 0.70726 0.84085 0.22193 0.0
C127 C 0.72226 0.84352 0.20848 0.0
C128 C 0.7239 0.82915 0.19393 0.0
C129 C 0.73683 0.86075 0.21013 0.0
C130 C 0.7311 0.87922 0.21629 0.0
C131 C 0.75688 0.85865 0.20611 0.0
C132 C 0.77076 0.87453 0.2081 0.0
C133 C 0.76505 0.89281 0.2145 0.0
C134 C 0.6784 0.82131 0.23518 0.0
C135 C 0.65912 0.81455 0.2286 0.0
C136 C 0.68242 0.825 0.25529 0.0
C137 C 0.66759 0.82156 0.2686 0.0
C138 C 0.6484 0.8145 0.26206 0.0
C139 C 0.64426 0.81124 0.24189 0.0
C140 C 0.74512 0.89504 0.21861 0.0
H141 H 0.69044 0.75763 0.15448 0.0
H142 H 0.68426 0.7849 0.17569 0.0
H143 H 0.74718 0.80165 0.17911 0.0
H144 H 0.75292 0.77604 0.15607 0.0
H145 H 0.68766 0.79596 0.20732 0.0
H146 H 0.73477 0.83158 0.18294 0.0
H147 H 0.70574 0.85173 0.23324 0.0
H148 H 0.71578 0.88152 0.21924 0.0
H149 H 0.76203 0.84461 0.20183 0.0
H150 H 0.78612 0.87237 0.20512 0.0
H151 H 0.65556 0.81175 0.21315 0.0
H152 H 0.69717 0.83008 0.26079 0.0
H153 H 0.74037 0.90906 0.22348 0.0
H154 H 0.62966 0.80564 0.23644 0.0
H155 H 0.67115 0.82433 0.28406 0.0
C156 C 0.99058 0.99153 0.42473 0.0
C157 C 0.99804 0.00124 0.40829 0.0
C158 C 0.00265 0.98933 0.44179 0.0
C159 C 0.02271 0.99636 0.44279 0.0
C160 C 0.0302 0.00595 0.42629 0.0
C161 C 0.01799 0.00858 0.40943 0.0
C162 C 0.03569 0.99378 0.46095 0.0
C163 C 0.033 0.97711 0.47276 0.0
C164 C 0.04459 0.97481 0.49032 0.0
C165 C 0.05963 0.98928 0.49556 0.0
C166 C 0.06328 0.00546 0.4834 0.0
C167 C 0.05097 0.00785 0.46646 0.0
C168 C 0.08057 0.01943 0.48778 0.0
C169 C 0.08432 0.02762 0.50659 0.0
C170 C 0.09369 0.02436 0.47304 0.0
C171 C 0.11024 0.03721 0.47699 0.0
C172 C 0.11396 0.04568 0.49572 0.0
C173 C 0.04127 0.95703 0.50275 0.0
C174 C 0.02219 0.94772 0.50357 0.0
C175 C 0.05715 0.94889 0.51353 0.0
C176 C 0.05408 0.93187 0.52453 0.0
C177 C 0.03515 0.9221 0.52466 0.0
C178 C 0.01924 0.93039 0.51407 0.0
C179 C 0.10077 0.04072 0.51049 0.0
H180 H 0.97544 0.98536 0.42445 0.0
H181 H 0.99613 0.98219 0.45423 0.0
H182 H 0.04559 0.01131 0.4262 0.0
H183 H 0.0243 0.0165 0.39732 0.0
H184 H 0.02219 0.96559 0.46795 0.0
H185 H 0.05332 0.02088 0.45772 0.0
H186 H 0.06884 0.98786 0.50889 0.0
H187 H 0.07436 0.02413 0.51818 0.0
H188 H 0.09134 0.01799 0.4585 0.0
H189 H 0.12026 0.04029 0.46536 0.0
H190 H 0.00941 0.95367 0.49596 0.0
H191 H 0.07215 0.95534 0.51319 0.0
H192 H 0.10296 0.04715 0.525 0.0
H193 H 0.00447 0.92332 0.51342 0.0
H194 H 0.0667 0.92634 0.53279 0.0
C195 C 0.14616 0.70543 0.72306 0.0
C196 C 0.14346 0.7238 0.7143 0.0
C197 C 0.16157 0.70307 0.73724 0.0
C198 C 0.17438 0.71908 0.74324 0.0
C199 C 0.17173 0.73743 0.73463 0.0
C200 C 0.15658 0.73973 0.72019 0.0
C201 C 0.19023 0.71675 0.75876 0.0
C202 C 0.20389 0.70208 0.75719 0.0
C203 C 0.21905 0.69994 0.77185 0.0
C204 C 0.21995 0.71227 0.78842 0.0
C205 C 0.20626 0.72685 0.79029 0.0
C206 C 0.19162 0.72919 0.77524 0.0
C207 C 0.20713 0.73931 0.80819 0.0
C208 C 0.20966 0.7308 0.82679 0.0
C209 C 0.20568 0.75971 0.80686 0.0
C210 C 0.2071 0.7714 0.82381 0.0
C211 C 0.20977 0.76285 0.8424 0.0
C212 C 0.2342 0.68514 0.76982 0.0
C213 C 0.22873 0.66607 0.76298 0.0
C214 C 0.25434 0.69003 0.77487 0.0
C215 C 0.26866 0.67619 0.77326 0.0
C216 C 0.26322 0.65708 0.76656 0.0
C217 C 0.24309 0.65219 0.76138 0.0
C218 C 0.21093 0.74242 0.84369 0.0
H219 H 0.13619 0.69289 0.71925 0.0
H220 H 0.16321 0.68882 0.74384 0.0
H221 H 0.18156 0.74995 0.73892 0.0
H222 H 0.15533 0.75398 0.71352 0.0
H223 H 0.20306 0.69277 0.74426 0.0
H224 H 0.18086 0.74027 0.77664 0.0
H225 H 0.23139 0.71053 0.79995 0.0
H226 H 0.21062 0.7151 0.82828 0.0
H227 H 0.20382 0.76667 0.7927 0.0
H228 H 0.20607 0.78709 0.82239 0.0
H229 H 0.2133 0.66179 0.75917 0.0
H230 H 0.25912 0.70469 0.77983 0.0
H231 H 0.21324 0.73543 0.85778 0.0
H232 H 0.23839 0.63754 0.75633 0.0
H233 H 0.28408 0.68058 0.77698 0.0
C234 C 0.9798 0.58899 0.48226 0.0
C235 C 0.98009 0.58838 0.50284 0.0
C236 C 0.97666 0.57176 0.47119 0.0
C237 C 0.97348 0.55363 0.48048 0.0
C238 C 0.97384 0.55302 0.50107 0.0
C239 C 0.97726 0.57023 0.51215 0.0
C240 C 0.96957 0.53544 0.46871 0.0
C241 C 0.98174 0.5312 0.45338 0.0
C242 C 0.97809 0.51406 0.44204 0.0
C243 C 0.96203 0.50103 0.44632 0.0
C244 C 0.9495 0.50513 0.46154 0.0
C245 C 0.95347 0.52242 0.47263 0.0
C246 C 0.93208 0.49165 0.46567 0.0
C247 C 0.92082 0.48184 0.45033 0.0
C248 C 0.92631 0.48876 0.48501 0.0
C249 C 0.90962 0.47664 0.48888 0.0
C250 C 0.8984 0.46677 0.47355 0.0
C251 C 0.99108 0.50995 0.4257 0.0
C252 C 0.99762 0.52517 0.41341 0.0
C253 C 0.99739 0.49097 0.4225 0.0
C254 C 0.01027 0.48742 0.4076 0.0
C255 C 0.01712 0.50276 0.39557 0.0
C256 C 0.0105 0.52165 0.3986 0.0
C257 C 0.90431 0.46947 0.45423 0.0
H258 H 0.98205 0.6028 0.47473 0.0
H259 H 0.97635 0.57264 0.45533 0.0
H260 H 0.97156 0.53921 0.50859 0.0
H261 H 0.97729 0.56939 0.528 0.0
H262 H 0.99435 0.54113 0.45058 0.0
H263 H 0.94369 0.52615 0.48401 0.0
H264 H 0.95924 0.48775 0.4377 0.0
H265 H 0.92456 0.48388 0.43522 0.0
H266 H 0.93473 0.49579 0.49728 0.0
H267 H 0.90545 0.47518 0.50392 0.0
H268 H 0.99283 0.53991 0.41528 0.0
H269 H 0.99275 0.47893 0.43178 0.0
H270 H 0.89628 0.46189 0.44205 0.0
H271 H 0.01566 0.53388 0.38981 0.0
H272 H 0.01493 0.47267 0.40557 0.0
C273 C 0.81452 0.73256 0.84139 0.0
C274 C 0.796 0.72423 0.84654 0.0
C275 C 0.81579 0.74526 0.82545 0.0
C276 C 0.79856 0.74999 0.81438 0.0
C277 C 0.78012 0.74118 0.81915 0.0
C278 C 0.77886 0.7284 0.83502 0.0
C279 C 0.79971 0.76475 0.79851 0.0
C280 C 0.81492 0.7646 0.78523 0.0
C281 C 0.81657 0.77898 0.77064 0.0
C282 C 0.8027 0.79363 0.76948 0.0
C283 C 0.78737 0.79403 0.78265 0.0
C284 C 0.78595 0.77947 0.79705 0.0
C285 C 0.77323 0.81001 0.78173 0.0
C286 C 0.78013 0.82946 0.77859 0.0
C287 C 0.7528 0.80602 0.7841 0.0
C288 C 0.73959 0.82114 0.78328 0.0
C289 C 0.74654 0.84058 0.78015 0.0
C290 C 0.83276 0.77874 0.75665 0.0
C291 C 0.85211 0.77413 0.76309 0.0
C292 C 0.82898 0.78305 0.73672 0.0
C293 C 0.84412 0.78265 0.72354 0.0
C294 C 0.86339 0.77784 0.72995 0.0
C295 C 0.86724 0.77364 0.74987 0.0
C296 C 0.76696 0.84454 0.77778 0.0
H297 H 0.82799 0.72952 0.84993 0.0
H298 H 0.83019 0.75191 0.82221 0.0
H299 H 0.76662 0.74438 0.81076 0.0
H300 H 0.76436 0.72237 0.83873 0.0
H301 H 0.82529 0.75302 0.78605 0.0
H302 H 0.77456 0.78002 0.80763 0.0
H303 H 0.80392 0.80485 0.75838 0.0
H304 H 0.79579 0.8331 0.77695 0.0
H305 H 0.74699 0.79116 0.78639 0.0
H306 H 0.72397 0.81762 0.78527 0.0
H307 H 0.85562 0.77107 0.77839 0.0
H308 H 0.8142 0.78635 0.7312 0.0
H309 H 0.77278 0.85931 0.77507 0.0
H310 H 0.88199 0.77008 0.75527 0.0
H311 H 0.84062 0.78563 0.70822 0.0
C312 C 0.31445 0.23423 0.34287 0.0
C313 C 0.29576 0.22663 0.34833 0.0
C314 C 0.31604 0.24615 0.32636 0.0
C315 C 0.29896 0.25077 0.31498 0.0
C316 C 0.28034 0.24269 0.32012 0.0
C317 C 0.27876 0.23073 0.33659 0.0
C318 C 0.30049 0.26462 0.29833 0.0
C319 C 0.31589 0.26357 0.28534 0.0
C320 C 0.31784 0.27708 0.26999 0.0
C321 C 0.30407 0.29173 0.26768 0.0
C322 C 0.28859 0.29308 0.28058 0.0
C323 C 0.2869 0.2794 0.2958 0.0
C324 C 0.27465 0.3092 0.27865 0.0
C325 C 0.28179 0.32835 0.27445 0.0
C326 C 0.25422 0.3057 0.2814 0.0
C327 C 0.24127 0.32102 0.28007 0.0
C328 C 0.24847 0.34019 0.27602 0.0
C329 C 0.33439 0.276 0.25651 0.0
C330 C 0.3537 0.27231 0.26385 0.0
C331 C 0.33102 0.27861 0.23621 0.0
C332 C 0.34654 0.27734 0.22354 0.0
C333 C 0.3658 0.27348 0.23086 0.0
C334 C 0.36922 0.27108 0.25118 0.0
C335 C 0.26887 0.34363 0.27311 0.0
H336 H 0.32784 0.2312 0.35153 0.0
H337 H 0.33059 0.25224 0.32288 0.0
H338 H 0.26693 0.2458 0.31151 0.0
H339 H 0.26412 0.22526 0.3405 0.0
H340 H 0.32621 0.252 0.287 0.0
H341 H 0.27543 0.28073 0.3062 0.0
H342 H 0.30553 0.30224 0.25593 0.0
H343 H 0.29745 0.33163 0.27249 0.0
H344 H 0.24821 0.29108 0.28448 0.0
H345 H 0.22567 0.31789 0.28248 0.0
H346 H 0.35685 0.27047 0.27943 0.0
H347 H 0.31629 0.28133 0.23006 0.0
H348 H 0.27487 0.35816 0.26967 0.0
H349 H 0.38384 0.2679 0.25728 0.0
H350 H 0.34345 0.27945 0.20798 0.0
C351 C 0.51007 0.98451 0.61956 0.0
C352 C 0.53049 0.98873 0.61756 0.0
C353 C 0.49716 0.9818 0.60293 0.0
C354 C 0.50455 0.98285 0.58408 0.0
C355 C 0.52496 0.98711 0.5821 0.0
C356 C 0.53778 0.99022 0.59869 0.0
C357 C 0.49115 0.97889 0.56648 0.0
C358 C 0.47396 0.98935 0.56323 0.0
C359 C 0.46129 0.98569 0.54643 0.0
C360 C 0.46584 0.97105 0.53312 0.0
C361 C 0.48289 0.9603 0.5363 0.0
C362 C 0.49557 0.96449 0.55294 0.0
C363 C 0.4872 0.9443 0.5226 0.0
C364 C 0.47185 0.93109 0.51529 0.0
C365 C 0.50675 0.94171 0.51727 0.0
C366 C 0.51093 0.92602 0.50526 0.0
C367 C 0.49564 0.91257 0.49829 0.0
C368 C 0.4435 0.99734 0.54263 0.0
C369 C 0.43155 0.00218 0.55801 0.0
C370 C 0.43853 0.00401 0.52363 0.0
C371 C 0.42219 0.01549 0.52014 0.0
C372 C 0.41043 0.0206 0.53558 0.0
C373 C 0.41522 0.01368 0.55453 0.0
C374 C 0.47602 0.91541 0.50327 0.0
H375 H 0.50414 0.98333 0.63397 0.0
H376 H 0.48149 0.97843 0.60478 0.0
H377 H 0.53096 0.98804 0.5677 0.0
H378 H 0.55349 0.99334 0.59681 0.0
H379 H 0.47082 0.00075 0.57353 0.0
H380 H 0.50859 0.95609 0.55576 0.0
H381 H 0.45605 0.96796 0.52026 0.0
H382 H 0.45668 0.9325 0.51935 0.0
H383 H 0.51886 0.95182 0.52241 0.0
H384 H 0.52615 0.92437 0.50146 0.0
H385 H 0.43482 0.9971 0.57278 0.0
H386 H 0.44752 0.00071 0.51148 0.0
H387 H 0.46395 0.90515 0.49839 0.0
H388 H 0.40663 0.01753 0.56681 0.0
H389 H 0.41881 0.02043 0.50535 0.0
C390 C 0.20975 0.26297 0.66644 0.0
C391 C 0.22932 0.25949 0.66169 0.0
C392 C 0.20594 0.27837 0.67899 0.0
C393 C 0.22162 0.29044 0.68763 0.0
C394 C 0.24122 0.28661 0.68328 0.0
C395 C 0.24498 0.27161 0.67029 0.0
C396 C 0.21763 0.30693 0.70106 0.0
C397 C 0.20134 0.30557 0.71316 0.0
C398 C 0.19762 0.32092 0.72597 0.0
C399 C 0.21058 0.33773 0.72694 0.0
C400 C 0.22709 0.33924 0.71527 0.0
C401 C 0.23031 0.324 0.70217 0.0
C402 C 0.2416 0.35627 0.7174 0.0
C403 C 0.23528 0.37552 0.71687 0.0
C404 C 0.26197 0.35323 0.72027 0.0
C405 C 0.27579 0.36912 0.72268 0.0
C406 C 0.26954 0.38838 0.72202 0.0
C407 C 0.18066 0.31891 0.73894 0.0
C408 C 0.16189 0.3115 0.73153 0.0
C409 C 0.18334 0.32364 0.75898 0.0
C410 C 0.16772 0.32049 0.77146 0.0
C411 C 0.14908 0.31266 0.76413 0.0
C412 C 0.14623 0.30847 0.74399 0.0
C413 C 0.24918 0.39147 0.71897 0.0
H414 H 0.19725 0.25383 0.66047 0.0
H415 H 0.1906 0.28091 0.68166 0.0
H416 H 0.25381 0.29516 0.68991 0.0
H417 H 0.26025 0.2698 0.66682 0.0
H418 H 0.19186 0.29226 0.71319 0.0
H419 H 0.24271 0.32566 0.69274 0.0
H420 H 0.20803 0.3495 0.73703 0.0
H421 H 0.21965 0.37822 0.71462 0.0
H422 H 0.2672 0.33852 0.7209 0.0
H423 H 0.29142 0.36636 0.72484 0.0
H424 H 0.15938 0.30788 0.71611 0.0
H425 H 0.19768 0.32923 0.76514 0.0
H426 H 0.24401 0.40621 0.71846 0.0
H427 H 0.13207 0.30229 0.73796 0.0
H428 H 0.17028 0.324 0.7869 0.0
C429 C 0.86242 0.24851 0.78141 0.0
C430 C 0.87576 0.23358 0.78485 0.0
C431 C 0.84623 0.24576 0.76786 0.0
C432 C 0.84281 0.2279 0.75776 0.0
C433 C 0.85605 0.21299 0.76104 0.0
C434 C 0.87247 0.21587 0.77426 0.0
C435 C 0.82524 0.22464 0.74406 0.0
C436 C 0.82217 0.23726 0.72815 0.0
C437 C 0.80571 0.23396 0.71483 0.0
C438 C 0.79207 0.21809 0.71795 0.0
C439 C 0.79488 0.20541 0.73389 0.0
C440 C 0.81164 0.20875 0.74681 0.0
C441 C 0.78041 0.1886 0.7369 0.0
C442 C 0.75984 0.19063 0.73359 0.0
C443 C 0.78706 0.17032 0.74294 0.0
C444 C 0.7735 0.15448 0.74561 0.0
C445 C 0.75299 0.15652 0.7422 0.0
C446 C 0.80289 0.24673 0.69743 0.0
C447 C 0.80683 0.26714 0.69883 0.0
C448 C 0.79602 0.23854 0.67924 0.0
C449 C 0.79267 0.25046 0.663 0.0
C450 C 0.79628 0.27085 0.66449 0.0
C451 C 0.80364 0.27908 0.68248 0.0
C452 C 0.74629 0.17474 0.73613 0.0
H453 H 0.86418 0.26221 0.78948 0.0
H454 H 0.83608 0.2574 0.76562 0.0
H455 H 0.85377 0.19916 0.75323 0.0
H456 H 0.88261 0.20419 0.7761 0.0
H457 H 0.83299 0.24924 0.72584 0.0
H458 H 0.81393 0.19927 0.75933 0.0
H459 H 0.77927 0.21552 0.70784 0.0
H460 H 0.75417 0.20458 0.72924 0.0
H461 H 0.80279 0.16813 0.74529 0.0
H462 H 0.77911 0.14052 0.75003 0.0
H463 H 0.81197 0.27395 0.71265 0.0
H464 H 0.79331 0.22285 0.67748 0.0
H465 H 0.73055 0.17678 0.73362 0.0
H466 H 0.80642 0.29478 0.68403 0.0
H467 H 0.78731 0.24371 0.6492 0.0
C468 C 0.52696 0.56504 0.44992 0.0
C469 C 0.52014 0.58265 0.4569 0.0
C470 C 0.52713 0.54848 0.46192 0.0
C471 C 0.52099 0.54941 0.48131 0.0
C472 C 0.51381 0.56709 0.48799 0.0
C473 C 0.51319 0.58342 0.47584 0.0
C474 C 0.52328 0.53262 0.49504 0.0
C475 C 0.53953 0.52066 0.49406 0.0
C476 C 0.54296 0.50613 0.50816 0.0
C477 C 0.53019 0.50393 0.52375 0.0
C478 C 0.51395 0.51583 0.52511 0.0
C479 C 0.51023 0.52955 0.51026 0.0
C480 C 0.50189 0.51524 0.5428 0.0
C481 C 0.49693 0.49749 0.55221 0.0
C482 C 0.49595 0.53281 0.55091 0.0
C483 C 0.48554 0.53268 0.56802 0.0
C484 C 0.48097 0.51503 0.57771 0.0
C485 C 0.5605 0.49398 0.50704 0.0
C486 C 0.56564 0.48636 0.48894 0.0
C487 C 0.57245 0.49022 0.52395 0.0
C488 C 0.58914 0.4791 0.52279 0.0
C489 C 0.59429 0.47148 0.5047 0.0
C490 C 0.58233 0.47523 0.48779 0.0
C491 C 0.48659 0.49738 0.56949 0.0
H492 H 0.53239 0.56419 0.4353 0.0
H493 H 0.53238 0.53508 0.45607 0.0
H494 H 0.50942 0.5687 0.50291 0.0
H495 H 0.50817 0.59699 0.4816 0.0
H496 H 0.55016 0.52322 0.48287 0.0
H497 H 0.49727 0.53817 0.51084 0.0
H498 H 0.53321 0.49327 0.53507 0.0
H499 H 0.50111 0.48368 0.54629 0.0
H500 H 0.49976 0.54681 0.54431 0.0
H501 H 0.48116 0.54652 0.57373 0.0
H502 H 0.55667 0.4889 0.47566 0.0
H503 H 0.56906 0.49608 0.53808 0.0
H504 H 0.4834 0.48353 0.57664 0.0
H505 H 0.58597 0.46969 0.47361 0.0
H506 H 0.59789 0.47627 0.53614 0.0
C507 C 0.48735 0.48833 0.92337 0.0
C508 C 0.49477 0.49897 0.90745 0.0
C509 C 0.49936 0.48556 0.94038 0.0
C510 C 0.5193 0.49296 0.94181 0.0
C511 C 0.52662 0.50374 0.92594 0.0
C512 C 0.51447 0.50695 0.9092 0.0
C513 C 0.53264 0.48902 0.95941 0.0
C514 C 0.53037 0.47137 0.96982 0.0
C515 C 0.54341 0.46719 0.98583 0.0
C516 C 0.5594 0.4806 0.99099 0.0
C517 C 0.56213 0.49825 0.98071 0.0
C518 C 0.54829 0.50255 0.9654 0.0
C519 C 0.57979 0.5119 0.98533 0.0
C520 C 0.58741 0.51496 0.00475 0.0
C521 C 0.58942 0.52179 0.97015 0.0
C522 C 0.60602 0.53451 0.97425 0.0
C523 C 0.61374 0.53751 0.99362 0.0
C524 C 0.54046 0.4486 0.99686 0.0
C525 C 0.52124 0.44166 0.00144 0.0
C526 C 0.55672 0.43757 0.00274 0.0
C527 C 0.55379 0.4199 0.01274 0.0
C528 C 0.53454 0.41285 0.01705 0.0
C529 C 0.51831 0.424 0.01139 0.0
C530 C 0.60422 0.52753 0.00884 0.0
H531 H 0.47237 0.48173 0.92263 0.0
H532 H 0.49295 0.47752 0.95235 0.0
H533 H 0.54192 0.50945 0.92614 0.0
H534 H 0.5207 0.51566 0.89757 0.0
H535 H 0.51883 0.46047 0.96512 0.0
H536 H 0.54975 0.51656 0.95814 0.0
H537 H 0.56983 0.47717 0.00292 0.0
H538 H 0.58031 0.50777 0.01686 0.0
H539 H 0.58426 0.51958 0.95498 0.0
H540 H 0.61268 0.54216 0.96215 0.0
H541 H 0.50843 0.44997 0.99742 0.0
H542 H 0.57169 0.44234 0.99922 0.0
H543 H 0.60983 0.52929 0.02392 0.0
H544 H 0.50332 0.4191 0.01474 0.0
H545 H 0.56657 0.41152 0.01666 0.0
C546 C 0.64638 0.20082 0.2208 0.0
C547 C 0.63903 0.21928 0.21649 0.0
C548 C 0.66192 0.19894 0.23495 0.0
C549 C 0.6706 0.21548 0.24505 0.0
C550 C 0.66332 0.23395 0.24064 0.0
C551 C 0.64769 0.23581 0.22664 0.0
C552 C 0.68709 0.21353 0.26021 0.0
C553 C 0.70199 0.20023 0.25759 0.0
C554 C 0.71764 0.19849 0.27181 0.0
C555 C 0.71827 0.21021 0.28879 0.0
C556 C 0.70359 0.22357 0.29167 0.0
C557 C 0.68805 0.22509 0.27736 0.0
C558 C 0.70463 0.23599 0.30962 0.0
C559 C 0.70944 0.22789 0.32804 0.0
C560 C 0.70138 0.25611 0.30843 0.0
C561 C 0.70332 0.26795 0.32525 0.0
C562 C 0.70842 0.25988 0.34362 0.0
C563 C 0.73348 0.18457 0.26899 0.0
C564 C 0.72869 0.16542 0.26203 0.0
C565 C 0.75352 0.19025 0.2737 0.0
C566 C 0.76839 0.17703 0.27176 0.0
C567 C 0.76361 0.15779 0.26508 0.0
C568 C 0.74359 0.15217 0.26011 0.0
C569 C 0.71129 0.23969 0.34483 0.0
H570 H 0.64027 0.18779 0.21311 0.0
H571 H 0.66697 0.18445 0.23809 0.0
H572 H 0.6698 0.24707 0.24791 0.0
H573 H 0.64229 0.25023 0.22389 0.0
H574 H 0.70175 0.1916 0.24423 0.0
H575 H 0.67642 0.23501 0.27984 0.0
H576 H 0.73029 0.20897 0.29981 0.0
H577 H 0.71183 0.21241 0.32946 0.0
H578 H 0.69779 0.26279 0.29441 0.0
H579 H 0.70089 0.28343 0.32387 0.0
H580 H 0.71336 0.16054 0.25848 0.0
H581 H 0.75775 0.205 0.27877 0.0
H582 H 0.71546 0.23306 0.35873 0.0
H583 H 0.73938 0.1374 0.25509 0.0
H584 H 0.7837 0.18198 0.27532 0.0
C585 C 0.47322 0.08232 0.98578 0.0
C586 C 0.47426 0.08107 0.00633 0.0
C587 C 0.47056 0.0654 0.97422 0.0
C588 C 0.46867 0.04687 0.98299 0.0
C589 C 0.46984 0.04558 0.00356 0.0
C590 C 0.47276 0.06253 0.01513 0.0
C591 C 0.46495 0.02904 0.97061 0.0
C592 C 0.47613 0.02628 0.95415 0.0
C593 C 0.47209 0.00994 0.94171 0.0
C594 C 0.45652 0.99632 0.94593 0.0
C595 C 0.44528 0.99881 0.96245 0.0
C596 C 0.44971 0.01512 0.97479 0.0
C597 C 0.4285 0.98476 0.96658 0.0
C598 C 0.4142 0.97902 0.95168 0.0
C599 C 0.42636 0.97745 0.98559 0.0
C600 C 0.41021 0.96469 0.98965 0.0
C601 C 0.39568 0.95912 0.97483 0.0
C602 C 0.48422 0.00721 0.92441 0.0
C603 C 0.49012 0.02337 0.91297 0.0
C604 C 0.49049 0.98859 0.91951 0.0
C605 C 0.50275 0.98629 0.90383 0.0
C606 C 0.50905 0.00256 0.89277 0.0
C607 C 0.50241 0.02108 0.89738 0.0
C608 C 0.39791 0.96643 0.95578 0.0
H609 H 0.47449 0.09643 0.97863 0.0
H610 H 0.46955 0.06683 0.95841 0.0
H611 H 0.46855 0.03146 0.01068 0.0
H612 H 0.47342 0.06118 0.03096 0.0
H613 H 0.48825 0.03677 0.95123 0.0
H614 H 0.44075 0.01738 0.98725 0.0
H615 H 0.45306 0.9838 0.93633 0.0
H616 H 0.41535 0.98465 0.93694 0.0
H617 H 0.43729 0.98149 0.99731 0.0
H618 H 0.40923 0.95906 0.0044 0.0
H619 H 0.48523 0.03784 0.91606 0.0
H620 H 0.4864 0.97588 0.92814 0.0
H621 H 0.38689 0.96273 0.94406 0.0
H622 H 0.50673 0.03384 0.88889 0.0
H623 H 0.50776 0.97187 0.90073 0.0
Mg624 Mg 0.2353 0.85117 0.01294 0.0
O625 O 0.26531 0.86712 0.00679 0.0
O626 O 0.28812 0.84451 0.00851 0.0
Mg627 Mg 0.27291 0.81455 0.01431 0.0
C628 C 0.28328 0.86217 0.00599 0.0
C629 C 0.20285 0.87854 0.01469 0.0
O630 O 0.20021 0.86509 0.02816 0.0
O631 O 0.23317 0.83869 0.98184 0.0
O632 O 0.25577 0.81596 0.98429 0.0
O633 O 0.24168 0.85545 0.04515 0.0
O634 O 0.24962 0.8295 0.02848 0.0
C635 C 0.24246 0.8249 0.97439 0.0
C636 C 0.25016 0.83893 0.04486 0.0
O637 O 0.21775 0.8776 0.00411 0.0
Mg638 Mg 0.15602 0.50239 0.26979 0.0
O639 O 0.13662 0.50055 0.24099 0.0
O640 O 0.15737 0.50128 0.21646 0.0
Mg641 Mg 0.18939 0.50527 0.22911 0.0
C642 C 0.13983 0.50006 0.22271 0.0
C643 C 0.12862 0.50355 0.30322 0.0
O644 O 0.143 0.51692 0.30732 0.0
O645 O 0.16485 0.47072 0.26595 0.0
O646 O 0.18655 0.47452 0.24241 0.0
O647 O 0.15614 0.53511 0.26948 0.0
O648 O 0.17862 0.51803 0.25585 0.0
C649 C 0.1775 0.46382 0.25482 0.0
C650 C 0.17186 0.53486 0.2594 0.0
O651 O 0.1293 0.49343 0.28762 0.0
Mg652 Mg 0.77471 0.65295 0.0217 0.0
O653 O 0.74442 0.63594 0.01716 0.0
O654 O 0.72152 0.65813 0.01228 0.0
Mg655 Mg 0.7367 0.68887 0.01442 0.0
C656 C 0.7264 0.64038 0.01374 0.0
C657 C 0.80605 0.62425 0.031 0.0
O658 O 0.80921 0.63856 0.04387 0.0
O659 O 0.775 0.65968 0.98883 0.0
O660 O 0.75263 0.68264 0.98638 0.0
O661 O 0.77024 0.65514 0.05394 0.0
O662 O 0.76127 0.67722 0.03216 0.0
C663 C 0.76541 0.67218 0.97878 0.0
C664 C 0.76189 0.67138 0.05003 0.0
O665 O 0.79153 0.62513 0.01844 0.0
Mg666 Mg 0.90255 0.03499 0.24091 0.0
O667 O 0.88091 0.00787 0.23757 0.0
O668 O 0.89884 0.98177 0.23332 0.0
Mg669 Mg 0.93159 0.9921 0.23333 0.0
C670 C 0.88217 0.98947 0.23496 0.0
C671 C 0.87699 0.07026 0.24534 0.0
O672 O 0.89103 0.07689 0.23405 0.0
O673 O 0.91259 0.02606 0.27196 0.0
O674 O 0.93075 0.00044 0.26595 0.0
O675 O 0.90066 0.0391 0.20859 0.0
O676 O 0.92298 0.02146 0.22409 0.0
C677 C 0.92362 0.01239 0.27782 0.0
C678 C 0.91528 0.02765 0.20774 0.0
O679 O 0.87754 0.0528 0.25165 0.0
Mg680 Mg 0.27975 0.154 0.52395 0.0
O681 O 0.24864 0.13846 0.51979 0.0
O682 O 0.22663 0.16181 0.51858 0.0
Mg683 Mg 0.24338 0.19182 0.52037 0.0
C684 C 0.23073 0.14379 0.51839 0.0
C685 C 0.31036 0.12456 0.53056 0.0
O686 O 0.31464 0.13898 0.54312 0.0
O687 O 0.27892 0.16208 0.49146 0.0
O688 O 0.25725 0.18572 0.49103 0.0
O689 O 0.27668 0.15475 0.55646 0.0
O690 O 0.26806 0.17841 0.53629 0.0
C691 C 0.26922 0.17514 0.48235 0.0
C692 C 0.26902 0.17155 0.55379 0.0
O693 O 0.29515 0.12565 0.51886 0.0
Mg694 Mg 0.40254 0.53558 0.73921 0.0
O695 O 0.38184 0.50779 0.73545 0.0
O696 O 0.40055 0.48275 0.72908 0.0
Mg697 Mg 0.43304 0.49403 0.73038 0.0
C698 C 0.38366 0.4897 0.73151 0.0
C699 C 0.37619 0.56993 0.74461 0.0
O700 O 0.39025 0.57714 0.73365 0.0
O701 O 0.41269 0.52613 0.76996 0.0
O702 O 0.43129 0.50101 0.76332 0.0
O703 O 0.40052 0.54042 0.70695 0.0
O704 O 0.42349 0.52327 0.72205 0.0
C705 C 0.42381 0.51242 0.77549 0.0
C706 C 0.41554 0.52952 0.70584 0.0
O707 O 0.37696 0.5523 0.75036 0.0
Mg708 Mg 0.74018 0.35397 0.51048 0.0
O709 O 0.76896 0.37193 0.50362 0.0
O710 O 0.79265 0.35028 0.50258 0.0
Mg711 Mg 0.78005 0.31979 0.51033 0.0
C712 C 0.78688 0.36772 0.50095 0.0
C713 C 0.70546 0.37877 0.51257 0.0
O714 O 0.70371 0.36507 0.52593 0.0
O715 O 0.73785 0.34124 0.47943 0.0
O716 O 0.76121 0.31926 0.48126 0.0
O717 O 0.74652 0.35844 0.54258 0.0
O718 O 0.75669 0.33361 0.52575 0.0
C719 C 0.74715 0.32756 0.47181 0.0
C720 C 0.75641 0.34274 0.54226 0.0
O721 O 0.72045 0.37895 0.502 0.0
Mg722 Mg 0.65192 0.00146 0.77413 0.0
O723 O 0.63347 -0.00029 0.74477 0.0
O724 O 0.65483 0.00125 0.72079 0.0
Mg725 Mg 0.68644 0.00566 0.73446 0.0
C726 C 0.63713 0.9996 0.7266 0.0
C727 C 0.60879 0.00026 0.78836 0.0
O728 O 0.60781 0.01395 0.77493 0.0
O729 O 0.6615 0.9701 0.77004 0.0
O730 O 0.68384 0.97464 0.74719 0.0
O731 O 0.65143 0.03413 0.77443 0.0
O732 O 0.6746 0.01776 0.76104 0.0
C733 C 0.67461 0.9636 0.75919 0.0
C734 C 0.66742 0.03437 0.76471 0.0
O735 O 0.62483 0.99143 0.79096 0.0
Mg736 Mg 0.03569 0.25779 0.90115 0.0
O737 O 0.00516 0.25361 0.88488 0.0
O738 O 0.98323 0.24299 0.90647 0.0
Mg739 Mg 0.99996 0.23968 0.93622 0.0
C740 C 0.9875 0.24816 0.88916 0.0
C741 C 0.04794 0.26663 0.85889 0.0
O742 O 0.03967 0.24885 0.8567 0.0
O743 O 0.02612 0.28551 0.91582 0.0
O744 O 0.00554 0.2732 0.93784 0.0
O745 O 0.04146 0.22685 0.89426 0.0
O746 O 0.02761 0.23627 0.92114 0.0
C747 C 0.01468 0.28776 0.92989 0.0
C748 C 0.03292 0.22224 0.91027 0.0
O749 O 0.04788 0.27499 0.87554 0.0
Mg750 Mg 0.54056 0.75628 0.4021 0.0
O751 O 0.50957 0.75182 0.38672 0.0
O752 O 0.48902 0.73826 0.40814 0.0
Mg753 Mg 0.50653 0.73551 0.43752 0.0
C754 C 0.49242 0.74478 0.39105 0.0
C755 C 0.5509 0.76681 0.35971 0.0
O756 O 0.5426 0.74907 0.35724 0.0
O757 O 0.53047 0.78303 0.41795 0.0
O758 O 0.51047 0.76922 0.4397 0.0
O759 O 0.54703 0.72579 0.39393 0.0
O760 O 0.53385 0.73387 0.42162 0.0
C761 C 0.51898 0.78436 0.43213 0.0
C762 C 0.53915 0.7204 0.41008 0.0
O763 O 0.55147 0.77462 0.37667 0.0
Mg764 Mg 0.98826 0.7485 0.59502 0.0
O765 O 0.01746 0.74326 0.61257 0.0
O766 O 0.04032 0.73915 0.5905 0.0
Mg767 Mg 0.0253 0.7387 0.55955 0.0
C768 C 0.03532 0.74053 0.60824 0.0
C769 C 0.95551 0.75583 0.6216 0.0
O770 O 0.94731 0.74611 0.60634 0.0
O771 O 0.00055 0.77893 0.58642 0.0
O772 O 0.02001 0.77159 0.56211 0.0
O773 O 0.97941 0.71663 0.59533 0.0
O774 O 0.99675 0.73081 0.57228 0.0
C775 C 0.01166 0.78402 0.57251 0.0
C776 C 0.98891 0.71497 0.57948 0.0
O777 O 0.97409 0.76023 0.62196 0.0
Mg778 Mg 0.48593 0.2437 0.09408 0.0
O779 O 0.51468 0.2377 0.11224 0.0
O780 O 0.53703 0.22903 0.09123 0.0
Mg781 Mg 0.52298 0.2297 0.06006 0.0
C782 C 0.53201 0.23236 0.10866 0.0
C783 C 0.47077 0.2474 0.13594 0.0
O784 O 0.47822 0.23004 0.13668 0.0
O785 O 0.49989 0.27294 0.08417 0.0
O786 O 0.52094 0.2632 0.06236 0.0
O787 O 0.47546 0.21225 0.09557 0.0
O788 O 0.49358 0.22456 0.07212 0.0
C789 C 0.51268 0.27677 0.07137 0.0
C790 C 0.48496 0.20943 0.0799 0.0
O791 O 0.47258 0.25756 0.1205 0.0
C792 C 0.20242 0.76914 0.87734 0.0
C793 C 0.21206 0.77508 0.86047 0.0
C794 C 0.2062 0.77921 0.89518 0.0
C795 C 0.21999 0.79561 0.8962 0.0
C796 C 0.22899 0.8023 0.879 0.0
C797 C 0.22491 0.79195 0.86131 0.0
C798 C 0.19618 0.77168 0.91317 0.0
C799 C 0.24375 0.81974 0.87949 0.0
C800 C 0.22187 0.82672 0.94267 0.0
C801 C 0.23737 0.81849 0.95384 0.0
C802 C 0.21633 0.81981 0.92364 0.0
C803 C 0.22651 0.80432 0.91563 0.0
C804 C 0.24248 0.79634 0.92661 0.0
C805 C 0.24771 0.80352 0.94553 0.0
C806 C 0.19929 0.82873 0.91229 0.0
C807 C 0.25375 0.77983 0.91859 0.0
H808 H 0.19222 0.75631 0.87667 0.0
H809 H 0.23248 0.79655 0.84834 0.0
H810 H 0.20743 0.76574 0.92364 0.0
H811 H 0.1893 0.78379 0.92073 0.0
H812 H 0.18451 0.75992 0.90955 0.0
H813 H 0.24757 0.82449 0.86454 0.0
H814 H 0.23778 0.83225 0.88724 0.0
H815 H 0.25762 0.81591 0.88773 0.0
H816 H 0.21382 0.83833 0.94891 0.0
H817 H 0.25978 0.79711 0.95392 0.0
H818 H 0.18679 0.81759 0.90995 0.0
H819 H 0.20393 0.83343 0.8976 0.0
H820 H 0.19382 0.84155 0.92001 0.0
H821 H 0.24354 0.76668 0.91605 0.0
H822 H 0.26633 0.77581 0.92868 0.0
H823 H 0.2597 0.78402 0.90426 0.0
C824 C 0.03036 0.50901 0.36233 0.0
C825 C 0.03177 0.49944 0.38047 0.0
C826 C 0.04527 0.50784 0.34885 0.0
C827 C 0.06195 0.49669 0.35352 0.0
C828 C 0.06294 0.48613 0.37132 0.0
C829 C 0.04789 0.4877 0.38462 0.0
C830 C 0.04365 0.51934 0.33003 0.0
C831 C 0.08041 0.47399 0.37679 0.0
C832 C 0.09665 0.48636 0.31285 0.0
C833 C 0.11173 0.50114 0.31624 0.0
C834 C 0.08044 0.48449 0.32501 0.0
C835 C 0.07925 0.4978 0.3408 0.0
C836 C 0.09451 0.51264 0.34434 0.0
C837 C 0.11055 0.51407 0.33208 0.0
C838 C 0.06453 0.46838 0.32092 0.0
C839 C 0.09376 0.52722 0.36094 0.0
H840 H 0.01776 0.51779 0.35882 0.0
H841 H 0.04922 0.48037 0.39864 0.0
H842 H 0.05545 0.53132 0.33031 0.0
H843 H 0.04596 0.5098 0.31727 0.0
H844 H 0.02898 0.52588 0.32781 0.0
H845 H 0.07783 0.46485 0.38994 0.0
H846 H 0.08357 0.46426 0.36442 0.0
H847 H 0.09388 0.48379 0.37991 0.0
H848 H 0.09748 0.47628 0.30066 0.0
H849 H 0.12209 0.52556 0.33483 0.0
H850 H 0.05002 0.47484 0.31748 0.0
H851 H 0.06281 0.45918 0.33414 0.0
H852 H 0.06795 0.45884 0.30846 0.0
H853 H 0.08015 0.53557 0.35902 0.0
H854 H 0.10691 0.53778 0.36181 0.0
H855 H 0.09301 0.51941 0.37513 0.0
C856 C 0.80395 0.71949 0.8823 0.0
C857 C 0.79425 0.71259 0.86475 0.0
C858 C 0.80044 0.71024 0.90018 0.0
C859 C 0.78697 0.69362 0.90053 0.0
C860 C 0.77807 0.68587 0.88272 0.0
C861 C 0.78172 0.69553 0.86503 0.0
C862 C 0.81014 0.71907 0.91885 0.0
C863 C 0.76385 0.66802 0.88245 0.0
C864 C 0.78544 0.66679 0.94926 0.0
C865 C 0.76981 0.67575 0.95796 0.0
C866 C 0.79075 0.6718 0.93018 0.0
C867 C 0.78026 0.68617 0.91967 0.0
C868 C 0.76397 0.69462 0.92807 0.0
C869 C 0.75892 0.68927 0.94701 0.0
C870 C 0.80802 0.66229 0.92156 0.0
C871 C 0.75236 0.71 0.91738 0.0
H872 H 0.8135 0.73277 0.88222 0.0
H873 H 0.7744 0.69 0.85145 0.0
H874 H 0.79867 0.72553 0.92758 0.0
H875 H 0.81705 0.70761 0.92796 0.0
H876 H 0.82172 0.73073 0.91593 0.0
H877 H 0.76056 0.66216 0.86736 0.0
H878 H 0.77001 0.65629 0.89176 0.0
H879 H 0.74966 0.6719 0.8886 0.0
H880 H 0.79389 0.65626 0.95753 0.0
H881 H 0.74669 0.69617 0.95344 0.0
H882 H 0.82067 0.67326 0.92056 0.0
H883 H 0.80388 0.65693 0.90646 0.0
H884 H 0.8131 0.64982 0.93055 0.0
H885 H 0.76227 0.7232 0.91501 0.0
H886 H 0.73953 0.71446 0.92558 0.0
H887 H 0.74673 0.70445 0.90273 0.0
C888 C 0.96468 0.00579 0.39075 0.0
C889 C 0.98523 0.00347 0.38996 0.0
C890 C 0.95249 0.00738 0.37355 0.0
C891 C 0.9611 0.00725 0.35509 0.0
C892 C 0.98182 0.00531 0.35416 0.0
C893 C 0.99353 0.00311 0.37152 0.0
C894 C 0.93038 0.00894 0.37511 0.0
C895 C 0.99166 0.00543 0.33477 0.0
C896 C 0.93282 0.99285 0.30733 0.0
C897 C 0.92998 0.01116 0.29877 0.0
C898 C 0.9417 0.9914 0.32628 0.0
C899 C 0.94854 0.00868 0.33661 0.0
C900 C 0.94499 0.02723 0.32833 0.0
C901 C 0.93546 0.02824 0.30958 0.0
C902 C 0.9446 0.97135 0.33483 0.0
C903 C 0.95247 0.04598 0.33864 0.0
H904 H 0.95805 0.00647 0.40483 0.0
H905 H 0.00922 0.00084 0.37052 0.0
H906 H 0.92563 0.02281 0.36842 0.0
H907 H 0.9222 0.99675 0.36683 0.0
H908 H 0.92594 0.00847 0.39055 0.0
H909 H 0.00811 0.00512 0.33664 0.0
H910 H 0.98602 0.99251 0.32586 0.0
H911 H 0.98792 0.0187 0.32633 0.0
H912 H 0.92846 0.97963 0.299 0.0
H913 H 0.93345 0.04241 0.30288 0.0
H914 H 0.93988 0.97076 0.35016 0.0
H915 H 0.9606 0.96829 0.33519 0.0
H916 H 0.93612 0.9596 0.32616 0.0
H917 H 0.94789 0.04605 0.354 0.0
H918 H 0.94695 0.05916 0.33111 0.0
H919 H 0.96898 0.04701 0.33916 0.0
C920 C 0.21991 0.23904 0.63147 0.0
C921 C 0.23343 0.24382 0.64736 0.0
C922 C 0.22426 0.22535 0.61715 0.0
C923 C 0.2429 0.21677 0.61827 0.0
C924 C 0.25641 0.22105 0.63447 0.0
C925 C 0.25134 0.23418 0.64899 0.0
C926 C 0.20921 0.2207 0.6004 0.0
C927 C 0.27664 0.21255 0.63597 0.0
C928 C 0.25332 0.17329 0.58612 0.0
C929 C 0.26175 0.18276 0.57015 0.0
C930 C 0.24656 0.18416 0.60172 0.0
C931 C 0.24907 0.20488 0.60159 0.0
C932 C 0.25781 0.21443 0.58554 0.0
C933 C 0.26369 0.20325 0.56985 0.0
C934 C 0.23661 0.17354 0.61823 0.0
C935 C 0.26133 0.23645 0.58509 0.0
H936 H 0.20613 0.24643 0.62974 0.0
H937 H 0.26168 0.23715 0.66145 0.0
H938 H 0.21445 0.22751 0.58675 0.0
H939 H 0.20748 0.20464 0.59781 0.0
H940 H 0.19441 0.22621 0.60319 0.0
H941 H 0.2851 0.2167 0.6499 0.0
H942 H 0.27516 0.19635 0.63491 0.0
H943 H 0.28544 0.21783 0.62355 0.0
H944 H 0.2517 0.15742 0.58624 0.0
H945 H 0.27039 0.21055 0.55754 0.0
H946 H 0.22167 0.17916 0.62 0.0
H947 H 0.24538 0.17633 0.63224 0.0
H948 H 0.23494 0.15746 0.61566 0.0
H949 H 0.24696 0.24357 0.58539 0.0
H950 H 0.26898 0.2415 0.57185 0.0
H951 H 0.2705 0.24152 0.5983 0.0
C952 C 0.47612 0.53005 0.61049 0.0
C953 C 0.47085 0.51528 0.59656 0.0
C954 C 0.46637 0.53108 0.62806 0.0
C955 C 0.4511 0.51682 0.63199 0.0
C956 C 0.44592 0.50162 0.61821 0.0
C957 C 0.45582 0.50106 0.60061 0.0
C958 C 0.47234 0.54753 0.64237 0.0
C959 C 0.42982 0.48609 0.62199 0.0
C960 C 0.43977 0.51287 0.68573 0.0
C961 C 0.42337 0.52456 0.68667 0.0
C962 C 0.44836 0.50943 0.66784 0.0
C963 C 0.44053 0.5181 0.65051 0.0
C964 C 0.42359 0.52938 0.65124 0.0
C965 C 0.41517 0.53242 0.66931 0.0
C966 C 0.46631 0.49716 0.66762 0.0
C967 C 0.41488 0.53897 0.6331 0.0
H968 H 0.488 0.54085 0.6077 0.0
H969 H 0.45155 0.48969 0.58987 0.0
H970 H 0.45932 0.55627 0.64496 0.0
H971 H 0.47741 0.54144 0.6567 0.0
H972 H 0.48444 0.5575 0.63704 0.0
H973 H 0.42802 0.47488 0.61011 0.0
H974 H 0.43328 0.47865 0.63608 0.0
H975 H 0.41542 0.49297 0.62333 0.0
H976 H 0.44627 0.50678 0.69904 0.0
H977 H 0.40249 0.54146 0.66989 0.0
H978 H 0.47961 0.50658 0.66425 0.0
H979 H 0.46418 0.48578 0.65597 0.0
H980 H 0.46935 0.48988 0.68191 0.0
H981 H 0.42574 0.55029 0.62784 0.0
H982 H 0.40083 0.54604 0.63585 0.0
H983 H 0.41191 0.52802 0.62114 0.0
C984 C 0.77368 0.2806 0.63658 0.0
C985 C 0.79189 0.2834 0.64733 0.0
C986 C 0.76938 0.29179 0.61991 0.0
C987 C 0.78373 0.30604 0.61372 0.0
C988 C 0.80207 0.30914 0.62467 0.0
C989 C 0.80589 0.29783 0.64146 0.0
C990 C 0.74954 0.28821 0.60879 0.0
C991 C 0.81776 0.32408 0.6184 0.0
C992 C 0.77678 0.31806 0.55979 0.0
C993 C 0.76602 0.33502 0.5604 0.0
C994 C 0.78371 0.30911 0.5771 0.0
C995 C 0.77954 0.31719 0.59546 0.0
C996 C 0.76956 0.33484 0.59619 0.0
C997 C 0.76298 0.3436 0.57863 0.0
C998 C 0.79453 0.29043 0.57572 0.0
C999 C 0.76477 0.34385 0.61548 0.0
H1000 H 0.76273 0.26963 0.64129 0.0
H1001 H 0.82003 0.29992 0.64971 0.0
H1002 H 0.74172 0.30206 0.60755 0.0
H1003 H 0.75186 0.28312 0.59367 0.0
H1004 H 0.73976 0.27708 0.61595 0.0
H1005 H 0.83092 0.32523 0.62892 0.0
H1006 H 0.82276 0.32003 0.60377 0.0
H1007 H 0.81148 0.3387 0.61697 0.0
H1008 H 0.77924 0.31134 0.54581 0.0
H1009 H 0.7547 0.35672 0.57924 0.0
H1010 H 0.78492 0.27793 0.58075 0.0
H1011 H 0.80827 0.29126 0.58543 0.0
H1012 H 0.79858 0.28731 0.5605 0.0
H1013 H 0.75347 0.33425 0.62259 0.0
H1014 H 0.75886 0.35862 0.6136 0.0
H1015 H 0.77819 0.34505 0.62561 0.0
C1016 C 0.54528 0.97606 0.64901 0.0
C1017 C 0.54436 0.991 0.63505 0.0
C1018 C 0.5595 0.97728 0.66482 0.0
C1019 C 0.5728 0.99403 0.66687 0.0
C1020 C 0.57137 0.00949 0.65319 0.0
C1021 C 0.55731 0.00768 0.63729 0.0
C1022 C 0.56082 0.96031 0.67885 0.0
C1023 C 0.58498 0.02776 0.65509 0.0
C1024 C 0.60149 0.00365 0.71578 0.0
C1025 C 0.6204 0.99759 0.71168 0.0
C1026 C 0.58581 0.00259 0.70135 0.0
C1027 C 0.58901 0.99487 0.68256 0.0
C1028 C 0.60793 0.98827 0.67854 0.0
C1029 C 0.62344 0.98993 0.69307 0.0
C1030 C 0.56595 0.01012 0.70605 0.0
C1031 C 0.61185 0.97955 0.65885 0.0
H1032 H 0.53535 0.9631 0.64715 0.0
H1033 H 0.55646 0.01928 0.62654 0.0
H1034 H 0.57539 0.95368 0.67781 0.0
H1035 H 0.55996 0.9655 0.69417 0.0
H1036 H 0.54881 0.94877 0.67575 0.0
H1037 H 0.58085 0.03909 0.64421 0.0
H1038 H 0.58462 0.0341 0.67004 0.0
H1039 H 0.60052 0.02402 0.65294 0.0
H1040 H 0.59909 0.00969 0.73011 0.0
H1041 H 0.63797 0.98504 0.68988 0.0
H1042 H 0.55403 0.99841 0.70361 0.0
H1043 H 0.56231 0.02234 0.69606 0.0
H1044 H 0.56579 0.01543 0.72144 0.0
H1045 H 0.60095 0.96713 0.6553 0.0
H1046 H 0.62709 0.97422 0.65841 0.0
H1047 H 0.60992 0.99067 0.64721 0.0
C1048 C 0.8989 0.22044 0.81111 0.0
C1049 C 0.89278 0.23628 0.79966 0.0
C1050 C 0.91479 0.22272 0.82516 0.0
C1051 C 0.92452 0.24142 0.82829 0.0
C1052 C 0.91842 0.25752 0.81693 0.0
C1053 C 0.90281 0.25471 0.8026 0.0
C1054 C 0.92107 0.20512 0.83677 0.0
C1055 C 0.92825 0.27775 0.82008 0.0
C1056 C 0.9517 0.24928 0.87802 0.0
C1057 C 0.97153 0.24733 0.87346 0.0
C1058 C 0.93632 0.24799 0.86335 0.0
C1059 C 0.94084 0.24414 0.84373 0.0
C1060 C 0.96085 0.24224 0.83902 0.0
C1061 C 0.976 0.2441 0.85392 0.0
C1062 C 0.91521 0.25058 0.86886 0.0
C1063 C 0.9662 0.23769 0.81835 0.0
H1064 H 0.89107 0.20623 0.80933 0.0
H1065 H 0.89853 0.267 0.79365 0.0
H1066 H 0.9372 0.20325 0.83547 0.0
H1067 H 0.91864 0.2074 0.85254 0.0
H1068 H 0.91272 0.19139 0.83179 0.0
H1069 H 0.92154 0.2888 0.81023 0.0
H1070 H 0.92696 0.28247 0.83551 0.0
H1071 H 0.94434 0.27754 0.81749 0.0
H1072 H 0.94822 0.25197 0.89309 0.0
H1073 H 0.9913 0.24245 0.85035 0.0
H1074 H 0.90607 0.23677 0.86602 0.0
H1075 H 0.9085 0.2621 0.85967 0.0
H1076 H 0.91436 0.25466 0.88455 0.0
H1077 H 0.95892 0.22339 0.81356 0.0
H1078 H 0.98251 0.23703 0.81706 0.0
H1079 H 0.96064 0.24895 0.80811 0.0
C1080 C 0.51646 0.88413 0.49231 0.0
C1081 C 0.50018 0.89512 0.48664 0.0
C1082 C 0.52013 0.8668 0.48237 0.0
C1083 C 0.50721 0.8603 0.46638 0.0
C1084 C 0.49111 0.87165 0.46019 0.0
C1085 C 0.48777 0.88891 0.47042 0.0
C1086 C 0.53743 0.85507 0.48945 0.0
C1087 C 0.47707 0.86525 0.44313 0.0
C1088 C 0.52479 0.821 0.43279 0.0
C1089 C 0.51556 0.80395 0.44037 0.0
C1090 C 0.52203 0.83951 0.44093 0.0
C1091 C 0.50977 0.84099 0.45702 0.0
C1092 C 0.50023 0.82389 0.46457 0.0
C1093 C 0.50322 0.80562 0.45617 0.0
C1094 C 0.53241 0.85745 0.43247 0.0
C1095 C 0.48703 0.82486 0.48173 0.0
H1096 H 0.52598 0.88871 0.50497 0.0
H1097 H 0.47532 0.8975 0.4658 0.0
H1098 H 0.53178 0.84077 0.49518 0.0
H1099 H 0.54687 0.85195 0.47711 0.0
H1100 H 0.54683 0.86278 0.50124 0.0
H1101 H 0.4661 0.87636 0.43934 0.0
H1102 H 0.48555 0.86239 0.43002 0.0
H1103 H 0.46886 0.85134 0.44677 0.0
H1104 H 0.53432 0.81992 0.42058 0.0
H1105 H 0.49596 0.79258 0.46214 0.0
H1106 H 0.5428 0.86459 0.44379 0.0
H1107 H 0.52137 0.86827 0.42802 0.0
H1108 H 0.54092 0.8539 0.41954 0.0
H1109 H 0.49574 0.83105 0.49476 0.0
H1110 H 0.48039 0.81024 0.48562 0.0
H1111 H 0.47482 0.83474 0.47828 0.0
C1112 C 0.13722 0.29785 0.79508 0.0
C1113 C 0.13299 0.30789 0.77762 0.0
C1114 C 0.12212 0.29233 0.80762 0.0
C1115 C 0.10231 0.29708 0.80265 0.0
C1116 C 0.09798 0.30752 0.78521 0.0
C1117 C 0.11338 0.31272 0.77283 0.0
C1118 C 0.12732 0.28104 0.826 0.0
C1119 C 0.07707 0.313 0.77956 0.0
C1120 C 0.06317 0.26458 0.82641 0.0
C1121 C 0.05961 0.27558 0.84312 0.0
C1122 C 0.07641 0.27178 0.81262 0.0
C1123 C 0.08617 0.29051 0.81554 0.0
C1124 C 0.08176 0.30216 0.83176 0.0
C1125 C 0.06857 0.29452 0.84541 0.0
C1126 C 0.08077 0.25889 0.79553 0.0
C1127 C 0.09168 0.3223 0.8352 0.0
H1128 H 0.15231 0.29385 0.79868 0.0
H1129 H 0.11011 0.32062 0.75941 0.0
H1130 H 0.12267 0.28893 0.83907 0.0
H1131 H 0.11916 0.26649 0.82549 0.0
H1132 H 0.14351 0.27881 0.82789 0.0
H1133 H 0.07632 0.32183 0.76593 0.0
H1134 H 0.06722 0.29955 0.7773 0.0
H1135 H 0.07109 0.32149 0.79159 0.0
H1136 H 0.05626 0.24996 0.82447 0.0
H1137 H 0.06577 0.30319 0.8582 0.0
H1138 H 0.09636 0.25446 0.7972 0.0
H1139 H 0.07926 0.26705 0.78157 0.0
H1140 H 0.07074 0.24544 0.79445 0.0
H1141 H 0.10772 0.32097 0.83915 0.0
H1142 H 0.08501 0.33032 0.84719 0.0
H1143 H 0.09059 0.33114 0.82162 0.0
C1144 C 0.54076 0.60847 0.44074 0.0
C1145 C 0.52192 0.60081 0.44537 0.0
C1146 C 0.54326 0.62736 0.43298 0.0
C1147 C 0.52642 0.63859 0.4294 0.0
C1148 C 0.50719 0.63034 0.43282 0.0
C1149 C 0.5052 0.61161 0.44108 0.0
C1150 C 0.56404 0.63576 0.42991 0.0
C1151 C 0.48883 0.64165 0.42869 0.0
C1152 C 0.53394 0.69378 0.43431 0.0
C1153 C 0.53547 0.69951 0.41476 0.0
C1154 C 0.53107 0.67398 0.43923 0.0
C1155 C 0.52914 0.65961 0.42415 0.0
C1156 C 0.53019 0.66536 0.40431 0.0
C1157 C 0.53364 0.68527 0.39985 0.0
C1158 C 0.53044 0.66842 0.46059 0.0
C1159 C 0.52764 0.6505 0.38784 0.0
H1160 H 0.55368 0.60012 0.44431 0.0
H1161 H 0.49063 0.60559 0.44468 0.0
H1162 H 0.56495 0.64205 0.41501 0.0
H1163 H 0.56782 0.64786 0.44058 0.0
H1164 H 0.57535 0.62461 0.43187 0.0
H1165 H 0.47495 0.63222 0.4295 0.0
H1166 H 0.48848 0.65372 0.43956 0.0
H1167 H 0.48911 0.64839 0.41393 0.0
H1168 H 0.53545 0.70478 0.44586 0.0
H1169 H 0.53464 0.68971 0.38469 0.0
H1170 H 0.54219 0.65811 0.46438 0.0
H1171 H 0.51593 0.66078 0.46338 0.0
H1172 H 0.53262 0.68135 0.47053 0.0
H1173 H 0.53959 0.63998 0.38918 0.0
H1174 H 0.52802 0.65745 0.37317 0.0
H1175 H 0.51327 0.64192 0.3888 0.0
C1176 C 0.89127 0.76049 0.71597 0.0
C1177 C 0.87918 0.77655 0.71569 0.0
C1178 C 0.90511 0.75819 0.70159 0.0
C1179 C 0.90695 0.77236 0.68661 0.0
C1180 C 0.89538 0.78903 0.68672 0.0
C1181 C 0.88159 0.79089 0.70122 0.0
C1182 C 0.91707 0.74014 0.70191 0.0
C1183 C 0.89704 0.80453 0.67109 0.0
C1184 C 0.95151 0.77117 0.6546 0.0
C1185 C 0.94323 0.76074 0.63814 0.0
C1186 C 0.93986 0.7753 0.67046 0.0
C1187 C 0.91953 0.76875 0.66983 0.0
C1188 C 0.9111 0.75838 0.65317 0.0
C1189 C 0.92302 0.75455 0.63755 0.0
C1190 C 0.9493 0.7865 0.68795 0.0
C1191 C 0.8895 0.75109 0.65192 0.0
H1192 H 0.88936 0.74927 0.72701 0.0
H1193 H 0.87248 0.80349 0.70112 0.0
H1194 H 0.91239 0.73073 0.68903 0.0
H1195 H 0.93311 0.74429 0.70082 0.0
H1196 H 0.91514 0.7314 0.71543 0.0
H1197 H 0.88841 0.81745 0.6743 0.0
H1198 H 0.91283 0.8095 0.66964 0.0
H1199 H 0.89142 0.79825 0.65672 0.0
H1200 H 0.9671 0.77603 0.65516 0.0
H1201 H 0.91647 0.74648 0.62491 0.0
H1202 H 0.94848 0.77731 0.70128 0.0
H1203 H 0.94102 0.79976 0.69062 0.0
H1204 H 0.96513 0.79105 0.68594 0.0
H1205 H 0.88653 0.7409 0.66417 0.0
H1206 H 0.88521 0.74337 0.63787 0.0
H1207 H 0.87981 0.76356 0.65341 0.0
C1208 C 0.04734 0.88964 0.53626 0.0
C1209 C 0.03214 0.90294 0.53497 0.0
C1210 C 0.04427 0.87105 0.5446 0.0
C1211 C 0.0253 0.8652 0.55116 0.0
C1212 C 0.01002 0.8786 0.5504 0.0
C1213 C 0.01373 0.8974 0.54269 0.0
C1214 C 0.06115 0.85738 0.54565 0.0
C1215 C 0.98944 0.87278 0.55682 0.0
C1216 C 0.01261 0.81052 0.54782 0.0
C1217 C 0.01439 0.80491 0.5675 0.0
C1218 C 0.01546 0.8302 0.54244 0.0
C1219 C 0.02099 0.84451 0.55705 0.0
C1220 C 0.02289 0.83889 0.577 0.0
C1221 C 0.01918 0.81913 0.58204 0.0
C1222 C 0.01264 0.83564 0.52108 0.0
C1223 C 0.02945 0.8536 0.59289 0.0
H1224 H 0.06154 0.89339 0.53015 0.0
H1225 H 0.002 0.90761 0.54241 0.0
H1226 H 0.0625 0.85061 0.56038 0.0
H1227 H 0.05809 0.84534 0.53479 0.0
H1228 H 0.07561 0.86501 0.54256 0.0
H1229 H 0.97948 0.88522 0.55626 0.0
H1230 H 0.98267 0.86087 0.54715 0.0
H1231 H 0.99021 0.867 0.57198 0.0
H1232 H 0.00872 0.79949 0.53662 0.0
H1233 H 0.02069 0.81468 0.59725 0.0
H1234 H 0.027 0.84128 0.51552 0.0
H1235 H 0.00209 0.84752 0.5194 0.0
H1236 H 0.00688 0.82299 0.51179 0.0
H1237 H 0.04454 0.85995 0.59013 0.0
H1238 H 0.0298 0.84695 0.60772 0.0
H1239 H 0.01934 0.86587 0.59271 0.0
C1240 C 0.1213 0.71127 0.68561 0.0
C1241 C 0.12705 0.72635 0.69911 0.0
C1242 C 0.1059 0.71348 0.67127 0.0
C1243 C 0.09628 0.73136 0.67003 0.0
C1244 C 0.10201 0.74667 0.68351 0.0
C1245 C 0.11713 0.7439 0.698 0.0
C1246 C 0.10002 0.6967 0.65733 0.0
C1247 C 0.0923 0.76606 0.68249 0.0
C1248 C 0.07088 0.74303 0.62081 0.0
C1249 C 0.05079 0.73868 0.62424 0.0
C1250 C 0.08578 0.74108 0.6357 0.0
C1251 C 0.08052 0.73418 0.65436 0.0
C1252 C 0.06026 0.72974 0.65793 0.0
C1253 C 0.04561 0.73225 0.64288 0.0
C1254 C 0.10716 0.74639 0.63145 0.0
C1255 C 0.05411 0.72198 0.67751 0.0
H1256 H 0.12902 0.69778 0.68602 0.0
H1257 H 0.12108 0.75552 0.70855 0.0
H1258 H 0.08384 0.69291 0.65775 0.0
H1259 H 0.10299 0.70111 0.6421 0.0
H1260 H 0.10822 0.68339 0.6609 0.0
H1261 H 0.09866 0.77659 0.69388 0.0
H1262 H 0.09415 0.77272 0.66784 0.0
H1263 H 0.0761 0.76379 0.68435 0.0
H1264 H 0.07495 0.74817 0.60648 0.0
H1265 H 0.03012 0.72874 0.64558 0.0
H1266 H 0.11611 0.7333 0.63309 0.0
H1267 H 0.11359 0.75753 0.64218 0.0
H1268 H 0.10867 0.75226 0.61642 0.0
H1269 H 0.06136 0.70808 0.68078 0.0
H1270 H 0.03775 0.71923 0.67793 0.0
H1271 H 0.05914 0.73254 0.68935 0.0
C1272 C 0.99669 0.60828 0.53055 0.0
C1273 C 0.9828 0.60673 0.51453 0.0
C1274 C 0.99922 0.62558 0.54178 0.0
C1275 C 0.98732 0.64152 0.53705 0.0
C1276 C 0.97323 0.63997 0.52091 0.0
C1277 C 0.97126 0.62264 0.50976 0.0
C1278 C 0.0146 0.62682 0.55868 0.0
C1279 C 0.96004 0.65652 0.51558 0.0
C1280 C 0.97818 0.67954 0.57573 0.0
C1281 C 0.99008 0.69569 0.56976 0.0
C1282 C 0.97752 0.66165 0.56551 0.0
C1283 C 0.98927 0.65977 0.54909 0.0
C1284 C 0.00195 0.67574 0.5435 0.0
C1285 C 0.00207 0.69358 0.55379 0.0
C1286 C 0.96363 0.64503 0.5718 0.0
C1287 C 0.01496 0.67418 0.52627 0.0
H1288 H 0.00574 0.59603 0.53414 0.0
H1289 H 0.96036 0.62136 0.49751 0.0
H1290 H 0.02526 0.63952 0.5567 0.0
H1291 H 0.0073 0.62924 0.57261 0.0
H1292 H 0.02303 0.61333 0.5601 0.0
H1293 H 0.94978 0.65292 0.50266 0.0
H1294 H 0.95107 0.66001 0.52818 0.0
H1295 H 0.96928 0.66992 0.5123 0.0
H1296 H 0.96882 0.68106 0.58802 0.0
H1297 H 0.01132 0.70593 0.54907 0.0
H1298 H 0.97187 0.63158 0.57425 0.0
H1299 H 0.95199 0.64169 0.55998 0.0
H1300 H 0.95622 0.64853 0.58545 0.0
H1301 H 0.02386 0.66104 0.52774 0.0
H1302 H 0.02524 0.68731 0.52489 0.0
H1303 H 0.00551 0.67244 0.51252 0.0
C1304 C 0.79289 0.91427 0.20239 0.0
C1305 C 0.78015 0.90925 0.21736 0.0
C1306 C 0.80839 0.92867 0.2054 0.0
C1307 C 0.81143 0.93798 0.22396 0.0
C1308 C 0.79826 0.93331 0.23898 0.0
C1309 C 0.78265 0.91909 0.23543 0.0
C1310 C 0.82188 0.93348 0.1889 0.0
C1311 C 0.8012 0.9427 0.25905 0.0
C1312 C 0.8646 0.95645 0.23674 0.0
C1313 C 0.86376 0.97661 0.23329 0.0
C1314 C 0.84752 0.94385 0.23435 0.0
C1315 C 0.82921 0.95152 0.228 0.0
C1316 C 0.82817 0.9719 0.22475 0.0
C1317 C 0.84545 0.98425 0.22761 0.0
C1318 C 0.84917 0.92225 0.23831 0.0
C1319 C 0.80897 0.98056 0.21769 0.0
H1320 H 0.79083 0.90675 0.18836 0.0
H1321 H 0.77287 0.91506 0.24705 0.0
H1322 H 0.82312 0.94955 0.18654 0.0
H1323 H 0.83704 0.92874 0.19284 0.0
H1324 H 0.81648 0.92619 0.17491 0.0
H1325 H 0.78892 0.93846 0.26867 0.0
H1326 H 0.8154 0.93823 0.2662 0.0
H1327 H 0.8023 0.95889 0.25779 0.0
H1328 H 0.87866 0.95048 0.24132 0.0
H1329 H 0.84472 -0.0002 0.22483 0.0
H1330 H 0.8459 0.91377 0.22452 0.0
H1331 H 0.83804 0.91715 0.24885 0.0
H1332 H 0.8642 0.91882 0.24433 0.0
H1333 H 0.80418 0.97447 0.20301 0.0
H1334 H 0.81045 0.99678 0.21666 0.0
H1335 H 0.79701 0.9765 0.22772 0.0
C1336 C 0.79501 0.14301 0.27776 0.0
C1337 C 0.77953 0.14374 0.26325 0.0
C1338 C 0.81063 0.13048 0.27585 0.0
C1339 C 0.81076 0.11832 0.25904 0.0
C1340 C 0.79495 0.11862 0.24457 0.0
C1341 C 0.77954 0.13133 0.24684 0.0
C1342 C 0.82718 0.13055 0.29163 0.0
C1343 C 0.79457 0.10587 0.22643 0.0
C1344 C 0.86039 0.10205 0.24296 0.0
C1345 C 0.86034 0.08265 0.24963 0.0
C1346 C 0.84443 0.11382 0.24609 0.0
C1347 C 0.82795 0.10603 0.25611 0.0
C1348 C 0.82787 0.08654 0.26309 0.0
C1349 C 0.84409 0.07508 0.2598 0.0
C1350 C 0.84513 0.13457 0.23849 0.0
C1351 C 0.81055 0.07772 0.27383 0.0
H1352 H 0.79494 0.1523 0.29065 0.0
H1353 H 0.76775 0.13193 0.23548 0.0
H1354 H 0.82899 0.11549 0.29718 0.0
H1355 H 0.84145 0.13559 0.2854 0.0
H1356 H 0.82444 0.14025 0.30418 0.0
H1357 H 0.78069 0.10703 0.2171 0.0
H1358 H 0.80743 0.11017 0.2176 0.0
H1359 H 0.79598 0.09031 0.2306 0.0
H1360 H 0.87288 0.10806 0.23513 0.0
H1361 H 0.8439 0.0601 0.26498 0.0
H1362 H 0.84365 0.14502 0.25072 0.0
H1363 H 0.83245 0.13644 0.22776 0.0
H1364 H 0.85917 0.13851 0.23126 0.0
H1365 H 0.80803 0.08678 0.28689 0.0
H1366 H 0.81294 0.06249 0.27866 0.0
H1367 H 0.79679 0.07763 0.26417 0.0
C1368 C 0.37095 0.93131 0.96568 0.0
C1369 C 0.3783 0.94574 0.97926 0.0
C1370 C 0.3548 0.9184 0.96981 0.0
C1371 C 0.34594 0.91975 0.98808 0.0
C1372 C 0.35315 0.93436 0.00179 0.0
C1373 C 0.36913 0.94725 0.99717 0.0
C1374 C 0.34746 0.9031 0.95474 0.0
C1375 C 0.34419 0.93615 0.02149 0.0
C1376 C 0.29448 0.89524 0.99345 0.0
C1377 C 0.29915 0.87727 0.00191 0.0
C1378 C 0.30955 0.90926 0.98889 0.0
C1379 C 0.32972 0.90531 0.99315 0.0
C1380 C 0.33449 0.88737 0.00204 0.0
C1381 C 0.31917 0.87353 0.00618 0.0
C1382 C 0.30391 0.92814 0.97921 0.0
C1383 C 0.3558 0.88274 0.00709 0.0
H1384 H 0.37806 0.92981 0.95193 0.0
H1385 H 0.37441 0.95857 0.00762 0.0
H1386 H 0.34983 0.88825 0.96064 0.0
H1387 H 0.33124 0.90403 0.95151 0.0
H1388 H 0.35517 0.90474 0.9408 0.0
H1389 H 0.35126 0.94853 0.03038 0.0
H1390 H 0.32802 0.93831 0.01949 0.0
H1391 H 0.34587 0.9224 0.02986 0.0
H1392 H 0.27906 0.8982 0.99003 0.0
H1393 H 0.32293 0.85977 0.01287 0.0
H1394 H 0.31054 0.92939 0.96469 0.0
H1395 H 0.30998 0.94085 0.98819 0.0
H1396 H 0.28755 0.92908 0.97709 0.0
H1397 H 0.3642 0.88249 0.99356 0.0
H1398 H 0.35696 0.86838 0.01452 0.0
H1399 H 0.3631 0.89433 0.01682 0.0
C1400 C 0.21614 0.35429 0.26476 0.0
C1401 C 0.23489 0.35664 0.27469 0.0
C1402 C 0.20395 0.37021 0.26213 0.0
C1403 C 0.21072 0.38892 0.2695 0.0
C1404 C 0.22925 0.39117 0.28026 0.0
C1405 C 0.24105 0.37501 0.28277 0.0
C1406 C 0.18422 0.3672 0.25072 0.0
C1407 C 0.23703 0.41085 0.2884 0.0
C1408 C 0.19601 0.43539 0.24395 0.0
C1409 C 0.18334 0.44329 0.25723 0.0
C1410 C 0.20422 0.41724 0.24733 0.0
C1411 C 0.1996 0.40658 0.26438 0.0
C1412 C 0.18587 0.41384 0.27724 0.0
C1413 C 0.17789 0.43215 0.27353 0.0
C1414 C 0.21874 0.41002 0.23317 0.0
C1415 C 0.18039 0.40276 0.29544 0.0
H1416 H 0.2113 0.34017 0.2584 0.0
H1417 H 0.2553 0.37684 0.29085 0.0
H1418 H 0.17231 0.37397 0.25857 0.0
H1419 H 0.18509 0.3745 0.23628 0.0
H1420 H 0.17996 0.35143 0.24819 0.0
H1421 H 0.25106 0.40987 0.29753 0.0
H1422 H 0.23984 0.4211 0.27615 0.0
H1423 H 0.22579 0.41728 0.29744 0.0
H1424 H 0.20014 0.44372 0.23116 0.0
H1425 H 0.16806 0.43806 0.28385 0.0
H1426 H 0.21447 0.39472 0.22856 0.0
H1427 H 0.2338 0.41003 0.24054 0.0
H1428 H 0.21955 0.41927 0.21986 0.0
H1429 H 0.17665 0.38709 0.29191 0.0
H1430 H 0.16759 0.40895 0.30244 0.0
H1431 H 0.1933 0.40337 0.30623 0.0
C1432 C 0.13739 0.0731 0.48531 0.0
C1433 C 0.13147 0.05969 0.49971 0.0
C1434 C 0.15398 0.0862 0.48866 0.0
C1435 C 0.16477 0.08621 0.507 0.0
C1436 C 0.15884 0.07286 0.52168 0.0
C1437 C 0.14237 0.05968 0.51781 0.0
C1438 C 0.1599 0.10012 0.47257 0.0
C1439 C 0.16985 0.07259 0.54151 0.0
C1440 C 0.21731 0.10975 0.50961 0.0
C1441 C 0.2141 0.12869 0.51629 0.0
C1442 C 0.20142 0.09567 0.50672 0.0
C1443 C 0.18194 0.10057 0.51092 0.0
C1444 C 0.17871 0.11949 0.51817 0.0
C1445 C 0.19479 0.13336 0.52062 0.0
C1446 C 0.20541 0.07574 0.49869 0.0
C1447 C 0.15822 0.12518 0.52314 0.0
H1448 H 0.12891 0.07354 0.47141 0.0
H1449 H 0.13815 0.04922 0.52895 0.0
H1450 H 0.15868 0.11547 0.47749 0.0
H1451 H 0.17565 0.09841 0.46925 0.0
H1452 H 0.15048 0.09768 0.45885 0.0
H1453 H 0.16328 0.06139 0.55138 0.0
H1454 H 0.18565 0.06956 0.53976 0.0
H1455 H 0.16964 0.08718 0.54866 0.0
H1456 H 0.23217 0.10605 0.50617 0.0
H1457 H 0.1922 0.1479 0.52598 0.0
H1458 H 0.19717 0.07337 0.4843 0.0
H1459 H 0.19994 0.0641 0.50866 0.0
H1460 H 0.22147 0.07404 0.49672 0.0
H1461 H 0.14821 0.12469 0.50971 0.0
H1462 H 0.15839 0.14013 0.52962 0.0
H1463 H 0.15178 0.11458 0.53366 0.0
C1464 C 0.74058 0.12783 0.76159 0.0
C1465 C 0.73868 0.1396 0.74491 0.0
C1466 C 0.72764 0.11137 0.76409 0.0
C1467 C 0.7125 0.10648 0.74945 0.0
C1468 C 0.71028 0.11848 0.73271 0.0
C1469 C 0.72337 0.13496 0.73066 0.0
C1470 C 0.73036 0.09904 0.78225 0.0
C1471 C 0.69442 0.11363 0.71674 0.0
C1472 C 0.69495 0.05283 0.74837 0.0
C1473 C 0.67758 0.05302 0.75879 0.0
C1474 C 0.70599 0.07025 0.7445 0.0
C1475 C 0.69962 0.08829 0.7514 0.0
C1476 C 0.68172 0.08869 0.7613 0.0
C1477 C 0.67086 0.07104 0.76483 0.0
C1478 C 0.72491 0.06923 0.73371 0.0
C1479 C 0.67449 0.10766 0.76893 0.0
H1480 H 0.75222 0.13154 0.77276 0.0
H1481 H 0.72197 0.14394 0.71766 0.0
H1482 H 0.71628 0.09763 0.78996 0.0
H1483 H 0.73417 0.08406 0.77806 0.0
H1484 H 0.7423 0.10533 0.79262 0.0
H1485 H 0.69405 0.12497 0.70512 0.0
H1486 H 0.69715 0.09935 0.70988 0.0
H1487 H 0.67958 0.11213 0.72303 0.0
H1488 H 0.70033 0.03902 0.7437 0.0
H1489 H 0.65746 0.07132 0.77291 0.0
H1490 H 0.73789 0.07351 0.74376 0.0
H1491 H 0.72492 0.07969 0.72132 0.0
H1492 H 0.7269 0.0543 0.72789 0.0
H1493 H 0.68509 0.11367 0.7807 0.0
H1494 H 0.65952 0.10568 0.77494 0.0
H1495 H 0.6739 0.11871 0.75708 0.0
C1496 C 0.37589 0.03047 0.54153 0.0
C1497 C 0.39381 0.03384 0.53219 0.0
C1498 C 0.36083 0.04386 0.53987 0.0
C1499 C 0.36375 0.06103 0.5286 0.0
C1500 C 0.3814 0.06406 0.51841 0.0
C1501 C 0.39623 0.05046 0.52036 0.0
C1502 C 0.34219 0.04007 0.55091 0.0
C1503 C 0.3851 0.08219 0.50626 0.0
C1504 C 0.32043 0.09305 0.51575 0.0
C1505 C 0.3234 0.1078 0.53011 0.0
C1506 C 0.33331 0.07755 0.51513 0.0
C1507 C 0.34944 0.07682 0.52922 0.0
C1508 C 0.3523 0.09153 0.54388 0.0
C1509 C 0.33929 0.10681 0.54413 0.0
C1510 C 0.32984 0.06211 0.49928 0.0
C1511 C 0.36928 0.09129 0.55922 0.0
H1512 H 0.37377 0.01748 0.55041 0.0
H1513 H 0.41008 0.0533 0.51324 0.0
H1514 H 0.34184 0.05098 0.56294 0.0
H1515 H 0.32879 0.0418 0.54107 0.0
H1516 H 0.34131 0.02516 0.55736 0.0
H1517 H 0.39856 0.08138 0.49764 0.0
H1518 H 0.37212 0.08445 0.49601 0.0
H1519 H 0.38708 0.09524 0.51603 0.0
H1520 H 0.3082 0.09371 0.50488 0.0
H1521 H 0.34168 0.11808 0.55534 0.0
H1522 H 0.32839 0.04735 0.50594 0.0
H1523 H 0.34281 0.06225 0.48993 0.0
H1524 H 0.31626 0.06441 0.48982 0.0
H1525 H 0.36847 0.07732 0.56745 0.0
H1526 H 0.36919 0.10362 0.56985 0.0
H1527 H 0.38368 0.09218 0.55204 0.0
C1528 C 0.62964 0.46464 0.51436 0.0
C1529 C 0.61184 0.45934 0.50361 0.0
C1530 C 0.64586 0.45261 0.51454 0.0
C1531 C 0.64427 0.43486 0.50369 0.0
C1532 C 0.62662 0.42979 0.49221 0.0
C1533 C 0.61062 0.44208 0.49233 0.0
C1534 C 0.66444 0.45856 0.52692 0.0
C1535 C 0.62433 0.41097 0.48047 0.0
C1536 C 0.69091 0.40757 0.49532 0.0
C1537 C 0.69011 0.39341 0.51013 0.0
C1538 C 0.67611 0.42125 0.49301 0.0
C1539 C 0.66024 0.42072 0.50584 0.0
C1540 C 0.65946 0.40653 0.52085 0.0
C1541 C 0.67436 0.39307 0.52279 0.0
C1542 C 0.67739 0.43617 0.47682 0.0
C1543 C 0.64282 0.4055 0.53487 0.0
H1544 H 0.63081 0.47814 0.52283 0.0
H1545 H 0.59687 0.4378 0.48411 0.0
H1546 H 0.66631 0.44809 0.53918 0.0
H1547 H 0.67775 0.45799 0.51808 0.0
H1548 H 0.66395 0.47354 0.53316 0.0
H1549 H 0.61044 0.41004 0.47093 0.0
H1550 H 0.63719 0.40961 0.47117 0.0
H1551 H 0.62406 0.39829 0.49059 0.0
H1552 H 0.70303 0.40792 0.48548 0.0
H1553 H 0.67361 0.38222 0.53431 0.0
H1554 H 0.67777 0.45119 0.48309 0.0
H1555 H 0.66397 0.43447 0.46673 0.0
H1556 H 0.69078 0.43477 0.46821 0.0
H1557 H 0.64239 0.41965 0.54281 0.0
H1558 H 0.64446 0.39364 0.54583 0.0
H1559 H 0.6283 0.40295 0.5266 0.0
C1560 C 0.7044 0.26601 0.37934 0.0
C1561 C 0.71154 0.27246 0.36141 0.0
C1562 C 0.70898 0.27673 0.39669 0.0
C1563 C 0.721 0.29435 0.3961 0.0
C1564 C 0.72746 0.30143 0.37791 0.0
C1565 C 0.72266 0.29039 0.36077 0.0
C1566 C 0.7017 0.26874 0.41578 0.0
C1567 C 0.74028 0.32015 0.37669 0.0
C1568 C 0.72385 0.32667 0.44177 0.0
C1569 C 0.74111 0.32039 0.45172 0.0
C1570 C 0.71734 0.31872 0.42337 0.0
C1571 C 0.72836 0.30421 0.41474 0.0
C1572 C 0.7461 0.2983 0.42441 0.0
C1573 C 0.75224 0.30644 0.44273 0.0
C1574 C 0.69839 0.32543 0.41343 0.0
C1575 C 0.75834 0.28293 0.41566 0.0
H1576 H 0.69551 0.25234 0.37986 0.0
H1577 H 0.72834 0.29539 0.34698 0.0
H1578 H 0.71455 0.26442 0.4253 0.0
H1579 H 0.69423 0.28018 0.42376 0.0
H1580 H 0.69116 0.25576 0.41352 0.0
H1581 H 0.74219 0.32478 0.36128 0.0
H1582 H 0.73373 0.33216 0.38471 0.0
H1583 H 0.75519 0.31802 0.38376 0.0
H1584 H 0.71516 0.33746 0.44855 0.0
H1585 H 0.76567 0.30158 0.45017 0.0
H1586 H 0.68699 0.31309 0.41258 0.0
H1587 H 0.70103 0.33004 0.39818 0.0
H1588 H 0.69233 0.33782 0.42136 0.0
H1589 H 0.74947 0.26878 0.41439 0.0
H1590 H 0.77224 0.28061 0.42462 0.0
H1591 H 0.76235 0.28723 0.40065 0.0
C1592 C 0.53928 0.01393 0.87538 0.0
C1593 C 0.52301 0.00044 0.87685 0.0
C1594 C 0.55261 0.01234 0.86043 0.0
C1595 C 0.54957 0.99691 0.84652 0.0
C1596 C 0.53323 0.98316 0.84796 0.0
C1597 C 0.52016 0.98505 0.86317 0.0
C1598 C 0.56994 0.02722 0.85952 0.0
C1599 C 0.52944 0.9666 0.83333 0.0
C1600 C 0.57475 0.00677 0.79885 0.0
C1601 C 0.59249 0.99715 0.80197 0.0
C1602 C 0.56018 0.00602 0.81283 0.0
C1603 C 0.56347 0.99548 0.83041 0.0
C1604 C 0.5809 0.98495 0.83322 0.0
C1605 C 0.59518 0.98586 0.81894 0.0
C1606 C 0.5417 0.01728 0.80918 0.0
C1607 C 0.58496 0.97355 0.85178 0.0
H1608 H 0.54173 0.02567 0.8861 0.0
H1609 H 0.50752 0.97467 0.86416 0.0
H1610 H 0.58413 0.01971 0.86028 0.0
H1611 H 0.56906 0.03511 0.84535 0.0
H1612 H 0.57035 0.03816 0.87163 0.0
H1613 H 0.51627 0.95695 0.83667 0.0
H1614 H 0.52704 0.97262 0.81837 0.0
H1615 H 0.54263 0.95759 0.83313 0.0
H1616 H 0.57246 0.0154 0.78571 0.0
H1617 H 0.60881 0.97833 0.82147 0.0
H1618 H 0.54195 0.02976 0.81965 0.0
H1619 H 0.52821 0.00779 0.81171 0.0
H1620 H 0.54046 0.02312 0.79403 0.0
H1621 H 0.58741 0.98384 0.86438 0.0
H1622 H 0.59826 0.96473 0.85095 0.0
H1623 H 0.57195 0.96359 0.85482 0.0
C1624 C 0.2807 0.19902 0.36782 0.0
C1625 C 0.29378 0.21564 0.36694 0.0
C1626 C 0.27723 0.18978 0.38577 0.0
C1627 C 0.28697 0.19746 0.40324 0.0
C1628 C 0.30083 0.21372 0.4023 0.0
C1629 C 0.30407 0.22259 0.38417 0.0
C1630 C 0.26251 0.17235 0.38615 0.0
C1631 C 0.31144 0.22243 0.42059 0.0
C1632 C 0.26154 0.19312 0.4513 0.0
C1633 C 0.27259 0.17913 0.46138 0.0
C1634 C 0.26566 0.19867 0.43214 0.0
C1635 C 0.28119 0.18998 0.42269 0.0
C1636 C 0.29187 0.17524 0.43238 0.0
C1637 C 0.28747 0.16999 0.45165 0.0
C1638 C 0.25387 0.21443 0.42231 0.0
C1639 C 0.30841 0.16553 0.42267 0.0
H1640 H 0.27291 0.19342 0.3545 0.0
H1641 H 0.31403 0.23556 0.38364 0.0
H1642 H 0.2689 0.16031 0.39485 0.0
H1643 H 0.24899 0.17657 0.39337 0.0
H1644 H 0.25801 0.16677 0.37119 0.0
H1645 H 0.32298 0.23398 0.41719 0.0
H1646 H 0.30051 0.229 0.4299 0.0
H1647 H 0.31861 0.21086 0.42933 0.0
H1648 H 0.24989 0.20018 0.45855 0.0
H1649 H 0.29605 0.15912 0.45925 0.0
H1650 H 0.24743 0.2092 0.40783 0.0
H1651 H 0.26386 0.2275 0.4197 0.0
H1652 H 0.2416 0.21898 0.43127 0.0
H1653 H 0.30327 0.1602 0.40779 0.0
H1654 H 0.3139 0.15301 0.43133 0.0
H1655 H 0.32103 0.17638 0.4209 0.0
C1656 C 0.4616 0.50275 0.88919 0.0
C1657 C 0.48232 0.50132 0.88891 0.0
C1658 C 0.44983 0.50446 0.87172 0.0
C1659 C 0.45903 0.50538 0.85355 0.0
C1660 C 0.4799 0.5043 0.85316 0.0
C1661 C 0.49119 0.50192 0.87073 0.0
C1662 C 0.42756 0.50508 0.87267 0.0
C1663 C 0.49036 0.50554 0.83412 0.0
C1664 C 0.43295 0.49201 0.80443 0.0
C1665 C 0.42975 0.51052 0.79649 0.0
C1666 C 0.44118 0.49008 0.82359 0.0
C1667 C 0.44698 0.50711 0.83479 0.0
C1668 C 0.44307 0.52582 0.8271 0.0
C1669 C 0.4342 0.52728 0.80811 0.0
C1670 C 0.4445 0.46984 0.83148 0.0
C1671 C 0.44948 0.54435 0.83835 0.0
H1672 H 0.45451 0.50262 0.90306 0.0
H1673 H 0.50703 0.50029 0.8701 0.0
H1674 H 0.42246 0.51901 0.86641 0.0
H1675 H 0.4201 0.49298 0.86369 0.0
H1676 H 0.42265 0.50376 0.88791 0.0
H1677 H 0.5068 0.50578 0.83646 0.0
H1678 H 0.48547 0.4928 0.82462 0.0
H1679 H 0.48637 0.51896 0.82605 0.0
H1680 H 0.42936 0.47903 0.79549 0.0
H1681 H 0.43189 0.54162 0.80192 0.0
H1682 H 0.43927 0.46845 0.84658 0.0
H1683 H 0.46064 0.46733 0.83223 0.0
H1684 H 0.4367 0.45819 0.82212 0.0
H1685 H 0.44431 0.5436 0.85349 0.0
H1686 H 0.44375 0.55761 0.83113 0.0
H1687 H 0.46598 0.54596 0.83951 0.0
C1688 C 0.74439 0.73917 0.14099 0.0
C1689 C 0.7261 0.74814 0.13972 0.0
C1690 C 0.74912 0.72534 0.127 0.0
C1691 C 0.73492 0.71967 0.11177 0.0
C1692 C 0.71596 0.72761 0.1111 0.0
C1693 C 0.7119 0.742 0.12484 0.0
C1694 C 0.76969 0.71756 0.12798 0.0
C1695 C 0.7002 0.72145 0.09544 0.0
C1696 C 0.75454 0.70371 0.06359 0.0
C1697 C 0.75386 0.6833 0.06547 0.0
C1698 C 0.74838 0.71567 0.07856 0.0
C1699 C 0.74065 0.70694 0.09553 0.0
C1700 C 0.7392 0.68625 0.09719 0.0
C1701 C 0.74622 0.67464 0.08226 0.0
C1702 C 0.75076 0.73766 0.07646 0.0
C1703 C 0.73034 0.67643 0.11472 0.0
H1704 H 0.75527 0.74318 0.15274 0.0
H1705 H 0.69778 0.74883 0.12345 0.0
H1706 H 0.76873 0.70132 0.12819 0.0
H1707 H 0.77753 0.72209 0.11469 0.0
H1708 H 0.7788 0.72296 0.14112 0.0
H1709 H 0.68539 0.72667 0.09868 0.0
H1710 H 0.7044 0.72753 0.0811 0.0
H1711 H 0.69895 0.70526 0.09391 0.0
H1712 H 0.76061 0.71041 0.05066 0.0
H1713 H 0.74556 0.65883 0.08362 0.0
H1714 H 0.76048 0.74396 0.08879 0.0
H1715 H 0.73613 0.74421 0.07715 0.0
H1716 H 0.75733 0.74208 0.06245 0.0
H1717 H 0.73988 0.67996 0.12812 0.0
H1718 H 0.72873 0.66024 0.11299 0.0
H1719 H 0.71549 0.68203 0.11706 0.0
C1720 C 0.95678 0.99954 0.10288 0.0
C1721 C 0.97181 0.0139 0.09928 0.0
C1722 C 0.94673 0.99964 0.12041 0.0
C1723 C 0.95177 0.0145 0.13458 0.0
C1724 C 0.96717 0.0288 0.13117 0.0
C1725 C 0.97705 0.02825 0.11365 0.0
C1726 C 0.9305 0.98406 0.12364 0.0
C1727 C 0.97302 0.0449 0.14591 0.0
C1728 C 0.91529 0.03024 0.17123 0.0
C1729 C 0.92311 0.02227 0.1887 0.0
C1730 C 0.92395 0.02709 0.15331 0.0
C1731 C 0.94076 0.01559 0.15284 0.0
C1732 C 0.94811 0.0067 0.17024 0.0
C1733 C 0.93927 0.01024 0.18799 0.0
C1734 C 0.91572 0.0369 0.13508 0.0
C1735 C 0.96588 0.99418 0.1703 0.0
H1736 H 0.95255 0.98847 0.09181 0.0
H1737 H 0.98895 0.03913 0.11119 0.0
H1738 H 0.9335 0.97654 0.13778 0.0
H1739 H 0.91604 0.99094 0.12455 0.0
H1740 H 0.92909 0.97293 0.11168 0.0
H1741 H 0.98543 0.0548 0.14108 0.0
H1742 H 0.96007 0.05379 0.14833 0.0
H1743 H 0.97761 0.03847 0.16023 0.0
H1744 H 0.90279 0.03953 0.17162 0.0
H1745 H 0.94543 0.00402 0.20139 0.0
H1746 H 0.91299 0.02609 0.12296 0.0
H1747 H 0.92677 0.04825 0.1302 0.0
H1748 H 0.90162 0.044 0.13757 0.0
H1749 H 0.96396 0.98305 0.15838 0.0
H1750 H 0.96836 0.98656 0.18449 0.0
H1751 H 0.97943 0.0035 0.16752 0.0
C1752 C 0.27703 0.79195 0.14785 0.0
C1753 C 0.29657 0.78608 0.14999 0.0
C1754 C 0.27045 0.8019 0.13101 0.0
C1755 C 0.28393 0.80647 0.11624 0.0
C1756 C 0.30399 0.80138 0.11883 0.0
C1757 C 0.31 0.79093 0.13558 0.0
C1758 C 0.24884 0.80664 0.12859 0.0
C1759 C 0.31891 0.80647 0.10366 0.0
C1760 C 0.26186 0.81074 0.06434 0.0
C1761 C 0.26006 0.83099 0.06266 0.0
C1762 C 0.26978 0.80261 0.08166 0.0
C1763 C 0.2766 0.81511 0.09747 0.0
C1764 C 0.27553 0.83566 0.09556 0.0
C1765 C 0.26697 0.84336 0.07825 0.0
C1766 C 0.27021 0.7806 0.08327 0.0
C1767 C 0.2832 0.84946 0.11189 0.0
H1768 H 0.26666 0.78798 0.15898 0.0
H1769 H 0.32515 0.78639 0.13738 0.0
H1770 H 0.24757 0.82247 0.12561 0.0
H1771 H 0.24167 0.79846 0.11581 0.0
H1772 H 0.2405 0.80279 0.14178 0.0
H1773 H 0.33432 0.80346 0.1089 0.0
H1774 H 0.3151 0.79778 0.09011 0.0
H1775 H 0.31844 0.82217 0.09969 0.0
H1776 H 0.25641 0.80114 0.05234 0.0
H1777 H 0.26572 0.85905 0.07689 0.0
H1778 H 0.26114 0.77539 0.09552 0.0
H1779 H 0.28564 0.7763 0.08665 0.0
H1780 H 0.2644 0.77296 0.0696 0.0
H1781 H 0.2741 0.84718 0.12484 0.0
H1782 H 0.28278 0.86507 0.10748 0.0
H1783 H 0.29873 0.84635 0.11652 0.0
C1784 C 0.04638 0.47806 0.14648 0.0
C1785 C 0.04568 0.493 0.1325 0.0
C1786 C 0.06076 0.47898 0.16215 0.0
C1787 C 0.07446 0.49542 0.16405 0.0
C1788 C 0.07327 0.5109 0.15037 0.0
C1789 C 0.05903 0.5094 0.13462 0.0
C1790 C 0.06178 0.46201 0.1762 0.0
C1791 C 0.08735 0.52885 0.1521 0.0
C1792 C 0.10411 0.50467 0.21252 0.0
C1793 C 0.12276 0.49816 0.20814 0.0
C1794 C 0.08818 0.50383 0.19835 0.0
C1795 C 0.09088 0.49589 0.17954 0.0
C1796 C 0.10952 0.4888 0.17526 0.0
C1797 C 0.12528 0.49022 0.18953 0.0
C1798 C 0.06863 0.51186 0.20332 0.0
C1799 C 0.1129 0.47985 0.15553 0.0
H1800 H 0.03614 0.46531 0.14472 0.0
H1801 H 0.05836 0.52102 0.12387 0.0
H1802 H 0.0761 0.45494 0.17494 0.0
H1803 H 0.06133 0.46728 0.19154 0.0
H1804 H 0.04942 0.45079 0.1733 0.0
H1805 H 0.08339 0.54027 0.14126 0.0
H1806 H 0.08734 0.53525 0.16706 0.0
H1807 H 0.10273 0.5247 0.14976 0.0
H1808 H 0.10212 0.51093 0.22685 0.0
H1809 H 0.1396 0.48498 0.18612 0.0
H1810 H 0.0564 0.50043 0.20103 0.0
H1811 H 0.06517 0.52417 0.19338 0.0
H1812 H 0.06881 0.5172 0.21872 0.0
H1813 H 0.10163 0.4677 0.15216 0.0
H1814 H 0.12794 0.47408 0.1549 0.0
H1815 H 0.11112 0.49098 0.14387 0.0
C1816 C 0.3968 0.75031 0.31693 0.0
C1817 C 0.39683 0.73603 0.3021 0.0
C1818 C 0.41257 0.75262 0.33114 0.0
C1819 C 0.42864 0.74017 0.3307 0.0
C1820 C 0.42889 0.72587 0.31569 0.0
C1821 C 0.41308 0.72408 0.3015 0.0
C1822 C 0.41188 0.76816 0.34682 0.0
C1823 C 0.44572 0.71224 0.3148 0.0
C1824 C 0.47765 0.75467 0.35835 0.0
C1825 C 0.47601 0.74388 0.3757 0.0
C1826 C 0.46225 0.75381 0.34367 0.0
C1827 C 0.44491 0.74167 0.34629 0.0
C1828 C 0.44318 0.73071 0.36373 0.0
C1829 C 0.45868 0.73205 0.37827 0.0
C1830 C 0.46451 0.7659 0.32537 0.0
C1831 C 0.42504 0.71738 0.36693 0.0
H1832 H 0.38422 0.75946 0.3177 0.0
H1833 H 0.41346 0.71327 0.2899 0.0
H1834 H 0.41111 0.76117 0.36142 0.0
H1835 H 0.42567 0.77782 0.34716 0.0
H1836 H 0.39889 0.77736 0.34448 0.0
H1837 H 0.44377 0.70202 0.30207 0.0
H1838 H 0.46008 0.72082 0.31382 0.0
H1839 H 0.44676 0.70349 0.32844 0.0
H1840 H 0.49095 0.76392 0.35628 0.0
H1841 H 0.45733 0.72356 0.39156 0.0
H1842 H 0.45201 0.77576 0.32348 0.0
H1843 H 0.46388 0.75617 0.31229 0.0
H1844 H 0.47873 0.77493 0.32578 0.0
H1845 H 0.4115 0.72593 0.36622 0.0
H1846 H 0.42601 0.70982 0.3813 0.0
H1847 H 0.42315 0.70614 0.35512 0.0
C1848 C 0.01586 0.38888 0.98822 0.0
C1849 C 0.99978 0.40018 0.9826 0.0
C1850 C 0.01913 0.37143 0.97832 0.0
C1851 C 0.00602 0.36512 0.96239 0.0
C1852 C 0.99025 0.37685 0.95614 0.0
C1853 C 0.98729 0.39423 0.96634 0.0
C1854 C 0.03608 0.35929 0.98548 0.0
C1855 C 0.97604 0.37068 0.93913 0.0
C1856 C 0.02191 0.32426 0.92963 0.0
C1857 C 0.01207 0.30774 0.93762 0.0
C1858 C 0.0199 0.3431 0.93734 0.0
C1859 C 0.00781 0.34547 0.95343 0.0
C1860 C 0.99765 0.32892 0.96139 0.0
C1861 C 0.99988 0.3103 0.95339 0.0
C1862 C 0.0309 0.36044 0.92845 0.0
C1863 C 0.98461 0.33082 0.97856 0.0
H1864 H 0.02544 0.39328 0.00089 0.0
H1865 H 0.97502 0.40305 0.96176 0.0
H1866 H 0.03005 0.34533 0.99163 0.0
H1867 H 0.04522 0.35551 0.9731 0.0
H1868 H 0.04587 0.367 0.99697 0.0
H1869 H 0.96564 0.38223 0.93503 0.0
H1870 H 0.9844 0.36709 0.92613 0.0
H1871 H 0.96718 0.35723 0.94304 0.0
H1872 H 0.03133 0.32247 0.91743 0.0
H1873 H 0.99216 0.2977 0.95969 0.0
H1874 H 0.04163 0.36744 0.93957 0.0
H1875 H 0.0203 0.37162 0.92383 0.0
H1876 H 0.03915 0.35624 0.91555 0.0
H1877 H 0.99359 0.33702 0.99142 0.0
H1878 H 0.97746 0.31654 0.98281 0.0
H1879 H 0.97279 0.34108 0.97491 0.0
C1880 C 0.63777 0.7989 0.29312 0.0
C1881 C 0.63299 0.80968 0.27627 0.0
C1882 C 0.62322 0.79326 0.30622 0.0
C1883 C 0.6034 0.79864 0.30244 0.0
C1884 C 0.59854 0.80988 0.28566 0.0
C1885 C 0.61339 0.81519 0.27271 0.0
C1886 C 0.62897 0.78113 0.32387 0.0
C1887 C 0.57761 0.81604 0.28128 0.0
C1888 C 0.56465 0.76588 0.32646 0.0
C1889 C 0.56204 0.77625 0.34382 0.0
C1890 C 0.57745 0.77341 0.31243 0.0
C1891 C 0.58775 0.79182 0.31578 0.0
C1892 C 0.58429 0.80287 0.33271 0.0
C1893 C 0.57152 0.79492 0.34658 0.0
C1894 C 0.58076 0.76117 0.29456 0.0
C1895 C 0.59481 0.82267 0.33665 0.0
H1896 H 0.65284 0.79439 0.29578 0.0
H1897 H 0.60969 0.82369 0.25978 0.0
H1898 H 0.62506 0.78855 0.33751 0.0
H1899 H 0.62053 0.76673 0.32309 0.0
H1900 H 0.64512 0.77857 0.32493 0.0
H1901 H 0.57648 0.82554 0.26814 0.0
H1902 H 0.56739 0.80289 0.27879 0.0
H1903 H 0.5724 0.82407 0.29402 0.0
H1904 H 0.55733 0.75148 0.32415 0.0
H1905 H 0.56946 0.8031 0.35989 0.0
H1906 H 0.59626 0.7564 0.2953 0.0
H1907 H 0.57881 0.76995 0.28103 0.0
H1908 H 0.57044 0.74793 0.29333 0.0
H1909 H 0.61091 0.82085 0.33982 0.0
H1910 H 0.58887 0.8303 0.3493 0.0
H1911 H 0.59338 0.83212 0.32353 0.0
C1912 C 0.03727 0.11191 0.94434 0.0
C1913 C 0.01873 0.10342 0.94889 0.0
C1914 C 0.0389 0.13078 0.93639 0.0
C1915 C 0.0215 0.14113 0.93252 0.0
C1916 C 0.00262 0.13208 0.93601 0.0
C1917 C 0.00149 0.1134 0.94448 0.0
C1918 C 0.05932 0.14007 0.93328 0.0
C1919 C 0.9837 0.14242 0.93154 0.0
C1920 C 0.02712 0.19658 0.9354 0.0
C1921 C 0.02893 0.20158 0.91569 0.0
C1922 C 0.02458 0.17693 0.94103 0.0
C1923 C 0.02325 0.162 0.92651 0.0
C1924 C 0.02434 0.16704 0.90649 0.0
C1925 C 0.02748 0.1868 0.90132 0.0
C1926 C 0.0239 0.17214 0.96258 0.0
C1927 C 0.02238 0.15156 0.89057 0.0
H1928 H 0.05058 0.10418 0.94801 0.0
H1929 H 0.98717 0.10672 0.94805 0.0
H1930 H 0.06012 0.14567 0.9181 0.0
H1931 H 0.06228 0.15279 0.94337 0.0
H1932 H 0.07124 0.12966 0.93597 0.0
H1933 H 0.97024 0.13246 0.93269 0.0
H1934 H 0.98281 0.15477 0.94199 0.0
H1935 H 0.98365 0.14868 0.91656 0.0
H1936 H 0.02833 0.208 0.94653 0.0
H1937 H 0.02869 0.19068 0.88603 0.0
H1938 H 0.03619 0.16263 0.96695 0.0
H1939 H 0.00974 0.16388 0.96547 0.0
H1940 H 0.02523 0.18547 0.97201 0.0
H1941 H 0.035 0.14183 0.8921 0.0
H1942 H 0.02213 0.15801 0.87565 0.0
H1943 H 0.00853 0.14226 0.89204 0.0
C1944 C 0.37868 0.26082 0.19975 0.0
C1945 C 0.38216 0.27144 0.21732 0.0
C1946 C 0.39404 0.25821 0.18706 0.0
C1947 C 0.4134 0.26641 0.19204 0.0
C1948 C 0.41698 0.27736 0.20962 0.0
C1949 C 0.40132 0.27973 0.22207 0.0
C1950 C 0.38962 0.24637 0.16847 0.0
C1951 C 0.4374 0.2864 0.21537 0.0
C1952 C 0.4549 0.24162 0.16787 0.0
C1953 C 0.45805 0.2537 0.15163 0.0
C1954 C 0.44096 0.24602 0.18158 0.0
C1955 C 0.42992 0.26294 0.17902 0.0
C1956 C 0.43372 0.27572 0.16321 0.0
C1957 C 0.44774 0.27095 0.14969 0.0
C1958 C 0.43742 0.23207 0.19831 0.0
C1959 C 0.42234 0.29397 0.16006 0.0
H1960 H 0.36399 0.25414 0.19611 0.0
H1961 H 0.40406 0.28816 0.2355 0.0
H1962 H 0.39379 0.25518 0.15555 0.0
H1963 H 0.39865 0.23327 0.16876 0.0
H1964 H 0.37366 0.24143 0.16648 0.0
H1965 H 0.43759 0.29498 0.22923 0.0
H1966 H 0.44815 0.27475 0.21723 0.0
H1967 H 0.44265 0.29619 0.20356 0.0
H1968 H 0.46286 0.22833 0.16958 0.0
H1969 H 0.45013 0.28043 0.13724 0.0
H1970 H 0.42221 0.22503 0.19647 0.0
H1971 H 0.43838 0.24015 0.21248 0.0
H1972 H 0.44827 0.2204 0.19911 0.0
H1973 H 0.40649 0.28979 0.15613 0.0
H1974 H 0.42831 0.30328 0.14818 0.0
H1975 H 0.4228 0.30277 0.17377 0.0
C1976 C 0.54384 0.38833 0.0428 0.0
C1977 C 0.53131 0.39363 0.02686 0.0
C1978 C 0.5413 0.36992 0.05171 0.0
C1979 C 0.52594 0.35647 0.04442 0.0
C1980 C 0.51306 0.36186 0.02854 0.0
C1981 C 0.5159 0.38036 0.01997 0.0
C1982 C 0.55524 0.36474 0.0687 0.0
C1983 C 0.49658 0.34789 0.02025 0.0
C1984 C 0.53068 0.30181 0.05112 0.0
C1985 C 0.51734 0.29747 0.06584 0.0
C1986 C 0.53401 0.32103 0.04443 0.0
C1987 C 0.52385 0.33637 0.05269 0.0
C1988 C 0.51093 0.33227 0.06803 0.0
C1989 C 0.5078 0.31286 0.07441 0.0
C1990 C 0.54793 0.3248 0.02805 0.0
C1991 C 0.49993 0.34828 0.07728 0.0
H1992 H 0.55563 0.39861 0.04835 0.0
H1993 H 0.50632 0.38426 0.00751 0.0
H1994 H 0.54663 0.36015 0.08147 0.0
H1995 H 0.56392 0.35216 0.0646 0.0
H1996 H 0.5658 0.37718 0.07324 0.0
H1997 H 0.48738 0.35461 0.00837 0.0
H1998 H 0.50302 0.33466 0.01428 0.0
H1999 H 0.48675 0.34297 0.03202 0.0
H2000 H 0.53822 0.2901 0.04442 0.0
H2001 H 0.49753 0.30972 0.08583 0.0
H2002 H 0.55944 0.33642 0.03244 0.0
H2003 H 0.53949 0.3301 0.01492 0.0
H2004 H 0.55546 0.31145 0.0239 0.0
H2005 H 0.5105 0.36053 0.08224 0.0
H2006 H 0.49159 0.34295 0.09 0.0
H2007 H 0.48925 0.35428 0.06625 0.0
C2008 C 0.62274 0.23737 0.18856 0.0
C2009 C 0.62253 0.22133 0.20136 0.0
C2010 C 0.60744 0.23941 0.1741 0.0
C2011 C 0.59163 0.22492 0.17216 0.0
C2012 C 0.59122 0.20875 0.18506 0.0
C2013 C 0.60661 0.2072 0.19956 0.0
C2014 C 0.60835 0.25692 0.16068 0.0
C2015 C 0.57467 0.19293 0.18336 0.0
C2016 C 0.54401 0.23772 0.14382 0.0
C2017 C 0.54691 0.23003 0.12516 0.0
C2018 C 0.55838 0.23609 0.15931 0.0
C2019 C 0.57594 0.22633 0.15612 0.0
C2020 C 0.57877 0.21823 0.13744 0.0
C2021 C 0.5643 0.22027 0.12218 0.0
C2022 C 0.55494 0.2451 0.17898 0.0
C2023 C 0.59718 0.20749 0.13352 0.0
H2024 H 0.63509 0.24822 0.1896 0.0
H2025 H 0.6061 0.19493 0.20956 0.0
H2026 H 0.60975 0.25199 0.14534 0.0
H2027 H 0.59439 0.26476 0.16105 0.0
H2028 H 0.62109 0.2674 0.16476 0.0
H2029 H 0.57636 0.18147 0.19473 0.0
H2030 H 0.56009 0.19944 0.18474 0.0
H2031 H 0.57438 0.18586 0.16869 0.0
H2032 H 0.53065 0.24533 0.14625 0.0
H2033 H 0.56662 0.21413 0.10787 0.0
H2034 H 0.56687 0.25652 0.18276 0.0
H2035 H 0.55563 0.2338 0.19059 0.0
H2036 H 0.54034 0.25186 0.17918 0.0
H2037 H 0.61059 0.21755 0.13579 0.0
H2038 H 0.59682 0.20148 0.11836 0.0
H2039 H 0.59878 0.19524 0.14401 0.0
C2040 C 0.4642 0.11468 0.01429 0.0
C2041 C 0.47644 0.09915 0.01848 0.0
C2042 C 0.46619 0.13205 0.02536 0.0
C2043 C 0.48096 0.13403 0.04087 0.0
C2044 C 0.49331 0.11835 0.04526 0.0
C2045 C 0.49081 0.10101 0.03408 0.0
C2046 C 0.45254 0.14833 0.02039 0.0
C2047 C 0.50937 0.12003 0.06153 0.0
C2048 C 0.49664 0.18665 0.05465 0.0
C2049 C 0.48552 0.18964 0.07109 0.0
C2050 C 0.49597 0.16835 0.04519 0.0
C2051 C 0.48363 0.15274 0.05214 0.0
C2052 C 0.4728 0.15549 0.06906 0.0
C2053 C 0.47396 0.17388 0.0784 0.0
C2054 C 0.50794 0.16592 0.02734 0.0
C2055 C 0.45933 0.13925 0.07682 0.0
H2056 H 0.45292 0.11316 0.00239 0.0
H2057 H 0.50037 0.08904 0.03725 0.0
H2058 H 0.44453 0.15231 0.03349 0.0
H2059 H 0.46139 0.1616 0.01597 0.0
H2060 H 0.44141 0.14421 0.0083 0.0
H2061 H 0.51747 0.10637 0.06331 0.0
H2062 H 0.52023 0.13227 0.05843 0.0
H2063 H 0.50281 0.12347 0.07562 0.0
H2064 H 0.50557 0.1987 0.04885 0.0
H2065 H 0.46529 0.17606 0.09108 0.0
H2066 H 0.49775 0.16361 0.01414 0.0
H2067 H 0.51687 0.1528 0.02889 0.0
H2068 H 0.51812 0.17891 0.02485 0.0
H2069 H 0.44693 0.13561 0.06586 0.0
H2070 H 0.45294 0.14333 0.09084 0.0
H2071 H 0.46761 0.12579 0.07916 0.0
C2072 C 0.29875 0.40549 0.73994 0.0
C2073 C 0.2844 0.4051 0.72432 0.0
C2074 C 0.31385 0.42044 0.74157 0.0
C2075 C 0.31478 0.43515 0.72705 0.0
C2076 C 0.30001 0.43511 0.71151 0.0
C2077 C 0.28488 0.42013 0.71042 0.0
C2078 C 0.32913 0.42014 0.75853 0.0
C2079 C 0.30067 0.4504 0.69562 0.0
C2080 C 0.34801 0.48104 0.73816 0.0
C2081 C 0.36568 0.47623 0.72975 0.0
C2082 C 0.3312 0.46791 0.73725 0.0
C2083 C 0.33202 0.44971 0.72743 0.0
C2084 C 0.34964 0.44502 0.71848 0.0
C2085 C 0.36628 0.45826 0.71988 0.0
C2086 C 0.31276 0.47328 0.74719 0.0
C2087 C 0.35101 0.42589 0.70761 0.0
H2088 H 0.29824 0.39396 0.7508 0.0
H2089 H 0.27384 0.41974 0.69826 0.0
H2090 H 0.34391 0.41739 0.75298 0.0
H2091 H 0.33048 0.43458 0.7661 0.0
H2092 H 0.32537 0.40864 0.7694 0.0
H2093 H 0.28738 0.44905 0.68528 0.0
H2094 H 0.30171 0.46532 0.70216 0.0
H2095 H 0.31414 0.4489 0.68719 0.0
H2096 H 0.34746 0.49487 0.74587 0.0
H2097 H 0.37981 0.45452 0.71317 0.0
H2098 H 0.30958 0.46265 0.75903 0.0
H2099 H 0.29972 0.47243 0.73656 0.0
H2100 H 0.31429 0.48826 0.75366 0.0
H2101 H 0.34923 0.41346 0.71789 0.0
H2102 H 0.36543 0.42492 0.70061 0.0
H2103 H 0.33881 0.42412 0.69609 0.0
C2104 C 0.29407 0.6413 0.77921 0.0
C2105 C 0.27866 0.64252 0.7647 0.0
C2106 C 0.3095 0.62861 0.77705 0.0
C2107 C 0.30952 0.6168 0.75998 0.0
C2108 C 0.29367 0.61747 0.74558 0.0
C2109 C 0.27844 0.63034 0.74811 0.0
C2110 C 0.32609 0.62827 0.79276 0.0
C2111 C 0.29315 0.6051 0.72718 0.0
C2112 C 0.35918 0.6015 0.74311 0.0
C2113 C 0.35937 0.58194 0.74927 0.0
C2114 C 0.34311 0.61299 0.74664 0.0
C2115 C 0.32677 0.60474 0.75656 0.0
C2116 C 0.32692 0.58508 0.76301 0.0
C2117 C 0.34324 0.5739 0.75931 0.0
C2118 C 0.34357 0.63393 0.73959 0.0
C2119 C 0.30975 0.57579 0.77363 0.0
H2120 H 0.29415 0.65041 0.79224 0.0
H2121 H 0.2667 0.63131 0.73675 0.0
H2122 H 0.32809 0.61303 0.79773 0.0
H2123 H 0.34028 0.63374 0.78668 0.0
H2124 H 0.32326 0.63744 0.80568 0.0
H2125 H 0.27912 0.60628 0.71809 0.0
H2126 H 0.30582 0.60978 0.71822 0.0
H2127 H 0.29483 0.58949 0.73098 0.0
H2128 H 0.37157 0.60787 0.73537 0.0
H2129 H 0.34325 0.5588 0.76409 0.0
H2130 H 0.34213 0.64403 0.75213 0.0
H2131 H 0.33077 0.63598 0.72906 0.0
H2132 H 0.3575 0.6382 0.73231 0.0
H2133 H 0.30726 0.58443 0.78698 0.0
H2134 H 0.31229 0.56045 0.77799 0.0
H2135 H 0.29591 0.57587 0.7641 0.0
C2136 C 0.86394 0.45226 0.46467 0.0
C2137 C 0.88078 0.45354 0.47772 0.0
C2138 C 0.84764 0.43925 0.46802 0.0
C2139 C 0.84797 0.42748 0.48504 0.0
C2140 C 0.86461 0.42911 0.49858 0.0
C2141 C 0.88087 0.44193 0.49466 0.0
C2142 C 0.83027 0.43773 0.45311 0.0
C2143 C 0.86545 0.41697 0.51702 0.0
C2144 C 0.79991 0.40282 0.50204 0.0
C2145 C 0.80171 0.38342 0.49593 0.0
C2146 C 0.81476 0.41743 0.49845 0.0
C2147 C 0.83153 0.41256 0.48813 0.0
C2148 C 0.83303 0.39314 0.48134 0.0
C2149 C 0.81823 0.37878 0.4855 0.0
C2150 C 0.81283 0.4379 0.50622 0.0
C2151 C 0.85045 0.38743 0.46993 0.0
H2152 H 0.86347 0.46142 0.45175 0.0
H2153 H 0.89386 0.4425 0.50472 0.0
H2154 H 0.82873 0.42271 0.44681 0.0
H2155 H 0.81625 0.44036 0.46025 0.0
H2156 H 0.83202 0.44834 0.44094 0.0
H2157 H 0.87869 0.42113 0.52682 0.0
H2158 H 0.85187 0.41864 0.52525 0.0
H2159 H 0.86591 0.40124 0.51311 0.0
H2160 H 0.78722 0.40644 0.5102 0.0
H2161 H 0.81959 0.36385 0.48054 0.0
H2162 H 0.81395 0.44869 0.49417 0.0
H2163 H 0.82522 0.44166 0.51715 0.0
H2164 H 0.79852 0.4395 0.51329 0.0
H2165 H 0.85214 0.39716 0.45708 0.0
H2166 H 0.84878 0.372 0.46467 0.0
H2167 H 0.86438 0.38928 0.47929 0.0
C2168 C 0.73824 0.87495 0.78786 0.0
C2169 C 0.73266 0.85678 0.77903 0.0
C2170 C 0.72631 0.89101 0.78535 0.0
C2171 C 0.70824 0.88885 0.77382 0.0
C2172 C 0.70197 0.8703 0.76573 0.0
C2173 C 0.71429 0.85447 0.76838 0.0
C2174 C 0.73352 0.91053 0.79429 0.0
C2175 C 0.68274 0.86738 0.75348 0.0
C2176 C 0.67467 0.93157 0.77729 0.0
C2177 C 0.68071 0.94315 0.7615 0.0
C2178 C 0.68273 0.9133 0.78098 0.0
C2179 C 0.69717 0.90653 0.76862 0.0
C2180 C 0.70245 0.91764 0.75206 0.0
C2181 C 0.69414 0.93574 0.74868 0.0
C2182 C 0.67653 0.90172 0.79865 0.0
C2183 C 0.71773 0.91093 0.73845 0.0
H2184 H 0.7522 0.87672 0.79647 0.0
H2185 H 0.7099 0.84051 0.76144 0.0
H2186 H 0.73687 0.92111 0.78246 0.0
H2187 H 0.72177 0.91661 0.8029 0.0
H2188 H 0.74714 0.90942 0.80402 0.0
H2189 H 0.67871 0.85164 0.75048 0.0
H2190 H 0.6704 0.87388 0.76093 0.0
H2191 H 0.68419 0.87499 0.73926 0.0
H2192 H 0.66425 0.93709 0.78724 0.0
H2193 H 0.69875 0.94441 0.73628 0.0
H2194 H 0.68898 0.90219 0.80996 0.0
H2195 H 0.6731 0.88612 0.79463 0.0
H2196 H 0.66333 0.90761 0.80521 0.0
H2197 H 0.73248 0.91088 0.74647 0.0
H2198 H 0.71911 0.92055 0.72544 0.0
H2199 H 0.71381 0.89574 0.7333 0.0
C2200 C 0.64695 0.55255 0.98483 0.0
C2201 C 0.63146 0.55121 0.99783 0.0
C2202 C 0.66303 0.56634 0.9878 0.0
C2203 C 0.6639 0.57888 0.00439 0.0
C2204 C 0.64877 0.57711 0.018 0.0
C2205 C 0.63265 0.56343 0.01447 0.0
C2206 C 0.67878 0.56788 0.97286 0.0
C2207 C 0.64932 0.59005 0.03601 0.0
C2208 C 0.71344 0.60576 0.01892 0.0
C2209 C 0.71057 0.62451 0.01133 0.0
C2210 C 0.69831 0.59079 0.01699 0.0
C2211 C 0.68004 0.59457 0.00691 0.0
C2212 C 0.67716 0.6134 0.99903 0.0
C2213 C 0.69237 0.62817 0.00149 0.0
C2214 C 0.7018 0.571 0.02587 0.0
C2215 C 0.65803 0.61792 0.98787 0.0
H2216 H 0.64646 0.54289 0.97218 0.0
H2217 H 0.62071 0.56272 0.02451 0.0
H2218 H 0.67897 0.58261 0.96606 0.0
H2219 H 0.6937 0.56621 0.9801 0.0
H2220 H 0.67625 0.55665 0.96106 0.0
H2221 H 0.63735 0.58573 0.04598 0.0
H2222 H 0.6639 0.58946 0.04425 0.0
H2223 H 0.64761 0.60549 0.03158 0.0
H2224 H 0.72742 0.60287 0.02666 0.0
H2225 H 0.69008 0.64257 0.99545 0.0
H2226 H 0.70039 0.55952 0.01429 0.0
H2227 H 0.69032 0.56728 0.03653 0.0
H2228 H 0.71672 0.57051 0.03351 0.0
H2229 H 0.6553 0.60777 0.97518 0.0
H2230 H 0.65827 0.63322 0.98238 0.0
H2231 H 0.64531 0.61565 0.99743 0.0
C2232 C 0.22985 0.63421 0.22465 0.0
C2233 C 0.24472 0.6389 0.23932 0.0
C2234 C 0.21658 0.61782 0.22643 0.0
C2235 C 0.21817 0.60594 0.24332 0.0
C2236 C 0.23293 0.61082 0.25832 0.0
C2237 C 0.24604 0.6272 0.25612 0.0
C2238 C 0.2011 0.613 0.21009 0.0
C2239 C 0.23502 0.5986 0.27664 0.0
C2240 C 0.1757 0.57148 0.25856 0.0
C2241 C 0.18226 0.55322 0.25306 0.0
C2242 C 0.18684 0.5889 0.25477 0.0
C2243 C 0.2049 0.58801 0.2452 0.0
C2244 C 0.21108 0.56971 0.23877 0.0
C2245 C 0.19973 0.55254 0.24285 0.0
C2246 C 0.17976 0.60815 0.26185 0.0
C2247 C 0.23018 0.56817 0.22838 0.0
H2248 H 0.22889 0.64312 0.21157 0.0
H2249 H 0.2573 0.63095 0.26763 0.0
H2250 H 0.20371 0.59852 0.20361 0.0
H2251 H 0.18605 0.61194 0.21596 0.0
H2252 H 0.20132 0.62413 0.19828 0.0
H2253 H 0.24691 0.60471 0.28716 0.0
H2254 H 0.22077 0.59762 0.28409 0.0
H2255 H 0.23853 0.58346 0.27269 0.0
H2256 H 0.16221 0.57214 0.26644 0.0
H2257 H 0.20496 0.53853 0.23857 0.0
H2258 H 0.17971 0.61902 0.24982 0.0
H2259 H 0.19014 0.61416 0.2738 0.0
H2260 H 0.16459 0.60655 0.26746 0.0
H2261 H 0.23067 0.57851 0.21591 0.0
H2262 H 0.23196 0.55312 0.22277 0.0
H2263 H 0.24304 0.57228 0.23865 0.0
C2264 C 0.8754 0.53267 0.04194 0.0
C2265 C 0.89332 0.53698 0.03289 0.0
C2266 C 0.85986 0.54556 0.04057 0.0
C2267 C 0.86232 0.56319 0.02992 0.0
C2268 C 0.88008 0.56727 0.02016 0.0
C2269 C 0.89536 0.55414 0.02177 0.0
C2270 C 0.84111 0.54064 0.05111 0.0
C2271 C 0.88331 0.58594 0.0087 0.0
C2272 C 0.81789 0.59345 0.0163 0.0
C2273 C 0.81972 0.60798 0.03095 0.0
C2274 C 0.83146 0.57855 0.01589 0.0
C2275 C 0.84717 0.5782 0.03047 0.0
C2276 C 0.84885 0.59263 0.04547 0.0
C2277 C 0.83514 0.60731 0.04551 0.0
C2278 C 0.82921 0.56338 0.99969 0.0
C2279 C 0.86535 0.59276 0.06133 0.0
H2280 H 0.87359 0.51929 0.05028 0.0
H2281 H 0.90923 0.55769 0.0149 0.0
H2282 H 0.83991 0.55126 0.06327 0.0
H2283 H 0.82783 0.54189 0.04099 0.0
H2284 H 0.84082 0.52562 0.05731 0.0
H2285 H 0.89719 0.58614 0.00061 0.0
H2286 H 0.87058 0.58784 0.99805 0.0
H2287 H 0.88419 0.59869 0.01887 0.0
H2288 H 0.80602 0.59386 0.005 0.0
H2289 H 0.83665 0.6184 0.05695 0.0
H2290 H 0.82837 0.54844 0.00601 0.0
H2291 H 0.84246 0.56444 0.99068 0.0
H2292 H 0.81573 0.56519 0.98994 0.0
H2293 H 0.86498 0.57856 0.06917 0.0
H2294 H 0.86427 0.60472 0.07222 0.0
H2295 H 0.88 0.59458 0.05466 0.0
C2296 C 0.13056 0.96757 0.01468 0.0
C2297 C 0.11261 0.96244 0.00412 0.0
C2298 C 0.14654 0.95523 0.01491 0.0
C2299 C 0.14451 0.93731 0.00436 0.0
C2300 C 0.12676 0.93247 0.99296 0.0
C2301 C 0.11102 0.94508 0.99298 0.0
C2302 C 0.16525 0.96096 0.02717 0.0
C2303 C 0.12399 0.91347 0.98154 0.0
C2304 C 0.18994 0.90785 0.99694 0.0
C2305 C 0.18842 0.89403 0.01201 0.0
C2306 C 0.17585 0.92218 0.99428 0.0
C2307 C 0.15994 0.92266 0.00701 0.0
C2308 C 0.15849 0.90887 0.02234 0.0
C2309 C 0.1727 0.89475 0.02464 0.0
C2310 C 0.17784 0.93669 0.97779 0.0
C2311 C 0.14179 0.90889 0.03628 0.0
H2312 H 0.13201 0.98114 0.02303 0.0
H2313 H 0.09715 0.94094 0.98491 0.0
H2314 H 0.16665 0.95093 0.03985 0.0
H2315 H 0.17855 0.95953 0.01848 0.0
H2316 H 0.16529 0.97623 0.03283 0.0
H2317 H 0.11022 0.91283 0.97183 0.0
H2318 H 0.1369 0.91147 0.97244 0.0
H2319 H 0.12314 0.901 0.99188 0.0
H2320 H 0.20204 0.90738 0.98713 0.0
H2321 H 0.17141 0.88419 0.03637 0.0
H2322 H 0.17854 0.95187 0.98369 0.0
H2323 H 0.16457 0.9351 0.96749 0.0
H2324 H 0.19132 0.93467 0.96947 0.0
H2325 H 0.14184 0.92331 0.0438 0.0
H2326 H 0.14294 0.89729 0.04758 0.0
H2327 H 0.12725 0.90662 0.02797 0.0
loop_
_geom_bond_atom_site_label_1
_geom_bond_atom_site_label_2
_geom_bond_distance
_geom_bond_site_symmetry_2
_ccdc_geom_bond_type
C0 C1 1.386 . S
C0 C2 1.397 . S
C0 H24 0.931 . S
C1 C0 1.386 . S
C1 C5 1.397 . S
C2 C0 1.397 . S
C2 C3 1.384 1_556 S
C2 H25 0.930 . S
C3 C2 1.384 1_554 S
C3 C4 1.377 . S
C3 C6 1.481 . S
C4 C3 1.377 . S
C4 C5 1.389 1_554 S
C4 H26 0.929 . S
C5 C1 1.397 . S
C5 C4 1.389 1_556 S
C5 H27 0.931 1_556 S
C6 C3 1.481 . S
C6 C7 1.387 . S
C6 C11 1.390 . S
C7 C6 1.387 . S
C7 C8 1.401 . S
C7 H28 0.930 . S
C8 C7 1.401 . S
C8 C9 1.376 . S
C8 C17 1.511 . S
C9 C8 1.376 . S
C9 C10 1.392 . S
C9 H30 0.931 . S
C10 C9 1.392 . S
C10 C11 1.361 . S
C10 C12 1.500 . S
C11 C6 1.390 . S
C11 C10 1.361 . S
C11 H29 0.931 . S
C12 C10 1.500 . S
C12 C13 1.371 . S
C12 C14 1.365 . S
C13 C12 1.371 . S
C13 C23 1.386 1_455 S
C13 H31 0.931 . S
C14 C12 1.365 . S
C14 C15 1.409 1_455 S
C14 H32 0.929 . S
C15 C14 1.409 1_655 S
C15 C16 1.380 . S
C15 H33 0.930 . S
C16 C15 1.380 . S
C16 C23 1.357 . S
C17 C8 1.511 . S
C17 C18 1.341 . S
C17 C19 1.371 1_545 S
C18 C17 1.341 . S
C18 C22 1.394 1_545 S
C18 H34 0.930 1_554 S
C19 C17 1.371 1_565 S
C19 C20 1.392 . S
C19 H35 0.931 . S
C20 C19 1.392 . S
C20 C21 1.331 . S
C20 H38 0.932 . S
C21 C20 1.331 . S
C21 C22 1.336 . S
C22 C18 1.394 1_565 S
C22 C21 1.336 . S
C22 H37 0.929 1_554 S
C23 C13 1.386 1_655 S
C23 C16 1.357 . S
C23 H36 0.908 1_545 S
H24 C0 0.931 . S
H25 C2 0.930 . S
H26 C4 0.929 . S
H27 C5 0.931 1_554 S
H28 C7 0.930 . S
H29 C11 0.931 . S
H30 C9 0.931 . S
H31 C13 0.931 . S
H32 C14 0.929 . S
H33 C15 0.930 . S
H34 C18 0.930 1_556 S
H35 C19 0.931 . S
H36 C23 0.908 1_565 S
H37 C22 0.929 1_556 S
H38 C20 0.932 . S
C39 C40 1.386 . S
C39 C41 1.397 . S
C39 H63 0.931 . S
C40 C39 1.386 . S
C40 C44 1.397 . S
C41 C39 1.397 . S
C41 C42 1.384 . S
C41 H64 0.930 . S
C42 C41 1.384 . S
C42 C43 1.377 . S
C42 C45 1.481 . S
C43 C42 1.377 . S
C43 C44 1.389 . S
C43 H65 0.929 . S
C44 C40 1.397 . S
C44 C43 1.389 . S
C44 H66 0.931 . S
C45 C42 1.481 . S
C45 C46 1.387 . S
C45 C50 1.390 . S
C46 C45 1.387 . S
C46 C47 1.401 . S
C46 H67 0.930 . S
C47 C46 1.401 . S
C47 C48 1.376 . S
C47 C56 1.511 . S
C48 C47 1.376 . S
C48 C49 1.392 . S
C48 H69 0.931 . S
C49 C48 1.392 . S
C49 C50 1.361 . S
C49 C51 1.500 . S
C50 C45 1.390 . S
C50 C49 1.361 . S
C50 H68 0.931 . S
C51 C49 1.500 . S
C51 C52 1.371 . S
C51 C53 1.365 . S
C52 C51 1.371 . S
C52 C62 1.386 . S
C52 H70 0.931 . S
C53 C51 1.365 . S
C53 C54 1.409 . S
C53 H71 0.929 . S
C54 C53 1.409 . S
C54 C55 1.380 . S
C54 H72 0.930 . S
C55 C54 1.380 . S
C55 C62 1.357 . S
C56 C47 1.511 . S
C56 C57 1.341 . S
C56 C58 1.371 . S
C57 C56 1.341 . S
C57 C61 1.394 . S
C57 H73 0.930 . S
C58 C56 1.371 . S
C58 C59 1.392 . S
C58 H74 0.931 . S
C59 C58 1.392 . S
C59 C60 1.331 . S
C59 H77 0.932 . S
C60 C59 1.331 . S
C60 C61 1.336 . S
C61 C57 1.394 . S
C61 C60 1.336 . S
C61 H76 0.929 . S
C62 C52 1.386 . S
C62 C55 1.357 . S
C62 H75 0.928 . S
H63 C39 0.931 . S
H64 C41 0.930 . S
H65 C43 0.929 . S
H66 C44 0.931 . S
H67 C46 0.930 . S
H68 C50 0.931 . S
H69 C48 0.931 . S
H70 C52 0.931 . S
H71 C53 0.929 . S
H72 C54 0.930 . S
H73 C57 0.930 . S
H74 C58 0.931 . S
H75 C62 0.928 . S
H76 C61 0.929 . S
H77 C59 0.932 . S
C78 C79 1.386 . S
C78 C80 1.397 1_455 S
C78 H102 0.931 . S
C79 C78 1.386 . S
C79 C83 1.397 . S
C80 C78 1.397 1_655 S
C80 C81 1.384 1_655 S
C80 H103 0.930 . S
C81 C80 1.384 1_455 S
C81 C82 1.377 . S
C81 C84 1.481 1_455 S
C82 C81 1.377 . S
C82 C83 1.389 . S
C82 H104 0.929 . S
C83 C79 1.397 . S
C83 C82 1.389 . S
C83 H105 0.931 . S
C84 C81 1.481 1_655 S
C84 C85 1.387 . S
C84 C89 1.390 . S
C85 C84 1.387 . S
C85 C86 1.401 . S
C85 H106 0.930 . S
C86 C85 1.401 . S
C86 C87 1.376 . S
C86 C95 1.511 . S
C87 C86 1.376 . S
C87 C88 1.392 . S
C87 H108 0.931 . S
C88 C87 1.392 . S
C88 C89 1.361 . S
C88 C90 1.500 . S
C89 C84 1.390 . S
C89 C88 1.361 . S
C89 H107 0.931 1_655 S
C90 C88 1.500 . S
C90 C91 1.371 . S
C90 C92 1.365 1_655 S
C91 C90 1.371 . S
C91 C101 1.386 1_554 S
C91 H109 0.931 . S
C92 C90 1.365 1_455 S
C92 C93 1.409 . S
C92 H110 0.929 . S
C93 C92 1.409 . S
C93 C94 1.380 1_454 S
C93 H111 0.930 . S
C94 C93 1.380 1_656 S
C94 C101 1.357 . S
C95 C86 1.511 . S
C95 C96 1.341 . S
C95 C97 1.371 . S
C96 C95 1.341 . S
C96 C100 1.394 . S
C96 H112 0.930 . S
C97 C95 1.371 . S
C97 C98 1.392 . S
C97 H113 0.931 . S
C98 C97 1.392 . S
C98 C99 1.331 . S
C98 H116 0.932 . S
C99 C98 1.331 . S
C99 C100 1.336 . S
C100 C96 1.394 . S
C100 C99 1.336 . S
C100 H115 0.929 . S
C101 C91 1.386 1_556 S
C101 C94 1.357 . S
C101 H114 0.928 . S
H102 C78 0.931 . S
H103 C80 0.930 . S
H104 C82 0.929 . S
H105 C83 0.931 . S
H106 C85 0.930 . S
H107 C89 0.931 1_455 S
H108 C87 0.931 . S
H109 C91 0.931 . S
H110 C92 0.929 . S
H111 C93 0.930 . S
H112 C96 0.930 . S
H113 C97 0.931 . S
H114 C101 0.928 . S
H115 C100 0.929 . S
H116 C98 0.932 . S
C117 C118 1.386 . S
C117 C119 1.397 . S
C117 H141 0.931 . S
C118 C117 1.386 . S
C118 C122 1.397 . S
C119 C117 1.397 . S
C119 C120 1.384 . S
C119 H142 0.930 . S
C120 C119 1.384 . S
C120 C121 1.377 . S
C120 C123 1.481 . S
C121 C120 1.377 . S
C121 C122 1.389 . S
C121 H143 0.929 . S
C122 C118 1.397 . S
C122 C121 1.389 . S
C122 H144 0.931 . S
C123 C120 1.481 . S
C123 C124 1.387 . S
C123 C128 1.390 . S
C124 C123 1.387 . S
C124 C125 1.401 . S
C124 H145 0.930 . S
C125 C124 1.401 . S
C125 C126 1.376 . S
C125 C134 1.511 . S
C126 C125 1.376 . S
C126 C127 1.392 . S
C126 H147 0.931 . S
C127 C126 1.392 . S
C127 C128 1.361 . S
C127 C129 1.500 . S
C128 C123 1.390 . S
C128 C127 1.361 . S
C128 H146 0.931 . S
C129 C127 1.500 . S
C129 C130 1.371 . S
C129 C131 1.365 . S
C130 C129 1.371 . S
C130 C140 1.386 . S
C130 H148 0.931 . S
C131 C129 1.365 . S
C131 C132 1.409 . S
C131 H149 0.929 . S
C132 C131 1.409 . S
C132 C133 1.380 . S
C132 H150 0.930 . S
C133 C132 1.380 . S
C133 C140 1.357 . S
C134 C125 1.511 . S
C134 C135 1.341 . S
C134 C136 1.371 . S
C135 C134 1.341 . S
C135 C139 1.394 . S
C135 H151 0.930 . S
C136 C134 1.371 . S
C136 C137 1.392 . S
C136 H152 0.931 . S
C137 C136 1.392 . S
C137 C138 1.331 . S
C137 H155 0.932 . S
C138 C137 1.331 . S
C138 C139 1.336 . S
C139 C135 1.394 . S
C139 C138 1.336 . S
C139 H154 0.929 . S
C140 C130 1.386 . S
C140 C133 1.357 . S
C140 H153 0.928 . S
H141 C117 0.931 . S
H142 C119 0.930 . S
H143 C121 0.929 . S
H144 C122 0.931 . S
H145 C124 0.930 . S
H146 C128 0.931 . S
H147 C126 0.931 . S
H148 C130 0.931 . S
H149 C131 0.929 . S
H150 C132 0.930 . S
H151 C135 0.930 . S
H152 C136 0.931 . S
H153 C140 0.928 . S
H154 C139 0.929 . S
H155 C137 0.932 . S
C156 C157 1.383 1_655 S
C156 C158 1.397 1_655 S
C156 H180 0.931 . S
C157 C156 1.383 1_455 S
C157 C161 1.404 . S
C158 C156 1.397 1_455 S
C158 C159 1.384 . S
C158 H181 0.928 1_455 S
C159 C158 1.384 . S
C159 C160 1.377 . S
C159 C162 1.481 . S
C160 C159 1.377 . S
C160 C161 1.389 . S
C160 H182 0.929 . S
C161 C157 1.404 . S
C161 C160 1.389 . S
C161 H183 0.931 . S
C162 C159 1.481 . S
C162 C163 1.387 . S
C162 C167 1.390 . S
C163 C162 1.387 . S
C163 C164 1.401 . S
C163 H184 0.930 . S
C164 C163 1.401 . S
C164 C165 1.376 . S
C164 C173 1.511 . S
C165 C164 1.376 . S
C165 C166 1.392 . S
C165 H186 0.931 . S
C166 C165 1.392 . S
C166 C167 1.361 . S
C166 C168 1.500 . S
C167 C162 1.390 . S
C167 C166 1.361 . S
C167 H185 0.931 . S
C168 C166 1.500 . S
C168 C169 1.371 1_565 S
C168 C170 1.365 1_565 S
C169 C168 1.371 1_545 S
C169 C179 1.386 . S
C169 H187 0.931 1_545 S
C170 C168 1.365 1_545 S
C170 C171 1.409 . S
C170 H188 0.929 . S
C171 C170 1.409 . S
C171 C172 1.380 . S
C171 H189 0.930 . S
C172 C171 1.380 . S
C172 C179 1.357 . S
C173 C164 1.511 . S
C173 C174 1.341 . S
C173 C175 1.371 . S
C174 C173 1.341 . S
C174 C178 1.394 . S
C174 H190 0.930 . S
C175 C173 1.371 . S
C175 C176 1.392 . S
C175 H191 0.931 . S
C176 C175 1.392 . S
C176 C177 1.331 . S
C176 H194 0.932 . S
C177 C176 1.331 . S
C177 C178 1.336 . S
C178 C174 1.394 . S
C178 C177 1.336 . S
C178 H193 0.929 . S
C179 C169 1.386 . S
C179 C172 1.357 . S
C179 H192 0.928 . S
H180 C156 0.931 . S
H181 C158 0.928 1_655 S
H182 C160 0.929 . S
H183 C161 0.931 . S
H184 C163 0.930 . S
H185 C167 0.931 . S
H186 C165 0.931 . S
H187 C169 0.931 1_565 S
H188 C170 0.929 . S
H189 C171 0.930 . S
H190 C174 0.930 . S
H191 C175 0.931 . S
H192 C179 0.928 . S
H193 C178 0.929 . S
H194 C176 0.932 . S
C195 C196 1.386 . S
C195 C197 1.397 . S
C195 H219 0.931 . S
C196 C195 1.386 . S
C196 C200 1.397 . S
C197 C195 1.397 . S
C197 C198 1.384 . S
C197 H220 0.930 . S
C198 C197 1.384 . S
C198 C199 1.377 . S
C198 C201 1.481 . S
C199 C198 1.377 . S
C199 C200 1.389 . S
C199 H221 0.929 . S
C200 C196 1.397 . S
C200 C199 1.389 . S
C200 H222 0.931 . S
C201 C198 1.481 . S
C201 C202 1.387 . S
C201 C206 1.390 . S
C202 C201 1.387 . S
C202 C203 1.401 . S
C202 H223 0.930 . S
C203 C202 1.401 . S
C203 C204 1.376 . S
C203 C212 1.511 . S
C204 C203 1.376 . S
C204 C205 1.392 . S
C204 H225 0.931 . S
C205 C204 1.392 . S
C205 C206 1.361 . S
C205 C207 1.500 . S
C206 C201 1.390 . S
C206 C205 1.361 . S
C206 H224 0.931 . S
C207 C205 1.500 . S
C207 C208 1.371 . S
C207 C209 1.365 . S
C208 C207 1.371 . S
C208 C218 1.386 . S
C208 H226 0.931 . S
C209 C207 1.365 . S
C209 C210 1.409 . S
C209 H227 0.929 . S
C210 C209 1.409 . S
C210 C211 1.380 . S
C210 H228 0.930 . S
C211 C210 1.380 . S
C211 C218 1.357 . S
C212 C203 1.511 . S
C212 C213 1.341 . S
C212 C214 1.371 . S
C213 C212 1.341 . S
C213 C217 1.394 . S
C213 H229 0.930 . S
C214 C212 1.371 . S
C214 C215 1.392 . S
C214 H230 0.931 . S
C215 C214 1.392 . S
C215 C216 1.331 . S
C215 H233 0.932 . S
C216 C215 1.331 . S
C216 C217 1.336 . S
C217 C213 1.394 . S
C217 C216 1.336 . S
C217 H232 0.929 . S
C218 C208 1.386 . S
C218 C211 1.357 . S
C218 H231 0.928 . S
H219 C195 0.931 . S
H220 C197 0.930 . S
H221 C199 0.929 . S
H222 C200 0.931 . S
H223 C202 0.930 . S
H224 C206 0.931 . S
H225 C204 0.931 . S
H226 C208 0.931 . S
H227 C209 0.929 . S
H228 C210 0.930 . S
H229 C213 0.930 . S
H230 C214 0.931 . S
H231 C218 0.928 . S
H232 C217 0.929 . S
H233 C215 0.932 . S
C234 C235 1.386 . S
C234 C236 1.397 . S
C234 H258 0.931 . S
C235 C234 1.386 . S
C235 C239 1.397 . S
C236 C234 1.397 . S
C236 C237 1.384 . S
C236 H259 0.930 . S
C237 C236 1.384 . S
C237 C238 1.377 . S
C237 C240 1.481 . S
C238 C237 1.377 . S
C238 C239 1.389 . S
C238 H260 0.929 . S
C239 C235 1.397 . S
C239 C238 1.389 . S
C239 H261 0.931 . S
C240 C237 1.481 . S
C240 C241 1.387 . S
C240 C245 1.390 . S
C241 C240 1.387 . S
C241 C242 1.401 . S
C241 H262 0.930 . S
C242 C241 1.401 . S
C242 C243 1.376 . S
C242 C251 1.511 . S
C243 C242 1.376 . S
C243 C244 1.392 . S
C243 H264 0.931 . S
C244 C243 1.392 . S
C244 C245 1.361 . S
C244 C246 1.500 . S
C245 C240 1.390 . S
C245 C244 1.361 . S
C245 H263 0.931 . S
C246 C244 1.500 . S
C246 C247 1.371 . S
C246 C248 1.365 . S
C247 C246 1.371 . S
C247 C257 1.386 . S
C247 H265 0.931 . S
C248 C246 1.365 . S
C248 C249 1.409 . S
C248 H266 0.929 . S
C249 C248 1.409 . S
C249 C250 1.380 . S
C249 H267 0.930 . S
C250 C249 1.380 . S
C250 C257 1.357 . S
C251 C242 1.511 . S
C251 C252 1.341 1_655 S
C251 C253 1.371 . S
C252 C251 1.341 1_455 S
C252 C256 1.394 . S
C252 H268 0.930 . S
C253 C251 1.371 . S
C253 C254 1.392 1_655 S
C253 H269 0.931 . S
C254 C253 1.392 1_455 S
C254 C255 1.331 . S
C254 H272 0.932 . S
C255 C254 1.331 . S
C255 C256 1.336 . S
C256 C252 1.394 . S
C256 C255 1.336 . S
C256 H271 0.929 . S
C257 C247 1.386 . S
C257 C250 1.357 . S
C257 H270 0.928 . S
H258 C234 0.931 . S
H259 C236 0.930 . S
H260 C238 0.929 . S
H261 C239 0.931 . S
H262 C241 0.930 . S
H263 C245 0.931 . S
H264 C243 0.931 . S
H265 C247 0.931 . S
H266 C248 0.929 . S
H267 C249 0.930 . S
H268 C252 0.930 . S
H269 C253 0.931 . S
H270 C257 0.928 . S
H271 C256 0.929 . S
H272 C254 0.932 . S
C273 C274 1.386 . S
C273 C275 1.397 . S
C273 H297 0.931 . S
C274 C273 1.386 . S
C274 C278 1.397 . S
C275 C273 1.397 . S
C275 C276 1.384 . S
C275 H298 0.930 . S
C276 C275 1.384 . S
C276 C277 1.377 . S
C276 C279 1.481 . S
C277 C276 1.377 . S
C277 C278 1.389 . S
C277 H299 0.929 . S
C278 C274 1.397 . S
C278 C277 1.389 . S
C278 H300 0.931 . S
C279 C276 1.481 . S
C279 C280 1.387 . S
C279 C284 1.390 . S
C280 C279 1.387 . S
C280 C281 1.401 . S
C280 H301 0.930 . S
C281 C280 1.401 . S
C281 C282 1.376 . S
C281 C290 1.511 . S
C282 C281 1.376 . S
C282 C283 1.392 . S
C282 H303 0.931 . S
C283 C282 1.392 . S
C283 C284 1.361 . S
C283 C285 1.500 . S
C284 C279 1.390 . S
C284 C283 1.361 . S
C284 H302 0.931 . S
C285 C283 1.500 . S
C285 C286 1.371 . S
C285 C287 1.365 . S
C286 C285 1.371 . S
C286 C296 1.386 . S
C286 H304 0.931 . S
C287 C285 1.365 . S
C287 C288 1.409 . S
C287 H305 0.929 . S
C288 C287 1.409 . S
C288 C289 1.380 . S
C288 H306 0.930 . S
C289 C288 1.380 . S
C289 C296 1.357 . S
C290 C281 1.511 . S
C290 C291 1.341 . S
C290 C292 1.371 . S
C291 C290 1.341 . S
C291 C295 1.394 . S
C291 H307 0.930 . S
C292 C290 1.371 . S
C292 C293 1.392 . S
C292 H308 0.931 . S
C293 C292 1.392 . S
C293 C294 1.331 . S
C293 H311 0.932 . S
C294 C293 1.331 . S
C294 C295 1.336 . S
C295 C291 1.394 . S
C295 C294 1.336 . S
C295 H310 0.929 . S
C296 C286 1.386 . S
C296 C289 1.357 . S
C296 H309 0.928 . S
H297 C273 0.931 . S
H298 C275 0.930 . S
H299 C277 0.929 . S
H300 C278 0.931 . S
H301 C280 0.930 . S
H302 C284 0.931 . S
H303 C282 0.931 . S
H304 C286 0.931 . S
H305 C287 0.929 . S
H306 C288 0.930 . S
H307 C291 0.930 . S
H308 C292 0.931 . S
H309 C296 0.928 . S
H310 C295 0.929 . S
H311 C293 0.932 . S
C312 C313 1.386 . S
C312 C314 1.397 . S
C312 H336 0.931 . S
C313 C312 1.386 . S
C313 C317 1.397 . S
C314 C312 1.397 . S
C314 C315 1.384 . S
C314 H337 0.930 . S
C315 C314 1.384 . S
C315 C316 1.377 . S
C315 C318 1.481 . S
C316 C315 1.377 . S
C316 C317 1.389 . S
C316 H338 0.929 . S
C317 C313 1.397 . S
C317 C316 1.389 . S
C317 H339 0.931 . S
C318 C315 1.481 . S
C318 C319 1.387 . S
C318 C323 1.390 . S
C319 C318 1.387 . S
C319 C320 1.401 . S
C319 H340 0.930 . S
C320 C319 1.401 . S
C320 C321 1.376 . S
C320 C329 1.511 . S
C321 C320 1.376 . S
C321 C322 1.392 . S
C321 H342 0.931 . S
C322 C321 1.392 . S
C322 C323 1.361 . S
C322 C324 1.500 . S
C323 C318 1.390 . S
C323 C322 1.361 . S
C323 H341 0.931 . S
C324 C322 1.500 . S
C324 C325 1.371 . S
C324 C326 1.365 . S
C325 C324 1.371 . S
C325 C335 1.386 . S
C325 H343 0.931 . S
C326 C324 1.365 . S
C326 C327 1.409 . S
C326 H344 0.929 . S
C327 C326 1.409 . S
C327 C328 1.380 . S
C327 H345 0.930 . S
C328 C327 1.380 . S
C328 C335 1.357 . S
C329 C320 1.511 . S
C329 C330 1.341 . S
C329 C331 1.371 . S
C330 C329 1.341 . S
C330 C334 1.394 . S
C330 H346 0.930 . S
C331 C329 1.371 . S
C331 C332 1.392 . S
C331 H347 0.931 . S
C332 C331 1.392 . S
C332 C333 1.331 . S
C332 H350 0.932 . S
C333 C332 1.331 . S
C333 C334 1.336 . S
C334 C330 1.394 . S
C334 C333 1.336 . S
C334 H349 0.929 . S
C335 C325 1.386 . S
C335 C328 1.357 . S
C335 H348 0.928 . S
H336 C312 0.931 . S
H337 C314 0.930 . S
H338 C316 0.929 . S
H339 C317 0.931 . S
H340 C319 0.930 . S
H341 C323 0.931 . S
H342 C321 0.931 . S
H343 C325 0.931 . S
H344 C326 0.929 . S
H345 C327 0.930 . S
H346 C330 0.930 . S
H347 C331 0.931 . S
H348 C335 0.928 . S
H349 C334 0.929 . S
H350 C332 0.932 . S
C351 C352 1.386 . S
C351 C353 1.397 . S
C351 H375 0.931 . S
C352 C351 1.386 . S
C352 C356 1.397 . S
C353 C351 1.397 . S
C353 C354 1.384 . S
C353 H376 0.930 . S
C354 C353 1.384 . S
C354 C355 1.377 . S
C354 C357 1.481 . S
C355 C354 1.377 . S
C355 C356 1.389 . S
C355 H377 0.929 . S
C356 C352 1.397 . S
C356 C355 1.389 . S
C356 H378 0.931 . S
C357 C354 1.481 . S
C357 C358 1.387 . S
C357 C362 1.390 . S
C358 C357 1.387 . S
C358 C359 1.401 . S
C358 H379 0.930 . S
C359 C358 1.401 . S
C359 C360 1.376 . S
C359 C368 1.511 . S
C360 C359 1.376 . S
C360 C361 1.392 . S
C360 H381 0.931 . S
C361 C360 1.392 . S
C361 C362 1.361 . S
C361 C363 1.500 . S
C362 C357 1.390 . S
C362 C361 1.361 . S
C362 H380 0.931 . S
C363 C361 1.500 . S
C363 C364 1.371 . S
C363 C365 1.365 . S
C364 C363 1.371 . S
C364 C374 1.386 . S
C364 H382 0.931 . S
C365 C363 1.365 . S
C365 C366 1.409 . S
C365 H383 0.929 . S
C366 C365 1.409 . S
C366 C367 1.380 . S
C366 H384 0.930 . S
C367 C366 1.380 . S
C367 C374 1.357 . S
C368 C359 1.511 . S
C368 C369 1.341 1_565 S
C368 C370 1.371 . S
C369 C368 1.341 1_545 S
C369 C373 1.394 . S
C369 H385 0.930 . S
C370 C368 1.371 . S
C370 C371 1.392 1_565 S
C370 H386 0.931 . S
C371 C370 1.392 1_545 S
C371 C372 1.331 . S
C371 H389 0.932 . S
C372 C371 1.331 . S
C372 C373 1.336 . S
C373 C369 1.394 . S
C373 C372 1.336 . S
C373 H388 0.929 . S
C374 C364 1.386 . S
C374 C367 1.357 . S
C374 H387 0.928 . S
H375 C351 0.931 . S
H376 C353 0.930 . S
H377 C355 0.929 . S
H378 C356 0.931 . S
H379 C358 0.930 . S
H380 C362 0.931 . S
H381 C360 0.931 . S
H382 C364 0.931 . S
H383 C365 0.929 . S
H384 C366 0.930 . S
H385 C369 0.930 . S
H386 C370 0.931 . S
H387 C374 0.928 . S
H388 C373 0.929 . S
H389 C371 0.932 . S
C390 C391 1.386 . S
C390 C392 1.397 . S
C390 H414 0.931 . S
C391 C390 1.386 . S
C391 C395 1.397 . S
C392 C390 1.397 . S
C392 C393 1.384 . S
C392 H415 0.930 . S
C393 C392 1.384 . S
C393 C394 1.377 . S
C393 C396 1.481 . S
C394 C393 1.377 . S
C394 C395 1.389 . S
C394 H416 0.929 . S
C395 C391 1.397 . S
C395 C394 1.389 . S
C395 H417 0.931 . S
C396 C393 1.481 . S
C396 C397 1.387 . S
C396 C401 1.390 . S
C397 C396 1.387 . S
C397 C398 1.401 . S
C397 H418 0.930 . S
C398 C397 1.401 . S
C398 C399 1.376 . S
C398 C407 1.511 . S
C399 C398 1.376 . S
C399 C400 1.392 . S
C399 H420 0.931 . S
C400 C399 1.392 . S
C400 C401 1.361 . S
C400 C402 1.500 . S
C401 C396 1.390 . S
C401 C400 1.361 . S
C401 H419 0.931 . S
C402 C400 1.500 . S
C402 C403 1.371 . S
C402 C404 1.365 . S
C403 C402 1.371 . S
C403 C413 1.386 . S
C403 H421 0.931 . S
C404 C402 1.365 . S
C404 C405 1.409 . S
C404 H422 0.929 . S
C405 C404 1.409 . S
C405 C406 1.380 . S
C405 H423 0.930 . S
C406 C405 1.380 . S
C406 C413 1.357 . S
C407 C398 1.511 . S
C407 C408 1.341 . S
C407 C409 1.371 . S
C408 C407 1.341 . S
C408 C412 1.394 . S
C408 H424 0.930 . S
C409 C407 1.371 . S
C409 C410 1.392 . S
C409 H425 0.931 . S
C410 C409 1.392 . S
C410 C411 1.331 . S
C410 H428 0.932 . S
C411 C410 1.331 . S
C411 C412 1.336 . S
C412 C408 1.394 . S
C412 C411 1.336 . S
C412 H427 0.929 . S
C413 C403 1.386 . S
C413 C406 1.357 . S
C413 H426 0.928 . S
H414 C390 0.931 . S
H415 C392 0.930 . S
H416 C394 0.929 . S
H417 C395 0.931 . S
H418 C397 0.930 . S
H419 C401 0.931 . S
H420 C399 0.931 . S
H421 C403 0.931 . S
H422 C404 0.929 . S
H423 C405 0.930 . S
H424 C408 0.930 . S
H425 C409 0.931 . S
H426 C413 0.928 . S
H427 C412 0.929 . S
H428 C410 0.932 . S
C429 C430 1.386 . S
C429 C431 1.397 . S
C429 H453 0.931 . S
C430 C429 1.386 . S
C430 C434 1.397 . S
C431 C429 1.397 . S
C431 C432 1.384 . S
C431 H454 0.930 . S
C432 C431 1.384 . S
C432 C433 1.377 . S
C432 C435 1.481 . S
C433 C432 1.377 . S
C433 C434 1.389 . S
C433 H455 0.929 . S
C434 C430 1.397 . S
C434 C433 1.389 . S
C434 H456 0.931 . S
C435 C432 1.481 . S
C435 C436 1.387 . S
C435 C440 1.390 . S
C436 C435 1.387 . S
C436 C437 1.401 . S
C436 H457 0.930 . S
C437 C436 1.401 . S
C437 C438 1.376 . S
C437 C446 1.511 . S
C438 C437 1.376 . S
C438 C439 1.392 . S
C438 H459 0.931 . S
C439 C438 1.392 . S
C439 C440 1.361 . S
C439 C441 1.500 . S
C440 C435 1.390 . S
C440 C439 1.361 . S
C440 H458 0.931 . S
C441 C439 1.500 . S
C441 C442 1.371 . S
C441 C443 1.365 . S
C442 C441 1.371 . S
C442 C452 1.386 . S
C442 H460 0.931 . S
C443 C441 1.365 . S
C443 C444 1.409 . S
C443 H461 0.929 . S
C444 C443 1.409 . S
C444 C445 1.380 . S
C444 H462 0.930 . S
C445 C444 1.380 . S
C445 C452 1.357 . S
C446 C437 1.511 . S
C446 C447 1.341 . S
C446 C448 1.371 . S
C447 C446 1.341 . S
C447 C451 1.394 . S
C447 H463 0.930 . S
C448 C446 1.371 . S
C448 C449 1.392 . S
C448 H464 0.931 . S
C449 C448 1.392 . S
C449 C450 1.331 . S
C449 H467 0.932 . S
C450 C449 1.331 . S
C450 C451 1.336 . S
C451 C447 1.394 . S
C451 C450 1.336 . S
C451 H466 0.929 . S
C452 C442 1.386 . S
C452 C445 1.357 . S
C452 H465 0.928 . S
H453 C429 0.931 . S
H454 C431 0.930 . S
H455 C433 0.929 . S
H456 C434 0.931 . S
H457 C436 0.930 . S
H458 C440 0.931 . S
H459 C438 0.931 . S
H460 C442 0.931 . S
H461 C443 0.929 . S
H462 C444 0.930 . S
H463 C447 0.930 . S
H464 C448 0.931 . S
H465 C452 0.928 . S
H466 C451 0.929 . S
H467 C449 0.932 . S
C468 C469 1.386 . S
C468 C470 1.397 . S
C468 H492 0.931 . S
C469 C468 1.386 . S
C469 C473 1.397 . S
C470 C468 1.397 . S
C470 C471 1.384 . S
C470 H493 0.930 . S
C471 C470 1.384 . S
C471 C472 1.377 . S
C471 C474 1.481 . S
C472 C471 1.377 . S
C472 C473 1.389 . S
C472 H494 0.929 . S
C473 C469 1.397 . S
C473 C472 1.389 . S
C473 H495 0.931 . S
C474 C471 1.481 . S
C474 C475 1.387 . S
C474 C479 1.390 . S
C475 C474 1.387 . S
C475 C476 1.401 . S
C475 H496 0.930 . S
C476 C475 1.401 . S
C476 C477 1.376 . S
C476 C485 1.511 . S
C477 C476 1.376 . S
C477 C478 1.392 . S
C477 H498 0.931 . S
C478 C477 1.392 . S
C478 C479 1.361 . S
C478 C480 1.500 . S
C479 C474 1.390 . S
C479 C478 1.361 . S
C479 H497 0.931 . S
C480 C478 1.500 . S
C480 C481 1.371 . S
C480 C482 1.365 . S
C481 C480 1.371 . S
C481 C491 1.386 . S
C481 H499 0.931 . S
C482 C480 1.365 . S
C482 C483 1.409 . S
C482 H500 0.929 . S
C483 C482 1.409 . S
C483 C484 1.380 . S
C483 H501 0.930 . S
C484 C483 1.380 . S
C484 C491 1.357 . S
C485 C476 1.511 . S
C485 C486 1.341 . S
C485 C487 1.371 . S
C486 C485 1.341 . S
C486 C490 1.394 . S
C486 H502 0.930 . S
C487 C485 1.371 . S
C487 C488 1.392 . S
C487 H503 0.931 . S
C488 C487 1.392 . S
C488 C489 1.331 . S
C488 H506 0.932 . S
C489 C488 1.331 . S
C489 C490 1.336 . S
C490 C486 1.394 . S
C490 C489 1.336 . S
C490 H505 0.929 . S
C491 C481 1.386 . S
C491 C484 1.357 . S
C491 H504 0.928 . S
H492 C468 0.931 . S
H493 C470 0.930 . S
H494 C472 0.929 . S
H495 C473 0.931 . S
H496 C475 0.930 . S
H497 C479 0.931 . S
H498 C477 0.931 . S
H499 C481 0.931 . S
H500 C482 0.929 . S
H501 C483 0.930 . S
H502 C486 0.930 . S
H503 C487 0.931 . S
H504 C491 0.928 . S
H505 C490 0.929 . S
H506 C488 0.932 . S
C507 C508 1.386 . S
C507 C509 1.397 . S
C507 H531 0.931 . S
C508 C507 1.386 . S
C508 C512 1.397 . S
C509 C507 1.397 . S
C509 C510 1.384 . S
C509 H532 0.930 . S
C510 C509 1.384 . S
C510 C511 1.377 . S
C510 C513 1.481 . S
C511 C510 1.377 . S
C511 C512 1.389 . S
C511 H533 0.929 . S
C512 C508 1.397 . S
C512 C511 1.389 . S
C512 H534 0.931 . S
C513 C510 1.481 . S
C513 C514 1.387 . S
C513 C518 1.390 . S
C514 C513 1.387 . S
C514 C515 1.401 . S
C514 H535 0.930 . S
C515 C514 1.401 . S
C515 C516 1.376 . S
C515 C524 1.511 . S
C516 C515 1.376 . S
C516 C517 1.392 . S
C516 H537 0.931 . S
C517 C516 1.392 . S
C517 C518 1.361 . S
C517 C519 1.500 . S
C518 C513 1.390 . S
C518 C517 1.361 . S
C518 H536 0.931 . S
C519 C517 1.500 . S
C519 C520 1.371 . S
C519 C521 1.365 . S
C520 C519 1.371 . S
C520 C530 1.386 . S
C520 H538 0.931 1_556 S
C521 C519 1.365 . S
C521 C522 1.409 . S
C521 H539 0.929 . S
C522 C521 1.409 . S
C522 C523 1.380 . S
C522 H540 0.930 . S
C523 C522 1.380 . S
C523 C530 1.357 . S
C524 C515 1.511 . S
C524 C525 1.341 . S
C524 C526 1.371 1_556 S
C525 C524 1.341 . S
C525 C529 1.394 1_556 S
C525 H541 0.930 . S
C526 C524 1.371 1_554 S
C526 C527 1.392 . S
C526 H542 0.931 . S
C527 C526 1.392 . S
C527 C528 1.331 . S
C527 H545 0.932 . S
C528 C527 1.331 . S
C528 C529 1.336 . S
C529 C525 1.394 1_554 S
C529 C528 1.336 . S
C529 H544 0.929 . S
C530 C520 1.386 . S
C530 C523 1.357 . S
C530 H543 0.928 1_556 S
H531 C507 0.931 . S
H532 C509 0.930 . S
H533 C511 0.929 . S
H534 C512 0.931 . S
H535 C514 0.930 . S
H536 C518 0.931 . S
H537 C516 0.931 . S
H538 C520 0.931 1_554 S
H539 C521 0.929 . S
H540 C522 0.930 . S
H541 C525 0.930 . S
H542 C526 0.931 . S
H543 C530 0.928 1_554 S
H544 C529 0.929 . S
H545 C527 0.932 . S
C546 C547 1.386 . S
C546 C548 1.397 . S
C546 H570 0.931 . S
C547 C546 1.386 . S
C547 C551 1.397 . S
C548 C546 1.397 . S
C548 C549 1.384 . S
C548 H571 0.930 . S
C549 C548 1.384 . S
C549 C550 1.377 . S
C549 C552 1.481 . S
C550 C549 1.377 . S
C550 C551 1.389 . S
C550 H572 0.929 . S
C551 C547 1.397 . S
C551 C550 1.389 . S
C551 H573 0.931 . S
C552 C549 1.481 . S
C552 C553 1.387 . S
C552 C557 1.390 . S
C553 C552 1.387 . S
C553 C554 1.401 . S
C553 H574 0.930 . S
C554 C553 1.401 . S
C554 C555 1.376 . S
C554 C563 1.511 . S
C555 C554 1.376 . S
C555 C556 1.392 . S
C555 H576 0.931 . S
C556 C555 1.392 . S
C556 C557 1.361 . S
C556 C558 1.500 . S
C557 C552 1.390 . S
C557 C556 1.361 . S
C557 H575 0.931 . S
C558 C556 1.500 . S
C558 C559 1.371 . S
C558 C560 1.365 . S
C559 C558 1.371 . S
C559 C569 1.386 . S
C559 H577 0.931 . S
C560 C558 1.365 . S
C560 C561 1.409 . S
C560 H578 0.929 . S
C561 C560 1.409 . S
C561 C562 1.380 . S
C561 H579 0.930 . S
C562 C561 1.380 . S
C562 C569 1.357 . S
C563 C554 1.511 . S
C563 C564 1.341 . S
C563 C565 1.371 . S
C564 C563 1.341 . S
C564 C568 1.394 . S
C564 H580 0.930 . S
C565 C563 1.371 . S
C565 C566 1.392 . S
C565 H581 0.931 . S
C566 C565 1.392 . S
C566 C567 1.331 . S
C566 H584 0.932 . S
C567 C566 1.331 . S
C567 C568 1.336 . S
C568 C564 1.394 . S
C568 C567 1.336 . S
C568 H583 0.929 . S
C569 C559 1.386 . S
C569 C562 1.357 . S
C569 H582 0.928 . S
H570 C546 0.931 . S
H571 C548 0.930 . S
H572 C550 0.929 . S
H573 C551 0.931 . S
H574 C553 0.930 . S
H575 C557 0.931 . S
H576 C555 0.931 . S
H577 C559 0.931 . S
H578 C560 0.929 . S
H579 C561 0.930 . S
H580 C564 0.930 . S
H581 C565 0.931 . S
H582 C569 0.928 . S
H583 C568 0.929 . S
H584 C566 0.932 . S
C585 C586 1.386 . S
C585 C587 1.397 1_554 S
C585 H609 0.931 1_554 S
C586 C585 1.386 . S
C586 C590 1.397 . S
C587 C585 1.397 1_556 S
C587 C588 1.384 . S
C587 H610 0.930 . S
C588 C587 1.384 . S
C588 C589 1.377 1_556 S
C588 C591 1.481 . S
C589 C588 1.377 1_554 S
C589 C590 1.389 . S
C589 H611 0.929 . S
C590 C586 1.397 . S
C590 C589 1.389 . S
C590 H612 0.931 . S
C591 C588 1.481 . S
C591 C592 1.387 . S
C591 C596 1.390 . S
C592 C591 1.387 . S
C592 C593 1.401 . S
C592 H613 0.930 . S
C593 C592 1.401 . S
C593 C594 1.376 . S
C593 C602 1.511 . S
C594 C593 1.376 . S
C594 C595 1.392 . S
C594 H615 0.931 . S
C595 C594 1.392 . S
C595 C596 1.361 . S
C595 C597 1.500 . S
C596 C591 1.390 . S
C596 C595 1.361 . S
C596 H614 0.931 . S
C597 C595 1.500 . S
C597 C598 1.371 1_545 S
C597 C599 1.365 . S
C598 C597 1.371 1_565 S
C598 C608 1.386 . S
C598 H616 0.931 . S
C599 C597 1.365 . S
C599 C600 1.417 1_545 S
C599 H617 0.929 1_556 S
C600 C599 1.417 1_565 S
C600 C601 1.409 . S
C600 H618 0.895 1_556 S
C601 C600 1.409 . S
C601 C608 1.357 . S
C602 C593 1.511 . S
C602 C603 1.341 . S
C602 C604 1.371 . S
C603 C602 1.341 . S
C603 C607 1.394 . S
C603 H619 0.930 . S
C604 C602 1.371 . S
C604 C605 1.392 . S
C604 H620 0.931 1_545 S
C605 C604 1.392 . S
C605 C606 1.331 . S
C605 H623 0.932 1_545 S
C606 C605 1.331 . S
C606 C607 1.336 . S
C607 C603 1.394 . S
C607 C606 1.336 . S
C607 H622 0.929 . S
C608 C598 1.386 . S
C608 C601 1.357 . S
C608 H621 0.928 . S
H609 C585 0.931 1_556 S
H610 C587 0.930 . S
H611 C589 0.929 . S
H612 C590 0.931 . S
H613 C592 0.930 . S
H614 C596 0.931 . S
H615 C594 0.931 . S
H616 C598 0.931 . S
H617 C599 0.929 1_554 S
H618 C600 0.895 1_554 S
H619 C603 0.930 . S
H620 C604 0.931 1_565 S
H621 C608 0.928 . S
H622 C607 0.929 . S
H623 C605 0.932 1_565 S
Mg624 O625 2.034 . S
Mg624 O631 1.986 1_554 S
Mg624 O633 2.114 . S
Mg624 O634 2.251 . S
Mg624 O637 2.010 . S
O625 Mg624 2.034 . S
O625 C628 1.245 1_554 S
O626 Mg627 2.028 . S
O626 C628 1.248 . S
Mg627 O626 2.028 . S
Mg627 O632 2.032 . S
Mg627 O634 2.079 1_556 S
C628 O625 1.245 1_556 S
C628 O626 1.248 . S
C629 O630 1.264 . S
C629 O637 1.249 . S
O630 C629 1.264 . S
O631 Mg624 1.986 1_556 S
O631 C635 1.246 . S
O632 Mg627 2.032 . S
O632 C635 1.259 . S
O633 Mg624 2.114 . S
O633 C636 1.252 . S
O634 Mg624 2.251 . S
O634 Mg627 2.079 1_554 S
O634 C636 1.273 . S
C635 O631 1.246 . S
C635 O632 1.259 . S
C636 O633 1.252 . S
C636 O634 1.273 . S
O637 Mg624 2.010 . S
O637 C629 1.249 . S
Mg638 O639 2.028 . S
Mg638 O645 1.986 . S
Mg638 O647 2.114 . S
Mg638 O648 2.251 . S
Mg638 O651 2.010 . S
O639 Mg638 2.028 . S
O639 C642 1.250 . S
O640 Mg641 2.028 . S
O640 C642 1.248 . S
Mg641 O640 2.028 . S
Mg641 O646 2.032 . S
Mg641 O648 2.079 . S
C642 O639 1.250 . S
C642 O640 1.248 . S
C643 O644 1.264 . S
C643 O651 1.249 . S
O644 C643 1.264 . S
O645 Mg638 1.986 . S
O645 C649 1.246 . S
O646 Mg641 2.032 . S
O646 C649 1.259 . S
O647 Mg638 2.114 . S
O647 C650 1.252 . S
O648 Mg638 2.251 . S
O648 Mg641 2.079 . S
O648 C650 1.273 . S
C649 O645 1.246 . S
C649 O646 1.259 . S
C650 O647 1.252 . S
C650 O648 1.273 . S
O651 Mg638 2.010 . S
O651 C643 1.249 . S
Mg652 O653 2.028 . S
Mg652 O659 1.986 1_554 S
Mg652 O661 2.114 . S
Mg652 O662 2.251 . S
Mg652 O665 2.010 . S
O653 Mg652 2.028 . S
O653 C656 1.257 . S
O654 Mg655 2.028 . S
O654 C656 1.245 1_556 S
Mg655 O654 2.028 . S
Mg655 O660 2.032 . S
Mg655 O662 2.079 1_556 S
C656 O653 1.257 . S
C656 O654 1.245 1_554 S
C657 O658 1.264 . S
C657 O665 1.249 . S
O658 C657 1.264 . S
O659 Mg652 1.986 1_556 S
O659 C663 1.246 . S
O660 Mg655 2.032 . S
O660 C663 1.259 . S
O661 Mg652 2.114 . S
O661 C664 1.252 . S
O662 Mg652 2.251 . S
O662 Mg655 2.079 1_554 S
O662 C664 1.273 . S
C663 O659 1.246 . S
C663 O660 1.259 . S
C664 O661 1.252 . S
C664 O662 1.273 . S
O665 Mg652 2.010 . S
O665 C657 1.249 . S
Mg666 O667 2.028 . S
Mg666 O673 1.986 . S
Mg666 O675 2.114 . S
Mg666 O676 2.251 . S
Mg666 O679 2.010 . S
O667 Mg666 2.028 . S
O667 C670 1.250 1_545 S
O668 Mg669 2.028 . S
O668 C670 1.248 . S
Mg669 O668 2.028 . S
Mg669 O674 2.032 . S
Mg669 O676 2.079 1_565 S
C670 O667 1.250 1_565 S
C670 O668 1.248 . S
C671 O672 1.264 . S
C671 O679 1.249 . S
O672 C671 1.264 . S
O673 Mg666 1.986 . S
O673 C677 1.246 . S
O674 Mg669 2.032 . S
O674 C677 1.259 1_565 S
O675 Mg666 2.114 . S
O675 C678 1.252 . S
O676 Mg666 2.251 . S
O676 Mg669 2.079 1_545 S
O676 C678 1.273 . S
C677 O673 1.246 . S
C677 O674 1.259 1_545 S
C678 O675 1.252 . S
C678 O676 1.273 . S
O679 Mg666 2.010 . S
O679 C671 1.249 . S
Mg680 O681 2.028 . S
Mg680 O687 1.986 . S
Mg680 O689 2.114 . S
Mg680 O690 2.251 . S
Mg680 O693 2.010 . S
O681 Mg680 2.028 . S
O681 C684 1.250 . S
O682 Mg683 2.028 . S
O682 C684 1.248 . S
Mg683 O682 2.028 . S
Mg683 O688 2.032 . S
Mg683 O690 2.079 . S
C684 O681 1.250 . S
C684 O682 1.248 . S
C685 O686 1.264 . S
C685 O693 1.249 . S
O686 C685 1.264 . S
O687 Mg680 1.986 . S
O687 C691 1.246 . S
O688 Mg683 2.032 . S
O688 C691 1.259 . S
O689 Mg680 2.114 . S
O689 C692 1.252 . S
O690 Mg680 2.251 . S
O690 Mg683 2.079 . S
O690 C692 1.273 . S
C691 O687 1.246 . S
C691 O688 1.259 . S
C692 O689 1.252 . S
C692 O690 1.273 . S
O693 Mg680 2.010 . S
O693 C685 1.249 . S
Mg694 O695 2.028 . S
Mg694 O701 1.986 . S
Mg694 O703 2.114 . S
Mg694 O704 2.251 . S
Mg694 O707 2.010 . S
O695 Mg694 2.028 . S
O695 C698 1.250 . S
O696 Mg697 2.028 . S
O696 C698 1.248 . S
Mg697 O696 2.028 . S
Mg697 O702 2.032 . S
Mg697 O704 2.079 . S
C698 O695 1.250 . S
C698 O696 1.248 . S
C699 O700 1.264 . S
C699 O707 1.249 . S
O700 C699 1.264 . S
O701 Mg694 1.986 . S
O701 C705 1.246 . S
O702 Mg697 2.032 . S
O702 C705 1.259 . S
O703 Mg694 2.114 . S
O703 C706 1.252 . S
O704 Mg694 2.251 . S
O704 Mg697 2.079 . S
O704 C706 1.273 . S
C705 O701 1.246 . S
C705 O702 1.259 . S
C706 O703 1.252 . S
C706 O704 1.273 . S
O707 Mg694 2.010 . S
O707 C699 1.249 . S
Mg708 O709 2.028 . S
Mg708 O715 1.986 . S
Mg708 O717 2.114 . S
Mg708 O718 2.251 . S
Mg708 O721 2.010 . S
O709 Mg708 2.028 . S
O709 C712 1.250 . S
O710 Mg711 2.028 . S
O710 C712 1.248 . S
Mg711 O710 2.028 . S
Mg711 O716 2.032 . S
Mg711 O718 2.079 . S
C712 O709 1.250 . S
C712 O710 1.248 . S
C713 O714 1.264 . S
C713 O721 1.249 . S
O714 C713 1.264 . S
O715 Mg708 1.986 . S
O715 C719 1.246 . S
O716 Mg711 2.032 . S
O716 C719 1.259 . S
O717 Mg708 2.114 . S
O717 C720 1.252 . S
O718 Mg708 2.251 . S
O718 Mg711 2.079 . S
O718 C720 1.273 . S
C719 O715 1.246 . S
C719 O716 1.259 . S
C720 O717 1.252 . S
C720 O718 1.273 . S
O721 Mg708 2.010 . S
O721 C713 1.249 . S
Mg722 O723 2.028 1_545 S
Mg722 O729 1.986 1_545 S
Mg722 O731 2.114 . S
Mg722 O732 2.251 . S
Mg722 O735 2.010 . S
O723 Mg722 2.028 1_565 S
O723 C726 1.250 . S
O724 Mg725 2.028 . S
O724 C726 1.248 . S
Mg725 O724 2.028 . S
Mg725 O730 2.032 . S
Mg725 O732 2.079 1_565 S
C726 O723 1.250 . S
C726 O724 1.248 . S
C727 O728 1.264 . S
C727 O735 1.249 . S
O728 C727 1.264 . S
O729 Mg722 1.986 1_565 S
O729 C733 1.246 . S
O730 Mg725 2.032 . S
O730 C733 1.259 . S
O731 Mg722 2.114 . S
O731 C734 1.252 . S
O732 Mg722 2.251 . S
O732 Mg725 2.079 1_545 S
O732 C734 1.273 . S
C733 O729 1.246 . S
C733 O730 1.259 . S
C734 O731 1.252 . S
C734 O732 1.273 . S
O735 Mg722 2.010 . S
O735 C727 1.249 . S
Mg736 O737 2.028 . S
Mg736 O743 1.986 . S
Mg736 O745 2.114 . S
Mg736 O746 2.251 . S
Mg736 O749 2.010 . S
O737 Mg736 2.028 . S
O737 C740 1.250 1_455 S
O738 Mg739 2.028 . S
O738 C740 1.248 . S
Mg739 O738 2.028 . S
Mg739 O744 2.032 . S
Mg739 O746 2.079 1_655 S
C740 O737 1.250 1_655 S
C740 O738 1.248 . S
C741 O742 1.264 . S
C741 O749 1.249 . S
O742 C741 1.264 . S
O743 Mg736 1.986 . S
O743 C747 1.246 . S
O744 Mg739 2.032 . S
O744 C747 1.259 1_655 S
O745 Mg736 2.114 . S
O745 C748 1.252 . S
O746 Mg736 2.251 . S
O746 Mg739 2.079 1_455 S
O746 C748 1.273 . S
C747 O743 1.246 . S
C747 O744 1.259 1_455 S
C748 O745 1.252 . S
C748 O746 1.273 . S
O749 Mg736 2.010 . S
O749 C741 1.249 . S
Mg750 O751 2.028 . S
Mg750 O757 1.986 . S
Mg750 O759 2.114 . S
Mg750 O760 2.251 . S
Mg750 O763 2.010 . S
O751 Mg750 2.028 . S
O751 C754 1.250 . S
O752 Mg753 2.028 . S
O752 C754 1.248 . S
Mg753 O752 2.028 . S
Mg753 O758 2.032 . S
Mg753 O760 2.079 . S
C754 O751 1.250 . S
C754 O752 1.248 . S
C755 O756 1.264 . S
C755 O763 1.249 . S
O756 C755 1.264 . S
O757 Mg750 1.986 . S
O757 C761 1.246 . S
O758 Mg753 2.032 . S
O758 C761 1.259 . S
O759 Mg750 2.114 . S
O759 C762 1.252 . S
O760 Mg750 2.251 . S
O760 Mg753 2.079 . S
O760 C762 1.273 . S
C761 O757 1.246 . S
C761 O758 1.259 . S
C762 O759 1.252 . S
C762 O760 1.273 . S
O763 Mg750 2.010 . S
O763 C755 1.249 . S
Mg764 O765 2.028 1_655 S
Mg764 O771 2.001 . S
Mg764 O773 2.114 . S
Mg764 O774 2.251 1_655 S
Mg764 O777 2.010 . S
O765 Mg764 2.028 1_455 S
O765 C768 1.250 . S
O766 Mg767 2.028 . S
O766 C768 1.248 . S
Mg767 O766 2.028 . S
Mg767 O772 2.032 . S
Mg767 O774 2.079 . S
C768 O765 1.250 . S
C768 O766 1.248 . S
C769 O770 1.264 . S
C769 O777 1.249 . S
O770 C769 1.264 . S
O771 Mg764 2.001 . S
O771 C775 1.206 1_655 S
O772 Mg767 2.032 . S
O772 C775 1.259 . S
O773 Mg764 2.114 . S
O773 C776 1.252 . S
O774 Mg764 2.251 1_455 S
O774 Mg767 2.079 . S
O774 C776 1.273 1_455 S
C775 O771 1.206 1_455 S
C775 O772 1.259 . S
C776 O773 1.252 . S
C776 O774 1.273 1_655 S
O777 Mg764 2.010 . S
O777 C769 1.249 . S
Mg778 O779 2.028 . S
Mg778 O785 1.986 . S
Mg778 O787 2.114 . S
Mg778 O788 2.251 . S
Mg778 O791 2.010 . S
O779 Mg778 2.028 . S
O779 C782 1.250 . S
O780 Mg781 2.028 . S
O780 C782 1.248 . S
Mg781 O780 2.028 . S
Mg781 O786 2.032 . S
Mg781 O788 2.079 . S
C782 O779 1.250 . S
C782 O780 1.248 . S
C783 O784 1.264 . S
C783 O791 1.249 . S
O784 C783 1.264 . S
O785 Mg778 1.986 . S
O785 C789 1.246 . S
O786 Mg781 2.032 . S
O786 C789 1.259 . S
O787 Mg778 2.114 . S
O787 C790 1.252 . S
O788 Mg778 2.251 . S
O788 Mg781 2.079 . S
O788 C790 1.273 . S
C789 O785 1.246 . S
C789 O786 1.259 . S
C790 O787 1.252 . S
C790 O788 1.273 . S
O791 Mg778 2.010 . S
O791 C783 1.249 . S
C792 C793 1.391 . S
C792 C794 1.394 . S
C792 H808 0.931 . S
C793 C792 1.391 . S
C793 C797 1.376 . S
C794 C792 1.394 . S
C794 C795 1.369 . S
C794 C798 1.531 . S
C795 C794 1.369 . S
C795 C796 1.410 . S
C795 C803 1.503 . S
C796 C795 1.410 . S
C796 C797 1.392 . S
C796 C799 1.511 . S
C797 C793 1.376 . S
C797 C796 1.392 . S
C797 H809 0.929 . S
C798 C794 1.531 . S
C798 H810 0.960 . S
C798 H811 0.962 . S
C798 H812 0.960 . S
C799 C796 1.511 . S
C799 H813 0.961 . S
C799 H814 0.961 . S
C799 H815 0.961 . S
C800 C801 1.370 . S
C800 C802 1.363 . S
C800 H816 0.931 . S
C801 C800 1.370 . S
C801 C805 1.408 . S
C802 C800 1.363 . S
C802 C803 1.370 . S
C802 C806 1.524 . S
C803 C795 1.503 . S
C803 C802 1.370 . S
C803 C804 1.403 . S
C804 C803 1.403 . S
C804 C805 1.404 . S
C804 C807 1.539 . S
C805 C801 1.408 . S
C805 C804 1.404 . S
C805 H817 0.930 . S
C806 C802 1.524 . S
C806 H818 0.956 . S
C806 H819 0.961 . S
C806 H820 0.961 . S
C807 C804 1.539 . S
C807 H821 0.958 . S
C807 H822 0.961 . S
C807 H823 0.960 . S
H808 C792 0.931 . S
H809 C797 0.929 . S
H810 C798 0.960 . S
H811 C798 0.962 . S
H812 C798 0.960 . S
H813 C799 0.961 . S
H814 C799 0.961 . S
H815 C799 0.961 . S
H816 C800 0.931 . S
H817 C805 0.930 . S
H818 C806 0.956 . S
H819 C806 0.961 . S
H820 C806 0.961 . S
H821 C807 0.958 . S
H822 C807 0.961 . S
H823 C807 0.960 . S
C824 C825 1.391 . S
C824 C826 1.394 . S
C824 H840 0.931 . S
C825 C824 1.391 . S
C825 C829 1.376 . S
C826 C824 1.394 . S
C826 C827 1.369 . S
C826 C830 1.531 . S
C827 C826 1.369 . S
C827 C828 1.410 . S
C827 C835 1.503 . S
C828 C827 1.410 . S
C828 C829 1.392 . S
C828 C831 1.511 . S
C829 C825 1.376 . S
C829 C828 1.392 . S
C829 H841 0.929 . S
C830 C826 1.531 . S
C830 H842 0.960 . S
C830 H843 0.962 . S
C830 H844 0.960 . S
C831 C828 1.511 . S
C831 H845 0.961 . S
C831 H846 0.961 . S
C831 H847 0.961 . S
C832 C833 1.370 . S
C832 C834 1.363 . S
C832 H848 0.931 . S
C833 C832 1.370 . S
C833 C837 1.408 . S
C834 C832 1.363 . S
C834 C835 1.370 . S
C834 C838 1.524 . S
C835 C827 1.503 . S
C835 C834 1.370 . S
C835 C836 1.403 . S
C836 C835 1.403 . S
C836 C837 1.404 . S
C836 C839 1.539 . S
C837 C833 1.408 . S
C837 C836 1.404 . S
C837 H849 0.930 . S
C838 C834 1.524 . S
C838 H850 0.956 . S
C838 H851 0.961 . S
C838 H852 0.961 . S
C839 C836 1.539 . S
C839 H853 0.958 . S
C839 H854 0.961 . S
C839 H855 0.960 . S
H840 C824 0.931 . S
H841 C829 0.929 . S
H842 C830 0.960 . S
H843 C830 0.962 . S
H844 C830 0.960 . S
H845 C831 0.961 . S
H846 C831 0.961 . S
H847 C831 0.961 . S
H848 C832 0.931 . S
H849 C837 0.930 . S
H850 C838 0.956 . S
H851 C838 0.961 . S
H852 C838 0.961 . S
H853 C839 0.958 . S
H854 C839 0.961 . S
H855 C839 0.960 . S
C856 C857 1.391 . S
C856 C858 1.394 . S
C856 H872 0.931 . S
C857 C856 1.391 . S
C857 C861 1.376 . S
C858 C856 1.394 . S
C858 C859 1.369 . S
C858 C862 1.531 . S
C859 C858 1.369 . S
C859 C860 1.410 . S
C859 C867 1.503 . S
C860 C859 1.410 . S
C860 C861 1.392 . S
C860 C863 1.511 . S
C861 C857 1.376 . S
C861 C860 1.392 . S
C861 H873 0.929 . S
C862 C858 1.531 . S
C862 H874 0.960 . S
C862 H875 0.962 . S
C862 H876 0.960 . S
C863 C860 1.511 . S
C863 H877 0.961 . S
C863 H878 0.961 . S
C863 H879 0.961 . S
C864 C865 1.370 . S
C864 C866 1.363 . S
C864 H880 0.931 . S
C865 C864 1.370 . S
C865 C869 1.408 . S
C866 C864 1.363 . S
C866 C867 1.370 . S
C866 C870 1.524 . S
C867 C859 1.503 . S
C867 C866 1.370 . S
C867 C868 1.403 . S
C868 C867 1.403 . S
C868 C869 1.404 . S
C868 C871 1.539 . S
C869 C865 1.408 . S
C869 C868 1.404 . S
C869 H881 0.930 . S
C870 C866 1.524 . S
C870 H882 0.956 . S
C870 H883 0.961 . S
C870 H884 0.961 . S
C871 C868 1.539 . S
C871 H885 0.958 . S
C871 H886 0.961 . S
C871 H887 0.960 . S
H872 C856 0.931 . S
H873 C861 0.929 . S
H874 C862 0.960 . S
H875 C862 0.962 . S
H876 C862 0.960 . S
H877 C863 0.961 . S
H878 C863 0.961 . S
H879 C863 0.961 . S
H880 C864 0.931 . S
H881 C869 0.930 . S
H882 C870 0.956 . S
H883 C870 0.961 . S
H884 C870 0.961 . S
H885 C871 0.958 . S
H886 C871 0.961 . S
H887 C871 0.960 . S
C888 C889 1.391 . S
C888 C890 1.394 . S
C888 H904 0.931 . S
C889 C888 1.391 . S
C889 C893 1.376 . S
C890 C888 1.394 . S
C890 C891 1.369 1_565 S
C890 C894 1.534 . S
C891 C890 1.369 1_545 S
C891 C892 1.410 . S
C891 C899 1.503 . S
C892 C891 1.410 . S
C892 C893 1.392 1_545 S
C892 C895 1.511 . S
C893 C889 1.376 . S
C893 C892 1.392 1_565 S
C893 H905 0.929 1_655 S
C894 C890 1.534 . S
C894 H906 0.939 1_565 S
C894 H907 0.990 . S
C894 H908 0.951 1_565 S
C895 C892 1.511 . S
C895 H909 0.961 1_645 S
C895 H910 0.975 . S
C895 H911 0.961 . S
C896 C897 1.370 1_565 S
C896 C898 1.363 . S
C896 H912 0.931 . S
C897 C896 1.370 1_545 S
C897 C901 1.408 . S
C898 C896 1.363 . S
C898 C899 1.370 1_565 S
C898 C902 1.524 . S
C899 C891 1.503 . S
C899 C898 1.370 1_545 S
C899 C900 1.403 . S
C900 C899 1.403 . S
C900 C901 1.404 . S
C900 C903 1.539 . S
C901 C897 1.408 . S
C901 C900 1.404 . S
C901 H913 0.930 . S
C902 C898 1.524 . S
C902 H914 0.956 . S
C902 H915 0.961 . S
C902 H916 0.961 . S
C903 C900 1.539 . S
C903 H917 0.958 . S
C903 H918 0.961 . S
C903 H919 0.960 . S
H904 C888 0.931 . S
H905 C893 0.929 1_455 S
H906 C894 0.939 1_545 S
H907 C894 0.990 . S
H908 C894 0.951 1_545 S
H909 C895 0.961 1_465 S
H910 C895 0.975 . S
H911 C895 0.961 . S
H912 C896 0.931 . S
H913 C901 0.930 . S
H914 C902 0.956 . S
H915 C902 0.961 . S
H916 C902 0.961 . S
H917 C903 0.958 . S
H918 C903 0.961 . S
H919 C903 0.960 . S
C920 C921 1.391 . S
C920 C922 1.394 . S
C920 H936 0.931 . S
C921 C920 1.391 . S
C921 C925 1.376 . S
C922 C920 1.394 . S
C922 C923 1.369 . S
C922 C926 1.531 . S
C923 C922 1.369 . S
C923 C924 1.410 . S
C923 C931 1.503 . S
C924 C923 1.410 . S
C924 C925 1.392 . S
C924 C927 1.511 . S
C925 C921 1.376 . S
C925 C924 1.392 . S
C925 H937 0.929 . S
C926 C922 1.531 . S
C926 H938 0.960 . S
C926 H939 0.962 . S
C926 H940 0.960 . S
C927 C924 1.511 . S
C927 H941 0.961 . S
C927 H942 0.961 . S
C927 H943 0.961 . S
C928 C929 1.370 . S
C928 C930 1.363 . S
C928 H944 0.931 . S
C929 C928 1.370 . S
C929 C933 1.408 . S
C930 C928 1.363 . S
C930 C931 1.370 . S
C930 C934 1.524 . S
C931 C923 1.503 . S
C931 C930 1.370 . S
C931 C932 1.403 . S
C932 C931 1.403 . S
C932 C933 1.404 . S
C932 C935 1.539 . S
C933 C929 1.408 . S
C933 C932 1.404 . S
C933 H945 0.930 . S
C934 C930 1.524 . S
C934 H946 0.956 . S
C934 H947 0.961 . S
C934 H948 0.961 . S
C935 C932 1.539 . S
C935 H949 0.958 . S
C935 H950 0.961 . S
C935 H951 0.960 . S
H936 C920 0.931 . S
H937 C925 0.929 . S
H938 C926 0.960 . S
H939 C926 0.962 . S
H940 C926 0.960 . S
H941 C927 0.961 . S
H942 C927 0.961 . S
H943 C927 0.961 . S
H944 C928 0.931 . S
H945 C933 0.930 . S
H946 C934 0.956 . S
H947 C934 0.961 . S
H948 C934 0.961 . S
H949 C935 0.958 . S
H950 C935 0.961 . S
H951 C935 0.960 . S
C952 C953 1.391 . S
C952 C954 1.394 . S
C952 H968 0.931 . S
C953 C952 1.391 . S
C953 C957 1.376 . S
C954 C952 1.394 . S
C954 C955 1.369 . S
C954 C958 1.531 . S
C955 C954 1.369 . S
C955 C956 1.410 . S
C955 C963 1.503 . S
C956 C955 1.410 . S
C956 C957 1.392 . S
C956 C959 1.511 . S
C957 C953 1.376 . S
C957 C956 1.392 . S
C957 H969 0.929 . S
C958 C954 1.531 . S
C958 H970 0.960 . S
C958 H971 0.962 . S
C958 H972 0.960 . S
C959 C956 1.511 . S
C959 H973 0.961 . S
C959 H974 0.961 . S
C959 H975 0.961 . S
C960 C961 1.370 . S
C960 C962 1.363 . S
C960 H976 0.931 . S
C961 C960 1.370 . S
C961 C965 1.408 . S
C962 C960 1.363 . S
C962 C963 1.370 . S
C962 C966 1.524 . S
C963 C955 1.503 . S
C963 C962 1.370 . S
C963 C964 1.403 . S
C964 C963 1.403 . S
C964 C965 1.404 . S
C964 C967 1.539 . S
C965 C961 1.408 . S
C965 C964 1.404 . S
C965 H977 0.930 . S
C966 C962 1.524 . S
C966 H978 0.956 . S
C966 H979 0.961 . S
C966 H980 0.961 . S
C967 C964 1.539 . S
C967 H981 0.958 . S
C967 H982 0.961 . S
C967 H983 0.960 . S
H968 C952 0.931 . S
H969 C957 0.929 . S
H970 C958 0.960 . S
H971 C958 0.962 . S
H972 C958 0.960 . S
H973 C959 0.961 . S
H974 C959 0.961 . S
H975 C959 0.961 . S
H976 C960 0.931 . S
H977 C965 0.930 . S
H978 C966 0.956 . S
H979 C966 0.961 . S
H980 C966 0.961 . S
H981 C967 0.958 . S
H982 C967 0.961 . S
H983 C967 0.960 . S
C984 C985 1.391 . S
C984 C986 1.394 . S
C984 H1000 0.931 . S
C985 C984 1.391 . S
C985 C989 1.376 . S
C986 C984 1.394 . S
C986 C987 1.369 . S
C986 C990 1.531 . S
C987 C986 1.369 . S
C987 C988 1.410 . S
C987 C995 1.503 . S
C988 C987 1.410 . S
C988 C989 1.392 . S
C988 C991 1.511 . S
C989 C985 1.376 . S
C989 C988 1.392 . S
C989 H1001 0.929 . S
C990 C986 1.531 . S
C990 H1002 0.960 . S
C990 H1003 0.962 . S
C990 H1004 0.960 . S
C991 C988 1.511 . S
C991 H1005 0.961 . S
C991 H1006 0.961 . S
C991 H1007 0.961 . S
C992 C993 1.370 . S
C992 C994 1.363 . S
C992 H1008 0.931 . S
C993 C992 1.370 . S
C993 C997 1.408 . S
C994 C992 1.363 . S
C994 C995 1.370 . S
C994 C998 1.524 . S
C995 C987 1.503 . S
C995 C994 1.370 . S
C995 C996 1.403 . S
C996 C995 1.403 . S
C996 C997 1.404 . S
C996 C999 1.539 . S
C997 C993 1.408 . S
C997 C996 1.404 . S
C997 H1009 0.930 . S
C998 C994 1.524 . S
C998 H1010 0.956 . S
C998 H1011 0.961 . S
C998 H1012 0.961 . S
C999 C996 1.539 . S
C999 H1013 0.958 . S
C999 H1014 0.961 . S
C999 H1015 0.960 . S
H1000 C984 0.931 . S
H1001 C989 0.929 . S
H1002 C990 0.960 . S
H1003 C990 0.962 . S
H1004 C990 0.960 . S
H1005 C991 0.961 . S
H1006 C991 0.961 . S
H1007 C991 0.961 . S
H1008 C992 0.931 . S
H1009 C997 0.930 . S
H1010 C998 0.956 . S
H1011 C998 0.961 . S
H1012 C998 0.961 . S
H1013 C999 0.958 . S
H1014 C999 0.961 . S
H1015 C999 0.960 . S
C1016 C1017 1.391 . S
C1016 C1018 1.394 . S
C1016 H1032 0.931 . S
C1017 C1016 1.391 . S
C1017 C1021 1.376 . S
C1018 C1016 1.394 . S
C1018 C1019 1.369 . S
C1018 C1022 1.531 . S
C1019 C1018 1.369 . S
C1019 C1020 1.410 . S
C1019 C1027 1.503 . S
C1020 C1019 1.410 . S
C1020 C1021 1.392 . S
C1020 C1023 1.511 . S
C1021 C1017 1.376 . S
C1021 C1020 1.392 . S
C1021 H1033 0.929 . S
C1022 C1018 1.531 . S
C1022 H1034 0.960 . S
C1022 H1035 0.962 . S
C1022 H1036 0.960 . S
C1023 C1020 1.511 . S
C1023 H1037 0.968 . S
C1023 H1038 0.961 . S
C1023 H1039 0.961 . S
C1024 C1025 1.370 1_545 S
C1024 C1026 1.363 . S
C1024 H1040 0.931 . S
C1025 C1024 1.370 1_565 S
C1025 C1029 1.408 . S
C1026 C1024 1.363 . S
C1026 C1027 1.370 1_545 S
C1026 C1030 1.524 . S
C1027 C1019 1.503 . S
C1027 C1026 1.370 1_565 S
C1027 C1028 1.403 . S
C1028 C1027 1.403 . S
C1028 C1029 1.404 . S
C1028 C1031 1.539 . S
C1029 C1025 1.408 . S
C1029 C1028 1.404 . S
C1029 H1041 0.930 . S
C1030 C1026 1.524 . S
C1030 H1042 0.956 . S
C1030 H1043 0.961 . S
C1030 H1044 0.961 . S
C1031 C1028 1.539 . S
C1031 H1045 0.958 . S
C1031 H1046 0.961 . S
C1031 H1047 0.960 . S
H1032 C1016 0.931 . S
H1033 C1021 0.929 . S
H1034 C1022 0.960 . S
H1035 C1022 0.962 . S
H1036 C1022 0.960 . S
H1037 C1023 0.968 . S
H1038 C1023 0.961 . S
H1039 C1023 0.961 . S
H1040 C1024 0.931 . S
H1041 C1029 0.930 . S
H1042 C1030 0.956 . S
H1043 C1030 0.961 . S
H1044 C1030 0.961 . S
H1045 C1031 0.958 . S
H1046 C1031 0.961 . S
H1047 C1031 0.960 . S
C1048 C1049 1.391 . S
C1048 C1050 1.394 . S
C1048 H1064 0.931 . S
C1049 C1048 1.391 . S
C1049 C1053 1.376 . S
C1050 C1048 1.394 . S
C1050 C1051 1.369 . S
C1050 C1054 1.531 . S
C1051 C1050 1.369 . S
C1051 C1052 1.410 . S
C1051 C1059 1.503 . S
C1052 C1051 1.410 . S
C1052 C1053 1.392 . S
C1052 C1055 1.511 . S
C1053 C1049 1.376 . S
C1053 C1052 1.392 . S
C1053 H1065 0.929 . S
C1054 C1050 1.531 . S
C1054 H1066 0.960 . S
C1054 H1067 0.962 . S
C1054 H1068 0.960 . S
C1055 C1052 1.511 . S
C1055 H1069 0.961 . S
C1055 H1070 0.961 . S
C1055 H1071 0.961 . S
C1056 C1057 1.370 . S
C1056 C1058 1.363 . S
C1056 H1072 0.931 . S
C1057 C1056 1.370 . S
C1057 C1061 1.408 . S
C1058 C1056 1.363 . S
C1058 C1059 1.370 . S
C1058 C1062 1.524 . S
C1059 C1051 1.503 . S
C1059 C1058 1.370 . S
C1059 C1060 1.403 . S
C1060 C1059 1.403 . S
C1060 C1061 1.404 . S
C1060 C1063 1.539 . S
C1061 C1057 1.408 . S
C1061 C1060 1.404 . S
C1061 H1073 0.930 . S
C1062 C1058 1.524 . S
C1062 H1074 0.956 . S
C1062 H1075 0.961 . S
C1062 H1076 0.961 . S
C1063 C1060 1.539 . S
C1063 H1077 0.958 . S
C1063 H1078 0.961 . S
C1063 H1079 0.960 . S
H1064 C1048 0.931 . S
H1065 C1053 0.929 . S
H1066 C1054 0.960 . S
H1067 C1054 0.962 . S
H1068 C1054 0.960 . S
H1069 C1055 0.961 . S
H1070 C1055 0.961 . S
H1071 C1055 0.961 . S
H1072 C1056 0.931 . S
H1073 C1061 0.930 . S
H1074 C1062 0.956 . S
H1075 C1062 0.961 . S
H1076 C1062 0.961 . S
H1077 C1063 0.958 . S
H1078 C1063 0.961 . S
H1079 C1063 0.960 . S
C1080 C1081 1.391 . S
C1080 C1082 1.394 . S
C1080 H1096 0.931 . S
C1081 C1080 1.391 . S
C1081 C1085 1.376 . S
C1082 C1080 1.394 . S
C1082 C1083 1.369 . S
C1082 C1086 1.531 . S
C1083 C1082 1.369 . S
C1083 C1084 1.410 . S
C1083 C1091 1.503 . S
C1084 C1083 1.410 . S
C1084 C1085 1.392 . S
C1084 C1087 1.511 . S
C1085 C1081 1.376 . S
C1085 C1084 1.392 . S
C1085 H1097 0.929 . S
C1086 C1082 1.531 . S
C1086 H1098 0.960 . S
C1086 H1099 0.962 . S
C1086 H1100 0.960 . S
C1087 C1084 1.511 . S
C1087 H1101 0.961 . S
C1087 H1102 0.961 . S
C1087 H1103 0.961 . S
C1088 C1089 1.370 . S
C1088 C1090 1.363 . S
C1088 H1104 0.931 . S
C1089 C1088 1.370 . S
C1089 C1093 1.408 . S
C1090 C1088 1.363 . S
C1090 C1091 1.370 . S
C1090 C1094 1.524 . S
C1091 C1083 1.503 . S
C1091 C1090 1.370 . S
C1091 C1092 1.403 . S
C1092 C1091 1.403 . S
C1092 C1093 1.404 . S
C1092 C1095 1.539 . S
C1093 C1089 1.408 . S
C1093 C1092 1.404 . S
C1093 H1105 0.930 . S
C1094 C1090 1.524 . S
C1094 H1106 0.956 . S
C1094 H1107 0.961 . S
C1094 H1108 0.961 . S
C1095 C1092 1.539 . S
C1095 H1109 0.958 . S
C1095 H1110 0.961 . S
C1095 H1111 0.960 . S
H1096 C1080 0.931 . S
H1097 C1085 0.929 . S
H1098 C1086 0.960 . S
H1099 C1086 0.962 . S
H1100 C1086 0.960 . S
H1101 C1087 0.961 . S
H1102 C1087 0.961 . S
H1103 C1087 0.961 . S
H1104 C1088 0.931 . S
H1105 C1093 0.930 . S
H1106 C1094 0.956 . S
H1107 C1094 0.961 . S
H1108 C1094 0.961 . S
H1109 C1095 0.958 . S
H1110 C1095 0.961 . S
H1111 C1095 0.960 . S
C1112 C1113 1.391 . S
C1112 C1114 1.394 . S
C1112 H1128 0.931 . S
C1113 C1112 1.391 . S
C1113 C1117 1.376 . S
C1114 C1112 1.394 . S
C1114 C1115 1.369 . S
C1114 C1118 1.531 . S
C1115 C1114 1.369 . S
C1115 C1116 1.410 . S
C1115 C1123 1.503 . S
C1116 C1115 1.410 . S
C1116 C1117 1.392 . S
C1116 C1119 1.511 . S
C1117 C1113 1.376 . S
C1117 C1116 1.392 . S
C1117 H1129 0.929 . S
C1118 C1114 1.531 . S
C1118 H1130 0.960 . S
C1118 H1131 0.962 . S
C1118 H1132 0.960 . S
C1119 C1116 1.511 . S
C1119 H1133 0.961 . S
C1119 H1134 0.961 . S
C1119 H1135 0.961 . S
C1120 C1121 1.370 . S
C1120 C1122 1.363 . S
C1120 H1136 0.931 . S
C1121 C1120 1.370 . S
C1121 C1125 1.408 . S
C1122 C1120 1.363 . S
C1122 C1123 1.370 . S
C1122 C1126 1.524 . S
C1123 C1115 1.503 . S
C1123 C1122 1.370 . S
C1123 C1124 1.403 . S
C1124 C1123 1.403 . S
C1124 C1125 1.404 . S
C1124 C1127 1.539 . S
C1125 C1121 1.408 . S
C1125 C1124 1.404 . S
C1125 H1137 0.930 . S
C1126 C1122 1.524 . S
C1126 H1138 0.956 . S
C1126 H1139 0.961 . S
C1126 H1140 0.961 . S
C1127 C1124 1.539 . S
C1127 H1141 0.958 . S
C1127 H1142 0.961 . S
C1127 H1143 0.960 . S
H1128 C1112 0.931 . S
H1129 C1117 0.929 . S
H1130 C1118 0.960 . S
H1131 C1118 0.962 . S
H1132 C1118 0.960 . S
H1133 C1119 0.961 . S
H1134 C1119 0.961 . S
H1135 C1119 0.961 . S
H1136 C1120 0.931 . S
H1137 C1125 0.930 . S
H1138 C1126 0.956 . S
H1139 C1126 0.961 . S
H1140 C1126 0.961 . S
H1141 C1127 0.958 . S
H1142 C1127 0.961 . S
H1143 C1127 0.960 . S
C1144 C1145 1.391 . S
C1144 C1146 1.394 . S
C1144 H1160 0.931 . S
C1145 C1144 1.391 . S
C1145 C1149 1.376 . S
C1146 C1144 1.394 . S
C1146 C1147 1.369 . S
C1146 C1150 1.531 . S
C1147 C1146 1.369 . S
C1147 C1148 1.410 . S
C1147 C1155 1.503 . S
C1148 C1147 1.410 . S
C1148 C1149 1.392 . S
C1148 C1151 1.511 . S
C1149 C1145 1.376 . S
C1149 C1148 1.392 . S
C1149 H1161 0.929 . S
C1150 C1146 1.531 . S
C1150 H1162 0.960 . S
C1150 H1163 0.962 . S
C1150 H1164 0.960 . S
C1151 C1148 1.511 . S
C1151 H1165 0.961 . S
C1151 H1166 0.961 . S
C1151 H1167 0.961 . S
C1152 C1153 1.370 . S
C1152 C1154 1.363 . S
C1152 H1168 0.931 . S
C1153 C1152 1.370 . S
C1153 C1157 1.408 . S
C1154 C1152 1.363 . S
C1154 C1155 1.370 . S
C1154 C1158 1.524 . S
C1155 C1147 1.503 . S
C1155 C1154 1.370 . S
C1155 C1156 1.403 . S
C1156 C1155 1.403 . S
C1156 C1157 1.404 . S
C1156 C1159 1.539 . S
C1157 C1153 1.408 . S
C1157 C1156 1.404 . S
C1157 H1169 0.930 . S
C1158 C1154 1.524 . S
C1158 H1170 0.956 . S
C1158 H1171 0.961 . S
C1158 H1172 0.961 . S
C1159 C1156 1.539 . S
C1159 H1173 0.958 . S
C1159 H1174 0.961 . S
C1159 H1175 0.960 . S
H1160 C1144 0.931 . S
H1161 C1149 0.929 . S
H1162 C1150 0.960 . S
H1163 C1150 0.962 . S
H1164 C1150 0.960 . S
H1165 C1151 0.961 . S
H1166 C1151 0.961 . S
H1167 C1151 0.961 . S
H1168 C1152 0.931 . S
H1169 C1157 0.930 . S
H1170 C1158 0.956 . S
H1171 C1158 0.961 . S
H1172 C1158 0.961 . S
H1173 C1159 0.958 . S
H1174 C1159 0.961 . S
H1175 C1159 0.960 . S
C1176 C1177 1.391 . S
C1176 C1178 1.394 . S
C1176 H1192 0.931 . S
C1177 C1176 1.391 . S
C1177 C1181 1.376 . S
C1178 C1176 1.394 . S
C1178 C1179 1.369 . S
C1178 C1182 1.531 . S
C1179 C1178 1.369 . S
C1179 C1180 1.410 . S
C1179 C1187 1.503 . S
C1180 C1179 1.410 . S
C1180 C1181 1.392 . S
C1180 C1183 1.511 . S
C1181 C1177 1.376 . S
C1181 C1180 1.392 . S
C1181 H1193 0.929 . S
C1182 C1178 1.531 . S
C1182 H1194 0.960 . S
C1182 H1195 0.962 . S
C1182 H1196 0.960 . S
C1183 C1180 1.511 . S
C1183 H1197 0.961 . S
C1183 H1198 0.961 . S
C1183 H1199 0.961 . S
C1184 C1185 1.370 . S
C1184 C1186 1.363 . S
C1184 H1200 0.931 . S
C1185 C1184 1.370 . S
C1185 C1189 1.408 . S
C1186 C1184 1.363 . S
C1186 C1187 1.370 . S
C1186 C1190 1.524 . S
C1187 C1179 1.503 . S
C1187 C1186 1.370 . S
C1187 C1188 1.403 . S
C1188 C1187 1.403 . S
C1188 C1189 1.404 . S
C1188 C1191 1.539 . S
C1189 C1185 1.408 . S
C1189 C1188 1.404 . S
C1189 H1201 0.930 . S
C1190 C1186 1.524 . S
C1190 H1202 0.956 . S
C1190 H1203 0.961 . S
C1190 H1204 0.961 . S
C1191 C1188 1.539 . S
C1191 H1205 0.958 . S
C1191 H1206 0.961 . S
C1191 H1207 0.960 . S
H1192 C1176 0.931 . S
H1193 C1181 0.929 . S
H1194 C1182 0.960 . S
H1195 C1182 0.962 . S
H1196 C1182 0.960 . S
H1197 C1183 0.961 . S
H1198 C1183 0.961 . S
H1199 C1183 0.961 . S
H1200 C1184 0.931 . S
H1201 C1189 0.930 . S
H1202 C1190 0.956 . S
H1203 C1190 0.961 . S
H1204 C1190 0.961 . S
H1205 C1191 0.958 . S
H1206 C1191 0.961 . S
H1207 C1191 0.960 . S
C1208 C1209 1.391 . S
C1208 C1210 1.394 . S
C1208 H1224 0.931 . S
C1209 C1208 1.391 . S
C1209 C1213 1.376 . S
C1210 C1208 1.394 . S
C1210 C1211 1.369 . S
C1210 C1214 1.531 . S
C1211 C1210 1.369 . S
C1211 C1212 1.410 . S
C1211 C1219 1.503 . S
C1212 C1211 1.410 . S
C1212 C1213 1.392 . S
C1212 C1215 1.511 1_455 S
C1213 C1209 1.376 . S
C1213 C1212 1.392 . S
C1213 H1225 0.929 . S
C1214 C1210 1.531 . S
C1214 H1226 0.960 . S
C1214 H1227 0.962 . S
C1214 H1228 0.960 . S
C1215 C1212 1.511 1_655 S
C1215 H1229 0.961 . S
C1215 H1230 0.961 . S
C1215 H1231 0.961 . S
C1216 C1217 1.370 . S
C1216 C1218 1.363 . S
C1216 H1232 0.931 . S
C1217 C1216 1.370 . S
C1217 C1221 1.408 . S
C1218 C1216 1.363 . S
C1218 C1219 1.370 . S
C1218 C1222 1.524 . S
C1219 C1211 1.503 . S
C1219 C1218 1.370 . S
C1219 C1220 1.403 . S
C1220 C1219 1.403 . S
C1220 C1221 1.404 . S
C1220 C1223 1.539 . S
C1221 C1217 1.408 . S
C1221 C1220 1.404 . S
C1221 H1233 0.930 . S
C1222 C1218 1.524 . S
C1222 H1234 0.956 . S
C1222 H1235 0.961 1_455 S
C1222 H1236 0.984 . S
C1223 C1220 1.539 . S
C1223 H1237 0.958 . S
C1223 H1238 0.961 . S
C1223 H1239 0.960 . S
H1224 C1208 0.931 . S
H1225 C1213 0.929 . S
H1226 C1214 0.960 . S
H1227 C1214 0.962 . S
H1228 C1214 0.960 . S
H1229 C1215 0.961 . S
H1230 C1215 0.961 . S
H1231 C1215 0.961 . S
H1232 C1216 0.931 . S
H1233 C1221 0.930 . S
H1234 C1222 0.956 . S
H1235 C1222 0.961 1_655 S
H1236 C1222 0.984 . S
H1237 C1223 0.958 . S
H1238 C1223 0.961 . S
H1239 C1223 0.960 . S
C1240 C1241 1.391 . S
C1240 C1242 1.394 . S
C1240 H1256 0.931 . S
C1241 C1240 1.391 . S
C1241 C1245 1.376 . S
C1242 C1240 1.394 . S
C1242 C1243 1.369 . S
C1242 C1246 1.531 . S
C1243 C1242 1.369 . S
C1243 C1244 1.410 . S
C1243 C1251 1.503 . S
C1244 C1243 1.410 . S
C1244 C1245 1.392 . S
C1244 C1247 1.511 . S
C1245 C1241 1.376 . S
C1245 C1244 1.392 . S
C1245 H1257 0.929 . S
C1246 C1242 1.531 . S
C1246 H1258 0.960 . S
C1246 H1259 0.962 . S
C1246 H1260 0.960 . S
C1247 C1244 1.511 . S
C1247 H1261 0.961 . S
C1247 H1262 0.961 . S
C1247 H1263 0.961 . S
C1248 C1249 1.370 . S
C1248 C1250 1.363 . S
C1248 H1264 0.931 . S
C1249 C1248 1.370 . S
C1249 C1253 1.408 . S
C1250 C1248 1.363 . S
C1250 C1251 1.370 . S
C1250 C1254 1.524 . S
C1251 C1243 1.503 . S
C1251 C1250 1.370 . S
C1251 C1252 1.403 . S
C1252 C1251 1.403 . S
C1252 C1253 1.404 . S
C1252 C1255 1.539 . S
C1253 C1249 1.408 . S
C1253 C1252 1.404 . S
C1253 H1265 0.930 . S
C1254 C1250 1.524 . S
C1254 H1266 0.956 . S
C1254 H1267 0.961 . S
C1254 H1268 0.961 . S
C1255 C1252 1.539 . S
C1255 H1269 0.958 . S
C1255 H1270 0.961 . S
C1255 H1271 0.960 . S
H1256 C1240 0.931 . S
H1257 C1245 0.929 . S
H1258 C1246 0.960 . S
H1259 C1246 0.962 . S
H1260 C1246 0.960 . S
H1261 C1247 0.961 . S
H1262 C1247 0.961 . S
H1263 C1247 0.961 . S
H1264 C1248 0.931 . S
H1265 C1253 0.930 . S
H1266 C1254 0.956 . S
H1267 C1254 0.961 . S
H1268 C1254 0.961 . S
H1269 C1255 0.958 . S
H1270 C1255 0.961 . S
H1271 C1255 0.960 . S
C1272 C1273 1.391 1_455 S
C1272 C1274 1.394 . S
C1272 H1288 0.931 . S
C1273 C1272 1.391 1_655 S
C1273 C1277 1.376 . S
C1274 C1272 1.394 . S
C1274 C1275 1.369 1_455 S
C1274 C1278 1.531 . S
C1275 C1274 1.369 1_655 S
C1275 C1276 1.410 . S
C1275 C1283 1.503 . S
C1276 C1275 1.410 . S
C1276 C1277 1.392 . S
C1276 C1279 1.511 . S
C1277 C1273 1.376 . S
C1277 C1276 1.392 . S
C1277 H1289 0.929 . S
C1278 C1274 1.531 . S
C1278 H1290 0.960 . S
C1278 H1291 0.962 . S
C1278 H1292 0.960 . S
C1279 C1276 1.511 . S
C1279 H1293 0.961 . S
C1279 H1294 0.961 . S
C1279 H1295 0.961 . S
C1280 C1281 1.370 . S
C1280 C1282 1.363 . S
C1280 H1296 0.931 . S
C1281 C1280 1.370 . S
C1281 C1285 1.410 1_655 S
C1282 C1280 1.363 . S
C1282 C1283 1.370 . S
C1282 C1286 1.524 . S
C1283 C1275 1.503 . S
C1283 C1282 1.370 . S
C1283 C1284 1.403 . S
C1284 C1283 1.403 . S
C1284 C1285 1.404 1_655 S
C1284 C1287 1.539 1_655 S
C1285 C1281 1.410 1_455 S
C1285 C1284 1.404 1_455 S
C1285 H1297 0.928 . S
C1286 C1282 1.524 . S
C1286 H1298 0.956 . S
C1286 H1299 0.961 . S
C1286 H1300 0.961 . S
C1287 C1284 1.539 1_455 S
C1287 H1301 0.958 . S
C1287 H1302 0.977 . S
C1287 H1303 0.960 1_455 S
H1288 C1272 0.931 . S
H1289 C1277 0.929 . S
H1290 C1278 0.960 . S
H1291 C1278 0.962 . S
H1292 C1278 0.960 . S
H1293 C1279 0.961 . S
H1294 C1279 0.961 . S
H1295 C1279 0.961 . S
H1296 C1280 0.931 . S
H1297 C1285 0.928 . S
H1298 C1286 0.956 . S
H1299 C1286 0.961 . S
H1300 C1286 0.961 . S
H1301 C1287 0.958 . S
H1302 C1287 0.977 . S
H1303 C1287 0.960 1_655 S
C1304 C1305 1.391 . S
C1304 C1306 1.394 . S
C1304 H1320 0.931 . S
C1305 C1304 1.391 . S
C1305 C1309 1.376 . S
C1306 C1304 1.394 . S
C1306 C1307 1.369 . S
C1306 C1310 1.531 . S
C1307 C1306 1.369 . S
C1307 C1308 1.410 . S
C1307 C1315 1.503 . S
C1308 C1307 1.410 . S
C1308 C1309 1.392 . S
C1308 C1311 1.511 . S
C1309 C1305 1.376 . S
C1309 C1308 1.392 . S
C1309 H1321 0.929 . S
C1310 C1306 1.531 . S
C1310 H1322 0.960 . S
C1310 H1323 0.962 . S
C1310 H1324 0.960 . S
C1311 C1308 1.511 . S
C1311 H1325 0.961 . S
C1311 H1326 0.961 . S
C1311 H1327 0.961 . S
C1312 C1313 1.370 . S
C1312 C1314 1.363 . S
C1312 H1328 0.931 . S
C1313 C1312 1.370 . S
C1313 C1317 1.408 . S
C1314 C1312 1.363 . S
C1314 C1315 1.370 . S
C1314 C1318 1.524 . S
C1315 C1307 1.503 . S
C1315 C1314 1.370 . S
C1315 C1316 1.403 . S
C1316 C1315 1.403 . S
C1316 C1317 1.404 . S
C1316 C1319 1.539 . S
C1317 C1313 1.408 . S
C1317 C1316 1.404 . S
C1317 H1329 0.930 . S
C1318 C1314 1.524 . S
C1318 H1330 0.956 . S
C1318 H1331 0.961 . S
C1318 H1332 0.961 . S
C1319 C1316 1.539 . S
C1319 H1333 0.958 . S
C1319 H1334 0.961 . S
C1319 H1335 0.960 . S
H1320 C1304 0.931 . S
H1321 C1309 0.929 . S
H1322 C1310 0.960 . S
H1323 C1310 0.962 . S
H1324 C1310 0.960 . S
H1325 C1311 0.961 . S
H1326 C1311 0.961 . S
H1327 C1311 0.961 . S
H1328 C1312 0.931 . S
H1329 C1317 0.930 . S
H1330 C1318 0.956 . S
H1331 C1318 0.961 . S
H1332 C1318 0.961 . S
H1333 C1319 0.958 . S
H1334 C1319 0.961 . S
H1335 C1319 0.960 . S
C1336 C1337 1.391 . S
C1336 C1338 1.394 . S
C1336 H1352 0.931 . S
C1337 C1336 1.391 . S
C1337 C1341 1.376 . S
C1338 C1336 1.394 . S
C1338 C1339 1.369 . S
C1338 C1342 1.531 . S
C1339 C1338 1.369 . S
C1339 C1340 1.410 . S
C1339 C1347 1.503 . S
C1340 C1339 1.410 . S
C1340 C1341 1.392 . S
C1340 C1343 1.511 . S
C1341 C1337 1.376 . S
C1341 C1340 1.392 . S
C1341 H1353 0.929 . S
C1342 C1338 1.531 . S
C1342 H1354 0.960 . S
C1342 H1355 0.962 . S
C1342 H1356 0.960 . S
C1343 C1340 1.511 . S
C1343 H1357 0.961 . S
C1343 H1358 0.961 . S
C1343 H1359 0.961 . S
C1344 C1345 1.370 . S
C1344 C1346 1.363 . S
C1344 H1360 0.931 . S
C1345 C1344 1.370 . S
C1345 C1349 1.408 . S
C1346 C1344 1.363 . S
C1346 C1347 1.370 . S
C1346 C1350 1.524 . S
C1347 C1339 1.503 . S
C1347 C1346 1.370 . S
C1347 C1348 1.403 . S
C1348 C1347 1.403 . S
C1348 C1349 1.404 . S
C1348 C1351 1.539 . S
C1349 C1345 1.408 . S
C1349 C1348 1.404 . S
C1349 H1361 0.930 . S
C1350 C1346 1.524 . S
C1350 H1362 0.956 . S
C1350 H1363 0.961 . S
C1350 H1364 0.961 . S
C1351 C1348 1.539 . S
C1351 H1365 0.958 . S
C1351 H1366 0.961 . S
C1351 H1367 0.960 . S
H1352 C1336 0.931 . S
H1353 C1341 0.929 . S
H1354 C1342 0.960 . S
H1355 C1342 0.962 . S
H1356 C1342 0.960 . S
H1357 C1343 0.961 . S
H1358 C1343 0.961 . S
H1359 C1343 0.961 . S
H1360 C1344 0.931 . S
H1361 C1349 0.930 . S
H1362 C1350 0.956 . S
H1363 C1350 0.961 . S
H1364 C1350 0.961 . S
H1365 C1351 0.958 . S
H1366 C1351 0.961 . S
H1367 C1351 0.960 . S
C1368 C1369 1.391 . S
C1368 C1370 1.394 . S
C1368 H1384 0.931 . S
C1369 C1368 1.391 . S
C1369 C1373 1.376 1_556 S
C1370 C1368 1.394 . S
C1370 C1371 1.369 . S
C1370 C1374 1.531 . S
C1371 C1370 1.369 . S
C1371 C1372 1.410 1_556 S
C1371 C1379 1.503 . S
C1372 C1371 1.410 1_554 S
C1372 C1373 1.392 . S
C1372 C1375 1.511 . S
C1373 C1369 1.376 1_554 S
C1373 C1372 1.392 . S
C1373 H1385 0.929 . S
C1374 C1370 1.531 . S
C1374 H1386 0.960 . S
C1374 H1387 0.962 . S
C1374 H1388 0.960 . S
C1375 C1372 1.511 . S
C1375 H1389 0.961 . S
C1375 H1390 0.961 . S
C1375 H1391 0.961 . S
C1376 C1377 1.370 . S
C1376 C1378 1.363 . S
C1376 H1392 0.931 . S
C1377 C1376 1.370 . S
C1377 C1381 1.413 . S
C1378 C1376 1.363 . S
C1378 C1379 1.370 . S
C1378 C1382 1.524 . S
C1379 C1371 1.503 . S
C1379 C1378 1.370 . S
C1379 C1380 1.403 . S
C1380 C1379 1.403 . S
C1380 C1381 1.414 . S
C1380 C1383 1.535 1_556 S
C1381 C1377 1.413 . S
C1381 C1380 1.414 . S
C1381 H1393 0.919 1_556 S
C1382 C1378 1.524 . S
C1382 H1394 0.956 . S
C1382 H1395 0.961 . S
C1382 H1396 0.961 . S
C1383 C1380 1.535 1_554 S
C1383 H1397 0.923 1_554 S
C1383 H1398 0.990 . S
C1383 H1399 0.973 . S
H1384 C1368 0.931 . S
H1385 C1373 0.929 . S
H1386 C1374 0.960 . S
H1387 C1374 0.962 . S
H1388 C1374 0.960 . S
H1389 C1375 0.961 . S
H1390 C1375 0.961 . S
H1391 C1375 0.961 . S
H1392 C1376 0.931 . S
H1393 C1381 0.919 1_554 S
H1394 C1382 0.956 . S
H1395 C1382 0.961 . S
H1396 C1382 0.961 . S
H1397 C1383 0.923 1_556 S
H1398 C1383 0.990 . S
H1399 C1383 0.973 . S
C1400 C1401 1.391 . S
C1400 C1402 1.394 . S
C1400 H1416 0.931 . S
C1401 C1400 1.391 . S
C1401 C1405 1.376 . S
C1402 C1400 1.394 . S
C1402 C1403 1.369 . S
C1402 C1406 1.531 . S
C1403 C1402 1.369 . S
C1403 C1404 1.410 . S
C1403 C1411 1.503 . S
C1404 C1403 1.410 . S
C1404 C1405 1.392 . S
C1404 C1407 1.511 . S
C1405 C1401 1.376 . S
C1405 C1404 1.392 . S
C1405 H1417 0.929 . S
C1406 C1402 1.531 . S
C1406 H1418 0.960 . S
C1406 H1419 0.962 . S
C1406 H1420 0.960 . S
C1407 C1404 1.511 . S
C1407 H1421 0.961 . S
C1407 H1422 0.961 . S
C1407 H1423 0.961 . S
C1408 C1409 1.370 . S
C1408 C1410 1.363 . S
C1408 H1424 0.931 . S
C1409 C1408 1.370 . S
C1409 C1413 1.408 . S
C1410 C1408 1.363 . S
C1410 C1411 1.370 . S
C1410 C1414 1.524 . S
C1411 C1403 1.503 . S
C1411 C1410 1.370 . S
C1411 C1412 1.403 . S
C1412 C1411 1.403 . S
C1412 C1413 1.404 . S
C1412 C1415 1.539 . S
C1413 C1409 1.408 . S
C1413 C1412 1.404 . S
C1413 H1425 0.930 . S
C1414 C1410 1.524 . S
C1414 H1426 0.956 . S
C1414 H1427 0.961 . S
C1414 H1428 0.961 . S
C1415 C1412 1.539 . S
C1415 H1429 0.958 . S
C1415 H1430 0.961 . S
C1415 H1431 0.960 . S
H1416 C1400 0.931 . S
H1417 C1405 0.929 . S
H1418 C1406 0.960 . S
H1419 C1406 0.962 . S
H1420 C1406 0.960 . S
H1421 C1407 0.961 . S
H1422 C1407 0.961 . S
H1423 C1407 0.961 . S
H1424 C1408 0.931 . S
H1425 C1413 0.930 . S
H1426 C1414 0.956 . S
H1427 C1414 0.961 . S
H1428 C1414 0.961 . S
H1429 C1415 0.958 . S
H1430 C1415 0.961 . S
H1431 C1415 0.960 . S
C1432 C1433 1.391 . S
C1432 C1434 1.394 . S
C1432 H1448 0.931 . S
C1433 C1432 1.391 . S
C1433 C1437 1.376 . S
C1434 C1432 1.394 . S
C1434 C1435 1.369 . S
C1434 C1438 1.531 . S
C1435 C1434 1.369 . S
C1435 C1436 1.410 . S
C1435 C1443 1.503 . S
C1436 C1435 1.410 . S
C1436 C1437 1.392 . S
C1436 C1439 1.511 . S
C1437 C1433 1.376 . S
C1437 C1436 1.392 . S
C1437 H1449 0.929 . S
C1438 C1434 1.531 . S
C1438 H1450 0.960 . S
C1438 H1451 0.962 . S
C1438 H1452 0.960 . S
C1439 C1436 1.511 . S
C1439 H1453 0.961 . S
C1439 H1454 0.961 . S
C1439 H1455 0.961 . S
C1440 C1441 1.370 . S
C1440 C1442 1.363 . S
C1440 H1456 0.931 . S
C1441 C1440 1.370 . S
C1441 C1445 1.408 . S
C1442 C1440 1.363 . S
C1442 C1443 1.370 . S
C1442 C1446 1.524 . S
C1443 C1435 1.503 . S
C1443 C1442 1.370 . S
C1443 C1444 1.403 . S
C1444 C1443 1.403 . S
C1444 C1445 1.404 . S
C1444 C1447 1.539 . S
C1445 C1441 1.408 . S
C1445 C1444 1.404 . S
C1445 H1457 0.930 . S
C1446 C1442 1.524 . S
C1446 H1458 0.956 . S
C1446 H1459 0.961 . S
C1446 H1460 0.961 . S
C1447 C1444 1.539 . S
C1447 H1461 0.958 . S
C1447 H1462 0.961 . S
C1447 H1463 0.960 . S
H1448 C1432 0.931 . S
H1449 C1437 0.929 . S
H1450 C1438 0.960 . S
H1451 C1438 0.962 . S
H1452 C1438 0.960 . S
H1453 C1439 0.961 . S
H1454 C1439 0.961 . S
H1455 C1439 0.961 . S
H1456 C1440 0.931 . S
H1457 C1445 0.930 . S
H1458 C1446 0.956 . S
H1459 C1446 0.961 . S
H1460 C1446 0.961 . S
H1461 C1447 0.958 . S
H1462 C1447 0.961 . S
H1463 C1447 0.960 . S
C1464 C1465 1.391 . S
C1464 C1466 1.394 . S
C1464 H1480 0.931 . S
C1465 C1464 1.391 . S
C1465 C1469 1.376 . S
C1466 C1464 1.394 . S
C1466 C1467 1.369 . S
C1466 C1470 1.531 . S
C1467 C1466 1.369 . S
C1467 C1468 1.410 . S
C1467 C1475 1.503 . S
C1468 C1467 1.410 . S
C1468 C1469 1.392 . S
C1468 C1471 1.511 . S
C1469 C1465 1.376 . S
C1469 C1468 1.392 . S
C1469 H1481 0.929 . S
C1470 C1466 1.531 . S
C1470 H1482 0.960 . S
C1470 H1483 0.962 . S
C1470 H1484 0.960 . S
C1471 C1468 1.511 . S
C1471 H1485 0.961 . S
C1471 H1486 0.961 . S
C1471 H1487 0.961 . S
C1472 C1473 1.370 . S
C1472 C1474 1.363 . S
C1472 H1488 0.931 . S
C1473 C1472 1.370 . S
C1473 C1477 1.408 . S
C1474 C1472 1.363 . S
C1474 C1475 1.370 . S
C1474 C1478 1.524 . S
C1475 C1467 1.503 . S
C1475 C1474 1.370 . S
C1475 C1476 1.403 . S
C1476 C1475 1.403 . S
C1476 C1477 1.404 . S
C1476 C1479 1.539 . S
C1477 C1473 1.408 . S
C1477 C1476 1.404 . S
C1477 H1489 0.930 . S
C1478 C1474 1.524 . S
C1478 H1490 0.956 . S
C1478 H1491 0.961 . S
C1478 H1492 0.961 . S
C1479 C1476 1.539 . S
C1479 H1493 0.958 . S
C1479 H1494 0.961 . S
C1479 H1495 0.960 . S
H1480 C1464 0.931 . S
H1481 C1469 0.929 . S
H1482 C1470 0.960 . S
H1483 C1470 0.962 . S
H1484 C1470 0.960 . S
H1485 C1471 0.961 . S
H1486 C1471 0.961 . S
H1487 C1471 0.961 . S
H1488 C1472 0.931 . S
H1489 C1477 0.930 . S
H1490 C1478 0.956 . S
H1491 C1478 0.961 . S
H1492 C1478 0.961 . S
H1493 C1479 0.958 . S
H1494 C1479 0.961 . S
H1495 C1479 0.960 . S
C1496 C1497 1.391 . S
C1496 C1498 1.394 . S
C1496 H1512 0.931 . S
C1497 C1496 1.391 . S
C1497 C1501 1.376 . S
C1498 C1496 1.394 . S
C1498 C1499 1.369 . S
C1498 C1502 1.531 . S
C1499 C1498 1.369 . S
C1499 C1500 1.410 . S
C1499 C1507 1.503 . S
C1500 C1499 1.410 . S
C1500 C1501 1.392 . S
C1500 C1503 1.511 . S
C1501 C1497 1.376 . S
C1501 C1500 1.392 . S
C1501 H1513 0.929 . S
C1502 C1498 1.531 . S
C1502 H1514 0.960 . S
C1502 H1515 0.962 . S
C1502 H1516 0.960 . S
C1503 C1500 1.511 . S
C1503 H1517 0.961 . S
C1503 H1518 0.961 . S
C1503 H1519 0.961 . S
C1504 C1505 1.370 . S
C1504 C1506 1.363 . S
C1504 H1520 0.931 . S
C1505 C1504 1.370 . S
C1505 C1509 1.408 . S
C1506 C1504 1.363 . S
C1506 C1507 1.370 . S
C1506 C1510 1.524 . S
C1507 C1499 1.503 . S
C1507 C1506 1.370 . S
C1507 C1508 1.403 . S
C1508 C1507 1.403 . S
C1508 C1509 1.404 . S
C1508 C1511 1.539 . S
C1509 C1505 1.408 . S
C1509 C1508 1.404 . S
C1509 H1521 0.930 . S
C1510 C1506 1.524 . S
C1510 H1522 0.956 . S
C1510 H1523 0.961 . S
C1510 H1524 0.961 . S
C1511 C1508 1.539 . S
C1511 H1525 0.958 . S
C1511 H1526 0.961 . S
C1511 H1527 0.960 . S
H1512 C1496 0.931 . S
H1513 C1501 0.929 . S
H1514 C1502 0.960 . S
H1515 C1502 0.962 . S
H1516 C1502 0.960 . S
H1517 C1503 0.961 . S
H1518 C1503 0.961 . S
H1519 C1503 0.961 . S
H1520 C1504 0.931 . S
H1521 C1509 0.930 . S
H1522 C1510 0.956 . S
H1523 C1510 0.961 . S
H1524 C1510 0.961 . S
H1525 C1511 0.958 . S
H1526 C1511 0.961 . S
H1527 C1511 0.960 . S
C1528 C1529 1.391 . S
C1528 C1530 1.394 . S
C1528 H1544 0.931 . S
C1529 C1528 1.391 . S
C1529 C1533 1.376 . S
C1530 C1528 1.394 . S
C1530 C1531 1.369 . S
C1530 C1534 1.531 . S
C1531 C1530 1.369 . S
C1531 C1532 1.410 . S
C1531 C1539 1.503 . S
C1532 C1531 1.410 . S
C1532 C1533 1.392 . S
C1532 C1535 1.511 . S
C1533 C1529 1.376 . S
C1533 C1532 1.392 . S
C1533 H1545 0.929 . S
C1534 C1530 1.531 . S
C1534 H1546 0.960 . S
C1534 H1547 0.962 . S
C1534 H1548 0.960 . S
C1535 C1532 1.511 . S
C1535 H1549 0.961 . S
C1535 H1550 0.961 . S
C1535 H1551 0.961 . S
C1536 C1537 1.370 . S
C1536 C1538 1.363 . S
C1536 H1552 0.931 . S
C1537 C1536 1.370 . S
C1537 C1541 1.408 . S
C1538 C1536 1.363 . S
C1538 C1539 1.370 . S
C1538 C1542 1.524 . S
C1539 C1531 1.503 . S
C1539 C1538 1.370 . S
C1539 C1540 1.403 . S
C1540 C1539 1.403 . S
C1540 C1541 1.404 . S
C1540 C1543 1.539 . S
C1541 C1537 1.408 . S
C1541 C1540 1.404 . S
C1541 H1553 0.930 . S
C1542 C1538 1.524 . S
C1542 H1554 0.956 . S
C1542 H1555 0.961 . S
C1542 H1556 0.961 . S
C1543 C1540 1.539 . S
C1543 H1557 0.958 . S
C1543 H1558 0.961 . S
C1543 H1559 0.960 . S
H1544 C1528 0.931 . S
H1545 C1533 0.929 . S
H1546 C1534 0.960 . S
H1547 C1534 0.962 . S
H1548 C1534 0.960 . S
H1549 C1535 0.961 . S
H1550 C1535 0.961 . S
H1551 C1535 0.961 . S
H1552 C1536 0.931 . S
H1553 C1541 0.930 . S
H1554 C1542 0.956 . S
H1555 C1542 0.961 . S
H1556 C1542 0.961 . S
H1557 C1543 0.958 . S
H1558 C1543 0.961 . S
H1559 C1543 0.960 . S
C1560 C1561 1.391 . S
C1560 C1562 1.394 . S
C1560 H1576 0.931 . S
C1561 C1560 1.391 . S
C1561 C1565 1.376 . S
C1562 C1560 1.394 . S
C1562 C1563 1.369 . S
C1562 C1566 1.531 . S
C1563 C1562 1.369 . S
C1563 C1564 1.410 . S
C1563 C1571 1.503 . S
C1564 C1563 1.410 . S
C1564 C1565 1.392 . S
C1564 C1567 1.511 . S
C1565 C1561 1.376 . S
C1565 C1564 1.392 . S
C1565 H1577 0.929 . S
C1566 C1562 1.531 . S
C1566 H1578 0.960 . S
C1566 H1579 0.962 . S
C1566 H1580 0.960 . S
C1567 C1564 1.511 . S
C1567 H1581 0.961 . S
C1567 H1582 0.961 . S
C1567 H1583 0.961 . S
C1568 C1569 1.370 . S
C1568 C1570 1.363 . S
C1568 H1584 0.931 . S
C1569 C1568 1.370 . S
C1569 C1573 1.408 . S
C1570 C1568 1.363 . S
C1570 C1571 1.370 . S
C1570 C1574 1.524 . S
C1571 C1563 1.503 . S
C1571 C1570 1.370 . S
C1571 C1572 1.403 . S
C1572 C1571 1.403 . S
C1572 C1573 1.404 . S
C1572 C1575 1.539 . S
C1573 C1569 1.408 . S
C1573 C1572 1.404 . S
C1573 H1585 0.930 . S
C1574 C1570 1.524 . S
C1574 H1586 0.956 . S
C1574 H1587 0.961 . S
C1574 H1588 0.961 . S
C1575 C1572 1.539 . S
C1575 H1589 0.958 . S
C1575 H1590 0.961 . S
C1575 H1591 0.960 . S
H1576 C1560 0.931 . S
H1577 C1565 0.929 . S
H1578 C1566 0.960 . S
H1579 C1566 0.962 . S
H1580 C1566 0.960 . S
H1581 C1567 0.961 . S
H1582 C1567 0.961 . S
H1583 C1567 0.961 . S
H1584 C1568 0.931 . S
H1585 C1573 0.930 . S
H1586 C1574 0.956 . S
H1587 C1574 0.961 . S
H1588 C1574 0.961 . S
H1589 C1575 0.958 . S
H1590 C1575 0.961 . S
H1591 C1575 0.960 . S
C1592 C1593 1.391 . S
C1592 C1594 1.394 . S
C1592 H1608 0.931 . S
C1593 C1592 1.391 . S
C1593 C1597 1.376 . S
C1594 C1592 1.394 . S
C1594 C1595 1.369 . S
C1594 C1598 1.531 . S
C1595 C1594 1.369 . S
C1595 C1596 1.411 . S
C1595 C1603 1.503 . S
C1596 C1595 1.411 . S
C1596 C1597 1.393 . S
C1596 C1599 1.509 1_545 S
C1597 C1593 1.376 . S
C1597 C1596 1.393 . S
C1597 H1609 0.929 1_545 S
C1598 C1594 1.531 . S
C1598 H1610 0.960 . S
C1598 H1611 0.962 . S
C1598 H1612 0.960 . S
C1599 C1596 1.509 1_565 S
C1599 H1613 0.961 . S
C1599 H1614 0.961 . S
C1599 H1615 0.961 . S
C1600 C1601 1.370 . S
C1600 C1602 1.363 . S
C1600 H1616 0.931 . S
C1601 C1600 1.370 . S
C1601 C1605 1.408 1_545 S
C1602 C1600 1.363 . S
C1602 C1603 1.370 . S
C1602 C1606 1.524 . S
C1603 C1595 1.503 . S
C1603 C1602 1.370 . S
C1603 C1604 1.403 1_545 S
C1604 C1603 1.403 1_565 S
C1604 C1605 1.404 . S
C1604 C1607 1.539 . S
C1605 C1601 1.408 1_565 S
C1605 C1604 1.404 . S
C1605 H1617 0.930 . S
C1606 C1602 1.524 . S
C1606 H1618 0.956 . S
C1606 H1619 0.961 . S
C1606 H1620 0.961 . S
C1607 C1604 1.539 . S
C1607 H1621 0.958 . S
C1607 H1622 0.961 . S
C1607 H1623 0.960 . S
H1608 C1592 0.931 . S
H1609 C1597 0.929 1_565 S
H1610 C1598 0.960 . S
H1611 C1598 0.962 . S
H1612 C1598 0.960 . S
H1613 C1599 0.961 . S
H1614 C1599 0.961 . S
H1615 C1599 0.961 . S
H1616 C1600 0.931 . S
H1617 C1605 0.930 . S
H1618 C1606 0.956 . S
H1619 C1606 0.961 . S
H1620 C1606 0.961 . S
H1621 C1607 0.958 . S
H1622 C1607 0.961 . S
H1623 C1607 0.960 . S
C1624 C1625 1.391 . S
C1624 C1626 1.394 . S
C1624 H1640 0.931 . S
C1625 C1624 1.391 . S
C1625 C1629 1.376 . S
C1626 C1624 1.394 . S
C1626 C1627 1.369 . S
C1626 C1630 1.531 . S
C1627 C1626 1.369 . S
C1627 C1628 1.410 . S
C1627 C1635 1.503 . S
C1628 C1627 1.410 . S
C1628 C1629 1.392 . S
C1628 C1631 1.511 . S
C1629 C1625 1.376 . S
C1629 C1628 1.392 . S
C1629 H1641 0.929 . S
C1630 C1626 1.531 . S
C1630 H1642 0.960 . S
C1630 H1643 0.962 . S
C1630 H1644 0.960 . S
C1631 C1628 1.511 . S
C1631 H1645 0.961 . S
C1631 H1646 0.961 . S
C1631 H1647 0.961 . S
C1632 C1633 1.370 . S
C1632 C1634 1.363 . S
C1632 H1648 0.931 . S
C1633 C1632 1.370 . S
C1633 C1637 1.408 . S
C1634 C1632 1.363 . S
C1634 C1635 1.370 . S
C1634 C1638 1.524 . S
C1635 C1627 1.503 . S
C1635 C1634 1.370 . S
C1635 C1636 1.403 . S
C1636 C1635 1.403 . S
C1636 C1637 1.404 . S
C1636 C1639 1.539 . S
C1637 C1633 1.408 . S
C1637 C1636 1.404 . S
C1637 H1649 0.930 . S
C1638 C1634 1.524 . S
C1638 H1650 0.956 . S
C1638 H1651 0.961 . S
C1638 H1652 0.961 . S
C1639 C1636 1.539 . S
C1639 H1653 0.958 . S
C1639 H1654 0.961 . S
C1639 H1655 0.960 . S
H1640 C1624 0.931 . S
H1641 C1629 0.929 . S
H1642 C1630 0.960 . S
H1643 C1630 0.962 . S
H1644 C1630 0.960 . S
H1645 C1631 0.961 . S
H1646 C1631 0.961 . S
H1647 C1631 0.961 . S
H1648 C1632 0.931 . S
H1649 C1637 0.930 . S
H1650 C1638 0.956 . S
H1651 C1638 0.961 . S
H1652 C1638 0.961 . S
H1653 C1639 0.958 . S
H1654 C1639 0.961 . S
H1655 C1639 0.960 . S
C1656 C1657 1.391 . S
C1656 C1658 1.394 . S
C1656 H1672 0.931 . S
C1657 C1656 1.391 . S
C1657 C1661 1.376 . S
C1658 C1656 1.394 . S
C1658 C1659 1.369 . S
C1658 C1662 1.531 . S
C1659 C1658 1.369 . S
C1659 C1660 1.410 . S
C1659 C1667 1.503 . S
C1660 C1659 1.410 . S
C1660 C1661 1.392 . S
C1660 C1663 1.511 . S
C1661 C1657 1.376 . S
C1661 C1660 1.392 . S
C1661 H1673 0.929 . S
C1662 C1658 1.531 . S
C1662 H1674 0.960 . S
C1662 H1675 0.962 . S
C1662 H1676 0.960 . S
C1663 C1660 1.511 . S
C1663 H1677 0.961 . S
C1663 H1678 0.961 . S
C1663 H1679 0.961 . S
C1664 C1665 1.370 . S
C1664 C1666 1.363 . S
C1664 H1680 0.931 . S
C1665 C1664 1.370 . S
C1665 C1669 1.408 . S
C1666 C1664 1.363 . S
C1666 C1667 1.370 . S
C1666 C1670 1.524 . S
C1667 C1659 1.503 . S
C1667 C1666 1.370 . S
C1667 C1668 1.403 . S
C1668 C1667 1.403 . S
C1668 C1669 1.404 . S
C1668 C1671 1.539 . S
C1669 C1665 1.408 . S
C1669 C1668 1.404 . S
C1669 H1681 0.930 . S
C1670 C1666 1.524 . S
C1670 H1682 0.956 . S
C1670 H1683 0.961 . S
C1670 H1684 0.961 . S
C1671 C1668 1.539 . S
C1671 H1685 0.958 . S
C1671 H1686 0.961 . S
C1671 H1687 0.960 . S
H1672 C1656 0.931 . S
H1673 C1661 0.929 . S
H1674 C1662 0.960 . S
H1675 C1662 0.962 . S
H1676 C1662 0.960 . S
H1677 C1663 0.961 . S
H1678 C1663 0.961 . S
H1679 C1663 0.961 . S
H1680 C1664 0.931 . S
H1681 C1669 0.930 . S
H1682 C1670 0.956 . S
H1683 C1670 0.961 . S
H1684 C1670 0.961 . S
H1685 C1671 0.958 . S
H1686 C1671 0.961 . S
H1687 C1671 0.960 . S
C1688 C1689 1.391 . S
C1688 C1690 1.394 . S
C1688 H1704 0.931 . S
C1689 C1688 1.391 . S
C1689 C1693 1.376 . S
C1690 C1688 1.394 . S
C1690 C1691 1.369 . S
C1690 C1694 1.531 . S
C1691 C1690 1.369 . S
C1691 C1692 1.410 . S
C1691 C1699 1.503 . S
C1692 C1691 1.410 . S
C1692 C1693 1.392 . S
C1692 C1695 1.511 . S
C1693 C1689 1.376 . S
C1693 C1692 1.392 . S
C1693 H1705 0.929 . S
C1694 C1690 1.531 . S
C1694 H1706 0.960 . S
C1694 H1707 0.962 . S
C1694 H1708 0.960 . S
C1695 C1692 1.511 . S
C1695 H1709 0.961 . S
C1695 H1710 0.961 . S
C1695 H1711 0.961 . S
C1696 C1697 1.370 . S
C1696 C1698 1.363 . S
C1696 H1712 0.931 . S
C1697 C1696 1.370 . S
C1697 C1701 1.408 . S
C1698 C1696 1.363 . S
C1698 C1699 1.370 . S
C1698 C1702 1.524 . S
C1699 C1691 1.503 . S
C1699 C1698 1.370 . S
C1699 C1700 1.403 . S
C1700 C1699 1.403 . S
C1700 C1701 1.404 . S
C1700 C1703 1.539 . S
C1701 C1697 1.408 . S
C1701 C1700 1.404 . S
C1701 H1713 0.930 . S
C1702 C1698 1.524 . S
C1702 H1714 0.956 . S
C1702 H1715 0.961 . S
C1702 H1716 0.961 . S
C1703 C1700 1.539 . S
C1703 H1717 0.958 . S
C1703 H1718 0.961 . S
C1703 H1719 0.960 . S
H1704 C1688 0.931 . S
H1705 C1693 0.929 . S
H1706 C1694 0.960 . S
H1707 C1694 0.962 . S
H1708 C1694 0.960 . S
H1709 C1695 0.961 . S
H1710 C1695 0.961 . S
H1711 C1695 0.961 . S
H1712 C1696 0.931 . S
H1713 C1701 0.930 . S
H1714 C1702 0.956 . S
H1715 C1702 0.961 . S
H1716 C1702 0.961 . S
H1717 C1703 0.958 . S
H1718 C1703 0.961 . S
H1719 C1703 0.960 . S
C1720 C1721 1.391 . S
C1720 C1722 1.394 . S
C1720 H1736 0.931 . S
C1721 C1720 1.391 . S
C1721 C1725 1.376 . S
C1722 C1720 1.394 . S
C1722 C1723 1.369 . S
C1722 C1726 1.531 . S
C1723 C1722 1.369 . S
C1723 C1724 1.410 . S
C1723 C1731 1.503 . S
C1724 C1723 1.410 . S
C1724 C1725 1.392 . S
C1724 C1727 1.511 . S
C1725 C1721 1.376 . S
C1725 C1724 1.392 . S
C1725 H1737 0.929 . S
C1726 C1722 1.531 . S
C1726 H1738 0.960 . S
C1726 H1739 0.962 . S
C1726 H1740 0.960 . S
C1727 C1724 1.511 . S
C1727 H1741 0.961 . S
C1727 H1742 0.961 . S
C1727 H1743 0.961 1_545 S
C1728 C1729 1.370 . S
C1728 C1730 1.363 . S
C1728 H1744 0.931 . S
C1729 C1728 1.370 . S
C1729 C1733 1.408 . S
C1730 C1728 1.363 . S
C1730 C1731 1.370 . S
C1730 C1734 1.524 . S
C1731 C1723 1.503 . S
C1731 C1730 1.370 . S
C1731 C1732 1.403 . S
C1732 C1731 1.403 . S
C1732 C1733 1.404 . S
C1732 C1735 1.539 1_545 S
C1733 C1729 1.408 . S
C1733 C1732 1.404 . S
C1733 H1745 0.930 1_545 S
C1734 C1730 1.524 . S
C1734 H1746 0.956 . S
C1734 H1747 0.961 . S
C1734 H1748 0.961 . S
C1735 C1732 1.539 1_565 S
C1735 H1749 0.958 . S
C1735 H1750 0.961 . S
C1735 H1751 0.960 . S
H1736 C1720 0.931 . S
H1737 C1725 0.929 . S
H1738 C1726 0.960 . S
H1739 C1726 0.962 . S
H1740 C1726 0.960 . S
H1741 C1727 0.961 . S
H1742 C1727 0.961 . S
H1743 C1727 0.961 1_565 S
H1744 C1728 0.931 . S
H1745 C1733 0.930 1_565 S
H1746 C1734 0.956 . S
H1747 C1734 0.961 . S
H1748 C1734 0.961 . S
H1749 C1735 0.958 . S
H1750 C1735 0.961 . S
H1751 C1735 0.960 . S
C1752 C1753 1.391 . S
C1752 C1754 1.394 . S
C1752 H1768 0.931 . S
C1753 C1752 1.391 . S
C1753 C1757 1.376 . S
C1754 C1752 1.394 . S
C1754 C1755 1.369 . S
C1754 C1758 1.531 . S
C1755 C1754 1.369 . S
C1755 C1756 1.410 . S
C1755 C1763 1.503 . S
C1756 C1755 1.410 . S
C1756 C1757 1.392 . S
C1756 C1759 1.511 . S
C1757 C1753 1.376 . S
C1757 C1756 1.392 . S
C1757 H1769 0.929 . S
C1758 C1754 1.531 . S
C1758 H1770 0.960 . S
C1758 H1771 0.962 . S
C1758 H1772 0.960 . S
C1759 C1756 1.511 . S
C1759 H1773 0.961 . S
C1759 H1774 0.961 . S
C1759 H1775 0.961 . S
C1760 C1761 1.370 . S
C1760 C1762 1.363 . S
C1760 H1776 0.931 . S
C1761 C1760 1.370 . S
C1761 C1765 1.408 . S
C1762 C1760 1.363 . S
C1762 C1763 1.370 . S
C1762 C1766 1.524 . S
C1763 C1755 1.503 . S
C1763 C1762 1.370 . S
C1763 C1764 1.403 . S
C1764 C1763 1.403 . S
C1764 C1765 1.404 . S
C1764 C1767 1.539 . S
C1765 C1761 1.408 . S
C1765 C1764 1.404 . S
C1765 H1777 0.930 . S
C1766 C1762 1.524 . S
C1766 H1778 0.956 . S
C1766 H1779 0.961 . S
C1766 H1780 0.961 . S
C1767 C1764 1.539 . S
C1767 H1781 0.958 . S
C1767 H1782 0.961 . S
C1767 H1783 0.960 . S
H1768 C1752 0.931 . S
H1769 C1757 0.929 . S
H1770 C1758 0.960 . S
H1771 C1758 0.962 . S
H1772 C1758 0.960 . S
H1773 C1759 0.961 . S
H1774 C1759 0.961 . S
H1775 C1759 0.961 . S
H1776 C1760 0.931 . S
H1777 C1765 0.930 . S
H1778 C1766 0.956 . S
H1779 C1766 0.961 . S
H1780 C1766 0.961 . S
H1781 C1767 0.958 . S
H1782 C1767 0.961 . S
H1783 C1767 0.960 . S
C1784 C1785 1.391 . S
C1784 C1786 1.394 . S
C1784 H1800 0.931 . S
C1785 C1784 1.391 . S
C1785 C1789 1.376 . S
C1786 C1784 1.394 . S
C1786 C1787 1.369 . S
C1786 C1790 1.531 . S
C1787 C1786 1.369 . S
C1787 C1788 1.410 . S
C1787 C1795 1.503 . S
C1788 C1787 1.410 . S
C1788 C1789 1.392 . S
C1788 C1791 1.511 . S
C1789 C1785 1.376 . S
C1789 C1788 1.392 . S
C1789 H1801 0.929 . S
C1790 C1786 1.531 . S
C1790 H1802 0.960 . S
C1790 H1803 0.962 . S
C1790 H1804 0.960 . S
C1791 C1788 1.511 . S
C1791 H1805 0.961 . S
C1791 H1806 0.961 . S
C1791 H1807 0.961 . S
C1792 C1793 1.370 . S
C1792 C1794 1.363 . S
C1792 H1808 0.931 . S
C1793 C1792 1.370 . S
C1793 C1797 1.408 . S
C1794 C1792 1.363 . S
C1794 C1795 1.370 . S
C1794 C1798 1.524 . S
C1795 C1787 1.503 . S
C1795 C1794 1.370 . S
C1795 C1796 1.403 . S
C1796 C1795 1.403 . S
C1796 C1797 1.404 . S
C1796 C1799 1.539 . S
C1797 C1793 1.408 . S
C1797 C1796 1.404 . S
C1797 H1809 0.930 . S
C1798 C1794 1.524 . S
C1798 H1810 0.956 . S
C1798 H1811 0.961 . S
C1798 H1812 0.961 . S
C1799 C1796 1.539 . S
C1799 H1813 0.958 . S
C1799 H1814 0.961 . S
C1799 H1815 0.960 . S
H1800 C1784 0.931 . S
H1801 C1789 0.929 . S
H1802 C1790 0.960 . S
H1803 C1790 0.962 . S
H1804 C1790 0.960 . S
H1805 C1791 0.961 . S
H1806 C1791 0.961 . S
H1807 C1791 0.961 . S
H1808 C1792 0.931 . S
H1809 C1797 0.930 . S
H1810 C1798 0.956 . S
H1811 C1798 0.961 . S
H1812 C1798 0.961 . S
H1813 C1799 0.958 . S
H1814 C1799 0.961 . S
H1815 C1799 0.960 . S
C1816 C1817 1.391 . S
C1816 C1818 1.394 . S
C1816 H1832 0.931 . S
C1817 C1816 1.391 . S
C1817 C1821 1.376 . S
C1818 C1816 1.394 . S
C1818 C1819 1.369 . S
C1818 C1822 1.531 . S
C1819 C1818 1.369 . S
C1819 C1820 1.410 . S
C1819 C1827 1.503 . S
C1820 C1819 1.410 . S
C1820 C1821 1.392 . S
C1820 C1823 1.511 . S
C1821 C1817 1.376 . S
C1821 C1820 1.392 . S
C1821 H1833 0.929 . S
C1822 C1818 1.531 . S
C1822 H1834 0.960 . S
C1822 H1835 0.962 . S
C1822 H1836 0.960 . S
C1823 C1820 1.511 . S
C1823 H1837 0.961 . S
C1823 H1838 0.961 . S
C1823 H1839 0.961 . S
C1824 C1825 1.370 . S
C1824 C1826 1.363 . S
C1824 H1840 0.931 . S
C1825 C1824 1.370 . S
C1825 C1829 1.408 . S
C1826 C1824 1.363 . S
C1826 C1827 1.370 . S
C1826 C1830 1.524 . S
C1827 C1819 1.503 . S
C1827 C1826 1.370 . S
C1827 C1828 1.403 . S
C1828 C1827 1.403 . S
C1828 C1829 1.404 . S
C1828 C1831 1.539 . S
C1829 C1825 1.408 . S
C1829 C1828 1.404 . S
C1829 H1841 0.930 . S
C1830 C1826 1.524 . S
C1830 H1842 0.956 . S
C1830 H1843 0.961 . S
C1830 H1844 0.961 . S
C1831 C1828 1.539 . S
C1831 H1845 0.958 . S
C1831 H1846 0.961 . S
C1831 H1847 0.960 . S
H1832 C1816 0.931 . S
H1833 C1821 0.929 . S
H1834 C1822 0.960 . S
H1835 C1822 0.962 . S
H1836 C1822 0.960 . S
H1837 C1823 0.961 . S
H1838 C1823 0.961 . S
H1839 C1823 0.961 . S
H1840 C1824 0.931 . S
H1841 C1829 0.930 . S
H1842 C1830 0.956 . S
H1843 C1830 0.961 . S
H1844 C1830 0.961 . S
H1845 C1831 0.958 . S
H1846 C1831 0.961 . S
H1847 C1831 0.960 . S
C1848 C1849 1.408 . S
C1848 C1850 1.385 1_655 S
C1848 H1864 0.922 1_656 S
C1849 C1848 1.408 . S
C1849 C1853 1.376 . S
C1850 C1848 1.385 1_455 S
C1850 C1851 1.363 1_455 S
C1850 C1854 1.540 . S
C1851 C1850 1.363 1_655 S
C1851 C1852 1.410 . S
C1851 C1859 1.515 . S
C1852 C1851 1.410 . S
C1852 C1853 1.392 . S
C1852 C1855 1.511 . S
C1853 C1849 1.376 . S
C1853 C1852 1.392 . S
C1853 H1865 0.929 . S
C1854 C1850 1.540 . S
C1854 H1866 0.960 . S
C1854 H1867 0.962 . S
C1854 H1868 0.960 . S
C1855 C1852 1.511 . S
C1855 H1869 0.961 . S
C1855 H1870 0.961 . S
C1855 H1871 0.961 . S
C1856 C1857 1.370 . S
C1856 C1858 1.363 . S
C1856 H1872 0.931 . S
C1857 C1856 1.370 . S
C1857 C1861 1.408 1_455 S
C1858 C1856 1.363 . S
C1858 C1859 1.331 1_455 S
C1858 C1862 1.524 . S
C1859 C1851 1.515 . S
C1859 C1858 1.331 1_655 S
C1859 C1860 1.431 . S
C1860 C1859 1.431 . S
C1860 C1861 1.404 . S
C1860 C1863 1.539 . S
C1861 C1857 1.408 1_655 S
C1861 C1860 1.404 . S
C1861 H1873 0.930 . S
C1862 C1858 1.524 . S
C1862 H1874 0.956 . S
C1862 H1875 0.961 . S
C1862 H1876 0.961 . S
C1863 C1860 1.539 . S
C1863 H1877 0.958 . S
C1863 H1878 0.961 . S
C1863 H1879 0.960 . S
H1864 C1848 0.922 1_454 S
H1865 C1853 0.929 . S
H1866 C1854 0.960 . S
H1867 C1854 0.962 . S
H1868 C1854 0.960 . S
H1869 C1855 0.961 . S
H1870 C1855 0.961 . S
H1871 C1855 0.961 . S
H1872 C1856 0.931 . S
H1873 C1861 0.930 . S
H1874 C1862 0.956 . S
H1875 C1862 0.961 . S
H1876 C1862 0.961 . S
H1877 C1863 0.958 . S
H1878 C1863 0.961 . S
H1879 C1863 0.960 . S
C1880 C1881 1.391 . S
C1880 C1882 1.394 . S
C1880 H1896 0.931 . S
C1881 C1880 1.391 . S
C1881 C1885 1.376 . S
C1882 C1880 1.394 . S
C1882 C1883 1.369 . S
C1882 C1886 1.531 . S
C1883 C1882 1.369 . S
C1883 C1884 1.410 . S
C1883 C1891 1.503 . S
C1884 C1883 1.410 . S
C1884 C1885 1.392 . S
C1884 C1887 1.511 . S
C1885 C1881 1.376 . S
C1885 C1884 1.392 . S
C1885 H1897 0.929 . S
C1886 C1882 1.531 . S
C1886 H1898 0.960 . S
C1886 H1899 0.962 . S
C1886 H1900 0.960 . S
C1887 C1884 1.511 . S
C1887 H1901 0.961 . S
C1887 H1902 0.961 . S
C1887 H1903 0.961 . S
C1888 C1889 1.370 . S
C1888 C1890 1.363 . S
C1888 H1904 0.931 . S
C1889 C1888 1.370 . S
C1889 C1893 1.408 . S
C1890 C1888 1.363 . S
C1890 C1891 1.370 . S
C1890 C1894 1.524 . S
C1891 C1883 1.503 . S
C1891 C1890 1.370 . S
C1891 C1892 1.403 . S
C1892 C1891 1.403 . S
C1892 C1893 1.404 . S
C1892 C1895 1.539 . S
C1893 C1889 1.408 . S
C1893 C1892 1.404 . S
C1893 H1905 0.930 . S
C1894 C1890 1.524 . S
C1894 H1906 0.956 . S
C1894 H1907 0.961 . S
C1894 H1908 0.961 . S
C1895 C1892 1.539 . S
C1895 H1909 0.958 . S
C1895 H1910 0.961 . S
C1895 H1911 0.960 . S
H1896 C1880 0.931 . S
H1897 C1885 0.929 . S
H1898 C1886 0.960 . S
H1899 C1886 0.962 . S
H1900 C1886 0.960 . S
H1901 C1887 0.961 . S
H1902 C1887 0.961 . S
H1903 C1887 0.961 . S
H1904 C1888 0.931 . S
H1905 C1893 0.930 . S
H1906 C1894 0.956 . S
H1907 C1894 0.961 . S
H1908 C1894 0.961 . S
H1909 C1895 0.958 . S
H1910 C1895 0.961 . S
H1911 C1895 0.960 . S
C1912 C1913 1.391 . S
C1912 C1914 1.394 . S
C1912 H1928 0.931 . S
C1913 C1912 1.391 . S
C1913 C1917 1.376 . S
C1914 C1912 1.394 . S
C1914 C1915 1.369 . S
C1914 C1918 1.531 . S
C1915 C1914 1.369 . S
C1915 C1916 1.410 . S
C1915 C1923 1.503 . S
C1916 C1915 1.410 . S
C1916 C1917 1.392 . S
C1916 C1919 1.511 1_455 S
C1917 C1913 1.376 . S
C1917 C1916 1.392 . S
C1917 H1929 0.929 1_455 S
C1918 C1914 1.531 . S
C1918 H1930 0.960 . S
C1918 H1931 0.962 . S
C1918 H1932 0.960 . S
C1919 C1916 1.511 1_655 S
C1919 H1933 0.961 . S
C1919 H1934 0.961 . S
C1919 H1935 0.961 . S
C1920 C1921 1.370 . S
C1920 C1922 1.363 . S
C1920 H1936 0.931 . S
C1921 C1920 1.370 . S
C1921 C1925 1.408 . S
C1922 C1920 1.363 . S
C1922 C1923 1.370 . S
C1922 C1926 1.524 . S
C1923 C1915 1.503 . S
C1923 C1922 1.370 . S
C1923 C1924 1.403 . S
C1924 C1923 1.403 . S
C1924 C1925 1.404 . S
C1924 C1927 1.531 1_455 S
C1925 C1921 1.408 . S
C1925 C1924 1.404 . S
C1925 H1937 0.930 . S
C1926 C1922 1.524 . S
C1926 H1938 0.956 . S
C1926 H1939 0.961 . S
C1926 H1940 0.961 . S
C1927 C1924 1.531 1_655 S
C1927 H1941 0.944 1_655 S
C1927 H1942 0.978 . S
C1927 H1943 0.967 . S
H1928 C1912 0.931 . S
H1929 C1917 0.929 1_655 S
H1930 C1918 0.960 . S
H1931 C1918 0.962 . S
H1932 C1918 0.960 . S
H1933 C1919 0.961 . S
H1934 C1919 0.961 . S
H1935 C1919 0.961 . S
H1936 C1920 0.931 . S
H1937 C1925 0.930 . S
H1938 C1926 0.956 . S
H1939 C1926 0.961 . S
H1940 C1926 0.961 . S
H1941 C1927 0.944 1_455 S
H1942 C1927 0.978 . S
H1943 C1927 0.967 . S
C1944 C1945 1.391 . S
C1944 C1946 1.394 . S
C1944 H1960 0.931 . S
C1945 C1944 1.391 . S
C1945 C1949 1.376 . S
C1946 C1944 1.394 . S
C1946 C1947 1.369 . S
C1946 C1950 1.531 . S
C1947 C1946 1.369 . S
C1947 C1948 1.410 . S
C1947 C1955 1.503 . S
C1948 C1947 1.410 . S
C1948 C1949 1.392 . S
C1948 C1951 1.511 . S
C1949 C1945 1.376 . S
C1949 C1948 1.392 . S
C1949 H1961 0.929 . S
C1950 C1946 1.531 . S
C1950 H1962 0.960 . S
C1950 H1963 0.962 . S
C1950 H1964 0.960 . S
C1951 C1948 1.511 . S
C1951 H1965 0.961 . S
C1951 H1966 0.961 . S
C1951 H1967 0.961 . S
C1952 C1953 1.370 . S
C1952 C1954 1.363 . S
C1952 H1968 0.931 . S
C1953 C1952 1.370 . S
C1953 C1957 1.408 . S
C1954 C1952 1.363 . S
C1954 C1955 1.370 . S
C1954 C1958 1.524 . S
C1955 C1947 1.503 . S
C1955 C1954 1.370 . S
C1955 C1956 1.403 . S
C1956 C1955 1.403 . S
C1956 C1957 1.404 . S
C1956 C1959 1.539 . S
C1957 C1953 1.408 . S
C1957 C1956 1.404 . S
C1957 H1969 0.930 . S
C1958 C1954 1.524 . S
C1958 H1970 0.956 . S
C1958 H1971 0.961 . S
C1958 H1972 0.961 . S
C1959 C1956 1.539 . S
C1959 H1973 0.958 . S
C1959 H1974 0.961 . S
C1959 H1975 0.960 . S
H1960 C1944 0.931 . S
H1961 C1949 0.929 . S
H1962 C1950 0.960 . S
H1963 C1950 0.962 . S
H1964 C1950 0.960 . S
H1965 C1951 0.961 . S
H1966 C1951 0.961 . S
H1967 C1951 0.961 . S
H1968 C1952 0.931 . S
H1969 C1957 0.930 . S
H1970 C1958 0.956 . S
H1971 C1958 0.961 . S
H1972 C1958 0.961 . S
H1973 C1959 0.958 . S
H1974 C1959 0.961 . S
H1975 C1959 0.960 . S
C1976 C1977 1.391 . S
C1976 C1978 1.394 . S
C1976 H1992 0.931 . S
C1977 C1976 1.391 . S
C1977 C1981 1.376 . S
C1978 C1976 1.394 . S
C1978 C1979 1.369 . S
C1978 C1982 1.531 . S
C1979 C1978 1.369 . S
C1979 C1980 1.410 . S
C1979 C1987 1.503 . S
C1980 C1979 1.410 . S
C1980 C1981 1.392 . S
C1980 C1983 1.511 . S
C1981 C1977 1.376 . S
C1981 C1980 1.392 . S
C1981 H1993 0.929 . S
C1982 C1978 1.531 . S
C1982 H1994 0.960 . S
C1982 H1995 0.962 . S
C1982 H1996 0.960 . S
C1983 C1980 1.511 . S
C1983 H1997 0.961 . S
C1983 H1998 0.961 . S
C1983 H1999 0.961 . S
C1984 C1985 1.370 . S
C1984 C1986 1.363 . S
C1984 H2000 0.931 . S
C1985 C1984 1.370 . S
C1985 C1989 1.408 . S
C1986 C1984 1.363 . S
C1986 C1987 1.370 . S
C1986 C1990 1.524 . S
C1987 C1979 1.503 . S
C1987 C1986 1.370 . S
C1987 C1988 1.403 . S
C1988 C1987 1.403 . S
C1988 C1989 1.404 . S
C1988 C1991 1.539 . S
C1989 C1985 1.408 . S
C1989 C1988 1.404 . S
C1989 H2001 0.930 . S
C1990 C1986 1.524 . S
C1990 H2002 0.956 . S
C1990 H2003 0.961 . S
C1990 H2004 0.961 . S
C1991 C1988 1.539 . S
C1991 H2005 0.958 . S
C1991 H2006 0.961 . S
C1991 H2007 0.960 . S
H1992 C1976 0.931 . S
H1993 C1981 0.929 . S
H1994 C1982 0.960 . S
H1995 C1982 0.962 . S
H1996 C1982 0.960 . S
H1997 C1983 0.961 . S
H1998 C1983 0.961 . S
H1999 C1983 0.961 . S
H2000 C1984 0.931 . S
H2001 C1989 0.930 . S
H2002 C1990 0.956 . S
H2003 C1990 0.961 . S
H2004 C1990 0.961 . S
H2005 C1991 0.958 . S
H2006 C1991 0.961 . S
H2007 C1991 0.960 . S
C2008 C2009 1.391 . S
C2008 C2010 1.394 . S
C2008 H2024 0.931 . S
C2009 C2008 1.391 . S
C2009 C2013 1.376 . S
C2010 C2008 1.394 . S
C2010 C2011 1.369 . S
C2010 C2014 1.531 . S
C2011 C2010 1.369 . S
C2011 C2012 1.410 . S
C2011 C2019 1.503 . S
C2012 C2011 1.410 . S
C2012 C2013 1.392 . S
C2012 C2015 1.511 . S
C2013 C2009 1.376 . S
C2013 C2012 1.392 . S
C2013 H2025 0.929 . S
C2014 C2010 1.531 . S
C2014 H2026 0.960 . S
C2014 H2027 0.962 . S
C2014 H2028 0.960 . S
C2015 C2012 1.511 . S
C2015 H2029 0.961 . S
C2015 H2030 0.961 . S
C2015 H2031 0.961 . S
C2016 C2017 1.370 . S
C2016 C2018 1.363 . S
C2016 H2032 0.931 . S
C2017 C2016 1.370 . S
C2017 C2021 1.408 . S
C2018 C2016 1.363 . S
C2018 C2019 1.370 . S
C2018 C2022 1.524 . S
C2019 C2011 1.503 . S
C2019 C2018 1.370 . S
C2019 C2020 1.403 . S
C2020 C2019 1.403 . S
C2020 C2021 1.404 . S
C2020 C2023 1.539 . S
C2021 C2017 1.408 . S
C2021 C2020 1.404 . S
C2021 H2033 0.930 . S
C2022 C2018 1.524 . S
C2022 H2034 0.956 . S
C2022 H2035 0.961 . S
C2022 H2036 0.961 . S
C2023 C2020 1.539 . S
C2023 H2037 0.958 . S
C2023 H2038 0.961 . S
C2023 H2039 0.960 . S
H2024 C2008 0.931 . S
H2025 C2013 0.929 . S
H2026 C2014 0.960 . S
H2027 C2014 0.962 . S
H2028 C2014 0.960 . S
H2029 C2015 0.961 . S
H2030 C2015 0.961 . S
H2031 C2015 0.961 . S
H2032 C2016 0.931 . S
H2033 C2021 0.930 . S
H2034 C2022 0.956 . S
H2035 C2022 0.961 . S
H2036 C2022 0.961 . S
H2037 C2023 0.958 . S
H2038 C2023 0.961 . S
H2039 C2023 0.960 . S
C2040 C2041 1.391 . S
C2040 C2042 1.394 . S
C2040 H2056 0.931 . S
C2041 C2040 1.391 . S
C2041 C2045 1.376 . S
C2042 C2040 1.394 . S
C2042 C2043 1.369 . S
C2042 C2046 1.531 . S
C2043 C2042 1.369 . S
C2043 C2044 1.410 . S
C2043 C2051 1.503 . S
C2044 C2043 1.410 . S
C2044 C2045 1.392 . S
C2044 C2047 1.511 . S
C2045 C2041 1.376 . S
C2045 C2044 1.392 . S
C2045 H2057 0.929 . S
C2046 C2042 1.531 . S
C2046 H2058 0.960 . S
C2046 H2059 0.962 . S
C2046 H2060 0.960 . S
C2047 C2044 1.511 . S
C2047 H2061 0.961 . S
C2047 H2062 0.961 . S
C2047 H2063 0.961 . S
C2048 C2049 1.370 . S
C2048 C2050 1.363 . S
C2048 H2064 0.931 . S
C2049 C2048 1.370 . S
C2049 C2053 1.408 . S
C2050 C2048 1.363 . S
C2050 C2051 1.370 . S
C2050 C2054 1.524 . S
C2051 C2043 1.503 . S
C2051 C2050 1.370 . S
C2051 C2052 1.403 . S
C2052 C2051 1.403 . S
C2052 C2053 1.404 . S
C2052 C2055 1.539 . S
C2053 C2049 1.408 . S
C2053 C2052 1.404 . S
C2053 H2065 0.930 . S
C2054 C2050 1.524 . S
C2054 H2066 0.956 . S
C2054 H2067 0.961 . S
C2054 H2068 0.961 . S
C2055 C2052 1.539 . S
C2055 H2069 0.958 . S
C2055 H2070 0.961 . S
C2055 H2071 0.960 . S
H2056 C2040 0.931 . S
H2057 C2045 0.929 . S
H2058 C2046 0.960 . S
H2059 C2046 0.962 . S
H2060 C2046 0.960 . S
H2061 C2047 0.961 . S
H2062 C2047 0.961 . S
H2063 C2047 0.961 . S
H2064 C2048 0.931 . S
H2065 C2053 0.930 . S
H2066 C2054 0.956 . S
H2067 C2054 0.961 . S
H2068 C2054 0.961 . S
H2069 C2055 0.958 . S
H2070 C2055 0.961 . S
H2071 C2055 0.960 . S
C2072 C2073 1.391 . S
C2072 C2074 1.394 . S
C2072 H2088 0.931 . S
C2073 C2072 1.391 . S
C2073 C2077 1.376 . S
C2074 C2072 1.394 . S
C2074 C2075 1.369 . S
C2074 C2078 1.531 . S
C2075 C2074 1.369 . S
C2075 C2076 1.410 . S
C2075 C2083 1.503 . S
C2076 C2075 1.410 . S
C2076 C2077 1.392 . S
C2076 C2079 1.511 . S
C2077 C2073 1.376 . S
C2077 C2076 1.392 . S
C2077 H2089 0.929 . S
C2078 C2074 1.531 . S
C2078 H2090 0.960 . S
C2078 H2091 0.962 . S
C2078 H2092 0.960 . S
C2079 C2076 1.511 . S
C2079 H2093 0.961 . S
C2079 H2094 0.961 . S
C2079 H2095 0.961 . S
C2080 C2081 1.370 . S
C2080 C2082 1.363 . S
C2080 H2096 0.931 . S
C2081 C2080 1.370 . S
C2081 C2085 1.408 . S
C2082 C2080 1.363 . S
C2082 C2083 1.370 . S
C2082 C2086 1.524 . S
C2083 C2075 1.503 . S
C2083 C2082 1.370 . S
C2083 C2084 1.403 . S
C2084 C2083 1.403 . S
C2084 C2085 1.404 . S
C2084 C2087 1.539 . S
C2085 C2081 1.408 . S
C2085 C2084 1.404 . S
C2085 H2097 0.930 . S
C2086 C2082 1.524 . S
C2086 H2098 0.956 . S
C2086 H2099 0.961 . S
C2086 H2100 0.961 . S
C2087 C2084 1.539 . S
C2087 H2101 0.958 . S
C2087 H2102 0.961 . S
C2087 H2103 0.960 . S
H2088 C2072 0.931 . S
H2089 C2077 0.929 . S
H2090 C2078 0.960 . S
H2091 C2078 0.962 . S
H2092 C2078 0.960 . S
H2093 C2079 0.961 . S
H2094 C2079 0.961 . S
H2095 C2079 0.961 . S
H2096 C2080 0.931 . S
H2097 C2085 0.930 . S
H2098 C2086 0.956 . S
H2099 C2086 0.961 . S
H2100 C2086 0.961 . S
H2101 C2087 0.958 . S
H2102 C2087 0.961 . S
H2103 C2087 0.960 . S
C2104 C2105 1.391 . S
C2104 C2106 1.394 . S
C2104 H2120 0.931 . S
C2105 C2104 1.391 . S
C2105 C2109 1.376 . S
C2106 C2104 1.394 . S
C2106 C2107 1.369 . S
C2106 C2110 1.531 . S
C2107 C2106 1.369 . S
C2107 C2108 1.410 . S
C2107 C2115 1.503 . S
C2108 C2107 1.410 . S
C2108 C2109 1.392 . S
C2108 C2111 1.511 . S
C2109 C2105 1.376 . S
C2109 C2108 1.392 . S
C2109 H2121 0.929 . S
C2110 C2106 1.531 . S
C2110 H2122 0.960 . S
C2110 H2123 0.962 . S
C2110 H2124 0.960 . S
C2111 C2108 1.511 . S
C2111 H2125 0.961 . S
C2111 H2126 0.961 . S
C2111 H2127 0.961 . S
C2112 C2113 1.370 . S
C2112 C2114 1.363 . S
C2112 H2128 0.931 . S
C2113 C2112 1.370 . S
C2113 C2117 1.408 . S
C2114 C2112 1.363 . S
C2114 C2115 1.370 . S
C2114 C2118 1.524 . S
C2115 C2107 1.503 . S
C2115 C2114 1.370 . S
C2115 C2116 1.403 . S
C2116 C2115 1.403 . S
C2116 C2117 1.404 . S
C2116 C2119 1.539 . S
C2117 C2113 1.408 . S
C2117 C2116 1.404 . S
C2117 H2129 0.930 . S
C2118 C2114 1.524 . S
C2118 H2130 0.956 . S
C2118 H2131 0.961 . S
C2118 H2132 0.961 . S
C2119 C2116 1.539 . S
C2119 H2133 0.958 . S
C2119 H2134 0.961 . S
C2119 H2135 0.960 . S
H2120 C2104 0.931 . S
H2121 C2109 0.929 . S
H2122 C2110 0.960 . S
H2123 C2110 0.962 . S
H2124 C2110 0.960 . S
H2125 C2111 0.961 . S
H2126 C2111 0.961 . S
H2127 C2111 0.961 . S
H2128 C2112 0.931 . S
H2129 C2117 0.930 . S
H2130 C2118 0.956 . S
H2131 C2118 0.961 . S
H2132 C2118 0.961 . S
H2133 C2119 0.958 . S
H2134 C2119 0.961 . S
H2135 C2119 0.960 . S
C2136 C2137 1.391 . S
C2136 C2138 1.394 . S
C2136 H2152 0.931 . S
C2137 C2136 1.391 . S
C2137 C2141 1.376 . S
C2138 C2136 1.394 . S
C2138 C2139 1.369 . S
C2138 C2142 1.531 . S
C2139 C2138 1.369 . S
C2139 C2140 1.410 . S
C2139 C2147 1.503 . S
C2140 C2139 1.410 . S
C2140 C2141 1.392 . S
C2140 C2143 1.511 . S
C2141 C2137 1.376 . S
C2141 C2140 1.392 . S
C2141 H2153 0.929 . S
C2142 C2138 1.531 . S
C2142 H2154 0.960 . S
C2142 H2155 0.962 . S
C2142 H2156 0.960 . S
C2143 C2140 1.511 . S
C2143 H2157 0.961 . S
C2143 H2158 0.961 . S
C2143 H2159 0.961 . S
C2144 C2145 1.370 . S
C2144 C2146 1.363 . S
C2144 H2160 0.931 . S
C2145 C2144 1.370 . S
C2145 C2149 1.408 . S
C2146 C2144 1.363 . S
C2146 C2147 1.370 . S
C2146 C2150 1.524 . S
C2147 C2139 1.503 . S
C2147 C2146 1.370 . S
C2147 C2148 1.403 . S
C2148 C2147 1.403 . S
C2148 C2149 1.404 . S
C2148 C2151 1.539 . S
C2149 C2145 1.408 . S
C2149 C2148 1.404 . S
C2149 H2161 0.930 . S
C2150 C2146 1.524 . S
C2150 H2162 0.956 . S
C2150 H2163 0.961 . S
C2150 H2164 0.961 . S
C2151 C2148 1.539 . S
C2151 H2165 0.958 . S
C2151 H2166 0.961 . S
C2151 H2167 0.960 . S
H2152 C2136 0.931 . S
H2153 C2141 0.929 . S
H2154 C2142 0.960 . S
H2155 C2142 0.962 . S
H2156 C2142 0.960 . S
H2157 C2143 0.961 . S
H2158 C2143 0.961 . S
H2159 C2143 0.961 . S
H2160 C2144 0.931 . S
H2161 C2149 0.930 . S
H2162 C2150 0.956 . S
H2163 C2150 0.961 . S
H2164 C2150 0.961 . S
H2165 C2151 0.958 . S
H2166 C2151 0.961 . S
H2167 C2151 0.960 . S
C2168 C2169 1.391 . S
C2168 C2170 1.394 . S
C2168 H2184 0.931 . S
C2169 C2168 1.391 . S
C2169 C2173 1.376 . S
C2170 C2168 1.394 . S
C2170 C2171 1.369 . S
C2170 C2174 1.531 . S
C2171 C2170 1.369 . S
C2171 C2172 1.410 . S
C2171 C2179 1.503 . S
C2172 C2171 1.410 . S
C2172 C2173 1.392 . S
C2172 C2175 1.511 . S
C2173 C2169 1.376 . S
C2173 C2172 1.392 . S
C2173 H2185 0.929 . S
C2174 C2170 1.531 . S
C2174 H2186 0.960 . S
C2174 H2187 0.962 . S
C2174 H2188 0.960 . S
C2175 C2172 1.511 . S
C2175 H2189 0.961 . S
C2175 H2190 0.961 . S
C2175 H2191 0.961 . S
C2176 C2177 1.370 . S
C2176 C2178 1.363 . S
C2176 H2192 0.931 . S
C2177 C2176 1.370 . S
C2177 C2181 1.408 . S
C2178 C2176 1.363 . S
C2178 C2179 1.370 . S
C2178 C2182 1.524 . S
C2179 C2171 1.503 . S
C2179 C2178 1.370 . S
C2179 C2180 1.403 . S
C2180 C2179 1.403 . S
C2180 C2181 1.404 . S
C2180 C2183 1.539 . S
C2181 C2177 1.408 . S
C2181 C2180 1.404 . S
C2181 H2193 0.930 . S
C2182 C2178 1.524 . S
C2182 H2194 0.956 . S
C2182 H2195 0.961 . S
C2182 H2196 0.961 . S
C2183 C2180 1.539 . S
C2183 H2197 0.958 . S
C2183 H2198 0.961 . S
C2183 H2199 0.960 . S
H2184 C2168 0.931 . S
H2185 C2173 0.929 . S
H2186 C2174 0.960 . S
H2187 C2174 0.962 . S
H2188 C2174 0.960 . S
H2189 C2175 0.961 . S
H2190 C2175 0.961 . S
H2191 C2175 0.961 . S
H2192 C2176 0.931 . S
H2193 C2181 0.930 . S
H2194 C2182 0.956 . S
H2195 C2182 0.961 . S
H2196 C2182 0.961 . S
H2197 C2183 0.958 . S
H2198 C2183 0.961 . S
H2199 C2183 0.960 . S
C2200 C2201 1.391 . S
C2200 C2202 1.394 . S
C2200 H2216 0.931 . S
C2201 C2200 1.391 . S
C2201 C2205 1.376 . S
C2202 C2200 1.394 . S
C2202 C2203 1.369 . S
C2202 C2206 1.531 . S
C2203 C2202 1.369 . S
C2203 C2204 1.410 . S
C2203 C2211 1.503 . S
C2204 C2203 1.410 . S
C2204 C2205 1.392 . S
C2204 C2207 1.510 1_556 S
C2205 C2201 1.376 . S
C2205 C2204 1.392 . S
C2205 H2217 0.929 . S
C2206 C2202 1.531 . S
C2206 H2218 0.960 . S
C2206 H2219 0.962 . S
C2206 H2220 0.960 . S
C2207 C2204 1.510 1_554 S
C2207 H2221 0.962 . S
C2207 H2222 0.962 . S
C2207 H2223 0.959 1_554 S
C2208 C2209 1.370 1_554 S
C2208 C2210 1.363 . S
C2208 H2224 0.931 . S
C2209 C2208 1.370 1_556 S
C2209 C2213 1.408 . S
C2210 C2208 1.363 . S
C2210 C2211 1.370 1_554 S
C2210 C2214 1.524 . S
C2211 C2203 1.503 . S
C2211 C2210 1.370 1_556 S
C2211 C2212 1.403 . S
C2212 C2211 1.403 . S
C2212 C2213 1.404 . S
C2212 C2215 1.539 . S
C2213 C2209 1.408 . S
C2213 C2212 1.404 . S
C2213 H2225 0.930 . S
C2214 C2210 1.524 . S
C2214 H2226 0.956 . S
C2214 H2227 0.961 . S
C2214 H2228 0.961 . S
C2215 C2212 1.539 . S
C2215 H2229 0.958 . S
C2215 H2230 0.961 . S
C2215 H2231 0.960 . S
H2216 C2200 0.931 . S
H2217 C2205 0.929 . S
H2218 C2206 0.960 . S
H2219 C2206 0.962 . S
H2220 C2206 0.960 . S
H2221 C2207 0.962 . S
H2222 C2207 0.962 . S
H2223 C2207 0.959 1_556 S
H2224 C2208 0.931 . S
H2225 C2213 0.930 . S
H2226 C2214 0.956 . S
H2227 C2214 0.961 . S
H2228 C2214 0.961 . S
H2229 C2215 0.958 . S
H2230 C2215 0.961 . S
H2231 C2215 0.960 . S
C2232 C2233 1.391 . S
C2232 C2234 1.394 . S
C2232 H2248 0.931 . S
C2233 C2232 1.391 . S
C2233 C2237 1.376 . S
C2234 C2232 1.394 . S
C2234 C2235 1.369 . S
C2234 C2238 1.531 . S
C2235 C2234 1.369 . S
C2235 C2236 1.410 . S
C2235 C2243 1.503 . S
C2236 C2235 1.410 . S
C2236 C2237 1.392 . S
C2236 C2239 1.511 . S
C2237 C2233 1.376 . S
C2237 C2236 1.392 . S
C2237 H2249 0.929 . S
C2238 C2234 1.531 . S
C2238 H2250 0.960 . S
C2238 H2251 0.962 . S
C2238 H2252 0.960 . S
C2239 C2236 1.511 . S
C2239 H2253 0.961 . S
C2239 H2254 0.961 . S
C2239 H2255 0.961 . S
C2240 C2241 1.370 . S
C2240 C2242 1.363 . S
C2240 H2256 0.931 . S
C2241 C2240 1.370 . S
C2241 C2245 1.408 . S
C2242 C2240 1.363 . S
C2242 C2243 1.370 . S
C2242 C2246 1.524 . S
C2243 C2235 1.503 . S
C2243 C2242 1.370 . S
C2243 C2244 1.403 . S
C2244 C2243 1.403 . S
C2244 C2245 1.404 . S
C2244 C2247 1.539 . S
C2245 C2241 1.408 . S
C2245 C2244 1.404 . S
C2245 H2257 0.930 . S
C2246 C2242 1.524 . S
C2246 H2258 0.956 . S
C2246 H2259 0.961 . S
C2246 H2260 0.961 . S
C2247 C2244 1.539 . S
C2247 H2261 0.958 . S
C2247 H2262 0.961 . S
C2247 H2263 0.960 . S
H2248 C2232 0.931 . S
H2249 C2237 0.929 . S
H2250 C2238 0.960 . S
H2251 C2238 0.962 . S
H2252 C2238 0.960 . S
H2253 C2239 0.961 . S
H2254 C2239 0.961 . S
H2255 C2239 0.961 . S
H2256 C2240 0.931 . S
H2257 C2245 0.930 . S
H2258 C2246 0.956 . S
H2259 C2246 0.961 . S
H2260 C2246 0.961 . S
H2261 C2247 0.958 . S
H2262 C2247 0.961 . S
H2263 C2247 0.960 . S
C2264 C2265 1.391 . S
C2264 C2266 1.394 . S
C2264 H2280 0.931 . S
C2265 C2264 1.391 . S
C2265 C2269 1.376 . S
C2266 C2264 1.394 . S
C2266 C2267 1.369 . S
C2266 C2270 1.531 . S
C2267 C2266 1.369 . S
C2267 C2268 1.410 . S
C2267 C2275 1.503 . S
C2268 C2267 1.410 . S
C2268 C2269 1.392 . S
C2268 C2271 1.511 . S
C2269 C2265 1.376 . S
C2269 C2268 1.392 . S
C2269 H2281 0.929 . S
C2270 C2266 1.531 . S
C2270 H2282 0.960 . S
C2270 H2283 0.962 . S
C2270 H2284 0.960 . S
C2271 C2268 1.511 . S
C2271 H2285 0.961 . S
C2271 H2286 0.961 . S
C2271 H2287 0.961 . S
C2272 C2273 1.370 . S
C2272 C2274 1.363 . S
C2272 H2288 0.931 1_554 S
C2273 C2272 1.370 . S
C2273 C2277 1.408 . S
C2274 C2272 1.363 . S
C2274 C2275 1.370 . S
C2274 C2278 1.524 1_554 S
C2275 C2267 1.503 . S
C2275 C2274 1.370 . S
C2275 C2276 1.403 . S
C2276 C2275 1.403 . S
C2276 C2277 1.404 . S
C2276 C2279 1.539 . S
C2277 C2273 1.408 . S
C2277 C2276 1.404 . S
C2277 H2289 0.930 . S
C2278 C2274 1.524 1_556 S
C2278 H2290 0.956 . S
C2278 H2291 0.961 . S
C2278 H2292 0.961 . S
C2279 C2276 1.539 . S
C2279 H2293 0.958 . S
C2279 H2294 0.961 . S
C2279 H2295 0.960 . S
H2280 C2264 0.931 . S
H2281 C2269 0.929 . S
H2282 C2270 0.960 . S
H2283 C2270 0.962 . S
H2284 C2270 0.960 . S
H2285 C2271 0.961 . S
H2286 C2271 0.961 . S
H2287 C2271 0.961 . S
H2288 C2272 0.931 1_556 S
H2289 C2277 0.930 . S
H2290 C2278 0.956 . S
H2291 C2278 0.961 . S
H2292 C2278 0.961 . S
H2293 C2279 0.958 . S
H2294 C2279 0.961 . S
H2295 C2279 0.960 . S
C2296 C2297 1.391 . S
C2296 C2298 1.394 . S
C2296 H2312 0.931 . S
C2297 C2296 1.391 . S
C2297 C2301 1.376 . S
C2298 C2296 1.394 . S
C2298 C2299 1.369 . S
C2298 C2302 1.531 . S
C2299 C2298 1.369 . S
C2299 C2300 1.410 . S
C2299 C2307 1.503 . S
C2300 C2299 1.410 . S
C2300 C2301 1.392 . S
C2300 C2303 1.511 . S
C2301 C2297 1.376 . S
C2301 C2300 1.392 . S
C2301 H2313 0.929 . S
C2302 C2298 1.531 . S
C2302 H2314 0.960 . S
C2302 H2315 0.962 . S
C2302 H2316 0.960 . S
C2303 C2300 1.511 . S
C2303 H2317 0.961 . S
C2303 H2318 0.961 . S
C2303 H2319 0.961 . S
C2304 C2305 1.370 1_556 S
C2304 C2306 1.363 . S
C2304 H2320 0.931 . S
C2305 C2304 1.370 1_554 S
C2305 C2309 1.408 . S
C2306 C2304 1.363 . S
C2306 C2307 1.370 1_556 S
C2306 C2310 1.524 . S
C2307 C2299 1.503 . S
C2307 C2306 1.370 1_554 S
C2307 C2308 1.403 . S
C2308 C2307 1.403 . S
C2308 C2309 1.404 . S
C2308 C2311 1.539 . S
C2309 C2305 1.408 . S
C2309 C2308 1.404 . S
C2309 H2321 0.930 . S
C2310 C2306 1.524 . S
C2310 H2322 0.956 . S
C2310 H2323 0.961 . S
C2310 H2324 0.961 . S
C2311 C2308 1.539 . S
C2311 H2325 0.958 . S
C2311 H2326 0.961 . S
C2311 H2327 0.960 . S
H2312 C2296 0.931 . S
H2313 C2301 0.929 . S
H2314 C2302 0.960 . S
H2315 C2302 0.962 . S
H2316 C2302 0.960 . S
H2317 C2303 0.961 . S
H2318 C2303 0.961 . S
H2319 C2303 0.961 . S
H2320 C2304 0.931 . S
H2321 C2309 0.930 . S
H2322 C2310 0.956 . S
H2323 C2310 0.961 . S
H2324 C2310 0.961 . S
H2325 C2311 0.958 . S
H2326 C2311 0.961 . S
H2327 C2311 0.960 . S
C801 C635 1.435 . S
C793 C211 1.452 . S
C833 C643 1.256 . S
C825 C255 1.537 . S
C857 C274 1.441 . S
C865 C663 1.409 . S
C897 C677 1.510 . S
C889 C157 1.520 1_655 S
C929 C692 1.534 . S
C921 C391 1.533 . S
C961 C706 1.515 . S
C953 C484 1.512 . S
C985 C450 1.560 . S
C993 C720 1.562 . S
C1025 C726 1.437 . S
C1017 C352 1.483 . S
C1049 C430 1.515 . S
C1057 C740 1.492 . S
C1089 C761 1.531 . S
C1081 C367 1.559 . S
C1113 C411 1.472 . S
C1121 C741 1.265 . S
C1153 C762 1.537 . S
C1145 C469 1.537 . S
C1177 C294 1.479 . S
C1185 C769 1.193 . S
C1209 C177 1.510 . S
C1217 C775 1.498 . S
C1241 C196 1.498 . S
C1249 C768 1.473 . S
C1273 C235 1.466 . S
C1281 C776 1.479 . S
C1305 C133 1.496 . S
C1313 C670 1.467 . S
C1337 C567 1.478 . S
C1345 C671 1.268 . S
C1377 C628 1.499 . S
C1369 C601 1.558 . S
C1409 C649 1.446 . S
C1401 C328 1.456 . S
C1433 C172 1.487 . S
C1441 C684 1.447 . S
C1473 C734 1.529 . S
C1465 C445 1.528 . S
C1505 C685 1.205 . S
C1497 C372 1.463 . S
C1537 C713 1.264 . S
C1529 C489 1.538 . S
C1569 C719 1.429 . S
C1561 C562 1.456 . S
C1593 C606 1.542 . S
C1601 C727 1.274 . S
C1625 C313 1.435 . S
C1633 C691 1.424 . S
C1665 C705 1.506 . S
C1657 C508 1.523 . S
C1689 C118 1.533 . S
C1697 C664 1.537 . S
C1729 C678 1.515 . S
C1721 C16 1.514 . S
C1761 C636 1.563 . S
C1753 C60 1.560 . S
C1793 C642 1.431 . S
C1785 C79 1.485 . S
C1817 C40 1.515 . S
C1825 C754 1.484 . S
C1849 C94 1.559 . S
C1857 C747 1.532 . S
C1881 C138 1.471 . S
C1889 C755 1.254 . S
C1913 C1 1.537 . S
C1921 C748 1.537 . S
C1953 C783 1.210 . S
C1945 C333 1.470 . S
C1985 C789 1.502 . S
C1977 C528 1.511 . S
C2017 C782 1.463 . S
C2009 C547 1.502 . S
C2041 C586 1.478 . S
C2049 C790 1.477 . S
C2073 C406 1.498 . S
C2081 C698 1.460 . S
C2113 C699 1.273 . S
C2105 C216 1.479 . S
C2145 C712 1.500 . S
C2137 C250 1.555 . S
C2177 C733 1.434 . S
C2169 C289 1.455 . S
C2201 C523 1.484 . S
C2209 C656 1.439 1_556 S
C2241 C650 1.530 . S
C2233 C55 1.523 . S
C2265 C99 1.459 . S
C2273 C657 1.222 . S
C2305 C629 1.265 . S
C2297 C21 1.538 . S
