# Generated by pormake.
# Topology ssa, (4,4)-cn, num edge types: 1
# Building blocks:
#     Node 0, Type 0, BuildingBlock: ESEHIV_clean_sbu_0, # of connection points: 4
#     Node 1, Type 0, BuildingBlock: ESEHIV_clean_sbu_0, # of connection points: 4
#     Node 2, Type 0, BuildingBlock: ESEHIV_clean_sbu_0, # of connection points: 4
#     Node 3, Type 0, BuildingBlock: ESEHIV_clean_sbu_0, # of connection points: 4
#     Node 4, Type 0, BuildingBlock: ESEHIV_clean_sbu_0, # of connection points: 4
#     Node 5, Type 0, BuildingBlock: ESEHIV_clean_sbu_0, # of connection points: 4
#     Node 6, Type 1, BuildingBlock: KUFVIS_clean_linker_0, # of connection points: 4
#     Node 7, Type 1, BuildingBlock: KUFVIS_clean_linker_0, # of connection points: 4
#     Node 8, Type 1, BuildingBlock: KUFVIS_clean_linker_0, # of connection points: 4
#     Node 9, Type 1, BuildingBlock: KUFVIS_clean_linker_0, # of connection points: 4
#     Node 10, Type 1, BuildingBlock: KUFVIS_clean_linker_0, # of connection points: 4
#     Node 11, Type 1, BuildingBlock: KUFVIS_clean_linker_0, # of connection points: 4
#     Edge 12, Type (0, 1), BuildingBlock: CIFDUS_clean_linker_0, # of connection points: 2
#     Edge 13, Type (0, 1), BuildingBlock: CIFDUS_clean_linker_0, # of connection points: 2
#     Edge 14, Type (0, 1), BuildingBlock: CIFDUS_clean_linker_0, # of connection points: 2
#     Edge 15, Type (0, 1), BuildingBlock: CIFDUS_clean_linker_0, # of connection points: 2
#     Edge 16, Type (0, 1), BuildingBlock: CIFDUS_clean_linker_0, # of connection points: 2
#     Edge 17, Type (0, 1), BuildingBlock: CIFDUS_clean_linker_0, # of connection points: 2
#     Edge 18, Type (0, 1), BuildingBlock: CIFDUS_clean_linker_0, # of connection points: 2
#     Edge 19, Type (0, 1), BuildingBlock: CIFDUS_clean_linker_0, # of connection points: 2
#     Edge 20, Type (0, 1), BuildingBlock: CIFDUS_clean_linker_0, # of connection points: 2
#     Edge 21, Type (0, 1), BuildingBlock: CIFDUS_clean_linker_0, # of connection points: 2
#     Edge 22, Type (0, 1), BuildingBlock: CIFDUS_clean_linker_0, # of connection points: 2
#     Edge 23, Type (0, 1), BuildingBlock: CIFDUS_clean_linker_0, # of connection points: 2
#     Edge 24, Type (0, 1), BuildingBlock: CIFDUS_clean_linker_0, # of connection points: 2
#     Edge 25, Type (0, 1), BuildingBlock: CIFDUS_clean_linker_0, # of connection points: 2
#     Edge 26, Type (0, 1), BuildingBlock: CIFDUS_clean_linker_0, # of connection points: 2
#     Edge 27, Type (0, 1), BuildingBlock: CIFDUS_clean_linker_0, # of connection points: 2
#     Edge 28, Type (0, 1), BuildingBlock: CIFDUS_clean_linker_0, # of connection points: 2
#     Edge 29, Type (0, 1), BuildingBlock: CIFDUS_clean_linker_0, # of connection points: 2
#     Edge 30, Type (0, 1), BuildingBlock: CIFDUS_clean_linker_0, # of connection points: 2
#     Edge 31, Type (0, 1), BuildingBlock: CIFDUS_clean_linker_0, # of connection points: 2
#     Edge 32, Type (0, 1), BuildingBlock: CIFDUS_clean_linker_0, # of connection points: 2
#     Edge 33, Type (0, 1), BuildingBlock: CIFDUS_clean_linker_0, # of connection points: 2
#     Edge 34, Type (0, 1), BuildingBlock: CIFDUS_clean_linker_0, # of connection points: 2
#     Edge 35, Type (0, 1), BuildingBlock: CIFDUS_clean_linker_0, # of connection points: 2
# Relax obj value: 0.006
# Max RMSD: 0.109
# Mean RMSD: 0.075
data_MOF--net-ssa--node1-ESEHIV_clean_sbu_0--node2-KUFVIS_clean_linker_0--edge1-CIFDUS_clean_linker_0
_symmetry_space_group_name_H-M    P1
_symmetry_Int_Tables_number       1
_symmetry_cell_setting            triclinic
loop_
_symmetry_equiv_pos_as_xyz
'x, y, z'
_cell_length_a     46.290023
_cell_length_b     49.831558
_cell_length_c     27.570228
_cell_angle_alpha  88.129597
_cell_angle_beta   91.070781
_cell_angle_gamma 122.60614
loop_
_atom_site_label
_atom_site_type_symbol
_atom_site_fract_x
_atom_site_fract_y
_atom_site_fract_z
_atom_type_partial_charge
Cu0 Cu 0.04192 0.54661 0.00766 0.0
N1 N 0.0323 0.51783 0.95901 0.0
N2 N 1.00235 0.46881 0.92961 0.0
C3 C 1.00309 0.48896 0.96158 0.0
C4 C 0.03233 0.48574 0.90529 0.0
C5 C 0.05084 0.51618 0.92348 0.0
O6 O 0.99918 0.54565 0.01298 0.0
C7 C 0.08246 0.53004 0.05415 0.0
O8 O 0.09503 0.53746 0.01001 0.0
H9 H 0.98351 0.48234 0.98862 0.0
H10 H 0.07656 0.53501 0.91328 0.0
N11 N 0.07989 0.58815 -0.0003 0.0
N12 N 0.12684 0.6282 0.03457 0.0
C13 C 0.09352 0.60512 0.03994 0.0
C14 C 0.10544 0.60142 0.96682 0.0
C15 C 0.13457 0.62629 0.9884 0.0
C16 C 0.99561 0.56686 -0.0083 0.0
O17 O 1.02299 0.59323 0.97532 0.0
H18 H 0.0806 0.59763 0.07471 0.0
H19 H 0.10441 0.59135 0.93221 0.0
O20 O 0.05603 0.53099 0.06333 0.0
H21 H 0.04048 0.47663 0.87708 0.0
H22 H 0.1602 0.63924 0.97336 0.0
Cu23 Cu 0.55581 0.02684 0.50886 0.0
N24 N 0.57263 1.01235 0.46156 0.0
N25 N 0.57418 0.97682 0.41575 0.0
C26 C 0.55496 0.98243 0.4448 0.0
C27 C 0.60514 1.00433 0.41366 0.0
C28 C 0.6041 0.02624 0.44177 0.0
O29 O 0.50932 0.99058 0.5231 0.0
C30 C 0.6148 0.06576 0.56311 0.0
O31 O 0.62641 0.07923 0.52023 0.0
H32 H 0.5288 0.96471 0.4551 0.0
H33 H 0.62511 0.05035 0.44773 0.0
N34 N 0.55477 0.06274 0.48963 0.0
N35 N 0.54645 0.10238 0.50047 0.0
C36 C 0.53895 0.0734 0.51596 0.0
C37 C 0.57348 0.08613 0.45645 0.0
C38 C 0.56844 0.11079 0.46322 0.0
C39 C 0.4832 0.98875 0.5034 0.0
O40 O 0.48735 1.0127 0.47624 0.0
H41 H 0.52348 0.06071 0.5476 0.0
H42 H 0.59087 0.08601 0.43095 0.0
O43 O 0.58476 0.04068 0.56653 0.0
H44 H 0.62691 1.00833 0.39317 0.0
H45 H 0.58048 0.13329 0.44314 0.0
Cu46 Cu 0.50347 0.49802 0.01235 0.0
N47 N 0.49706 0.45759 0.00924 0.0
N48 N 0.50221 0.4201 0.97519 0.0
C49 C 0.50769 0.44952 0.97042 0.0
C50 C 0.48699 0.40886 0.01891 0.0
C51 C 0.48404 0.43218 0.04005 0.0
O52 O 0.54416 0.52498 0.97414 0.0
C53 C 0.43497 0.47782 0.0049 0.0
O54 O 0.42979 0.45046 0.02099 0.0
H55 H 0.51916 0.46513 0.93889 0.0
H56 H 0.47336 0.43072 0.07531 0.0
N57 N 0.50933 0.51509 0.07354 0.0
N58 N 0.50641 0.54711 0.12576 0.0
C59 C 0.5099 0.54212 0.07902 0.0
C60 C 0.50561 0.50234 0.11845 0.0
C61 C 0.50404 0.52218 0.15083 0.0
C62 C 0.57267 0.52974 0.98946 0.0
O63 O 0.57486 0.52126 0.03432 0.0
H64 H 0.51043 0.5566 0.04855 0.0
H65 H 0.50238 0.47954 0.12684 0.0
O66 O 0.46436 0.49858 0.98776 0.0
H67 H 0.47921 0.38579 0.03487 0.0
H68 H 0.50046 0.51796 0.18963 0.0
Cu69 Cu 1.02078 0.51501 0.52204 0.0
N70 N 0.03211 0.49815 0.47221 0.0
N71 N 0.06649 0.48634 0.43619 0.0
C72 C 0.06322 0.50223 0.47188 0.0
C73 C 0.03607 0.47152 0.41271 0.0
C74 C 1.01476 0.47897 0.43506 0.0
O75 O 0.06286 0.55703 0.53024 0.0
C76 C 0.98125 0.45663 0.56777 0.0
O77 O 0.96975 0.44999 0.52309 0.0
H78 H 0.08292 0.5161 0.49838 0.0
H79 H 0.98848 0.47057 0.42553 0.0
N80 N 0.98236 0.51768 0.51283 0.0
N81 N 0.93523 0.51438 0.53938 0.0
C82 C 0.96325 0.51401 0.55147 0.0
C83 C 0.966 0.5208 0.47422 0.0
C84 C 0.93685 0.51912 0.49075 0.0
C85 C 0.06679 0.58192 0.50888 0.0
O86 O 0.03977 0.58085 0.49074 0.0
H87 H 0.96981 0.51091 0.58824 0.0
H88 H 0.97432 0.52362 0.43697 0.0
O89 O 1.00666 0.48468 0.57666 0.0
H90 H 1.02986 0.45673 0.38146 0.0
H91 H 0.91798 0.52041 0.4688 0.0
Cu92 Cu 0.52152 1.01731 0.01758 0.0
N93 N 0.49698 0.02795 0.97515 0.0
N94 N 0.48648 0.06065 0.932 0.0
C95 C 0.50596 0.05823 0.96669 0.0
C96 C 0.46393 0.03044 0.91841 0.0
C97 C 0.47051 1.0103 0.94503 0.0
O98 O 0.56609 0.05749 0.02278 0.0
C99 C 0.46626 0.97705 0.07815 0.0
O100 O 0.45113 0.96696 0.03599 0.0
H101 H 0.52699 0.07823 0.98517 0.0
H102 H 0.45759 0.98481 0.94147 0.0
N103 N 0.52639 0.9851 -0.00564 0.0
N104 N 0.53697 0.94636 -0.00059 0.0
C105 C 0.53999 0.97155 0.02114 0.0
C106 C 0.51386 0.96753 0.95424 0.0
C107 C 0.52022 0.94335 0.95744 0.0
C108 C 0.59558 0.06197 0.01604 0.0
O109 O 0.59855 0.03733 0.01332 0.0
H110 H 0.55071 0.97928 0.05701 0.0
H111 H 0.50015 0.97131 0.92548 0.0
O112 O 0.49734 1.00058 0.07913 0.0
H113 H 0.44512 0.02351 0.88971 0.0
H114 H 0.51279 0.92486 0.93147 0.0
Cu115 Cu 0.5576 0.53715 0.46092 0.0
N116 N 0.58425 0.5669 0.41238 0.0
N117 N 0.61287 0.61456 0.37433 0.0
C118 C 0.5996 0.59856 0.41675 0.0
C119 C 0.6061 0.59192 0.34223 0.0
C120 C 0.58834 0.56252 0.36579 0.0
O121 O 0.51103 0.52855 0.45627 0.0
C122 C 0.61318 0.5614 0.522 0.0
O123 O 0.62701 0.56112 0.48099 0.0
H124 H 0.59914 0.60937 0.44989 0.0
H125 H 0.57726 0.53956 0.34941 0.0
N126 N 0.55342 0.49802 0.45524 0.0
N127 N 0.54047 0.44985 0.48189 0.0
C128 C 0.53562 0.47396 0.48759 0.0
C129 C 0.57033 0.48904 0.42772 0.0
C130 C 0.5623 0.45922 0.44404 0.0
C131 C 0.50348 0.54898 0.44399 0.0
O132 O 0.52797 0.57928 0.441 0.0
H133 H 0.52138 0.47531 0.51707 0.0
H134 H 0.58863 0.50374 0.39974 0.0
O135 O 0.58176 0.55297 0.52208 0.0
H136 H 0.61103 0.596 0.30361 0.0
H137 H 0.57275 0.4461 0.43023 0.0
H138 H 0.37964 0.51707 0.23282 0.0
H139 H 0.30794 0.52179 0.32307 0.0
H140 H 0.28072 0.48922 0.17585 0.0
H141 H 0.25392 0.51884 0.18418 0.0
H142 H 0.16121 0.47813 0.26694 0.0
H143 H 0.24824 0.48186 0.3305 0.0
C144 C 0.35487 0.51418 0.23746 0.0
C145 C 0.33143 0.50326 0.19898 0.0
C146 C 0.3464 0.52042 0.28236 0.0
C147 C 0.31417 0.51649 0.28845 0.0
C148 C 0.29009 0.50553 0.24988 0.0
C149 C 0.29905 0.49864 0.20541 0.0
C150 C 0.25516 0.49996 0.25584 0.0
C151 C 0.23958 0.50719 0.21707 0.0
C152 C 0.20586 0.50016 0.22128 0.0
C153 C 0.18762 0.48478 0.26362 0.0
C154 C 0.20291 0.47903 0.30317 0.0
C155 C 0.23675 0.48672 0.29967 0.0
H156 H 0.70621 0.14852 0.81607 0.0
H157 H 0.78508 0.23355 0.88144 0.0
H158 H 0.78413 0.22382 0.72566 0.0
H159 H 0.81662 0.27674 0.72453 0.0
H160 H 0.9154 0.34129 0.78598 0.0
H161 H 0.84058 0.26316 0.87315 0.0
C162 C 0.72866 0.1724 0.81149 0.0
C163 C 0.74205 0.18464 0.76511 0.0
C164 C 0.744 0.18999 0.85292 0.0
C165 C 0.77419 0.22028 0.84871 0.0
C166 C 0.78984 0.23296 0.80278 0.0
C167 C 0.77303 0.21479 0.76117 0.0
C168 C 0.82412 0.26421 0.79844 0.0
C169 C 0.83426 0.28312 0.75466 0.0
C170 C 0.86704 0.31136 0.75043 0.0
C171 C 0.88989 0.31989 0.78913 0.0
C172 C 0.87979 0.30363 0.83361 0.0
C173 C 0.84724 0.27566 0.83837 0.0
H174 H 0.56427 0.68902 0.25266 0.0
H175 H 0.52019 0.73494 0.1767 0.0
H176 H 0.5927 0.78206 0.2944 0.0
H177 H 0.55892 0.80206 0.30532 0.0
H178 H 0.54818 0.86641 0.21163 0.0
H179 H 0.54718 0.78806 0.15 0.0
C180 C 0.56182 0.70943 0.24759 0.0
C181 C 0.58078 0.73556 0.27713 0.0
C182 C 0.54005 0.70887 0.21157 0.0
C183 C 0.53723 0.73551 0.20467 0.0
C184 C 0.55576 0.76232 0.23494 0.0
C185 C 0.57761 0.76189 0.27131 0.0
C186 C 0.55274 0.79077 0.22859 0.0
C187 C 0.55558 0.80899 0.26905 0.0
C188 C 0.55366 0.83612 0.26301 0.0
C189 C 0.54901 0.84513 0.21653 0.0
C190 C 0.54679 0.82804 0.17591 0.0
C191 C 0.54821 0.80068 0.18188 0.0
H192 H 0.87576 0.54127 0.78177 0.0
H193 H 0.81987 0.57271 0.85825 0.0
H194 H 0.79408 0.54283 0.70948 0.0
H195 H 0.7776 0.57621 0.70582 0.0
H196 H 0.70905 0.59113 0.78416 0.0
H197 H 0.76136 0.55292 0.85966 0.0
C198 C 0.85483 0.54511 0.78274 0.0
C199 C 0.83597 0.54159 0.74042 0.0
C200 C 0.84883 0.55582 0.82547 0.0
C201 C 0.82331 0.56312 0.82575 0.0
C202 C 0.80289 0.55855 0.78403 0.0
C203 C 0.80946 0.54732 0.74181 0.0
C204 C 0.77559 0.56632 0.78378 0.0
C205 C 0.76585 0.57522 0.73985 0.0
C206 C 0.73997 0.58197 0.73933 0.0
C207 C 0.72686 0.58333 0.78362 0.0
C208 C 0.73224 0.57065 0.82622 0.0
C209 C 0.75735 0.56294 0.82672 0.0
H210 H 0.18585 0.68439 0.30032 0.0
H211 H 0.27813 0.76473 0.24172 0.0
H212 H 0.252 0.7614 0.39293 0.0
H213 H 0.30827 0.79636 0.40143 0.0
H214 H 0.3807 0.88768 0.33807 0.0
H215 H 0.30404 0.81532 0.24764 0.0
C216 C 0.20969 0.7071 0.30535 0.0
C217 C 0.21784 0.72026 0.3515 0.0
C218 C 0.23072 0.72379 0.2653 0.0
C219 C 0.26128 0.75334 0.2725 0.0
C220 C 0.26982 0.76793 0.31823 0.0
C221 C 0.24731 0.75091 0.35764 0.0
C222 C 0.30125 0.80112 0.3238 0.0
C223 C 0.31737 0.81192 0.36953 0.0
C224 C 0.3457 0.84322 0.37427 0.0
C225 C 0.35902 0.86352 0.33343 0.0
C226 C 0.34516 0.85331 0.28724 0.0
C227 C 0.31558 0.82247 0.28303 0.0
H228 H 0.51754 0.35635 0.72734 0.0
H229 H 0.51216 0.27744 0.80324 0.0
H230 H 0.51591 0.28422 0.64591 0.0
H231 H 0.53447 0.253 0.65011 0.0
H232 H 0.50364 0.16267 0.71602 0.0
H233 H 0.48933 0.22698 0.7945 0.0
C234 C 0.51659 0.33414 0.72672 0.0
C235 C 0.5183 0.32243 0.68215 0.0
C236 C 0.51378 0.3177 0.7704 0.0
C237 C 0.51289 0.28901 0.76904 0.0
C238 C 0.51386 0.2761 0.72432 0.0
C239 C 0.51631 0.29335 0.68108 0.0
C240 C 0.51182 0.24477 0.72239 0.0
C241 C 0.52281 0.23655 0.68063 0.0
C242 C 0.51853 0.20649 0.67746 0.0
C243 C 0.50565 0.18537 0.71739 0.0
C244 C 0.49617 0.19325 0.75964 0.0
C245 C 0.49838 0.22238 0.7619 0.0
H246 H 0.12878 0.51395 0.04005 0.0
H247 H 0.08058 0.53451 0.15286 0.0
H248 H 0.11771 0.53071 0.2135 0.0
H249 H 0.16388 0.52212 0.23381 0.0
H250 H 0.20868 0.49695 0.12207 0.0
H251 H 0.17404 0.50388 0.06085 0.0
C252 C 0.12619 0.51741 0.07798 0.0
C253 C 0.1018 0.52437 0.09203 0.0
C254 C 0.1475 0.51509 0.11244 0.0
C255 C 0.09876 0.5287 0.14125 0.0
C256 C 0.12025 0.52687 0.17576 0.0
C257 C 0.16588 0.51771 0.19614 0.0
C258 C 0.18858 0.50845 0.1828 0.0
C259 C 0.1447 0.52014 0.16167 0.0
C260 C 0.19167 0.5042 0.13349 0.0
C261 C 0.17151 0.50775 0.09857 0.0
H262 H 0.68364 0.10669 0.57142 0.0
H263 H 0.58912 0.06482 0.6517 0.0
H264 H 0.61999 0.09962 0.71939 0.0
H265 H 0.6728 0.14351 0.75345 0.0
H266 H 0.76888 0.18124 0.67816 0.0
H267 H 0.738 0.14761 0.60959 0.0
C268 C 0.66992 0.10492 0.60405 0.0
C269 C 0.63416 0.08317 0.60663 0.0
C270 C 0.68791 0.12478 0.64307 0.0
C271 C 0.61667 0.08106 0.64906 0.0
C272 C 0.63427 0.1012 0.68754 0.0
C273 C 0.68743 0.14401 0.72282 0.0
C274 C 0.72347 0.16506 0.72178 0.0
C275 C 0.66979 0.12335 0.68467 0.0
C276 C 0.74124 0.16592 0.68025 0.0
C277 C 0.7236 0.14629 0.64111 0.0
H278 H 0.52747 0.60435 0.08171 0.0
H279 H 0.47758 0.54724 0.21078 0.0
H280 H 0.47623 0.59119 0.24422 0.0
H281 H 0.49617 0.64795 0.24152 0.0
H282 H 0.5484 0.70586 0.11471 0.0
H283 H 0.54005 0.65903 0.07441 0.0
C284 C 0.5157 0.60115 0.11675 0.0
C285 C 0.50335 0.57246 0.14397 0.0
C286 C 0.51498 0.62665 0.1359 0.0
C287 C 0.48828 0.56915 0.18945 0.0
C288 C 0.48713 0.59424 0.20847 0.0
C289 C 0.50443 0.64997 0.20426 0.0
C290 C 0.52278 0.68027 0.18099 0.0
C291 C 0.50127 0.62336 0.18261 0.0
C292 C 0.53378 0.68276 0.13304 0.0
C293 C 0.52962 0.65607 0.11046 0.0
H294 H 0.90355 0.5467 0.54095 0.0
H295 H 0.9101 0.47256 0.61461 0.0
H296 H 0.87616 0.47182 0.68184 0.0
H297 H 0.8508 0.49675 0.72417 0.0
H298 H 0.84519 0.57198 0.65242 0.0
H299 H 0.87166 0.56737 0.57984 0.0
C300 C 0.89671 0.5299 0.5712 0.0
C301 C 0.90967 0.51006 0.57326 0.0
C302 C 0.87759 0.53001 0.61034 0.0
C303 C 0.90083 0.48842 0.61272 0.0
C304 C 0.88146 0.488 0.65117 0.0
C305 C 0.855 0.51185 0.6924 0.0
C306 C 0.84639 0.53487 0.6939 0.0
C307 C 0.87075 0.50945 0.65117 0.0
C308 C 0.85147 0.55395 0.65217 0.0
C309 C 0.86686 0.55151 0.61075 0.0
H310 H 0.39767 0.93638 0.09146 0.0
H311 H 0.49494 0.97513 0.1647 0.0
H312 H 0.46604 0.93959 0.23477 0.0
H313 H 0.41389 0.89583 0.27302 0.0
H314 H 0.31574 0.86001 0.20321 0.0
H315 H 0.34456 0.8953 0.13311 0.0
C316 C 0.41252 0.93725 0.12297 0.0
C317 C 0.44845 0.95836 0.12281 0.0
C318 C 0.39569 0.91688 0.16328 0.0
C319 C 0.46728 0.95932 0.16399 0.0
C320 C 0.45078 0.93882 0.20391 0.0
C321 C 0.39846 0.89607 0.24316 0.0
C322 C 0.36241 0.87501 0.24399 0.0
C323 C 0.41505 0.91729 0.20371 0.0
C324 C 0.34343 0.87531 0.20371 0.0
C325 C 0.3599 0.89581 0.16368 0.0
H326 H 0.57023 0.41614 0.49961 0.0
H327 H 0.48373 0.42177 0.53822 0.0
H328 H 0.46795 0.38125 0.60196 0.0
H329 H 0.4813 0.34733 0.65125 0.0
H330 H 0.56673 0.34043 0.61216 0.0
H331 H 0.57985 0.37768 0.54344 0.0
C332 C 0.54755 0.40811 0.52124 0.0
C333 C 0.52866 0.42262 0.51458 0.0
C334 C 0.53846 0.38457 0.55795 0.0
C335 C 0.49933 0.41175 0.54325 0.0
C336 C 0.49014 0.38841 0.57965 0.0
C337 C 0.50258 0.35379 0.62733 0.0
C338 C 0.52322 0.34145 0.63692 0.0
C339 C 0.51 0.37526 0.58814 0.0
C340 C 0.55043 0.34959 0.60536 0.0
C341 C 0.55805 0.37103 0.56628 0.0
H342 H 0.61183 0.951 0.40361 0.0
H343 H 0.51265 0.9366 0.37508 0.0
H344 H 0.49561 0.88875 0.32993 0.0
H345 H 0.51095 0.85388 0.29234 0.0
H346 H 0.60951 0.86723 0.32202 0.0
H347 H 0.62463 0.9121 0.37383 0.0
C348 C 0.58649 0.93725 0.38758 0.0
C349 C 0.56369 0.94755 0.39196 0.0
C350 C 0.57674 0.90948 0.36223 0.0
C351 C 0.53063 0.92918 0.37203 0.0
C352 C 0.52092 0.90187 0.34618 0.0
C353 C 0.53538 0.86617 0.31122 0.0
C354 C 0.5591 0.85732 0.30352 0.0
C355 C 0.54397 0.89211 0.34034 0.0
C356 C 0.59072 0.87339 0.32792 0.0
C357 C 0.5995 0.89929 0.357 0.0
H358 H 0.64069 0.55353 0.00728 0.0
H359 H 0.5649 0.52044 0.89279 0.0
H360 H 0.60682 0.52593 0.83504 0.0
H361 H 0.6641 0.54005 0.81647 0.0
H362 H 0.74353 0.57989 0.92536 0.0
H363 H 0.70068 0.57031 0.98678 0.0
C364 C 0.63358 0.54789 0.96955 0.0
C365 C 0.59976 0.53686 0.9543 0.0
C366 C 0.65819 0.5517 0.93594 0.0
C367 C 0.59079 0.52946 0.90541 0.0
C368 C 0.61465 0.53226 0.8724 0.0
C369 C 0.6723 0.54706 0.85356 0.0
C370 C 0.7071 0.56139 0.86613 0.0
C371 C 0.64827 0.54334 0.88728 0.0
C372 C 0.71693 0.56899 0.91474 0.0
C373 C 0.69251 0.56384 0.94959 0.0
H374 H 0.08643 0.64249 0.48168 0.0
H375 H 0.12469 0.58064 0.49828 0.0
H376 H 0.17702 0.6198 0.45485 0.0
H377 H 0.20848 0.66864 0.40263 0.0
H378 H 0.17084 0.73085 0.38748 0.0
H379 H 0.12199 0.6949 0.44007 0.0
C380 C 0.10658 0.63791 0.4768 0.0
C381 C 0.10143 0.60851 0.49301 0.0
C382 C 0.13666 0.66057 0.45159 0.0
C383 C 0.12792 0.60305 0.48651 0.0
C384 C 0.1578 0.62537 0.46124 0.0
C385 C 0.19003 0.67465 0.4121 0.0
C386 C 0.19321 0.70236 0.39159 0.0
C387 C 0.16198 0.65377 0.44229 0.0
C388 C 0.16903 0.70984 0.40342 0.0
C389 C 0.141 0.68915 0.43315 0.0
H390 H 0.43934 0.06889 0.88667 0.0
H391 H 0.54627 0.11824 0.927 0.0
H392 H 0.55703 0.16619 0.88436 0.0
H393 H 0.53791 0.19221 0.82703 0.0
H394 H 0.43235 0.14264 0.7817 0.0
H395 H 0.41897 0.097 0.83516 0.0
C396 C 0.46492 0.09019 0.88631 0.0
C397 C 0.4919 0.08971 0.90992 0.0
C398 C 0.47115 0.11779 0.86091 0.0
C399 C 0.52484 0.11778 0.9097 0.0
C400 C 0.53114 0.1453 0.88501 0.0
C401 C 0.51176 0.17183 0.83041 0.0
C402 C 0.48595 0.1708 0.80151 0.0
C403 C 0.5047 0.14537 0.85962 0.0
C404 C 0.45234 0.14404 0.80467 0.0
C405 C 0.44487 0.11785 0.83464 0.0
H406 H 0.47899 0.58568 0.41205 0.0
H407 H 0.44957 0.48775 0.4313 0.0
H408 H 0.39619 0.47006 0.38757 0.0
H409 H 0.36089 0.48271 0.3356 0.0
H410 H 0.39004 0.5802 0.31539 0.0
H411 H 0.44024 0.5978 0.36793 0.0
C412 C 0.46067 0.56042 0.40744 0.0
C413 C 0.46865 0.53816 0.42466 0.0
C414 C 0.42996 0.55034 0.38179 0.0
C415 C 0.44437 0.50551 0.41842 0.0
C416 C 0.41379 0.49532 0.39318 0.0
C417 C 0.37778 0.50768 0.34397 0.0
C418 C 0.37172 0.53016 0.32232 0.0
C419 C 0.40674 0.51755 0.37361 0.0
C420 C 0.39398 0.56252 0.33244 0.0
C421 C 0.42281 0.57255 0.36207 0.0
H422 H 1.00888 0.41965 0.90936 0.0
H423 H 0.9348 0.4439 0.94016 0.0
H424 H 0.88803 0.38887 0.92835 0.0
H425 H 0.86838 0.33668 0.89572 0.0
H426 H 0.94183 0.31311 0.85864 0.0
H427 H 0.98853 0.3641 0.88913 0.0
C428 C 0.98248 0.41273 0.91366 0.0
C429 C 0.97525 0.43588 0.92471 0.0
C430 C 0.95561 0.38093 0.90671 0.0
C431 C 0.94098 0.42653 0.93142 0.0
C432 C 0.91422 0.39505 0.9248 0.0
C433 C 0.89441 0.34199 0.89703 0.0
C434 C 0.90174 0.32129 0.87511 0.0
C435 C 0.9212 0.37227 0.91111 0.0
C436 C 0.9356 0.32855 0.87605 0.0
C437 C 0.96238 0.35811 0.89218 0.0
H438 H 0.97586 0.60783 0.96492 0.0
H439 H 0.93869 0.50773 0.97648 0.0
H440 H 0.88755 0.49499 0.93003 0.0
H441 H 0.85735 0.51299 0.87653 0.0
H442 H 0.89346 0.61272 0.86664 0.0
H443 H 0.94068 0.62493 0.92236 0.0
C444 C 0.95616 0.58317 0.95826 0.0
C445 C 0.96133 0.55883 0.97392 0.0
C446 C 0.92672 0.57598 0.93137 0.0
C447 C 0.93543 0.52697 0.96517 0.0
C448 C 0.90624 0.51966 0.93817 0.0
C449 C 0.87508 0.53726 0.88772 0.0
C450 C 0.87201 0.56196 0.86756 0.0
C451 C 0.90217 0.54405 0.91973 0.0
C452 C 0.89514 0.59333 0.88205 0.0
C453 C 0.92231 0.60031 0.91356 0.0
H454 H 0.47095 0.92887 0.49966 0.0
H455 H 0.42057 0.98063 0.5007 0.0
H456 H 0.36743 0.93386 0.47259 0.0
H457 H 0.34063 0.88387 0.42912 0.0
H458 H 0.39281 0.83436 0.41902 0.0
H459 H 0.43936 0.87379 0.47024 0.0
C460 C 0.44795 0.92944 0.49549 0.0
C461 C 0.44969 0.95821 0.50166 0.0
C462 C 0.41785 0.90282 0.47704 0.0
C463 C 0.41983 0.95879 0.49574 0.0
C464 C 0.38949 0.93209 0.47945 0.0
C465 C 0.36134 0.88089 0.44044 0.0
C466 C 0.36335 0.8563 0.42082 0.0
C467 C 0.38883 0.90468 0.46732 0.0
C468 C 0.39058 0.85288 0.43449 0.0
C469 C 0.41747 0.87577 0.46303 0.0
H470 H 0.47054 0.35675 0.95918 0.0
H471 H 0.55529 0.4493 0.91242 0.0
H472 H 0.56799 0.42532 0.84749 0.0
H473 H 0.55285 0.3788 0.8001 0.0
H474 H 0.46812 0.28591 0.84484 0.0
H475 H 0.4583 0.30899 0.91501 0.0
C476 C 0.49206 0.37156 0.93521 0.0
C477 C 0.51145 0.40491 0.94026 0.0
C478 C 0.49931 0.35752 0.8975 0.0
C479 C 0.53931 0.42372 0.90875 0.0
C480 C 0.54678 0.40999 0.87168 0.0
C481 C 0.53235 0.36355 0.82539 0.0
C482 C 0.51102 0.33072 0.8169 0.0
C483 C 0.52652 0.37705 0.86503 0.0
C484 C 0.485 0.31123 0.85057 0.0
C485 C 0.4792 0.32448 0.89049 0.0
H486 H 0.07044 0.4378 0.40431 0.0
H487 H 0.13144 0.53632 0.44417 0.0
H488 H 0.18359 0.5394 0.42034 0.0
H489 H 0.21012 0.51708 0.37435 0.0
H490 H 0.14925 0.41996 0.32899 0.0
H491 H 0.09931 0.41253 0.37117 0.0
C492 C 0.09523 0.45976 0.40805 0.0
C493 C 0.09708 0.48692 0.4251 0.0
C494 C 0.12525 0.46139 0.39414 0.0
C495 C 0.12937 0.51513 0.43095 0.0
C496 C 0.15923 0.51691 0.4174 0.0
C497 C 0.18644 0.49378 0.37628 0.0
C498 C 0.1832 0.46914 0.34869 0.0
C499 C 0.15736 0.49051 0.3975 0.0
C500 C 0.15234 0.43913 0.3506 0.0
C501 C 0.12354 0.43519 0.37353 0.0
H502 H 0.66302 0.08221 0.00664 0.0
H503 H 0.59289 0.11361 0.987 0.0
H504 H 0.6363 0.16065 0.94145 0.0
H505 H 0.69017 0.18736 0.89457 0.0
H506 H 0.75993 0.15582 0.91303 0.0
H507 H 0.72125 0.11491 0.9724 0.0
C508 C 0.65751 0.09974 -0.00657 0.0
C509 C 0.62443 0.09394 -0.00053 0.0
C510 C 0.6826 0.12676 0.9668 0.0
C511 C 0.61794 0.11718 0.98264 0.0
C512 C 0.64276 0.14412 0.9563 0.0
C513 C 0.69749 0.17242 0.91336 0.0
C514 C 0.7279 0.17469 0.90008 0.0
C515 C 0.67464 0.14844 0.94642 0.0
C516 C 0.73691 0.15479 0.92353 0.0
C517 C 0.71454 0.13112 0.9569 0.0
H518 H 0.59287 0.6495 0.41883 0.0
H519 H 0.65614 0.6528 0.30296 0.0
H520 H 0.66231 0.70181 0.27032 0.0
H521 H 0.63738 0.73442 0.2637 0.0
H522 H 0.56842 0.72642 0.37394 0.0
H523 H 0.57865 0.69018 0.42187 0.0
C524 C 0.60906 0.66147 0.38749 0.0
C525 C 0.62334 0.64702 0.3626 0.0
C526 C 0.61154 0.68905 0.36812 0.0
C527 C 0.64416 0.66299 0.32196 0.0
C528 C 0.64779 0.69107 0.30343 0.0
C529 C 0.62629 0.72617 0.29962 0.0
C530 C 0.60182 0.73254 0.31509 0.0
C531 C 0.62993 0.70319 0.32461 0.0
C532 C 0.58737 0.72181 0.36142 0.0
C533 C 0.59256 0.70043 0.38819 0.0
H534 H 0.58418 0.16486 0.52229 0.0
H535 H 0.48252 0.08029 0.52985 0.0
H536 H 0.46345 0.10745 0.57979 0.0
H537 H 0.47742 0.15254 0.62951 0.0
H538 H 0.57956 0.23653 0.62761 0.0
H539 H 0.59667 0.21293 0.5664 0.0
C540 C 0.55772 0.1528 0.53403 0.0
C541 C 0.53474 0.12057 0.52281 0.0
C542 C 0.54717 0.16843 0.56396 0.0
C543 C 0.50059 0.10497 0.53854 0.0
C544 C 0.48973 0.12048 0.56705 0.0
C545 C 0.50327 0.1659 0.61497 0.0
C546 C 0.52729 0.19605 0.63324 0.0
C547 C 0.51305 0.15179 0.58126 0.0
C548 C 0.56061 0.21331 0.61392 0.0
C549 C 0.57044 0.19966 0.57931 0.0
H550 H 0.37017 0.44102 0.04051 0.0
H551 H 0.45217 0.53915 0.01668 0.0
H552 H 0.42535 0.55624 0.0725 0.0
H553 H 0.3833 0.54242 0.1376 0.0
H554 H 0.3005 0.44473 0.15997 0.0
H555 H 0.32252 0.42832 0.09475 0.0
C556 C 0.38166 0.46622 0.04643 0.0
C557 C 0.4136 0.48863 0.02536 0.0
C558 C 0.36609 0.47592 0.07877 0.0
C559 C 0.42786 0.52126 0.03284 0.0
C560 C 0.41262 0.5311 0.06507 0.0
C561 C 0.36971 0.51769 0.12721 0.0
C562 C 0.34056 0.4947 0.15347 0.0
C563 C 0.38253 0.50852 0.08976 0.0
C564 C 0.32295 0.46274 0.13996 0.0
C565 C 0.33565 0.45338 0.10292 0.0
H566 H 0.93786 0.3926 0.55998 0.0
H567 H 0.978 0.46812 0.66295 0.0
H568 H 0.94058 0.42992 0.72586 0.0
H569 H 0.89838 0.37531 0.75218 0.0
H570 H 0.86298 0.29833 0.65314 0.0
H571 H 0.895 0.33713 0.58696 0.0
C572 C 0.93854 0.40065 0.59631 0.0
C573 C 0.96103 0.43313 0.607 0.0
C574 C 0.91723 0.37843 0.63245 0.0
C575 C 0.9615 0.44323 0.65407 0.0
C576 C 0.9398 0.42146 0.68984 0.0
C577 C 0.89752 0.36694 0.716 0.0
C578 C 0.87875 0.3339 0.70774 0.0
C579 C 0.91778 0.38906 0.67945 0.0
C580 C 0.87712 0.32355 0.66046 0.0
C581 C 0.89589 0.34572 0.6229 0.0
H582 H 0.49917 0.88225 0.00798 0.0
H583 H 0.59812 0.9656 0.03868 0.0
H584 H 0.61307 0.93353 0.08902 0.0
H585 H 0.59409 0.88412 0.13519 0.0
H586 H 0.49339 0.80131 0.1115 0.0
H587 H 0.48308 0.83015 0.04656 0.0
C588 C 0.5243 0.89299 0.02463 0.0
C589 C 0.54755 0.92615 0.02011 0.0
C590 C 0.53218 0.87447 0.05499 0.0
C591 C 0.57991 0.94013 0.04216 0.0
C592 C 0.58838 0.92182 0.07092 0.0
C593 C 0.57038 0.87214 0.11453 0.0
C594 C 0.54451 0.8408 0.12781 0.0
C595 C 0.56419 0.88929 0.07918 0.0
C596 C 0.51373 0.82538 0.10139 0.0
C597 C 0.50772 0.84202 0.06479 0.0
H598 H 0.68218 0.58949 0.53184 0.0
H599 H 0.58826 0.54507 0.6144 0.0
H600 H 0.61962 0.54762 0.68809 0.0
H601 H 0.67204 0.55852 0.72715 0.0
H602 H 0.7675 0.60626 0.64769 0.0
H603 H 0.73665 0.60511 0.57374 0.0
C604 C 0.66863 0.5807 0.5661 0.0
C605 C 0.63283 0.56698 0.56759 0.0
C606 C 0.68689 0.58228 0.60843 0.0
C607 C 0.61573 0.55587 0.61224 0.0
C608 C 0.63363 0.55711 0.65431 0.0
C609 C 0.68667 0.56974 0.6943 0.0
C610 C 0.72245 0.58301 0.69369 0.0
C611 C 0.66904 0.56983 0.65258 0.0
C612 C 0.7401 0.5958 0.64959 0.0
C613 C 0.72246 0.59534 0.60732 0.0
H614 H 0.16897 0.69054 0.05304 0.0
H615 H 0.13649 0.59624 0.10593 0.0
H616 H 0.16879 0.61771 0.18108 0.0
H617 H 0.20162 0.66287 0.23489 0.0
H618 H 0.2329 0.75747 0.18366 0.0
H619 H 0.20664 0.73676 0.10479 0.0
C620 C 0.16971 0.675 0.08078 0.0
C621 C 0.15035 0.64194 0.07449 0.0
C622 C 0.18796 0.6876 0.12433 0.0
C623 C 0.15113 0.62175 0.11053 0.0
C624 C 0.1695 0.63403 0.15342 0.0
C625 C 0.20291 0.67898 0.20634 0.0
C626 C 0.21899 0.71162 0.21542 0.0
C627 C 0.18723 0.66683 0.16132 0.0
C628 C 0.22092 0.73225 0.17767 0.0
C629 C 0.20564 0.72039 0.13258 0.0
loop_
_geom_bond_atom_site_label_1
_geom_bond_atom_site_label_2
_geom_bond_distance
_geom_bond_site_symmetry_2
_ccdc_geom_bond_type
Cu0 N1 1.999 1_454 S
Cu0 O6 1.974 1_454 S
Cu0 N11 1.985 . S
Cu0 O20 1.959 . S
N1 Cu0 1.999 1_656 S
N1 C3 1.263 . S
N1 C5 1.389 1_556 S
N2 C3 1.358 . S
N2 C4 1.400 . S
C3 N1 1.263 . S
C3 N2 1.358 . S
C3 H9 0.930 . S
C4 N2 1.400 . S
C4 C5 1.351 1_556 S
C4 H21 0.930 . S
C5 N1 1.389 1_554 S
C5 C4 1.351 1_554 S
C5 H10 0.930 . S
O6 Cu0 1.974 1_656 S
O6 C16 1.282 . S
C7 O8 1.261 1_554 S
C7 O20 1.251 . S
O8 C7 1.261 1_556 S
H9 C3 0.930 . S
H10 C5 0.930 . S
N11 Cu0 1.985 . S
N11 C13 1.335 . S
N11 C14 1.390 . S
N12 C13 1.345 . S
N12 C15 1.336 . S
C13 N11 1.335 . S
C13 N12 1.345 . S
C13 H18 0.930 . S
C14 N11 1.390 . S
C14 C15 1.346 . S
C14 H19 0.930 1_554 S
C15 N12 1.336 . S
C15 C14 1.346 . S
C15 H22 0.929 . S
C16 O6 1.282 . S
C16 O17 1.218 . S
O17 C16 1.218 . S
H18 C13 0.930 . S
H19 C14 0.930 1_556 S
O20 Cu0 1.959 . S
O20 C7 1.251 . S
H21 C4 0.930 . S
H22 C15 0.929 . S
Cu23 N24 1.999 . S
Cu23 O29 1.974 . S
Cu23 N34 1.985 1_565 S
Cu23 O43 1.959 1_565 S
N24 Cu23 1.999 . S
N24 C26 1.263 . S
N24 C28 1.389 . S
N25 C26 1.358 . S
N25 C27 1.400 . S
C26 N24 1.263 . S
C26 N25 1.358 . S
C26 H32 0.930 . S
C27 N25 1.400 . S
C27 C28 1.351 . S
C27 H44 0.930 . S
C28 N24 1.389 . S
C28 C27 1.351 . S
C28 H33 0.930 . S
O29 Cu23 1.974 . S
O29 C39 1.282 . S
C30 O31 1.261 . S
C30 O43 1.251 . S
O31 C30 1.261 . S
H32 C26 0.930 . S
H33 C28 0.930 . S
N34 Cu23 1.985 1_545 S
N34 C36 1.335 . S
N34 C37 1.390 . S
N35 C36 1.345 . S
N35 C38 1.336 . S
C36 N34 1.335 . S
C36 N35 1.345 . S
C36 H41 0.930 . S
C37 N34 1.390 . S
C37 C38 1.346 . S
C37 H42 0.930 . S
C38 N35 1.336 . S
C38 C37 1.346 . S
C38 H45 0.929 . S
C39 O29 1.282 . S
C39 O40 1.216 . S
O40 C39 1.216 . S
H41 C36 0.930 . S
H42 C37 0.930 . S
O43 Cu23 1.959 1_545 S
O43 C30 1.251 . S
H44 C27 0.930 . S
H45 C38 0.929 . S
Cu46 N47 1.999 1_554 S
Cu46 O52 1.974 1_554 S
Cu46 N57 1.985 . S
Cu46 O66 1.959 . S
N47 Cu46 1.999 1_556 S
N47 C49 1.263 . S
N47 C51 1.389 . S
N48 C49 1.358 . S
N48 C50 1.400 . S
C49 N47 1.263 . S
C49 N48 1.358 . S
C49 H55 0.930 . S
C50 N48 1.400 . S
C50 C51 1.351 . S
C50 H67 0.930 . S
C51 N47 1.389 . S
C51 C50 1.351 . S
C51 H56 0.930 . S
O52 Cu46 1.974 1_556 S
O52 C62 1.282 . S
C53 O54 1.261 . S
C53 O66 1.251 . S
O54 C53 1.261 . S
H55 C49 0.930 . S
H56 C51 0.930 . S
N57 Cu46 1.985 . S
N57 C59 1.335 . S
N57 C60 1.390 . S
N58 C59 1.345 . S
N58 C61 1.336 . S
C59 N57 1.335 . S
C59 N58 1.345 . S
C59 H64 0.930 . S
C60 N57 1.390 . S
C60 C61 1.346 . S
C60 H65 0.930 . S
C61 N58 1.336 . S
C61 C60 1.346 . S
C61 H68 0.929 . S
C62 O52 1.282 . S
C62 O63 1.216 1_556 S
O63 C62 1.216 1_554 S
H64 C59 0.930 . S
H65 C60 0.930 . S
O66 Cu46 1.959 . S
O66 C53 1.251 . S
H67 C50 0.930 . S
H68 C61 0.929 . S
Cu69 N70 1.999 1_655 S
Cu69 O75 1.974 1_655 S
Cu69 N80 1.985 . S
Cu69 O89 1.959 . S
N70 Cu69 1.999 1_455 S
N70 C72 1.263 . S
N70 C74 1.389 1_455 S
N71 C72 1.358 . S
N71 C73 1.400 . S
C72 N70 1.263 . S
C72 N71 1.358 . S
C72 H78 0.930 . S
C73 N71 1.400 . S
C73 C74 1.351 1_455 S
C73 H90 0.930 . S
C74 N70 1.389 1_655 S
C74 C73 1.351 1_655 S
C74 H79 0.930 . S
O75 Cu69 1.974 1_455 S
O75 C85 1.282 . S
C76 O77 1.261 . S
C76 O89 1.251 . S
O77 C76 1.261 . S
H78 C72 0.930 . S
H79 C74 0.930 . S
N80 Cu69 1.985 . S
N80 C82 1.335 . S
N80 C83 1.390 . S
N81 C82 1.345 . S
N81 C84 1.336 . S
C82 N80 1.335 . S
C82 N81 1.345 . S
C82 H87 0.930 . S
C83 N80 1.390 . S
C83 C84 1.346 . S
C83 H88 0.930 1_655 S
C84 N81 1.336 . S
C84 C83 1.346 . S
C84 H91 0.929 . S
C85 O75 1.282 . S
C85 O86 1.216 . S
O86 C85 1.216 . S
H87 C82 0.930 . S
H88 C83 0.930 1_455 S
O89 Cu69 1.959 . S
O89 C76 1.251 . S
H90 C73 0.930 . S
H91 C84 0.929 . S
Cu92 N93 1.999 . S
Cu92 O98 1.974 . S
Cu92 N103 1.985 1_545 S
Cu92 O112 1.959 1_545 S
N93 Cu92 1.999 . S
N93 C95 1.263 1_554 S
N93 C97 1.389 . S
N94 C95 1.358 . S
N94 C96 1.400 1_556 S
C95 N93 1.263 1_556 S
C95 N94 1.358 . S
C95 H101 0.930 . S
C96 N94 1.400 1_554 S
C96 C97 1.351 . S
C96 H113 0.930 . S
C97 N93 1.389 . S
C97 C96 1.351 . S
C97 H102 0.930 . S
O98 Cu92 1.974 . S
O98 C108 1.282 1_554 S
C99 O100 1.261 . S
C99 O112 1.251 . S
O100 C99 1.261 . S
H101 C95 0.930 . S
H102 C97 0.930 . S
N103 Cu92 1.985 1_565 S
N103 C105 1.335 . S
N103 C106 1.390 . S
N104 C105 1.345 . S
N104 C107 1.336 . S
C105 N103 1.335 . S
C105 N104 1.345 . S
C105 H110 0.930 . S
C106 N103 1.390 . S
C106 C107 1.346 . S
C106 H111 0.930 1_565 S
C107 N104 1.336 . S
C107 C106 1.346 . S
C107 H114 0.929 . S
C108 O98 1.282 1_556 S
C108 O109 1.216 . S
O109 C108 1.216 . S
H110 C105 0.930 . S
H111 C106 0.930 1_545 S
O112 Cu92 1.959 1_565 S
O112 C99 1.251 . S
H113 C96 0.930 . S
H114 C107 0.929 . S
Cu115 N116 1.999 . S
Cu115 O121 1.974 . S
Cu115 N126 1.985 . S
Cu115 O135 1.959 . S
N116 Cu115 1.999 . S
N116 C118 1.263 . S
N116 C120 1.389 . S
N117 C118 1.358 . S
N117 C119 1.400 . S
C118 N116 1.263 . S
C118 N117 1.358 . S
C118 H124 0.930 . S
C119 N117 1.400 . S
C119 C120 1.351 . S
C119 H136 0.930 . S
C120 N116 1.389 . S
C120 C119 1.351 . S
C120 H125 0.930 . S
O121 Cu115 1.974 . S
O121 C131 1.282 . S
C122 O123 1.261 . S
C122 O135 1.251 . S
O123 C122 1.261 . S
H124 C118 0.930 . S
H125 C120 0.930 . S
N126 Cu115 1.985 . S
N126 C128 1.335 . S
N126 C129 1.390 . S
N127 C128 1.345 . S
N127 C130 1.336 . S
C128 N126 1.335 . S
C128 N127 1.345 . S
C128 H133 0.930 . S
C129 N126 1.390 . S
C129 C130 1.346 . S
C129 H134 0.930 . S
C130 N127 1.336 . S
C130 C129 1.346 . S
C130 H137 0.929 . S
C131 O121 1.282 . S
C131 O132 1.216 . S
O132 C131 1.216 . S
H133 C128 0.930 . S
H134 C129 0.930 . S
O135 Cu115 1.959 . S
O135 C122 1.251 . S
H136 C119 0.930 . S
H137 C130 0.929 . S
H138 C144 0.930 . S
H139 C147 0.931 . S
H140 C149 0.931 . S
H141 C151 0.930 . S
H142 C153 0.930 . S
H143 C155 0.931 . S
C144 H138 0.930 . S
C144 C145 1.380 . S
C144 C146 1.394 . S
C145 C144 1.380 . S
C145 C149 1.382 . S
C146 C144 1.394 . S
C146 C147 1.400 . S
C147 H139 0.931 . S
C147 C146 1.400 . S
C147 C148 1.375 . S
C148 C147 1.375 . S
C148 C149 1.415 . S
C148 C150 1.501 . S
C149 H140 0.931 . S
C149 C145 1.382 . S
C149 C148 1.415 . S
C150 C148 1.501 . S
C150 C151 1.384 . S
C150 C155 1.408 . S
C151 H141 0.930 . S
C151 C150 1.384 . S
C151 C152 1.389 . S
C152 C151 1.389 . S
C152 C153 1.405 . S
C153 H142 0.930 . S
C153 C152 1.405 . S
C153 C154 1.364 . S
C154 C153 1.364 . S
C154 C155 1.400 . S
C155 H143 0.931 . S
C155 C150 1.408 . S
C155 C154 1.400 . S
H156 C162 0.930 . S
H157 C165 0.931 . S
H158 C167 0.931 . S
H159 C169 0.930 . S
H160 C171 0.930 . S
H161 C173 0.931 . S
C162 H156 0.930 . S
C162 C163 1.380 . S
C162 C164 1.394 . S
C163 C162 1.380 . S
C163 C167 1.382 . S
C164 C162 1.394 . S
C164 C165 1.400 . S
C165 H157 0.931 . S
C165 C164 1.400 . S
C165 C166 1.375 . S
C166 C165 1.375 . S
C166 C167 1.415 . S
C166 C168 1.501 . S
C167 H158 0.931 . S
C167 C163 1.382 . S
C167 C166 1.415 . S
C168 C166 1.501 . S
C168 C169 1.384 . S
C168 C173 1.408 . S
C169 H159 0.930 . S
C169 C168 1.384 . S
C169 C170 1.389 . S
C170 C169 1.389 . S
C170 C171 1.405 . S
C171 H160 0.930 . S
C171 C170 1.405 . S
C171 C172 1.364 . S
C172 C171 1.364 . S
C172 C173 1.400 . S
C173 H161 0.931 . S
C173 C168 1.408 . S
C173 C172 1.400 . S
H174 C180 0.930 . S
H175 C183 0.931 . S
H176 C185 0.931 . S
H177 C187 0.930 . S
H178 C189 0.930 . S
H179 C191 0.931 . S
C180 H174 0.930 . S
C180 C181 1.380 . S
C180 C182 1.394 . S
C181 C180 1.380 . S
C181 C185 1.382 . S
C182 C180 1.394 . S
C182 C183 1.400 . S
C183 H175 0.931 . S
C183 C182 1.400 . S
C183 C184 1.375 . S
C184 C183 1.375 . S
C184 C185 1.415 . S
C184 C186 1.501 . S
C185 H176 0.931 . S
C185 C181 1.382 . S
C185 C184 1.415 . S
C186 C184 1.501 . S
C186 C187 1.384 . S
C186 C191 1.408 . S
C187 H177 0.930 . S
C187 C186 1.384 . S
C187 C188 1.389 . S
C188 C187 1.389 . S
C188 C189 1.405 . S
C189 H178 0.930 . S
C189 C188 1.405 . S
C189 C190 1.364 . S
C190 C189 1.364 . S
C190 C191 1.400 . S
C191 H179 0.931 . S
C191 C186 1.408 . S
C191 C190 1.400 . S
H192 C198 0.930 . S
H193 C201 0.931 . S
H194 C203 0.931 . S
H195 C205 0.930 . S
H196 C207 0.930 . S
H197 C209 0.931 . S
C198 H192 0.930 . S
C198 C199 1.380 . S
C198 C200 1.394 . S
C199 C198 1.380 . S
C199 C203 1.382 . S
C200 C198 1.394 . S
C200 C201 1.400 . S
C201 H193 0.931 . S
C201 C200 1.400 . S
C201 C202 1.375 . S
C202 C201 1.375 . S
C202 C203 1.415 . S
C202 C204 1.501 . S
C203 H194 0.931 . S
C203 C199 1.382 . S
C203 C202 1.415 . S
C204 C202 1.501 . S
C204 C205 1.384 . S
C204 C209 1.408 . S
C205 H195 0.930 . S
C205 C204 1.384 . S
C205 C206 1.389 . S
C206 C205 1.389 . S
C206 C207 1.405 . S
C207 H196 0.930 . S
C207 C206 1.405 . S
C207 C208 1.364 . S
C208 C207 1.364 . S
C208 C209 1.400 . S
C209 H197 0.931 . S
C209 C204 1.408 . S
C209 C208 1.400 . S
H210 C216 0.930 . S
H211 C219 0.931 . S
H212 C221 0.931 . S
H213 C223 0.930 . S
H214 C225 0.930 . S
H215 C227 0.931 . S
C216 H210 0.930 . S
C216 C217 1.380 . S
C216 C218 1.394 . S
C217 C216 1.380 . S
C217 C221 1.382 . S
C218 C216 1.394 . S
C218 C219 1.400 . S
C219 H211 0.931 . S
C219 C218 1.400 . S
C219 C220 1.375 . S
C220 C219 1.375 . S
C220 C221 1.415 . S
C220 C222 1.501 . S
C221 H212 0.931 . S
C221 C217 1.382 . S
C221 C220 1.415 . S
C222 C220 1.501 . S
C222 C223 1.384 . S
C222 C227 1.408 . S
C223 H213 0.930 . S
C223 C222 1.384 . S
C223 C224 1.389 . S
C224 C223 1.389 . S
C224 C225 1.405 . S
C225 H214 0.930 . S
C225 C224 1.405 . S
C225 C226 1.364 . S
C226 C225 1.364 . S
C226 C227 1.400 . S
C227 H215 0.931 . S
C227 C222 1.408 . S
C227 C226 1.400 . S
H228 C234 0.930 . S
H229 C237 0.931 . S
H230 C239 0.931 . S
H231 C241 0.930 . S
H232 C243 0.930 . S
H233 C245 0.931 . S
C234 H228 0.930 . S
C234 C235 1.380 . S
C234 C236 1.394 . S
C235 C234 1.380 . S
C235 C239 1.382 . S
C236 C234 1.394 . S
C236 C237 1.400 . S
C237 H229 0.931 . S
C237 C236 1.400 . S
C237 C238 1.375 . S
C238 C237 1.375 . S
C238 C239 1.415 . S
C238 C240 1.501 . S
C239 H230 0.931 . S
C239 C235 1.382 . S
C239 C238 1.415 . S
C240 C238 1.501 . S
C240 C241 1.384 . S
C240 C245 1.408 . S
C241 H231 0.930 . S
C241 C240 1.384 . S
C241 C242 1.389 . S
C242 C241 1.389 . S
C242 C243 1.405 . S
C243 H232 0.930 . S
C243 C242 1.405 . S
C243 C244 1.364 . S
C244 C243 1.364 . S
C244 C245 1.400 . S
C245 H233 0.931 . S
C245 C240 1.408 . S
C245 C244 1.400 . S
H246 C252 0.930 . S
H247 C255 0.930 1_556 S
H248 C256 0.930 . S
H249 C257 0.930 . S
H250 C260 0.930 . S
H251 C261 0.930 . S
C252 H246 0.930 . S
C252 C253 1.355 . S
C252 C254 1.415 . S
C253 C252 1.355 . S
C253 C255 1.419 . S
C254 C252 1.415 . S
C254 C259 1.425 . S
C254 C261 1.409 . S
C255 H247 0.930 1_554 S
C255 C253 1.419 . S
C255 C256 1.362 . S
C256 H248 0.930 . S
C256 C255 1.362 . S
C256 C259 1.409 . S
C257 H249 0.930 . S
C257 C258 1.355 . S
C257 C259 1.415 . S
C258 C257 1.355 . S
C258 C260 1.419 . S
C259 C254 1.425 . S
C259 C256 1.409 . S
C259 C257 1.415 . S
C260 H250 0.930 . S
C260 C258 1.419 . S
C260 C261 1.362 . S
C261 H251 0.930 . S
C261 C254 1.409 . S
C261 C260 1.362 . S
H262 C268 0.930 . S
H263 C271 0.930 . S
H264 C272 0.930 . S
H265 C273 0.930 . S
H266 C276 0.930 . S
H267 C277 0.930 . S
C268 H262 0.930 . S
C268 C269 1.355 . S
C268 C270 1.415 . S
C269 C268 1.355 . S
C269 C271 1.419 . S
C270 C268 1.415 . S
C270 C275 1.425 . S
C270 C277 1.409 . S
C271 H263 0.930 . S
C271 C269 1.419 . S
C271 C272 1.362 . S
C272 H264 0.930 . S
C272 C271 1.362 . S
C272 C275 1.409 . S
C273 H265 0.930 . S
C273 C274 1.355 . S
C273 C275 1.415 . S
C274 C273 1.355 . S
C274 C276 1.419 . S
C275 C270 1.425 . S
C275 C272 1.409 . S
C275 C273 1.415 . S
C276 H266 0.930 . S
C276 C274 1.419 . S
C276 C277 1.362 . S
C277 H267 0.930 . S
C277 C270 1.409 . S
C277 C276 1.362 . S
H278 C284 0.930 . S
H279 C287 0.930 . S
H280 C288 0.930 . S
H281 C289 0.930 . S
H282 C292 0.930 . S
H283 C293 0.930 . S
C284 H278 0.930 . S
C284 C285 1.355 . S
C284 C286 1.415 . S
C285 C284 1.355 . S
C285 C287 1.419 . S
C286 C284 1.415 . S
C286 C291 1.425 . S
C286 C293 1.409 . S
C287 H279 0.930 . S
C287 C285 1.419 . S
C287 C288 1.362 . S
C288 H280 0.930 . S
C288 C287 1.362 . S
C288 C291 1.409 . S
C289 H281 0.930 . S
C289 C290 1.355 . S
C289 C291 1.415 . S
C290 C289 1.355 . S
C290 C292 1.419 . S
C291 C286 1.425 . S
C291 C288 1.409 . S
C291 C289 1.415 . S
C292 H282 0.930 . S
C292 C290 1.419 . S
C292 C293 1.362 . S
C293 H283 0.930 . S
C293 C286 1.409 . S
C293 C292 1.362 . S
H294 C300 0.930 . S
H295 C303 0.930 . S
H296 C304 0.930 . S
H297 C305 0.930 . S
H298 C308 0.930 . S
H299 C309 0.930 . S
C300 H294 0.930 . S
C300 C301 1.355 . S
C300 C302 1.415 . S
C301 C300 1.355 . S
C301 C303 1.419 . S
C302 C300 1.415 . S
C302 C307 1.425 . S
C302 C309 1.409 . S
C303 H295 0.930 . S
C303 C301 1.419 . S
C303 C304 1.362 . S
C304 H296 0.930 . S
C304 C303 1.362 . S
C304 C307 1.409 . S
C305 H297 0.930 . S
C305 C306 1.355 . S
C305 C307 1.415 . S
C306 C305 1.355 . S
C306 C308 1.419 . S
C307 C302 1.425 . S
C307 C304 1.409 . S
C307 C305 1.415 . S
C308 H298 0.930 . S
C308 C306 1.419 . S
C308 C309 1.362 . S
C309 H299 0.930 . S
C309 C302 1.409 . S
C309 C308 1.362 . S
H310 C316 0.930 . S
H311 C319 0.930 . S
H312 C320 0.930 . S
H313 C321 0.930 . S
H314 C324 0.930 . S
H315 C325 0.930 . S
C316 H310 0.930 . S
C316 C317 1.355 . S
C316 C318 1.415 . S
C317 C316 1.355 . S
C317 C319 1.419 . S
C318 C316 1.415 . S
C318 C323 1.425 . S
C318 C325 1.409 . S
C319 H311 0.930 . S
C319 C317 1.419 . S
C319 C320 1.362 . S
C320 H312 0.930 . S
C320 C319 1.362 . S
C320 C323 1.409 . S
C321 H313 0.930 . S
C321 C322 1.355 . S
C321 C323 1.415 . S
C322 C321 1.355 . S
C322 C324 1.419 . S
C323 C318 1.425 . S
C323 C320 1.409 . S
C323 C321 1.415 . S
C324 H314 0.930 . S
C324 C322 1.419 . S
C324 C325 1.362 . S
C325 H315 0.930 . S
C325 C318 1.409 . S
C325 C324 1.362 . S
H326 C332 0.930 . S
H327 C335 0.930 . S
H328 C336 0.930 . S
H329 C337 0.930 . S
H330 C340 0.930 . S
H331 C341 0.930 . S
C332 H326 0.930 . S
C332 C333 1.355 . S
C332 C334 1.415 . S
C333 C332 1.355 . S
C333 C335 1.419 . S
C334 C332 1.415 . S
C334 C339 1.425 . S
C334 C341 1.409 . S
C335 H327 0.930 . S
C335 C333 1.419 . S
C335 C336 1.362 . S
C336 H328 0.930 . S
C336 C335 1.362 . S
C336 C339 1.409 . S
C337 H329 0.930 . S
C337 C338 1.355 . S
C337 C339 1.415 . S
C338 C337 1.355 . S
C338 C340 1.419 . S
C339 C334 1.425 . S
C339 C336 1.409 . S
C339 C337 1.415 . S
C340 H330 0.930 . S
C340 C338 1.419 . S
C340 C341 1.362 . S
C341 H331 0.930 . S
C341 C334 1.409 . S
C341 C340 1.362 . S
H342 C348 0.930 . S
H343 C351 0.930 . S
H344 C352 0.930 . S
H345 C353 0.930 . S
H346 C356 0.930 . S
H347 C357 0.930 . S
C348 H342 0.930 . S
C348 C349 1.355 . S
C348 C350 1.415 . S
C349 C348 1.355 . S
C349 C351 1.419 . S
C350 C348 1.415 . S
C350 C355 1.425 . S
C350 C357 1.409 . S
C351 H343 0.930 . S
C351 C349 1.419 . S
C351 C352 1.362 . S
C352 H344 0.930 . S
C352 C351 1.362 . S
C352 C355 1.409 . S
C353 H345 0.930 . S
C353 C354 1.355 . S
C353 C355 1.415 . S
C354 C353 1.355 . S
C354 C356 1.419 . S
C355 C350 1.425 . S
C355 C352 1.409 . S
C355 C353 1.415 . S
C356 H346 0.930 . S
C356 C354 1.419 . S
C356 C357 1.362 . S
C357 H347 0.930 . S
C357 C350 1.409 . S
C357 C356 1.362 . S
H358 C364 0.930 1_554 S
H359 C367 0.930 . S
H360 C368 0.930 . S
H361 C369 0.930 . S
H362 C372 0.930 . S
H363 C373 0.930 . S
C364 H358 0.930 1_556 S
C364 C365 1.355 . S
C364 C366 1.415 . S
C365 C364 1.355 . S
C365 C367 1.419 . S
C366 C364 1.415 . S
C366 C371 1.425 . S
C366 C373 1.409 . S
C367 H359 0.930 . S
C367 C365 1.419 . S
C367 C368 1.362 . S
C368 H360 0.930 . S
C368 C367 1.362 . S
C368 C371 1.409 . S
C369 H361 0.930 . S
C369 C370 1.355 . S
C369 C371 1.415 . S
C370 C369 1.355 . S
C370 C372 1.419 . S
C371 C366 1.425 . S
C371 C368 1.409 . S
C371 C369 1.415 . S
C372 H362 0.930 . S
C372 C370 1.419 . S
C372 C373 1.362 . S
C373 H363 0.930 . S
C373 C366 1.409 . S
C373 C372 1.362 . S
H374 C380 0.930 . S
H375 C383 0.930 . S
H376 C384 0.930 . S
H377 C385 0.930 . S
H378 C388 0.930 . S
H379 C389 0.930 . S
C380 H374 0.930 . S
C380 C381 1.355 . S
C380 C382 1.415 . S
C381 C380 1.355 . S
C381 C383 1.419 . S
C382 C380 1.415 . S
C382 C387 1.425 . S
C382 C389 1.409 . S
C383 H375 0.930 . S
C383 C381 1.419 . S
C383 C384 1.362 . S
C384 H376 0.930 . S
C384 C383 1.362 . S
C384 C387 1.409 . S
C385 H377 0.930 . S
C385 C386 1.355 . S
C385 C387 1.415 . S
C386 C385 1.355 . S
C386 C388 1.419 . S
C387 C382 1.425 . S
C387 C384 1.409 . S
C387 C385 1.415 . S
C388 H378 0.930 . S
C388 C386 1.419 . S
C388 C389 1.362 . S
C389 H379 0.930 . S
C389 C382 1.409 . S
C389 C388 1.362 . S
H390 C396 0.930 . S
H391 C399 0.930 . S
H392 C400 0.930 . S
H393 C401 0.930 . S
H394 C404 0.930 . S
H395 C405 0.930 . S
C396 H390 0.930 . S
C396 C397 1.355 . S
C396 C398 1.415 . S
C397 C396 1.355 . S
C397 C399 1.419 . S
C398 C396 1.415 . S
C398 C403 1.425 . S
C398 C405 1.409 . S
C399 H391 0.930 . S
C399 C397 1.419 . S
C399 C400 1.362 . S
C400 H392 0.930 . S
C400 C399 1.362 . S
C400 C403 1.409 . S
C401 H393 0.930 . S
C401 C402 1.355 . S
C401 C403 1.415 . S
C402 C401 1.355 . S
C402 C404 1.419 . S
C403 C398 1.425 . S
C403 C400 1.409 . S
C403 C401 1.415 . S
C404 H394 0.930 . S
C404 C402 1.419 . S
C404 C405 1.362 . S
C405 H395 0.930 . S
C405 C398 1.409 . S
C405 C404 1.362 . S
H406 C412 0.930 . S
H407 C415 0.930 . S
H408 C416 0.930 . S
H409 C417 0.930 . S
H410 C420 0.930 . S
H411 C421 0.930 . S
C412 H406 0.930 . S
C412 C413 1.355 . S
C412 C414 1.415 . S
C413 C412 1.355 . S
C413 C415 1.419 . S
C414 C412 1.415 . S
C414 C419 1.425 . S
C414 C421 1.409 . S
C415 H407 0.930 . S
C415 C413 1.419 . S
C415 C416 1.362 . S
C416 H408 0.930 . S
C416 C415 1.362 . S
C416 C419 1.409 . S
C417 H409 0.930 . S
C417 C418 1.355 . S
C417 C419 1.415 . S
C418 C417 1.355 . S
C418 C420 1.419 . S
C419 C414 1.425 . S
C419 C416 1.409 . S
C419 C417 1.415 . S
C420 H410 0.930 . S
C420 C418 1.419 . S
C420 C421 1.362 . S
C421 H411 0.930 . S
C421 C414 1.409 . S
C421 C420 1.362 . S
H422 C428 0.930 . S
H423 C431 0.930 . S
H424 C432 0.930 . S
H425 C433 0.930 . S
H426 C436 0.930 . S
H427 C437 0.930 . S
C428 H422 0.930 . S
C428 C429 1.355 . S
C428 C430 1.415 . S
C429 C428 1.355 . S
C429 C431 1.419 . S
C430 C428 1.415 . S
C430 C435 1.425 . S
C430 C437 1.409 . S
C431 H423 0.930 . S
C431 C429 1.419 . S
C431 C432 1.362 . S
C432 H424 0.930 . S
C432 C431 1.362 . S
C432 C435 1.409 . S
C433 H425 0.930 . S
C433 C434 1.355 . S
C433 C435 1.415 . S
C434 C433 1.355 . S
C434 C436 1.419 . S
C435 C430 1.425 . S
C435 C432 1.409 . S
C435 C433 1.415 . S
C436 H426 0.930 . S
C436 C434 1.419 . S
C436 C437 1.362 . S
C437 H427 0.930 . S
C437 C430 1.409 . S
C437 C436 1.362 . S
H438 C444 0.930 . S
H439 C447 0.930 . S
H440 C448 0.930 . S
H441 C449 0.930 . S
H442 C452 0.930 . S
H443 C453 0.930 . S
C444 H438 0.930 . S
C444 C445 1.355 . S
C444 C446 1.415 . S
C445 C444 1.355 . S
C445 C447 1.419 . S
C446 C444 1.415 . S
C446 C451 1.425 . S
C446 C453 1.409 . S
C447 H439 0.930 . S
C447 C445 1.419 . S
C447 C448 1.362 . S
C448 H440 0.930 . S
C448 C447 1.362 . S
C448 C451 1.409 . S
C449 H441 0.930 . S
C449 C450 1.355 . S
C449 C451 1.415 . S
C450 C449 1.355 . S
C450 C452 1.419 . S
C451 C446 1.425 . S
C451 C448 1.409 . S
C451 C449 1.415 . S
C452 H442 0.930 . S
C452 C450 1.419 . S
C452 C453 1.362 . S
C453 H443 0.930 . S
C453 C446 1.409 . S
C453 C452 1.362 . S
H454 C460 0.930 . S
H455 C463 0.930 . S
H456 C464 0.930 . S
H457 C465 0.930 . S
H458 C468 0.930 . S
H459 C469 0.930 . S
C460 H454 0.930 . S
C460 C461 1.355 . S
C460 C462 1.415 . S
C461 C460 1.355 . S
C461 C463 1.419 . S
C462 C460 1.415 . S
C462 C467 1.425 . S
C462 C469 1.409 . S
C463 H455 0.930 . S
C463 C461 1.419 . S
C463 C464 1.362 . S
C464 H456 0.930 . S
C464 C463 1.362 . S
C464 C467 1.409 . S
C465 H457 0.930 . S
C465 C466 1.355 . S
C465 C467 1.415 . S
C466 C465 1.355 . S
C466 C468 1.419 . S
C467 C462 1.425 . S
C467 C464 1.409 . S
C467 C465 1.415 . S
C468 H458 0.930 . S
C468 C466 1.419 . S
C468 C469 1.362 . S
C469 H459 0.930 . S
C469 C462 1.409 . S
C469 C468 1.362 . S
H470 C476 0.930 . S
H471 C479 0.930 . S
H472 C480 0.930 . S
H473 C481 0.930 . S
H474 C484 0.930 . S
H475 C485 0.930 . S
C476 H470 0.930 . S
C476 C477 1.355 . S
C476 C478 1.415 . S
C477 C476 1.355 . S
C477 C479 1.419 . S
C478 C476 1.415 . S
C478 C483 1.425 . S
C478 C485 1.409 . S
C479 H471 0.930 . S
C479 C477 1.419 . S
C479 C480 1.362 . S
C480 H472 0.930 . S
C480 C479 1.362 . S
C480 C483 1.409 . S
C481 H473 0.930 . S
C481 C482 1.355 . S
C481 C483 1.415 . S
C482 C481 1.355 . S
C482 C484 1.419 . S
C483 C478 1.425 . S
C483 C480 1.409 . S
C483 C481 1.415 . S
C484 H474 0.930 . S
C484 C482 1.419 . S
C484 C485 1.362 . S
C485 H475 0.930 . S
C485 C478 1.409 . S
C485 C484 1.362 . S
H486 C492 0.930 . S
H487 C495 0.930 . S
H488 C496 0.930 . S
H489 C497 0.930 . S
H490 C500 0.930 . S
H491 C501 0.930 . S
C492 H486 0.930 . S
C492 C493 1.355 . S
C492 C494 1.415 . S
C493 C492 1.355 . S
C493 C495 1.419 . S
C494 C492 1.415 . S
C494 C499 1.425 . S
C494 C501 1.409 . S
C495 H487 0.930 . S
C495 C493 1.419 . S
C495 C496 1.362 . S
C496 H488 0.930 . S
C496 C495 1.362 . S
C496 C499 1.409 . S
C497 H489 0.930 . S
C497 C498 1.355 . S
C497 C499 1.415 . S
C498 C497 1.355 . S
C498 C500 1.419 . S
C499 C494 1.425 . S
C499 C496 1.409 . S
C499 C497 1.415 . S
C500 H490 0.930 . S
C500 C498 1.419 . S
C500 C501 1.362 . S
C501 H491 0.930 . S
C501 C494 1.409 . S
C501 C500 1.362 . S
H502 C508 0.930 . S
H503 C511 0.930 . S
H504 C512 0.930 . S
H505 C513 0.930 . S
H506 C516 0.930 . S
H507 C517 0.930 . S
C508 H502 0.930 . S
C508 C509 1.355 . S
C508 C510 1.415 . S
C509 C508 1.355 . S
C509 C511 1.419 . S
C510 C508 1.415 . S
C510 C515 1.425 . S
C510 C517 1.409 . S
C511 H503 0.930 . S
C511 C509 1.419 . S
C511 C512 1.362 . S
C512 H504 0.930 . S
C512 C511 1.362 . S
C512 C515 1.409 . S
C513 H505 0.930 . S
C513 C514 1.355 . S
C513 C515 1.415 . S
C514 C513 1.355 . S
C514 C516 1.419 . S
C515 C510 1.425 . S
C515 C512 1.409 . S
C515 C513 1.415 . S
C516 H506 0.930 . S
C516 C514 1.419 . S
C516 C517 1.362 . S
C517 H507 0.930 . S
C517 C510 1.409 . S
C517 C516 1.362 . S
H518 C524 0.930 . S
H519 C527 0.930 . S
H520 C528 0.930 . S
H521 C529 0.930 . S
H522 C532 0.930 . S
H523 C533 0.930 . S
C524 H518 0.930 . S
C524 C525 1.355 . S
C524 C526 1.415 . S
C525 C524 1.355 . S
C525 C527 1.419 . S
C526 C524 1.415 . S
C526 C531 1.425 . S
C526 C533 1.409 . S
C527 H519 0.930 . S
C527 C525 1.419 . S
C527 C528 1.362 . S
C528 H520 0.930 . S
C528 C527 1.362 . S
C528 C531 1.409 . S
C529 H521 0.930 . S
C529 C530 1.355 . S
C529 C531 1.415 . S
C530 C529 1.355 . S
C530 C532 1.419 . S
C531 C526 1.425 . S
C531 C528 1.409 . S
C531 C529 1.415 . S
C532 H522 0.930 . S
C532 C530 1.419 . S
C532 C533 1.362 . S
C533 H523 0.930 . S
C533 C526 1.409 . S
C533 C532 1.362 . S
H534 C540 0.930 . S
H535 C543 0.930 . S
H536 C544 0.930 . S
H537 C545 0.930 . S
H538 C548 0.930 . S
H539 C549 0.930 . S
C540 H534 0.930 . S
C540 C541 1.355 . S
C540 C542 1.415 . S
C541 C540 1.355 . S
C541 C543 1.419 . S
C542 C540 1.415 . S
C542 C547 1.425 . S
C542 C549 1.409 . S
C543 H535 0.930 . S
C543 C541 1.419 . S
C543 C544 1.362 . S
C544 H536 0.930 . S
C544 C543 1.362 . S
C544 C547 1.409 . S
C545 H537 0.930 . S
C545 C546 1.355 . S
C545 C547 1.415 . S
C546 C545 1.355 . S
C546 C548 1.419 . S
C547 C542 1.425 . S
C547 C544 1.409 . S
C547 C545 1.415 . S
C548 H538 0.930 . S
C548 C546 1.419 . S
C548 C549 1.362 . S
C549 H539 0.930 . S
C549 C542 1.409 . S
C549 C548 1.362 . S
H550 C556 0.930 . S
H551 C559 0.930 . S
H552 C560 0.930 . S
H553 C561 0.930 . S
H554 C564 0.930 . S
H555 C565 0.930 . S
C556 H550 0.930 . S
C556 C557 1.355 . S
C556 C558 1.415 . S
C557 C556 1.355 . S
C557 C559 1.419 . S
C558 C556 1.415 . S
C558 C563 1.425 . S
C558 C565 1.409 . S
C559 H551 0.930 . S
C559 C557 1.419 . S
C559 C560 1.362 . S
C560 H552 0.930 . S
C560 C559 1.362 . S
C560 C563 1.409 . S
C561 H553 0.930 . S
C561 C562 1.355 . S
C561 C563 1.415 . S
C562 C561 1.355 . S
C562 C564 1.419 . S
C563 C558 1.425 . S
C563 C560 1.409 . S
C563 C561 1.415 . S
C564 H554 0.930 . S
C564 C562 1.419 . S
C564 C565 1.362 . S
C565 H555 0.930 . S
C565 C558 1.409 . S
C565 C564 1.362 . S
H566 C572 0.930 . S
H567 C575 0.930 . S
H568 C576 0.930 . S
H569 C577 0.930 . S
H570 C580 0.930 . S
H571 C581 0.930 . S
C572 H566 0.930 . S
C572 C573 1.355 . S
C572 C574 1.415 . S
C573 C572 1.355 . S
C573 C575 1.419 . S
C574 C572 1.415 . S
C574 C579 1.425 . S
C574 C581 1.409 . S
C575 H567 0.930 . S
C575 C573 1.419 . S
C575 C576 1.362 . S
C576 H568 0.930 . S
C576 C575 1.362 . S
C576 C579 1.409 . S
C577 H569 0.930 . S
C577 C578 1.355 . S
C577 C579 1.415 . S
C578 C577 1.355 . S
C578 C580 1.419 . S
C579 C574 1.425 . S
C579 C576 1.409 . S
C579 C577 1.415 . S
C580 H570 0.930 . S
C580 C578 1.419 . S
C580 C581 1.362 . S
C581 H571 0.930 . S
C581 C574 1.409 . S
C581 C580 1.362 . S
H582 C588 0.930 . S
H583 C591 0.930 . S
H584 C592 0.930 . S
H585 C593 0.930 . S
H586 C596 0.930 . S
H587 C597 0.930 . S
C588 H582 0.930 . S
C588 C589 1.355 . S
C588 C590 1.415 . S
C589 C588 1.355 . S
C589 C591 1.419 . S
C590 C588 1.415 . S
C590 C595 1.425 . S
C590 C597 1.409 . S
C591 H583 0.930 . S
C591 C589 1.419 . S
C591 C592 1.362 . S
C592 H584 0.930 . S
C592 C591 1.362 . S
C592 C595 1.409 . S
C593 H585 0.930 . S
C593 C594 1.355 . S
C593 C595 1.415 . S
C594 C593 1.355 . S
C594 C596 1.419 . S
C595 C590 1.425 . S
C595 C592 1.409 . S
C595 C593 1.415 . S
C596 H586 0.930 . S
C596 C594 1.419 . S
C596 C597 1.362 . S
C597 H587 0.930 . S
C597 C590 1.409 . S
C597 C596 1.362 . S
H598 C604 0.930 . S
H599 C607 0.930 . S
H600 C608 0.930 . S
H601 C609 0.930 . S
H602 C612 0.930 . S
H603 C613 0.930 . S
C604 H598 0.930 . S
C604 C605 1.355 . S
C604 C606 1.415 . S
C605 C604 1.355 . S
C605 C607 1.419 . S
C606 C604 1.415 . S
C606 C611 1.425 . S
C606 C613 1.409 . S
C607 H599 0.930 . S
C607 C605 1.419 . S
C607 C608 1.362 . S
C608 H600 0.930 . S
C608 C607 1.362 . S
C608 C611 1.409 . S
C609 H601 0.930 . S
C609 C610 1.355 . S
C609 C611 1.415 . S
C610 C609 1.355 . S
C610 C612 1.419 . S
C611 C606 1.425 . S
C611 C608 1.409 . S
C611 C609 1.415 . S
C612 H602 0.930 . S
C612 C610 1.419 . S
C612 C613 1.362 . S
C613 H603 0.930 . S
C613 C606 1.409 . S
C613 C612 1.362 . S
H614 C620 0.930 . S
H615 C623 0.930 . S
H616 C624 0.930 . S
H617 C625 0.930 . S
H618 C628 0.930 . S
H619 C629 0.930 . S
C620 H614 0.930 . S
C620 C621 1.355 . S
C620 C622 1.415 . S
C621 C620 1.355 . S
C621 C623 1.419 . S
C622 C620 1.415 . S
C622 C627 1.425 . S
C622 C629 1.409 . S
C623 H615 0.930 . S
C623 C621 1.419 . S
C623 C624 1.362 . S
C624 H616 0.930 . S
C624 C623 1.362 . S
C624 C627 1.409 . S
C625 H617 0.930 . S
C625 C626 1.355 . S
C625 C627 1.415 . S
C626 C625 1.355 . S
C626 C628 1.419 . S
C627 C622 1.425 . S
C627 C624 1.409 . S
C627 C625 1.415 . S
C628 H618 0.930 . S
C628 C626 1.419 . S
C628 C629 1.362 . S
C629 H619 0.930 . S
C629 C622 1.409 . S
C629 C628 1.362 . S
C253 C7 1.757 . S
C258 C152 1.655 . S
C269 C30 1.513 . S
C274 C163 1.490 . S
C290 C182 1.573 . S
C285 N58 1.620 . S
C306 C199 1.389 . S
C301 N81 1.329 . S
C322 C226 1.632 . S
C317 C99 1.641 . S
C338 C235 1.392 . S
C333 N127 1.364 . S
C349 N25 1.604 . S
C354 C188 1.562 . S
C365 C62 1.512 . S
C370 C208 1.494 . S
C386 C217 1.671 . S
C381 C85 1.715 . S
C402 C244 1.378 . S
C397 N94 1.406 . S
C413 C131 1.673 . S
C418 C146 1.642 . S
C434 C172 1.390 . S
C429 N2 1.390 . S
C450 C200 1.698 . S
C445 C16 1.764 . S
C461 C39 1.511 . S
C466 C224 1.453 . S
C482 C236 1.625 . S
C477 N48 1.654 . S
C493 N71 1.398 . S
C498 C154 1.304 . S
C509 C108 1.677 . S
C514 C164 1.661 . S
C525 N117 1.430 . S
C530 C181 1.422 . S
C541 N35 1.617 . S
C546 C242 1.581 . S
C562 C145 1.452 . S
C557 C53 1.564 . S
C573 C76 1.796 . S
C578 C170 1.700 . S
C589 N104 1.408 . S
C594 C190 1.340 . S
C605 C122 1.682 . S
C610 C206 1.593 . S
C621 N12 1.412 . S
C626 C218 1.388 . S
