# Generated by pormake.
# Topology anh, (6,3)-cn, num edge types: 1
# Building blocks:
#     Node 0, Type 0, BuildingBlock: BETFAJ_clean_sbu_0, # of connection points: 6
#     Node 1, Type 0, BuildingBlock: BETFAJ_clean_sbu_0, # of connection points: 6
#     Node 2, Type 0, BuildingBlock: BETFAJ_clean_sbu_0, # of connection points: 6
#     Node 3, Type 1, BuildingBlock: ESEHIV_clean_linker_0, # of connection points: 3
#     Node 4, Type 1, BuildingBlock: ESEHIV_clean_linker_0, # of connection points: 3
#     Node 5, Type 1, BuildingBlock: ESEHIV_clean_linker_0, # of connection points: 3
#     Node 6, Type 1, BuildingBlock: ESEHIV_clean_linker_0, # of connection points: 3
#     Node 7, Type 1, BuildingBlock: ESEHIV_clean_linker_0, # of connection points: 3
#     Node 8, Type 1, BuildingBlock: ESEHIV_clean_linker_0, # of connection points: 3
#     Edge 9, Type (0, 1), BuildingBlock: AJUNOK_clean_linker_0, # of connection points: 2
#     Edge 10, Type (0, 1), BuildingBlock: AJUNOK_clean_linker_0, # of connection points: 2
#     Edge 11, Type (0, 1), BuildingBlock: AJUNOK_clean_linker_0, # of connection points: 2
#     Edge 12, Type (0, 1), BuildingBlock: AJUNOK_clean_linker_0, # of connection points: 2
#     Edge 13, Type (0, 1), BuildingBlock: AJUNOK_clean_linker_0, # of connection points: 2
#     Edge 14, Type (0, 1), BuildingBlock: AJUNOK_clean_linker_0, # of connection points: 2
#     Edge 15, Type (0, 1), BuildingBlock: AJUNOK_clean_linker_0, # of connection points: 2
#     Edge 16, Type (0, 1), BuildingBlock: AJUNOK_clean_linker_0, # of connection points: 2
#     Edge 17, Type (0, 1), BuildingBlock: AJUNOK_clean_linker_0, # of connection points: 2
#     Edge 18, Type (0, 1), BuildingBlock: AJUNOK_clean_linker_0, # of connection points: 2
#     Edge 19, Type (0, 1), BuildingBlock: AJUNOK_clean_linker_0, # of connection points: 2
#     Edge 20, Type (0, 1), BuildingBlock: AJUNOK_clean_linker_0, # of connection points: 2
#     Edge 21, Type (0, 1), BuildingBlock: AJUNOK_clean_linker_0, # of connection points: 2
#     Edge 22, Type (0, 1), BuildingBlock: AJUNOK_clean_linker_0, # of connection points: 2
#     Edge 23, Type (0, 1), BuildingBlock: AJUNOK_clean_linker_0, # of connection points: 2
#     Edge 24, Type (0, 1), BuildingBlock: AJUNOK_clean_linker_0, # of connection points: 2
#     Edge 25, Type (0, 1), BuildingBlock: AJUNOK_clean_linker_0, # of connection points: 2
#     Edge 26, Type (0, 1), BuildingBlock: AJUNOK_clean_linker_0, # of connection points: 2
# Relax obj value: 0.284
# Max RMSD: 0.258
# Mean RMSD: 0.181
data_MOF--net-anh--node1-BETFAJ_clean_sbu_0--node2-ESEHIV_clean_linker_0--edge1-AJUNOK_clean_linker_0
_symmetry_space_group_name_H-M    P1
_symmetry_Int_Tables_number       1
_symmetry_cell_setting            triclinic
loop_
_symmetry_equiv_pos_as_xyz
'x, y, z'
_cell_length_a     20.666282
_cell_length_b     26.604963
_cell_length_c     37.943713
_cell_angle_alpha  91.324002
_cell_angle_beta   89.860328
_cell_angle_gamma 133.02393
loop_
_atom_site_label
_atom_site_type_symbol
_atom_site_fract_x
_atom_site_fract_y
_atom_site_fract_z
_atom_type_partial_charge
Sm0 Sm 0.25423 0.56516 0.14251 0.0
Sm1 Sm 1.13371 0.57945 0.16316 0.0
C2 C 0.38532 0.58483 0.11336 0.0
C3 C 0.47622 0.62507 0.12573 0.0
C4 C 0.53461 0.62962 0.10418 0.0
C5 C 0.60816 0.64533 0.11919 0.0
C6 C 0.62174 0.65402 0.15617 0.0
C7 C 0.57288 0.66283 0.17638 0.0
C8 C 0.49947 0.64764 0.16121 0.0
C9 C 0.24073 0.56566 0.21466 0.0
C10 C 0.33164 0.72296 0.15751 0.0
C11 C 0.9912 0.54935 0.18707 0.0
C12 C 0.90097 0.48247 0.18063 0.0
C13 C 0.82787 0.46454 0.1976 0.0
C14 C 0.74275 0.40109 0.18952 0.0
C15 C 0.72981 0.35338 0.16532 0.0
C16 C 0.80489 0.37034 0.15072 0.0
C17 C 0.88855 0.43509 0.15702 0.0
C18 C 0.15029 0.57736 0.09088 0.0
C19 C 1.06041 0.42376 0.15532 0.0
O20 O 0.36473 0.61969 0.10466 0.0
O21 O 0.32521 0.53155 0.13232 0.0
O22 O 0.24587 0.60512 0.1944 0.0
O23 O 0.24871 0.52768 0.19736 0.0
O24 O 0.34025 0.68388 0.14043 0.0
O25 O 0.25697 0.69386 0.17368 0.0
O26 O 1.04093 0.54714 0.20672 0.0
O27 O 1.03182 0.58546 0.15897 0.0
O28 O 0.1407 0.53687 0.11192 0.0
O29 O 0.1512 0.62077 0.10768 0.0
O30 O 1.06071 0.46613 0.17415 0.0
O31 O 1.12663 0.44997 0.13392 0.0
H32 H 0.51837 0.61374 0.07659 0.0
H33 H 0.64531 0.6395 0.10244 0.0
H34 H 0.58317 0.67125 0.20468 0.0
H35 H 0.45551 0.64592 0.178 0.0
H36 H 0.83608 0.50059 0.2158 0.0
H37 H 0.68736 0.39201 0.20057 0.0
H38 H 0.79885 0.33541 0.13245 0.0
H39 H 0.94353 0.44864 0.14261 0.0
Sm40 Sm 0.76604 0.07779 0.46893 0.0
Sm41 Sm 0.64117 0.0937 0.45861 0.0
C42 C 0.84888 0.04013 0.49077 0.0
C43 C 0.82314 0.97727 0.50473 0.0
C44 C 0.80197 0.96125 0.54043 0.0
C45 C 0.77629 0.90122 0.55327 0.0
C46 C 0.77096 0.85589 0.53069 0.0
C47 C 0.79354 0.87238 0.49517 0.0
C48 C 0.81955 0.93256 0.48233 0.0
C49 C 0.74951 0.09605 0.39968 0.0
C50 C 0.55376 0.93883 0.45582 0.0
C51 C 0.55668 0.13341 0.44498 0.0
C52 C 0.56079 0.18478 0.46359 0.0
C53 C 0.56857 0.23325 0.4446 0.0
C54 C 0.58181 0.28645 0.46239 0.0
C55 C 0.58708 0.29169 0.49945 0.0
C56 C 0.57782 0.24236 0.51832 0.0
C57 C 0.56529 0.18971 0.50061 0.0
C58 C 0.65937 0.07601 0.52782 0.0
C59 C 0.85779 0.23486 0.46293 0.0
O60 O 0.83552 0.07271 0.511 0.0
O61 O 0.82934 0.03754 0.45764 0.0
O62 O 0.6858 0.05736 0.42031 0.0
O63 O 0.82424 0.12419 0.4148 0.0
O64 O 0.62717 0.96533 0.47321 0.0
O65 O 0.54912 0.98039 0.4406 0.0
O66 O 0.6288 0.15804 0.42882 0.0
O67 O 0.52125 0.07795 0.46219 0.0
O68 O 0.72238 0.11532 0.50705 0.0
O69 O 0.58439 0.04637 0.51276 0.0
O70 O 0.77695 0.20653 0.45381 0.0
O71 O 0.87178 0.19606 0.47358 0.0
H72 H 0.80516 0.99499 0.55855 0.0
H73 H 0.76151 0.89065 0.58099 0.0
H74 H 0.79025 0.83837 0.47725 0.0
H75 H 0.83636 0.94388 0.45478 0.0
H76 H 0.56678 0.23102 0.41604 0.0
H77 H 0.59044 0.32451 0.44713 0.0
H78 H 0.5811 0.24485 0.54688 0.0
H79 H 0.56098 0.15371 0.51596 0.0
Sm80 Sm 0.68337 0.59269 0.85394 0.0
Sm81 Sm 0.548 0.44133 0.85445 0.0
C82 C 0.7775 0.72229 0.83684 0.0
C83 C 0.76222 0.76534 0.82319 0.0
C84 C 0.78164 0.78563 0.78796 0.0
C85 C 0.76799 0.82627 0.77446 0.0
C86 C 0.73507 0.84804 0.79593 0.0
C87 C 0.71676 0.8286 0.83135 0.0
C88 C 0.72996 0.78754 0.84483 0.0
C89 C 0.65048 0.54028 0.9196 0.0
C90 C 0.46578 0.5129 0.85935 0.0
C91 C 0.46304 0.31069 0.86193 0.0
C92 C 0.47981 0.27046 0.84427 0.0
C93 C 0.48276 0.22765 0.8636 0.0
C94 C 0.50523 0.19368 0.84708 0.0
C95 C 0.52434 0.20165 0.81094 0.0
C96 C 0.52205 0.24496 0.79181 0.0
C97 C 0.50045 0.27918 0.80827 0.0
C98 C 0.58402 0.4931 0.78835 0.0
C99 C 0.76796 0.52251 0.85575 0.0
O100 O 0.76 0.67541 0.81498 0.0
O101 O 0.75413 0.701 0.86917 0.0
O102 O 0.59209 0.51906 0.89663 0.0
O103 O 0.72931 0.59347 0.90911 0.0
O104 O 0.54808 0.56835 0.8499 0.0
O105 O 0.44961 0.45654 0.86715 0.0
O106 O 0.52465 0.35904 0.88423 0.0
O107 O 0.43364 0.33082 0.84167 0.0
O108 O 0.64116 0.5141 0.81188 0.0
O109 O 0.50499 0.4415 0.79882 0.0
O110 O 0.6826 0.46453 0.85801 0.0
O111 O 0.78751 0.58132 0.85221 0.0
H112 H 0.80729 0.76987 0.7707 0.0
H113 H 0.78247 0.84016 0.74705 0.0
H114 H 0.69318 0.84579 0.84878 0.0
H115 H 0.71508 0.77345 0.8722 0.0
H116 H 0.46883 0.22122 0.89151 0.0
H117 H 0.50725 0.16095 0.86245 0.0
H118 H 0.53855 0.25332 0.76413 0.0
H119 H 0.50128 0.31337 0.79285 0.0
H120 H 0.59581 0.96899 0.24365 0.0
H121 H 0.83683 0.18141 0.24221 0.0
H122 H 0.69702 0.07204 0.14461 0.0
C123 C 0.64666 1.01454 0.22893 0.0
C124 C 0.63886 1.01181 0.19201 0.0
C125 C 0.71788 0.07516 0.24713 0.0
C126 C 0.78181 0.13434 0.22809 0.0
C127 C 0.77494 0.13496 0.19131 0.0
C128 C 0.7038 0.07261 0.17295 0.0
H129 H 0.67636 0.64295 0.64156 0.0
H130 H 0.62918 0.45914 0.63034 0.0
H131 H 0.67758 0.57226 0.53856 0.0
C132 C 0.6697 0.60597 0.62483 0.0
C133 C 0.67932 0.61431 0.58825 0.0
C134 C 0.65237 0.55047 0.64004 0.0
C135 C 0.64457 0.50294 0.61857 0.0
C136 C 0.65213 0.50985 0.58184 0.0
C137 C 0.67072 0.56621 0.56687 0.0
H138 H 1.02952 0.53973 0.93292 0.0
H139 H 0.23455 0.53706 0.93569 0.0
H140 H 1.11171 0.51035 0.83574 0.0
C141 C 1.07139 0.53561 0.91867 0.0
C142 C 1.06054 0.52496 0.88196 0.0
C143 C 1.13356 0.54032 0.93778 0.0
C144 C 0.18692 0.53303 0.9203 0.0
C145 C 0.18216 0.52228 0.88357 0.0
C146 C 1.11745 0.51828 0.86407 0.0
H147 H 1.10797 0.46726 0.37236 0.0
H148 H 0.32787 0.68588 0.37091 0.0
H149 H 0.20707 0.58758 0.46964 0.0
C150 C 0.15522 0.51646 0.3864 0.0
C151 C 0.15006 0.51946 0.4232 0.0
C152 C 0.2195 0.57597 0.36744 0.0
C153 C 0.27854 0.63968 0.38554 0.0
C154 C 0.27517 0.64493 0.42226 0.0
C155 C 0.21097 0.58425 0.44133 0.0
H156 H 0.64027 0.11961 0.68513 0.0
H157 H 0.7089 0.99946 0.68077 0.0
H158 H 0.64606 0.03736 0.7803 0.0
C159 C 0.65182 0.09077 0.6986 0.0
C160 C 0.63894 0.08148 0.73515 0.0
C161 C 0.67653 0.06102 0.67897 0.0
C162 C 0.69158 1.02362 0.69612 0.0
C163 C 0.68142 1.01532 0.73275 0.0
C164 C 0.65527 0.04451 0.75212 0.0
H165 H 0.63303 0.52737 0.07831 0.0
H166 H 0.50586 0.32221 0.04561 0.0
H167 H 0.56331 0.38472 0.15606 0.0
C168 C 0.60291 0.47599 0.08515 0.0
C169 C 0.59936 0.46049 0.12045 0.0
C170 C 0.56997 0.42668 0.05825 0.0
C171 C 0.52837 0.35946 0.0667 0.0
C172 C 0.52548 0.34288 0.10209 0.0
C173 C 0.56013 0.39413 0.1288 0.0
C174 C 0.72586 0.63796 0.15533 0.0
C175 C 0.65562 0.62533 0.1724 0.0
C176 C 0.7141 0.58243 0.14226 0.0
C177 C 0.63444 0.51436 0.14805 0.0
H178 H 0.77972 0.68838 0.14507 0.0
H179 H 0.76107 0.59247 0.12346 0.0
S180 S 0.46131 0.46064 0.21103 0.0
N181 N 0.52766 0.54495 0.20934 0.0
N182 N 0.50475 0.44032 0.18476 0.0
C183 C 0.57828 0.50369 0.17411 0.0
C184 C 0.59078 0.56032 0.18734 0.0
C185 C 0.91896 0.35048 0.44356 0.0
C186 C 0.93412 0.31098 0.4584 0.0
C187 C 0.98926 0.41968 0.43482 0.0
C188 C 1.07818 0.45329 0.44098 0.0
H189 H 0.8522 0.3271 0.43719 0.0
H190 H 0.974 0.4463 0.42161 0.0
S191 S 0.15583 0.37637 0.48119 0.0
N192 N 1.04683 0.31338 0.4805 0.0
N193 N 0.17785 0.44309 0.46406 0.0
C194 C 1.09465 0.41593 0.45723 0.0
C195 C 1.02309 0.34511 0.46598 0.0
C196 C 0.78643 0.94788 0.76044 0.0
C197 C 0.72092 0.89141 0.7812 0.0
C198 C 0.77357 0.98812 0.74521 0.0
C199 C 0.69496 0.97374 0.75033 0.0
H200 H 0.84831 0.96119 0.75595 0.0
H201 H 0.82564 0.03093 0.72934 0.0
S202 S 0.50073 0.82963 0.80056 0.0
N203 N 0.57299 0.82179 0.80473 0.0
N204 N 0.54945 0.89794 0.7765 0.0
C205 C 0.629 0.91767 0.77102 0.0
C206 C 0.64185 0.87645 0.78637 0.0
C207 C 0.63639 0.28974 0.11125 0.0
C208 C 0.64102 0.29715 0.14842 0.0
C209 C 0.57032 0.27977 0.09231 0.0
C210 C 0.51329 0.2824 0.11048 0.0
H211 H 0.6909 0.30356 0.09626 0.0
H212 H 0.5791 0.28755 0.06418 0.0
S213 S 0.45633 0.24234 0.20429 0.0
N214 N 0.55106 0.2619 0.20056 0.0
N215 N 0.4289 0.24606 0.16418 0.0
C216 C 0.49657 0.26156 0.14563 0.0
C217 C 0.563 0.27103 0.16528 0.0
C218 C 0.48901 0.81664 0.45918 0.0
C219 C 0.47762 0.86216 0.4521 0.0
C220 C 0.42059 0.74499 0.4523 0.0
C221 C 0.3375 0.71578 0.43868 0.0
H222 H 0.55254 0.83672 0.46861 0.0
H223 H 0.4343 0.71275 0.45595 0.0
S224 S 0.26955 0.81 0.41863 0.0
N225 N 0.37299 0.87058 0.43295 0.0
N226 N 0.24608 0.73706 0.42025 0.0
C227 C 0.32383 0.76001 0.43321 0.0
C228 C 0.3932 0.83271 0.43989 0.0
C229 C 0.61836 0.17385 0.8059 0.0
C230 C 0.54826 0.16619 0.79292 0.0
C231 C 0.64677 0.14568 0.78736 0.0
C232 C 0.60568 0.10849 0.75528 0.0
H233 H 0.65311 0.20343 0.83003 0.0
H234 H 0.70266 0.15451 0.79778 0.0
S235 S 0.41092 0.06569 0.71284 0.0
N236 N 0.43339 0.11369 0.74784 0.0
N237 N 0.48525 0.05961 0.71339 0.0
C238 C 0.5329 0.09794 0.74293 0.0
C239 C 0.50456 0.127 0.76164 0.0
C240 C 0.79505 0.77627 0.53713 0.0
C241 C 0.74392 0.79227 0.54437 0.0
C242 C 0.77278 0.71784 0.55091 0.0
C243 C 0.69885 0.67362 0.57249 0.0
H244 H 0.85383 0.80998 0.52133 0.0
H245 H 0.81484 0.70805 0.54533 0.0
S246 S 0.5383 0.68847 0.5963 0.0
N247 N 0.61225 0.75624 0.57226 0.0
N248 N 0.57105 0.64675 0.59849 0.0
C249 C 0.64587 0.68794 0.57918 0.0
C250 C 0.66826 0.74721 0.56505 0.0
C251 C 0.93452 0.58269 0.85903 0.0
C252 C 0.84296 0.52142 0.8579 0.0
C253 C 1.00405 0.58304 0.86334 0.0
C254 C 0.98835 0.52216 0.86601 0.0
H255 H 0.95322 0.6318 0.8578 0.0
H256 H 1.07138 0.63233 0.86619 0.0
S257 S 0.76208 0.34671 0.86479 0.0
N258 N 0.74271 0.39699 0.85975 0.0
N259 N 0.87077 0.39812 0.8677 0.0
C260 C 0.89733 0.46056 0.8643 0.0
C261 C 0.82629 0.46004 0.86016 0.0
C262 C 0.40069 0.84162 0.17885 0.0
C263 C 0.40919 0.79958 0.16068 0.0
C264 C 0.47443 0.91195 0.18606 0.0
C265 C 0.56028 0.94399 0.17529 0.0
H266 H 0.33711 0.81956 0.18891 0.0
H267 H 0.46494 0.94087 0.20187 0.0
S268 S 0.61934 0.85944 0.12501 0.0
N269 N 0.51141 0.79747 0.13024 0.0
N270 N 0.64889 0.92908 0.14414 0.0
C271 C 0.56932 0.90384 0.15554 0.0
C272 C 0.49426 0.83198 0.14819 0.0
C273 C 0.66965 0.3854 0.54606 0.0
C274 C 0.60515 0.34945 0.51878 0.0
C275 C 0.68532 0.43787 0.566 0.0
C276 C 0.63764 0.45674 0.55921 0.0
H277 H 0.70824 0.37274 0.55213 0.0
H278 H 0.73506 0.46383 0.58693 0.0
S279 S 0.45963 0.37745 0.49171 0.0
N280 N 0.4918 0.33548 0.48668 0.0
N281 N 0.5223 0.43493 0.52391 0.0
C282 C 0.57369 0.4219 0.53183 0.0
C283 C 0.55727 0.36812 0.51164 0.0
C284 C 0.30111 0.45516 0.86791 0.0
C285 C 0.39142 0.51477 0.86166 0.0
C286 C 0.23305 0.45673 0.87172 0.0
C287 C 0.24901 0.51771 0.86899 0.0
H288 H 0.2826 0.40639 0.8708 0.0
H289 H 0.16722 0.40953 0.87835 0.0
S290 S 0.47308 0.68966 0.855 0.0
N291 N 0.49103 0.63794 0.85396 0.0
N292 N 0.36597 0.64041 0.86126 0.0
C293 C 0.33875 0.57747 0.86267 0.0
C294 C 0.40816 0.57606 0.85882 0.0
C295 C 0.91466 0.32564 0.18197 0.0
C296 C 0.98426 0.34762 0.15975 0.0
C297 C 0.84344 0.25614 0.18886 0.0
C298 C 0.83853 0.20417 0.17486 0.0
H299 H 0.91584 0.36261 0.19536 0.0
H300 H 0.79385 0.24321 0.20711 0.0
S301 S 1.00098 0.23163 0.11445 0.0
N302 N 1.04084 0.3099 0.12228 0.0
N303 N 0.90845 0.1789 0.13686 0.0
C304 C 0.90581 0.22431 0.1518 0.0
C305 C 0.97832 0.29587 0.14404 0.0
C306 C 0.1412 0.51786 0.03615 0.0
C307 C 0.14947 0.57055 0.05187 0.0
C308 C 1.13776 0.50916 -0.00069 0.0
C309 C 0.1421 0.55263 0.97675 0.0
H310 H 1.13644 0.48255 0.05242 0.0
H311 H 1.12974 0.46715 0.9884 0.0
S312 S 0.17041 0.70144 0.00444 0.0
N313 N 0.16616 0.66883 0.04184 0.0
N314 N 0.16025 0.65268 0.9728 0.0
C315 C 0.15241 0.60643 0.99212 0.0
C316 C 0.15602 0.61535 0.02959 0.0
C317 C 0.75151 0.13924 0.34206 0.0
C318 C 0.73799 0.0885 0.36127 0.0
C319 C 0.74394 0.13405 0.30518 0.0
C320 C 0.72363 0.0783 0.28632 0.0
H321 H 0.76804 0.18314 0.35563 0.0
H322 H 0.75379 0.17393 0.29135 0.0
S323 S 0.68531 0.93334 0.32536 0.0
N324 N 0.70401 0.9814 0.35966 0.0
N325 N 0.69246 0.97228 0.2902 0.0
C326 C 0.71017 0.02729 0.30557 0.0
C327 C 0.71693 0.03234 0.34312 0.0
C328 C 0.68122 0.53308 0.73625 0.0
C329 C 0.60437 0.51283 0.75125 0.0
C330 C 0.69684 0.54555 0.70009 0.0
C331 C 0.63724 0.53987 0.67821 0.0
H332 H 0.72794 0.53704 0.75228 0.0
H333 H 0.75547 0.55937 0.68912 0.0
S334 S 0.4301 0.49334 0.70518 0.0
N335 N 0.47011 0.4902 0.74183 0.0
N336 N 0.50112 0.51584 0.6741 0.0
C337 C 0.56203 0.52208 0.69313 0.0
C338 C 0.54515 0.50799 0.72967 0.0
C339 C 0.73996 0.12806 0.58592 0.0
C340 C 0.66875 0.07041 0.56568 0.0
C341 C 0.74341 0.12468 0.62273 0.0
C342 C 0.67715 0.06306 0.64008 0.0
H343 H 0.79119 0.17665 0.57347 0.0
H344 H 0.79733 0.17061 0.63778 0.0
S345 S 0.48144 0.89661 0.59861 0.0
N346 N 0.53314 0.94942 0.56542 0.0
N347 N 0.54135 0.94269 0.63429 0.0
C348 C 0.60796 1.00456 0.61992 0.0
C349 C 0.60336 1.00833 0.58274 0.0
C350 C 0.54256 0.4542 0.96404 0.0
C351 C 0.631 0.50845 0.9541 0.0
C352 C 0.52247 0.42516 -0.00266 0.0
C353 C 0.59028 0.44957 0.02155 0.0
H354 H 0.48843 0.43501 0.9463 0.0
H355 H 0.45379 0.38523 0.00463 0.0
S356 S 0.83197 0.58512 0.00724 0.0
N357 N 0.78658 0.58153 0.97034 0.0
N358 N 0.7486 0.52686 0.03275 0.0
C359 C 0.67871 0.50158 0.01141 0.0
C360 C 0.69918 0.53111 0.97769 0.0
C361 C 0.23311 0.6139 0.27022 0.0
C362 C 0.23552 0.56741 0.25355 0.0
C363 C 0.22792 0.61632 0.30701 0.0
C364 C 0.2244 0.57208 0.3285 0.0
H365 H 0.2352 0.64869 0.25476 0.0
H366 H 0.22581 0.65271 0.31873 0.0
S367 S 0.23048 0.4419 0.29799 0.0
N368 N 0.23464 0.47642 0.26143 0.0
N369 N 0.22568 0.48154 0.3305 0.0
C370 C 0.22678 0.5254 0.31217 0.0
C371 C 0.23223 0.52301 0.27474 0.0
loop_
_geom_bond_atom_site_label_1
_geom_bond_atom_site_label_2
_geom_bond_distance
_geom_bond_site_symmetry_2
_ccdc_geom_bond_type
Sm0 C2 2.846 . S
Sm0 O20 2.543 . S
Sm0 O21 2.450 . S
Sm0 O22 2.681 . S
Sm0 O23 2.464 . S
Sm0 O24 2.396 . S
Sm0 O28 2.386 . S
Sm0 O31 2.408 1_455 S
Sm1 C11 2.846 . S
Sm1 O22 2.386 1_655 S
Sm1 O25 2.408 1_655 S
Sm1 O26 2.543 . S
Sm1 O27 2.450 . S
Sm1 O28 2.681 1_655 S
Sm1 O29 2.464 . S
Sm1 O30 2.396 . S
C2 Sm0 2.846 . S
C2 C3 1.506 . S
C2 O20 1.261 . S
C2 O21 1.242 . S
C3 C2 1.506 . S
C3 C4 1.358 . S
C3 C8 1.382 . S
C4 C3 1.358 . S
C4 C5 1.385 . S
C4 H32 0.930 . S
C5 C4 1.385 . S
C5 C6 1.395 . S
C5 H33 0.929 . S
C6 C5 1.395 . S
C6 C7 1.335 . S
C7 C6 1.335 . S
C7 C8 1.398 . S
C7 H34 0.930 . S
C8 C3 1.382 . S
C8 C7 1.398 . S
C8 H35 0.929 . S
C9 O22 1.271 . S
C9 O23 1.251 . S
C10 O24 1.252 . S
C10 O25 1.272 . S
C11 Sm1 2.846 . S
C11 C12 1.506 . S
C11 O26 1.261 . S
C11 O27 1.242 . S
C12 C11 1.506 . S
C12 C13 1.358 . S
C12 C17 1.382 . S
C13 C12 1.358 . S
C13 C14 1.385 . S
C13 H36 0.930 . S
C14 C13 1.385 . S
C14 C15 1.395 . S
C14 H37 0.929 . S
C15 C14 1.395 . S
C15 C16 1.335 . S
C16 C15 1.335 . S
C16 C17 1.398 . S
C16 H38 0.930 . S
C17 C12 1.382 . S
C17 C16 1.398 . S
C17 H39 0.929 . S
C18 O28 1.271 . S
C18 O29 1.251 1_455 S
C19 O30 1.252 . S
C19 O31 1.272 . S
O20 Sm0 2.543 . S
O20 C2 1.261 . S
O21 Sm0 2.450 . S
O21 C2 1.242 . S
O22 Sm0 2.681 . S
O22 Sm1 2.386 1_455 S
O22 C9 1.271 . S
O23 Sm0 2.464 . S
O23 C9 1.251 . S
O24 Sm0 2.396 . S
O24 C10 1.252 . S
O25 Sm1 2.408 1_455 S
O25 C10 1.272 . S
O26 Sm1 2.543 . S
O26 C11 1.261 . S
O27 Sm1 2.450 . S
O27 C11 1.242 . S
O28 Sm0 2.386 . S
O28 Sm1 2.681 1_455 S
O28 C18 1.271 . S
O29 Sm1 2.464 . S
O29 C18 1.251 1_655 S
O30 Sm1 2.396 . S
O30 C19 1.252 . S
O31 Sm0 2.408 1_655 S
O31 C19 1.272 . S
H32 C4 0.930 . S
H33 C5 0.929 . S
H34 C7 0.930 . S
H35 C8 0.929 . S
H36 C13 0.930 . S
H37 C14 0.929 . S
H38 C16 0.930 . S
H39 C17 0.929 . S
Sm40 C42 2.846 . S
Sm40 O60 2.543 . S
Sm40 O61 2.450 . S
Sm40 O62 2.681 1_565 S
Sm40 O63 2.464 . S
Sm40 O64 2.396 . S
Sm40 O68 2.386 . S
Sm40 O71 2.408 1_565 S
Sm41 C51 2.846 . S
Sm41 O62 2.386 . S
Sm41 O65 2.408 1_545 S
Sm41 O66 2.543 . S
Sm41 O67 2.450 . S
Sm41 O68 2.681 1_545 S
Sm41 O69 2.464 . S
Sm41 O70 2.396 . S
C42 Sm40 2.846 . S
C42 C43 1.506 . S
C42 O60 1.261 . S
C42 O61 1.242 . S
C43 C42 1.506 . S
C43 C44 1.358 . S
C43 C48 1.382 . S
C44 C43 1.358 . S
C44 C45 1.385 . S
C44 H72 0.930 . S
C45 C44 1.385 . S
C45 C46 1.395 . S
C45 H73 0.929 . S
C46 C45 1.395 . S
C46 C47 1.335 . S
C47 C46 1.335 . S
C47 C48 1.398 . S
C47 H74 0.930 . S
C48 C43 1.382 . S
C48 C47 1.398 . S
C48 H75 0.929 . S
C49 O62 1.271 . S
C49 O63 1.251 1_545 S
C50 O64 1.252 . S
C50 O65 1.272 . S
C51 Sm41 2.846 . S
C51 C52 1.506 . S
C51 O66 1.261 . S
C51 O67 1.242 . S
C52 C51 1.506 . S
C52 C53 1.358 . S
C52 C57 1.382 . S
C53 C52 1.358 . S
C53 C54 1.385 . S
C53 H76 0.930 . S
C54 C53 1.385 . S
C54 C55 1.395 . S
C54 H77 0.929 . S
C55 C54 1.395 . S
C55 C56 1.335 . S
C56 C55 1.335 . S
C56 C57 1.398 . S
C56 H78 0.930 . S
C57 C52 1.382 . S
C57 C56 1.398 . S
C57 H79 0.929 . S
C58 O68 1.271 1_545 S
C58 O69 1.251 . S
C59 O70 1.252 . S
C59 O71 1.272 . S
O60 Sm40 2.543 . S
O60 C42 1.261 . S
O61 Sm40 2.450 . S
O61 C42 1.242 . S
O62 Sm40 2.681 1_545 S
O62 Sm41 2.386 . S
O62 C49 1.271 . S
O63 Sm40 2.464 . S
O63 C49 1.251 1_565 S
O64 Sm40 2.396 . S
O64 C50 1.252 . S
O65 Sm41 2.408 1_565 S
O65 C50 1.272 . S
O66 Sm41 2.543 . S
O66 C51 1.261 . S
O67 Sm41 2.450 . S
O67 C51 1.242 . S
O68 Sm40 2.386 . S
O68 Sm41 2.681 1_565 S
O68 C58 1.271 1_565 S
O69 Sm41 2.464 . S
O69 C58 1.251 . S
O70 Sm41 2.396 . S
O70 C59 1.252 . S
O71 Sm40 2.408 1_545 S
O71 C59 1.272 . S
H72 C44 0.930 . S
H73 C45 0.929 . S
H74 C47 0.930 . S
H75 C48 0.929 . S
H76 C53 0.930 . S
H77 C54 0.929 . S
H78 C56 0.930 . S
H79 C57 0.929 . S
Sm80 C82 2.846 . S
Sm80 O100 2.543 . S
Sm80 O101 2.450 . S
Sm80 O102 2.681 . S
Sm80 O103 2.464 . S
Sm80 O104 2.396 . S
Sm80 O108 2.386 . S
Sm80 O111 2.408 . S
Sm81 C91 2.846 . S
Sm81 O102 2.386 . S
Sm81 O105 2.408 . S
Sm81 O106 2.543 . S
Sm81 O107 2.450 . S
Sm81 O108 2.681 . S
Sm81 O109 2.464 . S
Sm81 O110 2.396 . S
C82 Sm80 2.846 . S
C82 C83 1.506 . S
C82 O100 1.261 . S
C82 O101 1.242 . S
C83 C82 1.506 . S
C83 C84 1.358 . S
C83 C88 1.382 . S
C84 C83 1.358 . S
C84 C85 1.385 . S
C84 H112 0.930 . S
C85 C84 1.385 . S
C85 C86 1.395 . S
C85 H113 0.929 . S
C86 C85 1.395 . S
C86 C87 1.335 . S
C87 C86 1.335 . S
C87 C88 1.398 . S
C87 H114 0.930 . S
C88 C83 1.382 . S
C88 C87 1.398 . S
C88 H115 0.929 . S
C89 O102 1.271 . S
C89 O103 1.251 . S
C90 O104 1.252 . S
C90 O105 1.272 . S
C91 Sm81 2.846 . S
C91 C92 1.506 . S
C91 O106 1.261 . S
C91 O107 1.242 . S
C92 C91 1.506 . S
C92 C93 1.358 . S
C92 C97 1.382 . S
C93 C92 1.358 . S
C93 C94 1.385 . S
C93 H116 0.930 . S
C94 C93 1.385 . S
C94 C95 1.395 . S
C94 H117 0.929 . S
C95 C94 1.395 . S
C95 C96 1.335 . S
C96 C95 1.335 . S
C96 C97 1.398 . S
C96 H118 0.930 . S
C97 C92 1.382 . S
C97 C96 1.398 . S
C97 H119 0.929 . S
C98 O108 1.271 . S
C98 O109 1.251 . S
C99 O110 1.252 . S
C99 O111 1.272 . S
O100 Sm80 2.543 . S
O100 C82 1.261 . S
O101 Sm80 2.450 . S
O101 C82 1.242 . S
O102 Sm80 2.681 . S
O102 Sm81 2.386 . S
O102 C89 1.271 . S
O103 Sm80 2.464 . S
O103 C89 1.251 . S
O104 Sm80 2.396 . S
O104 C90 1.252 . S
O105 Sm81 2.408 . S
O105 C90 1.272 . S
O106 Sm81 2.543 . S
O106 C91 1.261 . S
O107 Sm81 2.450 . S
O107 C91 1.242 . S
O108 Sm80 2.386 . S
O108 Sm81 2.681 . S
O108 C98 1.271 . S
O109 Sm81 2.464 . S
O109 C98 1.251 . S
O110 Sm81 2.396 . S
O110 C99 1.252 . S
O111 Sm80 2.408 . S
O111 C99 1.272 . S
H112 C84 0.930 . S
H113 C85 0.929 . S
H114 C87 0.930 . S
H115 C88 0.929 . S
H116 C93 0.930 . S
H117 C94 0.929 . S
H118 C96 0.930 . S
H119 C97 0.929 . S
H120 C123 0.931 . S
H121 C126 0.928 . S
H122 C128 0.930 . S
C123 H120 0.931 . S
C123 C124 1.413 . S
C123 C125 1.360 1_565 S
C124 C123 1.413 . S
C124 C128 1.429 1_565 S
C125 C123 1.360 1_545 S
C125 C126 1.372 . S
C126 H121 0.928 . S
C126 C125 1.372 . S
C126 C127 1.404 . S
C127 C126 1.404 . S
C127 C128 1.391 . S
C128 H122 0.930 . S
C128 C124 1.429 1_545 S
C128 C127 1.391 . S
H129 C132 0.931 . S
H130 C135 0.928 . S
H131 C137 0.930 . S
C132 H129 0.931 . S
C132 C133 1.413 . S
C132 C134 1.360 . S
C133 C132 1.413 . S
C133 C137 1.429 . S
C134 C132 1.360 . S
C134 C135 1.372 . S
C135 H130 0.928 . S
C135 C134 1.372 . S
C135 C136 1.404 . S
C136 C135 1.404 . S
C136 C137 1.391 . S
C137 H131 0.930 . S
C137 C133 1.429 . S
C137 C136 1.391 . S
H138 C141 0.931 1_655 S
H139 C144 0.928 . S
H140 C146 0.930 . S
C141 H138 0.931 1_455 S
C141 C142 1.413 . S
C141 C143 1.360 . S
C142 C141 1.413 . S
C142 C146 1.429 . S
C143 C141 1.360 . S
C143 C144 1.372 . S
C144 H139 0.928 . S
C144 C143 1.372 . S
C144 C145 1.404 . S
C145 C144 1.404 . S
C145 C146 1.391 . S
C146 H140 0.930 . S
C146 C142 1.429 . S
C146 C145 1.391 . S
H147 C150 0.931 . S
H148 C153 0.928 . S
H149 C155 0.930 . S
C150 H147 0.931 . S
C150 C151 1.413 . S
C150 C152 1.356 1_655 S
C151 C150 1.413 . S
C151 C155 1.429 1_655 S
C152 C150 1.356 1_455 S
C152 C153 1.376 . S
C153 H148 0.928 . S
C153 C152 1.376 . S
C153 C154 1.404 . S
C154 C153 1.404 . S
C154 C155 1.391 . S
C155 H149 0.930 . S
C155 C151 1.429 1_455 S
C155 C154 1.391 . S
H156 C159 0.931 . S
H157 C162 0.928 . S
H158 C164 0.930 . S
C159 H156 0.931 . S
C159 C160 1.413 . S
C159 C161 1.360 1_545 S
C160 C159 1.413 . S
C160 C164 1.429 . S
C161 C159 1.360 1_565 S
C161 C162 1.372 . S
C162 H157 0.928 . S
C162 C161 1.372 . S
C162 C163 1.404 . S
C163 C162 1.404 . S
C163 C164 1.391 1_565 S
C164 H158 0.930 . S
C164 C160 1.429 . S
C164 C163 1.391 1_545 S
H165 C168 0.931 . S
H166 C171 0.928 . S
H167 C173 0.930 . S
C168 H165 0.931 . S
C168 C169 1.413 . S
C168 C170 1.360 . S
C169 C168 1.413 . S
C169 C173 1.429 . S
C170 C168 1.360 . S
C170 C171 1.372 . S
C171 H166 0.928 . S
C171 C170 1.372 . S
C171 C172 1.404 . S
C172 C171 1.404 . S
C172 C173 1.391 . S
C173 H167 0.930 . S
C173 C169 1.429 . S
C173 C172 1.391 . S
C174 C175 1.369 . S
C174 C176 1.419 . S
C174 H178 0.930 . S
C175 C174 1.369 . S
C175 C184 1.429 . S
C176 C174 1.419 . S
C176 C177 1.363 . S
C176 H179 0.929 . S
C177 C176 1.363 . S
C177 C183 1.428 . S
H178 C174 0.930 . S
H179 C176 0.929 . S
S180 N181 1.613 . S
S180 N182 1.610 . S
N181 S180 1.613 . S
N181 C184 1.350 . S
N182 S180 1.610 . S
N182 C183 1.351 . S
C183 C177 1.428 . S
C183 N182 1.351 . S
C183 C184 1.434 . S
C184 C175 1.429 . S
C184 N181 1.350 . S
C184 C183 1.434 . S
C185 C186 1.369 . S
C185 C187 1.419 . S
C185 H189 0.930 . S
C186 C185 1.369 . S
C186 C195 1.429 . S
C187 C185 1.419 . S
C187 C188 1.363 . S
C187 H190 0.929 . S
C188 C187 1.363 . S
C188 C194 1.428 . S
H189 C185 0.930 . S
H190 C187 0.929 . S
S191 N192 1.613 . S
S191 N193 1.610 . S
N192 S191 1.613 . S
N192 C195 1.350 . S
N193 S191 1.610 . S
N193 C194 1.351 . S
C194 C188 1.428 . S
C194 N193 1.351 . S
C194 C195 1.434 . S
C195 C186 1.429 . S
C195 N192 1.350 . S
C195 C194 1.434 . S
C196 C197 1.369 . S
C196 C198 1.419 . S
C196 H200 0.930 . S
C197 C196 1.369 . S
C197 C206 1.429 . S
C198 C196 1.419 . S
C198 C199 1.363 . S
C198 H201 0.929 . S
C199 C198 1.363 . S
C199 C205 1.428 . S
H200 C196 0.930 . S
H201 C198 0.929 . S
S202 N203 1.613 . S
S202 N204 1.610 . S
N203 S202 1.613 . S
N203 C206 1.350 . S
N204 S202 1.610 . S
N204 C205 1.351 . S
C205 C199 1.428 . S
C205 N204 1.351 . S
C205 C206 1.434 . S
C206 C197 1.429 . S
C206 N203 1.350 . S
C206 C205 1.434 . S
C207 C208 1.369 . S
C207 C209 1.419 . S
C207 H211 0.930 . S
C208 C207 1.369 . S
C208 C217 1.429 . S
C209 C207 1.419 . S
C209 C210 1.363 . S
C209 H212 0.929 . S
C210 C209 1.363 . S
C210 C216 1.428 . S
H211 C207 0.930 . S
H212 C209 0.929 . S
S213 N214 1.613 . S
S213 N215 1.610 . S
N214 S213 1.613 . S
N214 C217 1.350 . S
N215 S213 1.610 . S
N215 C216 1.351 . S
C216 C210 1.428 . S
C216 N215 1.351 . S
C216 C217 1.434 . S
C217 C208 1.429 . S
C217 N214 1.350 . S
C217 C216 1.434 . S
C218 C219 1.369 . S
C218 C220 1.419 . S
C218 H222 0.930 . S
C219 C218 1.369 . S
C219 C228 1.429 . S
C220 C218 1.419 . S
C220 C221 1.363 . S
C220 H223 0.929 . S
C221 C220 1.363 . S
C221 C227 1.428 . S
H222 C218 0.930 . S
H223 C220 0.929 . S
S224 N225 1.613 . S
S224 N226 1.610 . S
N225 S224 1.613 . S
N225 C228 1.350 . S
N226 S224 1.610 . S
N226 C227 1.351 . S
C227 C221 1.428 . S
C227 N226 1.351 . S
C227 C228 1.434 . S
C228 C219 1.429 . S
C228 N225 1.350 . S
C228 C227 1.434 . S
C229 C230 1.369 . S
C229 C231 1.419 . S
C229 H233 0.930 . S
C230 C229 1.369 . S
C230 C239 1.429 . S
C231 C229 1.419 . S
C231 C232 1.363 . S
C231 H234 0.929 . S
C232 C231 1.363 . S
C232 C238 1.428 . S
H233 C229 0.930 . S
H234 C231 0.929 . S
S235 N236 1.613 . S
S235 N237 1.610 . S
N236 S235 1.613 . S
N236 C239 1.350 . S
N237 S235 1.610 . S
N237 C238 1.351 . S
C238 C232 1.428 . S
C238 N237 1.351 . S
C238 C239 1.434 . S
C239 C230 1.429 . S
C239 N236 1.350 . S
C239 C238 1.434 . S
C240 C241 1.369 . S
C240 C242 1.419 . S
C240 H244 0.930 . S
C241 C240 1.369 . S
C241 C250 1.429 . S
C242 C240 1.419 . S
C242 C243 1.363 . S
C242 H245 0.929 . S
C243 C242 1.363 . S
C243 C249 1.428 . S
H244 C240 0.930 . S
H245 C242 0.929 . S
S246 N247 1.613 . S
S246 N248 1.610 . S
N247 S246 1.613 . S
N247 C250 1.350 . S
N248 S246 1.610 . S
N248 C249 1.351 . S
C249 C243 1.428 . S
C249 N248 1.351 . S
C249 C250 1.434 . S
C250 C241 1.429 . S
C250 N247 1.350 . S
C250 C249 1.434 . S
C251 C252 1.369 . S
C251 C253 1.419 . S
C251 H255 0.930 . S
C252 C251 1.369 . S
C252 C261 1.429 . S
C253 C251 1.419 . S
C253 C254 1.363 . S
C253 H256 0.929 . S
C254 C253 1.363 . S
C254 C260 1.428 . S
H255 C251 0.930 . S
H256 C253 0.929 . S
S257 N258 1.613 . S
S257 N259 1.610 . S
N258 S257 1.613 . S
N258 C261 1.350 . S
N259 S257 1.610 . S
N259 C260 1.351 . S
C260 C254 1.428 . S
C260 N259 1.351 . S
C260 C261 1.434 . S
C261 C252 1.429 . S
C261 N258 1.350 . S
C261 C260 1.434 . S
C262 C263 1.369 . S
C262 C264 1.419 . S
C262 H266 0.930 . S
C263 C262 1.369 . S
C263 C272 1.429 . S
C264 C262 1.419 . S
C264 C265 1.363 . S
C264 H267 0.929 . S
C265 C264 1.363 . S
C265 C271 1.428 . S
H266 C262 0.930 . S
H267 C264 0.929 . S
S268 N269 1.613 . S
S268 N270 1.610 . S
N269 S268 1.613 . S
N269 C272 1.350 . S
N270 S268 1.610 . S
N270 C271 1.351 . S
C271 C265 1.428 . S
C271 N270 1.351 . S
C271 C272 1.434 . S
C272 C263 1.429 . S
C272 N269 1.350 . S
C272 C271 1.434 . S
C273 C274 1.369 . S
C273 C275 1.419 . S
C273 H277 0.930 . S
C274 C273 1.369 . S
C274 C283 1.429 . S
C275 C273 1.419 . S
C275 C276 1.363 . S
C275 H278 0.929 . S
C276 C275 1.363 . S
C276 C282 1.428 . S
H277 C273 0.930 . S
H278 C275 0.929 . S
S279 N280 1.613 . S
S279 N281 1.610 . S
N280 S279 1.613 . S
N280 C283 1.350 . S
N281 S279 1.610 . S
N281 C282 1.351 . S
C282 C276 1.428 . S
C282 N281 1.351 . S
C282 C283 1.434 . S
C283 C274 1.429 . S
C283 N280 1.350 . S
C283 C282 1.434 . S
C284 C285 1.369 . S
C284 C286 1.419 . S
C284 H288 0.930 . S
C285 C284 1.369 . S
C285 C294 1.429 . S
C286 C284 1.419 . S
C286 C287 1.363 . S
C286 H289 0.929 . S
C287 C286 1.363 . S
C287 C293 1.428 . S
H288 C284 0.930 . S
H289 C286 0.929 . S
S290 N291 1.613 . S
S290 N292 1.610 . S
N291 S290 1.613 . S
N291 C294 1.350 . S
N292 S290 1.610 . S
N292 C293 1.351 . S
C293 C287 1.428 . S
C293 N292 1.351 . S
C293 C294 1.434 . S
C294 C285 1.429 . S
C294 N291 1.350 . S
C294 C293 1.434 . S
C295 C296 1.369 . S
C295 C297 1.419 . S
C295 H299 0.930 . S
C296 C295 1.369 . S
C296 C305 1.429 . S
C297 C295 1.419 . S
C297 C298 1.363 . S
C297 H300 0.929 . S
C298 C297 1.363 . S
C298 C304 1.428 . S
H299 C295 0.930 . S
H300 C297 0.929 . S
S301 N302 1.613 . S
S301 N303 1.610 . S
N302 S301 1.613 . S
N302 C305 1.350 . S
N303 S301 1.610 . S
N303 C304 1.351 . S
C304 C298 1.428 . S
C304 N303 1.351 . S
C304 C305 1.434 . S
C305 C296 1.429 . S
C305 N302 1.350 . S
C305 C304 1.434 . S
C306 C307 1.369 . S
C306 C308 1.419 . S
C306 H310 0.930 . S
C307 C306 1.369 . S
C307 C316 1.429 . S
C308 C306 1.419 . S
C308 C309 1.363 1_554 S
C308 H311 0.929 1_554 S
C309 C308 1.363 1_556 S
C309 C315 1.428 1_556 S
H310 C306 0.930 . S
H311 C308 0.929 1_556 S
S312 N313 1.613 . S
S312 N314 1.610 1_554 S
N313 S312 1.613 . S
N313 C316 1.350 1_655 S
N314 S312 1.610 1_556 S
N314 C315 1.351 1_656 S
C315 C309 1.428 1_554 S
C315 N314 1.351 1_454 S
C315 C316 1.434 . S
C316 C307 1.429 . S
C316 N313 1.350 1_455 S
C316 C315 1.434 . S
C317 C318 1.369 . S
C317 C319 1.419 . S
C317 H321 0.930 . S
C318 C317 1.369 . S
C318 C327 1.429 1_545 S
C319 C317 1.419 . S
C319 C320 1.363 . S
C319 H322 0.929 . S
C320 C319 1.363 . S
C320 C326 1.428 1_545 S
H321 C317 0.930 . S
H322 C319 0.929 . S
S323 N324 1.613 . S
S323 N325 1.610 . S
N324 S323 1.613 . S
N324 C327 1.350 . S
N325 S323 1.610 . S
N325 C326 1.351 . S
C326 C320 1.428 1_565 S
C326 N325 1.351 . S
C326 C327 1.434 . S
C327 C318 1.429 1_565 S
C327 N324 1.350 . S
C327 C326 1.434 . S
C328 C329 1.369 . S
C328 C330 1.419 . S
C328 H332 0.930 . S
C329 C328 1.369 . S
C329 C338 1.429 . S
C330 C328 1.419 . S
C330 C331 1.363 . S
C330 H333 0.929 . S
C331 C330 1.363 . S
C331 C337 1.428 . S
H332 C328 0.930 . S
H333 C330 0.929 . S
S334 N335 1.613 . S
S334 N336 1.610 . S
N335 S334 1.613 . S
N335 C338 1.350 . S
N336 S334 1.610 . S
N336 C337 1.351 . S
C337 C331 1.428 . S
C337 N336 1.351 . S
C337 C338 1.434 . S
C338 C329 1.429 . S
C338 N335 1.350 . S
C338 C337 1.434 . S
C339 C340 1.369 . S
C339 C341 1.419 . S
C339 H343 0.930 . S
C340 C339 1.369 . S
C340 C349 1.429 1_545 S
C341 C339 1.419 . S
C341 C342 1.363 1_545 S
C341 H344 0.929 . S
C342 C341 1.363 1_565 S
C342 C348 1.428 . S
H343 C339 0.930 . S
H344 C341 0.929 . S
S345 N346 1.613 . S
S345 N347 1.610 . S
N346 S345 1.613 . S
N346 C349 1.350 . S
N347 S345 1.610 . S
N347 C348 1.351 . S
C348 C342 1.428 . S
C348 N347 1.351 . S
C348 C349 1.434 . S
C349 C340 1.429 1_565 S
C349 N346 1.350 . S
C349 C348 1.434 . S
C350 C351 1.369 . S
C350 C352 1.419 . S
C350 H354 0.930 . S
C351 C350 1.369 . S
C351 C360 1.429 . S
C352 C350 1.419 . S
C352 C353 1.363 1_556 S
C352 H355 0.929 . S
C353 C352 1.363 1_554 S
C353 C359 1.428 1_554 S
H354 C350 0.930 . S
H355 C352 0.929 . S
S356 N357 1.613 . S
S356 N358 1.610 1_556 S
N357 S356 1.613 . S
N357 C360 1.350 . S
N358 S356 1.610 1_554 S
N358 C359 1.351 1_554 S
C359 C353 1.428 1_556 S
C359 N358 1.351 1_556 S
C359 C360 1.434 . S
C360 C351 1.429 . S
C360 N357 1.350 . S
C360 C359 1.434 . S
C361 C362 1.369 . S
C361 C363 1.419 . S
C361 H365 0.930 . S
C362 C361 1.369 . S
C362 C371 1.429 1_455 S
C363 C361 1.419 . S
C363 C364 1.363 . S
C363 H366 0.929 . S
C364 C363 1.363 . S
C364 C370 1.428 1_455 S
H365 C361 0.930 . S
H366 C363 0.929 . S
S367 N368 1.613 . S
S367 N369 1.610 . S
N368 S367 1.613 . S
N368 C371 1.350 . S
N369 S367 1.610 . S
N369 C370 1.351 . S
C370 C364 1.428 1_655 S
C370 N369 1.351 . S
C370 C371 1.434 . S
C371 C362 1.429 1_655 S
C371 N368 1.350 . S
C371 C370 1.434 . S
C175 C6 1.191 . S
C177 C169 1.379 . S
C186 C59 1.876 . S
C188 C151 1.851 . S
C197 C86 1.622 . S
C199 C163 1.747 . S
C208 C15 0.960 . S
C210 C172 1.104 . S
C221 C154 1.859 . S
C219 C50 1.886 . S
C232 C160 1.592 . S
C230 C95 1.492 . S
C241 C46 1.463 . S
C243 C133 1.555 . S
C252 C99 3.042 . S
C254 C142 3.006 1_655 S
C263 C10 1.929 . S
C265 C124 1.940 . S
C276 C136 1.643 . S
C274 C55 1.516 . S
C287 C145 2.985 . S
C285 C90 2.975 . S
C296 C19 1.878 . S
C298 C127 1.869 . S
C309 C143 1.811 . S
C307 C18 1.737 . S
C318 C49 1.287 . S
C320 C125 1.338 . S
C329 C98 1.425 . S
C331 C134 1.496 . S
C342 C161 1.461 . S
C340 C58 1.415 . S
C353 C170 0.984 . S
C351 C89 0.987 . S
C362 C9 1.274 . S
C364 C152 1.314 . S
