# Generated by pormake.
# Topology zzz, (3,6)-cn, num edge types: 1
# Building blocks:
#     Node 0, Type 0, BuildingBlock: QEWDON_clean_linker_0, # of connection points: 3
#     Node 1, Type 0, BuildingBlock: QEWDON_clean_linker_0, # of connection points: 3
#     Node 2, Type 0, BuildingBlock: QEWDON_clean_linker_0, # of connection points: 3
#     Node 3, Type 0, BuildingBlock: QEWDON_clean_linker_0, # of connection points: 3
#     Node 4, Type 0, BuildingBlock: QEWDON_clean_linker_0, # of connection points: 3
#     Node 5, Type 0, BuildingBlock: QEWDON_clean_linker_0, # of connection points: 3
#     Node 6, Type 0, BuildingBlock: QEWDON_clean_linker_0, # of connection points: 3
#     Node 7, Type 0, BuildingBlock: QEWDON_clean_linker_0, # of connection points: 3
#     Node 8, Type 1, BuildingBlock: KUMBOL_clean_sbu_1, # of connection points: 6
#     Node 9, Type 1, BuildingBlock: KUMBOL_clean_sbu_1, # of connection points: 6
#     Node 10, Type 1, BuildingBlock: KUMBOL_clean_sbu_1, # of connection points: 6
#     Node 11, Type 1, BuildingBlock: KUMBOL_clean_sbu_1, # of connection points: 6
#     Edge 12, Type (0, 1), BuildingBlock: MIFKUJ_clean_linker_0, # of connection points: 2
#     Edge 13, Type (0, 1), BuildingBlock: MIFKUJ_clean_linker_0, # of connection points: 2
#     Edge 14, Type (0, 1), BuildingBlock: MIFKUJ_clean_linker_0, # of connection points: 2
#     Edge 15, Type (0, 1), BuildingBlock: MIFKUJ_clean_linker_0, # of connection points: 2
#     Edge 16, Type (0, 1), BuildingBlock: MIFKUJ_clean_linker_0, # of connection points: 2
#     Edge 17, Type (0, 1), BuildingBlock: MIFKUJ_clean_linker_0, # of connection points: 2
#     Edge 18, Type (0, 1), BuildingBlock: MIFKUJ_clean_linker_0, # of connection points: 2
#     Edge 19, Type (0, 1), BuildingBlock: MIFKUJ_clean_linker_0, # of connection points: 2
#     Edge 20, Type (0, 1), BuildingBlock: MIFKUJ_clean_linker_0, # of connection points: 2
#     Edge 21, Type (0, 1), BuildingBlock: MIFKUJ_clean_linker_0, # of connection points: 2
#     Edge 22, Type (0, 1), BuildingBlock: MIFKUJ_clean_linker_0, # of connection points: 2
#     Edge 23, Type (0, 1), BuildingBlock: MIFKUJ_clean_linker_0, # of connection points: 2
#     Edge 24, Type (0, 1), BuildingBlock: MIFKUJ_clean_linker_0, # of connection points: 2
#     Edge 25, Type (0, 1), BuildingBlock: MIFKUJ_clean_linker_0, # of connection points: 2
#     Edge 26, Type (0, 1), BuildingBlock: MIFKUJ_clean_linker_0, # of connection points: 2
#     Edge 27, Type (0, 1), BuildingBlock: MIFKUJ_clean_linker_0, # of connection points: 2
#     Edge 28, Type (0, 1), BuildingBlock: MIFKUJ_clean_linker_0, # of connection points: 2
#     Edge 29, Type (0, 1), BuildingBlock: MIFKUJ_clean_linker_0, # of connection points: 2
#     Edge 30, Type (0, 1), BuildingBlock: MIFKUJ_clean_linker_0, # of connection points: 2
#     Edge 31, Type (0, 1), BuildingBlock: MIFKUJ_clean_linker_0, # of connection points: 2
#     Edge 32, Type (0, 1), BuildingBlock: MIFKUJ_clean_linker_0, # of connection points: 2
#     Edge 33, Type (0, 1), BuildingBlock: MIFKUJ_clean_linker_0, # of connection points: 2
#     Edge 34, Type (0, 1), BuildingBlock: MIFKUJ_clean_linker_0, # of connection points: 2
#     Edge 35, Type (0, 1), BuildingBlock: MIFKUJ_clean_linker_0, # of connection points: 2
# Relax obj value: 0.091
# Max RMSD: 0.085
# Mean RMSD: 0.034
data_MOF--net-zzz--node1-KUMBOL_clean_sbu_1--node2-QEWDON_clean_linker_0--edge1-MIFKUJ_clean_linker_0
_symmetry_space_group_name_H-M    P1
_symmetry_Int_Tables_number       1
_symmetry_cell_setting            triclinic
loop_
_symmetry_equiv_pos_as_xyz
'x, y, z'
_cell_length_a     69.509742
_cell_length_b     69.478747
_cell_length_c     19.909024
_cell_angle_alpha  89.941404
_cell_angle_beta   90.153852
_cell_angle_gamma 90.435763
loop_
_atom_site_label
_atom_site_type_symbol
_atom_site_fract_x
_atom_site_fract_y
_atom_site_fract_z
_atom_type_partial_charge
H0 H 0.75758 0.5618 0.13572 0.0
C1 C 0.76831 0.55661 0.17052 0.0
C2 C 0.78661 0.56517 0.16849 0.0
C3 C 0.76403 0.54157 0.21592 0.0
H4 H 0.81495 0.56567 0.21193 0.0
C5 C 0.8006 0.55954 0.21518 0.0
C6 C 0.7972 0.54487 0.26191 0.0
C7 C 0.77898 0.53551 0.26091 0.0
C8 C 0.744 0.53262 0.21627 0.0
H9 H 0.77666 0.52364 0.29514 0.0
C10 C 0.73123 0.53356 0.15971 0.0
C11 C 0.71237 0.52562 0.16241 0.0
C12 C 0.7371 0.52354 0.27488 0.0
H13 H 0.74567 0.52297 0.3202 0.0
C14 C 0.71869 0.51541 0.27712 0.0
H15 H 0.73581 0.54004 0.11299 0.0
C16 C 0.70648 0.51639 0.22164 0.0
H17 H 0.69216 0.51021 0.22554 0.0
H18 H 0.71374 0.50852 0.32276 0.0
H19 H 0.98743 0.7714 0.0915 0.0
C20 C 0.9919 0.78128 0.13057 0.0
C21 C 0.98769 0.80082 0.12212 0.0
C22 C 1.00148 0.77461 0.18854 0.0
H23 H 0.98952 0.82913 0.16485 0.0
C24 C 0.99268 0.81401 0.17237 0.0
C25 C 1.00241 0.80831 0.23061 0.0
C26 C 1.00675 0.78851 0.23873 0.0
C27 C 1.00554 0.75326 0.19624 0.0
H28 H 0.01471 0.78422 0.28295 0.0
C29 C 1.00697 0.74044 0.14007 0.0
C30 C 1.01016 0.72042 0.1492 0.0
C31 C 1.0073 0.74529 0.261 0.0
H32 H 1.00565 0.75402 0.3055 0.0
C33 C 1.01069 0.7257 0.27003 0.0
H34 H 1.00603 0.74585 0.08925 0.0
C35 C 1.01212 0.71342 0.21502 0.0
H36 H 0.01438 0.69822 0.22418 0.0
H37 H 1.01195 0.71991 0.32035 0.0
H38 H 0.77913 0.9958 0.12189 0.0
C39 C 0.76973 0.99966 0.16286 0.0
C40 C 0.74986 0.999 0.15157 0.0
C41 C 0.77738 1.00474 0.22607 0.0
H42 H 0.72181 1.00296 0.19528 0.0
C43 C 0.73722 1.00302 0.2043 0.0
C44 C 0.74396 1.00768 0.26831 0.0
C45 C 0.76412 1.00872 0.2793 0.0
C46 C 0.79902 1.00471 0.23579 0.0
H47 H 0.76928 1.01281 0.32861 0.0
C48 C 0.81217 1.0076 0.18128 0.0
C49 C 0.83226 1.00498 0.18985 0.0
C50 C 0.80679 1.00025 0.29922 0.0
H51 H 0.7976 0.9975 0.34196 0.0
C52 C 0.8266 0.99843 0.30832 0.0
H53 H 0.80694 1.01138 0.13184 0.0
C54 C 0.83917 1.00054 0.25431 0.0
H55 H 0.85444 0.99866 0.26301 0.0
H56 H 0.83224 0.99489 0.3575 0.0
H57 H 0.54665 0.77589 0.08632 0.0
C58 C 0.54302 0.76643 0.12765 0.0
C59 C 0.54762 0.74688 0.12194 0.0
C60 C 0.53409 0.77367 0.18593 0.0
H61 H 0.54675 0.71916 0.17064 0.0
C62 C 0.54379 0.7344 0.17568 0.0
C63 C 0.535 0.7407 0.23443 0.0
C64 C 0.52972 0.76033 0.23904 0.0
C65 C 0.5303 0.79512 0.19183 0.0
H66 H 0.52242 0.76504 0.28394 0.0
C67 C 0.52799 0.80751 0.13469 0.0
C68 C 0.52544 0.82771 0.14233 0.0
C69 C 0.53002 0.80365 0.25593 0.0
H70 H 0.53241 0.79526 0.3009 0.0
C71 C 0.52733 0.82338 0.26359 0.0
H72 H 0.52781 0.80161 0.08445 0.0
C73 C 0.5251 0.83525 0.20778 0.0
H74 H 0.52351 0.85057 0.21605 0.0
H75 H 0.52728 0.82959 0.31344 0.0
H76 H 0.27088 0.51069 0.18492 0.0
C77 C 0.26153 0.50892 0.14188 0.0
C78 C 0.2423 0.50406 0.15385 0.0
C79 C 0.26835 0.51222 0.07627 0.0
H80 H 0.21425 0.5003 0.11107 0.0
C81 C 0.22932 0.50296 0.10031 0.0
C82 C 0.23499 0.50662 0.03415 0.0
C83 C 0.25468 0.51114 0.02211 0.0
C84 C 0.28936 0.51779 0.06653 0.0
H85 H 0.25914 0.51356 0.97081 0.0
C86 C 0.30389 0.51349 0.11545 0.0
C87 C 0.32319 0.51993 0.10773 0.0
C88 C 0.29501 0.52842 0.00953 0.0
H89 H 0.28471 0.5327 0.97172 0.0
C90 C 0.31407 0.53435 1.00095 0.0
H91 H 0.30053 0.50493 0.15926 0.0
C92 C 0.32799 0.53023 0.04936 0.0
H93 H 0.34251 0.53553 0.04173 0.0
H94 H 0.31804 0.54257 0.95681 0.0
H95 H 0.04148 0.27904 0.17825 0.0
C96 C 0.0418 0.26924 0.13612 0.0
C97 C 0.04936 0.25089 0.14674 0.0
C98 C 0.03395 0.2746 0.07366 0.0
H99 H 0.05407 0.22295 0.10469 0.0
C100 C 0.049 0.23737 0.09458 0.0
C101 C 0.0409 0.24156 0.03168 0.0
C102 C 0.03348 0.26038 0.02133 0.0
C103 C 0.02512 0.29445 0.06643 0.0
H104 H 0.02755 0.26382 0.97254 0.0
C105 C 0.03061 0.31037 0.10835 0.0
C106 C 0.02098 0.32834 0.10485 0.0
C107 C 1.01007 0.29734 0.02021 0.0
H108 H 1.00482 0.28579 0.9886 0.0
C109 C 1.00085 0.31505 0.01554 0.0
H110 H 0.04244 0.30903 0.14333 0.0
C111 C 1.0061 0.33029 0.05741 0.0
H112 H 0.99807 0.34354 0.05357 0.0
H113 H 0.98918 0.31686 0.98003 0.0
H114 H 0.26825 0.04512 0.17574 0.0
C115 C 0.27716 0.04529 0.13136 0.0
C116 C 0.29644 0.05086 0.13891 0.0
C117 C 0.26969 0.03955 0.0685 0.0
H118 H 0.32398 0.0535 0.09099 0.0
C119 C 0.30886 0.05012 0.0837 0.0
C120 C 0.30252 0.04389 0.02051 0.0
C121 C 0.2828 0.03877 0.01291 0.0
C122 C 0.24856 0.03375 0.06284 0.0
H123 H 0.27789 0.03455 0.96351 0.0
C124 C 0.2344 0.03948 0.11106 0.0
C125 C 0.21492 0.03334 0.10587 0.0
C126 C 0.24235 0.02175 0.00988 0.0
H127 H 0.2523 0.01625 0.97315 0.0
C128 C 0.22313 0.01606 1.00391 0.0
H129 H 0.23814 0.04895 0.15215 0.0
C130 C 0.20956 0.02178 0.05113 0.0
H131 H 0.19485 0.01673 0.04569 0.0
H132 H 0.21875 1.00684 0.96273 0.0
H133 H 0.47943 0.25736 0.10047 0.0
C134 C 0.48445 0.26773 0.06381 0.0
C135 C 0.47717 0.28643 0.06709 0.0
C136 C 0.49782 0.26243 0.01416 0.0
H137 H 0.47738 0.31461 0.02181 0.0
C138 C 0.48255 0.29995 0.01821 0.0
C139 C 0.49572 0.29558 0.96772 0.0
C140 C 0.50372 0.27683 0.96654 0.0
C141 C 0.50449 0.2417 0.01104 0.0
H142 H 0.51429 0.27357 0.92851 0.0
C143 C 0.50448 0.22925 0.06855 0.0
C144 C 0.50822 0.20927 0.06228 0.0
C145 C 0.50938 0.23362 0.94861 0.0
H146 H 0.50924 0.24215 0.90315 0.0
C147 C 0.51371 0.2141 0.94289 0.0
H148 H 0.50119 0.2348 0.11791 0.0
C149 C 0.51291 0.20201 0.99878 0.0
H150 H 0.51592 0.18684 0.99237 0.0
H151 H 0.51727 0.20819 0.89424 0.0
C152 C 0.0562 0.03147 0.83338 0.0
C153 C 0.03872 0.02046 0.93124 0.0
C154 C 0.04171 0.02039 0.86125 0.0
C155 C 0.04984 0.03273 0.97211 0.0
C156 C 0.06822 0.04292 0.87447 0.0
C157 C 0.06458 0.04395 0.94375 0.0
N158 N 0.05947 0.02987 0.76658 0.0
C159 C 0.07553 0.03792 0.73839 0.0
C160 C 0.084 0.0523 0.84508 0.0
C161 C 0.08786 0.04951 0.77692 0.0
Gd162 Gd 1.00482 0.0332 0.56465 0.0
Gd163 Gd 0.03815 1.0103 0.70494 0.0
N164 N 0.0317 1.00829 0.82055 0.0
C165 C 0.02527 1.00754 0.9583 0.0
C166 C 0.01939 0.99492 0.84704 0.0
C167 C 0.01573 0.99454 0.91605 0.0
H168 H 1.01266 0.98428 0.81497 0.0
H169 H 1.0058 0.98404 0.93665 0.0
H170 H 0.0316 0.02917 0.42764 0.0
H171 H 0.07852 0.03577 0.68574 0.0
H172 H 0.03267 1.00957 0.32399 0.0
H173 H 0.02276 1.00699 0.01191 0.0
H174 H 0.04761 0.03314 0.02594 0.0
H175 H 0.96057 0.02464 0.63246 0.0
H176 H 0.0936 0.06121 0.87492 0.0
H177 H 0.1003 0.05628 0.75407 0.0
H178 H 0.97709 0.96835 0.34067 0.0
H179 H 0.0735 0.05284 0.97611 0.0
H180 H 0.93471 0.97771 0.52683 0.0
H181 H 0.93418 1.00131 0.61966 0.0
N182 N 0.97759 1.01274 0.55415 0.0
C183 C 0.97744 1.00084 0.49984 0.0
C184 C 0.9618 1.01365 0.59473 0.0
C185 C 0.94674 0.98752 0.5337 0.0
C186 C 0.94644 1.00075 0.58634 0.0
C187 C 0.96211 0.9878 0.48851 0.0
H188 H 0.95057 0.96594 0.42159 0.0
N189 N 1.00658 0.01525 0.46524 0.0
C190 C 0.99219 1.00238 0.45341 0.0
C191 C 1.00707 0.99336 0.34857 0.0
C192 C 0.99219 0.99086 0.39514 0.0
C193 C 0.02069 0.01834 0.41883 0.0
C194 C 0.02127 1.00731 0.36016 0.0
O195 O 0.03828 0.04341 0.7012 0.0
O196 O 1.00866 0.05147 0.65797 0.0
O197 O 1.0095 0.05754 0.49895 0.0
O198 O 0.98048 0.04932 0.52568 0.0
O199 O 1.00576 1.00583 0.71836 0.0
O200 O 0.99212 0.03261 0.67055 0.0
O201 O 0.02049 1.00472 0.55132 0.0
O202 O 0.01559 0.99198 0.65351 0.0
O203 O 0.05166 0.98566 0.75329 0.0
O204 O 0.05987 0.99407 0.65278 0.0
O205 O 0.03616 0.04213 0.55185 0.0
O206 O 0.05304 0.01833 0.60752 0.0
C207 C 0.02443 0.05603 0.69123 0.0
C208 C 0.99207 0.01886 0.71638 0.0
C209 C 0.98738 0.08266 0.51791 0.0
C210 C 0.99887 0.11542 0.54163 0.0
C211 C 0.9645 0.10846 0.53226 0.0
C212 C 0.96836 0.08919 0.51875 0.0
C213 C 0.97956 0.12155 0.54245 0.0
C214 C 1.00245 0.09567 0.53232 0.0
C215 C 0.99149 0.06252 0.49943 0.0
C216 C 0.9773 0.97742 0.38492 0.0
C217 C 0.96226 0.97594 0.43135 0.0
H218 H 1.00757 0.98479 0.30317 0.0
C219 C 0.01681 0.98959 0.58859 0.0
C220 C 0.05198 0.03216 0.56236 0.0
C221 C 0.05866 0.96095 0.67375 0.0
C222 C 0.04258 0.92953 0.67461 0.0
C223 C 0.06594 0.93731 0.58781 0.0
C224 C 0.06892 0.95541 0.61631 0.0
C225 C 0.05283 0.92445 0.61647 0.0
C226 C 0.04561 0.94787 0.70302 0.0
C227 C 0.06086 0.98085 0.6989 0.0
H228 H 0.94977 0.11343 0.53231 0.0
H229 H 0.9565 0.07943 0.50826 0.0
H230 H 0.97592 0.13657 0.54786 0.0
H231 H 0.01704 0.09043 0.53442 0.0
H232 H 0.07366 0.9333 0.54286 0.0
H233 H 0.07898 0.96527 0.59263 0.0
H234 H 0.05047 0.91067 0.59233 0.0
H235 H 0.03777 0.95198 0.74765 0.0
C236 C 0.50399 0.95989 0.57392 0.0
C237 C 0.47062 0.95415 0.60256 0.0
C238 C 0.48553 0.96673 0.58229 0.0
C239 C 0.4749 0.93495 0.61872 0.0
C240 C 0.50811 0.94032 0.58529 0.0
C241 C 0.49363 0.92804 0.60998 0.0
N242 N 0.51764 0.97213 0.55027 0.0
C243 C 0.53519 0.96549 0.53073 0.0
C244 C 0.52648 0.93359 0.56929 0.0
C245 C 0.53996 0.94616 0.54065 0.0
Gd246 Gd 0.52572 0.03857 0.68959 0.0
Gd247 Gd 0.50909 1.0046 0.54019 0.0
N248 N 0.48187 0.98523 0.56463 0.0
C249 C 0.45174 0.96099 0.60287 0.0
C250 C 0.46328 0.99129 0.55841 0.0
C251 C 0.44803 0.97951 0.5792 0.0
H252 H 0.46006 1.00533 0.53826 0.0
H253 H 0.43343 0.9847 0.57635 0.0
H254 H 0.5659 0.06094 0.64402 0.0
H255 H 0.54566 0.97527 0.50925 0.0
H256 H 0.57646 0.0933 0.60612 0.0
H257 H 0.43986 0.95181 0.61821 0.0
H258 H 0.46369 0.92515 0.63539 0.0
H259 H 0.48427 0.04675 0.77605 0.0
H260 H 0.53022 0.91865 0.57718 0.0
H261 H 0.55405 0.94101 0.5267 0.0
H262 H 0.51881 0.13099 0.61413 0.0
H263 H 0.49659 0.91303 0.62022 0.0
H264 H 0.46397 0.10252 0.72148 0.0
H265 H 0.45913 0.07145 0.78011 0.0
N266 N 0.50182 0.0622 0.70649 0.0
C267 C 0.50555 0.07982 0.67949 0.0
C268 C 0.48604 0.05966 0.74647 0.0
C269 C 0.47475 0.0914 0.71736 0.0
C270 C 0.47195 0.07388 0.75042 0.0
C271 C 0.49206 0.09484 0.68364 0.0
H272 H 0.48649 0.12475 0.65974 0.0
N273 N 0.53664 0.06892 0.65438 0.0
C274 C 0.5237 0.08341 0.65391 0.0
C275 C 0.5481 0.10546 0.61343 0.0
C276 C 0.52895 0.10201 0.63204 0.0
C277 C 0.55554 0.07238 0.63988 0.0
C278 C 0.56154 0.09066 0.61869 0.0
O279 O 0.52707 0.99257 0.62682 0.0
O280 O 0.51554 1.00849 0.7176 0.0
O281 O 0.5493 0.03049 0.75477 0.0
O282 O 0.52938 0.05233 0.78675 0.0
O283 O 0.48588 0.0224 0.59265 0.0
O284 O 0.49678 0.02314 0.70098 0.0
O285 O 0.52796 0.04831 0.58028 0.0
O286 O 0.50028 0.03588 0.53894 0.0
O287 O 0.49743 0.99271 0.44782 0.0
O288 O 0.52053 1.0136 0.44354 0.0
O289 O 0.55163 0.02621 0.63412 0.0
O290 O 0.54096 1.01205 0.53443 0.0
C291 C 0.5217 0.99252 0.69005 0.0
C292 C 0.48243 0.0227 0.65768 0.0
C293 C 0.56239 0.05699 0.81242 0.0
C294 C 0.59693 0.06039 0.83067 0.0
C295 C 0.57702 0.08881 0.81973 0.0
C296 C 0.56072 0.07716 0.81142 0.0
C297 C 0.59508 0.08051 0.82892 0.0
C298 C 0.58049 0.04878 0.82284 0.0
C299 C 0.54591 0.04423 0.79745 0.0
C300 C 0.51516 0.11667 0.6318 0.0
C301 C 0.49673 0.11308 0.65751 0.0
H302 H 0.55274 0.11959 0.59671 0.0
C303 C 0.51336 0.04955 0.53862 0.0
C304 C 0.55481 0.01862 0.57412 0.0
C305 C 0.49541 0.01717 0.36695 0.0
C306 C 0.46627 0.03603 0.35195 0.0
C307 C 0.49112 0.03615 0.266 0.0
C308 C 0.50217 0.02348 0.30446 0.0
C309 C 0.4732 0.04233 0.28926 0.0
C310 C 0.47778 0.02388 0.3909 0.0
C311 C 0.50705 1.00472 0.41021 0.0
H312 H 0.57567 0.10432 0.81845 0.0
H313 H 0.54695 0.08395 0.80287 0.0
H314 H 0.60755 0.08979 0.83534 0.0
H315 H 0.58187 0.03324 0.82261 0.0
H316 H 0.49634 0.04101 0.21764 0.0
H317 H 0.51598 0.01876 0.28585 0.0
H318 H 0.46463 0.05157 0.25745 0.0
H319 H 0.47304 0.01966 0.44052 0.0
C320 C 0.52766 0.52974 0.84253 0.0
C321 C 0.53911 0.56236 0.86348 0.0
C322 C 0.52926 0.54889 0.82282 0.0
C323 C 0.54766 0.55628 0.92371 0.0
C324 C 0.53589 0.52372 0.90387 0.0
C325 C 0.54613 0.53699 0.9437 0.0
N326 N 0.51763 0.51719 0.80288 0.0
C327 C 0.51354 0.49908 0.82586 0.0
C328 C 0.53318 0.50463 0.92427 0.0
C329 C 0.52167 0.49236 0.88566 0.0
Gd330 Gd 0.53556 0.51129 0.55297 0.0
Gd331 Gd 0.50483 0.53035 0.70298 0.0
N332 N 0.52155 0.55425 0.76286 0.0
C333 C 0.54013 0.58155 0.84217 0.0
C334 C 0.5221 0.57302 0.74259 0.0
C335 C 0.53132 0.58693 0.78198 0.0
H336 H 0.515 0.57739 0.69688 0.0
H337 H 0.53134 0.60181 0.76618 0.0
H338 H 0.5192 0.53923 0.42797 0.0
H339 H 0.50343 0.48993 0.79991 0.0
H340 H 0.53236 0.56108 0.34136 0.0
H341 H 0.54738 0.59235 0.87239 0.0
H342 H 0.55542 0.56639 0.95532 0.0
H343 H 0.57251 0.48527 0.6081 0.0
H344 H 0.53928 0.49944 0.97098 0.0
H345 H 0.51866 0.47785 0.90272 0.0
H346 H 0.60086 0.55493 0.36437 0.0
H347 H 0.55265 0.53256 0.99068 0.0
H348 H 0.62413 0.50731 0.51836 0.0
H349 H 0.60787 0.48446 0.59553 0.0
N350 N 0.56903 0.50895 0.54157 0.0
C351 C 0.57758 0.52118 0.49755 0.0
C352 C 0.57956 0.49555 0.57541 0.0
C353 C 0.60868 0.50794 0.52467 0.0
C354 C 0.59955 0.49499 0.56812 0.0
C355 C 0.59767 0.52112 0.4881 0.0
H356 H 0.62143 0.534 0.43338 0.0
N357 N 0.54669 0.53151 0.46633 0.0
C358 C 0.56602 0.53285 0.45861 0.0
C359 C 0.5619 0.55551 0.36765 0.0
C360 C 0.5742 0.54495 0.40926 0.0
C361 C 0.53459 0.54091 0.42336 0.0
C362 C 0.542 0.55329 0.3742 0.0
O363 O 0.50321 0.49795 0.68223 0.0
O364 O 0.5338 0.49237 0.64601 0.0
O365 O 0.51601 0.48833 0.52358 0.0
O366 O 0.54422 0.49088 0.47701 0.0
O367 O 0.53711 0.53767 0.69548 0.0
O368 O 0.54978 0.51015 0.65497 0.0
O369 O 0.53422 0.54418 0.56209 0.0
O370 O 0.5055 0.55137 0.61513 0.0
O371 O 0.48154 0.55091 0.7129 0.0
O372 O 0.48243 0.52596 0.77713 0.0
O373 O 0.5055 0.52148 0.52572 0.0
O374 O 0.48804 0.51493 0.62079 0.0
C375 C 0.51773 0.4861 0.67335 0.0
C376 C 0.55101 0.52495 0.69533 0.0
C377 C 0.51905 0.47703 0.41302 0.0
C378 C 0.50312 0.45276 0.34399 0.0
C379 C 0.51154 0.48405 0.29675 0.0
C380 C 0.51943 0.48973 0.35831 0.0
C381 C 0.50357 0.46562 0.28927 0.0
C382 C 0.51055 0.45888 0.40609 0.0
C383 C 0.52769 0.48189 0.47789 0.0
C384 C 0.59428 0.54563 0.40169 0.0
C385 C 0.606 0.53371 0.44098 0.0
H386 H 0.5676 0.56501 0.32924 0.0
C387 C 0.52004 0.55618 0.57569 0.0
C388 C 0.48898 0.51782 0.55552 0.0
C389 C 0.47289 0.55472 0.82764 0.0
C390 C 0.48279 0.58315 0.89096 0.0
C391 C 0.46678 0.55657 0.9476 0.0
C392 C 0.46553 0.54656 0.88692 0.0
C393 C 0.47572 0.57463 0.95 0.0
C394 C 0.4807 0.57342 0.82969 0.0
C395 C 0.47478 0.54271 0.7669 0.0
H396 H 0.51191 0.49382 0.25439 0.0
H397 H 0.52587 0.5039 0.36306 0.0
H398 H 0.49817 0.46136 0.24041 0.0
H399 H 0.5099 0.44947 0.44953 0.0
H400 H 0.46131 0.55008 0.99323 0.0
H401 H 0.4594 0.53217 0.88665 0.0
H402 H 0.47711 0.58195 0.9978 0.0
H403 H 0.48611 0.58006 0.7843 0.0
C404 C 0.01687 0.46398 0.73869 0.0
C405 C 0.03868 0.46311 0.83361 0.0
C406 C 0.02768 0.47352 0.7866 0.0
C407 C 0.03934 0.44294 0.82928 0.0
C408 C 0.01666 0.4437 0.7361 0.0
C409 C 0.02833 0.43324 0.78059 0.0
N410 N 1.00557 0.47454 0.6974 0.0
C411 C 0.99262 0.46576 0.65554 0.0
C412 C 1.00425 0.43459 0.6904 0.0
C413 C 0.99197 0.44568 0.65062 0.0
Gd414 Gd 0.02772 0.54307 0.56556 0.0
Gd415 Gd 1.00869 0.50817 0.70465 0.0
N416 N 0.02632 0.49293 0.79013 0.0
C417 C 0.04813 0.47326 0.88485 0.0
C418 C 0.0345 0.50278 0.84232 0.0
C419 C 0.0458 0.49317 0.88976 0.0
H420 H 0.03251 0.51815 0.84681 0.0
H421 H 0.05262 0.5011 0.93019 0.0
H422 H 0.06736 0.51993 0.51197 0.0
H423 H 0.98316 0.47428 0.62458 0.0
H424 H 0.08137 0.5093 0.40487 0.0
H425 H 0.05676 0.46582 0.92195 0.0
H426 H 0.04785 0.43468 0.86452 0.0
H427 H 0.9954 0.57624 0.5263 0.0
H428 H 1.00367 0.41904 0.68673 0.0
H429 H 0.98204 0.43877 0.61613 0.0
H430 H 0.03947 0.53586 0.23698 0.0
H431 H 0.02853 0.41766 0.779 0.0
H432 H 0.9894 0.57786 0.31188 0.0
H433 H 0.97954 0.58925 0.4244 0.0
N434 N 0.01329 0.55727 0.47159 0.0
C435 C 0.01953 0.55152 0.41047 0.0
C436 C 0.9996 0.57112 0.47721 0.0
C437 C 0.99626 0.57204 0.35634 0.0
C438 C 0.99068 0.57854 0.41975 0.0
C439 C 1.0111 0.55861 0.35102 0.0
H440 H 1.01172 0.55764 0.24219 0.0
N441 N 0.04356 0.53396 0.46611 0.0
C442 C 0.0352 0.53945 0.40759 0.0
C443 C 0.0594 0.52255 0.34434 0.0
C444 C 0.04281 0.53386 0.34507 0.0
C445 C 0.06031 0.52378 0.46563 0.0
C446 C 0.06831 0.5177 0.4049 0.0
O447 O 0.03769 0.52246 0.72169 0.0
O448 O 0.04944 0.5229 0.61546 0.0
O449 O 0.04643 0.55856 0.6348 0.0
O450 O 0.03995 0.57068 0.53707 0.0
O451 O 0.01837 0.53818 0.73483 0.0
O452 O 1.00679 0.55385 0.6439 0.0
O453 O 0.99516 0.54125 0.57489 0.0
O454 O 0.99103 0.50988 0.60754 0.0
O455 O 0.98143 0.52275 0.71821 0.0
O456 O 0.99014 0.50028 0.78758 0.0
O457 O 0.02566 0.51241 0.52526 0.0
O458 O 0.02069 0.49158 0.61558 0.0
C459 C 0.05233 0.5212 0.68052 0.0
C460 C 1.01126 0.55388 0.70804 0.0
C461 C 0.06933 0.57952 0.58667 0.0
C462 C 0.10308 0.57355 0.56185 0.0
C463 C 0.09165 0.60629 0.5786 0.0
C464 C 0.07308 0.59931 0.58956 0.0
C465 C 0.10651 0.59359 0.56391 0.0
C466 C 0.08433 0.56665 0.57446 0.0
C467 C 0.04948 0.57269 0.59306 0.0
C468 C 0.03393 0.54012 0.28553 0.0
C469 C 0.01812 0.55251 0.28849 0.0
H470 H 0.06567 0.51789 0.29737 0.0
C471 C 0.98468 0.52536 0.57638 0.0
C472 C 0.02451 0.49495 0.55154 0.0
C473 C 0.97324 0.52685 0.83173 0.0
C474 C 0.95055 0.54909 0.88282 0.0
C475 C 0.98023 0.54079 0.94085 0.0
C476 C 0.98532 0.52868 0.88805 0.0
C477 C 0.96291 0.55083 0.9387 0.0
C478 C 0.95618 0.53737 0.82879 0.0
C479 C 0.97811 0.51416 0.77528 0.0
H480 H 0.09446 0.62163 0.58008 0.0
H481 H 0.06159 0.60938 0.5993 0.0
H482 H 0.12053 0.59961 0.55266 0.0
H483 H 0.08121 0.55136 0.57395 0.0
H484 H 0.98958 0.54214 0.98418 0.0
H485 H 0.99867 0.52084 0.89127 0.0
H486 H 0.95898 0.5594 0.98182 0.0
H487 H 0.9472 0.53617 0.78437 0.0
H488 H 0.21606 0.0272 0.24251 0.0
H489 H 0.1894 0.02983 0.32301 0.0
H490 H 0.15293 0.05225 0.16655 0.0
H491 H 0.17939 0.0493 0.08592 0.0
H492 H 0.14785 0.07128 0.29446 0.0
H493 H 0.14889 1.00708 0.20135 0.0
H494 H 0.1639 0.97606 0.17357 0.0
H495 H 0.17513 0.96576 0.38269 0.0
H496 H 0.16044 0.99689 0.41162 0.0
H497 H 0.05574 0.05464 0.4475 0.0
H498 H 0.08357 0.05724 0.37275 0.0
H499 H 0.11602 0.02055 0.50541 0.0
H500 H 0.08809 0.01704 0.57777 0.0
H501 H 0.12374 1.00966 0.38919 0.0
H502 H 0.12276 0.07254 0.4864 0.0
H503 H 0.10822 0.10345 0.51855 0.0
H504 H 0.09827 0.11687 0.31084 0.0
H505 H 0.11249 0.08589 0.27745 0.0
C506 C 0.2025 0.03309 0.22564 0.0
C507 C 0.19994 0.03808 0.15765 0.0
C508 C 0.18718 0.03448 0.27165 0.0
C509 C 0.16897 0.04116 0.25112 0.0
C510 C 0.16674 0.0471 0.18404 0.0
C511 C 0.18191 0.04539 0.13786 0.0
C512 C 0.15195 0.04063 0.29787 0.0
C513 C 0.14248 0.0578 0.31482 0.0
C514 C 0.14502 0.02315 0.32585 0.0
C515 C 0.15376 1.00441 0.30856 0.0
C516 C 0.15471 0.99828 0.24135 0.0
C517 C 0.16313 0.98066 0.22541 0.0
C518 C 0.17052 0.96897 0.27632 0.0
C519 C 0.16944 0.97485 0.3433 0.0
C520 C 0.16106 0.99247 0.3595 0.0
C521 C 0.0688 0.04713 0.46091 0.0
C522 C 0.0694 0.0355 0.51894 0.0
C523 C 0.08489 0.04876 0.41815 0.0
C524 C 0.10228 0.03925 0.43302 0.0
C525 C 0.10295 0.028 0.49178 0.0
C526 C 0.08683 0.0261 0.53371 0.0
C527 C 0.11957 0.04038 0.38704 0.0
C528 C 0.12909 0.02326 0.36969 0.0
C529 C 0.12669 0.05796 0.35971 0.0
C530 C 0.11853 0.0768 0.37945 0.0
C531 C 0.11738 0.08204 0.44758 0.0
C532 C 0.1092 0.09957 0.46604 0.0
C533 C 0.10227 0.11209 0.41679 0.0
C534 C 0.10361 0.10714 0.34894 0.0
C535 C 0.11175 0.0896 0.33021 0.0
H536 H 0.0959 0.12564 0.43119 0.0
H537 H 0.17702 0.95533 0.26388 0.0
H538 H 0.531 0.2064 0.17549 0.0
H539 H 0.5311 0.1802 0.25909 0.0
H540 H 0.48222 0.15399 0.16074 0.0
H541 H 0.48235 0.1799 0.07686 0.0
H542 H 0.47924 0.15214 0.30179 0.0
H543 H 0.52563 0.13719 0.13013 0.0
H544 H 0.55404 0.14345 0.05929 0.0
H545 H 0.58955 0.14826 0.2354 0.0
H546 H 0.56126 0.14231 0.30737 0.0
H547 H 0.483 0.06004 0.45718 0.0
H548 H 0.48154 0.08642 0.37613 0.0
H549 H 0.53905 0.10398 0.43258 0.0
H550 H 0.54136 0.07601 0.50592 0.0
H551 H 0.53718 0.11106 0.31288 0.0
H552 H 0.4919 0.12752 0.48651 0.0
H553 H 0.46411 0.12097 0.56026 0.0
H554 H 0.42752 0.11407 0.38788 0.0
H555 H 0.45509 0.12053 0.31291 0.0
C556 C 0.52005 0.19525 0.17264 0.0
C557 C 0.50656 0.19535 0.11981 0.0
C558 C 0.52019 0.18016 0.22016 0.0
C559 C 0.50672 0.16489 0.21641 0.0
C560 C 0.49274 0.16549 0.16527 0.0
C561 C 0.4928 0.18037 0.11729 0.0
C562 C 0.50775 0.1478 0.26312 0.0
C563 C 0.49188 0.14311 0.30393 0.0
C564 C 0.52428 0.13602 0.26732 0.0
C565 C 0.54129 0.13952 0.22413 0.0
C566 C 0.53946 0.13975 0.15377 0.0
C567 C 0.55555 0.14321 0.11341 0.0
C568 C 0.57358 0.14631 0.14283 0.0
C569 C 0.57557 0.1459 0.21268 0.0
C570 C 0.55952 0.14247 0.25328 0.0
C571 C 0.49547 0.0693 0.45138 0.0
C572 C 0.51222 0.06592 0.48935 0.0
C573 C 0.49449 0.08479 0.4058 0.0
C574 C 0.50992 0.09802 0.399 0.0
C575 C 0.52676 0.09439 0.43638 0.0
C576 C 0.52797 0.07846 0.47975 0.0
C577 C 0.50876 0.11543 0.35307 0.0
C578 C 0.52457 0.12015 0.31182 0.0
C579 C 0.49229 0.12743 0.34935 0.0
C580 C 0.47555 0.12444 0.39417 0.0
C581 C 0.47792 0.12466 0.46435 0.0
C582 C 0.46224 0.12094 0.50632 0.0
C583 C 0.44412 0.1171 0.47871 0.0
C584 C 0.44158 0.11709 0.40908 0.0
C585 C 0.4572 0.12084 0.36683 0.0
H586 H 0.43208 0.11417 0.51135 0.0
H587 H 0.58602 0.14898 0.1115 0.0
H588 H 0.32121 0.52567 0.24487 0.0
H589 H 0.34755 0.52404 0.32749 0.0
H590 H 0.38627 0.50564 0.17195 0.0
H591 H 0.36012 0.50726 0.08966 0.0
H592 H 0.39195 0.48527 0.28831 0.0
H593 H 0.38588 0.55225 0.2255 0.0
H594 H 0.3685 0.58285 0.21253 0.0
H595 H 0.35719 0.58392 0.42443 0.0
H596 H 0.37429 0.55317 0.4385 0.0
H597 H 0.48533 0.50977 0.4208 0.0
H598 H 0.45585 0.50821 0.35285 0.0
H599 H 0.42224 0.52279 0.5268 0.0
H600 H 0.45164 0.52378 0.59554 0.0
H601 H 0.41196 0.54426 0.41067 0.0
H602 H 0.42252 0.4801 0.47683 0.0
H603 H 0.43903 0.44918 0.49171 0.0
H604 H 0.43887 0.44054 0.27832 0.0
H605 H 0.42399 0.47215 0.26154 0.0
C606 C 0.33526 0.52098 0.2285 0.0
C607 C 0.33847 0.51665 0.16031 0.0
C608 C 0.35041 0.52022 0.27576 0.0
C609 C 0.36913 0.51493 0.25623 0.0
C610 C 0.3721 0.50984 0.18872 0.0
C611 C 0.35707 0.51081 0.14149 0.0
C612 C 0.38578 0.51512 0.30498 0.0
C613 C 0.3965 0.49823 0.31436 0.0
C614 C 0.39138 0.53181 0.3413 0.0
C615 C 0.38117 0.55031 0.33292 0.0
C616 C 0.37955 0.55893 0.26923 0.0
C617 C 0.36977 0.57632 0.2617 0.0
C618 C 0.36169 0.58529 0.31759 0.0
C619 C 0.36342 0.57693 0.38116 0.0
C620 C 0.37316 0.55953 0.38895 0.0
C621 C 0.47167 0.51259 0.44477 0.0
C622 C 0.47095 0.51683 0.51395 0.0
C623 C 0.45476 0.51166 0.40574 0.0
C624 C 0.43666 0.51536 0.43437 0.0
C625 C 0.43594 0.51989 0.50322 0.0
C626 C 0.4528 0.52035 0.54265 0.0
C627 C 0.41858 0.51451 0.39248 0.0
C628 C 0.40752 0.53125 0.38464 0.0
C629 C 0.41262 0.49759 0.35791 0.0
C630 C 0.42249 0.47887 0.36781 0.0
C631 C 0.42657 0.47196 0.43283 0.0
C632 C 0.43572 0.45429 0.44164 0.0
C633 C 0.44039 0.4431 0.38595 0.0
C634 C 0.43575 0.44945 0.32139 0.0
C635 C 0.4271 0.46734 0.31216 0.0
H636 H 0.44748 0.42945 0.39288 0.0
H637 H 0.35413 0.59875 0.31166 0.0
H638 H 0.02984 0.32786 0.24088 0.0
H639 H 0.03328 0.35536 0.31737 0.0
H640 H 0.02495 0.39434 0.15146 0.0
H641 H 0.0223 0.36708 0.07482 0.0
H642 H 0.05033 0.40981 0.23085 0.0
H643 H 0.98795 0.38129 0.2678 0.0
H644 H 0.96502 0.3552 0.29529 0.0
H645 H 0.99163 0.3483 0.48864 0.0
H646 H 0.01488 0.3742 0.46193 0.0
H647 H 0.02293 0.4938 0.41304 0.0
H648 H 0.02435 0.46566 0.33956 0.0
H649 H 0.03254 0.42902 0.51206 0.0
H650 H 0.03078 0.45706 0.58576 0.0
H651 H 1.00845 0.41193 0.43189 0.0
H652 H 0.0699 0.44214 0.39614 0.0
H653 H 0.09134 0.46951 0.36931 0.0
H654 H 0.06578 0.47399 0.17342 0.0
H655 H 0.04394 0.44684 0.19947 0.0
C656 C 0.02911 0.34227 0.22036 0.0
C657 C 0.02553 0.34504 0.15127 0.0
C658 C 0.03083 0.35809 0.26451 0.0
C659 C 0.02894 0.37719 0.24108 0.0
C660 C 0.02632 0.37994 0.17166 0.0
C661 C 0.02465 0.36419 0.12765 0.0
C662 C 0.02907 0.39426 0.28836 0.0
C663 C 0.04102 0.41025 0.27446 0.0
C664 C 0.01725 0.39507 0.34639 0.0
C665 C 1.00328 0.37953 0.36257 0.0
C666 C 0.98899 0.37411 0.31598 0.0
C667 C 0.97593 0.35938 0.33145 0.0
C668 C 0.97691 0.35006 0.39359 0.0
C669 C 0.99092 0.3555 0.44047 0.0
C670 C 1.00403 0.37021 0.42522 0.0
C671 C 0.02518 0.47979 0.4355 0.0
C672 C 0.02664 0.47786 0.50583 0.0
C673 C 0.02606 0.4636 0.39314 0.0
C674 C 0.02879 0.44496 0.41952 0.0
C675 C 0.03038 0.44306 0.48976 0.0
C676 C 0.02937 0.45922 0.53213 0.0
C677 C 0.02969 0.42746 0.37443 0.0
C678 C 0.01789 0.41141 0.38863 0.0
C679 C 0.04161 0.42665 0.31664 0.0
C680 C 0.05519 0.44253 0.29995 0.0
C681 C 0.06881 0.44899 0.3474 0.0
C682 C 0.08102 0.46448 0.33236 0.0
C683 C 0.0799 0.4735 0.26975 0.0
C684 C 0.06662 0.467 0.22192 0.0
C685 C 0.05433 0.45154 0.23677 0.0
H686 H 0.08933 0.48552 0.25827 0.0
H687 H 0.96678 0.33866 0.40547 0.0
H688 H 0.83817 0.03409 0.09671 0.0
H689 H 0.86414 0.03671 0.0135 0.0
H690 H 0.88413 0.98033 0.07018 0.0
H691 H 0.8588 0.97812 0.15457 0.0
H692 H 0.91352 1.001 0.06093 0.0
H693 H 0.85998 0.99255 0.91189 0.0
H694 H 0.82825 0.99946 0.8621 0.0
H695 H 0.84778 0.05599 0.8059 0.0
H696 H 0.87957 0.0495 0.85617 0.0
H697 H 0.9796 0.98747 0.79036 0.0
H698 H 0.95226 0.98531 0.86719 0.0
H699 H 0.93823 0.04442 0.82491 0.0
H700 H 0.9658 0.04674 0.74881 0.0
H701 H 0.90594 0.02298 0.82553 0.0
H702 H 0.95906 0.03102 0.9806 0.0
H703 H 0.9902 0.0237 0.03405 0.0
H704 H 0.97086 0.96607 0.07558 0.0
H705 H 0.93951 0.97312 0.02279 0.0
C706 C 0.84794 0.02216 0.09059 0.0
C707 C 0.84635 1.00591 0.13257 0.0
C708 C 0.86285 0.02362 0.04271 0.0
C709 C 0.87633 1.00867 0.03443 0.0
C710 C 0.87424 0.99221 0.07516 0.0
C711 C 0.85961 0.9909 0.12346 0.0
C712 C 0.8931 1.01031 0.98621 0.0
C713 C 0.91165 1.00552 0.00917 0.0
C714 C 0.89118 0.01665 0.91863 0.0
C715 C 0.87209 0.02061 0.88846 0.0
C716 C 0.85746 1.00651 0.88939 0.0
C717 C 0.83948 1.01034 0.861 0.0
C718 C 0.83598 0.02818 0.83104 0.0
C719 C 0.8505 0.0422 0.82924 0.0
C720 C 0.8685 0.03844 0.85764 0.0
C721 C 0.97099 1.00016 0.7983 0.0
C722 C 0.9753 0.0174 0.76391 0.0
C723 C 0.95519 0.99888 0.84225 0.0
C724 C 0.9431 0.01477 0.85312 0.0
C725 C 0.9472 0.03191 0.81798 0.0
C726 C 0.96308 0.03323 0.77435 0.0
C727 C 0.92616 1.0135 0.90039 0.0
C728 C 0.90766 0.01839 0.87727 0.0
C729 C 0.92803 1.00702 0.96764 0.0
C730 C 0.94703 1.00256 0.9974 0.0
C731 C 0.96151 0.01675 1.00072 0.0
C732 C 0.97916 1.01267 0.03116 0.0
C733 C 0.98251 0.99442 0.05819 0.0
C734 C 0.96823 0.9802 0.05473 0.0
C735 C 0.9505 0.98425 0.02479 0.0
H736 H 0.99617 0.99128 0.08181 0.0
H737 H 0.82205 0.03112 0.80907 0.0
H738 H 0.49987 0.8573 0.12808 0.0
H739 H 0.49952 0.88284 0.04416 0.0
H740 H 0.54619 0.85565 0.9394 0.0
H741 H 0.54692 0.83009 0.02523 0.0
H742 H 0.55323 0.89326 0.9469 0.0
H743 H 0.49888 0.85657 0.87538 0.0
H744 H 0.46809 0.83899 0.88606 0.0
H745 H 0.4404 0.8907 0.9515 0.0
H746 H 0.47109 0.90854 0.94213 0.0
H747 H 0.5453 0.9611 0.67516 0.0
H748 H 0.5456 0.93126 0.74117 0.0
H749 H 0.50015 0.95321 0.86578 0.0
H750 H 0.49944 0.98276 0.7985 0.0
H751 H 0.49327 0.91626 0.83889 0.0
H752 H 0.54856 0.95221 0.91688 0.0
H753 H 0.57935 0.96965 0.90353 0.0
H754 H 0.60526 0.91884 0.82242 0.0
H755 H 0.57453 0.90116 0.83444 0.0
C756 C 0.51 0.85657 0.08693 0.0
C757 C 0.52346 0.8415 0.08397 0.0
C758 C 0.5097 0.87124 0.03836 0.0
C759 C 0.52273 0.87136 0.98437 0.0
C760 C 0.53593 0.85606 0.98019 0.0
C761 C 0.53621 0.84127 0.02902 0.0
C762 C 0.52288 0.88783 0.93452 0.0
C763 C 0.54014 0.89801 0.92242 0.0
C764 C 0.50584 0.89453 0.90284 0.0
C765 C 0.48734 0.88386 0.90859 0.0
C766 C 0.48626 0.86416 0.89255 0.0
C767 C 0.46882 0.85416 0.89828 0.0
C768 C 0.45231 0.86371 0.91959 0.0
C769 C 0.4532 0.88331 0.93506 0.0
C770 C 0.47062 0.89338 0.92948 0.0
C771 C 0.5352 0.95947 0.71606 0.0
C772 C 0.52224 0.97435 0.73088 0.0
C773 C 0.53553 0.94243 0.75449 0.0
C774 C 0.52302 0.93982 0.80948 0.0
C775 C 0.50998 0.95467 0.82394 0.0
C776 C 0.50968 0.97169 0.78557 0.0
C777 C 0.52352 0.92184 0.85225 0.0
C778 C 0.50637 0.9114 0.86303 0.0
C779 C 0.54066 0.91488 0.88244 0.0
C780 C 0.55919 0.92542 0.87591 0.0
C781 C 0.56079 0.94479 0.89578 0.0
C782 C 0.57824 0.95472 0.88851 0.0
C783 C 0.59424 0.94538 0.86196 0.0
C784 C 0.59284 0.92607 0.84287 0.0
C785 C 0.57542 0.91608 0.84994 0.0
H786 H 0.60773 0.9531 0.85631 0.0
H787 H 0.43882 0.85594 0.92398 0.0
H788 H 0.69923 0.55802 0.09721 0.0
H789 H 0.67264 0.56012 0.01539 0.0
H790 H 0.66668 0.49835 0.01812 0.0
H791 H 0.69288 0.49626 0.10043 0.0
H792 H 0.66471 0.51376 0.88772 0.0
H793 H 0.63636 0.525 0.1055 0.0
H794 H 0.63233 0.54182 0.21349 0.0
H795 H 0.62011 0.59442 0.10883 0.0
H796 H 0.62434 0.57796 1.00015 0.0
H797 H 0.57379 0.49613 0.74262 0.0
H798 H 0.60167 0.49835 0.81703 0.0
H799 H 0.59518 0.55996 0.82695 0.0
H800 H 0.56708 0.55772 0.75199 0.0
H801 H 0.60446 0.54746 0.94733 0.0
H802 H 0.63254 0.53867 0.73284 0.0
H803 H 0.63816 0.52434 0.62156 0.0
H804 H 0.65209 0.47034 0.71413 0.0
H805 H 0.64664 0.48442 0.82621 0.0
C806 C 0.69245 0.54488 0.07943 0.0
C807 C 0.69829 0.52696 0.10517 0.0
C808 C 0.6771 0.5461 0.0331 0.0
C809 C 0.6674 0.5294 0.01068 0.0
C810 C 0.67379 0.51147 0.0344 0.0
C811 C 0.68884 0.51028 0.08145 0.0
C812 C 0.65046 0.53041 0.96347 0.0
C813 C 0.65149 0.52098 0.90118 0.0
C814 C 0.63332 0.54038 0.9794 0.0
C815 C 0.63092 0.5503 0.0447 0.0
C816 C 0.63303 0.5402 0.1055 0.0
C817 C 0.63066 0.54966 0.16684 0.0
C818 C 0.62604 0.56919 0.16802 0.0
C819 C 0.62374 0.5793 0.10785 0.0
C820 C 0.62611 0.56991 0.04637 0.0
C821 C 0.57831 0.5102 0.76026 0.0
C822 C 0.56805 0.52674 0.7413 0.0
C823 C 0.59439 0.51147 0.80291 0.0
C824 C 0.60098 0.52937 0.82735 0.0
C825 C 0.59058 0.54594 0.80911 0.0
C826 C 0.57442 0.54465 0.76631 0.0
C827 C 0.61861 0.53057 0.87173 0.0
C828 C 0.61772 0.54035 0.93353 0.0
C829 C 0.63606 0.52124 0.85492 0.0
C830 C 0.63903 0.51255 0.78781 0.0
C831 C 0.63667 0.5237 0.72943 0.0
C832 C 0.63988 0.51564 0.66623 0.0
C833 C 0.64542 0.49641 0.66072 0.0
C834 C 0.6478 0.48523 0.71848 0.0
C835 C 0.64472 0.49326 0.78188 0.0
H836 H 0.64788 0.49019 0.61171 0.0
H837 H 0.62418 0.57649 0.21556 0.0
H838 H 0.98482 0.7153 0.04319 0.0
H839 H 0.98415 0.68881 0.96109 0.0
H840 H 0.03668 0.66659 0.04529 0.0
H841 H 0.03739 0.69291 0.12676 0.0
H842 H 0.03742 0.66301 0.91069 0.0
H843 H 0.9922 0.64848 0.08804 0.0
H844 H 0.96375 0.65363 0.15932 0.0
H845 H 0.92735 0.65323 0.98469 0.0
H846 H 0.95564 0.64842 0.91223 0.0
H847 H 1.01159 0.55749 0.84511 0.0
H848 H 1.00985 0.58692 0.91252 0.0
H849 H 1.00766 0.6209 0.73161 0.0
H850 H 1.00841 0.59137 0.66375 0.0
H851 H 0.98094 0.61891 0.91043 0.0
H852 H 0.04151 0.65955 0.77334 0.0
H853 H 0.07 0.65224 0.70432 0.0
H854 H 0.0759 0.59782 0.80435 0.0
H855 H 0.04791 0.60506 0.87521 0.0
C856 C 0.99643 0.70499 0.04325 0.0
C857 C 1.01114 0.70629 0.09191 0.0
C858 C 0.99595 0.68969 0.99662 0.0
C859 C 1.01024 0.67537 0.99707 0.0
C860 C 0.02542 0.67727 0.04348 0.0
C861 C 0.0258 0.69238 0.09034 0.0
C862 C 1.00916 0.65797 0.95178 0.0
C863 C 0.02494 0.65354 0.9104 0.0
C864 C 0.99305 0.64523 0.95114 0.0
C865 C 0.97608 0.64837 0.99465 0.0
C866 C 0.97816 0.64971 0.06477 0.0
C867 C 0.96205 0.65253 0.1054 0.0
C868 C 0.94376 0.65383 0.07653 0.0
C869 C 0.94153 0.65228 0.00697 0.0
C870 C 0.9576 0.64953 0.9661 0.0
C871 C 1.01037 0.57117 0.81954 0.0
C872 C 1.00991 0.57194 0.74884 0.0
C873 C 1.00939 0.58804 0.85827 0.0
C874 C 1.00858 0.60623 0.82742 0.0
C875 C 1.0082 0.60709 0.75678 0.0
C876 C 1.00863 0.59015 0.71799 0.0
C877 C 1.00902 0.62424 0.86917 0.0
C878 C 0.99321 0.62866 0.90998 0.0
C879 C 0.02509 0.63691 0.86952 0.0
C880 C 0.04244 0.63276 0.82895 0.0
C881 C 0.04899 0.6461 0.7809 0.0
C882 C 0.06508 0.64198 0.74153 0.0
C883 C 0.07476 0.62458 0.74995 0.0
C884 C 0.06843 0.6113 0.79789 0.0
C885 C 0.05245 0.61541 0.83766 0.0
H886 H 0.08721 0.62142 0.71948 0.0
H887 H 0.9313 0.65598 0.10808 0.0
H888 H 0.08178 0.23126 0.18185 0.0
H889 H 0.0861 0.2125 0.28468 0.0
H890 H 0.03466 0.23732 0.36711 0.0
H891 H 0.0302 0.25603 0.2646 0.0
H892 H 0.06395 0.22264 0.46827 0.0
H893 H 0.02396 0.20327 0.27247 0.0
H894 H 0.02012 0.19986 0.14967 0.0
H895 H 0.07047 0.1645 0.14221 0.0
H896 H 0.07464 0.16784 0.265 0.0
H897 H 1.00055 0.15202 0.59756 0.0
H898 H 0.02172 0.17796 0.56161 0.0
H899 H 0.05688 0.13726 0.45515 0.0
H900 H 0.03472 0.11183 0.48283 0.0
H901 H 0.0434 0.15998 0.3715 0.0
H902 H 0.07644 0.17159 0.57849 0.0
H903 H 0.08099 0.17704 0.6999 0.0
H904 H 0.04431 0.22638 0.6907 0.0
H905 H 0.03978 0.22146 0.56896 0.0
C906 C 0.07185 0.2333 0.22305 0.0
C907 C 0.0554 0.2447 0.21475 0.0
C908 C 0.07446 0.22276 0.28202 0.0
C909 C 0.06054 0.22338 0.33288 0.0
C910 C 0.0456 0.23676 0.3285 0.0
C911 C 0.043 0.24735 0.26959 0.0
C912 C 0.05813 0.20666 0.3779 0.0
C913 C 0.0596 0.20882 0.44776 0.0
C914 C 0.05266 0.18868 0.35063 0.0
C915 C 0.04969 0.18592 0.27751 0.0
C916 C 0.03418 0.19476 0.24453 0.0
C917 C 0.03193 0.19282 0.17506 0.0
C918 C 0.04507 0.182 0.13821 0.0
C919 C 0.06033 0.1729 0.17086 0.0
C920 C 0.06262 0.17477 0.24037 0.0
C921 C 0.01277 0.14848 0.56652 0.0
C922 C 0.01507 0.12977 0.54047 0.0
C923 C 0.02527 0.16337 0.54751 0.0
C924 C 0.04076 0.15968 0.50434 0.0
C925 C 0.04481 0.14056 0.48744 0.0
C926 C 0.03199 0.12584 0.50417 0.0
C927 C 0.04932 0.17549 0.46362 0.0
C928 C 0.04855 0.17336 0.39345 0.0
C929 C 0.0554 0.19333 0.49121 0.0
C930 C 0.0577 0.19609 0.56464 0.0
C931 C 0.06923 0.18352 0.60244 0.0
C932 C 0.07185 0.18654 0.67128 0.0
C933 C 0.06284 0.20195 0.70307 0.0
C934 C 0.05127 0.21444 0.66601 0.0
C935 C 0.04877 0.21162 0.59701 0.0
H936 H 0.06491 0.20429 0.75635 0.0
H937 H 0.04349 0.18075 0.08435 0.0
H938 H 0.31947 0.0813 0.17236 0.0
H939 H 0.34175 0.08221 0.26716 0.0
H940 H 0.31416 0.03195 0.35149 0.0
H941 H 0.29211 0.03068 0.25578 0.0
H942 H 0.34781 0.0779 0.41117 0.0
H943 H 0.34843 0.9987 0.35372 0.0
H944 H 0.33526 0.97543 0.27149 0.0
H945 H 0.33906 0.01813 0.11587 0.0
H946 H 0.35258 0.04148 0.19693 0.0
H947 H 0.44114 1.01242 0.41827 0.0
H948 H 0.40747 0.01796 0.44125 0.0
H949 H 0.41234 0.07522 0.35879 0.0
H950 H 0.44662 0.07014 0.33821 0.0
H951 H 0.38577 0.02177 0.33581 0.0
H952 H 0.37317 0.10281 0.41619 0.0
H953 H 0.38511 0.12554 0.50182 0.0
H954 H 0.40732 0.0786 0.61818 0.0
H955 H 0.39539 0.05557 0.53391 0.0
C956 C 0.31766 0.07093 0.21257 0.0
C957 C 0.30455 0.05555 0.20582 0.0
C958 C 0.33022 0.07162 0.26723 0.0
C959 C 0.32986 0.05688 0.31537 0.0
C960 C 0.31471 0.04338 0.31446 0.0
C961 C 0.30216 0.04263 0.25955 0.0
C962 C 0.34802 0.05233 0.35047 0.0
C963 C 0.35621 0.06562 0.3955 0.0
C964 C 0.35863 0.03595 0.33118 0.0
C965 C 0.35123 0.02185 0.28148 0.0
C966 C 0.34652 1.00306 0.30187 0.0
C967 C 0.339 0.98987 0.25549 0.0
C968 C 0.33624 0.99534 0.18858 0.0
C969 C 0.34112 1.01395 0.16777 0.0
C970 C 0.34874 0.02714 0.21386 0.0
C971 C 0.43537 0.02652 0.40737 0.0
C972 C 0.44656 0.04074 0.37512 0.0
C973 C 0.41602 0.02964 0.42074 0.0
C974 C 0.40734 0.04693 0.40158 0.0
C975 C 0.41877 0.06178 0.37449 0.0
C976 C 0.43827 0.05873 0.36149 0.0
C977 C 0.38616 0.04774 0.39524 0.0
C978 C 0.37739 0.03374 0.35448 0.0
C979 C 0.37523 0.06343 0.4189 0.0
C980 C 0.38324 0.07737 0.46848 0.0
C981 C 0.3805 0.09728 0.46015 0.0
C982 C 0.38728 0.11024 0.50856 0.0
C983 C 0.3968 0.1035 0.56569 0.0
C984 C 0.39984 0.0838 0.57408 0.0
C985 C 0.39311 0.07078 0.52584 0.0
H986 H 0.402 0.11356 0.60316 0.0
H987 H 0.33036 0.98514 0.15282 0.0
H988 H 0.44584 0.31017 0.07169 0.0
H989 H 0.4414 0.33361 0.16099 0.0
H990 H 0.47949 0.30133 0.28905 0.0
H991 H 0.48498 0.27854 0.19867 0.0
H992 H 0.43721 0.34416 0.2943 0.0
H993 H 0.51698 0.32794 0.31877 0.0
H994 H 0.54325 0.31112 0.26023 0.0
H995 H 0.51575 0.32163 0.07056 0.0
H996 H 0.48912 0.33807 0.12814 0.0
H997 H 0.51679 0.42006 0.40328 0.0
H998 H 0.50387 0.38755 0.39565 0.0
H999 H 0.46074 0.40699 0.25557 0.0
H1000 H 0.47306 0.43993 0.26567 0.0
H1001 H 0.50457 0.36818 0.28274 0.0
H1002 H 0.42331 0.37984 0.25727 0.0
H1003 H 0.39764 0.39938 0.30801 0.0
H1004 H 0.42893 0.40145 0.4941 0.0
H1005 H 0.45483 0.38199 0.4442 0.0
C1006 C 0.45259 0.30759 0.11996 0.0
C1007 C 0.46661 0.29322 0.12704 0.0
C1008 C 0.44988 0.32092 0.1713 0.0
C1009 C 0.46088 0.31964 0.23021 0.0
C1010 C 0.4713 0.30278 0.24298 0.0
C1011 C 0.47437 0.28968 0.19111 0.0
C1012 C 0.46626 0.33768 0.26494 0.0
C1013 C 0.45195 0.34936 0.29269 0.0
C1014 C 0.48551 0.34453 0.26251 0.0
C1015 C 0.50103 0.33402 0.22776 0.0
C1016 C 0.5165 0.3265 0.26462 0.0
C1017 C 0.5314 0.31699 0.23162 0.0
C1018 C 0.53107 0.31516 0.16172 0.0
C1019 C 0.51584 0.32282 0.1247 0.0
C1020 C 0.50081 0.33216 0.15749 0.0
C1021 C 0.50407 0.41765 0.37286 0.0
C1022 C 0.49551 0.43281 0.33697 0.0
C1023 C 0.49679 0.39898 0.36824 0.0
C1024 C 0.48101 0.39494 0.32659 0.0
C1025 C 0.47253 0.40991 0.28985 0.0
C1026 C 0.47977 0.42868 0.29485 0.0
C1027 C 0.4756 0.37472 0.31287 0.0
C1028 C 0.48995 0.36275 0.28754 0.0
C1029 C 0.45644 0.36785 0.31704 0.0
C1030 C 0.44101 0.3796 0.34697 0.0
C1031 C 0.42468 0.38446 0.30903 0.0
C1032 C 0.41012 0.39553 0.33758 0.0
C1033 C 0.41165 0.40163 0.40427 0.0
C1034 C 0.42776 0.39669 0.44251 0.0
C1035 C 0.44245 0.38578 0.41397 0.0
H1036 H 0.40037 0.41021 0.42627 0.0
H1037 H 0.54267 0.30789 0.13621 0.0
H1038 H 0.21897 0.47598 0.20475 0.0
H1039 H 0.19791 0.47955 0.30207 0.0
H1040 H 0.22714 0.53241 0.35473 0.0
H1041 H 0.24804 0.52908 0.25716 0.0
H1042 H 0.21025 0.51089 0.46777 0.0
H1043 H 0.19475 0.53746 0.24593 0.0
H1044 H 0.19059 0.53394 0.12341 0.0
H1045 H 0.14752 0.49026 0.15506 0.0
H1046 H 0.15165 0.49335 0.27787 0.0
H1047 H 0.14198 0.57693 0.5864 0.0
H1048 H 0.16754 0.55822 0.53661 0.0
H1049 H 0.12547 0.51955 0.44941 0.0
H1050 H 0.09984 0.53959 0.49145 0.0
H1051 H 0.14837 0.52829 0.35938 0.0
H1052 H 0.15881 0.50782 0.58446 0.0
H1053 H 0.16348 0.51185 0.70553 0.0
H1054 H 0.21611 0.5429 0.67153 0.0
H1055 H 0.21151 0.5396 0.54917 0.0
C1056 C 0.22138 0.48794 0.23871 0.0
C1057 C 0.23476 0.5025 0.22286 0.0
C1058 C 0.20944 0.4899 0.29431 0.0
C1059 C 0.21082 0.50642 0.33438 0.0
C1060 C 0.22592 0.51958 0.3241 0.0
C1061 C 0.23784 0.51766 0.26832 0.0
C1062 C 0.19431 0.51231 0.37538 0.0
C1063 C 0.19664 0.51467 0.44464 0.0
C1064 C 0.17658 0.51692 0.34461 0.0
C1065 C 0.17365 0.51548 0.27093 0.0
C1066 C 0.18446 0.52705 0.22671 0.0
C1067 C 0.1821 0.52515 0.15725 0.0
C1068 C 0.16884 0.51184 0.13145 0.0
C1069 C 0.15782 0.50052 0.17511 0.0
C1070 C 0.16015 0.50235 0.24464 0.0
C1071 C 0.13808 0.56457 0.55611 0.0
C1072 C 0.11869 0.56013 0.54208 0.0
C1073 C 0.15281 0.55354 0.5289 0.0
C1074 C 0.14853 0.53727 0.4896 0.0
C1075 C 0.1292 0.53205 0.47936 0.0
C1076 C 0.11447 0.54345 0.5045 0.0
C1077 C 0.16402 0.52702 0.45323 0.0
C1078 C 0.16163 0.52403 0.38392 0.0
C1079 C 0.18164 0.52183 0.48423 0.0
C1080 C 0.18473 0.52355 0.55761 0.0
C1081 C 0.17133 0.51561 0.60264 0.0
C1082 C 0.17397 0.51779 0.67163 0.0
C1083 C 0.19007 0.52759 0.69651 0.0
C1084 C 0.20363 0.53529 0.65222 0.0
C1085 C 0.20102 0.53329 0.58294 0.0
H1086 H 0.19203 0.52921 0.74999 0.0
H1087 H 0.16708 0.51035 0.07766 0.0
H1088 H 0.95727 0.82479 0.10116 0.0
H1089 H 0.95224 0.84486 1.0016 0.0
H1090 H 0.99786 0.81477 0.90017 0.0
H1091 H 1.00242 0.79448 0.99839 0.0
H1092 H 0.97854 0.86877 0.97181 0.0
H1093 H 0.99967 0.82177 0.73792 0.0
H1094 H 0.99062 0.79047 0.68867 0.0
H1095 H 0.93668 0.7917 0.79305 0.0
H1096 H 0.94524 0.82317 0.84217 0.0
H1097 H 0.04629 0.89058 0.68818 0.0
H1098 H 0.02427 0.86815 0.74283 0.0
H1099 H 0.98487 0.91451 0.78172 0.0
H1100 H 1.00734 0.93721 0.73069 0.0
H1101 H 0.98826 0.85556 0.72964 0.0
H1102 H 0.96347 0.907 0.9296 0.0
H1103 H 0.97213 0.93843 0.9795 0.0
H1104 H 0.032 0.92707 0.94628 0.0
H1105 H 0.02366 0.89552 0.89663 0.0
C1106 C 0.96559 0.82197 0.05635 0.0
C1107 C 0.98037 0.80829 0.05743 0.0
C1108 C 0.96273 0.83343 0.99957 0.0
C1109 C 0.97474 0.83147 0.94337 0.0
C1110 C 0.98815 0.81642 0.94216 0.0
C1111 C 0.99083 0.80482 0.99859 0.0
C1112 C 0.97644 0.84732 0.89359 0.0
C1113 C 0.98 0.86594 0.91848 0.0
C1114 C 0.97846 0.84377 0.82399 0.0
C1115 C 0.97315 0.82488 0.79395 0.0
C1116 C 0.98581 0.81547 0.75001 0.0
C1117 C 0.98077 0.79766 0.7222 0.0
C1118 C 0.96309 0.78909 0.73778 0.0
C1119 C 0.95039 0.79833 0.78115 0.0
C1120 C 0.95534 0.81615 0.80909 0.0
C1121 C 0.03285 0.89601 0.7076 0.0
C1122 C 0.02865 0.91575 0.70497 0.0
C1123 C 0.0202 0.88313 0.73852 0.0
C1124 C 1.00299 0.88966 0.76698 0.0
C1125 C 0.99822 0.90918 0.76117 0.0
C1126 C 1.01112 0.92216 0.73191 0.0
C1127 C 0.99145 0.87633 0.8091 0.0
C1128 C 0.98603 0.85836 0.78263 0.0
C1129 C 0.98763 0.88041 0.87738 0.0
C1130 C 0.99292 0.89904 0.90891 0.0
C1131 C 0.97848 0.9112 0.93327 0.0
C1132 C 0.98333 0.92903 0.9614 0.0
C1133 C 1.0026 0.93477 0.96591 0.0
C1134 C 0.01707 0.92263 0.94262 0.0
C1135 C 1.0123 0.90478 0.91449 0.0
H1136 H 1.00632 0.94859 0.9876 0.0
H1137 H 0.95923 0.77529 0.71621 0.0
H1138 H 0.71902 0.97673 0.11599 0.0
H1139 H 0.69936 0.98141 0.0169 0.0
H1140 H 0.74332 0.01821 0.9315 0.0
H1141 H 0.7625 0.01462 0.03348 0.0
H1142 H 0.71356 0.03775 0.94783 0.0
H1143 H 0.72221 0.97849 0.84132 0.0
H1144 H 0.72625 0.94356 0.82649 0.0
H1145 H 0.66918 0.93349 0.90122 0.0
H1146 H 0.66486 0.9683 0.9177 0.0
H1147 H 0.63089 0.0697 0.76912 0.0
H1148 H 0.66225 0.05449 0.78602 0.0
H1149 H 0.63685 0.01525 0.92929 0.0
H1150 H 0.60562 0.03035 0.91281 0.0
H1151 H 0.66227 0.99707 0.84731 0.0
H1152 H 0.66016 0.05501 0.98391 0.0
H1153 H 0.65624 0.0899 1.00182 0.0
H1154 H 0.70246 0.10158 0.8646 0.0
H1155 H 0.7065 0.06673 0.84542 0.0
C1156 C 0.72476 0.98535 0.07521 0.0
C1157 C 0.74191 0.9959 0.0834 0.0
C1158 C 0.71362 0.98777 0.01772 0.0
C1159 C 0.71972 1.00039 0.96672 0.0
C1160 C 0.73824 1.00856 0.97052 0.0
C1161 C 0.74925 1.00644 0.02878 0.0
C1162 C 0.70507 1.00873 0.92121 0.0
C1163 C 0.70283 0.02882 0.92298 0.0
C1164 C 0.69076 0.99719 0.89009 0.0
C1165 C 0.69323 0.97611 0.88081 0.0
C1166 C 0.71055 0.96884 0.85508 0.0
C1167 C 0.71289 0.94904 0.84631 0.0
C1168 C 0.69798 0.93631 0.8629 0.0
C1169 C 0.6807 0.94337 0.88828 0.0
C1170 C 0.67829 0.96316 0.8972 0.0
C1171 C 0.63206 0.05789 0.80439 0.0
C1172 C 0.6159 0.0513 0.84014 0.0
C1173 C 0.6499 0.04914 0.8136 0.0
C1174 C 0.65182 0.03383 0.85912 0.0
C1175 C 0.63561 0.02696 0.89356 0.0
C1176 C 0.61781 0.03564 0.8843 0.0
C1177 C 0.67089 0.02576 0.87507 0.0
C1178 C 0.67367 1.00588 0.86852 0.0
C1179 C 0.68585 0.03743 0.90102 0.0
C1180 C 0.68345 0.05834 0.91255 0.0
C1181 C 0.66937 0.06505 0.95719 0.0
C1182 C 0.66716 0.08479 0.96765 0.0
C1183 C 0.67905 0.09795 0.93417 0.0
C1184 C 0.69323 0.09137 0.89035 0.0
C1185 C 0.69549 0.07163 0.87968 0.0
H1186 H 0.67731 0.11324 0.94233 0.0
H1187 H 0.69982 0.92099 0.85606 0.0
H1188 H 0.53311 0.75403 0.99667 0.0
H1189 H 0.53 0.72907 0.9115 0.0
H1190 H 0.57089 0.69418 0.01913 0.0
H1191 H 0.5754 0.71981 0.10068 0.0
H1192 H 0.5664 0.67946 0.89998 0.0
H1193 H 0.52411 0.6993 0.07894 0.0
H1194 H 0.50341 0.72162 0.14165 0.0
H1195 H 0.46765 0.72883 0.96736 0.0
H1196 H 0.48813 0.70642 0.90373 0.0
H1197 H 0.51289 0.59266 0.97247 0.0
H1198 H 0.53094 0.62315 0.97503 0.0
H1199 H 0.49464 0.64566 0.81841 0.0
H1200 H 0.47691 0.61496 0.81371 0.0
H1201 H 0.49691 0.66733 0.94056 0.0
H1202 H 0.54197 0.64353 0.76658 0.0
H1203 H 0.56354 0.61886 0.71977 0.0
H1204 H 0.59371 0.61567 0.90796 0.0
H1205 H 0.57254 0.64062 0.95522 0.0
C1206 C 0.54251 0.74169 0.99957 0.0
C1207 C 0.55367 0.7383 0.05727 0.0
C1208 C 0.54057 0.72728 0.95107 0.0
C1209 C 0.54924 0.70931 0.96168 0.0
C1210 C 0.56358 0.7077 0.01098 0.0
C1211 C 0.56605 0.72237 0.05798 0.0
C1212 C 0.53988 0.69149 0.93641 0.0
C1213 C 0.55117 0.67691 0.90816 0.0
C1214 C 0.52005 0.68787 0.94841 0.0
C1215 C 0.50773 0.70135 0.98646 0.0
C1216 C 0.51183 0.70563 0.05405 0.0
C1217 C 0.50016 0.71831 0.08972 0.0
C1218 C 0.48429 0.72672 0.05841 0.0
C1219 C 0.47999 0.72236 0.99147 0.0
C1220 C 0.4916 0.70965 0.95561 0.0
C1221 C 0.50883 0.60411 0.9384 0.0
C1222 C 0.49345 0.60161 0.89327 0.0
C1223 C 0.51933 0.62134 0.93911 0.0
C1224 C 0.51435 0.63638 0.89555 0.0
C1225 C 0.49894 0.63393 0.8508 0.0
C1226 C 0.48875 0.61656 0.84882 0.0
C1227 C 0.52335 0.65552 0.90351 0.0
C1228 C 0.51198 0.67019 0.92988 0.0
C1229 C 0.54313 0.65889 0.89217 0.0
C1230 C 0.55567 0.6438 0.86434 0.0
C1231 C 0.55321 0.63753 0.79784 0.0
C1232 C 0.56545 0.62362 0.77113 0.0
C1233 C 0.57998 0.61568 0.81089 0.0
C1234 C 0.58245 0.62182 0.87721 0.0
C1235 C 0.57044 0.63594 0.90382 0.0
H1236 H 0.58929 0.60475 0.79035 0.0
H1237 H 0.47529 0.73656 0.08606 0.0
H1238 H 0.77864 0.55966 0.03555 0.0
H1239 H 0.80081 0.56832 0.94612 0.0
H1240 H 0.83193 0.60554 0.08193 0.0
H1241 H 0.80904 0.5979 0.17067 0.0
H1242 H 0.84118 0.61273 0.9442 0.0
H1243 H 0.84103 0.5585 0.10694 0.0
H1244 H 0.8265 0.53033 0.16367 0.0
H1245 H 0.81207 0.50554 0.97253 0.0
H1246 H 0.82718 0.53326 0.91469 0.0
H1247 H 0.93949 0.58362 0.93922 0.0
H1248 H 0.9067 0.59492 0.95525 0.0
H1249 H 0.88513 0.54725 0.83745 0.0
H1250 H 0.91728 0.53454 0.82925 0.0
H1251 H 0.86856 0.547 0.94751 0.0
H1252 H 0.88122 0.59788 0.79035 0.0
H1253 H 0.89969 0.62511 0.74303 0.0
H1254 H 0.89199 0.65699 0.9255 0.0
H1255 H 0.87369 0.62986 0.9743 0.0
C1256 C 0.78932 0.57074 0.04533 0.0
C1257 C 0.79272 0.57739 0.111 0.0
C1258 C 0.80208 0.57566 0.99394 0.0
C1259 C 0.81849 0.58682 0.00855 0.0
C1260 C 0.81956 0.59658 0.07001 0.0
C1261 C 0.80654 0.59203 0.12098 0.0
C1262 C 0.83658 0.58311 0.97203 0.0
C1263 C 0.84718 0.59837 0.94381 0.0
C1264 C 0.84442 0.56439 0.97223 0.0
C1265 C 0.83502 0.54796 0.00668 0.0
C1266 C 0.8347 0.54705 0.07714 0.0
C1267 C 0.82639 0.53118 0.10945 0.0
C1268 C 0.81813 0.51629 0.0718 0.0
C1269 C 0.81839 0.51712 1.00166 0.0
C1270 C 0.82694 0.53283 0.96907 0.0
C1271 C 0.92777 0.57552 0.91677 0.0
C1272 C 0.93116 0.55806 0.88311 0.0
C1273 C 0.909 0.58228 0.92464 0.0
C1274 C 0.89336 0.57206 0.89701 0.0
C1275 C 0.89692 0.55545 0.85916 0.0
C1276 C 0.91548 0.54831 0.85361 0.0
C1277 C 0.87332 0.57647 0.91698 0.0
C1278 C 0.86245 0.5613 0.94422 0.0
C1279 C 0.8655 0.59527 0.9158 0.0
C1280 C 0.87614 0.61178 0.88608 0.0
C1281 C 0.88353 0.61066 0.8205 0.0
C1282 C 0.89397 0.62609 0.79341 0.0
C1283 C 0.89704 0.64276 0.83128 0.0
C1284 C 0.8896 0.64407 0.89622 0.0
C1285 C 0.87915 0.62869 0.92357 0.0
H1286 H 0.90516 0.65467 0.81028 0.0
H1287 H 0.81164 0.50406 0.09698 0.0
H1288 H 1.01044 0.23111 0.948 0.0
H1289 H 1.00707 0.2017 0.88037 0.0
H1290 H 0.06459 0.18511 0.93615 0.0
H1291 H 0.06833 0.21475 1.00006 0.0
H1292 H 0.06018 0.17342 0.81846 0.0
H1293 H 0.02014 0.16529 0.01314 0.0
H1294 H 0.99454 0.17408 0.09287 0.0
H1295 H 0.9529 0.17227 0.93317 0.0
H1296 H 0.97837 0.16374 0.85249 0.0
H1297 H 0.05383 0.07211 0.76733 0.0
H1298 H 0.05602 0.10443 0.8152 0.0
H1299 H 1.00087 0.11824 0.72907 0.0
H1300 H 0.99844 0.08575 0.68241 0.0
H1301 H 1.00285 0.13192 0.855 0.0
H1302 H 0.04387 0.13579 0.66229 0.0
H1303 H 0.07039 0.12578 0.5882 0.0
H1304 H 0.1109 0.13459 0.7484 0.0
H1305 H 0.08461 0.14422 0.82398 0.0
C1306 C 0.02254 0.22144 0.94453 0.0
C1307 C 0.03959 0.22543 0.98056 0.0
C1308 C 0.02049 0.20433 0.90659 0.0
C1309 C 0.03535 0.19054 0.90407 0.0
C1310 C 0.05273 0.19513 0.93699 0.0
C1311 C 0.05483 0.21221 0.97418 0.0
C1312 C 0.0329 0.17124 0.86909 0.0
C1313 C 0.04762 0.16443 0.82684 0.0
C1314 C 0.01654 0.15914 0.87868 0.0
C1315 C 1.00118 0.16419 0.9268 0.0
C1316 C 1.00556 0.16698 0.99508 0.0
C1317 C 0.99107 0.17186 0.0404 0.0
C1318 C 0.97211 0.17382 0.01804 0.0
C1319 C 0.9676 0.17081 0.95037 0.0
C1320 C 0.98205 0.16594 0.90485 0.0
C1321 C 0.04213 0.08191 0.75854 0.0
C1322 C 0.02598 0.076 0.72073 0.0
C1323 C 0.04344 0.1006 0.78576 0.0
C1324 C 0.02869 0.11414 0.77563 0.0
C1325 C 1.01249 0.10826 0.73815 0.0
C1326 C 1.01116 0.08955 0.7111 0.0
C1327 C 0.03011 0.13424 0.80453 0.0
C1328 C 0.01524 0.14112 0.84575 0.0
C1329 C 0.0464 0.14633 0.79436 0.0
C1330 C 0.06224 0.14061 0.74893 0.0
C1331 C 0.05841 0.13547 0.68184 0.0
C1332 C 0.07339 0.12988 0.63957 0.0
C1333 C 0.09229 0.12959 0.66353 0.0
C1334 C 0.09625 0.13483 0.7299 0.0
C1335 C 0.08132 0.14033 0.77252 0.0
H1336 H 0.10387 0.12531 0.63066 0.0
H1337 H 0.96091 0.1776 0.05318 0.0
H1338 H 0.31041 1.01305 0.93675 0.0
H1339 H 0.33899 1.0088 0.86529 0.0
H1340 H 0.35733 0.06672 0.91076 0.0
H1341 H 0.32906 0.07096 0.98163 0.0
H1342 H 0.35602 0.02556 0.75449 0.0
H1343 H 0.40366 0.06915 0.93612 0.0
H1344 H 0.40596 0.07681 0.05701 0.0
H1345 H 0.37756 0.02351 0.10531 0.0
H1346 H 0.37473 0.01574 0.98486 0.0
H1347 H 0.44985 0.03863 0.59992 0.0
H1348 H 0.41769 0.04173 0.64964 0.0
H1349 H 0.43691 1.01042 0.82438 0.0
H1350 H 0.46902 1.00809 0.77603 0.0
H1351 H 0.4184 0.03755 0.86887 0.0
H1352 H 0.40234 0.99259 0.69157 0.0
H1353 H 0.39831 0.98007 0.57636 0.0
H1354 H 0.36438 0.02921 0.52362 0.0
H1355 H 0.36809 0.04198 0.63857 0.0
C1356 C 0.32027 0.02504 0.93003 0.0
C1357 C 0.31734 0.04234 0.96541 0.0
C1358 C 0.33674 0.02257 0.88938 0.0
C1359 C 0.35074 0.03728 0.88329 0.0
C1360 C 0.34714 0.05493 0.91531 0.0
C1361 C 0.3308 0.05739 0.95568 0.0
C1362 C 0.36957 0.03407 0.84711 0.0
C1363 C 0.36968 0.0282 0.77945 0.0
C1364 C 0.38757 0.0372 0.87918 0.0
C1365 C 0.38885 0.04197 0.95158 0.0
C1366 C 0.39783 0.05913 0.97262 0.0
C1367 C 0.39914 0.06352 0.04104 0.0
C1368 C 0.39172 0.05074 0.08884 0.0
C1369 C 0.383 0.03354 0.06829 0.0
C1370 C 0.38147 0.02917 0.99996 0.0
C1371 C 0.44712 0.03224 0.64865 0.0
C1372 C 0.46215 0.02317 0.68398 0.0
C1373 C 0.42859 0.03393 0.67717 0.0
C1374 C 0.42444 0.02626 0.74135 0.0
C1375 C 0.43943 0.01671 0.77535 0.0
C1376 C 0.45791 0.01529 0.74742 0.0
C1377 C 0.40512 0.02893 0.77546 0.0
C1378 C 0.40487 0.03488 0.84315 0.0
C1379 C 0.38706 0.02551 0.74345 0.0
C1380 C 0.38565 0.01832 0.67352 0.0
C1381 C 0.39419 1.00083 0.65522 0.0
C1382 C 0.39191 0.99366 0.59004 0.0
C1383 C 0.38117 1.00387 0.54269 0.0
C1384 C 0.37268 0.02129 0.56038 0.0
C1385 C 0.37482 0.02848 0.62557 0.0
H1386 H 0.37939 0.99828 0.49231 0.0
H1387 H 0.39283 0.05411 0.1418 0.0
H1388 H 0.53101 0.31314 0.9451 0.0
H1389 H 0.53683 0.34421 0.88881 0.0
H1390 H 0.47699 0.34652 0.83187 0.0
H1391 H 0.47139 0.31548 0.8864 0.0
H1392 H 0.49578 0.36198 0.73563 0.0
H1393 H 0.49606 0.37325 0.97291 0.0
H1394 H 0.50589 0.36895 0.09103 0.0
H1395 H 0.56433 0.38269 0.03942 0.0
H1396 H 0.55475 0.38745 0.92101 0.0
H1397 H 0.48544 0.46429 0.70128 0.0
H1398 H 0.48366 0.43125 0.74481 0.0
H1399 H 0.54555 0.42884 0.75078 0.0
H1400 H 0.54742 0.46178 0.70628 0.0
H1401 H 0.52746 0.41342 0.86959 0.0
H1402 H 0.52299 0.40694 0.62958 0.0
H1403 H 0.50903 0.4154 0.52001 0.0
H1404 H 0.45402 0.39356 0.58313 0.0
H1405 H 0.46755 0.38553 0.69428 0.0
C1406 C 0.51929 0.31997 0.91851 0.0
C1407 C 0.50078 0.3116 0.91967 0.0
C1408 C 0.52251 0.338 0.8873 0.0
C1409 C 0.50728 0.34823 0.8568 0.0
C1410 C 0.48908 0.33924 0.85473 0.0
C1411 C 0.48589 0.32132 0.88577 0.0
C1412 C 0.50989 0.36848 0.82957 0.0
C1413 C 0.50262 0.37316 0.76541 0.0
C1414 C 0.51884 0.38343 0.86735 0.0
C1415 C 0.52475 0.38046 0.9381 0.0
C1416 C 0.51103 0.37523 0.98672 0.0
C1417 C 0.51654 0.37274 0.05371 0.0
C1418 C 0.53576 0.37532 0.07262 0.0
C1419 C 0.54947 0.38062 0.02465 0.0
C1420 C 0.54399 0.38332 0.95766 0.0
C1421 C 0.4987 0.45675 0.71171 0.0
C1422 C 0.51658 0.4658 0.69968 0.0
C1423 C 0.49766 0.43778 0.73671 0.0
C1424 C 0.51447 0.42733 0.7512 0.0
C1425 C 0.53234 0.43646 0.74028 0.0
C1426 C 0.53338 0.45532 0.71427 0.0
C1427 C 0.51337 0.40679 0.77603 0.0
C1428 C 0.52084 0.40212 0.83969 0.0
C1429 C 0.5042 0.39197 0.73845 0.0
C1430 C 0.49625 0.39581 0.67054 0.0
C1431 C 0.50789 0.40401 0.62026 0.0
C1432 C 0.50004 0.40875 0.5578 0.0
C1433 C 0.48062 0.40507 0.54446 0.0
C1434 C 0.46905 0.39647 0.59351 0.0
C1435 C 0.4768 0.39183 0.65634 0.0
H1436 H 0.47454 0.40892 0.49622 0.0
H1437 H 0.54 0.3733 0.12449 0.0
H1438 H 0.20587 0.4803 0.01732 0.0
H1439 H 0.17663 0.48348 0.95176 0.0
H1440 H 0.19879 0.53592 0.86389 0.0
H1441 H 0.22781 0.53332 0.93363 0.0
H1442 H 0.16461 0.54224 0.88064 0.0
H1443 H 0.19239 0.48833 0.77605 0.0
H1444 H 0.20786 0.45669 0.76489 0.0
H1445 H 0.15857 0.42926 0.85391 0.0
H1446 H 0.14287 0.46078 0.86628 0.0
H1447 H 0.08593 0.50982 0.6182 0.0
H1448 H 0.11838 0.50765 0.66732 0.0
H1449 H 0.09674 0.52894 0.85553 0.0
H1450 H 0.06451 0.53115 0.80703 0.0
H1451 H 0.13174 0.48613 0.77619 0.0
H1452 H 0.13237 0.55786 0.92568 0.0
H1453 H 0.12026 0.59101 0.91459 0.0
H1454 H 0.11781 0.58472 0.70035 0.0
H1455 H 0.1301 0.55162 0.70989 0.0
C1456 C 0.20474 0.49241 0.98323 0.0
C1457 C 0.21943 0.50653 0.98102 0.0
C1458 C 0.18789 0.49413 0.9448 0.0
C1459 C 0.18524 0.50969 0.90052 0.0
C1460 C 0.20023 0.52355 0.8965 0.0
C1461 C 0.21708 0.52196 0.93595 0.0
C1462 C 0.16658 0.51178 0.86142 0.0
C1463 C 0.1576 0.52988 0.85778 0.0
C1464 C 0.15714 0.49593 0.82967 0.0
C1465 C 0.16653 0.47694 0.82267 0.0
C1466 C 0.1849 0.47557 0.79366 0.0
C1467 C 0.1937 0.45765 0.78705 0.0
C1468 C 0.18423 0.44098 0.80884 0.0
C1469 C 0.1659 0.44219 0.83714 0.0
C1470 C 0.15703 0.46008 0.84389 0.0
C1471 C 0.08807 0.51406 0.67001 0.0
C1472 C 0.0724 0.5204 0.70872 0.0
C1473 C 0.10667 0.51273 0.69824 0.0
C1474 C 0.11017 0.51805 0.76553 0.0
C1475 C 0.09459 0.52474 0.80365 0.0
C1476 C 0.07603 0.52585 0.7758 0.0
C1477 C 0.12991 0.51642 0.79653 0.0
C1478 C 0.13887 0.49837 0.79941 0.0
C1479 C 0.13972 0.53244 0.82489 0.0
C1480 C 0.13198 0.5522 0.81868 0.0
C1481 C 0.12925 0.56355 0.8762 0.0
C1482 C 0.12236 0.58233 0.87014 0.0
C1483 C 0.11827 0.58994 0.80676 0.0
C1484 C 0.12093 0.57876 0.74932 0.0
C1485 C 0.12781 0.55998 0.75505 0.0
H1486 H 0.11309 0.60454 0.80217 0.0
H1487 H 0.19107 0.42712 0.80369 0.0
H1488 H 0.02158 0.84179 0.20359 0.0
H1489 H 0.02531 0.87006 0.2746 0.0
H1490 H 0.99993 0.83906 0.44038 0.0
H1491 H 0.99551 0.81066 0.3676 0.0
H1492 H 0.98471 0.87295 0.43711 0.0
H1493 H 0.04961 0.85317 0.43496 0.0
H1494 H 0.08044 0.84224 0.38804 0.0
H1495 H 0.08551 0.89461 0.27454 0.0
H1496 H 0.05456 0.90575 0.32004 0.0
H1497 H 1.00014 0.95706 0.64057 0.0
H1498 H 0.99967 0.92452 0.59383 0.0
H1499 H 0.02924 0.94536 0.41759 0.0
H1500 H 0.03122 0.97741 0.46758 0.0
H1501 H 0.0435 0.91375 0.44153 0.0
H1502 H 0.97417 0.93048 0.43992 0.0
H1503 H 0.94423 0.93994 0.49771 0.0
H1504 H 0.94942 0.89178 0.63137 0.0
H1505 H 0.97929 0.882 0.57462 0.0
C1506 C 0.01707 0.84081 0.25554 0.0
C1507 C 1.00825 0.82382 0.27965 0.0
C1508 C 0.01931 0.85707 0.29654 0.0
C1509 C 0.01311 0.85695 0.36374 0.0
C1510 C 1.0049 0.83973 0.38892 0.0
C1511 C 1.00258 0.82335 0.3475 0.0
C1512 C 0.01424 0.87513 0.40541 0.0
C1513 C 0.99769 0.88172 0.43855 0.0
C1514 C 0.03105 0.88686 0.40816 0.0
C1515 C 0.04967 0.88023 0.38055 0.0
C1516 C 0.05722 0.8623 0.3996 0.0
C1517 C 0.07474 0.85608 0.37332 0.0
C1518 C 0.08491 0.86771 0.32823 0.0
C1519 C 0.0776 0.88561 0.30943 0.0
C1520 C 0.06009 0.89189 0.33552 0.0
C1521 C 1.00678 0.95458 0.59232 0.0
C1522 C 0.01584 0.96986 0.55834 0.0
C1523 C 1.00615 0.93595 0.5646 0.0
C1524 C 0.01407 0.9321 0.5009 0.0
C1525 C 0.02299 0.94756 0.46672 0.0
C1526 C 0.02397 0.96607 0.49513 0.0
C1527 C 0.01367 0.91212 0.4702 0.0
C1528 C 0.03047 0.90508 0.43961 0.0
C1529 C 0.99716 0.89986 0.47067 0.0
C1530 C 0.97894 0.90555 0.50316 0.0
C1531 C 0.96888 0.92191 0.48155 0.0
C1532 C 0.95196 0.92734 0.51414 0.0
C1533 C 0.94498 0.91651 0.56812 0.0
C1534 C 0.95483 0.90014 0.5895 0.0
C1535 C 0.9717 0.89461 0.55703 0.0
H1536 H 0.93192 0.92079 0.59333 0.0
H1537 H 0.09846 0.86286 0.30795 0.0
H1538 H 0.72907 0.98229 0.35979 0.0
H1539 H 0.69805 0.98485 0.41782 0.0
H1540 H 0.69251 0.04321 0.34706 0.0
H1541 H 0.72331 0.04044 0.2881 0.0
H1542 H 0.68056 1.00482 0.5114 0.0
H1543 H 0.64562 0.0525 0.30544 0.0
H1544 H 0.64975 0.05952 0.18476 0.0
H1545 H 0.67577 1.00431 0.15575 0.0
H1546 H 0.67145 0.9968 0.27589 0.0
H1547 H 0.5883 0.03335 0.63097 0.0
H1548 H 0.62096 0.03291 0.58552 0.0
H1549 H 0.60064 1.00103 0.41339 0.0
H1550 H 0.5679 1.00213 0.45705 0.0
H1551 H 0.62555 0.02507 0.36949 0.0
H1552 H 0.62696 0.98007 0.55239 0.0
H1553 H 0.62213 0.96972 0.66981 0.0
H1554 H 0.6623 1.01299 0.73637 0.0
H1555 H 0.66711 0.02369 0.62018 0.0
C1556 C 0.72159 0.99592 0.35896 0.0
C1557 C 0.72897 1.01133 0.32073 0.0
C1558 C 0.70368 0.99733 0.39161 0.0
C1559 C 0.6925 1.01411 0.3862 0.0
C1560 C 0.70049 0.02994 0.35145 0.0
C1561 C 0.71835 0.0285 0.31865 0.0
C1562 C 0.67217 0.01463 0.41314 0.0
C1563 C 0.6686 1.00935 0.48024 0.0
C1564 C 0.65619 0.02002 0.37268 0.0
C1565 C 0.6584 0.0242 0.29992 0.0
C1566 C 0.65212 0.04182 0.27325 0.0
C1567 C 0.6545 0.04588 0.20492 0.0
C1568 C 0.66307 0.03239 0.16266 0.0
C1569 C 0.66918 0.01476 0.18856 0.0
C1570 C 0.66677 1.0106 0.25677 0.0
C1571 C 0.5907 0.02624 0.5834 0.0
C1572 C 0.57519 0.01774 0.54818 0.0
C1573 C 0.60956 0.02588 0.5574 0.0
C1574 C 0.61367 0.01669 0.4959 0.0
C1575 C 0.59816 1.00827 0.46069 0.0
C1576 C 0.5793 1.00881 0.48622 0.0
C1577 C 0.63398 0.01568 0.46839 0.0
C1578 C 0.63752 0.02072 0.4009 0.0
C1579 C 0.64986 1.00957 0.50785 0.0
C1580 C 0.64729 1.00277 0.57773 0.0
C1581 C 0.6347 0.98739 0.5923 0.0
C1582 C 0.63194 0.98146 0.65873 0.0
C1583 C 0.64182 0.99071 0.71084 0.0
C1584 C 0.65457 1.00581 0.69648 0.0
C1585 C 0.65735 1.01181 0.63029 0.0
H1586 H 0.6396 0.98614 0.76222 0.0
H1587 H 0.66494 0.03559 0.10983 0.0
H1588 H 0.5621 0.71967 0.29907 0.0
H1589 H 0.5576 0.68956 0.36087 0.0
H1590 H 0.49612 0.69629 0.34894 0.0
H1591 H 0.50066 0.72661 0.28587 0.0
H1592 H 0.50839 0.68032 0.47453 0.0
H1593 H 0.51558 0.6666 0.24123 0.0
H1594 H 0.53032 0.6683 0.12883 0.0
H1595 H 0.58298 0.64564 0.2082 0.0
H1596 H 0.56851 0.64368 0.32115 0.0
H1597 H 0.49004 0.58139 0.55699 0.0
H1598 H 0.49062 0.61303 0.50292 0.0
H1599 H 0.55164 0.60771 0.46988 0.0
H1600 H 0.55091 0.57569 0.52108 0.0
H1601 H 0.53741 0.62344 0.36482 0.0
H1602 H 0.52813 0.63659 0.60167 0.0
H1603 H 0.51067 0.63244 0.70832 0.0
H1604 H 0.45979 0.65616 0.61888 0.0
H1605 H 0.47678 0.65994 0.51105 0.0
C1606 C 0.54759 0.71509 0.31141 0.0
C1607 C 0.53176 0.72579 0.28817 0.0
C1608 C 0.54502 0.69768 0.3462 0.0
C1609 C 0.52651 0.6903 0.35903 0.0
C1610 C 0.51058 0.70155 0.33982 0.0
C1611 C 0.51317 0.71904 0.30435 0.0
C1612 C 0.5241 0.6704 0.38853 0.0
C1613 C 0.51455 0.66786 0.45012 0.0
C1614 C 0.5322 0.65397 0.35748 0.0
C1615 C 0.54102 0.65518 0.28979 0.0
C1616 C 0.53035 0.66212 0.23484 0.0
C1617 C 0.53865 0.66311 0.17101 0.0
C1618 C 0.55762 0.65725 0.16147 0.0
C1619 C 0.5683 0.65023 0.2157 0.0
C1620 C 0.56003 0.64911 0.27959 0.0
C1621 C 0.50362 0.58696 0.53844 0.0
C1622 C 0.52044 0.57587 0.54402 0.0
C1623 C 0.50398 0.60523 0.50763 0.0
C1624 C 0.52128 0.61332 0.4831 0.0
C1625 C 0.53805 0.60212 0.48823 0.0
C1626 C 0.53763 0.58371 0.51796 0.0
C1627 C 0.52201 0.63325 0.45194 0.0
C1628 C 0.53128 0.63584 0.38969 0.0
C1629 C 0.51349 0.64967 0.48225 0.0
C1630 C 0.50367 0.64839 0.54812 0.0
C1631 C 0.51321 0.64091 0.60474 0.0
C1632 C 0.50338 0.63859 0.66539 0.0
C1633 C 0.48411 0.64402 0.67034 0.0
C1634 C 0.4747 0.65193 0.61489 0.0
C1635 C 0.48441 0.65414 0.55398 0.0
H1636 H 0.47641 0.64207 0.717 0.0
H1637 H 0.56401 0.65806 0.112 0.0
H1638 H 0.82058 0.5691 0.33337 0.0
H1639 H 0.85136 0.56203 0.3869 0.0
H1640 H 0.8427 0.5016 0.34885 0.0
H1641 H 0.81187 0.50869 0.29225 0.0
H1642 H 0.85923 0.51923 0.49608 0.0
H1643 H 0.87091 0.51199 0.25565 0.0
H1644 H 0.86856 0.52218 0.13722 0.0
H1645 H 0.89548 0.57622 0.18615 0.0
H1646 H 0.89799 0.56632 0.305 0.0
H1647 H 0.95797 0.49561 0.57019 0.0
H1648 H 0.9256 0.49591 0.52072 0.0
H1649 H 0.9337 0.55518 0.46294 0.0
H1650 H 0.96562 0.55514 0.51393 0.0
H1651 H 0.91704 0.53503 0.36047 0.0
H1652 H 0.90553 0.545 0.59221 0.0
H1653 H 0.9077 0.53879 0.71342 0.0
H1654 H 0.87967 0.484 0.68672 0.0
H1655 H 0.87753 0.48986 0.56452 0.0
C1656 C 0.82501 0.55422 0.33696 0.0
C1657 C 0.81363 0.5395 0.30783 0.0
C1658 C 0.84271 0.55022 0.36769 0.0
C1659 C 0.84955 0.53132 0.37156 0.0
C1660 C 0.83777 0.51633 0.34649 0.0
C1661 C 0.82003 0.52038 0.31466 0.0
C1662 C 0.86944 0.52779 0.39857 0.0
C1663 C 0.87188 0.52214 0.46587 0.0
C1664 C 0.88603 0.53244 0.36048 0.0
C1665 C 0.88447 0.53849 0.28926 0.0
C1666 C 0.87617 0.52611 0.24125 0.0
C1667 C 0.87488 0.53181 0.17402 0.0
C1668 C 0.8818 0.54987 0.1542 0.0
C1669 C 0.89011 0.56224 0.20157 0.0
C1670 C 0.89153 0.55657 0.26883 0.0
C1671 C 0.95293 0.50874 0.54696 0.0
C1672 C 0.96481 0.5253 0.54559 0.0
C1673 C 0.9343 0.5089 0.51861 0.0
C1674 C 0.927 0.52557 0.48753 0.0
C1675 C 0.93888 0.54204 0.48575 0.0
C1676 C 0.95734 0.54196 0.5149 0.0
C1677 C 0.90698 0.52605 0.45792 0.0
C1678 C 0.90447 0.53152 0.39037 0.0
C1679 C 0.89032 0.52149 0.4961 0.0
C1680 C 0.89161 0.51775 0.5692 0.0
C1681 C 0.9 0.53153 0.61207 0.0
C1682 C 0.90118 0.52809 0.68104 0.0
C1683 C 0.8939 0.51096 0.70797 0.0
C1684 C 0.88535 0.49725 0.66581 0.0
C1685 C 0.88414 0.50063 0.59664 0.0
H1686 H 0.89481 0.50834 0.76148 0.0
H1687 H 0.88075 0.55426 0.10213 0.0
loop_
_geom_bond_atom_site_label_1
_geom_bond_atom_site_label_2
_geom_bond_distance
_geom_bond_site_symmetry_2
_ccdc_geom_bond_type
H0 C1 0.949 . S
C1 H0 0.949 . S
C1 C2 1.395 . S
C1 C3 1.391 . S
C2 C1 1.395 . S
C2 C5 1.390 . S
C3 C1 1.391 . S
C3 C7 1.387 . S
C3 C8 1.491 . S
H4 C5 0.950 . S
C5 C2 1.390 . S
C5 H4 0.950 . S
C5 C6 1.378 . S
C6 C5 1.378 . S
C6 C7 1.409 . S
C7 C3 1.387 . S
C7 C6 1.409 . S
C7 H9 0.951 . S
C8 C3 1.491 . S
C8 C10 1.382 . S
C8 C12 1.404 . S
H9 C7 0.951 . S
C10 C8 1.382 . S
C10 C11 1.390 . S
C10 H15 0.949 . S
C11 C10 1.390 . S
C11 C16 1.399 . S
C12 C8 1.404 . S
C12 H13 0.950 . S
C12 C14 1.375 . S
H13 C12 0.950 . S
C14 C12 1.375 . S
C14 C16 1.382 . S
C14 H18 0.950 . S
H15 C10 0.949 . S
C16 C11 1.399 . S
C16 C14 1.382 . S
C16 H17 0.952 . S
H17 C16 0.952 . S
H18 C14 0.950 . S
H19 C20 0.949 . S
C20 H19 0.949 . S
C20 C21 1.395 . S
C20 C22 1.391 . S
C21 C20 1.395 . S
C21 C24 1.390 . S
C22 C20 1.391 . S
C22 C26 1.387 . S
C22 C27 1.491 . S
H23 C24 0.950 . S
C24 C21 1.390 . S
C24 H23 0.950 . S
C24 C25 1.378 . S
C25 C24 1.378 . S
C25 C26 1.409 . S
C26 C22 1.387 . S
C26 C25 1.409 . S
C26 H28 0.951 . S
C27 C22 1.491 . S
C27 C29 1.382 . S
C27 C31 1.404 . S
H28 C26 0.951 . S
C29 C27 1.382 . S
C29 C30 1.390 . S
C29 H34 0.949 . S
C30 C29 1.390 . S
C30 C35 1.399 . S
C31 C27 1.404 . S
C31 H32 0.950 . S
C31 C33 1.375 . S
H32 C31 0.950 . S
C33 C31 1.375 . S
C33 C35 1.382 . S
C33 H37 0.950 . S
H34 C29 0.949 . S
C35 C30 1.399 . S
C35 C33 1.382 . S
C35 H36 0.952 . S
H36 C35 0.952 . S
H37 C33 0.950 . S
H38 C39 0.949 . S
C39 H38 0.949 . S
C39 C40 1.395 . S
C39 C41 1.391 . S
C40 C39 1.395 . S
C40 C43 1.390 . S
C41 C39 1.391 . S
C41 C45 1.387 . S
C41 C46 1.491 . S
H42 C43 0.950 . S
C43 C40 1.390 . S
C43 H42 0.950 . S
C43 C44 1.378 . S
C44 C43 1.378 . S
C44 C45 1.409 . S
C45 C41 1.387 . S
C45 C44 1.409 . S
C45 H47 0.951 . S
C46 C41 1.491 . S
C46 C48 1.382 . S
C46 C50 1.404 . S
H47 C45 0.951 . S
C48 C46 1.382 . S
C48 C49 1.390 . S
C48 H53 0.949 . S
C49 C48 1.390 . S
C49 C54 1.399 . S
C50 C46 1.404 . S
C50 H51 0.950 . S
C50 C52 1.375 . S
H51 C50 0.950 . S
C52 C50 1.375 . S
C52 C54 1.382 . S
C52 H56 0.950 . S
H53 C48 0.949 . S
C54 C49 1.399 . S
C54 C52 1.382 . S
C54 H55 0.952 . S
H55 C54 0.952 . S
H56 C52 0.950 . S
H57 C58 0.949 . S
C58 H57 0.949 . S
C58 C59 1.395 . S
C58 C60 1.391 . S
C59 C58 1.395 . S
C59 C62 1.390 . S
C60 C58 1.391 . S
C60 C64 1.387 . S
C60 C65 1.491 . S
H61 C62 0.950 . S
C62 C59 1.390 . S
C62 H61 0.950 . S
C62 C63 1.378 . S
C63 C62 1.378 . S
C63 C64 1.409 . S
C64 C60 1.387 . S
C64 C63 1.409 . S
C64 H66 0.951 . S
C65 C60 1.491 . S
C65 C67 1.382 . S
C65 C69 1.404 . S
H66 C64 0.951 . S
C67 C65 1.382 . S
C67 C68 1.390 . S
C67 H72 0.949 . S
C68 C67 1.390 . S
C68 C73 1.399 . S
C69 C65 1.404 . S
C69 H70 0.950 . S
C69 C71 1.375 . S
H70 C69 0.950 . S
C71 C69 1.375 . S
C71 C73 1.382 . S
C71 H75 0.950 . S
H72 C67 0.949 . S
C73 C68 1.399 . S
C73 C71 1.382 . S
C73 H74 0.952 . S
H74 C73 0.952 . S
H75 C71 0.950 . S
H76 C77 0.949 . S
C77 H76 0.949 . S
C77 C78 1.395 . S
C77 C79 1.391 . S
C78 C77 1.395 . S
C78 C81 1.394 . S
C79 C77 1.391 . S
C79 C83 1.387 1_554 S
C79 C84 1.491 . S
H80 C81 0.950 1_556 S
C81 C78 1.394 . S
C81 H80 0.950 1_554 S
C81 C82 1.375 1_554 S
C82 C81 1.375 1_556 S
C82 C83 1.409 . S
C83 C79 1.387 1_556 S
C83 C82 1.409 . S
C83 H85 0.951 . S
C84 C79 1.491 . S
C84 C86 1.382 . S
C84 C88 1.404 1_554 S
H85 C83 0.951 . S
C86 C84 1.382 . S
C86 C87 1.390 . S
C86 H91 0.949 . S
C87 C86 1.390 . S
C87 C92 1.399 . S
C88 C84 1.404 1_556 S
C88 H89 0.950 . S
C88 C90 1.375 . S
H89 C88 0.950 . S
C90 C88 1.375 . S
C90 C92 1.382 1_556 S
C90 H94 0.950 . S
H91 C86 0.949 . S
C92 C87 1.399 . S
C92 C90 1.382 1_554 S
C92 H93 0.952 . S
H93 C92 0.952 . S
H94 C90 0.950 . S
H95 C96 0.949 . S
C96 H95 0.949 . S
C96 C97 1.395 . S
C96 C98 1.391 . S
C97 C96 1.395 . S
C97 C100 1.390 . S
C98 C96 1.391 . S
C98 C102 1.387 1_554 S
C98 C103 1.491 . S
H99 C100 0.950 . S
C100 C97 1.390 . S
C100 H99 0.950 . S
C100 C101 1.378 1_554 S
C101 C100 1.378 1_556 S
C101 C102 1.409 . S
C102 C98 1.387 1_556 S
C102 C101 1.409 . S
C102 H104 0.951 . S
C103 C98 1.491 . S
C103 C105 1.382 . S
C103 C107 1.404 1_554 S
H104 C102 0.951 . S
C105 C103 1.382 . S
C105 C106 1.390 . S
C105 H110 0.949 . S
C106 C105 1.390 . S
C106 C111 1.399 . S
C107 C103 1.404 1_556 S
C107 H108 0.950 . S
C107 C109 1.375 . S
H108 C107 0.950 . S
C109 C107 1.375 . S
C109 C111 1.382 1_556 S
C109 H113 0.950 . S
H110 C105 0.949 . S
C111 C106 1.399 . S
C111 C109 1.382 1_554 S
C111 H112 0.952 . S
H112 C111 0.952 . S
H113 C109 0.950 . S
H114 C115 0.949 . S
C115 H114 0.949 . S
C115 C116 1.395 . S
C115 C117 1.391 . S
C116 C115 1.395 . S
C116 C119 1.390 . S
C117 C115 1.391 . S
C117 C121 1.387 1_554 S
C117 C122 1.491 . S
H118 C119 0.950 . S
C119 C116 1.390 . S
C119 H118 0.950 . S
C119 C120 1.378 1_554 S
C120 C119 1.378 1_556 S
C120 C121 1.409 . S
C121 C117 1.387 1_556 S
C121 C120 1.409 . S
C121 H123 0.951 . S
C122 C117 1.491 . S
C122 C124 1.382 . S
C122 C126 1.404 1_554 S
H123 C121 0.951 . S
C124 C122 1.382 . S
C124 C125 1.390 . S
C124 H129 0.949 . S
C125 C124 1.390 . S
C125 C130 1.399 . S
C126 C122 1.404 1_556 S
C126 H127 0.950 . S
C126 C128 1.375 . S
H127 C126 0.950 . S
C128 C126 1.375 . S
C128 C130 1.382 1_556 S
C128 H132 0.950 . S
H129 C124 0.949 . S
C130 C125 1.399 . S
C130 C128 1.382 1_554 S
C130 H131 0.952 . S
H131 C130 0.952 . S
H132 C128 0.950 . S
H133 C134 0.949 . S
C134 H133 0.949 . S
C134 C135 1.395 . S
C134 C136 1.391 . S
C135 C134 1.395 . S
C135 C138 1.390 1_554 S
C136 C134 1.391 . S
C136 C140 1.387 1_554 S
C136 C141 1.491 . S
H137 C138 0.950 . S
C138 C135 1.390 1_556 S
C138 H137 0.950 . S
C138 C139 1.378 . S
C139 C138 1.378 . S
C139 C140 1.409 . S
C140 C136 1.387 1_556 S
C140 C139 1.409 . S
C140 H142 0.951 . S
C141 C136 1.491 . S
C141 C143 1.382 . S
C141 C145 1.404 1_554 S
H142 C140 0.951 . S
C143 C141 1.382 . S
C143 C144 1.390 . S
C143 H148 0.949 . S
C144 C143 1.390 . S
C144 C149 1.399 . S
C145 C141 1.404 1_556 S
C145 H146 0.950 . S
C145 C147 1.375 . S
H146 C145 0.950 . S
C147 C145 1.375 . S
C147 C149 1.382 1_556 S
C147 H151 0.950 . S
H148 C143 0.949 . S
C149 C144 1.399 . S
C149 C147 1.382 1_554 S
C149 H150 0.952 . S
H150 C149 0.952 . S
H151 C147 0.950 . S
C152 C154 1.422 . S
C152 C156 1.415 . S
C152 N158 1.369 . S
C153 C154 1.421 . S
C153 C155 1.417 . S
C153 C165 1.422 . S
C154 C152 1.422 . S
C154 C153 1.421 . S
C154 N164 1.359 . S
C155 C153 1.417 . S
C155 C157 1.329 . S
C155 H174 0.930 . S
C156 C152 1.415 . S
C156 C157 1.437 . S
C156 C160 1.413 . S
C157 C155 1.329 . S
C157 C156 1.437 . S
C157 H179 0.929 . S
N158 C152 1.369 . S
N158 C159 1.338 . S
N158 Gd163 2.622 1_545 S
C159 N158 1.338 . S
C159 C161 1.378 . S
C159 H171 0.929 1_545 S
C160 C156 1.413 . S
C160 C161 1.348 . S
C160 H176 0.931 . S
C161 C159 1.378 . S
C161 C160 1.348 . S
C161 H177 0.930 . S
Gd162 N182 2.622 . S
Gd162 N189 2.570 . S
Gd162 O196 2.353 1_655 S
Gd162 O197 2.468 1_655 S
Gd162 O198 2.427 . S
Gd162 O200 2.388 . S
Gd162 O201 2.386 1_545 S
Gd162 O205 2.307 1_655 S
Gd162 C215 2.805 . S
Gd163 N158 2.622 1_565 S
Gd163 N164 2.570 1_565 S
Gd163 O195 2.386 1_565 S
Gd163 O199 2.307 1_465 S
Gd163 O202 2.353 . S
Gd163 O203 2.468 . S
Gd163 O204 2.427 . S
Gd163 O206 2.388 1_565 S
Gd163 C227 2.805 . S
N164 C154 1.359 . S
N164 Gd163 2.570 1_545 S
N164 C166 1.343 . S
C165 C153 1.422 . S
C165 C167 1.321 . S
C165 H173 0.931 . S
C166 N164 1.343 . S
C166 C167 1.390 . S
C166 H168 0.931 1_455 S
C167 C165 1.321 . S
C167 C166 1.390 . S
C167 H169 0.930 1_455 S
H168 C166 0.931 1_655 S
H169 C167 0.930 1_655 S
H170 C193 0.931 . S
H171 C159 0.929 1_565 S
H172 C194 0.936 . S
H173 C165 0.931 . S
H174 C155 0.930 . S
H175 C184 0.929 . S
H176 C160 0.931 . S
H177 C161 0.930 . S
H178 C216 0.930 . S
H179 C157 0.929 . S
H180 C185 0.931 1_565 S
H181 C186 0.930 . S
N182 Gd162 2.622 . S
N182 C183 1.369 . S
N182 C184 1.338 . S
C183 N182 1.369 . S
C183 C187 1.431 . S
C183 C190 1.422 . S
C184 H175 0.929 . S
C184 N182 1.338 . S
C184 C186 1.378 . S
C185 H180 0.931 1_545 S
C185 C186 1.348 . S
C185 C187 1.417 . S
C186 H181 0.930 . S
C186 C184 1.378 . S
C186 C185 1.348 . S
C187 C183 1.431 . S
C187 C185 1.417 . S
C187 C217 1.419 1_545 S
H188 C217 0.929 . S
N189 Gd162 2.570 . S
N189 C190 1.359 . S
N189 C193 1.343 1_655 S
C190 C183 1.422 . S
C190 N189 1.359 . S
C190 C192 1.421 1_545 S
C191 C192 1.422 . S
C191 C194 1.321 1_665 S
C191 H218 0.931 . S
C192 C190 1.421 1_565 S
C192 C191 1.422 . S
C192 C216 1.417 . S
C193 H170 0.931 . S
C193 N189 1.343 1_455 S
C193 C194 1.390 . S
C194 H172 0.936 . S
C194 C191 1.321 1_445 S
C194 C193 1.390 . S
O195 Gd163 2.386 1_545 S
O195 C207 1.265 . S
O196 Gd162 2.353 1_455 S
O196 C207 1.242 . S
O197 Gd162 2.468 1_455 S
O197 C215 1.263 1_455 S
O198 Gd162 2.427 . S
O198 C215 1.252 . S
O199 Gd163 2.307 1_645 S
O199 C208 1.261 . S
O200 Gd162 2.388 . S
O200 C208 1.252 . S
O201 Gd162 2.386 1_565 S
O201 C219 1.265 . S
O202 Gd163 2.353 . S
O202 C219 1.242 1_455 S
O203 Gd163 2.468 . S
O203 C227 1.263 . S
O204 Gd163 2.427 . S
O204 C227 1.252 . S
O205 Gd162 2.307 1_455 S
O205 C220 1.261 . S
O206 Gd163 2.388 1_545 S
O206 C220 1.252 . S
C207 O195 1.265 . S
C207 O196 1.242 . S
C208 O199 1.261 . S
C208 O200 1.252 . S
C209 C212 1.394 . S
C209 C214 1.370 1_655 S
C209 C215 1.500 . S
C210 C213 1.383 1_455 S
C210 C214 1.395 . S
C211 C212 1.396 . S
C211 C213 1.365 . S
C211 H228 0.929 . S
C212 C209 1.394 . S
C212 C211 1.396 . S
C212 H229 0.930 . S
C213 C210 1.383 1_655 S
C213 C211 1.365 . S
C213 H230 0.931 . S
C214 C209 1.370 1_455 S
C214 C210 1.395 . S
C214 H231 0.930 . S
C215 Gd162 2.805 . S
C215 O197 1.263 1_655 S
C215 O198 1.252 . S
C215 C209 1.500 . S
C216 H178 0.930 . S
C216 C192 1.417 . S
C216 C217 1.329 . S
C217 C187 1.419 1_565 S
C217 H188 0.929 . S
C217 C216 1.329 . S
H218 C191 0.931 . S
C219 O201 1.265 . S
C219 O202 1.242 1_655 S
C220 O205 1.261 . S
C220 O206 1.252 . S
C221 C224 1.394 . S
C221 C226 1.370 . S
C221 C227 1.500 . S
C222 C225 1.383 . S
C222 C226 1.395 . S
C223 C224 1.396 . S
C223 C225 1.365 . S
C223 H232 0.929 . S
C224 C221 1.394 . S
C224 C223 1.396 . S
C224 H233 0.930 . S
C225 C222 1.383 . S
C225 C223 1.365 . S
C225 H234 0.931 . S
C226 C221 1.370 . S
C226 C222 1.395 . S
C226 H235 0.930 1_455 S
C227 Gd163 2.805 . S
C227 O203 1.263 . S
C227 O204 1.252 . S
C227 C221 1.500 . S
H228 C211 0.929 . S
H229 C212 0.930 . S
H230 C213 0.931 . S
H231 C214 0.930 . S
H232 C223 0.929 . S
H233 C224 0.930 . S
H234 C225 0.931 . S
H235 C226 0.930 1_655 S
C236 C238 1.422 . S
C236 C240 1.415 . S
C236 N242 1.369 . S
C237 C238 1.421 . S
C237 C239 1.417 . S
C237 C249 1.422 . S
C238 C236 1.422 . S
C238 C237 1.421 . S
C238 N248 1.359 . S
C239 C237 1.417 . S
C239 C241 1.329 . S
C239 H258 0.930 . S
C240 C236 1.415 . S
C240 C241 1.437 . S
C240 C244 1.413 . S
C241 C239 1.329 . S
C241 C240 1.437 . S
C241 H263 0.929 . S
N242 C236 1.369 . S
N242 C243 1.338 . S
N242 Gd247 2.622 . S
C243 N242 1.338 . S
C243 C245 1.378 . S
C243 H255 0.929 . S
C244 C240 1.413 . S
C244 C245 1.348 . S
C244 H260 0.931 . S
C245 C243 1.378 . S
C245 C244 1.348 . S
C245 H261 0.930 . S
Gd246 N266 2.622 . S
Gd246 N273 2.570 . S
Gd246 O280 2.353 1_545 S
Gd246 O281 2.468 . S
Gd246 O282 2.427 . S
Gd246 O284 2.388 . S
Gd246 O285 2.386 . S
Gd246 O289 2.307 . S
Gd246 C299 2.805 . S
Gd247 N242 2.622 . S
Gd247 N248 2.570 . S
Gd247 O279 2.386 . S
Gd247 O283 2.307 1_565 S
Gd247 O286 2.353 1_565 S
Gd247 O287 2.468 1_565 S
Gd247 O288 2.427 . S
Gd247 O290 2.395 . S
Gd247 C311 2.805 1_565 S
N248 C238 1.359 . S
N248 Gd247 2.570 . S
N248 C250 1.343 . S
C249 C237 1.422 . S
C249 C251 1.321 . S
C249 H257 0.931 . S
C250 N248 1.343 . S
C250 C251 1.390 . S
C250 H252 0.931 . S
C251 C249 1.321 . S
C251 C250 1.390 . S
C251 H253 0.930 . S
H252 C250 0.931 . S
H253 C251 0.930 . S
H254 C277 0.931 . S
H255 C243 0.929 . S
H256 C278 0.930 . S
H257 C249 0.931 . S
H258 C239 0.930 . S
H259 C268 0.929 . S
H260 C244 0.931 . S
H261 C245 0.930 . S
H262 C300 0.930 . S
H263 C241 0.929 . S
H264 C269 0.931 . S
H265 C270 0.930 . S
N266 Gd246 2.622 . S
N266 C267 1.369 . S
N266 C268 1.338 . S
C267 N266 1.369 . S
C267 C271 1.415 . S
C267 C274 1.422 . S
C268 H259 0.929 . S
C268 N266 1.338 . S
C268 C270 1.378 . S
C269 H264 0.931 . S
C269 C270 1.348 . S
C269 C271 1.413 . S
C270 H265 0.930 . S
C270 C268 1.378 . S
C270 C269 1.348 . S
C271 C267 1.415 . S
C271 C269 1.413 . S
C271 C301 1.437 . S
H272 C301 0.929 . S
N273 Gd246 2.570 . S
N273 C274 1.359 . S
N273 C277 1.343 . S
C274 C267 1.422 . S
C274 N273 1.359 . S
C274 C276 1.421 . S
C275 C276 1.422 . S
C275 C278 1.321 . S
C275 H302 0.931 . S
C276 C274 1.421 . S
C276 C275 1.422 . S
C276 C300 1.417 . S
C277 H254 0.931 . S
C277 N273 1.343 . S
C277 C278 1.390 . S
C278 H256 0.930 . S
C278 C275 1.321 . S
C278 C277 1.390 . S
O279 Gd247 2.386 . S
O279 C291 1.265 . S
O280 Gd246 2.353 1_565 S
O280 C291 1.242 . S
O281 Gd246 2.468 . S
O281 C299 1.263 . S
O282 Gd246 2.427 . S
O282 C299 1.252 . S
O283 Gd247 2.307 1_545 S
O283 C292 1.261 . S
O284 Gd246 2.388 . S
O284 C292 1.252 . S
O285 Gd246 2.386 . S
O285 C303 1.265 . S
O286 Gd247 2.353 1_545 S
O286 C303 1.242 . S
O287 Gd247 2.468 1_545 S
O287 C311 1.263 . S
O288 Gd247 2.427 . S
O288 C311 1.252 1_565 S
O289 Gd246 2.307 . S
O289 C304 1.261 . S
O290 Gd247 2.395 . S
O290 C304 1.235 1_565 S
C291 O279 1.265 . S
C291 O280 1.242 . S
C292 O283 1.261 . S
C292 O284 1.252 . S
C293 C296 1.394 . S
C293 C298 1.370 . S
C293 C299 1.500 . S
C294 C297 1.383 . S
C294 C298 1.395 . S
C295 C296 1.396 . S
C295 C297 1.365 . S
C295 H312 0.929 1_556 S
C296 C293 1.394 . S
C296 C295 1.396 . S
C296 H313 0.930 . S
C297 C294 1.383 . S
C297 C295 1.365 . S
C297 H314 0.931 . S
C298 C293 1.370 . S
C298 C294 1.395 . S
C298 H315 0.930 . S
C299 Gd246 2.805 . S
C299 O281 1.263 . S
C299 O282 1.252 . S
C299 C293 1.500 . S
C300 H262 0.930 . S
C300 C276 1.417 . S
C300 C301 1.329 . S
C301 C271 1.437 . S
C301 H272 0.929 . S
C301 C300 1.329 . S
H302 C275 0.931 . S
C303 O285 1.265 . S
C303 O286 1.242 . S
C304 O289 1.261 . S
C304 O290 1.235 1_545 S
C305 C308 1.402 . S
C305 C310 1.370 . S
C305 C311 1.500 . S
C306 C309 1.383 . S
C306 C310 1.395 . S
C307 C308 1.401 . S
C307 C309 1.365 . S
C307 H316 0.936 . S
C308 C305 1.402 . S
C308 C307 1.401 . S
C308 H317 0.918 1_545 S
C309 C306 1.383 . S
C309 C307 1.365 . S
C309 H318 0.931 . S
C310 C305 1.370 . S
C310 C306 1.395 . S
C310 H319 0.930 . S
C311 Gd247 2.805 1_545 S
C311 O287 1.263 . S
C311 O288 1.252 1_545 S
C311 C305 1.500 . S
H312 C295 0.929 1_554 S
H313 C296 0.930 . S
H314 C297 0.931 . S
H315 C298 0.930 . S
H316 C307 0.936 . S
H317 C308 0.918 1_565 S
H318 C309 0.931 . S
H319 C310 0.930 . S
C320 C322 1.422 . S
C320 C324 1.415 . S
C320 N326 1.369 . S
C321 C322 1.421 . S
C321 C323 1.417 . S
C321 C333 1.422 . S
C322 C320 1.422 . S
C322 C321 1.421 . S
C322 N332 1.359 . S
C323 C321 1.417 . S
C323 C325 1.329 . S
C323 H342 0.930 . S
C324 C320 1.415 . S
C324 C325 1.437 . S
C324 C328 1.413 . S
C325 C323 1.329 . S
C325 C324 1.437 . S
C325 H347 0.929 . S
N326 C320 1.369 . S
N326 C327 1.338 . S
N326 Gd331 2.622 . S
C327 N326 1.338 . S
C327 C329 1.378 . S
C327 H339 0.929 . S
C328 C324 1.413 . S
C328 C329 1.348 . S
C328 H344 0.931 . S
C329 C327 1.378 . S
C329 C328 1.348 . S
C329 H345 0.930 . S
Gd330 N350 2.622 . S
Gd330 N357 2.570 . S
Gd330 O364 2.353 . S
Gd330 O365 2.468 . S
Gd330 O366 2.427 . S
Gd330 O368 2.388 . S
Gd330 O369 2.386 . S
Gd330 O373 2.307 . S
Gd330 C383 2.805 . S
Gd331 N326 2.622 . S
Gd331 N332 2.570 . S
Gd331 O363 2.386 . S
Gd331 O367 2.307 . S
Gd331 O370 2.353 . S
Gd331 O371 2.468 . S
Gd331 O372 2.427 . S
Gd331 O374 2.388 . S
Gd331 C395 2.805 . S
N332 C322 1.359 . S
N332 Gd331 2.570 . S
N332 C334 1.343 . S
C333 C321 1.422 . S
C333 C335 1.321 . S
C333 H341 0.931 . S
C334 N332 1.343 . S
C334 C335 1.390 . S
C334 H336 0.931 . S
C335 C333 1.321 . S
C335 C334 1.390 . S
C335 H337 0.930 . S
H336 C334 0.931 . S
H337 C335 0.930 . S
H338 C361 0.931 . S
H339 C327 0.929 . S
H340 C362 0.930 . S
H341 C333 0.931 . S
H342 C323 0.930 . S
H343 C352 0.929 . S
H344 C328 0.931 . S
H345 C329 0.930 . S
H346 C384 0.930 . S
H347 C325 0.929 . S
H348 C353 0.931 . S
H349 C354 0.930 . S
N350 Gd330 2.622 . S
N350 C351 1.369 . S
N350 C352 1.338 . S
C351 N350 1.369 . S
C351 C355 1.415 . S
C351 C358 1.422 . S
C352 H343 0.929 . S
C352 N350 1.338 . S
C352 C354 1.378 . S
C353 H348 0.931 . S
C353 C354 1.348 . S
C353 C355 1.413 . S
C354 H349 0.930 . S
C354 C352 1.378 . S
C354 C353 1.348 . S
C355 C351 1.415 . S
C355 C353 1.413 . S
C355 C385 1.437 . S
H356 C385 0.929 . S
N357 Gd330 2.570 . S
N357 C358 1.359 . S
N357 C361 1.343 . S
C358 C351 1.422 . S
C358 N357 1.359 . S
C358 C360 1.421 . S
C359 C360 1.422 . S
C359 C362 1.321 . S
C359 H386 0.931 . S
C360 C358 1.421 . S
C360 C359 1.422 . S
C360 C384 1.417 . S
C361 H338 0.931 . S
C361 N357 1.343 . S
C361 C362 1.390 . S
C362 H340 0.930 . S
C362 C359 1.321 . S
C362 C361 1.390 . S
O363 Gd331 2.386 . S
O363 C375 1.265 . S
O364 Gd330 2.353 . S
O364 C375 1.242 . S
O365 Gd330 2.468 . S
O365 C383 1.263 . S
O366 Gd330 2.427 . S
O366 C383 1.252 . S
O367 Gd331 2.307 . S
O367 C376 1.261 . S
O368 Gd330 2.388 . S
O368 C376 1.252 . S
O369 Gd330 2.386 . S
O369 C387 1.265 . S
O370 Gd331 2.353 . S
O370 C387 1.242 . S
O371 Gd331 2.468 . S
O371 C395 1.263 . S
O372 Gd331 2.427 . S
O372 C395 1.252 . S
O373 Gd330 2.307 . S
O373 C388 1.261 . S
O374 Gd331 2.388 . S
O374 C388 1.252 . S
C375 O363 1.265 . S
C375 O364 1.242 . S
C376 O367 1.261 . S
C376 O368 1.252 . S
C377 C380 1.394 . S
C377 C382 1.370 . S
C377 C383 1.500 . S
C378 C381 1.383 . S
C378 C382 1.395 . S
C379 C380 1.396 . S
C379 C381 1.365 . S
C379 H396 0.929 . S
C380 C377 1.394 . S
C380 C379 1.396 . S
C380 H397 0.930 . S
C381 C378 1.383 . S
C381 C379 1.365 . S
C381 H398 0.931 . S
C382 C377 1.370 . S
C382 C378 1.395 . S
C382 H399 0.930 . S
C383 Gd330 2.805 . S
C383 O365 1.263 . S
C383 O366 1.252 . S
C383 C377 1.500 . S
C384 H346 0.930 . S
C384 C360 1.417 . S
C384 C385 1.329 . S
C385 C355 1.437 . S
C385 H356 0.929 . S
C385 C384 1.329 . S
H386 C359 0.931 . S
C387 O369 1.265 . S
C387 O370 1.242 . S
C388 O373 1.261 . S
C388 O374 1.252 . S
C389 C392 1.394 . S
C389 C394 1.370 . S
C389 C395 1.500 . S
C390 C393 1.383 . S
C390 C394 1.395 . S
C391 C392 1.396 . S
C391 C393 1.365 . S
C391 H400 0.929 . S
C392 C389 1.394 . S
C392 C391 1.396 . S
C392 H401 0.930 . S
C393 C390 1.383 . S
C393 C391 1.365 . S
C393 H402 0.931 . S
C394 C389 1.370 . S
C394 C390 1.395 . S
C394 H403 0.930 . S
C395 Gd331 2.805 . S
C395 O371 1.263 . S
C395 O372 1.252 . S
C395 C389 1.500 . S
H396 C379 0.929 . S
H397 C380 0.930 . S
H398 C381 0.931 . S
H399 C382 0.930 . S
H400 C391 0.929 . S
H401 C392 0.930 . S
H402 C393 0.931 . S
H403 C394 0.930 . S
C404 C406 1.422 . S
C404 C408 1.415 . S
C404 N410 1.367 . S
C405 C406 1.421 . S
C405 C407 1.417 . S
C405 C417 1.422 . S
C406 C404 1.422 . S
C406 C405 1.421 . S
C406 N416 1.359 . S
C407 C405 1.417 . S
C407 C409 1.329 . S
C407 H426 0.930 . S
C408 C404 1.415 . S
C408 C409 1.437 . S
C408 C412 1.413 . S
C409 C407 1.329 . S
C409 C408 1.437 . S
C409 H431 0.929 . S
N410 C404 1.367 . S
N410 C411 1.338 1_455 S
N410 Gd415 2.623 1_455 S
C411 N410 1.338 1_655 S
C411 C413 1.378 1_655 S
C411 H423 0.929 . S
C412 C408 1.413 . S
C412 C413 1.348 . S
C412 H428 0.931 . S
C413 C411 1.378 1_455 S
C413 C412 1.348 . S
C413 H429 0.930 . S
Gd414 N434 2.622 . S
Gd414 N441 2.570 . S
Gd414 O448 2.353 . S
Gd414 O449 2.468 . S
Gd414 O450 2.427 . S
Gd414 O452 2.388 . S
Gd414 O453 2.386 1_455 S
Gd414 O457 2.307 . S
Gd414 C467 2.805 . S
Gd415 N410 2.623 1_655 S
Gd415 N416 2.570 1_655 S
Gd415 O447 2.386 1_655 S
Gd415 O451 2.307 1_655 S
Gd415 O454 2.353 . S
Gd415 O455 2.468 . S
Gd415 O456 2.427 . S
Gd415 O458 2.388 . S
Gd415 C479 2.805 . S
N416 C406 1.359 . S
N416 Gd415 2.570 1_455 S
N416 C418 1.343 . S
C417 C405 1.422 . S
C417 C419 1.321 . S
C417 H425 0.931 . S
C418 N416 1.343 . S
C418 C419 1.390 . S
C418 H420 0.956 . S
C419 C417 1.321 . S
C419 C418 1.390 . S
C419 H421 0.930 . S
H420 C418 0.956 . S
H421 C419 0.930 . S
H422 C445 0.931 . S
H423 C411 0.929 . S
H424 C446 0.930 . S
H425 C417 0.931 . S
H426 C407 0.930 . S
H427 C436 0.929 . S
H428 C412 0.931 . S
H429 C413 0.930 . S
H430 C468 0.930 . S
H431 C409 0.929 . S
H432 C437 0.948 . S
H433 C438 0.930 . S
N434 Gd414 2.622 . S
N434 C435 1.369 . S
N434 C436 1.338 . S
C435 N434 1.369 . S
C435 C439 1.415 1_455 S
C435 C442 1.422 . S
C436 H427 0.929 . S
C436 N434 1.338 . S
C436 C438 1.378 . S
C437 H432 0.948 . S
C437 C438 1.328 1_655 S
C437 C439 1.417 . S
C438 H433 0.930 . S
C438 C436 1.378 . S
C438 C437 1.328 1_455 S
C439 C435 1.415 1_655 S
C439 C437 1.417 . S
C439 C469 1.437 . S
H440 C469 0.929 . S
N441 Gd414 2.570 . S
N441 C442 1.359 . S
N441 C445 1.343 . S
C442 C435 1.422 . S
C442 N441 1.359 . S
C442 C444 1.421 1_455 S
C443 C444 1.422 . S
C443 C446 1.321 . S
C443 H470 0.931 . S
C444 C442 1.421 1_655 S
C444 C443 1.422 . S
C444 C468 1.417 . S
C445 H422 0.931 . S
C445 N441 1.343 . S
C445 C446 1.390 1_455 S
C446 H424 0.930 . S
C446 C443 1.321 . S
C446 C445 1.390 1_655 S
O447 Gd415 2.386 1_455 S
O447 C459 1.265 . S
O448 Gd414 2.353 . S
O448 C459 1.242 . S
O449 Gd414 2.468 . S
O449 C467 1.263 . S
O450 Gd414 2.427 . S
O450 C467 1.252 . S
O451 Gd415 2.307 1_455 S
O451 C460 1.261 . S
O452 Gd414 2.388 . S
O452 C460 1.252 . S
O453 Gd414 2.386 1_655 S
O453 C471 1.265 . S
O454 Gd415 2.353 . S
O454 C471 1.242 . S
O455 Gd415 2.468 . S
O455 C479 1.263 . S
O456 Gd415 2.427 . S
O456 C479 1.252 . S
O457 Gd414 2.307 . S
O457 C472 1.261 . S
O458 Gd415 2.388 . S
O458 C472 1.252 1_655 S
C459 O447 1.265 . S
C459 O448 1.242 . S
C460 O451 1.261 . S
C460 O452 1.252 . S
C461 C464 1.394 . S
C461 C466 1.370 . S
C461 C467 1.500 . S
C462 C465 1.383 . S
C462 C466 1.395 . S
C463 C464 1.396 . S
C463 C465 1.365 . S
C463 H480 0.929 . S
C464 C461 1.394 . S
C464 C463 1.396 . S
C464 H481 0.930 . S
C465 C462 1.383 . S
C465 C463 1.365 . S
C465 H482 0.931 . S
C466 C461 1.370 . S
C466 C462 1.395 . S
C466 H483 0.930 . S
C467 Gd414 2.805 . S
C467 O449 1.263 . S
C467 O450 1.252 . S
C467 C461 1.500 . S
C468 H430 0.930 . S
C468 C444 1.417 . S
C468 C469 1.329 . S
C469 C439 1.437 . S
C469 H440 0.929 . S
C469 C468 1.329 . S
H470 C443 0.931 . S
C471 O453 1.265 . S
C471 O454 1.242 . S
C472 O457 1.261 . S
C472 O458 1.252 1_455 S
C473 C476 1.394 . S
C473 C478 1.370 . S
C473 C479 1.500 . S
C474 C477 1.383 . S
C474 C478 1.395 . S
C475 C476 1.396 . S
C475 C477 1.365 . S
C475 H484 0.929 . S
C476 C473 1.394 . S
C476 C475 1.396 . S
C476 H485 0.930 . S
C477 C474 1.383 . S
C477 C475 1.365 . S
C477 H486 0.931 . S
C478 C473 1.370 . S
C478 C474 1.395 . S
C478 H487 0.930 . S
C479 Gd415 2.805 . S
C479 O455 1.263 . S
C479 O456 1.252 . S
C479 C473 1.500 . S
H480 C463 0.929 . S
H481 C464 0.930 . S
H482 C465 0.931 . S
H483 C466 0.930 . S
H484 C475 0.929 . S
H485 C476 0.930 . S
H486 C477 0.931 . S
H487 C478 0.930 . S
H488 C506 0.951 . S
H489 C508 0.951 . S
H490 C510 0.950 . S
H491 C511 0.950 . S
H492 C513 0.950 . S
H493 C516 0.950 . S
H494 C517 0.950 . S
H495 C519 0.950 . S
H496 C520 0.950 . S
H497 C521 0.951 . S
H498 C523 0.951 . S
H499 C525 0.950 . S
H500 C526 0.950 . S
H501 C528 0.950 . S
H502 C531 0.950 . S
H503 C532 0.950 . S
H504 C534 0.950 . S
H505 C535 0.950 . S
C506 H488 0.951 . S
C506 C507 1.366 . S
C506 C508 1.388 . S
C507 C506 1.366 . S
C507 C511 1.385 . S
C508 H489 0.951 . S
C508 C506 1.388 . S
C508 C509 1.366 . S
C509 C508 1.366 . S
C509 C510 1.414 . S
C509 C512 1.499 . S
C510 H490 0.950 . S
C510 C509 1.414 . S
C510 C511 1.374 . S
C511 H491 0.950 . S
C511 C507 1.385 . S
C511 C510 1.374 . S
C512 C509 1.499 . S
C512 C513 1.373 . S
C512 C514 1.389 . S
C513 H492 0.950 . S
C513 C512 1.373 . S
C513 C529 1.377 . S
C514 C512 1.389 . S
C514 C515 1.524 1_545 S
C514 C528 1.377 . S
C515 C514 1.524 1_565 S
C515 C516 1.397 . S
C515 C520 1.363 . S
C516 H493 0.950 . S
C516 C515 1.397 . S
C516 C517 1.334 . S
C517 H494 0.950 . S
C517 C516 1.334 . S
C517 C518 1.287 . S
C518 C517 1.287 . S
C518 C519 1.524 . S
C518 H537 0.913 . S
C519 H495 0.950 . S
C519 C518 1.524 . S
C519 C520 1.415 . S
C520 H496 0.950 . S
C520 C515 1.363 . S
C520 C519 1.415 . S
C521 H497 0.951 . S
C521 C522 1.366 . S
C521 C523 1.388 . S
C522 C521 1.366 . S
C522 C526 1.385 . S
C523 H498 0.951 . S
C523 C521 1.388 . S
C523 C524 1.366 . S
C524 C523 1.366 . S
C524 C525 1.414 . S
C524 C527 1.499 . S
C525 H499 0.950 . S
C525 C524 1.414 . S
C525 C526 1.374 . S
C526 H500 0.950 . S
C526 C522 1.385 . S
C526 C525 1.374 . S
C527 C524 1.499 . S
C527 C528 1.373 . S
C527 C529 1.389 . S
C528 H501 0.950 . S
C528 C514 1.377 . S
C528 C527 1.373 . S
C529 C513 1.377 . S
C529 C527 1.389 . S
C529 C530 1.524 . S
C530 C529 1.524 . S
C530 C531 1.397 . S
C530 C535 1.363 . S
C531 H502 0.950 . S
C531 C530 1.397 . S
C531 C532 1.334 . S
C532 H503 0.950 . S
C532 C531 1.334 . S
C532 C533 1.287 . S
C533 C532 1.287 . S
C533 C534 1.524 . S
C533 H536 0.999 . S
C534 H504 0.950 . S
C534 C533 1.524 . S
C534 C535 1.415 . S
C535 H505 0.950 . S
C535 C530 1.363 . S
C535 C534 1.415 . S
H536 C533 0.999 . S
H537 C518 0.913 . S
H538 C556 0.951 . S
H539 C558 0.951 . S
H540 C560 0.950 . S
H541 C561 0.950 . S
H542 C563 0.950 . S
H543 C566 0.950 . S
H544 C567 0.950 . S
H545 C569 0.950 . S
H546 C570 0.950 . S
H547 C571 0.951 . S
H548 C573 0.951 . S
H549 C575 0.950 . S
H550 C576 0.950 . S
H551 C578 0.950 . S
H552 C581 0.950 . S
H553 C582 0.950 . S
H554 C584 0.950 . S
H555 C585 0.950 . S
C556 H538 0.951 . S
C556 C557 1.366 . S
C556 C558 1.388 . S
C557 C556 1.366 . S
C557 C561 1.385 . S
C558 H539 0.951 . S
C558 C556 1.388 . S
C558 C559 1.366 . S
C559 C558 1.366 . S
C559 C560 1.414 . S
C559 C562 1.499 . S
C560 H540 0.950 . S
C560 C559 1.414 . S
C560 C561 1.374 . S
C561 H541 0.950 . S
C561 C557 1.385 . S
C561 C560 1.374 . S
C562 C559 1.499 . S
C562 C563 1.373 . S
C562 C564 1.389 . S
C563 H542 0.950 . S
C563 C562 1.373 . S
C563 C579 1.377 . S
C564 C562 1.389 . S
C564 C565 1.524 . S
C564 C578 1.377 . S
C565 C564 1.524 . S
C565 C566 1.397 . S
C565 C570 1.363 . S
C566 H543 0.950 . S
C566 C565 1.397 . S
C566 C567 1.334 . S
C567 H544 0.950 . S
C567 C566 1.334 . S
C567 C568 1.287 . S
C568 C567 1.287 . S
C568 C569 1.524 . S
C568 H587 0.913 . S
C569 H545 0.950 . S
C569 C568 1.524 . S
C569 C570 1.415 . S
C570 H546 0.950 . S
C570 C565 1.363 . S
C570 C569 1.415 . S
C571 H547 0.951 . S
C571 C572 1.366 . S
C571 C573 1.388 . S
C572 C571 1.366 . S
C572 C576 1.385 . S
C573 H548 0.951 . S
C573 C571 1.388 . S
C573 C574 1.366 . S
C574 C573 1.366 . S
C574 C575 1.414 . S
C574 C577 1.499 . S
C575 H549 0.950 . S
C575 C574 1.414 . S
C575 C576 1.374 . S
C576 H550 0.950 . S
C576 C572 1.385 . S
C576 C575 1.374 . S
C577 C574 1.499 . S
C577 C578 1.373 . S
C577 C579 1.389 . S
C578 H551 0.950 . S
C578 C564 1.377 . S
C578 C577 1.373 . S
C579 C563 1.377 . S
C579 C577 1.389 . S
C579 C580 1.524 . S
C580 C579 1.524 . S
C580 C581 1.397 . S
C580 C585 1.363 . S
C581 H552 0.950 . S
C581 C580 1.397 . S
C581 C582 1.334 . S
C582 H553 0.950 . S
C582 C581 1.334 . S
C582 C583 1.287 . S
C583 C582 1.287 . S
C583 C584 1.524 . S
C583 H586 0.999 . S
C584 H554 0.950 . S
C584 C583 1.524 . S
C584 C585 1.415 . S
C585 H555 0.950 . S
C585 C580 1.363 . S
C585 C584 1.415 . S
H586 C583 0.999 . S
H587 C568 0.913 . S
H588 C606 0.951 . S
H589 C608 0.951 . S
H590 C610 0.950 . S
H591 C611 0.950 . S
H592 C613 0.950 . S
H593 C616 0.950 . S
H594 C617 0.950 . S
H595 C619 0.950 . S
H596 C620 0.950 . S
H597 C621 0.951 . S
H598 C623 0.951 . S
H599 C625 0.950 . S
H600 C626 0.950 . S
H601 C628 0.950 . S
H602 C631 0.950 . S
H603 C632 0.950 . S
H604 C634 0.950 . S
H605 C635 0.950 . S
C606 H588 0.951 . S
C606 C607 1.366 . S
C606 C608 1.388 . S
C607 C606 1.366 . S
C607 C611 1.385 . S
C608 H589 0.951 . S
C608 C606 1.388 . S
C608 C609 1.366 . S
C609 C608 1.366 . S
C609 C610 1.414 . S
C609 C612 1.499 . S
C610 H590 0.950 . S
C610 C609 1.414 . S
C610 C611 1.374 . S
C611 H591 0.950 . S
C611 C607 1.385 . S
C611 C610 1.374 . S
C612 C609 1.499 . S
C612 C613 1.373 . S
C612 C614 1.389 . S
C613 H592 0.950 . S
C613 C612 1.373 . S
C613 C629 1.377 . S
C614 C612 1.389 . S
C614 C615 1.524 . S
C614 C628 1.377 . S
C615 C614 1.524 . S
C615 C616 1.397 . S
C615 C620 1.363 . S
C616 H593 0.950 . S
C616 C615 1.397 . S
C616 C617 1.334 . S
C617 H594 0.950 . S
C617 C616 1.334 . S
C617 C618 1.287 . S
C618 C617 1.287 . S
C618 C619 1.524 . S
C618 H637 0.913 . S
C619 H595 0.950 . S
C619 C618 1.524 . S
C619 C620 1.415 . S
C620 H596 0.950 . S
C620 C615 1.363 . S
C620 C619 1.415 . S
C621 H597 0.951 . S
C621 C622 1.366 . S
C621 C623 1.388 . S
C622 C621 1.366 . S
C622 C626 1.385 . S
C623 H598 0.951 . S
C623 C621 1.388 . S
C623 C624 1.366 . S
C624 C623 1.366 . S
C624 C625 1.414 . S
C624 C627 1.499 . S
C625 H599 0.950 . S
C625 C624 1.414 . S
C625 C626 1.374 . S
C626 H600 0.950 . S
C626 C622 1.385 . S
C626 C625 1.374 . S
C627 C624 1.499 . S
C627 C628 1.373 . S
C627 C629 1.389 . S
C628 H601 0.950 . S
C628 C614 1.377 . S
C628 C627 1.373 . S
C629 C613 1.377 . S
C629 C627 1.389 . S
C629 C630 1.524 . S
C630 C629 1.524 . S
C630 C631 1.397 . S
C630 C635 1.363 . S
C631 H602 0.950 . S
C631 C630 1.397 . S
C631 C632 1.334 . S
C632 H603 0.950 . S
C632 C631 1.334 . S
C632 C633 1.287 . S
C633 C632 1.287 . S
C633 C634 1.524 . S
C633 H636 0.999 . S
C634 H604 0.950 . S
C634 C633 1.524 . S
C634 C635 1.415 . S
C635 H605 0.950 . S
C635 C630 1.363 . S
C635 C634 1.415 . S
H636 C633 0.999 . S
H637 C618 0.913 . S
H638 C656 0.951 . S
H639 C658 0.951 . S
H640 C660 0.950 . S
H641 C661 0.950 . S
H642 C663 0.950 . S
H643 C666 0.950 . S
H644 C667 0.950 . S
H645 C669 0.950 . S
H646 C670 0.950 . S
H647 C671 0.951 . S
H648 C673 0.951 . S
H649 C675 0.950 . S
H650 C676 0.950 . S
H651 C678 0.950 . S
H652 C681 0.950 . S
H653 C682 0.950 . S
H654 C684 0.950 . S
H655 C685 0.950 . S
C656 H638 0.951 . S
C656 C657 1.366 . S
C656 C658 1.388 . S
C657 C656 1.366 . S
C657 C661 1.385 . S
C658 H639 0.951 . S
C658 C656 1.388 . S
C658 C659 1.366 . S
C659 C658 1.366 . S
C659 C660 1.414 . S
C659 C662 1.499 . S
C660 H640 0.950 . S
C660 C659 1.414 . S
C660 C661 1.374 . S
C661 H641 0.950 . S
C661 C657 1.385 . S
C661 C660 1.374 . S
C662 C659 1.499 . S
C662 C663 1.373 . S
C662 C664 1.389 . S
C663 H642 0.950 . S
C663 C662 1.373 . S
C663 C679 1.377 . S
C664 C662 1.389 . S
C664 C665 1.524 . S
C664 C678 1.377 . S
C665 C664 1.524 . S
C665 C666 1.397 1_455 S
C665 C670 1.363 . S
C666 H643 0.950 . S
C666 C665 1.397 1_655 S
C666 C667 1.334 . S
C667 H644 0.950 . S
C667 C666 1.334 . S
C667 C668 1.287 . S
C668 C667 1.287 . S
C668 C669 1.524 1_655 S
C668 H687 0.913 . S
C669 H645 0.950 . S
C669 C668 1.524 1_455 S
C669 C670 1.415 . S
C670 H646 0.950 . S
C670 C665 1.363 . S
C670 C669 1.415 . S
C671 H647 0.951 . S
C671 C672 1.366 . S
C671 C673 1.388 . S
C672 C671 1.366 . S
C672 C676 1.385 . S
C673 H648 0.951 . S
C673 C671 1.388 . S
C673 C674 1.366 . S
C674 C673 1.366 . S
C674 C675 1.414 . S
C674 C677 1.499 . S
C675 H649 0.950 . S
C675 C674 1.414 . S
C675 C676 1.374 . S
C676 H650 0.950 . S
C676 C672 1.385 . S
C676 C675 1.374 . S
C677 C674 1.499 . S
C677 C678 1.373 . S
C677 C679 1.389 . S
C678 H651 0.950 . S
C678 C664 1.377 . S
C678 C677 1.373 . S
C679 C663 1.377 . S
C679 C677 1.389 . S
C679 C680 1.524 . S
C680 C679 1.524 . S
C680 C681 1.397 . S
C680 C685 1.363 . S
C681 H652 0.950 . S
C681 C680 1.397 . S
C681 C682 1.334 . S
C682 H653 0.950 . S
C682 C681 1.334 . S
C682 C683 1.287 . S
C683 C682 1.287 . S
C683 C684 1.524 . S
C683 H686 0.999 . S
C684 H654 0.950 . S
C684 C683 1.524 . S
C684 C685 1.415 . S
C685 H655 0.950 . S
C685 C680 1.363 . S
C685 C684 1.415 . S
H686 C683 0.999 . S
H687 C668 0.913 . S
H688 C706 0.951 1_545 S
H689 C708 0.951 1_546 S
H690 C710 0.950 . S
H691 C711 0.950 . S
H692 C713 0.967 . S
H693 C716 0.950 . S
H694 C717 0.950 . S
H695 C719 0.908 1_545 S
H696 C720 0.950 . S
H697 C721 0.951 . S
H698 C723 0.951 . S
H699 C725 0.950 . S
H700 C726 0.950 . S
H701 C728 0.950 . S
H702 C731 0.950 . S
H703 C732 0.950 1_556 S
H704 C734 0.950 . S
H705 C735 0.950 . S
C706 H688 0.951 1_565 S
C706 C707 1.366 . S
C706 C708 1.388 . S
C707 C706 1.366 . S
C707 C711 1.385 . S
C708 H689 0.951 1_564 S
C708 C706 1.388 . S
C708 C709 1.366 . S
C709 C708 1.366 . S
C709 C710 1.414 . S
C709 C712 1.499 1_554 S
C710 H690 0.950 . S
C710 C709 1.414 . S
C710 C711 1.374 . S
C711 H691 0.950 . S
C711 C707 1.385 . S
C711 C710 1.374 . S
C712 C709 1.499 1_556 S
C712 C713 1.368 1_556 S
C712 C714 1.389 . S
C713 H692 0.967 . S
C713 C712 1.368 1_554 S
C713 C729 1.366 1_554 S
C714 C712 1.389 . S
C714 C715 1.524 . S
C714 C728 1.377 . S
C715 C714 1.524 . S
C715 C716 1.397 . S
C715 C720 1.363 1_565 S
C716 H693 0.950 . S
C716 C715 1.397 . S
C716 C717 1.334 . S
C717 H694 0.950 . S
C717 C716 1.334 . S
C717 C718 1.287 . S
C718 C717 1.287 . S
C718 C719 1.580 . S
C718 H737 0.913 . S
C719 H695 0.908 1_565 S
C719 C718 1.580 . S
C719 C720 1.409 1_565 S
C720 H696 0.950 . S
C720 C715 1.363 1_545 S
C720 C719 1.409 1_545 S
C721 H697 0.951 . S
C721 C722 1.366 1_565 S
C721 C723 1.388 . S
C722 C721 1.366 1_545 S
C722 C726 1.385 . S
C723 H698 0.951 . S
C723 C721 1.388 . S
C723 C724 1.366 . S
C724 C723 1.366 . S
C724 C725 1.414 1_565 S
C724 C727 1.499 . S
C725 H699 0.950 . S
C725 C724 1.414 1_545 S
C725 C726 1.374 . S
C726 H700 0.950 . S
C726 C722 1.385 . S
C726 C725 1.374 . S
C727 C724 1.499 . S
C727 C728 1.373 . S
C727 C729 1.389 . S
C728 H701 0.950 . S
C728 C714 1.377 . S
C728 C727 1.373 . S
C729 C713 1.366 1_556 S
C729 C727 1.389 . S
C729 C730 1.524 . S
C730 C729 1.524 . S
C730 C731 1.397 1_565 S
C730 C735 1.363 1_556 S
C731 H702 0.950 . S
C731 C730 1.397 1_545 S
C731 C732 1.334 1_556 S
C732 H703 0.950 1_554 S
C732 C731 1.334 1_554 S
C732 C733 1.287 . S
C733 C732 1.287 . S
C733 C734 1.524 1_545 S
C733 H736 0.999 . S
C734 H704 0.950 . S
C734 C733 1.524 1_565 S
C734 C735 1.415 . S
C735 H705 0.950 . S
C735 C730 1.363 1_554 S
C735 C734 1.415 . S
H736 C733 0.999 . S
H737 C718 0.913 . S
H738 C756 0.951 . S
H739 C758 0.951 . S
H740 C760 0.950 1_556 S
H741 C761 0.950 . S
H742 C763 0.950 . S
H743 C766 0.950 . S
H744 C767 0.950 . S
H745 C769 0.950 . S
H746 C770 0.950 . S
H747 C771 0.951 . S
H748 C773 0.951 . S
H749 C775 0.950 . S
H750 C776 0.950 . S
H751 C778 0.950 . S
H752 C781 0.950 . S
H753 C782 0.950 . S
H754 C784 0.950 . S
H755 C785 0.950 . S
C756 H738 0.951 . S
C756 C757 1.366 . S
C756 C758 1.388 . S
C757 C756 1.366 . S
C757 C761 1.385 . S
C758 H739 0.951 . S
C758 C756 1.388 . S
C758 C759 1.366 . S
C759 C758 1.366 . S
C759 C760 1.414 . S
C759 C762 1.499 1_554 S
C760 H740 0.950 1_554 S
C760 C759 1.414 . S
C760 C761 1.374 . S
C761 H741 0.950 . S
C761 C757 1.385 . S
C761 C760 1.374 . S
C762 C759 1.499 1_556 S
C762 C763 1.373 . S
C762 C764 1.389 . S
C763 H742 0.950 . S
C763 C762 1.373 . S
C763 C779 1.377 . S
C764 C762 1.389 . S
C764 C765 1.524 1_556 S
C764 C778 1.377 . S
C765 C764 1.524 1_554 S
C765 C766 1.397 . S
C765 C770 1.363 . S
C766 H743 0.950 . S
C766 C765 1.397 . S
C766 C767 1.334 . S
C767 H744 0.950 . S
C767 C766 1.334 . S
C767 C768 1.287 . S
C768 C767 1.287 . S
C768 C769 1.524 . S
C768 H787 0.913 . S
C769 H745 0.950 . S
C769 C768 1.524 . S
C769 C770 1.415 . S
C770 H746 0.950 . S
C770 C765 1.363 . S
C770 C769 1.415 . S
C771 H747 0.951 . S
C771 C772 1.366 . S
C771 C773 1.388 . S
C772 C771 1.366 . S
C772 C776 1.385 . S
C773 H748 0.951 . S
C773 C771 1.388 . S
C773 C774 1.366 . S
C774 C773 1.366 . S
C774 C775 1.414 . S
C774 C777 1.499 . S
C775 H749 0.950 . S
C775 C774 1.414 . S
C775 C776 1.374 . S
C776 H750 0.950 . S
C776 C772 1.385 . S
C776 C775 1.374 . S
C777 C774 1.499 . S
C777 C778 1.373 . S
C777 C779 1.389 . S
C778 H751 0.950 . S
C778 C764 1.377 . S
C778 C777 1.373 . S
C779 C763 1.377 . S
C779 C777 1.389 . S
C779 C780 1.524 . S
C780 C779 1.524 . S
C780 C781 1.397 . S
C780 C785 1.363 . S
C781 H752 0.950 . S
C781 C780 1.397 . S
C781 C782 1.334 . S
C782 H753 0.950 . S
C782 C781 1.334 . S
C782 C783 1.287 . S
C783 C782 1.287 . S
C783 C784 1.524 . S
C783 H786 0.999 . S
C784 H754 0.950 . S
C784 C783 1.524 . S
C784 C785 1.415 . S
C785 H755 0.950 . S
C785 C780 1.363 . S
C785 C784 1.415 . S
H786 C783 0.999 . S
H787 C768 0.913 . S
H788 C806 0.951 . S
H789 C808 0.951 1_556 S
H790 C810 0.950 . S
H791 C811 0.950 . S
H792 C813 0.950 . S
H793 C816 0.950 . S
H794 C817 0.950 . S
H795 C819 0.950 . S
H796 C820 0.950 . S
H797 C821 0.951 . S
H798 C823 0.951 . S
H799 C825 0.950 . S
H800 C826 0.950 . S
H801 C828 0.950 . S
H802 C831 0.950 . S
H803 C832 0.950 . S
H804 C834 0.950 . S
H805 C835 0.950 . S
C806 H788 0.951 . S
C806 C807 1.366 . S
C806 C808 1.388 . S
C807 C806 1.366 . S
C807 C811 1.385 . S
C808 H789 0.951 1_554 S
C808 C806 1.388 . S
C808 C809 1.366 . S
C809 C808 1.366 . S
C809 C810 1.414 . S
C809 C812 1.499 1_554 S
C810 H790 0.950 . S
C810 C809 1.414 . S
C810 C811 1.374 . S
C811 H791 0.950 . S
C811 C807 1.385 . S
C811 C810 1.374 . S
C812 C809 1.499 1_556 S
C812 C813 1.373 . S
C812 C814 1.389 . S
C813 H792 0.950 . S
C813 C812 1.373 . S
C813 C829 1.377 . S
C814 C812 1.389 . S
C814 C815 1.524 . S
C814 C828 1.377 . S
C815 C814 1.524 . S
C815 C816 1.397 1_556 S
C815 C820 1.363 . S
C816 H793 0.950 . S
C816 C815 1.397 1_554 S
C816 C817 1.334 . S
C817 H794 0.950 . S
C817 C816 1.334 . S
C817 C818 1.287 . S
C818 C817 1.287 . S
C818 C819 1.524 1_554 S
C818 H837 0.913 . S
C819 H795 0.950 . S
C819 C818 1.524 1_556 S
C819 C820 1.415 . S
C820 H796 0.950 . S
C820 C815 1.363 . S
C820 C819 1.415 . S
C821 H797 0.951 . S
C821 C822 1.366 . S
C821 C823 1.388 . S
C822 C821 1.366 . S
C822 C826 1.385 . S
C823 H798 0.951 . S
C823 C821 1.388 . S
C823 C824 1.366 . S
C824 C823 1.366 . S
C824 C825 1.414 . S
C824 C827 1.499 . S
C825 H799 0.950 . S
C825 C824 1.414 . S
C825 C826 1.374 . S
C826 H800 0.950 . S
C826 C822 1.385 . S
C826 C825 1.374 . S
C827 C824 1.499 . S
C827 C828 1.373 . S
C827 C829 1.389 . S
C828 H801 0.950 . S
C828 C814 1.377 . S
C828 C827 1.373 . S
C829 C813 1.377 . S
C829 C827 1.389 . S
C829 C830 1.524 . S
C830 C829 1.524 . S
C830 C831 1.397 . S
C830 C835 1.363 . S
C831 H802 0.950 . S
C831 C830 1.397 . S
C831 C832 1.334 . S
C832 H803 0.950 . S
C832 C831 1.334 . S
C832 C833 1.287 . S
C833 C832 1.287 . S
C833 C834 1.524 . S
C833 H836 0.999 . S
C834 H804 0.950 . S
C834 C833 1.524 . S
C834 C835 1.415 . S
C835 H805 0.950 . S
C835 C830 1.363 . S
C835 C834 1.415 . S
H836 C833 0.999 . S
H837 C818 0.913 . S
H838 C856 0.951 . S
H839 C858 0.951 1_556 S
H840 C860 0.950 . S
H841 C861 0.950 . S
H842 C863 0.950 1_454 S
H843 C866 0.950 . S
H844 C867 0.950 . S
H845 C869 0.950 . S
H846 C870 0.950 . S
H847 C871 0.951 . S
H848 C873 0.951 . S
H849 C875 0.950 . S
H850 C876 0.952 . S
H851 C878 0.950 . S
H852 C881 0.950 . S
H853 C882 0.950 . S
H854 C884 0.950 . S
H855 C885 0.950 . S
C856 H838 0.951 . S
C856 C857 1.366 . S
C856 C858 1.388 . S
C857 C856 1.366 . S
C857 C861 1.385 . S
C858 H839 0.951 1_554 S
C858 C856 1.388 . S
C858 C859 1.366 . S
C859 C858 1.366 . S
C859 C860 1.414 . S
C859 C862 1.499 1_554 S
C860 H840 0.950 . S
C860 C859 1.414 . S
C860 C861 1.374 . S
C861 H841 0.950 . S
C861 C857 1.385 . S
C861 C860 1.374 . S
C862 C859 1.499 1_556 S
C862 C863 1.373 . S
C862 C864 1.389 . S
C863 H842 0.950 1_656 S
C863 C862 1.373 . S
C863 C879 1.369 1_655 S
C864 C862 1.389 . S
C864 C865 1.524 . S
C864 C878 1.377 . S
C865 C864 1.524 . S
C865 C866 1.397 . S
C865 C870 1.363 . S
C866 H843 0.950 . S
C866 C865 1.397 . S
C866 C867 1.334 . S
C867 H844 0.950 . S
C867 C866 1.334 . S
C867 C868 1.287 . S
C868 C867 1.287 . S
C868 C869 1.524 . S
C868 H887 0.913 . S
C869 H845 0.950 . S
C869 C868 1.524 . S
C869 C870 1.415 . S
C870 H846 0.950 . S
C870 C865 1.363 . S
C870 C869 1.415 . S
C871 H847 0.951 . S
C871 C872 1.366 . S
C871 C873 1.388 . S
C872 C871 1.366 . S
C872 C876 1.384 1_655 S
C873 H848 0.951 . S
C873 C871 1.388 . S
C873 C874 1.366 . S
C874 C873 1.366 . S
C874 C875 1.414 . S
C874 C877 1.499 . S
C875 H849 0.950 . S
C875 C874 1.414 . S
C875 C876 1.373 1_655 S
C876 H850 0.952 . S
C876 C872 1.384 1_455 S
C876 C875 1.373 1_455 S
C877 C874 1.499 . S
C877 C878 1.373 . S
C877 C879 1.370 1_655 S
C878 H851 0.950 . S
C878 C864 1.377 . S
C878 C877 1.373 . S
C879 C863 1.369 1_455 S
C879 C877 1.370 1_455 S
C879 C880 1.556 . S
C880 C879 1.556 . S
C880 C881 1.397 . S
C880 C885 1.363 1_556 S
C881 H852 0.950 . S
C881 C880 1.397 . S
C881 C882 1.334 . S
C882 H853 0.950 . S
C882 C881 1.334 . S
C882 C883 1.287 . S
C883 C882 1.287 . S
C883 C884 1.524 1_556 S
C883 H886 0.999 1_556 S
C884 H854 0.950 . S
C884 C883 1.524 1_554 S
C884 C885 1.415 . S
C885 H855 0.950 . S
C885 C880 1.363 1_554 S
C885 C884 1.415 . S
H886 C883 0.999 1_554 S
H887 C868 0.913 . S
H888 C906 0.951 . S
H889 C908 0.951 . S
H890 C910 0.950 . S
H891 C911 0.950 . S
H892 C913 0.950 . S
H893 C916 0.950 . S
H894 C917 0.950 . S
H895 C919 0.950 1_556 S
H896 C920 0.949 1_455 S
H897 C921 0.951 . S
H898 C923 0.951 . S
H899 C925 0.950 . S
H900 C926 0.950 . S
H901 C928 0.950 . S
H902 C931 0.950 . S
H903 C932 0.950 . S
H904 C934 0.950 . S
H905 C935 0.950 . S
C906 H888 0.951 . S
C906 C907 1.366 . S
C906 C908 1.388 . S
C907 C906 1.366 . S
C907 C911 1.385 . S
C908 H889 0.951 . S
C908 C906 1.388 . S
C908 C909 1.366 . S
C909 C908 1.366 . S
C909 C910 1.414 . S
C909 C912 1.499 . S
C910 H890 0.950 . S
C910 C909 1.414 . S
C910 C911 1.374 . S
C911 H891 0.950 . S
C911 C907 1.385 . S
C911 C910 1.374 . S
C912 C909 1.499 . S
C912 C913 1.373 . S
C912 C914 1.389 . S
C913 H892 0.950 . S
C913 C912 1.373 . S
C913 C929 1.377 . S
C914 C912 1.389 . S
C914 C915 1.524 . S
C914 C928 1.377 . S
C915 C914 1.524 . S
C915 C916 1.397 1_455 S
C915 C920 1.363 1_455 S
C916 H893 0.950 . S
C916 C915 1.397 1_655 S
C916 C917 1.334 . S
C917 H894 0.950 . S
C917 C916 1.334 . S
C917 C918 1.287 . S
C918 C917 1.287 . S
C918 C919 1.524 . S
C918 H937 0.913 1_554 S
C919 H895 0.950 1_554 S
C919 C918 1.524 . S
C919 C920 1.416 . S
C920 H896 0.949 1_655 S
C920 C915 1.363 1_655 S
C920 C919 1.416 . S
C921 H897 0.951 . S
C921 C922 1.366 . S
C921 C923 1.388 . S
C922 C921 1.366 . S
C922 C926 1.385 . S
C923 H898 0.951 . S
C923 C921 1.388 . S
C923 C924 1.366 . S
C924 C923 1.366 . S
C924 C925 1.414 . S
C924 C927 1.499 . S
C925 H899 0.950 . S
C925 C924 1.414 . S
C925 C926 1.374 . S
C926 H900 0.950 . S
C926 C922 1.385 . S
C926 C925 1.374 . S
C927 C924 1.499 . S
C927 C928 1.373 . S
C927 C929 1.389 . S
C928 H901 0.950 . S
C928 C914 1.377 . S
C928 C927 1.373 . S
C929 C913 1.377 . S
C929 C927 1.389 . S
C929 C930 1.524 . S
C930 C929 1.524 . S
C930 C931 1.397 . S
C930 C935 1.363 . S
C931 H902 0.950 . S
C931 C930 1.397 . S
C931 C932 1.334 . S
C932 H903 0.950 . S
C932 C931 1.334 . S
C932 C933 1.287 . S
C933 C932 1.287 . S
C933 C934 1.524 . S
C933 H936 0.999 . S
C934 H904 0.950 . S
C934 C933 1.524 . S
C934 C935 1.415 . S
C935 H905 0.950 . S
C935 C930 1.363 . S
C935 C934 1.415 . S
H936 C933 0.999 . S
H937 C918 0.913 1_556 S
H938 C956 0.951 . S
H939 C958 0.951 . S
H940 C960 0.950 . S
H941 C961 0.950 . S
H942 C963 0.950 . S
H943 C966 0.950 . S
H944 C967 0.950 . S
H945 C969 0.950 . S
H946 C970 0.950 . S
H947 C971 0.951 1_565 S
H948 C973 0.951 1_565 S
H949 C975 0.950 . S
H950 C976 0.950 . S
H951 C978 0.950 . S
H952 C981 0.950 . S
H953 C982 0.950 . S
H954 C984 0.950 . S
H955 C985 0.950 . S
C956 H938 0.951 . S
C956 C957 1.366 . S
C956 C958 1.388 . S
C957 C956 1.366 . S
C957 C961 1.385 . S
C958 H939 0.951 . S
C958 C956 1.388 . S
C958 C959 1.366 . S
C959 C958 1.366 . S
C959 C960 1.414 . S
C959 C962 1.499 . S
C960 H940 0.950 . S
C960 C959 1.414 . S
C960 C961 1.374 . S
C961 H941 0.950 . S
C961 C957 1.385 . S
C961 C960 1.374 . S
C962 C959 1.499 . S
C962 C963 1.373 . S
C962 C964 1.389 . S
C963 H942 0.950 . S
C963 C962 1.373 . S
C963 C979 1.377 . S
C964 C962 1.389 . S
C964 C965 1.524 . S
C964 C978 1.377 . S
C965 C964 1.524 . S
C965 C966 1.397 . S
C965 C970 1.363 . S
C966 H943 0.950 . S
C966 C965 1.397 . S
C966 C967 1.334 1_554 S
C967 H944 0.950 . S
C967 C966 1.334 1_556 S
C967 C968 1.287 . S
C968 C967 1.287 . S
C968 C969 1.524 . S
C968 H987 0.913 . S
C969 H945 0.950 . S
C969 C968 1.524 . S
C969 C970 1.415 1_556 S
C970 H946 0.950 . S
C970 C965 1.363 . S
C970 C969 1.415 1_554 S
C971 H947 0.951 1_545 S
C971 C972 1.366 . S
C971 C973 1.388 . S
C972 C971 1.366 . S
C972 C976 1.385 . S
C973 H948 0.951 1_545 S
C973 C971 1.388 . S
C973 C974 1.366 . S
C974 C973 1.366 . S
C974 C975 1.414 . S
C974 C977 1.499 . S
C975 H949 0.950 . S
C975 C974 1.414 . S
C975 C976 1.374 . S
C976 H950 0.950 . S
C976 C972 1.385 . S
C976 C975 1.374 . S
C977 C974 1.499 . S
C977 C978 1.373 . S
C977 C979 1.389 . S
C978 H951 0.950 . S
C978 C964 1.377 . S
C978 C977 1.373 . S
C979 C963 1.377 . S
C979 C977 1.389 . S
C979 C980 1.524 . S
C980 C979 1.524 . S
C980 C981 1.397 . S
C980 C985 1.363 . S
C981 H952 0.950 . S
C981 C980 1.397 . S
C981 C982 1.334 . S
C982 H953 0.950 . S
C982 C981 1.334 . S
C982 C983 1.287 . S
C983 C982 1.287 . S
C983 C984 1.524 . S
C983 H986 0.999 . S
C984 H954 0.950 . S
C984 C983 1.524 . S
C984 C985 1.415 . S
C985 H955 0.950 . S
C985 C980 1.363 . S
C985 C984 1.415 . S
H986 C983 0.999 . S
H987 C968 0.913 . S
H988 C1006 0.951 . S
H989 C1008 0.951 . S
H990 C1010 0.950 . S
H991 C1011 0.950 . S
H992 C1013 0.950 . S
H993 C1016 0.950 . S
H994 C1017 0.950 . S
H995 C1019 0.950 1_556 S
H996 C1020 0.950 . S
H997 C1021 0.951 . S
H998 C1023 0.951 . S
H999 C1025 0.950 . S
H1000 C1026 0.950 . S
H1001 C1028 0.950 . S
H1002 C1031 0.950 . S
H1003 C1032 0.950 . S
H1004 C1034 0.950 . S
H1005 C1035 0.950 . S
C1006 H988 0.951 . S
C1006 C1007 1.366 . S
C1006 C1008 1.388 . S
C1007 C1006 1.366 . S
C1007 C1011 1.385 . S
C1008 H989 0.951 . S
C1008 C1006 1.388 . S
C1008 C1009 1.366 . S
C1009 C1008 1.366 . S
C1009 C1010 1.414 . S
C1009 C1012 1.499 . S
C1010 H990 0.950 . S
C1010 C1009 1.414 . S
C1010 C1011 1.374 . S
C1011 H991 0.950 . S
C1011 C1007 1.385 . S
C1011 C1010 1.374 . S
C1012 C1009 1.499 . S
C1012 C1013 1.373 . S
C1012 C1014 1.389 . S
C1013 H992 0.950 . S
C1013 C1012 1.373 . S
C1013 C1029 1.377 . S
C1014 C1012 1.389 . S
C1014 C1015 1.524 . S
C1014 C1028 1.377 . S
C1015 C1014 1.524 . S
C1015 C1016 1.397 . S
C1015 C1020 1.363 . S
C1016 H993 0.950 . S
C1016 C1015 1.397 . S
C1016 C1017 1.334 . S
C1017 H994 0.950 . S
C1017 C1016 1.334 . S
C1017 C1018 1.287 . S
C1018 C1017 1.287 . S
C1018 C1019 1.524 . S
C1018 H1037 0.913 1_554 S
C1019 H995 0.950 1_554 S
C1019 C1018 1.524 . S
C1019 C1020 1.415 . S
C1020 H996 0.950 . S
C1020 C1015 1.363 . S
C1020 C1019 1.415 . S
C1021 H997 0.951 . S
C1021 C1022 1.366 . S
C1021 C1023 1.388 . S
C1022 C1021 1.366 . S
C1022 C1026 1.385 . S
C1023 H998 0.951 . S
C1023 C1021 1.388 . S
C1023 C1024 1.366 . S
C1024 C1023 1.366 . S
C1024 C1025 1.414 . S
C1024 C1027 1.499 . S
C1025 H999 0.950 . S
C1025 C1024 1.414 . S
C1025 C1026 1.374 . S
C1026 H1000 0.950 . S
C1026 C1022 1.385 . S
C1026 C1025 1.374 . S
C1027 C1024 1.499 . S
C1027 C1028 1.373 . S
C1027 C1029 1.389 . S
C1028 H1001 0.950 . S
C1028 C1014 1.377 . S
C1028 C1027 1.373 . S
C1029 C1013 1.377 . S
C1029 C1027 1.389 . S
C1029 C1030 1.524 . S
C1030 C1029 1.524 . S
C1030 C1031 1.397 . S
C1030 C1035 1.363 . S
C1031 H1002 0.950 . S
C1031 C1030 1.397 . S
C1031 C1032 1.334 . S
C1032 H1003 0.950 . S
C1032 C1031 1.334 . S
C1032 C1033 1.287 . S
C1033 C1032 1.287 . S
C1033 C1034 1.524 . S
C1033 H1036 0.999 . S
C1034 H1004 0.950 . S
C1034 C1033 1.524 . S
C1034 C1035 1.415 . S
C1035 H1005 0.950 . S
C1035 C1030 1.363 . S
C1035 C1034 1.415 . S
H1036 C1033 0.999 . S
H1037 C1018 0.913 1_556 S
H1038 C1056 0.951 . S
H1039 C1058 0.951 . S
H1040 C1060 0.950 . S
H1041 C1061 0.950 . S
H1042 C1063 0.950 . S
H1043 C1066 0.950 . S
H1044 C1067 0.950 . S
H1045 C1069 0.950 . S
H1046 C1070 0.950 . S
H1047 C1071 0.951 . S
H1048 C1073 0.951 . S
H1049 C1075 0.950 . S
H1050 C1076 0.950 . S
H1051 C1078 0.950 . S
H1052 C1081 0.950 . S
H1053 C1082 0.950 . S
H1054 C1084 0.950 . S
H1055 C1085 0.950 . S
C1056 H1038 0.951 . S
C1056 C1057 1.366 . S
C1056 C1058 1.388 . S
C1057 C1056 1.366 . S
C1057 C1061 1.385 . S
C1058 H1039 0.951 . S
C1058 C1056 1.388 . S
C1058 C1059 1.366 . S
C1059 C1058 1.366 . S
C1059 C1060 1.414 . S
C1059 C1062 1.499 . S
C1060 H1040 0.950 . S
C1060 C1059 1.414 . S
C1060 C1061 1.374 . S
C1061 H1041 0.950 . S
C1061 C1057 1.385 . S
C1061 C1060 1.374 . S
C1062 C1059 1.499 . S
C1062 C1063 1.373 . S
C1062 C1064 1.389 . S
C1063 H1042 0.950 . S
C1063 C1062 1.373 . S
C1063 C1079 1.377 . S
C1064 C1062 1.389 . S
C1064 C1065 1.524 . S
C1064 C1078 1.377 . S
C1065 C1064 1.524 . S
C1065 C1066 1.397 . S
C1065 C1070 1.363 . S
C1066 H1043 0.950 . S
C1066 C1065 1.397 . S
C1066 C1067 1.334 . S
C1067 H1044 0.950 . S
C1067 C1066 1.334 . S
C1067 C1068 1.287 1_554 S
C1068 C1067 1.287 1_556 S
C1068 C1069 1.524 . S
C1068 H1087 0.913 . S
C1069 H1045 0.950 . S
C1069 C1068 1.524 . S
C1069 C1070 1.415 1_556 S
C1070 H1046 0.950 . S
C1070 C1065 1.363 . S
C1070 C1069 1.415 1_554 S
C1071 H1047 0.951 . S
C1071 C1072 1.366 . S
C1071 C1073 1.388 . S
C1072 C1071 1.366 . S
C1072 C1076 1.385 . S
C1073 H1048 0.951 . S
C1073 C1071 1.388 . S
C1073 C1074 1.366 . S
C1074 C1073 1.366 . S
C1074 C1075 1.414 . S
C1074 C1077 1.499 . S
C1075 H1049 0.950 . S
C1075 C1074 1.414 . S
C1075 C1076 1.374 . S
C1076 H1050 0.950 . S
C1076 C1072 1.385 . S
C1076 C1075 1.374 . S
C1077 C1074 1.499 . S
C1077 C1078 1.373 . S
C1077 C1079 1.389 . S
C1078 H1051 0.950 . S
C1078 C1064 1.377 . S
C1078 C1077 1.373 . S
C1079 C1063 1.377 . S
C1079 C1077 1.389 . S
C1079 C1080 1.524 . S
C1080 C1079 1.524 . S
C1080 C1081 1.397 . S
C1080 C1085 1.363 . S
C1081 H1052 0.950 . S
C1081 C1080 1.397 . S
C1081 C1082 1.334 . S
C1082 H1053 0.950 . S
C1082 C1081 1.334 . S
C1082 C1083 1.287 . S
C1083 C1082 1.287 . S
C1083 C1084 1.524 . S
C1083 H1086 0.999 . S
C1084 H1054 0.950 . S
C1084 C1083 1.524 . S
C1084 C1085 1.415 . S
C1085 H1055 0.950 . S
C1085 C1080 1.363 . S
C1085 C1084 1.415 . S
H1086 C1083 0.999 . S
H1087 C1068 0.913 . S
H1088 C1106 0.951 . S
H1089 C1108 0.951 . S
H1090 C1110 0.950 1_455 S
H1091 C1111 0.971 . S
H1092 C1113 0.950 . S
H1093 C1116 0.950 1_455 S
H1094 C1117 0.950 1_455 S
H1095 C1119 0.950 . S
H1096 C1120 0.950 . S
H1097 C1121 0.951 . S
H1098 C1123 0.951 . S
H1099 C1125 0.950 . S
H1100 C1126 0.950 . S
H1101 C1128 0.950 . S
H1102 C1131 0.950 . S
H1103 C1132 0.950 . S
H1104 C1134 0.950 . S
H1105 C1135 0.950 . S
C1106 H1088 0.951 . S
C1106 C1107 1.366 . S
C1106 C1108 1.388 . S
C1107 C1106 1.366 . S
C1107 C1111 1.385 . S
C1108 H1089 0.951 . S
C1108 C1106 1.388 . S
C1108 C1109 1.366 . S
C1109 C1108 1.366 . S
C1109 C1110 1.414 . S
C1109 C1112 1.499 . S
C1110 H1090 0.950 1_655 S
C1110 C1109 1.414 . S
C1110 C1111 1.374 . S
C1111 H1091 0.971 . S
C1111 C1107 1.385 . S
C1111 C1110 1.374 . S
C1112 C1109 1.499 . S
C1112 C1113 1.373 . S
C1112 C1114 1.389 1_554 S
C1113 H1092 0.950 . S
C1113 C1112 1.373 . S
C1113 C1129 1.377 . S
C1114 C1112 1.389 1_556 S
C1114 C1115 1.524 . S
C1114 C1128 1.377 . S
C1115 C1114 1.524 . S
C1115 C1116 1.397 . S
C1115 C1120 1.363 . S
C1116 H1093 0.950 1_655 S
C1116 C1115 1.397 . S
C1116 C1117 1.334 . S
C1117 H1094 0.950 1_655 S
C1117 C1116 1.334 . S
C1117 C1118 1.287 . S
C1118 C1117 1.287 . S
C1118 C1119 1.524 . S
C1118 H1137 0.913 . S
C1119 H1095 0.950 . S
C1119 C1118 1.524 . S
C1119 C1120 1.415 . S
C1120 H1096 0.950 . S
C1120 C1115 1.363 . S
C1120 C1119 1.415 . S
C1121 H1097 0.951 . S
C1121 C1122 1.366 . S
C1121 C1123 1.388 . S
C1122 C1121 1.366 . S
C1122 C1126 1.385 1_455 S
C1123 H1098 0.951 . S
C1123 C1121 1.388 . S
C1123 C1124 1.366 1_455 S
C1124 C1123 1.366 1_655 S
C1124 C1125 1.414 . S
C1124 C1127 1.499 . S
C1125 H1099 0.950 . S
C1125 C1124 1.414 . S
C1125 C1126 1.374 . S
C1126 H1100 0.950 . S
C1126 C1122 1.385 1_655 S
C1126 C1125 1.374 . S
C1127 C1124 1.499 . S
C1127 C1128 1.373 . S
C1127 C1129 1.389 1_556 S
C1128 H1101 0.950 . S
C1128 C1114 1.377 . S
C1128 C1127 1.373 . S
C1129 C1113 1.377 . S
C1129 C1127 1.389 1_554 S
C1129 C1130 1.524 . S
C1130 C1129 1.524 . S
C1130 C1131 1.397 . S
C1130 C1135 1.363 1_655 S
C1131 H1102 0.950 . S
C1131 C1130 1.397 . S
C1131 C1132 1.334 . S
C1132 H1103 0.950 . S
C1132 C1131 1.334 . S
C1132 C1133 1.287 . S
C1133 C1132 1.287 . S
C1133 C1134 1.524 1_655 S
C1133 H1136 0.999 . S
C1134 H1104 0.950 . S
C1134 C1133 1.524 1_455 S
C1134 C1135 1.415 . S
C1135 H1105 0.950 . S
C1135 C1130 1.363 1_455 S
C1135 C1134 1.415 . S
H1136 C1133 0.999 . S
H1137 C1118 0.913 . S
H1138 C1156 0.951 . S
H1139 C1158 0.951 . S
H1140 C1160 0.950 . S
H1141 C1161 0.950 . S
H1142 C1163 0.950 . S
H1143 C1166 0.950 . S
H1144 C1167 0.950 . S
H1145 C1169 0.950 . S
H1146 C1170 0.950 . S
H1147 C1171 0.951 . S
H1148 C1173 0.951 . S
H1149 C1175 0.950 1_554 S
H1150 C1176 0.950 . S
H1151 C1178 0.950 . S
H1152 C1181 0.950 . S
H1153 C1182 0.950 1_554 S
H1154 C1184 0.950 . S
H1155 C1185 0.950 . S
C1156 H1138 0.951 . S
C1156 C1157 1.366 . S
C1156 C1158 1.388 . S
C1157 C1156 1.366 . S
C1157 C1161 1.385 . S
C1158 H1139 0.951 . S
C1158 C1156 1.388 . S
C1158 C1159 1.366 . S
C1159 C1158 1.366 . S
C1159 C1160 1.414 . S
C1159 C1162 1.499 . S
C1160 H1140 0.950 . S
C1160 C1159 1.414 . S
C1160 C1161 1.374 . S
C1161 H1141 0.950 . S
C1161 C1157 1.385 . S
C1161 C1160 1.374 . S
C1162 C1159 1.499 . S
C1162 C1163 1.373 1_565 S
C1162 C1164 1.389 . S
C1163 H1142 0.950 . S
C1163 C1162 1.373 1_545 S
C1163 C1179 1.377 1_554 S
C1164 C1162 1.389 . S
C1164 C1165 1.524 . S
C1164 C1178 1.377 . S
C1165 C1164 1.524 . S
C1165 C1166 1.397 . S
C1165 C1170 1.363 . S
C1166 H1143 0.950 . S
C1166 C1165 1.397 . S
C1166 C1167 1.334 . S
C1167 H1144 0.950 . S
C1167 C1166 1.334 . S
C1167 C1168 1.287 . S
C1168 C1167 1.287 . S
C1168 C1169 1.524 . S
C1168 H1187 0.913 . S
C1169 H1145 0.950 . S
C1169 C1168 1.524 . S
C1169 C1170 1.415 . S
C1170 H1146 0.950 . S
C1170 C1165 1.363 . S
C1170 C1169 1.415 . S
C1171 H1147 0.951 . S
C1171 C1172 1.366 . S
C1171 C1173 1.388 . S
C1172 C1171 1.366 . S
C1172 C1176 1.385 1_545 S
C1173 H1148 0.951 . S
C1173 C1171 1.388 . S
C1173 C1174 1.367 . S
C1174 C1173 1.367 . S
C1174 C1175 1.413 1_545 S
C1174 C1177 1.498 1_545 S
C1175 H1149 0.950 1_556 S
C1175 C1174 1.413 1_565 S
C1175 C1176 1.374 . S
C1176 H1150 0.950 . S
C1176 C1172 1.385 1_565 S
C1176 C1175 1.374 . S
C1177 C1174 1.498 1_565 S
C1177 C1178 1.373 1_556 S
C1177 C1179 1.389 1_565 S
C1178 H1151 0.950 . S
C1178 C1164 1.377 . S
C1178 C1177 1.373 1_554 S
C1179 C1163 1.377 1_556 S
C1179 C1177 1.389 1_545 S
C1179 C1180 1.524 . S
C1180 C1179 1.524 . S
C1180 C1181 1.397 1_556 S
C1180 C1185 1.363 . S
C1181 H1152 0.950 . S
C1181 C1180 1.397 1_554 S
C1181 C1182 1.334 1_554 S
C1182 H1153 0.950 1_556 S
C1182 C1181 1.334 1_556 S
C1182 C1183 1.287 . S
C1183 C1182 1.287 . S
C1183 C1184 1.524 . S
C1183 H1186 0.999 . S
C1184 H1154 0.950 . S
C1184 C1183 1.524 . S
C1184 C1185 1.415 . S
C1185 H1155 0.950 . S
C1185 C1180 1.363 . S
C1185 C1184 1.415 . S
H1186 C1183 0.999 . S
H1187 C1168 0.913 . S
H1188 C1206 0.951 . S
H1189 C1208 0.951 . S
H1190 C1210 0.950 . S
H1191 C1211 0.950 . S
H1192 C1213 0.950 . S
H1193 C1216 0.950 . S
H1194 C1217 0.950 . S
H1195 C1219 0.950 1_556 S
H1196 C1220 0.950 1_556 S
H1197 C1221 0.951 . S
H1198 C1223 0.951 1_554 S
H1199 C1225 0.950 . S
H1200 C1226 0.950 . S
H1201 C1228 0.950 . S
H1202 C1231 0.950 . S
H1203 C1232 0.950 . S
H1204 C1234 0.950 . S
H1205 C1235 0.950 . S
C1206 H1188 0.951 . S
C1206 C1207 1.366 . S
C1206 C1208 1.388 . S
C1207 C1206 1.366 . S
C1207 C1211 1.385 . S
C1208 H1189 0.951 . S
C1208 C1206 1.388 . S
C1208 C1209 1.366 . S
C1209 C1208 1.366 . S
C1209 C1210 1.414 . S
C1209 C1212 1.499 . S
C1210 H1190 0.950 . S
C1210 C1209 1.414 . S
C1210 C1211 1.374 . S
C1211 H1191 0.950 . S
C1211 C1207 1.385 . S
C1211 C1210 1.374 . S
C1212 C1209 1.499 . S
C1212 C1213 1.373 . S
C1212 C1214 1.389 . S
C1213 H1192 0.950 . S
C1213 C1212 1.373 . S
C1213 C1229 1.377 . S
C1214 C1212 1.389 . S
C1214 C1215 1.524 . S
C1214 C1228 1.377 1_554 S
C1215 C1214 1.524 . S
C1215 C1216 1.397 . S
C1215 C1220 1.363 . S
C1216 H1193 0.950 . S
C1216 C1215 1.397 . S
C1216 C1217 1.334 . S
C1217 H1194 0.950 . S
C1217 C1216 1.334 . S
C1217 C1218 1.287 . S
C1218 C1217 1.287 . S
C1218 C1219 1.524 . S
C1218 H1237 0.913 . S
C1219 H1195 0.950 1_554 S
C1219 C1218 1.524 . S
C1219 C1220 1.415 . S
C1220 H1196 0.950 1_554 S
C1220 C1215 1.363 . S
C1220 C1219 1.415 . S
C1221 H1197 0.951 . S
C1221 C1222 1.366 . S
C1221 C1223 1.388 . S
C1222 C1221 1.366 . S
C1222 C1226 1.385 . S
C1223 H1198 0.951 1_556 S
C1223 C1221 1.388 . S
C1223 C1224 1.366 . S
C1224 C1223 1.366 . S
C1224 C1225 1.414 . S
C1224 C1227 1.499 . S
C1225 H1199 0.950 . S
C1225 C1224 1.414 . S
C1225 C1226 1.374 . S
C1226 H1200 0.950 . S
C1226 C1222 1.385 . S
C1226 C1225 1.374 . S
C1227 C1224 1.499 . S
C1227 C1228 1.373 . S
C1227 C1229 1.389 1_556 S
C1228 H1201 0.950 . S
C1228 C1214 1.377 1_556 S
C1228 C1227 1.373 . S
C1229 C1213 1.377 . S
C1229 C1227 1.389 1_554 S
C1229 C1230 1.524 1_554 S
C1230 C1229 1.524 1_556 S
C1230 C1231 1.397 . S
C1230 C1235 1.363 1_556 S
C1231 H1202 0.950 . S
C1231 C1230 1.397 . S
C1231 C1232 1.334 . S
C1232 H1203 0.950 . S
C1232 C1231 1.334 . S
C1232 C1233 1.287 . S
C1233 C1232 1.287 . S
C1233 C1234 1.524 1_556 S
C1233 H1236 0.999 . S
C1234 H1204 0.950 . S
C1234 C1233 1.524 1_554 S
C1234 C1235 1.415 . S
C1235 H1205 0.950 . S
C1235 C1230 1.363 1_554 S
C1235 C1234 1.415 . S
H1236 C1233 0.999 . S
H1237 C1218 0.913 . S
H1238 C1256 0.951 . S
H1239 C1258 0.951 . S
H1240 C1260 0.950 . S
H1241 C1261 0.950 . S
H1242 C1263 0.950 . S
H1243 C1266 0.950 . S
H1244 C1267 0.950 . S
H1245 C1269 0.950 . S
H1246 C1270 0.950 . S
H1247 C1271 0.951 . S
H1248 C1273 0.951 1_554 S
H1249 C1275 0.950 . S
H1250 C1276 0.950 . S
H1251 C1278 0.950 . S
H1252 C1281 0.950 . S
H1253 C1282 0.950 . S
H1254 C1284 0.950 . S
H1255 C1285 0.950 . S
C1256 H1238 0.951 . S
C1256 C1257 1.366 . S
C1256 C1258 1.388 . S
C1257 C1256 1.366 . S
C1257 C1261 1.385 . S
C1258 H1239 0.951 . S
C1258 C1256 1.388 . S
C1258 C1259 1.366 . S
C1259 C1258 1.366 . S
C1259 C1260 1.414 . S
C1259 C1262 1.499 . S
C1260 H1240 0.950 . S
C1260 C1259 1.414 . S
C1260 C1261 1.374 . S
C1261 H1241 0.950 . S
C1261 C1257 1.385 . S
C1261 C1260 1.374 . S
C1262 C1259 1.499 . S
C1262 C1263 1.373 . S
C1262 C1264 1.389 . S
C1263 H1242 0.950 . S
C1263 C1262 1.373 . S
C1263 C1279 1.377 . S
C1264 C1262 1.389 . S
C1264 C1265 1.523 1_554 S
C1264 C1278 1.377 1_554 S
C1265 C1264 1.523 1_556 S
C1265 C1266 1.387 1_556 S
C1265 C1270 1.374 . S
C1266 H1243 0.950 . S
C1266 C1265 1.387 1_554 S
C1266 C1267 1.334 . S
C1267 H1244 0.950 . S
C1267 C1266 1.334 . S
C1267 C1268 1.287 1_554 S
C1268 C1267 1.287 1_556 S
C1268 C1269 1.524 . S
C1268 H1287 0.913 . S
C1269 H1245 0.950 . S
C1269 C1268 1.524 . S
C1269 C1270 1.415 . S
C1270 H1246 0.950 . S
C1270 C1265 1.374 . S
C1270 C1269 1.415 . S
C1271 H1247 0.951 . S
C1271 C1272 1.366 . S
C1271 C1273 1.388 . S
C1272 C1271 1.366 . S
C1272 C1276 1.385 . S
C1273 H1248 0.951 1_556 S
C1273 C1271 1.388 . S
C1273 C1274 1.366 . S
C1274 C1273 1.366 . S
C1274 C1275 1.414 . S
C1274 C1277 1.499 . S
C1275 H1249 0.950 . S
C1275 C1274 1.414 . S
C1275 C1276 1.374 . S
C1276 H1250 0.950 . S
C1276 C1272 1.385 . S
C1276 C1275 1.374 . S
C1277 C1274 1.499 . S
C1277 C1278 1.373 . S
C1277 C1279 1.389 1_556 S
C1278 H1251 0.950 . S
C1278 C1264 1.377 1_556 S
C1278 C1277 1.373 . S
C1279 C1263 1.377 . S
C1279 C1277 1.389 1_554 S
C1279 C1280 1.524 . S
C1280 C1279 1.524 . S
C1280 C1281 1.397 1_554 S
C1280 C1285 1.363 . S
C1281 H1252 0.950 . S
C1281 C1280 1.397 1_556 S
C1281 C1282 1.334 . S
C1282 H1253 0.950 . S
C1282 C1281 1.334 . S
C1282 C1283 1.287 1_556 S
C1283 C1282 1.287 1_554 S
C1283 C1284 1.524 . S
C1283 H1286 0.999 . S
C1284 H1254 0.950 . S
C1284 C1283 1.524 . S
C1284 C1285 1.415 . S
C1285 H1255 0.950 . S
C1285 C1280 1.363 . S
C1285 C1284 1.415 . S
H1286 C1283 0.999 . S
H1287 C1268 0.913 . S
H1288 C1306 0.951 . S
H1289 C1308 0.951 . S
H1290 C1310 0.950 . S
H1291 C1311 0.950 . S
H1292 C1313 0.950 . S
H1293 C1316 0.950 1_455 S
H1294 C1317 0.950 . S
H1295 C1319 0.950 . S
H1296 C1320 0.950 . S
H1297 C1321 0.951 . S
H1298 C1323 0.951 . S
H1299 C1325 0.923 1_655 S
H1300 C1326 0.950 1_655 S
H1301 C1328 0.950 1_655 S
H1302 C1331 0.950 . S
H1303 C1332 0.950 . S
H1304 C1334 0.950 . S
H1305 C1335 0.950 . S
C1306 H1288 0.951 . S
C1306 C1307 1.366 . S
C1306 C1308 1.388 . S
C1307 C1306 1.366 . S
C1307 C1311 1.385 . S
C1308 H1289 0.951 . S
C1308 C1306 1.388 . S
C1308 C1309 1.366 . S
C1309 C1308 1.366 . S
C1309 C1310 1.414 . S
C1309 C1312 1.499 . S
C1310 H1290 0.950 . S
C1310 C1309 1.414 . S
C1310 C1311 1.374 . S
C1311 H1291 0.950 . S
C1311 C1307 1.385 . S
C1311 C1310 1.374 . S
C1312 C1309 1.499 . S
C1312 C1313 1.373 . S
C1312 C1314 1.389 . S
C1313 H1292 0.950 . S
C1313 C1312 1.373 . S
C1313 C1329 1.377 . S
C1314 C1312 1.389 . S
C1314 C1315 1.524 1_455 S
C1314 C1328 1.377 . S
C1315 C1314 1.524 1_655 S
C1315 C1316 1.397 . S
C1315 C1320 1.363 . S
C1316 H1293 0.950 1_655 S
C1316 C1315 1.397 . S
C1316 C1317 1.334 . S
C1317 H1294 0.950 . S
C1317 C1316 1.334 . S
C1317 C1318 1.287 . S
C1318 C1317 1.287 . S
C1318 C1319 1.524 . S
C1318 H1337 0.913 . S
C1319 H1295 0.950 . S
C1319 C1318 1.524 . S
C1319 C1320 1.415 . S
C1320 H1296 0.950 . S
C1320 C1315 1.363 . S
C1320 C1319 1.415 . S
C1321 H1297 0.951 . S
C1321 C1322 1.366 . S
C1321 C1323 1.388 . S
C1322 C1321 1.366 . S
C1322 C1326 1.385 . S
C1323 H1298 0.951 . S
C1323 C1321 1.388 . S
C1323 C1324 1.366 . S
C1324 C1323 1.366 . S
C1324 C1325 1.414 . S
C1324 C1327 1.499 . S
C1325 H1299 0.923 1_455 S
C1325 C1324 1.414 . S
C1325 C1326 1.374 . S
C1326 H1300 0.950 1_455 S
C1326 C1322 1.385 . S
C1326 C1325 1.374 . S
C1327 C1324 1.499 . S
C1327 C1328 1.373 . S
C1327 C1329 1.389 . S
C1328 H1301 0.950 1_455 S
C1328 C1314 1.377 . S
C1328 C1327 1.373 . S
C1329 C1313 1.377 . S
C1329 C1327 1.389 . S
C1329 C1330 1.524 . S
C1330 C1329 1.524 . S
C1330 C1331 1.397 . S
C1330 C1335 1.363 . S
C1331 H1302 0.950 . S
C1331 C1330 1.397 . S
C1331 C1332 1.334 . S
C1332 H1303 0.950 . S
C1332 C1331 1.334 . S
C1332 C1333 1.287 . S
C1333 C1332 1.287 . S
C1333 C1334 1.524 . S
C1333 H1336 0.999 . S
C1334 H1304 0.950 . S
C1334 C1333 1.524 . S
C1334 C1335 1.415 . S
C1335 H1305 0.950 . S
C1335 C1330 1.363 . S
C1335 C1334 1.415 . S
H1336 C1333 0.999 . S
H1337 C1318 0.913 . S
H1338 C1356 0.951 . S
H1339 C1358 0.951 . S
H1340 C1360 0.950 . S
H1341 C1361 0.950 . S
H1342 C1363 0.950 . S
H1343 C1366 0.950 . S
H1344 C1367 0.950 . S
H1345 C1369 0.950 1_554 S
H1346 C1370 0.950 . S
H1347 C1371 0.951 . S
H1348 C1373 0.951 . S
H1349 C1375 0.950 . S
H1350 C1376 0.950 . S
H1351 C1378 0.950 . S
H1352 C1381 0.950 . S
H1353 C1382 0.950 . S
H1354 C1384 0.950 . S
H1355 C1385 0.915 1_545 S
C1356 H1338 0.951 . S
C1356 C1357 1.366 . S
C1356 C1358 1.388 . S
C1357 C1356 1.366 . S
C1357 C1361 1.385 . S
C1358 H1339 0.951 . S
C1358 C1356 1.388 . S
C1358 C1359 1.366 . S
C1359 C1358 1.366 . S
C1359 C1360 1.414 . S
C1359 C1362 1.499 . S
C1360 H1340 0.950 . S
C1360 C1359 1.414 . S
C1360 C1361 1.374 . S
C1361 H1341 0.950 . S
C1361 C1357 1.385 . S
C1361 C1360 1.374 . S
C1362 C1359 1.499 . S
C1362 C1363 1.373 . S
C1362 C1364 1.389 . S
C1363 H1342 0.950 . S
C1363 C1362 1.373 . S
C1363 C1379 1.377 . S
C1364 C1362 1.389 . S
C1364 C1365 1.524 . S
C1364 C1378 1.377 . S
C1365 C1364 1.524 . S
C1365 C1366 1.397 . S
C1365 C1370 1.363 . S
C1366 H1343 0.950 . S
C1366 C1365 1.397 . S
C1366 C1367 1.334 . S
C1367 H1344 0.950 . S
C1367 C1366 1.334 . S
C1367 C1368 1.287 . S
C1368 C1367 1.287 . S
C1368 C1369 1.524 . S
C1368 H1387 0.913 . S
C1369 H1345 0.950 1_556 S
C1369 C1368 1.524 . S
C1369 C1370 1.415 . S
C1370 H1346 0.950 . S
C1370 C1365 1.363 . S
C1370 C1369 1.415 . S
C1371 H1347 0.951 . S
C1371 C1372 1.366 . S
C1371 C1373 1.388 . S
C1372 C1371 1.366 . S
C1372 C1376 1.385 . S
C1373 H1348 0.951 . S
C1373 C1371 1.388 . S
C1373 C1374 1.366 . S
C1374 C1373 1.366 . S
C1374 C1375 1.414 . S
C1374 C1377 1.499 . S
C1375 H1349 0.950 . S
C1375 C1374 1.414 . S
C1375 C1376 1.374 . S
C1376 H1350 0.950 . S
C1376 C1372 1.385 . S
C1376 C1375 1.374 . S
C1377 C1374 1.499 . S
C1377 C1378 1.373 . S
C1377 C1379 1.389 . S
C1378 H1351 0.950 . S
C1378 C1364 1.377 . S
C1378 C1377 1.373 . S
C1379 C1363 1.377 . S
C1379 C1377 1.389 . S
C1379 C1380 1.524 1_545 S
C1380 C1379 1.524 1_565 S
C1380 C1381 1.397 . S
C1380 C1385 1.363 . S
C1381 H1352 0.950 . S
C1381 C1380 1.397 . S
C1381 C1382 1.334 . S
C1382 H1353 0.950 . S
C1382 C1381 1.334 . S
C1382 C1383 1.287 . S
C1383 C1382 1.287 . S
C1383 C1384 1.524 . S
C1383 H1386 0.999 . S
C1384 H1354 0.950 . S
C1384 C1383 1.524 . S
C1384 C1385 1.415 . S
C1385 H1355 0.915 1_565 S
C1385 C1380 1.363 . S
C1385 C1384 1.415 . S
H1386 C1383 0.999 . S
H1387 C1368 0.913 . S
H1388 C1406 0.951 . S
H1389 C1408 0.951 . S
H1390 C1410 0.950 . S
H1391 C1411 0.950 . S
H1392 C1413 0.950 . S
H1393 C1416 0.950 . S
H1394 C1417 0.950 . S
H1395 C1419 0.950 . S
H1396 C1420 0.950 . S
H1397 C1421 0.951 . S
H1398 C1423 0.951 . S
H1399 C1425 0.950 . S
H1400 C1426 0.950 . S
H1401 C1428 0.950 . S
H1402 C1431 0.950 . S
H1403 C1432 0.950 . S
H1404 C1434 0.950 . S
H1405 C1435 0.950 . S
C1406 H1388 0.951 . S
C1406 C1407 1.366 . S
C1406 C1408 1.388 . S
C1407 C1406 1.366 . S
C1407 C1411 1.385 . S
C1408 H1389 0.951 . S
C1408 C1406 1.388 . S
C1408 C1409 1.366 . S
C1409 C1408 1.366 . S
C1409 C1410 1.414 . S
C1409 C1412 1.499 . S
C1410 H1390 0.950 . S
C1410 C1409 1.414 . S
C1410 C1411 1.374 . S
C1411 H1391 0.950 . S
C1411 C1407 1.385 . S
C1411 C1410 1.374 . S
C1412 C1409 1.499 . S
C1412 C1413 1.373 . S
C1412 C1414 1.389 . S
C1413 H1392 0.950 . S
C1413 C1412 1.373 . S
C1413 C1429 1.377 . S
C1414 C1412 1.389 . S
C1414 C1415 1.524 . S
C1414 C1428 1.377 . S
C1415 C1414 1.524 . S
C1415 C1416 1.397 . S
C1415 C1420 1.363 . S
C1416 H1393 0.950 . S
C1416 C1415 1.397 . S
C1416 C1417 1.334 1_556 S
C1417 H1394 0.950 . S
C1417 C1416 1.334 1_554 S
C1417 C1418 1.287 . S
C1418 C1417 1.287 . S
C1418 C1419 1.524 . S
C1418 H1437 0.913 . S
C1419 H1395 0.950 . S
C1419 C1418 1.524 . S
C1419 C1420 1.415 1_554 S
C1420 H1396 0.950 . S
C1420 C1415 1.363 . S
C1420 C1419 1.415 1_556 S
C1421 H1397 0.951 . S
C1421 C1422 1.366 . S
C1421 C1423 1.388 . S
C1422 C1421 1.366 . S
C1422 C1426 1.385 . S
C1423 H1398 0.951 . S
C1423 C1421 1.388 . S
C1423 C1424 1.366 . S
C1424 C1423 1.366 . S
C1424 C1425 1.414 . S
C1424 C1427 1.499 . S
C1425 H1399 0.950 . S
C1425 C1424 1.414 . S
C1425 C1426 1.374 . S
C1426 H1400 0.950 . S
C1426 C1422 1.385 . S
C1426 C1425 1.374 . S
C1427 C1424 1.499 . S
C1427 C1428 1.373 . S
C1427 C1429 1.389 . S
C1428 H1401 0.950 . S
C1428 C1414 1.377 . S
C1428 C1427 1.373 . S
C1429 C1413 1.377 . S
C1429 C1427 1.389 . S
C1429 C1430 1.524 . S
C1430 C1429 1.524 . S
C1430 C1431 1.397 . S
C1430 C1435 1.363 . S
C1431 H1402 0.950 . S
C1431 C1430 1.397 . S
C1431 C1432 1.334 . S
C1432 H1403 0.950 . S
C1432 C1431 1.334 . S
C1432 C1433 1.287 . S
C1433 C1432 1.287 . S
C1433 C1434 1.524 . S
C1433 H1436 0.999 . S
C1434 H1404 0.950 . S
C1434 C1433 1.524 . S
C1434 C1435 1.415 . S
C1435 H1405 0.950 . S
C1435 C1430 1.363 . S
C1435 C1434 1.415 . S
H1436 C1433 0.999 . S
H1437 C1418 0.913 . S
H1438 C1456 0.951 . S
H1439 C1458 0.951 . S
H1440 C1460 0.950 . S
H1441 C1461 0.950 . S
H1442 C1463 0.950 . S
H1443 C1466 0.950 . S
H1444 C1467 0.950 . S
H1445 C1469 0.950 1_554 S
H1446 C1470 0.950 . S
H1447 C1471 0.951 . S
H1448 C1473 0.951 . S
H1449 C1475 0.950 . S
H1450 C1476 0.950 . S
H1451 C1478 0.950 . S
H1452 C1481 0.950 . S
H1453 C1482 0.950 . S
H1454 C1484 0.950 . S
H1455 C1485 0.950 . S
C1456 H1438 0.951 . S
C1456 C1457 1.366 . S
C1456 C1458 1.388 . S
C1457 C1456 1.366 . S
C1457 C1461 1.385 . S
C1458 H1439 0.951 . S
C1458 C1456 1.388 . S
C1458 C1459 1.366 . S
C1459 C1458 1.366 . S
C1459 C1460 1.414 . S
C1459 C1462 1.499 . S
C1460 H1440 0.950 . S
C1460 C1459 1.414 . S
C1460 C1461 1.374 . S
C1461 H1441 0.950 . S
C1461 C1457 1.385 . S
C1461 C1460 1.374 . S
C1462 C1459 1.499 . S
C1462 C1463 1.373 . S
C1462 C1464 1.389 . S
C1463 H1442 0.950 . S
C1463 C1462 1.373 . S
C1463 C1479 1.377 . S
C1464 C1462 1.389 . S
C1464 C1465 1.524 . S
C1464 C1478 1.377 . S
C1465 C1464 1.524 . S
C1465 C1466 1.397 . S
C1465 C1470 1.363 . S
C1466 H1443 0.950 . S
C1466 C1465 1.397 . S
C1466 C1467 1.334 . S
C1467 H1444 0.950 . S
C1467 C1466 1.334 . S
C1467 C1468 1.287 . S
C1468 C1467 1.287 . S
C1468 C1469 1.524 . S
C1468 H1487 0.913 . S
C1469 H1445 0.950 1_556 S
C1469 C1468 1.524 . S
C1469 C1470 1.415 . S
C1470 H1446 0.950 . S
C1470 C1465 1.363 . S
C1470 C1469 1.415 . S
C1471 H1447 0.951 . S
C1471 C1472 1.366 . S
C1471 C1473 1.388 . S
C1472 C1471 1.366 . S
C1472 C1476 1.385 . S
C1473 H1448 0.951 . S
C1473 C1471 1.388 . S
C1473 C1474 1.366 . S
C1474 C1473 1.366 . S
C1474 C1475 1.414 . S
C1474 C1477 1.499 . S
C1475 H1449 0.950 . S
C1475 C1474 1.414 . S
C1475 C1476 1.374 . S
C1476 H1450 0.950 . S
C1476 C1472 1.385 . S
C1476 C1475 1.374 . S
C1477 C1474 1.499 . S
C1477 C1478 1.373 . S
C1477 C1479 1.389 . S
C1478 H1451 0.950 . S
C1478 C1464 1.377 . S
C1478 C1477 1.373 . S
C1479 C1463 1.377 . S
C1479 C1477 1.389 . S
C1479 C1480 1.524 . S
C1480 C1479 1.524 . S
C1480 C1481 1.397 . S
C1480 C1485 1.363 . S
C1481 H1452 0.950 . S
C1481 C1480 1.397 . S
C1481 C1482 1.334 . S
C1482 H1453 0.950 . S
C1482 C1481 1.334 . S
C1482 C1483 1.287 . S
C1483 C1482 1.287 . S
C1483 C1484 1.524 . S
C1483 H1486 0.999 . S
C1484 H1454 0.950 . S
C1484 C1483 1.524 . S
C1484 C1485 1.415 . S
C1485 H1455 0.950 . S
C1485 C1480 1.363 . S
C1485 C1484 1.415 . S
H1486 C1483 0.999 . S
H1487 C1468 0.913 . S
H1488 C1506 0.951 . S
H1489 C1508 0.951 . S
H1490 C1510 0.950 . S
H1491 C1511 0.950 . S
H1492 C1513 0.950 . S
H1493 C1516 0.950 . S
H1494 C1517 0.950 . S
H1495 C1519 0.950 . S
H1496 C1520 0.950 . S
H1497 C1521 0.951 . S
H1498 C1523 0.951 . S
H1499 C1525 0.942 1_455 S
H1500 C1526 0.952 1_455 S
H1501 C1528 0.950 . S
H1502 C1531 0.950 . S
H1503 C1532 0.950 . S
H1504 C1534 0.950 . S
H1505 C1535 0.950 . S
C1506 H1488 0.951 . S
C1506 C1507 1.366 . S
C1506 C1508 1.388 . S
C1507 C1506 1.366 . S
C1507 C1511 1.385 . S
C1508 H1489 0.951 . S
C1508 C1506 1.388 . S
C1508 C1509 1.366 . S
C1509 C1508 1.366 . S
C1509 C1510 1.414 . S
C1509 C1512 1.499 . S
C1510 H1490 0.950 . S
C1510 C1509 1.414 . S
C1510 C1511 1.374 . S
C1511 H1491 0.950 . S
C1511 C1507 1.385 . S
C1511 C1510 1.374 . S
C1512 C1509 1.499 . S
C1512 C1513 1.373 . S
C1512 C1514 1.389 1_655 S
C1513 H1492 0.950 . S
C1513 C1512 1.373 . S
C1513 C1529 1.377 . S
C1514 C1512 1.389 1_455 S
C1514 C1515 1.524 . S
C1514 C1528 1.377 . S
C1515 C1514 1.524 . S
C1515 C1516 1.397 . S
C1515 C1520 1.363 . S
C1516 H1493 0.950 . S
C1516 C1515 1.397 . S
C1516 C1517 1.334 . S
C1517 H1494 0.950 . S
C1517 C1516 1.334 . S
C1517 C1518 1.287 . S
C1518 C1517 1.287 . S
C1518 C1519 1.524 . S
C1518 H1537 0.913 . S
C1519 H1495 0.950 . S
C1519 C1518 1.524 . S
C1519 C1520 1.415 . S
C1520 H1496 0.950 . S
C1520 C1515 1.363 . S
C1520 C1519 1.415 . S
C1521 H1497 0.951 . S
C1521 C1522 1.366 . S
C1521 C1523 1.388 . S
C1522 C1521 1.366 . S
C1522 C1526 1.384 . S
C1523 H1498 0.951 . S
C1523 C1521 1.388 . S
C1523 C1524 1.366 . S
C1524 C1523 1.366 . S
C1524 C1525 1.414 . S
C1524 C1527 1.499 . S
C1525 H1499 0.942 1_655 S
C1525 C1524 1.414 . S
C1525 C1526 1.373 . S
C1526 H1500 0.952 1_655 S
C1526 C1522 1.384 . S
C1526 C1525 1.373 . S
C1527 C1524 1.499 . S
C1527 C1528 1.373 1_655 S
C1527 C1529 1.389 . S
C1528 H1501 0.950 . S
C1528 C1514 1.377 . S
C1528 C1527 1.373 1_455 S
C1529 C1513 1.377 . S
C1529 C1527 1.389 . S
C1529 C1530 1.524 . S
C1530 C1529 1.524 . S
C1530 C1531 1.397 . S
C1530 C1535 1.363 . S
C1531 H1502 0.950 . S
C1531 C1530 1.397 . S
C1531 C1532 1.334 . S
C1532 H1503 0.950 . S
C1532 C1531 1.334 . S
C1532 C1533 1.287 . S
C1533 C1532 1.287 . S
C1533 C1534 1.524 . S
C1533 H1536 0.999 . S
C1534 H1504 0.950 . S
C1534 C1533 1.524 . S
C1534 C1535 1.415 . S
C1535 H1505 0.950 . S
C1535 C1530 1.363 . S
C1535 C1534 1.415 . S
H1536 C1533 0.999 . S
H1537 C1518 0.913 . S
H1538 C1556 0.951 . S
H1539 C1558 0.951 . S
H1540 C1560 0.942 1_545 S
H1541 C1561 0.950 . S
H1542 C1563 0.950 . S
H1543 C1566 0.950 . S
H1544 C1567 0.950 . S
H1545 C1569 0.952 . S
H1546 C1570 0.950 . S
H1547 C1571 0.951 . S
H1548 C1573 0.951 . S
H1549 C1575 0.950 . S
H1550 C1576 0.950 . S
H1551 C1578 0.950 . S
H1552 C1581 0.950 . S
H1553 C1582 0.950 . S
H1554 C1584 0.950 . S
H1555 C1585 0.950 . S
C1556 H1538 0.951 . S
C1556 C1557 1.366 . S
C1556 C1558 1.388 . S
C1557 C1556 1.366 . S
C1557 C1561 1.385 . S
C1558 H1539 0.951 . S
C1558 C1556 1.388 . S
C1558 C1559 1.366 . S
C1559 C1558 1.366 . S
C1559 C1560 1.414 . S
C1559 C1562 1.499 . S
C1560 H1540 0.942 1_565 S
C1560 C1559 1.414 . S
C1560 C1561 1.374 . S
C1561 H1541 0.950 . S
C1561 C1557 1.385 . S
C1561 C1560 1.374 . S
C1562 C1559 1.499 . S
C1562 C1563 1.373 . S
C1562 C1564 1.389 . S
C1563 H1542 0.950 . S
C1563 C1562 1.373 . S
C1563 C1579 1.377 . S
C1564 C1562 1.389 . S
C1564 C1565 1.520 1_565 S
C1564 C1578 1.377 . S
C1565 C1564 1.520 1_545 S
C1565 C1566 1.408 . S
C1565 C1570 1.357 1_545 S
C1566 H1543 0.950 . S
C1566 C1565 1.408 . S
C1566 C1567 1.334 . S
C1567 H1544 0.950 . S
C1567 C1566 1.334 . S
C1567 C1568 1.287 . S
C1568 C1567 1.287 . S
C1568 C1569 1.519 1_545 S
C1568 H1587 0.913 . S
C1569 H1545 0.952 . S
C1569 C1568 1.519 1_565 S
C1569 C1570 1.417 . S
C1570 H1546 0.950 . S
C1570 C1565 1.357 1_565 S
C1570 C1569 1.417 . S
C1571 H1547 0.951 . S
C1571 C1572 1.365 . S
C1571 C1573 1.388 . S
C1572 C1571 1.365 . S
C1572 C1576 1.386 1_545 S
C1573 H1548 0.951 . S
C1573 C1571 1.388 . S
C1573 C1574 1.366 1_545 S
C1574 C1573 1.366 1_565 S
C1574 C1575 1.414 . S
C1574 C1577 1.499 . S
C1575 H1549 0.950 . S
C1575 C1574 1.414 . S
C1575 C1576 1.374 . S
C1576 H1550 0.950 . S
C1576 C1572 1.386 1_565 S
C1576 C1575 1.374 . S
C1577 C1574 1.499 . S
C1577 C1578 1.373 . S
C1577 C1579 1.389 . S
C1578 H1551 0.950 . S
C1578 C1564 1.377 . S
C1578 C1577 1.373 . S
C1579 C1563 1.377 . S
C1579 C1577 1.389 . S
C1579 C1580 1.524 . S
C1580 C1579 1.524 . S
C1580 C1581 1.397 . S
C1580 C1585 1.363 . S
C1581 H1552 0.950 . S
C1581 C1580 1.397 . S
C1581 C1582 1.334 . S
C1582 H1553 0.950 . S
C1582 C1581 1.334 . S
C1582 C1583 1.287 . S
C1583 C1582 1.287 . S
C1583 C1584 1.524 . S
C1583 H1586 0.999 . S
C1584 H1554 0.950 . S
C1584 C1583 1.524 . S
C1584 C1585 1.415 . S
C1585 H1555 0.950 . S
C1585 C1580 1.363 . S
C1585 C1584 1.415 . S
H1586 C1583 0.999 . S
H1587 C1568 0.913 . S
H1588 C1606 0.951 . S
H1589 C1608 0.951 . S
H1590 C1610 0.950 . S
H1591 C1611 0.950 . S
H1592 C1613 0.950 . S
H1593 C1616 0.950 . S
H1594 C1617 0.950 . S
H1595 C1619 0.950 . S
H1596 C1620 0.950 . S
H1597 C1621 0.951 . S
H1598 C1623 0.951 . S
H1599 C1625 0.950 . S
H1600 C1626 0.950 . S
H1601 C1628 0.950 . S
H1602 C1631 0.950 . S
H1603 C1632 0.950 . S
H1604 C1634 0.950 . S
H1605 C1635 0.950 . S
C1606 H1588 0.951 . S
C1606 C1607 1.366 . S
C1606 C1608 1.388 . S
C1607 C1606 1.366 . S
C1607 C1611 1.385 . S
C1608 H1589 0.951 . S
C1608 C1606 1.388 . S
C1608 C1609 1.366 . S
C1609 C1608 1.366 . S
C1609 C1610 1.414 . S
C1609 C1612 1.499 . S
C1610 H1590 0.950 . S
C1610 C1609 1.414 . S
C1610 C1611 1.374 . S
C1611 H1591 0.950 . S
C1611 C1607 1.385 . S
C1611 C1610 1.374 . S
C1612 C1609 1.499 . S
C1612 C1613 1.373 . S
C1612 C1614 1.389 . S
C1613 H1592 0.950 . S
C1613 C1612 1.373 . S
C1613 C1629 1.377 . S
C1614 C1612 1.389 . S
C1614 C1615 1.524 . S
C1614 C1628 1.377 . S
C1615 C1614 1.524 . S
C1615 C1616 1.397 . S
C1615 C1620 1.363 . S
C1616 H1593 0.950 . S
C1616 C1615 1.397 . S
C1616 C1617 1.334 . S
C1617 H1594 0.950 . S
C1617 C1616 1.334 . S
C1617 C1618 1.287 . S
C1618 C1617 1.287 . S
C1618 C1619 1.524 . S
C1618 H1637 0.913 . S
C1619 H1595 0.950 . S
C1619 C1618 1.524 . S
C1619 C1620 1.415 . S
C1620 H1596 0.950 . S
C1620 C1615 1.363 . S
C1620 C1619 1.415 . S
C1621 H1597 0.951 . S
C1621 C1622 1.366 . S
C1621 C1623 1.388 . S
C1622 C1621 1.366 . S
C1622 C1626 1.385 . S
C1623 H1598 0.951 . S
C1623 C1621 1.388 . S
C1623 C1624 1.366 . S
C1624 C1623 1.366 . S
C1624 C1625 1.414 . S
C1624 C1627 1.499 . S
C1625 H1599 0.950 . S
C1625 C1624 1.414 . S
C1625 C1626 1.374 . S
C1626 H1600 0.950 . S
C1626 C1622 1.385 . S
C1626 C1625 1.374 . S
C1627 C1624 1.499 . S
C1627 C1628 1.373 . S
C1627 C1629 1.389 . S
C1628 H1601 0.950 . S
C1628 C1614 1.377 . S
C1628 C1627 1.373 . S
C1629 C1613 1.377 . S
C1629 C1627 1.389 . S
C1629 C1630 1.524 . S
C1630 C1629 1.524 . S
C1630 C1631 1.397 . S
C1630 C1635 1.363 . S
C1631 H1602 0.950 . S
C1631 C1630 1.397 . S
C1631 C1632 1.334 . S
C1632 H1603 0.950 . S
C1632 C1631 1.334 . S
C1632 C1633 1.287 . S
C1633 C1632 1.287 . S
C1633 C1634 1.524 . S
C1633 H1636 0.999 . S
C1634 H1604 0.950 . S
C1634 C1633 1.524 . S
C1634 C1635 1.415 . S
C1635 H1605 0.950 . S
C1635 C1630 1.363 . S
C1635 C1634 1.415 . S
H1636 C1633 0.999 . S
H1637 C1618 0.913 . S
H1638 C1656 0.951 . S
H1639 C1658 0.951 . S
H1640 C1660 0.950 . S
H1641 C1661 0.950 . S
H1642 C1663 0.950 . S
H1643 C1666 0.950 . S
H1644 C1667 0.950 . S
H1645 C1669 0.950 . S
H1646 C1670 0.950 . S
H1647 C1671 0.951 . S
H1648 C1673 0.951 . S
H1649 C1675 0.950 . S
H1650 C1676 0.950 . S
H1651 C1678 0.950 . S
H1652 C1681 0.950 . S
H1653 C1682 0.950 . S
H1654 C1684 0.950 . S
H1655 C1685 0.950 . S
C1656 H1638 0.951 . S
C1656 C1657 1.366 . S
C1656 C1658 1.388 . S
C1657 C1656 1.366 . S
C1657 C1661 1.385 . S
C1658 H1639 0.951 . S
C1658 C1656 1.388 . S
C1658 C1659 1.366 . S
C1659 C1658 1.366 . S
C1659 C1660 1.414 . S
C1659 C1662 1.499 . S
C1660 H1640 0.950 . S
C1660 C1659 1.414 . S
C1660 C1661 1.374 . S
C1661 H1641 0.950 . S
C1661 C1657 1.385 . S
C1661 C1660 1.374 . S
C1662 C1659 1.499 . S
C1662 C1663 1.373 . S
C1662 C1664 1.389 . S
C1663 H1642 0.950 . S
C1663 C1662 1.373 . S
C1663 C1679 1.377 . S
C1664 C1662 1.389 . S
C1664 C1665 1.524 . S
C1664 C1678 1.377 . S
C1665 C1664 1.524 . S
C1665 C1666 1.397 . S
C1665 C1670 1.363 . S
C1666 H1643 0.950 . S
C1666 C1665 1.397 . S
C1666 C1667 1.334 . S
C1667 H1644 0.950 . S
C1667 C1666 1.334 . S
C1667 C1668 1.287 . S
C1668 C1667 1.287 . S
C1668 C1669 1.524 . S
C1668 H1687 0.913 . S
C1669 H1645 0.950 . S
C1669 C1668 1.524 . S
C1669 C1670 1.415 . S
C1670 H1646 0.950 . S
C1670 C1665 1.363 . S
C1670 C1669 1.415 . S
C1671 H1647 0.951 . S
C1671 C1672 1.366 . S
C1671 C1673 1.388 . S
C1672 C1671 1.366 . S
C1672 C1676 1.385 . S
C1673 H1648 0.951 . S
C1673 C1671 1.388 . S
C1673 C1674 1.366 . S
C1674 C1673 1.366 . S
C1674 C1675 1.414 . S
C1674 C1677 1.499 . S
C1675 H1649 0.950 . S
C1675 C1674 1.414 . S
C1675 C1676 1.374 . S
C1676 H1650 0.950 . S
C1676 C1672 1.385 . S
C1676 C1675 1.374 . S
C1677 C1674 1.499 . S
C1677 C1678 1.373 . S
C1677 C1679 1.389 . S
C1678 H1651 0.950 . S
C1678 C1664 1.377 . S
C1678 C1677 1.373 . S
C1679 C1663 1.377 . S
C1679 C1677 1.389 . S
C1679 C1680 1.524 . S
C1680 C1679 1.524 . S
C1680 C1681 1.397 . S
C1680 C1685 1.363 . S
C1681 H1652 0.950 . S
C1681 C1680 1.397 . S
C1681 C1682 1.334 . S
C1682 H1653 0.950 . S
C1682 C1681 1.334 . S
C1682 C1683 1.287 . S
C1683 C1682 1.287 . S
C1683 C1684 1.524 . S
C1683 H1686 0.999 . S
C1684 H1654 0.950 . S
C1684 C1683 1.524 . S
C1684 C1685 1.415 . S
C1685 H1655 0.950 . S
C1685 C1680 1.363 . S
C1685 C1684 1.415 . S
H1686 C1683 0.999 . S
H1687 C1668 0.913 . S
C507 C125 1.890 . S
C522 C220 1.961 . S
C572 C303 1.983 . S
C557 C144 1.899 . S
C622 C388 1.948 . S
C607 C87 1.880 . S
C672 C472 1.938 . S
C657 C106 1.869 . S
C722 C208 1.962 . S
C707 C49 1.952 . S
C757 C68 1.961 . S
C772 C291 1.984 . S
C807 C11 1.938 . S
C822 C376 1.948 . S
C857 C30 1.927 . S
C872 C460 1.938 1_655 S
C922 C210 0.612 . S
C907 C97 0.570 . S
C972 C306 0.584 . S
C957 C116 0.543 . S
C1022 C378 0.611 . S
C1007 C135 0.572 . S
C1057 C78 0.552 . S
C1072 C462 0.599 . S
C1107 C21 0.567 . S
C1122 C222 0.612 . S
C1172 C294 0.587 . S
C1157 C40 0.540 . S
C1222 C390 0.611 . S
C1207 C59 0.571 . S
C1257 C2 0.550 . S
C1272 C474 0.598 . S
C1307 C101 1.891 . S
C1322 C207 2.023 . S
C1357 C120 1.884 . S
C1372 C292 2.024 . S
C1422 C375 2.046 . S
C1407 C139 1.911 . S
C1472 C459 2.051 . S
C1457 C82 1.916 . S
C1507 C25 1.893 . S
C1522 C219 2.023 . S
C1572 C304 2.024 . S
C1557 C44 1.888 . S
C1622 C387 2.046 . S
C1607 C63 1.914 . S
C1657 C6 1.920 . S
C1672 C471 2.050 . S
