# Generated by pormake.
# Topology pyr, (3,6)-cn, num edge types: 1
# Building blocks:
#     Node 0, Type 0, BuildingBlock: BELTOD_clean_linker_0, # of connection points: 3
#     Node 1, Type 0, BuildingBlock: BELTOD_clean_linker_0, # of connection points: 3
#     Node 2, Type 0, BuildingBlock: BELTOD_clean_linker_0, # of connection points: 3
#     Node 3, Type 0, BuildingBlock: BELTOD_clean_linker_0, # of connection points: 3
#     Node 4, Type 0, BuildingBlock: BELTOD_clean_linker_0, # of connection points: 3
#     Node 5, Type 0, BuildingBlock: BELTOD_clean_linker_0, # of connection points: 3
#     Node 6, Type 0, BuildingBlock: BELTOD_clean_linker_0, # of connection points: 3
#     Node 7, Type 0, BuildingBlock: BELTOD_clean_linker_0, # of connection points: 3
#     Node 8, Type 1, BuildingBlock: BETDAH_clean_sbu_0, # of connection points: 6
#     Node 9, Type 1, BuildingBlock: BETDAH_clean_sbu_0, # of connection points: 6
#     Node 10, Type 1, BuildingBlock: BETDAH_clean_sbu_0, # of connection points: 6
#     Node 11, Type 1, BuildingBlock: BETDAH_clean_sbu_0, # of connection points: 6
#     Edge 12, Type (0, 1), BuildingBlock: XUDNAN_clean_linker_2, # of connection points: 2
#     Edge 13, Type (0, 1), BuildingBlock: XUDNAN_clean_linker_2, # of connection points: 2
#     Edge 14, Type (0, 1), BuildingBlock: XUDNAN_clean_linker_2, # of connection points: 2
#     Edge 15, Type (0, 1), BuildingBlock: XUDNAN_clean_linker_2, # of connection points: 2
#     Edge 16, Type (0, 1), BuildingBlock: XUDNAN_clean_linker_2, # of connection points: 2
#     Edge 17, Type (0, 1), BuildingBlock: XUDNAN_clean_linker_2, # of connection points: 2
#     Edge 18, Type (0, 1), BuildingBlock: XUDNAN_clean_linker_2, # of connection points: 2
#     Edge 19, Type (0, 1), BuildingBlock: XUDNAN_clean_linker_2, # of connection points: 2
#     Edge 20, Type (0, 1), BuildingBlock: XUDNAN_clean_linker_2, # of connection points: 2
#     Edge 21, Type (0, 1), BuildingBlock: XUDNAN_clean_linker_2, # of connection points: 2
#     Edge 22, Type (0, 1), BuildingBlock: XUDNAN_clean_linker_2, # of connection points: 2
#     Edge 23, Type (0, 1), BuildingBlock: XUDNAN_clean_linker_2, # of connection points: 2
#     Edge 24, Type (0, 1), BuildingBlock: XUDNAN_clean_linker_2, # of connection points: 2
#     Edge 25, Type (0, 1), BuildingBlock: XUDNAN_clean_linker_2, # of connection points: 2
#     Edge 26, Type (0, 1), BuildingBlock: XUDNAN_clean_linker_2, # of connection points: 2
#     Edge 27, Type (0, 1), BuildingBlock: XUDNAN_clean_linker_2, # of connection points: 2
#     Edge 28, Type (0, 1), BuildingBlock: XUDNAN_clean_linker_2, # of connection points: 2
#     Edge 29, Type (0, 1), BuildingBlock: XUDNAN_clean_linker_2, # of connection points: 2
#     Edge 30, Type (0, 1), BuildingBlock: XUDNAN_clean_linker_2, # of connection points: 2
#     Edge 31, Type (0, 1), BuildingBlock: XUDNAN_clean_linker_2, # of connection points: 2
#     Edge 32, Type (0, 1), BuildingBlock: XUDNAN_clean_linker_2, # of connection points: 2
#     Edge 33, Type (0, 1), BuildingBlock: XUDNAN_clean_linker_2, # of connection points: 2
#     Edge 34, Type (0, 1), BuildingBlock: XUDNAN_clean_linker_2, # of connection points: 2
#     Edge 35, Type (0, 1), BuildingBlock: XUDNAN_clean_linker_2, # of connection points: 2
# Relax obj value: 0.104
# Max RMSD: 0.128
# Mean RMSD: 0.060
data_MOF--net-pyr--node1-BETDAH_clean_sbu_0--node2-BELTOD_clean_linker_0--edge1-XUDNAN_clean_linker_2
_symmetry_space_group_name_H-M    P1
_symmetry_Int_Tables_number       1
_symmetry_cell_setting            triclinic
loop_
_symmetry_equiv_pos_as_xyz
'x, y, z'
_cell_length_a     42.845547
_cell_length_b     46.352605
_cell_length_c     41.608321
_cell_angle_alpha  91.125583
_cell_angle_beta   89.118195
_cell_angle_gamma 100.08627
loop_
_atom_site_label
_atom_site_type_symbol
_atom_site_fract_x
_atom_site_fract_y
_atom_site_fract_z
_atom_type_partial_charge
P0 P 0.36204 0.31194 0.23602 0.0
H1 H 0.42678 0.30456 0.21878 0.0
H2 H 0.44948 0.26164 0.20207 0.0
H3 H 0.35581 0.20866 0.20318 0.0
H4 H 0.33332 0.25174 0.21923 0.0
H5 H 0.34358 0.36913 0.23446 0.0
H6 H 0.30792 0.38941 0.19937 0.0
H7 H 0.30263 0.31358 0.13635 0.0
H8 H 0.33849 0.29359 0.17131 0.0
H9 H 0.36601 0.28819 0.29986 0.0
H10 H 0.29226 0.30339 0.23609 0.0
O11 O 0.39028 0.33601 0.25389 0.0
H12 H 0.32568 0.26277 0.33676 0.0
H13 H 0.25226 0.27903 0.27297 0.0
C14 C 0.37848 0.28119 0.22067 0.0
C15 C 0.41115 0.28374 0.21521 0.0
C16 C 0.42409 0.25916 0.20586 0.0
C17 C 0.40447 0.23165 0.20168 0.0
C18 C 0.37155 0.22952 0.20604 0.0
C19 C 0.35869 0.2541 0.21541 0.0
C20 C 0.34398 0.33005 0.20533 0.0
C21 C 0.33561 0.35737 0.21251 0.0
C22 C 0.31496 0.36877 0.19264 0.0
C23 C 0.30228 0.35295 0.16528 0.0
C24 C 0.31225 0.3264 0.1571 0.0
C25 C 0.3328 0.31494 0.17711 0.0
C26 C 0.33225 0.29801 0.26542 0.0
C27 C 0.34118 0.28672 0.2942 0.0
C28 C 0.31813 0.27226 0.31526 0.0
C29 C 0.2858 0.26876 0.30766 0.0
C30 C 0.27699 0.28101 0.27928 0.0
C31 C 0.29997 0.29529 0.25826 0.0
P32 P 0.36966 0.9408 0.58099 0.0
H33 H 0.3927 0.98796 0.62693 0.0
H34 H 0.39982 0.98869 0.68512 0.0
H35 H 0.36923 0.89467 0.68618 0.0
H36 H 0.36359 0.89411 0.62805 0.0
H37 H 0.4293 0.92221 0.56555 0.0
H38 H 0.44262 0.87496 0.54862 0.0
H39 H 0.34291 0.83854 0.54218 0.0
H40 H 0.32975 0.88587 0.5589 0.0
H41 H 0.31248 0.92199 0.62044 0.0
H42 H 0.33644 0.9653 0.53029 0.0
O43 O 0.39267 0.96931 0.56387 0.0
H44 H 0.25758 0.92805 0.61494 0.0
H45 H 0.28107 0.97075 0.52414 0.0
C46 C 0.37817 0.94096 0.62317 0.0
C47 C 0.38815 0.96748 0.63968 0.0
C48 C 0.39184 0.96787 0.67301 0.0
C49 C 0.38501 0.94173 0.69044 0.0
C50 C 0.3753 0.91515 0.67358 0.0
C51 C 0.37199 0.91478 0.64026 0.0
C52 C 0.37862 0.9076 0.56309 0.0
C53 C 0.41034 0.90422 0.55977 0.0
C54 C 0.4179 0.8772 0.55033 0.0
C55 C 0.39379 0.85308 0.54416 0.0
C56 C 0.36197 0.85685 0.54637 0.0
C57 C 0.35444 0.8839 0.55599 0.0
C58 C 0.32875 0.94391 0.57615 0.0
C59 C 0.30599 0.9328 0.59942 0.0
C60 C 0.27442 0.93601 0.59609 0.0
C61 C 0.26499 0.95012 0.56925 0.0
C62 C 0.28772 0.96032 0.54543 0.0
C63 C 0.31933 0.95714 0.54884 0.0
P64 P 0.65578 0.33295 0.85381 0.0
H65 H 0.72055 0.32464 0.86885 0.0
H66 H 0.76437 0.35398 0.89789 0.0
H67 H 0.70365 0.41581 0.92527 0.0
H68 H 0.66018 0.38666 0.89498 0.0
H69 H 0.63016 0.27079 0.83923 0.0
H70 H 0.60691 0.2295 0.87212 0.0
H71 H 0.60252 0.28876 0.95292 0.0
H72 H 0.62755 0.32978 0.91999 0.0
H73 H 0.6802 0.38936 0.82451 0.0
H74 H 0.59158 0.32899 0.82406 0.0
O75 O 0.67497 0.31525 0.82677 0.0
H76 H 0.66173 0.41678 0.7814 0.0
H77 H 0.57261 0.35699 0.78063 0.0
C78 C 0.687 0.35362 0.87901 0.0
C79 C 0.71654 0.3445 0.88111 0.0
C80 C 0.74174 0.36132 0.89811 0.0
C81 C 0.73816 0.38776 0.9139 0.0
C82 C 0.70794 0.3961 0.9129 0.0
C83 C 0.68277 0.37926 0.89573 0.0
C84 C 0.63106 0.30376 0.87691 0.0
C85 C 0.62392 0.27509 0.86395 0.0
C86 C 0.61032 0.25118 0.88302 0.0
C87 C 0.60295 0.25502 0.91586 0.0
C88 C 0.60851 0.28419 0.92822 0.0
C89 C 0.62248 0.30807 0.90914 0.0
C90 C 0.63713 0.35734 0.82869 0.0
C91 C 0.6562 0.38253 0.81612 0.0
C92 C 0.64566 0.3982 0.79103 0.0
C93 C 0.61553 0.38935 0.77736 0.0
C94 C 0.59574 0.36481 0.79077 0.0
C95 C 0.60657 0.34879 0.8158 0.0
P96 P 0.83241 0.68591 0.34476 0.0
H97 H 0.87603 0.73381 0.31622 0.0
H98 H 0.90561 0.77961 0.33691 0.0
H99 H 0.87952 0.75261 0.43394 0.0
H100 H 0.84844 0.70687 0.41242 0.0
H101 H 0.8051 0.6532 0.2887 0.0
H102 H 0.82514 0.62478 0.24603 0.0
H103 H 0.9176 0.6404 0.2894 0.0
H104 H 0.89716 0.67022 0.33219 0.0
H105 H 0.78813 0.70024 0.39488 0.0
H106 H 0.81486 0.62169 0.35456 0.0
O107 O 0.80822 0.7031 0.32417 0.0
H108 H 0.74397 0.67072 0.42391 0.0
H109 H 0.77094 0.59204 0.38354 0.0
C110 C 0.86029 0.71634 0.36254 0.0
C111 C 0.87716 0.73733 0.34202 0.0
C112 C 0.89429 0.76382 0.35413 0.0
C113 C 0.89564 0.77034 0.38748 0.0
C114 C 0.87908 0.7489 0.40818 0.0
C115 C 0.86153 0.72235 0.39586 0.0
C116 C 0.84941 0.66404 0.31394 0.0
C117 C 0.82976 0.65074 0.28921 0.0
C118 C 0.84136 0.63417 0.26468 0.0
C119 C 0.87311 0.62969 0.26405 0.0
C120 C 0.89311 0.64333 0.28875 0.0
C121 C 0.88134 0.66023 0.31348 0.0
C122 C 0.80539 0.66341 0.37266 0.0
C123 C 0.78517 0.67658 0.393 0.0
C124 C 0.75969 0.65957 0.4096 0.0
C125 C 0.75334 0.62879 0.406 0.0
C126 C 0.77451 0.61563 0.38664 0.0
C127 C 0.80006 0.63266 0.3702 0.0
P128 P 0.70839 0.80685 0.87613 0.0
H129 H 0.67645 0.80634 0.93804 0.0
H130 H 0.62998 0.82656 0.95538 0.0
H131 H 0.60762 0.8388 0.85628 0.0
H132 H 0.65359 0.8177 0.83897 0.0
H133 H 0.76178 0.78189 0.85328 0.0
H134 H 0.78451 0.74023 0.86975 0.0
H135 H 0.70593 0.71519 0.93558 0.0
H136 H 0.6823 0.75669 0.91784 0.0
H137 H 0.73524 0.86149 0.84507 0.0
H138 H 0.69986 0.77206 0.81616 0.0
O139 O 0.73215 0.83154 0.89841 0.0
H140 H 0.75655 0.87197 0.79129 0.0
H141 H 0.72086 0.78248 0.76163 0.0
C142 C 0.6686 0.8106 0.88727 0.0
C143 C 0.66076 0.81207 0.91997 0.0
C144 C 0.63438 0.82393 0.92987 0.0
C145 C 0.61562 0.83482 0.90717 0.0
C146 C 0.62164 0.83057 0.87429 0.0
C147 C 0.64805 0.81857 0.86439 0.0
C148 C 0.72011 0.77228 0.88398 0.0
C149 C 0.74876 0.76699 0.87048 0.0
C150 C 0.762 0.74333 0.88023 0.0
C151 C 0.74726 0.72475 0.90433 0.0
C152 C 0.71774 0.72914 0.91687 0.0
C153 C 0.70429 0.75292 0.90684 0.0
C154 C 0.71692 0.81581 0.83472 0.0
C155 C 0.73147 0.84425 0.82688 0.0
C156 C 0.74339 0.85027 0.79593 0.0
C157 C 0.74073 0.82793 0.77223 0.0
C158 C 0.7237 0.8 0.77953 0.0
C159 C 0.71166 0.79404 0.81059 0.0
P160 P 0.85567 0.26978 0.35515 0.0
H161 H 0.87134 0.32253 0.39578 0.0
H162 H 0.83835 0.35327 0.42415 0.0
H163 H 0.75422 0.29607 0.39004 0.0
H164 H 0.78717 0.26529 0.36269 0.0
H165 H 0.91267 0.24901 0.37615 0.0
H166 H 0.92029 0.20655 0.40683 0.0
H167 H 0.81872 0.18206 0.41897 0.0
H168 H 0.81147 0.22528 0.38931 0.0
H169 H 0.82824 0.29834 0.30355 0.0
H170 H 0.83912 0.21033 0.3266 0.0
O171 O 0.89042 0.29017 0.34521 0.0
H172 H 0.79486 0.27927 0.25805 0.0
H173 H 0.80481 0.1911 0.28251 0.0
C174 C 0.83167 0.29204 0.37662 0.0
C175 C 0.84578 0.31667 0.39452 0.0
C176 C 0.82692 0.33423 0.41064 0.0
C177 C 0.79365 0.32719 0.40928 0.0
C178 C 0.77973 0.30196 0.39197 0.0
C179 C 0.79857 0.28447 0.37599 0.0
C180 C 0.86153 0.24031 0.38056 0.0
C181 C 0.89208 0.23474 0.38581 0.0
C182 C 0.89636 0.21025 0.4031 0.0
C183 C 0.87007 0.19063 0.41506 0.0
C184 C 0.83949 0.19681 0.41043 0.0
C185 C 0.8353 0.2215 0.3934 0.0
C186 C 0.83555 0.25576 0.31892 0.0
C187 C 0.82363 0.27495 0.29868 0.0
C188 C 0.80436 0.26399 0.27285 0.0
C189 C 0.79672 0.2336 0.26685 0.0
C190 C 0.81029 0.21463 0.28619 0.0
C191 C 0.82971 0.22563 0.31182 0.0
P192 P 0.35684 0.68217 0.21446 0.0
H193 H 0.32931 0.67372 0.14983 0.0
H194 H 0.27866 0.6474 0.12908 0.0
H195 H 0.24543 0.62932 0.22617 0.0
H196 H 0.29562 0.65661 0.24684 0.0
H197 H 0.41657 0.72547 0.21776 0.0
H198 H 0.432 0.77529 0.19712 0.0
H199 H 0.33448 0.77628 0.17379 0.0
H200 H 0.31925 0.72687 0.19464 0.0
H201 H 0.33849 0.62373 0.24108 0.0
H202 H 0.39744 0.70414 0.27192 0.0
O203 O 0.38111 0.6688 0.18866 0.0
H204 H 0.35533 0.59859 0.28637 0.0
H205 H 0.41607 0.67824 0.31724 0.0
C206 C 0.31693 0.66666 0.20001 0.0
C207 C 0.31098 0.66453 0.16676 0.0
C208 C 0.28187 0.64949 0.15484 0.0
C209 C 0.25796 0.63579 0.17584 0.0
C210 C 0.2634 0.6392 0.2092 0.0
C211 C 0.29225 0.65482 0.22111 0.0
C212 C 0.36654 0.72204 0.20838 0.0
C213 C 0.39826 0.73674 0.20929 0.0
C214 C 0.40717 0.76537 0.19718 0.0
C215 C 0.38469 0.78007 0.18321 0.0
C216 C 0.35272 0.76577 0.18377 0.0
C217 C 0.34384 0.73734 0.19612 0.0
C218 C 0.36557 0.66638 0.25308 0.0
C219 C 0.35442 0.63641 0.25809 0.0
C220 C 0.36472 0.62172 0.28402 0.0
C221 C 0.38762 0.63599 0.30572 0.0
C222 C 0.39829 0.66634 0.30141 0.0
C223 C 0.38759 0.68126 0.27531 0.0
P224 P 0.17098 0.33793 0.73283 0.0
H225 H 0.19216 0.31111 0.67391 0.0
H226 H 0.16896 0.27056 0.639 0.0
H227 H 0.0828 0.2593 0.69578 0.0
H228 H 0.10606 0.30099 0.73053 0.0
H229 H 0.23265 0.3675 0.75575 0.0
H230 H 0.27856 0.39693 0.73015 0.0
H231 H 0.22655 0.39541 0.64187 0.0
H232 H 0.18032 0.36541 0.66795 0.0
H233 H 0.12811 0.31565 0.78548 0.0
H234 H 0.16185 0.40008 0.7445 0.0
O235 O 0.18963 0.31796 0.75651 0.0
H236 H 0.10158 0.33851 0.82845 0.0
H237 H 0.13433 0.42349 0.7874 0.0
C238 C 0.15055 0.31052 0.70422 0.0
C239 C 0.16786 0.30082 0.67843 0.0
C240 C 0.15462 0.27713 0.65856 0.0
C241 C 0.12379 0.26153 0.66424 0.0
C242 C 0.10658 0.27068 0.69058 0.0
C243 C 0.11978 0.29488 0.71029 0.0
C244 C 0.20295 0.36368 0.71382 0.0
C245 C 0.23086 0.37362 0.73095 0.0
C246 C 0.25727 0.39067 0.71616 0.0
C247 C 0.25668 0.39864 0.68366 0.0
C248 C 0.22826 0.38941 0.66672 0.0
C249 C 0.20162 0.37239 0.68172 0.0
C250 C 0.14656 0.3558 0.76099 0.0
C251 C 0.12909 0.33914 0.78513 0.0
C252 C 0.11382 0.35247 0.81 0.0
C253 C 0.11521 0.38316 0.81178 0.0
C254 C 0.13265 0.39992 0.78733 0.0
C255 C 0.14812 0.38643 0.76234 0.0
Ho256 Ho 0.02465 0.03366 0.48202 0.0
Ho257 Ho 0.99672 1.01011 0.54509 0.0
C258 C 0.03552 0.07775 0.54227 0.0
C259 C 0.04127 0.05359 0.42564 0.0
C260 C 0.06388 0.07945 0.41534 0.0
C261 C 0.06715 0.10587 0.43311 0.0
C262 C 0.09099 0.12933 0.42528 0.0
C263 C 0.11208 0.12679 0.39959 0.0
C264 C 0.10822 0.10052 0.38136 0.0
C265 C 0.08432 0.07706 0.38921 0.0
C266 C 0.06634 1.0159 0.52165 0.0
C267 C 0.98496 0.96643 0.4839 0.0
C268 C 0.98262 0.98995 0.60172 0.0
C269 C 0.95627 0.96779 0.61339 0.0
C270 C 0.96197 0.94707 0.63565 0.0
C271 C 0.93722 0.92534 0.64602 0.0
C272 C 0.90637 0.92416 0.63438 0.0
C273 C 0.9008 0.94481 0.6119 0.0
C274 C 0.92556 0.96631 0.60133 0.0
C275 C 0.95514 0.03003 0.50655 0.0
O276 O 0.0327 0.07569 0.51065 0.0
O277 O 0.02688 0.05425 0.5604 0.0
O278 O 0.05394 0.03331 0.43918 0.0
O279 O 0.0159 0.05872 0.44093 0.0
O280 O 0.0727 0.03882 0.50385 0.0
O281 O 0.03837 1.00289 0.51683 0.0
O282 O 0.98415 0.9681 0.51571 0.0
O283 O 0.99645 0.98963 0.46645 0.0
O284 O 0.97497 1.01432 0.59166 0.0
O285 O 1.00308 0.98007 0.58269 0.0
O286 O 0.94737 1.00843 0.52603 0.0
O287 O 0.98372 0.04126 0.51073 0.0
H288 H 0.05169 0.10821 0.45346 0.0
H289 H 0.09305 0.1494 0.43948 0.0
H290 H 0.12431 0.09773 0.36167 0.0
H291 H 0.08235 0.05675 0.37544 0.0
H292 H 0.98556 0.9477 0.64498 0.0
H293 H 0.94206 0.90985 0.66363 0.0
H294 H 0.8773 0.94422 0.60238 0.0
H295 H 0.92064 0.98175 0.5837 0.0
Ho296 Ho 0.52286 1.02234 0.07635 0.0
Ho297 Ho 0.46479 1.02205 0.04208 0.0
C298 C 0.47558 0.05896 0.10787 0.0
C299 C 0.58104 0.02978 0.09519 0.0
C300 C 0.6036 0.05499 0.10751 0.0
C301 C 0.60204 0.08352 0.09782 0.0
C302 C 0.6224 0.10751 0.11101 0.0
C303 C 0.6446 0.1034 0.13428 0.0
C304 C 0.64636 0.07469 0.14356 0.0
C305 C 0.62601 0.0507 0.13027 0.0
C306 C 0.47632 0.9771 0.09545 0.0
C307 C 0.51268 0.98608 1.00889 0.0
C308 C 0.40878 1.01643 1.01807 0.0
C309 C 0.39746 1.00582 0.98577 0.0
C310 C 0.38277 0.97651 0.98096 0.0
C311 C 0.3772 0.96499 0.94986 0.0
C312 C 0.38601 0.98262 0.92298 0.0
C313 C 0.39877 1.0124 0.92788 0.0
C314 C 0.40436 1.0239 0.9589 0.0
C315 C 0.51239 0.06546 1.02162 0.0
O316 O 0.5059 0.05873 0.10298 0.0
O317 O 0.45414 0.0422 0.09011 0.0
O318 O 0.5568 1.02059 0.11398 0.0
O319 O 0.57298 0.03088 0.06512 0.0
O320 O 0.497 0.99233 0.1142 0.0
O321 O 0.48209 0.98609 0.06704 0.0
O322 O 0.4829 0.98963 1.00963 0.0
O323 O 0.53295 0.99902 0.03044 0.0
O324 O 0.42857 0.04127 1.01918 0.0
O325 O 0.41745 0.99692 0.03665 0.0
O326 O 0.49298 0.04849 1.00297 0.0
O327 O 0.506 0.05811 0.05056 0.0
H328 H 0.58488 0.08726 0.08028 0.0
H329 H 0.62068 0.12928 0.10304 0.0
H330 H 0.66284 0.07077 0.16178 0.0
H331 H 0.62737 0.02883 0.13819 0.0
H332 H 0.37684 0.96212 1.00119 0.0
H333 H 0.36676 0.94209 0.94684 0.0
H334 H 0.40603 0.02654 0.9077 0.0
H335 H 0.41549 0.04664 0.96166 0.0
Ho336 Ho 0.50421 0.48444 0.52217 0.0
Ho337 Ho 0.50243 0.53784 0.56011 0.0
C338 C 0.53614 0.49037 0.59219 0.0
C339 C 0.52249 0.44076 0.4922 0.0
C340 C 0.55369 0.4321 0.48889 0.0
C341 C 0.58068 0.45053 0.50083 0.0
C342 C 0.61064 0.44306 0.49636 0.0
C343 C 0.61412 0.41709 0.47974 0.0
C344 C 0.58687 0.3985 0.46823 0.0
C345 C 0.55687 0.40597 0.4728 0.0
C346 C 0.44929 0.48201 0.55699 0.0
C347 C 0.47364 0.53324 0.48648 0.0
C348 C 0.48436 0.58148 0.59022 0.0
C349 C 0.47642 0.60938 0.58003 0.0
C350 C 0.47852 0.61701 0.54749 0.0
C351 C 0.46883 0.64266 0.53761 0.0
C352 C 0.4574 0.66126 0.56025 0.0
C353 C 0.45595 0.6538 0.59292 0.0
C354 C 0.46526 0.62796 0.6027 0.0
C355 C 0.55789 0.54037 0.52617 0.0
O356 O 0.54 0.48289 0.56171 0.0
O357 O 0.51745 0.50958 0.59922 0.0
O358 O 0.50991 0.43889 0.52101 0.0
O359 O 0.52012 0.46534 0.4785 0.0
O360 O 0.45103 0.47056 0.52849 0.0
O361 O 0.47696 0.49273 0.56605 0.0
O362 O 0.47686 0.54791 0.51433 0.0
O363 O 0.48368 0.50796 0.48324 0.0
O364 O 0.51409 0.5787 0.5869 0.0
O365 O 0.46485 0.55815 0.5805 0.0
O366 O 0.55555 0.55173 0.55466 0.0
O367 O 0.53036 0.52956 0.51651 0.0
H368 H 0.57864 0.4709 0.51319 0.0
H369 H 0.63107 0.45769 0.50582 0.0
H370 H 0.58877 0.37856 0.45491 0.0
H371 H 0.53625 0.39162 0.4633 0.0
H372 H 0.48743 0.60308 0.52971 0.0
H373 H 0.47049 0.64805 0.51236 0.0
H374 H 0.44696 0.66764 0.61082 0.0
H375 H 0.46337 0.62229 0.62788 0.0
Ho376 Ho 0.99901 0.47945 0.05875 0.0
Ho377 Ho 1.00294 0.53476 0.02663 0.0
C378 C 0.06171 0.531 0.06961 0.0
C379 C 0.013 0.43113 0.07938 0.0
C380 C 0.04394 0.42206 0.08305 0.0
C381 C 0.06976 0.43416 0.06349 0.0
C382 C 0.0994 0.42622 0.06739 0.0
C383 C 0.10386 0.40619 0.09108 0.0
C384 C 0.07797 0.3942 0.11073 0.0
C385 C 0.04821 0.40207 0.1067 0.0
C386 C 0.96477 0.51515 0.09093 0.0
C387 C 0.93911 0.48485 1.01753 0.0
C388 C 0.99116 0.58265 1.00242 0.0
C389 C 0.96182 0.59286 0.994 0.0
C390 C 0.93316 0.58252 1.01021 0.0
C391 C 0.90533 0.59214 1.00164 0.0
C392 C 0.90574 0.61227 0.97674 0.0
C393 C 0.93447 0.6222 0.96031 0.0
C394 C 0.96225 0.61258 0.9689 0.0
C395 C 0.0324 0.49506 0.99322 0.0
O396 O 0.04949 0.50266 0.06952 0.0
O397 O 0.04657 0.54968 0.05577 0.0
O398 O 1.0075 0.45238 0.09853 0.0
O399 O 1.00485 0.43467 0.04979 0.0
O400 O 0.95661 0.48699 0.08731 0.0
O401 O 0.99196 0.52344 0.078 0.0
O402 O 0.95164 0.51312 1.01807 0.0
O403 O 0.95477 0.46558 0.02972 0.0
O404 O 0.99797 0.56085 0.98501 0.0
O405 O 0.99561 0.57947 0.03303 0.0
O406 O 0.04384 0.52284 0.99591 0.0
O407 O 1.00615 0.4904 1.00799 0.0
H408 H 0.06708 0.44991 0.04527 0.0
H409 H 0.11897 0.43616 0.05223 0.0
H410 H 0.08067 0.37856 0.12904 0.0
H411 H 0.02858 0.39265 0.1221 0.0
H412 H 0.93231 0.56711 0.02958 0.0
H413 H 0.88368 0.58426 1.01492 0.0
H414 H 0.93547 0.6373 0.94063 0.0
H415 H 0.98409 0.6205 0.95591 0.0
H416 H 0.23551 0.22829 0.28739 0.0
H417 H 0.28125 0.26817 0.37369 0.0
H418 H 0.24085 0.23699 0.40697 0.0
H419 H 0.15469 0.22248 0.31678 0.0
H420 H 0.14173 0.18781 0.29653 0.0
H421 H 0.17386 0.21375 0.27987 0.0
H422 H 0.2099 0.17427 0.27973 0.0
H423 H 0.17795 0.14825 0.29649 0.0
H424 H 0.21552 0.15615 0.31661 0.0
H425 H 0.19582 0.20057 0.43053 0.0
H426 H 0.15048 0.16133 0.44259 0.0
H427 H 0.13396 0.14679 0.3404 0.0
C428 C 0.23679 0.23087 0.31329 0.0
C429 C 0.26137 0.25082 0.32798 0.0
C430 C 0.26268 0.25292 0.36196 0.0
C431 C 0.23977 0.23543 0.38102 0.0
C432 C 0.21582 0.21602 0.36567 0.0
C433 C 0.21422 0.21368 0.33256 0.0
C434 C 0.18664 0.19071 0.32187 0.0
C435 C 0.16282 0.20452 0.30263 0.0
C436 C 0.19821 0.16588 0.30254 0.0
C437 C 0.173 0.18028 0.35415 0.0
C438 C 0.19005 0.19518 0.37914 0.0
C439 C 0.18216 0.18891 0.41115 0.0
C440 C 0.15627 0.16671 0.41775 0.0
C441 C 0.13861 0.15104 0.39243 0.0
C442 C 0.14712 0.15817 0.36028 0.0
H443 H 0.36855 0.98307 0.73267 0.0
H444 H 0.40551 0.90155 0.72915 0.0
H445 H 0.40648 0.90157 0.78841 0.0
H446 H 0.41702 1.01534 0.79824 0.0
H447 H 0.38664 0.03352 0.81544 0.0
H448 H 0.38765 0.02631 0.77279 0.0
H449 H 0.32964 0.99858 0.77571 0.0
H450 H 0.32855 1.00548 0.81843 0.0
H451 H 0.31946 0.96844 0.80285 0.0
H452 H 0.40426 0.91089 0.84803 0.0
H453 H 0.40201 0.93033 0.9035 0.0
H454 H 0.36741 1.00614 0.8678 0.0
C455 C 0.3772 0.96534 0.74423 0.0
C456 C 0.38681 0.94223 0.72611 0.0
C457 C 0.39749 0.91926 0.74242 0.0
C458 C 0.39826 0.91912 0.77609 0.0
C459 C 0.38843 0.94216 0.79313 0.0
C460 C 0.37835 0.96496 0.77775 0.0
C461 C 0.37004 0.9876 0.80159 0.0
C462 C 0.39162 1.01745 0.79672 0.0
C463 C 0.33482 0.99015 0.79951 0.0
C464 C 0.37705 0.97397 0.83281 0.0
C465 C 0.38745 0.94769 0.82743 0.0
C466 C 0.39598 0.93136 0.85256 0.0
C467 C 0.39436 0.94247 0.88401 0.0
C468 C 0.38436 0.96968 0.89002 0.0
C469 C 0.37525 0.98535 0.86399 0.0
H470 H 0.56219 0.41493 0.76328 0.0
H471 H 0.65033 0.39651 0.72208 0.0
H472 H 0.63978 0.4204 0.67193 0.0
H473 H 0.51617 0.40493 0.68935 0.0
H474 H 0.49543 0.43494 0.69766 0.0
H475 H 0.50904 0.4156 0.73034 0.0
H476 H 0.53989 0.46447 0.7532 0.0
H477 H 0.52646 0.48393 0.72051 0.0
H478 H 0.56828 0.4872 0.72794 0.0
H479 H 0.61952 0.44501 0.62517 0.0
H480 H 0.59211 0.47058 0.58589 0.0
H481 H 0.51793 0.47731 0.65634 0.0
C482 C 0.57913 0.41581 0.7436 0.0
C483 C 0.60724 0.40361 0.74689 0.0
C484 C 0.62881 0.40564 0.72048 0.0
C485 C 0.62296 0.41919 0.69174 0.0
C486 C 0.59543 0.43121 0.68933 0.0
C487 C 0.57388 0.4299 0.71456 0.0
C488 C 0.54661 0.44546 0.70552 0.0
C489 C 0.51493 0.42395 0.70573 0.0
C490 C 0.54523 0.47183 0.72814 0.0
C491 C 0.55616 0.45548 0.67134 0.0
C492 C 0.58434 0.4467 0.66257 0.0
C493 C 0.5976 0.4522 0.63196 0.0
C494 C 0.58178 0.46684 0.60969 0.0
C495 C 0.55298 0.47651 0.61781 0.0
C496 C 0.54018 0.47082 0.64938 0.0
H497 H 0.93142 0.63421 0.22962 0.0
H498 H 0.83937 0.57836 0.24062 0.0
H499 H 0.85277 0.54636 0.19694 0.0
H500 H 0.93747 0.62712 0.1426 0.0
H501 H 0.97912 0.62516 0.14156 0.0
H502 H 0.96305 0.64479 0.17386 0.0
H503 H 0.98513 0.61313 0.21549 0.0
H504 H 1.00147 0.59357 0.18332 0.0
H505 H 0.97497 0.57376 0.21256 0.0
H506 H 0.87405 0.52049 0.15177 0.0
H507 H 0.90429 0.49911 0.10991 0.0
H508 H 0.98509 0.56845 0.12606 0.0
C509 C 0.91418 0.61514 0.22297 0.0
C510 C 0.88381 0.60951 0.23856 0.0
C511 C 0.86227 0.58406 0.22886 0.0
C512 C 0.86976 0.56546 0.204 0.0
C513 C 0.89922 0.57199 0.18872 0.0
C514 C 0.9214 0.59593 0.1979 0.0
C515 C 0.95159 0.597 0.17731 0.0
C516 C 0.9582 0.6252 0.15767 0.0
C517 C 0.97998 0.5942 0.19843 0.0
C518 C 0.94271 0.56997 0.15532 0.0
C519 C 0.91218 0.55621 0.16251 0.0
C520 C 0.89804 0.53098 0.14607 0.0
C521 C 0.91555 0.51898 0.12216 0.0
C522 C 0.94723 0.5318 0.11445 0.0
C523 C 0.9609 0.55808 0.13109 0.0
H524 H 0.3825 0.18695 0.15888 0.0
H525 H 0.45784 0.21639 0.22677 0.0
H526 H 0.48145 0.17271 0.21352 0.0
H527 H 0.37505 0.10837 0.17459 0.0
H528 H 0.36787 0.09794 0.13303 0.0
H529 H 0.35578 0.13072 0.14909 0.0
H530 H 0.38837 0.16132 0.10458 0.0
H531 H 0.40036 0.12864 0.08832 0.0
H532 H 0.42991 0.15971 0.09956 0.0
H533 H 0.49869 0.12785 0.1907 0.0
H534 H 0.50943 0.08538 0.15842 0.0
H535 H 0.42203 0.08384 0.10656 0.0
C536 C 0.4037 0.18398 0.17132 0.0
C537 C 0.41837 0.20514 0.19382 0.0
C538 C 0.44642 0.2007 0.20913 0.0
C539 C 0.45983 0.17581 0.20202 0.0
C540 C 0.44481 0.15544 0.1797 0.0
C541 C 0.41737 0.15921 0.16455 0.0
C542 C 0.40688 0.13473 0.14032 0.0
C543 C 0.37447 0.11688 0.14984 0.0
C544 C 0.40637 0.14683 0.10618 0.0
C545 C 0.43306 0.11691 0.14377 0.0
C546 C 0.45455 0.12916 0.16681 0.0
C547 C 0.48184 0.11781 0.17291 0.0
C548 C 0.48772 0.0937 0.15446 0.0
C549 C 0.46638 0.08116 0.13027 0.0
C550 C 0.43837 0.09256 0.12539 0.0
H551 H 0.24473 0.99944 0.54898 0.0
H552 H 0.21022 0.91174 0.58354 0.0
H553 H 0.15506 0.92027 0.57933 0.0
H554 H 0.18553 0.03505 0.58821 0.0
H555 H 0.18274 0.05861 0.55481 0.0
H556 H 0.21942 0.04606 0.56223 0.0
H557 H 0.21936 1.02459 0.50419 0.0
H558 H 0.18287 0.03729 0.49653 0.0
H559 H 0.18526 0.99913 0.49043 0.0
H560 H 0.10341 0.93781 0.56855 0.0
H561 H 0.05997 0.96247 0.55064 0.0
H562 H 0.12916 0.03828 0.5235 0.0
C563 C 0.22561 0.98194 0.55554 0.0
C564 C 0.23179 0.95492 0.56658 0.0
C565 C 0.20605 0.93275 0.57535 0.0
C566 C 0.17466 0.93736 0.57298 0.0
C567 C 0.16946 0.96429 0.56194 0.0
C568 C 0.19426 0.98616 0.55334 0.0
C569 C 0.18247 1.01273 0.54108 0.0
C570 C 0.19317 0.0397 0.5629 0.0
C571 C 0.19311 1.01877 0.50598 0.0
C572 C 0.1471 1.00227 0.5437 0.0
C573 C 0.13996 0.97436 0.55595 0.0
C574 C 0.10872 0.95976 0.55919 0.0
C575 C 0.08424 0.97391 0.54904 0.0
C576 C 0.09131 1.00223 0.53582 0.0
C577 C 0.12307 1.01669 0.53375 0.0
H578 H 0.78936 0.37182 0.94632 0.0
H579 H 0.75126 0.44814 0.91739 0.0
H580 H 0.79677 0.48026 0.94199 0.0
H581 H 0.82187 0.40188 1.02247 0.0
H582 H 0.8569 0.38538 1.01899 0.0
H583 H 0.82068 0.36798 1.00016 0.0
H584 H 0.85002 0.36826 0.9453 0.0
H585 H 0.88632 0.38564 0.96396 0.0
H586 H 0.87133 0.40237 0.93007 0.0
H587 H 0.84748 0.50479 0.96848 0.0
H588 H 0.89913 0.51957 0.99461 0.0
H589 H 0.90619 0.42805 1.00613 0.0
C590 C 0.79049 0.39527 0.94499 0.0
C591 C 0.76599 0.40712 0.92991 0.0
C592 C 0.76886 0.43811 0.92925 0.0
C593 C 0.79494 0.45671 0.94301 0.0
C594 C 0.81847 0.44431 0.95751 0.0
C595 C 0.81654 0.41429 0.95862 0.0
C596 C 0.84548 0.40674 0.97528 0.0
C597 C 0.83563 0.38947 1.00605 0.0
C598 C 0.86441 0.38975 0.95228 0.0
C599 C 0.86402 0.43717 0.98317 0.0
C600 C 0.84787 0.45849 0.97271 0.0
C601 C 0.86022 0.48822 0.97681 0.0
C602 C 0.88976 0.49643 0.99177 0.0
C603 C 0.90708 0.47514 1.0027 0.0
C604 C 0.89371 0.44501 0.99833 0.0
H605 H 0.72407 0.63515 0.46572 0.0
H606 H 0.7144 0.58156 0.37851 0.0
H607 H 0.66506 0.5526 0.40012 0.0
H608 H 0.69383 0.5761 0.52069 0.0
H609 H 0.67329 0.59868 0.54623 0.0
H610 H 0.70839 0.61493 0.52432 0.0
H611 H 0.67712 0.65131 0.49846 0.0
H612 H 0.64195 0.63517 0.52029 0.0
H613 H 0.64116 0.63736 0.47712 0.0
H614 H 0.61459 0.5304 0.43029 0.0
H615 H 0.56879 0.51633 0.46725 0.0
H616 H 0.61114 0.58293 0.53572 0.0
C617 C 0.71164 0.61732 0.45111 0.0
C618 C 0.7237 0.61072 0.42029 0.0
C619 C 0.7064 0.58696 0.40233 0.0
C620 C 0.67805 0.5704 0.41435 0.0
C621 C 0.66691 0.5775 0.44466 0.0
C622 C 0.68327 0.60031 0.46291 0.0
C623 C 0.66601 0.60339 0.49476 0.0
C624 C 0.68661 0.59795 0.52318 0.0
C625 C 0.65597 0.6336 0.49783 0.0
C626 C 0.63728 0.57901 0.49141 0.0
C627 C 0.63822 0.56439 0.46225 0.0
C628 C 0.61381 0.54164 0.45326 0.0
C629 C 0.5878 0.53377 0.47441 0.0
C630 C 0.58627 0.54831 0.50451 0.0
C631 C 0.61163 0.57112 0.51306 0.0
H632 H 0.2503 0.37215 0.19048 0.0
H633 H 0.29509 0.35419 0.09982 0.0
H634 H 0.2495 0.36681 0.07059 0.0
H635 H 0.17216 0.34148 0.16865 0.0
H636 H 0.15397 0.36842 0.19024 0.0
H637 H 0.1909 0.35977 0.20379 0.0
H638 H 0.21695 0.41453 0.20077 0.0
H639 H 0.18 0.42341 0.18749 0.0
H640 H 0.21559 0.43379 0.16373 0.0
H641 H 0.19815 0.38015 0.05163 0.0
H642 H 0.14503 0.39283 0.04431 0.0
H643 H 0.13428 0.40166 0.14772 0.0
C644 C 0.25087 0.37148 0.16445 0.0
C645 C 0.27636 0.36252 0.14735 0.0
C646 C 0.27576 0.36104 0.11333 0.0
C647 C 0.25005 0.36822 0.09657 0.0
C648 C 0.22514 0.37669 0.11425 0.0
C649 C 0.2254 0.37837 0.14744 0.0
C650 C 0.19524 0.38697 0.16088 0.0
C651 C 0.177 0.36271 0.18214 0.0
C652 C 0.20238 0.41643 0.1793 0.0
C653 C 0.17782 0.3897 0.13007 0.0
C654 C 0.19549 0.38386 0.10342 0.0
C655 C 0.18418 0.3849 0.07232 0.0
C656 C 0.15405 0.39219 0.06841 0.0
C657 C 0.13554 0.39819 0.09545 0.0
C658 C 0.14771 0.39686 0.12662 0.0
H659 H 0.56733 0.19956 0.89986 0.0
H660 H 0.61212 0.24976 0.98124 0.0
H661 H 0.59409 0.20787 1.01623 0.0
H662 H 0.49945 0.16065 0.94274 0.0
H663 H 0.49901 0.12666 0.92082 0.0
H664 H 0.51452 0.16097 0.90202 0.0
H665 H 0.56745 0.14301 0.89005 0.0
H666 H 0.5521 0.10865 0.90885 0.0
H667 H 0.58866 0.13043 0.92257 0.0
H668 H 0.5704 0.15967 0.04358 0.0
H669 H 0.54413 0.11006 0.0596 0.0
H670 H 0.51774 0.08935 0.96058 0.0
C671 C 0.57368 0.20194 0.92495 0.0
C672 C 0.59113 0.22886 0.93731 0.0
C673 C 0.59821 0.23025 0.97068 0.0
C674 C 0.58828 0.20623 0.99096 0.0
C675 C 0.5713 0.18029 0.97794 0.0
C676 C 0.56416 0.17795 0.94563 0.0
C677 C 0.54595 0.14736 0.93762 0.0
C678 C 0.51276 0.14902 0.92506 0.0
C679 C 0.56466 0.13142 0.91333 0.0
C680 C 0.54394 0.13291 0.97042 0.0
C681 C 0.55864 0.15235 0.9934 0.0
C682 C 0.55916 0.14428 0.0256 0.0
C683 C 0.54434 0.11584 0.03452 0.0
C684 C 0.52932 0.09529 1.01146 0.0
C685 C 0.5293 0.10421 0.9789 0.0
H686 H 0.88469 0.8044 0.44228 0.0
H687 H 0.94994 0.80271 0.36146 0.0
H688 H 0.97791 0.85147 0.37725 0.0
H689 H 0.88078 0.88092 0.44137 0.0
H690 H 0.88122 0.88621 0.4844 0.0
H691 H 0.86538 0.85081 0.46716 0.0
H692 H 0.90416 0.82706 0.50069 0.0
H693 H 0.91998 0.86239 0.51818 0.0
H694 H 0.94609 0.84109 0.49811 0.0
H695 H 0.99725 0.90192 0.39881 0.0
H696 H 1.01059 0.94876 0.42855 0.0
H697 H 0.93766 0.91835 0.49964 0.0
C698 C 0.90509 0.81401 0.42805 0.0
C699 C 0.91419 0.79935 0.39981 0.0
C700 C 0.94125 0.81331 0.38231 0.0
C701 C 0.9577 0.84115 0.39131 0.0
C702 C 0.94763 0.85512 0.4185 0.0
C703 C 0.92236 0.84191 0.43708 0.0
C704 C 0.91723 0.86191 0.46567 0.0
C705 C 0.88419 0.87046 0.46458 0.0
C706 C 0.92216 0.84723 0.49756 0.0
C707 C 0.94328 0.88844 0.45988 0.0
C708 C 0.96022 0.88396 0.43224 0.0
C709 C 0.9844 0.9055 0.42069 0.0
C710 C 0.99171 0.93222 0.43776 0.0
C711 C 0.97542 0.93748 0.46662 0.0
C712 C 0.95088 0.91503 0.47789 0.0
H713 H 0.43553 0.82748 0.57741 0.0
H714 H 0.36916 0.81183 0.4987 0.0
H715 H 0.38059 0.76145 0.49181 0.0
H716 H 0.49333 0.78492 0.54449 0.0
H717 H 0.50133 0.77164 0.58341 0.0
H718 H 0.48972 0.80698 0.58007 0.0
H719 H 0.44321 0.79112 0.62015 0.0
H720 H 0.45455 0.75573 0.62348 0.0
H721 H 0.41484 0.75836 0.61175 0.0
H722 H 0.39821 0.7121 0.49515 0.0
H723 H 0.41842 0.66737 0.51014 0.0
H724 H 0.47218 0.71596 0.58731 0.0
C725 C 0.42393 0.8137 0.55823 0.0
C726 C 0.40178 0.8236 0.5383 0.0
C727 C 0.38629 0.80461 0.51416 0.0
C728 C 0.39274 0.77608 0.50999 0.0
C729 C 0.41461 0.76695 0.53026 0.0
C730 C 0.4299 0.78524 0.55394 0.0
C731 C 0.45089 0.76977 0.57389 0.0
C732 C 0.48589 0.78418 0.57023 0.0
C733 C 0.44022 0.76868 0.60941 0.0
C734 C 0.44466 0.73971 0.55815 0.0
C735 C 0.42403 0.73855 0.53274 0.0
C736 C 0.41449 0.71282 0.5149 0.0
C737 C 0.42613 0.68759 0.52351 0.0
C738 C 0.44672 0.68828 0.54994 0.0
C739 C 0.45624 0.71478 0.56718 0.0
H740 H 0.74903 0.87675 0.73474 0.0
H741 H 0.7763 0.79138 0.74273 0.0
H742 H 0.81699 0.80433 0.70054 0.0
H743 H 0.7686 0.88723 0.64573 0.0
H744 H 0.78355 0.92566 0.65256 0.0
H745 H 0.75145 0.90708 0.6771 0.0
H746 H 0.78382 0.92415 0.72822 0.0
H747 H 0.81609 0.94235 0.70398 0.0
H748 H 0.82284 0.91517 0.73224 0.0
H749 H 0.86172 0.82993 0.6671 0.0
H750 H 0.90456 0.86529 0.64175 0.0
H751 H 0.84888 0.93418 0.65605 0.0
C752 C 0.76286 0.86044 0.72681 0.0
C753 C 0.75938 0.83303 0.74192 0.0
C754 C 0.77807 0.81231 0.73109 0.0
C755 C 0.80139 0.81953 0.70721 0.0
C756 C 0.80546 0.84739 0.69414 0.0
C757 C 0.78631 0.86736 0.70314 0.0
C758 C 0.79802 0.89703 0.68859 0.0
C759 C 0.77397 0.90469 0.66456 0.0
C760 C 0.80565 0.92106 0.71482 0.0
C761 C 0.82775 0.89109 0.67158 0.0
C762 C 0.83139 0.86222 0.6746 0.0
C763 C 0.85874 0.85239 0.66382 0.0
C764 C 0.88303 0.87262 0.64976 0.0
C765 C 0.87979 0.9023 0.64673 0.0
C766 C 0.85157 0.91143 0.65732 0.0
H767 H 0.79677 0.18575 0.22654 0.0
H768 H 0.74186 0.25323 0.25264 0.0
H769 H 0.69924 0.22992 0.21673 0.0
H770 H 0.77008 0.17423 0.14228 0.0
H771 H 0.76867 0.13519 0.14395 0.0
H772 H 0.79691 0.15963 0.16786 0.0
H773 H 0.77517 0.13178 0.21917 0.0
H774 H 0.74677 0.10742 0.19552 0.0
H775 H 0.73349 0.12771 0.2289 0.0
H776 H 0.66009 0.19637 0.1832 0.0
H777 H 0.6275 0.15521 0.15413 0.0
H778 H 0.7074 0.10907 0.15043 0.0
C779 C 0.77598 0.19588 0.22442 0.0
C780 C 0.77286 0.22149 0.24231 0.0
C781 C 0.74523 0.23402 0.23871 0.0
C782 C 0.72075 0.22083 0.21848 0.0
C783 C 0.72426 0.19517 0.20193 0.0
C784 C 0.75126 0.18291 0.20452 0.0
C785 C 0.74808 0.15401 0.1862 0.0
C786 C 0.77238 0.15589 0.15842 0.0
C787 C 0.75104 0.12875 0.2088 0.0
C788 C 0.71468 0.15149 0.17379 0.0
C789 C 0.70151 0.17563 0.18276 0.0
C790 C 0.67032 0.17758 0.17554 0.0
C791 C 0.65203 0.15412 0.15891 0.0
C792 C 0.66492 0.12896 0.14982 0.0
C793 C 0.69681 0.12793 0.15712 0.0
H794 H 0.40529 0.64892 0.37084 0.0
H795 H 0.4034 0.58199 0.29599 0.0
H796 H 0.42343 0.55004 0.3339 0.0
H797 H 0.47868 0.6351 0.40837 0.0
H798 H 0.46562 0.64097 0.44898 0.0
H799 H 0.45098 0.65959 0.4163 0.0
H800 H 0.39347 0.63834 0.43339 0.0
H801 H 0.408 0.61959 0.46603 0.0
H802 H 0.38161 0.59924 0.437 0.0
H803 H 0.44244 0.52402 0.37887 0.0
H804 H 0.46199 0.50596 0.42825 0.0
H805 H 0.45434 0.58817 0.47724 0.0
C806 C 0.40926 0.62761 0.3624 0.0
C807 C 0.40186 0.61805 0.33007 0.0
C808 C 0.40774 0.58988 0.32045 0.0
C809 C 0.41943 0.57146 0.34191 0.0
C810 C 0.4257 0.58112 0.37343 0.0
C811 C 0.42113 0.60858 0.38385 0.0
C812 C 0.43029 0.61303 0.41939 0.0
C813 C 0.45805 0.6387 0.42349 0.0
C814 C 0.40163 0.61784 0.44018 0.0
C815 C 0.44043 0.58378 0.42703 0.0
C816 C 0.43743 0.56591 0.39991 0.0
C817 C 0.44498 0.53789 0.40024 0.0
C818 C 0.45615 0.52777 0.42872 0.0
C819 C 0.45999 0.54535 0.45722 0.0
C820 C 0.45176 0.57392 0.45618 0.0
H821 H 0.13225 0.43779 0.84398 0.0
H822 H 0.05869 0.36028 0.8415 0.0
H823 H 0.03196 0.37975 0.88751 0.0
H824 H 0.13454 0.44787 0.93036 0.0
H825 H 0.13952 0.48729 0.92969 0.0
H826 H 0.15383 0.46751 0.89647 0.0
H827 H 0.12059 0.49186 0.85713 0.0
H828 H 0.10633 0.51184 0.89021 0.0
H829 H 0.07856 0.48914 0.86422 0.0
H830 H 0.01311 0.40641 0.93503 0.0
H831 H 1.00136 0.44029 0.97808 0.0
H832 H 0.08448 0.50289 0.95026 0.0
C833 C 0.11038 0.42496 0.85285 0.0
C834 C 0.09824 0.3969 0.83891 0.0
C835 C 0.06942 0.38122 0.85182 0.0
C836 C 0.05375 0.39226 0.87804 0.0
C837 C 0.06662 0.41944 0.89147 0.0
C838 C 0.09408 0.43584 0.87918 0.0
C839 C 0.10227 0.46476 0.8981 0.0
C840 C 0.13446 0.46698 0.91463 0.0
C841 C 0.10191 0.49095 0.8761 0.0
C842 C 0.07517 0.46194 0.92285 0.0
C843 C 0.05508 0.43542 0.91855 0.0
C844 C 0.02861 0.4273 0.93844 0.0
C845 C 0.02215 0.44677 0.96302 0.0
C846 C 0.04179 0.47446 0.9678 0.0
C847 C 0.06888 0.48197 0.94737 0.0
H848 H 0.62825 0.87973 0.95024 0.0
H849 H 0.5547 0.83588 0.88694 0.0
H850 H 0.52047 0.87178 0.90355 0.0
H851 H 0.57783 0.89609 1.01447 0.0
H852 H 0.60206 0.93108 1.02351 0.0
H853 H 0.61986 0.90191 1.00617 0.0
H854 H 0.64294 0.93589 0.95957 0.0
H855 H 0.62481 0.96505 0.97657 0.0
H856 H 0.6166 0.95281 0.93569 0.0
H857 H 0.49404 0.91243 0.92927 0.0
H858 H 0.47786 0.95281 0.96177 0.0
H859 H 0.57059 0.96955 1.00595 0.0
C860 C 0.60474 0.87733 0.9402 0.0
C861 C 0.59383 0.85476 0.91776 0.0
C862 C 0.56334 0.85295 0.90437 0.0
C863 C 0.54385 0.87325 0.91361 0.0
C864 C 0.55549 0.89532 0.93585 0.0
C865 C 0.58531 0.89739 0.94885 0.0
C866 C 0.59264 0.92292 0.97219 0.0
C867 C 0.59842 0.91236 1.00609 0.0
C868 C 0.62092 0.9455 0.96027 0.0
C869 C 0.56209 0.93478 0.97083 0.0
C870 C 0.54088 0.91876 0.94973 0.0
C871 C 0.51059 0.92522 0.94566 0.0
C872 C 0.50165 0.94824 0.96416 0.0
C873 C 0.52299 0.96445 0.98634 0.0
C874 C 0.55374 0.95784 0.98907 0.0
H875 H 0.91295 0.15517 0.39914 0.0
H876 H 0.83764 0.16436 0.46756 0.0
H877 H 0.84642 0.11948 0.4946 0.0
H878 H 0.89968 0.07521 0.39475 0.0
H879 H 0.9415 0.07405 0.39266 0.0
H880 H 0.9267 0.10478 0.37654 0.0
H881 H 0.96532 0.14044 0.41257 0.0
H882 H 0.98036 0.10985 0.42845 0.0
H883 H 0.96484 0.13495 0.45537 0.0
H884 H 0.86651 0.07532 0.5166 0.0
H885 H 0.89873 0.0388 0.5335 0.0
H886 H 0.96083 0.06016 0.45128 0.0
C887 C 0.89825 0.14786 0.41982 0.0
C888 C 0.8746 0.16336 0.43119 0.0
C889 C 0.85563 0.15266 0.45809 0.0
C890 C 0.86046 0.12719 0.47363 0.0
C891 C 0.88424 0.11265 0.46191 0.0
C892 C 0.90287 0.12273 0.43566 0.0
C893 C 0.92845 0.10464 0.42912 0.0
C894 C 0.92378 0.08872 0.39632 0.0
C895 C 0.96169 0.1236 0.43154 0.0
C896 C 0.92194 0.0833 0.45637 0.0
C897 C 0.89602 0.0878 0.47475 0.0
C898 C 0.88664 0.07145 0.50216 0.0
C899 C 0.90491 0.05068 0.51148 0.0
C900 C 0.93234 0.04695 0.49363 0.0
C901 C 0.94025 0.06285 0.46539 0.0
H902 H 0.21602 0.64659 0.12845 0.0
H903 H 0.23367 0.58008 0.19431 0.0
H904 H 0.18716 0.54623 0.17329 0.0
H905 H 0.12995 0.63008 0.13634 0.0
H906 H 0.12297 0.63705 0.09483 0.0
H907 H 0.15826 0.65589 0.11421 0.0
H908 H 0.19277 0.63687 0.06973 0.0
H909 H 0.15758 0.61787 0.0503 0.0
H910 H 0.18824 0.59803 0.06154 0.0
H911 H 0.13958 0.51853 0.14372 0.0
H912 H 0.09162 0.50087 0.11205 0.0
H913 H 0.10128 0.58578 0.06718 0.0
C914 C 0.21008 0.62488 0.1384 0.0
C915 C 0.22875 0.6161 0.16319 0.0
C916 C 0.2198 0.58753 0.17563 0.0
C917 C 0.19344 0.56803 0.16366 0.0
C918 C 0.17561 0.57729 0.13932 0.0
C919 C 0.18325 0.60519 0.1271 0.0
C920 C 0.1592 0.60988 0.10188 0.0
C921 C 0.14155 0.6347 0.11245 0.0
C922 C 0.17542 0.61603 0.06891 0.0
C923 C 0.13702 0.58026 0.10173 0.0
C924 C 0.14726 0.56171 0.12327 0.0
C925 C 0.13127 0.53301 0.12699 0.0
C926 C 0.10397 0.5231 0.1087 0.0
C927 C 0.09224 0.54179 0.08702 0.0
C928 C 0.10931 0.57084 0.08354 0.0
H929 H 0.28109 0.39387 0.62142 0.0
H930 H 0.29865 0.4441 0.71046 0.0
H931 H 0.34828 0.47114 0.68742 0.0
H932 H 0.36148 0.38734 0.60438 0.0
H933 H 0.35902 0.39153 0.56156 0.0
H934 H 0.32408 0.37657 0.58441 0.0
H935 H 0.29499 0.41651 0.56278 0.0
H936 H 0.32983 0.43154 0.53977 0.0
H937 H 0.31254 0.45459 0.56776 0.0
H938 H 0.39788 0.49141 0.65587 0.0
H939 H 0.44252 0.50427 0.61744 0.0
H940 H 0.39305 0.44284 0.54755 0.0
C941 C 0.29508 0.41086 0.63594 0.0
C942 C 0.28571 0.41646 0.6681 0.0
C943 C 0.30525 0.43877 0.68613 0.0
C944 C 0.33354 0.45448 0.67313 0.0
C945 C 0.34231 0.44805 0.64175 0.0
C946 C 0.32358 0.42692 0.62324 0.0
C947 C 0.33893 0.42406 0.5903 0.0
C948 C 0.34631 0.39303 0.58486 0.0
C949 C 0.31781 0.43216 0.56357 0.0
C950 C 0.36928 0.44664 0.59334 0.0
C951 C 0.3707 0.46019 0.62328 0.0
C952 C 0.39683 0.4811 0.63226 0.0
C953 C 0.42215 0.48829 0.61023 0.0
C954 C 0.42136 0.47483 0.57933 0.0
C955 C 0.39433 0.45382 0.57082 0.0
H956 H 0.80913 0.73341 0.9213 0.0
H957 H 0.72426 0.66692 0.91846 0.0
H958 H 0.75497 0.63049 0.93886 0.0
H959 H 0.86256 0.6884 0.89331 0.0
H960 H 0.89448 0.70551 0.91872 0.0
H961 H 0.86521 0.72619 0.90587 0.0
H962 H 0.85289 0.73855 0.96528 0.0
H963 H 0.88223 0.718 0.97833 0.0
H964 H 0.84206 0.70923 0.99335 0.0
H965 H 0.79672 0.601 0.95695 0.0
H966 H 0.84474 0.58159 0.97187 0.0
H967 H 0.90092 0.66859 0.96272 0.0
C968 C 0.79694 0.71116 0.92487 0.0
C969 C 0.76443 0.70283 0.918 0.0
C970 C 0.74919 0.67369 0.92365 0.0
C971 C 0.76645 0.65291 0.93512 0.0
C972 C 0.79874 0.66183 0.94102 0.0
C973 C 0.81368 0.69036 0.93624 0.0
C974 C 0.84859 0.69458 0.94361 0.0
C975 C 0.86889 0.70423 0.91359 0.0
C976 C 0.85692 0.71637 0.97182 0.0
C977 C 0.85126 0.66382 0.95291 0.0
C978 C 0.82234 0.64517 0.95144 0.0
C979 C 0.8194 0.6155 0.9584 0.0
C980 C 0.84676 0.60471 0.96696 0.0
C981 C 0.87661 0.62357 0.96836 0.0
C982 C 0.87859 0.6535 0.96144 0.0
H983 H 0.42938 0.82972 0.20059 0.0
H984 H 0.36274 0.79604 0.12569 0.0
H985 H 0.37819 0.84194 0.09598 0.0
H986 H 0.41595 0.90511 0.19813 0.0
H987 H 0.45682 0.92104 0.20509 0.0
H988 H 0.44083 0.88541 0.22062 0.0
H989 H 0.48513 0.86356 0.19106 0.0
H990 H 0.50125 0.89913 0.17546 0.0
H991 H 0.49061 0.86831 0.14832 0.0
H992 H 0.40241 0.89165 0.07269 0.0
H993 H 0.43137 0.94122 0.05974 0.0
H994 H 0.48092 0.94458 0.15016 0.0
C995 C 0.41804 0.83194 0.17792 0.0
C996 C 0.39448 0.80886 0.16583 0.0
C997 C 0.38035 0.81318 0.13603 0.0
C998 C 0.38917 0.83928 0.11873 0.0
C999 C 0.41221 0.8615 0.13133 0.0
C1000 C 0.42633 0.85821 0.16039 0.0
C1001 C 0.45013 0.88581 0.1687 0.0
C1002 C 0.44034 0.90019 0.2 0.0
C1003 C 0.48378 0.87877 0.17102 0.0
C1004 C 0.44732 0.90497 0.13979 0.0
C1005 C 0.42544 0.8904 0.11838 0.0
C1006 C 0.41939 0.90325 0.08949 0.0
C1007 C 0.43599 0.93154 0.08227 0.0
C1008 C 0.45831 0.9472 0.10389 0.0
C1009 C 0.46381 0.93351 0.13314 0.0
H1010 H 0.09094 0.20507 0.67839 0.0
H1011 H 0.12556 0.26142 0.59877 0.0
H1012 H 0.10657 0.22118 0.56057 0.0
H1013 H 0.11223 0.13897 0.6435 0.0
H1014 H 0.07765 0.11473 0.65822 0.0
H1015 H 0.09267 0.14814 0.68 0.0
H1016 H 0.03785 0.16397 0.67687 0.0
H1017 H 0.02263 0.13055 0.65518 0.0
H1018 H 0.01976 0.16547 0.63824 0.0
H1019 H 0.08507 0.17535 0.53047 0.0
H1020 H 0.06227 0.12654 0.50977 0.0
H1021 H 0.04096 0.09676 0.60734 0.0
C1022 C 0.09417 0.20899 0.6529 0.0
C1023 C 0.10998 0.23671 0.64176 0.0
C1024 C 0.11395 0.24058 0.60812 0.0
C1025 C 0.10309 0.21777 0.58612 0.0
C1026 C 0.08819 0.19077 0.59778 0.0
C1027 C 0.08362 0.18611 0.63033 0.0
C1028 C 0.06744 0.15443 0.63599 0.0
C1029 C 0.08877 0.13811 0.6556 0.0
C1030 C 0.03499 0.15356 0.65256 0.0
C1031 C 0.06373 0.14216 0.60159 0.0
C1032 C 0.07586 0.16376 0.58012 0.0
C1033 C 0.07544 0.15831 0.5471 0.0
C1034 C 0.06227 0.13024 0.53553 0.0
C1035 C 0.0495 0.1073 0.55664 0.0
C1036 C 0.05043 0.11354 0.59035 0.0
H1037 H 0.7374 0.31093 0.44198 0.0
H1038 H 0.80344 0.38727 0.41015 0.0
H1039 H 0.76675 0.41925 0.43021 0.0
H1040 H 0.66941 0.33411 0.41657 0.0
H1041 H 0.6446 0.31929 0.44979 0.0
H1042 H 0.67794 0.30276 0.43753 0.0
H1043 H 0.70024 0.30967 0.49527 0.0
H1044 H 0.66679 0.32608 0.50781 0.0
H1045 H 0.70654 0.3456 0.51395 0.0
H1046 H 0.72034 0.44228 0.44772 0.0
H1047 H 0.66811 0.45467 0.46198 0.0
H1048 H 0.63228 0.36322 0.48213 0.0
C1049 C 0.74435 0.3344 0.43957 0.0
C1050 C 0.77335 0.34659 0.42455 0.0
C1051 C 0.78161 0.37744 0.42204 0.0
C1052 C 0.76086 0.39578 0.43324 0.0
C1053 C 0.73207 0.38294 0.44709 0.0
C1054 C 0.72392 0.35297 0.45051 0.0
C1055 C 0.69065 0.34447 0.464 0.0
C1056 C 0.66941 0.32396 0.44057 0.0
C1057 C 0.6911 0.33064 0.49724 0.0
C1058 C 0.68091 0.37427 0.46654 0.0
C1059 C 0.70526 0.39622 0.4571 0.0
C1060 C 0.70128 0.42535 0.45572 0.0
C1061 C 0.67154 0.43218 0.46398 0.0
C1062 C 0.64611 0.40994 0.47333 0.0
C1063 C 0.65116 0.3807 0.47497 0.0
loop_
_geom_bond_atom_site_label_1
_geom_bond_atom_site_label_2
_geom_bond_distance
_geom_bond_site_symmetry_2
_ccdc_geom_bond_type
P0 O11 1.490 . S
P0 C14 1.812 . S
P0 C20 1.803 . S
P0 C26 1.819 . S
H1 C15 0.941 . S
H2 C16 0.939 . S
H3 C18 0.940 . S
H4 C19 0.940 . S
H5 C21 0.939 . S
H6 C22 0.942 . S
H7 C24 0.940 . S
H8 C25 0.939 . S
H9 C27 0.941 . S
H10 C31 0.939 . S
O11 P0 1.490 . S
H12 C28 0.939 . S
H13 C30 0.940 . S
C14 P0 1.812 . S
C14 C15 1.389 . S
C14 C19 1.391 . S
C15 H1 0.941 . S
C15 C14 1.389 . S
C15 C16 1.397 . S
C16 H2 0.939 . S
C16 C15 1.397 . S
C16 C17 1.378 . S
C17 C16 1.378 . S
C17 C18 1.378 . S
C18 H3 0.940 . S
C18 C17 1.378 . S
C18 C19 1.396 . S
C19 H4 0.940 . S
C19 C14 1.391 . S
C19 C18 1.396 . S
C20 P0 1.803 . S
C20 C21 1.378 . S
C20 C25 1.400 . S
C21 H5 0.939 . S
C21 C20 1.378 . S
C21 C22 1.361 . S
C22 H6 0.942 . S
C22 C21 1.361 . S
C22 C23 1.369 . S
C23 C22 1.369 . S
C23 C24 1.404 . S
C24 H7 0.940 . S
C24 C23 1.404 . S
C24 C25 1.389 . S
C25 H8 0.939 . S
C25 C20 1.400 . S
C25 C24 1.389 . S
C26 P0 1.819 . S
C26 C27 1.391 . S
C26 C31 1.391 . S
C27 H9 0.941 . S
C27 C26 1.391 . S
C27 C28 1.396 . S
C28 H12 0.939 . S
C28 C27 1.396 . S
C28 C29 1.397 . S
C29 C28 1.397 . S
C29 C30 1.385 . S
C30 H13 0.940 . S
C30 C29 1.385 . S
C30 C31 1.388 . S
C31 H10 0.939 . S
C31 C26 1.391 . S
C31 C30 1.388 . S
P32 O43 1.490 . S
P32 C46 1.812 . S
P32 C52 1.803 . S
P32 C58 1.819 . S
H33 C47 0.941 . S
H34 C48 0.939 . S
H35 C50 0.940 . S
H36 C51 0.940 . S
H37 C53 0.939 . S
H38 C54 0.942 . S
H39 C56 0.940 . S
H40 C57 0.939 . S
H41 C59 0.941 . S
H42 C63 0.939 . S
O43 P32 1.490 . S
H44 C60 0.939 . S
H45 C62 0.940 . S
C46 P32 1.812 . S
C46 C47 1.389 . S
C46 C51 1.391 . S
C47 H33 0.941 . S
C47 C46 1.389 . S
C47 C48 1.397 . S
C48 H34 0.939 . S
C48 C47 1.397 . S
C48 C49 1.378 . S
C49 C48 1.378 . S
C49 C50 1.378 . S
C50 H35 0.940 . S
C50 C49 1.378 . S
C50 C51 1.396 . S
C51 H36 0.940 . S
C51 C46 1.391 . S
C51 C50 1.396 . S
C52 P32 1.803 . S
C52 C53 1.378 . S
C52 C57 1.400 . S
C53 H37 0.939 . S
C53 C52 1.378 . S
C53 C54 1.361 . S
C54 H38 0.942 . S
C54 C53 1.361 . S
C54 C55 1.369 . S
C55 C54 1.369 . S
C55 C56 1.404 . S
C56 H39 0.940 . S
C56 C55 1.404 . S
C56 C57 1.389 . S
C57 H40 0.939 . S
C57 C52 1.400 . S
C57 C56 1.389 . S
C58 P32 1.819 . S
C58 C59 1.391 . S
C58 C63 1.391 . S
C59 H41 0.941 . S
C59 C58 1.391 . S
C59 C60 1.396 . S
C60 H44 0.939 . S
C60 C59 1.396 . S
C60 C61 1.397 . S
C61 C60 1.397 . S
C61 C62 1.385 . S
C62 H45 0.940 . S
C62 C61 1.385 . S
C62 C63 1.388 . S
C63 H42 0.939 . S
C63 C58 1.391 . S
C63 C62 1.388 . S
P64 O75 1.490 . S
P64 C78 1.812 . S
P64 C84 1.803 . S
P64 C90 1.819 . S
H65 C79 0.941 . S
H66 C80 0.939 . S
H67 C82 0.940 . S
H68 C83 0.940 . S
H69 C85 0.939 . S
H70 C86 0.942 . S
H71 C88 0.940 . S
H72 C89 0.939 . S
H73 C91 0.941 . S
H74 C95 0.939 . S
O75 P64 1.490 . S
H76 C92 0.939 . S
H77 C94 0.940 . S
C78 P64 1.812 . S
C78 C79 1.389 . S
C78 C83 1.391 . S
C79 H65 0.941 . S
C79 C78 1.389 . S
C79 C80 1.397 . S
C80 H66 0.939 . S
C80 C79 1.397 . S
C80 C81 1.378 . S
C81 C80 1.378 . S
C81 C82 1.378 . S
C82 H67 0.940 . S
C82 C81 1.378 . S
C82 C83 1.396 . S
C83 H68 0.940 . S
C83 C78 1.391 . S
C83 C82 1.396 . S
C84 P64 1.803 . S
C84 C85 1.378 . S
C84 C89 1.400 . S
C85 H69 0.939 . S
C85 C84 1.378 . S
C85 C86 1.361 . S
C86 H70 0.942 . S
C86 C85 1.361 . S
C86 C87 1.369 . S
C87 C86 1.369 . S
C87 C88 1.404 . S
C88 H71 0.940 . S
C88 C87 1.404 . S
C88 C89 1.389 . S
C89 H72 0.939 . S
C89 C84 1.400 . S
C89 C88 1.389 . S
C90 P64 1.819 . S
C90 C91 1.391 . S
C90 C95 1.391 . S
C91 H73 0.941 . S
C91 C90 1.391 . S
C91 C92 1.396 . S
C92 H76 0.939 . S
C92 C91 1.396 . S
C92 C93 1.397 . S
C93 C92 1.397 . S
C93 C94 1.385 . S
C94 H77 0.940 . S
C94 C93 1.385 . S
C94 C95 1.388 . S
C95 H74 0.939 . S
C95 C90 1.391 . S
C95 C94 1.388 . S
P96 O107 1.490 . S
P96 C110 1.812 . S
P96 C116 1.803 . S
P96 C122 1.819 . S
H97 C111 0.941 . S
H98 C112 0.939 . S
H99 C114 0.940 . S
H100 C115 0.940 . S
H101 C117 0.939 . S
H102 C118 0.942 . S
H103 C120 0.940 . S
H104 C121 0.939 . S
H105 C123 0.941 . S
H106 C127 0.939 . S
O107 P96 1.490 . S
H108 C124 0.939 . S
H109 C126 0.940 . S
C110 P96 1.812 . S
C110 C111 1.389 . S
C110 C115 1.391 . S
C111 H97 0.941 . S
C111 C110 1.389 . S
C111 C112 1.397 . S
C112 H98 0.939 . S
C112 C111 1.397 . S
C112 C113 1.378 . S
C113 C112 1.378 . S
C113 C114 1.378 . S
C114 H99 0.940 . S
C114 C113 1.378 . S
C114 C115 1.396 . S
C115 H100 0.940 . S
C115 C110 1.391 . S
C115 C114 1.396 . S
C116 P96 1.803 . S
C116 C117 1.378 . S
C116 C121 1.400 . S
C117 H101 0.939 . S
C117 C116 1.378 . S
C117 C118 1.361 . S
C118 H102 0.942 . S
C118 C117 1.361 . S
C118 C119 1.369 . S
C119 C118 1.369 . S
C119 C120 1.404 . S
C120 H103 0.940 . S
C120 C119 1.404 . S
C120 C121 1.389 . S
C121 H104 0.939 . S
C121 C116 1.400 . S
C121 C120 1.389 . S
C122 P96 1.819 . S
C122 C123 1.391 . S
C122 C127 1.391 . S
C123 H105 0.941 . S
C123 C122 1.391 . S
C123 C124 1.396 . S
C124 H108 0.939 . S
C124 C123 1.396 . S
C124 C125 1.397 . S
C125 C124 1.397 . S
C125 C126 1.385 . S
C126 H109 0.940 . S
C126 C125 1.385 . S
C126 C127 1.388 . S
C127 H106 0.939 . S
C127 C122 1.391 . S
C127 C126 1.388 . S
P128 O139 1.490 . S
P128 C142 1.812 . S
P128 C148 1.803 . S
P128 C154 1.819 . S
H129 C143 0.941 . S
H130 C144 0.939 . S
H131 C146 0.940 . S
H132 C147 0.940 . S
H133 C149 0.939 . S
H134 C150 0.942 . S
H135 C152 0.940 . S
H136 C153 0.939 . S
H137 C155 0.941 . S
H138 C159 0.939 . S
O139 P128 1.490 . S
H140 C156 0.939 . S
H141 C158 0.940 . S
C142 P128 1.812 . S
C142 C143 1.389 . S
C142 C147 1.391 . S
C143 H129 0.941 . S
C143 C142 1.389 . S
C143 C144 1.397 . S
C144 H130 0.939 . S
C144 C143 1.397 . S
C144 C145 1.378 . S
C145 C144 1.378 . S
C145 C146 1.378 . S
C146 H131 0.940 . S
C146 C145 1.378 . S
C146 C147 1.396 . S
C147 H132 0.940 . S
C147 C142 1.391 . S
C147 C146 1.396 . S
C148 P128 1.803 . S
C148 C149 1.378 . S
C148 C153 1.400 . S
C149 H133 0.939 . S
C149 C148 1.378 . S
C149 C150 1.361 . S
C150 H134 0.942 . S
C150 C149 1.361 . S
C150 C151 1.369 . S
C151 C150 1.369 . S
C151 C152 1.404 . S
C152 H135 0.940 . S
C152 C151 1.404 . S
C152 C153 1.389 . S
C153 H136 0.939 . S
C153 C148 1.400 . S
C153 C152 1.389 . S
C154 P128 1.819 . S
C154 C155 1.391 . S
C154 C159 1.391 . S
C155 H137 0.941 . S
C155 C154 1.391 . S
C155 C156 1.396 . S
C156 H140 0.939 . S
C156 C155 1.396 . S
C156 C157 1.397 . S
C157 C156 1.397 . S
C157 C158 1.385 . S
C158 H141 0.940 . S
C158 C157 1.385 . S
C158 C159 1.388 . S
C159 H138 0.939 . S
C159 C154 1.391 . S
C159 C158 1.388 . S
P160 O171 1.490 . S
P160 C174 1.812 . S
P160 C180 1.803 . S
P160 C186 1.819 . S
H161 C175 0.941 . S
H162 C176 0.939 . S
H163 C178 0.940 . S
H164 C179 0.940 . S
H165 C181 0.939 . S
H166 C182 0.942 . S
H167 C184 0.940 . S
H168 C185 0.939 . S
H169 C187 0.941 . S
H170 C191 0.939 . S
O171 P160 1.490 . S
H172 C188 0.939 . S
H173 C190 0.940 . S
C174 P160 1.812 . S
C174 C175 1.389 . S
C174 C179 1.391 . S
C175 H161 0.941 . S
C175 C174 1.389 . S
C175 C176 1.397 . S
C176 H162 0.939 . S
C176 C175 1.397 . S
C176 C177 1.378 . S
C177 C176 1.378 . S
C177 C178 1.378 . S
C178 H163 0.940 . S
C178 C177 1.378 . S
C178 C179 1.396 . S
C179 H164 0.940 . S
C179 C174 1.391 . S
C179 C178 1.396 . S
C180 P160 1.803 . S
C180 C181 1.378 . S
C180 C185 1.400 . S
C181 H165 0.939 . S
C181 C180 1.378 . S
C181 C182 1.361 . S
C182 H166 0.942 . S
C182 C181 1.361 . S
C182 C183 1.369 . S
C183 C182 1.369 . S
C183 C184 1.404 . S
C184 H167 0.940 . S
C184 C183 1.404 . S
C184 C185 1.389 . S
C185 H168 0.939 . S
C185 C180 1.400 . S
C185 C184 1.389 . S
C186 P160 1.819 . S
C186 C187 1.391 . S
C186 C191 1.391 . S
C187 H169 0.941 . S
C187 C186 1.391 . S
C187 C188 1.396 . S
C188 H172 0.939 . S
C188 C187 1.396 . S
C188 C189 1.397 . S
C189 C188 1.397 . S
C189 C190 1.385 . S
C190 H173 0.940 . S
C190 C189 1.385 . S
C190 C191 1.388 . S
C191 H170 0.939 . S
C191 C186 1.391 . S
C191 C190 1.388 . S
P192 O203 1.490 . S
P192 C206 1.812 . S
P192 C212 1.803 . S
P192 C218 1.819 . S
H193 C207 0.941 . S
H194 C208 0.939 . S
H195 C210 0.940 . S
H196 C211 0.940 . S
H197 C213 0.939 . S
H198 C214 0.942 . S
H199 C216 0.940 . S
H200 C217 0.939 . S
H201 C219 0.941 . S
H202 C223 0.939 . S
O203 P192 1.490 . S
H204 C220 0.939 . S
H205 C222 0.940 . S
C206 P192 1.812 . S
C206 C207 1.389 . S
C206 C211 1.391 . S
C207 H193 0.941 . S
C207 C206 1.389 . S
C207 C208 1.397 . S
C208 H194 0.939 . S
C208 C207 1.397 . S
C208 C209 1.378 . S
C209 C208 1.378 . S
C209 C210 1.378 . S
C210 H195 0.940 . S
C210 C209 1.378 . S
C210 C211 1.396 . S
C211 H196 0.940 . S
C211 C206 1.391 . S
C211 C210 1.396 . S
C212 P192 1.803 . S
C212 C213 1.378 . S
C212 C217 1.400 . S
C213 H197 0.939 . S
C213 C212 1.378 . S
C213 C214 1.361 . S
C214 H198 0.942 . S
C214 C213 1.361 . S
C214 C215 1.369 . S
C215 C214 1.369 . S
C215 C216 1.404 . S
C216 H199 0.940 . S
C216 C215 1.404 . S
C216 C217 1.389 . S
C217 H200 0.939 . S
C217 C212 1.400 . S
C217 C216 1.389 . S
C218 P192 1.819 . S
C218 C219 1.391 . S
C218 C223 1.391 . S
C219 H201 0.941 . S
C219 C218 1.391 . S
C219 C220 1.396 . S
C220 H204 0.939 . S
C220 C219 1.396 . S
C220 C221 1.397 . S
C221 C220 1.397 . S
C221 C222 1.385 . S
C222 H205 0.940 . S
C222 C221 1.385 . S
C222 C223 1.388 . S
C223 H202 0.939 . S
C223 C218 1.391 . S
C223 C222 1.388 . S
P224 O235 1.490 . S
P224 C238 1.812 . S
P224 C244 1.803 . S
P224 C250 1.819 . S
H225 C239 0.941 . S
H226 C240 0.939 . S
H227 C242 0.940 . S
H228 C243 0.940 . S
H229 C245 0.939 . S
H230 C246 0.942 . S
H231 C248 0.940 . S
H232 C249 0.939 . S
H233 C251 0.941 . S
H234 C255 0.939 . S
O235 P224 1.490 . S
H236 C252 0.939 . S
H237 C254 0.940 . S
C238 P224 1.812 . S
C238 C239 1.389 . S
C238 C243 1.391 . S
C239 H225 0.941 . S
C239 C238 1.389 . S
C239 C240 1.397 . S
C240 H226 0.939 . S
C240 C239 1.397 . S
C240 C241 1.378 . S
C241 C240 1.378 . S
C241 C242 1.378 . S
C242 H227 0.940 . S
C242 C241 1.378 . S
C242 C243 1.396 . S
C243 H228 0.940 . S
C243 C238 1.391 . S
C243 C242 1.396 . S
C244 P224 1.803 . S
C244 C245 1.378 . S
C244 C249 1.400 . S
C245 H229 0.939 . S
C245 C244 1.378 . S
C245 C246 1.361 . S
C246 H230 0.942 . S
C246 C245 1.361 . S
C246 C247 1.369 . S
C247 C246 1.369 . S
C247 C248 1.404 . S
C248 H231 0.940 . S
C248 C247 1.404 . S
C248 C249 1.389 . S
C249 H232 0.939 . S
C249 C244 1.400 . S
C249 C248 1.389 . S
C250 P224 1.819 . S
C250 C251 1.391 . S
C250 C255 1.391 . S
C251 H233 0.941 . S
C251 C250 1.391 . S
C251 C252 1.396 . S
C252 H236 0.939 . S
C252 C251 1.396 . S
C252 C253 1.397 . S
C253 C252 1.397 . S
C253 C254 1.385 . S
C254 H237 0.940 . S
C254 C253 1.385 . S
C254 C255 1.388 . S
C255 H234 0.939 . S
C255 C250 1.391 . S
C255 C254 1.388 . S
Ho256 C259 2.811 . S
Ho256 O276 2.322 . S
Ho256 O278 2.378 . S
Ho256 O279 2.524 . S
Ho256 O280 2.381 1_545 S
Ho256 O281 2.669 1_545 S
Ho256 O283 2.346 1_445 S
Ho256 O287 2.305 1_455 S
Ho257 C268 2.811 . S
Ho257 O277 2.346 1_665 S
Ho257 O281 2.305 1_655 S
Ho257 O282 2.322 . S
Ho257 O284 2.378 . S
Ho257 O285 2.524 . S
Ho257 O286 2.381 1_565 S
Ho257 O287 2.669 1_565 S
C258 O276 1.259 . S
C258 O277 1.268 . S
C259 Ho256 2.811 . S
C259 C260 1.488 . S
C259 O278 1.215 . S
C259 O279 1.289 . S
C260 C259 1.488 . S
C260 C261 1.348 . S
C260 C265 1.413 . S
C261 C260 1.348 . S
C261 C262 1.442 . S
C261 H288 0.930 . S
C262 C261 1.442 . S
C262 C263 1.381 . S
C262 H289 0.931 . S
C263 C262 1.381 . S
C263 C264 1.321 . S
C264 C263 1.321 . S
C264 C265 1.403 . S
C264 H290 0.934 . S
C265 C260 1.413 . S
C265 C264 1.403 . S
C265 H291 0.930 . S
C266 O280 1.275 . S
C266 O281 1.256 . S
C267 O282 1.259 . S
C267 O283 1.268 . S
C268 Ho257 2.811 . S
C268 C269 1.488 . S
C268 O284 1.215 . S
C268 O285 1.289 . S
C269 C268 1.488 . S
C269 C270 1.348 . S
C269 C274 1.413 . S
C270 C269 1.348 . S
C270 C271 1.442 . S
C270 H292 0.930 . S
C271 C270 1.442 . S
C271 C272 1.381 . S
C271 H293 0.931 . S
C272 C271 1.381 . S
C272 C273 1.321 . S
C273 C272 1.321 . S
C273 C274 1.403 . S
C273 H294 0.934 . S
C274 C269 1.413 . S
C274 C273 1.403 . S
C274 H295 0.930 . S
C275 O286 1.275 . S
C275 O287 1.256 . S
O276 Ho256 2.322 . S
O276 C258 1.259 . S
O277 Ho257 2.346 1_445 S
O277 C258 1.268 . S
O278 Ho256 2.378 . S
O278 C259 1.215 . S
O279 Ho256 2.524 . S
O279 C259 1.289 . S
O280 Ho256 2.381 1_565 S
O280 C266 1.275 . S
O281 Ho256 2.669 1_565 S
O281 Ho257 2.305 1_455 S
O281 C266 1.256 . S
O282 Ho257 2.322 . S
O282 C267 1.259 . S
O283 Ho256 2.346 1_665 S
O283 C267 1.268 . S
O284 Ho257 2.378 . S
O284 C268 1.215 . S
O285 Ho257 2.524 . S
O285 C268 1.289 . S
O286 Ho257 2.381 1_545 S
O286 C275 1.275 . S
O287 Ho256 2.305 1_655 S
O287 Ho257 2.669 1_545 S
O287 C275 1.256 . S
H288 C261 0.930 . S
H289 C262 0.931 . S
H290 C264 0.934 . S
H291 C265 0.930 . S
H292 C270 0.930 . S
H293 C271 0.931 . S
H294 C273 0.934 . S
H295 C274 0.930 . S
Ho296 C299 2.811 . S
Ho296 O316 2.322 . S
Ho296 O318 2.378 . S
Ho296 O319 2.524 . S
Ho296 O320 2.381 1_545 S
Ho296 O321 2.669 1_545 S
Ho296 O323 2.346 1_544 S
Ho296 O327 2.282 1_554 S
Ho297 C308 2.811 1_545 S
Ho297 O317 2.346 1_556 S
Ho297 O321 2.305 1_546 S
Ho297 O322 2.322 1_545 S
Ho297 O324 2.376 1_545 S
Ho297 O325 2.524 1_545 S
Ho297 O326 2.381 . S
Ho297 O327 2.680 . S
C298 O316 1.259 . S
C298 O317 1.268 . S
C299 Ho296 2.811 . S
C299 C300 1.488 . S
C299 O318 1.215 . S
C299 O319 1.289 . S
C300 C299 1.488 . S
C300 C301 1.348 . S
C300 C305 1.413 . S
C301 C300 1.348 . S
C301 C302 1.442 . S
C301 H328 0.930 . S
C302 C301 1.442 . S
C302 C303 1.381 . S
C302 H329 0.931 . S
C303 C302 1.381 . S
C303 C304 1.321 . S
C304 C303 1.321 . S
C304 C305 1.403 . S
C304 H330 0.934 . S
C305 C300 1.413 . S
C305 C304 1.403 . S
C305 H331 0.930 . S
C306 O320 1.275 . S
C306 O321 1.256 . S
C307 O322 1.259 . S
C307 O323 1.268 . S
C308 Ho297 2.811 1_565 S
C308 C309 1.488 . S
C308 O324 1.247 . S
C308 O325 1.289 . S
C309 C308 1.488 . S
C309 C310 1.348 . S
C309 C314 1.413 . S
C310 C309 1.348 . S
C310 C311 1.442 . S
C310 H332 0.930 . S
C311 C310 1.442 . S
C311 C312 1.381 . S
C311 H333 0.931 . S
C312 C311 1.381 . S
C312 C313 1.321 . S
C313 C312 1.321 . S
C313 C314 1.403 . S
C313 H334 0.934 . S
C314 C309 1.413 . S
C314 C313 1.403 . S
C314 H335 0.930 . S
C315 O326 1.275 . S
C315 O327 1.281 . S
O316 Ho296 2.322 . S
O316 C298 1.259 . S
O317 Ho297 2.346 1_554 S
O317 C298 1.268 . S
O318 Ho296 2.378 . S
O318 C299 1.215 . S
O319 Ho296 2.524 . S
O319 C299 1.289 . S
O320 Ho296 2.381 1_565 S
O320 C306 1.275 . S
O321 Ho296 2.669 1_565 S
O321 Ho297 2.305 1_564 S
O321 C306 1.256 . S
O322 Ho297 2.322 1_565 S
O322 C307 1.259 . S
O323 Ho296 2.346 1_566 S
O323 C307 1.268 . S
O324 Ho297 2.376 1_565 S
O324 C308 1.247 . S
O325 Ho297 2.524 1_565 S
O325 C308 1.289 . S
O326 Ho297 2.381 . S
O326 C315 1.275 . S
O327 Ho296 2.282 1_556 S
O327 Ho297 2.680 . S
O327 C315 1.281 . S
H328 C301 0.930 . S
H329 C302 0.931 . S
H330 C304 0.934 . S
H331 C305 0.930 . S
H332 C310 0.930 . S
H333 C311 0.931 . S
H334 C313 0.934 . S
H335 C314 0.930 . S
Ho336 C339 2.811 . S
Ho336 O356 2.322 . S
Ho336 O358 2.378 . S
Ho336 O359 2.524 . S
Ho336 O360 2.381 . S
Ho336 O361 2.669 . S
Ho336 O363 2.346 . S
Ho336 O367 2.305 . S
Ho337 C348 2.811 . S
Ho337 O357 2.346 . S
Ho337 O361 2.305 . S
Ho337 O362 2.322 . S
Ho337 O364 2.378 . S
Ho337 O365 2.524 . S
Ho337 O366 2.381 . S
Ho337 O367 2.669 . S
C338 O356 1.259 . S
C338 O357 1.268 . S
C339 Ho336 2.811 . S
C339 C340 1.488 . S
C339 O358 1.215 . S
C339 O359 1.289 . S
C340 C339 1.488 . S
C340 C341 1.348 . S
C340 C345 1.413 . S
C341 C340 1.348 . S
C341 C342 1.442 . S
C341 H368 0.930 . S
C342 C341 1.442 . S
C342 C343 1.381 . S
C342 H369 0.931 . S
C343 C342 1.381 . S
C343 C344 1.321 . S
C344 C343 1.321 . S
C344 C345 1.403 . S
C344 H370 0.934 . S
C345 C340 1.413 . S
C345 C344 1.403 . S
C345 H371 0.930 . S
C346 O360 1.275 . S
C346 O361 1.256 . S
C347 O362 1.259 . S
C347 O363 1.268 . S
C348 Ho337 2.811 . S
C348 C349 1.488 . S
C348 O364 1.215 . S
C348 O365 1.289 . S
C349 C348 1.488 . S
C349 C350 1.348 . S
C349 C354 1.413 . S
C350 C349 1.348 . S
C350 C351 1.442 . S
C350 H372 0.930 . S
C351 C350 1.442 . S
C351 C352 1.381 . S
C351 H373 0.931 . S
C352 C351 1.381 . S
C352 C353 1.321 . S
C353 C352 1.321 . S
C353 C354 1.403 . S
C353 H374 0.934 . S
C354 C349 1.413 . S
C354 C353 1.403 . S
C354 H375 0.930 . S
C355 O366 1.275 . S
C355 O367 1.256 . S
O356 Ho336 2.322 . S
O356 C338 1.259 . S
O357 Ho337 2.346 . S
O357 C338 1.268 . S
O358 Ho336 2.378 . S
O358 C339 1.215 . S
O359 Ho336 2.524 . S
O359 C339 1.289 . S
O360 Ho336 2.381 . S
O360 C346 1.275 . S
O361 Ho336 2.669 . S
O361 Ho337 2.305 . S
O361 C346 1.256 . S
O362 Ho337 2.322 . S
O362 C347 1.259 . S
O363 Ho336 2.346 . S
O363 C347 1.268 . S
O364 Ho337 2.378 . S
O364 C348 1.215 . S
O365 Ho337 2.524 . S
O365 C348 1.289 . S
O366 Ho337 2.381 . S
O366 C355 1.275 . S
O367 Ho336 2.305 . S
O367 Ho337 2.669 . S
O367 C355 1.256 . S
H368 C341 0.930 . S
H369 C342 0.931 . S
H370 C344 0.934 . S
H371 C345 0.930 . S
H372 C350 0.930 . S
H373 C351 0.931 . S
H374 C353 0.934 . S
H375 C354 0.930 . S
Ho376 C379 2.811 . S
Ho376 O396 2.322 . S
Ho376 O398 2.378 . S
Ho376 O399 2.524 . S
Ho376 O400 2.381 1_455 S
Ho376 O401 2.669 1_455 S
Ho376 O403 2.357 1_455 S
Ho376 O407 2.305 1_554 S
Ho377 C388 2.811 . S
Ho377 O397 2.346 1_656 S
Ho377 O401 2.305 1_556 S
Ho377 O402 2.322 . S
Ho377 O404 2.378 . S
Ho377 O405 2.524 . S
Ho377 O406 2.381 1_655 S
Ho377 O407 2.669 1_655 S
C378 O396 1.259 . S
C378 O397 1.268 . S
C379 Ho376 2.811 . S
C379 C380 1.488 . S
C379 O398 1.215 . S
C379 O399 1.289 . S
C380 C379 1.488 . S
C380 C381 1.348 . S
C380 C385 1.413 . S
C381 C380 1.348 . S
C381 C382 1.442 . S
C381 H408 0.930 . S
C382 C381 1.442 . S
C382 C383 1.381 . S
C382 H409 0.931 . S
C383 C382 1.381 . S
C383 C384 1.321 . S
C384 C383 1.321 . S
C384 C385 1.403 . S
C384 H410 0.934 . S
C385 C380 1.413 . S
C385 C384 1.403 . S
C385 H411 0.930 . S
C386 O400 1.275 . S
C386 O401 1.256 . S
C387 O402 1.259 . S
C387 O403 1.252 1_556 S
C388 Ho377 2.811 . S
C388 C389 1.488 . S
C388 O404 1.215 . S
C388 O405 1.289 . S
C389 C388 1.488 . S
C389 C390 1.348 . S
C389 C394 1.413 . S
C390 C389 1.348 . S
C390 C391 1.442 . S
C390 H412 0.930 . S
C391 C390 1.442 . S
C391 C392 1.381 . S
C391 H413 0.931 . S
C392 C391 1.381 . S
C392 C393 1.321 . S
C393 C392 1.321 . S
C393 C394 1.403 . S
C393 H414 0.934 . S
C394 C389 1.413 . S
C394 C393 1.403 . S
C394 H415 0.930 . S
C395 O406 1.275 . S
C395 O407 1.256 . S
O396 Ho376 2.322 . S
O396 C378 1.259 . S
O397 Ho377 2.346 1_454 S
O397 C378 1.268 . S
O398 Ho376 2.378 . S
O398 C379 1.215 . S
O399 Ho376 2.524 . S
O399 C379 1.289 . S
O400 Ho376 2.381 1_655 S
O400 C386 1.275 . S
O401 Ho376 2.669 1_655 S
O401 Ho377 2.305 1_554 S
O401 C386 1.256 . S
O402 Ho377 2.322 . S
O402 C387 1.259 . S
O403 Ho376 2.357 1_655 S
O403 C387 1.252 1_554 S
O404 Ho377 2.378 . S
O404 C388 1.215 . S
O405 Ho377 2.524 . S
O405 C388 1.289 . S
O406 Ho377 2.381 1_455 S
O406 C395 1.275 . S
O407 Ho376 2.305 1_556 S
O407 Ho377 2.669 1_455 S
O407 C395 1.256 . S
H408 C381 0.930 . S
H409 C382 0.931 . S
H410 C384 0.934 . S
H411 C385 0.930 . S
H412 C390 0.930 . S
H413 C391 0.931 . S
H414 C393 0.934 . S
H415 C394 0.930 . S
H416 C428 0.930 . S
H417 C430 0.930 . S
H418 C431 0.930 . S
H419 C435 0.959 . S
H420 C435 0.959 . S
H421 C435 0.961 . S
H422 C436 0.960 . S
H423 C436 0.961 . S
H424 C436 0.959 . S
H425 C439 0.929 . S
H426 C440 0.931 . S
H427 C442 0.930 . S
C428 H416 0.930 . S
C428 C429 1.399 . S
C428 C433 1.399 . S
C429 C428 1.399 . S
C429 C430 1.376 . S
C430 H417 0.930 . S
C430 C429 1.376 . S
C430 C431 1.388 . S
C431 H418 0.930 . S
C431 C430 1.388 . S
C431 C432 1.390 . S
C432 C431 1.390 . S
C432 C433 1.394 . S
C432 C438 1.465 . S
C433 C428 1.399 . S
C433 C432 1.394 . S
C433 C434 1.516 . S
C434 C433 1.516 . S
C434 C435 1.502 . S
C434 C436 1.561 . S
C434 C437 1.526 . S
C435 H419 0.959 . S
C435 H420 0.959 . S
C435 H421 0.961 . S
C435 C434 1.502 . S
C436 H422 0.960 . S
C436 H423 0.961 . S
C436 H424 0.959 . S
C436 C434 1.561 . S
C437 C434 1.526 . S
C437 C438 1.396 . S
C437 C442 1.390 . S
C438 C432 1.465 . S
C438 C437 1.396 . S
C438 C439 1.399 . S
C439 H425 0.929 . S
C439 C438 1.399 . S
C439 C440 1.385 . S
C440 H426 0.931 . S
C440 C439 1.385 . S
C440 C441 1.389 . S
C441 C440 1.389 . S
C441 C442 1.387 . S
C442 H427 0.930 . S
C442 C437 1.390 . S
C442 C441 1.387 . S
H443 C455 0.930 . S
H444 C457 0.930 . S
H445 C458 0.930 . S
H446 C462 0.959 . S
H447 C462 0.959 . S
H448 C462 0.961 . S
H449 C463 0.960 . S
H450 C463 0.961 . S
H451 C463 0.959 . S
H452 C466 0.929 . S
H453 C467 0.931 . S
H454 C469 0.930 . S
C455 H443 0.930 . S
C455 C456 1.399 . S
C455 C460 1.399 . S
C456 C455 1.399 . S
C456 C457 1.376 . S
C457 H444 0.930 . S
C457 C456 1.376 . S
C457 C458 1.388 . S
C458 H445 0.930 . S
C458 C457 1.388 . S
C458 C459 1.390 . S
C459 C458 1.390 . S
C459 C460 1.394 . S
C459 C465 1.465 . S
C460 C455 1.399 . S
C460 C459 1.394 . S
C460 C461 1.516 . S
C461 C460 1.516 . S
C461 C462 1.502 . S
C461 C463 1.561 . S
C461 C464 1.526 . S
C462 H446 0.959 . S
C462 H447 0.959 . S
C462 H448 0.961 . S
C462 C461 1.502 . S
C463 H449 0.960 . S
C463 H450 0.961 . S
C463 H451 0.959 . S
C463 C461 1.561 . S
C464 C461 1.526 . S
C464 C465 1.396 . S
C464 C469 1.390 . S
C465 C459 1.465 . S
C465 C464 1.396 . S
C465 C466 1.399 . S
C466 H452 0.929 . S
C466 C465 1.399 . S
C466 C467 1.385 . S
C467 H453 0.931 . S
C467 C466 1.385 . S
C467 C468 1.389 . S
C468 C467 1.389 . S
C468 C469 1.387 . S
C469 H454 0.930 . S
C469 C464 1.390 . S
C469 C468 1.387 . S
H470 C482 0.930 . S
H471 C484 0.930 . S
H472 C485 0.930 . S
H473 C489 0.959 . S
H474 C489 0.959 . S
H475 C489 0.961 . S
H476 C490 0.960 . S
H477 C490 0.961 . S
H478 C490 0.959 . S
H479 C493 0.929 . S
H480 C494 0.931 . S
H481 C496 0.930 . S
C482 H470 0.930 . S
C482 C483 1.399 . S
C482 C487 1.399 . S
C483 C482 1.399 . S
C483 C484 1.376 . S
C484 H471 0.930 . S
C484 C483 1.376 . S
C484 C485 1.388 . S
C485 H472 0.930 . S
C485 C484 1.388 . S
C485 C486 1.390 . S
C486 C485 1.390 . S
C486 C487 1.394 . S
C486 C492 1.465 . S
C487 C482 1.399 . S
C487 C486 1.394 . S
C487 C488 1.516 . S
C488 C487 1.516 . S
C488 C489 1.502 . S
C488 C490 1.561 . S
C488 C491 1.526 . S
C489 H473 0.959 . S
C489 H474 0.959 . S
C489 H475 0.961 . S
C489 C488 1.502 . S
C490 H476 0.960 . S
C490 H477 0.961 . S
C490 H478 0.959 . S
C490 C488 1.561 . S
C491 C488 1.526 . S
C491 C492 1.396 . S
C491 C496 1.390 . S
C492 C486 1.465 . S
C492 C491 1.396 . S
C492 C493 1.399 . S
C493 H479 0.929 . S
C493 C492 1.399 . S
C493 C494 1.385 . S
C494 H480 0.931 . S
C494 C493 1.385 . S
C494 C495 1.389 . S
C495 C494 1.389 . S
C495 C496 1.387 . S
C496 H481 0.930 . S
C496 C491 1.390 . S
C496 C495 1.387 . S
H497 C509 0.930 . S
H498 C511 0.930 . S
H499 C512 0.930 . S
H500 C516 0.959 . S
H501 C516 0.959 . S
H502 C516 0.961 . S
H503 C517 0.960 . S
H504 C517 0.961 . S
H505 C517 0.959 . S
H506 C520 0.929 . S
H507 C521 0.931 . S
H508 C523 0.930 . S
C509 H497 0.930 . S
C509 C510 1.399 . S
C509 C514 1.399 . S
C510 C509 1.399 . S
C510 C511 1.376 . S
C511 H498 0.930 . S
C511 C510 1.376 . S
C511 C512 1.388 . S
C512 H499 0.930 . S
C512 C511 1.388 . S
C512 C513 1.390 . S
C513 C512 1.390 . S
C513 C514 1.394 . S
C513 C519 1.465 . S
C514 C509 1.399 . S
C514 C513 1.394 . S
C514 C515 1.516 . S
C515 C514 1.516 . S
C515 C516 1.502 . S
C515 C517 1.561 . S
C515 C518 1.526 . S
C516 H500 0.959 . S
C516 H501 0.959 . S
C516 H502 0.961 . S
C516 C515 1.502 . S
C517 H503 0.960 . S
C517 H504 0.961 . S
C517 H505 0.959 . S
C517 C515 1.561 . S
C518 C515 1.526 . S
C518 C519 1.396 . S
C518 C523 1.390 . S
C519 C513 1.465 . S
C519 C518 1.396 . S
C519 C520 1.399 . S
C520 H506 0.929 . S
C520 C519 1.399 . S
C520 C521 1.385 . S
C521 H507 0.931 . S
C521 C520 1.385 . S
C521 C522 1.389 . S
C522 C521 1.389 . S
C522 C523 1.387 . S
C523 H508 0.930 . S
C523 C518 1.390 . S
C523 C522 1.387 . S
H524 C536 0.930 . S
H525 C538 0.930 . S
H526 C539 0.930 . S
H527 C543 0.959 . S
H528 C543 0.959 . S
H529 C543 0.961 . S
H530 C544 0.960 . S
H531 C544 0.961 . S
H532 C544 0.959 . S
H533 C547 0.929 . S
H534 C548 0.931 . S
H535 C550 0.930 . S
C536 H524 0.930 . S
C536 C537 1.399 . S
C536 C541 1.399 . S
C537 C536 1.399 . S
C537 C538 1.376 . S
C538 H525 0.930 . S
C538 C537 1.376 . S
C538 C539 1.388 . S
C539 H526 0.930 . S
C539 C538 1.388 . S
C539 C540 1.390 . S
C540 C539 1.390 . S
C540 C541 1.394 . S
C540 C546 1.465 . S
C541 C536 1.399 . S
C541 C540 1.394 . S
C541 C542 1.516 . S
C542 C541 1.516 . S
C542 C543 1.502 . S
C542 C544 1.561 . S
C542 C545 1.526 . S
C543 H527 0.959 . S
C543 H528 0.959 . S
C543 H529 0.961 . S
C543 C542 1.502 . S
C544 H530 0.960 . S
C544 H531 0.961 . S
C544 H532 0.959 . S
C544 C542 1.561 . S
C545 C542 1.526 . S
C545 C546 1.396 . S
C545 C550 1.390 . S
C546 C540 1.465 . S
C546 C545 1.396 . S
C546 C547 1.399 . S
C547 H533 0.929 . S
C547 C546 1.399 . S
C547 C548 1.385 . S
C548 H534 0.931 . S
C548 C547 1.385 . S
C548 C549 1.389 . S
C549 C548 1.389 . S
C549 C550 1.387 . S
C550 H535 0.930 . S
C550 C545 1.390 . S
C550 C549 1.387 . S
H551 C563 0.930 . S
H552 C565 0.930 . S
H553 C566 0.930 . S
H554 C570 0.959 . S
H555 C570 0.959 . S
H556 C570 0.961 . S
H557 C571 0.960 . S
H558 C571 0.961 . S
H559 C571 0.959 . S
H560 C574 0.929 . S
H561 C575 0.931 . S
H562 C577 0.930 . S
C563 H551 0.930 . S
C563 C564 1.399 . S
C563 C568 1.399 . S
C564 C563 1.399 . S
C564 C565 1.376 . S
C565 H552 0.930 . S
C565 C564 1.376 . S
C565 C566 1.388 . S
C566 H553 0.930 . S
C566 C565 1.388 . S
C566 C567 1.390 . S
C567 C566 1.390 . S
C567 C568 1.394 . S
C567 C573 1.465 . S
C568 C563 1.399 . S
C568 C567 1.394 . S
C568 C569 1.516 . S
C569 C568 1.516 . S
C569 C570 1.502 . S
C569 C571 1.561 . S
C569 C572 1.526 . S
C570 H554 0.959 . S
C570 H555 0.959 . S
C570 H556 0.961 . S
C570 C569 1.502 . S
C571 H557 0.960 . S
C571 H558 0.961 . S
C571 H559 0.959 . S
C571 C569 1.561 . S
C572 C569 1.526 . S
C572 C573 1.396 . S
C572 C577 1.390 . S
C573 C567 1.465 . S
C573 C572 1.396 . S
C573 C574 1.399 . S
C574 H560 0.929 . S
C574 C573 1.399 . S
C574 C575 1.385 . S
C575 H561 0.931 . S
C575 C574 1.385 . S
C575 C576 1.389 . S
C576 C575 1.389 . S
C576 C577 1.387 . S
C577 H562 0.930 . S
C577 C572 1.390 . S
C577 C576 1.387 . S
H578 C590 0.930 . S
H579 C592 0.930 . S
H580 C593 0.930 . S
H581 C597 0.959 . S
H582 C597 0.959 . S
H583 C597 0.961 . S
H584 C598 0.960 . S
H585 C598 0.961 . S
H586 C598 0.959 . S
H587 C601 0.929 . S
H588 C602 0.931 . S
H589 C604 0.930 . S
C590 H578 0.930 . S
C590 C591 1.399 . S
C590 C595 1.399 . S
C591 C590 1.399 . S
C591 C592 1.376 . S
C592 H579 0.930 . S
C592 C591 1.376 . S
C592 C593 1.388 . S
C593 H580 0.930 . S
C593 C592 1.388 . S
C593 C594 1.390 . S
C594 C593 1.390 . S
C594 C595 1.394 . S
C594 C600 1.465 . S
C595 C590 1.399 . S
C595 C594 1.394 . S
C595 C596 1.516 . S
C596 C595 1.516 . S
C596 C597 1.502 . S
C596 C598 1.561 . S
C596 C599 1.526 . S
C597 H581 0.959 . S
C597 H582 0.959 . S
C597 H583 0.961 . S
C597 C596 1.502 . S
C598 H584 0.960 . S
C598 H585 0.961 . S
C598 H586 0.959 . S
C598 C596 1.561 . S
C599 C596 1.526 . S
C599 C600 1.396 . S
C599 C604 1.390 . S
C600 C594 1.465 . S
C600 C599 1.396 . S
C600 C601 1.399 . S
C601 H587 0.929 . S
C601 C600 1.399 . S
C601 C602 1.385 . S
C602 H588 0.931 . S
C602 C601 1.385 . S
C602 C603 1.389 . S
C603 C602 1.389 . S
C603 C604 1.387 . S
C604 H589 0.930 . S
C604 C599 1.390 . S
C604 C603 1.387 . S
H605 C617 0.930 . S
H606 C619 0.930 . S
H607 C620 0.930 . S
H608 C624 0.959 . S
H609 C624 0.959 . S
H610 C624 0.961 . S
H611 C625 0.960 . S
H612 C625 0.961 . S
H613 C625 0.959 . S
H614 C628 0.929 . S
H615 C629 0.931 . S
H616 C631 0.930 . S
C617 H605 0.930 . S
C617 C618 1.399 . S
C617 C622 1.399 . S
C618 C617 1.399 . S
C618 C619 1.376 . S
C619 H606 0.930 . S
C619 C618 1.376 . S
C619 C620 1.388 . S
C620 H607 0.930 . S
C620 C619 1.388 . S
C620 C621 1.390 . S
C621 C620 1.390 . S
C621 C622 1.394 . S
C621 C627 1.465 . S
C622 C617 1.399 . S
C622 C621 1.394 . S
C622 C623 1.516 . S
C623 C622 1.516 . S
C623 C624 1.502 . S
C623 C625 1.561 . S
C623 C626 1.526 . S
C624 H608 0.959 . S
C624 H609 0.959 . S
C624 H610 0.961 . S
C624 C623 1.502 . S
C625 H611 0.960 . S
C625 H612 0.961 . S
C625 H613 0.959 . S
C625 C623 1.561 . S
C626 C623 1.526 . S
C626 C627 1.396 . S
C626 C631 1.390 . S
C627 C621 1.465 . S
C627 C626 1.396 . S
C627 C628 1.399 . S
C628 H614 0.929 . S
C628 C627 1.399 . S
C628 C629 1.385 . S
C629 H615 0.931 . S
C629 C628 1.385 . S
C629 C630 1.389 . S
C630 C629 1.389 . S
C630 C631 1.387 . S
C631 H616 0.930 . S
C631 C626 1.390 . S
C631 C630 1.387 . S
H632 C644 0.930 . S
H633 C646 0.930 . S
H634 C647 0.930 . S
H635 C651 0.959 . S
H636 C651 0.959 . S
H637 C651 0.961 . S
H638 C652 0.960 . S
H639 C652 0.961 . S
H640 C652 0.959 . S
H641 C655 0.929 . S
H642 C656 0.931 . S
H643 C658 0.930 . S
C644 H632 0.930 . S
C644 C645 1.399 . S
C644 C649 1.399 . S
C645 C644 1.399 . S
C645 C646 1.376 . S
C646 H633 0.930 . S
C646 C645 1.376 . S
C646 C647 1.388 . S
C647 H634 0.930 . S
C647 C646 1.388 . S
C647 C648 1.390 . S
C648 C647 1.390 . S
C648 C649 1.394 . S
C648 C654 1.465 . S
C649 C644 1.399 . S
C649 C648 1.394 . S
C649 C650 1.516 . S
C650 C649 1.516 . S
C650 C651 1.502 . S
C650 C652 1.561 . S
C650 C653 1.526 . S
C651 H635 0.959 . S
C651 H636 0.959 . S
C651 H637 0.961 . S
C651 C650 1.502 . S
C652 H638 0.960 . S
C652 H639 0.961 . S
C652 H640 0.959 . S
C652 C650 1.561 . S
C653 C650 1.526 . S
C653 C654 1.396 . S
C653 C658 1.390 . S
C654 C648 1.465 . S
C654 C653 1.396 . S
C654 C655 1.399 . S
C655 H641 0.929 . S
C655 C654 1.399 . S
C655 C656 1.385 . S
C656 H642 0.931 . S
C656 C655 1.385 . S
C656 C657 1.389 . S
C657 C656 1.389 . S
C657 C658 1.387 . S
C658 H643 0.930 . S
C658 C653 1.390 . S
C658 C657 1.387 . S
H659 C671 0.930 . S
H660 C673 0.930 . S
H661 C674 0.930 . S
H662 C678 0.959 . S
H663 C678 0.959 . S
H664 C678 0.961 . S
H665 C679 0.960 . S
H666 C679 0.961 . S
H667 C679 0.959 . S
H668 C682 0.929 . S
H669 C683 0.931 1_554 S
H670 C685 0.930 . S
C671 H659 0.930 . S
C671 C672 1.399 . S
C671 C676 1.399 . S
C672 C671 1.399 . S
C672 C673 1.376 . S
C673 H660 0.930 . S
C673 C672 1.376 . S
C673 C674 1.388 . S
C674 H661 0.930 . S
C674 C673 1.388 . S
C674 C675 1.390 . S
C675 C674 1.390 . S
C675 C676 1.394 . S
C675 C681 1.465 . S
C676 C671 1.399 . S
C676 C675 1.394 . S
C676 C677 1.516 . S
C677 C676 1.516 . S
C677 C678 1.502 . S
C677 C679 1.561 . S
C677 C680 1.526 . S
C678 H662 0.959 . S
C678 H663 0.959 . S
C678 H664 0.961 . S
C678 C677 1.502 . S
C679 H665 0.960 . S
C679 H666 0.961 . S
C679 H667 0.959 . S
C679 C677 1.561 . S
C680 C677 1.526 . S
C680 C681 1.396 . S
C680 C685 1.390 . S
C681 C675 1.465 . S
C681 C680 1.396 . S
C681 C682 1.399 . S
C682 H668 0.929 . S
C682 C681 1.399 . S
C682 C683 1.385 . S
C683 H669 0.931 1_556 S
C683 C682 1.385 . S
C683 C684 1.389 . S
C684 C683 1.389 . S
C684 C685 1.387 . S
C685 H670 0.930 . S
C685 C680 1.390 . S
C685 C684 1.387 . S
H686 C698 0.930 . S
H687 C700 0.930 . S
H688 C701 0.930 . S
H689 C705 0.959 . S
H690 C705 0.959 . S
H691 C705 0.961 . S
H692 C706 0.960 . S
H693 C706 0.961 . S
H694 C706 0.959 . S
H695 C709 0.929 . S
H696 C710 0.931 . S
H697 C712 0.930 . S
C698 H686 0.930 . S
C698 C699 1.399 . S
C698 C703 1.399 . S
C699 C698 1.399 . S
C699 C700 1.376 . S
C700 H687 0.930 . S
C700 C699 1.376 . S
C700 C701 1.388 . S
C701 H688 0.930 . S
C701 C700 1.388 . S
C701 C702 1.390 . S
C702 C701 1.390 . S
C702 C703 1.394 . S
C702 C708 1.465 . S
C703 C698 1.399 . S
C703 C702 1.394 . S
C703 C704 1.516 . S
C704 C703 1.516 . S
C704 C705 1.502 . S
C704 C706 1.561 . S
C704 C707 1.526 . S
C705 H689 0.959 . S
C705 H690 0.959 . S
C705 H691 0.961 . S
C705 C704 1.502 . S
C706 H692 0.960 . S
C706 H693 0.961 . S
C706 H694 0.959 . S
C706 C704 1.561 . S
C707 C704 1.526 . S
C707 C708 1.396 . S
C707 C712 1.390 . S
C708 C702 1.465 . S
C708 C707 1.396 . S
C708 C709 1.399 . S
C709 H695 0.929 . S
C709 C708 1.399 . S
C709 C710 1.385 . S
C710 H696 0.931 . S
C710 C709 1.385 . S
C710 C711 1.389 . S
C711 C710 1.389 . S
C711 C712 1.387 . S
C712 H697 0.930 . S
C712 C707 1.390 . S
C712 C711 1.387 . S
H713 C725 0.930 . S
H714 C727 0.930 . S
H715 C728 0.930 . S
H716 C732 0.959 . S
H717 C732 0.959 . S
H718 C732 0.961 . S
H719 C733 0.960 . S
H720 C733 0.961 . S
H721 C733 0.959 . S
H722 C736 0.929 . S
H723 C737 0.931 . S
H724 C739 0.930 . S
C725 H713 0.930 . S
C725 C726 1.399 . S
C725 C730 1.399 . S
C726 C725 1.399 . S
C726 C727 1.376 . S
C727 H714 0.930 . S
C727 C726 1.376 . S
C727 C728 1.388 . S
C728 H715 0.930 . S
C728 C727 1.388 . S
C728 C729 1.390 . S
C729 C728 1.390 . S
C729 C730 1.394 . S
C729 C735 1.465 . S
C730 C725 1.399 . S
C730 C729 1.394 . S
C730 C731 1.516 . S
C731 C730 1.516 . S
C731 C732 1.502 . S
C731 C733 1.561 . S
C731 C734 1.526 . S
C732 H716 0.959 . S
C732 H717 0.959 . S
C732 H718 0.961 . S
C732 C731 1.502 . S
C733 H719 0.960 . S
C733 H720 0.961 . S
C733 H721 0.959 . S
C733 C731 1.561 . S
C734 C731 1.526 . S
C734 C735 1.396 . S
C734 C739 1.390 . S
C735 C729 1.465 . S
C735 C734 1.396 . S
C735 C736 1.399 . S
C736 H722 0.929 . S
C736 C735 1.399 . S
C736 C737 1.385 . S
C737 H723 0.931 . S
C737 C736 1.385 . S
C737 C738 1.389 . S
C738 C737 1.389 . S
C738 C739 1.387 . S
C739 H724 0.930 . S
C739 C734 1.390 . S
C739 C738 1.387 . S
H740 C752 0.930 . S
H741 C754 0.930 . S
H742 C755 0.930 . S
H743 C759 0.959 . S
H744 C759 0.959 . S
H745 C759 0.961 . S
H746 C760 0.960 . S
H747 C760 0.961 . S
H748 C760 0.959 . S
H749 C763 0.929 . S
H750 C764 0.931 . S
H751 C766 0.930 . S
C752 H740 0.930 . S
C752 C753 1.399 . S
C752 C757 1.399 . S
C753 C752 1.399 . S
C753 C754 1.376 . S
C754 H741 0.930 . S
C754 C753 1.376 . S
C754 C755 1.388 . S
C755 H742 0.930 . S
C755 C754 1.388 . S
C755 C756 1.390 . S
C756 C755 1.390 . S
C756 C757 1.394 . S
C756 C762 1.465 . S
C757 C752 1.399 . S
C757 C756 1.394 . S
C757 C758 1.516 . S
C758 C757 1.516 . S
C758 C759 1.502 . S
C758 C760 1.561 . S
C758 C761 1.526 . S
C759 H743 0.959 . S
C759 H744 0.959 . S
C759 H745 0.961 . S
C759 C758 1.502 . S
C760 H746 0.960 . S
C760 H747 0.961 . S
C760 H748 0.959 . S
C760 C758 1.561 . S
C761 C758 1.526 . S
C761 C762 1.396 . S
C761 C766 1.390 . S
C762 C756 1.465 . S
C762 C761 1.396 . S
C762 C763 1.399 . S
C763 H749 0.929 . S
C763 C762 1.399 . S
C763 C764 1.385 . S
C764 H750 0.931 . S
C764 C763 1.385 . S
C764 C765 1.389 . S
C765 C764 1.389 . S
C765 C766 1.387 . S
C766 H751 0.930 . S
C766 C761 1.390 . S
C766 C765 1.387 . S
H767 C779 0.930 . S
H768 C781 0.930 . S
H769 C782 0.930 . S
H770 C786 0.959 . S
H771 C786 0.959 . S
H772 C786 0.961 . S
H773 C787 0.960 . S
H774 C787 0.961 . S
H775 C787 0.959 . S
H776 C790 0.929 . S
H777 C791 0.931 . S
H778 C793 0.930 . S
C779 H767 0.930 . S
C779 C780 1.399 . S
C779 C784 1.399 . S
C780 C779 1.399 . S
C780 C781 1.376 . S
C781 H768 0.930 . S
C781 C780 1.376 . S
C781 C782 1.388 . S
C782 H769 0.930 . S
C782 C781 1.388 . S
C782 C783 1.390 . S
C783 C782 1.390 . S
C783 C784 1.394 . S
C783 C789 1.465 . S
C784 C779 1.399 . S
C784 C783 1.394 . S
C784 C785 1.516 . S
C785 C784 1.516 . S
C785 C786 1.502 . S
C785 C787 1.561 . S
C785 C788 1.526 . S
C786 H770 0.959 . S
C786 H771 0.959 . S
C786 H772 0.961 . S
C786 C785 1.502 . S
C787 H773 0.960 . S
C787 H774 0.961 . S
C787 H775 0.959 . S
C787 C785 1.561 . S
C788 C785 1.526 . S
C788 C789 1.396 . S
C788 C793 1.390 . S
C789 C783 1.465 . S
C789 C788 1.396 . S
C789 C790 1.399 . S
C790 H776 0.929 . S
C790 C789 1.399 . S
C790 C791 1.385 . S
C791 H777 0.931 . S
C791 C790 1.385 . S
C791 C792 1.389 . S
C792 C791 1.389 . S
C792 C793 1.387 . S
C793 H778 0.930 . S
C793 C788 1.390 . S
C793 C792 1.387 . S
H794 C806 0.930 . S
H795 C808 0.930 . S
H796 C809 0.930 . S
H797 C813 0.959 . S
H798 C813 0.959 . S
H799 C813 0.961 . S
H800 C814 0.960 . S
H801 C814 0.961 . S
H802 C814 0.959 . S
H803 C817 0.929 . S
H804 C818 0.931 . S
H805 C820 0.930 . S
C806 H794 0.930 . S
C806 C807 1.399 . S
C806 C811 1.399 . S
C807 C806 1.399 . S
C807 C808 1.376 . S
C808 H795 0.930 . S
C808 C807 1.376 . S
C808 C809 1.388 . S
C809 H796 0.930 . S
C809 C808 1.388 . S
C809 C810 1.390 . S
C810 C809 1.390 . S
C810 C811 1.394 . S
C810 C816 1.465 . S
C811 C806 1.399 . S
C811 C810 1.394 . S
C811 C812 1.516 . S
C812 C811 1.516 . S
C812 C813 1.502 . S
C812 C814 1.561 . S
C812 C815 1.526 . S
C813 H797 0.959 . S
C813 H798 0.959 . S
C813 H799 0.961 . S
C813 C812 1.502 . S
C814 H800 0.960 . S
C814 H801 0.961 . S
C814 H802 0.959 . S
C814 C812 1.561 . S
C815 C812 1.526 . S
C815 C816 1.396 . S
C815 C820 1.390 . S
C816 C810 1.465 . S
C816 C815 1.396 . S
C816 C817 1.399 . S
C817 H803 0.929 . S
C817 C816 1.399 . S
C817 C818 1.385 . S
C818 H804 0.931 . S
C818 C817 1.385 . S
C818 C819 1.389 . S
C819 C818 1.389 . S
C819 C820 1.387 . S
C820 H805 0.930 . S
C820 C815 1.390 . S
C820 C819 1.387 . S
H821 C833 0.930 . S
H822 C835 0.930 . S
H823 C836 0.930 . S
H824 C840 0.959 . S
H825 C840 0.959 . S
H826 C840 0.961 . S
H827 C841 0.960 . S
H828 C841 0.961 . S
H829 C841 0.959 . S
H830 C844 0.929 . S
H831 C845 0.931 . S
H832 C847 0.930 . S
C833 H821 0.930 . S
C833 C834 1.399 . S
C833 C838 1.399 . S
C834 C833 1.399 . S
C834 C835 1.376 . S
C835 H822 0.930 . S
C835 C834 1.376 . S
C835 C836 1.388 . S
C836 H823 0.930 . S
C836 C835 1.388 . S
C836 C837 1.390 . S
C837 C836 1.390 . S
C837 C838 1.394 . S
C837 C843 1.465 . S
C838 C833 1.399 . S
C838 C837 1.394 . S
C838 C839 1.516 . S
C839 C838 1.516 . S
C839 C840 1.502 . S
C839 C841 1.561 . S
C839 C842 1.526 . S
C840 H824 0.959 . S
C840 H825 0.959 . S
C840 H826 0.961 . S
C840 C839 1.502 . S
C841 H827 0.960 . S
C841 H828 0.961 . S
C841 H829 0.959 . S
C841 C839 1.561 . S
C842 C839 1.526 . S
C842 C843 1.396 . S
C842 C847 1.390 . S
C843 C837 1.465 . S
C843 C842 1.396 . S
C843 C844 1.399 . S
C844 H830 0.929 . S
C844 C843 1.399 . S
C844 C845 1.385 . S
C845 H831 0.931 . S
C845 C844 1.385 . S
C845 C846 1.389 . S
C846 C845 1.389 . S
C846 C847 1.387 . S
C847 H832 0.930 . S
C847 C842 1.390 . S
C847 C846 1.387 . S
H848 C860 0.930 . S
H849 C862 0.930 . S
H850 C863 0.930 . S
H851 C867 0.959 . S
H852 C867 0.959 . S
H853 C867 0.961 . S
H854 C868 0.960 . S
H855 C868 0.961 . S
H856 C868 0.959 . S
H857 C871 0.929 . S
H858 C872 0.931 . S
H859 C874 0.930 . S
C860 H848 0.930 . S
C860 C861 1.399 . S
C860 C865 1.399 . S
C861 C860 1.399 . S
C861 C862 1.376 . S
C862 H849 0.930 . S
C862 C861 1.376 . S
C862 C863 1.388 . S
C863 H850 0.930 . S
C863 C862 1.388 . S
C863 C864 1.390 . S
C864 C863 1.390 . S
C864 C865 1.394 . S
C864 C870 1.465 . S
C865 C860 1.399 . S
C865 C864 1.394 . S
C865 C866 1.516 . S
C866 C865 1.516 . S
C866 C867 1.502 . S
C866 C868 1.561 . S
C866 C869 1.526 . S
C867 H851 0.959 . S
C867 H852 0.959 . S
C867 H853 0.961 . S
C867 C866 1.502 . S
C868 H854 0.960 . S
C868 H855 0.961 . S
C868 H856 0.959 . S
C868 C866 1.561 . S
C869 C866 1.526 . S
C869 C870 1.396 . S
C869 C874 1.390 . S
C870 C864 1.465 . S
C870 C869 1.396 . S
C870 C871 1.399 . S
C871 H857 0.929 . S
C871 C870 1.399 . S
C871 C872 1.385 . S
C872 H858 0.931 . S
C872 C871 1.385 . S
C872 C873 1.389 . S
C873 C872 1.389 . S
C873 C874 1.387 . S
C874 H859 0.930 . S
C874 C869 1.390 . S
C874 C873 1.387 . S
H875 C887 0.930 . S
H876 C889 0.930 . S
H877 C890 0.930 . S
H878 C894 0.959 . S
H879 C894 0.959 . S
H880 C894 0.961 . S
H881 C895 0.960 . S
H882 C895 0.961 . S
H883 C895 0.959 . S
H884 C898 0.929 . S
H885 C899 0.931 . S
H886 C901 0.930 . S
C887 H875 0.930 . S
C887 C888 1.399 . S
C887 C892 1.399 . S
C888 C887 1.399 . S
C888 C889 1.376 . S
C889 H876 0.930 . S
C889 C888 1.376 . S
C889 C890 1.388 . S
C890 H877 0.930 . S
C890 C889 1.388 . S
C890 C891 1.390 . S
C891 C890 1.390 . S
C891 C892 1.394 . S
C891 C897 1.465 . S
C892 C887 1.399 . S
C892 C891 1.394 . S
C892 C893 1.516 . S
C893 C892 1.516 . S
C893 C894 1.502 . S
C893 C895 1.561 . S
C893 C896 1.526 . S
C894 H878 0.959 . S
C894 H879 0.959 . S
C894 H880 0.961 . S
C894 C893 1.502 . S
C895 H881 0.960 . S
C895 H882 0.961 . S
C895 H883 0.959 . S
C895 C893 1.561 . S
C896 C893 1.526 . S
C896 C897 1.396 . S
C896 C901 1.390 . S
C897 C891 1.465 . S
C897 C896 1.396 . S
C897 C898 1.399 . S
C898 H884 0.929 . S
C898 C897 1.399 . S
C898 C899 1.385 . S
C899 H885 0.931 . S
C899 C898 1.385 . S
C899 C900 1.389 . S
C900 C899 1.389 . S
C900 C901 1.387 . S
C901 H886 0.930 . S
C901 C896 1.390 . S
C901 C900 1.387 . S
H902 C914 0.930 . S
H903 C916 0.930 . S
H904 C917 0.930 . S
H905 C921 0.959 . S
H906 C921 0.959 . S
H907 C921 0.961 . S
H908 C922 0.960 . S
H909 C922 0.961 . S
H910 C922 0.959 . S
H911 C925 0.929 . S
H912 C926 0.931 . S
H913 C928 0.930 . S
C914 H902 0.930 . S
C914 C915 1.399 . S
C914 C919 1.399 . S
C915 C914 1.399 . S
C915 C916 1.376 . S
C916 H903 0.930 . S
C916 C915 1.376 . S
C916 C917 1.388 . S
C917 H904 0.930 . S
C917 C916 1.388 . S
C917 C918 1.390 . S
C918 C917 1.390 . S
C918 C919 1.394 . S
C918 C924 1.465 . S
C919 C914 1.399 . S
C919 C918 1.394 . S
C919 C920 1.516 . S
C920 C919 1.516 . S
C920 C921 1.502 . S
C920 C922 1.561 . S
C920 C923 1.526 . S
C921 H905 0.959 . S
C921 H906 0.959 . S
C921 H907 0.961 . S
C921 C920 1.502 . S
C922 H908 0.960 . S
C922 H909 0.961 . S
C922 H910 0.959 . S
C922 C920 1.561 . S
C923 C920 1.526 . S
C923 C924 1.396 . S
C923 C928 1.390 . S
C924 C918 1.465 . S
C924 C923 1.396 . S
C924 C925 1.399 . S
C925 H911 0.929 . S
C925 C924 1.399 . S
C925 C926 1.385 . S
C926 H912 0.931 . S
C926 C925 1.385 . S
C926 C927 1.389 . S
C927 C926 1.389 . S
C927 C928 1.387 . S
C928 H913 0.930 . S
C928 C923 1.390 . S
C928 C927 1.387 . S
H929 C941 0.930 . S
H930 C943 0.930 . S
H931 C944 0.930 . S
H932 C948 0.959 . S
H933 C948 0.959 . S
H934 C948 0.961 . S
H935 C949 0.960 . S
H936 C949 0.961 . S
H937 C949 0.959 . S
H938 C952 0.929 . S
H939 C953 0.931 . S
H940 C955 0.930 . S
C941 H929 0.930 . S
C941 C942 1.399 . S
C941 C946 1.399 . S
C942 C941 1.399 . S
C942 C943 1.376 . S
C943 H930 0.930 . S
C943 C942 1.376 . S
C943 C944 1.388 . S
C944 H931 0.930 . S
C944 C943 1.388 . S
C944 C945 1.390 . S
C945 C944 1.390 . S
C945 C946 1.394 . S
C945 C951 1.465 . S
C946 C941 1.399 . S
C946 C945 1.394 . S
C946 C947 1.516 . S
C947 C946 1.516 . S
C947 C948 1.502 . S
C947 C949 1.561 . S
C947 C950 1.526 . S
C948 H932 0.959 . S
C948 H933 0.959 . S
C948 H934 0.961 . S
C948 C947 1.502 . S
C949 H935 0.960 . S
C949 H936 0.961 . S
C949 H937 0.959 . S
C949 C947 1.561 . S
C950 C947 1.526 . S
C950 C951 1.396 . S
C950 C955 1.390 . S
C951 C945 1.465 . S
C951 C950 1.396 . S
C951 C952 1.399 . S
C952 H938 0.929 . S
C952 C951 1.399 . S
C952 C953 1.385 . S
C953 H939 0.931 . S
C953 C952 1.385 . S
C953 C954 1.389 . S
C954 C953 1.389 . S
C954 C955 1.387 . S
C955 H940 0.930 . S
C955 C950 1.390 . S
C955 C954 1.387 . S
H956 C968 0.930 . S
H957 C970 0.930 . S
H958 C971 0.930 . S
H959 C975 0.959 . S
H960 C975 0.959 . S
H961 C975 0.961 . S
H962 C976 0.960 . S
H963 C976 0.961 . S
H964 C976 0.959 . S
H965 C979 0.929 . S
H966 C980 0.931 . S
H967 C982 0.930 . S
C968 H956 0.930 . S
C968 C969 1.399 . S
C968 C973 1.399 . S
C969 C968 1.399 . S
C969 C970 1.376 . S
C970 H957 0.930 . S
C970 C969 1.376 . S
C970 C971 1.388 . S
C971 H958 0.930 . S
C971 C970 1.388 . S
C971 C972 1.390 . S
C972 C971 1.390 . S
C972 C973 1.394 . S
C972 C978 1.465 . S
C973 C968 1.399 . S
C973 C972 1.394 . S
C973 C974 1.516 . S
C974 C973 1.516 . S
C974 C975 1.502 . S
C974 C976 1.561 . S
C974 C977 1.526 . S
C975 H959 0.959 . S
C975 H960 0.959 . S
C975 H961 0.961 . S
C975 C974 1.502 . S
C976 H962 0.960 . S
C976 H963 0.961 . S
C976 H964 0.959 . S
C976 C974 1.561 . S
C977 C974 1.526 . S
C977 C978 1.396 . S
C977 C982 1.390 . S
C978 C972 1.465 . S
C978 C977 1.396 . S
C978 C979 1.399 . S
C979 H965 0.929 . S
C979 C978 1.399 . S
C979 C980 1.385 . S
C980 H966 0.931 . S
C980 C979 1.385 . S
C980 C981 1.389 . S
C981 C980 1.389 . S
C981 C982 1.387 . S
C982 H967 0.930 . S
C982 C977 1.390 . S
C982 C981 1.387 . S
H983 C995 0.930 . S
H984 C997 0.930 . S
H985 C998 0.930 . S
H986 C1002 0.959 . S
H987 C1002 0.959 . S
H988 C1002 0.961 . S
H989 C1003 0.960 . S
H990 C1003 0.961 . S
H991 C1003 0.959 . S
H992 C1006 0.929 . S
H993 C1007 0.931 . S
H994 C1009 0.930 . S
C995 H983 0.930 . S
C995 C996 1.399 . S
C995 C1000 1.399 . S
C996 C995 1.399 . S
C996 C997 1.376 . S
C997 H984 0.930 . S
C997 C996 1.376 . S
C997 C998 1.388 . S
C998 H985 0.930 . S
C998 C997 1.388 . S
C998 C999 1.390 . S
C999 C998 1.390 . S
C999 C1000 1.394 . S
C999 C1005 1.465 . S
C1000 C995 1.399 . S
C1000 C999 1.394 . S
C1000 C1001 1.516 . S
C1001 C1000 1.516 . S
C1001 C1002 1.502 . S
C1001 C1003 1.561 . S
C1001 C1004 1.526 . S
C1002 H986 0.959 . S
C1002 H987 0.959 . S
C1002 H988 0.961 . S
C1002 C1001 1.502 . S
C1003 H989 0.960 . S
C1003 H990 0.961 . S
C1003 H991 0.959 . S
C1003 C1001 1.561 . S
C1004 C1001 1.526 . S
C1004 C1005 1.396 . S
C1004 C1009 1.390 . S
C1005 C999 1.465 . S
C1005 C1004 1.396 . S
C1005 C1006 1.399 . S
C1006 H992 0.929 . S
C1006 C1005 1.399 . S
C1006 C1007 1.385 . S
C1007 H993 0.931 . S
C1007 C1006 1.385 . S
C1007 C1008 1.389 . S
C1008 C1007 1.389 . S
C1008 C1009 1.387 . S
C1009 H994 0.930 . S
C1009 C1004 1.390 . S
C1009 C1008 1.387 . S
H1010 C1022 0.930 . S
H1011 C1024 0.930 . S
H1012 C1025 0.930 . S
H1013 C1029 0.959 . S
H1014 C1029 0.959 . S
H1015 C1029 0.961 . S
H1016 C1030 0.960 . S
H1017 C1030 0.966 . S
H1018 C1030 0.959 . S
H1019 C1033 0.929 . S
H1020 C1034 0.931 . S
H1021 C1036 0.930 . S
C1022 H1010 0.930 . S
C1022 C1023 1.399 . S
C1022 C1027 1.399 . S
C1023 C1022 1.399 . S
C1023 C1024 1.376 . S
C1024 H1011 0.930 . S
C1024 C1023 1.376 . S
C1024 C1025 1.388 . S
C1025 H1012 0.930 . S
C1025 C1024 1.388 . S
C1025 C1026 1.390 . S
C1026 C1025 1.390 . S
C1026 C1027 1.394 . S
C1026 C1032 1.465 . S
C1027 C1022 1.399 . S
C1027 C1026 1.394 . S
C1027 C1028 1.516 . S
C1028 C1027 1.516 . S
C1028 C1029 1.502 . S
C1028 C1030 1.561 . S
C1028 C1031 1.526 . S
C1029 H1013 0.959 . S
C1029 H1014 0.959 . S
C1029 H1015 0.961 . S
C1029 C1028 1.502 . S
C1030 H1016 0.960 . S
C1030 H1017 0.966 . S
C1030 H1018 0.959 . S
C1030 C1028 1.561 . S
C1031 C1028 1.526 . S
C1031 C1032 1.396 . S
C1031 C1036 1.390 . S
C1032 C1026 1.465 . S
C1032 C1031 1.396 . S
C1032 C1033 1.399 . S
C1033 H1019 0.929 . S
C1033 C1032 1.399 . S
C1033 C1034 1.385 . S
C1034 H1020 0.931 . S
C1034 C1033 1.385 . S
C1034 C1035 1.389 . S
C1035 C1034 1.389 . S
C1035 C1036 1.387 . S
C1036 H1021 0.930 . S
C1036 C1031 1.390 . S
C1036 C1035 1.387 . S
H1037 C1049 0.930 . S
H1038 C1051 0.930 . S
H1039 C1052 0.930 . S
H1040 C1056 0.959 . S
H1041 C1056 0.959 . S
H1042 C1056 0.961 . S
H1043 C1057 0.960 . S
H1044 C1057 0.961 . S
H1045 C1057 0.959 . S
H1046 C1060 0.929 . S
H1047 C1061 0.931 . S
H1048 C1063 0.930 . S
C1049 H1037 0.930 . S
C1049 C1050 1.399 . S
C1049 C1054 1.399 . S
C1050 C1049 1.399 . S
C1050 C1051 1.376 . S
C1051 H1038 0.930 . S
C1051 C1050 1.376 . S
C1051 C1052 1.388 . S
C1052 H1039 0.930 . S
C1052 C1051 1.388 . S
C1052 C1053 1.390 . S
C1053 C1052 1.390 . S
C1053 C1054 1.394 . S
C1053 C1059 1.465 . S
C1054 C1049 1.399 . S
C1054 C1053 1.394 . S
C1054 C1055 1.516 . S
C1055 C1054 1.516 . S
C1055 C1056 1.502 . S
C1055 C1057 1.561 . S
C1055 C1058 1.526 . S
C1056 H1040 0.959 . S
C1056 H1041 0.959 . S
C1056 H1042 0.961 . S
C1056 C1055 1.502 . S
C1057 H1043 0.960 . S
C1057 H1044 0.961 . S
C1057 H1045 0.959 . S
C1057 C1055 1.561 . S
C1058 C1055 1.526 . S
C1058 C1059 1.396 . S
C1058 C1063 1.390 . S
C1059 C1053 1.465 . S
C1059 C1058 1.396 . S
C1059 C1060 1.399 . S
C1060 H1046 0.929 . S
C1060 C1059 1.399 . S
C1060 C1061 1.385 . S
C1061 H1047 0.931 . S
C1061 C1060 1.385 . S
C1061 C1062 1.389 . S
C1062 C1061 1.389 . S
C1062 C1063 1.387 . S
C1063 H1048 0.930 . S
C1063 C1058 1.390 . S
C1063 C1062 1.387 . S
C429 C29 1.236 . S
C441 C263 1.202 . S
C456 C49 0.935 . S
C468 C312 0.963 . S
C495 C338 2.511 . S
C483 C93 2.480 . S
C510 C119 2.302 . S
C522 C386 2.277 . S
C549 C298 2.312 . S
C537 C17 2.295 . S
C576 C266 0.928 . S
C564 C61 0.896 . S
C603 C387 1.865 . S
C591 C81 1.897 . S
C630 C355 1.667 . S
C618 C125 1.609 . S
C645 C23 1.613 . S
C657 C383 1.607 . S
C684 C315 2.314 . S
C672 C87 2.324 . S
C699 C113 2.313 . S
C711 C267 2.346 . S
C726 C55 0.911 . S
C738 C352 0.833 . S
C765 C272 1.220 . S
C753 C157 1.041 . S
C780 C189 0.933 . S
C792 C303 1.014 . S
C807 C221 2.450 . S
C819 C347 2.457 . S
C834 C253 2.378 . S
C846 C395 2.369 . S
C861 C145 2.181 . S
C873 C307 2.393 . S
C900 C275 0.758 . S
C888 C183 0.827 . S
C927 C378 1.938 . S
C915 C209 1.903 . S
C954 C346 1.628 . S
C942 C247 1.607 . S
C969 C151 1.528 . S
C981 C392 1.621 . S
C1008 C306 2.289 . S
C996 C215 2.309 . S
C1035 C258 2.320 . S
C1023 C241 2.262 . S
C1050 C177 0.825 . S
C1062 C343 0.821 . S
