# Generated by pormake.
# Topology nom, (4,4)-cn, num edge types: 1
# Building blocks:
#     Node 0, Type 0, BuildingBlock: NAHDIM_clean_linker_0, # of connection points: 4
#     Node 1, Type 0, BuildingBlock: NAHDIM_clean_linker_0, # of connection points: 4
#     Node 2, Type 0, BuildingBlock: NAHDIM_clean_linker_0, # of connection points: 4
#     Node 3, Type 0, BuildingBlock: NAHDIM_clean_linker_0, # of connection points: 4
#     Node 4, Type 0, BuildingBlock: NAHDIM_clean_linker_0, # of connection points: 4
#     Node 5, Type 0, BuildingBlock: NAHDIM_clean_linker_0, # of connection points: 4
#     Node 6, Type 1, BuildingBlock: TATPOV_clean_sbu_0, # of connection points: 4
#     Node 7, Type 1, BuildingBlock: TATPOV_clean_sbu_0, # of connection points: 4
#     Node 8, Type 1, BuildingBlock: TATPOV_clean_sbu_0, # of connection points: 4
#     Node 9, Type 1, BuildingBlock: TATPOV_clean_sbu_0, # of connection points: 4
#     Node 10, Type 1, BuildingBlock: TATPOV_clean_sbu_0, # of connection points: 4
#     Node 11, Type 1, BuildingBlock: TATPOV_clean_sbu_0, # of connection points: 4
#     Edge 12, Type (0, 1), BuildingBlock: AJUNOK_clean_linker_0, # of connection points: 2
#     Edge 13, Type (0, 1), BuildingBlock: AJUNOK_clean_linker_0, # of connection points: 2
#     Edge 14, Type (0, 1), BuildingBlock: AJUNOK_clean_linker_0, # of connection points: 2
#     Edge 15, Type (0, 1), BuildingBlock: AJUNOK_clean_linker_0, # of connection points: 2
#     Edge 16, Type (0, 1), BuildingBlock: AJUNOK_clean_linker_0, # of connection points: 2
#     Edge 17, Type (0, 1), BuildingBlock: AJUNOK_clean_linker_0, # of connection points: 2
#     Edge 18, Type (0, 1), BuildingBlock: AJUNOK_clean_linker_0, # of connection points: 2
#     Edge 19, Type (0, 1), BuildingBlock: AJUNOK_clean_linker_0, # of connection points: 2
#     Edge 20, Type (0, 1), BuildingBlock: AJUNOK_clean_linker_0, # of connection points: 2
#     Edge 21, Type (0, 1), BuildingBlock: AJUNOK_clean_linker_0, # of connection points: 2
#     Edge 22, Type (0, 1), BuildingBlock: AJUNOK_clean_linker_0, # of connection points: 2
#     Edge 23, Type (0, 1), BuildingBlock: AJUNOK_clean_linker_0, # of connection points: 2
#     Edge 24, Type (0, 1), BuildingBlock: AJUNOK_clean_linker_0, # of connection points: 2
#     Edge 25, Type (0, 1), BuildingBlock: AJUNOK_clean_linker_0, # of connection points: 2
#     Edge 26, Type (0, 1), BuildingBlock: AJUNOK_clean_linker_0, # of connection points: 2
#     Edge 27, Type (0, 1), BuildingBlock: AJUNOK_clean_linker_0, # of connection points: 2
#     Edge 28, Type (0, 1), BuildingBlock: AJUNOK_clean_linker_0, # of connection points: 2
#     Edge 29, Type (0, 1), BuildingBlock: AJUNOK_clean_linker_0, # of connection points: 2
#     Edge 30, Type (0, 1), BuildingBlock: AJUNOK_clean_linker_0, # of connection points: 2
#     Edge 31, Type (0, 1), BuildingBlock: AJUNOK_clean_linker_0, # of connection points: 2
#     Edge 32, Type (0, 1), BuildingBlock: AJUNOK_clean_linker_0, # of connection points: 2
#     Edge 33, Type (0, 1), BuildingBlock: AJUNOK_clean_linker_0, # of connection points: 2
#     Edge 34, Type (0, 1), BuildingBlock: AJUNOK_clean_linker_0, # of connection points: 2
#     Edge 35, Type (0, 1), BuildingBlock: AJUNOK_clean_linker_0, # of connection points: 2
# Relax obj value: 0.067
# Max RMSD: 0.135
# Mean RMSD: 0.126
data_MOF--net-nom--node1-TATPOV_clean_sbu_0--node2-NAHDIM_clean_linker_0--edge1-AJUNOK_clean_linker_0
_symmetry_space_group_name_H-M    P1
_symmetry_Int_Tables_number       1
_symmetry_cell_setting            triclinic
loop_
_symmetry_equiv_pos_as_xyz
'x, y, z'
_cell_length_a     46.492668
_cell_length_b     47.199577
_cell_length_c     56.266581
_cell_angle_alpha  90.77601
_cell_angle_beta   90.598136
_cell_angle_gamma 120.0162
loop_
_atom_site_label
_atom_site_type_symbol
_atom_site_fract_x
_atom_site_fract_y
_atom_site_fract_z
_atom_type_partial_charge
C0 C 0.18289 0.60021 0.20144 0.0
C1 C 0.19698 0.61571 0.22602 0.0
C2 C 0.14651 0.59523 0.25008 0.0
C3 C 0.13939 0.56262 0.25159 0.0
C4 C 0.11027 0.53897 0.26243 0.0
C5 C 0.08783 0.54805 0.27178 0.0
C6 C 0.0954 0.58104 0.27074 0.0
C7 C 0.12481 0.60417 0.26009 0.0
C8 C 0.10314 0.50413 0.26351 0.0
C9 C 0.07208 0.59184 0.28028 0.0
C10 C 0.88703 0.45756 0.15461 0.0
C11 C 0.90522 0.46948 0.17782 0.0
C12 C 0.93089 0.45537 0.20978 0.0
C13 C 0.93571 0.48165 0.22469 0.0
C14 C 0.95589 0.49025 0.24517 0.0
C15 C 0.9714 0.472 0.25117 0.0
C16 C 0.96523 0.44445 0.237 0.0
C17 C 0.9449 0.43641 0.21647 0.0
C18 C 0.96183 0.51987 0.25977 0.0
C19 C 0.98104 0.42426 0.24313 0.0
C20 C 0.86211 0.42644 0.3878 0.0
C21 C 0.87681 0.45867 0.37981 0.0
C22 C 0.91029 0.47567 0.37348 0.0
C23 C 0.92957 0.4602 0.37545 0.0
C24 C 0.91523 0.42826 0.38455 0.0
C25 C 0.88162 0.41184 0.39079 0.0
C26 C 0.92498 0.51003 0.36444 0.0
C27 C 0.93524 0.41129 0.38713 0.0
C28 C 0.17913 0.6396 0.42998 0.0
C29 C 0.15402 0.61042 0.4442 0.0
C30 C 0.09786 0.58353 0.42664 0.0
C31 C 0.07769 0.59261 0.41424 0.0
C32 C 0.05248 0.57053 0.39863 0.0
C33 C 0.04701 0.53835 0.39577 0.0
C34 C 0.06617 0.52845 0.40925 0.0
C35 C 0.09141 0.55116 0.42466 0.0
C36 C 0.0321 0.58176 0.38486 0.0
C37 C 0.0603 0.49406 0.40704 0.0
C38 C 0.05509 0.52275 0.28067 0.0
C39 C 0.02993 0.50508 0.26375 0.0
C40 C 0.99713 0.48445 0.27043 0.0
C41 C 0.98914 0.48052 0.29478 0.0
C42 C 0.95638 0.46011 0.30214 0.0
C43 C 0.94834 0.45844 0.32605 0.0
C44 C 0.97279 0.47712 0.34347 0.0
C45 C 0.96454 0.47739 0.36759 0.0
C46 C 0.98941 0.49655 0.38438 0.0
C47 C 0.02246 0.51581 0.37772 0.0
C48 C 0.03124 0.51577 0.35374 0.0
C49 C 0.06429 0.53502 0.34646 0.0
C50 C 0.07235 0.53657 0.32259 0.0
C51 C 0.04764 0.51916 0.3051 0.0
C52 C 0.01444 0.49833 0.31216 0.0
C53 C 0.00623 0.49668 0.33652 0.0
C54 C 0.78047 0.3756 0.369 0.0
C55 C 0.80423 0.40977 0.37951 0.0
O56 O 0.1735 0.61885 0.23894 0.0
O57 O 0.12265 0.60646 0.44074 0.0
O58 O 0.8292 0.40877 0.3925 0.0
O59 O 0.91385 0.44848 0.18866 0.0
H60 H 0.20446 0.59996 0.23573 0.0
H61 H 0.16157 0.57504 0.2032 0.0
H62 H 0.17418 0.61478 0.19151 0.0
H63 H 0.20221 0.59866 0.19096 0.0
H64 H 0.15607 0.55528 0.24414 0.0
H65 H 0.13067 0.62941 0.25898 0.0
H66 H 0.08206 0.48845 0.25122 0.0
H67 H 0.12492 0.50182 0.25841 0.0
H68 H 0.09572 0.49469 0.28172 0.0
H69 H 0.07998 0.61753 0.27578 0.0
H70 H 0.04656 0.57573 0.27306 0.0
H71 H 0.07113 0.58989 0.29992 0.0
H72 H 0.92639 0.49522 0.1777 0.0
H73 H 0.84058 0.45236 0.16173 0.0
H74 H 0.90417 0.47502 0.14107 0.0
H75 H 0.89032 0.43651 0.14858 0.0
H76 H 0.92443 0.49616 0.22017 0.0
H77 H 0.9408 0.41594 0.20511 0.0
H78 H 0.98875 0.53817 0.26042 0.0
H79 H 0.94824 0.53171 0.25247 0.0
H80 H 0.95383 0.51271 0.27829 0.0
H81 H 0.97059 0.40135 0.23218 0.0
H82 H 0.00819 0.43884 0.24014 0.0
H83 H 0.97754 0.41792 0.26222 0.0
H84 H 0.81451 0.42557 0.36378 0.0
H85 H 0.86214 0.47059 0.37848 0.0
H86 H 0.87015 0.38712 0.39733 0.0
H87 H 0.93356 0.51096 0.34598 0.0
H88 H 0.90688 0.51889 0.36456 0.0
H89 H 0.94694 0.52696 0.37558 0.0
H90 H 0.92046 0.38642 0.39449 0.0
H91 H 0.94469 0.40923 0.36951 0.0
H92 H 0.95714 0.42611 0.39901 0.0
H93 H 0.15505 0.58869 0.43748 0.0
H94 H 0.20451 0.64326 0.43261 0.0
H95 H 0.1725 0.63493 0.41074 0.0
H96 H 0.17926 0.66235 0.4355 0.0
H97 H 0.08242 0.61745 0.41636 0.0
H98 H 0.10575 0.54343 0.43522 0.0
H99 H 0.03498 0.57942 0.36549 0.0
H100 H 0.00541 0.56589 0.38885 0.0
H101 H 0.03941 0.60756 0.38919 0.0
H102 H 0.07631 0.48972 0.4195 0.0
H103 H 0.03386 0.47621 0.41057 0.0
H104 H 0.06533 0.48937 0.38858 0.0
H105 H 0.03561 0.50898 0.245 0.0
H106 H 0.93654 0.44563 0.28941 0.0
H107 H 0.92261 0.44272 0.33066 0.0
H108 H 0.98277 0.49735 0.40271 0.0
H109 H 0.08426 0.54949 0.35908 0.0
H110 H 0.0981 0.55209 0.31794 0.0
H111 H 0.75945 0.3755 0.35934 0.0
H112 H 0.79393 0.3685 0.35621 0.0
H113 H 0.77048 0.35695 0.38306 0.0
C114 C 0.42447 0.839 0.6164 0.0
C115 C 0.40808 0.82696 0.59179 0.0
C116 C 0.42581 0.87811 0.5701 0.0
C117 C 0.45838 0.88513 0.56543 0.0
C118 C 0.48078 0.91408 0.55408 0.0
C119 C 0.47071 0.93679 0.54778 0.0
C120 C 0.43797 0.92978 0.5525 0.0
C121 C 0.41587 0.90029 0.56329 0.0
C122 C 0.5154 0.92062 0.54914 0.0
C123 C 0.42649 0.95374 0.54671 0.0
C124 C 0.6465 0.09325 0.65764 0.0
C125 C 0.61883 0.09478 0.64375 0.0
C126 C 0.60743 0.08659 0.60148 0.0
C127 C 0.57465 0.08044 0.60077 0.0
C128 C 0.55273 0.06162 0.5822 0.0
C129 C 0.56373 0.04814 0.56427 0.0
C130 C 0.59717 0.0552 0.56458 0.0
C131 C 0.61882 0.075 0.583 0.0
C132 C 0.51759 0.05545 0.58213 0.0
C133 C 0.60971 0.04078 0.54607 0.0
C134 C 0.59275 0.15814 0.43221 0.0
C135 C 0.5611 0.1465 0.44163 0.0
C136 C 0.54097 0.11329 0.44673 0.0
C137 C 0.55297 0.09145 0.44243 0.0
C138 C 0.58417 0.10287 0.43171 0.0
C139 C 0.60356 0.13617 0.42647 0.0
C140 C 0.50731 0.10171 0.45735 0.0
C141 C 0.59748 0.08014 0.42664 0.0
C142 C 0.38105 0.84688 0.38259 0.0
C143 C 0.41093 0.87253 0.36904 0.0
C144 C 0.43371 0.92636 0.38875 0.0
C145 C 0.42168 0.94497 0.39975 0.0
C146 C 0.44091 0.96926 0.41687 0.0
C147 C 0.47318 0.97533 0.42277 0.0
C148 C 0.48599 0.95742 0.41104 0.0
C149 C 0.46616 0.93317 0.39406 0.0
C150 C 0.42668 0.98821 0.42884 0.0
C151 C 0.52068 0.96398 0.41647 0.0
C152 C 0.495 0.96892 0.53791 0.0
C153 C 0.51775 0.99288 0.55377 0.0
C154 C 0.53965 0.02459 0.54636 0.0
C155 C 0.53835 0.03304 0.52253 0.0
C156 C 0.55847 0.06521 0.51482 0.0
C157 C 0.55707 0.07323 0.4913 0.0
C158 C 0.53559 0.04933 0.47457 0.0
C159 C 0.53384 0.05728 0.45064 0.0
C160 C 0.51318 0.03275 0.43427 0.0
C161 C 0.49357 0.00033 0.44125 0.0
C162 C 0.49391 0.99211 0.46529 0.0
C163 C 0.4735 0.95999 0.47311 0.0
C164 C 0.47379 0.95228 0.49687 0.0
C165 C 0.49481 0.97631 0.51366 0.0
C166 C 0.51619 0.00866 0.50605 0.0
C167 C 0.51525 0.0167 0.48195 0.0
C168 C 0.65581 0.22579 0.45674 0.0
C169 C 0.62112 0.21451 0.44631 0.0
O170 O 0.4032 0.85066 0.58126 0.0
O171 O 0.41373 0.90296 0.37254 0.0
O172 O 0.61349 0.19052 0.42895 0.0
O173 O 0.62802 0.10236 0.62033 0.0
H174 H 0.4242 0.82151 0.58044 0.0
H175 H 0.40869 0.84468 0.62796 0.0
H176 H 0.44906 0.86149 0.61483 0.0
H177 H 0.42834 0.82005 0.62495 0.0
H178 H 0.46672 0.86843 0.57063 0.0
H179 H 0.39074 0.8947 0.56697 0.0
H180 H 0.53339 0.94038 0.56136 0.0
H181 H 0.51779 0.89858 0.55169 0.0
H182 H 0.52231 0.92908 0.53066 0.0
H183 H 0.4015 0.94612 0.5538 0.0
H184 H 0.44441 0.97841 0.55414 0.0
H185 H 0.42543 0.95581 0.52714 0.0
H186 H 0.59681 0.06961 0.64453 0.0
H187 H 0.63981 0.0881 0.67663 0.0
H188 H 0.64987 0.07321 0.65017 0.0
H189 H 0.67053 0.11644 0.65653 0.0
H190 H 0.5661 0.09012 0.61483 0.0
H191 H 0.64428 0.08009 0.58372 0.0
H192 H 0.50048 0.02986 0.58739 0.0
H193 H 0.51467 0.07214 0.59472 0.0
H194 H 0.50998 0.05852 0.56401 0.0
H195 H 0.6353 0.04591 0.55026 0.0
H196 H 0.59297 0.01386 0.54456 0.0
H197 H 0.60979 0.05116 0.52849 0.0
H198 H 0.60365 0.20449 0.46136 0.0
H199 H 0.55234 0.1635 0.44522 0.0
H200 H 0.62788 0.14545 0.41882 0.0
H201 H 0.50778 0.09499 0.47612 0.0
H202 H 0.49999 0.12079 0.45693 0.0
H203 H 0.48812 0.07951 0.44762 0.0
H204 H 0.62235 0.09292 0.41844 0.0
H205 H 0.59932 0.06897 0.44342 0.0
H206 H 0.58003 0.05995 0.41448 0.0
H207 H 0.43315 0.87225 0.37617 0.0
H208 H 0.37834 0.82229 0.3799 0.0
H209 H 0.38472 0.85308 0.40191 0.0
H210 H 0.3578 0.84601 0.37652 0.0
H211 H 0.39685 0.93996 0.39515 0.0
H212 H 0.47641 0.92018 0.3847 0.0
H213 H 0.4266 0.98519 0.44838 0.0
H214 H 0.4426 0.01469 0.42534 0.0
H215 H 0.40094 0.98015 0.42255 0.0
H216 H 0.52742 0.94869 0.40527 0.0
H217 H 0.53892 0.99018 0.41359 0.0
H218 H 0.52275 0.95897 0.43544 0.0
H219 H 0.5182 0.98684 0.57226 0.0
H220 H 0.5754 0.0846 0.52693 0.0
H221 H 0.57317 0.0984 0.4864 0.0
H222 H 0.51233 0.03896 0.41588 0.0
H223 H 0.45683 0.94049 0.46097 0.0
H224 H 0.45746 0.92721 0.50194 0.0
H225 H 0.67483 0.23545 0.44271 0.0
H226 H 0.66239 0.24517 0.47061 0.0
H227 H 0.65625 0.20481 0.46509 0.0
C228 C 0.6002 0.41071 0.75724 0.0
C229 C 0.58852 0.39772 0.73178 0.0
C230 C 0.55352 0.42143 0.72093 0.0
C231 C 0.57958 0.45335 0.71676 0.0
C232 C 0.57287 0.47799 0.70989 0.0
C233 C 0.53953 0.47074 0.70756 0.0
C234 C 0.51332 0.43894 0.71245 0.0
C235 C 0.52072 0.41464 0.71881 0.0
C236 C 0.60137 0.51166 0.70478 0.0
C237 C 0.47748 0.43053 0.71071 0.0
C238 C 0.58375 0.65222 0.81908 0.0
C239 C 0.55222 0.62366 0.80791 0.0
C240 C 0.54026 0.61095 0.76606 0.0
C241 C 0.51263 0.57932 0.76607 0.0
C242 C 0.50634 0.55732 0.74704 0.0
C243 C 0.52875 0.56699 0.72794 0.0
C244 C 0.5564 0.59924 0.72778 0.0
C245 C 0.56128 0.62107 0.74664 0.0
C246 C 0.4762 0.52351 0.7477 0.0
C247 C 0.58159 0.61035 0.70826 0.0
C248 C 0.44857 0.60893 0.59547 0.0
C249 C 0.42713 0.57795 0.60458 0.0
C250 C 0.43876 0.55646 0.61004 0.0
C251 C 0.47256 0.56633 0.60643 0.0
C252 C 0.49383 0.59699 0.59625 0.0
C253 C 0.48138 0.61778 0.59062 0.0
C254 C 0.41508 0.52343 0.62002 0.0
C255 C 0.52987 0.60809 0.59192 0.0
C256 C 0.50232 0.36208 0.53826 0.0
C257 C 0.52386 0.39916 0.54206 0.0
C258 C 0.50306 0.43563 0.55275 0.0
C259 C 0.47228 0.43156 0.559 0.0
C260 C 0.47009 0.45329 0.57514 0.0
C261 C 0.49961 0.48051 0.58436 0.0
C262 C 0.5309 0.48599 0.57663 0.0
C263 C 0.53228 0.46305 0.56126 0.0
C264 C 0.43627 0.44654 0.58286 0.0
C265 C 0.56294 0.51561 0.58496 0.0
C266 C 0.53193 0.49603 0.69925 0.0
C267 C 0.5333 0.51897 0.71583 0.0
C268 C 0.52502 0.54257 0.70938 0.0
C269 C 0.51456 0.54303 0.68574 0.0
C270 C 0.50431 0.56518 0.67882 0.0
C271 C 0.49479 0.56584 0.65537 0.0
C272 C 0.49519 0.54439 0.63792 0.0
C273 C 0.48574 0.54493 0.614 0.0
C274 C 0.48779 0.52422 0.59694 0.0
C275 C 0.49785 0.50189 0.60325 0.0
C276 C 0.50579 0.49988 0.62729 0.0
C277 C 0.51421 0.47648 0.63451 0.0
C278 C 0.5228 0.47519 0.65802 0.0
C279 C 0.52309 0.49711 0.67532 0.0
C280 C 0.51426 0.52061 0.66856 0.0
C281 C 0.50513 0.52167 0.64456 0.0
C282 C 0.43742 0.6725 0.61512 0.0
C283 C 0.4184 0.63677 0.6064 0.0
O284 O 0.55858 0.39642 0.72694 0.0
O285 O 0.50384 0.41279 0.53837 0.0
O286 O 0.43837 0.63084 0.5914 0.0
O287 O 0.54782 0.63158 0.78505 0.0
H288 H 0.60747 0.41398 0.71899 0.0
H289 H 0.6036 0.43562 0.75945 0.0
H290 H 0.58158 0.3944 0.77019 0.0
H291 H 0.62438 0.41227 0.76135 0.0
H292 H 0.60517 0.45932 0.71861 0.0
H293 H 0.50081 0.39007 0.72222 0.0
H294 H 0.60125 0.52977 0.71752 0.0
H295 H 0.62586 0.51296 0.70619 0.0
H296 H 0.59832 0.51884 0.68662 0.0
H297 H 0.46029 0.40588 0.71766 0.0
H298 H 0.47397 0.44897 0.72075 0.0
H299 H 0.47064 0.43108 0.69183 0.0
H300 H 0.55684 0.60266 0.8072 0.0
H301 H 0.58742 0.64651 0.83758 0.0
H302 H 0.60565 0.6565 0.80862 0.0
H303 H 0.58245 0.67509 0.81928 0.0
H304 H 0.49611 0.57182 0.78102 0.0
H305 H 0.58252 0.64566 0.7469 0.0
H306 H 0.48411 0.50567 0.75257 0.0
H307 H 0.45801 0.52208 0.76096 0.0
H308 H 0.46371 0.5161 0.72994 0.0
H309 H 0.6042 0.63411 0.71277 0.0
H310 H 0.58911 0.59179 0.70467 0.0
H311 H 0.5704 0.6133 0.69165 0.0
H312 H 0.41276 0.62183 0.62268 0.0
H313 H 0.40134 0.5706 0.60746 0.0
H314 H 0.49755 0.64158 0.58323 0.0
H315 H 0.42238 0.52251 0.63872 0.0
H316 H 0.38897 0.5182 0.61963 0.0
H317 H 0.41644 0.50386 0.60979 0.0
H318 H 0.54338 0.63301 0.58446 0.0
H319 H 0.54233 0.60804 0.60886 0.0
H320 H 0.53166 0.59071 0.57938 0.0
H321 H 0.53338 0.40372 0.56081 0.0
H322 H 0.51664 0.34958 0.54215 0.0
H323 H 0.48087 0.35234 0.55037 0.0
H324 H 0.49266 0.35611 0.51963 0.0
H325 H 0.4499 0.41046 0.55196 0.0
H326 H 0.55611 0.46657 0.55578 0.0
H327 H 0.43527 0.44696 0.60257 0.0
H328 H 0.43166 0.46598 0.57622 0.0
H329 H 0.41602 0.42251 0.57599 0.0
H330 H 0.58386 0.52035 0.57319 0.0
H331 H 0.5603 0.53773 0.58567 0.0
H332 H 0.56938 0.51151 0.60315 0.0
H333 H 0.54094 0.51844 0.73403 0.0
H334 H 0.50355 0.58225 0.69149 0.0
H335 H 0.48735 0.58357 0.65106 0.0
H336 H 0.4811 0.52524 0.57857 0.0
H337 H 0.51427 0.45882 0.62207 0.0
H338 H 0.52936 0.45686 0.66242 0.0
H339 H 0.44515 0.68949 0.59999 0.0
H340 H 0.42172 0.67777 0.62708 0.0
H341 H 0.46008 0.67717 0.62524 0.0
C342 C 0.20257 0.58047 0.90701 0.0
C343 C 0.21074 0.57505 0.88157 0.0
C344 C 0.15406 0.53826 0.86582 0.0
C345 C 0.14415 0.56184 0.86399 0.0
C346 C 0.11101 0.55246 0.85848 0.0
C347 C 0.08748 0.51894 0.85469 0.0
C348 C 0.09754 0.49526 0.8561 0.0
C349 C 0.13082 0.50533 0.86149 0.0
C350 C 0.10102 0.57828 0.85685 0.0
C351 C 0.07305 0.45928 0.85222 0.0
C352 C 0.88634 0.42904 0.98094 0.0
C353 C 0.90665 0.42848 0.96087 0.0
C354 C 0.94251 0.4657 0.9305 0.0
C355 C 0.94376 0.44141 0.91659 0.0
C356 C 0.96106 0.44928 0.89521 0.0
C357 C 0.9771 0.48201 0.88748 0.0
C358 C 0.97538 0.50639 0.90124 0.0
C359 C 0.95818 0.49788 0.92267 0.0
C360 C 0.96277 0.42274 0.8811 0.0
C361 C 0.99205 0.54144 0.89342 0.0
C362 C 0.83743 0.42928 0.76635 0.0
C363 C 0.84894 0.40765 0.77167 0.0
C364 C 0.8831 0.41857 0.77246 0.0
C365 C 0.90609 0.45187 0.7682 0.0
C366 C 0.89442 0.47322 0.76154 0.0
C367 C 0.86011 0.46145 0.76041 0.0
C368 C 0.89464 0.39479 0.77864 0.0
C369 C 0.91821 0.50873 0.75655 0.0
C370 C 0.15154 0.50963 0.70933 0.0
C371 C 0.12874 0.52261 0.70141 0.0
C372 C 0.0692 0.49183 0.70672 0.0
C373 C 0.04657 0.46062 0.71454 0.0
C374 C 0.02042 0.45578 0.7293 0.0
C375 C 0.0167 0.48282 0.73586 0.0
C376 C 0.03725 0.51365 0.72567 0.0
C377 C 0.0635 0.5179 0.71127 0.0
C378 C 0.99845 0.4224 0.73942 0.0
C379 C 0.03313 0.54267 0.73155 0.0
C380 C 0.05215 0.50848 0.84976 0.0
C381 C 0.03158 0.50256 0.86916 0.0
C382 C 0.99766 0.49099 0.86594 0.0
C383 C 0.98379 0.48586 0.84272 0.0
C384 C 0.94995 0.47518 0.83884 0.0
C385 C 0.93635 0.46896 0.8159 0.0
C386 C 0.95598 0.47272 0.79599 0.0
C387 C 0.9421 0.46493 0.77266 0.0
C388 C 0.96234 0.46882 0.7533 0.0
C389 C 0.9963 0.48043 0.75664 0.0
C390 C 0.01064 0.4885 0.77981 0.0
C391 C 0.04478 0.50027 0.78376 0.0
C392 C 0.05855 0.50746 0.80659 0.0
C393 C 0.03866 0.50265 0.82643 0.0
C394 C 0.00431 0.49121 0.8229 0.0
C395 C 0.99033 0.48433 0.79953 0.0
C396 C 0.76203 0.41252 0.79334 0.0
C397 C 0.78205 0.39792 0.78276 0.0
O398 O 0.18551 0.54589 0.87189 0.0
O399 O 0.09726 0.49655 0.6961 0.0
O400 O 0.80476 0.42006 0.76712 0.0
O401 O 0.92658 0.45919 0.95153 0.0
H402 H 0.21403 0.59567 0.87036 0.0
H403 H 0.18006 0.58292 0.90713 0.0
H404 H 0.19806 0.5596 0.91835 0.0
H405 H 0.22346 0.60334 0.91492 0.0
H406 H 0.16198 0.58752 0.8669 0.0
H407 H 0.13879 0.48739 0.8628 0.0
H408 H 0.08266 0.57426 0.87076 0.0
H409 H 0.12256 0.60345 0.85916 0.0
H410 H 0.08882 0.57621 0.83933 0.0
H411 H 0.0847 0.44389 0.85461 0.0
H412 H 0.05234 0.45133 0.86485 0.0
H413 H 0.06218 0.45493 0.83396 0.0
H414 H 0.92023 0.41497 0.96419 0.0
H415 H 0.89564 0.42153 0.99685 0.0
H416 H 0.89756 0.45533 0.98712 0.0
H417 H 0.83746 0.40146 0.96776 0.0
H418 H 0.93173 0.41639 0.92248 0.0
H419 H 0.95692 0.5164 0.93348 0.0
H420 H 0.95108 0.4199 0.86327 0.0
H421 H 0.98911 0.42971 0.87843 0.0
H422 H 0.94999 0.39874 0.88999 0.0
H423 H 0.98574 0.55682 0.9049 0.0
H424 H 0.01941 0.55198 0.89398 0.0
H425 H 0.98463 0.54249 0.87476 0.0
H426 H 0.79529 0.39415 0.79792 0.0
H427 H 0.8313 0.38234 0.77538 0.0
H428 H 0.85085 0.47773 0.7559 0.0
H429 H 0.90535 0.40023 0.79697 0.0
H430 H 0.87398 0.369 0.77774 0.0
H431 H 0.91441 0.39748 0.76641 0.0
H432 H 0.90514 0.52222 0.75182 0.0
H433 H 0.93443 0.52082 0.77242 0.0
H434 H 0.93452 0.51053 0.74168 0.0
H435 H 0.12797 0.53711 0.71697 0.0
H436 H 0.17712 0.53026 0.71293 0.0
H437 H 0.14211 0.49578 0.72597 0.0
H438 H 0.15247 0.49292 0.6957 0.0
H439 H 0.05084 0.44054 0.71044 0.0
H440 H 0.08036 0.54183 0.70436 0.0
H441 H 0.00346 0.42327 0.75883 0.0
H442 H 0.97192 0.41521 0.73689 0.0
H443 H 0.00265 0.40337 0.73102 0.0
H444 H 0.0468 0.56303 0.7191 0.0
H445 H 0.00643 0.53543 0.73102 0.0
H446 H 0.04283 0.55172 0.74986 0.0
H447 H 0.04198 0.50616 0.88704 0.0
H448 H 0.9336 0.47143 0.85351 0.0
H449 H 0.91012 0.46076 0.81403 0.0
H450 H 0.9515 0.46244 0.7355 0.0
H451 H 0.06137 0.50398 0.76928 0.0
H452 H 0.08493 0.51642 0.8085 0.0
H453 H 0.7483 0.4173 0.77913 0.0
H454 H 0.74397 0.39556 0.80632 0.0
H455 H 0.77903 0.436 0.80278 0.0
C456 C 0.413 0.81864 0.88576 0.0
C457 C 0.42975 0.81456 0.90807 0.0
C458 C 0.46916 0.87076 0.92209 0.0
C459 C 0.44516 0.87817 0.93043 0.0
C460 C 0.45461 0.90883 0.94087 0.0
C461 C 0.48867 0.9327 0.94289 0.0
C462 C 0.51289 0.92536 0.93464 0.0
C463 C 0.50277 0.89441 0.92441 0.0
C464 C 0.42816 0.91594 0.94947 0.0
C465 C 0.54943 0.95039 0.93637 0.0
C466 C 0.47239 0.04935 0.83355 0.0
C467 C 0.50492 0.07812 0.84355 0.0
C468 C 0.50357 0.07556 0.8863 0.0
C469 C 0.53341 0.07628 0.89177 0.0
C470 C 0.53598 0.05995 0.91159 0.0
C471 C 0.50812 0.04273 0.92619 0.0
C472 C 0.47874 0.0439 0.92161 0.0
C473 C 0.47696 0.06066 0.90174 0.0
C474 C 0.56793 0.05985 0.91632 0.0
C475 C 0.44871 0.02604 0.93698 0.0
C476 C 0.57762 0.15716 0.06152 0.0
C477 C 0.60009 0.14902 0.05146 0.0
C478 C 0.59028 0.1164 0.04569 0.0
C479 C 0.55721 0.09155 0.04982 0.0
C480 C 0.53505 0.09956 0.06111 0.0
C481 C 0.54577 0.13236 0.06712 0.0
C482 C 0.61495 0.10861 0.0345 0.0
C483 C 0.49974 0.07365 0.06598 0.0
C484 C 0.50152 0.84228 0.09949 0.0
C485 C 0.49157 0.86817 0.10445 0.0
C486 C 0.52323 0.92586 0.09465 0.0
C487 C 0.55453 0.94882 0.08653 0.0
C488 C 0.55868 0.97506 0.07266 0.0
C489 C 0.53084 0.97855 0.06726 0.0
C490 C 0.49965 0.9569 0.07708 0.0
C491 C 0.49614 0.9307 0.09066 0.0
C492 C 0.59238 0.9981 0.06281 0.0
C493 C 0.46971 0.96062 0.07236 0.0
C494 C 0.4988 0.96588 0.95249 0.0
C495 C 0.49933 0.98866 0.93671 0.0
C496 C 0.50838 0.02038 0.94433 0.0
C497 C 0.51746 0.02994 0.96839 0.0
C498 C 0.52703 0.06174 0.9766 0.0
C499 C 0.53603 0.07088 0.00034 0.0
C500 C 0.53584 0.04855 0.01678 0.0
C501 C 0.54528 0.05767 0.04092 0.0
C502 C 0.54375 0.03456 0.05692 0.0
C503 C 0.53336 0.00247 0.0494 0.0
C504 C 0.52482 0.99316 0.0252 0.0
C505 C 0.51517 0.96128 0.01693 0.0
C506 C 0.50666 0.95228 0.99314 0.0
C507 C 0.5074 0.97477 0.9767 0.0
C508 C 0.51692 0.00699 0.98465 0.0
C509 C 0.52589 0.01625 0.00889 0.0
C510 C 0.58193 0.22949 0.04335 0.0
C511 C 0.60274 0.21354 0.04931 0.0
O512 O 0.4612 0.84153 0.91152 0.0
O513 O 0.51979 0.89891 0.10563 0.0
O514 O 0.58575 0.18876 0.06531 0.0
O515 O 0.49947 0.08768 0.86565 0.0
H516 H 0.41416 0.81219 0.92354 0.0
H517 H 0.40928 0.83997 0.88801 0.0
H518 H 0.42848 0.82269 0.86988 0.0
H519 H 0.38827 0.7965 0.88259 0.0
H520 H 0.41898 0.86048 0.92869 0.0
H521 H 0.52114 0.8886 0.91794 0.0
H522 H 0.42851 0.93566 0.93873 0.0
H523 H 0.40288 0.89409 0.94815 0.0
H524 H 0.43343 0.92481 0.96826 0.0
H525 H 0.56519 0.9409 0.9291 0.0
H526 H 0.55437 0.97256 0.92651 0.0
H527 H 0.55679 0.95796 0.95525 0.0
H528 H 0.52236 0.06851 0.84505 0.0
H529 H 0.47579 0.04302 0.8151 0.0
H530 H 0.46483 0.02755 0.84467 0.0
H531 H 0.45196 0.05508 0.83368 0.0
H532 H 0.55436 0.0889 0.88016 0.0
H533 H 0.45419 0.06068 0.89745 0.0
H534 H 0.5638 0.03483 0.91301 0.0
H535 H 0.58831 0.07711 0.90483 0.0
H536 H 0.57581 0.0665 0.93523 0.0
H537 H 0.42853 0.03104 0.93196 0.0
H538 H 0.43901 0.99928 0.93533 0.0
H539 H 0.45581 0.03329 0.95593 0.0
H540 H 0.60548 0.20322 0.03213 0.0
H541 H 0.62515 0.16824 0.04787 0.0
H542 H 0.52882 0.13896 0.0752 0.0
H543 H 0.608 0.10162 0.01551 0.0
H544 H 0.64068 0.12979 0.03551 0.0
H545 H 0.61445 0.0875 0.04338 0.0
H546 H 0.48534 0.08403 0.07428 0.0
H547 H 0.48699 0.06074 0.04912 0.0
H548 H 0.49971 0.05519 0.07801 0.0
H549 H 0.47555 0.86636 0.08895 0.0
H550 H 0.47921 0.81741 0.09909 0.0
H551 H 0.51347 0.84657 0.08189 0.0
H552 H 0.51944 0.84326 0.11311 0.0
H553 H 0.5754 0.9452 0.09012 0.0
H554 H 0.47212 0.91375 0.09776 0.0
H555 H 0.59113 0.99606 0.04309 0.0
H556 H 0.59979 0.02375 0.06775 0.0
H557 H 0.61181 0.99286 0.0694 0.0
H558 H 0.4484 0.94438 0.08358 0.0
H559 H 0.4761 0.98639 0.0757 0.0
H560 H 0.46188 0.95451 0.0534 0.0
H561 H 0.49252 0.98157 0.91816 0.0
H562 H 0.52768 0.07991 0.96473 0.0
H563 H 0.5431 0.09569 0.00564 0.0
H564 H 0.55061 0.0416 0.07546 0.0
H565 H 0.51417 0.9429 0.02872 0.0
H566 H 0.49945 0.92745 0.98779 0.0
H567 H 0.57631 0.23923 0.05965 0.0
H568 H 0.59535 0.24979 0.0308 0.0
H569 H 0.55803 0.21107 0.03477 0.0
C570 C 0.58697 0.4067 0.0552 0.0
C571 C 0.60811 0.41282 0.0779 0.0
C572 C 0.59423 0.44932 0.10078 0.0
C573 C 0.56111 0.42607 0.1056 0.0
C574 C 0.53985 0.43582 0.11571 0.0
C575 C 0.55216 0.46929 0.12132 0.0
C576 C 0.58599 0.49235 0.11781 0.0
C577 C 0.60657 0.48198 0.10758 0.0
C578 C 0.50396 0.41064 0.11959 0.0
C579 C 0.60005 0.52818 0.1239 0.0
C580 C 0.45413 0.57556 -0.00044 0.0
C581 C 0.46853 0.57508 0.02318 0.0
C582 C 0.46795 0.53547 0.0511 0.0
C583 C 0.49194 0.55857 0.06706 0.0
C584 C 0.50061 0.54857 0.08799 0.0
C585 C 0.48398 0.51492 0.09352 0.0
C586 C 0.45891 0.49179 0.0779 0.0
C587 C 0.45159 0.50238 0.05671 0.0
C588 C 0.52835 0.57392 0.10373 0.0
C589 C 0.44042 0.45577 0.08326 0.0
C590 C 0.42107 0.5782 0.22233 0.0
C591 C 0.45519 0.59478 0.21784 0.0
C592 C 0.47214 0.57749 0.21448 0.0
C593 C 0.45449 0.54292 0.21565 0.0
C594 C 0.42045 0.52632 0.22145 0.0
C595 C 0.4042 0.54431 0.22496 0.0
C596 C 0.50872 0.59611 0.20911 0.0
C597 C 0.40107 0.48955 0.22311 0.0
C598 C 0.5704 0.42056 0.28069 0.0
C599 C 0.55676 0.43182 0.30122 0.0
C600 C 0.54531 0.47055 0.27999 0.0
C601 C 0.55981 0.50343 0.274 0.0
C602 C 0.54619 0.51343 0.25584 0.0
C603 C 0.51681 0.48988 0.24381 0.0
C604 C 0.50108 0.45675 0.25056 0.0
C605 C 0.51567 0.44732 0.26842 0.0
C606 C 0.5636 0.54899 0.24915 0.0
C607 C 0.46914 0.43117 0.23859 0.0
C608 C 0.52903 0.4809 0.12805 0.0
C609 C 0.51544 0.49022 0.10964 0.0
C610 C 0.49519 0.50359 0.11423 0.0
C611 C 0.48786 0.50751 0.13795 0.0
C612 C 0.46729 0.52058 0.14325 0.0
C613 C 0.46165 0.52589 0.1667 0.0
C614 C 0.47596 0.51786 0.18572 0.0
C615 C 0.4714 0.52427 0.2096 0.0
C616 C 0.48469 0.51465 0.2281 0.0
C617 C 0.50342 0.49957 0.22341 0.0
C618 C 0.50961 0.49437 0.19964 0.0
C619 C 0.52977 0.48078 0.19429 0.0
C620 C 0.53599 0.4761 0.17085 0.0
C621 C 0.5223 0.48482 0.15189 0.0
C622 C 0.50172 0.49834 0.15685 0.0
C623 C 0.49558 0.50333 0.18075 0.0
C624 C 0.37483 0.60105 0.19132 0.0
C625 C 0.40579 0.61699 0.20756 0.0
O626 O 0.61512 0.44188 0.0892 0.0
O627 O 0.56091 0.46248 0.29687 0.0
O628 O 0.40383 0.59433 0.22385 0.0
O629 O 0.46043 0.54385 0.02991 0.0
H630 H 0.5944 0.39218 0.09017 0.0
H631 H 0.56211 0.40292 0.05956 0.0
H632 H 0.59903 0.42773 0.04311 0.0
H633 H 0.58328 0.38431 0.04567 0.0
H634 H 0.55149 0.40051 0.10108 0.0
H635 H 0.63231 0.49961 0.1041 0.0
H636 H 0.48782 0.41547 0.10761 0.0
H637 H 0.4988 0.38528 0.11608 0.0
H638 H 0.49714 0.41259 0.13815 0.0
H639 H 0.62745 0.54249 0.12196 0.0
H640 H 0.58856 0.53851 0.11202 0.0
H641 H 0.59394 0.53117 0.14245 0.0
H642 H 0.49543 0.59347 0.02545 0.0
H643 H 0.47616 0.59014 0.98797 0.0
H644 H 0.44677 0.55145 0.99037 0.0
H645 H 0.41986 0.59059 0.00765 0.0
H646 H 0.50475 0.58431 0.06301 0.0
H647 H 0.43302 0.48478 0.04433 0.0
H648 H 0.51798 0.57682 0.12065 0.0
H649 H 0.54654 0.56596 0.10813 0.0
H650 H 0.54174 0.59819 0.09527 0.0
H651 H 0.41792 0.44193 0.0717 0.0
H652 H 0.45702 0.4455 0.08034 0.0
H653 H 0.4329 0.45199 0.10214 0.0
H654 H 0.42735 0.62442 0.19576 0.0
H655 H 0.46851 0.62122 0.21679 0.0
H656 H 0.37794 0.53187 0.22884 0.0
H657 H 0.5124 0.59085 0.19045 0.0
H658 H 0.51957 0.62297 0.21148 0.0
H659 H 0.5225 0.58801 0.22082 0.0
H660 H 0.37464 0.48027 0.22752 0.0
H661 H 0.40207 0.47821 0.20594 0.0
H662 H 0.41254 0.48159 0.23697 0.0
H663 H 0.52991 0.4139 0.30322 0.0
H664 H 0.56793 0.39644 0.2846 0.0
H665 H 0.55629 0.41783 0.26397 0.0
H666 H 0.59701 0.43861 0.27786 0.0
H667 H 0.5825 0.52119 0.28319 0.0
H668 H 0.50378 0.42184 0.27312 0.0
H669 H 0.56877 0.55124 0.22983 0.0
H670 H 0.54719 0.5593 0.25274 0.0
H671 H 0.58738 0.56383 0.25921 0.0
H672 H 0.45759 0.40762 0.24809 0.0
H673 H 0.45107 0.44001 0.23755 0.0
H674 H 0.47427 0.42658 0.22015 0.0
H675 H 0.52143 0.4878 0.09139 0.0
H676 H 0.45568 0.52722 0.1293 0.0
H677 H 0.44594 0.53641 0.16972 0.0
H678 H 0.48084 0.5194 0.24638 0.0
H679 H 0.5412 0.47383 0.20815 0.0
H680 H 0.55178 0.46568 0.16775 0.0
H681 H 0.35188 0.59195 0.20183 0.0
H682 H 0.37577 0.61893 0.17825 0.0
H683 H 0.37367 0.58 0.18138 0.0
Zn684 Zn 0.66895 0.4652 0.43154 0.0
Zn685 Zn 0.63617 0.39769 0.42957 0.0
O686 O 0.68518 0.41293 0.42727 0.0
O687 O 0.71374 0.46666 0.42961 0.0
O688 O 0.61731 0.34907 0.43053 0.0
O689 O 0.64433 0.46178 0.46245 0.0
O690 O 0.62011 0.40794 0.46011 0.0
C691 C 0.71283 0.43948 0.42721 0.0
C692 C 0.62411 0.43387 0.3902 0.0
O693 O 0.61732 0.4069 0.39968 0.0
O694 O 0.64482 0.46092 0.40014 0.0
C695 C 0.62784 0.33543 0.41617 0.0
O696 O 0.64787 0.35298 0.39927 0.0
C697 C 0.62478 0.43387 0.47074 0.0
Zn698 Zn 0.20868 0.66601 0.59207 0.0
Zn699 Zn 0.24124 0.63202 0.58309 0.0
O700 O 0.27639 0.67945 0.59003 0.0
O701 O 0.25256 0.70853 0.59751 0.0
O702 O 0.2709 0.61253 0.58122 0.0
O703 O 0.18596 0.63546 0.61965 0.0
O704 O 0.20994 0.60695 0.60974 0.0
C705 C 0.27871 0.7068 0.5952 0.0
C706 C 0.19847 0.63526 0.54396 0.0
O707 O 0.21797 0.62536 0.55109 0.0
O708 O 0.19093 0.65186 0.55788 0.0
C709 C 0.29668 0.62652 0.5686 0.0
O710 O 0.2996 0.64923 0.55396 0.0
C711 C 0.1901 0.61117 0.62271 0.0
Zn712 Zn 0.54431 0.19815 0.72487 0.0
Zn713 Zn 0.6091 0.22806 0.74007 0.0
O714 O 0.5982 0.26409 0.73392 0.0
O715 O 0.54664 0.24213 0.72084 0.0
O716 O 0.65613 0.2557 0.75203 0.0
O717 O 0.53185 0.17586 0.75678 0.0
O718 O 0.58461 0.19742 0.76726 0.0
C719 C 0.57407 0.26725 0.72654 0.0
C720 C 0.58812 0.18277 0.69692 0.0
O721 O 0.61097 0.20298 0.71106 0.0
O722 O 0.55844 0.17677 0.69908 0.0
C723 C 0.67623 0.27815 0.73857 0.0
O724 O 0.66642 0.27913 0.71676 0.0
C725 C 0.55397 0.17854 0.77149 0.0
Zn726 Zn 0.38505 0.55858 0.9012 0.0
Zn727 Zn 0.41152 0.625 0.90464 0.0
O728 O 0.36285 0.60624 0.89515 0.0
O729 O 0.34034 0.55289 0.89127 0.0
O730 O 0.42475 0.67217 0.90942 0.0
O731 O 0.3948 0.55896 0.9366 0.0
O732 O 0.41947 0.61284 0.93768 0.0
C733 C 0.33768 0.57828 0.89058 0.0
C734 C 0.44212 0.59772 0.87051 0.0
O735 O 0.44115 0.62228 0.87924 0.0
O736 O 0.42145 0.56902 0.87703 0.0
C737 C 0.43431 0.69381 0.8936 0.0
O738 O 0.43981 0.68683 0.87204 0.0
C739 C 0.4107 0.58596 0.94792 0.0
Zn740 Zn 0.8069 0.45366 0.05847 0.0
Zn741 Zn 0.77819 0.38839 0.06627 0.0
O742 O 0.74044 0.39877 0.06458 0.0
O743 O 0.76238 0.45127 0.05809 0.0
O744 O 0.75102 0.33944 0.06772 0.0
O745 O 0.825 0.4473 0.02768 0.0
O746 O 0.80448 0.39516 0.03573 0.0
C747 C 0.73706 0.42358 0.06141 0.0
C748 C 0.82539 0.43535 0.10364 0.0
O749 O 0.80589 0.40575 0.09709 0.0
O750 O 0.83011 0.45871 0.09036 0.0
C751 C 0.72675 0.32644 0.08177 0.0
O752 O 0.72406 0.34507 0.09813 0.0
C753 C 0.82076 0.41935 0.0223 0.0
Zn754 Zn 0.35779 0.81473 0.2214 0.0
Zn755 Zn 0.39194 0.78291 0.23195 0.0
O756 O 0.34372 0.74745 0.22627 0.0
O757 O 0.31462 0.77109 0.21782 0.0
O758 O 0.41321 0.75512 0.23479 0.0
O759 O 0.3873 0.83427 0.19259 0.0
O760 O 0.41597 0.81093 0.20369 0.0
C761 C 0.316 0.74531 0.22114 0.0
C762 C 0.38972 0.82806 0.26936 0.0
O763 O 0.39936 0.80815 0.2631 0.0
O764 O 0.37302 0.83492 0.25491 0.0
C765 C 0.39912 0.7285 0.24602 0.0
O766 O 0.37355 0.7223 0.25923 0.0
C767 C 0.41139 0.82925 0.18965 0.0
C768 C 0.25923 0.65367 0.22718 0.0
C769 C 0.22733 0.64934 0.22343 0.0
C770 C 0.28765 0.68462 0.22581 0.0
C771 C 0.28541 0.71259 0.22052 0.0
H772 H 0.26224 0.63302 0.23157 0.0
H773 H 0.31154 0.68658 0.22933 0.0
S774 S 0.20766 0.7138 0.20703 0.0
N775 N 0.19515 0.67513 0.21258 0.0
N776 N 0.24852 0.73338 0.21006 0.0
C777 C 0.25368 0.70838 0.21584 0.0
C778 C 0.22471 0.67679 0.21723 0.0
C779 C 0.6037 0.25722 0.44897 0.0
C780 C 0.61935 0.24316 0.43608 0.0
C781 C 0.60504 0.28607 0.44163 0.0
C782 C 0.62243 0.30231 0.42121 0.0
H783 H 0.59113 0.24638 0.4653 0.0
H784 H 0.5934 0.29634 0.45265 0.0
S785 S 0.6657 0.27418 0.38024 0.0
N786 N 0.65111 0.24646 0.40115 0.0
N787 N 0.65389 0.30084 0.38732 0.0
C788 C 0.63701 0.28773 0.40756 0.0
C789 C 0.6355 0.25821 0.41503 0.0
C790 C 0.35602 0.61156 0.60566 0.0
C791 C 0.38626 0.62929 0.59384 0.0
C792 C 0.32656 0.60862 0.59638 0.0
C793 C 0.32621 0.6237 0.57503 0.0
H794 H 0.35535 0.601 0.62276 0.0
H795 H 0.30434 0.59598 0.60681 0.0
S796 S 0.39808 0.66954 0.53573 0.0
N797 N 0.41352 0.65941 0.5585 0.0
N798 N 0.35822 0.65423 0.54109 0.0
C799 C 0.35587 0.63972 0.56225 0.0
C800 C 0.38587 0.64251 0.57165 0.0
C801 C 0.74782 0.36492 0.74672 0.0
C802 C 0.7588 0.36557 0.77023 0.0
C803 C 0.72266 0.33592 0.73608 0.0
C804 C 0.70687 0.30655 0.7487 0.0
H805 H 0.75786 0.38724 0.73673 0.0
H806 H 0.71442 0.33705 0.71823 0.0
S807 S 0.72821 0.29476 0.81016 0.0
N808 N 0.75347 0.33397 0.8053 0.0
N809 N 0.70587 0.27947 0.78545 0.0
C810 C 0.71863 0.30655 0.77186 0.0
C811 C 0.74451 0.33606 0.7826 0.0
C812 C 0.45234 0.78133 0.88806 0.0
C813 C 0.43245 0.78388 0.90573 0.0
C814 C 0.45331 0.75234 0.88448 0.0
C815 C 0.43494 0.72501 0.89874 0.0
H816 H 0.46678 0.80173 0.8766 0.0
H817 H 0.4684 0.75128 0.87034 0.0
S818 S 0.37982 0.71937 0.94803 0.0
N819 N 0.39444 0.75667 0.93794 0.0
N820 N 0.39678 0.70259 0.93163 0.0
C821 C 0.41572 0.72756 0.91695 0.0
C822 C 0.41435 0.75686 0.92034 0.0
C823 C 0.64649 0.38923 0.07695 0.0
C824 C 0.64082 0.41509 0.07171 0.0
C825 C 0.67736 0.39178 0.07283 0.0
C826 C 0.70376 0.42032 0.0633 0.0
H827 H 0.62715 0.36714 0.08479 0.0
H828 H 0.68075 0.37153 0.07779 0.0
S829 S 0.70035 0.49353 0.04401 0.0
N830 N 0.66319 0.46902 0.05465 0.0
N831 N 0.72117 0.47388 0.04692 0.0
C832 C 0.6979 0.44575 0.05696 0.0
C833 C 0.66646 0.44309 0.0611 0.0
C834 C 0.34551 0.79663 0.59753 0.0
C835 C 0.37496 0.79563 0.59398 0.0
C836 C 0.31464 0.76781 0.59861 0.0
C837 C 0.31198 0.73683 0.59658 0.0
H838 H 0.3462 0.81986 0.59904 0.0
H839 H 0.29264 0.76995 0.60055 0.0
S840 S 0.38242 0.721 0.59097 0.0
N841 N 0.4 0.76126 0.59107 0.0
N842 N 0.34221 0.70707 0.59343 0.0
C843 C 0.34153 0.73553 0.59449 0.0
C844 C 0.37291 0.7649 0.59321 0.0
C845 C 0.55331 0.33532 0.73079 0.0
C846 C 0.58457 0.3639 0.7288 0.0
C847 C 0.54996 0.30413 0.72909 0.0
C848 C 0.5778 0.30028 0.72604 0.0
H849 H 0.53123 0.33692 0.73393 0.0
H850 H 0.5255 0.28292 0.73099 0.0
S851 S 0.66511 0.3671 0.72001 0.0
N852 N 0.64376 0.38617 0.72338 0.0
N853 N 0.63762 0.32765 0.72085 0.0
C854 C 0.60916 0.32857 0.72404 0.0
C855 C 0.61249 0.36028 0.72535 0.0
C856 C 0.27302 0.60284 0.87757 0.0
C857 C 0.24287 0.57413 0.88194 0.0
C858 C 0.30345 0.60361 0.87967 0.0
C859 C 0.30496 0.57569 0.88621 0.0
H860 H 0.27314 0.6251 0.87295 0.0
H861 H 0.32601 0.62648 0.87649 0.0
S862 S 0.23318 0.49458 0.90037 0.0
N863 N 0.21646 0.51724 0.89375 0.0
N864 N 0.27358 0.51852 0.89726 0.0
C865 C 0.27497 0.54667 0.89037 0.0
C866 C 0.244 0.54598 0.88847 0.0
C867 C 0.63874 0.25469 0.0814 0.0
C868 C 0.63646 0.23871 0.05958 0.0
C869 C 0.66876 0.2817 0.08933 0.0
C870 C 0.69777 0.29367 0.07585 0.0
H871 H 0.61675 0.24723 0.09186 0.0
H872 H 0.66871 0.29423 0.10559 0.0
S873 S 0.70618 0.25669 0.01948 0.0
N874 N 0.66658 0.23418 0.02606 0.0
N875 N 0.72315 0.28446 0.04111 0.0
C876 C 0.69643 0.27609 0.05501 0.0
C877 C 0.66575 0.24878 0.04683 0.0
C878 C 0.38594 0.64293 0.23813 0.0
C879 C 0.40861 0.64679 0.22035 0.0
C880 C 0.38464 0.66987 0.24759 0.0
C881 C 0.40589 0.70177 0.23959 0.0
H882 H 0.36807 0.61869 0.244 0.0
H883 H 0.36564 0.66533 0.26039 0.0
S884 S 0.4727 0.72544 0.19551 0.0
N885 N 0.45484 0.68523 0.19668 0.0
N886 N 0.45277 0.73594 0.2146 0.0
C887 C 0.43021 0.70619 0.22298 0.0
C888 C 0.43141 0.6787 0.21328 0.0
C889 C 0.76725 0.40325 0.41433 0.0
C890 C 0.78594 0.42192 0.39508 0.0
C891 C 0.74539 0.41072 0.42614 0.0
C892 C 0.74231 0.4378 0.41974 0.0
H893 H 0.76803 0.38159 0.41939 0.0
H894 H 0.72953 0.39421 0.43956 0.0
S895 S 0.78992 0.49775 0.37344 0.0
N896 N 0.80276 0.47088 0.37208 0.0
N897 N 0.76259 0.48554 0.39492 0.0
C898 C 0.76327 0.45853 0.40219 0.0
C899 C 0.78492 0.45047 0.38973 0.0
C900 C 0.18031 0.60114 0.48059 0.0
C901 C 0.16343 0.61589 0.47041 0.0
C902 C 0.19102 0.60713 0.50443 0.0
C903 C 0.18541 0.62826 0.51908 0.0
H904 H 0.18561 0.58506 0.46994 0.0
H905 H 0.20408 0.59527 0.51132 0.0
S906 S 0.14289 0.67367 0.50076 0.0
N907 N 0.14206 0.65303 0.47662 0.0
N908 N 0.16188 0.66417 0.52145 0.0
C909 C 0.1684 0.64311 0.50912 0.0
C910 C 0.15761 0.63707 0.4848 0.0
C911 C 0.57922 0.10784 0.66507 0.0
C912 C 0.6106 0.11921 0.65498 0.0
C913 C 0.57153 0.12911 0.67733 0.0
C914 C 0.59518 0.16247 0.68046 0.0
H915 H 0.56063 0.0821 0.66393 0.0
H916 H 0.54743 0.11896 0.68546 0.0
S917 S 0.6796 0.20537 0.6554 0.0
N918 N 0.66425 0.16677 0.64683 0.0
N919 N 0.65032 0.20651 0.67105 0.0
C920 C 0.62619 0.1745 0.66975 0.0
C921 C 0.63375 0.15295 0.6567 0.0
C922 C 0.51192 0.63875 0.82637 0.0
C923 C 0.5221 0.61552 0.82282 0.0
C924 C 0.48579 0.63265 0.84156 0.0
C925 C 0.46837 0.60281 0.85345 0.0
H926 H 0.5247 0.66211 0.81769 0.0
H927 H 0.47935 0.65158 0.84408 0.0
S928 S 0.48386 0.53296 0.84889 0.0
N929 N 0.51185 0.561 0.83166 0.0
N930 N 0.46236 0.54917 0.85976 0.0
C931 C 0.47752 0.57888 0.84935 0.0
C932 C 0.50443 0.58531 0.83415 0.0
C933 C 0.85776 0.37441 0.9692 0.0
C934 C 0.87545 0.41052 0.9493 0.0
C935 C 0.83978 0.37971 0.99617 0.0
C936 C 0.83411 0.41486 8e-05 0.0
H937 H 0.86411 0.35534 0.96751 0.0
H938 H 0.83281 0.36202 0.0101 0.0
S939 S 0.85689 0.48832 0.95164 0.0
N940 N 0.87037 0.46681 0.93576 0.0
N941 N 0.84048 0.47088 0.97776 0.0
C942 C 0.8437 0.44415 0.97688 0.0
C943 C 0.86134 0.44108 0.94985 0.0
C944 C 0.43832 0.8519 0.12619 0.0
C945 C 0.47224 0.86135 0.12724 0.0
C946 C 0.41911 0.84305 0.1467 0.0
C947 C 0.43297 0.84264 0.16891 0.0
H948 H 0.42634 0.85075 0.1093 0.0
H949 H 0.39292 0.83515 0.14497 0.0
S950 S 0.52114 0.86824 0.18175 0.0
N951 N 0.51948 0.8726 0.15279 0.0
N952 N 0.48297 0.8545 0.19116 0.0
C953 C 0.46701 0.85297 0.17039 0.0
C954 C 0.48675 0.86272 0.14961 0.0
C955 C 0.56075 0.40644 0.3395 0.0
C956 C 0.5748 0.43321 0.32419 0.0
C957 C 0.57697 0.4067 0.3607 0.0
C958 C 0.60783 0.4338 0.36744 0.0
H959 H 0.53695 0.38511 0.33505 0.0
H960 H 0.565 0.38566 0.37203 0.0
S961 S 0.65692 0.50868 0.33244 0.0
N962 N 0.62273 0.48646 0.31633 0.0
N963 N 0.65289 0.48726 0.35637 0.0
C964 C 0.62259 0.46042 0.35202 0.0
C965 C 0.60624 0.45999 0.33032 0.0
C966 C 0.4228 0.84756 0.33309 0.0
C967 C 0.40686 0.86364 0.34273 0.0
C968 C 0.41776 0.83692 0.30925 0.0
C969 C 0.39644 0.84179 0.29404 0.0
H970 H 0.43896 0.84271 0.34419 0.0
H971 H 0.43037 0.82435 0.30284 0.0
S972 S 0.34826 0.88227 0.31072 0.0
N973 N 0.36855 0.88362 0.33533 0.0
N974 N 0.35922 0.86398 0.29051 0.0
C975 C 0.38056 0.85817 0.30341 0.0
C976 C 0.38562 0.86888 0.32774 0.0
C977 C 0.55313 0.4292 0.50451 0.0
C978 C 0.55308 0.41285 0.52533 0.0
C979 C 0.57817 0.43828 0.48771 0.0
C980 C 0.60349 0.43062 0.49082 0.0
H981 H 0.53322 0.43417 0.5007 0.0
H982 H 0.57662 0.44966 0.47152 0.0
S983 S 0.61597 0.38995 0.54244 0.0
N984 N 0.5822 0.39162 0.54867 0.0
N985 N 0.62808 0.40711 0.5163 0.0
C986 C 0.60438 0.41521 0.51167 0.0
C987 C 0.57949 0.40676 0.52911 0.0
C988 C 0.15338 0.57817 0.68269 0.0
C989 C 0.14245 0.54454 0.68018 0.0
C990 C 0.16786 0.59946 0.66377 0.0
C991 C 0.17253 0.58797 0.64181 0.0
H992 H 0.1511 0.58822 0.69952 0.0
H993 H 0.1764 0.62524 0.66659 0.0
S994 S 0.14554 0.50181 0.62526 0.0
N995 N 0.13479 0.50041 0.65328 0.0
N996 N 0.16327 0.54069 0.61801 0.0
C997 C 0.16102 0.55435 0.63882 0.0
C998 C 0.14563 0.53257 0.65791 0.0
C999 C 0.49947 0.11935 0.81808 0.0
C1000 C 0.51933 0.107 0.82704 0.0
C1001 C 0.51133 0.14347 0.80077 0.0
C1002 C 0.54386 0.15696 0.7923 0.0
H1003 H 0.47417 0.10958 0.82387 0.0
H1004 H 0.49461 0.15109 0.7936 0.0
S1005 S 0.60771 0.13713 0.813 0.0
N1006 N 0.57437 0.11285 0.8282 0.0
N1007 N 0.59693 0.15871 0.79607 0.0
C1008 C 0.56486 0.14677 0.80251 0.0
C1009 C 0.55257 0.12178 0.81984 0.0
C1010 C 0.40574 0.54816 0.0209 0.0
C1011 C 0.44591 0.58434 0.03142 0.0
C1012 C 0.39524 0.54939 0.98998 0.0
C1013 C 0.41892 0.58628 0.97308 0.0
H1014 H 0.39359 0.52569 0.0307 0.0
H1015 H 0.37489 0.52787 0.98153 0.0
S1016 S 0.49918 0.67365 0.99772 0.0
N1017 N 0.49214 0.6525 0.02299 0.0
N1018 N 0.47145 0.65172 0.97583 0.0
C1019 C 0.4519 0.62341 0.98669 0.0
C1020 C 0.46424 0.62464 0.01685 0.0
C1021 C 0.84625 0.42031 0.17897 0.0
C1022 C 0.87469 0.46503 0.18567 0.0
C1023 C 0.83189 0.4107 0.14817 0.0
C1024 C 0.83978 0.44327 0.12776 0.0
H1025 H 0.84375 0.40156 0.191 0.0
H1026 H 0.81806 0.38543 0.14211 0.0
S1027 S 0.8885 0.54287 0.14382 0.0
N1028 N 0.89267 0.53 0.17078 0.0
N1029 N 0.867 0.51159 0.12426 0.0
C1030 C 0.86006 0.48562 0.13761 0.0
C1031 C 0.87496 0.49742 0.16727 0.0
loop_
_geom_bond_atom_site_label_1
_geom_bond_atom_site_label_2
_geom_bond_distance
_geom_bond_site_symmetry_2
_ccdc_geom_bond_type
C0 C1 1.560 . S
C0 H61 0.959 . S
C0 H62 0.959 . S
C0 H63 0.960 . S
C1 C0 1.560 . S
C1 O56 1.426 . S
C1 H60 0.980 . S
C2 C3 1.407 . S
C2 C7 1.418 . S
C2 O56 1.334 . S
C3 C2 1.407 . S
C3 C4 1.360 . S
C3 H64 0.929 . S
C4 C3 1.360 . S
C4 C5 1.401 . S
C4 C8 1.527 . S
C5 C4 1.401 . S
C5 C6 1.405 . S
C5 C38 1.587 . S
C6 C5 1.405 . S
C6 C7 1.332 . S
C6 C9 1.496 . S
C7 C2 1.418 . S
C7 C6 1.332 . S
C7 H65 0.929 . S
C8 C4 1.527 . S
C8 H66 0.959 . S
C8 H67 0.961 . S
C8 H68 0.961 . S
C9 C6 1.496 . S
C9 H69 0.960 . S
C9 H70 0.960 . S
C9 H71 0.961 . S
C10 C11 1.517 . S
C10 H73 0.961 . S
C10 H74 0.960 . S
C10 H75 0.959 . S
C11 C10 1.517 . S
C11 O59 1.468 . S
C11 H72 0.980 . S
C12 C13 1.349 . S
C12 C17 1.367 . S
C12 O59 1.408 . S
C13 C12 1.349 . S
C13 C14 1.407 . S
C13 H76 0.930 . S
C14 C13 1.407 . S
C14 C15 1.449 . S
C14 C18 1.535 . S
C15 C14 1.449 . S
C15 C16 1.384 . S
C15 C40 1.553 1_655 S
C16 C15 1.384 . S
C16 C17 1.364 . S
C16 C19 1.450 . S
C17 C12 1.367 . S
C17 C16 1.364 . S
C17 H77 0.931 . S
C18 C14 1.535 . S
C18 H78 0.959 1_655 S
C18 H79 0.961 . S
C18 H80 0.959 . S
C19 C16 1.450 . S
C19 H81 0.960 . S
C19 H82 0.960 1_655 S
C19 H83 0.960 . S
C20 C21 1.309 . S
C20 C25 1.304 . S
C20 O58 1.435 . S
C21 C20 1.309 . S
C21 C22 1.476 . S
C21 H85 0.930 . S
C22 C21 1.476 . S
C22 C23 1.400 . S
C22 C26 1.567 . S
C23 C22 1.400 . S
C23 C24 1.373 . S
C23 C45 1.432 . S
C24 C23 1.373 . S
C24 C25 1.339 . S
C24 C27 1.530 . S
C25 C20 1.304 . S
C25 C24 1.339 . S
C25 H86 0.930 . S
C26 C22 1.567 . S
C26 H87 0.961 . S
C26 H88 0.960 . S
C26 H89 0.958 . S
C27 C24 1.530 . S
C27 H90 0.961 . S
C27 H91 0.960 . S
C27 H92 0.960 . S
C28 C29 1.530 . S
C28 H94 0.961 . S
C28 H95 0.961 . S
C28 H96 0.959 . S
C29 C28 1.530 . S
C29 O57 1.412 . S
C29 H93 0.980 . S
C30 C31 1.288 . S
C30 C35 1.377 . S
C30 O57 1.393 . S
C31 C30 1.288 . S
C31 C32 1.369 . S
C31 H97 0.932 . S
C32 C31 1.369 . S
C32 C33 1.398 . S
C32 C36 1.527 . S
C33 C32 1.398 . S
C33 C34 1.380 . S
C33 C47 1.497 . S
C34 C33 1.380 . S
C34 C35 1.383 . S
C34 C37 1.603 . S
C35 C30 1.377 . S
C35 C34 1.383 . S
C35 H98 0.929 . S
C36 C32 1.527 . S
C36 H99 0.961 . S
C36 H100 0.959 1_455 S
C36 H101 0.959 . S
C37 C34 1.603 . S
C37 H102 0.960 . S
C37 H103 0.962 . S
C37 H104 0.961 . S
C38 C5 1.587 . S
C38 C39 1.360 . S
C38 C51 1.412 . S
C39 C38 1.360 . S
C39 C40 1.365 . S
C39 H105 0.929 . S
C40 C15 1.553 1_455 S
C40 C39 1.365 . S
C40 C41 1.404 1_455 S
C41 C40 1.404 1_655 S
C41 C42 1.395 . S
C41 C52 1.451 1_655 S
C42 C41 1.395 . S
C42 C43 1.322 . S
C42 H106 0.930 . S
C43 C42 1.322 . S
C43 C44 1.459 . S
C43 H107 0.929 . S
C44 C43 1.459 . S
C44 C45 1.445 . S
C44 C53 1.395 1_655 S
C45 C23 1.432 . S
C45 C44 1.445 . S
C45 C46 1.370 . S
C46 C45 1.370 . S
C46 C47 1.438 1_655 S
C46 H108 0.930 . S
C47 C33 1.497 . S
C47 C46 1.438 1_455 S
C47 C48 1.360 . S
C48 C47 1.360 . S
C48 C49 1.401 . S
C48 C53 1.446 . S
C49 C48 1.401 . S
C49 C50 1.347 . S
C49 H109 0.929 . S
C50 C49 1.347 . S
C50 C51 1.455 . S
C50 H110 0.930 . S
C51 C38 1.412 . S
C51 C50 1.455 . S
C51 C52 1.331 . S
C52 C41 1.451 1_455 S
C52 C51 1.331 . S
C52 C53 1.497 . S
C53 C44 1.395 1_455 S
C53 C48 1.446 . S
C53 C52 1.497 . S
C54 C55 1.582 . S
C54 H111 0.962 . S
C54 H112 0.959 . S
C54 H113 0.958 . S
C55 C54 1.582 . S
C55 O58 1.458 . S
C55 H84 0.980 . S
O56 C1 1.426 . S
O56 C2 1.334 . S
O57 C29 1.412 . S
O57 C30 1.393 . S
O58 C20 1.435 . S
O58 C55 1.458 . S
O59 C11 1.468 . S
O59 C12 1.408 . S
H60 C1 0.980 . S
H61 C0 0.959 . S
H62 C0 0.959 . S
H63 C0 0.960 . S
H64 C3 0.929 . S
H65 C7 0.929 . S
H66 C8 0.959 . S
H67 C8 0.961 . S
H68 C8 0.961 . S
H69 C9 0.960 . S
H70 C9 0.960 . S
H71 C9 0.961 . S
H72 C11 0.980 . S
H73 C10 0.961 . S
H74 C10 0.960 . S
H75 C10 0.959 . S
H76 C13 0.930 . S
H77 C17 0.931 . S
H78 C18 0.959 1_455 S
H79 C18 0.961 . S
H80 C18 0.959 . S
H81 C19 0.960 . S
H82 C19 0.960 1_455 S
H83 C19 0.960 . S
H84 C55 0.980 . S
H85 C21 0.930 . S
H86 C25 0.930 . S
H87 C26 0.961 . S
H88 C26 0.960 . S
H89 C26 0.958 . S
H90 C27 0.961 . S
H91 C27 0.960 . S
H92 C27 0.960 . S
H93 C29 0.980 . S
H94 C28 0.961 . S
H95 C28 0.961 . S
H96 C28 0.959 . S
H97 C31 0.932 . S
H98 C35 0.929 . S
H99 C36 0.961 . S
H100 C36 0.959 1_655 S
H101 C36 0.959 . S
H102 C37 0.960 . S
H103 C37 0.962 . S
H104 C37 0.961 . S
H105 C39 0.929 . S
H106 C42 0.930 . S
H107 C43 0.929 . S
H108 C46 0.930 . S
H109 C49 0.929 . S
H110 C50 0.930 . S
H111 C54 0.962 . S
H112 C54 0.959 . S
H113 C54 0.958 . S
C114 C115 1.560 . S
C114 H175 0.959 . S
C114 H176 0.959 . S
C114 H177 0.960 . S
C115 C114 1.560 . S
C115 O170 1.426 . S
C115 H174 0.980 . S
C116 C117 1.407 . S
C116 C121 1.418 . S
C116 O170 1.334 . S
C117 C116 1.407 . S
C117 C118 1.360 . S
C117 H178 0.929 . S
C118 C117 1.360 . S
C118 C119 1.401 . S
C118 C122 1.527 . S
C119 C118 1.401 . S
C119 C120 1.405 . S
C119 C152 1.587 . S
C120 C119 1.405 . S
C120 C121 1.332 . S
C120 C123 1.496 . S
C121 C116 1.418 . S
C121 C120 1.332 . S
C121 H179 0.929 . S
C122 C118 1.527 . S
C122 H180 0.959 . S
C122 H181 0.961 . S
C122 H182 0.961 . S
C123 C120 1.496 . S
C123 H183 0.960 . S
C123 H184 0.960 . S
C123 H185 0.961 . S
C124 C125 1.517 . S
C124 H187 0.961 . S
C124 H188 0.960 . S
C124 H189 0.959 . S
C125 C124 1.517 . S
C125 O173 1.468 . S
C125 H186 0.980 . S
C126 C127 1.349 . S
C126 C131 1.367 . S
C126 O173 1.408 . S
C127 C126 1.349 . S
C127 C128 1.407 . S
C127 H190 0.930 . S
C128 C127 1.407 . S
C128 C129 1.449 . S
C128 C132 1.535 . S
C129 C128 1.449 . S
C129 C130 1.384 . S
C129 C154 1.553 . S
C130 C129 1.384 . S
C130 C131 1.364 . S
C130 C133 1.450 . S
C131 C126 1.367 . S
C131 C130 1.364 . S
C131 H191 0.931 . S
C132 C128 1.535 . S
C132 H192 0.959 . S
C132 H193 0.961 . S
C132 H194 0.959 . S
C133 C130 1.450 . S
C133 H195 0.960 . S
C133 H196 0.960 . S
C133 H197 0.960 . S
C134 C135 1.309 . S
C134 C139 1.304 . S
C134 O172 1.435 . S
C135 C134 1.309 . S
C135 C136 1.476 . S
C135 H199 0.930 . S
C136 C135 1.476 . S
C136 C137 1.400 . S
C136 C140 1.567 . S
C137 C136 1.400 . S
C137 C138 1.373 . S
C137 C159 1.432 . S
C138 C137 1.373 . S
C138 C139 1.339 . S
C138 C141 1.530 . S
C139 C134 1.304 . S
C139 C138 1.339 . S
C139 H200 0.930 . S
C140 C136 1.567 . S
C140 H201 0.961 . S
C140 H202 0.960 . S
C140 H203 0.958 . S
C141 C138 1.530 . S
C141 H204 0.961 . S
C141 H205 0.960 . S
C141 H206 0.960 . S
C142 C143 1.530 . S
C142 H208 0.961 . S
C142 H209 0.961 . S
C142 H210 0.959 . S
C143 C142 1.530 . S
C143 O171 1.412 . S
C143 H207 0.980 . S
C144 C145 1.288 . S
C144 C149 1.377 . S
C144 O171 1.393 . S
C145 C144 1.288 . S
C145 C146 1.369 . S
C145 H211 0.932 . S
C146 C145 1.369 . S
C146 C147 1.398 . S
C146 C150 1.527 . S
C147 C146 1.398 . S
C147 C148 1.380 . S
C147 C161 1.497 . S
C148 C147 1.380 . S
C148 C149 1.383 . S
C148 C151 1.603 . S
C149 C144 1.377 . S
C149 C148 1.383 . S
C149 H212 0.929 . S
C150 C146 1.527 . S
C150 H213 0.961 . S
C150 H214 0.959 1_565 S
C150 H215 0.959 . S
C151 C148 1.603 . S
C151 H216 0.960 . S
C151 H217 0.962 . S
C151 H218 0.961 . S
C152 C119 1.587 . S
C152 C153 1.360 . S
C152 C165 1.412 . S
C153 C152 1.360 . S
C153 C154 1.365 1_565 S
C153 H219 0.929 . S
C154 C129 1.553 . S
C154 C153 1.365 1_545 S
C154 C155 1.404 . S
C155 C154 1.404 . S
C155 C156 1.395 . S
C155 C166 1.451 1_545 S
C156 C155 1.395 . S
C156 C157 1.322 . S
C156 H220 0.930 . S
C157 C156 1.322 . S
C157 C158 1.459 . S
C157 H221 0.929 . S
C158 C157 1.459 . S
C158 C159 1.445 . S
C158 C167 1.395 . S
C159 C137 1.432 . S
C159 C158 1.445 . S
C159 C160 1.370 . S
C160 C159 1.370 . S
C160 C161 1.438 1_545 S
C160 H222 0.930 . S
C161 C147 1.497 . S
C161 C160 1.438 1_565 S
C161 C162 1.360 . S
C162 C161 1.360 . S
C162 C163 1.401 . S
C162 C167 1.446 1_565 S
C163 C162 1.401 . S
C163 C164 1.347 . S
C163 H223 0.929 . S
C164 C163 1.347 . S
C164 C165 1.455 . S
C164 H224 0.930 . S
C165 C152 1.412 . S
C165 C164 1.455 . S
C165 C166 1.331 . S
C166 C155 1.451 1_565 S
C166 C165 1.331 . S
C166 C167 1.497 1_565 S
C167 C158 1.395 . S
C167 C162 1.446 1_545 S
C167 C166 1.497 1_545 S
C168 C169 1.582 . S
C168 H225 0.962 . S
C168 H226 0.959 . S
C168 H227 0.958 . S
C169 C168 1.582 . S
C169 O172 1.458 . S
C169 H198 0.980 . S
O170 C115 1.426 . S
O170 C116 1.334 . S
O171 C143 1.412 . S
O171 C144 1.393 . S
O172 C134 1.435 . S
O172 C169 1.458 . S
O173 C125 1.468 . S
O173 C126 1.408 . S
H174 C115 0.980 . S
H175 C114 0.959 . S
H176 C114 0.959 . S
H177 C114 0.960 . S
H178 C117 0.929 . S
H179 C121 0.929 . S
H180 C122 0.959 . S
H181 C122 0.961 . S
H182 C122 0.961 . S
H183 C123 0.960 . S
H184 C123 0.960 . S
H185 C123 0.961 . S
H186 C125 0.980 . S
H187 C124 0.961 . S
H188 C124 0.960 . S
H189 C124 0.959 . S
H190 C127 0.930 . S
H191 C131 0.931 . S
H192 C132 0.959 . S
H193 C132 0.961 . S
H194 C132 0.959 . S
H195 C133 0.960 . S
H196 C133 0.960 . S
H197 C133 0.960 . S
H198 C169 0.980 . S
H199 C135 0.930 . S
H200 C139 0.930 . S
H201 C140 0.961 . S
H202 C140 0.960 . S
H203 C140 0.958 . S
H204 C141 0.961 . S
H205 C141 0.960 . S
H206 C141 0.960 . S
H207 C143 0.980 . S
H208 C142 0.961 . S
H209 C142 0.961 . S
H210 C142 0.959 . S
H211 C145 0.932 . S
H212 C149 0.929 . S
H213 C150 0.961 . S
H214 C150 0.959 1_545 S
H215 C150 0.959 . S
H216 C151 0.960 . S
H217 C151 0.962 . S
H218 C151 0.961 . S
H219 C153 0.929 . S
H220 C156 0.930 . S
H221 C157 0.929 . S
H222 C160 0.930 . S
H223 C163 0.929 . S
H224 C164 0.930 . S
H225 C168 0.962 . S
H226 C168 0.959 . S
H227 C168 0.958 . S
C228 C229 1.560 . S
C228 H289 0.959 . S
C228 H290 0.959 . S
C228 H291 0.960 . S
C229 C228 1.560 . S
C229 O284 1.426 . S
C229 H288 0.980 . S
C230 C231 1.407 . S
C230 C235 1.418 . S
C230 O284 1.334 . S
C231 C230 1.407 . S
C231 C232 1.360 . S
C231 H292 0.929 . S
C232 C231 1.360 . S
C232 C233 1.401 . S
C232 C236 1.527 . S
C233 C232 1.401 . S
C233 C234 1.405 . S
C233 C266 1.587 . S
C234 C233 1.405 . S
C234 C235 1.332 . S
C234 C237 1.496 . S
C235 C230 1.418 . S
C235 C234 1.332 . S
C235 H293 0.929 . S
C236 C232 1.527 . S
C236 H294 0.959 . S
C236 H295 0.961 . S
C236 H296 0.961 . S
C237 C234 1.496 . S
C237 H297 0.960 . S
C237 H298 0.960 . S
C237 H299 0.961 . S
C238 C239 1.517 . S
C238 H301 0.961 . S
C238 H302 0.960 . S
C238 H303 0.959 . S
C239 C238 1.517 . S
C239 O287 1.468 . S
C239 H300 0.980 . S
C240 C241 1.349 . S
C240 C245 1.367 . S
C240 O287 1.408 . S
C241 C240 1.349 . S
C241 C242 1.407 . S
C241 H304 0.930 . S
C242 C241 1.407 . S
C242 C243 1.449 . S
C242 C246 1.535 . S
C243 C242 1.449 . S
C243 C244 1.384 . S
C243 C268 1.553 . S
C244 C243 1.384 . S
C244 C245 1.364 . S
C244 C247 1.450 . S
C245 C240 1.367 . S
C245 C244 1.364 . S
C245 H305 0.931 . S
C246 C242 1.535 . S
C246 H306 0.959 . S
C246 H307 0.961 . S
C246 H308 0.959 . S
C247 C244 1.450 . S
C247 H309 0.960 . S
C247 H310 0.960 . S
C247 H311 0.960 . S
C248 C249 1.309 . S
C248 C253 1.304 . S
C248 O286 1.435 . S
C249 C248 1.309 . S
C249 C250 1.476 . S
C249 H313 0.930 . S
C250 C249 1.476 . S
C250 C251 1.400 . S
C250 C254 1.567 . S
C251 C250 1.400 . S
C251 C252 1.373 . S
C251 C273 1.432 . S
C252 C251 1.373 . S
C252 C253 1.339 . S
C252 C255 1.530 . S
C253 C248 1.304 . S
C253 C252 1.339 . S
C253 H314 0.930 . S
C254 C250 1.567 . S
C254 H315 0.961 . S
C254 H316 0.960 . S
C254 H317 0.958 . S
C255 C252 1.530 . S
C255 H318 0.961 . S
C255 H319 0.960 . S
C255 H320 0.960 . S
C256 C257 1.530 . S
C256 H322 0.961 . S
C256 H323 0.961 . S
C256 H324 0.959 . S
C257 C256 1.530 . S
C257 O285 1.412 . S
C257 H321 0.980 . S
C258 C259 1.288 . S
C258 C263 1.377 . S
C258 O285 1.393 . S
C259 C258 1.288 . S
C259 C260 1.369 . S
C259 H325 0.932 . S
C260 C259 1.369 . S
C260 C261 1.398 . S
C260 C264 1.527 . S
C261 C260 1.398 . S
C261 C262 1.380 . S
C261 C275 1.497 . S
C262 C261 1.380 . S
C262 C263 1.383 . S
C262 C265 1.603 . S
C263 C258 1.377 . S
C263 C262 1.383 . S
C263 H326 0.929 . S
C264 C260 1.527 . S
C264 H327 0.961 . S
C264 H328 0.959 . S
C264 H329 0.959 . S
C265 C262 1.603 . S
C265 H330 0.960 . S
C265 H331 0.962 . S
C265 H332 0.961 . S
C266 C233 1.587 . S
C266 C267 1.360 . S
C266 C279 1.412 . S
C267 C266 1.360 . S
C267 C268 1.365 . S
C267 H333 0.929 . S
C268 C243 1.553 . S
C268 C267 1.365 . S
C268 C269 1.404 . S
C269 C268 1.404 . S
C269 C270 1.395 . S
C269 C280 1.451 . S
C270 C269 1.395 . S
C270 C271 1.322 . S
C270 H334 0.930 . S
C271 C270 1.322 . S
C271 C272 1.459 . S
C271 H335 0.929 . S
C272 C271 1.459 . S
C272 C273 1.445 . S
C272 C281 1.395 . S
C273 C251 1.432 . S
C273 C272 1.445 . S
C273 C274 1.370 . S
C274 C273 1.370 . S
C274 C275 1.438 . S
C274 H336 0.930 . S
C275 C261 1.497 . S
C275 C274 1.438 . S
C275 C276 1.360 . S
C276 C275 1.360 . S
C276 C277 1.401 . S
C276 C281 1.446 . S
C277 C276 1.401 . S
C277 C278 1.347 . S
C277 H337 0.929 . S
C278 C277 1.347 . S
C278 C279 1.455 . S
C278 H338 0.930 . S
C279 C266 1.412 . S
C279 C278 1.455 . S
C279 C280 1.331 . S
C280 C269 1.451 . S
C280 C279 1.331 . S
C280 C281 1.497 . S
C281 C272 1.395 . S
C281 C276 1.446 . S
C281 C280 1.497 . S
C282 C283 1.582 . S
C282 H339 0.962 . S
C282 H340 0.959 . S
C282 H341 0.958 . S
C283 C282 1.582 . S
C283 O286 1.458 . S
C283 H312 0.980 . S
O284 C229 1.426 . S
O284 C230 1.334 . S
O285 C257 1.412 . S
O285 C258 1.393 . S
O286 C248 1.435 . S
O286 C283 1.458 . S
O287 C239 1.468 . S
O287 C240 1.408 . S
H288 C229 0.980 . S
H289 C228 0.959 . S
H290 C228 0.959 . S
H291 C228 0.960 . S
H292 C231 0.929 . S
H293 C235 0.929 . S
H294 C236 0.959 . S
H295 C236 0.961 . S
H296 C236 0.961 . S
H297 C237 0.960 . S
H298 C237 0.960 . S
H299 C237 0.961 . S
H300 C239 0.980 . S
H301 C238 0.961 . S
H302 C238 0.960 . S
H303 C238 0.959 . S
H304 C241 0.930 . S
H305 C245 0.931 . S
H306 C246 0.959 . S
H307 C246 0.961 . S
H308 C246 0.959 . S
H309 C247 0.960 . S
H310 C247 0.960 . S
H311 C247 0.960 . S
H312 C283 0.980 . S
H313 C249 0.930 . S
H314 C253 0.930 . S
H315 C254 0.961 . S
H316 C254 0.960 . S
H317 C254 0.958 . S
H318 C255 0.961 . S
H319 C255 0.960 . S
H320 C255 0.960 . S
H321 C257 0.980 . S
H322 C256 0.961 . S
H323 C256 0.961 . S
H324 C256 0.959 . S
H325 C259 0.932 . S
H326 C263 0.929 . S
H327 C264 0.961 . S
H328 C264 0.959 . S
H329 C264 0.959 . S
H330 C265 0.960 . S
H331 C265 0.962 . S
H332 C265 0.961 . S
H333 C267 0.929 . S
H334 C270 0.930 . S
H335 C271 0.929 . S
H336 C274 0.930 . S
H337 C277 0.929 . S
H338 C278 0.930 . S
H339 C282 0.962 . S
H340 C282 0.959 . S
H341 C282 0.958 . S
C342 C343 1.560 . S
C342 H403 0.959 . S
C342 H404 0.959 . S
C342 H405 0.960 . S
C343 C342 1.560 . S
C343 O398 1.426 . S
C343 H402 0.980 . S
C344 C345 1.407 . S
C344 C349 1.418 . S
C344 O398 1.334 . S
C345 C344 1.407 . S
C345 C346 1.360 . S
C345 H406 0.929 . S
C346 C345 1.360 . S
C346 C347 1.401 . S
C346 C350 1.527 . S
C347 C346 1.401 . S
C347 C348 1.405 . S
C347 C380 1.587 . S
C348 C347 1.405 . S
C348 C349 1.332 . S
C348 C351 1.496 . S
C349 C344 1.418 . S
C349 C348 1.332 . S
C349 H407 0.929 . S
C350 C346 1.527 . S
C350 H408 0.959 . S
C350 H409 0.961 . S
C350 H410 0.961 . S
C351 C348 1.496 . S
C351 H411 0.960 . S
C351 H412 0.960 . S
C351 H413 0.961 . S
C352 C353 1.517 . S
C352 H415 0.961 1_556 S
C352 H416 0.960 . S
C352 H417 0.959 . S
C353 C352 1.517 . S
C353 O401 1.468 . S
C353 H414 0.980 . S
C354 C355 1.349 . S
C354 C359 1.367 . S
C354 O401 1.408 . S
C355 C354 1.349 . S
C355 C356 1.407 . S
C355 H418 0.930 . S
C356 C355 1.407 . S
C356 C357 1.449 . S
C356 C360 1.535 . S
C357 C356 1.449 . S
C357 C358 1.384 . S
C357 C382 1.553 1_655 S
C358 C357 1.384 . S
C358 C359 1.364 . S
C358 C361 1.450 . S
C359 C354 1.367 . S
C359 C358 1.364 . S
C359 H419 0.931 . S
C360 C356 1.535 . S
C360 H420 0.959 1_655 S
C360 H421 0.961 1_655 S
C360 H422 0.959 . S
C361 C358 1.450 . S
C361 H423 0.960 . S
C361 H424 0.960 1_655 S
C361 H425 0.960 . S
C362 C363 1.309 . S
C362 C367 1.304 . S
C362 O400 1.435 . S
C363 C362 1.309 . S
C363 C364 1.476 . S
C363 H427 0.930 . S
C364 C363 1.476 . S
C364 C365 1.400 . S
C364 C368 1.567 . S
C365 C364 1.400 . S
C365 C366 1.373 . S
C365 C387 1.432 . S
C366 C365 1.373 . S
C366 C367 1.339 . S
C366 C369 1.530 . S
C367 C362 1.304 . S
C367 C366 1.339 . S
C367 H428 0.930 . S
C368 C364 1.567 . S
C368 H429 0.961 . S
C368 H430 0.960 . S
C368 H431 0.958 . S
C369 C366 1.530 . S
C369 H432 0.961 . S
C369 H433 0.960 . S
C369 H434 0.960 . S
C370 C371 1.530 . S
C370 H436 0.961 . S
C370 H437 0.961 . S
C370 H438 0.959 . S
C371 C370 1.530 . S
C371 O399 1.412 . S
C371 H435 0.980 . S
C372 C373 1.288 . S
C372 C377 1.377 . S
C372 O399 1.393 . S
C373 C372 1.288 . S
C373 C374 1.369 . S
C373 H439 0.932 . S
C374 C373 1.369 . S
C374 C375 1.398 . S
C374 C378 1.527 . S
C375 C374 1.398 . S
C375 C376 1.380 . S
C375 C389 1.497 . S
C376 C375 1.380 . S
C376 C377 1.383 . S
C376 C379 1.603 . S
C377 C372 1.377 . S
C377 C376 1.383 . S
C377 H440 0.929 . S
C378 C374 1.527 . S
C378 H441 0.961 . S
C378 H442 0.940 1_455 S
C378 H443 0.959 . S
C379 C376 1.603 . S
C379 H444 0.960 . S
C379 H445 0.962 . S
C379 H446 0.961 . S
C380 C347 1.587 . S
C380 C381 1.360 . S
C380 C393 1.412 . S
C381 C380 1.360 . S
C381 C382 1.365 . S
C381 H447 0.929 . S
C382 C357 1.553 1_455 S
C382 C381 1.365 . S
C382 C383 1.404 . S
C383 C382 1.404 . S
C383 C384 1.395 1_455 S
C383 C394 1.451 . S
C384 C383 1.395 1_655 S
C384 C385 1.322 . S
C384 H448 0.930 . S
C385 C384 1.322 . S
C385 C386 1.459 . S
C385 H449 0.929 . S
C386 C385 1.459 . S
C386 C387 1.445 . S
C386 C395 1.395 1_655 S
C387 C365 1.432 . S
C387 C386 1.445 . S
C387 C388 1.370 . S
C388 C387 1.370 . S
C388 C389 1.438 1_655 S
C388 H450 0.930 . S
C389 C375 1.497 . S
C389 C388 1.438 1_455 S
C389 C390 1.360 . S
C390 C389 1.360 . S
C390 C391 1.401 . S
C390 C395 1.446 . S
C391 C390 1.401 . S
C391 C392 1.347 . S
C391 H451 0.929 . S
C392 C391 1.347 . S
C392 C393 1.455 . S
C392 H452 0.930 . S
C393 C380 1.412 . S
C393 C392 1.455 . S
C393 C394 1.331 . S
C394 C383 1.451 . S
C394 C393 1.331 . S
C394 C395 1.497 . S
C395 C386 1.395 1_455 S
C395 C390 1.446 . S
C395 C394 1.497 . S
C396 C397 1.582 . S
C396 H453 0.962 . S
C396 H454 0.959 . S
C396 H455 0.958 . S
C397 C396 1.582 . S
C397 O400 1.458 . S
C397 H426 0.980 . S
O398 C343 1.426 . S
O398 C344 1.334 . S
O399 C371 1.412 . S
O399 C372 1.393 . S
O400 C362 1.435 . S
O400 C397 1.458 . S
O401 C353 1.468 . S
O401 C354 1.408 . S
H402 C343 0.980 . S
H403 C342 0.959 . S
H404 C342 0.959 . S
H405 C342 0.960 . S
H406 C345 0.929 . S
H407 C349 0.929 . S
H408 C350 0.959 . S
H409 C350 0.961 . S
H410 C350 0.961 . S
H411 C351 0.960 . S
H412 C351 0.960 . S
H413 C351 0.961 . S
H414 C353 0.980 . S
H415 C352 0.961 1_554 S
H416 C352 0.960 . S
H417 C352 0.959 . S
H418 C355 0.930 . S
H419 C359 0.931 . S
H420 C360 0.959 1_455 S
H421 C360 0.961 1_455 S
H422 C360 0.959 . S
H423 C361 0.960 . S
H424 C361 0.960 1_455 S
H425 C361 0.960 . S
H426 C397 0.980 . S
H427 C363 0.930 . S
H428 C367 0.930 . S
H429 C368 0.961 . S
H430 C368 0.960 . S
H431 C368 0.958 . S
H432 C369 0.961 . S
H433 C369 0.960 . S
H434 C369 0.960 . S
H435 C371 0.980 . S
H436 C370 0.961 . S
H437 C370 0.961 . S
H438 C370 0.959 . S
H439 C373 0.932 . S
H440 C377 0.929 . S
H441 C378 0.961 . S
H442 C378 0.940 1_655 S
H443 C378 0.959 . S
H444 C379 0.960 . S
H445 C379 0.962 . S
H446 C379 0.961 . S
H447 C381 0.929 . S
H448 C384 0.930 . S
H449 C385 0.929 . S
H450 C388 0.930 . S
H451 C391 0.929 . S
H452 C392 0.930 . S
H453 C396 0.962 . S
H454 C396 0.959 . S
H455 C396 0.958 . S
C456 C457 1.560 . S
C456 H517 0.959 . S
C456 H518 0.959 . S
C456 H519 0.960 . S
C457 C456 1.560 . S
C457 O512 1.426 . S
C457 H516 0.980 . S
C458 C459 1.407 . S
C458 C463 1.418 . S
C458 O512 1.334 . S
C459 C458 1.407 . S
C459 C460 1.360 . S
C459 H520 0.929 . S
C460 C459 1.360 . S
C460 C461 1.401 . S
C460 C464 1.527 . S
C461 C460 1.401 . S
C461 C462 1.405 . S
C461 C494 1.587 . S
C462 C461 1.405 . S
C462 C463 1.332 . S
C462 C465 1.496 . S
C463 C458 1.418 . S
C463 C462 1.332 . S
C463 H521 0.929 . S
C464 C460 1.527 . S
C464 H522 0.959 . S
C464 H523 0.961 . S
C464 H524 0.961 . S
C465 C462 1.496 . S
C465 H525 0.960 . S
C465 H526 0.960 . S
C465 H527 0.961 . S
C466 C467 1.517 . S
C466 H529 0.961 . S
C466 H530 0.960 . S
C466 H531 0.959 . S
C467 C466 1.517 . S
C467 O515 1.468 . S
C467 H528 0.980 . S
C468 C469 1.349 . S
C468 C473 1.367 . S
C468 O515 1.408 . S
C469 C468 1.349 . S
C469 C470 1.407 . S
C469 H532 0.930 . S
C470 C469 1.407 . S
C470 C471 1.449 . S
C470 C474 1.535 . S
C471 C470 1.449 . S
C471 C472 1.384 . S
C471 C496 1.553 . S
C472 C471 1.384 . S
C472 C473 1.364 . S
C472 C475 1.450 . S
C473 C468 1.367 . S
C473 C472 1.364 . S
C473 H533 0.931 . S
C474 C470 1.535 . S
C474 H534 0.959 . S
C474 H535 0.961 . S
C474 H536 0.959 . S
C475 C472 1.450 . S
C475 H537 0.960 . S
C475 H538 0.987 . S
C475 H539 0.960 . S
C476 C477 1.309 . S
C476 C481 1.304 . S
C476 O514 1.435 . S
C477 C476 1.309 . S
C477 C478 1.476 . S
C477 H541 0.930 . S
C478 C477 1.476 . S
C478 C479 1.400 . S
C478 C482 1.567 . S
C479 C478 1.400 . S
C479 C480 1.373 . S
C479 C501 1.432 . S
C480 C479 1.373 . S
C480 C481 1.339 . S
C480 C483 1.530 . S
C481 C476 1.304 . S
C481 C480 1.339 . S
C481 H542 0.930 . S
C482 C478 1.567 . S
C482 H543 0.961 . S
C482 H544 0.960 . S
C482 H545 0.958 . S
C483 C480 1.530 . S
C483 H546 0.961 . S
C483 H547 0.960 . S
C483 H548 0.960 . S
C484 C485 1.530 . S
C484 H550 0.961 . S
C484 H551 0.961 . S
C484 H552 0.959 . S
C485 C484 1.530 . S
C485 O513 1.412 . S
C485 H549 0.980 . S
C486 C487 1.288 . S
C486 C491 1.377 . S
C486 O513 1.393 . S
C487 C486 1.288 . S
C487 C488 1.369 . S
C487 H553 0.932 . S
C488 C487 1.369 . S
C488 C489 1.398 . S
C488 C492 1.527 1_565 S
C489 C488 1.398 . S
C489 C490 1.380 . S
C489 C503 1.497 1_565 S
C490 C489 1.380 . S
C490 C491 1.383 . S
C490 C493 1.603 . S
C491 C486 1.377 . S
C491 C490 1.383 . S
C491 H554 0.929 . S
C492 C488 1.527 1_545 S
C492 H555 0.961 1_545 S
C492 H556 0.959 . S
C492 H557 0.958 1_545 S
C493 C490 1.603 . S
C493 H558 0.960 . S
C493 H559 0.962 . S
C493 H560 0.961 . S
C494 C461 1.587 . S
C494 C495 1.360 . S
C494 C507 1.412 . S
C495 C494 1.360 . S
C495 C496 1.365 1_565 S
C495 H561 0.929 . S
C496 C471 1.553 . S
C496 C495 1.365 1_545 S
C496 C497 1.404 . S
C497 C496 1.404 . S
C497 C498 1.395 . S
C497 C508 1.451 1_545 S
C498 C497 1.395 . S
C498 C499 1.322 . S
C498 H562 0.930 . S
C499 C498 1.322 . S
C499 C500 1.459 1_556 S
C499 H563 0.929 . S
C500 C499 1.459 1_554 S
C500 C501 1.445 . S
C500 C509 1.395 1_554 S
C501 C479 1.432 . S
C501 C500 1.445 . S
C501 C502 1.370 . S
C502 C501 1.370 . S
C502 C503 1.438 . S
C502 H564 0.930 . S
C503 C489 1.497 1_545 S
C503 C502 1.438 . S
C503 C504 1.360 1_545 S
C504 C503 1.360 1_565 S
C504 C505 1.401 . S
C504 C509 1.446 1_564 S
C505 C504 1.401 . S
C505 C506 1.347 1_554 S
C505 H565 0.929 . S
C506 C505 1.347 1_556 S
C506 C507 1.455 . S
C506 H566 0.930 . S
C507 C494 1.412 . S
C507 C506 1.455 . S
C507 C508 1.331 . S
C508 C497 1.451 1_565 S
C508 C507 1.331 . S
C508 C509 1.497 1_565 S
C509 C500 1.395 1_556 S
C509 C504 1.446 1_546 S
C509 C508 1.497 1_545 S
C510 C511 1.582 . S
C510 H567 0.962 . S
C510 H568 0.959 . S
C510 H569 0.958 . S
C511 C510 1.582 . S
C511 O514 1.458 . S
C511 H540 0.980 . S
O512 C457 1.426 . S
O512 C458 1.334 . S
O513 C485 1.412 . S
O513 C486 1.393 . S
O514 C476 1.435 . S
O514 C511 1.458 . S
O515 C467 1.468 . S
O515 C468 1.408 . S
H516 C457 0.980 . S
H517 C456 0.959 . S
H518 C456 0.959 . S
H519 C456 0.960 . S
H520 C459 0.929 . S
H521 C463 0.929 . S
H522 C464 0.959 . S
H523 C464 0.961 . S
H524 C464 0.961 . S
H525 C465 0.960 . S
H526 C465 0.960 . S
H527 C465 0.961 . S
H528 C467 0.980 . S
H529 C466 0.961 . S
H530 C466 0.960 . S
H531 C466 0.959 . S
H532 C469 0.930 . S
H533 C473 0.931 . S
H534 C474 0.959 . S
H535 C474 0.961 . S
H536 C474 0.959 . S
H537 C475 0.960 . S
H538 C475 0.987 . S
H539 C475 0.960 . S
H540 C511 0.980 . S
H541 C477 0.930 . S
H542 C481 0.930 . S
H543 C482 0.961 . S
H544 C482 0.960 . S
H545 C482 0.958 . S
H546 C483 0.961 . S
H547 C483 0.960 . S
H548 C483 0.960 . S
H549 C485 0.980 . S
H550 C484 0.961 . S
H551 C484 0.961 . S
H552 C484 0.959 . S
H553 C487 0.932 . S
H554 C491 0.929 . S
H555 C492 0.961 1_565 S
H556 C492 0.959 . S
H557 C492 0.958 1_565 S
H558 C493 0.960 . S
H559 C493 0.962 . S
H560 C493 0.961 . S
H561 C495 0.929 . S
H562 C498 0.930 . S
H563 C499 0.929 . S
H564 C502 0.930 . S
H565 C505 0.929 . S
H566 C506 0.930 . S
H567 C510 0.962 . S
H568 C510 0.959 . S
H569 C510 0.958 . S
C570 C571 1.560 . S
C570 H631 0.959 . S
C570 H632 0.959 . S
C570 H633 0.960 . S
C571 C570 1.560 . S
C571 O626 1.426 . S
C571 H630 0.980 . S
C572 C573 1.407 . S
C572 C577 1.418 . S
C572 O626 1.334 . S
C573 C572 1.407 . S
C573 C574 1.360 . S
C573 H634 0.929 . S
C574 C573 1.360 . S
C574 C575 1.401 . S
C574 C578 1.527 . S
C575 C574 1.401 . S
C575 C576 1.405 . S
C575 C608 1.587 . S
C576 C575 1.405 . S
C576 C577 1.332 . S
C576 C579 1.496 . S
C577 C572 1.418 . S
C577 C576 1.332 . S
C577 H635 0.929 . S
C578 C574 1.527 . S
C578 H636 0.959 . S
C578 H637 0.961 . S
C578 H638 0.961 . S
C579 C576 1.496 . S
C579 H639 0.960 . S
C579 H640 0.960 . S
C579 H641 0.961 . S
C580 C581 1.517 1_556 S
C580 H643 0.961 . S
C580 H644 0.960 . S
C580 H645 0.959 1_556 S
C581 C580 1.517 1_554 S
C581 O629 1.468 . S
C581 H642 0.980 . S
C582 C583 1.349 . S
C582 C587 1.367 . S
C582 O629 1.408 . S
C583 C582 1.349 . S
C583 C584 1.407 . S
C583 H646 0.930 . S
C584 C583 1.407 . S
C584 C585 1.449 . S
C584 C588 1.535 . S
C585 C584 1.449 . S
C585 C586 1.384 . S
C585 C610 1.553 . S
C586 C585 1.384 . S
C586 C587 1.364 . S
C586 C589 1.450 . S
C587 C582 1.367 . S
C587 C586 1.364 . S
C587 H647 0.931 . S
C588 C584 1.535 . S
C588 H648 0.959 . S
C588 H649 0.961 . S
C588 H650 0.959 . S
C589 C586 1.450 . S
C589 H651 0.960 . S
C589 H652 0.960 . S
C589 H653 0.960 . S
C590 C591 1.309 . S
C590 C595 1.304 . S
C590 O628 1.435 . S
C591 C590 1.309 . S
C591 C592 1.476 . S
C591 H655 0.930 . S
C592 C591 1.476 . S
C592 C593 1.400 . S
C592 C596 1.567 . S
C593 C592 1.400 . S
C593 C594 1.373 . S
C593 C615 1.432 . S
C594 C593 1.373 . S
C594 C595 1.339 . S
C594 C597 1.530 . S
C595 C590 1.304 . S
C595 C594 1.339 . S
C595 H656 0.930 . S
C596 C592 1.567 . S
C596 H657 0.961 . S
C596 H658 0.960 . S
C596 H659 0.958 . S
C597 C594 1.530 . S
C597 H660 0.961 . S
C597 H661 0.960 . S
C597 H662 0.960 . S
C598 C599 1.530 . S
C598 H664 0.961 . S
C598 H665 0.961 . S
C598 H666 0.959 . S
C599 C598 1.530 . S
C599 O627 1.412 . S
C599 H663 0.980 . S
C600 C601 1.288 . S
C600 C605 1.377 . S
C600 O627 1.393 . S
C601 C600 1.288 . S
C601 C602 1.369 . S
C601 H667 0.932 . S
C602 C601 1.369 . S
C602 C603 1.398 . S
C602 C606 1.527 . S
C603 C602 1.398 . S
C603 C604 1.380 . S
C603 C617 1.497 . S
C604 C603 1.380 . S
C604 C605 1.383 . S
C604 C607 1.603 . S
C605 C600 1.377 . S
C605 C604 1.383 . S
C605 H668 0.929 . S
C606 C602 1.527 . S
C606 H669 0.961 . S
C606 H670 0.959 . S
C606 H671 0.959 . S
C607 C604 1.603 . S
C607 H672 0.960 . S
C607 H673 0.962 . S
C607 H674 0.961 . S
C608 C575 1.587 . S
C608 C609 1.360 . S
C608 C621 1.412 . S
C609 C608 1.360 . S
C609 C610 1.365 . S
C609 H675 0.929 . S
C610 C585 1.553 . S
C610 C609 1.365 . S
C610 C611 1.404 . S
C611 C610 1.404 . S
C611 C612 1.395 . S
C611 C622 1.451 . S
C612 C611 1.395 . S
C612 C613 1.322 . S
C612 H676 0.930 . S
C613 C612 1.322 . S
C613 C614 1.459 . S
C613 H677 0.929 . S
C614 C613 1.459 . S
C614 C615 1.445 . S
C614 C623 1.395 . S
C615 C593 1.432 . S
C615 C614 1.445 . S
C615 C616 1.370 . S
C616 C615 1.370 . S
C616 C617 1.438 . S
C616 H678 0.930 . S
C617 C603 1.497 . S
C617 C616 1.438 . S
C617 C618 1.360 . S
C618 C617 1.360 . S
C618 C619 1.401 . S
C618 C623 1.446 . S
C619 C618 1.401 . S
C619 C620 1.347 . S
C619 H679 0.929 . S
C620 C619 1.347 . S
C620 C621 1.455 . S
C620 H680 0.930 . S
C621 C608 1.412 . S
C621 C620 1.455 . S
C621 C622 1.331 . S
C622 C611 1.451 . S
C622 C621 1.331 . S
C622 C623 1.497 . S
C623 C614 1.395 . S
C623 C618 1.446 . S
C623 C622 1.497 . S
C624 C625 1.582 . S
C624 H681 0.962 . S
C624 H682 0.959 . S
C624 H683 0.958 . S
C625 C624 1.582 . S
C625 O628 1.458 . S
C625 H654 0.980 . S
O626 C571 1.426 . S
O626 C572 1.334 . S
O627 C599 1.412 . S
O627 C600 1.393 . S
O628 C590 1.435 . S
O628 C625 1.458 . S
O629 C581 1.468 . S
O629 C582 1.408 . S
H630 C571 0.980 . S
H631 C570 0.959 . S
H632 C570 0.959 . S
H633 C570 0.960 . S
H634 C573 0.929 . S
H635 C577 0.929 . S
H636 C578 0.959 . S
H637 C578 0.961 . S
H638 C578 0.961 . S
H639 C579 0.960 . S
H640 C579 0.960 . S
H641 C579 0.961 . S
H642 C581 0.980 . S
H643 C580 0.961 . S
H644 C580 0.960 . S
H645 C580 0.959 1_554 S
H646 C583 0.930 . S
H647 C587 0.931 . S
H648 C588 0.959 . S
H649 C588 0.961 . S
H650 C588 0.959 . S
H651 C589 0.960 . S
H652 C589 0.960 . S
H653 C589 0.960 . S
H654 C625 0.980 . S
H655 C591 0.930 . S
H656 C595 0.930 . S
H657 C596 0.961 . S
H658 C596 0.960 . S
H659 C596 0.958 . S
H660 C597 0.961 . S
H661 C597 0.960 . S
H662 C597 0.960 . S
H663 C599 0.980 . S
H664 C598 0.961 . S
H665 C598 0.961 . S
H666 C598 0.959 . S
H667 C601 0.932 . S
H668 C605 0.929 . S
H669 C606 0.961 . S
H670 C606 0.959 . S
H671 C606 0.959 . S
H672 C607 0.960 . S
H673 C607 0.962 . S
H674 C607 0.961 . S
H675 C609 0.929 . S
H676 C612 0.930 . S
H677 C613 0.929 . S
H678 C616 0.930 . S
H679 C619 0.929 . S
H680 C620 0.930 . S
H681 C624 0.962 . S
H682 C624 0.959 . S
H683 C624 0.958 . S
Zn684 O687 2.031 . S
Zn684 O689 2.049 . S
Zn684 O694 2.067 . S
Zn685 O686 1.962 . S
Zn685 O688 1.986 . S
Zn685 O690 1.996 . S
Zn685 O693 1.943 . S
O686 Zn685 1.962 . S
O686 C691 1.254 . S
O687 Zn684 2.031 . S
O687 C691 1.269 . S
O688 Zn685 1.986 . S
O688 C695 1.262 . S
O689 Zn684 2.049 . S
O689 C697 1.260 . S
O690 Zn685 1.996 . S
O690 C697 1.257 . S
C691 O686 1.254 . S
C691 O687 1.269 . S
C692 O693 1.249 . S
C692 O694 1.270 . S
O693 Zn685 1.943 . S
O693 C692 1.249 . S
O694 Zn684 2.067 . S
O694 C692 1.270 . S
C695 O688 1.262 . S
C695 O696 1.232 . S
O696 C695 1.232 . S
C697 O689 1.260 . S
C697 O690 1.257 . S
Zn698 O701 2.031 . S
Zn698 O703 2.049 . S
Zn698 O708 2.067 . S
Zn699 O700 1.962 . S
Zn699 O702 1.986 . S
Zn699 O704 1.996 . S
Zn699 O707 1.943 . S
O700 Zn699 1.962 . S
O700 C705 1.254 . S
O701 Zn698 2.031 . S
O701 C705 1.269 . S
O702 Zn699 1.986 . S
O702 C709 1.262 . S
O703 Zn698 2.049 . S
O703 C711 1.260 . S
O704 Zn699 1.996 . S
O704 C711 1.257 . S
C705 O700 1.254 . S
C705 O701 1.269 . S
C706 O707 1.249 . S
C706 O708 1.270 . S
O707 Zn699 1.943 . S
O707 C706 1.249 . S
O708 Zn698 2.067 . S
O708 C706 1.270 . S
C709 O702 1.262 . S
C709 O710 1.232 . S
O710 C709 1.232 . S
C711 O703 1.260 . S
C711 O704 1.257 . S
Zn712 O715 2.031 . S
Zn712 O717 2.049 . S
Zn712 O722 2.067 . S
Zn713 O714 1.962 . S
Zn713 O716 1.986 . S
Zn713 O718 1.996 . S
Zn713 O721 1.943 . S
O714 Zn713 1.962 . S
O714 C719 1.254 . S
O715 Zn712 2.031 . S
O715 C719 1.269 . S
O716 Zn713 1.986 . S
O716 C723 1.262 . S
O717 Zn712 2.049 . S
O717 C725 1.260 . S
O718 Zn713 1.996 . S
O718 C725 1.257 . S
C719 O714 1.254 . S
C719 O715 1.269 . S
C720 O721 1.249 . S
C720 O722 1.270 . S
O721 Zn713 1.943 . S
O721 C720 1.249 . S
O722 Zn712 2.067 . S
O722 C720 1.270 . S
C723 O716 1.262 . S
C723 O724 1.232 . S
O724 C723 1.232 . S
C725 O717 1.260 . S
C725 O718 1.257 . S
Zn726 O729 2.031 . S
Zn726 O731 2.049 . S
Zn726 O736 2.067 . S
Zn727 O728 1.962 . S
Zn727 O730 1.986 . S
Zn727 O732 1.996 . S
Zn727 O735 1.943 . S
O728 Zn727 1.962 . S
O728 C733 1.254 . S
O729 Zn726 2.031 . S
O729 C733 1.269 . S
O730 Zn727 1.986 . S
O730 C737 1.262 . S
O731 Zn726 2.049 . S
O731 C739 1.260 . S
O732 Zn727 1.996 . S
O732 C739 1.257 . S
C733 O728 1.254 . S
C733 O729 1.269 . S
C734 O735 1.249 . S
C734 O736 1.270 . S
O735 Zn727 1.943 . S
O735 C734 1.249 . S
O736 Zn726 2.067 . S
O736 C734 1.270 . S
C737 O730 1.262 . S
C737 O738 1.232 . S
O738 C737 1.232 . S
C739 O731 1.260 . S
C739 O732 1.257 . S
Zn740 O743 2.031 . S
Zn740 O745 2.049 . S
Zn740 O750 2.067 . S
Zn741 O742 1.962 . S
Zn741 O744 1.986 . S
Zn741 O746 1.996 . S
Zn741 O749 1.943 . S
O742 Zn741 1.962 . S
O742 C747 1.254 . S
O743 Zn740 2.031 . S
O743 C747 1.269 . S
O744 Zn741 1.986 . S
O744 C751 1.262 . S
O745 Zn740 2.049 . S
O745 C753 1.260 . S
O746 Zn741 1.996 . S
O746 C753 1.257 . S
C747 O742 1.254 . S
C747 O743 1.269 . S
C748 O749 1.249 . S
C748 O750 1.270 . S
O749 Zn741 1.943 . S
O749 C748 1.249 . S
O750 Zn740 2.067 . S
O750 C748 1.270 . S
C751 O744 1.262 . S
C751 O752 1.232 . S
O752 C751 1.232 . S
C753 O745 1.260 . S
C753 O746 1.257 . S
Zn754 O757 2.031 . S
Zn754 O759 2.049 . S
Zn754 O764 2.067 . S
Zn755 O756 1.962 . S
Zn755 O758 1.986 . S
Zn755 O760 1.996 . S
Zn755 O763 1.943 . S
O756 Zn755 1.962 . S
O756 C761 1.254 . S
O757 Zn754 2.031 . S
O757 C761 1.269 . S
O758 Zn755 1.986 . S
O758 C765 1.262 . S
O759 Zn754 2.049 . S
O759 C767 1.260 . S
O760 Zn755 1.996 . S
O760 C767 1.257 . S
C761 O756 1.254 . S
C761 O757 1.269 . S
C762 O763 1.249 . S
C762 O764 1.270 . S
O763 Zn755 1.943 . S
O763 C762 1.249 . S
O764 Zn754 2.067 . S
O764 C762 1.270 . S
C765 O758 1.262 . S
C765 O766 1.232 . S
O766 C765 1.232 . S
C767 O759 1.260 . S
C767 O760 1.257 . S
C768 C769 1.369 . S
C768 C770 1.419 . S
C768 H772 0.930 . S
C769 C768 1.369 . S
C769 C778 1.429 . S
C770 C768 1.419 . S
C770 C771 1.363 . S
C770 H773 0.929 . S
C771 C770 1.363 . S
C771 C777 1.428 . S
H772 C768 0.930 . S
H773 C770 0.929 . S
S774 N775 1.613 . S
S774 N776 1.610 . S
N775 S774 1.613 . S
N775 C778 1.350 . S
N776 S774 1.610 . S
N776 C777 1.351 . S
C777 C771 1.428 . S
C777 N776 1.351 . S
C777 C778 1.434 . S
C778 C769 1.429 . S
C778 N775 1.350 . S
C778 C777 1.434 . S
C779 C780 1.369 . S
C779 C781 1.419 . S
C779 H783 0.930 . S
C780 C779 1.369 . S
C780 C789 1.429 . S
C781 C779 1.419 . S
C781 C782 1.363 . S
C781 H784 0.929 . S
C782 C781 1.363 . S
C782 C788 1.428 . S
H783 C779 0.930 . S
H784 C781 0.929 . S
S785 N786 1.613 . S
S785 N787 1.610 . S
N786 S785 1.613 . S
N786 C789 1.350 . S
N787 S785 1.610 . S
N787 C788 1.351 . S
C788 C782 1.428 . S
C788 N787 1.351 . S
C788 C789 1.434 . S
C789 C780 1.429 . S
C789 N786 1.350 . S
C789 C788 1.434 . S
C790 C791 1.369 . S
C790 C792 1.419 . S
C790 H794 0.930 . S
C791 C790 1.369 . S
C791 C800 1.429 . S
C792 C790 1.419 . S
C792 C793 1.363 . S
C792 H795 0.929 . S
C793 C792 1.363 . S
C793 C799 1.428 . S
H794 C790 0.930 . S
H795 C792 0.929 . S
S796 N797 1.613 . S
S796 N798 1.610 . S
N797 S796 1.613 . S
N797 C800 1.350 . S
N798 S796 1.610 . S
N798 C799 1.351 . S
C799 C793 1.428 . S
C799 N798 1.351 . S
C799 C800 1.434 . S
C800 C791 1.429 . S
C800 N797 1.350 . S
C800 C799 1.434 . S
C801 C802 1.369 . S
C801 C803 1.419 . S
C801 H805 0.930 . S
C802 C801 1.369 . S
C802 C811 1.429 . S
C803 C801 1.419 . S
C803 C804 1.363 . S
C803 H806 0.929 . S
C804 C803 1.363 . S
C804 C810 1.428 . S
H805 C801 0.930 . S
H806 C803 0.929 . S
S807 N808 1.613 . S
S807 N809 1.610 . S
N808 S807 1.613 . S
N808 C811 1.350 . S
N809 S807 1.610 . S
N809 C810 1.351 . S
C810 C804 1.428 . S
C810 N809 1.351 . S
C810 C811 1.434 . S
C811 C802 1.429 . S
C811 N808 1.350 . S
C811 C810 1.434 . S
C812 C813 1.369 . S
C812 C814 1.419 . S
C812 H816 0.930 . S
C813 C812 1.369 . S
C813 C822 1.429 . S
C814 C812 1.419 . S
C814 C815 1.363 . S
C814 H817 0.929 . S
C815 C814 1.363 . S
C815 C821 1.428 . S
H816 C812 0.930 . S
H817 C814 0.929 . S
S818 N819 1.613 . S
S818 N820 1.610 . S
N819 S818 1.613 . S
N819 C822 1.350 . S
N820 S818 1.610 . S
N820 C821 1.351 . S
C821 C815 1.428 . S
C821 N820 1.351 . S
C821 C822 1.434 . S
C822 C813 1.429 . S
C822 N819 1.350 . S
C822 C821 1.434 . S
C823 C824 1.369 . S
C823 C825 1.419 . S
C823 H827 0.930 . S
C824 C823 1.369 . S
C824 C833 1.429 . S
C825 C823 1.419 . S
C825 C826 1.363 . S
C825 H828 0.929 . S
C826 C825 1.363 . S
C826 C832 1.428 . S
H827 C823 0.930 . S
H828 C825 0.929 . S
S829 N830 1.613 . S
S829 N831 1.610 . S
N830 S829 1.613 . S
N830 C833 1.350 . S
N831 S829 1.610 . S
N831 C832 1.351 . S
C832 C826 1.428 . S
C832 N831 1.351 . S
C832 C833 1.434 . S
C833 C824 1.429 . S
C833 N830 1.350 . S
C833 C832 1.434 . S
C834 C835 1.369 . S
C834 C836 1.419 . S
C834 H838 0.930 . S
C835 C834 1.369 . S
C835 C844 1.429 . S
C836 C834 1.419 . S
C836 C837 1.363 . S
C836 H839 0.929 . S
C837 C836 1.363 . S
C837 C843 1.428 . S
H838 C834 0.930 . S
H839 C836 0.929 . S
S840 N841 1.613 . S
S840 N842 1.610 . S
N841 S840 1.613 . S
N841 C844 1.350 . S
N842 S840 1.610 . S
N842 C843 1.351 . S
C843 C837 1.428 . S
C843 N842 1.351 . S
C843 C844 1.434 . S
C844 C835 1.429 . S
C844 N841 1.350 . S
C844 C843 1.434 . S
C845 C846 1.369 . S
C845 C847 1.419 . S
C845 H849 0.930 . S
C846 C845 1.369 . S
C846 C855 1.429 . S
C847 C845 1.419 . S
C847 C848 1.363 . S
C847 H850 0.929 . S
C848 C847 1.363 . S
C848 C854 1.428 . S
H849 C845 0.930 . S
H850 C847 0.929 . S
S851 N852 1.613 . S
S851 N853 1.610 . S
N852 S851 1.613 . S
N852 C855 1.350 . S
N853 S851 1.610 . S
N853 C854 1.351 . S
C854 C848 1.428 . S
C854 N853 1.351 . S
C854 C855 1.434 . S
C855 C846 1.429 . S
C855 N852 1.350 . S
C855 C854 1.434 . S
C856 C857 1.369 . S
C856 C858 1.419 . S
C856 H860 0.930 . S
C857 C856 1.369 . S
C857 C866 1.429 . S
C858 C856 1.419 . S
C858 C859 1.363 . S
C858 H861 0.929 . S
C859 C858 1.363 . S
C859 C865 1.428 . S
H860 C856 0.930 . S
H861 C858 0.929 . S
S862 N863 1.613 . S
S862 N864 1.610 . S
N863 S862 1.613 . S
N863 C866 1.350 . S
N864 S862 1.610 . S
N864 C865 1.351 . S
C865 C859 1.428 . S
C865 N864 1.351 . S
C865 C866 1.434 . S
C866 C857 1.429 . S
C866 N863 1.350 . S
C866 C865 1.434 . S
C867 C868 1.369 . S
C867 C869 1.419 . S
C867 H871 0.930 . S
C868 C867 1.369 . S
C868 C877 1.429 . S
C869 C867 1.419 . S
C869 C870 1.363 . S
C869 H872 0.929 . S
C870 C869 1.363 . S
C870 C876 1.428 . S
H871 C867 0.930 . S
H872 C869 0.929 . S
S873 N874 1.613 1_556 S
S873 N875 1.610 1_556 S
N874 S873 1.613 1_554 S
N874 C877 1.350 . S
N875 S873 1.610 1_554 S
N875 C876 1.351 . S
C876 C870 1.428 . S
C876 N875 1.351 . S
C876 C877 1.434 . S
C877 C868 1.429 . S
C877 N874 1.350 . S
C877 C876 1.434 . S
C878 C879 1.369 . S
C878 C880 1.419 . S
C878 H882 0.930 . S
C879 C878 1.369 . S
C879 C888 1.429 . S
C880 C878 1.419 . S
C880 C881 1.363 . S
C880 H883 0.929 . S
C881 C880 1.363 . S
C881 C887 1.428 . S
H882 C878 0.930 . S
H883 C880 0.929 . S
S884 N885 1.613 . S
S884 N886 1.610 . S
N885 S884 1.613 . S
N885 C888 1.350 . S
N886 S884 1.610 . S
N886 C887 1.351 . S
C887 C881 1.428 . S
C887 N886 1.351 . S
C887 C888 1.434 . S
C888 C879 1.429 . S
C888 N885 1.350 . S
C888 C887 1.434 . S
C889 C890 1.369 . S
C889 C891 1.419 . S
C889 H893 0.930 . S
C890 C889 1.369 . S
C890 C899 1.429 . S
C891 C889 1.419 . S
C891 C892 1.363 . S
C891 H894 0.929 . S
C892 C891 1.363 . S
C892 C898 1.428 . S
H893 C889 0.930 . S
H894 C891 0.929 . S
S895 N896 1.613 . S
S895 N897 1.610 . S
N896 S895 1.613 . S
N896 C899 1.350 . S
N897 S895 1.610 . S
N897 C898 1.351 . S
C898 C892 1.428 . S
C898 N897 1.351 . S
C898 C899 1.434 . S
C899 C890 1.429 . S
C899 N896 1.350 . S
C899 C898 1.434 . S
C900 C901 1.369 . S
C900 C902 1.419 . S
C900 H904 0.930 . S
C901 C900 1.369 . S
C901 C910 1.429 . S
C902 C900 1.419 . S
C902 C903 1.363 . S
C902 H905 0.929 . S
C903 C902 1.363 . S
C903 C909 1.428 . S
H904 C900 0.930 . S
H905 C902 0.929 . S
S906 N907 1.613 . S
S906 N908 1.610 . S
N907 S906 1.613 . S
N907 C910 1.350 . S
N908 S906 1.610 . S
N908 C909 1.351 . S
C909 C903 1.428 . S
C909 N908 1.351 . S
C909 C910 1.434 . S
C910 C901 1.429 . S
C910 N907 1.350 . S
C910 C909 1.434 . S
C911 C912 1.369 . S
C911 C913 1.419 . S
C911 H915 0.930 . S
C912 C911 1.369 . S
C912 C921 1.429 . S
C913 C911 1.419 . S
C913 C914 1.363 . S
C913 H916 0.929 . S
C914 C913 1.363 . S
C914 C920 1.428 . S
H915 C911 0.930 . S
H916 C913 0.929 . S
S917 N918 1.613 . S
S917 N919 1.610 . S
N918 S917 1.613 . S
N918 C921 1.350 . S
N919 S917 1.610 . S
N919 C920 1.351 . S
C920 C914 1.428 . S
C920 N919 1.351 . S
C920 C921 1.434 . S
C921 C912 1.429 . S
C921 N918 1.350 . S
C921 C920 1.434 . S
C922 C923 1.369 . S
C922 C924 1.419 . S
C922 H926 0.930 . S
C923 C922 1.369 . S
C923 C932 1.429 . S
C924 C922 1.419 . S
C924 C925 1.363 . S
C924 H927 0.929 . S
C925 C924 1.363 . S
C925 C931 1.428 . S
H926 C922 0.930 . S
H927 C924 0.929 . S
S928 N929 1.613 . S
S928 N930 1.610 . S
N929 S928 1.613 . S
N929 C932 1.350 . S
N930 S928 1.610 . S
N930 C931 1.351 . S
C931 C925 1.428 . S
C931 N930 1.351 . S
C931 C932 1.434 . S
C932 C923 1.429 . S
C932 N929 1.350 . S
C932 C931 1.434 . S
C933 C934 1.369 . S
C933 C935 1.419 1_556 S
C933 H937 0.930 . S
C934 C933 1.369 . S
C934 C943 1.429 . S
C935 C933 1.419 1_554 S
C935 C936 1.363 . S
C935 H938 0.929 . S
C936 C935 1.363 . S
C936 C942 1.410 1_554 S
H937 C933 0.930 . S
H938 C935 0.929 . S
S939 N940 1.613 . S
S939 N941 1.610 1_556 S
N940 S939 1.613 . S
N940 C943 1.350 . S
N941 S939 1.610 1_554 S
N941 C942 1.348 1_554 S
C942 C936 1.410 1_556 S
C942 N941 1.348 1_556 S
C942 C943 1.458 . S
C943 C934 1.429 . S
C943 N940 1.350 . S
C943 C942 1.458 . S
C944 C945 1.369 . S
C944 C946 1.419 . S
C944 H948 0.930 . S
C945 C944 1.369 . S
C945 C954 1.429 . S
C946 C944 1.419 . S
C946 C947 1.363 . S
C946 H949 0.929 . S
C947 C946 1.363 . S
C947 C953 1.428 . S
H948 C944 0.930 . S
H949 C946 0.929 . S
S950 N951 1.613 . S
S950 N952 1.610 . S
N951 S950 1.613 . S
N951 C954 1.350 . S
N952 S950 1.610 . S
N952 C953 1.351 . S
C953 C947 1.428 . S
C953 N952 1.351 . S
C953 C954 1.434 . S
C954 C945 1.429 . S
C954 N951 1.350 . S
C954 C953 1.434 . S
C955 C956 1.369 . S
C955 C957 1.419 . S
C955 H959 0.930 . S
C956 C955 1.369 . S
C956 C965 1.429 . S
C957 C955 1.419 . S
C957 C958 1.363 . S
C957 H960 0.929 . S
C958 C957 1.363 . S
C958 C964 1.428 . S
H959 C955 0.930 . S
H960 C957 0.929 . S
S961 N962 1.613 . S
S961 N963 1.610 . S
N962 S961 1.613 . S
N962 C965 1.350 . S
N963 S961 1.610 . S
N963 C964 1.351 . S
C964 C958 1.428 . S
C964 N963 1.351 . S
C964 C965 1.434 . S
C965 C956 1.429 . S
C965 N962 1.350 . S
C965 C964 1.434 . S
C966 C967 1.369 . S
C966 C968 1.419 . S
C966 H970 0.930 . S
C967 C966 1.369 . S
C967 C976 1.429 . S
C968 C966 1.419 . S
C968 C969 1.363 . S
C968 H971 0.929 . S
C969 C968 1.363 . S
C969 C975 1.428 . S
H970 C966 0.930 . S
H971 C968 0.929 . S
S972 N973 1.613 . S
S972 N974 1.610 . S
N973 S972 1.613 . S
N973 C976 1.350 . S
N974 S972 1.610 . S
N974 C975 1.351 . S
C975 C969 1.428 . S
C975 N974 1.351 . S
C975 C976 1.434 . S
C976 C967 1.429 . S
C976 N973 1.350 . S
C976 C975 1.434 . S
C977 C978 1.369 . S
C977 C979 1.419 . S
C977 H981 0.930 . S
C978 C977 1.369 . S
C978 C987 1.429 . S
C979 C977 1.419 . S
C979 C980 1.363 . S
C979 H982 0.929 . S
C980 C979 1.363 . S
C980 C986 1.428 . S
H981 C977 0.930 . S
H982 C979 0.929 . S
S983 N984 1.613 . S
S983 N985 1.610 . S
N984 S983 1.613 . S
N984 C987 1.350 . S
N985 S983 1.610 . S
N985 C986 1.351 . S
C986 C980 1.428 . S
C986 N985 1.351 . S
C986 C987 1.434 . S
C987 C978 1.429 . S
C987 N984 1.350 . S
C987 C986 1.434 . S
C988 C989 1.369 . S
C988 C990 1.419 . S
C988 H992 0.930 . S
C989 C988 1.369 . S
C989 C998 1.429 . S
C990 C988 1.419 . S
C990 C991 1.363 . S
C990 H993 0.929 . S
C991 C990 1.363 . S
C991 C997 1.428 . S
H992 C988 0.930 . S
H993 C990 0.929 . S
S994 N995 1.613 . S
S994 N996 1.610 . S
N995 S994 1.613 . S
N995 C998 1.350 . S
N996 S994 1.610 . S
N996 C997 1.351 . S
C997 C991 1.428 . S
C997 N996 1.351 . S
C997 C998 1.434 . S
C998 C989 1.429 . S
C998 N995 1.350 . S
C998 C997 1.434 . S
C999 C1000 1.369 . S
C999 C1001 1.419 . S
C999 H1003 0.930 . S
C1000 C999 1.369 . S
C1000 C1009 1.429 . S
C1001 C999 1.419 . S
C1001 C1002 1.363 . S
C1001 H1004 0.929 . S
C1002 C1001 1.363 . S
C1002 C1008 1.428 . S
H1003 C999 0.930 . S
H1004 C1001 0.929 . S
S1005 N1006 1.613 . S
S1005 N1007 1.610 . S
N1006 S1005 1.613 . S
N1006 C1009 1.350 . S
N1007 S1005 1.610 . S
N1007 C1008 1.351 . S
C1008 C1002 1.428 . S
C1008 N1007 1.351 . S
C1008 C1009 1.434 . S
C1009 C1000 1.429 . S
C1009 N1006 1.350 . S
C1009 C1008 1.434 . S
C1010 C1011 1.369 1_556 S
C1010 C1012 1.419 . S
C1010 H1014 0.930 1_556 S
C1011 C1010 1.369 1_554 S
C1011 C1020 1.429 . S
C1012 C1010 1.419 . S
C1012 C1013 1.363 . S
C1012 H1015 0.929 . S
C1013 C1012 1.363 . S
C1013 C1019 1.428 . S
H1014 C1010 0.930 1_554 S
H1015 C1012 0.929 . S
S1016 N1017 1.613 . S
S1016 N1018 1.610 1_554 S
N1017 S1016 1.613 . S
N1017 C1020 1.350 . S
N1018 S1016 1.610 1_556 S
N1018 C1019 1.351 . S
C1019 C1013 1.428 . S
C1019 N1018 1.351 . S
C1019 C1020 1.434 1_556 S
C1020 C1011 1.429 . S
C1020 N1017 1.350 . S
C1020 C1019 1.434 1_554 S
C1021 C1022 1.369 . S
C1021 C1023 1.419 . S
C1021 H1025 0.930 . S
C1022 C1021 1.369 . S
C1022 C1031 1.429 . S
C1023 C1021 1.419 . S
C1023 C1024 1.363 . S
C1023 H1026 0.929 . S
C1024 C1023 1.363 . S
C1024 C1030 1.428 . S
H1025 C1021 0.930 . S
H1026 C1023 0.929 . S
S1027 N1028 1.613 . S
S1027 N1029 1.610 . S
N1028 S1027 1.613 . S
N1028 C1031 1.350 . S
N1029 S1027 1.610 . S
N1029 C1030 1.351 . S
C1030 C1024 1.428 . S
C1030 N1029 1.351 . S
C1030 C1031 1.434 . S
C1031 C1022 1.429 . S
C1031 N1028 1.350 . S
C1031 C1030 1.434 . S
C771 C761 1.714 . S
C769 C1 1.263 . S
C780 C169 1.546 . S
C782 C695 1.689 . S
C791 C283 1.546 . S
C793 C709 1.646 . S
C802 C397 1.482 . S
C804 C723 1.594 . S
C815 C737 1.621 . S
C813 C457 1.237 . S
C824 C571 1.127 . S
C826 C747 1.612 . S
C835 C115 1.258 . S
C837 C705 1.743 . S
C846 C229 1.302 . S
C848 C719 1.763 . S
C857 C343 1.215 . S
C859 C733 1.674 . S
C870 C751 1.699 . S
C868 C511 1.642 . S
C881 C765 1.729 . S
C879 C625 1.576 . S
C892 C691 1.804 . S
C890 C55 1.558 . S
C901 C29 1.204 . S
C903 C706 1.410 . S
C912 C125 0.980 . S
C914 C720 1.563 . S
C925 C734 1.501 . S
C923 C239 0.939 . S
C934 C353 0.883 . S
C936 C753 1.403 . S
C947 C767 1.323 . S
C945 C485 1.059 . S
C958 C692 1.373 . S
C956 C599 1.151 . S
C969 C762 1.393 . S
C967 C143 1.197 . S
C978 C257 1.080 . S
C980 C697 1.327 . S
C991 C711 1.264 . S
C989 C371 1.043 . S
C1000 C467 0.909 . S
C1002 C725 1.380 . S
C1011 C581 0.890 . S
C1013 C739 1.441 . S
C1022 C11 0.885 . S
C1024 C748 1.490 . S
