# Generated by pormake.
# Topology anh, (6,3)-cn, num edge types: 1
# Building blocks:
#     Node 0, Type 0, BuildingBlock: HISSIN_clean_sbu_0, # of connection points: 6
#     Node 1, Type 0, BuildingBlock: HISSIN_clean_sbu_0, # of connection points: 6
#     Node 2, Type 0, BuildingBlock: HISSIN_clean_sbu_0, # of connection points: 6
#     Node 3, Type 1, BuildingBlock: BELTOD_clean_linker_0, # of connection points: 3
#     Node 4, Type 1, BuildingBlock: BELTOD_clean_linker_0, # of connection points: 3
#     Node 5, Type 1, BuildingBlock: BELTOD_clean_linker_0, # of connection points: 3
#     Node 6, Type 1, BuildingBlock: BELTOD_clean_linker_0, # of connection points: 3
#     Node 7, Type 1, BuildingBlock: BELTOD_clean_linker_0, # of connection points: 3
#     Node 8, Type 1, BuildingBlock: BELTOD_clean_linker_0, # of connection points: 3
#     Edge 9, Type (0, 1), BuildingBlock: OJICUG_clean_linker_0, # of connection points: 2
#     Edge 10, Type (0, 1), BuildingBlock: OJICUG_clean_linker_0, # of connection points: 2
#     Edge 11, Type (0, 1), BuildingBlock: OJICUG_clean_linker_0, # of connection points: 2
#     Edge 12, Type (0, 1), BuildingBlock: OJICUG_clean_linker_0, # of connection points: 2
#     Edge 13, Type (0, 1), BuildingBlock: OJICUG_clean_linker_0, # of connection points: 2
#     Edge 14, Type (0, 1), BuildingBlock: OJICUG_clean_linker_0, # of connection points: 2
#     Edge 15, Type (0, 1), BuildingBlock: OJICUG_clean_linker_0, # of connection points: 2
#     Edge 16, Type (0, 1), BuildingBlock: OJICUG_clean_linker_0, # of connection points: 2
#     Edge 17, Type (0, 1), BuildingBlock: OJICUG_clean_linker_0, # of connection points: 2
#     Edge 18, Type (0, 1), BuildingBlock: OJICUG_clean_linker_0, # of connection points: 2
#     Edge 19, Type (0, 1), BuildingBlock: OJICUG_clean_linker_0, # of connection points: 2
#     Edge 20, Type (0, 1), BuildingBlock: OJICUG_clean_linker_0, # of connection points: 2
#     Edge 21, Type (0, 1), BuildingBlock: OJICUG_clean_linker_0, # of connection points: 2
#     Edge 22, Type (0, 1), BuildingBlock: OJICUG_clean_linker_0, # of connection points: 2
#     Edge 23, Type (0, 1), BuildingBlock: OJICUG_clean_linker_0, # of connection points: 2
#     Edge 24, Type (0, 1), BuildingBlock: OJICUG_clean_linker_0, # of connection points: 2
#     Edge 25, Type (0, 1), BuildingBlock: OJICUG_clean_linker_0, # of connection points: 2
#     Edge 26, Type (0, 1), BuildingBlock: OJICUG_clean_linker_0, # of connection points: 2
# Relax obj value: 0.323
# Max RMSD: 0.195
# Mean RMSD: 0.158
data_MOF--net-anh--node1-HISSIN_clean_sbu_0--node2-BELTOD_clean_linker_0--edge1-OJICUG_clean_linker_0
_symmetry_space_group_name_H-M    P1
_symmetry_Int_Tables_number       1
_symmetry_cell_setting            triclinic
loop_
_symmetry_equiv_pos_as_xyz
'x, y, z'
_cell_length_a     25.842273
_cell_length_b     25.627753
_cell_length_c     47.254562
_cell_angle_alpha  92.113331
_cell_angle_beta   88.589082
_cell_angle_gamma 120.27191
loop_
_atom_site_label
_atom_site_type_symbol
_atom_site_fract_x
_atom_site_fract_y
_atom_site_fract_z
_atom_type_partial_charge
Eu0 Eu 1.07152 0.55188 0.13844 0.0
Eu1 Eu 0.14704 0.68702 0.16574 0.0
C2 C 1.08109 0.57579 0.20604 0.0
C3 C 0.94701 0.42482 0.09901 0.0
C4 C 0.90441 0.36357 0.10101 0.0
C5 C 0.86846 0.44564 0.0869 0.0
C6 C 0.84372 0.34419 0.09811 0.0
C7 C 0.92921 0.4651 0.09008 0.0
C8 C 0.82471 0.38617 0.09356 0.0
C9 C 1.00563 0.44824 0.11233 0.0
O10 O 0.21305 0.65221 0.16599 0.0
O11 O 0.16663 0.57047 0.13519 0.0
C12 C 0.21397 0.60964 0.14974 0.0
O13 O 1.08581 0.62019 0.10531 0.0
O14 O 0.20256 0.75113 0.19883 0.0
O15 O 0.18084 0.78335 0.16164 0.0
O16 O 0.17761 0.68861 0.12136 0.0
C17 C 1.13845 0.668 0.10118 0.0
O18 O 1.00042 0.57432 0.15198 0.0
O19 O 1.05787 0.6776 0.15233 0.0
O20 O 1.08933 0.62929 0.20079 0.0
O21 O 1.05071 0.49421 0.10033 0.0
O22 O 1.00523 0.45584 0.13978 0.0
O23 O 1.08382 0.54127 0.1853 0.0
C24 C 0.27971 0.83636 0.17733 0.0
C25 C 0.30948 0.8125 0.16097 0.0
C26 C 0.37325 0.93071 0.18289 0.0
C27 C 0.37102 0.84694 0.15617 0.0
C28 C 0.31162 0.89586 0.18795 0.0
C29 C 0.40359 0.90615 0.16734 0.0
C30 C 0.2158 0.79776 0.18352 0.0
C31 C 1.00489 0.62766 0.15168 0.0
H32 H 0.91738 0.33184 0.10776 0.0
H33 H 0.85577 0.47885 0.08249 0.0
H34 H 0.81211 0.29779 0.10319 0.0
H35 H 0.96162 0.51277 0.08823 0.0
H36 H 0.28525 0.76675 0.15232 0.0
H37 H 0.39759 0.97606 0.19207 0.0
H38 H 0.39327 0.8271 0.14406 0.0
H39 H 0.2892 0.91488 0.20054 0.0
Eu40 Eu 0.59617 0.9816 0.48357 0.0
Eu41 Eu 0.52074 1.05088 0.49742 0.0
C42 C 0.57744 1.01617 0.54699 0.0
C43 C 0.67497 0.88571 0.46337 0.0
C44 C 0.63405 0.82365 0.4649 0.0
C45 C 0.75527 0.8649 0.45376 0.0
C46 C 0.65442 0.78245 0.46209 0.0
C47 C 0.73469 0.90566 0.45603 0.0
C48 C 0.71613 0.80316 0.45862 0.0
C49 C 0.66065 0.93111 0.4743 0.0
O50 O 0.61875 0.12782 0.49852 0.0
O51 O 0.66569 1.07958 0.47815 0.0
C52 C 0.66664 0.12914 0.48713 0.0
O53 O 0.5606 0.98844 0.44185 0.0
O54 O 0.48427 1.0862 0.52976 0.0
O55 O 0.47103 1.09523 0.48565 0.0
O56 O 0.5553 1.07308 0.453 0.0
C57 C 0.56099 1.03733 0.43426 0.0
O58 O 0.49938 0.90539 0.48721 0.0
O59 O 0.4485 0.95702 0.48275 0.0
O60 O 0.5279 1.01192 0.53812 0.0
O61 O 0.66067 0.96992 0.45724 0.0
O62 O 0.62351 0.91814 0.49568 0.0
O63 O 0.61687 1.01735 0.52872 0.0
C64 C 0.50513 0.18119 0.51661 0.0
C65 C 0.54882 0.21825 0.49688 0.0
C66 C 0.55615 0.25883 0.55317 0.0
C67 C 0.59763 0.27328 0.5057 0.0
C68 C 0.50688 0.204 0.54428 0.0
C69 C 0.60378 0.29178 0.53434 0.0
C70 C 0.47183 0.11522 0.51157 0.0
C71 C 0.4493 0.90597 0.48305 0.0
H72 H 0.58745 0.80744 0.47021 0.0
H73 H 0.80301 0.88314 0.45113 0.0
H74 H 0.62261 0.73498 0.46496 0.0
H75 H 0.7668 0.95356 0.45467 0.0
H76 H 0.54876 0.20227 0.47533 0.0
H77 H 0.55943 0.27236 0.57534 0.0
H78 H 0.63282 0.29915 0.49056 0.0
H79 H 0.47382 0.17622 0.55988 0.0
Eu80 Eu 0.59174 0.54672 0.81765 0.0
Eu81 Eu 0.73074 0.61821 0.83617 0.0
C82 C 0.62908 0.57975 0.88336 0.0
C83 C 0.44372 0.52879 0.81909 0.0
C84 C 0.41919 0.51242 0.84648 0.0
C85 C 0.44042 0.62162 0.82491 0.0
C86 C 0.40968 0.55249 0.8636 0.0
C87 C 0.4493 0.58141 0.80771 0.0
C88 C 0.42424 0.60898 0.85341 0.0
C89 C 0.47936 0.50304 0.80652 0.0
O90 O 0.70404 0.51835 0.83652 0.0
O91 O 0.61627 0.47421 0.81108 0.0
C92 C 0.66034 0.47128 0.82283 0.0
O93 O 0.64772 0.58229 0.77734 0.0
O94 O 0.80666 0.62922 0.86072 0.0
O95 O 0.81607 0.70134 0.83443 0.0
O96 O 0.73335 0.58665 0.79214 0.0
C97 C 0.70012 0.58698 0.77189 0.0
O98 O 0.6137 0.6422 0.82934 0.0
O99 O 0.71147 0.68614 0.81633 0.0
O100 O 0.68101 0.62291 0.87466 0.0
O101 O 0.52227 0.53811 0.78931 0.0
O102 O 0.49781 0.4781 0.82425 0.0
O103 O 0.59164 0.53802 0.86545 0.0
C104 C 0.90367 0.69627 0.84166 0.0
C105 C 0.93175 0.73102 0.81771 0.0
C106 C 0.99825 0.70659 0.85516 0.0
C107 C 0.99321 0.75552 0.81325 0.0
C108 C 0.93701 0.68252 0.85973 0.0
C109 C 1.02737 0.74533 0.83254 0.0
C110 C 0.84307 0.68228 0.85045 0.0
C111 C 0.66317 0.68996 0.82104 0.0
H112 H 0.41342 0.47176 0.85576 0.0
H113 H 0.45053 0.66461 0.81655 0.0
H114 H 0.39626 0.54169 0.88549 0.0
H115 H 0.46692 0.59494 0.78653 0.0
H116 H 0.90712 0.74224 0.80327 0.0
H117 H 1.02347 0.69853 0.87065 0.0
H118 H 1.01452 0.78485 0.79556 0.0
H119 H 0.91652 0.65626 0.87841 0.0
P120 P 0.75673 0.21958 0.24267 0.0
H121 H 0.76149 0.2003 0.18165 0.0
H122 H 0.69066 0.11446 0.15215 0.0
H123 H 0.62656 1.00453 0.22618 0.0
H124 H 0.69592 1.08965 0.25535 0.0
H125 H 0.81276 0.34717 0.22869 0.0
H126 H 0.78795 0.39516 0.19247 0.0
H127 H 0.6146 0.23353 0.18189 0.0
H128 H 0.64044 0.1856 0.21825 0.0
H129 H 0.79603 0.1843 0.29183 0.0
H130 H 0.64727 0.2065 0.26984 0.0
O131 O 0.83142 0.258 0.24387 0.0
H132 H 0.74544 0.13854 0.33625 0.0
H133 H 0.59655 0.16039 0.31376 0.0
C134 C 0.73188 0.1522 0.22086 0.0
C135 C 0.73414 0.1569 0.19131 0.0
C136 C 0.69365 0.10787 0.17443 0.0
C137 C 0.65189 1.0535 0.18703 0.0
C138 C 0.65777 1.04603 0.21586 0.0
C139 C 0.69739 1.09527 0.23273 0.0
C140 C 0.72929 0.26242 0.22551 0.0
C141 C 0.76849 0.32293 0.21946 0.0
C142 C 0.75365 0.35054 0.19878 0.0
C143 C 0.69952 0.31759 0.18362 0.0
C144 C 0.6569 0.25981 0.19278 0.0
C145 C 0.67176 0.23239 0.2136 0.0
C146 C 0.72585 0.19948 0.27767 0.0
C147 C 0.75319 0.1806 0.29683 0.0
C148 C 0.72387 0.15365 0.32194 0.0
C149 C 0.6668 0.14536 0.32822 0.0
C150 C 0.64059 0.16645 0.30948 0.0
C151 C 0.66976 0.19298 0.28432 0.0
P152 P 0.93722 0.67988 0.58697 0.0
H153 H 0.9475 0.60185 0.54326 0.0
H154 H 0.87282 0.49659 0.53318 0.0
H155 H 0.80931 0.47904 0.61964 0.0
H156 H 0.88312 0.58386 0.62951 0.0
H157 H 0.97312 0.78282 0.54999 0.0
H158 H 0.92027 0.79872 0.51179 0.0
H159 H 0.77616 0.61385 0.51772 0.0
H160 H 0.8272 0.59899 0.55618 0.0
H161 H 0.97723 0.71847 0.64525 0.0
H162 H 0.81758 0.66482 0.59701 0.0
O163 O 1.01138 0.7256 0.5873 0.0
H164 H 0.91948 0.70241 0.68907 0.0
H165 H 0.75989 0.64711 0.64032 0.0
C166 C 0.91802 0.6018 0.58649 0.0
C167 C 0.91981 0.57452 0.56049 0.0
C168 C 0.87668 0.5142 0.55469 0.0
C169 C 0.83315 0.48094 0.57527 0.0
C170 C 0.84065 0.5048 0.60305 0.0
C171 C 0.88324 0.56504 0.60869 0.0
C172 C 0.90478 0.68955 0.55566 0.0
C173 C 0.93089 0.74542 0.54255 0.0
C174 C 0.90091 0.75423 0.5206 0.0
C175 C 0.84424 0.7073 0.51176 0.0
C176 C 0.81979 0.65067 0.52405 0.0
C177 C 0.84945 0.64208 0.54593 0.0
C178 C 0.90209 0.69293 0.61773 0.0
C179 C 0.93046 0.70555 0.64401 0.0
C180 C 0.89711 0.69538 0.66903 0.0
C181 C 0.83476 0.67201 0.6681 0.0
C182 C 0.80772 0.66505 0.6418 0.0
C183 C 0.84107 0.67528 0.61685 0.0
P184 P 0.3859 0.94012 0.94411 0.0
H185 H 0.49016 0.95273 0.91247 0.0
H186 H 0.51007 0.87346 0.89566 0.0
H187 H 0.38765 0.75449 0.95881 0.0
H188 H 0.36563 0.83193 0.97431 0.0
H189 H 0.31286 0.98732 0.92364 0.0
H190 H 0.23996 0.95107 0.88558 0.0
H191 H 0.31162 0.84163 0.85123 0.0
H192 H 0.37976 0.87329 0.89016 0.0
H193 H 0.38112 0.9586 0.00522 0.0
H194 H 0.26055 0.84317 0.93951 0.0
O195 O 0.43315 1.01261 0.95249 0.0
H196 H 0.30972 0.89494 0.04099 0.0
H197 H 0.18803 0.78083 0.97502 0.0
C198 C 0.42396 0.89736 0.94346 0.0
C199 C 0.46949 0.91042 0.92344 0.0
C200 C 0.48066 0.86474 0.91379 0.0
C201 C 0.44786 0.80648 0.92495 0.0
C202 C 0.41112 0.79783 0.94874 0.0
C203 C 0.3988 0.84273 0.95777 0.0
C204 C 0.35186 0.93307 0.91022 0.0
C205 C 0.31426 0.95716 0.90736 0.0
C206 C 0.27269 0.93652 0.88538 0.0
C207 C 0.26896 0.89215 0.86567 0.0
C208 C 0.3122 0.87452 0.86649 0.0
C209 C 0.35229 0.89365 0.88888 0.0
C210 C 0.32589 0.90663 0.9697 0.0
C211 C 0.33817 0.92125 -0.0015 0.0
C212 C 0.29712 0.88456 0.01893 0.0
C213 C 0.24305 0.83242 0.01088 0.0
C214 C 0.22943 0.82013 0.98196 0.0
C215 C 0.27065 0.85658 0.96158 0.0
P216 P 1.07519 0.49206 0.42161 0.0
H217 H 0.17544 0.52278 0.45973 0.0
H218 H 0.25883 0.61809 0.4769 0.0
H219 H 0.17874 0.71339 0.44108 0.0
H220 H 1.09327 0.61667 0.42544 0.0
H221 H 1.04236 0.41762 0.47155 0.0
H222 H 0.94696 0.33842 0.49021 0.0
H223 H 0.85281 0.38048 0.42906 0.0
H224 H 0.94885 0.46149 0.41125 0.0
H225 H 0.14843 0.59374 0.38391 0.0
H226 H 0.99359 0.41508 0.37585 0.0
O227 O 1.10733 0.44955 0.41993 0.0
H228 H 1.14445 0.60837 0.33383 0.0
H229 H 0.99037 0.42933 0.32493 0.0
C230 C 1.12831 0.56208 0.44053 0.0
C231 C 0.17501 0.56397 0.45596 0.0
C232 C 0.22364 0.61921 0.46549 0.0
C233 C 0.22768 0.67478 0.45965 0.0
C234 C 0.17827 0.67229 0.44606 0.0
C235 C 1.12891 0.61662 0.437 0.0
C236 C 1.00343 0.44516 0.43955 0.0
C237 C 1.00123 0.41083 0.46251 0.0
C238 C 0.94625 0.36471 0.47297 0.0
C239 C 0.89142 0.35122 0.46076 0.0
C240 C 0.89362 0.38884 0.43908 0.0
C241 C 0.9489 0.43534 0.4287 0.0
C242 C 1.06853 0.50491 0.38453 0.0
C243 C 1.11197 0.55831 0.3718 0.0
C244 C 1.1103 0.56639 0.34281 0.0
C245 C 1.06639 0.52048 0.3254 0.0
C246 C 1.0244 0.46584 0.33779 0.0
C247 C 1.02565 0.4581 0.36704 0.0
P248 P 0.69555 1.09416 0.76093 0.0
H249 H 0.76024 0.18962 0.80396 0.0
H250 H 0.74935 0.2735 0.82238 0.0
H251 H 0.58317 0.20206 0.77652 0.0
H252 H 0.59228 0.11567 0.76045 0.0
H253 H 0.76511 1.06923 0.8008 0.0
H254 H 0.75506 0.9758 0.81764 0.0
H255 H 0.58138 0.87448 0.77814 0.0
H256 H 0.59093 0.96898 0.76247 0.0
H257 H 0.66318 0.15733 0.71975 0.0
H258 H 0.67368 0.99472 0.72077 0.0
O259 O 0.76973 0.13245 0.7562 0.0
H260 H 0.63171 0.13551 0.67046 0.0
H261 H 0.64315 0.97333 0.6713 0.0
C262 C 0.67812 0.14693 0.77999 0.0
C263 C 0.72073 0.1913 0.79837 0.0
C264 C 0.71484 0.2403 0.80855 0.0
C265 C 0.66643 0.24713 0.80033 0.0
C266 C 0.62143 0.19975 0.78356 0.0
C267 C 0.62673 0.14989 0.77402 0.0
C268 C 0.67943 1.02645 0.77974 0.0
C269 C 0.72423 1.0271 0.79622 0.0
C270 C 0.71871 0.97311 0.80556 0.0
C271 C 0.6682 0.91656 0.7986 0.0
C272 C 0.62118 0.91659 0.78396 0.0
C273 C 0.62655 0.97092 0.77489 0.0
C274 C 0.66651 1.07537 0.72502 0.0
C275 C 0.65635 0.11559 0.70993 0.0
C276 C 0.63903 0.10348 0.68147 0.0
C277 C 0.63384 1.05208 0.66704 0.0
C278 C 0.64609 1.01298 0.68185 0.0
C279 C 0.66263 1.02475 0.7104 0.0
P280 P 0.58547 0.55818 0.10332 0.0
H281 H 0.63532 0.5607 0.15874 0.0
H282 H 0.73544 0.58431 0.17312 0.0
H283 H 0.80522 0.65804 0.09107 0.0
H284 H 0.70554 0.63442 0.07688 0.0
H285 H 0.46932 0.48299 0.13084 0.0
H286 H 0.38644 0.49793 0.14397 0.0
H287 H 0.49198 0.68556 0.1222 0.0
H288 H 0.57677 0.67058 0.10966 0.0
H289 H 0.55708 0.46794 0.05714 0.0
H290 H 0.61287 0.65729 0.06481 0.0
O291 O 0.5603 0.4857 0.11004 0.0
H292 H 0.56085 0.47348 0.00579 0.0
H293 H 0.61533 0.66283 0.01319 0.0
C294 C 0.66208 0.59619 0.11679 0.0
C295 C 0.67247 0.58395 0.14416 0.0
C296 C 0.72988 0.59672 0.15223 0.0
C297 C 0.77884 0.62254 0.13319 0.0
C298 C 0.76911 0.6386 0.10646 0.0
C299 C 0.71154 0.62519 0.09831 0.0
C300 C 0.53007 0.57549 0.11901 0.0
C301 C 0.47578 0.5279 0.12929 0.0
C302 C 0.42756 0.53634 0.13657 0.0
C303 C 0.43145 0.59267 0.13364 0.0
C304 C 0.48696 0.64142 0.12474 0.0
C305 C 0.53565 0.63286 0.11744 0.0
C306 C 0.58451 0.56222 0.06508 0.0
C307 C 0.56937 0.51068 0.04788 0.0
C308 C 0.57109 0.51374 0.01833 0.0
C309 C 0.58829 0.56855 0.00519 0.0
C310 C 0.60237 0.61993 0.02251 0.0
C311 C 0.60048 0.61675 0.05212 0.0
C312 C 0.32639 0.65318 0.15614 0.0
C313 C 0.27016 0.60599 0.14671 0.0
H314 H 0.42118 0.68663 0.15937 0.0
C315 C 0.26816 0.55527 0.13302 0.0
H316 H 0.33005 0.69324 0.16656 0.0
C317 C 0.32013 0.55152 0.12893 0.0
C318 C 0.37646 0.59842 0.13825 0.0
H319 H 0.22615 0.51805 0.12526 0.0
H320 H 0.31611 0.51183 0.11794 0.0
C321 C 0.37886 0.64961 0.1518 0.0
C322 C 0.77897 0.1893 0.48234 0.0
C323 C 0.72378 0.18784 0.48283 0.0
H324 H 0.87355 0.24025 0.47502 0.0
C325 C 0.72405 0.24124 0.47657 0.0
H326 H 0.78068 0.14898 0.48668 0.0
C327 C 0.77801 0.29448 0.46988 0.0
C328 C 0.83337 0.29581 0.46926 0.0
H329 H 0.68229 0.24136 0.47603 0.0
H330 H 0.77621 0.33453 0.46512 0.0
C331 C 0.83265 0.24219 0.4758 0.0
C332 C 0.71826 0.8009 0.80968 0.0
C333 C 0.66422 0.74795 0.81597 0.0
H334 H 0.76192 0.89402 0.79891 0.0
C335 C 0.61124 0.7509 0.8167 0.0
H336 H 0.76002 0.80058 0.80865 0.0
C337 C 0.61228 0.80522 0.81154 0.0
C338 C 0.66645 0.85839 0.80521 0.0
H339 H 0.56868 0.7109 0.82094 0.0
H340 H 0.57048 0.80539 0.81265 0.0
C341 C 0.71935 0.85503 0.80434 0.0
C342 C 0.94775 0.67883 0.13674 0.0
C343 C 0.94832 0.63003 0.1492 0.0
H344 H 0.89448 0.71494 0.12171 0.0
C345 C 0.89308 0.58076 0.15768 0.0
H346 H 0.98926 0.71738 0.12978 0.0
C347 C 0.839 0.57985 0.15353 0.0
C348 C 0.83787 0.62739 0.14009 0.0
H349 H 0.89143 0.54223 0.16731 0.0
H350 H 0.79765 0.54058 0.15997 0.0
C351 C 0.89325 0.67723 0.13195 0.0
C352 C 0.39361 0.79345 0.47188 0.0
C353 C 0.39223 0.84695 0.47786 0.0
H354 H 0.34491 0.69928 0.4607 0.0
C355 C 0.33593 0.8433 0.4782 0.0
H356 H 0.43587 0.79414 0.47108 0.0
C357 C 0.28281 0.78794 0.47277 0.0
C358 C 0.28414 0.7343 0.4665 0.0
H359 H 0.33273 0.8833 0.48281 0.0
H360 H 0.24065 0.78737 0.47372 0.0
C361 C 0.34077 0.73841 0.46611 0.0
C362 C 0.60859 0.35805 0.81466 0.0
C363 C 0.66174 0.41363 0.81925 0.0
H364 H 0.56749 0.26275 0.80667 0.0
C365 C 0.71619 0.41372 0.81878 0.0
H366 H 0.56569 0.35602 0.81507 0.0
C367 C 0.71762 0.36019 0.81295 0.0
C368 C 0.66445 0.30419 0.80805 0.0
H369 H 0.75811 0.45569 0.82187 0.0
H370 H 0.76103 0.36359 0.81148 0.0
C371 C 0.60981 0.30424 0.80952 0.0
C372 C 0.79727 0.77583 0.45544 0.0
C373 C 0.74156 0.76492 0.46642 0.0
H374 H 0.87436 0.76663 0.46149 0.0
C375 C 0.71628 0.72598 0.48931 0.0
H376 H 0.81746 0.80421 0.43737 0.0
C377 C 0.74829 0.7037 0.5026 0.0
C378 C 0.80653 0.72009 0.49354 0.0
H379 H 0.67408 0.71686 0.49878 0.0
H380 H 0.72924 0.67768 0.52148 0.0
C381 C 0.82989 0.75432 0.46916 0.0
C382 C 1.12197 0.8451 0.83024 0.0
C383 C 1.09353 0.78193 0.83223 0.0
H384 H 0.20125 0.93027 0.83856 0.0
C385 C 1.12757 0.75575 0.83934 0.0
H386 H 1.09679 0.8666 0.82478 0.0
C387 C 0.18693 0.79212 0.84767 0.0
C388 C 0.2136 0.85554 0.84886 0.0
H389 H 1.10691 0.70714 0.84065 0.0
H390 H 0.20974 0.77006 0.85564 0.0
C391 C 0.18162 0.88164 0.83845 0.0
C392 C 0.49946 1.00202 0.15861 0.0
C393 C 0.46963 0.9406 0.16507 0.0
H394 H 0.58193 1.08595 0.15972 0.0
C395 C 0.50325 0.91412 0.17278 0.0
H396 H 0.47455 1.0232 0.15222 0.0
C397 C 0.56496 0.94995 0.17694 0.0
C398 C 0.59385 1.0126 0.17323 0.0
H399 H 0.48124 0.86673 0.17784 0.0
H400 H 0.58919 0.92957 0.18519 0.0
C401 C 0.56113 1.03769 0.16249 0.0
C402 C 0.71532 0.34113 0.53631 0.0
C403 C 0.66241 0.34011 0.54513 0.0
H404 H 0.81098 0.38566 0.53927 0.0
C405 C 0.66595 0.38332 0.56523 0.0
H406 H 0.71364 0.30711 0.52157 0.0
C407 C 0.72146 0.42754 0.57578 0.0
C408 C 0.77454 0.42925 0.56653 0.0
H409 H 0.62596 0.38362 0.5724 0.0
H410 H 0.72292 0.46171 0.59047 0.0
C411 C 0.77091 0.38547 0.54674 0.0
C412 C 0.38142 0.65194 0.8887 0.0
C413 C 0.43057 0.65757 0.87313 0.0
H414 H 0.34811 0.69511 0.91692 0.0
C415 C 0.48677 0.71013 0.87646 0.0
H416 H 0.33782 0.61154 0.88649 0.0
C417 C 0.49339 0.7576 0.89434 0.0
C418 C 0.44372 0.75339 0.90914 0.0
H419 H 0.52563 0.71445 0.86521 0.0
H420 H 0.53715 0.79782 0.89625 0.0
C421 C 0.38777 0.69962 0.90637 0.0
C422 C 0.7628 0.41624 0.1234 0.0
C423 C 0.76497 0.37296 0.10486 0.0
H424 H 0.73522 0.43125 0.16444 0.0
C425 C 0.71865 0.31253 0.10693 0.0
H426 H 0.79513 0.46385 0.12179 0.0
C427 C 0.68531 0.29373 0.13201 0.0
C428 C 0.69713 0.33598 0.15441 0.0
H429 H 0.71596 0.27836 0.09187 0.0
H430 H 0.65896 0.24562 0.13539 0.0
C431 C 0.72839 0.39758 0.14815 0.0
C432 C 0.17229 0.76796 0.08146 0.0
C433 C 0.15161 0.70621 0.07663 0.0
H434 H 0.21514 0.85607 0.0642 0.0
C435 C 0.15336 0.68471 0.04918 0.0
H436 H 0.17098 0.78532 0.10256 0.0
C437 C 0.18004 0.7255 0.02722 0.0
C438 C 0.20468 0.78817 0.03246 0.0
H439 H 1.1382 0.63727 0.04517 0.0
H440 H 0.18485 0.70827 0.00665 0.0
C441 C 0.19801 0.80846 0.05956 0.0
C442 C 0.57874 0.1106 0.39676 0.0
C443 C 0.5793 1.05886 0.40522 0.0
H444 H 0.60669 0.17892 0.3659 0.0
C445 C 0.60501 1.03322 0.38714 0.0
H446 H 0.55931 0.13148 0.41023 0.0
C447 C 0.6325 1.06075 0.36183 0.0
C448 C 0.63434 0.11405 0.35407 0.0
H449 H 0.60633 0.99349 0.39308 0.0
H450 H 0.65315 1.04086 0.34853 0.0
C451 C 0.6059 0.13785 0.3714 0.0
C452 C 0.77518 0.59126 0.73692 0.0
C453 C 0.72768 0.60155 0.74344 0.0
H454 H 0.84564 0.60515 0.70818 0.0
C455 C 0.71345 0.63309 0.72434 0.0
H456 H 0.78695 0.56666 0.75112 0.0
C457 C 0.74805 0.65621 0.69974 0.0
C458 C 0.79729 0.64808 0.69395 0.0
H459 H 0.6775 0.64226 0.72902 0.0
H460 H 0.73734 0.68184 0.6857 0.0
C461 C 0.80944 0.61412 0.7125 0.0
C462 C 0.55691 1.03757 0.5971 0.0
C463 C 0.59016 1.02259 0.57785 0.0
H464 H 0.54474 1.05882 0.64021 0.0
C465 C 0.63705 1.01612 0.5883 0.0
H466 H 0.52068 1.04323 0.5898 0.0
C467 C 0.65051 1.02463 0.61725 0.0
C468 C 0.61796 1.04067 0.63641 0.0
H469 H 0.66362 1.0047 0.5741 0.0
H470 H 0.68737 1.02002 0.62456 0.0
C471 C 0.57092 1.04691 0.62598 0.0
C472 C 0.56443 0.52826 0.92602 0.0
C473 C 0.61492 0.57791 0.91418 0.0
H474 H 0.51587 0.48648 0.96395 0.0
C475 C 0.65428 0.62564 0.93241 0.0
H476 H 0.53306 0.49085 0.91264 0.0
C477 C 0.64459 0.62313 0.96167 0.0
C478 C 0.59524 0.5728 0.9737 0.0
H479 H 0.6936 0.66481 0.92416 0.0
H480 H 0.67715 0.65992 0.97494 0.0
C481 C 0.5548 0.52566 0.95546 0.0
C482 C 1.06451 0.50189 0.24456 0.0
C483 C 1.07235 0.55765 0.23625 0.0
H484 H 1.05591 0.44589 0.27935 0.0
C485 C 1.07451 0.59871 0.25752 0.0
H486 H 1.06254 0.46915 0.22882 0.0
C487 C 1.07114 0.58565 0.28614 0.0
C488 C 1.06501 0.5309 0.2946 0.0
H489 H 1.0801 0.64201 0.25219 0.0
H490 H 1.07387 0.61893 0.30178 0.0
C491 C 1.06051 0.48849 0.27349 0.0
loop_
_geom_bond_atom_site_label_1
_geom_bond_atom_site_label_2
_geom_bond_distance
_geom_bond_site_symmetry_2
_ccdc_geom_bond_type
Eu0 C9 2.828 . S
Eu0 O11 2.392 1_655 S
Eu0 O13 2.418 . S
Eu0 O18 2.373 . S
Eu0 O21 2.488 . S
Eu0 O22 2.471 . S
Eu0 O23 2.349 . S
Eu1 O10 2.373 . S
Eu1 O14 2.488 . S
Eu1 O15 2.471 . S
Eu1 O16 2.349 . S
Eu1 O19 2.392 1_455 S
Eu1 O20 2.418 . S
Eu1 C30 2.828 . S
C2 O20 1.244 . S
C2 O23 1.265 1_455 S
C3 C4 1.379 . S
C3 C7 1.373 . S
C3 C9 1.505 . S
C4 C3 1.379 . S
C4 C6 1.369 . S
C4 H32 0.930 . S
C5 C7 1.383 . S
C5 C8 1.382 . S
C5 H33 0.930 . S
C6 C4 1.369 . S
C6 C8 1.392 . S
C6 H34 0.930 . S
C7 C3 1.373 . S
C7 C5 1.383 . S
C7 H35 0.931 . S
C8 C5 1.382 . S
C8 C6 1.392 . S
C9 Eu0 2.828 . S
C9 C3 1.505 . S
C9 O21 1.249 . S
C9 O22 1.244 . S
O10 Eu1 2.373 . S
O10 C12 1.258 . S
O11 Eu0 2.392 1_455 S
O11 C12 1.242 . S
C12 O10 1.258 . S
C12 O11 1.242 . S
O13 Eu0 2.418 . S
O13 C17 1.244 . S
O14 Eu1 2.488 . S
O14 C30 1.249 . S
O15 Eu1 2.471 . S
O15 C30 1.244 . S
O16 Eu1 2.349 . S
O16 C17 1.265 1_455 S
C17 O13 1.244 . S
C17 O16 1.265 1_655 S
O18 Eu0 2.373 . S
O18 C31 1.258 . S
O19 Eu1 2.392 1_655 S
O19 C31 1.242 . S
O20 Eu1 2.418 . S
O20 C2 1.244 . S
O21 Eu0 2.488 . S
O21 C9 1.249 . S
O22 Eu0 2.471 . S
O22 C9 1.244 . S
O23 Eu0 2.349 . S
O23 C2 1.265 1_655 S
C24 C25 1.379 . S
C24 C28 1.373 . S
C24 C30 1.505 . S
C25 C24 1.379 . S
C25 C27 1.369 . S
C25 H36 0.930 . S
C26 C28 1.383 . S
C26 C29 1.382 . S
C26 H37 0.930 . S
C27 C25 1.369 . S
C27 C29 1.392 . S
C27 H38 0.930 . S
C28 C24 1.373 . S
C28 C26 1.383 . S
C28 H39 0.931 . S
C29 C26 1.382 . S
C29 C27 1.392 . S
C30 Eu1 2.828 . S
C30 O14 1.249 . S
C30 O15 1.244 . S
C30 C24 1.505 . S
C31 O18 1.258 . S
C31 O19 1.242 . S
H32 C4 0.930 . S
H33 C5 0.930 . S
H34 C6 0.930 . S
H35 C7 0.931 . S
H36 C25 0.930 . S
H37 C26 0.930 . S
H38 C27 0.930 . S
H39 C28 0.931 . S
Eu40 C49 2.828 . S
Eu40 O51 2.392 1_565 S
Eu40 O53 2.418 . S
Eu40 O58 2.373 . S
Eu40 O61 2.488 . S
Eu40 O62 2.471 . S
Eu40 O63 2.349 . S
Eu41 O50 2.373 . S
Eu41 O54 2.488 . S
Eu41 O55 2.471 . S
Eu41 O56 2.349 . S
Eu41 O59 2.392 1_545 S
Eu41 O60 2.418 . S
Eu41 C70 2.828 . S
C42 O60 1.244 . S
C42 O63 1.265 1_545 S
C43 C44 1.379 . S
C43 C47 1.373 . S
C43 C49 1.505 . S
C44 C43 1.379 . S
C44 C46 1.369 . S
C44 H72 0.930 . S
C45 C47 1.383 . S
C45 C48 1.382 . S
C45 H73 0.930 . S
C46 C44 1.369 . S
C46 C48 1.392 . S
C46 H74 0.930 . S
C47 C43 1.373 . S
C47 C45 1.383 . S
C47 H75 0.931 . S
C48 C45 1.382 . S
C48 C46 1.392 . S
C49 Eu40 2.828 . S
C49 C43 1.505 . S
C49 O61 1.249 . S
C49 O62 1.244 . S
O50 Eu41 2.373 . S
O50 C52 1.258 . S
O51 Eu40 2.392 1_545 S
O51 C52 1.242 . S
C52 O50 1.258 . S
C52 O51 1.242 . S
O53 Eu40 2.418 . S
O53 C57 1.244 1_565 S
O54 Eu41 2.488 . S
O54 C70 1.249 . S
O55 Eu41 2.471 . S
O55 C70 1.244 . S
O56 Eu41 2.349 . S
O56 C57 1.265 . S
C57 O53 1.244 1_545 S
C57 O56 1.265 . S
O58 Eu40 2.373 . S
O58 C71 1.258 . S
O59 Eu41 2.392 1_565 S
O59 C71 1.242 . S
O60 Eu41 2.418 . S
O60 C42 1.244 . S
O61 Eu40 2.488 . S
O61 C49 1.249 . S
O62 Eu40 2.471 . S
O62 C49 1.244 . S
O63 Eu40 2.349 . S
O63 C42 1.265 1_565 S
C64 C65 1.379 . S
C64 C68 1.373 . S
C64 C70 1.505 . S
C65 C64 1.379 . S
C65 C67 1.369 . S
C65 H76 0.930 . S
C66 C68 1.383 . S
C66 C69 1.382 . S
C66 H77 0.930 . S
C67 C65 1.369 . S
C67 C69 1.392 . S
C67 H78 0.930 . S
C68 C64 1.373 . S
C68 C66 1.383 . S
C68 H79 0.931 . S
C69 C66 1.382 . S
C69 C67 1.392 . S
C70 Eu41 2.828 . S
C70 O54 1.249 . S
C70 O55 1.244 . S
C70 C64 1.505 . S
C71 O58 1.258 . S
C71 O59 1.242 . S
H72 C44 0.930 . S
H73 C45 0.930 . S
H74 C46 0.930 . S
H75 C47 0.931 . S
H76 C65 0.930 . S
H77 C66 0.930 . S
H78 C67 0.930 . S
H79 C68 0.931 . S
Eu80 C89 2.828 . S
Eu80 O91 2.392 . S
Eu80 O93 2.418 . S
Eu80 O98 2.373 . S
Eu80 O101 2.488 . S
Eu80 O102 2.471 . S
Eu80 O103 2.349 . S
Eu81 O90 2.373 . S
Eu81 O94 2.488 . S
Eu81 O95 2.471 . S
Eu81 O96 2.349 . S
Eu81 O99 2.392 . S
Eu81 O100 2.418 . S
Eu81 C110 2.828 . S
C82 O100 1.244 . S
C82 O103 1.265 . S
C83 C84 1.379 . S
C83 C87 1.373 . S
C83 C89 1.505 . S
C84 C83 1.379 . S
C84 C86 1.369 . S
C84 H112 0.930 . S
C85 C87 1.383 . S
C85 C88 1.382 . S
C85 H113 0.930 . S
C86 C84 1.369 . S
C86 C88 1.392 . S
C86 H114 0.930 . S
C87 C83 1.373 . S
C87 C85 1.383 . S
C87 H115 0.931 . S
C88 C85 1.382 . S
C88 C86 1.392 . S
C89 Eu80 2.828 . S
C89 C83 1.505 . S
C89 O101 1.249 . S
C89 O102 1.244 . S
O90 Eu81 2.373 . S
O90 C92 1.258 . S
O91 Eu80 2.392 . S
O91 C92 1.242 . S
C92 O90 1.258 . S
C92 O91 1.242 . S
O93 Eu80 2.418 . S
O93 C97 1.244 . S
O94 Eu81 2.488 . S
O94 C110 1.249 . S
O95 Eu81 2.471 . S
O95 C110 1.244 . S
O96 Eu81 2.349 . S
O96 C97 1.265 . S
C97 O93 1.244 . S
C97 O96 1.265 . S
O98 Eu80 2.373 . S
O98 C111 1.258 . S
O99 Eu81 2.392 . S
O99 C111 1.242 . S
O100 Eu81 2.418 . S
O100 C82 1.244 . S
O101 Eu80 2.488 . S
O101 C89 1.249 . S
O102 Eu80 2.471 . S
O102 C89 1.244 . S
O103 Eu80 2.349 . S
O103 C82 1.265 . S
C104 C105 1.379 . S
C104 C108 1.373 . S
C104 C110 1.505 . S
C105 C104 1.379 . S
C105 C107 1.369 . S
C105 H116 0.930 . S
C106 C108 1.383 . S
C106 C109 1.382 . S
C106 H117 0.930 . S
C107 C105 1.369 . S
C107 C109 1.392 . S
C107 H118 0.930 . S
C108 C104 1.373 . S
C108 C106 1.383 . S
C108 H119 0.931 . S
C109 C106 1.382 . S
C109 C107 1.392 . S
C110 Eu81 2.828 . S
C110 O94 1.249 . S
C110 O95 1.244 . S
C110 C104 1.505 . S
C111 O98 1.258 . S
C111 O99 1.242 . S
H112 C84 0.930 . S
H113 C85 0.930 . S
H114 C86 0.930 . S
H115 C87 0.931 . S
H116 C105 0.930 . S
H117 C106 0.930 . S
H118 C107 0.930 . S
H119 C108 0.931 . S
P120 O131 1.490 . S
P120 C134 1.812 . S
P120 C140 1.803 1_565 S
P120 C146 1.819 1_565 S
H121 C135 0.941 . S
H122 C136 0.939 . S
H123 C138 0.940 . S
H124 C139 0.940 . S
H125 C141 0.939 . S
H126 C142 0.942 . S
H127 C144 0.940 . S
H128 C145 0.939 . S
H129 C147 0.941 . S
H130 C151 0.939 . S
O131 P120 1.490 . S
H132 C148 0.939 . S
H133 C150 0.940 . S
C134 P120 1.812 . S
C134 C135 1.389 . S
C134 C139 1.391 . S
C135 H121 0.941 . S
C135 C134 1.389 . S
C135 C136 1.397 . S
C136 H122 0.939 . S
C136 C135 1.397 . S
C136 C137 1.378 . S
C137 C136 1.378 . S
C137 C138 1.378 . S
C138 H123 0.940 . S
C138 C137 1.378 . S
C138 C139 1.396 . S
C139 H124 0.940 . S
C139 C134 1.391 . S
C139 C138 1.396 . S
C140 P120 1.803 1_545 S
C140 C141 1.378 . S
C140 C145 1.400 . S
C141 H125 0.939 . S
C141 C140 1.378 . S
C141 C142 1.361 . S
C142 H126 0.942 . S
C142 C141 1.361 . S
C142 C143 1.369 . S
C143 C142 1.369 . S
C143 C144 1.404 . S
C144 H127 0.940 . S
C144 C143 1.404 . S
C144 C145 1.389 . S
C145 H128 0.939 . S
C145 C140 1.400 . S
C145 C144 1.389 . S
C146 P120 1.819 1_545 S
C146 C147 1.391 1_545 S
C146 C151 1.391 . S
C147 H129 0.941 . S
C147 C146 1.391 1_565 S
C147 C148 1.396 . S
C148 H132 0.939 . S
C148 C147 1.396 . S
C148 C149 1.397 1_565 S
C149 C148 1.397 1_545 S
C149 C150 1.385 . S
C150 H133 0.940 . S
C150 C149 1.385 . S
C150 C151 1.388 . S
C151 H130 0.939 . S
C151 C146 1.391 . S
C151 C150 1.388 . S
P152 O163 1.490 . S
P152 C166 1.812 . S
P152 C172 1.803 . S
P152 C178 1.819 . S
H153 C167 0.941 . S
H154 C168 0.939 . S
H155 C170 0.940 . S
H156 C171 0.940 . S
H157 C173 0.939 . S
H158 C174 0.942 . S
H159 C176 0.940 . S
H160 C177 0.939 . S
H161 C179 0.941 . S
H162 C183 0.939 . S
O163 P152 1.490 . S
H164 C180 0.939 . S
H165 C182 0.940 . S
C166 P152 1.812 . S
C166 C167 1.389 . S
C166 C171 1.391 . S
C167 H153 0.941 . S
C167 C166 1.389 . S
C167 C168 1.397 . S
C168 H154 0.939 . S
C168 C167 1.397 . S
C168 C169 1.378 . S
C169 C168 1.378 . S
C169 C170 1.378 . S
C170 H155 0.940 . S
C170 C169 1.378 . S
C170 C171 1.396 . S
C171 H156 0.940 . S
C171 C166 1.391 . S
C171 C170 1.396 . S
C172 P152 1.803 . S
C172 C173 1.378 . S
C172 C177 1.400 . S
C173 H157 0.939 . S
C173 C172 1.378 . S
C173 C174 1.361 . S
C174 H158 0.942 . S
C174 C173 1.361 . S
C174 C175 1.369 . S
C175 C174 1.369 . S
C175 C176 1.404 . S
C176 H159 0.940 . S
C176 C175 1.404 . S
C176 C177 1.389 . S
C177 H160 0.939 . S
C177 C172 1.400 . S
C177 C176 1.389 . S
C178 P152 1.819 . S
C178 C179 1.391 . S
C178 C183 1.391 . S
C179 H161 0.941 . S
C179 C178 1.391 . S
C179 C180 1.396 . S
C180 H164 0.939 . S
C180 C179 1.396 . S
C180 C181 1.397 . S
C181 C180 1.397 . S
C181 C182 1.385 . S
C182 H165 0.940 . S
C182 C181 1.385 . S
C182 C183 1.388 . S
C183 H162 0.939 . S
C183 C178 1.391 . S
C183 C182 1.388 . S
P184 O195 1.490 . S
P184 C198 1.812 . S
P184 C204 1.803 . S
P184 C210 1.819 . S
H185 C199 0.941 . S
H186 C200 0.939 . S
H187 C202 0.940 . S
H188 C203 0.940 . S
H189 C205 0.939 1_455 S
H190 C206 0.942 . S
H191 C208 0.940 . S
H192 C209 0.923 1_455 S
H193 C211 0.941 . S
H194 C215 0.939 1_655 S
O195 P184 1.490 . S
H196 C212 0.939 . S
H197 C214 0.940 1_655 S
C198 P184 1.812 . S
C198 C199 1.389 . S
C198 C203 1.391 . S
C199 H185 0.941 . S
C199 C198 1.389 . S
C199 C200 1.397 . S
C200 H186 0.939 . S
C200 C199 1.397 . S
C200 C201 1.378 . S
C201 C200 1.378 . S
C201 C202 1.378 . S
C202 H187 0.940 . S
C202 C201 1.378 . S
C202 C203 1.396 . S
C203 H188 0.940 . S
C203 C198 1.391 . S
C203 C202 1.396 . S
C204 P184 1.803 . S
C204 C205 1.378 1_455 S
C204 C209 1.400 1_455 S
C205 H189 0.939 1_655 S
C205 C204 1.378 1_655 S
C205 C206 1.361 . S
C206 H190 0.942 . S
C206 C205 1.361 . S
C206 C207 1.369 . S
C207 C206 1.369 . S
C207 C208 1.404 . S
C208 H191 0.940 . S
C208 C207 1.404 . S
C208 C209 1.389 . S
C209 H192 0.923 1_655 S
C209 C204 1.400 1_655 S
C209 C208 1.389 . S
C210 P184 1.819 . S
C210 C211 1.391 . S
C210 C215 1.391 . S
C211 H193 0.941 . S
C211 C210 1.391 . S
C211 C212 1.396 1_556 S
C212 H196 0.939 . S
C212 C211 1.396 1_554 S
C212 C213 1.397 . S
C213 C212 1.397 . S
C213 C214 1.385 1_554 S
C214 H197 0.940 1_455 S
C214 C213 1.385 1_556 S
C214 C215 1.388 . S
C215 H194 0.939 1_455 S
C215 C210 1.391 . S
C215 C214 1.388 . S
P216 O227 1.490 . S
P216 C230 1.812 . S
P216 C236 1.803 1_455 S
P216 C242 1.819 . S
H217 C231 0.941 . S
H218 C232 0.939 . S
H219 C234 0.940 . S
H220 C235 0.940 . S
H221 C237 0.939 . S
H222 C238 0.942 . S
H223 C240 0.940 . S
H224 C241 0.939 . S
H225 C243 0.941 . S
H226 C247 0.939 . S
O227 P216 1.490 . S
H228 C244 0.939 . S
H229 C246 0.940 . S
C230 P216 1.812 . S
C230 C231 1.389 . S
C230 C235 1.391 . S
C231 H217 0.941 . S
C231 C230 1.389 . S
C231 C232 1.397 . S
C232 H218 0.939 . S
C232 C231 1.397 . S
C232 C233 1.378 . S
C233 C232 1.378 . S
C233 C234 1.378 . S
C234 H219 0.940 . S
C234 C233 1.378 . S
C234 C235 1.396 . S
C235 H220 0.940 . S
C235 C230 1.391 . S
C235 C234 1.396 . S
C236 P216 1.803 1_655 S
C236 C237 1.378 . S
C236 C241 1.400 . S
C237 H221 0.939 . S
C237 C236 1.378 . S
C237 C238 1.361 . S
C238 H222 0.942 . S
C238 C237 1.361 . S
C238 C239 1.369 . S
C239 C238 1.369 . S
C239 C240 1.404 . S
C240 H223 0.940 . S
C240 C239 1.404 . S
C240 C241 1.389 . S
C241 H224 0.939 . S
C241 C236 1.400 . S
C241 C240 1.389 . S
C242 P216 1.819 . S
C242 C243 1.391 . S
C242 C247 1.391 1_455 S
C243 H225 0.941 . S
C243 C242 1.391 . S
C243 C244 1.396 . S
C244 H228 0.939 . S
C244 C243 1.396 . S
C244 C245 1.397 . S
C245 C244 1.397 . S
C245 C246 1.385 1_455 S
C246 H229 0.940 . S
C246 C245 1.385 1_655 S
C246 C247 1.388 . S
C247 H226 0.939 . S
C247 C242 1.391 1_655 S
C247 C246 1.388 . S
P248 O259 1.490 . S
P248 C262 1.812 . S
P248 C268 1.803 1_545 S
P248 C274 1.819 . S
H249 C263 0.941 . S
H250 C264 0.939 . S
H251 C266 0.940 . S
H252 C267 0.940 . S
H253 C269 0.939 . S
H254 C270 0.942 . S
H255 C272 0.940 . S
H256 C273 0.939 . S
H257 C275 0.941 . S
H258 C279 0.939 . S
O259 P248 1.490 . S
H260 C276 0.939 . S
H261 C278 0.940 . S
C262 P248 1.812 . S
C262 C263 1.389 . S
C262 C267 1.391 . S
C263 H249 0.941 . S
C263 C262 1.389 . S
C263 C264 1.397 . S
C264 H250 0.939 . S
C264 C263 1.397 . S
C264 C265 1.378 . S
C265 C264 1.378 . S
C265 C266 1.378 . S
C266 H251 0.940 . S
C266 C265 1.378 . S
C266 C267 1.396 . S
C267 H252 0.940 . S
C267 C262 1.391 . S
C267 C266 1.396 . S
C268 P248 1.803 1_565 S
C268 C269 1.378 . S
C268 C273 1.400 . S
C269 H253 0.939 . S
C269 C268 1.378 . S
C269 C270 1.361 . S
C270 H254 0.942 . S
C270 C269 1.361 . S
C270 C271 1.369 . S
C271 C270 1.369 . S
C271 C272 1.404 . S
C272 H255 0.940 . S
C272 C271 1.404 . S
C272 C273 1.389 . S
C273 H256 0.939 . S
C273 C268 1.400 . S
C273 C272 1.389 . S
C274 P248 1.819 . S
C274 C275 1.391 . S
C274 C279 1.391 1_545 S
C275 H257 0.941 . S
C275 C274 1.391 . S
C275 C276 1.396 . S
C276 H260 0.939 . S
C276 C275 1.396 . S
C276 C277 1.397 . S
C277 C276 1.397 . S
C277 C278 1.385 1_545 S
C278 H261 0.940 . S
C278 C277 1.385 1_565 S
C278 C279 1.388 . S
C279 H258 0.939 . S
C279 C274 1.391 1_565 S
C279 C278 1.388 . S
P280 O291 1.490 . S
P280 C294 1.812 . S
P280 C300 1.803 . S
P280 C306 1.819 . S
H281 C295 0.941 . S
H282 C296 0.939 . S
H283 C298 0.940 . S
H284 C299 0.940 . S
H285 C301 0.939 . S
H286 C302 0.942 . S
H287 C304 0.940 . S
H288 C305 0.939 . S
H289 C307 0.941 . S
H290 C311 0.939 . S
O291 P280 1.490 . S
H292 C308 0.939 . S
H293 C310 0.940 . S
C294 P280 1.812 . S
C294 C295 1.389 . S
C294 C299 1.391 . S
C295 H281 0.941 . S
C295 C294 1.389 . S
C295 C296 1.397 . S
C296 H282 0.939 . S
C296 C295 1.397 . S
C296 C297 1.378 . S
C297 C296 1.378 . S
C297 C298 1.378 . S
C298 H283 0.940 . S
C298 C297 1.378 . S
C298 C299 1.396 . S
C299 H284 0.940 . S
C299 C294 1.391 . S
C299 C298 1.396 . S
C300 P280 1.803 . S
C300 C301 1.378 . S
C300 C305 1.400 . S
C301 H285 0.939 . S
C301 C300 1.378 . S
C301 C302 1.361 . S
C302 H286 0.942 . S
C302 C301 1.361 . S
C302 C303 1.369 . S
C303 C302 1.369 . S
C303 C304 1.404 . S
C304 H287 0.940 . S
C304 C303 1.404 . S
C304 C305 1.389 . S
C305 H288 0.939 . S
C305 C300 1.400 . S
C305 C304 1.389 . S
C306 P280 1.819 . S
C306 C307 1.391 . S
C306 C311 1.391 . S
C307 H289 0.941 . S
C307 C306 1.391 . S
C307 C308 1.396 . S
C308 H292 0.939 . S
C308 C307 1.396 . S
C308 C309 1.397 . S
C309 C308 1.397 . S
C309 C310 1.385 . S
C310 H293 0.940 . S
C310 C309 1.385 . S
C310 C311 1.388 . S
C311 H290 0.939 . S
C311 C306 1.391 . S
C311 C310 1.388 . S
C312 C313 1.387 . S
C312 H316 0.950 . S
C312 C321 1.390 . S
C313 C312 1.387 . S
C313 C315 1.387 . S
H314 C321 0.950 . S
C315 C313 1.387 . S
C315 C317 1.390 . S
C315 H319 0.950 . S
H316 C312 0.950 . S
C317 C315 1.390 . S
C317 C318 1.387 . S
C317 H320 0.950 . S
C318 C317 1.387 . S
C318 C321 1.387 . S
H319 C315 0.950 . S
H320 C317 0.950 . S
C321 C312 1.390 . S
C321 H314 0.950 . S
C321 C318 1.387 . S
C322 C323 1.387 . S
C322 H326 0.950 . S
C322 C331 1.390 . S
C323 C322 1.387 . S
C323 C325 1.387 . S
H324 C331 0.950 . S
C325 C323 1.387 . S
C325 C327 1.390 . S
C325 H329 0.950 . S
H326 C322 0.950 . S
C327 C325 1.390 . S
C327 C328 1.387 . S
C327 H330 0.950 . S
C328 C327 1.387 . S
C328 C331 1.387 . S
H329 C325 0.950 . S
H330 C327 0.950 . S
C331 C322 1.390 . S
C331 H324 0.950 . S
C331 C328 1.387 . S
C332 C333 1.387 . S
C332 H336 0.950 . S
C332 C341 1.390 . S
C333 C332 1.387 . S
C333 C335 1.387 . S
H334 C341 0.950 . S
C335 C333 1.387 . S
C335 C337 1.390 . S
C335 H339 0.950 . S
H336 C332 0.950 . S
C337 C335 1.390 . S
C337 C338 1.387 . S
C337 H340 0.950 . S
C338 C337 1.387 . S
C338 C341 1.387 . S
H339 C335 0.950 . S
H340 C337 0.950 . S
C341 C332 1.390 . S
C341 H334 0.950 . S
C341 C338 1.387 . S
C342 C343 1.387 . S
C342 H346 0.950 . S
C342 C351 1.390 . S
C343 C342 1.387 . S
C343 C345 1.387 . S
H344 C351 0.950 . S
C345 C343 1.387 . S
C345 C347 1.390 . S
C345 H349 0.950 . S
H346 C342 0.950 . S
C347 C345 1.390 . S
C347 C348 1.387 . S
C347 H350 0.950 . S
C348 C347 1.387 . S
C348 C351 1.387 . S
H349 C345 0.950 . S
H350 C347 0.950 . S
C351 C342 1.390 . S
C351 H344 0.950 . S
C351 C348 1.387 . S
C352 C353 1.387 . S
C352 H356 0.950 . S
C352 C361 1.390 . S
C353 C352 1.387 . S
C353 C355 1.387 . S
H354 C361 0.950 . S
C355 C353 1.387 . S
C355 C357 1.390 . S
C355 H359 0.950 . S
H356 C352 0.950 . S
C357 C355 1.390 . S
C357 C358 1.387 . S
C357 H360 0.950 . S
C358 C357 1.387 . S
C358 C361 1.387 . S
H359 C355 0.950 . S
H360 C357 0.950 . S
C361 C352 1.390 . S
C361 H354 0.950 . S
C361 C358 1.387 . S
C362 C363 1.387 . S
C362 H366 0.950 . S
C362 C371 1.390 . S
C363 C362 1.387 . S
C363 C365 1.387 . S
H364 C371 0.950 . S
C365 C363 1.387 . S
C365 C367 1.390 . S
C365 H369 0.950 . S
H366 C362 0.950 . S
C367 C365 1.390 . S
C367 C368 1.387 . S
C367 H370 0.950 . S
C368 C367 1.387 . S
C368 C371 1.387 . S
H369 C365 0.950 . S
H370 C367 0.950 . S
C371 C362 1.390 . S
C371 H364 0.950 . S
C371 C368 1.387 . S
C372 C373 1.387 . S
C372 H376 0.950 . S
C372 C381 1.390 . S
C373 C372 1.387 . S
C373 C375 1.387 . S
H374 C381 0.950 . S
C375 C373 1.387 . S
C375 C377 1.390 . S
C375 H379 0.950 . S
H376 C372 0.950 . S
C377 C375 1.390 . S
C377 C378 1.387 . S
C377 H380 0.950 . S
C378 C377 1.387 . S
C378 C381 1.387 . S
H379 C375 0.950 . S
H380 C377 0.950 . S
C381 C372 1.390 . S
C381 H374 0.950 . S
C381 C378 1.387 . S
C382 C383 1.387 . S
C382 H386 0.950 . S
C382 C391 1.390 . S
C383 C382 1.387 . S
C383 C385 1.387 . S
H384 C391 0.950 . S
C385 C383 1.387 . S
C385 C387 1.390 . S
C385 H389 0.950 . S
H386 C382 0.950 . S
C387 C385 1.390 . S
C387 C388 1.387 . S
C387 H390 0.950 . S
C388 C387 1.387 . S
C388 C391 1.387 . S
H389 C385 0.950 . S
H390 C387 0.950 . S
C391 C382 1.390 . S
C391 H384 0.950 . S
C391 C388 1.387 . S
C392 C393 1.387 . S
C392 H396 0.950 . S
C392 C401 1.390 . S
C393 C392 1.387 . S
C393 C395 1.387 . S
H394 C401 0.950 . S
C395 C393 1.387 . S
C395 C397 1.390 . S
C395 H399 0.950 . S
H396 C392 0.950 . S
C397 C395 1.390 . S
C397 C398 1.387 . S
C397 H400 0.950 . S
C398 C397 1.387 . S
C398 C401 1.387 . S
H399 C395 0.950 . S
H400 C397 0.950 . S
C401 C392 1.390 . S
C401 H394 0.950 . S
C401 C398 1.387 . S
C402 C403 1.387 . S
C402 H406 0.950 . S
C402 C411 1.390 . S
C403 C402 1.387 . S
C403 C405 1.387 . S
H404 C411 0.950 . S
C405 C403 1.387 . S
C405 C407 1.390 . S
C405 H409 0.950 . S
H406 C402 0.950 . S
C407 C405 1.390 . S
C407 C408 1.387 . S
C407 H410 0.950 . S
C408 C407 1.387 . S
C408 C411 1.387 . S
H409 C405 0.950 . S
H410 C407 0.950 . S
C411 C402 1.390 . S
C411 H404 0.950 . S
C411 C408 1.387 . S
C412 C413 1.387 . S
C412 H416 0.950 . S
C412 C421 1.390 . S
C413 C412 1.387 . S
C413 C415 1.387 . S
H414 C421 0.950 . S
C415 C413 1.387 . S
C415 C417 1.390 . S
C415 H419 0.950 . S
H416 C412 0.950 . S
C417 C415 1.390 . S
C417 C418 1.387 . S
C417 H420 0.950 . S
C418 C417 1.387 . S
C418 C421 1.387 . S
H419 C415 0.950 . S
H420 C417 0.950 . S
C421 C412 1.390 . S
C421 H414 0.950 . S
C421 C418 1.387 . S
C422 C423 1.387 . S
C422 H426 0.950 . S
C422 C431 1.390 . S
C423 C422 1.387 . S
C423 C425 1.387 . S
H424 C431 0.950 . S
C425 C423 1.387 . S
C425 C427 1.390 . S
C425 H429 0.950 . S
H426 C422 0.950 . S
C427 C425 1.390 . S
C427 C428 1.387 . S
C427 H430 0.950 . S
C428 C427 1.387 . S
C428 C431 1.387 . S
H429 C425 0.950 . S
H430 C427 0.950 . S
C431 C422 1.390 . S
C431 H424 0.950 . S
C431 C428 1.387 . S
C432 C433 1.387 . S
C432 H436 0.950 . S
C432 C441 1.390 . S
C433 C432 1.387 . S
C433 C435 1.387 1_455 S
H434 C441 0.950 . S
C435 C433 1.387 1_655 S
C435 C437 1.390 . S
C435 H439 0.950 . S
H436 C432 0.950 . S
C437 C435 1.390 . S
C437 C438 1.387 1_655 S
C437 H440 0.950 . S
C438 C437 1.387 1_455 S
C438 C441 1.387 . S
H439 C435 0.950 . S
H440 C437 0.950 . S
C441 C432 1.390 . S
C441 H434 0.950 . S
C441 C438 1.387 . S
C442 C443 1.387 . S
C442 H446 0.950 . S
C442 C451 1.390 . S
C443 C442 1.387 . S
C443 C445 1.387 1_545 S
H444 C451 0.950 . S
C445 C443 1.387 1_565 S
C445 C447 1.390 . S
C445 H449 0.950 . S
H446 C442 0.950 . S
C447 C445 1.390 . S
C447 C448 1.387 1_565 S
C447 H450 0.950 . S
C448 C447 1.387 1_545 S
C448 C451 1.387 . S
H449 C445 0.950 . S
H450 C447 0.950 . S
C451 C442 1.390 . S
C451 H444 0.950 . S
C451 C448 1.387 . S
C452 C453 1.387 . S
C452 H456 0.950 . S
C452 C461 1.390 . S
C453 C452 1.387 . S
C453 C455 1.387 . S
H454 C461 0.950 . S
C455 C453 1.387 . S
C455 C457 1.390 . S
C455 H459 0.950 . S
H456 C452 0.950 . S
C457 C455 1.390 . S
C457 C458 1.387 . S
C457 H460 0.950 . S
C458 C457 1.387 . S
C458 C461 1.387 . S
H459 C455 0.950 . S
H460 C457 0.950 . S
C461 C452 1.390 . S
C461 H454 0.950 . S
C461 C458 1.387 . S
C462 C463 1.387 . S
C462 H466 0.950 . S
C462 C471 1.390 . S
C463 C462 1.387 . S
C463 C465 1.387 1_545 S
H464 C471 0.950 . S
C465 C463 1.387 1_565 S
C465 C467 1.390 . S
C465 H469 0.950 . S
H466 C462 0.950 . S
C467 C465 1.390 . S
C467 C468 1.387 1_565 S
C467 H470 0.950 . S
C468 C467 1.387 1_545 S
C468 C471 1.387 . S
H469 C465 0.950 . S
H470 C467 0.950 . S
C471 C462 1.390 . S
C471 H464 0.950 . S
C471 C468 1.387 . S
C472 C473 1.387 . S
C472 H476 0.950 . S
C472 C481 1.390 . S
C473 C472 1.387 . S
C473 C475 1.387 . S
H474 C481 0.950 . S
C475 C473 1.387 . S
C475 C477 1.390 . S
C475 H479 0.950 . S
H476 C472 0.950 . S
C477 C475 1.390 . S
C477 C478 1.387 . S
C477 H480 0.950 . S
C478 C477 1.387 . S
C478 C481 1.387 . S
H479 C475 0.950 . S
H480 C477 0.950 . S
C481 C472 1.390 . S
C481 H474 0.950 . S
C481 C478 1.387 . S
C482 C483 1.391 . S
C482 H486 0.950 . S
C482 C491 1.390 . S
C483 C482 1.391 . S
C483 C485 1.383 1_655 S
H484 C491 0.950 . S
C485 C483 1.383 1_455 S
C485 C487 1.390 . S
C485 H489 0.950 . S
H486 C482 0.950 . S
C487 C485 1.390 . S
C487 C488 1.387 . S
C487 H490 0.950 . S
C488 C487 1.387 . S
C488 C491 1.387 1_455 S
H489 C485 0.950 . S
H490 C487 0.950 . S
C491 C482 1.390 . S
C491 H484 0.950 . S
C491 C488 1.387 1_655 S
C313 C12 2.991 . S
C318 C303 2.919 . S
C323 C52 3.017 . S
C328 C239 2.953 . S
C333 C111 3.054 . S
C338 C271 2.983 . S
C343 C31 3.165 . S
C348 C297 3.088 . S
C358 C233 3.059 . S
C353 C71 3.141 . S
C368 C265 3.021 . S
C363 C92 3.099 . S
C373 C48 0.774 . S
C378 C175 0.794 . S
C383 C109 0.789 . S
C388 C207 0.840 . S
C393 C29 0.763 . S
C398 C137 0.765 . S
C408 C169 0.713 . S
C403 C69 0.726 . S
C418 C201 0.598 . S
C413 C88 0.634 . S
C423 C8 0.615 . S
C428 C143 0.610 . S
C438 C213 1.039 . S
C433 C17 1.039 1_455 S
C443 C57 1.015 . S
C448 C149 0.978 . S
C453 C97 1.048 . S
C458 C181 1.051 . S
C468 C277 1.767 . S
C463 C42 1.743 . S
C478 C309 1.771 1_556 S
C473 C82 1.748 . S
C483 C2 1.759 1_655 S
C488 C245 1.776 . S
