# Generated by pormake.
# Topology pto, (3,4)-cn, num edge types: 1
# Building blocks:
#     Node 0, Type 0, BuildingBlock: BELTOD_clean_linker_0, # of connection points: 3
#     Node 1, Type 0, BuildingBlock: BELTOD_clean_linker_0, # of connection points: 3
#     Node 2, Type 0, BuildingBlock: BELTOD_clean_linker_0, # of connection points: 3
#     Node 3, Type 0, BuildingBlock: BELTOD_clean_linker_0, # of connection points: 3
#     Node 4, Type 0, BuildingBlock: BELTOD_clean_linker_0, # of connection points: 3
#     Node 5, Type 0, BuildingBlock: BELTOD_clean_linker_0, # of connection points: 3
#     Node 6, Type 0, BuildingBlock: BELTOD_clean_linker_0, # of connection points: 3
#     Node 7, Type 0, BuildingBlock: BELTOD_clean_linker_0, # of connection points: 3
#     Node 8, Type 1, BuildingBlock: KOZSID_clean_sbu_0, # of connection points: 4
#     Node 9, Type 1, BuildingBlock: KOZSID_clean_sbu_0, # of connection points: 4
#     Node 10, Type 1, BuildingBlock: KOZSID_clean_sbu_0, # of connection points: 4
#     Node 11, Type 1, BuildingBlock: KOZSID_clean_sbu_0, # of connection points: 4
#     Node 12, Type 1, BuildingBlock: KOZSID_clean_sbu_0, # of connection points: 4
#     Node 13, Type 1, BuildingBlock: KOZSID_clean_sbu_0, # of connection points: 4
#     Edge 14, Type (0, 1), BuildingBlock: AJUNOK_clean_linker_0, # of connection points: 2
#     Edge 15, Type (0, 1), BuildingBlock: AJUNOK_clean_linker_0, # of connection points: 2
#     Edge 16, Type (0, 1), BuildingBlock: AJUNOK_clean_linker_0, # of connection points: 2
#     Edge 17, Type (0, 1), BuildingBlock: AJUNOK_clean_linker_0, # of connection points: 2
#     Edge 18, Type (0, 1), BuildingBlock: AJUNOK_clean_linker_0, # of connection points: 2
#     Edge 19, Type (0, 1), BuildingBlock: AJUNOK_clean_linker_0, # of connection points: 2
#     Edge 20, Type (0, 1), BuildingBlock: AJUNOK_clean_linker_0, # of connection points: 2
#     Edge 21, Type (0, 1), BuildingBlock: AJUNOK_clean_linker_0, # of connection points: 2
#     Edge 22, Type (0, 1), BuildingBlock: AJUNOK_clean_linker_0, # of connection points: 2
#     Edge 23, Type (0, 1), BuildingBlock: AJUNOK_clean_linker_0, # of connection points: 2
#     Edge 24, Type (0, 1), BuildingBlock: AJUNOK_clean_linker_0, # of connection points: 2
#     Edge 25, Type (0, 1), BuildingBlock: AJUNOK_clean_linker_0, # of connection points: 2
#     Edge 26, Type (0, 1), BuildingBlock: AJUNOK_clean_linker_0, # of connection points: 2
#     Edge 27, Type (0, 1), BuildingBlock: AJUNOK_clean_linker_0, # of connection points: 2
#     Edge 28, Type (0, 1), BuildingBlock: AJUNOK_clean_linker_0, # of connection points: 2
#     Edge 29, Type (0, 1), BuildingBlock: AJUNOK_clean_linker_0, # of connection points: 2
#     Edge 30, Type (0, 1), BuildingBlock: AJUNOK_clean_linker_0, # of connection points: 2
#     Edge 31, Type (0, 1), BuildingBlock: AJUNOK_clean_linker_0, # of connection points: 2
#     Edge 32, Type (0, 1), BuildingBlock: AJUNOK_clean_linker_0, # of connection points: 2
#     Edge 33, Type (0, 1), BuildingBlock: AJUNOK_clean_linker_0, # of connection points: 2
#     Edge 34, Type (0, 1), BuildingBlock: AJUNOK_clean_linker_0, # of connection points: 2
#     Edge 35, Type (0, 1), BuildingBlock: AJUNOK_clean_linker_0, # of connection points: 2
#     Edge 36, Type (0, 1), BuildingBlock: AJUNOK_clean_linker_0, # of connection points: 2
#     Edge 37, Type (0, 1), BuildingBlock: AJUNOK_clean_linker_0, # of connection points: 2
# Relax obj value: 0.000
# Max RMSD: 0.034
# Mean RMSD: 0.013
data_MOF--net-pto--node1-KOZSID_clean_sbu_0--node2-BELTOD_clean_linker_0--edge1-AJUNOK_clean_linker_0
_symmetry_space_group_name_H-M    P1
_symmetry_Int_Tables_number       1
_symmetry_cell_setting            triclinic
loop_
_symmetry_equiv_pos_as_xyz
'x, y, z'
_cell_length_a     34.088689
_cell_length_b     46.093492
_cell_length_c     40.051636
_cell_angle_alpha  86.240257
_cell_angle_beta   88.617624
_cell_angle_gamma 96.009076
loop_
_atom_site_label
_atom_site_type_symbol
_atom_site_fract_x
_atom_site_fract_y
_atom_site_fract_z
_atom_type_partial_charge
P0 P 0.31541 0.28595 0.34008 0.0
H1 H 0.37046 0.24764 0.31572 0.0
H2 H 0.39839 0.24149 0.26004 0.0
H3 H 0.32596 0.30492 0.21718 0.0
H4 H 0.2975 0.31048 0.27265 0.0
H5 H 0.22844 0.27953 0.34985 0.0
H6 H 0.18034 0.31542 0.35002 0.0
H7 H 0.27431 0.38502 0.3284 0.0
H8 H 0.32232 0.34913 0.32904 0.0
H9 H 0.32999 0.26205 0.40757 0.0
H10 H 0.26315 0.23469 0.32301 0.0
O11 O 0.35485 0.30099 0.35901 0.0
H12 H 0.31164 0.21437 0.43711 0.0
H13 H 0.2431 0.18718 0.3531 0.0
C14 C 0.33176 0.27936 0.29838 0.0
C15 C 0.36012 0.25985 0.29425 0.0
C16 C 0.37621 0.25648 0.26248 0.0
C17 C 0.36424 0.27262 0.23422 0.0
C18 C 0.33525 0.29178 0.23837 0.0
C19 C 0.31913 0.29511 0.27019 0.0
C20 C 0.27905 0.31171 0.33985 0.0
C21 C 0.23874 0.30248 0.34519 0.0
C22 C 0.21119 0.32301 0.34499 0.0
C23 C 0.22353 0.35306 0.33905 0.0
C24 C 0.26394 0.36208 0.33334 0.0
C25 C 0.29137 0.34159 0.33366 0.0
C26 C 0.29846 0.25171 0.36287 0.0
C27 C 0.31106 0.24585 0.39544 0.0
C28 C 0.30033 0.2186 0.41243 0.0
C29 C 0.27644 0.19675 0.39727 0.0
C30 C 0.26246 0.20321 0.36512 0.0
C31 C 0.27359 0.23041 0.348 0.0
P32 P 0.28148 0.77013 0.71301 0.0
H33 H 0.26343 0.7272 0.6637 0.0
H34 H 0.21533 0.68397 0.66351 0.0
H35 H 0.16591 0.70476 0.75822 0.0
H36 H 0.21352 0.74859 0.75776 0.0
H37 H 0.29636 0.79978 0.6469 0.0
H38 H 0.27875 0.84586 0.62132 0.0
H39 H 0.21428 0.86046 0.71172 0.0
H40 H 0.23236 0.81387 0.73759 0.0
H41 H 0.29035 0.72662 0.76772 0.0
H42 H 0.31329 0.82022 0.7497 0.0
O43 O 0.32032 0.7618 0.6908 0.0
H44 H 0.32088 0.72957 0.82204 0.0
H45 H 0.34303 0.82336 0.80448 0.0
C46 C 0.24271 0.74059 0.71121 0.0
C47 C 0.24212 0.72257 0.68435 0.0
C48 C 0.2148 0.69775 0.68437 0.0
C49 C 0.1876 0.69051 0.71133 0.0
C50 C 0.18674 0.70964 0.73725 0.0
C51 C 0.21399 0.7346 0.73709 0.0
C52 C 0.2662 0.80363 0.69432 0.0
C53 C 0.27837 0.81275 0.66132 0.0
C54 C 0.26803 0.83903 0.6466 0.0
C55 C 0.24488 0.85662 0.66445 0.0
C56 C 0.23221 0.84731 0.69746 0.0
C57 C 0.24244 0.82076 0.71218 0.0
C58 C 0.29806 0.77331 0.75513 0.0
C59 C 0.30069 0.74793 0.77592 0.0
C60 C 0.31814 0.74963 0.80703 0.0
C61 C 0.33369 0.77676 0.81781 0.0
C62 C 0.331 0.80218 0.79693 0.0
C63 C 0.31361 0.80043 0.76575 0.0
P64 P 0.83155 0.79379 0.29167 0.0
H65 H 0.88511 0.82825 0.33251 0.0
H66 H 0.87479 0.86086 0.37695 0.0
H67 H 0.74885 0.83878 0.3728 0.0
H68 H 0.75936 0.80579 0.32846 0.0
H69 H 0.90984 0.77372 0.29291 0.0
H70 H 0.93352 0.72709 0.3102 0.0
H71 H 0.81497 0.69192 0.34131 0.0
H72 H 0.7912 0.73915 0.32412 0.0
H73 H 0.77911 0.83506 0.26573 0.0
H74 H 0.79329 0.74388 0.25721 0.0
O75 O 0.86748 0.81258 0.26768 0.0
H76 H 0.72667 0.83173 0.22506 0.0
H77 H 0.74054 0.74048 0.21683 0.0
C78 C 0.823 0.81515 0.32669 0.0
C79 C 0.85528 0.8302 0.34135 0.0
C80 C 0.84937 0.84869 0.36686 0.0
C81 C 0.81101 0.85235 0.37824 0.0
C82 C 0.77869 0.83649 0.36426 0.0
C83 C 0.78469 0.8177 0.33894 0.0
C84 C 0.84859 0.75966 0.3065 0.0
C85 C 0.88884 0.75611 0.30357 0.0
C86 C 0.90245 0.72951 0.31374 0.0
C87 C 0.87608 0.70597 0.32718 0.0
C88 C 0.83585 0.70976 0.33093 0.0
C89 C 0.82229 0.73661 0.3211 0.0
C90 C 0.78931 0.78952 0.26544 0.0
C91 C 0.77034 0.81416 0.25576 0.0
C92 C 0.74065 0.81233 0.23232 0.0
C93 C 0.72968 0.78585 0.21788 0.0
C94 C 0.74822 0.76104 0.22793 0.0
C95 C 0.77822 0.76297 0.2512 0.0
P96 P 0.81765 0.24768 0.80537 0.0
H97 H 0.77899 0.20447 0.85489 0.0
H98 H 0.7235 0.20532 0.89466 0.0
H99 H 0.70481 0.29157 0.85357 0.0
H100 H 0.75993 0.29042 0.81344 0.0
H101 H 0.87206 0.23071 0.75553 0.0
H102 H 0.86534 0.19527 0.71255 0.0
H103 H 0.74041 0.17888 0.73598 0.0
H104 H 0.74721 0.21455 0.77898 0.0
H105 H 0.87101 0.29066 0.83626 0.0
H106 H 0.80638 0.28593 0.74521 0.0
O107 O 0.85151 0.23329 0.82882 0.0
H108 H 0.89822 0.34067 0.81884 0.0
H109 H 0.83383 0.33621 0.72746 0.0
C110 C 0.77404 0.24758 0.83169 0.0
C111 C 0.76281 0.2235 0.85433 0.0
C112 C 0.7313 0.22408 0.87716 0.0
C113 C 0.71045 0.24879 0.87769 0.0
C114 C 0.72055 0.27233 0.85384 0.0
C115 C 0.75213 0.27172 0.83098 0.0
C116 C 0.81027 0.22506 0.7706 0.0
C117 C 0.84313 0.21976 0.75115 0.0
C118 C 0.83931 0.19942 0.72678 0.0
C119 C 0.80248 0.18401 0.72142 0.0
C120 C 0.76914 0.19041 0.73976 0.0
C121 C 0.77304 0.21074 0.76434 0.0
C122 C 0.83734 0.28444 0.79171 0.0
C123 C 0.86289 0.30034 0.81238 0.0
C124 C 0.87844 0.3289 0.80241 0.0
C125 C 0.86825 0.34227 0.77177 0.0
C126 C 0.84198 0.32648 0.75131 0.0
C127 C 0.82654 0.29775 0.76129 0.0
P128 P 0.82143 0.79597 0.78931 0.0
H129 H 0.80351 0.7581 0.84976 0.0
H130 H 0.74796 0.7524 0.89051 0.0
H131 H 0.68925 0.81473 0.83007 0.0
H132 H 0.74436 0.82003 0.78929 0.0
H133 H 0.89556 0.7801 0.76278 0.0
H134 H 0.91655 0.73413 0.74566 0.0
H135 H 0.79695 0.69317 0.7603 0.0
H136 H 0.77621 0.73934 0.7781 0.0
H137 H 0.84485 0.85871 0.78453 0.0
H138 H 0.78521 0.79536 0.72339 0.0
O139 O 0.85852 0.80783 0.81309 0.0
H140 H 0.83645 0.89765 0.74193 0.0
H141 H 0.77566 0.83464 0.68072 0.0
C142 C 0.77806 0.78936 0.81646 0.0
C143 C 0.77836 0.77016 0.84504 0.0
C144 C 0.74676 0.76703 0.86834 0.0
C145 C 0.71423 0.78303 0.86338 0.0
C146 C 0.71359 0.80173 0.83426 0.0
C147 C 0.74525 0.80487 0.81098 0.0
C148 C 0.83453 0.76298 0.77221 0.0
C149 C 0.87373 0.76134 0.7619 0.0
C150 C 0.88562 0.73509 0.75181 0.0
C151 C 0.85834 0.71003 0.7514 0.0
C152 C 0.81864 0.71209 0.76049 0.0
C153 C 0.80677 0.73844 0.77064 0.0
C154 C 0.81624 0.82411 0.75683 0.0
C155 C 0.82999 0.85316 0.76185 0.0
C156 C 0.8247 0.87549 0.73766 0.0
C157 C 0.80486 0.86927 0.70819 0.0
C158 C 0.79111 0.84006 0.70317 0.0
C159 C 0.79658 0.81764 0.72745 0.0
P160 P 0.83346 0.24936 0.29501 0.0
H161 H 0.90224 0.26801 0.3326 0.0
H162 H 0.92901 0.31552 0.35081 0.0
H163 H 0.82647 0.35341 0.31354 0.0
H164 H 0.79867 0.3056 0.29797 0.0
H165 H 0.85497 0.18963 0.29945 0.0
H166 H 0.84392 0.14949 0.34257 0.0
H167 H 0.78034 0.20361 0.40402 0.0
H168 H 0.7925 0.24421 0.36083 0.0
H169 H 0.81771 0.2897 0.23908 0.0
H170 H 0.75753 0.21237 0.2917 0.0
O171 O 0.87085 0.24237 0.27017 0.0
H172 H 0.76229 0.29181 0.20139 0.0
H173 H 0.70283 0.21395 0.25321 0.0
C174 C 0.8489 0.28333 0.31324 0.0
C175 C 0.88514 0.28645 0.3291 0.0
C176 C 0.90051 0.31367 0.33929 0.0
C177 C 0.88007 0.33842 0.33352 0.0
C178 C 0.84281 0.33484 0.31901 0.0
C179 C 0.82712 0.30746 0.30944 0.0
C180 C 0.82505 0.22 0.32719 0.0
C181 C 0.83877 0.19296 0.32222 0.0
C182 C 0.83201 0.16988 0.34674 0.0
C183 C 0.8108 0.17325 0.37652 0.0
C184 C 0.79685 0.2004 0.38135 0.0
C185 C 0.80375 0.22356 0.35676 0.0
C186 C 0.79135 0.25141 0.26883 0.0
C187 C 0.79241 0.27342 0.24281 0.0
C188 C 0.76091 0.27457 0.22125 0.0
C189 C 0.72837 0.25318 0.22474 0.0
C190 C 0.7276 0.23077 0.25029 0.0
C191 C 0.7588 0.22997 0.27233 0.0
P192 P 0.29597 0.29065 0.71428 0.0
H193 H 0.2872 0.27759 0.64475 0.0
H194 H 0.27077 0.23221 0.61755 0.0
H195 H 0.24841 0.18557 0.71437 0.0
H196 H 0.26602 0.23114 0.74154 0.0
H197 H 0.30287 0.35409 0.71146 0.0
H198 H 0.25468 0.38955 0.71423 0.0
H199 H 0.16058 0.31889 0.72625 0.0
H200 H 0.20918 0.28339 0.72243 0.0
H201 H 0.3712 0.27293 0.73596 0.0
H202 H 0.2617 0.29062 0.78268 0.0
O203 O 0.3338 0.30684 0.6903 0.0
H204 H 0.3993 0.26547 0.79112 0.0
H205 H 0.28987 0.28345 0.83801 0.0
C206 C 0.2783 0.25766 0.69511 0.0
C207 C 0.27833 0.25767 0.66014 0.0
C208 C 0.26858 0.23172 0.64461 0.0
C209 C 0.25797 0.20527 0.66379 0.0
C210 C 0.25664 0.20556 0.69893 0.0
C211 C 0.26658 0.23159 0.71447 0.0
C212 C 0.25949 0.31617 0.71593 0.0
C213 C 0.27183 0.3462 0.71427 0.0
C214 C 0.24427 0.36646 0.71612 0.0
C215 C 0.20374 0.35708 0.72002 0.0
C216 C 0.19149 0.32685 0.72236 0.0
C217 C 0.2192 0.30654 0.72035 0.0
C218 C 0.31468 0.28288 0.75523 0.0
C219 C 0.35317 0.27512 0.7581 0.0
C220 C 0.3692 0.27089 0.78959 0.0
C221 C 0.34681 0.27398 0.81882 0.0
C222 C 0.30767 0.28067 0.81592 0.0
C223 C 0.29167 0.285 0.78431 0.0
P224 P 0.3086 0.75931 0.33103 0.0
H225 H 0.3795 0.73812 0.30351 0.0
H226 H 0.4125 0.74494 0.24835 0.0
H227 H 0.32603 0.80146 0.21452 0.0
H228 H 0.29257 0.79411 0.26988 0.0
H229 H 0.35195 0.80534 0.36548 0.0
H230 H 0.33387 0.85054 0.38731 0.0
H231 H 0.21733 0.83411 0.34805 0.0
H232 H 0.23557 0.78847 0.32657 0.0
H233 H 0.28642 0.71605 0.28218 0.0
H234 H 0.24201 0.73981 0.37726 0.0
O235 O 0.33954 0.7464 0.35858 0.0
H236 H 0.2358 0.67442 0.28353 0.0
H237 H 0.1914 0.69779 0.37888 0.0
C238 C 0.33412 0.76614 0.29097 0.0
C239 C 0.36793 0.75234 0.28443 0.0
C240 C 0.38689 0.75635 0.25292 0.0
C241 C 0.37228 0.77419 0.22733 0.0
C242 C 0.33806 0.78775 0.23386 0.0
C243 C 0.31909 0.78371 0.26547 0.0
C244 C 0.29473 0.79316 0.34533 0.0
C245 C 0.32246 0.8114 0.36163 0.0
C246 C 0.3122 0.83735 0.37385 0.0
C247 C 0.27402 0.84567 0.3698 0.0
C248 C 0.24671 0.82792 0.35218 0.0
C249 C 0.25708 0.80189 0.33989 0.0
C250 C 0.26749 0.73151 0.3293 0.0
C251 C 0.26533 0.71274 0.30305 0.0
C252 C 0.23654 0.68875 0.30394 0.0
C253 C 0.20948 0.68296 0.33119 0.0
C254 C 0.21133 0.70204 0.35724 0.0
C255 C 0.24024 0.72603 0.35635 0.0
C256 C 0.08759 0.56182 0.3708 0.0
C257 C 0.10188 0.57096 0.40097 0.0
C258 C 0.08127 0.55355 0.42568 0.0
C259 C 0.05575 0.53484 0.40926 0.0
N260 N 0.05914 0.53894 0.37551 0.0
Co261 Co 0.02652 0.51746 0.34202 0.0
N262 N 0.99468 0.49288 0.37842 0.0
C263 C 0.99832 0.49445 0.41184 0.0
C264 C 0.9747 0.47323 0.43057 0.0
C265 C 0.95528 0.45676 0.4078 0.0
C266 C 0.96802 0.46908 0.37635 0.0
N267 N 0.99381 0.49613 0.30855 0.0
C268 C 0.9663 0.47269 0.31324 0.0
C269 C 0.95091 0.4642 0.28318 0.0
C270 C 0.97026 0.48239 0.25848 0.0
C271 C 0.99607 0.50095 0.27483 0.0
N272 N 0.0585 0.54181 0.30555 0.0
C273 C 0.05456 0.54039 0.27212 0.0
C274 C 0.07994 0.56041 0.25331 0.0
C275 C 0.10109 0.57579 0.27602 0.0
C276 C 0.08736 0.56418 0.30752 0.0
N277 N 0.06429 0.48743 0.34125 0.0
C278 C 0.1149 0.44281 0.34036 0.0
C279 C 0.10129 0.45519 0.31064 0.0
C280 C 0.07623 0.47728 0.31165 0.0
C281 C 0.10341 0.45355 0.37047 0.0
C282 C 0.07828 0.47565 0.37035 0.0
N283 N 0.98883 0.54767 0.34279 0.0
C284 C 0.95419 0.58426 0.31329 0.0
C285 C 0.94407 0.59576 0.34329 0.0
C286 C 0.95473 0.58179 0.37317 0.0
C287 C 0.97669 0.55783 0.37236 0.0
C288 C 0.97632 0.56042 0.31361 0.0
H289 H 0.98417 0.54833 0.39595 0.0
H290 H 0.98379 0.55326 0.28983 0.0
H291 H 0.06677 0.48573 0.28816 0.0
H292 H 0.07033 0.48267 0.39415 0.0
C293 C 0.02709 0.51411 0.42479 0.0
C294 C 0.10119 0.57615 0.33845 0.0
C295 C 0.9559 0.45647 0.34525 0.0
C296 C 0.02504 0.52136 0.25918 0.0
H297 H 0.12439 0.58872 0.4047 0.0
H298 H 0.08396 0.55482 0.45243 0.0
H299 H 0.97318 0.46935 0.45754 0.0
H300 H 0.93511 0.4373 0.41377 0.0
H301 H 0.92893 0.44608 0.27947 0.0
H302 H 0.96701 0.48145 0.23175 0.0
H303 H 0.08199 0.56396 0.22632 0.0
H304 H 0.12341 0.59399 0.27005 0.0
H305 H 0.11022 0.44809 0.28662 0.0
H306 H 0.11334 0.44466 0.39412 0.0
H307 H 0.94634 0.59431 0.2895 0.0
H308 H 0.9466 0.58952 0.39708 0.0
C309 C 0.07372 0.56763 0.75476 0.0
C310 C 0.09208 0.57699 0.7833 0.0
C311 C 0.07433 0.56 0.80973 0.0
C312 C 0.04639 0.54124 0.79588 0.0
N313 N 0.04551 0.54498 0.76211 0.0
Co314 Co 0.00909 0.52275 0.73187 0.0
N315 N 0.9805 0.49977 0.771 0.0
C316 C 0.98656 0.50305 0.80386 0.0
C317 C 0.96279 0.48365 0.82483 0.0
C318 C 0.94074 0.46658 0.80414 0.0
C319 C 0.95258 0.47656 0.77165 0.0
N320 N 0.97323 0.49993 0.70166 0.0
C321 C 0.94698 0.47601 0.709 0.0
C322 C 0.93047 0.46521 0.68039 0.0
C323 C 0.94724 0.48271 0.65393 0.0
C324 C 0.97307 0.50299 0.66784 0.0
N325 N 0.03713 0.54626 0.69276 0.0
C326 C 0.02922 0.54426 0.65999 0.0
C327 C 0.05198 0.56432 0.63903 0.0
C328 C 0.07541 0.58047 0.65964 0.0
C329 C 0.06558 0.56921 0.6921 0.0
N330 N 0.0465 0.49254 0.72953 0.0
C331 C 0.09607 0.44733 0.72643 0.0
C332 C 0.08307 0.46114 0.69726 0.0
C333 C 0.05845 0.48344 0.69937 0.0
C334 C 0.08456 0.45702 0.75712 0.0
C335 C 0.06006 0.47946 0.7581 0.0
N336 N 0.97171 0.55305 0.7342 0.0
C337 C 0.93117 0.58695 0.70661 0.0
C338 C 0.92647 0.60087 0.73618 0.0
C339 C 0.943 0.58943 0.76508 0.0
C340 C 0.96511 0.56569 0.76358 0.0
C341 C 0.95367 0.56325 0.70619 0.0
H342 H 0.97735 0.55846 0.78641 0.0
H343 H 0.95662 0.55392 0.68277 0.0
H344 H 0.04931 0.49289 0.67624 0.0
H345 H 0.0522 0.48567 0.78231 0.0
C346 C 0.01801 0.52202 0.81407 0.0
C347 C 0.08284 0.58185 0.72151 0.0
C348 C 0.93874 0.46183 0.74238 0.0
C349 C 0.99945 0.52386 0.6498 0.0
H350 H 0.11519 0.59479 0.7849 0.0
H351 H 0.08012 0.56182 0.836 0.0
H352 H 0.96285 0.48126 0.8519 0.0
H353 H 0.91946 0.44815 0.81201 0.0
H354 H 0.90936 0.44617 0.67874 0.0
H355 H 0.94231 0.48025 0.62762 0.0
H356 H 0.05103 0.56727 0.61204 0.0
H357 H 0.09677 0.59884 0.65174 0.0
H358 H 0.09211 0.455 0.67283 0.0
H359 H 0.094 0.44705 0.78041 0.0
H360 H 0.91789 0.59446 0.68377 0.0
H361 H 0.94001 0.59936 0.78866 0.0
C362 C 0.27211 0.98018 0.57903 0.0
C363 C 0.30668 0.96933 0.58957 0.0
C364 C 0.33603 0.98059 0.56709 0.0
C365 C 0.31805 0.99764 0.5441 0.0
N366 N 0.27925 0.99839 0.55098 0.0
Co367 Co 0.24245 0.01916 0.52247 0.0
N368 N 0.2868 0.04249 0.49671 0.0
C369 C 0.32454 0.03647 0.49529 0.0
C370 C 0.34871 0.05715 0.47613 0.0
C371 C 0.32462 0.07744 0.46478 0.0
C372 C 0.28696 0.06783 0.47759 0.0
N373 N 0.206 0.03994 0.49388 0.0
C374 C 0.21306 0.0654 0.47483 0.0
C375 C 0.17928 0.0725 0.45896 0.0
C376 C 0.14999 0.05066 0.46867 0.0
C377 C 0.16754 0.03151 0.48977 0.0
N378 N 0.19777 0.99579 0.54809 0.0
C379 C 0.15977 0.99307 0.53907 0.0
C380 C 0.13524 0.97573 0.56159 0.0
C381 C 0.15933 0.96639 0.58599 0.0
C382 C 0.19746 0.97833 0.57676 0.0
N383 N 0.24233 0.04967 0.55425 0.0
C384 C 0.24311 0.09769 0.59381 0.0
C385 C 0.20746 0.08379 0.58327 0.0
C386 C 0.20772 0.0599 0.56351 0.0
C387 C 0.27818 0.08617 0.5854 0.0
C388 C 0.27715 0.06218 0.5657 0.0
N389 N 0.24271 0.98882 0.49035 0.0
C390 C 0.24129 0.93791 0.47999 0.0
C391 C 0.24487 0.94478 0.44547 0.0
C392 C 0.24759 0.97427 0.43375 0.0
C393 C 0.24621 0.99596 0.4566 0.0
C394 C 0.24025 0.96011 0.5018 0.0
H395 H 0.24837 0.01851 0.44699 0.0
H396 H 0.23813 0.95397 0.52802 0.0
H397 H 0.17992 0.05018 0.55508 0.0
H398 H 0.30472 0.05433 0.55894 0.0
C399 C 0.33721 0.01494 0.51736 0.0
C400 C 0.23265 0.96872 0.59287 0.0
C401 C 0.25171 0.08244 0.47013 0.0
C402 C 0.14769 0.00926 0.5111 0.0
H403 H 0.31025 0.95386 0.61046 0.0
H404 H 0.36679 0.9767 0.56743 0.0
H405 H 0.38039 0.05822 0.47235 0.0
H406 H 0.33384 0.09712 0.44914 0.0
H407 H 0.17614 0.09155 0.44234 0.0
H408 H 0.11918 0.04969 0.46246 0.0
H409 H 0.1036 0.97058 0.5605 0.0
H410 H 0.1502 0.95139 0.60736 0.0
H411 H 0.17955 0.09147 0.58993 0.0
H412 H 0.30641 0.09619 0.59306 0.0
H413 H 0.24029 0.91549 0.49025 0.0
H414 H 0.25074 0.9805 0.40719 0.0
C415 C 0.46172 0.80743 0.07668 0.0
C416 C 0.45061 0.83417 0.08518 0.0
C417 C 0.47195 0.85504 0.06446 0.0
C418 C 0.49465 0.83988 0.04454 0.0
N419 N 0.48872 0.81054 0.05098 0.0
Co420 Co 0.5162 0.78018 0.02874 0.0
N421 N 0.55182 0.81098 0.00177 0.0
C422 C 0.55227 0.84033 0.00262 0.0
C423 C 0.58012 0.85589 0.98139 0.0
C424 C 0.59859 0.8353 0.96599 0.0
C425 C 0.58084 0.80824 0.97879 0.0
N426 N 0.54316 0.74978 0.00603 0.0
C427 C 0.57237 0.75288 0.98209 0.0
C428 C 0.58202 0.726 0.97262 0.0
C429 C 0.55785 0.70515 0.99105 0.0
C430 C 0.53495 0.7204 0.01064 0.0
N431 N 0.48124 0.74943 0.05634 0.0
C432 C 0.48069 0.72009 0.05559 0.0
C433 C 0.45505 0.7046 0.07875 0.0
C434 C 0.43872 0.72526 0.09578 0.0
C435 C 0.45535 0.75225 0.08184 0.0
N436 N 0.47704 0.77991 0.99261 0.0
C437 C 0.42548 0.77948 0.93855 0.0
C438 C 0.4325 0.7535 0.95619 0.0
C439 C 0.45809 0.75421 0.98296 0.0
C440 C 0.444 0.80568 0.94879 0.0
C441 C 0.46922 0.80542 0.97572 0.0
N442 N 0.55533 0.78051 0.06464 0.0
C443 C 0.59634 0.75514 0.10272 0.0
C444 C 0.612 0.78154 0.11477 0.0
C445 C 0.59799 0.80728 0.10196 0.0
C446 C 0.57013 0.8063 0.07701 0.0
C447 C 0.5682 0.75511 0.07785 0.0
H448 H 0.56104 0.82673 0.0681 0.0
H449 H 0.5574 0.73433 0.06958 0.0
H450 H 0.46251 0.73363 0.99503 0.0
H451 H 0.48235 0.82616 0.98204 0.0
C452 C 0.5249 0.85261 0.02242 0.0
C453 C 0.44743 0.77987 0.09493 0.0
C454 C 0.59181 0.78066 0.96755 0.0
C455 C 0.50602 0.70777 0.03397 0.0
H456 H 0.43008 0.83815 0.10498 0.0
H457 H 0.47213 0.87851 0.06484 0.0
H458 H 0.58587 0.87941 0.9772 0.0
H459 H 0.62211 0.8397 0.94713 0.0
H460 H 0.60423 0.72189 0.95425 0.0
H461 H 0.55708 0.68167 0.99029 0.0
H462 H 0.44976 0.68109 0.08337 0.0
H463 H 0.41772 0.72093 0.11665 0.0
H464 H 0.41917 0.73259 0.94884 0.0
H465 H 0.43916 0.82638 0.93596 0.0
H466 H 0.60621 0.73462 0.11203 0.0
H467 H 0.60839 0.82819 0.11121 0.0
C468 C 0.8324 0.9809 0.59546 0.0
C469 C 0.86857 0.97463 0.6077 0.0
C470 C 0.89679 0.99277 0.5898 0.0
C471 C 0.87639 0.00914 0.56789 0.0
N472 N 0.83673 0.00273 0.57082 0.0
Co473 Co 0.79595 0.02161 0.54416 0.0
N474 N 0.83773 0.04696 0.51636 0.0
C475 C 0.87731 0.04696 0.51845 0.0
C476 C 0.89853 0.06641 0.49581 0.0
C477 C 0.87093 0.0798 0.47824 0.0
C478 C 0.83429 0.06781 0.49141 0.0
N479 N 0.75522 0.04083 0.5178 0.0
C480 C 0.75958 0.06278 0.49327 0.0
C481 C 0.72337 0.07053 0.48271 0.0
C482 C 0.69511 0.05282 0.50109 0.0
C483 C 0.71555 0.03546 0.52188 0.0
N484 N 0.75424 0.99587 0.57159 0.0
C485 C 0.71469 0.99519 0.56874 0.0
C486 C 0.6935 0.97433 0.5898 0.0
C487 C 0.72113 0.96064 0.60701 0.0
C488 C 0.75774 0.97415 0.59555 0.0
N489 N 0.79534 0.05212 0.57707 0.0
C490 C 0.79533 0.09445 0.62493 0.0
C491 C 0.76 0.07989 0.61493 0.0
C492 C 0.76067 0.05894 0.59117 0.0
C493 C 0.83049 0.08803 0.60993 0.0
C494 C 0.82984 0.06696 0.58644 0.0
N495 N 0.7966 0.99097 0.51149 0.0
C496 C 0.76223 0.95448 0.47876 0.0
C497 C 0.79781 0.9443 0.46942 0.0
C498 C 0.83277 0.95864 0.48037 0.0
C499 C 0.8315 0.98165 0.50119 0.0
C500 C 0.76229 0.97769 0.49964 0.0
H501 H 0.8592 0.99135 0.50886 0.0
H502 H 0.73424 0.98427 0.50619 0.0
H503 H 0.7328 0.04848 0.58475 0.0
H504 H 0.85773 0.06309 0.57627 0.0
C505 C 0.89369 0.02942 0.54301 0.0
C506 C 0.79492 0.96515 0.6077 0.0
C507 C 0.79721 0.07729 0.47962 0.0
C508 C 0.69836 0.01405 0.54558 0.0
H509 H 0.87404 0.95838 0.6273 0.0
H510 H 0.92846 0.99355 0.59206 0.0
H511 H 0.93029 0.07064 0.49275 0.0
H512 H 0.87712 0.09669 0.45818 0.0
H513 H 0.71791 0.08741 0.46383 0.0
H514 H 0.66344 0.05278 0.49969 0.0
H515 H 0.66176 0.96938 0.59202 0.0
H516 H 0.71499 0.94254 0.62564 0.0
H517 H 0.73199 0.08427 0.62579 0.0
H518 H 0.85855 0.09933 0.61618 0.0
H519 H 0.7344 0.94423 0.47054 0.0
H520 H 0.86116 0.95219 0.47285 0.0
C521 C 0.46291 0.29279 0.08758 0.0
C522 C 0.4569 0.32051 0.09688 0.0
C523 C 0.48084 0.33988 0.07631 0.0
C524 C 0.49999 0.32296 0.05574 0.0
N525 N 0.48921 0.29393 0.06146 0.0
Co526 Co 0.51167 0.2614 0.03897 0.0
N527 N 0.54933 0.2898 0.0106 0.0
C528 C 0.55197 0.31935 0.00977 0.0
C529 C 0.58005 0.33304 0.98739 0.0
C530 C 0.5962 0.31095 0.97282 0.0
C531 C 0.57688 0.28495 0.9872 0.0
N532 N 0.53506 0.22881 0.01739 0.0
C533 C 0.56473 0.2297 0.99404 0.0
C534 C 0.572 0.20183 0.98612 0.0
C535 C 0.54612 0.18265 0.00519 0.0
C536 C 0.52458 0.19979 0.02357 0.0
N537 N 0.47317 0.23309 0.06661 0.0
C538 C 0.46794 0.2037 0.06524 0.0
C539 C 0.43992 0.19004 0.08773 0.0
C540 C 0.42671 0.21196 0.10477 0.0
C541 C 0.44753 0.23784 0.09159 0.0
N542 N 0.47251 0.26325 0.00294 0.0
C543 C 0.42454 0.2663 0.94664 0.0
C544 C 0.43204 0.23936 0.96172 0.0
C545 C 0.45574 0.23834 0.98971 0.0
C546 C 0.43992 0.29161 0.96108 0.0
C547 C 0.46331 0.2896 0.98912 0.0
N548 N 0.55091 0.25959 0.0747 0.0
C549 C 0.58219 0.23231 0.11836 0.0
C550 C 0.60625 0.25735 0.12587 0.0
C551 C 0.60241 0.28342 0.10696 0.0
C552 C 0.57453 0.28413 0.08202 0.0
C553 C 0.55511 0.23386 0.09278 0.0
H554 H 0.57274 0.30478 0.06892 0.0
H555 H 0.53785 0.21397 0.08811 0.0
H556 H 0.46082 0.21714 0.99962 0.0
H557 H 0.47421 0.30975 0.99866 0.0
C558 C 0.5289 0.33358 0.03142 0.0
C559 C 0.44378 0.26609 0.10499 0.0
C560 C 0.58616 0.25626 0.97808 0.0
C561 C 0.49302 0.18936 0.04548 0.0
H562 H 0.43765 0.32607 0.11683 0.0
H563 H 0.48445 0.36347 0.07674 0.0
H564 H 0.58811 0.3563 0.9825 0.0
H565 H 0.61971 0.3137 0.95387 0.0
H566 H 0.59349 0.19598 0.9681 0.0
H567 H 0.54294 0.15903 0.00525 0.0
H568 H 0.43138 0.1668 0.09221 0.0
H569 H 0.40511 0.20911 0.12528 0.0
H570 H 0.42093 0.21913 0.95125 0.0
H571 H 0.43439 0.31298 0.95047 0.0
H572 H 0.58403 0.21157 0.13227 0.0
H573 H 0.62118 0.30325 0.11098 0.0
C574 C 0.20251 0.40001 0.3579 0.0
C575 C 0.19476 0.3752 0.33942 0.0
C576 C 0.17639 0.42156 0.3583 0.0
C577 C 0.1416 0.41929 0.34002 0.0
H578 H 0.22895 0.40275 0.37234 0.0
H579 H 0.1838 0.44038 0.37266 0.0
S580 S 0.10723 0.3585 0.28795 0.0
N581 N 0.14966 0.34962 0.3024 0.0
N582 N 0.10022 0.38988 0.30362 0.0
C583 C 0.1333 0.3945 0.32163 0.0
C584 C 0.15988 0.3725 0.32129 0.0
C585 C 0.12054 0.66243 0.72084 0.0
C586 C 0.16108 0.66264 0.71296 0.0
C587 C 0.09526 0.63624 0.72316 0.0
C588 C 0.10972 0.60945 0.71775 0.0
H589 H 0.10825 0.68266 0.7251 0.0
H590 H 0.06426 0.63687 0.72939 0.0
S591 S 0.21318 0.59758 0.69817 0.0
N592 N 0.21445 0.63326 0.70101 0.0
N593 N 0.16659 0.58426 0.70507 0.0
C594 C 0.14994 0.60922 0.71001 0.0
C595 C 0.17571 0.63577 0.70765 0.0
C596 C 0.87406 0.65233 0.31997 0.0
C597 C 0.8906 0.67716 0.33528 0.0
C598 C 0.89075 0.62576 0.32354 0.0
C599 C 0.92423 0.62299 0.34292 0.0
H600 H 0.84907 0.65378 0.30395 0.0
H601 H 0.87785 0.60741 0.31048 0.0
S602 S 0.97685 0.68104 0.39007 0.0
N603 N 0.94084 0.69693 0.37202 0.0
N604 N 0.97227 0.64707 0.37873 0.0
C605 C 0.94 0.64734 0.35949 0.0
C606 C 0.92321 0.67442 0.35562 0.0
C607 C 0.92661 0.37993 0.76294 0.0
C608 C 0.88557 0.37254 0.76147 0.0
C609 C 0.94362 0.40874 0.75571 0.0
C610 C 0.92019 0.43115 0.74683 0.0
H611 H 0.94569 0.36334 0.77007 0.0
H612 H 0.97524 0.41368 0.75766 0.0
S613 S 0.81159 0.42372 0.73981 0.0
N614 N 0.82203 0.39021 0.7505 0.0
N615 N 0.85426 0.44447 0.73707 0.0
C616 C 0.87933 0.42416 0.74483 0.0
C617 C 0.86194 0.39479 0.75204 0.0
C618 C 0.2565 0.16428 0.44917 0.0
C619 C 0.26743 0.16717 0.41481 0.0
C620 C 0.25063 0.13674 0.46679 0.0
C621 C 0.25555 0.11119 0.45068 0.0
H622 H 0.25274 0.18349 0.46261 0.0
H623 H 0.24286 0.13543 0.49328 0.0
S624 S 0.28318 0.1062 0.36146 0.0
N625 N 0.28278 0.14159 0.36559 0.0
N626 N 0.27054 0.08995 0.39869 0.0
C627 C 0.26537 0.11353 0.41634 0.0
C628 C 0.27162 0.14149 0.39841 0.0
C629 C 0.39296 0.79413 0.8496 0.0
C630 C 0.35538 0.77827 0.84951 0.0
C631 C 0.41512 0.79466 0.8786 0.0
C632 C 0.40062 0.77928 0.90863 0.0
H633 H 0.40581 0.80566 0.82685 0.0
H634 H 0.44425 0.80666 0.8773 0.0
S635 S 0.30252 0.7366 0.9225 0.0
N636 N 0.30358 0.74835 0.8826 0.0
N637 N 0.34542 0.74922 0.93712 0.0
C638 C 0.36277 0.76384 0.90912 0.0
C639 C 0.34013 0.76336 0.87959 0.0
C640 C 0.78051 0.89614 0.3964 0.0
C641 C 0.80497 0.87387 0.40339 0.0
C642 C 0.7775 0.91845 0.41828 0.0
C643 C 0.7988 0.91924 0.44794 0.0
H644 H 0.76469 0.89691 0.37328 0.0
H645 H 0.7594 0.93573 0.41136 0.0
S646 S 0.86255 0.86371 0.47984 0.0
N647 N 0.84792 0.85244 0.44341 0.0
N648 N 0.84197 0.8941 0.48472 0.0
C649 C 0.8219 0.89631 0.45591 0.0
C650 C 0.82506 0.87371 0.4336 0.0
C651 C 0.64179 0.25845 0.89438 0.0
C652 C 0.67894 0.25035 0.9036 0.0
C653 C 0.61177 0.26018 0.91857 0.0
C654 C 0.61808 0.25408 0.95272 0.0
H655 H 0.63578 0.26321 0.86827 0.0
H656 H 0.58348 0.26635 0.91059 0.0
S657 S 0.71026 0.23358 0.99025 0.0
N658 N 0.72055 0.23727 0.94958 0.0
N659 N 0.66396 0.24056 0.99483 0.0
C660 C 0.65499 0.24627 0.96235 0.0
C661 C 0.68548 0.24438 0.93783 0.0
C662 C 0.24494 0.91124 0.66368 0.0
C663 C 0.23516 0.88488 0.6484 0.0
C664 C 0.2419 0.93843 0.64634 0.0
C665 C 0.22896 0.9401 0.61324 0.0
H666 H 0.25694 0.91087 0.68848 0.0
H667 H 0.25151 0.95828 0.65824 0.0
S668 S 0.1947 0.87734 0.56393 0.0
N669 N 0.20797 0.86214 0.5998 0.0
N670 N 0.20277 0.91295 0.56718 0.0
C671 C 0.21678 0.91385 0.5986 0.0
C672 C 0.21979 0.88631 0.61619 0.0
C673 C 0.66675 0.76396 0.19415 0.0
C674 C 0.70034 0.78456 0.19115 0.0
C675 C 0.6384 0.76294 0.16926 0.0
C676 C 0.64283 0.78235 0.14043 0.0
H677 H 0.66205 0.7489 0.21615 0.0
H678 H 0.61251 0.74718 0.17288 0.0
S679 S 0.72797 0.83805 0.11911 0.0
N680 N 0.73788 0.82336 0.15625 0.0
N681 N 0.68513 0.82115 0.10925 0.0
C682 C 0.67694 0.80245 0.13679 0.0
C683 C 0.70556 0.80361 0.16219 0.0
C684 C 0.77251 0.16035 0.67186 0.0
C685 C 0.79949 0.16034 0.69789 0.0
C686 C 0.77076 0.13869 0.64864 0.0
C687 C 0.79583 0.11624 0.65077 0.0
H688 H 0.7533 0.17758 0.66898 0.0
H689 H 0.75033 0.13993 0.62842 0.0
S690 S 0.86785 0.10439 0.71702 0.0
N691 N 0.84929 0.13469 0.72617 0.0
N692 N 0.84574 0.09391 0.68292 0.0
C693 C 0.82181 0.11544 0.67749 0.0
C694 C 0.8237 0.13749 0.70094 0.0
C695 C 0.42509 0.27285 0.19777 0.0
C696 C 0.38359 0.27054 0.20089 0.0
C697 C 0.44428 0.27147 0.16664 0.0
C698 C 0.42265 0.26758 0.13761 0.0
H699 H 0.44291 0.27615 0.21951 0.0
H700 H 0.47624 0.27343 0.16521 0.0
S701 S 0.3139 0.25957 0.13195 0.0
N702 N 0.32165 0.26352 0.17205 0.0
N703 N 0.35802 0.26126 0.11349 0.0
C704 C 0.38134 0.26519 0.1402 0.0
C705 C 0.36172 0.26661 0.17186 0.0
C706 C 0.8619 0.65682 0.76677 0.0
C707 C 0.87215 0.6814 0.74434 0.0
C708 C 0.87853 0.63056 0.76327 0.0
C709 C 0.90588 0.62776 0.73708 0.0
H710 H 0.84213 0.65824 0.78805 0.0
H711 H 0.87051 0.61247 0.78164 0.0
S712 S 0.94029 0.68496 0.67019 0.0
N713 N 0.90926 0.70063 0.69368 0.0
N714 N 0.94121 0.65154 0.68751 0.0
C715 C 0.91517 0.65179 0.71369 0.0
C716 C 0.89821 0.67854 0.71726 0.0
C717 C 0.93916 0.37591 0.32981 0.0
C718 C 0.89925 0.36812 0.33969 0.0
C719 C 0.95742 0.40428 0.33268 0.0
C720 C 0.93652 0.426 0.34541 0.0
H721 H 0.95618 0.36025 0.31872 0.0
H722 H 0.98792 0.40948 0.32416 0.0
S723 S 0.83241 0.41715 0.37629 0.0
N724 N 0.8402 0.38447 0.3646 0.0
N725 N 0.87434 0.43817 0.36844 0.0
C726 C 0.89696 0.41864 0.35586 0.0
C727 C 0.87838 0.38962 0.35336 0.0
C728 C 0.18205 0.40245 0.74279 0.0
C729 C 0.17483 0.37906 0.72207 0.0
C730 C 0.15628 0.42417 0.74427 0.0
C731 C 0.12228 0.4235 0.72497 0.0
H732 H 0.20791 0.40401 0.75803 0.0
H733 H 0.16344 0.44192 0.76025 0.0
S734 S 0.08925 0.36661 0.66731 0.0
N735 N 0.13093 0.35645 0.68198 0.0
N736 N 0.082 0.39688 0.68537 0.0
C737 C 0.11437 0.40003 0.70449 0.0
C738 C 0.14065 0.37788 0.70297 0.0
C739 C 0.19465 0.62885 0.32782 0.0
C740 C 0.18109 0.65608 0.3332 0.0
C741 C 0.16871 0.60305 0.32976 0.0
C742 C 0.12834 0.60363 0.33699 0.0
H743 H 0.22566 0.62744 0.32242 0.0
H744 H 0.18021 0.58252 0.32555 0.0
S745 S 0.07742 0.6689 0.35184 0.0
N746 N 0.12421 0.68187 0.34525 0.0
N747 N 0.07558 0.6332 0.34893 0.0
C748 C 0.11425 0.63051 0.34231 0.0
C749 C 0.14062 0.65679 0.34044 0.0
C750 C 0.80981 0.89054 0.64872 0.0
C751 C 0.79944 0.89324 0.68255 0.0
C752 C 0.80763 0.91371 0.62452 0.0
C753 C 0.79486 0.94027 0.63331 0.0
H754 H 0.82074 0.87067 0.64107 0.0
H755 H 0.81656 0.91105 0.59885 0.0
S756 S 0.76175 0.95798 0.71757 0.0
N757 N 0.7736 0.92418 0.72297 0.0
N758 N 0.77046 0.96783 0.67746 0.0
C759 C 0.78356 0.94309 0.66671 0.0
C760 C 0.78561 0.91955 0.69134 0.0
C761 C 0.68876 0.23154 0.17906 0.0
C762 C 0.69585 0.2539 0.20102 0.0
C763 C 0.65949 0.23267 0.15511 0.0
C764 C 0.63596 0.25607 0.15251 0.0
H765 H 0.70664 0.21342 0.17988 0.0
H766 H 0.65592 0.2154 0.138 0.0
S767 S 0.6405 0.31842 0.20707 0.0
N768 N 0.67602 0.29915 0.22023 0.0
N769 N 0.61992 0.30089 0.17619 0.0
C770 C 0.64204 0.27806 0.17526 0.0
C771 C 0.67223 0.27707 0.19928 0.0
C772 C 0.2702 0.15302 0.65828 0.0
C773 C 0.25093 0.17728 0.64716 0.0
C774 C 0.26697 0.12723 0.64128 0.0
C775 C 0.24412 0.12458 0.61261 0.0
H776 H 0.28893 0.15426 0.67972 0.0
H777 H 0.28277 0.10929 0.65051 0.0
S778 S 0.18653 0.18132 0.57395 0.0
N779 N 0.20678 0.1965 0.60648 0.0
N780 N 0.20151 0.14839 0.57408 0.0
C781 C 0.224 0.14844 0.60165 0.0
C782 C 0.22726 0.17468 0.61897 0.0
C783 C 0.36925 0.77281 0.16497 0.0
C784 C 0.39178 0.77754 0.19353 0.0
C785 C 0.38731 0.77397 0.13299 0.0
C786 C 0.42839 0.77998 0.12859 0.0
H787 H 0.33757 0.76743 0.16747 0.0
H788 H 0.36919 0.76973 0.11163 0.0
S789 S 0.5004 0.79597 0.19433 0.0
N790 N 0.45729 0.79008 0.21474 0.0
N791 N 0.491 0.7919 0.15455 0.0
C792 C 0.45115 0.78547 0.15658 0.0
C793 C 0.4329 0.78429 0.18911 0.0
C794 C 0.81335 0.15366 0.4363 0.0
C795 C 0.80446 0.14875 0.40283 0.0
C796 C 0.81025 0.13052 0.46114 0.0
C797 C 0.79805 0.10175 0.45337 0.0
H798 H 0.82382 0.1754 0.44317 0.0
H799 H 0.81806 0.13503 0.48648 0.0
S800 S 0.76876 0.07737 0.37047 0.0
N801 N 0.78066 0.113 0.36389 0.0
N802 N 0.77572 0.06956 0.41059 0.0
C803 C 0.78821 0.09658 0.42035 0.0
C804 C 0.79122 0.12007 0.39507 0.0
C805 C 0.40177 0.28804 0.85671 0.0
C806 C 0.3653 0.27177 0.85198 0.0
C807 C 0.42027 0.28641 0.88753 0.0
C808 C 0.40322 0.26822 0.91478 0.0
H809 H 0.41608 0.30231 0.83643 0.0
H810 H 0.44853 0.29913 0.88986 0.0
S811 S 0.30788 0.22129 0.91555 0.0
N812 N 0.31266 0.23696 0.87717 0.0
N813 N 0.34745 0.23395 0.93526 0.0
C814 C 0.36668 0.25189 0.91048 0.0
C815 C 0.34767 0.25372 0.8791 0.0
C816 C 0.28781 0.89851 0.38169 0.0
C817 C 0.26276 0.87211 0.38547 0.0
C818 C 0.28056 0.92261 0.39973 0.0
C819 C 0.24819 0.92108 0.42245 0.0
H820 H 0.31386 0.90028 0.36534 0.0
H821 H 0.30152 0.94204 0.3971 0.0
S822 S 0.17203 0.8579 0.43965 0.0
N823 N 0.2031 0.84653 0.41236 0.0
N824 N 0.1892 0.89191 0.44584 0.0
C825 C 0.22189 0.89534 0.42525 0.0
C826 C 0.22919 0.87086 0.40684 0.0
C827 C 0.69204 0.78524 0.92312 0.0
C828 C 0.68232 0.78156 0.88955 0.0
C829 C 0.6626 0.78495 0.94824 0.0
C830 C 0.62254 0.78085 0.94063 0.0
H831 H 0.72264 0.78887 0.92993 0.0
H832 H 0.67115 0.78805 0.97375 0.0
S833 S 0.5812 0.76896 0.85744 0.0
N834 N 0.62951 0.77274 0.85048 0.0
N835 N 0.57428 0.77238 0.8979 0.0
C836 C 0.61229 0.77683 0.90745 0.0
C837 C 0.64218 0.77719 0.88183 0.0
loop_
_geom_bond_atom_site_label_1
_geom_bond_atom_site_label_2
_geom_bond_distance
_geom_bond_site_symmetry_2
_ccdc_geom_bond_type
P0 O11 1.490 . S
P0 C14 1.812 . S
P0 C20 1.803 . S
P0 C26 1.819 . S
H1 C15 0.941 . S
H2 C16 0.939 . S
H3 C18 0.940 . S
H4 C19 0.940 . S
H5 C21 0.939 . S
H6 C22 0.942 . S
H7 C24 0.940 . S
H8 C25 0.939 . S
H9 C27 0.941 . S
H10 C31 0.939 . S
O11 P0 1.490 . S
H12 C28 0.939 . S
H13 C30 0.940 . S
C14 P0 1.812 . S
C14 C15 1.389 . S
C14 C19 1.391 . S
C15 H1 0.941 . S
C15 C14 1.389 . S
C15 C16 1.397 . S
C16 H2 0.939 . S
C16 C15 1.397 . S
C16 C17 1.378 . S
C17 C16 1.378 . S
C17 C18 1.378 . S
C18 H3 0.940 . S
C18 C17 1.378 . S
C18 C19 1.396 . S
C19 H4 0.940 . S
C19 C14 1.391 . S
C19 C18 1.396 . S
C20 P0 1.803 . S
C20 C21 1.378 . S
C20 C25 1.400 . S
C21 H5 0.939 . S
C21 C20 1.378 . S
C21 C22 1.361 . S
C22 H6 0.942 . S
C22 C21 1.361 . S
C22 C23 1.369 . S
C23 C22 1.369 . S
C23 C24 1.404 . S
C24 H7 0.940 . S
C24 C23 1.404 . S
C24 C25 1.389 . S
C25 H8 0.939 . S
C25 C20 1.400 . S
C25 C24 1.389 . S
C26 P0 1.819 . S
C26 C27 1.391 . S
C26 C31 1.391 . S
C27 H9 0.941 . S
C27 C26 1.391 . S
C27 C28 1.396 . S
C28 H12 0.939 . S
C28 C27 1.396 . S
C28 C29 1.397 . S
C29 C28 1.397 . S
C29 C30 1.385 . S
C30 H13 0.940 . S
C30 C29 1.385 . S
C30 C31 1.388 . S
C31 H10 0.939 . S
C31 C26 1.391 . S
C31 C30 1.388 . S
P32 O43 1.490 . S
P32 C46 1.812 . S
P32 C52 1.803 . S
P32 C58 1.819 . S
H33 C47 0.941 . S
H34 C48 0.939 . S
H35 C50 0.940 . S
H36 C51 0.940 . S
H37 C53 0.939 . S
H38 C54 0.942 . S
H39 C56 0.940 . S
H40 C57 0.939 . S
H41 C59 0.941 . S
H42 C63 0.939 . S
O43 P32 1.490 . S
H44 C60 0.939 . S
H45 C62 0.940 . S
C46 P32 1.812 . S
C46 C47 1.389 . S
C46 C51 1.391 . S
C47 H33 0.941 . S
C47 C46 1.389 . S
C47 C48 1.397 . S
C48 H34 0.939 . S
C48 C47 1.397 . S
C48 C49 1.378 . S
C49 C48 1.378 . S
C49 C50 1.378 . S
C50 H35 0.940 . S
C50 C49 1.378 . S
C50 C51 1.396 . S
C51 H36 0.940 . S
C51 C46 1.391 . S
C51 C50 1.396 . S
C52 P32 1.803 . S
C52 C53 1.378 . S
C52 C57 1.400 . S
C53 H37 0.939 . S
C53 C52 1.378 . S
C53 C54 1.361 . S
C54 H38 0.942 . S
C54 C53 1.361 . S
C54 C55 1.369 . S
C55 C54 1.369 . S
C55 C56 1.404 . S
C56 H39 0.940 . S
C56 C55 1.404 . S
C56 C57 1.389 . S
C57 H40 0.939 . S
C57 C52 1.400 . S
C57 C56 1.389 . S
C58 P32 1.819 . S
C58 C59 1.391 . S
C58 C63 1.391 . S
C59 H41 0.941 . S
C59 C58 1.391 . S
C59 C60 1.396 . S
C60 H44 0.939 . S
C60 C59 1.396 . S
C60 C61 1.397 . S
C61 C60 1.397 . S
C61 C62 1.385 . S
C62 H45 0.940 . S
C62 C61 1.385 . S
C62 C63 1.388 . S
C63 H42 0.939 . S
C63 C58 1.391 . S
C63 C62 1.388 . S
P64 O75 1.490 . S
P64 C78 1.812 . S
P64 C84 1.803 . S
P64 C90 1.819 . S
H65 C79 0.941 . S
H66 C80 0.939 . S
H67 C82 0.940 . S
H68 C83 0.940 . S
H69 C85 0.939 . S
H70 C86 0.942 . S
H71 C88 0.940 . S
H72 C89 0.939 . S
H73 C91 0.941 . S
H74 C95 0.939 . S
O75 P64 1.490 . S
H76 C92 0.939 . S
H77 C94 0.940 . S
C78 P64 1.812 . S
C78 C79 1.389 . S
C78 C83 1.391 . S
C79 H65 0.941 . S
C79 C78 1.389 . S
C79 C80 1.397 . S
C80 H66 0.939 . S
C80 C79 1.397 . S
C80 C81 1.378 . S
C81 C80 1.378 . S
C81 C82 1.378 . S
C82 H67 0.940 . S
C82 C81 1.378 . S
C82 C83 1.396 . S
C83 H68 0.940 . S
C83 C78 1.391 . S
C83 C82 1.396 . S
C84 P64 1.803 . S
C84 C85 1.378 . S
C84 C89 1.400 . S
C85 H69 0.939 . S
C85 C84 1.378 . S
C85 C86 1.361 . S
C86 H70 0.942 . S
C86 C85 1.361 . S
C86 C87 1.369 . S
C87 C86 1.369 . S
C87 C88 1.404 . S
C88 H71 0.940 . S
C88 C87 1.404 . S
C88 C89 1.389 . S
C89 H72 0.939 . S
C89 C84 1.400 . S
C89 C88 1.389 . S
C90 P64 1.819 . S
C90 C91 1.391 . S
C90 C95 1.391 . S
C91 H73 0.941 . S
C91 C90 1.391 . S
C91 C92 1.396 . S
C92 H76 0.939 . S
C92 C91 1.396 . S
C92 C93 1.397 . S
C93 C92 1.397 . S
C93 C94 1.385 . S
C94 H77 0.940 . S
C94 C93 1.385 . S
C94 C95 1.388 . S
C95 H74 0.939 . S
C95 C90 1.391 . S
C95 C94 1.388 . S
P96 O107 1.490 . S
P96 C110 1.812 . S
P96 C116 1.803 . S
P96 C122 1.819 . S
H97 C111 0.941 . S
H98 C112 0.939 . S
H99 C114 0.940 . S
H100 C115 0.940 . S
H101 C117 0.939 . S
H102 C118 0.942 . S
H103 C120 0.940 . S
H104 C121 0.939 . S
H105 C123 0.941 . S
H106 C127 0.939 . S
O107 P96 1.490 . S
H108 C124 0.939 . S
H109 C126 0.940 . S
C110 P96 1.812 . S
C110 C111 1.389 . S
C110 C115 1.391 . S
C111 H97 0.941 . S
C111 C110 1.389 . S
C111 C112 1.397 . S
C112 H98 0.939 . S
C112 C111 1.397 . S
C112 C113 1.378 . S
C113 C112 1.378 . S
C113 C114 1.378 . S
C114 H99 0.940 . S
C114 C113 1.378 . S
C114 C115 1.396 . S
C115 H100 0.940 . S
C115 C110 1.391 . S
C115 C114 1.396 . S
C116 P96 1.803 . S
C116 C117 1.378 . S
C116 C121 1.400 . S
C117 H101 0.939 . S
C117 C116 1.378 . S
C117 C118 1.361 . S
C118 H102 0.942 . S
C118 C117 1.361 . S
C118 C119 1.369 . S
C119 C118 1.369 . S
C119 C120 1.404 . S
C120 H103 0.940 . S
C120 C119 1.404 . S
C120 C121 1.389 . S
C121 H104 0.939 . S
C121 C116 1.400 . S
C121 C120 1.389 . S
C122 P96 1.819 . S
C122 C123 1.391 . S
C122 C127 1.391 . S
C123 H105 0.941 . S
C123 C122 1.391 . S
C123 C124 1.396 . S
C124 H108 0.939 . S
C124 C123 1.396 . S
C124 C125 1.397 . S
C125 C124 1.397 . S
C125 C126 1.385 . S
C126 H109 0.940 . S
C126 C125 1.385 . S
C126 C127 1.388 . S
C127 H106 0.939 . S
C127 C122 1.391 . S
C127 C126 1.388 . S
P128 O139 1.490 . S
P128 C142 1.812 . S
P128 C148 1.803 . S
P128 C154 1.819 . S
H129 C143 0.941 . S
H130 C144 0.939 . S
H131 C146 0.940 . S
H132 C147 0.940 . S
H133 C149 0.939 . S
H134 C150 0.942 . S
H135 C152 0.940 . S
H136 C153 0.939 . S
H137 C155 0.941 . S
H138 C159 0.939 . S
O139 P128 1.490 . S
H140 C156 0.939 . S
H141 C158 0.940 . S
C142 P128 1.812 . S
C142 C143 1.389 . S
C142 C147 1.391 . S
C143 H129 0.941 . S
C143 C142 1.389 . S
C143 C144 1.397 . S
C144 H130 0.939 . S
C144 C143 1.397 . S
C144 C145 1.378 . S
C145 C144 1.378 . S
C145 C146 1.378 . S
C146 H131 0.940 . S
C146 C145 1.378 . S
C146 C147 1.396 . S
C147 H132 0.940 . S
C147 C142 1.391 . S
C147 C146 1.396 . S
C148 P128 1.803 . S
C148 C149 1.378 . S
C148 C153 1.400 . S
C149 H133 0.939 . S
C149 C148 1.378 . S
C149 C150 1.361 . S
C150 H134 0.942 . S
C150 C149 1.361 . S
C150 C151 1.369 . S
C151 C150 1.369 . S
C151 C152 1.404 . S
C152 H135 0.940 . S
C152 C151 1.404 . S
C152 C153 1.389 . S
C153 H136 0.939 . S
C153 C148 1.400 . S
C153 C152 1.389 . S
C154 P128 1.819 . S
C154 C155 1.391 . S
C154 C159 1.391 . S
C155 H137 0.941 . S
C155 C154 1.391 . S
C155 C156 1.396 . S
C156 H140 0.939 . S
C156 C155 1.396 . S
C156 C157 1.397 . S
C157 C156 1.397 . S
C157 C158 1.385 . S
C158 H141 0.940 . S
C158 C157 1.385 . S
C158 C159 1.388 . S
C159 H138 0.939 . S
C159 C154 1.391 . S
C159 C158 1.388 . S
P160 O171 1.490 . S
P160 C174 1.812 . S
P160 C180 1.803 . S
P160 C186 1.819 . S
H161 C175 0.941 . S
H162 C176 0.939 . S
H163 C178 0.940 . S
H164 C179 0.940 . S
H165 C181 0.939 . S
H166 C182 0.942 . S
H167 C184 0.940 . S
H168 C185 0.939 . S
H169 C187 0.941 . S
H170 C191 0.939 . S
O171 P160 1.490 . S
H172 C188 0.939 . S
H173 C190 0.940 . S
C174 P160 1.812 . S
C174 C175 1.389 . S
C174 C179 1.391 . S
C175 H161 0.941 . S
C175 C174 1.389 . S
C175 C176 1.397 . S
C176 H162 0.939 . S
C176 C175 1.397 . S
C176 C177 1.378 . S
C177 C176 1.378 . S
C177 C178 1.378 . S
C178 H163 0.940 . S
C178 C177 1.378 . S
C178 C179 1.396 . S
C179 H164 0.940 . S
C179 C174 1.391 . S
C179 C178 1.396 . S
C180 P160 1.803 . S
C180 C181 1.378 . S
C180 C185 1.400 . S
C181 H165 0.939 . S
C181 C180 1.378 . S
C181 C182 1.361 . S
C182 H166 0.942 . S
C182 C181 1.361 . S
C182 C183 1.369 . S
C183 C182 1.369 . S
C183 C184 1.404 . S
C184 H167 0.940 . S
C184 C183 1.404 . S
C184 C185 1.389 . S
C185 H168 0.939 . S
C185 C180 1.400 . S
C185 C184 1.389 . S
C186 P160 1.819 . S
C186 C187 1.391 . S
C186 C191 1.391 . S
C187 H169 0.941 . S
C187 C186 1.391 . S
C187 C188 1.396 . S
C188 H172 0.939 . S
C188 C187 1.396 . S
C188 C189 1.397 . S
C189 C188 1.397 . S
C189 C190 1.385 . S
C190 H173 0.940 . S
C190 C189 1.385 . S
C190 C191 1.388 . S
C191 H170 0.939 . S
C191 C186 1.391 . S
C191 C190 1.388 . S
P192 O203 1.490 . S
P192 C206 1.812 . S
P192 C212 1.803 . S
P192 C218 1.819 . S
H193 C207 0.941 . S
H194 C208 0.939 . S
H195 C210 0.940 . S
H196 C211 0.940 . S
H197 C213 0.939 . S
H198 C214 0.942 . S
H199 C216 0.940 . S
H200 C217 0.939 . S
H201 C219 0.941 . S
H202 C223 0.939 . S
O203 P192 1.490 . S
H204 C220 0.939 . S
H205 C222 0.940 . S
C206 P192 1.812 . S
C206 C207 1.389 . S
C206 C211 1.391 . S
C207 H193 0.941 . S
C207 C206 1.389 . S
C207 C208 1.397 . S
C208 H194 0.939 . S
C208 C207 1.397 . S
C208 C209 1.378 . S
C209 C208 1.378 . S
C209 C210 1.378 . S
C210 H195 0.940 . S
C210 C209 1.378 . S
C210 C211 1.396 . S
C211 H196 0.940 . S
C211 C206 1.391 . S
C211 C210 1.396 . S
C212 P192 1.803 . S
C212 C213 1.378 . S
C212 C217 1.400 . S
C213 H197 0.939 . S
C213 C212 1.378 . S
C213 C214 1.361 . S
C214 H198 0.942 . S
C214 C213 1.361 . S
C214 C215 1.369 . S
C215 C214 1.369 . S
C215 C216 1.404 . S
C216 H199 0.940 . S
C216 C215 1.404 . S
C216 C217 1.389 . S
C217 H200 0.939 . S
C217 C212 1.400 . S
C217 C216 1.389 . S
C218 P192 1.819 . S
C218 C219 1.391 . S
C218 C223 1.391 . S
C219 H201 0.941 . S
C219 C218 1.391 . S
C219 C220 1.396 . S
C220 H204 0.939 . S
C220 C219 1.396 . S
C220 C221 1.397 . S
C221 C220 1.397 . S
C221 C222 1.385 . S
C222 H205 0.940 . S
C222 C221 1.385 . S
C222 C223 1.388 . S
C223 H202 0.939 . S
C223 C218 1.391 . S
C223 C222 1.388 . S
P224 O235 1.490 . S
P224 C238 1.812 . S
P224 C244 1.803 . S
P224 C250 1.819 . S
H225 C239 0.941 . S
H226 C240 0.939 . S
H227 C242 0.940 . S
H228 C243 0.940 . S
H229 C245 0.939 . S
H230 C246 0.942 . S
H231 C248 0.940 . S
H232 C249 0.939 . S
H233 C251 0.941 . S
H234 C255 0.939 . S
O235 P224 1.490 . S
H236 C252 0.939 . S
H237 C254 0.940 . S
C238 P224 1.812 . S
C238 C239 1.389 . S
C238 C243 1.391 . S
C239 H225 0.941 . S
C239 C238 1.389 . S
C239 C240 1.397 . S
C240 H226 0.939 . S
C240 C239 1.397 . S
C240 C241 1.378 . S
C241 C240 1.378 . S
C241 C242 1.378 . S
C242 H227 0.940 . S
C242 C241 1.378 . S
C242 C243 1.396 . S
C243 H228 0.940 . S
C243 C238 1.391 . S
C243 C242 1.396 . S
C244 P224 1.803 . S
C244 C245 1.378 . S
C244 C249 1.400 . S
C245 H229 0.939 . S
C245 C244 1.378 . S
C245 C246 1.361 . S
C246 H230 0.942 . S
C246 C245 1.361 . S
C246 C247 1.369 . S
C247 C246 1.369 . S
C247 C248 1.404 . S
C248 H231 0.940 . S
C248 C247 1.404 . S
C248 C249 1.389 . S
C249 H232 0.939 . S
C249 C244 1.400 . S
C249 C248 1.389 . S
C250 P224 1.819 . S
C250 C251 1.391 . S
C250 C255 1.391 . S
C251 H233 0.941 . S
C251 C250 1.391 . S
C251 C252 1.396 . S
C252 H236 0.939 . S
C252 C251 1.396 . S
C252 C253 1.397 . S
C253 C252 1.397 . S
C253 C254 1.385 . S
C254 H237 0.940 . S
C254 C253 1.385 . S
C254 C255 1.388 . S
C255 H234 0.939 . S
C255 C250 1.391 . S
C255 C254 1.388 . S
C256 C257 1.443 . S
C256 N260 1.376 . S
C256 C294 1.389 . S
C257 C256 1.443 . S
C257 C258 1.340 . S
C257 H297 0.951 . S
C258 C257 1.340 . S
C258 C259 1.439 . S
C258 H298 0.950 . S
C259 C258 1.439 . S
C259 N260 1.374 . S
C259 C293 1.395 . S
N260 C256 1.376 . S
N260 C259 1.374 . S
N260 Co261 2.008 . S
Co261 N260 2.008 . S
Co261 N262 1.995 . S
Co261 N267 2.008 . S
Co261 N272 1.995 . S
Co261 N277 2.282 . S
Co261 N283 2.282 1_455 S
N262 Co261 1.995 . S
N262 C263 1.376 . S
N262 C266 1.383 1_455 S
C263 N262 1.376 . S
C263 C264 1.446 1_455 S
C263 C293 1.391 . S
C264 C263 1.446 1_655 S
C264 C265 1.339 . S
C264 H299 0.949 . S
C265 C264 1.339 . S
C265 C266 1.439 . S
C265 H300 0.950 . S
C266 N262 1.383 1_655 S
C266 C265 1.439 . S
C266 C295 1.392 . S
N267 Co261 2.008 . S
N267 C268 1.376 1_455 S
N267 C271 1.374 . S
C268 N267 1.376 1_655 S
C268 C269 1.443 . S
C268 C295 1.389 . S
C269 C268 1.443 . S
C269 C270 1.343 . S
C269 H301 0.951 . S
C270 C269 1.343 . S
C270 C271 1.436 1_655 S
C270 H302 0.950 . S
C271 N267 1.374 . S
C271 C270 1.436 1_455 S
C271 C296 1.395 . S
N272 Co261 1.995 . S
N272 C273 1.376 . S
N272 C276 1.383 . S
C273 N272 1.376 . S
C273 C274 1.446 . S
C273 C296 1.391 . S
C274 C273 1.446 . S
C274 C275 1.339 . S
C274 H303 0.949 . S
C275 C274 1.339 . S
C275 C276 1.439 . S
C275 H304 0.950 . S
C276 N272 1.383 . S
C276 C275 1.439 . S
C276 C294 1.392 . S
N277 Co261 2.282 . S
N277 C280 1.332 . S
N277 C282 1.332 . S
C278 C279 1.386 . S
C278 C281 1.388 . S
C279 C278 1.386 . S
C279 C280 1.382 . S
C279 H305 0.950 . S
C280 N277 1.332 . S
C280 C279 1.382 . S
C280 H291 0.952 . S
C281 C278 1.388 . S
C281 C282 1.382 . S
C281 H306 0.950 . S
C282 N277 1.332 . S
C282 C281 1.382 . S
C282 H292 0.948 . S
N283 Co261 2.282 1_655 S
N283 C287 1.332 . S
N283 C288 1.332 . S
C284 C285 1.388 . S
C284 C288 1.382 . S
C284 H307 0.950 . S
C285 C284 1.388 . S
C285 C286 1.386 . S
C286 C285 1.386 . S
C286 C287 1.382 . S
C286 H308 0.950 . S
C287 N283 1.332 . S
C287 C286 1.382 . S
C287 H289 0.952 . S
C288 N283 1.332 . S
C288 C284 1.382 . S
C288 H290 0.948 1_655 S
H289 C287 0.952 . S
H290 C288 0.948 1_455 S
H291 C280 0.952 . S
H292 C282 0.948 . S
C293 C259 1.395 . S
C293 C263 1.391 . S
C294 C256 1.389 . S
C294 C276 1.392 . S
C295 C266 1.392 . S
C295 C268 1.389 . S
C296 C271 1.395 . S
C296 C273 1.391 . S
H297 C257 0.951 . S
H298 C258 0.950 . S
H299 C264 0.949 . S
H300 C265 0.950 . S
H301 C269 0.951 . S
H302 C270 0.950 . S
H303 C274 0.949 . S
H304 C275 0.950 . S
H305 C279 0.950 . S
H306 C281 0.950 . S
H307 C284 0.950 . S
H308 C286 0.950 . S
C309 C310 1.443 . S
C309 N313 1.376 . S
C309 C347 1.389 . S
C310 C309 1.443 . S
C310 C311 1.340 . S
C310 H350 0.951 . S
C311 C310 1.340 . S
C311 C312 1.439 . S
C311 H351 0.950 . S
C312 C311 1.439 . S
C312 N313 1.374 . S
C312 C346 1.395 . S
N313 C309 1.376 . S
N313 C312 1.374 . S
N313 Co314 2.008 . S
Co314 N313 2.008 . S
Co314 N315 1.995 1_455 S
Co314 N320 2.008 1_455 S
Co314 N325 1.995 . S
Co314 N330 2.282 . S
Co314 N336 2.282 1_455 S
N315 Co314 1.995 1_655 S
N315 C316 1.376 . S
N315 C319 1.383 . S
C316 N315 1.376 . S
C316 C317 1.446 . S
C316 C346 1.391 1_655 S
C317 C316 1.446 . S
C317 C318 1.339 . S
C317 H352 0.949 . S
C318 C317 1.339 . S
C318 C319 1.439 . S
C318 H353 0.950 . S
C319 N315 1.383 . S
C319 C318 1.439 . S
C319 C348 1.392 . S
N320 Co314 2.008 1_655 S
N320 C321 1.376 . S
N320 C324 1.374 . S
C321 N320 1.376 . S
C321 C322 1.443 . S
C321 C348 1.389 . S
C322 C321 1.443 . S
C322 C323 1.340 . S
C322 H354 0.951 . S
C323 C322 1.340 . S
C323 C324 1.439 . S
C323 H355 0.950 . S
C324 N320 1.374 . S
C324 C323 1.439 . S
C324 C349 1.395 1_655 S
N325 Co314 1.995 . S
N325 C326 1.376 . S
N325 C329 1.383 . S
C326 N325 1.376 . S
C326 C327 1.446 . S
C326 C349 1.391 . S
C327 C326 1.446 . S
C327 C328 1.339 . S
C327 H356 0.949 . S
C328 C327 1.339 . S
C328 C329 1.439 . S
C328 H357 0.950 . S
C329 N325 1.383 . S
C329 C328 1.439 . S
C329 C347 1.392 . S
N330 Co314 2.282 . S
N330 C333 1.332 . S
N330 C335 1.332 . S
C331 C332 1.386 . S
C331 C334 1.388 . S
C332 C331 1.386 . S
C332 C333 1.382 . S
C332 H358 0.950 . S
C333 N330 1.332 . S
C333 C332 1.382 . S
C333 H344 0.952 . S
C334 C331 1.388 . S
C334 C335 1.382 . S
C334 H359 0.950 . S
C335 N330 1.332 . S
C335 C334 1.382 . S
C335 H345 0.948 . S
N336 Co314 2.282 1_655 S
N336 C340 1.332 . S
N336 C341 1.332 . S
C337 C338 1.388 . S
C337 C341 1.382 . S
C337 H360 0.950 . S
C338 C337 1.388 . S
C338 C339 1.386 . S
C339 C338 1.386 . S
C339 C340 1.382 . S
C339 H361 0.950 . S
C340 N336 1.332 . S
C340 C339 1.382 . S
C340 H342 0.952 . S
C341 N336 1.332 . S
C341 C337 1.382 . S
C341 H343 0.948 . S
H342 C340 0.952 . S
H343 C341 0.948 . S
H344 C333 0.952 . S
H345 C335 0.948 . S
C346 C312 1.395 . S
C346 C316 1.391 1_455 S
C347 C309 1.389 . S
C347 C329 1.392 . S
C348 C319 1.392 . S
C348 C321 1.389 . S
C349 C324 1.395 1_455 S
C349 C326 1.391 . S
H350 C310 0.951 . S
H351 C311 0.950 . S
H352 C317 0.949 . S
H353 C318 0.950 . S
H354 C322 0.951 . S
H355 C323 0.950 . S
H356 C327 0.949 . S
H357 C328 0.950 . S
H358 C332 0.950 . S
H359 C334 0.950 . S
H360 C337 0.950 . S
H361 C339 0.950 . S
C362 C363 1.443 . S
C362 N366 1.376 . S
C362 C400 1.389 . S
C363 C362 1.443 . S
C363 C364 1.340 . S
C363 H403 0.951 . S
C364 C363 1.340 . S
C364 C365 1.462 . S
C364 H404 0.950 . S
C365 C364 1.462 . S
C365 N366 1.374 . S
C365 C399 1.377 1_565 S
N366 C362 1.376 . S
N366 C365 1.374 . S
N366 Co367 2.008 1_565 S
Co367 N366 2.008 1_545 S
Co367 N368 1.995 . S
Co367 N373 2.008 . S
Co367 N378 1.995 1_545 S
Co367 N383 2.282 . S
Co367 N389 2.282 1_545 S
N368 Co367 1.995 . S
N368 C369 1.376 . S
N368 C372 1.383 . S
C369 N368 1.376 . S
C369 C370 1.446 . S
C369 C399 1.391 . S
C370 C369 1.446 . S
C370 C371 1.339 . S
C370 H405 0.949 . S
C371 C370 1.339 . S
C371 C372 1.439 . S
C371 H406 0.950 . S
C372 N368 1.383 . S
C372 C371 1.439 . S
C372 C401 1.392 . S
N373 Co367 2.008 . S
N373 C374 1.376 . S
N373 C377 1.374 . S
C374 N373 1.376 . S
C374 C375 1.443 . S
C374 C401 1.389 . S
C375 C374 1.443 . S
C375 C376 1.340 . S
C375 H407 0.951 . S
C376 C375 1.340 . S
C376 C377 1.439 . S
C376 H408 0.950 . S
C377 N373 1.374 . S
C377 C376 1.439 . S
C377 C402 1.395 . S
N378 Co367 1.995 1_565 S
N378 C379 1.376 . S
N378 C382 1.383 . S
C379 N378 1.376 . S
C379 C380 1.446 . S
C379 C402 1.391 1_565 S
C380 C379 1.446 . S
C380 C381 1.339 . S
C380 H409 0.949 . S
C381 C380 1.339 . S
C381 C382 1.439 . S
C381 H410 0.950 . S
C382 N378 1.383 . S
C382 C381 1.439 . S
C382 C400 1.392 . S
N383 Co367 2.282 . S
N383 C386 1.332 . S
N383 C388 1.332 . S
C384 C385 1.386 . S
C384 C387 1.388 . S
C385 C384 1.386 . S
C385 C386 1.382 . S
C385 H411 0.950 . S
C386 N383 1.332 . S
C386 C385 1.382 . S
C386 H397 0.952 . S
C387 C384 1.388 . S
C387 C388 1.382 . S
C387 H412 0.950 . S
C388 N383 1.332 . S
C388 C387 1.382 . S
C388 H398 0.948 . S
N389 Co367 2.282 1_565 S
N389 C393 1.332 . S
N389 C394 1.332 . S
C390 C391 1.388 . S
C390 C394 1.382 . S
C390 H413 0.950 . S
C391 C390 1.388 . S
C391 C392 1.386 . S
C392 C391 1.386 . S
C392 C393 1.382 . S
C392 H414 0.950 . S
C393 N389 1.332 . S
C393 C392 1.382 . S
C393 H395 0.952 . S
C394 N389 1.332 . S
C394 C390 1.382 . S
C394 H396 0.948 . S
H395 C393 0.952 . S
H396 C394 0.948 . S
H397 C386 0.952 . S
H398 C388 0.948 . S
C399 C365 1.377 1_545 S
C399 C369 1.391 . S
C400 C362 1.389 . S
C400 C382 1.392 . S
C401 C372 1.392 . S
C401 C374 1.389 . S
C402 C377 1.395 . S
C402 C379 1.391 1_545 S
H403 C363 0.951 . S
H404 C364 0.950 . S
H405 C370 0.949 . S
H406 C371 0.950 . S
H407 C375 0.951 . S
H408 C376 0.950 . S
H409 C380 0.949 . S
H410 C381 0.950 . S
H411 C385 0.950 . S
H412 C387 0.950 . S
H413 C390 0.950 . S
H414 C392 0.950 . S
C415 C416 1.443 . S
C415 N419 1.376 . S
C415 C453 1.389 . S
C416 C415 1.443 . S
C416 C417 1.340 . S
C416 H456 0.951 . S
C417 C416 1.340 . S
C417 C418 1.439 . S
C417 H457 0.950 . S
C418 C417 1.439 . S
C418 N419 1.374 . S
C418 C452 1.395 . S
N419 C415 1.376 . S
N419 C418 1.374 . S
N419 Co420 2.008 . S
Co420 N419 2.008 . S
Co420 N421 1.994 . S
Co420 N426 2.005 1_554 S
Co420 N431 1.995 . S
Co420 N436 2.282 1_554 S
Co420 N442 2.282 . S
N421 Co420 1.994 . S
N421 C422 1.376 . S
N421 C425 1.384 1_554 S
C422 N421 1.376 . S
C422 C423 1.446 1_554 S
C422 C452 1.391 . S
C423 C422 1.446 1_556 S
C423 C424 1.339 . S
C423 H458 0.949 . S
C424 C423 1.339 . S
C424 C425 1.439 . S
C424 H459 0.950 . S
C425 N421 1.384 1_556 S
C425 C424 1.439 . S
C425 C454 1.392 . S
N426 Co420 2.005 1_556 S
N426 C427 1.381 . S
N426 C430 1.374 1_556 S
C427 N426 1.381 . S
C427 C428 1.443 . S
C427 C454 1.389 . S
C428 C427 1.443 . S
C428 C429 1.340 . S
C428 H460 0.951 . S
C429 C428 1.340 . S
C429 C430 1.439 1_556 S
C429 H461 0.950 . S
C430 N426 1.374 1_554 S
C430 C429 1.439 1_554 S
C430 C455 1.395 . S
N431 Co420 1.995 . S
N431 C432 1.376 . S
N431 C435 1.383 . S
C432 N431 1.376 . S
C432 C433 1.446 . S
C432 C455 1.391 . S
C433 C432 1.446 . S
C433 C434 1.339 . S
C433 H462 0.949 . S
C434 C433 1.339 . S
C434 C435 1.439 . S
C434 H463 0.950 . S
C435 N431 1.383 . S
C435 C434 1.439 . S
C435 C453 1.392 . S
N436 Co420 2.282 1_556 S
N436 C439 1.332 . S
N436 C441 1.332 . S
C437 C438 1.386 . S
C437 C440 1.388 . S
C438 C437 1.386 . S
C438 C439 1.382 . S
C438 H464 0.950 . S
C439 N436 1.332 . S
C439 C438 1.382 . S
C439 H450 0.952 . S
C440 C437 1.388 . S
C440 C441 1.382 . S
C440 H465 0.950 . S
C441 N436 1.332 . S
C441 C440 1.382 . S
C441 H451 0.948 . S
N442 Co420 2.282 . S
N442 C446 1.332 . S
N442 C447 1.332 . S
C443 C444 1.388 . S
C443 C447 1.382 . S
C443 H466 0.950 . S
C444 C443 1.388 . S
C444 C445 1.386 . S
C445 C444 1.386 . S
C445 C446 1.382 . S
C445 H467 0.950 . S
C446 N442 1.332 . S
C446 C445 1.382 . S
C446 H448 0.952 . S
C447 N442 1.332 . S
C447 C443 1.382 . S
C447 H449 0.948 . S
H448 C446 0.952 . S
H449 C447 0.948 . S
H450 C439 0.952 . S
H451 C441 0.948 . S
C452 C418 1.395 . S
C452 C422 1.391 . S
C453 C415 1.389 . S
C453 C435 1.392 . S
C454 C425 1.392 . S
C454 C427 1.389 . S
C455 C430 1.395 . S
C455 C432 1.391 . S
H456 C416 0.951 . S
H457 C417 0.950 . S
H458 C423 0.949 . S
H459 C424 0.950 . S
H460 C428 0.951 . S
H461 C429 0.950 . S
H462 C433 0.949 . S
H463 C434 0.950 . S
H464 C438 0.950 . S
H465 C440 0.950 . S
H466 C443 0.950 . S
H467 C445 0.950 . S
C468 C469 1.443 . S
C468 N472 1.376 . S
C468 C506 1.389 . S
C469 C468 1.443 . S
C469 C470 1.340 . S
C469 H509 0.951 . S
C470 C469 1.340 . S
C470 C471 1.454 . S
C470 H510 0.950 . S
C471 C470 1.454 . S
C471 N472 1.374 . S
C471 C505 1.383 1_565 S
N472 C468 1.376 . S
N472 C471 1.374 . S
N472 Co473 2.008 1_565 S
Co473 N472 2.008 1_545 S
Co473 N474 1.995 . S
Co473 N479 2.008 . S
Co473 N484 1.995 1_545 S
Co473 N489 2.282 . S
Co473 N495 2.282 1_545 S
N474 Co473 1.995 . S
N474 C475 1.376 . S
N474 C478 1.383 . S
C475 N474 1.376 . S
C475 C476 1.446 . S
C475 C505 1.391 . S
C476 C475 1.446 . S
C476 C477 1.339 . S
C476 H511 0.949 . S
C477 C476 1.339 . S
C477 C478 1.439 . S
C477 H512 0.950 . S
C478 N474 1.383 . S
C478 C477 1.439 . S
C478 C507 1.392 . S
N479 Co473 2.008 . S
N479 C480 1.376 . S
N479 C483 1.374 . S
C480 N479 1.376 . S
C480 C481 1.443 . S
C480 C507 1.389 . S
C481 C480 1.443 . S
C481 C482 1.340 . S
C481 H513 0.951 . S
C482 C481 1.340 . S
C482 C483 1.439 . S
C482 H514 0.950 . S
C483 N479 1.374 . S
C483 C482 1.439 . S
C483 C508 1.395 . S
N484 Co473 1.995 1_565 S
N484 C485 1.376 . S
N484 C488 1.383 . S
C485 N484 1.376 . S
C485 C486 1.446 . S
C485 C508 1.391 1_565 S
C486 C485 1.446 . S
C486 C487 1.339 . S
C486 H515 0.949 . S
C487 C486 1.339 . S
C487 C488 1.439 . S
C487 H516 0.950 . S
C488 N484 1.383 . S
C488 C487 1.439 . S
C488 C506 1.392 . S
N489 Co473 2.282 . S
N489 C492 1.332 . S
N489 C494 1.332 . S
C490 C491 1.386 . S
C490 C493 1.388 . S
C491 C490 1.386 . S
C491 C492 1.382 . S
C491 H517 0.950 . S
C492 N489 1.332 . S
C492 C491 1.382 . S
C492 H503 0.952 . S
C493 C490 1.388 . S
C493 C494 1.382 . S
C493 H518 0.950 . S
C494 N489 1.332 . S
C494 C493 1.382 . S
C494 H504 0.948 . S
N495 Co473 2.282 1_565 S
N495 C499 1.332 . S
N495 C500 1.332 . S
C496 C497 1.388 . S
C496 C500 1.382 . S
C496 H519 0.950 . S
C497 C496 1.388 . S
C497 C498 1.386 . S
C498 C497 1.386 . S
C498 C499 1.382 . S
C498 H520 0.950 . S
C499 N495 1.332 . S
C499 C498 1.382 . S
C499 H501 0.952 . S
C500 N495 1.332 . S
C500 C496 1.382 . S
C500 H502 0.948 . S
H501 C499 0.952 . S
H502 C500 0.948 . S
H503 C492 0.952 . S
H504 C494 0.948 . S
C505 C471 1.383 1_545 S
C505 C475 1.391 . S
C506 C468 1.389 . S
C506 C488 1.392 . S
C507 C478 1.392 . S
C507 C480 1.389 . S
C508 C483 1.395 . S
C508 C485 1.391 1_545 S
H509 C469 0.951 . S
H510 C470 0.950 . S
H511 C476 0.949 . S
H512 C477 0.950 . S
H513 C481 0.951 . S
H514 C482 0.950 . S
H515 C486 0.949 . S
H516 C487 0.950 . S
H517 C491 0.950 . S
H518 C493 0.950 . S
H519 C496 0.950 . S
H520 C498 0.950 . S
C521 C522 1.443 . S
C521 N525 1.376 . S
C521 C559 1.389 . S
C522 C521 1.443 . S
C522 C523 1.340 . S
C522 H562 0.951 . S
C523 C522 1.340 . S
C523 C524 1.439 . S
C523 H563 0.950 . S
C524 C523 1.439 . S
C524 N525 1.374 . S
C524 C558 1.395 . S
N525 C521 1.376 . S
N525 C524 1.374 . S
N525 Co526 2.008 . S
Co526 N525 2.008 . S
Co526 N527 1.995 . S
Co526 N532 2.008 . S
Co526 N537 1.995 . S
Co526 N542 2.282 . S
Co526 N548 2.282 . S
N527 Co526 1.995 . S
N527 C528 1.376 . S
N527 C531 1.383 1_554 S
C528 N527 1.376 . S
C528 C529 1.446 1_554 S
C528 C558 1.391 . S
C529 C528 1.446 1_556 S
C529 C530 1.339 . S
C529 H564 0.949 . S
C530 C529 1.339 . S
C530 C531 1.439 . S
C530 H565 0.950 . S
C531 N527 1.383 1_556 S
C531 C530 1.439 . S
C531 C560 1.392 . S
N532 Co526 2.008 . S
N532 C533 1.376 1_554 S
N532 C536 1.374 . S
C533 N532 1.376 1_556 S
C533 C534 1.443 . S
C533 C560 1.389 . S
C534 C533 1.443 . S
C534 C535 1.340 . S
C534 H566 0.951 . S
C535 C534 1.340 . S
C535 C536 1.439 1_556 S
C535 H567 0.950 . S
C536 N532 1.374 . S
C536 C535 1.439 1_554 S
C536 C561 1.395 . S
N537 Co526 1.995 . S
N537 C538 1.376 . S
N537 C541 1.383 . S
C538 N537 1.376 . S
C538 C539 1.446 . S
C538 C561 1.391 . S
C539 C538 1.446 . S
C539 C540 1.339 . S
C539 H568 0.949 . S
C540 C539 1.339 . S
C540 C541 1.439 . S
C540 H569 0.950 . S
C541 N537 1.383 . S
C541 C540 1.439 . S
C541 C559 1.392 . S
N542 Co526 2.282 . S
N542 C545 1.332 1_554 S
N542 C547 1.332 1_554 S
C543 C544 1.386 . S
C543 C546 1.388 . S
C544 C543 1.386 . S
C544 C545 1.382 . S
C544 H570 0.950 . S
C545 N542 1.332 1_556 S
C545 C544 1.382 . S
C545 H556 0.952 1_556 S
C546 C543 1.388 . S
C546 C547 1.382 . S
C546 H571 0.950 . S
C547 N542 1.332 1_556 S
C547 C546 1.382 . S
C547 H557 0.948 . S
N548 Co526 2.282 . S
N548 C552 1.332 . S
N548 C553 1.332 . S
C549 C550 1.388 . S
C549 C553 1.382 . S
C549 H572 0.950 . S
C550 C549 1.388 . S
C550 C551 1.386 . S
C551 C550 1.386 . S
C551 C552 1.382 . S
C551 H573 0.950 . S
C552 N548 1.332 . S
C552 C551 1.382 . S
C552 H554 0.952 . S
C553 N548 1.332 . S
C553 C549 1.382 . S
C553 H555 0.948 . S
H554 C552 0.952 . S
H555 C553 0.948 . S
H556 C545 0.952 1_554 S
H557 C547 0.948 . S
C558 C524 1.395 . S
C558 C528 1.391 . S
C559 C521 1.389 . S
C559 C541 1.392 . S
C560 C531 1.392 . S
C560 C533 1.389 . S
C561 C536 1.395 . S
C561 C538 1.391 . S
H562 C522 0.951 . S
H563 C523 0.950 . S
H564 C529 0.949 . S
H565 C530 0.950 . S
H566 C534 0.951 . S
H567 C535 0.950 . S
H568 C539 0.949 . S
H569 C540 0.950 . S
H570 C544 0.950 . S
H571 C546 0.950 . S
H572 C549 0.950 . S
H573 C551 0.950 . S
C574 C575 1.369 . S
C574 C576 1.419 . S
C574 H578 0.930 . S
C575 C574 1.369 . S
C575 C584 1.429 . S
C576 C574 1.419 . S
C576 C577 1.363 . S
C576 H579 0.929 . S
C577 C576 1.363 . S
C577 C583 1.428 . S
H578 C574 0.930 . S
H579 C576 0.929 . S
S580 N581 1.613 . S
S580 N582 1.610 . S
N581 S580 1.613 . S
N581 C584 1.350 . S
N582 S580 1.610 . S
N582 C583 1.351 . S
C583 C577 1.428 . S
C583 N582 1.351 . S
C583 C584 1.434 . S
C584 C575 1.429 . S
C584 N581 1.350 . S
C584 C583 1.434 . S
C585 C586 1.369 . S
C585 C587 1.419 . S
C585 H589 0.930 . S
C586 C585 1.369 . S
C586 C595 1.429 . S
C587 C585 1.419 . S
C587 C588 1.363 . S
C587 H590 0.929 . S
C588 C587 1.363 . S
C588 C594 1.428 . S
H589 C585 0.930 . S
H590 C587 0.929 . S
S591 N592 1.613 . S
S591 N593 1.610 . S
N592 S591 1.613 . S
N592 C595 1.350 . S
N593 S591 1.610 . S
N593 C594 1.351 . S
C594 C588 1.428 . S
C594 N593 1.351 . S
C594 C595 1.434 . S
C595 C586 1.429 . S
C595 N592 1.350 . S
C595 C594 1.434 . S
C596 C597 1.369 . S
C596 C598 1.419 . S
C596 H600 0.930 . S
C597 C596 1.369 . S
C597 C606 1.429 . S
C598 C596 1.419 . S
C598 C599 1.363 . S
C598 H601 0.929 . S
C599 C598 1.363 . S
C599 C605 1.428 . S
H600 C596 0.930 . S
H601 C598 0.929 . S
S602 N603 1.613 . S
S602 N604 1.610 . S
N603 S602 1.613 . S
N603 C606 1.350 . S
N604 S602 1.610 . S
N604 C605 1.351 . S
C605 C599 1.428 . S
C605 N604 1.351 . S
C605 C606 1.434 . S
C606 C597 1.429 . S
C606 N603 1.350 . S
C606 C605 1.434 . S
C607 C608 1.369 . S
C607 C609 1.419 . S
C607 H611 0.930 . S
C608 C607 1.369 . S
C608 C617 1.429 . S
C609 C607 1.419 . S
C609 C610 1.363 . S
C609 H612 0.929 . S
C610 C609 1.363 . S
C610 C616 1.428 . S
H611 C607 0.930 . S
H612 C609 0.929 . S
S613 N614 1.613 . S
S613 N615 1.610 . S
N614 S613 1.613 . S
N614 C617 1.350 . S
N615 S613 1.610 . S
N615 C616 1.351 . S
C616 C610 1.428 . S
C616 N615 1.351 . S
C616 C617 1.434 . S
C617 C608 1.429 . S
C617 N614 1.350 . S
C617 C616 1.434 . S
C618 C619 1.369 . S
C618 C620 1.419 . S
C618 H622 0.930 . S
C619 C618 1.369 . S
C619 C628 1.429 . S
C620 C618 1.419 . S
C620 C621 1.363 . S
C620 H623 0.929 . S
C621 C620 1.363 . S
C621 C627 1.428 . S
H622 C618 0.930 . S
H623 C620 0.929 . S
S624 N625 1.613 . S
S624 N626 1.610 . S
N625 S624 1.613 . S
N625 C628 1.350 . S
N626 S624 1.610 . S
N626 C627 1.351 . S
C627 C621 1.428 . S
C627 N626 1.351 . S
C627 C628 1.434 . S
C628 C619 1.429 . S
C628 N625 1.350 . S
C628 C627 1.434 . S
C629 C630 1.369 . S
C629 C631 1.419 . S
C629 H633 0.930 . S
C630 C629 1.369 . S
C630 C639 1.429 . S
C631 C629 1.419 . S
C631 C632 1.363 . S
C631 H634 0.929 . S
C632 C631 1.363 . S
C632 C638 1.428 . S
H633 C629 0.930 . S
H634 C631 0.929 . S
S635 N636 1.613 . S
S635 N637 1.610 . S
N636 S635 1.613 . S
N636 C639 1.350 . S
N637 S635 1.610 . S
N637 C638 1.351 . S
C638 C632 1.428 . S
C638 N637 1.351 . S
C638 C639 1.434 . S
C639 C630 1.429 . S
C639 N636 1.350 . S
C639 C638 1.434 . S
C640 C641 1.369 . S
C640 C642 1.419 . S
C640 H644 0.930 . S
C641 C640 1.369 . S
C641 C650 1.429 . S
C642 C640 1.419 . S
C642 C643 1.363 . S
C642 H645 0.929 . S
C643 C642 1.363 . S
C643 C649 1.428 . S
H644 C640 0.930 . S
H645 C642 0.929 . S
S646 N647 1.613 . S
S646 N648 1.610 . S
N647 S646 1.613 . S
N647 C650 1.350 . S
N648 S646 1.610 . S
N648 C649 1.351 . S
C649 C643 1.428 . S
C649 N648 1.351 . S
C649 C650 1.434 . S
C650 C641 1.429 . S
C650 N647 1.350 . S
C650 C649 1.434 . S
C651 C652 1.369 . S
C651 C653 1.419 . S
C651 H655 0.930 . S
C652 C651 1.369 . S
C652 C661 1.429 . S
C653 C651 1.419 . S
C653 C654 1.363 . S
C653 H656 0.929 . S
C654 C653 1.363 . S
C654 C660 1.428 . S
H655 C651 0.930 . S
H656 C653 0.929 . S
S657 N658 1.613 . S
S657 N659 1.610 . S
N658 S657 1.613 . S
N658 C661 1.350 . S
N659 S657 1.610 . S
N659 C660 1.351 . S
C660 C654 1.428 . S
C660 N659 1.351 . S
C660 C661 1.434 . S
C661 C652 1.429 . S
C661 N658 1.350 . S
C661 C660 1.434 . S
C662 C663 1.369 . S
C662 C664 1.419 . S
C662 H666 0.930 . S
C663 C662 1.369 . S
C663 C672 1.429 . S
C664 C662 1.419 . S
C664 C665 1.363 . S
C664 H667 0.929 . S
C665 C664 1.363 . S
C665 C671 1.428 . S
H666 C662 0.930 . S
H667 C664 0.929 . S
S668 N669 1.613 . S
S668 N670 1.610 . S
N669 S668 1.613 . S
N669 C672 1.350 . S
N670 S668 1.610 . S
N670 C671 1.351 . S
C671 C665 1.428 . S
C671 N670 1.351 . S
C671 C672 1.434 . S
C672 C663 1.429 . S
C672 N669 1.350 . S
C672 C671 1.434 . S
C673 C674 1.369 . S
C673 C675 1.419 . S
C673 H677 0.930 . S
C674 C673 1.369 . S
C674 C683 1.429 . S
C675 C673 1.419 . S
C675 C676 1.363 . S
C675 H678 0.929 . S
C676 C675 1.363 . S
C676 C682 1.428 . S
H677 C673 0.930 . S
H678 C675 0.929 . S
S679 N680 1.613 . S
S679 N681 1.610 . S
N680 S679 1.613 . S
N680 C683 1.350 . S
N681 S679 1.610 . S
N681 C682 1.351 . S
C682 C676 1.428 . S
C682 N681 1.351 . S
C682 C683 1.434 . S
C683 C674 1.429 . S
C683 N680 1.350 . S
C683 C682 1.434 . S
C684 C685 1.369 . S
C684 C686 1.419 . S
C684 H688 0.930 . S
C685 C684 1.369 . S
C685 C694 1.429 . S
C686 C684 1.419 . S
C686 C687 1.363 . S
C686 H689 0.929 . S
C687 C686 1.363 . S
C687 C693 1.428 . S
H688 C684 0.930 . S
H689 C686 0.929 . S
S690 N691 1.613 . S
S690 N692 1.610 . S
N691 S690 1.613 . S
N691 C694 1.350 . S
N692 S690 1.610 . S
N692 C693 1.351 . S
C693 C687 1.428 . S
C693 N692 1.351 . S
C693 C694 1.434 . S
C694 C685 1.429 . S
C694 N691 1.350 . S
C694 C693 1.434 . S
C695 C696 1.369 . S
C695 C697 1.419 . S
C695 H699 0.930 . S
C696 C695 1.369 . S
C696 C705 1.429 . S
C697 C695 1.419 . S
C697 C698 1.363 . S
C697 H700 0.929 . S
C698 C697 1.363 . S
C698 C704 1.428 . S
H699 C695 0.930 . S
H700 C697 0.929 . S
S701 N702 1.613 . S
S701 N703 1.610 . S
N702 S701 1.613 . S
N702 C705 1.350 . S
N703 S701 1.610 . S
N703 C704 1.351 . S
C704 C698 1.428 . S
C704 N703 1.351 . S
C704 C705 1.434 . S
C705 C696 1.429 . S
C705 N702 1.350 . S
C705 C704 1.434 . S
C706 C707 1.369 . S
C706 C708 1.419 . S
C706 H710 0.930 . S
C707 C706 1.369 . S
C707 C716 1.429 . S
C708 C706 1.419 . S
C708 C709 1.363 . S
C708 H711 0.929 . S
C709 C708 1.363 . S
C709 C715 1.428 . S
H710 C706 0.930 . S
H711 C708 0.929 . S
S712 N713 1.613 . S
S712 N714 1.610 . S
N713 S712 1.613 . S
N713 C716 1.350 . S
N714 S712 1.610 . S
N714 C715 1.351 . S
C715 C709 1.428 . S
C715 N714 1.351 . S
C715 C716 1.434 . S
C716 C707 1.429 . S
C716 N713 1.350 . S
C716 C715 1.434 . S
C717 C718 1.369 . S
C717 C719 1.419 . S
C717 H721 0.930 . S
C718 C717 1.369 . S
C718 C727 1.429 . S
C719 C717 1.419 . S
C719 C720 1.363 . S
C719 H722 0.929 . S
C720 C719 1.363 . S
C720 C726 1.428 . S
H721 C717 0.930 . S
H722 C719 0.929 . S
S723 N724 1.613 . S
S723 N725 1.610 . S
N724 S723 1.613 . S
N724 C727 1.350 . S
N725 S723 1.610 . S
N725 C726 1.351 . S
C726 C720 1.428 . S
C726 N725 1.351 . S
C726 C727 1.434 . S
C727 C718 1.429 . S
C727 N724 1.350 . S
C727 C726 1.434 . S
C728 C729 1.369 . S
C728 C730 1.419 . S
C728 H732 0.930 . S
C729 C728 1.369 . S
C729 C738 1.429 . S
C730 C728 1.419 . S
C730 C731 1.363 . S
C730 H733 0.929 . S
C731 C730 1.363 . S
C731 C737 1.428 . S
H732 C728 0.930 . S
H733 C730 0.929 . S
S734 N735 1.613 . S
S734 N736 1.610 . S
N735 S734 1.613 . S
N735 C738 1.350 . S
N736 S734 1.610 . S
N736 C737 1.351 . S
C737 C731 1.428 . S
C737 N736 1.351 . S
C737 C738 1.434 . S
C738 C729 1.429 . S
C738 N735 1.350 . S
C738 C737 1.434 . S
C739 C740 1.369 . S
C739 C741 1.419 . S
C739 H743 0.930 . S
C740 C739 1.369 . S
C740 C749 1.429 . S
C741 C739 1.419 . S
C741 C742 1.363 . S
C741 H744 0.929 . S
C742 C741 1.363 . S
C742 C748 1.428 . S
H743 C739 0.930 . S
H744 C741 0.929 . S
S745 N746 1.613 . S
S745 N747 1.610 . S
N746 S745 1.613 . S
N746 C749 1.350 . S
N747 S745 1.610 . S
N747 C748 1.351 . S
C748 C742 1.428 . S
C748 N747 1.351 . S
C748 C749 1.434 . S
C749 C740 1.429 . S
C749 N746 1.350 . S
C749 C748 1.434 . S
C750 C751 1.369 . S
C750 C752 1.419 . S
C750 H754 0.930 . S
C751 C750 1.369 . S
C751 C760 1.429 . S
C752 C750 1.419 . S
C752 C753 1.363 . S
C752 H755 0.929 . S
C753 C752 1.363 . S
C753 C759 1.428 . S
H754 C750 0.930 . S
H755 C752 0.929 . S
S756 N757 1.613 . S
S756 N758 1.610 . S
N757 S756 1.613 . S
N757 C760 1.350 . S
N758 S756 1.610 . S
N758 C759 1.351 . S
C759 C753 1.428 . S
C759 N758 1.351 . S
C759 C760 1.434 . S
C760 C751 1.429 . S
C760 N757 1.350 . S
C760 C759 1.434 . S
C761 C762 1.369 . S
C761 C763 1.419 . S
C761 H765 0.930 . S
C762 C761 1.369 . S
C762 C771 1.429 . S
C763 C761 1.419 . S
C763 C764 1.363 . S
C763 H766 0.929 . S
C764 C763 1.363 . S
C764 C770 1.428 . S
H765 C761 0.930 . S
H766 C763 0.929 . S
S767 N768 1.613 . S
S767 N769 1.610 . S
N768 S767 1.613 . S
N768 C771 1.350 . S
N769 S767 1.610 . S
N769 C770 1.351 . S
C770 C764 1.428 . S
C770 N769 1.351 . S
C770 C771 1.434 . S
C771 C762 1.429 . S
C771 N768 1.350 . S
C771 C770 1.434 . S
C772 C773 1.369 . S
C772 C774 1.419 . S
C772 H776 0.930 . S
C773 C772 1.369 . S
C773 C782 1.429 . S
C774 C772 1.419 . S
C774 C775 1.363 . S
C774 H777 0.929 . S
C775 C774 1.363 . S
C775 C781 1.428 . S
H776 C772 0.930 . S
H777 C774 0.929 . S
S778 N779 1.613 . S
S778 N780 1.610 . S
N779 S778 1.613 . S
N779 C782 1.350 . S
N780 S778 1.610 . S
N780 C781 1.351 . S
C781 C775 1.428 . S
C781 N780 1.351 . S
C781 C782 1.434 . S
C782 C773 1.429 . S
C782 N779 1.350 . S
C782 C781 1.434 . S
C783 C784 1.369 . S
C783 C785 1.419 . S
C783 H787 0.930 . S
C784 C783 1.369 . S
C784 C793 1.429 . S
C785 C783 1.419 . S
C785 C786 1.363 . S
C785 H788 0.929 . S
C786 C785 1.363 . S
C786 C792 1.428 . S
H787 C783 0.930 . S
H788 C785 0.929 . S
S789 N790 1.613 . S
S789 N791 1.610 . S
N790 S789 1.613 . S
N790 C793 1.350 . S
N791 S789 1.610 . S
N791 C792 1.351 . S
C792 C786 1.428 . S
C792 N791 1.351 . S
C792 C793 1.434 . S
C793 C784 1.429 . S
C793 N790 1.350 . S
C793 C792 1.434 . S
C794 C795 1.369 . S
C794 C796 1.419 . S
C794 H798 0.930 . S
C795 C794 1.369 . S
C795 C804 1.429 . S
C796 C794 1.419 . S
C796 C797 1.363 . S
C796 H799 0.929 . S
C797 C796 1.363 . S
C797 C803 1.428 . S
H798 C794 0.930 . S
H799 C796 0.929 . S
S800 N801 1.613 . S
S800 N802 1.610 . S
N801 S800 1.613 . S
N801 C804 1.350 . S
N802 S800 1.610 . S
N802 C803 1.351 . S
C803 C797 1.428 . S
C803 N802 1.351 . S
C803 C804 1.434 . S
C804 C795 1.429 . S
C804 N801 1.350 . S
C804 C803 1.434 . S
C805 C806 1.369 . S
C805 C807 1.419 . S
C805 H809 0.930 . S
C806 C805 1.369 . S
C806 C815 1.429 . S
C807 C805 1.419 . S
C807 C808 1.363 . S
C807 H810 0.929 . S
C808 C807 1.363 . S
C808 C814 1.428 . S
H809 C805 0.930 . S
H810 C807 0.929 . S
S811 N812 1.613 . S
S811 N813 1.610 . S
N812 S811 1.613 . S
N812 C815 1.350 . S
N813 S811 1.610 . S
N813 C814 1.351 . S
C814 C808 1.428 . S
C814 N813 1.351 . S
C814 C815 1.434 . S
C815 C806 1.429 . S
C815 N812 1.350 . S
C815 C814 1.434 . S
C816 C817 1.369 . S
C816 C818 1.419 . S
C816 H820 0.930 . S
C817 C816 1.369 . S
C817 C826 1.429 . S
C818 C816 1.419 . S
C818 C819 1.363 . S
C818 H821 0.929 . S
C819 C818 1.363 . S
C819 C825 1.428 . S
H820 C816 0.930 . S
H821 C818 0.929 . S
S822 N823 1.613 . S
S822 N824 1.610 . S
N823 S822 1.613 . S
N823 C826 1.350 . S
N824 S822 1.610 . S
N824 C825 1.351 . S
C825 C819 1.428 . S
C825 N824 1.351 . S
C825 C826 1.434 . S
C826 C817 1.429 . S
C826 N823 1.350 . S
C826 C825 1.434 . S
C827 C828 1.369 . S
C827 C829 1.419 . S
C827 H831 0.930 . S
C828 C827 1.369 . S
C828 C837 1.429 . S
C829 C827 1.419 . S
C829 C830 1.363 . S
C829 H832 0.929 . S
C830 C829 1.363 . S
C830 C836 1.428 . S
H831 C827 0.930 . S
H832 C829 0.929 . S
S833 N834 1.613 . S
S833 N835 1.610 . S
N834 S833 1.613 . S
N834 C837 1.350 . S
N835 S833 1.610 . S
N835 C836 1.351 . S
C836 C830 1.428 . S
C836 N835 1.351 . S
C836 C837 1.434 . S
C837 C828 1.429 . S
C837 N834 1.350 . S
C837 C836 1.434 . S
C577 C278 1.544 . S
C575 C23 1.535 . S
C588 C347 1.526 . S
C586 C49 1.507 . S
C599 C285 1.534 . S
C597 C87 1.503 . S
C610 C348 1.543 . S
C608 C125 1.512 . S
C621 C401 1.565 . S
C619 C29 1.563 . S
C632 C437 1.515 . S
C630 C61 1.499 . S
C641 C81 1.497 . S
C643 C497 1.542 . S
C654 C560 1.517 . S
C652 C113 1.473 . S
C665 C400 1.522 . S
C663 C55 1.519 . S
C674 C93 1.472 . S
C676 C444 1.529 . S
C687 C490 1.542 . S
C685 C119 1.489 . S
C698 C559 1.536 . S
C696 C17 1.536 . S
C707 C151 1.518 . S
C709 C338 1.546 . S
C720 C295 1.525 . S
C718 C177 1.507 . S
C729 C215 1.517 . S
C731 C331 1.536 . S
C740 C253 1.517 . S
C742 C294 1.543 . S
C753 C506 1.562 . S
C751 C157 1.496 . S
C764 C550 1.515 . S
C762 C189 1.470 . S
C775 C384 1.542 . S
C773 C209 1.542 . S
C784 C241 1.503 . S
C786 C453 1.517 . S
C797 C507 1.521 . S
C795 C183 1.483 . S
C808 C543 1.528 . S
C806 C221 1.522 . S
C819 C391 1.542 . S
C817 C247 1.543 . S
C828 C145 1.491 . S
C830 C454 1.534 . S
