# Generated by pormake.
# Topology sqc, (4,8)-cn, num edge types: 1
# Building blocks:
#     Node 0, Type 0, BuildingBlock: NAHDIM_clean_linker_0, # of connection points: 4
#     Node 1, Type 0, BuildingBlock: NAHDIM_clean_linker_0, # of connection points: 4
#     Node 2, Type 0, BuildingBlock: NAHDIM_clean_linker_0, # of connection points: 4
#     Node 3, Type 0, BuildingBlock: NAHDIM_clean_linker_0, # of connection points: 4
#     Node 4, Type 0, BuildingBlock: NAHDIM_clean_linker_0, # of connection points: 4
#     Node 5, Type 0, BuildingBlock: NAHDIM_clean_linker_0, # of connection points: 4
#     Node 6, Type 0, BuildingBlock: NAHDIM_clean_linker_0, # of connection points: 4
#     Node 7, Type 0, BuildingBlock: NAHDIM_clean_linker_0, # of connection points: 4
#     Node 8, Type 1, BuildingBlock: TAGTUT_clean_sbu_3, # of connection points: 8
#     Node 9, Type 1, BuildingBlock: TAGTUT_clean_sbu_3, # of connection points: 8
#     Node 10, Type 1, BuildingBlock: TAGTUT_clean_sbu_3, # of connection points: 8
#     Node 11, Type 1, BuildingBlock: TAGTUT_clean_sbu_3, # of connection points: 8
#     Edge 12, Type (0, 1), BuildingBlock: AJUNOK_clean_linker_0, # of connection points: 2
#     Edge 13, Type (0, 1), BuildingBlock: AJUNOK_clean_linker_0, # of connection points: 2
#     Edge 14, Type (0, 1), BuildingBlock: AJUNOK_clean_linker_0, # of connection points: 2
#     Edge 15, Type (0, 1), BuildingBlock: AJUNOK_clean_linker_0, # of connection points: 2
#     Edge 16, Type (0, 1), BuildingBlock: AJUNOK_clean_linker_0, # of connection points: 2
#     Edge 17, Type (0, 1), BuildingBlock: AJUNOK_clean_linker_0, # of connection points: 2
#     Edge 18, Type (0, 1), BuildingBlock: AJUNOK_clean_linker_0, # of connection points: 2
#     Edge 19, Type (0, 1), BuildingBlock: AJUNOK_clean_linker_0, # of connection points: 2
#     Edge 20, Type (0, 1), BuildingBlock: AJUNOK_clean_linker_0, # of connection points: 2
#     Edge 21, Type (0, 1), BuildingBlock: AJUNOK_clean_linker_0, # of connection points: 2
#     Edge 22, Type (0, 1), BuildingBlock: AJUNOK_clean_linker_0, # of connection points: 2
#     Edge 23, Type (0, 1), BuildingBlock: AJUNOK_clean_linker_0, # of connection points: 2
#     Edge 24, Type (0, 1), BuildingBlock: AJUNOK_clean_linker_0, # of connection points: 2
#     Edge 25, Type (0, 1), BuildingBlock: AJUNOK_clean_linker_0, # of connection points: 2
#     Edge 26, Type (0, 1), BuildingBlock: AJUNOK_clean_linker_0, # of connection points: 2
#     Edge 27, Type (0, 1), BuildingBlock: AJUNOK_clean_linker_0, # of connection points: 2
#     Edge 28, Type (0, 1), BuildingBlock: AJUNOK_clean_linker_0, # of connection points: 2
#     Edge 29, Type (0, 1), BuildingBlock: AJUNOK_clean_linker_0, # of connection points: 2
#     Edge 30, Type (0, 1), BuildingBlock: AJUNOK_clean_linker_0, # of connection points: 2
#     Edge 31, Type (0, 1), BuildingBlock: AJUNOK_clean_linker_0, # of connection points: 2
#     Edge 32, Type (0, 1), BuildingBlock: AJUNOK_clean_linker_0, # of connection points: 2
#     Edge 33, Type (0, 1), BuildingBlock: AJUNOK_clean_linker_0, # of connection points: 2
#     Edge 34, Type (0, 1), BuildingBlock: AJUNOK_clean_linker_0, # of connection points: 2
#     Edge 35, Type (0, 1), BuildingBlock: AJUNOK_clean_linker_0, # of connection points: 2
#     Edge 36, Type (0, 1), BuildingBlock: AJUNOK_clean_linker_0, # of connection points: 2
#     Edge 37, Type (0, 1), BuildingBlock: AJUNOK_clean_linker_0, # of connection points: 2
#     Edge 38, Type (0, 1), BuildingBlock: AJUNOK_clean_linker_0, # of connection points: 2
#     Edge 39, Type (0, 1), BuildingBlock: AJUNOK_clean_linker_0, # of connection points: 2
#     Edge 40, Type (0, 1), BuildingBlock: AJUNOK_clean_linker_0, # of connection points: 2
#     Edge 41, Type (0, 1), BuildingBlock: AJUNOK_clean_linker_0, # of connection points: 2
#     Edge 42, Type (0, 1), BuildingBlock: AJUNOK_clean_linker_0, # of connection points: 2
#     Edge 43, Type (0, 1), BuildingBlock: AJUNOK_clean_linker_0, # of connection points: 2
# Relax obj value: 0.119
# Max RMSD: 0.247
# Mean RMSD: 0.120
data_MOF--net-sqc--node1-TAGTUT_clean_sbu_3--node2-NAHDIM_clean_linker_0--edge1-AJUNOK_clean_linker_0
_symmetry_space_group_name_H-M    P1
_symmetry_Int_Tables_number       1
_symmetry_cell_setting            triclinic
loop_
_symmetry_equiv_pos_as_xyz
'x, y, z'
_cell_length_a     25.389242
_cell_length_b     25.423025
_cell_length_c     85.034589
_cell_angle_alpha  90.429379
_cell_angle_beta   89.506637
_cell_angle_gamma 89.965593
loop_
_atom_site_label
_atom_site_type_symbol
_atom_site_fract_x
_atom_site_fract_y
_atom_site_fract_z
_atom_type_partial_charge
C0 C 0.71876 0.98224 0.45922 0.0
C1 C 0.75286 0.94661 0.44866 0.0
C2 C 0.83025 0.91243 0.46289 0.0
C3 C 0.85038 0.86807 0.47039 0.0
C4 C 0.90108 0.86814 0.47687 0.0
C5 C 0.93277 0.91363 0.47564 0.0
C6 C 0.91366 0.95792 0.46746 0.0
C7 C 0.86232 0.95733 0.46146 0.0
C8 C 0.9198 0.82059 0.48571 0.0
C9 C 0.9465 0.00709 0.46572 0.0
C10 C 0.34157 0.81801 0.47771 0.0
C11 C 0.31088 0.816 0.46227 0.0
C12 C 0.2293 0.86773 0.46633 0.0
C13 C 0.20425 0.91467 0.4624 0.0
C14 C 0.15362 0.92674 0.4681 0.0
C15 C 0.12718 0.89067 0.478 0.0
C16 C 0.15138 0.84213 0.4816 0.0
C17 C 0.2024 0.83126 0.47587 0.0
C18 C 0.12911 0.9789 0.46398 0.0
C19 C 0.12402 0.80265 0.49201 0.0
C20 C 0.23524 0.06449 0.56021 0.0
C21 C 0.21627 0.09222 0.54717 0.0
C22 C 0.16502 0.08382 0.54166 0.0
C23 C 0.13261 0.04582 0.54902 0.0
C24 C 0.15081 0.01929 0.56248 0.0
C25 C 0.20177 0.02947 0.56799 0.0
C26 C 0.14611 0.11449 0.52765 0.0
C27 C 0.1171 0.97888 0.57068 0.0
C28 C 0.69989 0.12693 0.54396 0.0
C29 C 0.74444 0.1173 0.55559 0.0
C30 C 0.83939 0.1184 0.54918 0.0
C31 C 0.87613 0.14105 0.539 0.0
C32 C 0.92623 0.11896 0.53684 0.0
C33 C 0.9398 0.07295 0.54514 0.0
C34 C 0.90433 0.05214 0.5564 0.0
C35 C 0.85441 0.0753 0.5584 0.0
C36 C 0.96355 0.1431 0.52502 0.0
C37 C 0.91825 0.00386 0.56568 0.0
C38 C 0.98218 0.91814 0.48483 0.0
C39 C 0.02942 0.89896 0.47835 0.0
C40 C 0.07743 0.9068 0.48604 0.0
C41 C 0.07846 0.93437 0.50057 0.0
C42 C 0.12597 0.94345 0.50854 0.0
C43 C 0.12705 0.97348 0.52227 0.0
C44 C 0.08076 0.99629 0.52847 0.0
C45 C 0.08199 0.03039 0.54171 0.0
C46 C 0.03532 0.05324 0.54739 0.0
C47 C 0.98714 0.04265 0.54018 0.0
C48 C 0.98511 0.00791 0.52713 0.0
C49 C 0.93716 0.99602 0.51975 0.0
C50 C 0.93593 0.96518 0.50622 0.0
C51 C 0.98266 0.94548 0.49938 0.0
C52 C 0.03103 0.95452 0.5071 0.0
C53 C 0.03222 0.98567 0.52104 0.0
C54 C 0.34995 0.05374 0.54549 0.0
C55 C 0.3282 0.09182 0.55799 0.0
O56 O 0.77968 0.9102 0.45766 0.0
O57 O 0.79013 0.13922 0.54948 0.0
O58 O 0.2852 0.06983 0.56566 0.0
O59 O 0.2794 0.86026 0.4609 0.0
H60 H 0.78062 0.97314 0.44243 0.0
H61 H 0.74439 0.01081 0.46547 0.0
H62 H 0.69746 0.95936 0.46833 0.0
H63 H 0.69015 0.00475 0.45209 0.0
H64 H 0.82554 0.83361 0.4715 0.0
H65 H 0.84761 0.99278 0.45612 0.0
H66 H 0.95919 0.80837 0.48125 0.0
H67 H 0.89218 0.7869 0.48464 0.0
H68 H 0.92402 0.83087 0.49836 0.0
H69 H 0.9308 0.03356 0.45654 0.0
H70 H 0.9879 0.99691 0.46269 0.0
H71 H 0.94665 0.02895 0.47707 0.0
H72 H 0.28611 0.78008 0.46252 0.0
H73 H 0.36912 0.78412 0.47834 0.0
H74 H 0.31388 0.81576 0.48785 0.0
H75 H 0.36425 0.85517 0.47879 0.0
H76 H 0.22511 0.9425 0.45503 0.0
H77 H 0.22108 0.79486 0.47921 0.0
H78 H 0.12317 0.00279 0.47483 0.0
H79 H 0.08984 0.97239 0.45867 0.0
H80 H 0.15384 0.00168 0.45562 0.0
H81 H 0.14545 0.76457 0.49242 0.0
H82 H 0.08341 0.79539 0.48775 0.0
H83 H 0.12078 0.81882 0.50415 0.0
H84 H 0.31633 0.12882 0.55214 0.0
H85 H 0.24092 0.12022 0.54109 0.0
H86 H 0.21644 0.00872 0.57815 0.0
H87 H 0.1452 0.08824 0.51717 0.0
H88 H 0.17212 0.14845 0.52497 0.0
H89 H 0.10548 0.12925 0.52977 0.0
H90 H 0.13688 0.96188 0.58108 0.0
H91 H 0.10745 0.94654 0.56233 0.0
H92 H 0.07938 0.99713 0.57455 0.0
H93 H 0.74845 0.07394 0.55669 0.0
H94 H 0.66263 0.1088 0.5482 0.0
H95 H 0.71015 0.10899 0.53238 0.0
H96 H 0.69348 0.16979 0.54232 0.0
H97 H 0.86458 0.17507 0.53223 0.0
H98 H 0.82727 0.059 0.56694 0.0
H99 H 0.96784 0.11636 0.5147 0.0
H100 H 0.00312 0.14816 0.53027 0.0
H101 H 0.94946 0.18192 0.52084 0.0
H102 H 0.88872 0.99541 0.57504 0.0
H103 H 0.95752 0.0089 0.57115 0.0
H104 H 0.92071 0.96936 0.55762 0.0
H105 H 0.02903 0.87923 0.467 0.0
H106 H 0.16309 0.92801 0.50418 0.0
H107 H 0.16489 0.97939 0.52778 0.0
H108 H 0.03676 0.08083 0.55717 0.0
H109 H 0.89996 0.01092 0.52422 0.0
H110 H 0.89781 0.95788 0.50104 0.0
H111 H 0.38512 0.07099 0.53962 0.0
H112 H 0.31973 0.04618 0.53639 0.0
H113 H 0.36107 0.01561 0.55083 0.0
C114 C 0.15904 0.99664 0.80074 0.0
C115 C 0.16441 0.97011 0.81678 0.0
C116 C 0.22417 0.89411 0.81299 0.0
C117 C 0.27368 0.87416 0.81683 0.0
C118 C 0.28964 0.82371 0.81193 0.0
C119 C 0.25522 0.7924 0.80281 0.0
C120 C 0.2046 0.81183 0.79909 0.0
C121 C 0.18955 0.86247 0.80418 0.0
C122 C 0.34387 0.80434 0.81615 0.0
C123 C 0.16697 0.77953 0.78935 0.0
C124 C 0.35389 0.38643 0.82797 0.0
C125 C 0.31096 0.41979 0.83596 0.0
C126 C 0.27965 0.49535 0.82061 0.0
C127 C 0.23522 0.51465 0.81296 0.0
C128 C 0.23389 0.56611 0.80711 0.0
C129 C 0.27844 0.59889 0.80889 0.0
C130 C 0.32244 0.58064 0.8174 0.0
C131 C 0.32296 0.52883 0.82298 0.0
C132 C 0.18637 0.58426 0.79812 0.0
C133 C 0.3706 0.61462 0.81958 0.0
C134 C 0.448 0.48263 0.72689 0.0
C135 C 0.40394 0.50521 0.71966 0.0
C136 C 0.38756 0.55628 0.72368 0.0
C137 C 0.41658 0.58553 0.73485 0.0
C138 C 0.46367 0.56463 0.74101 0.0
C139 C 0.47853 0.51313 0.73701 0.0
C140 C 0.33823 0.57829 0.71646 0.0
C141 C 0.49708 0.59589 0.7523 0.0
C142 C 0.47607 0.98209 0.71981 0.0
C143 C 0.47952 0.94618 0.70524 0.0
C144 C 0.42665 0.86899 0.71259 0.0
C145 C 0.37979 0.84223 0.70958 0.0
C146 C 0.36665 0.79646 0.71778 0.0
C147 C 0.40122 0.7776 0.72937 0.0
C148 C 0.44897 0.80415 0.73243 0.0
C149 C 0.46147 0.84946 0.72392 0.0
C150 C 0.31569 0.76852 0.71417 0.0
C151 C 0.48642 0.78493 0.74483 0.0
C152 C 0.27389 0.74137 0.79609 0.0
C153 C 0.26601 0.69526 0.80475 0.0
C154 C 0.28402 0.64658 0.79904 0.0
C155 C 0.30983 0.64341 0.78426 0.0
C156 C 0.32718 0.59484 0.77803 0.0
C157 C 0.35448 0.59215 0.76384 0.0
C158 C 0.3658 0.63791 0.75531 0.0
C159 C 0.39528 0.63577 0.74113 0.0
C160 C 0.40567 0.68182 0.73289 0.0
C161 C 0.38731 0.73032 0.73845 0.0
C162 C 0.35785 0.73347 0.75261 0.0
C163 C 0.33905 0.78185 0.75852 0.0
C164 C 0.31101 0.78451 0.77264 0.0
C165 C 0.301 0.73894 0.78147 0.0
C166 C 0.31911 0.68978 0.77559 0.0
C167 C 0.34738 0.68703 0.76113 0.0
C168 C 0.44017 0.34184 0.72873 0.0
C169 C 0.42952 0.39153 0.71924 0.0
O170 O 0.21227 0.94404 0.8178 0.0
O171 O 0.43602 0.91361 0.70441 0.0
O172 O 0.46174 0.4315 0.72471 0.0
O173 O 0.27979 0.44383 0.8248 0.0
H174 H 0.13158 0.94147 0.8181 0.0
H175 H 0.15727 0.9665 0.79125 0.0
H176 H 0.19302 0.02282 0.79826 0.0
H177 H 0.12221 0.02022 0.8004 0.0
H178 H 0.30016 0.89867 0.82362 0.0
H179 H 0.15119 0.87714 0.80096 0.0
H180 H 0.34092 0.76555 0.822 0.0
H181 H 0.36482 0.83215 0.82405 0.0
H182 H 0.36776 0.79879 0.80526 0.0
H183 H 0.12801 0.79892 0.78811 0.0
H184 H 0.16113 0.74038 0.7948 0.0
H185 H 0.18414 0.77288 0.77744 0.0
H186 H 0.33157 0.44961 0.84328 0.0
H187 H 0.3754 0.36308 0.83686 0.0
H188 H 0.38258 0.41266 0.82199 0.0
H189 H 0.33742 0.3595 0.81897 0.0
H190 H 0.20198 0.48861 0.81118 0.0
H191 H 0.35831 0.51432 0.82847 0.0
H192 H 0.17367 0.62369 0.80239 0.0
H193 H 0.15278 0.55649 0.79922 0.0
H194 H 0.19696 0.58791 0.78547 0.0
H195 H 0.39705 0.59892 0.82877 0.0
H196 H 0.35898 0.65541 0.82285 0.0
H197 H 0.393 0.61635 0.80833 0.0
H198 H 0.38738 0.40145 0.7214 0.0
H199 H 0.38162 0.48288 0.71113 0.0
H200 H 0.51305 0.49566 0.74227 0.0
H201 H 0.30874 0.58696 0.72585 0.0
H202 H 0.32042 0.55077 0.7078 0.0
H203 H 0.34742 0.61588 0.71047 0.0
H204 H 0.53553 0.57657 0.75452 0.0
H205 H 0.47572 0.60046 0.76367 0.0
H206 H 0.50441 0.63588 0.74759 0.0
H207 H 0.516 0.922 0.70583 0.0
H208 H 0.51064 0.00885 0.72018 0.0
H209 H 0.47588 0.95859 0.73074 0.0
H210 H 0.43952 0.00612 0.71968 0.0
H211 H 0.35336 0.85756 0.70078 0.0
H212 H 0.49814 0.8694 0.72633 0.0
H213 H 0.29021 0.76812 0.72485 0.0
H214 H 0.3239 0.72696 0.71085 0.0
H215 H 0.29379 0.78749 0.70448 0.0
H216 H 0.52164 0.81054 0.74597 0.0
H217 H 0.49953 0.74435 0.74188 0.0
H218 H 0.46584 0.78342 0.75639 0.0
H219 H 0.2464 0.69738 0.81612 0.0
H220 H 0.32012 0.55813 0.78405 0.0
H221 H 0.36696 0.55368 0.75973 0.0
H222 H 0.42867 0.67995 0.72208 0.0
H223 H 0.34597 0.81828 0.75232 0.0
H224 H 0.2977 0.82288 0.77659 0.0
H225 H 0.48214 0.3298 0.72763 0.0
H226 H 0.41478 0.30905 0.72458 0.0
H227 H 0.43114 0.34933 0.74136 0.0
C228 C 0.76064 0.89106 0.12694 0.0
C229 C 0.78186 0.88594 0.11009 0.0
C230 C 0.74734 0.93554 0.08809 0.0
C231 C 0.75225 0.89627 0.07647 0.0
C232 C 0.72194 0.89814 0.06278 0.0
C233 C 0.68621 0.9402 0.0607 0.0
C234 C 0.68335 0.98128 0.07201 0.0
C235 C 0.71469 0.97871 0.08549 0.0
C236 C 0.72678 0.85421 0.05082 0.0
C237 C 0.64554 0.02665 0.07022 0.0
C238 C 0.2957 0.75708 0.03841 0.0
C239 C 0.33094 0.79784 0.04641 0.0
C240 C 0.42633 0.81056 0.04495 0.0
C241 C 0.42604 0.86427 0.04899 0.0
C242 C 0.47145 0.895 0.0471 0.0
C243 C 0.51788 0.87165 0.04094 0.0
C244 C 0.51878 0.81726 0.03732 0.0
C245 C 0.473 0.78726 0.03956 0.0
C246 C 0.46965 0.95262 0.0515 0.0
C247 C 0.56782 0.79108 0.03086 0.0
C248 C 0.46918 0.00511 0.94778 0.0
C249 C 0.46206 0.04237 0.95986 0.0
C250 C 0.50205 0.05188 0.9708 0.0
C251 C 0.54947 0.02275 0.96973 0.0
C252 C 0.5576 0.98714 0.95706 0.0
C253 C 0.51747 0.97948 0.94606 0.0
C254 C 0.49289 0.09147 0.98384 0.0
C255 C 0.6078 0.9557 0.95548 0.0
C256 C 0.95013 0.16593 0.99507 0.0
C257 C 0.91146 0.14762 0.9824 0.0
C258 C 0.81555 0.14523 0.98536 0.0
C259 C 0.77356 0.16859 0.99353 0.0
C260 C 0.7254 0.14211 0.9954 0.0
C261 C 0.71953 0.09099 0.98895 0.0
C262 C 0.76083 0.06842 0.97992 0.0
C263 C 0.80803 0.09612 0.97802 0.0
C264 C 0.68142 0.16801 0.00464 0.0
C265 C 0.75551 0.01462 0.97246 0.0
C266 C 0.64827 0.93857 0.04755 0.0
C267 C 0.60355 0.90717 0.04946 0.0
C268 C 0.56501 0.90456 0.0379 0.0
C269 C 0.57084 0.93409 0.02398 0.0
C270 C 0.53291 0.93196 0.01205 0.0
C271 C 0.53859 0.9617 0.9985 0.0
C272 C 0.58232 0.99495 0.99636 0.0
C273 C 0.58827 0.02556 0.98264 0.0
C274 C 0.6324 0.05776 0.98079 0.0
C275 C 0.6715 0.05973 0.99225 0.0
C276 C 0.66635 0.02936 0.00606 0.0
C277 C 0.70539 0.02971 0.01772 0.0
C278 C 0.69981 0.99977 0.03128 0.0
C279 C 0.65498 0.96835 0.0337 0.0
C280 C 0.61575 0.96649 0.02195 0.0
C281 C 0.62138 0.99713 0.00815 0.0
C282 C 0.35909 0.9311 0.93615 0.0
C283 C 0.37783 0.9841 0.9426 0.0
O284 O 0.77231 0.93221 0.10209 0.0
O285 O 0.86265 0.17068 0.98504 0.0
O286 O 0.42963 0.99193 0.93792 0.0
O287 O 0.38254 0.78011 0.04598 0.0
H288 H 0.75945 0.85271 0.10475 0.0
H289 H 0.71733 0.89717 0.12672 0.0
H290 H 0.77864 0.92496 0.13319 0.0
H291 H 0.76878 0.85454 0.1336 0.0
H292 H 0.77915 0.86377 0.07819 0.0
H293 H 0.71191 0.00918 0.09444 0.0
H294 H 0.69089 0.82935 0.05134 0.0
H295 H 0.76157 0.82879 0.05298 0.0
H296 H 0.72981 0.87051 0.03877 0.0
H297 H 0.64644 0.05411 0.08044 0.0
H298 H 0.60477 0.01156 0.06887 0.0
H299 H 0.65559 0.04896 0.05944 0.0
H300 H 0.32751 0.83442 0.03935 0.0
H301 H 0.25416 0.77088 0.03839 0.0
H302 H 0.29766 0.71869 0.04452 0.0
H303 H 0.30875 0.75115 0.02602 0.0
H304 H 0.39055 0.88241 0.05362 0.0
H305 H 0.47302 0.74564 0.0367 0.0
H306 H 0.47467 0.97671 0.04075 0.0
H307 H 0.50261 0.96236 0.05951 0.0
H308 H 0.43192 0.96384 0.05733 0.0
H309 H 0.56084 0.74944 0.02743 0.0
H310 H 0.59915 0.79232 0.03989 0.0
H311 H 0.58259 0.81273 0.02042 0.0
H312 H 0.3752 0.9816 0.95566 0.0
H313 H 0.42503 0.06339 0.96085 0.0
H314 H 0.5226 0.95137 0.93652 0.0
H315 H 0.48821 0.07054 0.99518 0.0
H316 H 0.4571 0.11562 0.98187 0.0
H317 H 0.52745 0.11798 0.98491 0.0
H318 H 0.60685 0.92773 0.94538 0.0
H319 H 0.61485 0.93323 0.96641 0.0
H320 H 0.64147 0.9829 0.9538 0.0
H321 H 0.90941 0.10429 0.98409 0.0
H322 H 0.99114 0.15478 0.9918 0.0
H323 H 0.94011 0.14669 0.0064 0.0
H324 H 0.9479 0.20898 0.99714 0.0
H325 H 0.77918 0.20704 0.99885 0.0
H326 H 0.83894 0.0787 0.97093 0.0
H327 H 0.67524 0.14666 0.01585 0.0
H328 H 0.6441 0.16578 0.99795 0.0
H329 H 0.69004 0.2099 0.0074 0.0
H330 H 0.79299 0.00062 0.96704 0.0
H331 H 0.72513 0.01613 0.96319 0.0
H332 H 0.74242 0.98552 0.98135 0.0
H333 H 0.5984 0.88482 0.06019 0.0
H334 H 0.49835 0.90725 0.01305 0.0
H335 H 0.50808 0.9583 0.98974 0.0
H336 H 0.63699 0.08059 0.97013 0.0
H337 H 0.74069 0.05325 0.01653 0.0
H338 H 0.731 0.00163 0.03987 0.0
H339 H 0.31784 0.92339 0.93996 0.0
H340 H 0.38443 0.89909 0.9407 0.0
H341 H 0.36117 0.93041 0.92309 0.0
C342 C 0.19238 0.97487 0.2262 0.0
C343 C 0.19417 0.00551 0.21079 0.0
C344 C 0.25334 0.08205 0.21358 0.0
C345 C 0.30244 0.10185 0.20909 0.0
C346 C 0.31773 0.1532 0.21308 0.0
C347 C 0.28263 0.18589 0.22171 0.0
C348 C 0.23249 0.1665 0.22617 0.0
C349 C 0.21863 0.11449 0.2223 0.0
C350 C 0.37169 0.17233 0.20822 0.0
C351 C 0.19396 0.20043 0.23529 0.0
C352 C 0.27168 0.5574 0.15521 0.0
C353 C 0.26204 0.52867 0.17166 0.0
C354 C 0.30416 0.45488 0.18542 0.0
C355 C 0.26186 0.44433 0.19572 0.0
C356 C 0.26499 0.40357 0.20675 0.0
C357 C 0.31109 0.37241 0.20744 0.0
C358 C 0.35334 0.38231 0.19691 0.0
C359 C 0.34937 0.42363 0.18611 0.0
C360 C 0.21928 0.39418 0.21784 0.0
C361 C 0.40292 0.34959 0.19719 0.0
C362 C 0.4972 0.51167 0.28561 0.0
C363 C 0.44621 0.50297 0.2916 0.0
C364 C 0.42087 0.45464 0.28933 0.0
C365 C 0.44739 0.41397 0.28109 0.0
C366 C 0.5 0.42133 0.27595 0.0
C367 C 0.52422 0.47029 0.27828 0.0
C368 C 0.36539 0.44735 0.29545 0.0
C369 C 0.53014 0.3779 0.26769 0.0
C370 C 0.40554 0.02888 0.34092 0.0
C371 C 0.39302 0.06834 0.32858 0.0
C372 C 0.40684 0.15785 0.32126 0.0
C373 C 0.36642 0.19508 0.32185 0.0
C374 C 0.36246 0.23371 0.3102 0.0
C375 C 0.40036 0.23518 0.2979 0.0
C376 C 0.44216 0.19842 0.29755 0.0
C377 C 0.44475 0.15995 0.30922 0.0
C378 C 0.3177 0.27272 0.31096 0.0
C379 C 0.48396 0.19973 0.28483 0.0
C380 C 0.29984 0.23927 0.22672 0.0
C381 C 0.29596 0.28049 0.21597 0.0
C382 C 0.31577 0.33054 0.21949 0.0
C383 C 0.34062 0.33977 0.23409 0.0
C384 C 0.36253 0.38906 0.23783 0.0
C385 C 0.38851 0.39722 0.25199 0.0
C386 C 0.3926 0.35674 0.26309 0.0
C387 C 0.41954 0.36433 0.27742 0.0
C388 C 0.4209 0.32423 0.2885 0.0
C389 C 0.39698 0.2758 0.28555 0.0
C390 C 0.37184 0.26646 0.27101 0.0
C391 C 0.34963 0.21729 0.26736 0.0
C392 C 0.32636 0.20815 0.25284 0.0
C393 C 0.32301 0.2483 0.24158 0.0
C394 C 0.34403 0.29854 0.24517 0.0
C395 C 0.36932 0.30731 0.25979 0.0
C396 C 0.52397 0.64861 0.27827 0.0
C397 C 0.49589 0.60739 0.28834 0.0
O398 O 0.24187 0.0316 0.20935 0.0
O399 O 0.40833 0.11929 0.33215 0.0
O400 O 0.5211 0.5594 0.28642 0.0
O401 O 0.30345 0.4947 0.17479 0.0
H402 H 0.16128 0.03424 0.21096 0.0
H403 H 0.19582 0.00244 0.23632 0.0
H404 H 0.22524 0.94606 0.22669 0.0
H405 H 0.15439 0.95356 0.22733 0.0
H406 H 0.32907 0.07658 0.20246 0.0
H407 H 0.181 0.09969 0.22634 0.0
H408 H 0.36766 0.2063 0.2002 0.0
H409 H 0.39519 0.14127 0.20215 0.0
H410 H 0.39363 0.18609 0.21872 0.0
H411 H 0.15427 0.18224 0.23605 0.0
H412 H 0.19034 0.23959 0.2297 0.0
H413 H 0.20877 0.20678 0.2474 0.0
H414 H 0.22467 0.50573 0.17088 0.0
H415 H 0.2343 0.54997 0.1485 0.0
H416 H 0.29666 0.52747 0.14873 0.0
H417 H 0.30323 0.65577 0.15909 0.0
H418 H 0.22644 0.46783 0.19534 0.0
H419 H 0.38178 0.43186 0.17813 0.0
H420 H 0.20413 0.35358 0.21615 0.0
H421 H 0.18648 0.42239 0.21602 0.0
H422 H 0.23276 0.39767 0.23019 0.0
H423 H 0.43072 0.35999 0.18755 0.0
H424 H 0.39288 0.30721 0.19615 0.0
H425 H 0.42308 0.35543 0.2086 0.0
H426 H 0.4552 0.60518 0.28361 0.0
H427 H 0.42572 0.53377 0.29793 0.0
H428 H 0.56381 0.47694 0.27391 0.0
H429 H 0.33875 0.43802 0.28552 0.0
H430 H 0.35024 0.48287 0.3017 0.0
H431 H 0.36409 0.41358 0.30365 0.0
H432 H 0.57182 0.38884 0.26532 0.0
H433 H 0.51089 0.36836 0.25634 0.0
H434 H 0.52943 0.34176 0.27494 0.0
H435 H 0.35211 0.06653 0.32389 0.0
H436 H 0.45974 0.97898 0.32956 0.0
H437 H 0.36614 0.01479 0.34536 0.0
H438 H 0.41514 0.05177 0.35193 0.0
H439 H 0.33746 0.19309 0.33126 0.0
H440 H 0.47636 0.13146 0.30888 0.0
H441 H 0.29511 0.27114 0.29984 0.0
H442 H 0.33374 0.31315 0.31218 0.0
H443 H 0.2904 0.26513 0.32096 0.0
H444 H 0.51481 0.16933 0.28651 0.0
H445 H 0.50302 0.23903 0.28463 0.0
H446 H 0.46553 0.1933 0.27318 0.0
H447 H 0.27813 0.27327 0.20461 0.0
H448 H 0.36047 0.42176 0.22978 0.0
H449 H 0.4052 0.43577 0.25413 0.0
H450 H 0.44118 0.33067 0.29954 0.0
H451 H 0.35066 0.18507 0.27561 0.0
H452 H 0.31076 0.16923 0.2506 0.0
H453 H 0.50538 0.68783 0.28003 0.0
H454 H 0.52084 0.63765 0.26564 0.0
H455 H 0.56642 0.65128 0.28122 0.0
C456 C 0.67674 0.50067 0.28285 0.0
C457 C 0.67363 0.47457 0.29899 0.0
C458 C 0.73065 0.39547 0.29952 0.0
C459 C 0.77882 0.3771 0.30503 0.0
C460 C 0.79533 0.32532 0.30217 0.0
C461 C 0.76246 0.29071 0.29361 0.0
C462 C 0.71221 0.30804 0.28872 0.0
C463 C 0.69702 0.36055 0.29151 0.0
C464 C 0.84911 0.3084 0.30764 0.0
C465 C 0.67592 0.27195 0.27975 0.0
C466 C 0.74899 0.90053 0.33495 0.0
C467 C 0.79846 0.91702 0.32673 0.0
C468 C 0.81121 0.01135 0.32176 0.0
C469 C 0.77745 0.01472 0.30882 0.0
C470 C 0.77564 0.0607 0.29975 0.0
C471 C 0.80863 0.10377 0.30362 0.0
C472 C 0.84141 0.10088 0.31695 0.0
C473 C 0.84181 0.05481 0.32592 0.0
C474 C 0.73925 0.0629 0.28584 0.0
C475 C 0.87687 0.14596 0.32154 0.0
C476 C 0.02223 0.00697 0.22818 0.0
C477 C 0.97495 0.01607 0.22025 0.0
C478 C 0.94689 0.06288 0.22247 0.0
C479 C 0.96758 0.10237 0.23244 0.0
C480 C 0.01801 0.09557 0.23916 0.0
C481 C 0.04485 0.04769 0.23691 0.0
C482 C 0.89464 0.06925 0.21436 0.0
C483 C 0.04233 0.13783 0.24928 0.0
C484 C 0.74897 0.44766 0.18712 0.0
C485 C 0.80347 0.43158 0.19289 0.0
C486 C 0.83894 0.3439 0.19651 0.0
C487 C 0.82042 0.2924 0.19593 0.0
C488 C 0.84017 0.25425 0.2061 0.0
C489 C 0.88116 0.26773 0.21659 0.0
C490 C 0.90354 0.31866 0.21612 0.0
C491 C 0.88153 0.35666 0.20625 0.0
C492 C 0.8155 0.20027 0.20608 0.0
C493 C 0.94846 0.33376 0.22673 0.0
C494 C 0.78474 0.24021 0.28764 0.0
C495 C 0.78375 0.19587 0.29731 0.0
C496 C 0.81159 0.15017 0.2931 0.0
C497 C 0.84282 0.14935 0.27921 0.0
C498 C 0.8749 0.10597 0.27527 0.0
C499 C 0.90549 0.10572 0.2616 0.0
C500 C 0.90452 0.14844 0.25116 0.0
C501 C 0.9343 0.14809 0.23698 0.0
C502 C 0.92844 0.189 0.22622 0.0
C503 C 0.89451 0.23109 0.22944 0.0
C504 C 0.86796 0.23421 0.2441 0.0
C505 C 0.83636 0.2778 0.24813 0.0
C506 C 0.81016 0.28039 0.2625 0.0
C507 C 0.81193 0.23816 0.27307 0.0
C508 C 0.84214 0.19315 0.26904 0.0
C509 C 0.87197 0.19213 0.25483 0.0
C510 C 0.03924 0.87694 0.24183 0.0
C511 C 0.01735 0.91173 0.22876 0.0
O512 O 0.71974 0.44732 0.30186 0.0
O513 O 0.81372 0.38061 0.18791 0.0
O514 O 0.04513 0.95869 0.22822 0.0
O515 O 0.81579 0.96724 0.33052 0.0
H516 H 0.63942 0.44748 0.29895 0.0
H517 H 0.67679 0.47001 0.27347 0.0
H518 H 0.7133 0.52431 0.28162 0.0
H519 H 0.6422 0.52678 0.28111 0.0
H520 H 0.80432 0.40422 0.31125 0.0
H521 H 0.6598 0.37401 0.28695 0.0
H522 H 0.84553 0.2724 0.31487 0.0
H523 H 0.86896 0.33937 0.31471 0.0
H524 H 0.87442 0.29864 0.29731 0.0
H525 H 0.63537 0.28815 0.27901 0.0
H526 H 0.67421 0.23277 0.28543 0.0
H527 H 0.69153 0.26617 0.26763 0.0
H528 H 0.80252 0.90691 0.314 0.0
H529 H 0.72018 0.89234 0.32524 0.0
H530 H 0.72898 0.93781 0.33905 0.0
H531 H 0.77463 0.8421 0.35044 0.0
H532 H 0.7526 0.98167 0.30575 0.0
H533 H 0.86721 0.05196 0.33606 0.0
H534 H 0.76294 0.06245 0.2748 0.0
H535 H 0.71624 0.10008 0.28612 0.0
H536 H 0.7115 0.02915 0.28554 0.0
H537 H 0.90314 0.13582 0.33145 0.0
H538 H 0.85237 0.18025 0.3251 0.0
H539 H 0.90151 0.158 0.31133 0.0
H540 H 0.9757 0.91923 0.23243 0.0
H541 H 0.95903 0.98609 0.21265 0.0
H542 H 0.08225 0.04093 0.24261 0.0
H543 H 0.86448 0.08613 0.22247 0.0
H544 H 0.87959 0.03133 0.20963 0.0
H545 H 0.89994 0.09659 0.20438 0.0
H546 H 0.08425 0.12935 0.25193 0.0
H547 H 0.02016 0.14096 0.26056 0.0
H548 H 0.03973 0.17651 0.24335 0.0
H549 H 0.80208 0.4331 0.206 0.0
H550 H 0.73908 0.48807 0.19126 0.0
H551 H 0.71877 0.42024 0.19184 0.0
H552 H 0.74754 0.44642 0.17406 0.0
H553 H 0.78816 0.28301 0.18813 0.0
H554 H 0.89697 0.39635 0.20633 0.0
H555 H 0.80221 0.18968 0.21812 0.0
H556 H 0.84536 0.17099 0.20225 0.0
H557 H 0.78132 0.19748 0.19805 0.0
H558 H 0.96735 0.37115 0.22304 0.0
H559 H 0.97866 0.30213 0.2268 0.0
H560 H 0.93346 0.33877 0.23894 0.0
H561 H 0.76212 0.19736 0.30836 0.0
H562 H 0.87711 0.07184 0.28277 0.0
H563 H 0.92938 0.07124 0.25924 0.0
H564 H 0.9487 0.18691 0.21494 0.0
H565 H 0.83204 0.31096 0.24035 0.0
H566 H 0.78753 0.31557 0.26501 0.0
H567 H 0.02347 0.8363 0.24084 0.0
H568 H 0.02712 0.89329 0.25346 0.0
H569 H 0.0829 0.87582 0.24162 0.0
C570 C 0.62915 0.5526 0.72678 0.0
C571 C 0.62753 0.57484 0.71009 0.0
C572 C 0.68802 0.65116 0.71145 0.0
C573 C 0.73808 0.66858 0.707 0.0
C574 C 0.75753 0.71731 0.71213 0.0
C575 C 0.7259 0.74962 0.722 0.0
C576 C 0.67425 0.73335 0.72604 0.0
C577 C 0.65571 0.68424 0.72072 0.0
C578 C 0.81271 0.73335 0.70751 0.0
C579 C 0.63942 0.7671 0.73643 0.0
C580 C 0.72946 0.14943 0.68668 0.0
C581 C 0.76504 0.13222 0.69954 0.0
C582 C 0.78214 0.03757 0.70336 0.0
C583 C 0.73883 0.02733 0.7133 0.0
C584 C 0.73376 0.97839 0.72082 0.0
C585 C 0.77256 0.93908 0.71831 0.0
C586 C 0.81466 0.94859 0.70769 0.0
C587 C 0.81874 0.99767 0.70036 0.0
C588 C 0.68785 0.9691 0.73182 0.0
C589 C 0.85634 0.90747 0.70448 0.0
C590 C 0.97713 0.00676 0.80095 0.0
C591 C 0.92528 0.99738 0.80607 0.0
C592 C 0.8974 0.95329 0.80071 0.0
C593 C 0.92208 0.91777 0.79011 0.0
C594 C 0.97532 0.92557 0.78562 0.0
C595 C 0.00233 0.96994 0.79123 0.0
C596 C 0.8413 0.94508 0.80615 0.0
C597 C 0.00327 0.88765 0.77466 0.0
C598 C 0.9425 0.52136 0.80582 0.0
C599 C 0.94389 0.56034 0.8197 0.0
C600 C 0.89341 0.63716 0.81088 0.0
C601 C 0.8481 0.66722 0.81359 0.0
C602 C 0.83904 0.71385 0.80529 0.0
C603 C 0.87595 0.73019 0.79377 0.0
C604 C 0.92143 0.69952 0.79072 0.0
C605 C 0.92995 0.65362 0.79938 0.0
C606 C 0.79045 0.74601 0.80895 0.0
C607 C 0.96149 0.7156 0.77845 0.0
C608 C 0.74937 0.797 0.72955 0.0
C609 C 0.74667 0.84536 0.72179 0.0
C610 C 0.77222 0.88998 0.72777 0.0
C611 C 0.80083 0.88648 0.74196 0.0
C612 C 0.82753 0.93027 0.74823 0.0
C613 C 0.85716 0.92606 0.76185 0.0
C614 C 0.86109 0.87796 0.76981 0.0
C615 C 0.8919 0.87301 0.7835 0.0
C616 C 0.89497 0.82472 0.79113 0.0
C617 C 0.86847 0.78058 0.78538 0.0
C618 C 0.83767 0.78454 0.77166 0.0
C619 C 0.81114 0.74073 0.76543 0.0
C620 C 0.78171 0.74486 0.75177 0.0
C621 C 0.77776 0.79296 0.74375 0.0
C622 C 0.80375 0.83777 0.74992 0.0
C623 C 0.8339 0.8335 0.76386 0.0
C624 C 0.00969 0.13958 0.79608 0.0
C625 C 0.98066 0.10055 0.8067 0.0
O626 O 0.67357 0.60202 0.70673 0.0
O627 O 0.9001 0.59291 0.81957 0.0
O628 O 0.00342 0.05129 0.80494 0.0
O629 O 0.79083 0.08501 0.69654 0.0
H630 H 0.59334 0.6019 0.70914 0.0
H631 H 0.63027 0.58496 0.7356 0.0
H632 H 0.66456 0.52754 0.72834 0.0
H633 H 0.59341 0.52868 0.7291 0.0
H634 H 0.76255 0.64304 0.69974 0.0
H635 H 0.61657 0.67176 0.72414 0.0
H636 H 0.81214 0.77305 0.70218 0.0
H637 H 0.83109 0.70531 0.69901 0.0
H638 H 0.83768 0.73554 0.71815 0.0
H639 H 0.59952 0.74998 0.73796 0.0
H640 H 0.63568 0.80699 0.73132 0.0
H641 H 0.65766 0.77162 0.74818 0.0
H642 H 0.75054 0.13687 0.71188 0.0
H643 H 0.68909 0.1506 0.69225 0.0
H644 H 0.72127 0.11348 0.67926 0.0
H645 H 0.76662 0.21677 0.67773 0.0
H646 H 0.70926 0.05735 0.71533 0.0
H647 H 0.85155 0.00567 0.69249 0.0
H648 H 0.70259 0.96363 0.74396 0.0
H649 H 0.66698 0.93246 0.72837 0.0
H650 H 0.65935 0.00227 0.73187 0.0
H651 H 0.88482 0.91984 0.69524 0.0
H652 H 0.83753 0.87009 0.70072 0.0
H653 H 0.87835 0.8995 0.71544 0.0
H654 H 0.93943 0.10035 0.80236 0.0
H655 H 0.90644 0.02454 0.81418 0.0
H656 H 0.04267 0.97705 0.78758 0.0
H657 H 0.81452 0.94737 0.79593 0.0
H658 H 0.82868 0.97481 0.81506 0.0
H659 H 0.83694 0.90525 0.81128 0.0
H660 H 0.04428 0.90012 0.77197 0.0
H661 H 0.98125 0.88407 0.76348 0.0
H662 H 0.00439 0.8481 0.78008 0.0
H663 H 0.98027 0.58453 0.8187 0.0
H664 H 0.97733 0.49491 0.80614 0.0
H665 H 0.94338 0.54244 0.79445 0.0
H666 H 0.90618 0.49708 0.80617 0.0
H667 H 0.82006 0.65432 0.82243 0.0
H668 H 0.96529 0.63111 0.79702 0.0
H669 H 0.7657 0.74874 0.79829 0.0
H670 H 0.80195 0.78666 0.81233 0.0
H671 H 0.76646 0.72883 0.81861 0.0
H672 H 0.9913 0.68442 0.77614 0.0
H673 H 0.98222 0.75156 0.78252 0.0
H674 H 0.94161 0.72513 0.76724 0.0
H675 H 0.72589 0.84788 0.71073 0.0
H676 H 0.82615 0.96833 0.74262 0.0
H677 H 0.87717 0.961 0.76603 0.0
H678 H 0.91886 0.82129 0.8016 0.0
H679 H 0.81303 0.70264 0.77101 0.0
H680 H 0.76233 0.70964 0.74755 0.0
H681 H 0.05261 0.13997 0.79849 0.0
H682 H 0.99358 0.17988 0.79781 0.0
H683 H 0.00427 0.1281 0.78356 0.0
C684 C 0.76726 0.67266 0.05796 0.0
C685 C 0.748 0.65431 0.07419 0.0
C686 C 0.67705 0.59054 0.06868 0.0
C687 C 0.6628 0.53755 0.06954 0.0
C688 C 0.61363 0.5199 0.06419 0.0
C689 C 0.57794 0.55622 0.05759 0.0
C690 C 0.59103 0.6103 0.05729 0.0
C691 C 0.64033 0.62696 0.06285 0.0
C692 C 0.60073 0.46206 0.06501 0.0
C693 C 0.55376 0.65024 0.05048 0.0
C694 C 0.15109 0.44093 0.07289 0.0
C695 C 0.19007 0.48677 0.07308 0.0
C696 C 0.28722 0.48364 0.07187 0.0
C697 C 0.29561 0.53291 0.06488 0.0
C698 C 0.34548 0.54633 0.05872 0.0
C699 C 0.3873 0.50951 0.05942 0.0
C700 C 0.37957 0.46141 0.06739 0.0
C701 C 0.32972 0.44941 0.07362 0.0
C702 C 0.35292 0.59878 0.05085 0.0
C703 C 0.42335 0.42151 0.06868 0.0
C704 C 0.30044 0.40522 0.96539 0.0
C705 C 0.31932 0.4572 0.96565 0.0
C706 C 0.3692 0.46905 0.97173 0.0
C707 C 0.4006 0.4283 0.97797 0.0
C708 C 0.38277 0.37562 0.97707 0.0
C709 C 0.3331 0.36475 0.97061 0.0
C710 C 0.3875 0.52553 0.972 0.0
C711 C 0.41522 0.33112 0.98352 0.0
C712 C 0.80977 0.37069 0.98559 0.0
C713 C 0.78465 0.36518 0.96932 0.0
C714 C 0.70119 0.41501 0.97082 0.0
C715 C 0.67498 0.46009 0.9657 0.0
C716 C 0.62297 0.47116 0.97049 0.0
C717 C 0.59652 0.43614 0.98071 0.0
C718 C 0.62213 0.3896 0.98556 0.0
C719 C 0.67416 0.37963 0.98066 0.0
C720 C 0.59687 0.5211 0.96511 0.0
C721 C 0.59507 0.35108 0.99638 0.0
C722 C 0.53028 0.53689 0.04924 0.0
C723 C 0.48172 0.5361 0.05724 0.0
C724 C 0.43622 0.51704 0.0499 0.0
C725 C 0.43882 0.49964 0.03405 0.0
C726 C 0.39373 0.48147 0.02618 0.0
C727 C 0.39677 0.46328 0.01074 0.0
C728 C 0.44524 0.46126 0.00263 0.0
C729 C 0.44883 0.44181 0.987 0.0
C730 C 0.49841 0.4356 0.97984 0.0
C731 C 0.54445 0.45031 0.98771 0.0
C732 C 0.54086 0.47431 0.00276 0.0
C733 C 0.58583 0.49348 0.01045 0.0
C734 C 0.58221 0.51544 0.02544 0.0
C735 C 0.53376 0.51751 0.0336 0.0
C736 C 0.48787 0.49903 0.02598 0.0
C737 C 0.49127 0.47855 0.0104 0.0
C738 C 0.15383 0.39707 0.96056 0.0
C739 C 0.20889 0.4273 0.95917 0.0
O740 O 0.7266 0.60419 0.0733 0.0
O741 O 0.75235 0.4079 0.96622 0.0
O742 O 0.25116 0.39272 0.96035 0.0
O743 O 0.23919 0.46725 0.07709 0.0
H744 H 0.71719 0.6825 0.07829 0.0
H745 H 0.73343 0.67828 0.04998 0.0
H746 H 0.79409 0.64346 0.05237 0.0
H747 H 0.78808 0.71095 0.05904 0.0
H748 H 0.69092 0.50969 0.07417 0.0
H749 H 0.65003 0.66827 0.06219 0.0
H750 H 0.56028 0.45639 0.06977 0.0
H751 H 0.62893 0.44027 0.07247 0.0
H752 H 0.602 0.44478 0.05299 0.0
H753 H 0.56775 0.69123 0.05226 0.0
H754 H 0.51415 0.64632 0.05599 0.0
H755 H 0.54945 0.64277 0.03768 0.0
H756 H 0.19152 0.5031 0.06097 0.0
H757 H 0.14784 0.42306 0.08475 0.0
H758 H 0.16485 0.41027 0.06443 0.0
H759 H 0.11148 0.45432 0.06918 0.0
H760 H 0.2634 0.56064 0.06403 0.0
H761 H 0.32312 0.41203 0.07936 0.0
H762 H 0.3899 0.61761 0.05492 0.0
H763 H 0.31942 0.62586 0.05326 0.0
H764 H 0.35647 0.59272 0.03795 0.0
H765 H 0.41153 0.38682 0.07575 0.0
H766 H 0.45827 0.44003 0.0742 0.0
H767 H 0.43535 0.40776 0.05675 0.0
H768 H 0.21069 0.45685 0.96894 0.0
H769 H 0.29519 0.48883 0.96124 0.0
H770 H 0.31865 0.32467 0.97016 0.0
H771 H 0.38462 0.54117 0.98419 0.0
H772 H 0.36335 0.55087 0.96428 0.0
H773 H 0.42938 0.52816 0.9682 0.0
H774 H 0.39544 0.29241 0.98217 0.0
H775 H 0.42299 0.33822 0.99619 0.0
H776 H 0.45389 0.32951 0.97734 0.0
H777 H 0.76088 0.32846 0.96925 0.0
H778 H 0.83752 0.33765 0.98762 0.0
H779 H 0.77895 0.36955 0.99491 0.0
H780 H 0.83131 0.40843 0.98679 0.0
H781 H 0.69584 0.48717 0.95809 0.0
H782 H 0.69339 0.34459 0.98487 0.0
H783 H 0.58834 0.54676 0.97545 0.0
H784 H 0.55869 0.51169 0.95948 0.0
H785 H 0.6218 0.54323 0.95665 0.0
H786 H 0.61781 0.31402 0.99765 0.0
H787 H 0.55526 0.34136 0.99189 0.0
H788 H 0.58997 0.36933 0.0082 0.0
H789 H 0.47963 0.54908 0.0694 0.0
H790 H 0.35537 0.48118 0.03181 0.0
H791 H 0.36064 0.44986 0.00537 0.0
H792 H 0.50125 0.41851 0.96814 0.0
H793 H 0.62438 0.49205 0.00492 0.0
H794 H 0.61823 0.5298 0.03065 0.0
H795 H 0.16376 0.35422 0.95876 0.0
H796 H 0.08211 0.43988 0.9422 0.0
H797 H 0.14893 0.39588 0.97374 0.0
C798 C 0.8981 0.75542 0.44419 0.0
C799 C 0.90628 0.69581 0.44434 0.0
C800 C 0.93266 0.64793 0.46714 0.0
C801 C 0.93929 0.59503 0.46306 0.0
C802 C 0.97866 0.56487 0.47014 0.0
C803 C 0.01234 0.58876 0.4813 0.0
C804 C 0.0049 0.64218 0.48561 0.0
C805 C 0.96444 0.67096 0.47858 0.0
C806 C 0.98543 0.50802 0.46532 0.0
C807 C 0.04101 0.66946 0.49707 0.0
C808 C 0.41384 0.57326 0.46669 0.0
C809 C 0.38118 0.60554 0.45515 0.0
C810 C 0.29314 0.56641 0.45821 0.0
C811 C 0.27881 0.59423 0.47196 0.0
C812 C 0.23166 0.58317 0.47991 0.0
C813 C 0.19859 0.54258 0.47426 0.0
C814 C 0.21276 0.51429 0.4605 0.0
C815 C 0.25975 0.52697 0.45256 0.0
C816 C 0.21685 0.6155 0.49427 0.0
C817 C 0.1784 0.47061 0.45429 0.0
C818 C 0.28446 0.33068 0.55009 0.0
C819 C 0.28327 0.38446 0.55398 0.0
C820 C 0.23769 0.41441 0.55162 0.0
C821 C 0.1923 0.38995 0.54537 0.0
C822 C 0.19236 0.33509 0.54243 0.0
C823 C 0.23852 0.30604 0.54495 0.0
C824 C 0.23875 0.47262 0.55519 0.0
C825 C 0.14446 0.30766 0.53596 0.0
C826 C 0.85616 0.6184 0.59315 0.0
C827 C 0.86717 0.56286 0.58693 0.0
C828 C 0.95286 0.52413 0.58134 0.0
C829 C 0.00493 0.54131 0.58131 0.0
C830 C 0.04166 0.52083 0.57051 0.0
C831 C 0.02618 0.48038 0.55995 0.0
C832 C 0.9745 0.45962 0.56091 0.0
C833 C 0.93792 0.48255 0.57139 0.0
C834 C 0.09668 0.54331 0.57026 0.0
C835 C 0.95748 0.41442 0.55054 0.0
C836 C 0.05816 0.55917 0.48727 0.0
C837 C 0.1037 0.5585 0.47795 0.0
C838 C 0.14859 0.53148 0.48269 0.0
C839 C 0.14721 0.50139 0.49657 0.0
C840 C 0.19023 0.47019 0.50096 0.0
C841 C 0.18942 0.44267 0.51503 0.0
C842 C 0.14649 0.44718 0.52556 0.0
C843 C 0.14695 0.42252 0.54042 0.0
C844 C 0.10557 0.43125 0.55108 0.0
C845 C 0.06299 0.46355 0.5472 0.0
C846 C 0.06009 0.48546 0.53197 0.0
C847 C 0.01665 0.51593 0.52731 0.0
C848 C 0.0148 0.53815 0.51242 0.0
C849 C 0.05776 0.53363 0.50198 0.0
C850 C 0.10223 0.50383 0.50651 0.0
C851 C 0.10258 0.47815 0.52127 0.0
C852 C 0.41342 0.28355 0.53956 0.0
C853 C 0.38016 0.32119 0.54966 0.0
O854 O 0.8974 0.6778 0.45947 0.0
O855 O 0.91795 0.54884 0.59101 0.0
O856 O 0.32932 0.30172 0.55084 0.0
O857 O 0.33842 0.57624 0.45007 0.0
H858 H 0.94797 0.68814 0.44074 0.0
H859 H 0.92606 0.77458 0.45241 0.0
H860 H 0.85726 0.76559 0.44792 0.0
H861 H 0.9055 0.77125 0.43224 0.0
H862 H 0.9142 0.57782 0.45416 0.0
H863 H 0.95883 0.71205 0.4815 0.0
H864 H 0.0229 0.5034 0.45862 0.0
H865 H 0.95259 0.49385 0.45785 0.0
H866 H 0.98789 0.48283 0.4759 0.0
H867 H 0.02932 0.71099 0.49931 0.0
H868 H 0.08194 0.66885 0.49237 0.0
H869 H 0.04102 0.64828 0.50843 0.0
H870 H 0.36727 0.6422 0.461 0.0
H871 H 0.42789 0.53629 0.46099 0.0
H872 H 0.38963 0.56292 0.47715 0.0
H873 H 0.4484 0.59624 0.47077 0.0
H874 H 0.30364 0.62497 0.47661 0.0
H875 H 0.271 0.50565 0.44197 0.0
H876 H 0.1777 0.63397 0.49257 0.0
H877 H 0.24591 0.64705 0.49679 0.0
H878 H 0.21387 0.58963 0.50469 0.0
H879 H 0.19597 0.45085 0.44379 0.0
H880 H 0.13928 0.48671 0.45111 0.0
H881 H 0.17186 0.44087 0.46361 0.0
H882 H 0.37997 0.35919 0.5432 0.0
H883 H 0.3181 0.40336 0.55861 0.0
H884 H 0.23959 0.26429 0.54228 0.0
H885 H 0.23492 0.49502 0.54411 0.0
H886 H 0.2757 0.48491 0.56107 0.0
H887 H 0.20486 0.48333 0.56287 0.0
H888 H 0.14995 0.26436 0.53506 0.0
H889 H 0.13575 0.32315 0.52409 0.0
H890 H 0.10971 0.31602 0.54359 0.0
H891 H 0.86386 0.56421 0.57387 0.0
H892 H 0.81612 0.63143 0.58972 0.0
H893 H 0.88529 0.64629 0.58809 0.0
H894 H 0.85921 0.61972 0.60618 0.0
H895 H 0.01609 0.57269 0.58931 0.0
H896 H 0.89779 0.46813 0.57182 0.0
H897 H 0.10932 0.55252 0.55806 0.0
H898 H 0.12427 0.51364 0.57498 0.0
H899 H 0.09991 0.5796 0.57755 0.0
H900 H 0.92057 0.39597 0.55493 0.0
H901 H 0.98883 0.384 0.54981 0.0
H902 H 0.95046 0.42892 0.53847 0.0
H903 H 0.10489 0.58103 0.46716 0.0
H904 H 0.22483 0.46651 0.49349 0.0
H905 H 0.22357 0.41901 0.51773 0.0
H906 H 0.10759 0.41453 0.56276 0.0
H907 H 0.98332 0.52278 0.53506 0.0
H908 H 0.98008 0.56053 0.5094 0.0
H909 H 0.42041 0.24605 0.54572 0.0
H910 H 0.45222 0.30152 0.53675 0.0
H911 H 0.39307 0.27506 0.52831 0.0
C912 C 0.1369 0.64943 0.15768 0.0
C913 C 0.94071 0.58808 0.16464 0.0
C914 C 0.9167 0.66685 0.1211 0.0
Mg915 Mg 0.18661 0.74702 0.13791 0.0
Mg916 Mg 0.12106 0.84871 0.12343 0.0
O917 O 0.12183 0.77728 0.12833 0.0
Mg918 Mg 0.06747 0.73443 0.13937 0.0
O919 O 0.01755 0.68542 0.14995 0.0
Mg920 Mg 0.031 0.62088 0.13698 0.0
Mg921 Mg 0.94798 0.70392 0.15415 0.0
C922 C 0.99998 0.82316 0.11836 0.0
O923 O 0.04853 0.79301 0.15953 0.0
O924 O 0.23546 0.78962 0.11858 0.0
O925 O 0.96477 0.77561 0.167 0.0
O926 O 0.19065 0.82005 0.1555 0.0
O927 O 0.18418 0.84824 0.10643 0.0
O928 O 0.14308 0.88475 0.14482 0.0
O929 O 0.08558 0.6706 0.12092 0.0
O930 O 0.1738 0.67885 0.12095 0.0
C931 C 0.13176 0.65561 0.11638 0.0
C932 C 0.22695 0.82169 0.10729 0.0
O933 O 0.00383 0.7773 0.1246 0.0
O934 O 0.97625 0.57589 0.15439 0.0
O935 O 0.03873 0.85537 0.11733 0.0
O936 O 0.95669 0.63579 0.12111 0.0
O937 O 0.92524 0.63543 0.16693 0.0
O938 O 0.90881 0.7003 0.13215 0.0
O939 O 0.13167 0.69815 0.15407 0.0
O940 O 0.10354 0.61421 0.15332 0.0
C941 C 0.17072 0.86667 0.15597 0.0
C942 C 0.00798 0.8014 0.16837 0.0
C943 C 0.66081 0.81267 0.40034 0.0
C944 C 0.74916 0.64053 0.39867 0.0
C945 C 0.66214 0.614 0.35377 0.0
Mg946 Mg 0.55448 0.86047 0.386 0.0
Mg947 Mg 0.45697 0.79043 0.37059 0.0
O948 O 0.5293 0.80092 0.37264 0.0
Mg949 Mg 0.5798 0.74599 0.37926 0.0
O950 O 0.63628 0.69667 0.38581 0.0
Mg951 Mg 0.69603 0.72618 0.37332 0.0
Mg952 Mg 0.63337 0.62427 0.38905 0.0
C953 C 0.50074 0.6913 0.35223 0.0
O954 O 0.52528 0.70498 0.39742 0.0
O955 O 0.50034 0.91416 0.37098 0.0
O956 O 0.5582 0.62329 0.40131 0.0
O957 O 0.486 0.84429 0.40462 0.0
O958 O 0.43822 0.86369 0.35979 0.0
O959 O 0.42844 0.78809 0.39394 0.0
O960 O 0.63708 0.78273 0.36192 0.0
O961 O 0.62194 0.86778 0.36771 0.0
C962 C 0.6478 0.83173 0.36031 0.0
C963 C 0.46115 0.90795 0.36171 0.0
O964 O 0.54516 0.69387 0.3594 0.0
O965 O 0.75249 0.67496 0.38777 0.0
O966 O 0.46177 0.72145 0.35572 0.0
O967 O 0.68525 0.65903 0.35429 0.0
O968 O 0.7059 0.61704 0.40197 0.0
O969 O 0.63937 0.59416 0.36576 0.0
O970 O 0.61182 0.80235 0.39803 0.0
O971 O 0.69767 0.78895 0.39264 0.0
C972 C 0.4447 0.81502 0.40561 0.0
C973 C 0.52348 0.6592 0.40377 0.0
C974 C 0.65932 0.21063 0.65434 0.0
C975 C 0.49741 0.09164 0.65305 0.0
C976 C 0.4716 0.1576 0.60693 0.0
Mg977 Mg 0.68264 0.32226 0.63854 0.0
Mg978 Mg 0.59192 0.40253 0.62461 0.0
O979 O 0.61821 0.33414 0.62561 0.0
Mg980 Mg 0.5754 0.27295 0.63288 0.0
O981 O 0.53921 0.20842 0.64025 0.0
Mg982 Mg 0.58237 0.15363 0.62899 0.0
Mg983 Mg 0.46614 0.20163 0.64039 0.0
C984 C 0.50054 0.34013 0.60751 0.0
O985 O 0.52562 0.31829 0.65113 0.0
O986 O 0.72267 0.38911 0.62434 0.0
O987 O 0.44869 0.2743 0.65308 0.0
O988 O 0.65528 0.38467 0.65751 0.0
O989 O 0.65931 0.43892 0.6137 0.0
O990 O 0.58599 0.42917 0.64841 0.0
O991 O 0.62283 0.22233 0.61563 0.0
O992 O 0.70162 0.26062 0.6191 0.0
C993 C 0.67227 0.22578 0.61248 0.0
C994 C 0.70791 0.42738 0.61564 0.0
O995 O 0.51357 0.29628 0.61394 0.0
O996 O 0.53998 0.09285 0.64478 0.0
O997 O 0.52339 0.38397 0.61064 0.0
O998 O 0.51842 0.14178 0.60977 0.0
O999 O 0.46401 0.12941 0.65317 0.0
O1000 O 0.44505 0.18554 0.61666 0.0
O1001 O 0.63843 0.25506 0.65104 0.0
O1002 O 0.64426 0.16779 0.64783 0.0
C1003 C 0.61851 0.41906 0.65934 0.0
C1004 C 0.47901 0.3127 0.65691 0.0
C1005 C 0.15532 0.32067 0.91562 0.0
C1006 C 0.22535 0.12539 0.91513 0.0
C1007 C 0.14624 0.1159 0.87044 0.0
Mg1008 Mg 0.05387 0.37165 0.8991 0.0
Mg1009 Mg 0.95401 0.30492 0.88387 0.0
O1010 O 0.02661 0.31065 0.88675 0.0
Mg1011 Mg 0.07268 0.25399 0.8951 0.0
O1012 O 0.12424 0.2022 0.90339 0.0
Mg1013 Mg 0.18815 0.22404 0.89121 0.0
Mg1014 Mg 0.10919 0.13068 0.90447 0.0
C1015 C 0.99214 0.19766 0.86863 0.0
O1016 O 0.01404 0.2224 0.91392 0.0
O1017 O 0.00533 0.42533 0.88251 0.0
O1018 O 0.0365 0.13751 0.91765 0.0
O1019 O 0.98172 0.36626 0.91687 0.0
O1020 O 0.94169 0.37685 0.87134 0.0
O1021 O 0.92134 0.31161 0.90676 0.0
O1022 O 0.13539 0.28282 0.87792 0.0
O1023 O 0.12246 0.36959 0.88159 0.0
C1024 C 0.14809 0.33097 0.87542 0.0
C1025 C 0.96686 0.42015 0.8729 0.0
O1026 O 0.03604 0.19927 0.8761 0.0
O1027 O 0.23639 0.16505 0.90641 0.0
O1028 O 0.95527 0.23153 0.87086 0.0
O1029 O 0.17593 0.15639 0.87236 0.0
O1030 O 0.17875 0.10675 0.91646 0.0
O1031 O 0.11334 0.10163 0.88099 0.0
O1032 O 0.10638 0.31245 0.91262 0.0
O1033 O 0.1921 0.29137 0.90975 0.0
C1034 C 0.93762 0.34145 0.9178 0.0
C1035 C 0.0078 0.17786 0.92079 0.0
C1036 C 0.3851 0.85334 0.44535 0.0
C1037 C 0.34783 0.81322 0.44811 0.0
C1038 C 0.41751 0.85289 0.43188 0.0
C1039 C 0.41317 0.81293 0.42043 0.0
H1040 H 0.38869 0.88588 0.45355 0.0
H1041 H 0.44512 0.88488 0.43023 0.0
S1042 S 0.32173 0.69861 0.42203 0.0
N1043 N 0.3091 0.73208 0.43831 0.0
N1044 N 0.36881 0.73153 0.41294 0.0
C1045 C 0.37615 0.77242 0.42309 0.0
C1046 C 0.34378 0.77255 0.43689 0.0
C1047 C 0.53044 0.98773 0.68294 0.0
C1048 C 0.48185 0.97921 0.69055 0.0
C1049 C 0.53449 0.02164 0.67011 0.0
C1050 C 0.49019 0.04886 0.66453 0.0
H1051 H 0.56589 0.96913 0.68722 0.0
H1052 H 0.57317 0.02846 0.66505 0.0
S1053 S 0.35311 0.03731 0.67965 0.0
N1054 N 0.38794 0.99862 0.69109 0.0
N1055 N 0.3955 0.06219 0.66691 0.0
C1056 C 0.44096 0.03912 0.67164 0.0
C1057 C 0.43683 0.00454 0.68469 0.0
C1058 C 0.35113 0.04965 0.92171 0.0
C1059 C 0.34272 0.02779 0.93671 0.0
C1060 C 0.31459 0.08445 0.91518 0.0
C1061 C 0.26787 0.09749 0.92328 0.0
H1062 H 0.38517 0.03822 0.91472 0.0
H1063 H 0.32142 0.09869 0.90336 0.0
S1064 S 0.22895 0.05437 0.96326 0.0
N1065 N 0.28579 0.02467 0.95982 0.0
N1066 N 0.21671 0.08921 0.94739 0.0
C1067 C 0.25994 0.07766 0.93848 0.0
C1068 C 0.29739 0.04291 0.94521 0.0
C1069 C 0.22846 0.93466 0.19197 0.0
C1070 C 0.18736 0.96871 0.1968 0.0
C1071 C 0.22298 0.90102 0.17888 0.0
C1072 C 0.17636 0.90063 0.17009 0.0
H1073 H 0.26522 0.93425 0.19834 0.0
H1074 H 0.2556 0.87578 0.17549 0.0
S1075 S 0.0555 0.97891 0.17857 0.0
N1076 N 0.09729 0.99703 0.19233 0.0
N1077 N 0.08738 0.93531 0.16761 0.0
C1078 C 0.13474 0.93391 0.17495 0.0
C1079 C 0.14003 0.96735 0.18836 0.0
C1080 C 0.39536 0.15462 0.56925 0.0
C1081 C 0.37028 0.10533 0.56989 0.0
C1082 C 0.4317 0.17014 0.58069 0.0
C1083 C 0.44385 0.13689 0.59319 0.0
H1084 H 0.38512 0.18207 0.56016 0.0
H1085 H 0.4489 0.209 0.58009 0.0
S1086 S 0.39361 0.00203 0.59964 0.0
N1087 N 0.36411 0.02152 0.58345 0.0
N1088 N 0.43153 0.05147 0.60518 0.0
C1089 C 0.42151 0.0865 0.59359 0.0
C1090 C 0.38487 0.07048 0.58189 0.0
C1091 C 0.11589 0.0099 0.8401 0.0
C1092 C 0.1601 0.01042 0.83004 0.0
C1093 C 0.1116 0.04477 0.85285 0.0
C1094 C 0.15081 0.0826 0.856 0.0
H1095 H 0.08454 0.98169 0.83825 0.0
H1096 H 0.07701 0.04183 0.86034 0.0
S1097 S 0.27348 0.10217 0.8327 0.0
N1098 N 0.24353 0.05273 0.82381 0.0
N1099 N 0.23469 0.11954 0.84754 0.0
C1100 C 0.19451 0.08481 0.84572 0.0
C1101 C 0.19931 0.04853 0.83282 0.0
C1102 C 0.28077 0.85172 0.06665 0.0
C1103 C 0.3124 0.80762 0.0632 0.0
C1104 C 0.25656 0.85814 0.08141 0.0
C1105 C 0.26273 0.82052 0.09333 0.0
H1106 H 0.27297 0.88052 0.05763 0.0
H1107 H 0.23078 0.89165 0.08321 0.0
S1108 S 0.34463 0.6993 0.09049 0.0
N1109 N 0.35108 0.72711 0.07311 0.0
N1110 N 0.30591 0.73882 0.10087 0.0
C1111 C 0.29674 0.77757 0.0903 0.0
C1112 C 0.32125 0.77107 0.07522 0.0
C1113 C 0.39327 0.97748 0.31866 0.0
C1114 C 0.43111 0.04036 0.31987 0.0
C1115 C 0.40032 0.93517 0.33552 0.0
C1116 C 0.4492 0.94944 0.35045 0.0
H1117 H 0.362 0.97155 0.31026 0.0
H1118 H 0.37649 0.90004 0.33636 0.0
S1119 S 0.55685 0.07228 0.34997 0.0
N1120 N 0.52409 0.08845 0.33352 0.0
N1121 N 0.53328 0.01705 0.35839 0.0
C1122 C 0.49408 0.00413 0.34858 0.0
C1123 C 0.49028 0.04803 0.3325 0.0
C1124 C 0.74862 0.19277 0.57537 0.0
C1125 C 0.73058 0.142 0.5714 0.0
C1126 C 0.73148 0.2182 0.58913 0.0
C1127 C 0.69445 0.19466 0.59925 0.0
H1128 H 0.77518 0.21379 0.56763 0.0
H1129 H 0.74553 0.25771 0.59146 0.0
S1130 S 0.63643 0.06167 0.59458 0.0
N1131 N 0.67539 0.06832 0.57907 0.0
N1132 N 0.64202 0.11693 0.60475 0.0
C1133 C 0.67681 0.14367 0.59562 0.0
C1134 C 0.69508 0.11725 0.58174 0.0
C1135 C 0.80424 0.90934 0.3563 0.0
C1136 C 0.82113 0.87959 0.33664 0.0
C1137 C 0.7383 0.89469 0.36323 0.0
C1138 C 0.69836 0.84595 0.35321 0.0
H1139 H 0.82713 0.94081 0.36147 0.0
H1140 H 0.72287 0.91485 0.37351 0.0
S1141 S 0.74194 0.75642 0.31432 0.0
N1142 N 0.79735 0.7928 0.31564 0.0
N1143 N 0.69781 0.77087 0.32868 0.0
C1144 C 0.72344 0.80844 0.33674 0.0
C1145 C 0.78727 0.82011 0.3289 0.0
C1146 C 0.85746 0.82283 0.10564 0.0
C1147 C 0.84021 0.87348 0.10999 0.0
C1148 C 0.9099 0.80728 0.10771 0.0
C1149 C 0.94714 0.8422 0.11398 0.0
H1150 H 0.82974 0.79469 0.10094 0.0
H1151 H 0.92126 0.7675 0.1046 0.0
S1152 S 0.92367 0.98163 0.12533 0.0
N1153 N 0.86571 0.96022 0.11941 0.0
N1154 N 0.96434 0.93131 0.12327 0.0
C1155 C 0.9313 0.89419 0.11736 0.0
C1156 C 0.87782 0.9098 0.11537 0.0
C1157 C 0.03099 0.12614 0.83119 0.0
C1158 C 0.9823 0.11787 0.82381 0.0
C1159 C 0.03363 0.14903 0.84619 0.0
C1160 C 0.98779 0.16266 0.85468 0.0
H1161 H 0.06748 0.11739 0.82502 0.0
H1162 H 0.07198 0.15939 0.85066 0.0
S1163 S 0.85029 0.14153 0.84162 0.0
N1164 N 0.8869 0.12077 0.82669 0.0
N1165 N 0.89204 0.16102 0.85526 0.0
C1166 C 0.93878 0.15079 0.84793 0.0
C1167 C 0.93601 0.1288 0.83246 0.0
C1168 C 0.74593 0.91223 0.42105 0.0
C1169 C 0.72236 0.9173 0.43601 0.0
C1170 C 0.72402 0.88036 0.4094 0.0
C1171 C 0.67715 0.85236 0.41207 0.0
H1172 H 0.78297 0.93162 0.41846 0.0
H1173 H 0.74518 0.87621 0.39835 0.0
S1174 S 0.59958 0.85017 0.44914 0.0
N1175 N 0.64955 0.88967 0.45296 0.0
N1176 N 0.6073 0.83138 0.43063 0.0
C1177 C 0.65201 0.8578 0.42675 0.0
C1178 C 0.67502 0.88956 0.43886 0.0
C1179 C 0.97089 0.88361 0.2039 0.0
C1180 C 0.01772 0.88513 0.21268 0.0
C1181 C 0.96902 0.85952 0.18908 0.0
C1182 C 0.0136 0.83482 0.18253 0.0
H1183 H 0.93482 0.90027 0.20865 0.0
H1184 H 0.93181 0.85872 0.18294 0.0
S1185 S 0.14426 0.82167 0.20138 0.0
N1186 N 0.10966 0.85854 0.21373 0.0
N1187 N 0.10474 0.80894 0.18652 0.0
C1188 C 0.06056 0.83515 0.19121 0.0
C1189 C 0.06296 0.86128 0.20611 0.0
C1190 C 0.93249 0.11795 0.95459 0.0
C1191 C 0.93048 0.15909 0.96576 0.0
C1192 C 0.95344 0.12565 0.93951 0.0
C1193 C 0.97391 0.17467 0.935 0.0
H1194 H 0.91968 0.07875 0.95769 0.0
H1195 H 0.95608 0.09215 0.93159 0.0
S1196 S 0.97816 0.2954 0.95981 0.0
N1197 N 0.94761 0.25174 0.97084 0.0
N1198 N 0.99161 0.26495 0.94303 0.0
C1199 C 0.97066 0.21671 0.94584 0.0
C1200 C 0.94781 0.20923 0.96107 0.0
C1201 C 0.74615 0.2283 0.69943 0.0
C1202 C 0.79498 0.17541 0.6944 0.0
C1203 C 0.69671 0.23893 0.68454 0.0
C1204 C 0.70274 0.20757 0.66541 0.0
H1205 H 0.74038 0.24238 0.71136 0.0
H1206 H 0.66258 0.26289 0.68727 0.0
S1207 S 0.82274 0.1088 0.65012 0.0
N1208 N 0.84507 0.11976 0.66848 0.0
N1209 N 0.76688 0.1423 0.64641 0.0
C1210 C 0.75919 0.16821 0.66007 0.0
C1211 C 0.80991 0.15543 0.67373 0.0
C1212 C 0.83105 0.31276 0.94796 0.0
C1213 C 0.82656 0.36015 0.95651 0.0
C1214 C 0.86774 0.30706 0.9357 0.0
C1215 C 0.90252 0.34803 0.93169 0.0
H1216 H 0.80544 0.27986 0.95059 0.0
H1217 H 0.86894 0.26999 0.92934 0.0
S1218 S 0.90821 0.47969 0.95063 0.0
N1219 N 0.86034 0.44898 0.9601 0.0
N1220 N 0.931 0.43731 0.93742 0.0
C1221 C 0.89967 0.39516 0.94039 0.0
C1222 C 0.86134 0.40145 0.9527 0.0
C1223 C 0.86884 0.46045 0.1719 0.0
C1224 C 0.8447 0.46922 0.18667 0.0
C1225 C 0.90273 0.49783 0.16529 0.0
C1226 C 0.9126 0.54584 0.17302 0.0
H1227 H 0.86034 0.42515 0.16519 0.0
H1228 H 0.91902 0.4902 0.15368 0.0
S1229 S 0.86142 0.58671 0.21223 0.0
N1230 N 0.83509 0.52822 0.20912 0.0
N1231 N 0.89807 0.599 0.19655 0.0
C1232 C 0.88999 0.55446 0.18796 0.0
C1233 C 0.85609 0.51612 0.19479 0.0
C1234 C 0.81854 0.65374 0.43735 0.0
C1235 C 0.86955 0.66939 0.43273 0.0
C1236 C 0.78116 0.63814 0.42621 0.0
C1237 C 0.79295 0.63895 0.41001 0.0
H1238 H 0.80642 0.65616 0.44957 0.0
H1239 H 0.74148 0.62988 0.43027 0.0
S1240 S 0.92222 0.67113 0.39191 0.0
N1241 N 0.93124 0.67978 0.41096 0.0
N1242 N 0.86054 0.65167 0.39001 0.0
C1243 C 0.8447 0.65113 0.40532 0.0
C1244 C 0.88297 0.6663 0.41666 0.0
C1245 C 0.66577 0.49828 0.69444 0.0
C1246 C 0.62204 0.53029 0.69821 0.0
C1247 C 0.66332 0.46014 0.68248 0.0
C1248 C 0.61712 0.45264 0.67372 0.0
H1249 H 0.70277 0.504 0.70046 0.0
H1250 H 0.69875 0.43823 0.67959 0.0
S1251 S 0.48888 0.51973 0.68086 0.0
N1252 N 0.52904 0.54666 0.69379 0.0
N1253 N 0.52471 0.47645 0.67091 0.0
C1254 C 0.57209 0.4821 0.67805 0.0
C1255 C 0.57443 0.52037 0.69041 0.0
C1256 C 0.78833 0.68815 0.09936 0.0
C1257 C 0.79252 0.6551 0.08609 0.0
C1258 C 0.82857 0.69123 0.11044 0.0
C1259 C 0.87565 0.66223 0.10871 0.0
H1260 H 0.75353 0.71215 0.10123 0.0
H1261 H 0.82247 0.71713 0.12047 0.0
S1262 S 0.90523 0.56684 0.07654 0.0
N1263 N 0.84611 0.58966 0.07236 0.0
N1264 N 0.92306 0.59734 0.09286 0.0
C1265 C 0.88021 0.62821 0.09561 0.0
C1266 C 0.83848 0.62425 0.08441 0.0
C1267 C 0.70625 0.55256 0.315 0.0
C1268 C 0.66646 0.51514 0.31201 0.0
C1269 C 0.70359 0.5862 0.32814 0.0
C1270 C 0.66174 0.58272 0.33899 0.0
H1271 H 0.74057 0.55469 0.30738 0.0
H1272 H 0.73567 0.61343 0.33017 0.0
S1273 S 0.54442 0.49607 0.33558 0.0
N1274 N 0.58129 0.48066 0.32015 0.0
N1275 N 0.57732 0.54196 0.34518 0.0
C1276 C 0.6208 0.54678 0.33585 0.0
C1277 C 0.62287 0.51357 0.32228 0.0
C1278 C 0.83657 0.49871 0.60792 0.0
C1279 C 0.82718 0.52474 0.59365 0.0
C1280 C 0.79822 0.46626 0.61473 0.0
C1281 C 0.74856 0.45976 0.60778 0.0
H1282 H 0.87355 0.50388 0.61398 0.0
H1283 H 0.80708 0.44732 0.62577 0.0
S1284 S 0.70441 0.51908 0.57038 0.0
N1285 N 0.76491 0.54138 0.57273 0.0
N1286 N 0.69243 0.48115 0.58568 0.0
C1287 C 0.73867 0.48548 0.59352 0.0
C1288 C 0.77799 0.51787 0.58646 0.0
C1289 C 0.99361 0.52715 0.84328 0.0
C1290 C 0.94582 0.53053 0.83507 0.0
C1291 C 0.99883 0.49421 0.8563 0.0
C1292 C 0.95675 0.46254 0.86145 0.0
H1293 H 0.02791 0.54867 0.83925 0.0
H1294 H 0.03714 0.49122 0.86174 0.0
S1295 S 0.82168 0.46102 0.84514 0.0
N1296 N 0.85419 0.503 0.83397 0.0
N1297 N 0.86438 0.44005 0.85824 0.0
C1298 C 0.90798 0.46748 0.85388 0.0
C1299 C 0.90245 0.50163 0.84074 0.0
C1300 C 0.19346 0.53237 0.09981 0.0
C1301 C 0.17153 0.52873 0.08469 0.0
C1302 C 0.17806 0.57218 0.11031 0.0
C1303 C 0.13896 0.60878 0.10634 0.0
H1304 H 0.22375 0.50524 0.10349 0.0
H1305 H 0.19776 0.57507 0.12153 0.0
S1306 S 0.06486 0.61307 0.0691 0.0
N1307 N 0.10596 0.56313 0.06675 0.0
N1308 N 0.07587 0.63703 0.08688 0.0
C1309 C 0.11428 0.60382 0.09174 0.0
C1310 C 0.1308 0.56397 0.08084 0.0
C1311 C 0.26886 0.40441 0.86243 0.0
C1312 C 0.27545 0.38795 0.84669 0.0
C1313 C 0.22942 0.38306 0.87197 0.0
C1314 C 0.19552 0.34388 0.86625 0.0
H1315 H 0.29258 0.43604 0.86719 0.0
H1316 H 0.22396 0.39892 0.88374 0.0
S1317 S 0.19765 0.28416 0.82645 0.0
N1318 N 0.24536 0.3283 0.82606 0.0
N1319 N 0.1725 0.28675 0.84442 0.0
C1320 C 0.20346 0.32445 0.85096 0.0
C1321 C 0.24304 0.34695 0.84106 0.0
C1322 C 0.45051 0.36138 0.56642 0.0
C1323 C 0.40534 0.32953 0.56566 0.0
C1324 C 0.47942 0.36624 0.58027 0.0
C1325 C 0.46458 0.33918 0.59395 0.0
H1326 H 0.46462 0.38149 0.55601 0.0
H1327 H 0.51506 0.38966 0.58002 0.0
S1328 S 0.34533 0.2572 0.59922 0.0
N1329 N 0.34419 0.27442 0.58053 0.0
N1330 N 0.39882 0.28445 0.60661 0.0
C1331 C 0.41813 0.30941 0.59373 0.0
C1332 C 0.3884 0.30435 0.57958 0.0
C1333 C 0.54338 0.63006 0.31353 0.0
C1334 C 0.49553 0.62337 0.30556 0.0
C1335 C 0.54444 0.64949 0.32895 0.0
C1336 C 0.49775 0.6608 0.33734 0.0
H1337 H 0.58048 0.62222 0.30757 0.0
H1338 H 0.58236 0.65822 0.33403 0.0
S1339 S 0.36171 0.64531 0.32232 0.0
N1340 N 0.39994 0.62799 0.30736 0.0
N1341 N 0.40192 0.6603 0.33682 0.0
C1342 C 0.44945 0.65133 0.32982 0.0
C1343 C 0.44836 0.63346 0.31387 0.0
C1344 C 0.23835 0.43513 0.93119 0.0
C1345 C 0.20796 0.45631 0.94372 0.0
C1346 C 0.22059 0.39258 0.92179 0.0
C1347 C 0.17051 0.36953 0.92386 0.0
H1348 H 0.27949 0.44598 0.93036 0.0
H1349 H 0.24819 0.37541 0.91343 0.0
S1350 S 0.0621 0.41629 0.96361 0.0
N1351 N 0.11761 0.47641 0.95758 0.0
N1352 N 0.0889 0.36774 0.9447 0.0
C1353 C 0.13631 0.39544 0.93399 0.0
C1354 C 0.15472 0.46001 0.94171 0.0
C1355 C 0.49281 0.37803 0.69652 0.0
C1356 C 0.44046 0.38117 0.70197 0.0
C1357 C 0.50457 0.35987 0.68134 0.0
C1358 C 0.4645 0.34411 0.67099 0.0
H1359 H 0.52513 0.3872 0.70431 0.0
H1360 H 0.54563 0.35486 0.67812 0.0
S1361 S 0.32081 0.34996 0.679 0.0
N1362 N 0.34797 0.37088 0.69548 0.0
N1363 N 0.37017 0.33704 0.66679 0.0
C1364 C 0.41186 0.34997 0.67596 0.0
C1365 C 0.39984 0.36839 0.69148 0.0
C1366 C 0.42044 0.58874 0.42795 0.0
C1367 C 0.41517 0.62162 0.44129 0.0
C1368 C 0.45414 0.60219 0.41549 0.0
C1369 C 0.48349 0.64895 0.41591 0.0
H1370 H 0.3991 0.55194 0.42725 0.0
H1371 H 0.45796 0.57546 0.40556 0.0
S1372 S 0.48892 0.74512 0.44879 0.0
N1373 N 0.44548 0.70089 0.4546 0.0
N1374 N 0.50848 0.72615 0.43106 0.0
C1375 C 0.47925 0.6818 0.42918 0.0
C1376 C 0.44537 0.66798 0.44193 0.0
C1377 C 0.20903 0.58092 0.19064 0.0
C1378 C 0.25947 0.57138 0.18411 0.0
C1379 C 0.16994 0.60918 0.18243 0.0
C1380 C 0.18016 0.63343 0.16789 0.0
H1381 H 0.19678 0.5583 0.20076 0.0
H1382 H 0.12999 0.60856 0.18702 0.0
S1383 S 0.33306 0.61252 0.14167 0.0
N1384 N 0.33958 0.59836 0.1664 0.0
N1385 N 0.25314 0.63621 0.14439 0.0
C1386 C 0.23217 0.63519 0.16297 0.0
C1387 C 0.28312 0.61173 0.17627 0.0
loop_
_geom_bond_atom_site_label_1
_geom_bond_atom_site_label_2
_geom_bond_distance
_geom_bond_site_symmetry_2
_ccdc_geom_bond_type
C0 C1 1.560 . S
C0 H61 0.959 . S
C0 H62 0.959 . S
C0 H63 0.960 . S
C1 C0 1.560 . S
C1 O56 1.426 . S
C1 H60 0.980 . S
C2 C3 1.407 . S
C2 C7 1.418 . S
C2 O56 1.334 . S
C3 C2 1.407 . S
C3 C4 1.360 . S
C3 H64 0.929 . S
C4 C3 1.360 . S
C4 C5 1.401 . S
C4 C8 1.527 . S
C5 C4 1.401 . S
C5 C6 1.405 . S
C5 C38 1.587 . S
C6 C5 1.405 . S
C6 C7 1.332 . S
C6 C9 1.496 1_565 S
C7 C2 1.418 . S
C7 C6 1.332 . S
C7 H65 0.936 . S
C8 C4 1.527 . S
C8 H66 0.959 . S
C8 H67 0.961 . S
C8 H68 0.961 . S
C9 C6 1.496 1_545 S
C9 H69 0.960 . S
C9 H70 0.960 . S
C9 H71 0.961 . S
C10 C11 1.517 . S
C10 H73 0.961 . S
C10 H74 0.960 . S
C10 H75 0.959 . S
C11 C10 1.517 . S
C11 O59 1.468 . S
C11 H72 0.980 . S
C12 C13 1.349 . S
C12 C17 1.367 . S
C12 O59 1.408 . S
C13 C12 1.349 . S
C13 C14 1.407 . S
C13 H76 0.930 . S
C14 C13 1.407 . S
C14 C15 1.449 . S
C14 C18 1.535 . S
C15 C14 1.449 . S
C15 C16 1.384 . S
C15 C40 1.553 . S
C16 C15 1.384 . S
C16 C17 1.364 . S
C16 C19 1.450 . S
C17 C12 1.367 . S
C17 C16 1.364 . S
C17 H77 0.931 . S
C18 C14 1.535 . S
C18 H78 0.959 . S
C18 H79 0.961 . S
C18 H80 0.959 . S
C19 C16 1.450 . S
C19 H81 0.960 . S
C19 H82 0.960 . S
C19 H83 0.960 . S
C20 C21 1.309 . S
C20 C25 1.304 . S
C20 O58 1.435 . S
C21 C20 1.309 . S
C21 C22 1.476 . S
C21 H85 0.930 . S
C22 C21 1.476 . S
C22 C23 1.400 . S
C22 C26 1.567 . S
C23 C22 1.400 . S
C23 C24 1.373 . S
C23 C45 1.432 . S
C24 C23 1.373 . S
C24 C25 1.339 . S
C24 C27 1.530 1_545 S
C25 C20 1.304 . S
C25 C24 1.339 . S
C25 H86 0.930 1_545 S
C26 C22 1.567 . S
C26 H87 0.961 . S
C26 H88 0.960 . S
C26 H89 0.958 . S
C27 C24 1.530 1_565 S
C27 H90 0.961 . S
C27 H91 0.960 . S
C27 H92 0.960 . S
C28 C29 1.530 . S
C28 H94 0.961 . S
C28 H95 0.961 . S
C28 H96 0.959 . S
C29 C28 1.530 . S
C29 O57 1.412 . S
C29 H93 0.980 . S
C30 C31 1.288 . S
C30 C35 1.377 . S
C30 O57 1.393 . S
C31 C30 1.288 . S
C31 C32 1.369 . S
C31 H97 0.932 . S
C32 C31 1.369 . S
C32 C33 1.398 . S
C32 C36 1.527 . S
C33 C32 1.398 . S
C33 C34 1.380 . S
C33 C47 1.497 . S
C34 C33 1.380 . S
C34 C35 1.383 . S
C34 C37 1.603 1_545 S
C35 C30 1.377 . S
C35 C34 1.383 . S
C35 H98 0.929 . S
C36 C32 1.527 . S
C36 H99 0.961 . S
C36 H100 0.959 . S
C36 H101 0.959 . S
C37 C34 1.603 1_565 S
C37 H102 0.960 . S
C37 H103 0.962 . S
C37 H104 0.961 . S
C38 C5 1.587 . S
C38 C39 1.360 1_655 S
C38 C51 1.412 . S
C39 C38 1.360 1_455 S
C39 C40 1.365 . S
C39 H105 0.929 . S
C40 C15 1.553 . S
C40 C39 1.365 . S
C40 C41 1.404 . S
C41 C40 1.404 . S
C41 C42 1.395 . S
C41 C52 1.451 . S
C42 C41 1.395 . S
C42 C43 1.322 . S
C42 H106 0.930 . S
C43 C42 1.322 . S
C43 C44 1.459 . S
C43 H107 0.929 . S
C44 C43 1.459 . S
C44 C45 1.445 1_565 S
C44 C53 1.395 . S
C45 C23 1.432 . S
C45 C44 1.445 1_545 S
C45 C46 1.370 . S
C46 C45 1.370 . S
C46 C47 1.438 1_455 S
C46 H108 0.930 . S
C47 C33 1.497 . S
C47 C46 1.438 1_655 S
C47 C48 1.360 . S
C48 C47 1.360 . S
C48 C49 1.401 . S
C48 C53 1.446 1_645 S
C49 C48 1.401 . S
C49 C50 1.347 1_545 S
C49 H109 0.929 . S
C50 C49 1.347 1_565 S
C50 C51 1.455 . S
C50 H110 0.930 . S
C51 C38 1.412 . S
C51 C50 1.455 . S
C51 C52 1.331 1_655 S
C52 C41 1.451 . S
C52 C51 1.331 1_455 S
C52 C53 1.497 . S
C53 C44 1.395 . S
C53 C48 1.446 1_465 S
C53 C52 1.497 . S
C54 C55 1.582 . S
C54 H111 0.962 . S
C54 H112 0.959 . S
C54 H113 0.958 . S
C55 C54 1.582 . S
C55 O58 1.458 . S
C55 H84 0.980 . S
O56 C1 1.426 . S
O56 C2 1.334 . S
O57 C29 1.412 . S
O57 C30 1.393 . S
O58 C20 1.435 . S
O58 C55 1.458 . S
O59 C11 1.468 . S
O59 C12 1.408 . S
H60 C1 0.980 . S
H61 C0 0.959 . S
H62 C0 0.959 . S
H63 C0 0.960 . S
H64 C3 0.929 . S
H65 C7 0.936 . S
H66 C8 0.959 . S
H67 C8 0.961 . S
H68 C8 0.961 . S
H69 C9 0.960 . S
H70 C9 0.960 . S
H71 C9 0.961 . S
H72 C11 0.980 . S
H73 C10 0.961 . S
H74 C10 0.960 . S
H75 C10 0.959 . S
H76 C13 0.930 . S
H77 C17 0.931 . S
H78 C18 0.959 . S
H79 C18 0.961 . S
H80 C18 0.959 . S
H81 C19 0.960 . S
H82 C19 0.960 . S
H83 C19 0.960 . S
H84 C55 0.980 . S
H85 C21 0.930 . S
H86 C25 0.930 1_565 S
H87 C26 0.961 . S
H88 C26 0.960 . S
H89 C26 0.958 . S
H90 C27 0.961 . S
H91 C27 0.960 . S
H92 C27 0.960 . S
H93 C29 0.980 . S
H94 C28 0.961 . S
H95 C28 0.961 . S
H96 C28 0.959 . S
H97 C31 0.932 . S
H98 C35 0.929 . S
H99 C36 0.961 . S
H100 C36 0.959 . S
H101 C36 0.959 . S
H102 C37 0.960 . S
H103 C37 0.962 . S
H104 C37 0.961 . S
H105 C39 0.929 . S
H106 C42 0.930 . S
H107 C43 0.929 . S
H108 C46 0.930 . S
H109 C49 0.929 . S
H110 C50 0.930 . S
H111 C54 0.962 . S
H112 C54 0.959 . S
H113 C54 0.958 . S
C114 C115 1.560 . S
C114 H175 0.959 . S
C114 H176 0.959 . S
C114 H177 0.960 . S
C115 C114 1.560 . S
C115 O170 1.426 . S
C115 H174 0.980 . S
C116 C117 1.407 . S
C116 C121 1.418 . S
C116 O170 1.334 . S
C117 C116 1.407 . S
C117 C118 1.360 . S
C117 H178 0.929 . S
C118 C117 1.360 . S
C118 C119 1.401 . S
C118 C122 1.527 . S
C119 C118 1.401 . S
C119 C120 1.405 . S
C119 C152 1.587 . S
C120 C119 1.405 . S
C120 C121 1.332 . S
C120 C123 1.496 . S
C121 C116 1.418 . S
C121 C120 1.332 . S
C121 H179 0.929 . S
C122 C118 1.527 . S
C122 H180 0.959 . S
C122 H181 0.961 . S
C122 H182 0.961 . S
C123 C120 1.496 . S
C123 H183 0.960 . S
C123 H184 0.960 . S
C123 H185 0.961 . S
C124 C125 1.517 . S
C124 H187 0.961 . S
C124 H188 0.960 . S
C124 H189 0.959 . S
C125 C124 1.517 . S
C125 O173 1.468 . S
C125 H186 0.980 . S
C126 C127 1.349 . S
C126 C131 1.367 . S
C126 O173 1.408 . S
C127 C126 1.349 . S
C127 C128 1.407 . S
C127 H190 0.930 . S
C128 C127 1.407 . S
C128 C129 1.449 . S
C128 C132 1.535 . S
C129 C128 1.449 . S
C129 C130 1.384 . S
C129 C154 1.553 . S
C130 C129 1.384 . S
C130 C131 1.364 . S
C130 C133 1.450 . S
C131 C126 1.367 . S
C131 C130 1.364 . S
C131 H191 0.931 . S
C132 C128 1.535 . S
C132 H192 0.959 . S
C132 H193 0.961 . S
C132 H194 0.959 . S
C133 C130 1.450 . S
C133 H195 0.960 . S
C133 H196 0.960 . S
C133 H197 0.960 . S
C134 C135 1.309 . S
C134 C139 1.304 . S
C134 O172 1.435 . S
C135 C134 1.309 . S
C135 C136 1.476 . S
C135 H199 0.930 . S
C136 C135 1.476 . S
C136 C137 1.400 . S
C136 C140 1.567 . S
C137 C136 1.400 . S
C137 C138 1.373 . S
C137 C159 1.432 . S
C138 C137 1.373 . S
C138 C139 1.339 . S
C138 C141 1.530 . S
C139 C134 1.304 . S
C139 C138 1.339 . S
C139 H200 0.930 . S
C140 C136 1.567 . S
C140 H201 0.961 . S
C140 H202 0.960 . S
C140 H203 0.958 . S
C141 C138 1.530 . S
C141 H204 0.961 . S
C141 H205 0.960 . S
C141 H206 0.960 . S
C142 C143 1.530 . S
C142 H208 0.961 1_565 S
C142 H209 0.961 . S
C142 H210 0.959 . S
C143 C142 1.530 . S
C143 O171 1.412 . S
C143 H207 0.980 . S
C144 C145 1.288 . S
C144 C149 1.377 . S
C144 O171 1.393 . S
C145 C144 1.288 . S
C145 C146 1.369 . S
C145 H211 0.932 . S
C146 C145 1.369 . S
C146 C147 1.398 . S
C146 C150 1.527 . S
C147 C146 1.398 . S
C147 C148 1.380 . S
C147 C161 1.497 . S
C148 C147 1.380 . S
C148 C149 1.383 . S
C148 C151 1.603 . S
C149 C144 1.377 . S
C149 C148 1.383 . S
C149 H212 0.929 . S
C150 C146 1.527 . S
C150 H213 0.961 . S
C150 H214 0.959 . S
C150 H215 0.959 . S
C151 C148 1.603 . S
C151 H216 0.960 . S
C151 H217 0.962 . S
C151 H218 0.961 . S
C152 C119 1.587 . S
C152 C153 1.360 . S
C152 C165 1.412 . S
C153 C152 1.360 . S
C153 C154 1.365 . S
C153 H219 0.929 . S
C154 C129 1.553 . S
C154 C153 1.365 . S
C154 C155 1.404 . S
C155 C154 1.404 . S
C155 C156 1.395 . S
C155 C166 1.451 . S
C156 C155 1.395 . S
C156 C157 1.322 . S
C156 H220 0.930 . S
C157 C156 1.322 . S
C157 C158 1.459 . S
C157 H221 0.929 . S
C158 C157 1.459 . S
C158 C159 1.445 . S
C158 C167 1.395 . S
C159 C137 1.432 . S
C159 C158 1.445 . S
C159 C160 1.370 . S
C160 C159 1.370 . S
C160 C161 1.438 . S
C160 H222 0.930 . S
C161 C147 1.497 . S
C161 C160 1.438 . S
C161 C162 1.360 . S
C162 C161 1.360 . S
C162 C163 1.401 . S
C162 C167 1.446 . S
C163 C162 1.401 . S
C163 C164 1.347 . S
C163 H223 0.929 . S
C164 C163 1.347 . S
C164 C165 1.455 . S
C164 H224 0.930 . S
C165 C152 1.412 . S
C165 C164 1.455 . S
C165 C166 1.331 . S
C166 C155 1.451 . S
C166 C165 1.331 . S
C166 C167 1.497 . S
C167 C158 1.395 . S
C167 C162 1.446 . S
C167 C166 1.497 . S
C168 C169 1.582 . S
C168 H225 0.962 . S
C168 H226 0.959 . S
C168 H227 0.958 . S
C169 C168 1.582 . S
C169 O172 1.458 . S
C169 H198 0.980 . S
O170 C115 1.426 . S
O170 C116 1.334 . S
O171 C143 1.412 . S
O171 C144 1.393 . S
O172 C134 1.435 . S
O172 C169 1.458 . S
O173 C125 1.468 . S
O173 C126 1.408 . S
H174 C115 0.980 . S
H175 C114 0.959 . S
H176 C114 0.959 . S
H177 C114 0.960 . S
H178 C117 0.929 . S
H179 C121 0.929 . S
H180 C122 0.959 . S
H181 C122 0.961 . S
H182 C122 0.961 . S
H183 C123 0.960 . S
H184 C123 0.960 . S
H185 C123 0.961 . S
H186 C125 0.980 . S
H187 C124 0.961 . S
H188 C124 0.960 . S
H189 C124 0.959 . S
H190 C127 0.930 . S
H191 C131 0.931 . S
H192 C132 0.959 . S
H193 C132 0.961 . S
H194 C132 0.959 . S
H195 C133 0.960 . S
H196 C133 0.960 . S
H197 C133 0.960 . S
H198 C169 0.980 . S
H199 C135 0.930 . S
H200 C139 0.930 . S
H201 C140 0.961 . S
H202 C140 0.960 . S
H203 C140 0.958 . S
H204 C141 0.961 . S
H205 C141 0.960 . S
H206 C141 0.960 . S
H207 C143 0.980 . S
H208 C142 0.961 1_545 S
H209 C142 0.961 . S
H210 C142 0.959 . S
H211 C145 0.932 . S
H212 C149 0.929 . S
H213 C150 0.961 . S
H214 C150 0.959 . S
H215 C150 0.959 . S
H216 C151 0.960 . S
H217 C151 0.962 . S
H218 C151 0.961 . S
H219 C153 0.929 . S
H220 C156 0.930 . S
H221 C157 0.929 . S
H222 C160 0.930 . S
H223 C163 0.929 . S
H224 C164 0.930 . S
H225 C168 0.962 . S
H226 C168 0.959 . S
H227 C168 0.958 . S
C228 C229 1.560 . S
C228 H289 0.959 . S
C228 H290 0.959 . S
C228 H291 0.960 . S
C229 C228 1.560 . S
C229 O284 1.426 . S
C229 H288 0.980 . S
C230 C231 1.407 . S
C230 C235 1.418 . S
C230 O284 1.334 . S
C231 C230 1.407 . S
C231 C232 1.360 . S
C231 H292 0.929 . S
C232 C231 1.360 . S
C232 C233 1.401 . S
C232 C236 1.527 . S
C233 C232 1.401 . S
C233 C234 1.405 . S
C233 C266 1.587 . S
C234 C233 1.405 . S
C234 C235 1.332 . S
C234 C237 1.496 1_565 S
C235 C230 1.418 . S
C235 C234 1.332 . S
C235 H293 0.929 . S
C236 C232 1.527 . S
C236 H294 0.959 . S
C236 H295 0.961 . S
C236 H296 0.961 . S
C237 C234 1.496 1_545 S
C237 H297 0.960 . S
C237 H298 0.958 1_545 S
C237 H299 0.961 . S
C238 C239 1.517 . S
C238 H301 0.961 . S
C238 H302 0.960 . S
C238 H303 0.959 . S
C239 C238 1.517 . S
C239 O287 1.468 . S
C239 H300 0.980 . S
C240 C241 1.349 . S
C240 C245 1.367 . S
C240 O287 1.408 . S
C241 C240 1.349 . S
C241 C242 1.407 . S
C241 H304 0.930 . S
C242 C241 1.407 . S
C242 C243 1.449 . S
C242 C246 1.535 . S
C243 C242 1.449 . S
C243 C244 1.384 . S
C243 C268 1.553 . S
C244 C243 1.384 . S
C244 C245 1.364 . S
C244 C247 1.450 . S
C245 C240 1.367 . S
C245 C244 1.364 . S
C245 H305 0.931 . S
C246 C242 1.535 . S
C246 H306 0.959 . S
C246 H307 0.961 . S
C246 H308 0.959 . S
C247 C244 1.450 . S
C247 H309 0.960 . S
C247 H310 0.960 . S
C247 H311 0.960 . S
C248 C249 1.309 . S
C248 C253 1.304 . S
C248 O286 1.435 . S
C249 C248 1.309 . S
C249 C250 1.476 . S
C249 H313 0.930 . S
C250 C249 1.476 . S
C250 C251 1.400 . S
C250 C254 1.567 . S
C251 C250 1.400 . S
C251 C252 1.373 . S
C251 C273 1.432 . S
C252 C251 1.373 . S
C252 C253 1.339 . S
C252 C255 1.530 1_545 S
C253 C248 1.304 . S
C253 C252 1.339 . S
C253 H314 0.930 1_545 S
C254 C250 1.567 . S
C254 H315 0.922 1_556 S
C254 H316 0.993 . S
C254 H317 0.958 . S
C255 C252 1.530 1_565 S
C255 H318 0.961 . S
C255 H319 0.960 . S
C255 H320 0.960 . S
C256 C257 1.530 . S
C256 H322 0.961 . S
C256 H323 0.961 . S
C256 H324 0.959 . S
C257 C256 1.530 . S
C257 O285 1.412 . S
C257 H321 0.980 . S
C258 C259 1.288 . S
C258 C263 1.377 . S
C258 O285 1.393 . S
C259 C258 1.288 . S
C259 C260 1.369 . S
C259 H325 0.932 . S
C260 C259 1.369 . S
C260 C261 1.398 . S
C260 C264 1.527 . S
C261 C260 1.398 . S
C261 C262 1.380 . S
C261 C275 1.497 . S
C262 C261 1.380 . S
C262 C263 1.383 . S
C262 C265 1.603 1_545 S
C263 C258 1.377 . S
C263 C262 1.383 . S
C263 H326 0.929 . S
C264 C260 1.527 . S
C264 H327 0.961 1_556 S
C264 H328 0.959 . S
C264 H329 0.980 . S
C265 C262 1.603 1_565 S
C265 H330 0.960 . S
C265 H331 0.962 . S
C265 H332 0.961 . S
C266 C233 1.587 . S
C266 C267 1.360 . S
C266 C279 1.412 . S
C267 C266 1.360 . S
C267 C268 1.365 . S
C267 H333 0.929 . S
C268 C243 1.553 . S
C268 C267 1.365 . S
C268 C269 1.404 . S
C269 C268 1.404 . S
C269 C270 1.395 . S
C269 C280 1.451 . S
C270 C269 1.395 . S
C270 C271 1.322 . S
C270 H334 0.930 . S
C271 C270 1.322 . S
C271 C272 1.459 1_554 S
C271 H335 0.929 1_554 S
C272 C271 1.459 1_556 S
C272 C273 1.445 1_565 S
C272 C281 1.395 1_556 S
C273 C251 1.432 . S
C273 C272 1.445 1_545 S
C273 C274 1.370 . S
C274 C273 1.370 . S
C274 C275 1.438 . S
C274 H336 0.930 . S
C275 C261 1.497 . S
C275 C274 1.438 . S
C275 C276 1.360 . S
C276 C275 1.360 . S
C276 C277 1.401 1_556 S
C276 C281 1.446 1_546 S
C277 C276 1.401 1_554 S
C277 C278 1.347 1_545 S
C277 H337 0.929 . S
C278 C277 1.347 1_565 S
C278 C279 1.455 . S
C278 H338 0.930 . S
C279 C266 1.412 . S
C279 C278 1.455 . S
C279 C280 1.331 . S
C280 C269 1.451 . S
C280 C279 1.331 . S
C280 C281 1.497 . S
C281 C272 1.395 1_554 S
C281 C276 1.446 1_564 S
C281 C280 1.497 . S
C282 C283 1.582 . S
C282 H339 0.962 . S
C282 H340 0.959 . S
C282 H341 0.958 . S
C283 C282 1.582 . S
C283 O286 1.458 . S
C283 H312 0.980 . S
O284 C229 1.426 . S
O284 C230 1.334 . S
O285 C257 1.412 . S
O285 C258 1.393 . S
O286 C248 1.435 . S
O286 C283 1.458 . S
O287 C239 1.468 . S
O287 C240 1.408 . S
H288 C229 0.980 . S
H289 C228 0.959 . S
H290 C228 0.959 . S
H291 C228 0.960 . S
H292 C231 0.929 . S
H293 C235 0.929 . S
H294 C236 0.959 . S
H295 C236 0.961 . S
H296 C236 0.961 . S
H297 C237 0.960 . S
H298 C237 0.958 1_565 S
H299 C237 0.961 . S
H300 C239 0.980 . S
H301 C238 0.961 . S
H302 C238 0.960 . S
H303 C238 0.959 . S
H304 C241 0.930 . S
H305 C245 0.931 . S
H306 C246 0.959 . S
H307 C246 0.961 . S
H308 C246 0.959 . S
H309 C247 0.960 . S
H310 C247 0.960 . S
H311 C247 0.960 . S
H312 C283 0.980 . S
H313 C249 0.930 . S
H314 C253 0.930 1_565 S
H315 C254 0.922 1_554 S
H316 C254 0.993 . S
H317 C254 0.958 . S
H318 C255 0.961 . S
H319 C255 0.960 . S
H320 C255 0.960 . S
H321 C257 0.980 . S
H322 C256 0.961 . S
H323 C256 0.961 . S
H324 C256 0.959 . S
H325 C259 0.932 . S
H326 C263 0.929 . S
H327 C264 0.961 1_554 S
H328 C264 0.959 . S
H329 C264 0.980 . S
H330 C265 0.960 . S
H331 C265 0.962 . S
H332 C265 0.961 . S
H333 C267 0.929 . S
H334 C270 0.930 . S
H335 C271 0.929 1_556 S
H336 C274 0.930 . S
H337 C277 0.929 . S
H338 C278 0.930 . S
H339 C282 0.962 . S
H340 C282 0.959 . S
H341 C282 0.958 . S
C342 C343 1.560 . S
C342 H403 0.959 . S
C342 H404 0.959 . S
C342 H405 0.960 . S
C343 C342 1.560 . S
C343 O398 1.426 . S
C343 H402 0.980 . S
C344 C345 1.407 . S
C344 C349 1.418 . S
C344 O398 1.334 . S
C345 C344 1.407 . S
C345 C346 1.360 . S
C345 H406 0.929 . S
C346 C345 1.360 . S
C346 C347 1.401 . S
C346 C350 1.527 . S
C347 C346 1.401 . S
C347 C348 1.405 . S
C347 C380 1.587 . S
C348 C347 1.405 . S
C348 C349 1.332 . S
C348 C351 1.496 . S
C349 C344 1.418 . S
C349 C348 1.332 . S
C349 H407 0.929 . S
C350 C346 1.527 . S
C350 H408 0.959 . S
C350 H409 0.961 . S
C350 H410 0.961 . S
C351 C348 1.496 . S
C351 H411 0.960 . S
C351 H412 0.960 . S
C351 H413 0.961 . S
C352 C353 1.517 . S
C352 H415 0.961 . S
C352 H416 0.960 . S
C352 H417 0.959 . S
C353 C352 1.517 . S
C353 O401 1.468 . S
C353 H414 0.980 . S
C354 C355 1.349 . S
C354 C359 1.367 . S
C354 O401 1.408 . S
C355 C354 1.349 . S
C355 C356 1.407 . S
C355 H418 0.930 . S
C356 C355 1.407 . S
C356 C357 1.449 . S
C356 C360 1.535 . S
C357 C356 1.449 . S
C357 C358 1.384 . S
C357 C382 1.553 . S
C358 C357 1.384 . S
C358 C359 1.364 . S
C358 C361 1.450 . S
C359 C354 1.367 . S
C359 C358 1.364 . S
C359 H419 0.931 . S
C360 C356 1.535 . S
C360 H420 0.959 . S
C360 H421 0.961 . S
C360 H422 0.959 . S
C361 C358 1.450 . S
C361 H423 0.960 . S
C361 H424 0.960 . S
C361 H425 0.960 . S
C362 C363 1.309 . S
C362 C367 1.304 . S
C362 O400 1.435 . S
C363 C362 1.309 . S
C363 C364 1.476 . S
C363 H427 0.930 . S
C364 C363 1.476 . S
C364 C365 1.400 . S
C364 C368 1.567 . S
C365 C364 1.400 . S
C365 C366 1.373 . S
C365 C387 1.432 . S
C366 C365 1.373 . S
C366 C367 1.339 . S
C366 C369 1.530 . S
C367 C362 1.304 . S
C367 C366 1.339 . S
C367 H428 0.930 . S
C368 C364 1.567 . S
C368 H429 0.961 . S
C368 H430 0.960 . S
C368 H431 0.958 . S
C369 C366 1.530 . S
C369 H432 0.961 . S
C369 H433 0.960 . S
C369 H434 0.960 . S
C370 C371 1.530 . S
C370 H436 0.961 1_545 S
C370 H437 0.961 . S
C370 H438 0.959 . S
C371 C370 1.530 . S
C371 O399 1.412 . S
C371 H435 0.980 . S
C372 C373 1.288 . S
C372 C377 1.377 . S
C372 O399 1.393 . S
C373 C372 1.288 . S
C373 C374 1.369 . S
C373 H439 0.932 . S
C374 C373 1.369 . S
C374 C375 1.398 . S
C374 C378 1.527 . S
C375 C374 1.398 . S
C375 C376 1.380 . S
C375 C389 1.497 . S
C376 C375 1.380 . S
C376 C377 1.383 . S
C376 C379 1.603 . S
C377 C372 1.377 . S
C377 C376 1.383 . S
C377 H440 0.929 . S
C378 C374 1.527 . S
C378 H441 0.961 . S
C378 H442 0.959 . S
C378 H443 0.959 . S
C379 C376 1.603 . S
C379 H444 0.960 . S
C379 H445 0.962 . S
C379 H446 0.961 . S
C380 C347 1.587 . S
C380 C381 1.360 . S
C380 C393 1.412 . S
C381 C380 1.360 . S
C381 C382 1.365 . S
C381 H447 0.929 . S
C382 C357 1.553 . S
C382 C381 1.365 . S
C382 C383 1.404 . S
C383 C382 1.404 . S
C383 C384 1.395 . S
C383 C394 1.451 . S
C384 C383 1.395 . S
C384 C385 1.322 . S
C384 H448 0.930 . S
C385 C384 1.322 . S
C385 C386 1.459 . S
C385 H449 0.929 . S
C386 C385 1.459 . S
C386 C387 1.445 . S
C386 C395 1.395 . S
C387 C365 1.432 . S
C387 C386 1.445 . S
C387 C388 1.370 . S
C388 C387 1.370 . S
C388 C389 1.438 . S
C388 H450 0.930 . S
C389 C375 1.497 . S
C389 C388 1.438 . S
C389 C390 1.360 . S
C390 C389 1.360 . S
C390 C391 1.401 . S
C390 C395 1.446 . S
C391 C390 1.401 . S
C391 C392 1.347 . S
C391 H451 0.929 . S
C392 C391 1.347 . S
C392 C393 1.455 . S
C392 H452 0.930 . S
C393 C380 1.412 . S
C393 C392 1.455 . S
C393 C394 1.331 . S
C394 C383 1.451 . S
C394 C393 1.331 . S
C394 C395 1.497 . S
C395 C386 1.395 . S
C395 C390 1.446 . S
C395 C394 1.497 . S
C396 C397 1.582 . S
C396 H453 0.962 . S
C396 H454 0.959 . S
C396 H455 0.958 . S
C397 C396 1.582 . S
C397 O400 1.458 . S
C397 H426 0.980 . S
O398 C343 1.426 . S
O398 C344 1.334 . S
O399 C371 1.412 . S
O399 C372 1.393 . S
O400 C362 1.435 . S
O400 C397 1.458 . S
O401 C353 1.468 . S
O401 C354 1.408 . S
H402 C343 0.980 . S
H403 C342 0.959 . S
H404 C342 0.959 . S
H405 C342 0.960 . S
H406 C345 0.929 . S
H407 C349 0.929 . S
H408 C350 0.959 . S
H409 C350 0.961 . S
H410 C350 0.961 . S
H411 C351 0.960 . S
H412 C351 0.960 . S
H413 C351 0.961 . S
H414 C353 0.980 . S
H415 C352 0.961 . S
H416 C352 0.960 . S
H417 C352 0.959 . S
H418 C355 0.930 . S
H419 C359 0.931 . S
H420 C360 0.959 . S
H421 C360 0.961 . S
H422 C360 0.959 . S
H423 C361 0.960 . S
H424 C361 0.960 . S
H425 C361 0.960 . S
H426 C397 0.980 . S
H427 C363 0.930 . S
H428 C367 0.930 . S
H429 C368 0.961 . S
H430 C368 0.960 . S
H431 C368 0.958 . S
H432 C369 0.961 . S
H433 C369 0.960 . S
H434 C369 0.960 . S
H435 C371 0.980 . S
H436 C370 0.961 1_565 S
H437 C370 0.961 . S
H438 C370 0.959 . S
H439 C373 0.932 . S
H440 C377 0.929 . S
H441 C378 0.961 . S
H442 C378 0.959 . S
H443 C378 0.959 . S
H444 C379 0.960 . S
H445 C379 0.962 . S
H446 C379 0.961 . S
H447 C381 0.929 . S
H448 C384 0.930 . S
H449 C385 0.929 . S
H450 C388 0.930 . S
H451 C391 0.929 . S
H452 C392 0.930 . S
H453 C396 0.962 . S
H454 C396 0.959 . S
H455 C396 0.958 . S
C456 C457 1.560 . S
C456 H517 0.959 . S
C456 H518 0.959 . S
C456 H519 0.960 . S
C457 C456 1.560 . S
C457 O512 1.426 . S
C457 H516 0.980 . S
C458 C459 1.407 . S
C458 C463 1.418 . S
C458 O512 1.334 . S
C459 C458 1.407 . S
C459 C460 1.360 . S
C459 H520 0.929 . S
C460 C459 1.360 . S
C460 C461 1.401 . S
C460 C464 1.527 . S
C461 C460 1.401 . S
C461 C462 1.405 . S
C461 C494 1.587 . S
C462 C461 1.405 . S
C462 C463 1.332 . S
C462 C465 1.496 . S
C463 C458 1.418 . S
C463 C462 1.332 . S
C463 H521 0.929 . S
C464 C460 1.527 . S
C464 H522 0.959 . S
C464 H523 0.961 . S
C464 H524 0.961 . S
C465 C462 1.496 . S
C465 H525 0.960 . S
C465 H526 0.960 . S
C465 H527 0.961 . S
C466 C467 1.517 . S
C466 H529 0.961 . S
C466 H530 0.960 . S
C466 H531 0.959 . S
C467 C466 1.517 . S
C467 O515 1.468 . S
C467 H528 0.980 . S
C468 C469 1.349 1_565 S
C468 C473 1.367 1_565 S
C468 O515 1.408 . S
C469 C468 1.349 1_545 S
C469 C470 1.407 . S
C469 H532 0.930 1_545 S
C470 C469 1.407 . S
C470 C471 1.449 . S
C470 C474 1.535 . S
C471 C470 1.449 . S
C471 C472 1.384 . S
C471 C496 1.553 . S
C472 C471 1.384 . S
C472 C473 1.364 . S
C472 C475 1.450 . S
C473 C468 1.367 1_545 S
C473 C472 1.364 . S
C473 H533 0.931 . S
C474 C470 1.535 . S
C474 H534 0.959 . S
C474 H535 0.961 . S
C474 H536 0.959 . S
C475 C472 1.450 . S
C475 H537 0.960 . S
C475 H538 0.960 . S
C475 H539 0.960 . S
C476 C477 1.309 . S
C476 C481 1.304 1_565 S
C476 O514 1.435 . S
C477 C476 1.309 . S
C477 C478 1.476 1_565 S
C477 H541 0.930 . S
C478 C477 1.476 1_545 S
C478 C479 1.400 . S
C478 C482 1.567 . S
C479 C478 1.400 . S
C479 C480 1.373 . S
C479 C501 1.432 . S
C480 C479 1.373 . S
C480 C481 1.339 . S
C480 C483 1.530 1_655 S
C481 C476 1.304 1_545 S
C481 C480 1.339 . S
C481 H542 0.930 1_655 S
C482 C478 1.567 . S
C482 H543 0.961 . S
C482 H544 0.960 . S
C482 H545 0.958 . S
C483 C480 1.530 1_455 S
C483 H546 0.961 . S
C483 H547 0.960 1_455 S
C483 H548 0.960 . S
C484 C485 1.530 . S
C484 H550 0.961 . S
C484 H551 0.961 . S
C484 H552 0.959 . S
C485 C484 1.530 . S
C485 O513 1.412 . S
C485 H549 0.980 . S
C486 C487 1.288 . S
C486 C491 1.377 . S
C486 O513 1.393 . S
C487 C486 1.288 . S
C487 C488 1.369 . S
C487 H553 0.932 . S
C488 C487 1.369 . S
C488 C489 1.398 . S
C488 C492 1.527 . S
C489 C488 1.398 . S
C489 C490 1.380 . S
C489 C503 1.497 . S
C490 C489 1.380 . S
C490 C491 1.383 . S
C490 C493 1.603 . S
C491 C486 1.377 . S
C491 C490 1.383 . S
C491 H554 0.929 . S
C492 C488 1.527 . S
C492 H555 0.961 . S
C492 H556 0.959 . S
C492 H557 0.959 . S
C493 C490 1.603 . S
C493 H558 0.960 1_655 S
C493 H559 0.962 . S
C493 H560 0.961 . S
C494 C461 1.587 . S
C494 C495 1.360 . S
C494 C507 1.412 . S
C495 C494 1.360 . S
C495 C496 1.365 . S
C495 H561 0.929 . S
C496 C471 1.553 . S
C496 C495 1.365 . S
C496 C497 1.404 . S
C497 C496 1.404 . S
C497 C498 1.395 . S
C497 C508 1.451 . S
C498 C497 1.395 . S
C498 C499 1.322 . S
C498 H562 0.930 . S
C499 C498 1.322 . S
C499 C500 1.459 . S
C499 H563 0.929 . S
C500 C499 1.459 . S
C500 C501 1.445 . S
C500 C509 1.395 . S
C501 C479 1.432 . S
C501 C500 1.445 . S
C501 C502 1.370 . S
C502 C501 1.370 . S
C502 C503 1.438 . S
C502 H564 0.930 . S
C503 C489 1.497 . S
C503 C502 1.438 . S
C503 C504 1.360 . S
C504 C503 1.360 . S
C504 C505 1.401 . S
C504 C509 1.446 . S
C505 C504 1.401 . S
C505 C506 1.347 . S
C505 H565 0.929 . S
C506 C505 1.347 . S
C506 C507 1.455 . S
C506 H566 0.930 . S
C507 C494 1.412 . S
C507 C506 1.455 . S
C507 C508 1.331 . S
C508 C497 1.451 . S
C508 C507 1.331 . S
C508 C509 1.497 . S
C509 C500 1.395 . S
C509 C504 1.446 . S
C509 C508 1.497 . S
C510 C511 1.582 . S
C510 H567 0.962 . S
C510 H568 0.959 . S
C510 H569 0.958 1_655 S
C511 C510 1.582 . S
C511 O514 1.458 . S
C511 H540 0.980 . S
O512 C457 1.426 . S
O512 C458 1.334 . S
O513 C485 1.412 . S
O513 C486 1.393 . S
O514 C476 1.435 . S
O514 C511 1.458 . S
O515 C467 1.468 . S
O515 C468 1.408 . S
H516 C457 0.980 . S
H517 C456 0.959 . S
H518 C456 0.959 . S
H519 C456 0.960 . S
H520 C459 0.929 . S
H521 C463 0.929 . S
H522 C464 0.959 . S
H523 C464 0.961 . S
H524 C464 0.961 . S
H525 C465 0.960 . S
H526 C465 0.960 . S
H527 C465 0.961 . S
H528 C467 0.980 . S
H529 C466 0.961 . S
H530 C466 0.960 . S
H531 C466 0.959 . S
H532 C469 0.930 1_565 S
H533 C473 0.931 . S
H534 C474 0.959 . S
H535 C474 0.961 . S
H536 C474 0.959 . S
H537 C475 0.960 . S
H538 C475 0.960 . S
H539 C475 0.960 . S
H540 C511 0.980 . S
H541 C477 0.930 . S
H542 C481 0.930 1_455 S
H543 C482 0.961 . S
H544 C482 0.960 . S
H545 C482 0.958 . S
H546 C483 0.961 . S
H547 C483 0.960 1_655 S
H548 C483 0.960 . S
H549 C485 0.980 . S
H550 C484 0.961 . S
H551 C484 0.961 . S
H552 C484 0.959 . S
H553 C487 0.932 . S
H554 C491 0.929 . S
H555 C492 0.961 . S
H556 C492 0.959 . S
H557 C492 0.959 . S
H558 C493 0.960 1_455 S
H559 C493 0.962 . S
H560 C493 0.961 . S
H561 C495 0.929 . S
H562 C498 0.930 . S
H563 C499 0.929 . S
H564 C502 0.930 . S
H565 C505 0.929 . S
H566 C506 0.930 . S
H567 C510 0.962 . S
H568 C510 0.959 . S
H569 C510 0.958 1_455 S
C570 C571 1.560 . S
C570 H631 0.959 . S
C570 H632 0.959 . S
C570 H633 0.960 . S
C571 C570 1.560 . S
C571 O626 1.426 . S
C571 H630 0.980 . S
C572 C573 1.407 . S
C572 C577 1.418 . S
C572 O626 1.334 . S
C573 C572 1.407 . S
C573 C574 1.360 . S
C573 H634 0.929 . S
C574 C573 1.360 . S
C574 C575 1.401 . S
C574 C578 1.527 . S
C575 C574 1.401 . S
C575 C576 1.405 . S
C575 C608 1.587 . S
C576 C575 1.405 . S
C576 C577 1.332 . S
C576 C579 1.496 . S
C577 C572 1.418 . S
C577 C576 1.332 . S
C577 H635 0.929 . S
C578 C574 1.527 . S
C578 H636 0.959 . S
C578 H637 0.961 . S
C578 H638 0.961 . S
C579 C576 1.496 . S
C579 H639 0.960 . S
C579 H640 0.960 . S
C579 H641 0.961 . S
C580 C581 1.517 . S
C580 H643 0.961 . S
C580 H644 0.960 . S
C580 H645 0.959 . S
C581 C580 1.517 . S
C581 O629 1.468 . S
C581 H642 0.980 . S
C582 C583 1.349 1_545 S
C582 C587 1.367 1_545 S
C582 O629 1.408 . S
C583 C582 1.349 1_565 S
C583 C584 1.407 . S
C583 H646 0.930 1_565 S
C584 C583 1.407 . S
C584 C585 1.449 . S
C584 C588 1.535 . S
C585 C584 1.449 . S
C585 C586 1.384 . S
C585 C610 1.553 . S
C586 C585 1.384 . S
C586 C587 1.364 . S
C586 C589 1.450 . S
C587 C582 1.367 1_565 S
C587 C586 1.364 . S
C587 H647 0.937 . S
C588 C584 1.535 . S
C588 H648 0.959 . S
C588 H649 0.961 . S
C588 H650 0.959 . S
C589 C586 1.450 . S
C589 H651 0.960 . S
C589 H652 0.960 . S
C589 H653 0.960 . S
C590 C591 1.309 . S
C590 C595 1.304 1_545 S
C590 O628 1.435 . S
C591 C590 1.309 . S
C591 C592 1.476 1_545 S
C591 H655 0.930 . S
C592 C591 1.476 1_565 S
C592 C593 1.400 . S
C592 C596 1.567 . S
C593 C592 1.400 . S
C593 C594 1.373 . S
C593 C615 1.432 . S
C594 C593 1.373 . S
C594 C595 1.339 . S
C594 C597 1.530 1_655 S
C595 C590 1.304 1_565 S
C595 C594 1.339 . S
C595 H656 0.930 1_655 S
C596 C592 1.567 . S
C596 H657 0.961 . S
C596 H658 0.960 . S
C596 H659 0.958 . S
C597 C594 1.530 1_455 S
C597 H660 0.961 . S
C597 H661 0.960 1_455 S
C597 H662 0.960 . S
C598 C599 1.530 . S
C598 H664 0.961 . S
C598 H665 0.961 . S
C598 H666 0.959 . S
C599 C598 1.530 . S
C599 O627 1.412 . S
C599 H663 0.980 . S
C600 C601 1.288 . S
C600 C605 1.377 . S
C600 O627 1.393 . S
C601 C600 1.288 . S
C601 C602 1.369 . S
C601 H667 0.932 . S
C602 C601 1.369 . S
C602 C603 1.398 . S
C602 C606 1.527 . S
C603 C602 1.398 . S
C603 C604 1.380 . S
C603 C617 1.497 . S
C604 C603 1.380 . S
C604 C605 1.383 . S
C604 C607 1.603 . S
C605 C600 1.377 . S
C605 C604 1.383 . S
C605 H668 0.929 . S
C606 C602 1.527 . S
C606 H669 0.961 . S
C606 H670 0.959 . S
C606 H671 0.959 . S
C607 C604 1.603 . S
C607 H672 0.960 1_655 S
C607 H673 0.962 . S
C607 H674 0.961 . S
C608 C575 1.587 . S
C608 C609 1.360 . S
C608 C621 1.412 . S
C609 C608 1.360 . S
C609 C610 1.365 . S
C609 H675 0.929 . S
C610 C585 1.553 . S
C610 C609 1.365 . S
C610 C611 1.404 . S
C611 C610 1.404 . S
C611 C612 1.395 . S
C611 C622 1.451 . S
C612 C611 1.395 . S
C612 C613 1.322 . S
C612 H676 0.930 . S
C613 C612 1.322 . S
C613 C614 1.459 . S
C613 H677 0.929 . S
C614 C613 1.459 . S
C614 C615 1.445 . S
C614 C623 1.395 . S
C615 C593 1.432 . S
C615 C614 1.445 . S
C615 C616 1.370 . S
C616 C615 1.370 . S
C616 C617 1.438 . S
C616 H678 0.930 . S
C617 C603 1.497 . S
C617 C616 1.438 . S
C617 C618 1.360 . S
C618 C617 1.360 . S
C618 C619 1.401 . S
C618 C623 1.446 . S
C619 C618 1.401 . S
C619 C620 1.347 . S
C619 H679 0.929 . S
C620 C619 1.347 . S
C620 C621 1.455 . S
C620 H680 0.930 . S
C621 C608 1.412 . S
C621 C620 1.455 . S
C621 C622 1.331 . S
C622 C611 1.451 . S
C622 C621 1.331 . S
C622 C623 1.497 . S
C623 C614 1.395 . S
C623 C618 1.446 . S
C623 C622 1.497 . S
C624 C625 1.582 . S
C624 H681 0.962 . S
C624 H682 0.959 . S
C624 H683 0.958 1_655 S
C625 C624 1.582 . S
C625 O628 1.458 . S
C625 H654 0.980 . S
O626 C571 1.426 . S
O626 C572 1.334 . S
O627 C599 1.412 . S
O627 C600 1.393 . S
O628 C590 1.435 . S
O628 C625 1.458 . S
O629 C581 1.468 . S
O629 C582 1.408 . S
H630 C571 0.980 . S
H631 C570 0.959 . S
H632 C570 0.959 . S
H633 C570 0.960 . S
H634 C573 0.929 . S
H635 C577 0.929 . S
H636 C578 0.959 . S
H637 C578 0.961 . S
H638 C578 0.961 . S
H639 C579 0.960 . S
H640 C579 0.960 . S
H641 C579 0.961 . S
H642 C581 0.980 . S
H643 C580 0.961 . S
H644 C580 0.960 . S
H645 C580 0.959 . S
H646 C583 0.930 1_545 S
H647 C587 0.937 . S
H648 C588 0.959 . S
H649 C588 0.961 . S
H650 C588 0.959 . S
H651 C589 0.960 . S
H652 C589 0.960 . S
H653 C589 0.960 . S
H654 C625 0.980 . S
H655 C591 0.930 . S
H656 C595 0.930 1_455 S
H657 C596 0.961 . S
H658 C596 0.960 . S
H659 C596 0.958 . S
H660 C597 0.961 . S
H661 C597 0.960 1_655 S
H662 C597 0.960 . S
H663 C599 0.980 . S
H664 C598 0.961 . S
H665 C598 0.961 . S
H666 C598 0.959 . S
H667 C601 0.932 . S
H668 C605 0.929 . S
H669 C606 0.961 . S
H670 C606 0.959 . S
H671 C606 0.959 . S
H672 C607 0.960 1_455 S
H673 C607 0.962 . S
H674 C607 0.961 . S
H675 C609 0.929 . S
H676 C612 0.930 . S
H677 C613 0.929 . S
H678 C616 0.930 . S
H679 C619 0.929 . S
H680 C620 0.930 . S
H681 C624 0.962 . S
H682 C624 0.959 . S
H683 C624 0.958 1_455 S
C684 C685 1.560 . S
C684 H745 0.959 . S
C684 H746 0.959 . S
C684 H747 0.960 . S
C685 C684 1.560 . S
C685 O740 1.426 . S
C685 H744 0.980 . S
C686 C687 1.407 . S
C686 C691 1.418 . S
C686 O740 1.334 . S
C687 C686 1.407 . S
C687 C688 1.360 . S
C687 H748 0.929 . S
C688 C687 1.360 . S
C688 C689 1.401 . S
C688 C692 1.527 . S
C689 C688 1.401 . S
C689 C690 1.405 . S
C689 C722 1.587 . S
C690 C689 1.405 . S
C690 C691 1.332 . S
C690 C693 1.496 . S
C691 C686 1.418 . S
C691 C690 1.332 . S
C691 H749 0.929 . S
C692 C688 1.527 . S
C692 H750 0.959 . S
C692 H751 0.961 . S
C692 H752 0.961 . S
C693 C690 1.496 . S
C693 H753 0.960 . S
C693 H754 0.960 . S
C693 H755 0.961 . S
C694 C695 1.517 . S
C694 H757 0.961 . S
C694 H758 0.960 . S
C694 H759 0.959 . S
C695 C694 1.517 . S
C695 O743 1.468 . S
C695 H756 0.980 . S
C696 C697 1.349 . S
C696 C701 1.367 . S
C696 O743 1.408 . S
C697 C696 1.349 . S
C697 C698 1.407 . S
C697 H760 0.930 . S
C698 C697 1.407 . S
C698 C699 1.449 . S
C698 C702 1.535 . S
C699 C698 1.449 . S
C699 C700 1.384 . S
C699 C724 1.553 . S
C700 C699 1.384 . S
C700 C701 1.364 . S
C700 C703 1.450 . S
C701 C696 1.367 . S
C701 C700 1.364 . S
C701 H761 0.931 . S
C702 C698 1.535 . S
C702 H762 0.959 . S
C702 H763 0.961 . S
C702 H764 0.959 . S
C703 C700 1.450 . S
C703 H765 0.960 . S
C703 H766 0.960 . S
C703 H767 0.960 . S
C704 C705 1.309 . S
C704 C709 1.304 . S
C704 O742 1.435 . S
C705 C704 1.309 . S
C705 C706 1.476 . S
C705 H769 0.930 . S
C706 C705 1.476 . S
C706 C707 1.400 . S
C706 C710 1.567 . S
C707 C706 1.400 . S
C707 C708 1.373 . S
C707 C729 1.432 . S
C708 C707 1.373 . S
C708 C709 1.339 . S
C708 C711 1.530 . S
C709 C704 1.304 . S
C709 C708 1.339 . S
C709 H770 0.930 . S
C710 C706 1.567 . S
C710 H771 0.961 . S
C710 H772 0.960 . S
C710 H773 0.958 . S
C711 C708 1.530 . S
C711 H774 0.969 . S
C711 H775 0.960 1_556 S
C711 H776 0.960 . S
C712 C713 1.530 . S
C712 H778 0.961 . S
C712 H779 0.961 . S
C712 H780 0.959 . S
C713 C712 1.530 . S
C713 O741 1.412 . S
C713 H777 0.980 . S
C714 C715 1.288 . S
C714 C719 1.377 . S
C714 O741 1.393 . S
C715 C714 1.288 . S
C715 C716 1.369 . S
C715 H781 0.932 . S
C716 C715 1.369 . S
C716 C717 1.398 . S
C716 C720 1.527 . S
C717 C716 1.398 . S
C717 C718 1.380 . S
C717 C731 1.497 . S
C718 C717 1.380 . S
C718 C719 1.383 . S
C718 C721 1.603 . S
C719 C714 1.377 . S
C719 C718 1.383 . S
C719 H782 0.929 . S
C720 C716 1.527 . S
C720 H783 0.961 . S
C720 H784 0.959 . S
C720 H785 0.959 . S
C721 C718 1.603 . S
C721 H786 0.960 . S
C721 H787 0.962 . S
C721 H788 0.961 1_556 S
C722 C689 1.587 . S
C722 C723 1.360 . S
C722 C735 1.412 . S
C723 C722 1.360 . S
C723 C724 1.365 . S
C723 H789 0.929 . S
C724 C699 1.553 . S
C724 C723 1.365 . S
C724 C725 1.404 . S
C725 C724 1.404 . S
C725 C726 1.395 . S
C725 C736 1.451 . S
C726 C725 1.395 . S
C726 C727 1.322 . S
C726 H790 0.930 . S
C727 C726 1.322 . S
C727 C728 1.459 . S
C727 H791 0.929 . S
C728 C727 1.459 . S
C728 C729 1.445 1_554 S
C728 C737 1.395 . S
C729 C707 1.432 . S
C729 C728 1.445 1_556 S
C729 C730 1.370 . S
C730 C729 1.370 . S
C730 C731 1.438 . S
C730 H792 0.930 . S
C731 C717 1.497 . S
C731 C730 1.438 . S
C731 C732 1.360 1_556 S
C732 C731 1.360 1_554 S
C732 C733 1.401 . S
C732 C737 1.446 . S
C733 C732 1.401 . S
C733 C734 1.347 . S
C733 H793 0.929 . S
C734 C733 1.347 . S
C734 C735 1.455 . S
C734 H794 0.930 . S
C735 C722 1.412 . S
C735 C734 1.455 . S
C735 C736 1.331 . S
C736 C725 1.451 . S
C736 C735 1.331 . S
C736 C737 1.497 . S
C737 C728 1.395 . S
C737 C732 1.446 . S
C737 C736 1.497 . S
C738 C739 1.582 . S
C738 H795 0.962 . S
C738 H796 0.959 . S
C738 H797 0.958 . S
C739 C738 1.582 . S
C739 O742 1.458 . S
C739 H768 0.980 . S
O740 C685 1.426 . S
O740 C686 1.334 . S
O741 C713 1.412 . S
O741 C714 1.393 . S
O742 C704 1.435 . S
O742 C739 1.458 . S
O743 C695 1.468 . S
O743 C696 1.408 . S
H744 C685 0.980 . S
H745 C684 0.959 . S
H746 C684 0.959 . S
H747 C684 0.960 . S
H748 C687 0.929 . S
H749 C691 0.929 . S
H750 C692 0.959 . S
H751 C692 0.961 . S
H752 C692 0.961 . S
H753 C693 0.960 . S
H754 C693 0.960 . S
H755 C693 0.961 . S
H756 C695 0.980 . S
H757 C694 0.961 . S
H758 C694 0.960 . S
H759 C694 0.959 . S
H760 C697 0.930 . S
H761 C701 0.931 . S
H762 C702 0.959 . S
H763 C702 0.961 . S
H764 C702 0.959 . S
H765 C703 0.960 . S
H766 C703 0.960 . S
H767 C703 0.960 . S
H768 C739 0.980 . S
H769 C705 0.930 . S
H770 C709 0.930 . S
H771 C710 0.961 . S
H772 C710 0.960 . S
H773 C710 0.958 . S
H774 C711 0.969 . S
H775 C711 0.960 1_554 S
H776 C711 0.960 . S
H777 C713 0.980 . S
H778 C712 0.961 . S
H779 C712 0.961 . S
H780 C712 0.959 . S
H781 C715 0.932 . S
H782 C719 0.929 . S
H783 C720 0.961 . S
H784 C720 0.959 . S
H785 C720 0.959 . S
H786 C721 0.960 . S
H787 C721 0.962 . S
H788 C721 0.961 1_554 S
H789 C723 0.929 . S
H790 C726 0.930 . S
H791 C727 0.929 . S
H792 C730 0.930 . S
H793 C733 0.929 . S
H794 C734 0.930 . S
H795 C738 0.962 . S
H796 C738 0.959 . S
H797 C738 0.958 . S
C798 C799 1.560 . S
C798 H859 0.959 . S
C798 H860 0.959 . S
C798 H861 0.960 . S
C799 C798 1.560 . S
C799 O854 1.426 . S
C799 H858 0.980 . S
C800 C801 1.407 . S
C800 C805 1.418 1_655 S
C800 O854 1.334 . S
C801 C800 1.407 . S
C801 C802 1.360 1_655 S
C801 H862 0.929 . S
C802 C801 1.360 1_455 S
C802 C803 1.401 . S
C802 C806 1.527 . S
C803 C802 1.401 . S
C803 C804 1.405 . S
C803 C836 1.587 . S
C804 C803 1.405 . S
C804 C805 1.332 . S
C804 C807 1.496 . S
C805 C800 1.418 1_455 S
C805 C804 1.332 . S
C805 H863 0.929 1_455 S
C806 C802 1.527 . S
C806 H864 0.959 . S
C806 H865 0.961 . S
C806 H866 0.961 . S
C807 C804 1.496 . S
C807 H867 0.960 . S
C807 H868 0.960 . S
C807 H869 0.961 . S
C808 C809 1.517 . S
C808 H871 0.961 . S
C808 H872 0.960 . S
C808 H873 0.959 . S
C809 C808 1.517 . S
C809 O857 1.468 . S
C809 H870 0.980 . S
C810 C811 1.349 . S
C810 C815 1.367 . S
C810 O857 1.408 . S
C811 C810 1.349 . S
C811 C812 1.407 . S
C811 H874 0.930 . S
C812 C811 1.407 . S
C812 C813 1.449 . S
C812 C816 1.535 . S
C813 C812 1.449 . S
C813 C814 1.384 . S
C813 C838 1.553 . S
C814 C813 1.384 . S
C814 C815 1.364 . S
C814 C817 1.450 . S
C815 C810 1.367 . S
C815 C814 1.364 . S
C815 H875 0.931 . S
C816 C812 1.535 . S
C816 H876 0.959 . S
C816 H877 0.961 . S
C816 H878 0.959 . S
C817 C814 1.450 . S
C817 H879 0.960 . S
C817 H880 0.960 . S
C817 H881 0.960 . S
C818 C819 1.309 . S
C818 C823 1.304 . S
C818 O856 1.435 . S
C819 C818 1.309 . S
C819 C820 1.476 . S
C819 H883 0.930 . S
C820 C819 1.476 . S
C820 C821 1.400 . S
C820 C824 1.567 . S
C821 C820 1.400 . S
C821 C822 1.373 . S
C821 C843 1.432 . S
C822 C821 1.373 . S
C822 C823 1.339 . S
C822 C825 1.530 . S
C823 C818 1.304 . S
C823 C822 1.339 . S
C823 H884 0.930 . S
C824 C820 1.567 . S
C824 H885 0.961 . S
C824 H886 0.960 . S
C824 H887 0.958 . S
C825 C822 1.530 . S
C825 H888 0.961 . S
C825 H889 0.960 . S
C825 H890 0.960 . S
C826 C827 1.530 . S
C826 H892 0.961 . S
C826 H893 0.961 . S
C826 H894 0.959 . S
C827 C826 1.530 . S
C827 O855 1.412 . S
C827 H891 0.980 . S
C828 C829 1.288 1_655 S
C828 C833 1.377 . S
C828 O855 1.393 . S
C829 C828 1.288 1_455 S
C829 C830 1.369 . S
C829 H895 0.932 . S
C830 C829 1.369 . S
C830 C831 1.398 . S
C830 C834 1.527 . S
C831 C830 1.398 . S
C831 C832 1.380 . S
C831 C845 1.497 . S
C832 C831 1.380 . S
C832 C833 1.383 1_455 S
C832 C835 1.603 . S
C833 C828 1.377 . S
C833 C832 1.383 1_655 S
C833 H896 0.929 . S
C834 C830 1.527 . S
C834 H897 0.961 . S
C834 H898 0.959 . S
C834 H899 0.959 . S
C835 C832 1.603 . S
C835 H900 0.960 . S
C835 H901 0.962 . S
C835 H902 0.961 . S
C836 C803 1.587 . S
C836 C837 1.360 . S
C836 C849 1.412 . S
C837 C836 1.360 . S
C837 C838 1.365 . S
C837 H903 0.929 . S
C838 C813 1.553 . S
C838 C837 1.365 . S
C838 C839 1.404 . S
C839 C838 1.404 . S
C839 C840 1.395 . S
C839 C850 1.451 . S
C840 C839 1.395 . S
C840 C841 1.322 . S
C840 H904 0.930 . S
C841 C840 1.322 . S
C841 C842 1.459 . S
C841 H905 0.929 . S
C842 C841 1.459 . S
C842 C843 1.445 . S
C842 C851 1.395 . S
C843 C821 1.432 . S
C843 C842 1.445 . S
C843 C844 1.370 . S
C844 C843 1.370 . S
C844 C845 1.438 . S
C844 H906 0.930 . S
C845 C831 1.497 . S
C845 C844 1.438 . S
C845 C846 1.360 . S
C846 C845 1.360 . S
C846 C847 1.401 . S
C846 C851 1.446 . S
C847 C846 1.401 . S
C847 C848 1.347 . S
C847 H907 0.929 . S
C848 C847 1.347 . S
C848 C849 1.455 . S
C848 H908 0.930 . S
C849 C836 1.412 . S
C849 C848 1.455 . S
C849 C850 1.331 . S
C850 C839 1.451 . S
C850 C849 1.331 . S
C850 C851 1.497 . S
C851 C842 1.395 . S
C851 C846 1.446 . S
C851 C850 1.497 . S
C852 C853 1.582 . S
C852 H909 0.962 . S
C852 H910 0.959 . S
C852 H911 0.958 . S
C853 C852 1.582 . S
C853 O856 1.458 . S
C853 H882 0.980 . S
O854 C799 1.426 . S
O854 C800 1.334 . S
O855 C827 1.412 . S
O855 C828 1.393 . S
O856 C818 1.435 . S
O856 C853 1.458 . S
O857 C809 1.468 . S
O857 C810 1.408 . S
H858 C799 0.980 . S
H859 C798 0.959 . S
H860 C798 0.959 . S
H861 C798 0.960 . S
H862 C801 0.929 . S
H863 C805 0.929 1_655 S
H864 C806 0.959 . S
H865 C806 0.961 . S
H866 C806 0.961 . S
H867 C807 0.960 . S
H868 C807 0.960 . S
H869 C807 0.961 . S
H870 C809 0.980 . S
H871 C808 0.961 . S
H872 C808 0.960 . S
H873 C808 0.959 . S
H874 C811 0.930 . S
H875 C815 0.931 . S
H876 C816 0.959 . S
H877 C816 0.961 . S
H878 C816 0.959 . S
H879 C817 0.960 . S
H880 C817 0.960 . S
H881 C817 0.960 . S
H882 C853 0.980 . S
H883 C819 0.930 . S
H884 C823 0.930 . S
H885 C824 0.961 . S
H886 C824 0.960 . S
H887 C824 0.958 . S
H888 C825 0.961 . S
H889 C825 0.960 . S
H890 C825 0.960 . S
H891 C827 0.980 . S
H892 C826 0.961 . S
H893 C826 0.961 . S
H894 C826 0.959 . S
H895 C829 0.932 . S
H896 C833 0.929 . S
H897 C834 0.961 . S
H898 C834 0.959 . S
H899 C834 0.959 . S
H900 C835 0.960 . S
H901 C835 0.962 . S
H902 C835 0.961 . S
H903 C837 0.929 . S
H904 C840 0.930 . S
H905 C841 0.929 . S
H906 C844 0.930 . S
H907 C847 0.929 . S
H908 C848 0.930 . S
H909 C852 0.962 . S
H910 C852 0.959 . S
H911 C852 0.958 . S
C912 O939 1.312 . S
C912 O940 1.208 . S
C913 O934 1.331 1_655 S
C913 O937 1.244 . S
C914 O936 1.276 . S
C914 O938 1.273 . S
Mg915 O917 1.936 . S
Mg915 O924 2.081 . S
Mg915 O926 2.023 . S
Mg915 O930 2.031 . S
Mg915 O939 2.291 . S
Mg916 O917 1.963 . S
Mg916 O927 1.942 . S
Mg916 O928 1.955 . S
Mg916 O935 1.986 . S
O917 Mg915 1.936 . S
O917 Mg916 1.963 . S
O917 Mg918 1.915 . S
Mg918 O917 1.915 . S
Mg918 O919 1.915 . S
Mg918 O923 2.013 . S
Mg918 O929 2.114 . S
Mg918 O933 2.013 . S
Mg918 O939 2.114 . S
O919 Mg918 1.915 . S
O919 Mg920 1.936 . S
O919 Mg921 1.963 1_455 S
Mg920 O919 1.936 . S
Mg920 O929 2.291 . S
Mg920 O934 2.081 . S
Mg920 O936 2.013 1_455 S
Mg920 O940 2.031 . S
Mg921 O919 1.963 1_655 S
Mg921 O925 1.986 . S
Mg921 O937 1.942 . S
Mg921 O938 1.955 . S
C922 O933 1.191 . S
C922 O935 1.307 . S
O923 Mg918 2.013 . S
O923 C942 1.191 . S
O924 Mg915 2.081 . S
O924 C932 1.331 . S
O925 Mg921 1.986 . S
O925 C942 1.307 1_655 S
O926 Mg915 2.023 . S
O926 C941 1.264 . S
O927 Mg916 1.942 . S
O927 C932 1.244 . S
O928 Mg916 1.955 . S
O928 C941 1.273 . S
O929 Mg918 2.114 . S
O929 Mg920 2.291 . S
O929 C931 1.312 . S
O930 Mg915 2.031 . S
O930 C931 1.208 . S
C931 O929 1.312 . S
C931 O930 1.208 . S
C932 O924 1.331 . S
C932 O927 1.244 . S
O933 Mg918 2.013 . S
O933 C922 1.191 . S
O934 C913 1.331 1_455 S
O934 Mg920 2.081 . S
O935 Mg916 1.986 . S
O935 C922 1.307 . S
O936 C914 1.276 . S
O936 Mg920 2.013 1_655 S
O937 C913 1.244 . S
O937 Mg921 1.942 . S
O938 C914 1.273 . S
O938 Mg921 1.955 . S
O939 C912 1.312 . S
O939 Mg915 2.291 . S
O939 Mg918 2.114 . S
O940 C912 1.208 . S
O940 Mg920 2.031 . S
C941 O926 1.264 . S
C941 O928 1.273 . S
C942 O923 1.191 . S
C942 O925 1.307 1_455 S
C943 O970 1.312 . S
C943 O971 1.208 . S
C944 O965 1.331 . S
C944 O968 1.244 . S
C945 O967 1.264 . S
C945 O969 1.273 . S
Mg946 O948 1.936 . S
Mg946 O955 2.081 . S
Mg946 O957 2.023 . S
Mg946 O961 2.031 . S
Mg946 O970 2.291 . S
Mg947 O948 1.963 . S
Mg947 O958 1.942 . S
Mg947 O959 1.955 . S
Mg947 O966 1.986 . S
O948 Mg946 1.936 . S
O948 Mg947 1.963 . S
O948 Mg949 1.915 . S
Mg949 O948 1.915 . S
Mg949 O950 1.915 . S
Mg949 O954 2.013 . S
Mg949 O960 2.114 . S
Mg949 O964 2.013 . S
Mg949 O970 2.114 . S
O950 Mg949 1.915 . S
O950 Mg951 1.936 . S
O950 Mg952 1.963 . S
Mg951 O950 1.936 . S
Mg951 O960 2.291 . S
Mg951 O965 2.081 . S
Mg951 O967 2.023 . S
Mg951 O971 2.031 . S
Mg952 O950 1.963 . S
Mg952 O956 1.986 . S
Mg952 O968 1.942 . S
Mg952 O969 1.955 . S
C953 O964 1.191 . S
C953 O966 1.307 . S
O954 Mg949 2.013 . S
O954 C973 1.191 . S
O955 Mg946 2.081 . S
O955 C963 1.331 . S
O956 Mg952 1.986 . S
O956 C973 1.307 . S
O957 Mg946 2.023 . S
O957 C972 1.264 . S
O958 Mg947 1.942 . S
O958 C963 1.244 . S
O959 Mg947 1.955 . S
O959 C972 1.273 . S
O960 Mg949 2.114 . S
O960 Mg951 2.291 . S
O960 C962 1.312 . S
O961 Mg946 2.031 . S
O961 C962 1.208 . S
C962 O960 1.312 . S
C962 O961 1.208 . S
C963 O955 1.331 . S
C963 O958 1.244 . S
O964 Mg949 2.013 . S
O964 C953 1.191 . S
O965 C944 1.331 . S
O965 Mg951 2.081 . S
O966 Mg947 1.986 . S
O966 C953 1.307 . S
O967 C945 1.264 . S
O967 Mg951 2.023 . S
O968 C944 1.244 . S
O968 Mg952 1.942 . S
O969 C945 1.273 . S
O969 Mg952 1.955 . S
O970 C943 1.312 . S
O970 Mg946 2.291 . S
O970 Mg949 2.114 . S
O971 C943 1.208 . S
O971 Mg951 2.031 . S
C972 O957 1.264 . S
C972 O959 1.273 . S
C973 O954 1.191 . S
C973 O956 1.307 . S
C974 O1001 1.312 . S
C974 O1002 1.208 . S
C975 O996 1.331 . S
C975 O999 1.244 . S
C976 O998 1.264 . S
C976 O1000 1.273 . S
Mg977 O979 1.936 . S
Mg977 O986 2.081 . S
Mg977 O988 2.023 . S
Mg977 O992 2.031 . S
Mg977 O1001 2.291 . S
Mg978 O979 1.963 . S
Mg978 O989 1.942 . S
Mg978 O990 1.955 . S
Mg978 O997 1.986 . S
O979 Mg977 1.936 . S
O979 Mg978 1.963 . S
O979 Mg980 1.915 . S
Mg980 O979 1.915 . S
Mg980 O981 1.915 . S
Mg980 O985 2.013 . S
Mg980 O991 2.114 . S
Mg980 O995 2.013 . S
Mg980 O1001 2.114 . S
O981 Mg980 1.915 . S
O981 Mg982 1.936 . S
O981 Mg983 1.963 . S
Mg982 O981 1.936 . S
Mg982 O991 2.291 . S
Mg982 O996 2.081 . S
Mg982 O998 2.023 . S
Mg982 O1002 2.031 . S
Mg983 O981 1.963 . S
Mg983 O987 1.986 . S
Mg983 O999 1.942 . S
Mg983 O1000 1.955 . S
C984 O995 1.191 . S
C984 O997 1.307 . S
O985 Mg980 2.013 . S
O985 C1004 1.191 . S
O986 Mg977 2.081 . S
O986 C994 1.331 . S
O987 Mg983 1.986 . S
O987 C1004 1.307 . S
O988 Mg977 2.023 . S
O988 C1003 1.264 . S
O989 Mg978 1.942 . S
O989 C994 1.244 . S
O990 Mg978 1.955 . S
O990 C1003 1.273 . S
O991 Mg980 2.114 . S
O991 Mg982 2.291 . S
O991 C993 1.312 . S
O992 Mg977 2.031 . S
O992 C993 1.208 . S
C993 O991 1.312 . S
C993 O992 1.208 . S
C994 O986 1.331 . S
C994 O989 1.244 . S
O995 Mg980 2.013 . S
O995 C984 1.191 . S
O996 C975 1.331 . S
O996 Mg982 2.081 . S
O997 Mg978 1.986 . S
O997 C984 1.307 . S
O998 C976 1.264 . S
O998 Mg982 2.023 . S
O999 C975 1.244 . S
O999 Mg983 1.942 . S
O1000 C976 1.273 . S
O1000 Mg983 1.955 . S
O1001 C974 1.312 . S
O1001 Mg977 2.291 . S
O1001 Mg980 2.114 . S
O1002 C974 1.208 . S
O1002 Mg982 2.031 . S
C1003 O988 1.264 . S
C1003 O990 1.273 . S
C1004 O985 1.191 . S
C1004 O987 1.307 . S
C1005 O1032 1.312 . S
C1005 O1033 1.208 . S
C1006 O1027 1.331 . S
C1006 O1030 1.244 . S
C1007 O1029 1.264 . S
C1007 O1031 1.273 . S
Mg1008 O1010 1.936 . S
Mg1008 O1017 2.081 1_455 S
Mg1008 O1019 2.023 1_455 S
Mg1008 O1023 2.031 . S
Mg1008 O1032 2.291 . S
Mg1009 O1010 1.963 1_655 S
Mg1009 O1020 1.942 . S
Mg1009 O1021 1.955 . S
Mg1009 O1028 1.986 . S
O1010 Mg1008 1.936 . S
O1010 Mg1009 1.963 1_455 S
O1010 Mg1011 1.915 . S
Mg1011 O1010 1.915 . S
Mg1011 O1012 1.915 . S
Mg1011 O1016 2.013 . S
Mg1011 O1022 2.114 . S
Mg1011 O1026 2.013 . S
Mg1011 O1032 2.114 . S
O1012 Mg1011 1.915 . S
O1012 Mg1013 1.936 . S
O1012 Mg1014 1.963 . S
Mg1013 O1012 1.936 . S
Mg1013 O1022 2.291 . S
Mg1013 O1027 2.081 . S
Mg1013 O1029 2.023 . S
Mg1013 O1033 2.031 . S
Mg1014 O1012 1.963 . S
Mg1014 O1018 1.986 . S
Mg1014 O1030 1.942 . S
Mg1014 O1031 1.955 . S
C1015 O1026 1.191 1_655 S
C1015 O1028 1.307 . S
O1016 Mg1011 2.013 . S
O1016 C1035 1.191 . S
O1017 Mg1008 2.081 1_655 S
O1017 C1025 1.331 . S
O1018 Mg1014 1.986 . S
O1018 C1035 1.307 . S
O1019 Mg1008 2.023 1_655 S
O1019 C1034 1.264 . S
O1020 Mg1009 1.942 . S
O1020 C1025 1.244 . S
O1021 Mg1009 1.955 . S
O1021 C1034 1.273 . S
O1022 Mg1011 2.114 . S
O1022 Mg1013 2.291 . S
O1022 C1024 1.312 . S
O1023 Mg1008 2.031 . S
O1023 C1024 1.208 . S
C1024 O1022 1.312 . S
C1024 O1023 1.208 . S
C1025 O1017 1.331 . S
C1025 O1020 1.244 . S
O1026 Mg1011 2.013 . S
O1026 C1015 1.191 1_455 S
O1027 C1006 1.331 . S
O1027 Mg1013 2.081 . S
O1028 Mg1009 1.986 . S
O1028 C1015 1.307 . S
O1029 C1007 1.264 . S
O1029 Mg1013 2.023 . S
O1030 C1006 1.244 . S
O1030 Mg1014 1.942 . S
O1031 C1007 1.273 . S
O1031 Mg1014 1.955 . S
O1032 C1005 1.312 . S
O1032 Mg1008 2.291 . S
O1032 Mg1011 2.114 . S
O1033 C1005 1.208 . S
O1033 Mg1013 2.031 . S
C1034 O1019 1.264 . S
C1034 O1021 1.273 . S
C1035 O1016 1.191 . S
C1035 O1018 1.307 . S
C1036 C1037 1.369 . S
C1036 C1038 1.419 . S
C1036 H1040 0.930 . S
C1037 C1036 1.369 . S
C1037 C1046 1.429 . S
C1038 C1036 1.419 . S
C1038 C1039 1.363 . S
C1038 H1041 0.929 . S
C1039 C1038 1.363 . S
C1039 C1045 1.428 . S
H1040 C1036 0.930 . S
H1041 C1038 0.929 . S
S1042 N1043 1.613 . S
S1042 N1044 1.610 . S
N1043 S1042 1.613 . S
N1043 C1046 1.350 . S
N1044 S1042 1.610 . S
N1044 C1045 1.351 . S
C1045 C1039 1.428 . S
C1045 N1044 1.351 . S
C1045 C1046 1.434 . S
C1046 C1037 1.429 . S
C1046 N1043 1.350 . S
C1046 C1045 1.434 . S
C1047 C1048 1.369 1_545 S
C1047 C1049 1.419 . S
C1047 H1051 0.930 . S
C1048 C1047 1.369 1_565 S
C1048 C1057 1.429 . S
C1049 C1047 1.419 . S
C1049 C1050 1.363 . S
C1049 H1052 0.929 . S
C1050 C1049 1.363 . S
C1050 C1056 1.428 . S
H1051 C1047 0.930 . S
H1052 C1049 0.929 . S
S1053 N1054 1.613 . S
S1053 N1055 1.610 1_565 S
N1054 S1053 1.613 . S
N1054 C1057 1.350 . S
N1055 S1053 1.610 1_545 S
N1055 C1056 1.351 . S
C1056 C1050 1.428 . S
C1056 N1055 1.351 . S
C1056 C1057 1.434 1_545 S
C1057 C1048 1.429 . S
C1057 N1054 1.350 . S
C1057 C1056 1.434 1_565 S
C1058 C1059 1.369 . S
C1058 C1060 1.419 . S
C1058 H1062 0.930 . S
C1059 C1058 1.369 . S
C1059 C1068 1.429 . S
C1060 C1058 1.419 . S
C1060 C1061 1.363 . S
C1060 H1063 0.929 . S
C1061 C1060 1.363 . S
C1061 C1067 1.428 . S
H1062 C1058 0.930 . S
H1063 C1060 0.929 . S
S1064 N1065 1.613 . S
S1064 N1066 1.610 . S
N1065 S1064 1.613 . S
N1065 C1068 1.350 . S
N1066 S1064 1.610 . S
N1066 C1067 1.351 . S
C1067 C1061 1.428 . S
C1067 N1066 1.351 . S
C1067 C1068 1.434 . S
C1068 C1059 1.429 . S
C1068 N1065 1.350 . S
C1068 C1067 1.434 . S
C1069 C1070 1.369 1_565 S
C1069 C1071 1.419 . S
C1069 H1073 0.930 . S
C1070 C1069 1.369 1_545 S
C1070 C1079 1.429 . S
C1071 C1069 1.419 . S
C1071 C1072 1.363 . S
C1071 H1074 0.929 . S
C1072 C1071 1.363 . S
C1072 C1078 1.428 . S
H1073 C1069 0.930 . S
H1074 C1071 0.929 . S
S1075 N1076 1.613 . S
S1075 N1077 1.610 1_545 S
N1076 S1075 1.613 . S
N1076 C1079 1.350 . S
N1077 S1075 1.610 1_565 S
N1077 C1078 1.351 . S
C1078 C1072 1.428 . S
C1078 N1077 1.351 . S
C1078 C1079 1.434 1_565 S
C1079 C1070 1.429 . S
C1079 N1076 1.350 . S
C1079 C1078 1.434 1_545 S
C1080 C1081 1.369 . S
C1080 C1082 1.419 . S
C1080 H1084 0.930 . S
C1081 C1080 1.369 . S
C1081 C1090 1.429 . S
C1082 C1080 1.419 . S
C1082 C1083 1.363 . S
C1082 H1085 0.929 . S
C1083 C1082 1.363 . S
C1083 C1089 1.428 . S
H1084 C1080 0.930 . S
H1085 C1082 0.929 . S
S1086 N1087 1.613 . S
S1086 N1088 1.610 . S
N1087 S1086 1.613 . S
N1087 C1090 1.350 . S
N1088 S1086 1.610 . S
N1088 C1089 1.351 . S
C1089 C1083 1.428 . S
C1089 N1088 1.351 . S
C1089 C1090 1.434 . S
C1090 C1081 1.429 . S
C1090 N1087 1.350 . S
C1090 C1089 1.434 . S
C1091 C1092 1.369 1_545 S
C1091 C1093 1.419 . S
C1091 H1095 0.930 1_545 S
C1092 C1091 1.369 1_565 S
C1092 C1101 1.429 1_565 S
C1093 C1091 1.419 . S
C1093 C1094 1.363 . S
C1093 H1096 0.929 . S
C1094 C1093 1.363 . S
C1094 C1100 1.428 . S
H1095 C1091 0.930 1_565 S
H1096 C1093 0.929 . S
S1097 N1098 1.613 . S
S1097 N1099 1.610 . S
N1098 S1097 1.613 . S
N1098 C1101 1.350 . S
N1099 S1097 1.610 . S
N1099 C1100 1.351 . S
C1100 C1094 1.428 . S
C1100 N1099 1.351 . S
C1100 C1101 1.434 . S
C1101 C1092 1.429 1_545 S
C1101 N1098 1.350 . S
C1101 C1100 1.434 . S
C1102 C1103 1.369 . S
C1102 C1104 1.419 . S
C1102 H1106 0.930 . S
C1103 C1102 1.369 . S
C1103 C1112 1.429 . S
C1104 C1102 1.419 . S
C1104 C1105 1.363 . S
C1104 H1107 0.929 . S
C1105 C1104 1.363 . S
C1105 C1111 1.428 . S
H1106 C1102 0.930 . S
H1107 C1104 0.929 . S
S1108 N1109 1.613 . S
S1108 N1110 1.610 . S
N1109 S1108 1.613 . S
N1109 C1112 1.350 . S
N1110 S1108 1.610 . S
N1110 C1111 1.351 . S
C1111 C1105 1.428 . S
C1111 N1110 1.351 . S
C1111 C1112 1.434 . S
C1112 C1103 1.429 . S
C1112 N1109 1.350 . S
C1112 C1111 1.434 . S
C1113 C1114 1.369 1_565 S
C1113 C1115 1.419 . S
C1113 H1117 0.930 1_565 S
C1114 C1113 1.369 1_545 S
C1114 C1123 1.429 . S
C1115 C1113 1.419 . S
C1115 C1116 1.363 . S
C1115 H1118 0.929 . S
C1116 C1115 1.363 . S
C1116 C1122 1.428 . S
H1117 C1113 0.930 1_545 S
H1118 C1115 0.929 . S
S1119 N1120 1.613 . S
S1119 N1121 1.610 1_545 S
N1120 S1119 1.613 . S
N1120 C1123 1.350 . S
N1121 S1119 1.610 1_565 S
N1121 C1122 1.351 . S
C1122 C1116 1.428 . S
C1122 N1121 1.351 . S
C1122 C1123 1.434 1_565 S
C1123 C1114 1.429 . S
C1123 N1120 1.350 . S
C1123 C1122 1.434 1_545 S
C1124 C1125 1.369 . S
C1124 C1126 1.419 . S
C1124 H1128 0.930 . S
C1125 C1124 1.369 . S
C1125 C1134 1.429 . S
C1126 C1124 1.419 . S
C1126 C1127 1.363 . S
C1126 H1129 0.929 . S
C1127 C1126 1.363 . S
C1127 C1133 1.428 . S
H1128 C1124 0.930 . S
H1129 C1126 0.929 . S
S1130 N1131 1.613 . S
S1130 N1132 1.610 . S
N1131 S1130 1.613 . S
N1131 C1134 1.350 . S
N1132 S1130 1.610 . S
N1132 C1133 1.351 . S
C1133 C1127 1.428 . S
C1133 N1132 1.351 . S
C1133 C1134 1.434 . S
C1134 C1125 1.429 . S
C1134 N1131 1.350 . S
C1134 C1133 1.434 . S
C1135 C1136 1.369 . S
C1135 C1137 1.419 . S
C1135 H1139 0.930 . S
C1136 C1135 1.369 . S
C1136 C1145 1.429 . S
C1137 C1135 1.419 . S
C1137 C1138 1.363 . S
C1137 H1140 0.929 . S
C1138 C1137 1.363 . S
C1138 C1144 1.428 . S
H1139 C1135 0.930 . S
H1140 C1137 0.929 . S
S1141 N1142 1.613 . S
S1141 N1143 1.610 . S
N1142 S1141 1.613 . S
N1142 C1145 1.350 . S
N1143 S1141 1.610 . S
N1143 C1144 1.351 . S
C1144 C1138 1.428 . S
C1144 N1143 1.351 . S
C1144 C1145 1.434 . S
C1145 C1136 1.429 . S
C1145 N1142 1.350 . S
C1145 C1144 1.434 . S
C1146 C1147 1.369 . S
C1146 C1148 1.419 . S
C1146 H1150 0.930 . S
C1147 C1146 1.369 . S
C1147 C1156 1.429 . S
C1148 C1146 1.419 . S
C1148 C1149 1.363 . S
C1148 H1151 0.929 . S
C1149 C1148 1.363 . S
C1149 C1155 1.428 . S
H1150 C1146 0.930 . S
H1151 C1148 0.929 . S
S1152 N1153 1.613 1_455 S
S1152 N1154 1.610 . S
N1153 S1152 1.613 1_655 S
N1153 C1156 1.350 . S
N1154 S1152 1.610 . S
N1154 C1155 1.351 1_455 S
C1155 C1149 1.428 . S
C1155 N1154 1.351 1_655 S
C1155 C1156 1.434 . S
C1156 C1147 1.429 . S
C1156 N1153 1.350 . S
C1156 C1155 1.434 . S
C1157 C1158 1.369 . S
C1157 C1159 1.419 1_655 S
C1157 H1161 0.930 . S
C1158 C1157 1.369 . S
C1158 C1167 1.429 . S
C1159 C1157 1.419 1_455 S
C1159 C1160 1.363 1_455 S
C1159 H1162 0.929 . S
C1160 C1159 1.363 1_655 S
C1160 C1166 1.428 . S
H1161 C1157 0.930 . S
H1162 C1159 0.929 . S
S1163 N1164 1.613 . S
S1163 N1165 1.610 . S
N1164 S1163 1.613 . S
N1164 C1167 1.350 . S
N1165 S1163 1.610 . S
N1165 C1166 1.351 . S
C1166 C1160 1.428 . S
C1166 N1165 1.351 . S
C1166 C1167 1.434 . S
C1167 C1158 1.429 . S
C1167 N1164 1.350 . S
C1167 C1166 1.434 . S
C1168 C1169 1.369 . S
C1168 C1170 1.419 . S
C1168 H1172 0.930 . S
C1169 C1168 1.369 . S
C1169 C1178 1.429 . S
C1170 C1168 1.419 . S
C1170 C1171 1.363 . S
C1170 H1173 0.929 . S
C1171 C1170 1.363 . S
C1171 C1177 1.428 . S
H1172 C1168 0.930 . S
H1173 C1170 0.929 . S
S1174 N1175 1.613 . S
S1174 N1176 1.610 . S
N1175 S1174 1.613 . S
N1175 C1178 1.350 . S
N1176 S1174 1.610 . S
N1176 C1177 1.351 . S
C1177 C1171 1.428 . S
C1177 N1176 1.351 . S
C1177 C1178 1.434 . S
C1178 C1169 1.429 . S
C1178 N1175 1.350 . S
C1178 C1177 1.434 . S
C1179 C1180 1.369 . S
C1179 C1181 1.419 . S
C1179 H1183 0.930 . S
C1180 C1179 1.369 . S
C1180 C1189 1.429 . S
C1181 C1179 1.419 . S
C1181 C1182 1.363 . S
C1181 H1184 0.929 . S
C1182 C1181 1.363 . S
C1182 C1188 1.428 1_655 S
H1183 C1179 0.930 . S
H1184 C1181 0.929 . S
S1185 N1186 1.613 . S
S1185 N1187 1.610 . S
N1186 S1185 1.613 . S
N1186 C1189 1.350 1_455 S
N1187 S1185 1.610 . S
N1187 C1188 1.351 . S
C1188 C1182 1.428 1_455 S
C1188 N1187 1.351 . S
C1188 C1189 1.434 1_455 S
C1189 C1180 1.429 . S
C1189 N1186 1.350 1_655 S
C1189 C1188 1.434 1_655 S
C1190 C1191 1.369 . S
C1190 C1192 1.419 . S
C1190 H1194 0.930 . S
C1191 C1190 1.369 . S
C1191 C1200 1.429 . S
C1192 C1190 1.419 . S
C1192 C1193 1.363 . S
C1192 H1195 0.929 . S
C1193 C1192 1.363 . S
C1193 C1199 1.428 . S
H1194 C1190 0.930 . S
H1195 C1192 0.929 . S
S1196 N1197 1.613 . S
S1196 N1198 1.610 . S
N1197 S1196 1.613 . S
N1197 C1200 1.350 . S
N1198 S1196 1.610 . S
N1198 C1199 1.351 . S
C1199 C1193 1.428 . S
C1199 N1198 1.351 . S
C1199 C1200 1.434 . S
C1200 C1191 1.429 . S
C1200 N1197 1.350 . S
C1200 C1199 1.434 . S
C1201 C1202 1.369 . S
C1201 C1203 1.419 . S
C1201 H1205 0.930 . S
C1202 C1201 1.369 . S
C1202 C1211 1.429 . S
C1203 C1201 1.419 . S
C1203 C1204 1.363 . S
C1203 H1206 0.929 . S
C1204 C1203 1.363 . S
C1204 C1210 1.428 . S
H1205 C1201 0.930 . S
H1206 C1203 0.929 . S
S1207 N1208 1.613 . S
S1207 N1209 1.610 . S
N1208 S1207 1.613 . S
N1208 C1211 1.350 . S
N1209 S1207 1.610 . S
N1209 C1210 1.351 . S
C1210 C1204 1.428 . S
C1210 N1209 1.351 . S
C1210 C1211 1.434 . S
C1211 C1202 1.429 . S
C1211 N1208 1.350 . S
C1211 C1210 1.434 . S
C1212 C1213 1.369 . S
C1212 C1214 1.419 . S
C1212 H1216 0.930 . S
C1213 C1212 1.369 . S
C1213 C1222 1.429 . S
C1214 C1212 1.419 . S
C1214 C1215 1.363 . S
C1214 H1217 0.929 . S
C1215 C1214 1.363 . S
C1215 C1221 1.428 . S
H1216 C1212 0.930 . S
H1217 C1214 0.929 . S
S1218 N1219 1.613 . S
S1218 N1220 1.610 . S
N1219 S1218 1.613 . S
N1219 C1222 1.350 . S
N1220 S1218 1.610 . S
N1220 C1221 1.351 . S
C1221 C1215 1.428 . S
C1221 N1220 1.351 . S
C1221 C1222 1.434 . S
C1222 C1213 1.429 . S
C1222 N1219 1.350 . S
C1222 C1221 1.434 . S
C1223 C1224 1.369 . S
C1223 C1225 1.419 . S
C1223 H1227 0.930 . S
C1224 C1223 1.369 . S
C1224 C1233 1.429 . S
C1225 C1223 1.419 . S
C1225 C1226 1.363 . S
C1225 H1228 0.929 . S
C1226 C1225 1.363 . S
C1226 C1232 1.428 . S
H1227 C1223 0.930 . S
H1228 C1225 0.929 . S
S1229 N1230 1.613 . S
S1229 N1231 1.610 . S
N1230 S1229 1.613 . S
N1230 C1233 1.350 . S
N1231 S1229 1.610 . S
N1231 C1232 1.351 . S
C1232 C1226 1.428 . S
C1232 N1231 1.351 . S
C1232 C1233 1.434 . S
C1233 C1224 1.429 . S
C1233 N1230 1.350 . S
C1233 C1232 1.434 . S
C1234 C1235 1.369 . S
C1234 C1236 1.419 . S
C1234 H1238 0.930 . S
C1235 C1234 1.369 . S
C1235 C1244 1.429 . S
C1236 C1234 1.419 . S
C1236 C1237 1.363 . S
C1236 H1239 0.929 . S
C1237 C1236 1.363 . S
C1237 C1243 1.428 . S
H1238 C1234 0.930 . S
H1239 C1236 0.929 . S
S1240 N1241 1.613 . S
S1240 N1242 1.610 . S
N1241 S1240 1.613 . S
N1241 C1244 1.350 . S
N1242 S1240 1.610 . S
N1242 C1243 1.351 . S
C1243 C1237 1.428 . S
C1243 N1242 1.351 . S
C1243 C1244 1.434 . S
C1244 C1235 1.429 . S
C1244 N1241 1.350 . S
C1244 C1243 1.434 . S
C1245 C1246 1.369 . S
C1245 C1247 1.419 . S
C1245 H1249 0.930 . S
C1246 C1245 1.369 . S
C1246 C1255 1.429 . S
C1247 C1245 1.419 . S
C1247 C1248 1.363 . S
C1247 H1250 0.929 . S
C1248 C1247 1.363 . S
C1248 C1254 1.428 . S
H1249 C1245 0.930 . S
H1250 C1247 0.929 . S
S1251 N1252 1.613 . S
S1251 N1253 1.610 . S
N1252 S1251 1.613 . S
N1252 C1255 1.350 . S
N1253 S1251 1.610 . S
N1253 C1254 1.351 . S
C1254 C1248 1.428 . S
C1254 N1253 1.351 . S
C1254 C1255 1.434 . S
C1255 C1246 1.429 . S
C1255 N1252 1.350 . S
C1255 C1254 1.434 . S
C1256 C1257 1.369 . S
C1256 C1258 1.419 . S
C1256 H1260 0.930 . S
C1257 C1256 1.369 . S
C1257 C1266 1.429 . S
C1258 C1256 1.419 . S
C1258 C1259 1.363 . S
C1258 H1261 0.929 . S
C1259 C1258 1.363 . S
C1259 C1265 1.428 . S
H1260 C1256 0.930 . S
H1261 C1258 0.929 . S
S1262 N1263 1.613 . S
S1262 N1264 1.610 . S
N1263 S1262 1.613 . S
N1263 C1266 1.350 . S
N1264 S1262 1.610 . S
N1264 C1265 1.351 . S
C1265 C1259 1.428 . S
C1265 N1264 1.351 . S
C1265 C1266 1.434 . S
C1266 C1257 1.429 . S
C1266 N1263 1.350 . S
C1266 C1265 1.434 . S
C1267 C1268 1.369 . S
C1267 C1269 1.419 . S
C1267 H1271 0.930 . S
C1268 C1267 1.369 . S
C1268 C1277 1.429 . S
C1269 C1267 1.419 . S
C1269 C1270 1.363 . S
C1269 H1272 0.929 . S
C1270 C1269 1.363 . S
C1270 C1276 1.428 . S
H1271 C1267 0.930 . S
H1272 C1269 0.929 . S
S1273 N1274 1.613 . S
S1273 N1275 1.610 . S
N1274 S1273 1.613 . S
N1274 C1277 1.350 . S
N1275 S1273 1.610 . S
N1275 C1276 1.351 . S
C1276 C1270 1.428 . S
C1276 N1275 1.351 . S
C1276 C1277 1.434 . S
C1277 C1268 1.429 . S
C1277 N1274 1.350 . S
C1277 C1276 1.434 . S
C1278 C1279 1.369 . S
C1278 C1280 1.419 . S
C1278 H1282 0.930 . S
C1279 C1278 1.369 . S
C1279 C1288 1.429 . S
C1280 C1278 1.419 . S
C1280 C1281 1.363 . S
C1280 H1283 0.929 . S
C1281 C1280 1.363 . S
C1281 C1287 1.428 . S
H1282 C1278 0.930 . S
H1283 C1280 0.929 . S
S1284 N1285 1.613 . S
S1284 N1286 1.610 . S
N1285 S1284 1.613 . S
N1285 C1288 1.350 . S
N1286 S1284 1.610 . S
N1286 C1287 1.351 . S
C1287 C1281 1.428 . S
C1287 N1286 1.351 . S
C1287 C1288 1.434 . S
C1288 C1279 1.429 . S
C1288 N1285 1.350 . S
C1288 C1287 1.434 . S
C1289 C1290 1.369 . S
C1289 C1291 1.419 . S
C1289 H1293 0.930 1_655 S
C1290 C1289 1.369 . S
C1290 C1299 1.429 . S
C1291 C1289 1.419 . S
C1291 C1292 1.363 . S
C1291 H1294 0.929 1_655 S
C1292 C1291 1.363 . S
C1292 C1298 1.428 . S
H1293 C1289 0.930 1_455 S
H1294 C1291 0.929 1_455 S
S1295 N1296 1.613 . S
S1295 N1297 1.610 . S
N1296 S1295 1.613 . S
N1296 C1299 1.350 . S
N1297 S1295 1.610 . S
N1297 C1298 1.351 . S
C1298 C1292 1.428 . S
C1298 N1297 1.351 . S
C1298 C1299 1.434 . S
C1299 C1290 1.429 . S
C1299 N1296 1.350 . S
C1299 C1298 1.434 . S
C1300 C1301 1.369 . S
C1300 C1302 1.419 . S
C1300 H1304 0.930 . S
C1301 C1300 1.369 . S
C1301 C1310 1.429 . S
C1302 C1300 1.419 . S
C1302 C1303 1.363 . S
C1302 H1305 0.929 . S
C1303 C1302 1.363 . S
C1303 C1309 1.428 . S
H1304 C1300 0.930 . S
H1305 C1302 0.929 . S
S1306 N1307 1.613 . S
S1306 N1308 1.610 . S
N1307 S1306 1.613 . S
N1307 C1310 1.350 . S
N1308 S1306 1.610 . S
N1308 C1309 1.351 . S
C1309 C1303 1.428 . S
C1309 N1308 1.351 . S
C1309 C1310 1.434 . S
C1310 C1301 1.429 . S
C1310 N1307 1.350 . S
C1310 C1309 1.434 . S
C1311 C1312 1.369 . S
C1311 C1313 1.419 . S
C1311 H1315 0.930 . S
C1312 C1311 1.369 . S
C1312 C1321 1.429 . S
C1313 C1311 1.419 . S
C1313 C1314 1.363 . S
C1313 H1316 0.929 . S
C1314 C1313 1.363 . S
C1314 C1320 1.428 . S
H1315 C1311 0.930 . S
H1316 C1313 0.929 . S
S1317 N1318 1.613 . S
S1317 N1319 1.610 . S
N1318 S1317 1.613 . S
N1318 C1321 1.350 . S
N1319 S1317 1.610 . S
N1319 C1320 1.351 . S
C1320 C1314 1.428 . S
C1320 N1319 1.351 . S
C1320 C1321 1.434 . S
C1321 C1312 1.429 . S
C1321 N1318 1.350 . S
C1321 C1320 1.434 . S
C1322 C1323 1.369 . S
C1322 C1324 1.419 . S
C1322 H1326 0.930 . S
C1323 C1322 1.369 . S
C1323 C1332 1.429 . S
C1324 C1322 1.419 . S
C1324 C1325 1.363 . S
C1324 H1327 0.929 . S
C1325 C1324 1.363 . S
C1325 C1331 1.428 . S
H1326 C1322 0.930 . S
H1327 C1324 0.929 . S
S1328 N1329 1.613 . S
S1328 N1330 1.610 . S
N1329 S1328 1.613 . S
N1329 C1332 1.350 . S
N1330 S1328 1.610 . S
N1330 C1331 1.351 . S
C1331 C1325 1.428 . S
C1331 N1330 1.351 . S
C1331 C1332 1.434 . S
C1332 C1323 1.429 . S
C1332 N1329 1.350 . S
C1332 C1331 1.434 . S
C1333 C1334 1.369 . S
C1333 C1335 1.419 . S
C1333 H1337 0.930 . S
C1334 C1333 1.369 . S
C1334 C1343 1.429 . S
C1335 C1333 1.419 . S
C1335 C1336 1.363 . S
C1335 H1338 0.929 . S
C1336 C1335 1.363 . S
C1336 C1342 1.428 . S
H1337 C1333 0.930 . S
H1338 C1335 0.929 . S
S1339 N1340 1.613 . S
S1339 N1341 1.610 . S
N1340 S1339 1.613 . S
N1340 C1343 1.350 . S
N1341 S1339 1.610 . S
N1341 C1342 1.351 . S
C1342 C1336 1.428 . S
C1342 N1341 1.351 . S
C1342 C1343 1.434 . S
C1343 C1334 1.429 . S
C1343 N1340 1.350 . S
C1343 C1342 1.434 . S
C1344 C1345 1.369 . S
C1344 C1346 1.419 . S
C1344 H1348 0.930 . S
C1345 C1344 1.369 . S
C1345 C1354 1.429 . S
C1346 C1344 1.419 . S
C1346 C1347 1.363 . S
C1346 H1349 0.929 . S
C1347 C1346 1.363 . S
C1347 C1353 1.428 . S
H1348 C1344 0.930 . S
H1349 C1346 0.929 . S
S1350 N1351 1.613 . S
S1350 N1352 1.610 . S
N1351 S1350 1.613 . S
N1351 C1354 1.350 . S
N1352 S1350 1.610 . S
N1352 C1353 1.351 . S
C1353 C1347 1.428 . S
C1353 N1352 1.351 . S
C1353 C1354 1.434 . S
C1354 C1345 1.429 . S
C1354 N1351 1.350 . S
C1354 C1353 1.434 . S
C1355 C1356 1.369 . S
C1355 C1357 1.419 . S
C1355 H1359 0.930 . S
C1356 C1355 1.369 . S
C1356 C1365 1.429 . S
C1357 C1355 1.419 . S
C1357 C1358 1.363 . S
C1357 H1360 0.929 . S
C1358 C1357 1.363 . S
C1358 C1364 1.428 . S
H1359 C1355 0.930 . S
H1360 C1357 0.929 . S
S1361 N1362 1.613 . S
S1361 N1363 1.610 . S
N1362 S1361 1.613 . S
N1362 C1365 1.350 . S
N1363 S1361 1.610 . S
N1363 C1364 1.351 . S
C1364 C1358 1.428 . S
C1364 N1363 1.351 . S
C1364 C1365 1.434 . S
C1365 C1356 1.429 . S
C1365 N1362 1.350 . S
C1365 C1364 1.434 . S
C1366 C1367 1.369 . S
C1366 C1368 1.419 . S
C1366 H1370 0.930 . S
C1367 C1366 1.369 . S
C1367 C1376 1.429 . S
C1368 C1366 1.419 . S
C1368 C1369 1.363 . S
C1368 H1371 0.929 . S
C1369 C1368 1.363 . S
C1369 C1375 1.428 . S
H1370 C1366 0.930 . S
H1371 C1368 0.929 . S
S1372 N1373 1.613 . S
S1372 N1374 1.610 . S
N1373 S1372 1.613 . S
N1373 C1376 1.350 . S
N1374 S1372 1.610 . S
N1374 C1375 1.351 . S
C1375 C1369 1.428 . S
C1375 N1374 1.351 . S
C1375 C1376 1.434 . S
C1376 C1367 1.429 . S
C1376 N1373 1.350 . S
C1376 C1375 1.434 . S
C1377 C1378 1.369 . S
C1377 C1379 1.419 . S
C1377 H1381 0.930 . S
C1378 C1377 1.369 . S
C1378 C1387 1.429 . S
C1379 C1377 1.419 . S
C1379 C1380 1.363 . S
C1379 H1382 0.929 . S
C1380 C1379 1.363 . S
C1380 C1386 1.428 . S
H1381 C1377 0.930 . S
H1382 C1379 0.929 . S
S1383 N1384 1.613 . S
S1383 N1385 1.610 . S
N1384 S1383 1.613 . S
N1384 C1387 1.350 . S
N1385 S1383 1.610 . S
N1385 C1386 1.351 . S
C1386 C1380 1.428 . S
C1386 N1385 1.351 . S
C1386 C1387 1.434 . S
C1387 C1378 1.429 . S
C1387 N1384 1.350 . S
C1387 C1386 1.434 . S
C1039 C972 1.867 . S
C1037 C11 1.382 . S
C1048 C143 1.305 . S
C1050 C975 1.785 . S
C1059 C283 1.203 . S
C1061 C1006 1.832 . S
C1072 C941 1.732 . S
C1070 C343 1.612 . S
C1083 C976 1.919 . S
C1081 C55 1.312 . S
C1094 C1007 1.718 . S
C1092 C115 1.606 . S
C1105 C932 1.773 . S
C1103 C239 1.305 . S
C1116 C963 1.802 . S
C1114 C371 1.333 . S
C1125 C29 1.036 . S
C1127 C993 1.151 . S
C1136 C467 0.716 . S
C1138 C962 1.299 . S
C1147 C229 0.840 . S
C1149 C922 1.079 1_655 S
C1160 C1015 1.323 . S
C1158 C625 1.059 . S
C1171 C943 1.118 . S
C1169 C1 0.906 . S
C1180 C511 1.043 . S
C1182 C942 1.311 1_655 S
C1191 C257 0.973 . S
C1193 C1035 1.128 1_655 S
C1204 C974 1.319 . S
C1202 C581 0.722 . S
C1213 C713 1.384 . S
C1215 C1034 1.859 . S
C1224 C485 1.291 . S
C1226 C913 1.783 . S
C1235 C799 1.532 . S
C1237 C944 1.666 . S
C1246 C571 1.609 . S
C1248 C1003 1.717 . S
C1259 C914 1.755 . S
C1257 C685 1.625 . S
C1268 C457 1.607 . S
C1270 C945 1.711 . S
C1279 C827 1.278 . S
C1281 C994 1.779 . S
C1292 C1025 1.790 . S
C1290 C599 1.301 . S
C1301 C695 0.750 . S
C1303 C931 1.341 . S
C1312 C125 0.731 . S
C1314 C1024 1.331 . S
C1323 C853 1.078 . S
C1325 C984 1.319 . S
C1336 C953 1.350 . S
C1334 C397 1.094 . S
C1347 C1005 1.343 . S
C1345 C739 1.094 . S
C1358 C1004 1.336 . S
C1356 C169 1.062 . S
C1369 C973 1.305 . S
C1367 C809 0.702 . S
C1380 C912 1.349 . S
C1378 C353 0.731 . S
