# Generated by pormake.
# Topology sqc, (4,8)-cn, num edge types: 1
# Building blocks:
#     Node 0, Type 0, BuildingBlock: AZAVOO_clean_linker_0, # of connection points: 4
#     Node 1, Type 0, BuildingBlock: AZAVOO_clean_linker_0, # of connection points: 4
#     Node 2, Type 0, BuildingBlock: AZAVOO_clean_linker_0, # of connection points: 4
#     Node 3, Type 0, BuildingBlock: AZAVOO_clean_linker_0, # of connection points: 4
#     Node 4, Type 0, BuildingBlock: AZAVOO_clean_linker_0, # of connection points: 4
#     Node 5, Type 0, BuildingBlock: AZAVOO_clean_linker_0, # of connection points: 4
#     Node 6, Type 0, BuildingBlock: AZAVOO_clean_linker_0, # of connection points: 4
#     Node 7, Type 0, BuildingBlock: AZAVOO_clean_linker_0, # of connection points: 4
#     Node 8, Type 1, BuildingBlock: TAGTUT_clean_sbu_3, # of connection points: 8
#     Node 9, Type 1, BuildingBlock: TAGTUT_clean_sbu_3, # of connection points: 8
#     Node 10, Type 1, BuildingBlock: TAGTUT_clean_sbu_3, # of connection points: 8
#     Node 11, Type 1, BuildingBlock: TAGTUT_clean_sbu_3, # of connection points: 8
#     Edge 12, Type (0, 1), None
#     Edge 13, Type (0, 1), None
#     Edge 14, Type (0, 1), None
#     Edge 15, Type (0, 1), None
#     Edge 16, Type (0, 1), None
#     Edge 17, Type (0, 1), None
#     Edge 18, Type (0, 1), None
#     Edge 19, Type (0, 1), None
#     Edge 20, Type (0, 1), None
#     Edge 21, Type (0, 1), None
#     Edge 22, Type (0, 1), None
#     Edge 23, Type (0, 1), None
#     Edge 24, Type (0, 1), None
#     Edge 25, Type (0, 1), None
#     Edge 26, Type (0, 1), None
#     Edge 27, Type (0, 1), None
#     Edge 28, Type (0, 1), None
#     Edge 29, Type (0, 1), None
#     Edge 30, Type (0, 1), None
#     Edge 31, Type (0, 1), None
#     Edge 32, Type (0, 1), None
#     Edge 33, Type (0, 1), None
#     Edge 34, Type (0, 1), None
#     Edge 35, Type (0, 1), None
#     Edge 36, Type (0, 1), None
#     Edge 37, Type (0, 1), None
#     Edge 38, Type (0, 1), None
#     Edge 39, Type (0, 1), None
#     Edge 40, Type (0, 1), None
#     Edge 41, Type (0, 1), None
#     Edge 42, Type (0, 1), None
#     Edge 43, Type (0, 1), None
# Relax obj value: 0.205
# Max RMSD: 0.298
# Mean RMSD: 0.228
data_MOF--net-sqc--node1-TAGTUT_clean_sbu_3--node2-AZAVOO_clean_linker_0--edge1-none
_symmetry_space_group_name_H-M    P1
_symmetry_Int_Tables_number       1
_symmetry_cell_setting            triclinic
loop_
_symmetry_equiv_pos_as_xyz
'x, y, z'
_cell_length_a     14.728876
_cell_length_b     14.757241
_cell_length_c     52.924703
_cell_angle_alpha  92.676731
_cell_angle_beta   89.576381
_cell_angle_gamma 91.622066
loop_
_atom_site_label
_atom_site_type_symbol
_atom_site_fract_x
_atom_site_fract_y
_atom_site_fract_z
_atom_type_partial_charge
H0 H 0.04271 0.08962 0.66207 0.0
H1 H 0.44558 0.30497 0.43934 0.0
H2 H 0.14857 0.27623 0.52223 0.0
H3 H 0.26121 0.29071 0.55577 0.0
H4 H 0.30883 0.00392 0.54735 0.0
H5 H 0.19076 0.98847 0.51464 0.0
H6 H 0.01036 0.24509 0.56317 0.0
H7 H 0.02376 0.20642 0.6072 0.0
H8 H 0.02966 0.92227 0.58373 0.0
H9 H 0.01107 0.96188 0.53972 0.0
H10 H 0.77884 0.2758 0.52284 0.0
H11 H 0.65968 0.26333 0.55433 0.0
H12 H 0.72736 0.98482 0.56439 0.0
H13 H 0.84292 -0.0046 0.53119 0.0
H14 H 0.88535 0.33475 0.46931 0.0
H15 H 0.74955 0.40458 0.45322 0.0
H16 H 0.59614 0.15452 0.463 0.0
H17 H 0.73151 0.08623 0.47946 0.0
H18 H 0.91624 0.17062 0.42121 0.0
H19 H 0.79319 0.09223 0.39652 0.0
H20 H 0.77874 0.88308 0.45068 0.0
H21 H 0.90399 0.95674 0.47408 0.0
H22 H 0.21284 0.19375 0.46451 0.0
H23 H 0.33585 0.13209 0.4379 0.0
H24 H 0.18463 0.87764 0.42881 0.0
H25 H 0.06484 0.93799 0.45616 0.0
O26 O 0.03516 0.1033 0.6445 0.0
O27 O 0.05381 0.96 0.63103 0.0
O28 O 0.58256 0.40567 0.44069 0.0
O29 O 0.50027 0.27886 0.44549 0.0
C30 C 0.06975 0.12137 0.50468 0.0
C31 C 0.99447 0.12864 0.52124 0.0
C32 C 0.90905 0.1499 0.51145 0.0
C33 C 0.90188 0.16586 0.48566 0.0
C34 C 0.96602 0.12541 0.4691 0.0
C35 C 0.05436 0.10825 0.47838 0.0
C36 C 0.16145 0.13139 0.51598 0.0
C37 C 0.1861 0.21708 0.52679 0.0
C38 C 0.25011 0.22538 0.54604 0.0
C39 C 0.29338 0.14874 0.55417 0.0
C40 C 0.27671 0.06429 0.54128 0.0
C41 C 0.21 0.05539 0.52244 0.0
C42 C 0.00509 0.10638 0.54823 0.0
C43 C 0.01064 0.17458 0.56752 0.0
C44 C 0.02044 0.15225 0.59271 0.0
C45 C 0.02743 0.06128 0.59903 0.0
C46 C 0.0241 -0.00695 0.57956 0.0
C47 C 0.01334 0.01552 0.55441 0.0
C48 C 0.82558 0.13911 0.52672 0.0
C49 C 0.7672 0.21141 0.53143 0.0
C50 C 0.69704 0.20323 0.54891 0.0
C51 C 0.68829 0.12424 0.56261 0.0
C52 C 0.73517 0.04698 0.55445 0.0
C53 C 0.80328 0.05423 0.5363 0.0
C54 C 0.81862 0.20544 0.47539 0.0
C55 C 0.82244 0.29514 0.46781 0.0
C56 C 0.74489 0.3348 0.45866 0.0
C57 C 0.66214 0.28503 0.45673 0.0
C58 C 0.65873 0.19476 0.46419 0.0
C59 C 0.73615 0.15541 0.47351 0.0
C60 C 0.92212 0.06761 0.44891 0.0
C61 C 0.88869 0.10613 0.42715 0.0
C62 C 0.81514 0.0644 0.41397 0.0
C63 C 0.77211 0.98568 0.42289 0.0
C64 C 0.80695 0.94683 0.44432 0.0
C65 C 0.88189 0.98613 0.45684 0.0
C66 C 0.12782 0.0717 0.46165 0.0
C67 C 0.20656 0.1245 0.45685 0.0
C68 C 0.27742 0.08878 0.44191 0.0
C69 C 0.27043 -0.00023 0.43122 0.0
C70 C 0.19247 0.94648 0.43668 0.0
C71 C 0.1227 0.98161 0.45195 0.0
C72 C 0.03951 0.03808 0.62577 0.0
C73 C 0.57953 0.32712 0.44714 0.0
H74 H 0.47504 0.72362 0.59211 0.0
H75 H 0.33061 0.32489 0.77266 0.0
H76 H 0.20279 0.5273 0.7214 0.0
H77 H 0.23183 0.40213 0.69128 0.0
H78 H 0.50671 0.39199 0.71904 0.0
H79 H 0.47557 0.51619 0.74977 0.0
H80 H 0.2537 0.67853 0.6832 0.0
H81 H 0.31959 0.69163 0.64112 0.0
H82 H 0.58537 0.64604 0.67102 0.0
H83 H 0.52012 0.64435 0.71374 0.0
H84 H 0.1927 0.85055 0.70814 0.0
H85 H 0.20017 0.93205 0.66862 0.0
H86 H 0.49343 0.92339 0.67029 0.0
H87 H 0.48541 0.84721 0.70999 0.0
H88 H 0.15421 0.90288 0.76262 0.0
H89 H 0.13323 0.0668 0.76842 0.0
H90 H 0.42421 0.11213 0.76579 0.0
H91 H 0.44431 0.94835 0.75994 0.0
H92 H 0.14307 0.75241 0.80133 0.0
H93 H 0.09109 0.8793 0.8294 0.0
H94 H 0.3663 0.98534 0.83449 0.0
H95 H 0.41746 0.85656 0.80768 0.0
H96 H 0.18276 0.51898 0.76739 0.0
H97 H 0.14313 0.40562 0.79767 0.0
H98 H 0.32891 0.53653 0.85078 0.0
H99 H 0.37984 0.64262 0.8189 0.0
O100 O 0.44964 0.71497 0.60879 0.0
O101 O 0.57771 0.66039 0.62312 0.0
O102 O 0.18866 0.23187 0.77431 0.0
O103 O 0.33723 0.25981 0.77067 0.0
C104 C 0.33251 0.62703 0.74619 0.0
C105 C 0.34868 0.68961 0.72731 0.0
C106 C 0.33434 0.78191 0.73257 0.0
C107 C 0.31355 0.81445 0.75701 0.0
C108 C 0.30444 0.75342 0.77689 0.0
C109 C 0.30891 0.65757 0.77125 0.0
C110 C 0.33686 0.53026 0.73793 0.0
C111 C 0.26727 0.49398 0.72217 0.0
C112 C 0.28463 0.42342 0.7046 0.0
C113 C 0.37246 0.38948 0.70224 0.0
C114 C 0.43879 0.41826 0.72013 0.0
C115 C 0.42077 0.48805 0.73803 0.0
C116 C 0.38212 0.66069 0.70158 0.0
C117 C 0.32581 0.66859 0.68057 0.0
C118 C 0.36377 0.67612 0.6565 0.0
C119 C 0.45775 0.66782 0.65264 0.0
C120 C 0.51272 0.65108 0.6734 0.0
C121 C 0.4754 0.64868 0.69772 0.0
C122 C 0.33871 0.84395 0.71169 0.0
C123 C 0.25826 0.86793 0.7 0.0
C124 C 0.2624 0.91153 0.67722 0.0
C125 C 0.34693 0.92944 0.66589 0.0
C126 C 0.42714 0.90623 0.67799 0.0
C127 C 0.42306 0.86539 0.70099 0.0
C128 C 0.30075 0.91384 0.76131 0.0
C129 C 0.21325 0.94836 0.76358 0.0
C130 C 0.20147 0.04184 0.76687 0.0
C131 C 0.27702 0.10245 0.7678 0.0
C132 C 0.36459 0.06743 0.76528 0.0
C133 C 0.3763 0.97397 0.76196 0.0
C134 C 0.28331 0.79536 0.80228 0.0
C135 C 0.1921 0.80077 0.80956 0.0
C136 C 0.16258 0.87469 0.8248 0.0
C137 C 0.22393 0.94508 0.83272 0.0
C138 C 0.31679 0.93453 0.82763 0.0
C139 C 0.34647 0.85904 0.81312 0.0
C140 C 0.28597 0.58884 0.79036 0.0
C141 C 0.22033 0.51971 0.78477 0.0
C142 C 0.19848 0.45361 0.80203 0.0
C143 C 0.23795 0.45795 0.82603 0.0
C144 C 0.30371 0.52686 0.8317 0.0
C145 C 0.32929 0.59028 0.81388 0.0
C146 C 0.49883 0.68034 0.62731 0.0
C147 C 0.26462 0.20184 0.77115 0.0
H148 H 0.55192 0.96079 0.17654 0.0
H149 H 0.20934 0.28431 0.00685 0.0
H150 H 0.46289 0.92796 0.02524 0.0
H151 H 0.36322 0.88355 0.05959 0.0
H152 H 0.3014 0.16417 0.07605 0.0
H153 H 0.40374 0.20908 0.04173 0.0
H154 H 0.5872 0.93986 0.06634 0.0
H155 H 0.56696 0.92005 0.11172 0.0
H156 H 0.54311 0.21029 0.12383 0.0
H157 H 0.56255 0.22868 0.07834 0.0
H158 H 0.76309 0.94094 0.03194 0.0
H159 H 0.84703 0.86756 0.06462 0.0
H160 H 0.83501 0.11253 0.11206 0.0
H161 H 0.75839 0.18859 0.07858 0.0
H162 H 0.84096 0.01965 -0.01521 0.0
H163 H 0.00329 0.05127 -0.0219 0.0
H164 H 0.98097 0.3063 0.02109 0.0
H165 H 0.81856 0.27465 0.02717 0.0
H166 H 0.67543 0.00289 0.95294 0.0
H167 H 0.78653 0.01676 0.91844 0.0
H168 H 0.82875 0.3003 0.93972 0.0
H169 H 0.71653 0.28678 0.97361 0.0
H170 H 0.45311 0.96491 -0.01909 0.0
H171 H 0.32938 0.96649 0.94995 0.0
H172 H 0.39254 0.2496 0.93871 0.0
H173 H 0.51201 0.24878 0.97029 0.0
O174 O 0.55401 0.96942 0.15853 0.0
O175 O 0.53894 0.11871 0.16364 0.0
O176 O 0.15014 0.14804 -0.01719 0.0
O177 O 0.14461 0.27221 0.00819 0.0
C178 C 0.53471 0.09681 0.02311 0.0
C179 C 0.60088 0.09853 0.04211 0.0
C180 C 0.69268 0.10597 0.03549 0.0
C181 C 0.71969 0.12617 0.01098 0.0
C182 C 0.65388 0.12819 -0.00827 0.0
C183 C 0.56103 0.10905 -0.00236 0.0
C184 C 0.44116 0.07187 0.03098 0.0
C185 C 0.42383 0.97974 0.03517 0.0
C186 C 0.36963 0.95475 0.05552 0.0
C187 C 0.32969 0.02145 0.07144 0.0
C188 C 0.33488 0.11228 0.06465 0.0
C189 C 0.39074 0.13759 0.04451 0.0
C190 C 0.57572 0.08546 0.06909 0.0
C191 C 0.57598 -0.0013 0.07882 0.0
C192 C 0.56481 0.98778 0.10474 0.0
C193 C 0.55375 0.06371 0.12143 0.0
C194 C 0.55107 0.15041 0.11149 0.0
C195 C 0.56185 0.16112 0.08553 0.0
C196 C 0.7582 0.07067 0.05278 0.0
C197 C 0.78177 0.97959 0.04913 0.0
C198 C 0.82643 0.93699 0.06807 0.0
C199 C 0.8474 0.98547 0.09077 0.0
C200 C 0.82123 0.07562 0.09448 0.0
C201 C 0.77895 0.11906 0.07536 0.0
C202 C 0.81778 0.14557 0.00609 0.0
C203 C 0.87098 0.08293 -0.00763 0.0
C204 C 0.96377 0.10096 -0.01128 0.0
C205 C 0.00516 0.18133 -0.00091 0.0
C206 C 0.9514 0.24379 0.01286 0.0
C207 C 0.85861 0.22595 0.01634 0.0
C208 C 0.68689 0.14405 0.96566 0.0
C209 C 0.70433 0.06925 0.94915 0.0
C210 C 0.7689 0.07696 0.92971 0.0
C211 C 0.81574 0.15995 0.9263 0.0
C212 C 0.7919 0.23635 0.9414 0.0
C213 C 0.72737 0.22873 0.96074 0.0
C214 C 0.49117 0.10697 0.97784 0.0
C215 C 0.43922 0.02742 0.97194 0.0
C216 C 0.3689 0.02816 0.95435 0.0
C217 C 0.35212 0.10786 0.94204 0.0
C218 C 0.40497 0.18692 0.94784 0.0
C219 C 0.47345 0.18662 0.96572 0.0
C220 C 0.54796 0.05261 0.14913 0.0
C221 C 0.10425 0.19936 -0.00393 0.0
H222 H 0.13461 0.36571 0.08529 0.0
H223 H 0.60641 0.92793 0.24521 0.0
H224 H 0.17426 0.19418 0.2396 0.0
H225 H 0.12269 0.05745 0.21574 0.0
H226 H 0.39276 0.01852 0.18689 0.0
H227 H 0.44648 0.15376 0.21185 0.0
H228 H 0.1564 0.35015 0.19513 0.0
H229 H 0.11836 0.35515 0.15042 0.0
H230 H 0.39059 0.27591 0.13021 0.0
H231 H 0.42947 0.27633 0.1751 0.0
H232 H 0.1963 0.53637 0.22734 0.0
H233 H 0.11166 0.61567 0.19619 0.0
H234 H 0.31811 0.55662 0.14004 0.0
H235 H 0.40666 0.48084 0.172 0.0
H236 H 0.2824 0.61316 0.26429 0.0
H237 H 0.33789 0.7708 0.26937 0.0
H238 H 0.59323 0.695 0.23469 0.0
H239 H 0.5374 0.53747 0.23009 0.0
H240 H 0.24295 0.46643 0.29545 0.0
H241 H 0.26369 0.58625 0.32869 0.0
H242 H 0.55474 0.56469 0.32092 0.0
H243 H 0.53261 0.44623 0.28774 0.0
H244 H 0.21969 0.21899 0.28212 0.0
H245 H 0.23627 0.10747 0.31476 0.0
H246 H 0.52573 0.16189 0.31524 0.0
H247 H 0.50939 0.26861 0.28159 0.0
O248 O 0.14844 0.35464 0.10271 0.0
O249 O 0.2935 0.32848 0.094 0.0
O250 O 0.45725 0.89932 0.26539 0.0
O251 O 0.58421 0.86558 0.24442 0.0
C252 C 0.33568 0.28118 0.23354 0.0
C253 C 0.3267 0.34314 0.21417 0.0
C254 C 0.34334 0.43684 0.21936 0.0
C255 C 0.37337 0.46801 0.24334 0.0
C256 C 0.37456 0.40793 0.2633 0.0
C257 C 0.35605 0.31412 0.2585 0.0
C258 C 0.31414 0.18398 0.22751 0.0
C259 C 0.22385 0.15304 0.22959 0.0
C260 C 0.19408 0.07528 0.21582 0.0
C261 C 0.25303 0.02902 0.19922 0.0
C262 C 0.34601 0.05282 0.1997 0.0
C263 C 0.37653 0.13035 0.21382 0.0
C264 C 0.2957 0.31288 0.18838 0.0
C265 C 0.20687 0.33077 0.18105 0.0
C266 C 0.18554 0.33438 0.15544 0.0
C267 C 0.25186 0.31709 0.13674 0.0
C268 C 0.33829 0.29041 0.14417 0.0
C269 C 0.36021 0.2889 0.16981 0.0
C270 C 0.30775 0.5031 0.20197 0.0
C271 C 0.22573 0.54401 0.20871 0.0
C272 C 0.17686 0.58803 0.19087 0.0
C273 C 0.20853 0.59059 0.16593 0.0
C274 C 0.29294 0.55454 0.1593 0.0
C275 C 0.34337 0.51203 0.17746 0.0
C276 C 0.40621 0.56381 0.24703 0.0
C277 C 0.3506 0.63055 0.25806 0.0
C278 C 0.38237 0.7206 0.26085 0.0
C279 C 0.46998 0.74554 0.25238 0.0
C280 C 0.52536 0.67826 0.24134 0.0
C281 C 0.49366 0.58824 0.23869 0.0
C282 C 0.38661 0.44784 0.28924 0.0
C283 C 0.31103 0.48456 0.30188 0.0
C284 C 0.32299 0.55406 0.32054 0.0
C285 C 0.4108 0.58619 0.32706 0.0
C286 C 0.48614 0.54168 0.31635 0.0
C287 C 0.47396 0.47326 0.2975 0.0
C288 C 0.36372 0.25062 0.27919 0.0
C289 C 0.28678 0.20562 0.28898 0.0
C290 C 0.29611 0.14279 0.30775 0.0
C291 C 0.38217 0.12691 0.31758 0.0
C292 C 0.45852 0.17412 0.30822 0.0
C293 C 0.44944 0.23473 0.28903 0.0
C294 C 0.23267 0.33276 0.10981 0.0
C295 C 0.50317 0.84146 0.25458 0.0
H296 H 0.94965 0.27565 0.09612 0.0
H297 H 0.84323 0.83153 0.28324 0.0
H298 H 0.72158 0.04201 0.22778 0.0
H299 H 0.74197 0.92647 0.19465 0.0
H300 H 0.02806 0.91993 0.21203 0.0
H301 H 0.00539 0.03547 0.24651 0.0
H302 H 0.7574 0.19182 0.19002 0.0
H303 H 0.80748 0.20823 0.14634 0.0
H304 H 0.08584 0.18265 0.16945 0.0
H305 H 0.03538 0.18254 0.21355 0.0
H306 H 0.69541 0.35845 0.21874 0.0
H307 H 0.68339 0.43738 0.17907 0.0
H308 H 0.97653 0.44929 0.17318 0.0
H309 H 0.98789 0.37652 0.21336 0.0
H310 H 0.66924 0.41061 0.2678 0.0
H311 H 0.64635 0.57358 0.27586 0.0
H312 H 0.93728 0.6191 0.27945 0.0
H313 H 0.95869 0.45609 0.27196 0.0
H314 H 0.65187 0.25601 0.30296 0.0
H315 H 0.59957 0.38111 0.33126 0.0
H316 H 0.878 0.46963 0.34354 0.0
H317 H 0.9294 0.34085 0.31705 0.0
H318 H 0.6798 0.0562 0.27076 0.0
H319 H 0.63431 0.93003 0.29645 0.0
H320 H 0.87033 0.98155 0.34308 0.0
H321 H 0.9211 0.10342 0.31549 0.0
O322 O 0.93015 0.2623 0.11309 0.0
O323 O 0.05745 0.1916 0.12121 0.0
O324 O 0.70102 0.7383 0.28479 0.0
O325 O 0.8498 0.76647 0.28166 0.0
C326 C 0.85673 0.14059 0.24945 0.0
C327 C 0.86672 0.20769 0.23162 0.0
C328 C 0.8491 0.29797 0.23865 0.0
C329 C 0.82911 0.32374 0.26368 0.0
C330 C 0.82017 0.2569 0.28201 0.0
C331 C 0.83022 0.16374 0.2746 0.0
C332 C 0.86186 0.04616 0.23966 0.0
C333 C 0.78733 0.0113 0.22576 0.0
C334 C 0.79998 0.94719 0.20623 0.0
C335 C 0.88764 0.91769 0.20015 0.0
C336 C 0.96062 0.94475 0.21588 0.0
C337 C 0.94741 0.00839 0.23587 0.0
C338 C 0.89321 0.18479 0.20491 0.0
C339 C 0.82909 0.18792 0.18551 0.0
C340 C 0.85795 0.19734 0.16055 0.0
C341 C 0.95101 0.19716 0.15442 0.0
C342 C 0.01399 0.1839 0.17359 0.0
C343 C 0.98544 0.18074 0.19871 0.0
C344 C 0.84258 0.36307 0.21873 0.0
C345 C 0.7567 0.38055 0.20909 0.0
C346 C 0.74979 0.4222 0.18618 0.0
C347 C 0.82874 0.44411 0.17263 0.0
C348 C 0.91456 0.4286 0.18277 0.0
C349 C 0.92141 0.39009 0.206 0.0
C350 C 0.81524 0.42167 0.27001 0.0
C351 C 0.72752 0.45594 0.27093 0.0
C352 C 0.71483 0.54887 0.27531 0.0
C353 C 0.79 0.60929 0.27833 0.0
C354 C 0.87793 0.57449 0.27726 0.0
C355 C 0.8904 0.48147 0.27307 0.0
C356 C 0.79419 0.28949 0.3078 0.0
C357 C 0.70136 0.29884 0.3131 0.0
C358 C 0.6717 0.3724 0.32838 0.0
C359 C 0.73482 0.43835 0.33787 0.0
C360 C 0.82792 0.42216 0.33525 0.0
C361 C 0.8574 0.3466 0.32095 0.0
C362 C 0.80355 0.08942 0.29128 0.0
C363 C 0.72443 0.03747 0.28569 0.0
C364 C 0.69968 0.96369 0.29997 0.0
C365 C 0.75051 0.94344 0.32118 0.0
C366 C 0.83208 -0.00704 0.32616 0.0
C367 C 0.85908 0.06489 0.3111 0.0
C368 C 0.98289 0.21631 0.12856 0.0
C369 C 0.77719 0.70845 0.2819 0.0
H370 H 0.78513 0.83337 0.57047 0.0
H371 H 0.88116 0.24304 0.76849 0.0
H372 H 0.91668 0.03576 0.70213 0.0
H373 H 0.8472 0.12521 0.66971 0.0
H374 H 0.58155 0.05744 0.69935 0.0
H375 H 0.65058 0.97039 0.73187 0.0
H376 H 0.93589 0.85166 0.67248 0.0
H377 H 0.89886 0.85389 0.62747 0.0
H378 H 0.61295 0.83774 0.64618 0.0
H379 H 0.65088 0.83147 0.69104 0.0
H380 H 0.93811 0.66875 0.68322 0.0
H381 H 0.89257 0.53442 0.65661 0.0
H382 H 0.64239 0.51043 0.69924 0.0
H383 H 0.6852 0.64747 0.72445 0.0
H384 H 0.01889 0.65814 0.73936 0.0
H385 H 0.05208 0.49875 0.7446 0.0
H386 H 0.7837 0.45436 0.77582 0.0
H387 H 0.74886 0.61212 0.76888 0.0
H388 H 0.00431 0.80821 0.79184 0.0
H389 H 0.01813 0.7058 0.82666 0.0
H390 H 0.72693 0.6657 0.82796 0.0
H391 H 0.71385 0.77289 0.79427 0.0
H392 H -0.00162 0.96203 0.77492 0.0
H393 H 0.02514 0.08482 0.80667 0.0
H394 H 0.73901 0.14325 0.80633 0.0
H395 H 0.71269 0.01738 0.7751 0.0
O396 O 0.7979 0.83668 0.58841 0.0
O397 O 0.65222 0.84944 0.59906 0.0
O398 O 0.01601 0.33856 0.75899 0.0
O399 O 0.87141 0.30743 0.76837 0.0
C400 C 0.82089 0.91178 0.72904 0.0
C401 C 0.81947 0.83486 0.71206 0.0
C402 C 0.83684 0.74921 0.72097 0.0
C403 C 0.85765 0.73906 0.74638 0.0
C404 C 0.85459 0.81454 0.76358 0.0
C405 C 0.83978 0.90184 0.75491 0.0
C406 C 0.78869 -0.00263 0.7195 0.0
C407 C 0.84402 0.04534 0.70267 0.0
C408 C 0.80438 0.09473 0.68392 0.0
C409 C 0.70957 0.09555 0.68198 0.0
C410 C 0.65495 0.05644 0.70053 0.0
C411 C 0.69444 0.00861 0.71945 0.0
C412 C 0.79605 0.84228 0.68497 0.0
C413 C 0.86531 0.84892 0.6668 0.0
C414 C 0.844 0.85021 0.64114 0.0
C415 C 0.75299 0.84595 0.63325 0.0
C416 C 0.68368 0.84095 0.65162 0.0
C417 C 0.70511 0.8379 0.67725 0.0
C418 C 0.81395 0.66752 0.70529 0.0
C419 C 0.87367 0.63415 0.68667 0.0
C420 C 0.84867 0.55686 0.67199 0.0
C421 C 0.76475 0.51246 0.67625 0.0
C422 C 0.70736 0.54399 0.69571 0.0
C423 C 0.7313 0.62201 0.70991 0.0
C424 C 0.88236 0.64759 0.75442 0.0
C425 C 0.96814 0.61452 0.74793 0.0
C426 C 0.98716 0.52358 0.75104 0.0
C427 C 0.92129 0.46433 0.76107 0.0
C428 C 0.83619 0.49832 0.76821 0.0
C429 C 0.81661 0.58893 0.76466 0.0
C430 C 0.85875 0.79725 0.79067 0.0
C431 C 0.94366 0.78272 0.80103 0.0
C432 C 0.95117 0.72309 0.82048 0.0
C433 C 0.87376 0.67613 0.82915 0.0
C434 C 0.78757 0.70029 0.82117 0.0
C435 C 0.78004 0.76259 0.8023 0.0
C436 C 0.85392 0.98155 0.77252 0.0
C437 C 0.9416 0.00158 0.78168 0.0
C438 C 0.95661 0.07142 0.7999 0.0
C439 C 0.88418 0.12373 0.80902 0.0
C440 C 0.79625 0.1043 0.79957 0.0
C441 C 0.78113 0.03314 0.78156 0.0
C442 C 0.73094 0.84453 0.60592 0.0
C443 C 0.93957 0.36657 0.76291 0.0
H444 H 0.56393 0.56431 0.82788 0.0
H445 H 0.04441 0.51444 0.03323 0.0
H446 H 0.26634 0.67143 0.94975 0.0
H447 H 0.17618 0.58465 0.91763 0.0
H448 H 0.20005 0.34428 0.96004 0.0
H449 H 0.2901 0.43013 -0.00816 0.0
H450 H 0.4856 0.70587 0.93019 0.0
H451 H 0.51567 0.6752 0.88521 0.0
H452 H 0.42608 0.3961 0.89251 0.0
H453 H 0.39698 0.4275 0.9375 0.0
H454 H 0.68357 0.67649 0.95616 0.0
H455 H 0.80518 0.61785 0.92897 0.0
H456 H 0.66829 0.35435 0.92469 0.0
H457 H 0.556 0.40936 0.95537 0.0
H458 H 0.67335 0.74215 0.00793 0.0
H459 H 0.83375 0.74268 0.01968 0.0
H460 H 0.82233 0.44932 0.01927 0.0
H461 H 0.66157 0.44993 0.00795 0.0
H462 H 0.51674 0.76914 0.04339 0.0
H463 H 0.64886 0.79364 0.0711 0.0
H464 H 0.66963 0.50498 0.07684 0.0
H465 H 0.53474 0.48044 0.05024 0.0
H466 H 0.26599 0.72738 0.00764 0.0
H467 H 0.1445 0.75596 0.0383 0.0
H468 H 0.22305 0.5248 0.07903 0.0
H469 H 0.34549 0.49606 0.04825 0.0
O470 O 0.5435 0.57687 0.84507 0.0
O471 O 0.49919 0.43343 0.85004 0.0
O472 O 0.9801 0.66722 0.03151 0.0
O473 O 0.9807 0.51631 0.02901 0.0
C474 C 0.37745 0.58701 -0.01761 0.0
C475 C 0.45059 0.58116 0.96509 0.0
C476 C 0.53945 0.58004 0.97418 0.0
C477 C 0.55863 0.59589 -0.00026 0.0
C478 C 0.4871 0.60726 0.01743 0.0
C479 C 0.39513 0.60098 0.00876 0.0
C480 C 0.28655 0.55654 0.97285 0.0
C481 C 0.24665 0.60166 0.95305 0.0
C482 C 0.19589 0.55199 0.93459 0.0
C483 C 0.18317 0.45804 0.93639 0.0
C484 C 0.20941 0.4169 0.95843 0.0
C485 C 0.26005 0.46625 0.97676 0.0
C486 C 0.43817 0.56929 0.93716 0.0
C487 C 0.46906 0.63905 0.92185 0.0
C488 C 0.48755 0.62096 0.89621 0.0
C489 C 0.47554 0.53263 0.88543 0.0
C490 C 0.43724 0.46463 0.90032 0.0
C491 C 0.41871 0.48286 0.92597 0.0
C492 C 0.61161 0.54696 0.95735 0.0
C493 C 0.68213 0.6054 0.95003 0.0
C494 C 0.75115 0.5717 0.93471 0.0
C495 C 0.74699 0.48073 0.92563 0.0
C496 C 0.6748 0.42331 0.93246 0.0
C497 C 0.60966 0.45525 0.94927 0.0
C498 C 0.65549 0.59621 0.00776 0.0
C499 C 0.70543 0.67823 0.01071 0.0
C500 C 0.79706 0.67824 0.01728 0.0
C501 C 0.84063 0.59595 0.02054 0.0
C502 C 0.79067 0.51379 0.01706 0.0
C503 C 0.69891 0.51393 0.01066 0.0
C504 C 0.51588 0.62275 0.04428 0.0
C505 C 0.54588 0.71118 0.05182 0.0
C506 C 0.62387 0.72503 0.06679 0.0
C507 C 0.67374 0.65093 0.07427 0.0
C508 C 0.63598 0.56317 0.06992 0.0
C509 C 0.55618 0.54941 0.05568 0.0
C510 C 0.31678 0.61165 0.02626 0.0
C511 C 0.25536 0.68099 0.02274 0.0
C512 C 0.18375 0.69539 0.03973 0.0
C513 C 0.1722 0.64084 0.06058 0.0
C514 C 0.22835 0.5659 0.06261 0.0
C515 C 0.30045 0.55158 0.04564 0.0
C516 C 0.50662 0.51097 0.85914 0.0
C517 C 0.93796 0.59564 0.02737 0.0
H518 H 0.07771 0.31544 0.66107 0.0
H519 H 0.7088 0.87139 0.52022 0.0
H520 H 0.01738 0.39754 0.5152 0.0
H521 H 0.91268 0.32386 0.54406 0.0
H522 H 0.8106 0.58499 0.56841 0.0
H523 H 0.91475 0.6582 0.53951 0.0
H524 H 0.13973 0.40018 0.55544 0.0
H525 H 0.12097 0.33902 0.59729 0.0
H526 H 0.02837 0.59926 0.6264 0.0
H527 H 0.04942 0.66007 0.58434 0.0
H528 H 0.3237 0.46641 0.52747 0.0
H529 H 0.41651 0.38363 0.55616 0.0
H530 H 0.33038 0.55761 0.61855 0.0
H531 H 0.24792 0.65083 0.58937 0.0
H532 H 0.38489 0.55897 0.49172 0.0
H533 H 0.54244 0.61329 0.48812 0.0
H534 H 0.47996 0.85076 0.53536 0.0
H535 H 0.32185 0.79622 0.53846 0.0
H536 H 0.21836 0.51976 0.45856 0.0
H537 H 0.33703 0.5351 0.42648 0.0
H538 H 0.36628 0.82116 0.44691 0.0
H539 H 0.24721 0.80532 0.4791 0.0
H540 H 0.01296 0.46288 0.4733 0.0
H541 H 0.89723 0.46729 0.44019 0.0
H542 H 0.92656 0.75924 0.44157 0.0
H543 H 0.03877 0.75527 0.47532 0.0
O544 O 0.07933 0.33975 0.6444 0.0
O545 O 0.05921 0.48096 0.65948 0.0
O546 O 0.67465 0.72598 0.49684 0.0
O547 O 0.64667 0.84868 0.52133 0.0
C548 C 0.06509 0.57534 0.522 0.0
C549 C 0.12468 0.57512 0.54264 0.0
C550 C 0.21549 0.60381 0.53955 0.0
C551 C 0.24513 0.64213 0.51708 0.0
C552 C 0.18539 0.6428 0.4963 0.0
C553 C 0.09527 0.60824 0.49868 0.0
C554 C 0.97434 0.53347 0.52555 0.0
C555 C 0.96843 0.43832 0.52563 0.0
C556 C 0.91127 0.39626 0.54289 0.0
C557 C 0.85814 0.44847 0.55968 0.0
C558 C 0.85331 0.54251 0.55638 0.0
C559 C 0.91086 0.58471 0.53928 0.0
C560 C 0.09595 0.53434 0.56685 0.0
C561 C 0.11365 0.44318 0.57076 0.0
C562 C 0.1028 0.4085 0.5947 0.0
C563 C 0.07355 0.46433 0.61523 0.0
C564 C 0.05166 0.55465 0.61101 0.0
C565 C 0.06279 0.58935 0.58698 0.0
C566 C 0.28236 0.5666 0.55626 0.0
C567 C 0.32797 0.48948 0.54717 0.0
C568 C 0.37713 0.43997 0.5636 0.0
C569 C 0.37761 0.46482 0.58936 0.0
C570 C 0.32984 0.53952 0.59863 0.0
C571 C 0.28458 0.59257 0.58205 0.0
C572 C 0.34151 0.67442 0.515 0.0
C573 C 0.40504 0.62312 0.50107 0.0
C574 C 0.49519 0.65412 0.49915 0.0
C575 C 0.5238 0.73661 0.51138 0.0
C576 C 0.46017 0.78715 0.52563 0.0
C577 C 0.36985 0.75616 0.52745 0.0
C578 C 0.22474 0.6613 0.47122 0.0
C579 C 0.247 0.58666 0.45524 0.0
C580 C 0.31599 0.59515 0.43729 0.0
C581 C 0.36205 0.67883 0.43476 0.0
C582 C 0.33183 0.75591 0.44858 0.0
C583 C 0.2633 0.74719 0.46677 0.0
C584 C 0.03229 0.60897 0.47715 0.0
C585 C 0.99334 0.52777 0.46671 0.0
C586 C 0.92781 0.5301 0.44786 0.0
C587 C 0.90289 0.61341 0.43884 0.0
C588 C 0.94524 0.69418 0.44836 0.0
C589 C 0.00905 0.69203 0.46756 0.0
C590 C 0.0696 0.42915 0.64105 0.0
C591 C 0.61961 0.76978 0.50935 0.0
C592 C 0.1491 0.62686 0.14721 0.0
C593 C 0.82536 0.50406 0.1518 0.0
C594 C 0.7557 0.66635 0.09024 0.0
Mg595 Mg 0.23109 0.81649 0.13009 0.0
Mg596 Mg 0.10884 -0.00249 0.12787 0.0
O597 O 0.11818 0.87486 0.11965 0.0
Mg598 Mg 0.02495 0.78271 0.12838 0.0
O599 O 0.93889 0.68448 0.13652 0.0
Mg600 Mg 0.96791 0.59119 0.10987 0.0
Mg601 Mg 0.81644 0.70516 0.14247 0.0
C602 C 0.91327 0.95025 0.10782 0.0
O603 O 0.9779 0.85681 0.16596 0.0
O604 O 0.30233 0.92096 0.10453 0.0
O605 O 0.83036 0.81321 0.16959 0.0
O606 O 0.25275 0.91155 0.1664 0.0
O607 O 0.20941 0.03842 0.10097 0.0
O608 O 0.15005 0.01944 0.16588 0.0
O609 O 0.06111 0.7002 0.09076 0.0
O610 O 0.21081 0.72594 0.09608 0.0
C611 C 0.14446 0.68725 0.08423 0.0
C612 C 0.27997 -0.00551 0.09428 0.0
O613 O 0.92315 0.86432 0.10804 0.0
O614 O 0.88741 0.49562 0.1348 0.0
O615 O 0.97003 0.00863 0.11767 0.0
O616 O 0.82608 0.61585 0.08773 0.0
O617 O 0.78391 0.5776 0.15665 0.0
O618 O 0.74661 0.72186 0.10902 0.0
O619 O 0.13491 0.71184 0.14898 0.0
O620 O 0.09671 0.57093 0.1344 0.0
C621 C 0.21397 0.98048 0.17673 0.0
C622 C 0.90024 0.85925 0.17734 0.0
C623 C 0.72454 0.92317 0.40509 0.0
C624 C 0.83042 0.61859 0.42034 0.0
C625 C 0.70553 0.51953 0.3526 0.0
Mg626 Mg 0.54153 -0.00263 0.38144 0.0
Mg627 Mg 0.36529 0.87067 0.35919 0.0
O628 O 0.49139 0.88522 0.36358 0.0
Mg629 Mg 0.5712 0.79654 0.37832 0.0
O630 O 0.657 0.7136 0.39287 0.0
Mg631 Mg 0.76574 0.73885 0.37153 0.0
Mg632 Mg 0.63192 0.59521 0.40279 0.0
C633 C 0.42495 0.67088 0.34275 0.0
O634 O 0.46602 0.757 0.40851 0.0
O635 O 0.45922 0.0742 0.35272 0.0
O636 O 0.49659 0.61396 0.41845 0.0
O637 O 0.41602 0.00447 0.40993 0.0
O638 O 0.34935 0.98364 0.335 0.0
O639 O 0.30688 0.9074 0.39516 0.0
O640 O 0.67683 0.83013 0.34677 0.0
O641 O 0.65407 0.98019 0.35344 0.0
C642 C 0.69683 0.9144 0.34277 0.0
C643 C 0.39498 0.05899 0.33669 0.0
O644 O 0.50348 0.68627 0.35258 0.0
O645 O 0.8459 0.66855 0.40155 0.0
O646 O 0.36149 0.7291 0.3443 0.0
O647 O 0.7485 0.59582 0.34998 0.0
O648 O 0.75171 0.58467 0.42548 0.0
O649 O 0.64911 0.50691 0.37051 0.0
O650 O 0.63713 0.9103 0.4049 0.0
O651 O 0.77841 0.86752 0.39421 0.0
C652 C 0.3364 0.96663 0.41169 0.0
C653 C 0.44588 0.68344 0.41955 0.0
C654 C 0.66652 0.1285 0.65955 0.0
C655 C 0.35533 0.99177 0.64546 0.0
C656 C 0.3432 0.15483 0.57832 0.0
Mg657 Mg 0.75311 0.26164 0.62255 0.0
Mg658 Mg 0.63893 0.41192 0.61385 0.0
O659 O 0.62388 0.28354 0.60477 0.0
Mg660 Mg 0.55487 0.28925 0.63672 0.0
O661 O 0.47392 0.17888 0.63613 0.0
Mg662 Mg 0.52089 0.08646 0.61234 0.0
Mg663 Mg 0.34709 0.19346 0.63549 0.0
C664 C 0.45014 0.43273 0.60414 0.0
O665 O 0.48216 0.32966 0.67368 0.0
O666 O 0.82163 0.32637 0.58735 0.0
O667 O 0.33473 0.29915 0.66516 0.0
O668 O 0.7861 0.3955 0.64492 0.0
O669 O 0.74904 0.45668 0.59191 0.0
O670 O 0.64855 0.43936 0.65294 0.0
O671 O 0.61101 0.19905 0.59671 0.0
O672 O 0.73543 0.12562 0.60341 0.0
C673 C 0.66769 0.13596 0.58946 0.0
C674 C 0.80778 0.40762 0.58071 0.0
O675 O 0.44258 0.35842 0.6153 0.0
O676 O 0.427 0.98633 0.6317 0.0
O677 O 0.52558 0.47397 0.60198 0.0
O678 O 0.41294 0.10643 0.58107 0.0
O679 O 0.30977 0.06382 0.64819 0.0
O680 O 0.31017 0.20315 0.59662 0.0
O681 O 0.66808 0.21345 0.65628 0.0
O682 O 0.62176 0.0715 0.64509 0.0
C683 C 0.73137 0.44152 0.65846 0.0
C684 C 0.39768 0.33411 0.67949 0.0
C685 C 0.16539 0.39955 0.91376 0.0
C686 C 0.28268 0.11118 0.92247 0.0
C687 C 0.19263 0.0225 0.84908 0.0
Mg688 Mg 0.0184 0.49271 0.88351 0.0
Mg689 Mg 0.84563 0.38989 0.85255 0.0
O690 O 0.96974 0.39398 0.85931 0.0
Mg691 Mg 0.03597 0.29152 0.87323 0.0
O692 O 0.11397 0.19953 0.88729 0.0
Mg693 Mg 0.23502 0.23885 0.87427 0.0
Mg694 Mg 0.09379 0.08279 0.89862 0.0
C695 C 0.90112 0.19913 0.82789 0.0
O696 O 0.91819 0.23783 0.89902 0.0
O697 O 0.95165 0.59383 0.85872 0.0
O698 O 0.95266 0.09741 0.91084 0.0
O699 O 0.89031 0.48922 0.90686 0.0
O700 O 0.83638 0.52308 0.83734 0.0
O701 O 0.78336 0.39789 0.88848 0.0
O702 O 0.159 0.33829 0.84808 0.0
O703 O 0.14136 0.48637 0.85899 0.0
C704 C 0.18352 0.42316 0.84697 0.0
C705 C 0.88545 0.59413 0.8432 0.0
O706 O 0.97528 0.20032 0.84065 0.0
O707 O 0.30298 0.1599 0.90386 0.0
O708 O 0.84205 0.26148 0.83048 0.0
O709 O 0.23211 0.10192 0.84805 0.0
O710 O 0.20265 0.07768 0.92597 0.0
O711 O 0.13365 0.00336 0.866 0.0
O712 O 0.08467 0.38642 0.90571 0.0
O713 O 0.23168 0.35547 0.90418 0.0
C714 C 0.81187 0.45048 0.90664 0.0
C715 C 0.89849 0.16412 0.9103 0.0
loop_
_geom_bond_atom_site_label_1
_geom_bond_atom_site_label_2
_geom_bond_distance
_geom_bond_site_symmetry_2
_ccdc_geom_bond_type
H0 O26 0.856 . S
H1 O29 0.854 . S
H2 C37 0.930 . S
H3 C38 0.930 . S
H4 C40 0.930 1_565 S
H5 C41 0.930 1_565 S
H6 C43 0.931 . S
H7 C44 0.930 . S
H8 C46 0.930 . S
H9 C47 0.929 . S
H10 C49 0.930 . S
H11 C50 0.931 . S
H12 C52 0.930 . S
H13 C53 0.929 1_565 S
H14 C55 0.931 . S
H15 C56 0.930 . S
H16 C58 0.930 . S
H17 C59 0.932 . S
H18 C61 0.930 1_545 S
H19 C62 0.929 . S
H20 C64 0.931 . S
H21 C65 0.930 . S
H22 C67 0.929 . S
H23 C68 0.931 1_545 S
H24 C70 0.930 . S
H25 C71 0.929 . S
O26 H0 0.856 . S
O26 C72 1.300 . S
O27 C72 1.209 . S
O28 C73 1.199 . S
O29 H1 0.854 . S
O29 C73 1.297 . S
C30 C31 1.404 1_455 S
C30 C35 1.393 1_455 S
C30 C36 1.492 . S
C31 C30 1.404 1_655 S
C31 C32 1.396 . S
C31 C42 1.492 . S
C32 C31 1.396 . S
C32 C33 1.397 . S
C32 C48 1.509 . S
C33 C32 1.397 . S
C33 C34 1.412 1_545 S
C33 C54 1.484 1_545 S
C34 C33 1.412 1_565 S
C34 C35 1.401 1_565 S
C34 C60 1.490 . S
C35 C30 1.393 1_655 S
C35 C34 1.401 1_545 S
C35 C66 1.510 1_645 S
C36 C30 1.492 . S
C36 C37 1.363 . S
C36 C41 1.390 . S
C37 H2 0.930 . S
C37 C36 1.363 . S
C37 C38 1.372 . S
C38 H3 0.930 . S
C38 C37 1.372 . S
C38 C39 1.383 . S
C39 C38 1.383 . S
C39 C40 1.395 . S
C40 H4 0.930 1_545 S
C40 C39 1.395 . S
C40 C41 1.362 . S
C41 H5 0.930 1_545 S
C41 C36 1.390 . S
C41 C40 1.362 . S
C42 C31 1.492 . S
C42 C43 1.377 . S
C42 C47 1.397 1_655 S
C43 H6 0.931 . S
C43 C42 1.377 . S
C43 C44 1.376 . S
C44 H7 0.930 . S
C44 C43 1.376 . S
C44 C45 1.376 1_655 S
C45 C44 1.376 1_455 S
C45 C46 1.378 . S
C45 C72 1.486 . S
C46 H8 0.930 . S
C46 C45 1.378 . S
C46 C47 1.376 . S
C47 H9 0.929 . S
C47 C42 1.397 1_455 S
C47 C46 1.376 . S
C48 C32 1.509 . S
C48 C49 1.391 . S
C48 C53 1.386 . S
C49 H10 0.930 . S
C49 C48 1.391 . S
C49 C50 1.375 . S
C50 H11 0.931 . S
C50 C49 1.375 . S
C50 C51 1.375 . S
C51 C50 1.375 . S
C51 C52 1.361 . S
C52 H12 0.930 . S
C52 C51 1.361 . S
C52 C53 1.399 . S
C53 H13 0.929 1_545 S
C53 C48 1.386 . S
C53 C52 1.399 . S
C54 C33 1.484 1_565 S
C54 C55 1.392 1_565 S
C54 C59 1.362 . S
C55 H14 0.931 . S
C55 C54 1.392 1_545 S
C55 C56 1.372 . S
C56 H15 0.930 . S
C56 C55 1.372 . S
C56 C57 1.397 1_545 S
C57 C56 1.397 1_565 S
C57 C58 1.390 . S
C57 C73 1.476 . S
C58 H16 0.930 . S
C58 C57 1.390 . S
C58 C59 1.366 . S
C59 H17 0.932 . S
C59 C54 1.362 . S
C59 C58 1.366 . S
C60 C34 1.490 . S
C60 C61 1.380 . S
C60 C65 1.386 . S
C61 H18 0.930 1_565 S
C61 C60 1.380 . S
C61 C62 1.381 . S
C62 H19 0.929 . S
C62 C61 1.381 . S
C62 C63 1.371 . S
C63 C62 1.371 . S
C63 C64 1.380 . S
C64 H20 0.931 . S
C64 C63 1.380 . S
C64 C65 1.387 . S
C65 H21 0.930 . S
C65 C60 1.386 . S
C65 C64 1.387 . S
C66 C35 1.510 1_465 S
C66 C67 1.377 1_565 S
C66 C71 1.361 . S
C67 H22 0.929 . S
C67 C66 1.377 1_545 S
C67 C68 1.386 1_545 S
C68 H23 0.931 1_565 S
C68 C67 1.386 1_565 S
C68 C69 1.363 . S
C69 C68 1.363 . S
C69 C70 1.385 . S
C70 H24 0.930 . S
C70 C69 1.385 . S
C70 C71 1.396 . S
C71 H25 0.929 . S
C71 C66 1.361 . S
C71 C70 1.396 . S
C72 O26 1.300 . S
C72 O27 1.209 . S
C72 C45 1.486 . S
C73 O28 1.199 . S
C73 O29 1.297 . S
C73 C57 1.476 . S
H74 O100 0.856 . S
H75 O103 0.854 . S
H76 C111 0.930 . S
H77 C112 0.930 . S
H78 C114 0.930 . S
H79 C115 0.930 . S
H80 C117 0.931 . S
H81 C118 0.930 . S
H82 C120 0.930 . S
H83 C121 0.929 . S
H84 C123 0.930 . S
H85 C124 0.931 . S
H86 C126 0.930 . S
H87 C127 0.929 . S
H88 C129 0.931 . S
H89 C130 0.930 . S
H90 C132 0.930 . S
H91 C133 0.932 1_565 S
H92 C135 0.930 . S
H93 C136 0.929 1_655 S
H94 C138 0.931 . S
H95 C139 0.930 . S
H96 C141 0.929 . S
H97 C142 0.931 . S
H98 C144 0.930 . S
H99 C145 0.929 . S
O100 H74 0.856 . S
O100 C146 1.300 . S
O101 C146 1.209 . S
O102 C147 1.199 . S
O103 H75 0.854 . S
O103 C147 1.297 . S
C104 C105 1.404 . S
C104 C109 1.397 . S
C104 C110 1.492 . S
C105 C104 1.404 . S
C105 C106 1.396 . S
C105 C116 1.492 . S
C106 C105 1.396 . S
C106 C107 1.397 . S
C106 C122 1.509 . S
C107 C106 1.397 . S
C107 C108 1.412 . S
C107 C128 1.485 . S
C108 C107 1.412 . S
C108 C109 1.388 . S
C108 C134 1.490 . S
C109 C104 1.397 . S
C109 C108 1.388 . S
C109 C140 1.519 . S
C110 C104 1.492 . S
C110 C111 1.363 . S
C110 C115 1.390 . S
C111 H76 0.930 . S
C111 C110 1.363 . S
C111 C112 1.372 . S
C112 H77 0.930 . S
C112 C111 1.372 . S
C112 C113 1.383 . S
C113 C112 1.383 . S
C113 C114 1.395 . S
C114 H78 0.930 . S
C114 C113 1.395 . S
C114 C115 1.362 . S
C115 H79 0.930 . S
C115 C110 1.390 . S
C115 C114 1.362 . S
C116 C105 1.492 . S
C116 C117 1.377 . S
C116 C121 1.397 . S
C117 H80 0.931 . S
C117 C116 1.377 . S
C117 C118 1.376 . S
C118 H81 0.930 . S
C118 C117 1.376 . S
C118 C119 1.376 . S
C119 C118 1.376 . S
C119 C120 1.378 . S
C119 C146 1.486 . S
C120 H82 0.930 . S
C120 C119 1.378 . S
C120 C121 1.376 . S
C121 H83 0.929 . S
C121 C116 1.397 . S
C121 C120 1.376 . S
C122 C106 1.509 . S
C122 C123 1.391 . S
C122 C127 1.386 . S
C123 H84 0.930 . S
C123 C122 1.391 . S
C123 C124 1.375 1_565 S
C124 H85 0.931 . S
C124 C123 1.375 1_545 S
C124 C125 1.375 . S
C125 C124 1.375 . S
C125 C126 1.361 1_545 S
C126 H86 0.930 . S
C126 C125 1.361 1_565 S
C126 C127 1.399 . S
C127 H87 0.929 . S
C127 C122 1.386 . S
C127 C126 1.399 . S
C128 C107 1.485 . S
C128 C129 1.394 . S
C128 C133 1.360 1_565 S
C129 H88 0.931 . S
C129 C128 1.394 . S
C129 C130 1.372 1_565 S
C130 H89 0.930 . S
C130 C129 1.372 1_545 S
C130 C131 1.397 . S
C131 C130 1.397 . S
C131 C132 1.390 . S
C131 C147 1.476 . S
C132 H90 0.930 . S
C132 C131 1.390 . S
C132 C133 1.366 . S
C133 H91 0.932 1_545 S
C133 C128 1.360 1_545 S
C133 C132 1.366 . S
C134 C108 1.490 . S
C134 C135 1.380 . S
C134 C139 1.386 . S
C135 H92 0.930 . S
C135 C134 1.380 . S
C135 C136 1.381 . S
C136 H93 0.929 1_455 S
C136 C135 1.381 . S
C136 C137 1.371 . S
C137 C136 1.371 . S
C137 C138 1.380 . S
C138 H94 0.931 . S
C138 C137 1.380 . S
C138 C139 1.387 . S
C139 H95 0.930 . S
C139 C134 1.386 . S
C139 C138 1.387 . S
C140 C109 1.519 . S
C140 C141 1.377 . S
C140 C145 1.361 . S
C141 H96 0.929 . S
C141 C140 1.377 . S
C141 C142 1.386 . S
C142 H97 0.931 . S
C142 C141 1.386 . S
C142 C143 1.363 . S
C143 C142 1.363 . S
C143 C144 1.385 . S
C144 H98 0.930 . S
C144 C143 1.385 . S
C144 C145 1.396 . S
C145 H99 0.929 . S
C145 C140 1.361 . S
C145 C144 1.396 . S
C146 O100 1.300 . S
C146 O101 1.209 . S
C146 C119 1.486 . S
C147 O102 1.199 . S
C147 O103 1.297 . S
C147 C131 1.476 . S
H148 O174 0.856 . S
H149 O177 0.854 . S
H150 C185 0.930 . S
H151 C186 0.930 . S
H152 C188 0.930 . S
H153 C189 0.930 . S
H154 C191 0.931 . S
H155 C192 0.930 . S
H156 C194 0.930 . S
H157 C195 0.929 . S
H158 C197 0.930 . S
H159 C198 0.931 . S
H160 C200 0.930 . S
H161 C201 0.929 . S
H162 C203 0.931 1_556 S
H163 C204 0.930 . S
H164 C206 0.930 . S
H165 C207 0.932 . S
H166 C209 0.930 . S
H167 C210 0.929 . S
H168 C212 0.931 . S
H169 C213 0.930 1_554 S
H170 C215 0.929 . S
H171 C216 0.931 . S
H172 C218 0.930 . S
H173 C219 0.929 . S
O174 H148 0.856 . S
O174 C220 1.300 . S
O175 C220 1.209 . S
O176 C221 1.199 1_556 S
O177 H149 0.854 . S
O177 C221 1.297 . S
C178 C179 1.404 . S
C178 C183 1.397 . S
C178 C184 1.492 . S
C179 C178 1.404 . S
C179 C180 1.396 . S
C179 C190 1.492 . S
C180 C179 1.396 . S
C180 C181 1.397 . S
C180 C196 1.509 . S
C181 C180 1.397 . S
C181 C182 1.412 . S
C181 C202 1.485 . S
C182 C181 1.412 . S
C182 C183 1.388 . S
C182 C208 1.490 1_554 S
C183 C178 1.397 . S
C183 C182 1.388 . S
C183 C214 1.519 . S
C184 C178 1.492 . S
C184 C185 1.363 1_545 S
C184 C189 1.390 . S
C185 H150 0.930 . S
C185 C184 1.363 1_565 S
C185 C186 1.372 . S
C186 H151 0.930 . S
C186 C185 1.372 . S
C186 C187 1.383 1_565 S
C187 C186 1.383 1_545 S
C187 C188 1.395 . S
C188 H152 0.930 . S
C188 C187 1.395 . S
C188 C189 1.362 . S
C189 H153 0.930 . S
C189 C184 1.390 . S
C189 C188 1.362 . S
C190 C179 1.492 . S
C190 C191 1.377 1_545 S
C190 C195 1.397 . S
C191 H154 0.931 . S
C191 C190 1.377 1_565 S
C191 C192 1.376 . S
C192 H155 0.930 . S
C192 C191 1.376 . S
C192 C193 1.376 . S
C193 C192 1.376 . S
C193 C194 1.378 1_565 S
C193 C220 1.486 . S
C194 H156 0.930 . S
C194 C193 1.378 1_545 S
C194 C195 1.376 . S
C195 H157 0.929 . S
C195 C190 1.397 . S
C195 C194 1.376 . S
C196 C180 1.509 . S
C196 C197 1.391 1_545 S
C196 C201 1.386 . S
C197 H158 0.930 . S
C197 C196 1.391 1_565 S
C197 C198 1.375 . S
C198 H159 0.931 . S
C198 C197 1.375 . S
C198 C199 1.375 . S
C199 C198 1.375 . S
C199 C200 1.361 1_565 S
C200 H160 0.930 . S
C200 C199 1.361 1_545 S
C200 C201 1.399 . S
C201 H161 0.929 . S
C201 C196 1.386 . S
C201 C200 1.399 . S
C202 C181 1.485 . S
C202 C203 1.394 . S
C202 C207 1.360 . S
C203 H162 0.931 1_554 S
C203 C202 1.394 . S
C203 C204 1.372 1_654 S
C204 H163 0.930 . S
C204 C203 1.372 1_456 S
C204 C205 1.397 1_556 S
C205 C204 1.397 1_554 S
C205 C206 1.390 . S
C205 C221 1.476 . S
C206 H164 0.930 . S
C206 C205 1.390 . S
C206 C207 1.366 1_455 S
C207 H165 0.932 . S
C207 C202 1.360 . S
C207 C206 1.366 1_655 S
C208 C182 1.490 1_556 S
C208 C209 1.380 . S
C208 C213 1.386 . S
C209 H166 0.930 . S
C209 C208 1.380 . S
C209 C210 1.381 . S
C210 H167 0.929 . S
C210 C209 1.381 . S
C210 C211 1.371 . S
C211 C210 1.371 . S
C211 C212 1.380 . S
C212 H168 0.931 . S
C212 C211 1.380 . S
C212 C213 1.387 . S
C213 H169 0.930 1_556 S
C213 C208 1.386 . S
C213 C212 1.387 . S
C214 C183 1.519 . S
C214 C215 1.377 1_554 S
C214 C219 1.361 . S
C215 H170 0.929 . S
C215 C214 1.377 1_556 S
C215 C216 1.386 . S
C216 H171 0.931 . S
C216 C215 1.386 . S
C216 C217 1.363 . S
C217 C216 1.363 . S
C217 C218 1.385 . S
C218 H172 0.930 . S
C218 C217 1.385 . S
C218 C219 1.396 1_556 S
C219 H173 0.929 . S
C219 C214 1.361 . S
C219 C218 1.396 1_554 S
C220 O174 1.300 . S
C220 O175 1.209 . S
C220 C193 1.486 . S
C221 O176 1.199 1_554 S
C221 O177 1.297 . S
C221 C205 1.476 . S
H222 O248 0.856 . S
H223 O251 0.854 1_545 S
H224 C259 0.930 . S
H225 C260 0.930 . S
H226 C262 0.930 . S
H227 C263 0.930 . S
H228 C265 0.931 . S
H229 C266 0.930 . S
H230 C268 0.930 . S
H231 C269 0.929 . S
H232 C271 0.930 . S
H233 C272 0.931 . S
H234 C274 0.930 . S
H235 C275 0.929 . S
H236 C277 0.931 . S
H237 C278 0.930 . S
H238 C280 0.930 . S
H239 C281 0.932 . S
H240 C283 0.930 . S
H241 C284 0.929 . S
H242 C286 0.931 . S
H243 C287 0.930 . S
H244 C289 0.929 . S
H245 C290 0.931 . S
H246 C292 0.930 . S
H247 C293 0.929 . S
O248 H222 0.856 . S
O248 C294 1.300 . S
O249 C294 1.209 . S
O250 C295 1.199 . S
O251 H223 0.854 1_565 S
O251 C295 1.297 . S
C252 C253 1.404 . S
C252 C257 1.397 . S
C252 C258 1.492 . S
C253 C252 1.404 . S
C253 C254 1.396 . S
C253 C264 1.492 . S
C254 C253 1.396 . S
C254 C255 1.397 . S
C254 C270 1.509 . S
C255 C254 1.397 . S
C255 C256 1.412 . S
C255 C276 1.485 . S
C256 C255 1.412 . S
C256 C257 1.388 . S
C256 C282 1.490 . S
C257 C252 1.397 . S
C257 C256 1.388 . S
C257 C288 1.519 . S
C258 C252 1.492 . S
C258 C259 1.363 . S
C258 C263 1.390 . S
C259 H224 0.930 . S
C259 C258 1.363 . S
C259 C260 1.372 . S
C260 H225 0.930 . S
C260 C259 1.372 . S
C260 C261 1.383 . S
C261 C260 1.383 . S
C261 C262 1.395 . S
C262 H226 0.930 . S
C262 C261 1.395 . S
C262 C263 1.362 . S
C263 H227 0.930 . S
C263 C258 1.390 . S
C263 C262 1.362 . S
C264 C253 1.492 . S
C264 C265 1.377 . S
C264 C269 1.397 . S
C265 H228 0.931 . S
C265 C264 1.377 . S
C265 C266 1.376 . S
C266 H229 0.930 . S
C266 C265 1.376 . S
C266 C267 1.376 . S
C267 C266 1.376 . S
C267 C268 1.378 . S
C267 C294 1.486 . S
C268 H230 0.930 . S
C268 C267 1.378 . S
C268 C269 1.376 . S
C269 H231 0.929 . S
C269 C264 1.397 . S
C269 C268 1.376 . S
C270 C254 1.509 . S
C270 C271 1.391 . S
C270 C275 1.386 . S
C271 H232 0.930 . S
C271 C270 1.391 . S
C271 C272 1.375 . S
C272 H233 0.931 . S
C272 C271 1.375 . S
C272 C273 1.375 . S
C273 C272 1.375 . S
C273 C274 1.361 . S
C274 H234 0.930 . S
C274 C273 1.361 . S
C274 C275 1.399 . S
C275 H235 0.929 . S
C275 C270 1.386 . S
C275 C274 1.399 . S
C276 C255 1.485 . S
C276 C277 1.394 . S
C276 C281 1.360 . S
C277 H236 0.931 . S
C277 C276 1.394 . S
C277 C278 1.372 . S
C278 H237 0.930 . S
C278 C277 1.372 . S
C278 C279 1.397 . S
C279 C278 1.397 . S
C279 C280 1.390 . S
C279 C295 1.476 . S
C280 H238 0.930 . S
C280 C279 1.390 . S
C280 C281 1.366 . S
C281 H239 0.932 . S
C281 C276 1.360 . S
C281 C280 1.366 . S
C282 C256 1.490 . S
C282 C283 1.380 . S
C282 C287 1.386 . S
C283 H240 0.930 . S
C283 C282 1.380 . S
C283 C284 1.381 . S
C284 H241 0.929 . S
C284 C283 1.381 . S
C284 C285 1.371 . S
C285 C284 1.371 . S
C285 C286 1.380 . S
C286 H242 0.931 . S
C286 C285 1.380 . S
C286 C287 1.387 . S
C287 H243 0.930 . S
C287 C282 1.386 . S
C287 C286 1.387 . S
C288 C257 1.519 . S
C288 C289 1.377 . S
C288 C293 1.361 . S
C289 H244 0.929 . S
C289 C288 1.377 . S
C289 C290 1.386 . S
C290 H245 0.931 . S
C290 C289 1.386 . S
C290 C291 1.363 . S
C291 C290 1.363 . S
C291 C292 1.385 . S
C292 H246 0.930 . S
C292 C291 1.385 . S
C292 C293 1.396 . S
C293 H247 0.929 . S
C293 C288 1.361 . S
C293 C292 1.396 . S
C294 O248 1.300 . S
C294 O249 1.209 . S
C294 C267 1.486 . S
C295 O250 1.199 . S
C295 O251 1.297 . S
C295 C279 1.476 . S
H296 O322 0.856 . S
H297 O325 0.854 . S
H298 C333 0.930 . S
H299 C334 0.930 . S
H300 C336 0.930 . S
H301 C337 0.930 . S
H302 C339 0.931 . S
H303 C340 0.930 . S
H304 C342 0.930 . S
H305 C343 0.929 1_455 S
H306 C345 0.930 . S
H307 C346 0.931 . S
H308 C348 0.930 . S
H309 C349 0.929 1_455 S
H310 C351 0.931 . S
H311 C352 0.930 . S
H312 C354 0.930 . S
H313 C355 0.932 . S
H314 C357 0.930 . S
H315 C358 0.929 . S
H316 C360 0.931 . S
H317 C361 0.930 . S
H318 C363 0.929 . S
H319 C364 0.931 . S
H320 C366 0.930 . S
H321 C367 0.929 . S
O322 H296 0.856 . S
O322 C368 1.300 . S
O323 C368 1.209 . S
O324 C369 1.199 . S
O325 H297 0.854 . S
O325 C369 1.297 . S
C326 C327 1.404 . S
C326 C331 1.397 . S
C326 C332 1.492 . S
C327 C326 1.404 . S
C327 C328 1.396 . S
C327 C338 1.492 . S
C328 C327 1.396 . S
C328 C329 1.397 . S
C328 C344 1.509 . S
C329 C328 1.397 . S
C329 C330 1.412 . S
C329 C350 1.485 . S
C330 C329 1.412 . S
C330 C331 1.388 . S
C330 C356 1.490 . S
C331 C326 1.397 . S
C331 C330 1.388 . S
C331 C362 1.519 . S
C332 C326 1.492 . S
C332 C333 1.363 . S
C332 C337 1.390 . S
C333 H298 0.930 . S
C333 C332 1.363 . S
C333 C334 1.372 1_545 S
C334 H299 0.930 . S
C334 C333 1.372 1_565 S
C334 C335 1.383 . S
C335 C334 1.383 . S
C335 C336 1.395 . S
C336 H300 0.930 . S
C336 C335 1.395 . S
C336 C337 1.362 1_565 S
C337 H301 0.930 . S
C337 C332 1.390 . S
C337 C336 1.362 1_545 S
C338 C327 1.492 . S
C338 C339 1.377 . S
C338 C343 1.397 . S
C339 H302 0.931 . S
C339 C338 1.377 . S
C339 C340 1.376 . S
C340 H303 0.930 . S
C340 C339 1.376 . S
C340 C341 1.376 1_655 S
C341 C340 1.376 1_455 S
C341 C342 1.378 . S
C341 C368 1.486 . S
C342 H304 0.930 . S
C342 C341 1.378 . S
C342 C343 1.376 1_455 S
C343 H305 0.929 1_655 S
C343 C338 1.397 . S
C343 C342 1.376 1_655 S
C344 C328 1.509 . S
C344 C345 1.391 . S
C344 C349 1.386 . S
C345 H306 0.930 . S
C345 C344 1.391 . S
C345 C346 1.375 . S
C346 H307 0.931 . S
C346 C345 1.375 . S
C346 C347 1.375 . S
C347 C346 1.375 . S
C347 C348 1.361 1_655 S
C348 H308 0.930 . S
C348 C347 1.361 1_455 S
C348 C349 1.399 1_455 S
C349 H309 0.929 1_655 S
C349 C344 1.386 . S
C349 C348 1.399 1_655 S
C350 C329 1.485 . S
C350 C351 1.394 . S
C350 C355 1.360 . S
C351 H310 0.931 . S
C351 C350 1.394 . S
C351 C352 1.372 . S
C352 H311 0.930 . S
C352 C351 1.372 . S
C352 C353 1.397 . S
C353 C352 1.397 . S
C353 C354 1.390 . S
C353 C369 1.476 . S
C354 H312 0.930 . S
C354 C353 1.390 . S
C354 C355 1.366 . S
C355 H313 0.932 . S
C355 C350 1.360 . S
C355 C354 1.366 . S
C356 C330 1.490 . S
C356 C357 1.380 . S
C356 C361 1.386 . S
C357 H314 0.930 . S
C357 C356 1.380 . S
C357 C358 1.381 . S
C358 H315 0.929 . S
C358 C357 1.381 . S
C358 C359 1.371 . S
C359 C358 1.371 . S
C359 C360 1.380 . S
C360 H316 0.931 . S
C360 C359 1.380 . S
C360 C361 1.387 . S
C361 H317 0.930 . S
C361 C356 1.386 . S
C361 C360 1.387 . S
C362 C331 1.519 . S
C362 C363 1.377 . S
C362 C367 1.361 . S
C363 H318 0.929 . S
C363 C362 1.377 . S
C363 C364 1.386 1_545 S
C364 H319 0.931 . S
C364 C363 1.386 1_565 S
C364 C365 1.363 . S
C365 C364 1.363 . S
C365 C366 1.385 1_565 S
C366 H320 0.930 . S
C366 C365 1.385 1_545 S
C366 C367 1.396 . S
C367 H321 0.929 . S
C367 C362 1.361 . S
C367 C366 1.396 . S
C368 O322 1.300 . S
C368 O323 1.209 . S
C368 C341 1.486 . S
C369 O324 1.199 . S
C369 O325 1.297 . S
C369 C353 1.476 . S
H370 O396 0.856 . S
H371 O399 0.854 . S
H372 C407 0.930 . S
H373 C408 0.930 . S
H374 C410 0.930 . S
H375 C411 0.930 . S
H376 C413 0.931 . S
H377 C414 0.930 . S
H378 C416 0.930 1_545 S
H379 C417 0.929 . S
H380 C419 0.930 . S
H381 C420 0.931 . S
H382 C422 0.930 . S
H383 C423 0.929 . S
H384 C425 0.931 . S
H385 C426 0.930 . S
H386 C428 0.930 . S
H387 C429 0.932 . S
H388 C431 0.930 . S
H389 C432 0.929 . S
H390 C434 0.931 . S
H391 C435 0.930 . S
H392 C437 0.929 . S
H393 C438 0.931 1_455 S
H394 C440 0.930 . S
H395 C441 0.929 1_565 S
O396 H370 0.856 . S
O396 C442 1.300 . S
O397 C442 1.209 1_545 S
O398 C443 1.199 . S
O399 H371 0.854 . S
O399 C443 1.297 . S
C400 C401 1.404 . S
C400 C405 1.397 . S
C400 C406 1.492 1_565 S
C401 C400 1.404 . S
C401 C402 1.396 . S
C401 C412 1.492 . S
C402 C401 1.396 . S
C402 C403 1.397 . S
C402 C418 1.509 . S
C403 C402 1.397 . S
C403 C404 1.412 . S
C403 C424 1.485 . S
C404 C403 1.412 . S
C404 C405 1.388 . S
C404 C430 1.490 . S
C405 C400 1.397 . S
C405 C404 1.388 . S
C405 C436 1.519 1_565 S
C406 C400 1.492 1_545 S
C406 C407 1.363 . S
C406 C411 1.390 . S
C407 H372 0.930 . S
C407 C406 1.363 . S
C407 C408 1.372 . S
C408 H373 0.930 . S
C408 C407 1.372 . S
C408 C409 1.383 . S
C409 C408 1.383 . S
C409 C410 1.395 . S
C410 H374 0.930 . S
C410 C409 1.395 . S
C410 C411 1.362 . S
C411 H375 0.930 . S
C411 C406 1.390 . S
C411 C410 1.362 . S
C412 C401 1.492 . S
C412 C413 1.377 . S
C412 C417 1.397 . S
C413 H376 0.931 . S
C413 C412 1.377 . S
C413 C414 1.376 . S
C414 H377 0.930 . S
C414 C413 1.376 . S
C414 C415 1.376 . S
C415 C414 1.376 . S
C415 C416 1.378 . S
C415 C442 1.486 . S
C416 H378 0.930 1_565 S
C416 C415 1.378 . S
C416 C417 1.376 . S
C417 H379 0.929 . S
C417 C412 1.397 . S
C417 C416 1.376 . S
C418 C402 1.509 . S
C418 C419 1.391 . S
C418 C423 1.386 . S
C419 H380 0.930 . S
C419 C418 1.391 . S
C419 C420 1.375 . S
C420 H381 0.931 . S
C420 C419 1.375 . S
C420 C421 1.375 . S
C421 C420 1.375 . S
C421 C422 1.361 . S
C422 H382 0.930 . S
C422 C421 1.361 . S
C422 C423 1.399 . S
C423 H383 0.929 . S
C423 C418 1.386 . S
C423 C422 1.399 . S
C424 C403 1.485 . S
C424 C425 1.394 . S
C424 C429 1.360 . S
C425 H384 0.931 . S
C425 C424 1.394 . S
C425 C426 1.372 . S
C426 H385 0.930 . S
C426 C425 1.372 . S
C426 C427 1.397 . S
C427 C426 1.397 . S
C427 C428 1.390 . S
C427 C443 1.476 . S
C428 H386 0.930 . S
C428 C427 1.390 . S
C428 C429 1.366 . S
C429 H387 0.932 . S
C429 C424 1.360 . S
C429 C428 1.366 . S
C430 C404 1.490 . S
C430 C431 1.380 1_655 S
C430 C435 1.386 . S
C431 H388 0.930 . S
C431 C430 1.380 1_455 S
C431 C432 1.381 . S
C432 H389 0.929 . S
C432 C431 1.381 . S
C432 C433 1.371 . S
C433 C432 1.371 . S
C433 C434 1.380 1_455 S
C434 H390 0.931 . S
C434 C433 1.380 1_655 S
C434 C435 1.387 . S
C435 H391 0.930 . S
C435 C430 1.386 . S
C435 C434 1.387 . S
C436 C405 1.519 1_545 S
C436 C437 1.377 . S
C436 C441 1.361 . S
C437 H392 0.929 . S
C437 C436 1.377 . S
C437 C438 1.386 . S
C438 H393 0.931 1_655 S
C438 C437 1.386 . S
C438 C439 1.363 . S
C439 C438 1.363 . S
C439 C440 1.385 . S
C440 H394 0.930 . S
C440 C439 1.385 . S
C440 C441 1.396 . S
C441 H395 0.929 1_545 S
C441 C436 1.361 . S
C441 C440 1.396 . S
C442 O396 1.300 . S
C442 O397 1.209 1_565 S
C442 C415 1.486 . S
C443 O398 1.199 . S
C443 O399 1.297 . S
C443 C427 1.476 . S
H444 O470 0.856 . S
H445 O473 0.854 . S
H446 C481 0.930 . S
H447 C482 0.930 . S
H448 C484 0.930 . S
H449 C485 0.930 . S
H450 C487 0.931 . S
H451 C488 0.930 . S
H452 C490 0.930 . S
H453 C491 0.929 . S
H454 C493 0.930 . S
H455 C494 0.931 . S
H456 C496 0.930 . S
H457 C497 0.929 . S
H458 C499 0.931 . S
H459 C500 0.930 . S
H460 C502 0.930 . S
H461 C503 0.932 . S
H462 C505 0.930 . S
H463 C506 0.929 . S
H464 C508 0.931 . S
H465 C509 0.930 . S
H466 C511 0.929 . S
H467 C512 0.931 . S
H468 C514 0.930 . S
H469 C515 0.929 . S
O470 H444 0.856 . S
O470 C516 1.300 . S
O471 C516 1.209 . S
O472 C517 1.199 1_455 S
O473 H445 0.854 . S
O473 C517 1.297 1_455 S
C474 C475 1.404 1_554 S
C474 C479 1.397 . S
C474 C480 1.492 1_554 S
C475 C474 1.404 1_556 S
C475 C476 1.396 . S
C475 C486 1.492 . S
C476 C475 1.396 . S
C476 C477 1.397 1_556 S
C476 C492 1.509 . S
C477 C476 1.397 1_554 S
C477 C478 1.412 . S
C477 C498 1.485 . S
C478 C477 1.412 . S
C478 C479 1.388 . S
C478 C504 1.490 . S
C479 C474 1.397 . S
C479 C478 1.388 . S
C479 C510 1.519 . S
C480 C474 1.492 1_556 S
C480 C481 1.363 . S
C480 C485 1.390 1_556 S
C481 H446 0.930 . S
C481 C480 1.363 . S
C481 C482 1.372 . S
C482 H447 0.930 . S
C482 C481 1.372 . S
C482 C483 1.383 . S
C483 C482 1.383 . S
C483 C484 1.395 1_556 S
C484 H448 0.930 . S
C484 C483 1.395 1_554 S
C484 C485 1.362 . S
C485 H449 0.930 . S
C485 C480 1.390 1_554 S
C485 C484 1.362 . S
C486 C475 1.492 . S
C486 C487 1.377 . S
C486 C491 1.397 . S
C487 H450 0.931 . S
C487 C486 1.377 . S
C487 C488 1.376 . S
C488 H451 0.930 . S
C488 C487 1.376 . S
C488 C489 1.376 . S
C489 C488 1.376 . S
C489 C490 1.378 . S
C489 C516 1.486 . S
C490 H452 0.930 . S
C490 C489 1.378 . S
C490 C491 1.376 . S
C491 H453 0.929 . S
C491 C486 1.397 . S
C491 C490 1.376 . S
C492 C476 1.509 . S
C492 C493 1.391 . S
C492 C497 1.386 . S
C493 H454 0.930 . S
C493 C492 1.391 . S
C493 C494 1.375 . S
C494 H455 0.931 . S
C494 C493 1.375 . S
C494 C495 1.375 . S
C495 C494 1.375 . S
C495 C496 1.361 . S
C496 H456 0.930 . S
C496 C495 1.361 . S
C496 C497 1.399 . S
C497 H457 0.929 . S
C497 C492 1.386 . S
C497 C496 1.399 . S
C498 C477 1.485 . S
C498 C499 1.394 . S
C498 C503 1.360 . S
C499 H458 0.931 . S
C499 C498 1.394 . S
C499 C500 1.372 . S
C500 H459 0.930 . S
C500 C499 1.372 . S
C500 C501 1.397 . S
C501 C500 1.397 . S
C501 C502 1.390 . S
C501 C517 1.476 . S
C502 H460 0.930 . S
C502 C501 1.390 . S
C502 C503 1.366 . S
C503 H461 0.932 . S
C503 C498 1.360 . S
C503 C502 1.366 . S
C504 C478 1.490 . S
C504 C505 1.380 . S
C504 C509 1.386 . S
C505 H462 0.930 . S
C505 C504 1.380 . S
C505 C506 1.381 . S
C506 H463 0.929 . S
C506 C505 1.381 . S
C506 C507 1.371 . S
C507 C506 1.371 . S
C507 C508 1.380 . S
C508 H464 0.931 . S
C508 C507 1.380 . S
C508 C509 1.387 . S
C509 H465 0.930 . S
C509 C504 1.386 . S
C509 C508 1.387 . S
C510 C479 1.519 . S
C510 C511 1.377 . S
C510 C515 1.361 . S
C511 H466 0.929 . S
C511 C510 1.377 . S
C511 C512 1.386 . S
C512 H467 0.931 . S
C512 C511 1.386 . S
C512 C513 1.363 . S
C513 C512 1.363 . S
C513 C514 1.385 . S
C514 H468 0.930 . S
C514 C513 1.385 . S
C514 C515 1.396 . S
C515 H469 0.929 . S
C515 C510 1.361 . S
C515 C514 1.396 . S
C516 O470 1.300 . S
C516 O471 1.209 . S
C516 C489 1.486 . S
C517 O472 1.199 1_655 S
C517 O473 1.297 1_655 S
C517 C501 1.476 . S
H518 O544 0.856 . S
H519 O547 0.854 . S
H520 C555 0.930 1_455 S
H521 C556 0.930 . S
H522 C558 0.930 . S
H523 C559 0.930 . S
H524 C561 0.931 . S
H525 C562 0.930 . S
H526 C564 0.930 . S
H527 C565 0.929 . S
H528 C567 0.930 . S
H529 C568 0.931 . S
H530 C570 0.930 . S
H531 C571 0.929 . S
H532 C573 0.931 . S
H533 C574 0.930 . S
H534 C576 0.930 . S
H535 C577 0.932 . S
H536 C579 0.930 . S
H537 C580 0.929 . S
H538 C582 0.931 . S
H539 C583 0.930 . S
H540 C585 0.929 . S
H541 C586 0.931 . S
H542 C588 0.930 . S
H543 C589 0.929 . S
O544 H518 0.856 . S
O544 C590 1.300 . S
O545 C590 1.209 . S
O546 C591 1.199 . S
O547 H519 0.854 . S
O547 C591 1.297 . S
C548 C549 1.404 . S
C548 C553 1.397 . S
C548 C554 1.492 . S
C549 C548 1.404 . S
C549 C550 1.396 . S
C549 C560 1.492 . S
C550 C549 1.396 . S
C550 C551 1.397 . S
C550 C566 1.509 . S
C551 C550 1.397 . S
C551 C552 1.412 . S
C551 C572 1.485 . S
C552 C551 1.412 . S
C552 C553 1.388 . S
C552 C578 1.490 . S
C553 C548 1.397 . S
C553 C552 1.388 . S
C553 C584 1.519 . S
C554 C548 1.492 . S
C554 C555 1.363 1_455 S
C554 C559 1.390 1_455 S
C555 H520 0.930 1_655 S
C555 C554 1.363 1_655 S
C555 C556 1.372 . S
C556 H521 0.930 . S
C556 C555 1.372 . S
C556 C557 1.383 . S
C557 C556 1.383 . S
C557 C558 1.395 . S
C558 H522 0.930 . S
C558 C557 1.395 . S
C558 C559 1.362 . S
C559 H523 0.930 . S
C559 C554 1.390 1_655 S
C559 C558 1.362 . S
C560 C549 1.492 . S
C560 C561 1.377 . S
C560 C565 1.397 . S
C561 H524 0.931 . S
C561 C560 1.377 . S
C561 C562 1.376 . S
C562 H525 0.930 . S
C562 C561 1.376 . S
C562 C563 1.376 . S
C563 C562 1.376 . S
C563 C564 1.378 . S
C563 C590 1.486 . S
C564 H526 0.930 . S
C564 C563 1.378 . S
C564 C565 1.376 . S
C565 H527 0.929 . S
C565 C560 1.397 . S
C565 C564 1.376 . S
C566 C550 1.509 . S
C566 C567 1.391 . S
C566 C571 1.386 . S
C567 H528 0.930 . S
C567 C566 1.391 . S
C567 C568 1.375 . S
C568 H529 0.931 . S
C568 C567 1.375 . S
C568 C569 1.375 . S
C569 C568 1.375 . S
C569 C570 1.361 . S
C570 H530 0.930 . S
C570 C569 1.361 . S
C570 C571 1.399 . S
C571 H531 0.929 . S
C571 C566 1.386 . S
C571 C570 1.399 . S
C572 C551 1.485 . S
C572 C573 1.394 . S
C572 C577 1.360 . S
C573 H532 0.931 . S
C573 C572 1.394 . S
C573 C574 1.372 . S
C574 H533 0.930 . S
C574 C573 1.372 . S
C574 C575 1.397 . S
C575 C574 1.397 . S
C575 C576 1.390 . S
C575 C591 1.476 . S
C576 H534 0.930 . S
C576 C575 1.390 . S
C576 C577 1.366 . S
C577 H535 0.932 . S
C577 C572 1.360 . S
C577 C576 1.366 . S
C578 C552 1.490 . S
C578 C579 1.380 . S
C578 C583 1.386 . S
C579 H536 0.930 . S
C579 C578 1.380 . S
C579 C580 1.381 . S
C580 H537 0.929 . S
C580 C579 1.381 . S
C580 C581 1.371 . S
C581 C580 1.371 . S
C581 C582 1.380 . S
C582 H538 0.931 . S
C582 C581 1.380 . S
C582 C583 1.387 . S
C583 H539 0.930 . S
C583 C578 1.386 . S
C583 C582 1.387 . S
C584 C553 1.519 . S
C584 C585 1.377 . S
C584 C589 1.361 . S
C585 H540 0.929 . S
C585 C584 1.377 . S
C585 C586 1.386 1_455 S
C586 H541 0.931 . S
C586 C585 1.386 1_655 S
C586 C587 1.363 . S
C587 C586 1.363 . S
C587 C588 1.385 . S
C588 H542 0.930 . S
C588 C587 1.385 . S
C588 C589 1.396 1_655 S
C589 H543 0.929 . S
C589 C584 1.361 . S
C589 C588 1.396 1_455 S
C590 O544 1.300 . S
C590 O545 1.209 . S
C590 C563 1.486 . S
C591 O546 1.199 . S
C591 O547 1.297 . S
C591 C575 1.476 . S
C592 O619 1.312 . S
C592 O620 1.208 . S
C593 O614 1.331 . S
C593 O617 1.244 . S
C594 O616 1.264 . S
C594 O618 1.273 . S
Mg595 O597 1.936 . S
Mg595 O604 2.081 . S
Mg595 O606 2.023 . S
Mg595 O610 2.031 . S
Mg595 O619 2.291 . S
Mg596 O597 1.963 1_545 S
Mg596 O607 1.942 . S
Mg596 O608 1.955 . S
Mg596 O615 1.986 . S
O597 Mg595 1.936 . S
O597 Mg596 1.963 1_565 S
O597 Mg598 1.915 . S
Mg598 O597 1.915 . S
Mg598 O599 1.915 1_455 S
Mg598 O603 2.013 . S
Mg598 O609 2.114 . S
Mg598 O613 2.013 1_455 S
Mg598 O619 2.114 . S
O599 Mg598 1.915 1_655 S
O599 Mg600 1.936 1_655 S
O599 Mg601 1.963 . S
Mg600 O599 1.936 1_455 S
Mg600 O609 2.291 . S
Mg600 O614 2.081 1_455 S
Mg600 O616 2.023 1_455 S
Mg600 O620 2.031 . S
Mg601 O599 1.963 . S
Mg601 O605 1.986 . S
Mg601 O617 1.942 . S
Mg601 O618 1.955 . S
C602 O613 1.191 . S
C602 O615 1.307 1_665 S
O603 Mg598 2.013 . S
O603 C622 1.191 1_455 S
O604 Mg595 2.081 . S
O604 C612 1.331 1_565 S
O605 Mg601 1.986 . S
O605 C622 1.307 . S
O606 Mg595 2.023 . S
O606 C621 1.264 1_565 S
O607 Mg596 1.942 . S
O607 C612 1.244 . S
O608 Mg596 1.955 . S
O608 C621 1.273 . S
O609 Mg598 2.114 . S
O609 Mg600 2.291 . S
O609 C611 1.312 . S
O610 Mg595 2.031 . S
O610 C611 1.208 . S
C611 O609 1.312 . S
C611 O610 1.208 . S
C612 O604 1.331 1_545 S
C612 O607 1.244 . S
O613 Mg598 2.013 1_655 S
O613 C602 1.191 . S
O614 C593 1.331 . S
O614 Mg600 2.081 1_655 S
O615 Mg596 1.986 . S
O615 C602 1.307 1_445 S
O616 C594 1.264 . S
O616 Mg600 2.023 1_655 S
O617 C593 1.244 . S
O617 Mg601 1.942 . S
O618 C594 1.273 . S
O618 Mg601 1.955 . S
O619 C592 1.312 . S
O619 Mg595 2.291 . S
O619 Mg598 2.114 . S
O620 C592 1.208 . S
O620 Mg600 2.031 . S
C621 O606 1.264 1_545 S
C621 O608 1.273 . S
C622 O603 1.191 1_655 S
C622 O605 1.307 . S
C623 O650 1.312 . S
C623 O651 1.208 . S
C624 O645 1.331 . S
C624 O648 1.244 . S
C625 O647 1.264 . S
C625 O649 1.273 . S
Mg626 O628 1.936 . S
Mg626 O635 2.081 1_565 S
Mg626 O637 2.023 1_565 S
Mg626 O641 2.031 . S
Mg626 O650 2.291 . S
Mg627 O628 1.963 . S
Mg627 O638 1.942 . S
Mg627 O639 1.955 . S
Mg627 O646 1.986 . S
O628 Mg626 1.936 . S
O628 Mg627 1.963 . S
O628 Mg629 1.915 . S
Mg629 O628 1.915 . S
Mg629 O630 1.915 . S
Mg629 O634 2.013 . S
Mg629 O640 2.114 . S
Mg629 O644 2.013 . S
Mg629 O650 2.114 . S
O630 Mg629 1.915 . S
O630 Mg631 1.936 . S
O630 Mg632 1.963 . S
Mg631 O630 1.936 . S
Mg631 O640 2.291 . S
Mg631 O645 2.081 . S
Mg631 O647 2.023 . S
Mg631 O651 2.031 . S
Mg632 O630 1.963 . S
Mg632 O636 1.986 . S
Mg632 O648 1.942 . S
Mg632 O649 1.955 . S
C633 O644 1.191 . S
C633 O646 1.307 . S
O634 Mg629 2.013 . S
O634 C653 1.191 . S
O635 Mg626 2.081 1_545 S
O635 C643 1.334 . S
O636 Mg632 1.986 . S
O636 C653 1.307 . S
O637 Mg626 2.023 1_545 S
O637 C652 1.264 1_545 S
O638 Mg627 1.942 . S
O638 C643 1.237 1_565 S
O639 Mg627 1.955 . S
O639 C652 1.273 . S
O640 Mg629 2.114 . S
O640 Mg631 2.291 . S
O640 C642 1.312 . S
O641 Mg626 2.031 . S
O641 C642 1.208 . S
C642 O640 1.312 . S
C642 O641 1.208 . S
C643 O635 1.334 . S
C643 O638 1.237 1_545 S
O644 Mg629 2.013 . S
O644 C633 1.191 . S
O645 C624 1.331 . S
O645 Mg631 2.081 . S
O646 Mg627 1.986 . S
O646 C633 1.307 . S
O647 C625 1.264 . S
O647 Mg631 2.023 . S
O648 C624 1.244 . S
O648 Mg632 1.942 . S
O649 C625 1.273 . S
O649 Mg632 1.955 . S
O650 C623 1.312 . S
O650 Mg626 2.291 . S
O650 Mg629 2.114 . S
O651 C623 1.208 . S
O651 Mg631 2.031 . S
C652 O637 1.264 1_565 S
C652 O639 1.273 . S
C653 O634 1.191 . S
C653 O636 1.307 . S
C654 O681 1.312 . S
C654 O682 1.208 . S
C655 O676 1.331 . S
C655 O679 1.244 . S
C656 O678 1.264 . S
C656 O680 1.273 . S
Mg657 O659 1.936 . S
Mg657 O666 2.081 . S
Mg657 O668 2.023 . S
Mg657 O672 2.031 . S
Mg657 O681 2.291 . S
Mg658 O659 1.963 . S
Mg658 O669 1.942 . S
Mg658 O670 1.955 . S
Mg658 O677 1.986 . S
O659 Mg657 1.936 . S
O659 Mg658 1.963 . S
O659 Mg660 1.915 . S
Mg660 O659 1.915 . S
Mg660 O661 1.915 . S
Mg660 O665 2.013 . S
Mg660 O671 2.114 . S
Mg660 O675 2.013 . S
Mg660 O681 2.114 . S
O661 Mg660 1.915 . S
O661 Mg662 1.936 . S
O661 Mg663 1.963 . S
Mg662 O661 1.936 . S
Mg662 O671 2.291 . S
Mg662 O676 2.081 . S
Mg662 O678 2.023 . S
Mg662 O682 2.031 . S
Mg663 O661 1.963 . S
Mg663 O667 1.986 . S
Mg663 O679 1.942 . S
Mg663 O680 1.955 . S
C664 O675 1.191 . S
C664 O677 1.307 . S
O665 Mg660 2.013 . S
O665 C684 1.191 . S
O666 Mg657 2.081 . S
O666 C674 1.331 . S
O667 Mg663 1.986 . S
O667 C684 1.307 . S
O668 Mg657 2.023 . S
O668 C683 1.264 . S
O669 Mg658 1.942 . S
O669 C674 1.244 . S
O670 Mg658 1.955 . S
O670 C683 1.273 . S
O671 Mg660 2.114 . S
O671 Mg662 2.291 . S
O671 C673 1.312 . S
O672 Mg657 2.031 . S
O672 C673 1.208 . S
C673 O671 1.312 . S
C673 O672 1.208 . S
C674 O666 1.331 . S
C674 O669 1.244 . S
O675 Mg660 2.013 . S
O675 C664 1.191 . S
O676 C655 1.331 . S
O676 Mg662 2.081 . S
O677 Mg658 1.986 . S
O677 C664 1.307 . S
O678 C656 1.264 . S
O678 Mg662 2.023 . S
O679 C655 1.244 . S
O679 Mg663 1.942 . S
O680 C656 1.273 . S
O680 Mg663 1.955 . S
O681 C654 1.312 . S
O681 Mg657 2.291 . S
O681 Mg660 2.114 . S
O682 C654 1.208 . S
O682 Mg662 2.031 . S
C683 O668 1.264 . S
C683 O670 1.273 . S
C684 O665 1.191 . S
C684 O667 1.307 . S
C685 O712 1.312 . S
C685 O713 1.208 . S
C686 O707 1.331 . S
C686 O710 1.244 . S
C687 O709 1.264 . S
C687 O711 1.273 . S
Mg688 O690 1.936 1_455 S
Mg688 O697 2.081 1_455 S
Mg688 O699 2.023 1_455 S
Mg688 O703 2.031 . S
Mg688 O712 2.291 . S
Mg689 O690 1.963 . S
Mg689 O700 1.942 . S
Mg689 O701 1.955 . S
Mg689 O708 1.986 . S
O690 Mg688 1.936 1_655 S
O690 Mg689 1.963 . S
O690 Mg691 1.915 1_655 S
Mg691 O690 1.915 1_455 S
Mg691 O692 1.915 . S
Mg691 O696 2.013 1_455 S
Mg691 O702 2.114 . S
Mg691 O706 2.013 . S
Mg691 O712 2.114 . S
O692 Mg691 1.915 . S
O692 Mg693 1.936 . S
O692 Mg694 1.963 . S
Mg693 O692 1.936 . S
Mg693 O702 2.291 . S
Mg693 O707 2.081 . S
Mg693 O709 2.023 . S
Mg693 O713 2.031 . S
Mg694 O692 1.963 . S
Mg694 O698 1.986 1_455 S
Mg694 O710 1.942 . S
Mg694 O711 1.955 . S
C695 O706 1.191 1_655 S
C695 O708 1.307 . S
O696 Mg691 2.013 1_655 S
O696 C715 1.191 . S
O697 Mg688 2.081 1_655 S
O697 C705 1.331 . S
O698 Mg694 1.986 1_655 S
O698 C715 1.307 . S
O699 Mg688 2.023 1_655 S
O699 C714 1.264 . S
O700 Mg689 1.942 . S
O700 C705 1.244 . S
O701 Mg689 1.955 . S
O701 C714 1.273 . S
O702 Mg691 2.114 . S
O702 Mg693 2.291 . S
O702 C704 1.312 . S
O703 Mg688 2.031 . S
O703 C704 1.208 . S
C704 O702 1.312 . S
C704 O703 1.208 . S
C705 O697 1.331 . S
C705 O700 1.244 . S
O706 Mg691 2.013 . S
O706 C695 1.191 1_455 S
O707 C686 1.331 . S
O707 Mg693 2.081 . S
O708 Mg689 1.986 . S
O708 C695 1.307 . S
O709 C687 1.264 . S
O709 Mg693 2.023 . S
O710 C686 1.244 . S
O710 Mg694 1.942 . S
O711 C687 1.273 . S
O711 Mg694 1.955 . S
O712 C685 1.312 . S
O712 Mg688 2.291 . S
O712 Mg691 2.114 . S
O713 C685 1.208 . S
O713 Mg693 2.031 . S
C714 O699 1.264 . S
C714 O701 1.273 . S
C715 O696 1.191 . S
C715 O698 1.307 . S
C652 C69 3.244 . S
C125 C655 1.989 . S
C217 C686 3.180 . S
C621 C261 2.345 . S
C656 C39 2.911 . S
C687 C137 4.221 1_545 S
C612 C187 2.839 . S
C643 C291 3.522 . S
C51 C673 0.944 . S
C365 C642 2.086 . S
C199 C602 0.598 . S
C695 C439 1.655 . S
C623 C63 2.249 . S
C335 C622 2.539 . S
C211 C715 2.293 . S
C654 C409 3.037 . S
C495 C714 2.270 . S
C347 C593 2.275 . S
C587 C624 3.320 . S
C421 C683 1.892 . S
C594 C507 4.057 . S
C359 C625 3.867 . S
C557 C674 2.715 . S
C705 C433 4.197 1_655 S
C513 C611 1.742 . S
C143 C704 1.767 . S
C569 C664 0.820 . S
C633 C285 2.161 . S
C685 C483 2.825 . S
C684 C113 2.835 . S
C653 C581 2.392 . S
C592 C273 1.061 . S
