# Generated by pormake.
# Topology zzz, (3,6)-cn, num edge types: 1
# Building blocks:
#     Node 0, Type 0, BuildingBlock: PAMTOO_clean_linker_0, # of connection points: 3
#     Node 1, Type 0, BuildingBlock: PAMTOO_clean_linker_0, # of connection points: 3
#     Node 2, Type 0, BuildingBlock: PAMTOO_clean_linker_0, # of connection points: 3
#     Node 3, Type 0, BuildingBlock: PAMTOO_clean_linker_0, # of connection points: 3
#     Node 4, Type 0, BuildingBlock: PAMTOO_clean_linker_0, # of connection points: 3
#     Node 5, Type 0, BuildingBlock: PAMTOO_clean_linker_0, # of connection points: 3
#     Node 6, Type 0, BuildingBlock: PAMTOO_clean_linker_0, # of connection points: 3
#     Node 7, Type 0, BuildingBlock: PAMTOO_clean_linker_0, # of connection points: 3
#     Node 8, Type 1, BuildingBlock: PAMTOO_clean_sbu_0, # of connection points: 6
#     Node 9, Type 1, BuildingBlock: PAMTOO_clean_sbu_0, # of connection points: 6
#     Node 10, Type 1, BuildingBlock: PAMTOO_clean_sbu_0, # of connection points: 6
#     Node 11, Type 1, BuildingBlock: PAMTOO_clean_sbu_0, # of connection points: 6
#     Edge 12, Type (0, 1), BuildingBlock: CIFDUS_clean_linker_0, # of connection points: 2
#     Edge 13, Type (0, 1), BuildingBlock: CIFDUS_clean_linker_0, # of connection points: 2
#     Edge 14, Type (0, 1), BuildingBlock: CIFDUS_clean_linker_0, # of connection points: 2
#     Edge 15, Type (0, 1), BuildingBlock: CIFDUS_clean_linker_0, # of connection points: 2
#     Edge 16, Type (0, 1), BuildingBlock: CIFDUS_clean_linker_0, # of connection points: 2
#     Edge 17, Type (0, 1), BuildingBlock: CIFDUS_clean_linker_0, # of connection points: 2
#     Edge 18, Type (0, 1), BuildingBlock: CIFDUS_clean_linker_0, # of connection points: 2
#     Edge 19, Type (0, 1), BuildingBlock: CIFDUS_clean_linker_0, # of connection points: 2
#     Edge 20, Type (0, 1), BuildingBlock: CIFDUS_clean_linker_0, # of connection points: 2
#     Edge 21, Type (0, 1), BuildingBlock: CIFDUS_clean_linker_0, # of connection points: 2
#     Edge 22, Type (0, 1), BuildingBlock: CIFDUS_clean_linker_0, # of connection points: 2
#     Edge 23, Type (0, 1), BuildingBlock: CIFDUS_clean_linker_0, # of connection points: 2
#     Edge 24, Type (0, 1), BuildingBlock: CIFDUS_clean_linker_0, # of connection points: 2
#     Edge 25, Type (0, 1), BuildingBlock: CIFDUS_clean_linker_0, # of connection points: 2
#     Edge 26, Type (0, 1), BuildingBlock: CIFDUS_clean_linker_0, # of connection points: 2
#     Edge 27, Type (0, 1), BuildingBlock: CIFDUS_clean_linker_0, # of connection points: 2
#     Edge 28, Type (0, 1), BuildingBlock: CIFDUS_clean_linker_0, # of connection points: 2
#     Edge 29, Type (0, 1), BuildingBlock: CIFDUS_clean_linker_0, # of connection points: 2
#     Edge 30, Type (0, 1), BuildingBlock: CIFDUS_clean_linker_0, # of connection points: 2
#     Edge 31, Type (0, 1), BuildingBlock: CIFDUS_clean_linker_0, # of connection points: 2
#     Edge 32, Type (0, 1), BuildingBlock: CIFDUS_clean_linker_0, # of connection points: 2
#     Edge 33, Type (0, 1), BuildingBlock: CIFDUS_clean_linker_0, # of connection points: 2
#     Edge 34, Type (0, 1), BuildingBlock: CIFDUS_clean_linker_0, # of connection points: 2
#     Edge 35, Type (0, 1), BuildingBlock: CIFDUS_clean_linker_0, # of connection points: 2
# Relax obj value: 0.240
# Max RMSD: 0.241
# Mean RMSD: 0.127
data_MOF--net-zzz--node1-PAMTOO_clean_sbu_0--node2-PAMTOO_clean_linker_0--edge1-CIFDUS_clean_linker_0
_symmetry_space_group_name_H-M    P1
_symmetry_Int_Tables_number       1
_symmetry_cell_setting            triclinic
loop_
_symmetry_equiv_pos_as_xyz
'x, y, z'
_cell_length_a     49.8683
_cell_length_b     42.545811
_cell_length_c     13.731228
_cell_angle_alpha  92.456567
_cell_angle_beta   78.924822
_cell_angle_gamma 85.701249
loop_
_atom_site_label
_atom_site_type_symbol
_atom_site_fract_x
_atom_site_fract_y
_atom_site_fract_z
_atom_type_partial_charge
H0 H 0.85369 0.56128 0.50523 0.0
H1 H 0.77034 0.55023 0.48464 0.0
H2 H 0.80026 0.52121 0.74354 0.0
H3 H 0.74005 0.48273 0.67404 0.0
C4 C 0.74961 0.49662 0.6119 0.0
O5 O 0.75729 0.52433 0.65182 0.0
H6 H 0.76789 0.48149 0.57127 0.0
C7 C 0.8333 0.55586 0.54053 0.0
C8 C 0.82948 0.54328 0.63458 0.0
C9 C 0.81239 0.55744 0.48528 0.0
C10 C 0.78642 0.54914 0.52762 0.0
C11 C 0.78201 0.53556 0.6194 0.0
C12 C 0.80362 0.53225 0.67311 0.0
H13 H 0.07604 0.8039 0.47078 0.0
H14 H 0.07145 0.71895 0.29455 0.0
H15 H 1.00551 0.75129 0.5361 0.0
H16 H 1.0123 0.67213 0.47302 0.0
C17 C 1.02707 0.67701 0.40492 0.0
O18 O 1.02276 0.70849 0.38578 0.0
H19 H 0.04806 0.67172 0.41979 0.0
C20 C 0.06627 0.78264 0.45778 0.0
C21 C 0.04053 0.77926 0.5167 0.0
C22 C 0.07769 0.76155 0.37587 0.0
C23 C 0.06331 0.73552 0.35706 0.0
C24 C 0.03749 0.73153 0.4147 0.0
C25 C 1.02596 0.75356 0.4944 0.0
H26 H 0.7009 0.03826 0.4124 0.0
H27 H 0.78215 0.03016 0.234 0.0
H28 H 0.76711 0.98948 0.52035 0.0
H29 H 0.83104 0.01312 0.4472 0.0
C30 C 0.82659 0.01706 0.37221 0.0
O31 O 0.80549 0.99864 0.3584 0.0
H32 H 0.81999 0.04258 0.37056 0.0
C33 C 0.72256 0.03067 0.40364 0.0
C34 C 0.73141 0.01333 0.47727 0.0
C35 C 0.74058 0.03701 0.31668 0.0
C36 C 0.76832 0.02603 0.3025 0.0
C37 C 0.77839 1.00963 0.37641 0.0
C38 C 0.75976 1.00305 0.46443 0.0
H39 H 0.51078 0.66279 0.373 0.0
H40 H 0.49952 0.74842 0.22508 0.0
H41 H 0.53036 0.75058 0.49783 0.0
H42 H 0.55249 0.78128 0.24578 0.0
C43 C 0.53934 0.79885 0.30035 0.0
O44 O 0.51688 0.78516 0.35263 0.0
H45 H 0.55195 0.80645 0.35417 0.0
C46 C 0.51181 0.68813 0.36977 0.0
C47 C 0.52161 0.70442 0.44433 0.0
C48 C 0.50339 0.70366 0.29153 0.0
C49 C 0.50566 0.73625 0.28595 0.0
C50 C 0.51571 0.75336 0.35902 0.0
C51 C 0.5233 0.73743 0.43973 0.0
H52 H 0.20617 0.56619 0.02842 0.0
H53 H 0.27811 0.55359 0.15582 0.0
H54 H 0.25169 0.47523 1.00048 0.0
H55 H 0.28681 0.45411 0.17377 0.0
C56 C 0.28872 0.47968 0.18809 0.0
O57 O 0.28962 0.49423 0.09895 0.0
H58 H 0.27031 0.48907 0.24408 0.0
C59 C 0.22412 0.55159 0.03838 0.0
C60 C 0.22719 0.5198 1.00348 0.0
C61 C 0.24197 0.56384 0.09509 0.0
C62 C 0.26436 0.54437 0.11175 0.0
C63 C 0.26809 0.51253 0.07802 0.0
C64 C 0.24922 0.50001 0.02481 0.0
H65 H 0.0572 0.2107 0.21184 0.0
H66 H 0.0614 0.30723 0.30694 0.0
H67 H 0.05555 0.28304 1.00358 0.0
H68 H 1.01704 0.33926 0.19739 0.0
C69 C 0.03515 0.3513 0.1613 0.0
O70 O 0.05836 0.33025 0.136 0.0
H71 H 1.03003 0.36051 0.09197 0.0
C72 C 0.05826 0.23533 0.19476 0.0
C73 C 0.05694 0.24373 0.09863 0.0
C74 C 0.05957 0.25802 0.27019 0.0
C75 C 0.06017 0.28975 0.24885 0.0
C76 C 0.0584 0.29907 0.15342 0.0
C77 C 0.05679 0.27597 0.07751 0.0
H78 H 0.34916 0.96943 0.33171 0.0
H79 H 0.26634 0.9654 0.48802 0.0
H80 H 0.28331 0.02309 0.23554 0.0
H81 H 0.22518 0.04641 0.39368 0.0
C82 C 0.22805 0.02533 0.43682 0.0
O83 O 0.24348 1.0016 0.37237 0.0
H84 H 0.23935 0.03249 0.49556 0.0
C85 C 0.32741 0.97623 0.33884 0.0
C86 C 0.31889 0.99737 0.2736 0.0
C87 C 0.30876 0.96491 0.41623 0.0
C88 C 0.28073 0.97423 0.42816 0.0
C89 C 0.27116 0.99489 0.36284 0.0
C90 C 0.29042 1.00687 0.2856 0.0
H91 H 0.52939 0.34263 0.36491 0.0
H92 H 0.52877 0.26021 0.53479 0.0
H93 H 0.50261 0.25712 0.25261 0.0
H94 H 0.54834 0.20524 0.39205 0.0
C95 C 0.52728 0.19852 0.39033 0.0
O96 O 0.50841 0.22481 0.41164 0.0
H97 H 0.52717 0.18898 0.31378 0.0
C98 C 0.5264 0.31776 0.37167 0.0
C99 C 0.51667 0.30167 0.29647 0.0
C100 C 0.53165 0.30313 0.45614 0.0
C101 C 0.52549 0.27172 0.46868 0.0
C102 C 0.51508 0.25489 0.39561 0.0
C103 C 0.51065 0.26994 0.30895 0.0
Dy104 Dy 1.00693 0.01761 0.7979 0.0
Dy105 Dy 0.04458 1.00058 0.95697 0.0
C106 C 0.07297 1.01101 0.73758 0.0
O107 O 1.01506 0.96531 0.76853 0.0
O108 O 0.03569 0.95285 0.90005 0.0
O109 O 1.00221 0.0195 0.64512 0.0
O110 O 0.96977 0.04005 0.76378 0.0
O111 O 1.00121 0.01358 0.04317 0.0
O112 O 0.97748 0.99978 0.92387 0.0
O113 O 0.0476 0.05263 0.93904 0.0
O114 O 1.00691 0.06255 0.88942 0.0
O115 O 0.04876 0.98326 0.09896 0.0
O116 O 0.08356 1.00096 1.00431 0.0
C117 C 1.02556 0.94446 0.8218 0.0
O118 O 0.05039 0.02869 0.73355 0.0
O119 O 0.07269 0.99136 0.80855 0.0
C120 C 0.98534 0.07147 0.6305 0.0
C121 C 1.01222 0.12535 0.57328 0.0
C122 C 0.99592 0.12506 0.6683 0.0
C123 C 0.98256 0.09831 0.69682 0.0
C124 C 0.99931 0.0732 0.53227 0.0
C125 C 1.01279 0.09988 0.50403 0.0
C126 C 0.98097 0.04017 0.66973 0.0
C127 C 0.97809 1.00629 0.01769 0.0
C128 C 1.02788 0.07266 0.92247 0.0
C129 C 0.09198 0.95594 0.09056 0.0
C130 C 0.12163 0.89896 0.1185 0.0
C131 C 0.09796 0.89883 0.0764 0.0
C132 C 0.08352 0.92691 0.06193 0.0
C133 C 0.11629 0.9566 0.12735 0.0
C134 C 0.13112 0.92832 0.14078 0.0
C135 C 0.07523 0.98526 0.08218 0.0
H136 H 0.99493 0.14462 0.72241 0.0
H137 H 0.97196 0.09785 0.77331 0.0
H138 H 1.00179 0.05291 0.47987 0.0
H139 H 1.02465 0.10006 0.42918 0.0
H140 H 0.0893 0.8771 0.06003 0.0
H141 H 0.06502 0.92581 0.03199 0.0
H142 H 0.12343 0.9789 0.148 0.0
H143 H 0.14942 0.9295 0.1718 0.0
Dy144 Dy 0.51867 0.97121 0.76465 0.0
Dy145 Dy 0.52761 0.02551 0.92538 0.0
C146 C 0.51907 0.04361 0.71301 0.0
O147 O 0.56446 0.96813 0.75024 0.0
O148 O 0.56918 0.01651 0.82252 0.0
O149 O 0.50574 0.95977 0.62747 0.0
O150 O 0.52107 0.92241 0.70967 0.0
O151 O 0.54023 0.97903 0.98374 0.0
O152 O 0.51373 0.94785 0.90975 0.0
O153 O 0.48323 0.0162 0.97874 0.0
O154 O 0.47578 0.98999 0.83761 0.0
O155 O 0.53294 0.04174 0.07163 0.0
O156 O 0.53329 0.07444 0.95526 0.0
C157 C 0.57988 0.99078 0.76748 0.0
O158 O 0.52894 0.01467 0.68197 0.0
O159 O 0.51001 0.05035 0.80815 0.0
C160 C 0.48466 0.9128 0.62762 0.0
C161 C 0.4331 0.89522 0.60084 0.0
C162 C 0.43772 0.90263 0.69684 0.0
C163 C 0.46328 0.91154 0.71003 0.0
C164 C 0.48091 0.9028 0.53318 0.0
C165 C 0.45539 0.89406 0.51977 0.0
C166 C 0.50887 0.92943 0.6365 0.0
C167 C 0.52812 0.95269 0.97878 0.0
C168 C 0.46654 1.00364 0.92706 0.0
C169 C 0.56461 0.0803 0.0611 0.0
C170 C 0.61603 0.09357 0.10148 0.0
C171 C 0.61329 0.08513 1.00398 0.0
C172 C 0.58784 0.0784 0.98407 0.0
C173 C 0.56693 0.09022 0.15728 0.0
C174 C 0.59241 0.09677 0.17752 0.0
C175 C 0.53851 0.06975 0.04304 0.0
H176 H 0.42119 0.90333 0.76105 0.0
H177 H 0.46586 0.91924 0.78366 0.0
H178 H 0.49716 0.90386 0.4687 0.0
H179 H 0.45267 0.88893 0.44453 0.0
H180 H 0.63096 0.08277 0.94358 0.0
H181 H 0.58652 0.07083 0.90896 0.0
H182 H 0.54923 0.09172 0.21736 0.0
H183 H 0.59376 0.10269 0.25383 0.0
Dy184 Dy 0.55621 0.50695 0.91144 0.0
Dy185 Dy 0.49769 0.49845 0.82193 0.0
C186 C 0.51614 0.4535 0.98441 0.0
O187 O 0.56127 0.46199 0.81801 0.0
O188 O 0.53425 0.47853 0.70967 0.0
O189 O 0.60047 0.50243 0.90827 0.0
O190 O 0.57104 0.51867 0.04497 0.0
O191 O 0.51503 0.5416 0.75431 0.0
O192 O 0.55973 0.53897 0.7826 0.0
O193 O 0.4867 0.52668 0.9681 0.0
O194 O 0.52737 0.54956 0.95369 0.0
O195 O 0.45937 0.51796 0.78584 0.0
O196 O 0.47138 0.46793 0.76152 0.0
C197 C 0.55312 0.45864 0.73323 0.0
O198 O 0.52962 0.47668 0.01158 0.0
O199 O 0.50377 0.45555 0.90841 0.0
C200 C 0.61919 0.51438 0.05919 0.0
C201 C 0.65932 0.51378 0.18236 0.0
C202 C 0.6343 0.53269 0.20964 0.0
C203 C 0.6145 0.53279 0.1494 0.0
C204 C 0.64449 0.49641 0.02963 0.0
C205 C 0.66419 0.49596 0.09047 0.0
C206 C 0.59663 0.51113 1.00306 0.0
C207 C 0.53973 0.55192 0.74217 0.0
C208 C 0.50088 0.55031 0.98678 0.0
C209 C 0.43981 0.48939 0.66405 0.0
C210 C 0.40588 0.48208 0.5207 0.0
C211 C 0.42613 0.45817 0.53087 0.0
C212 C 0.44279 0.46173 0.60152 0.0
C213 C 0.42047 0.5139 0.65079 0.0
C214 C 0.40385 0.51038 0.57974 0.0
C215 C 0.45329 0.49079 0.75229 0.0
H216 H 0.6298 0.54736 0.27809 0.0
H217 H 0.59522 0.54693 0.17456 0.0
H218 H 0.64861 0.48161 0.96137 0.0
H219 H 0.68286 0.48067 0.06666 0.0
H220 H 0.42862 0.43622 0.48587 0.0
H221 H 0.45725 0.44219 0.60972 0.0
H222 H 0.41727 0.53531 0.69859 0.0
H223 H 0.38839 0.52922 0.57489 0.0
Dy224 Dy 0.04538 0.55107 0.66872 0.0
Dy225 Dy 1.02821 0.49962 0.82979 0.0
C226 C 0.04532 0.47774 0.60477 0.0
O227 O 0.9998 0.55969 0.71793 0.0
O228 O 0.99227 0.50937 0.75442 0.0
O229 O 0.06528 0.56301 0.52292 0.0
O230 O 0.04071 0.59906 0.62549 0.0
O231 O 1.01832 0.54793 0.90828 0.0
O232 O 0.05211 0.57217 0.81283 0.0
O233 O 0.07279 0.5018 0.83603 0.0
O234 O 0.08587 0.53207 0.7018 0.0
O235 O 1.01984 0.48568 0.98181 0.0
O236 O 1.01006 0.45583 0.86453 0.0
C237 C 0.98301 0.53738 0.7335 0.0
O238 O 0.03785 0.50675 0.58516 0.0
O239 O 0.05012 0.47174 0.69303 0.0
C240 C 0.0799 0.61398 0.51799 0.0
C241 C 0.13032 0.64026 0.46236 0.0
C242 C 0.11416 0.63361 0.3913 0.0
C243 C 0.08925 0.62051 0.41903 0.0
C244 C 0.0942 0.62378 0.59098 0.0
C245 C 0.11908 0.63726 0.56346 0.0
C246 C 0.05776 0.59309 0.54087 0.0
C247 C 0.03522 0.57033 0.89777 0.0
C248 C 0.09175 0.51532 0.77512 0.0
C249 C 0.97524 0.47078 0.99962 0.0
C250 C 0.91858 0.48663 0.06217 0.0
C251 C 0.9348 0.50617 1.0006 0.0
C252 C 0.96279 0.49893 0.97338 0.0
C253 C 0.95917 0.44993 0.0561 0.0
C254 C 0.93094 0.45808 0.08874 0.0
C255 C 1.00458 0.46389 0.95933 0.0
H256 H 0.12184 0.63528 0.31261 0.0
H257 H 0.07833 0.61325 0.36192 0.0
H258 H 0.08714 0.61909 0.66824 0.0
H259 H 0.13054 0.6428 0.62051 0.0
H260 H 0.92612 0.52786 0.97628 0.0
H261 H 0.97482 0.51576 0.93228 0.0
H262 H 0.96843 0.42794 0.07644 0.0
H263 H 0.91911 0.44262 0.13742 0.0
H264 H 0.17612 0.05267 0.4344 0.0
H265 H 0.2173 0.9765 0.56016 0.0
H266 H 0.17348 0.96455 0.66083 0.0
H267 H 0.12353 0.97769 0.72093 0.0
H268 H 0.08253 0.05428 0.595 0.0
H269 H 0.12581 0.06393 0.48753 0.0
C270 C 0.17546 0.03308 0.48254 0.0
C271 C 0.20017 0.01524 0.48836 0.0
C272 C 0.15007 0.02659 0.5414 0.0
C273 C 0.19876 0.99031 0.5527 0.0
C274 C 0.17363 0.98363 0.61099 0.0
C275 C 0.12394 0.99637 0.66953 0.0
C276 C 0.09946 0.01526 0.66715 0.0
C277 C 0.14915 1.00189 0.60721 0.0
C278 C 0.10076 0.03928 0.59932 0.0
C279 C 0.12565 0.04488 0.53754 0.0
H280 H 0.53468 0.13451 0.3543 0.0
H281 H 0.50784 0.20537 0.59372 0.0
H282 H 0.50196 0.16413 0.71361 0.0
H283 H 0.50602 0.10766 0.75132 0.0
H284 H 0.53412 0.03717 0.51047 0.0
H285 H 0.53776 0.0782 0.39131 0.0
C286 C 0.52707 0.14087 0.43255 0.0
C287 C 0.52094 0.17304 0.46432 0.0
C288 C 0.52412 0.11698 0.50126 0.0
C289 C 0.51201 0.18087 0.56662 0.0
C290 C 0.50881 0.15724 0.63536 0.0
C291 C 0.51272 0.1012 0.67269 0.0
C292 C 0.51974 0.06909 0.64058 0.0
C293 C 0.51497 0.12516 0.60373 0.0
C294 C 0.52856 0.06148 0.53806 0.0
C295 C 0.53068 0.08504 0.46943 0.0
H296 H 0.31439 0.43808 0.29292 0.0
H297 H 0.3188 0.53212 0.18996 0.0
H298 H 0.35528 0.54109 0.28144 0.0
H299 H 0.38505 0.5228 0.39695 0.0
H300 H 0.3803 0.42843 0.49868 0.0
H301 H 0.34549 0.41894 0.40081 0.0
C302 C 0.32368 0.46035 0.28901 0.0
C303 C 0.31396 0.48419 0.23312 0.0
C304 C 0.34471 0.46535 0.34216 0.0
C305 C 0.32587 0.51318 0.23113 0.0
C306 C 0.34678 0.51836 0.28388 0.0
C307 C 0.37644 0.50014 0.39758 0.0
C308 C 0.38555 0.47637 0.4554 0.0
C309 C 0.35618 0.49475 0.34076 0.0
C310 C 0.37418 0.44707 0.45416 0.0
C311 C 0.35404 0.44165 0.39854 0.0
H312 H 0.03295 0.35155 0.36211 0.0
H313 H 0.04669 0.41195 0.11675 0.0
H314 H 0.05116 0.45643 0.23052 0.0
H315 H 0.04996 0.47851 0.40196 0.0
H316 H 0.03975 0.41618 0.64382 0.0
H317 H 0.03585 0.37213 0.52945 0.0
C318 C 0.03765 0.37419 0.33314 0.0
C319 C 0.03969 0.37829 0.23091 0.0
C320 C 0.04078 0.39945 0.39873 0.0
C321 C 0.04503 0.40813 0.1951 0.0
C322 C 0.04756 0.43359 0.26022 0.0
C323 C 0.04707 0.45524 0.42941 0.0
C324 C 0.04508 0.45083 0.53174 0.0
C325 C 0.04528 0.42962 0.36252 0.0
C326 C 0.04151 0.42039 0.56568 0.0
C327 C 0.03915 0.3951 0.50027 0.0
H328 H 0.87981 0.01946 0.39476 0.0
H329 H 0.83256 1.00107 0.17007 0.0
H330 H 0.8747 0.99533 0.04224 0.0
H331 H 0.92526 0.99737 0.99287 0.0
H332 H 0.9719 0.0172 0.21928 0.0
H333 H 0.9301 0.02037 0.34649 0.0
C334 C 0.87876 0.01361 0.31802 0.0
C335 C 0.8529 1.00978 0.29311 0.0
C336 C 0.90315 1.01084 0.24451 0.0
C337 C 0.85204 1.00329 0.19241 0.0
C338 C 0.87623 1.00024 0.11898 0.0
C339 C 0.92638 1.00221 0.07006 0.0
C340 C 0.9521 1.00703 0.09543 0.0
C341 C 0.90195 1.00419 0.14387 0.0
C342 C 0.95273 0.01339 0.19645 0.0
C343 C 0.92869 0.01522 0.26974 0.0
H344 H 0.55752 0.85833 0.29779 0.0
H345 H 0.50377 0.80154 0.16941 0.0
H346 H 0.49499 0.84387 0.06123 0.0
H347 H 0.50444 0.89622 0.99665 0.0
H348 H 0.55879 0.95263 0.12455 0.0
H349 H 0.56534 0.91156 0.23865 0.0
C350 C 0.54349 0.85542 0.24736 0.0
C351 C 0.53095 0.82682 0.24327 0.0
C352 C 0.53886 0.87981 0.18418 0.0
C353 C 0.51331 0.82335 0.17572 0.0
C354 C 0.50845 0.84755 0.11319 0.0
C355 C 0.51766 0.89966 0.04963 0.0
C356 C 0.53121 0.9277 0.05084 0.0
C357 C 0.5214 0.87576 0.11567 0.0
C358 C 0.54813 0.93148 0.12093 0.0
C359 C 0.55191 0.9079 0.18657 0.0
H360 H 0.75957 0.49631 0.40756 0.0
H361 H 0.6941 0.51177 0.66382 0.0
H362 H 0.66059 0.51878 0.55543 0.0
H363 H 0.64972 0.51795 0.38772 0.0
H364 H 0.71579 0.50572 0.13104 0.0
H365 H 0.74899 0.4997 0.23937 0.0
C366 C 0.73799 0.50154 0.43952 0.0
C367 C 0.72933 0.5033 0.54377 0.0
C368 C 0.71886 0.50578 0.37652 0.0
C369 C 0.70128 0.51016 0.58399 0.0
C370 C 0.68212 0.5141 0.52192 0.0
C371 C 0.67137 0.51453 0.35481 0.0
C372 C 0.67987 0.51199 0.25009 0.0
C373 C 0.69062 0.51165 0.41792 0.0
C374 C 0.70823 0.50703 0.21056 0.0
C375 C 0.7274 0.50383 0.27275 0.0
H376 H 0.05823 0.67206 0.21689 0.0
H377 H 0.98902 0.63382 0.39634 0.0
H378 H 0.98504 0.59788 0.25659 0.0
H379 H 1.00184 0.57652 0.08321 0.0
H380 H 0.07089 0.61568 0.90401 0.0
H381 H 0.07416 0.65191 0.04273 0.0
C382 C 0.04213 0.65607 0.22493 0.0
C383 C 1.02386 0.65581 0.31675 0.0
C384 C 0.03995 0.63548 0.14404 0.0
C385 C 1.00327 0.63465 0.32638 0.0
C386 C 1.00102 0.61403 0.24645 0.0
C387 C 1.01752 0.59306 0.07427 0.0
C388 C 0.03606 0.5932 0.98262 0.0
C389 C 1.01932 0.61411 0.15484 0.0
C390 C 0.05625 0.61492 0.97306 0.0
C391 C 0.0582 0.63572 0.05266 0.0
H392 H 0.09082 0.21351 0.34027 0.0
H393 H 1.01892 0.27859 0.42606 0.0
H394 H 0.99912 0.24349 0.55167 0.0
H395 H 0.99663 0.18811 0.59588 0.0
H396 H 0.06646 0.12087 0.49198 0.0
H397 H 0.09267 0.16247 0.41411 0.0
C398 C 0.07145 0.22058 0.39027 0.0
C399 C 0.05589 0.24783 0.37267 0.0
C400 C 0.0593 0.19911 0.45568 0.0
C401 C 0.03106 0.2574 0.43797 0.0
C402 C 1.01949 0.237 0.50826 0.0
C403 C 1.01784 0.18289 0.55866 0.0
C404 C 1.02941 0.15153 0.54624 0.0
C405 C 0.03244 0.20672 0.51133 0.0
C406 C 0.05697 0.14484 0.49918 0.0
C407 C 0.07198 0.16859 0.45532 0.0
H408 H 0.33566 0.90692 0.38199 0.0
H409 H 0.30881 0.98184 0.60842 0.0
H410 H 0.34303 0.96172 0.70138 0.0
H411 H 0.38727 0.93164 0.69329 0.0
H412 H 0.41501 0.8572 0.46424 0.0
H413 H 0.37353 0.86809 0.39755 0.0
C414 C 0.33654 0.91784 0.45407 0.0
C415 C 0.32008 0.94585 0.4884 0.0
C416 C 0.35691 0.90681 0.50486 0.0
C417 C 0.32127 0.96013 0.58126 0.0
C418 C 0.3411 0.94888 0.63352 0.0
C419 C 0.38384 0.9168 0.6314 0.0
C420 C 0.40474 0.89431 0.58185 0.0
C421 C 0.36012 0.92349 0.59257 0.0
C422 C 0.39971 0.87539 0.50179 0.0
C423 C 0.37596 0.88156 0.46364 0.0
H424 H 0.571 0.34403 0.42279 0.0
H425 H 0.51452 0.30661 0.65927 0.0
H426 H 0.52092 0.35002 0.77331 0.0
H427 H 0.53494 0.40388 0.79484 0.0
H428 H 0.58362 0.4456 0.54769 0.0
H429 H 0.58747 0.39579 0.44715 0.0
C430 C 0.56033 0.34516 0.49975 0.0
C431 C 0.54173 0.32262 0.53186 0.0
C432 C 0.5622 0.37151 0.5618 0.0
C433 C 0.52883 0.3237 0.63245 0.0
C434 C 0.53216 0.34881 0.69719 0.0
C435 C 0.54683 0.40168 0.71955 0.0
C436 C 0.55907 0.42797 0.67786 0.0
C437 C 0.54757 0.37367 0.66105 0.0
C438 C 0.57414 0.42543 0.58039 0.0
C439 C 0.57628 0.39705 0.52333 0.0
H440 H 0.24069 0.57511 0.29079 0.0
H441 H 0.22271 0.62024 0.03279 0.0
H442 H 0.19023 0.65897 0.13957 0.0
H443 H 0.15747 0.66765 0.29823 0.0
H444 H 0.17189 0.61538 0.54876 0.0
H445 H 0.2161 0.59412 0.45589 0.0
C446 C 0.23075 0.59435 0.25788 0.0
C447 C 0.23326 0.59416 0.15413 0.0
C448 C 0.21097 0.61526 0.31934 0.0
C449 C 0.22046 0.61944 0.11269 0.0
C450 C 0.20175 0.64146 0.17377 0.0
C451 C 0.17063 0.65226 0.33338 0.0
C452 C 0.16044 0.64167 0.42816 0.0
C453 C 0.19516 0.63773 0.27638 0.0
C454 C 0.17851 0.62344 0.47498 0.0
C455 C 0.20385 0.6107 0.42111 0.0
H456 H 0.12116 0.79424 0.40592 0.0
H457 H 0.08739 0.75065 0.17156 0.0
H458 H 0.11016 0.78561 0.0544 0.0
H459 H 0.12455 0.83891 0.03403 0.0
H460 H 0.14429 0.89071 0.2848 0.0
H461 H 0.1432 0.84325 0.37646 0.0
C462 C 0.119 0.79211 0.32888 0.0
C463 C 0.10093 0.77118 0.30009 0.0
C464 C 0.12927 0.8149 0.26424 0.0
C465 C 0.10031 0.76704 0.19813 0.0
C466 C 0.11307 0.78751 0.1306 0.0
C467 C 0.12894 0.83979 0.1084 0.0
C468 C 0.13279 0.86896 0.15415 0.0
C469 C 0.12514 0.81336 0.16535 0.0
C470 C 0.1405 0.86902 0.24765 0.0
C471 C 0.1395 0.84181 0.3012 0.0
H472 H 0.71201 0.09388 0.33123 0.0
H473 H 0.74106 0.01272 0.13015 0.0
H474 H 0.70677 0.02724 0.03056 0.0
H475 H 0.66225 0.05526 0.02701 0.0
H476 H 0.63176 0.1351 0.23376 0.0
H477 H 0.67288 0.12885 0.30531 0.0
C478 C 0.71148 0.08021 0.26317 0.0
C479 C 0.72864 0.05215 0.23826 0.0
C480 C 0.69092 0.08789 0.20946 0.0
C481 C 0.72802 0.03446 0.15026 0.0
C482 C 0.70814 0.04251 0.09435 0.0
C483 C 0.66497 0.07207 0.08522 0.0
C484 C 0.64359 0.09511 0.12677 0.0
C485 C 0.68846 0.06802 0.12703 0.0
C486 C 0.64754 0.11658 0.20243 0.0
C487 C 0.6711 0.1131 0.24314 0.0
H488 H 0.4678 0.65785 0.31469 0.0
H489 H 0.51992 0.70592 0.09123 0.0
H490 H 0.51781 0.66383 0.96726 0.0
H491 H 0.51112 0.60844 0.93575 0.0
H492 H 0.46256 0.55765 0.16056 0.0
H493 H 0.45322 0.60569 0.27169 0.0
C494 C 0.47811 0.65941 0.23814 0.0
C495 C 0.49463 0.68445 0.2125 0.0
C496 C 0.47792 0.63435 0.16863 0.0
C497 C 0.50727 0.68681 0.11288 0.0
C498 C 0.50633 0.66255 0.0423 0.0
C499 C 0.4976 0.60824 0.00764 0.0
C500 C 0.48775 0.57972 0.04093 0.0
C501 C 0.4932 0.63543 0.07117 0.0
C502 C 0.4703 0.57947 0.13387 0.0
C503 C 0.46524 0.60683 0.19744 0.0
H504 H 0.80747 0.5108 0.35564 0.0
H505 H 0.83762 0.6027 0.37502 0.0
H506 H 0.8713 0.5896 0.22169 0.0
H507 H 0.90001 0.54729 0.1213 0.0
H508 H 0.87316 0.45313 0.11137 0.0
H509 H 0.83029 0.47169 0.22464 0.0
C510 C 0.82039 0.52856 0.32303 0.0
C511 C 0.82063 0.5574 0.37665 0.0
C512 C 0.84106 0.51983 0.24009 0.0
C513 C 0.83737 0.5803 0.33466 0.0
C514 C 0.85691 0.57254 0.24826 0.0
C515 C 0.88445 0.53088 0.13968 0.0
C516 C 0.89016 0.49858 0.10963 0.0
C517 C 0.86031 0.54153 0.2059 0.0
C518 C 0.86966 0.47787 0.13608 0.0
C519 C 0.84509 0.48853 0.20017 0.0
H520 H 1.01148 0.21781 0.06238 0.0
H521 H 0.09959 0.20815 0.98398 0.0
H522 H 0.09869 0.15369 0.92011 0.0
H523 H 0.07294 0.10652 0.90768 0.0
H524 H 0.9846 0.11673 0.98165 0.0
H525 H 0.98539 0.17288 0.02614 0.0
C526 C 0.03036 0.20422 0.02688 0.0
C527 C 0.05556 0.2173 0.02573 0.0
C528 C 1.02966 0.17256 0.99263 0.0
C529 C 0.07995 0.19898 0.98297 0.0
C530 C 0.07943 0.16759 0.94828 0.0
C531 C 0.05388 0.12111 0.93311 0.0
C532 C 1.02876 0.10721 0.9435 0.0
C533 C 0.05446 0.15371 0.95644 0.0
C534 C 1.00423 0.12665 0.9741 0.0
C535 C 1.00466 0.15885 0.99935 0.0
H536 H 0.34444 0.97021 0.09252 0.0
H537 H 0.34592 0.0495 0.296 0.0
H538 H 0.39175 0.05933 0.20681 0.0
H539 H 0.4339 0.04151 0.08136 0.0
H540 H 0.4312 0.96309 0.87454 0.0
H541 H 0.38394 0.95697 0.95343 0.0
C542 C 0.3543 0.99048 0.11459 0.0
C543 C 0.34126 1.00964 0.19948 0.0
C544 C 0.381 0.99567 0.06353 0.0
C545 C 0.35496 0.03503 0.22924 0.0
C546 C 0.38147 0.0403 0.1791 0.0
C547 C 0.4229 0.02328 0.05288 0.0
C548 C 0.43659 1.00258 0.97223 0.0
C549 C 0.39513 0.02016 0.0979 0.0
C550 C 0.42159 0.97938 0.93628 0.0
C551 C 0.39437 0.97579 0.9816 0.0
H552 H 0.55516 0.332 0.18254 0.0
H553 H 0.46984 0.3153 0.22043 0.0
H554 H 0.462 0.36 0.11821 0.0
H555 H 0.47861 0.40899 0.03818 0.0
H556 H 0.56292 0.42795 0.02737 0.0
H557 H 0.57181 0.37807 0.10005 0.0
C558 C 0.53496 0.33759 0.16604 0.0
C559 C 0.51317 0.3202 0.20882 0.0
C560 C 0.53026 0.36466 0.11467 0.0
C561 C 0.48709 0.3279 0.18734 0.0
C562 C 0.48253 0.35392 0.13049 0.0
C563 C 0.49887 0.40204 0.05172 0.0
C564 C 0.51997 0.42255 0.02888 0.0
C565 C 0.50375 0.37337 0.0973 0.0
C566 C 0.54617 0.41308 0.04623 0.0
C567 C 0.55137 0.38436 0.08702 0.0
H568 H 0.21039 0.54208 0.84091 0.0
H569 H 0.1935 0.47296 0.0596 0.0
H570 H 0.15052 0.46371 1.00483 0.0
H571 H 0.11518 0.47993 0.9067 0.0
H572 H 0.13329 0.5492 0.68757 0.0
H573 H 0.17802 0.55355 0.73022 0.0
C574 C 0.19764 0.52436 0.87475 0.0
C575 C 0.20526 0.50813 0.95399 0.0
C576 C 0.1728 0.51957 0.84381 0.0
C577 C 0.18839 0.48543 0.99758 0.0
C578 C 0.1636 0.48046 0.96701 0.0
C579 C 0.12903 0.49566 0.86726 0.0
C580 C 0.12044 0.51439 0.79429 0.0
C581 C 0.15515 0.4981 0.8921 0.0
C582 C 0.13898 0.53446 0.74401 0.0
C583 C 0.16472 0.53708 0.76853 0.0
H584 H 0.06089 0.80199 0.67303 0.0
H585 H 0.99425 0.81792 0.51801 0.0
H586 H 0.98246 0.87039 0.6032 0.0
H587 H 0.99503 0.91434 0.70569 0.0
H588 H 0.06143 0.8975 0.86244 0.0
H589 H 0.06929 0.84306 0.79331 0.0
C590 C 0.04321 0.81658 0.66054 0.0
C591 C 1.02835 0.80595 0.58973 0.0
C592 C 0.03689 0.84693 0.70859 0.0
C593 C 1.00571 0.82526 0.57328 0.0
C594 C 0.99925 0.8555 0.62096 0.0
C595 C 1.011 0.89865 0.72567 0.0
C596 C 1.02781 0.9103 0.78849 0.0
C597 C 1.01531 0.86703 0.6861 0.0
C598 C 0.04817 0.88939 0.81443 0.0
C599 C 0.05276 0.85816 0.77459 0.0
H600 H 0.69688 0.96687 0.48127 0.0
H601 H 0.71406 0.0464 0.65632 0.0
H602 H 0.66888 0.04616 0.76558 0.0
H603 H 0.62198 0.02711 0.79901 0.0
H604 H 0.6056 0.94745 0.62034 0.0
H605 H 0.65241 0.94407 0.52616 0.0
C606 C 0.69121 0.98325 0.54599 0.0
C607 C 0.70936 1.00599 0.5621 0.0
C608 C 0.66477 0.98355 0.60666 0.0
C609 C 0.70104 0.02795 0.64397 0.0
C610 C 0.6749 0.02817 0.70544 0.0
C611 C 0.62869 1.00879 0.74021 0.0
C612 C 0.60974 0.98776 0.71706 0.0
C613 C 0.65615 1.00672 0.68562 0.0
C614 C 0.61928 0.9641 0.6406 0.0
C615 C 0.64624 0.96209 0.58617 0.0
H616 H 0.56444 0.66049 0.44366 0.0
H617 H 0.48981 0.70349 0.62747 0.0
H618 H 0.48916 0.65985 0.73825 0.0
H619 H 0.50606 0.60578 0.76777 0.0
H620 H 0.58247 0.56388 0.5932 0.0
H621 H 0.5861 0.61039 0.4926 0.0
C622 C 0.54875 0.66096 0.51055 0.0
C623 C 0.5274 0.68557 0.52821 0.0
C624 C 0.54837 0.63543 0.57339 0.0
C625 C 0.50678 0.68537 0.61358 0.0
C626 C 0.50615 0.66006 0.67587 0.0
C627 C 0.52384 0.60712 0.70915 0.0
C628 C 0.54388 0.58125 0.68744 0.0
C629 C 0.52622 0.63439 0.65421 0.0
C630 C 0.56676 0.58338 0.6112 0.0
C631 C 0.56881 0.61001 0.55376 0.0
H632 H 0.86641 0.58592 0.65349 0.0
H633 H 0.84881 0.49065 0.71956 0.0
H634 H 0.89429 0.48062 0.76152 0.0
H635 H 0.94119 0.49741 0.76129 0.0
H636 H 0.95818 0.59253 0.68752 0.0
H637 H 0.91128 0.60373 0.66499 0.0
C638 C 0.87234 0.56302 0.67833 0.0
C639 C 0.85411 0.53903 0.68253 0.0
C640 C 0.89883 0.55713 0.6988 0.0
C641 C 0.86216 0.50968 0.71624 0.0
C642 C 0.88839 0.50381 0.73891 0.0
C643 C 0.93461 0.52064 0.74076 0.0
C644 C 0.95361 0.54394 0.72508 0.0
C645 C 0.90727 0.52707 0.72742 0.0
C646 C 0.94438 0.57397 0.69941 0.0
C647 C 0.91741 0.58049 0.68666 0.0
loop_
_geom_bond_atom_site_label_1
_geom_bond_atom_site_label_2
_geom_bond_distance
_geom_bond_site_symmetry_2
_ccdc_geom_bond_type
H0 C7 0.929 . S
H1 C10 0.930 . S
H2 C12 0.929 . S
H3 C4 0.969 . S
C4 H3 0.969 . S
C4 O5 1.550 . S
C4 H6 0.973 . S
O5 C4 1.550 . S
O5 C11 1.412 . S
H6 C4 0.973 . S
C7 H0 0.929 . S
C7 C8 1.400 . S
C7 C9 1.364 . S
C8 C7 1.400 . S
C8 C12 1.377 . S
C9 C7 1.364 . S
C9 C10 1.374 . S
C10 H1 0.930 . S
C10 C9 1.374 . S
C10 C11 1.383 . S
C11 O5 1.412 . S
C11 C10 1.383 . S
C11 C12 1.394 . S
C12 H2 0.929 . S
C12 C8 1.377 . S
C12 C11 1.394 . S
H13 C20 0.929 . S
H14 C23 0.930 . S
H15 C25 0.929 . S
H16 C17 0.969 . S
C17 H16 0.969 . S
C17 O18 1.550 1_455 S
C17 H19 0.973 1_455 S
O18 C17 1.550 1_655 S
O18 C24 1.422 . S
H19 C17 0.973 1_655 S
C20 H13 0.929 . S
C20 C21 1.405 . S
C20 C22 1.364 . S
C21 C20 1.405 . S
C21 C25 1.382 . S
C22 C20 1.364 . S
C22 C23 1.374 . S
C23 H14 0.930 . S
C23 C22 1.374 . S
C23 C24 1.387 . S
C24 O18 1.422 . S
C24 C23 1.387 . S
C24 C25 1.390 . S
C25 H15 0.929 . S
C25 C21 1.382 . S
C25 C24 1.390 . S
H26 C33 0.928 1_565 S
H27 C36 0.930 . S
H28 C38 0.928 1_565 S
H29 C30 0.969 . S
C30 H29 0.969 . S
C30 O31 1.550 1_545 S
C30 H32 0.973 1_545 S
O31 C30 1.550 1_565 S
O31 C37 1.407 1_565 S
H32 C30 0.973 1_565 S
C33 H26 0.928 1_545 S
C33 C34 1.400 . S
C33 C35 1.363 . S
C34 C33 1.400 . S
C34 C38 1.378 . S
C35 C33 1.363 . S
C35 C36 1.375 1_545 S
C36 H27 0.930 . S
C36 C35 1.375 1_565 S
C36 C37 1.382 1_565 S
C37 O31 1.407 1_545 S
C37 C36 1.382 1_545 S
C37 C38 1.391 . S
C38 H28 0.928 1_545 S
C38 C34 1.378 . S
C38 C37 1.391 . S
H39 C46 0.929 . S
H40 C49 0.930 . S
H41 C51 0.929 . S
H42 C43 0.969 . S
C43 H42 0.969 . S
C43 O44 1.550 . S
C43 H45 0.973 . S
O44 C43 1.550 . S
O44 C50 1.412 . S
H45 C43 0.973 . S
C46 H39 0.929 . S
C46 C47 1.400 . S
C46 C48 1.364 . S
C47 C46 1.400 . S
C47 C51 1.377 . S
C48 C46 1.364 . S
C48 C49 1.374 . S
C49 H40 0.930 . S
C49 C48 1.374 . S
C49 C50 1.383 . S
C50 O44 1.412 . S
C50 C49 1.383 . S
C50 C51 1.394 . S
C51 H41 0.929 . S
C51 C47 1.377 . S
C51 C50 1.394 . S
H52 C59 0.929 . S
H53 C62 0.930 . S
H54 C64 0.929 . S
H55 C56 0.969 . S
C56 H55 0.969 . S
C56 O57 1.550 1_554 S
C56 H58 0.973 . S
O57 C56 1.550 1_556 S
O57 C63 1.412 . S
H58 C56 0.973 . S
C59 H52 0.929 . S
C59 C60 1.400 . S
C59 C61 1.364 1_556 S
C60 C59 1.400 . S
C60 C64 1.377 . S
C61 C59 1.364 1_554 S
C61 C62 1.374 . S
C62 H53 0.930 . S
C62 C61 1.374 . S
C62 C63 1.383 1_554 S
C63 O57 1.412 . S
C63 C62 1.383 1_556 S
C63 C64 1.394 . S
C64 H54 0.929 . S
C64 C60 1.377 . S
C64 C63 1.394 . S
H65 C72 0.929 . S
H66 C75 0.930 . S
H67 C77 0.929 1_556 S
H68 C69 0.969 . S
C69 H68 0.969 . S
C69 O70 1.550 1_455 S
C69 H71 0.971 1_455 S
O70 C69 1.550 1_655 S
O70 C76 1.412 1_655 S
H71 C69 0.971 1_655 S
C72 H65 0.929 . S
C72 C73 1.400 . S
C72 C74 1.364 . S
C73 C72 1.400 . S
C73 C77 1.377 . S
C74 C72 1.364 . S
C74 C75 1.374 . S
C75 H66 0.930 . S
C75 C74 1.374 . S
C75 C76 1.383 . S
C76 O70 1.412 1_455 S
C76 C75 1.383 . S
C76 C77 1.394 . S
C77 H67 0.929 1_554 S
C77 C73 1.377 . S
C77 C76 1.394 . S
H78 C85 0.929 1_565 S
H79 C88 0.926 . S
H80 C90 0.928 1_565 S
H81 C82 0.969 . S
C82 H81 0.969 . S
C82 O83 1.550 1_545 S
C82 H84 0.973 1_545 S
O83 C82 1.550 1_565 S
O83 C89 1.399 1_565 S
H84 C82 0.973 1_565 S
C85 H78 0.929 1_545 S
C85 C86 1.399 . S
C85 C87 1.364 . S
C86 C85 1.399 . S
C86 C90 1.376 . S
C87 C85 1.364 . S
C87 C88 1.373 1_545 S
C88 H79 0.926 . S
C88 C87 1.373 1_565 S
C88 C89 1.382 1_565 S
C89 O83 1.399 1_545 S
C89 C88 1.382 1_545 S
C89 C90 1.397 . S
C90 H80 0.928 1_545 S
C90 C86 1.376 . S
C90 C89 1.397 . S
H91 C98 0.929 . S
H92 C101 0.930 . S
H93 C103 0.929 . S
H94 C95 0.969 . S
C95 H94 0.969 . S
C95 O96 1.550 . S
C95 H97 0.973 . S
O96 C95 1.550 . S
O96 C102 1.412 . S
H97 C95 0.973 . S
C98 H91 0.929 . S
C98 C99 1.400 . S
C98 C100 1.364 . S
C99 C98 1.400 . S
C99 C103 1.377 . S
C100 C98 1.364 . S
C100 C101 1.374 . S
C101 H92 0.930 . S
C101 C100 1.374 . S
C101 C102 1.383 . S
C102 O96 1.412 . S
C102 C101 1.383 . S
C102 C103 1.394 . S
C103 H93 0.929 . S
C103 C99 1.377 . S
C103 C102 1.394 . S
Dy104 O107 2.307 1_545 S
Dy104 O109 2.395 1_655 S
Dy104 O110 2.379 . S
Dy104 O112 2.339 . S
Dy104 O114 2.298 . S
Dy104 O118 2.275 1_655 S
Dy104 C126 2.738 . S
Dy105 O108 2.298 . S
Dy105 O111 2.275 1_455 S
Dy105 O113 2.307 1_565 S
Dy105 O115 2.395 1_456 S
Dy105 O116 2.379 . S
Dy105 O119 2.339 . S
Dy105 C135 2.738 1_556 S
C106 O118 1.254 1_565 S
C106 O119 1.257 . S
O107 Dy104 2.307 1_565 S
O107 C117 1.266 . S
O108 Dy105 2.298 . S
O108 C117 1.236 1_455 S
O109 Dy104 2.395 1_455 S
O109 C126 1.255 1_455 S
O110 Dy104 2.379 . S
O110 C126 1.249 . S
O111 Dy105 2.275 1_655 S
O111 C127 1.254 1_565 S
O112 Dy104 2.339 . S
O112 C127 1.257 . S
O113 Dy105 2.307 1_545 S
O113 C128 1.266 . S
O114 Dy104 2.298 . S
O114 C128 1.236 1_655 S
O115 Dy105 2.395 1_654 S
O115 C135 1.255 1_655 S
O116 Dy105 2.379 . S
O116 C135 1.249 1_556 S
C117 O107 1.266 . S
C117 O108 1.236 1_655 S
O118 Dy104 2.275 1_455 S
O118 C106 1.254 1_545 S
O119 Dy105 2.339 . S
O119 C106 1.257 . S
C120 C123 1.344 1_655 S
C120 C124 1.328 . S
C120 C126 1.516 . S
C121 C122 1.304 1_655 S
C121 C125 1.323 . S
C122 C121 1.304 1_455 S
C122 C123 1.371 . S
C122 H136 0.930 . S
C123 C120 1.344 1_455 S
C123 C122 1.371 . S
C123 H137 0.931 . S
C124 C120 1.328 . S
C124 C125 1.433 . S
C124 H138 0.931 . S
C125 C121 1.323 . S
C125 C124 1.433 . S
C125 H139 0.933 . S
C126 Dy104 2.738 . S
C126 O109 1.255 1_655 S
C126 O110 1.249 . S
C126 C120 1.516 . S
C127 O111 1.254 1_545 S
C127 O112 1.257 . S
C128 O113 1.266 . S
C128 O114 1.236 1_455 S
C129 C132 1.344 1_455 S
C129 C133 1.328 . S
C129 C135 1.516 . S
C130 C131 1.304 1_455 S
C130 C134 1.323 . S
C131 C130 1.304 1_655 S
C131 C132 1.371 . S
C131 H140 0.930 . S
C132 C129 1.344 1_655 S
C132 C131 1.371 . S
C132 H141 0.931 . S
C133 C129 1.328 . S
C133 C134 1.433 . S
C133 H142 0.931 . S
C134 C130 1.323 . S
C134 C133 1.433 . S
C134 H143 0.933 . S
C135 Dy105 2.738 1_554 S
C135 O115 1.255 1_455 S
C135 O116 1.249 1_554 S
C135 C129 1.516 . S
H136 C122 0.930 . S
H137 C123 0.931 . S
H138 C124 0.931 . S
H139 C125 0.933 . S
H140 C131 0.930 . S
H141 C132 0.931 . S
H142 C133 0.931 . S
H143 C134 0.933 . S
Dy144 O147 2.307 . S
Dy144 O149 2.395 1_565 S
Dy144 O150 2.379 . S
Dy144 O152 2.339 . S
Dy144 O154 2.298 . S
Dy144 O158 2.275 1_565 S
Dy144 C166 2.738 . S
Dy145 O148 2.298 . S
Dy145 O151 2.275 1_545 S
Dy145 O153 2.307 . S
Dy145 O155 2.395 1_546 S
Dy145 O156 2.379 1_556 S
Dy145 O159 2.339 . S
Dy145 C175 2.738 1_556 S
C146 O158 1.254 . S
C146 O159 1.257 . S
O147 Dy144 2.307 . S
O147 C157 1.266 . S
O148 Dy145 2.298 . S
O148 C157 1.236 1_545 S
O149 Dy144 2.395 1_545 S
O149 C166 1.255 1_545 S
O150 Dy144 2.379 . S
O150 C166 1.249 . S
O151 Dy145 2.275 1_565 S
O151 C167 1.254 . S
O152 Dy144 2.339 . S
O152 C167 1.257 . S
O153 Dy145 2.307 . S
O153 C168 1.266 . S
O154 Dy144 2.298 . S
O154 C168 1.236 1_565 S
O155 Dy145 2.395 1_564 S
O155 C175 1.255 1_565 S
O156 Dy145 2.379 1_554 S
O156 C175 1.249 . S
C157 O147 1.266 . S
C157 O148 1.236 1_565 S
O158 Dy144 2.275 1_545 S
O158 C146 1.254 . S
O159 Dy145 2.339 . S
O159 C146 1.257 . S
C160 C163 1.344 1_565 S
C160 C164 1.328 . S
C160 C166 1.516 . S
C161 C162 1.288 1_565 S
C161 C165 1.323 . S
C162 C161 1.288 1_545 S
C162 C163 1.373 . S
C162 H176 0.945 . S
C163 C160 1.344 1_545 S
C163 C162 1.373 . S
C163 H177 0.931 . S
C164 C160 1.328 . S
C164 C165 1.433 . S
C164 H178 0.931 . S
C165 C161 1.323 . S
C165 C164 1.433 . S
C165 H179 0.933 . S
C166 Dy144 2.738 . S
C166 O149 1.255 1_565 S
C166 O150 1.249 . S
C166 C160 1.516 . S
C167 O151 1.254 . S
C167 O152 1.257 . S
C168 O153 1.266 . S
C168 O154 1.236 1_545 S
C169 C172 1.344 1_545 S
C169 C173 1.328 . S
C169 C175 1.516 . S
C170 C171 1.296 1_545 S
C170 C174 1.323 . S
C171 C170 1.296 1_565 S
C171 C172 1.372 . S
C171 H180 0.938 . S
C172 C169 1.344 1_565 S
C172 C171 1.372 . S
C172 H181 0.931 . S
C173 C169 1.328 . S
C173 C174 1.433 . S
C173 H182 0.931 . S
C174 C170 1.323 . S
C174 C173 1.433 . S
C174 H183 0.933 . S
C175 Dy145 2.738 1_554 S
C175 O155 1.255 1_545 S
C175 O156 1.249 . S
C175 C169 1.516 . S
H176 C162 0.945 . S
H177 C163 0.931 . S
H178 C164 0.931 . S
H179 C165 0.933 . S
H180 C171 0.938 . S
H181 C172 0.931 . S
H182 C173 0.931 . S
H183 C174 0.933 . S
Dy184 O187 2.307 . S
Dy184 O189 2.395 . S
Dy184 O190 2.379 . S
Dy184 O192 2.339 . S
Dy184 O194 2.298 . S
Dy184 O198 2.275 . S
Dy184 C206 2.738 . S
Dy185 O188 2.298 . S
Dy185 O191 2.275 . S
Dy185 O193 2.307 . S
Dy185 O195 2.395 . S
Dy185 O196 2.379 . S
Dy185 O199 2.339 . S
Dy185 C215 2.738 . S
C186 O198 1.254 . S
C186 O199 1.257 . S
O187 Dy184 2.307 . S
O187 C197 1.266 . S
O188 Dy185 2.298 . S
O188 C197 1.236 . S
O189 Dy184 2.395 . S
O189 C206 1.255 . S
O190 Dy184 2.379 . S
O190 C206 1.249 . S
O191 Dy185 2.275 . S
O191 C207 1.254 . S
O192 Dy184 2.339 . S
O192 C207 1.257 . S
O193 Dy185 2.307 . S
O193 C208 1.266 . S
O194 Dy184 2.298 . S
O194 C208 1.236 . S
O195 Dy185 2.395 . S
O195 C215 1.255 . S
O196 Dy185 2.379 . S
O196 C215 1.249 . S
C197 O187 1.266 . S
C197 O188 1.236 . S
O198 Dy184 2.275 . S
O198 C186 1.254 . S
O199 Dy185 2.339 . S
O199 C186 1.257 . S
C200 C203 1.344 1_556 S
C200 C204 1.328 . S
C200 C206 1.516 . S
C201 C202 1.304 . S
C201 C205 1.323 . S
C202 C201 1.304 . S
C202 C203 1.371 . S
C202 H216 0.930 . S
C203 C200 1.344 1_554 S
C203 C202 1.371 . S
C203 H217 0.931 . S
C204 C200 1.328 . S
C204 C205 1.433 1_556 S
C204 H218 0.931 . S
C205 C201 1.323 . S
C205 C204 1.433 1_554 S
C205 H219 0.933 1_554 S
C206 Dy184 2.738 . S
C206 O189 1.255 . S
C206 O190 1.249 . S
C206 C200 1.516 . S
C207 O191 1.254 . S
C207 O192 1.257 . S
C208 O193 1.266 . S
C208 O194 1.236 . S
C209 C212 1.344 . S
C209 C213 1.328 . S
C209 C215 1.516 . S
C210 C211 1.304 . S
C210 C214 1.323 . S
C211 C210 1.304 . S
C211 C212 1.371 . S
C211 H220 0.930 . S
C212 C209 1.344 . S
C212 C211 1.371 . S
C212 H221 0.931 . S
C213 C209 1.328 . S
C213 C214 1.433 . S
C213 H222 0.931 . S
C214 C210 1.323 . S
C214 C213 1.433 . S
C214 H223 0.933 . S
C215 Dy185 2.738 . S
C215 O195 1.255 . S
C215 O196 1.249 . S
C215 C209 1.516 . S
H216 C202 0.930 . S
H217 C203 0.931 . S
H218 C204 0.931 . S
H219 C205 0.933 1_556 S
H220 C211 0.930 . S
H221 C212 0.931 . S
H222 C213 0.931 . S
H223 C214 0.933 . S
Dy224 O227 2.307 1_455 S
Dy224 O229 2.395 . S
Dy224 O230 2.379 . S
Dy224 O232 2.339 . S
Dy224 O234 2.298 . S
Dy224 O238 2.275 . S
Dy224 C246 2.738 . S
Dy225 O228 2.298 . S
Dy225 O231 2.275 . S
Dy225 O233 2.307 1_655 S
Dy225 O235 2.395 1_556 S
Dy225 O236 2.379 1_556 S
Dy225 O239 2.339 . S
Dy225 C255 2.738 1_556 S
C226 O238 1.255 1_655 S
C226 O239 1.255 . S
O227 Dy224 2.307 1_655 S
O227 C237 1.266 . S
O228 Dy225 2.298 . S
O228 C237 1.236 . S
O229 Dy224 2.395 . S
O229 C246 1.255 . S
O230 Dy224 2.379 . S
O230 C246 1.249 . S
O231 Dy225 2.275 . S
O231 C247 1.254 1_655 S
O232 Dy224 2.339 . S
O232 C247 1.257 . S
O233 Dy225 2.307 1_455 S
O233 C248 1.266 . S
O234 Dy224 2.298 . S
O234 C248 1.236 . S
O235 Dy225 2.395 1_554 S
O235 C255 1.255 . S
O236 Dy225 2.379 1_554 S
O236 C255 1.249 . S
C237 O227 1.266 . S
C237 O228 1.236 . S
O238 Dy224 2.275 . S
O238 C226 1.255 1_455 S
O239 Dy225 2.339 . S
O239 C226 1.255 . S
C240 C243 1.344 . S
C240 C244 1.328 . S
C240 C246 1.516 . S
C241 C242 1.304 . S
C241 C245 1.323 . S
C242 C241 1.304 . S
C242 C243 1.371 . S
C242 H256 0.930 . S
C243 C240 1.344 . S
C243 C242 1.371 . S
C243 H257 0.931 . S
C244 C240 1.328 . S
C244 C245 1.433 . S
C244 H258 0.931 . S
C245 C241 1.323 . S
C245 C244 1.433 . S
C245 H259 0.933 . S
C246 Dy224 2.738 . S
C246 O229 1.255 . S
C246 O230 1.249 . S
C246 C240 1.516 . S
C247 O231 1.254 1_455 S
C247 O232 1.257 . S
C248 O233 1.266 . S
C248 O234 1.236 . S
C249 C252 1.344 . S
C249 C253 1.328 . S
C249 C255 1.516 . S
C250 C251 1.304 . S
C250 C254 1.323 . S
C251 C250 1.304 . S
C251 C252 1.371 . S
C251 H260 0.930 . S
C252 C249 1.344 . S
C252 C251 1.371 . S
C252 H261 0.931 . S
C253 C249 1.328 . S
C253 C254 1.433 . S
C253 H262 0.931 . S
C254 C250 1.323 . S
C254 C253 1.433 . S
C254 H263 0.933 . S
C255 Dy225 2.738 1_554 S
C255 O235 1.255 . S
C255 O236 1.249 . S
C255 C249 1.516 . S
H256 C242 0.930 . S
H257 C243 0.931 . S
H258 C244 0.931 . S
H259 C245 0.933 . S
H260 C251 0.930 . S
H261 C252 0.931 . S
H262 C253 0.931 . S
H263 C254 0.933 . S
H264 C270 0.930 . S
H265 C273 0.930 . S
H266 C274 0.930 . S
H267 C275 0.930 . S
H268 C278 0.930 . S
H269 C279 0.930 . S
C270 H264 0.930 . S
C270 C271 1.357 . S
C270 C272 1.415 . S
C271 C270 1.357 . S
C271 C273 1.416 1_545 S
C272 C270 1.415 . S
C272 C277 1.425 1_545 S
C272 C279 1.409 . S
C273 H265 0.930 . S
C273 C271 1.416 1_565 S
C273 C274 1.362 . S
C274 H266 0.930 . S
C274 C273 1.362 . S
C274 C277 1.409 . S
C275 H267 0.930 . S
C275 C276 1.355 1_565 S
C275 C277 1.415 . S
C276 C275 1.355 1_545 S
C276 C278 1.419 . S
C277 C272 1.425 1_565 S
C277 C274 1.409 . S
C277 C275 1.415 . S
C278 H268 0.930 . S
C278 C276 1.419 . S
C278 C279 1.362 . S
C279 H269 0.930 . S
C279 C272 1.409 . S
C279 C278 1.362 . S
H280 C286 0.930 . S
H281 C289 0.930 . S
H282 C290 0.930 . S
H283 C291 0.930 . S
H284 C294 0.930 . S
H285 C295 0.930 . S
C286 H280 0.930 . S
C286 C287 1.355 . S
C286 C288 1.415 . S
C287 C286 1.355 . S
C287 C289 1.419 . S
C288 C286 1.415 . S
C288 C293 1.425 . S
C288 C295 1.409 . S
C289 H281 0.930 . S
C289 C287 1.419 . S
C289 C290 1.362 . S
C290 H282 0.930 . S
C290 C289 1.362 . S
C290 C293 1.409 . S
C291 H283 0.930 . S
C291 C292 1.355 . S
C291 C293 1.415 . S
C292 C291 1.355 . S
C292 C294 1.419 . S
C293 C288 1.425 . S
C293 C290 1.409 . S
C293 C291 1.415 . S
C294 H284 0.930 . S
C294 C292 1.419 . S
C294 C295 1.362 . S
C295 H285 0.930 . S
C295 C288 1.409 . S
C295 C294 1.362 . S
H296 C302 0.930 . S
H297 C305 0.930 . S
H298 C306 0.930 . S
H299 C307 0.930 . S
H300 C310 0.930 . S
H301 C311 0.930 . S
C302 H296 0.930 . S
C302 C303 1.355 . S
C302 C304 1.415 . S
C303 C302 1.355 . S
C303 C305 1.419 . S
C304 C302 1.415 . S
C304 C309 1.425 . S
C304 C311 1.409 . S
C305 H297 0.930 . S
C305 C303 1.419 . S
C305 C306 1.362 . S
C306 H298 0.930 . S
C306 C305 1.362 . S
C306 C309 1.409 . S
C307 H299 0.930 . S
C307 C308 1.355 . S
C307 C309 1.415 . S
C308 C307 1.355 . S
C308 C310 1.419 . S
C309 C304 1.425 . S
C309 C306 1.409 . S
C309 C307 1.415 . S
C310 H300 0.930 . S
C310 C308 1.419 . S
C310 C311 1.362 . S
C311 H301 0.930 . S
C311 C304 1.409 . S
C311 C310 1.362 . S
H312 C318 0.930 . S
H313 C321 0.930 . S
H314 C322 0.930 . S
H315 C323 0.930 . S
H316 C326 0.930 . S
H317 C327 0.930 . S
C318 H312 0.930 . S
C318 C319 1.355 1_655 S
C318 C320 1.415 . S
C319 C318 1.355 1_455 S
C319 C321 1.419 . S
C320 C318 1.415 . S
C320 C325 1.425 1_655 S
C320 C327 1.409 . S
C321 H313 0.930 . S
C321 C319 1.419 . S
C321 C322 1.362 . S
C322 H314 0.930 . S
C322 C321 1.362 . S
C322 C325 1.409 . S
C323 H315 0.930 . S
C323 C324 1.355 . S
C323 C325 1.415 . S
C324 C323 1.355 . S
C324 C326 1.419 1_455 S
C325 C320 1.425 1_455 S
C325 C322 1.409 . S
C325 C323 1.415 . S
C326 H316 0.930 . S
C326 C324 1.419 1_655 S
C326 C327 1.362 . S
C327 H317 0.930 . S
C327 C320 1.409 . S
C327 C326 1.362 . S
H328 C334 0.930 . S
H329 C337 0.930 . S
H330 C338 0.930 . S
H331 C339 0.930 1_556 S
H332 C342 0.930 . S
H333 C343 0.930 . S
C334 H328 0.930 . S
C334 C335 1.355 1_545 S
C334 C336 1.415 . S
C335 C334 1.355 1_565 S
C335 C337 1.419 . S
C336 C334 1.415 . S
C336 C341 1.425 1_545 S
C336 C343 1.409 . S
C337 H329 0.930 . S
C337 C335 1.419 . S
C337 C338 1.362 . S
C338 H330 0.930 . S
C338 C337 1.362 . S
C338 C341 1.409 . S
C339 H331 0.930 1_554 S
C339 C340 1.357 . S
C339 C341 1.415 . S
C340 C339 1.357 . S
C340 C342 1.417 1_565 S
C341 C336 1.425 1_565 S
C341 C338 1.409 . S
C341 C339 1.415 . S
C342 H332 0.930 . S
C342 C340 1.417 1_545 S
C342 C343 1.362 . S
C343 H333 0.930 . S
C343 C336 1.409 . S
C343 C342 1.362 . S
H344 C350 0.930 . S
H345 C353 0.930 . S
H346 C354 0.930 . S
H347 C355 0.930 . S
H348 C358 0.930 . S
H349 C359 0.930 . S
C350 H344 0.930 . S
C350 C351 1.355 . S
C350 C352 1.415 . S
C351 C350 1.355 . S
C351 C353 1.419 . S
C352 C350 1.415 . S
C352 C357 1.425 1_554 S
C352 C359 1.409 . S
C353 H345 0.930 . S
C353 C351 1.419 . S
C353 C354 1.362 1_554 S
C354 H346 0.930 . S
C354 C353 1.362 1_556 S
C354 C357 1.409 . S
C355 H347 0.930 . S
C355 C356 1.355 . S
C355 C357 1.415 . S
C356 C355 1.355 . S
C356 C358 1.419 1_556 S
C357 C352 1.425 1_556 S
C357 C354 1.409 . S
C357 C355 1.415 . S
C358 H348 0.930 . S
C358 C356 1.419 1_554 S
C358 C359 1.362 . S
C359 H349 0.930 . S
C359 C352 1.409 . S
C359 C358 1.362 . S
H360 C366 0.930 . S
H361 C369 0.930 . S
H362 C370 0.930 . S
H363 C371 0.930 . S
H364 C374 0.930 . S
H365 C375 0.930 . S
C366 H360 0.930 . S
C366 C367 1.355 . S
C366 C368 1.415 . S
C367 C366 1.355 . S
C367 C369 1.419 . S
C368 C366 1.415 . S
C368 C373 1.425 . S
C368 C375 1.409 . S
C369 H361 0.930 . S
C369 C367 1.419 . S
C369 C370 1.362 . S
C370 H362 0.930 . S
C370 C369 1.362 . S
C370 C373 1.409 . S
C371 H363 0.930 . S
C371 C372 1.355 . S
C371 C373 1.415 . S
C372 C371 1.355 . S
C372 C374 1.419 . S
C373 C368 1.425 . S
C373 C370 1.409 . S
C373 C371 1.415 . S
C374 H364 0.930 . S
C374 C372 1.419 . S
C374 C375 1.362 . S
C375 H365 0.930 . S
C375 C368 1.409 . S
C375 C374 1.362 . S
H376 C382 0.930 . S
H377 C385 0.930 . S
H378 C386 0.930 . S
H379 C387 0.930 . S
H380 C390 0.930 . S
H381 C391 0.930 . S
C382 H376 0.930 . S
C382 C383 1.355 1_455 S
C382 C384 1.415 . S
C383 C382 1.355 1_655 S
C383 C385 1.419 . S
C384 C382 1.415 . S
C384 C389 1.425 1_455 S
C384 C391 1.409 . S
C385 H377 0.930 . S
C385 C383 1.419 . S
C385 C386 1.362 . S
C386 H378 0.930 . S
C386 C385 1.362 . S
C386 C389 1.409 . S
C387 H379 0.930 . S
C387 C388 1.359 . S
C387 C389 1.415 . S
C388 C387 1.359 . S
C388 C390 1.411 1_655 S
C389 C384 1.425 1_655 S
C389 C386 1.409 . S
C389 C387 1.415 . S
C390 H380 0.930 . S
C390 C388 1.411 1_455 S
C390 C391 1.362 . S
C391 H381 0.930 . S
C391 C384 1.409 . S
C391 C390 1.362 . S
H392 C398 0.930 . S
H393 C401 0.930 . S
H394 C402 0.930 . S
H395 C403 0.930 . S
H396 C406 0.930 . S
H397 C407 0.930 . S
C398 H392 0.930 . S
C398 C399 1.355 . S
C398 C400 1.415 . S
C399 C398 1.355 . S
C399 C401 1.419 1_455 S
C400 C398 1.415 . S
C400 C405 1.425 1_455 S
C400 C407 1.409 . S
C401 H393 0.930 . S
C401 C399 1.419 1_655 S
C401 C402 1.362 . S
C402 H394 0.930 . S
C402 C401 1.362 . S
C402 C405 1.409 . S
C403 H395 0.930 . S
C403 C404 1.355 . S
C403 C405 1.415 . S
C404 C403 1.355 . S
C404 C406 1.419 1_655 S
C405 C400 1.425 1_655 S
C405 C402 1.409 . S
C405 C403 1.415 . S
C406 H396 0.930 . S
C406 C404 1.419 1_455 S
C406 C407 1.362 . S
C407 H397 0.930 . S
C407 C400 1.409 . S
C407 C406 1.362 . S
H408 C414 0.930 . S
H409 C417 0.930 . S
H410 C418 0.930 . S
H411 C419 0.930 . S
H412 C422 0.930 . S
H413 C423 0.930 . S
C414 H408 0.930 . S
C414 C415 1.355 1_565 S
C414 C416 1.415 . S
C415 C414 1.355 1_545 S
C415 C417 1.419 . S
C416 C414 1.415 . S
C416 C421 1.425 . S
C416 C423 1.409 . S
C417 H409 0.930 . S
C417 C415 1.419 . S
C417 C418 1.362 . S
C418 H410 0.930 . S
C418 C417 1.362 . S
C418 C421 1.409 1_545 S
C419 H411 0.930 . S
C419 C420 1.355 . S
C419 C421 1.415 . S
C420 C419 1.355 . S
C420 C422 1.419 . S
C421 C416 1.425 . S
C421 C418 1.409 1_565 S
C421 C419 1.415 . S
C422 H412 0.930 . S
C422 C420 1.419 . S
C422 C423 1.362 . S
C423 H413 0.930 . S
C423 C416 1.409 . S
C423 C422 1.362 . S
H424 C430 0.930 . S
H425 C433 0.930 . S
H426 C434 0.930 . S
H427 C435 0.930 . S
H428 C438 0.930 . S
H429 C439 0.930 . S
C430 H424 0.930 . S
C430 C431 1.355 . S
C430 C432 1.415 . S
C431 C430 1.355 . S
C431 C433 1.419 . S
C432 C430 1.415 . S
C432 C437 1.425 . S
C432 C439 1.409 . S
C433 H425 0.930 . S
C433 C431 1.419 . S
C433 C434 1.362 . S
C434 H426 0.930 . S
C434 C433 1.362 . S
C434 C437 1.409 . S
C435 H427 0.930 . S
C435 C436 1.355 . S
C435 C437 1.415 . S
C436 C435 1.355 . S
C436 C438 1.419 . S
C437 C432 1.425 . S
C437 C434 1.409 . S
C437 C435 1.415 . S
C438 H428 0.930 . S
C438 C436 1.419 . S
C438 C439 1.362 . S
C439 H429 0.930 . S
C439 C432 1.409 . S
C439 C438 1.362 . S
H440 C446 0.930 . S
H441 C449 0.930 1_556 S
H442 C450 0.930 . S
H443 C451 0.930 . S
H444 C454 0.930 . S
H445 C455 0.930 . S
C446 H440 0.930 . S
C446 C447 1.355 . S
C446 C448 1.415 . S
C447 C446 1.355 . S
C447 C449 1.419 . S
C448 C446 1.415 . S
C448 C453 1.425 . S
C448 C455 1.409 . S
C449 H441 0.930 1_554 S
C449 C447 1.419 . S
C449 C450 1.362 . S
C450 H442 0.930 . S
C450 C449 1.362 . S
C450 C453 1.409 . S
C451 H443 0.930 . S
C451 C452 1.355 . S
C451 C453 1.415 . S
C452 C451 1.355 . S
C452 C454 1.419 . S
C453 C448 1.425 . S
C453 C450 1.409 . S
C453 C451 1.415 . S
C454 H444 0.930 . S
C454 C452 1.419 . S
C454 C455 1.362 . S
C455 H445 0.930 . S
C455 C448 1.409 . S
C455 C454 1.362 . S
H456 C462 0.930 . S
H457 C465 0.930 . S
H458 C466 0.930 . S
H459 C467 0.930 . S
H460 C470 0.930 . S
H461 C471 0.930 . S
C462 H456 0.930 . S
C462 C463 1.355 1_455 S
C462 C464 1.415 . S
C463 C462 1.355 1_655 S
C463 C465 1.419 . S
C464 C462 1.415 . S
C464 C469 1.425 . S
C464 C471 1.409 . S
C465 H457 0.930 . S
C465 C463 1.419 . S
C465 C466 1.362 . S
C466 H458 0.930 . S
C466 C465 1.362 . S
C466 C469 1.409 1_655 S
C467 H459 0.930 . S
C467 C468 1.355 . S
C467 C469 1.415 . S
C468 C467 1.355 . S
C468 C470 1.419 . S
C469 C464 1.425 . S
C469 C466 1.409 1_455 S
C469 C467 1.415 . S
C470 H460 0.930 . S
C470 C468 1.419 . S
C470 C471 1.362 . S
C471 H461 0.930 . S
C471 C464 1.409 . S
C471 C470 1.362 . S
H472 C478 0.930 . S
H473 C481 0.930 . S
H474 C482 0.930 . S
H475 C483 0.930 1_565 S
H476 C486 0.930 . S
H477 C487 0.930 . S
C478 H472 0.930 . S
C478 C479 1.355 1_545 S
C478 C480 1.415 . S
C479 C478 1.355 1_565 S
C479 C481 1.419 . S
C480 C478 1.415 . S
C480 C485 1.425 . S
C480 C487 1.409 . S
C481 H473 0.930 . S
C481 C479 1.419 . S
C481 C482 1.362 . S
C482 H474 0.930 . S
C482 C481 1.362 . S
C482 C485 1.409 1_565 S
C483 H475 0.930 1_545 S
C483 C484 1.355 . S
C483 C485 1.415 . S
C484 C483 1.355 . S
C484 C486 1.419 . S
C485 C480 1.425 . S
C485 C482 1.409 1_545 S
C485 C483 1.415 . S
C486 H476 0.930 . S
C486 C484 1.419 . S
C486 C487 1.362 . S
C487 H477 0.930 . S
C487 C480 1.409 . S
C487 C486 1.362 . S
H488 C494 0.930 . S
H489 C497 0.930 . S
H490 C498 0.930 . S
H491 C499 0.930 . S
H492 C502 0.930 . S
H493 C503 0.930 . S
C494 H488 0.930 . S
C494 C495 1.355 . S
C494 C496 1.415 . S
C495 C494 1.355 . S
C495 C497 1.419 . S
C496 C494 1.415 . S
C496 C501 1.425 . S
C496 C503 1.409 . S
C497 H489 0.930 . S
C497 C495 1.419 . S
C497 C498 1.362 . S
C498 H490 0.930 . S
C498 C497 1.362 . S
C498 C501 1.409 . S
C499 H491 0.930 . S
C499 C500 1.355 . S
C499 C501 1.415 . S
C500 C499 1.355 . S
C500 C502 1.419 . S
C501 C496 1.425 . S
C501 C498 1.409 . S
C501 C499 1.415 . S
C502 H492 0.930 . S
C502 C500 1.419 . S
C502 C503 1.362 . S
C503 H493 0.930 . S
C503 C496 1.409 . S
C503 C502 1.362 . S
H504 C510 0.930 . S
H505 C513 0.930 . S
H506 C514 0.930 . S
H507 C515 0.930 . S
H508 C518 0.930 . S
H509 C519 0.930 . S
C510 H504 0.930 . S
C510 C511 1.355 . S
C510 C512 1.415 . S
C511 C510 1.355 . S
C511 C513 1.419 . S
C512 C510 1.415 . S
C512 C517 1.425 . S
C512 C519 1.409 . S
C513 H505 0.930 . S
C513 C511 1.419 . S
C513 C514 1.362 . S
C514 H506 0.930 . S
C514 C513 1.362 . S
C514 C517 1.409 . S
C515 H507 0.930 . S
C515 C516 1.355 . S
C515 C517 1.415 . S
C516 C515 1.355 . S
C516 C518 1.419 . S
C517 C512 1.425 . S
C517 C514 1.409 . S
C517 C515 1.415 . S
C518 H508 0.930 . S
C518 C516 1.419 . S
C518 C519 1.362 . S
C519 H509 0.930 . S
C519 C512 1.409 . S
C519 C518 1.362 . S
H520 C526 0.930 . S
H521 C529 0.930 . S
H522 C530 0.930 . S
H523 C531 0.930 . S
H524 C534 0.930 . S
H525 C535 0.930 . S
C526 H520 0.930 . S
C526 C527 1.355 1_654 S
C526 C528 1.415 1_554 S
C527 C526 1.355 1_456 S
C527 C529 1.419 . S
C528 C526 1.415 1_556 S
C528 C533 1.425 1_655 S
C528 C535 1.409 1_556 S
C529 H521 0.930 . S
C529 C527 1.419 . S
C529 C530 1.362 . S
C530 H522 0.930 . S
C530 C529 1.362 . S
C530 C533 1.409 . S
C531 H523 0.930 . S
C531 C532 1.355 . S
C531 C533 1.415 . S
C532 C531 1.355 . S
C532 C534 1.419 1_456 S
C533 C528 1.425 1_455 S
C533 C530 1.409 . S
C533 C531 1.415 . S
C534 H524 0.930 . S
C534 C532 1.419 1_654 S
C534 C535 1.362 . S
C535 H525 0.930 . S
C535 C528 1.409 1_554 S
C535 C534 1.362 . S
H536 C542 0.930 1_556 S
H537 C545 0.930 . S
H538 C546 0.930 . S
H539 C547 0.930 . S
H540 C550 0.930 . S
H541 C551 0.930 . S
C542 H536 0.930 1_554 S
C542 C543 1.355 1_565 S
C542 C544 1.415 1_554 S
C543 C542 1.355 1_545 S
C543 C545 1.419 . S
C544 C542 1.415 1_556 S
C544 C549 1.425 1_566 S
C544 C551 1.409 . S
C545 H537 0.930 . S
C545 C543 1.419 . S
C545 C546 1.362 . S
C546 H538 0.930 . S
C546 C545 1.362 . S
C546 C549 1.409 . S
C547 H539 0.930 . S
C547 C548 1.355 1_554 S
C547 C549 1.415 . S
C548 C547 1.355 1_556 S
C548 C550 1.419 1_545 S
C549 C544 1.425 1_544 S
C549 C546 1.409 . S
C549 C547 1.415 . S
C550 H540 0.930 . S
C550 C548 1.419 1_565 S
C550 C551 1.362 . S
C551 H541 0.930 . S
C551 C544 1.409 . S
C551 C550 1.362 . S
H552 C558 0.930 . S
H553 C561 0.930 . S
H554 C562 0.930 . S
H555 C563 0.930 . S
H556 C566 0.930 . S
H557 C567 0.926 1_556 S
C558 H552 0.930 . S
C558 C559 1.355 . S
C558 C560 1.415 . S
C559 C558 1.355 . S
C559 C561 1.419 . S
C560 C558 1.415 . S
C560 C565 1.425 . S
C560 C567 1.409 . S
C561 H553 0.930 . S
C561 C559 1.419 . S
C561 C562 1.362 . S
C562 H554 0.930 . S
C562 C561 1.362 . S
C562 C565 1.409 . S
C563 H555 0.930 . S
C563 C564 1.355 . S
C563 C565 1.415 . S
C564 C563 1.355 . S
C564 C566 1.419 1_554 S
C565 C560 1.425 . S
C565 C562 1.409 . S
C565 C563 1.415 . S
C566 H556 0.930 . S
C566 C564 1.419 1_556 S
C566 C567 1.362 1_556 S
C567 H557 0.926 1_554 S
C567 C560 1.409 . S
C567 C566 1.362 1_554 S
H568 C574 0.930 . S
H569 C577 0.930 . S
H570 C578 0.930 . S
H571 C579 0.930 . S
H572 C582 0.930 1_554 S
H573 C583 0.930 1_554 S
C574 H568 0.930 . S
C574 C575 1.355 . S
C574 C576 1.415 . S
C575 C574 1.355 . S
C575 C577 1.419 . S
C576 C574 1.415 . S
C576 C581 1.425 . S
C576 C583 1.409 . S
C577 H569 0.930 . S
C577 C575 1.419 . S
C577 C578 1.362 . S
C578 H570 0.930 . S
C578 C577 1.362 . S
C578 C581 1.409 . S
C579 H571 0.930 . S
C579 C580 1.355 . S
C579 C581 1.415 . S
C580 C579 1.355 . S
C580 C582 1.419 . S
C581 C576 1.425 . S
C581 C578 1.409 . S
C581 C579 1.415 . S
C582 H572 0.930 1_556 S
C582 C580 1.419 . S
C582 C583 1.362 . S
C583 H573 0.930 1_556 S
C583 C576 1.409 . S
C583 C582 1.362 . S
H584 C590 0.930 . S
H585 C593 0.930 . S
H586 C594 0.930 . S
H587 C595 0.930 . S
H588 C598 0.930 . S
H589 C599 0.930 . S
C590 H584 0.930 . S
C590 C591 1.355 1_455 S
C590 C592 1.415 . S
C591 C590 1.355 1_655 S
C591 C593 1.419 . S
C592 C590 1.415 . S
C592 C597 1.425 1_455 S
C592 C599 1.409 . S
C593 H585 0.930 . S
C593 C591 1.419 . S
C593 C594 1.362 . S
C594 H586 0.930 . S
C594 C593 1.362 . S
C594 C597 1.409 . S
C595 H587 0.930 . S
C595 C596 1.355 . S
C595 C597 1.415 . S
C596 C595 1.355 . S
C596 C598 1.419 1_655 S
C597 C592 1.425 1_655 S
C597 C594 1.409 . S
C597 C595 1.415 . S
C598 H588 0.930 . S
C598 C596 1.419 1_455 S
C598 C599 1.362 . S
C599 H589 0.930 . S
C599 C592 1.409 . S
C599 C598 1.362 . S
H600 C606 0.930 . S
H601 C609 0.930 . S
H602 C610 0.930 . S
H603 C611 0.927 1_545 S
H604 C614 0.930 . S
H605 C615 0.930 . S
C606 H600 0.930 . S
C606 C607 1.355 . S
C606 C608 1.415 . S
C607 C606 1.355 . S
C607 C609 1.419 1_565 S
C608 C606 1.415 . S
C608 C613 1.436 . S
C608 C615 1.409 . S
C609 H601 0.930 . S
C609 C607 1.419 1_545 S
C609 C610 1.362 . S
C610 H602 0.930 . S
C610 C609 1.362 . S
C610 C613 1.397 1_545 S
C611 H603 0.927 1_565 S
C611 C612 1.358 . S
C611 C613 1.417 . S
C612 C611 1.358 . S
C612 C614 1.419 . S
C613 C608 1.436 . S
C613 C610 1.397 1_565 S
C613 C611 1.417 . S
C614 H604 0.930 . S
C614 C612 1.419 . S
C614 C615 1.362 . S
C615 H605 0.930 . S
C615 C608 1.409 . S
C615 C614 1.362 . S
H616 C622 0.930 . S
H617 C625 0.930 . S
H618 C626 0.930 . S
H619 C627 0.930 . S
H620 C630 0.930 . S
H621 C631 0.930 . S
C622 H616 0.930 . S
C622 C623 1.355 . S
C622 C624 1.415 . S
C623 C622 1.355 . S
C623 C625 1.419 . S
C624 C622 1.415 . S
C624 C629 1.425 . S
C624 C631 1.409 . S
C625 H617 0.930 . S
C625 C623 1.419 . S
C625 C626 1.362 . S
C626 H618 0.930 . S
C626 C625 1.362 . S
C626 C629 1.409 . S
C627 H619 0.930 . S
C627 C628 1.355 . S
C627 C629 1.415 . S
C628 C627 1.355 . S
C628 C630 1.419 . S
C629 C624 1.425 . S
C629 C626 1.409 . S
C629 C627 1.415 . S
C630 H620 0.930 . S
C630 C628 1.419 . S
C630 C631 1.362 . S
C631 H621 0.930 . S
C631 C624 1.409 . S
C631 C630 1.362 . S
H632 C638 0.930 . S
H633 C641 0.930 . S
H634 C642 0.930 . S
H635 C643 0.930 . S
H636 C646 0.930 . S
H637 C647 0.930 . S
C638 H632 0.930 . S
C638 C639 1.355 . S
C638 C640 1.415 . S
C639 C638 1.355 . S
C639 C641 1.419 . S
C640 C638 1.415 . S
C640 C645 1.425 . S
C640 C647 1.409 . S
C641 H633 0.930 . S
C641 C639 1.419 . S
C641 C642 1.362 . S
C642 H634 0.930 . S
C642 C641 1.362 . S
C642 C645 1.409 . S
C643 H635 0.930 . S
C643 C644 1.355 . S
C643 C645 1.415 . S
C644 C643 1.355 . S
C644 C646 1.419 . S
C645 C640 1.425 . S
C645 C642 1.409 . S
C645 C643 1.415 . S
C646 H636 0.930 . S
C646 C644 1.419 . S
C646 C647 1.362 . S
C647 H637 0.930 . S
C647 C640 1.409 . S
C647 C646 1.362 . S
C271 C82 1.854 . S
C276 C106 2.104 1_545 S
C292 C146 2.032 . S
C287 C95 1.878 . S
C308 C210 1.905 . S
C303 C56 1.613 . S
C324 C226 1.745 1_455 S
C319 C69 1.408 . S
C340 C127 2.099 1_564 S
C335 C30 1.860 1_565 S
C351 C43 1.829 . S
C356 C167 2.051 . S
C367 C4 1.669 . S
C372 C201 1.973 . S
C383 C17 1.345 1_655 S
C388 C247 1.736 1_654 S
C404 C121 0.453 . S
C399 C74 0.497 . S
C420 C161 0.832 . S
C415 C87 0.782 . S
C436 C197 0.886 . S
C431 C100 0.879 . S
C447 C61 0.661 . S
C452 C241 0.676 . S
C463 C22 0.602 . S
C468 C130 0.614 . S
C484 C170 0.815 . S
C479 C35 0.764 1_565 S
C500 C208 0.879 1_554 S
C495 C48 0.883 . S
C511 C9 0.760 . S
C516 C250 0.797 . S
C527 C73 1.849 1_556 S
C532 C128 2.058 . S
C543 C86 1.902 . S
C548 C168 2.100 . S
C564 C186 1.663 1_554 S
C559 C99 1.633 . S
C580 C248 2.480 . S
C575 C60 2.244 . S
C591 C21 1.833 . S
C596 C117 2.063 . S
C612 C157 2.108 . S
C607 C34 1.886 1_565 S
C628 C207 1.655 . S
C623 C47 1.635 . S
C639 C8 2.174 . S
C644 C237 2.494 . S
