# Generated by pormake.
# Topology zzz, (3,6)-cn, num edge types: 1
# Building blocks:
#     Node 0, Type 0, BuildingBlock: PAMTOO_clean_linker_0, # of connection points: 3
#     Node 1, Type 0, BuildingBlock: PAMTOO_clean_linker_0, # of connection points: 3
#     Node 2, Type 0, BuildingBlock: PAMTOO_clean_linker_0, # of connection points: 3
#     Node 3, Type 0, BuildingBlock: PAMTOO_clean_linker_0, # of connection points: 3
#     Node 4, Type 0, BuildingBlock: PAMTOO_clean_linker_0, # of connection points: 3
#     Node 5, Type 0, BuildingBlock: PAMTOO_clean_linker_0, # of connection points: 3
#     Node 6, Type 0, BuildingBlock: PAMTOO_clean_linker_0, # of connection points: 3
#     Node 7, Type 0, BuildingBlock: PAMTOO_clean_linker_0, # of connection points: 3
#     Node 8, Type 1, BuildingBlock: CIFDUS_clean_sbu_1, # of connection points: 6
#     Node 9, Type 1, BuildingBlock: CIFDUS_clean_sbu_1, # of connection points: 6
#     Node 10, Type 1, BuildingBlock: CIFDUS_clean_sbu_1, # of connection points: 6
#     Node 11, Type 1, BuildingBlock: CIFDUS_clean_sbu_1, # of connection points: 6
#     Edge 12, Type (0, 1), BuildingBlock: XUDNAN_clean_linker_2, # of connection points: 2
#     Edge 13, Type (0, 1), BuildingBlock: XUDNAN_clean_linker_2, # of connection points: 2
#     Edge 14, Type (0, 1), BuildingBlock: XUDNAN_clean_linker_2, # of connection points: 2
#     Edge 15, Type (0, 1), BuildingBlock: XUDNAN_clean_linker_2, # of connection points: 2
#     Edge 16, Type (0, 1), BuildingBlock: XUDNAN_clean_linker_2, # of connection points: 2
#     Edge 17, Type (0, 1), BuildingBlock: XUDNAN_clean_linker_2, # of connection points: 2
#     Edge 18, Type (0, 1), BuildingBlock: XUDNAN_clean_linker_2, # of connection points: 2
#     Edge 19, Type (0, 1), BuildingBlock: XUDNAN_clean_linker_2, # of connection points: 2
#     Edge 20, Type (0, 1), BuildingBlock: XUDNAN_clean_linker_2, # of connection points: 2
#     Edge 21, Type (0, 1), BuildingBlock: XUDNAN_clean_linker_2, # of connection points: 2
#     Edge 22, Type (0, 1), BuildingBlock: XUDNAN_clean_linker_2, # of connection points: 2
#     Edge 23, Type (0, 1), BuildingBlock: XUDNAN_clean_linker_2, # of connection points: 2
#     Edge 24, Type (0, 1), BuildingBlock: XUDNAN_clean_linker_2, # of connection points: 2
#     Edge 25, Type (0, 1), BuildingBlock: XUDNAN_clean_linker_2, # of connection points: 2
#     Edge 26, Type (0, 1), BuildingBlock: XUDNAN_clean_linker_2, # of connection points: 2
#     Edge 27, Type (0, 1), BuildingBlock: XUDNAN_clean_linker_2, # of connection points: 2
#     Edge 28, Type (0, 1), BuildingBlock: XUDNAN_clean_linker_2, # of connection points: 2
#     Edge 29, Type (0, 1), BuildingBlock: XUDNAN_clean_linker_2, # of connection points: 2
#     Edge 30, Type (0, 1), BuildingBlock: XUDNAN_clean_linker_2, # of connection points: 2
#     Edge 31, Type (0, 1), BuildingBlock: XUDNAN_clean_linker_2, # of connection points: 2
#     Edge 32, Type (0, 1), BuildingBlock: XUDNAN_clean_linker_2, # of connection points: 2
#     Edge 33, Type (0, 1), BuildingBlock: XUDNAN_clean_linker_2, # of connection points: 2
#     Edge 34, Type (0, 1), BuildingBlock: XUDNAN_clean_linker_2, # of connection points: 2
#     Edge 35, Type (0, 1), BuildingBlock: XUDNAN_clean_linker_2, # of connection points: 2
# Relax obj value: 0.138
# Max RMSD: 0.185
# Mean RMSD: 0.105
data_MOF--net-zzz--node1-CIFDUS_clean_sbu_1--node2-PAMTOO_clean_linker_0--edge1-XUDNAN_clean_linker_2
_symmetry_space_group_name_H-M    P1
_symmetry_Int_Tables_number       1
_symmetry_cell_setting            triclinic
loop_
_symmetry_equiv_pos_as_xyz
'x, y, z'
_cell_length_a     49.833745
_cell_length_b     49.971534
_cell_length_c     15.770052
_cell_angle_alpha  89.871867
_cell_angle_beta   90.193988
_cell_angle_gamma 89.913747
loop_
_atom_site_label
_atom_site_type_symbol
_atom_site_fract_x
_atom_site_fract_y
_atom_site_fract_z
_atom_type_partial_charge
H0 H 0.85459 0.56264 0.17652 0.0
H1 H 0.78295 0.56148 0.02672 0.0
H2 H 0.77776 0.57391 0.29654 0.0
H3 H 0.72477 0.54491 0.21014 0.0
C4 C 0.73314 0.5486 0.14596 0.0
O5 O 0.74981 0.57091 0.15034 0.0
H6 H 0.74494 0.53054 0.128 0.0
C7 C 0.83311 0.56601 0.17286 0.0
C8 C 0.8184 0.56974 0.24742 0.0
C9 C 0.82057 0.56272 0.09424 0.0
C10 C 0.79267 0.5647 0.08742 0.0
C11 C 0.77704 0.56921 0.15967 0.0
C12 C 0.78988 0.57132 0.24033 0.0
H13 H 0.95502 0.84775 0.15597 0.0
H14 H 0.95754 0.77065 0.04169 0.0
H15 H 0.98925 0.78126 0.29345 0.0
H16 H 0.00952 0.7244 0.19187 0.0
C17 C 0.99651 0.73178 0.13945 0.0
O18 O 0.97458 0.74488 0.17496 0.0
H19 H 0.00898 0.74595 0.10181 0.0
C20 C 0.95918 0.8265 0.16161 0.0
C21 C 0.97347 0.81722 0.23285 0.0
C22 C 0.9572 0.81078 0.08882 0.0
C23 C 0.96033 0.78309 0.09684 0.0
C24 C 0.97077 0.77193 0.17164 0.0
C25 C 0.97857 0.78927 0.23913 0.0
H26 H 0.6872 0.97281 0.18554 0.0
H27 H 0.75862 0.97192 0.0343 0.0
H28 H 0.76434 0.9645 0.30615 0.0
H29 H 0.81974 0.98645 0.22225 0.0
C30 C 0.80966 0.98554 0.15943 0.0
O31 O 0.79198 0.96401 0.15966 0.0
H32 H 0.79832 0.00462 0.15137 0.0
C33 C 0.70873 0.96981 0.18126 0.0
C34 C 0.72371 0.96758 0.25595 0.0
C35 C 0.72105 0.97196 0.1019 0.0
C36 C 0.74902 0.97003 0.09557 0.0
C37 C 0.76481 0.96656 0.16851 0.0
C38 C 0.75216 0.96591 0.24934 0.0
H39 H 0.58555 0.68766 0.22868 0.0
H40 H 0.58188 0.75114 0.04589 0.0
H41 H 0.55357 0.76435 0.29937 0.0
H42 H 0.52952 0.80622 0.15919 0.0
C43 C 0.5429 0.79689 0.11134 0.0
O44 O 0.566 0.78795 0.15182 0.0
H45 H 0.53153 0.77982 0.08352 0.0
C46 C 0.58271 0.70882 0.21511 0.0
C47 C 0.56986 0.72475 0.27525 0.0
C48 C 0.58511 0.7175 0.13124 0.0
C49 C 0.58023 0.74436 0.11099 0.0
C50 C 0.57043 0.76189 0.17291 0.0
C51 C 0.56392 0.75172 0.25431 0.0
H52 H 0.18775 0.46627 0.28108 0.0
H53 H 0.26228 0.46748 0.41774 0.0
H54 H 0.26234 0.468 0.14434 0.0
H55 H 0.29637 0.50581 0.30318 0.0
C56 C 0.30901 0.48787 0.29015 0.0
O57 O 0.29307 0.4651 0.28507 0.0
H58 H 0.31859 0.49108 0.22748 0.0
C59 C 0.20952 0.46564 0.28062 0.0
C60 C 0.2229 0.46758 0.20297 0.0
C61 C 0.22332 0.46661 0.35785 0.0
C62 C 0.25143 0.46623 0.35822 0.0
C63 C 0.2657 0.46578 0.28176 0.0
C64 C 0.2514 0.46682 0.20342 0.0
H65 H 0.08854 0.18886 0.20044 0.0
H66 H 0.07307 0.24927 0.38656 0.0
H67 H 0.05366 0.26402 0.1254 0.0
H68 H 0.088 0.31114 0.2188 0.0
C69 C 0.08016 0.30685 0.28338 0.0
O70 O 0.06068 0.2871 0.27711 0.0
H71 H 0.09729 0.29943 0.3224 0.0
C72 C 0.08335 0.20949 0.21488 0.0
C73 C 0.07087 0.22492 0.15238 0.0
C74 C 0.08109 0.21674 0.30005 0.0
C75 C 0.0744 0.24323 0.32076 0.0
C76 C 0.06699 0.26135 0.25635 0.0
C77 C 0.0634 0.25156 0.17262 0.0
H78 H 0.35018 0.06793 0.26854 0.0
H79 H 0.27684 0.06769 0.41044 0.0
H80 H 0.2745 0.06482 0.1371 0.0
H81 H 0.24282 0.03009 0.33616 0.0
C82 C 0.2303 0.04427 0.29835 0.0
O83 O 0.24473 0.06742 0.28023 0.0
H84 H 0.22565 0.03397 0.23767 0.0
C85 C 0.32841 0.06884 0.26988 0.0
C86 C 0.31438 0.06686 0.19336 0.0
C87 C 0.31526 0.06825 0.34798 0.0
C88 C 0.28714 0.06857 0.35008 0.0
C89 C 0.27212 0.06786 0.27468 0.0
C90 C 0.28584 0.06663 0.19547 0.0
H91 H 0.48301 0.34522 0.2402 0.0
H92 H 0.48919 0.27146 0.37878 0.0
H93 H 0.47444 0.2704 0.10843 0.0
H94 H 0.44741 0.22072 0.21291 0.0
C95 C 0.45934 0.22521 0.27083 0.0
O96 O 0.48157 0.24023 0.24784 0.0
H97 H 0.44607 0.23687 0.31389 0.0
C98 C 0.48244 0.32347 0.24082 0.0
C99 C 0.47808 0.30978 0.16519 0.0
C100 C 0.4865 0.30996 0.31722 0.0
C101 C 0.48596 0.28198 0.31945 0.0
C102 C 0.48137 0.26747 0.24446 0.0
C103 C 0.47761 0.28144 0.16659 0.0
O104 O 0.03046 0.04378 0.82495 0.0
Mn105 Mn 0.02407 0.01282 0.73459 0.0
O106 O 0.99948 0.07399 0.78157 0.0
Mn107 Mn 0.98244 0.05279 0.70154 0.0
O108 O 0.01781 0.98264 0.64412 0.0
O109 O 0.0645 0.00597 0.72029 0.0
Mn110 Mn 0.07027 0.97258 0.75203 0.0
O111 O 0.01824 0.98311 0.82776 0.0
O112 O 0.04967 0.95184 0.67643 0.0
O113 O 0.03225 0.04088 0.64266 0.0
O114 O 0.99497 0.05763 0.59241 0.0
O115 O 0.10314 0.98576 0.71915 0.0
O116 O 0.05955 0.9716 0.86334 0.0
C117 C 0.95647 0.02413 0.75227 0.0
C118 C 0.0189 0.06702 0.82993 0.0
C119 C 0.0289 0.95942 0.6345 0.0
C120 C 0.08974 0.00697 0.69832 0.0
C121 C 0.03449 0.96912 0.87317 0.0
C122 C 0.02013 0.05537 0.58877 0.0
O123 O 0.9826 0.0197 0.74561 0.0
O124 O 0.94751 0.04598 0.71767 0.0
O125 O 0.54808 0.02033 0.81709 0.0
Mn126 Mn 0.52014 0.01649 0.7186 0.0
O127 O 0.5521 0.06295 0.83875 0.0
Mn128 Mn 0.55088 0.06422 0.72278 0.0
O129 O 0.49163 0.01074 0.62183 0.0
O130 O 0.52118 0.97562 0.75757 0.0
Mn131 Mn 0.48567 0.97277 0.76868 0.0
O132 O 0.48785 0.02834 0.80103 0.0
O133 O 0.46746 0.97623 0.6686 0.0
O134 O 0.55382 0.00822 0.63773 0.0
O135 O 0.57746 0.0452 0.66744 0.0
O136 O 0.49542 0.93996 0.79446 0.0
O137 O 0.47104 0.99149 0.857 0.0
C138 C 0.52141 0.08238 0.65396 0.0
C139 C 0.55728 0.03946 0.86167 0.0
C140 C 0.47162 0.99467 0.61512 0.0
C141 C 0.519 0.95015 0.78198 0.0
C142 C 0.4716 0.01667 0.85274 0.0
C143 C 0.57571 0.02227 0.63241 0.0
O144 O 0.51929 0.05675 0.67564 0.0
O145 O 0.54219 0.09575 0.67959 0.0
O146 O 0.52811 0.54266 0.82302 0.0
Mn147 Mn 0.52049 0.51809 0.71983 0.0
O148 O 0.49048 0.56161 0.86535 0.0
Mn149 Mn 0.47774 0.55869 0.75577 0.0
O150 O 0.51375 0.49258 0.61701 0.0
O151 O 0.56125 0.51017 0.73055 0.0
Mn152 Mn 0.56435 0.4771 0.69165 0.0
O153 O 0.51262 0.48498 0.79904 0.0
O154 O 0.55343 0.47656 0.58025 0.0
O155 O 0.52748 0.55143 0.63851 0.0
O156 O 0.4949 0.58041 0.67743 0.0
O157 O 0.59841 0.48664 0.72042 0.0
O158 O 0.54464 0.45508 0.76441 0.0
C159 C 0.45348 0.52863 0.70173 0.0
C160 C 0.51529 0.55717 0.8756 0.0
C161 C 0.52838 0.47834 0.56792 0.0
C162 C 0.58714 0.50854 0.746 0.0
C163 C 0.52338 0.46148 0.80496 0.0
C164 C 0.51518 0.57423 0.63209 0.0
O165 O 0.47956 0.52589 0.71243 0.0
O166 O 0.44311 0.55007 0.73432 0.0
O167 O 0.05322 0.50658 0.79224 0.0
Mn168 Mn 0.02022 0.51831 0.71472 0.0
O169 O 0.0783 0.54347 0.8091 0.0
Mn170 Mn 0.05702 0.56484 0.73982 0.0
O171 O 0.98624 0.52892 0.63861 0.0
O172 O 0.01815 0.47817 0.6714 0.0
Mn173 Mn 0.98638 0.47261 0.72024 0.0
O174 O 0.99399 0.51556 0.81691 0.0
O175 O 0.96009 0.4938 0.66977 0.0
O176 O 0.04769 0.52259 0.61473 0.0
O177 O 0.06444 0.56352 0.6263 0.0
O178 O 0.99258 0.4409 0.67428 0.0
O179 O 0.9873 0.47313 0.83642 0.0
C180 C 0.0225 0.58271 0.78599 0.0
C181 C 0.074 0.51873 0.82244 0.0
C182 C 0.96325 0.51681 0.63606 0.0
C183 C 0.01424 0.45282 0.64913 0.0
C184 C 0.98471 0.4967 0.86242 0.0
C185 C 0.06352 0.54115 0.5891 0.0
O186 O 0.02259 0.55788 0.75744 0.0
O187 O 0.04487 0.59583 0.78202 0.0
H188 H 0.223 0.05015 0.47209 0.0
H189 H 0.17866 0.04847 0.23578 0.0
H190 H 0.13595 0.04747 0.31546 0.0
H191 H 0.18592 0.00487 0.58042 0.0
H192 H 0.18667 0.02123 0.6822 0.0
H193 H 0.21298 0.02728 0.60713 0.0
H194 H 0.20366 0.07823 0.61529 0.0
H195 H 0.17712 0.07222 0.69044 0.0
H196 H 0.17031 0.09066 0.59441 0.0
H197 H 0.09815 0.03878 0.42209 0.0
H198 H 0.07076 0.02195 0.54139 0.0
H199 H 0.13901 0.03002 0.70929 0.0
C200 C 0.20424 0.05059 0.43727 0.0
C201 C 0.20429 0.04959 0.34736 0.0
C202 C 0.17925 0.04954 0.30434 0.0
C203 C 0.15481 0.04895 0.34932 0.0
C204 C 0.15544 0.04888 0.43797 0.0
C205 C 0.17959 0.0501 0.48146 0.0
C206 C 0.17499 0.04739 0.57645 0.0
C207 C 0.19108 0.02378 0.61366 0.0
C208 C 0.18194 0.07368 0.62183 0.0
C209 C 0.14489 0.04226 0.57923 0.0
C210 C 0.13374 0.04411 0.49906 0.0
C211 C 0.10662 0.03805 0.48532 0.0
C212 C 0.09094 0.02889 0.55406 0.0
C213 C 0.10225 0.02576 0.63601 0.0
C214 C 0.12944 0.03326 0.64837 0.0
H215 H 0.47643 0.21837 0.43647 0.0
H216 H 0.45998 0.17378 0.20702 0.0
H217 H 0.46943 0.13133 0.28326 0.0
H218 H 0.53118 0.17625 0.50938 0.0
H219 H 0.52241 0.17974 0.61959 0.0
H220 H 0.51441 0.20607 0.54564 0.0
H221 H 0.46455 0.20337 0.5911 0.0
H222 H 0.47238 0.17662 0.66385 0.0
H223 H 0.44702 0.17192 0.58348 0.0
H224 H 0.4831 0.09338 0.3857 0.0
H225 H 0.50061 0.06457 0.50202 0.0
H226 H 0.50547 0.13394 0.66504 0.0
C227 C 0.47498 0.19965 0.40232 0.0
C228 C 0.4674 0.1994 0.31579 0.0
C229 C 0.46577 0.17448 0.27322 0.0
C230 C 0.47096 0.15024 0.31622 0.0
C231 C 0.47782 0.15112 0.40209 0.0
C232 C 0.48 0.17527 0.44441 0.0
C233 C 0.48831 0.1709 0.536 0.0
C234 C 0.5157 0.18401 0.55367 0.0
C235 C 0.46677 0.18132 0.59719 0.0
C236 C 0.49024 0.14058 0.53902 0.0
C237 C 0.48426 0.12941 0.46125 0.0
C238 C 0.48693 0.10185 0.44763 0.0
C239 C 0.4965 0.08547 0.51444 0.0
C240 C 0.5033 0.0967 0.59387 0.0
C241 C 0.49946 0.12454 0.60612 0.0
H242 H 0.33886 0.52904 0.35106 0.0
H243 H 0.33031 0.44327 0.37872 0.0
H244 H 0.36808 0.44288 0.48223 0.0
H245 H 0.41062 0.53102 0.36045 0.0
H246 H 0.41155 0.56203 0.41856 0.0
H247 H 0.38383 0.55504 0.34853 0.0
H248 H 0.35035 0.56218 0.4719 0.0
H249 H 0.37794 0.56953 0.54195 0.0
H250 H 0.35456 0.54338 0.56873 0.0
H251 H 0.40776 0.45356 0.59047 0.0
H252 H 0.44215 0.47394 0.68601 0.0
H253 H 0.42479 0.55163 0.57711 0.0
C254 C 0.34477 0.51015 0.37939 0.0
C255 C 0.33115 0.48631 0.35766 0.0
C256 C 0.33998 0.46194 0.39508 0.0
C257 C 0.36158 0.46154 0.45386 0.0
C258 C 0.37451 0.4856 0.47401 0.0
C259 C 0.36624 0.50942 0.4373 0.0
C260 C 0.38299 0.53271 0.46828 0.0
C261 C 0.39814 0.54597 0.39455 0.0
C262 C 0.36542 0.55315 0.51553 0.0
C263 C 0.40211 0.51852 0.52829 0.0
C264 C 0.39712 0.49135 0.53171 0.0
C265 C 0.41189 0.47478 0.58688 0.0
C266 C 0.43167 0.4864 0.64039 0.0
C267 C 0.43681 0.51424 0.63738 0.0
C268 C 0.42185 0.53016 0.57972 0.0
H269 H 0.05839 0.31404 0.44397 0.0
H270 H 0.08029 0.3579 0.21735 0.0
H271 H 0.06965 0.40055 0.28918 0.0
H272 H 1.0024 0.35776 0.5032 0.0
H273 H 0.00902 0.35446 0.61515 0.0
H274 H 0.01772 0.32767 0.54415 0.0
H275 H 0.06665 0.3293 0.59989 0.0
H276 H 0.05818 0.35653 0.66959 0.0
H277 H 0.08509 0.36028 0.59441 0.0
H278 H 0.05567 0.43911 0.38715 0.0
H279 H 0.03782 0.46899 0.49946 0.0
H280 H 0.02664 0.40019 0.66271 0.0
C281 C 0.06046 0.33261 0.40912 0.0
C282 C 0.0698 0.3325 0.32438 0.0
C283 C 0.07277 0.35735 0.28167 0.0
C284 C 0.06696 0.38175 0.32226 0.0
C285 C 0.05821 0.38122 0.40618 0.0
C286 C 0.05471 0.35723 0.44882 0.0
C287 C 0.0448 0.36215 0.5384 0.0
C288 C 0.01683 0.34978 0.55094 0.0
C289 C 0.06489 0.35142 0.60445 0.0
C290 C 0.04357 0.39255 0.53979 0.0
C291 C 0.05133 0.40329 0.46302 0.0
C292 C 0.05026 0.43094 0.4483 0.0
C293 C 0.04049 0.4479 0.51288 0.0
C294 C 0.0318 0.43718 0.59113 0.0
C295 C 0.03393 0.40916 0.60458 0.0
H296 H 0.83339 0.02688 0.07405 0.0
H297 H 0.83686 0.94061 0.09581 0.0
H298 H 0.87547 0.93982 0.99599 0.0
H299 H 0.85051 0.03192 0.85169 0.0
H300 H 0.87001 0.06188 0.86704 0.0
H301 H 0.84233 0.05464 0.93642 0.0
H302 H 0.87419 0.05824 0.06617 0.0
H303 H 0.90204 0.06513 0.99711 0.0
H304 H 0.90385 0.03758 0.07089 0.0
H305 H 0.91508 0.95013 0.88937 0.0
H306 H 0.95036 0.96962 0.79412 0.0
H307 H 0.91972 0.04873 0.85045 0.0
C308 C 0.84187 0.00772 0.05654 0.0
C309 C 0.83137 0.98374 0.09093 0.0
C310 C 0.8439 0.95921 0.06858 0.0
C311 C 0.86601 0.95863 0.01218 0.0
C312 C 0.87576 0.98279 0.97923 0.0
C313 C 0.86389 0.00685 1.00111 0.0
C314 C 0.87818 0.03024 0.96009 0.0
C315 C 0.85913 0.04557 0.90025 0.0
C316 C 0.89028 0.04889 0.02759 0.0
C317 C 0.89995 0.01583 0.91113 0.0
C318 C 0.89851 0.98849 0.92235 0.0
C319 C 0.91673 0.9715 0.88125 0.0
C320 C 0.93671 0.98271 0.82759 0.0
C321 C 0.93807 0.01072 0.81465 0.0
C322 C 0.91941 0.02718 0.8582 0.0
H323 H 0.55532 0.85035 0.12939 0.0
H324 H 0.54372 0.78956 0.93783 0.0
H325 H 0.54829 0.82392 0.82529 0.0
H326 H 0.5175 0.89989 0.04163 0.0
H327 H 0.5395 0.92717 0.06932 0.0
H328 H 0.54002 0.89698 0.131 0.0
H329 H 0.59121 0.89245 0.1039 0.0
H330 H 0.59015 0.92248 0.04094 0.0
H331 H 0.60348 0.89221 0.99636 0.0
H332 H 0.54793 0.86611 0.73492 0.0
H333 H 0.53611 0.91073 0.67945 0.0
H334 H 0.54714 0.94453 0.92896 0.0
C335 C 0.55445 0.84425 0.06361 0.0
C336 C 0.54927 0.81727 0.0424 0.0
C337 C 0.54789 0.81006 0.9556 0.0
C338 C 0.55058 0.82948 0.89121 0.0
C339 C 0.55511 0.85609 0.91427 0.0
C340 C 0.55705 0.8634 0.99857 0.0
C341 C 0.55962 0.8935 0.00708 0.0
C342 C 0.53784 0.90504 0.06563 0.0
C343 C 0.58783 0.90053 0.03903 0.0
C344 C 0.55591 0.90238 0.91545 0.0
C345 C 0.55476 0.88041 0.86231 0.0
C346 C 0.54941 0.8834 0.77587 0.0
C347 C 0.54321 0.90906 0.74429 0.0
C348 C 0.54145 0.93145 0.79908 0.0
C349 C 0.54948 0.92816 0.88471 0.0
H350 H 0.69232 0.51343 0.12163 0.0
H351 H 0.72172 0.58894 0.02433 0.0
H352 H 0.68419 0.59004 0.92019 0.0
H353 H 0.67422 0.48631 0.92163 0.0
H354 H 0.64538 0.46873 0.96189 0.0
H355 H 0.67341 0.47547 0.03069 0.0
H356 H 0.64152 0.49932 0.13599 0.0
H357 H 0.61343 0.49288 0.06677 0.0
H358 H 0.62085 0.52665 0.09917 0.0
H359 H 0.64345 0.5803 0.81738 0.0
H360 H 0.60731 0.56007 0.72876 0.0
H361 H 0.60503 0.49194 0.89805 0.0
C362 C 0.69064 0.53044 0.07923 0.0
C363 C 0.70984 0.55128 0.08261 0.0
C364 C 0.7072 0.57286 0.02439 0.0
C365 C 0.68584 0.57363 0.9648 0.0
C366 C 0.66718 0.55267 0.96359 0.0
C367 C 0.6696 0.53145 0.01962 0.0
C368 C 0.64821 0.51051 0.00338 0.0
C369 C 0.66107 0.48368 0.97787 0.0
C370 C 0.62992 0.50716 0.08096 0.0
C371 C 0.63315 0.52309 0.92961 0.0
C372 C 0.6442 0.54742 0.90693 0.0
C373 C 0.63448 0.5615 0.83605 0.0
C374 C 0.61367 0.55006 0.7864 0.0
C375 C 0.60253 0.52492 0.80828 0.0
C376 C 0.6123 0.51171 0.88168 0.0
H377 H 1.0039 0.67719 0.16426 0.0
H378 H 0.97337 0.73391 0.9799 0.0
H379 H 0.96546 0.69721 0.87888 0.0
H380 H 0.04164 0.64128 0.02282 0.0
H381 H 0.03639 0.60899 0.07119 0.0
H382 H 0.03385 0.63876 0.13413 0.0
H383 H 0.98624 0.62432 0.17952 0.0
H384 H 0.98787 0.59493 0.11346 0.0
H385 H 0.96083 0.61859 0.10016 0.0
H386 H 0.96737 0.65537 0.78932 0.0
H387 H 0.98461 0.61513 0.71683 0.0
H388 H 0.01504 0.58502 0.95543 0.0
C389 C 0.9946 0.68173 0.10379 0.0
C390 C 0.98823 0.70855 0.0818 0.0
C391 C 0.97725 0.71365 1.00033 0.0
C392 C 0.97283 0.69278 0.94199 0.0
C393 C 0.97957 0.66662 0.96526 0.0
C394 C 0.99037 0.66108 0.0443 0.0
C395 C 0.99946 0.63204 0.04949 0.0
C396 C 0.02961 0.63018 0.07057 0.0
C397 C 0.9826 0.61655 0.11452 0.0
C398 C 0.99349 0.6225 0.95978 0.0
C399 C 0.9812 0.6425 0.91292 0.0
C400 C 0.97634 0.63937 0.82614 0.0
C401 C 0.98579 0.61612 0.78537 0.0
C402 C 1.00024 0.5963 0.83075 0.0
C403 C 1.00282 0.59907 0.91984 0.0
H404 H 0.04454 0.17798 0.28135 0.0
H405 H 0.10682 0.20547 0.45283 0.0
H406 H 0.10005 0.1646 0.54138 0.0
H407 H 1.00046 0.14996 0.42873 0.0
H408 H 0.99159 0.12196 0.3624 0.0
H409 H 1.00195 0.15299 0.31484 0.0
H410 H 0.03925 0.12801 0.2324 0.0
H411 H 0.02916 0.09683 0.28025 0.0
H412 H 0.06338 0.10805 0.28989 0.0
H413 H 0.08664 0.11999 0.60656 0.0
H414 H 0.06442 0.07889 0.65518 0.0
H415 H 0.01075 0.08163 0.43797 0.0
C416 C 0.05686 0.17543 0.33758 0.0
C417 C 0.07646 0.19456 0.36021 0.0
C418 C 0.09182 0.19089 0.43472 0.0
C419 C 0.08825 0.1677 0.48446 0.0
C420 C 0.0694 0.1487 0.45782 0.0
C421 C 0.05388 0.15254 0.38632 0.0
C422 C 0.0348 0.12958 0.37069 0.0
C423 C 0.00547 0.13921 0.36918 0.0
C424 C 0.04209 0.11475 0.28843 0.0
C425 C 0.04083 0.11258 0.44748 0.0
C426 C 0.06142 0.12352 0.49554 0.0
C427 C 0.07061 0.11129 0.56927 0.0
C428 C 0.05792 0.0878 0.59585 0.0
C429 C 0.03593 0.07699 0.54964 0.0
C430 C 0.02756 0.08938 0.47395 0.0
H431 H 0.36176 0.09052 0.40914 0.0
H432 H 0.30631 0.0247 0.44497 0.0
H433 H 0.34215 0.99828 0.51235 0.0
H434 H 0.41305 0.05403 0.34543 0.0
H435 H 0.44059 0.07048 0.39742 0.0
H436 H 0.4106 0.08902 0.37227 0.0
H437 H 0.40253 0.10281 0.52722 0.0
H438 H 0.43405 0.08721 0.55403 0.0
H439 H 0.40397 0.07785 0.60988 0.0
H440 H 0.38525 0.97518 0.5349 0.0
H441 H 0.43096 0.96115 0.57206 0.0
H442 H 0.45899 0.04262 0.53608 0.0
C443 C 0.35682 0.07122 0.43629 0.0
C444 C 0.33133 0.05958 0.42188 0.0
C445 C 0.32558 0.03408 0.45626 0.0
C446 C 0.34597 0.01872 0.4932 0.0
C447 C 0.37165 0.02958 0.49734 0.0
C448 C 0.37695 0.05572 0.4743 0.0
C449 C 0.40675 0.06175 0.48089 0.0
C450 C 0.4184 0.06929 0.39383 0.0
C451 C 0.41214 0.08369 0.54698 0.0
C452 C 0.41728 0.03478 0.51008 0.0
C453 C 0.39668 0.01642 0.51631 0.0
C454 C 0.40143 0.9896 0.53388 0.0
C455 C 0.42761 0.98178 0.55358 0.0
C456 C 0.44858 1.00093 0.55908 0.0
C457 C 0.44356 0.02752 0.5326 0.0
H458 H 0.53231 0.33547 0.35478 0.0
H459 H 0.45028 0.32465 0.43633 0.0
H460 H 0.45182 0.36827 0.51008 0.0
H461 H 0.55674 0.37616 0.54485 0.0
H462 H 0.57708 0.39641 0.47562 0.0
H463 H 0.5713 0.36171 0.45095 0.0
H464 H 0.55386 0.37638 0.30303 0.0
H465 H 0.55783 0.41119 0.32874 0.0
H466 H 0.52551 0.39874 0.29575 0.0
H467 H 0.45931 0.41674 0.54699 0.0
H468 H 0.47602 0.46211 0.57701 0.0
H469 H 0.55251 0.44169 0.46382 0.0
C470 C 0.5154 0.34151 0.39334 0.0
C471 C 0.49141 0.32664 0.39207 0.0
C472 C 0.46904 0.33554 0.43913 0.0
C473 C 0.46963 0.36049 0.47972 0.0
C474 C 0.49278 0.37597 0.47252 0.0
C475 C 0.5156 0.36645 0.43293 0.0
C476 C 0.53688 0.38789 0.42601 0.0
C477 C 0.56198 0.38009 0.47746 0.0
C478 C 0.54391 0.39388 0.33286 0.0
C479 C 0.52226 0.41116 0.46578 0.0
C480 C 0.49686 0.40396 0.49201 0.0
C481 C 0.47938 0.42242 0.52821 0.0
C482 C 0.48887 0.44836 0.5436 0.0
C483 C 0.51563 0.45554 0.52354 0.0
C484 C 0.53197 0.43695 0.48022 0.0
H485 H 0.17869 0.44347 0.42779 0.0
H486 H 0.23149 0.51206 0.44518 0.0
H487 H 0.19475 0.53873 0.50515 0.0
H488 H 0.12644 0.4746 0.35398 0.0
H489 H 0.09954 0.45888 0.41109 0.0
H490 H 0.13036 0.44097 0.39409 0.0
H491 H 0.13833 0.43336 0.55391 0.0
H492 H 0.1061 0.44856 0.57288 0.0
H493 H 0.13555 0.46114 0.62614 0.0
H494 H 0.15067 0.56081 0.51577 0.0
H495 H 0.10411 0.57442 0.54059 0.0
H496 H 0.0793 0.49111 0.53181 0.0
C497 C 0.18294 0.4635 0.45019 0.0
C498 C 0.20783 0.4758 0.43184 0.0
C499 C 0.21268 0.50223 0.45961 0.0
C500 C 0.19176 0.51769 0.4923 0.0
C501 C 0.16654 0.50598 0.49956 0.0
C502 C 0.16229 0.4791 0.48429 0.0
C503 C 0.13271 0.47217 0.49165 0.0
C504 C 0.12165 0.46098 0.4077 0.0
C505 C 0.12789 0.45267 0.56558 0.0
C506 C 0.12103 0.49957 0.50996 0.0
C507 C 0.14091 0.51876 0.5121 0.0
C508 C 0.13502 0.54585 0.51845 0.0
C509 C 0.10833 0.55337 0.53109 0.0
C510 C 0.0879 0.5338 0.54065 0.0
C511 C 0.09426 0.50661 0.52558 0.0
H512 H 0.93324 0.85356 0.0069 0.0
H513 H 1.00194 0.80026 1.00003 0.0
H514 H 0.02892 0.83563 0.93553 0.0
H515 H 0.95544 0.88867 0.7961 0.0
H516 H 0.94444 0.92121 0.82747 0.0
H517 H 0.9252 0.89212 0.85757 0.0
H518 H 0.92746 0.90199 0.01456 0.0
H519 H 0.94571 0.93249 0.99701 0.0
H520 H 0.95942 0.90718 0.06601 0.0
H521 H 0.05134 0.87927 0.92643 0.0
H522 H 0.06578 0.92573 0.91085 0.0
H523 H 0.98248 0.95161 0.90326 0.0
C524 C 0.95331 0.84876 0.98561 0.0
C525 C 0.96553 0.82427 0.0095 0.0
C526 C 0.99202 0.81874 0.98208 0.0
C527 C 0.00775 0.83893 0.94653 0.0
C528 C 0.99615 0.86395 0.93408 0.0
C529 C 0.96913 0.86852 0.94709 0.0
C530 C 0.96227 0.8977 0.93062 0.0
C531 C 0.9458 0.90008 0.84831 0.0
C532 C 0.94785 0.91057 0.00652 0.0
C533 C 0.99009 0.90929 0.91858 0.0
C534 C 0.00924 0.8893 0.92013 0.0
C535 C 0.0365 0.895 0.92062 0.0
C536 C 0.04446 0.92169 0.91338 0.0
C537 C 0.02525 0.94257 0.90399 0.0
C538 C 0.99765 0.93619 0.90878 0.0
H539 H 0.67531 0.9492 0.04239 0.0
H540 H 0.72755 0.01766 0.01135 0.0
H541 H 0.69049 0.04278 0.94374 0.0
H542 H 0.63171 0.95928 0.84905 0.0
H543 H 0.60225 0.94957 0.9071 0.0
H544 H 0.6343 0.93504 0.93356 0.0
H545 H 0.6276 0.95005 0.08847 0.0
H546 H 0.59655 0.96739 0.06552 0.0
H547 H 0.62418 0.98509 0.11225 0.0
H548 H 0.64565 0.06342 0.9132 0.0
H549 H 0.59858 0.07488 0.88279 0.0
H550 H 0.57528 0.99266 0.93336 0.0
C551 C 0.67933 0.96886 0.01633 0.0
C552 C 0.70423 0.98147 0.03092 0.0
C553 C 0.70873 0.00754 0.99901 0.0
C554 C 0.68767 0.02207 0.96179 0.0
C555 C 0.66254 0.00998 0.95618 0.0
C556 C 0.65851 0.98364 0.9798 0.0
C557 C 0.62908 0.97634 0.9768 0.0
C558 C 0.62404 0.95371 0.91283 0.0
C559 C 0.61875 0.96922 0.06595 0.0
C560 C 0.61715 1.00251 0.94706 0.0
C561 C 0.6367 0.02184 0.93747 0.0
C562 C 0.63026 0.04824 0.9181 0.0
C563 C 0.60331 0.05464 0.90255 0.0
C564 C 0.58316 0.03459 0.90513 0.0
C565 C 0.59019 0.0084 0.93052 0.0
H566 H 0.53794 0.69839 0.08451 0.0
H567 H 0.62328 0.68758 0.0481 0.0
H568 H 0.6147 0.64285 0.98462 0.0
H569 H 0.52929 0.63302 0.16026 0.0
H570 H 0.49575 0.62927 0.11896 0.0
H571 H 0.50809 0.66196 0.14688 0.0
H572 H 0.49808 0.67971 0.9953 0.0
H573 H 0.48465 0.64747 0.96795 0.0
H574 H 0.51108 0.66191 0.90492 0.0
H575 H 0.59639 0.59752 0.94058 0.0
H576 H 0.56974 0.55846 0.89625 0.0
H577 H 0.49674 0.59889 0.97268 0.0
C578 C 0.55465 0.68714 0.05882 0.0
C579 C 0.58115 0.69657 0.06752 0.0
C580 C 0.60284 0.68086 0.03874 0.0
C581 C 0.59812 0.65535 0.0043 0.0
C582 C 0.57174 0.64589 1.00213 0.0
C583 C 0.55039 0.66146 0.02806 0.0
C584 C 0.52435 0.64603 0.02792 0.0
C585 C 0.51375 0.64237 0.11887 0.0
C586 C 0.50331 0.65958 0.97051 0.0
C587 C 0.53393 0.61971 0.99227 0.0
C588 C 0.56142 0.61975 0.98008 0.0
C589 C 0.57484 0.59745 0.9489 0.0
C590 C 0.55953 0.57527 0.92434 0.0
C591 C 0.53111 0.57577 0.92899 0.0
C592 C 0.51838 0.59781 0.9677 0.0
H593 H 0.86096 0.58593 0.00339 0.0
H594 H 0.81873 0.51146 0.04634 0.0
H595 H 0.85817 0.48621 0.99708 0.0
H596 H 0.90009 0.55893 0.80678 0.0
H597 H 0.92859 0.57925 0.83496 0.0
H598 H 0.89509 0.59104 0.8562 0.0
H599 H 0.90905 0.59763 0.01319 0.0
H600 H 0.94191 0.58421 0.99323 0.0
H601 H 0.92104 0.56934 0.07372 0.0
H602 H 0.90455 0.46957 0.97995 0.0
H603 H 0.95152 0.46092 0.94122 0.0
H604 H 0.96346 0.54612 0.89938 0.0
C605 C 0.8595 0.56441 0.99664 0.0
C606 C 0.83689 0.55049 0.02745 0.0
C607 C 0.83573 0.52233 0.02099 0.0
C608 C 0.85819 0.50785 0.99464 0.0
C609 C 0.88112 0.52201 0.97225 0.0
C610 C 0.88156 0.54965 0.96806 0.0
C611 C 0.90914 0.55974 0.94316 0.0
C612 C 0.90817 0.57301 0.85504 0.0
C613 C 0.92095 0.57885 0.00991 0.0
C614 C 0.92444 0.53355 0.94062 0.0
C615 C 0.90789 0.51213 0.958 0.0
C616 C 0.91757 0.48606 0.96325 0.0
C617 C 0.94444 0.48142 0.94258 0.0
C618 C 0.9611 0.50273 0.91543 0.0
C619 C 0.95127 0.52931 0.91921 0.0
H620 H 0.09482 0.19477 0.02587 0.0
H621 H 0.018 0.21559 0.13558 0.0
H622 H 0.99817 0.17475 0.0748 0.0
H623 H 0.06531 0.16472 0.82457 0.0
H624 H 0.09118 0.13952 0.82016 0.0
H625 H 0.09843 0.17189 0.8648 0.0
H626 H 0.11487 0.14853 1.00216 0.0
H627 H 0.10662 0.11616 0.95947 0.0
H628 H 0.0924 0.12671 0.05893 0.0
H629 H 0.98857 0.12856 0.02392 0.0
H630 H 0.98508 0.08589 0.94685 0.0
H631 H 0.0666 0.09517 0.85647 0.0
C632 C 0.07346 0.19153 0.03258 0.0
C633 C 0.05781 0.20889 0.08406 0.0
C634 C 0.03017 0.20326 0.0943 0.0
C635 C 0.01888 0.1797 0.06159 0.0
C636 C 0.03525 0.16218 0.01637 0.0
C637 C 0.06161 0.16831 0.99822 0.0
C638 C 0.07453 0.14588 0.94695 0.0
C639 C 0.08285 0.15611 0.85888 0.0
C640 C 0.09853 0.1336 0.99476 0.0
C641 C 0.05145 0.12601 0.94067 0.0
C642 C 0.02924 0.13573 0.98311 0.0
C643 C 0.00567 0.12098 0.98925 0.0
C644 C 1.00402 0.09653 0.94625 0.0
C645 C 0.02563 0.08693 0.89658 0.0
C646 C 0.04999 0.10158 0.89561 0.0
H647 H 0.34614 0.02379 0.16536 0.0
H648 H 0.32391 0.10012 0.05589 0.0
H649 H 0.36269 0.09699 0.95719 0.0
H650 H 0.41502 0.03668 0.16917 0.0
H651 H 0.4251 1.00271 0.14789 0.0
H652 H 0.39372 0.00927 0.20017 0.0
H653 H 0.36793 0.98275 0.08475 0.0
H654 H 0.39932 0.9754 0.03353 0.0
H655 H 0.37259 0.99123 0.97459 0.0
H656 H 0.40778 0.086 0.87697 0.0
H657 H 0.44968 0.0667 0.81738 0.0
H658 H 0.44245 0.99921 0.98886 0.0
C659 C 0.34872 0.03931 0.11801 0.0
C660 C 0.33134 0.0618 0.11655 0.0
C661 C 0.33626 0.08227 0.05629 0.0
C662 C 0.35858 0.08081 1.00096 0.0
C663 C 0.37607 0.05888 0.00721 0.0
C664 C 0.37105 0.03838 0.06401 0.0
C665 C 0.39343 0.01779 0.06355 0.0
C666 C 0.40764 0.01655 0.15032 0.0
C667 C 0.38267 0.99016 0.03751 0.0
C668 C 0.41176 0.0294 0.99635 0.0
C669 C 0.40171 0.05322 0.96463 0.0
C670 C 0.41561 0.06733 0.90169 0.0
C671 C 0.43966 0.05637 0.8687 0.0
C672 C 0.44968 0.03144 0.89837 0.0
C673 C 0.43559 0.01832 0.9645 0.0
H674 H 0.515 0.31944 0.04052 0.0
H675 H 0.43578 0.34176 0.12669 0.0
H676 H 0.43755 0.38279 0.03914 0.0
H677 H 0.5432 0.38075 0.04882 0.0
H678 H 0.5632 0.3787 0.95399 0.0
H679 H 0.55398 0.34863 0.00953 0.0
H680 H 0.53197 0.32941 0.87371 0.0
H681 H 0.54184 0.3591 0.81666 0.0
H682 H 0.50716 0.34895 0.81762 0.0
H683 H 0.45151 0.42542 0.96108 0.0
H684 H 0.47361 0.46227 0.8826 0.0
H685 H 0.5434 0.41163 0.84508 0.0
C686 C 0.4974 0.33212 0.03662 0.0
C687 C 0.47486 0.32688 0.08826 0.0
C688 C 0.4528 0.34484 0.08522 0.0
C689 C 0.45382 0.36845 0.03659 0.0
C690 C 0.47694 0.3738 0.98997 0.0
C691 C 0.49802 0.35572 0.98755 0.0
C692 C 0.5212 0.36695 0.93645 0.0
C693 C 0.5469 0.36887 0.99047 0.0
C694 C 0.52582 0.3501 0.85635 0.0
C695 C 0.51043 0.39452 0.91393 0.0
C696 C 0.48481 0.39812 0.9449 0.0
C697 C 0.47139 0.42255 0.93521 0.0
C698 C 0.48421 0.44352 0.89107 0.0
C699 C 0.5103 0.44007 0.85708 0.0
C700 C 0.52342 0.41511 0.8695 0.0
H701 H 0.18309 0.50476 0.1891 0.0
H702 H 0.22271 0.44255 0.04494 0.0
H703 H 0.18783 0.44723 0.93214 0.0
H704 H 0.11675 0.48203 0.14519 0.0
H705 H 0.10253 0.5152 0.14336 0.0
H706 H 0.13169 0.50828 0.2076 0.0
H707 H 0.15783 0.54624 0.13241 0.0
H708 H 0.12863 0.55365 0.06911 0.0
H709 H 0.16017 0.54638 0.01831 0.0
H710 H 0.14523 0.45764 0.83861 0.0
H711 H 0.10403 0.47578 0.76989 0.0
H712 H 0.09311 0.53004 0.98049 0.0
C713 C 0.18475 0.49225 0.13332 0.0
C714 C 0.20577 0.4732 0.12619 0.0
C715 C 0.20706 0.45744 0.05175 0.0
C716 C 0.18708 0.45978 0.98791 0.0
C717 C 0.16586 0.47788 0.99959 0.0
C718 C 0.16489 0.49398 0.07056 0.0
C719 C 0.13984 0.51124 0.0712 0.0
C720 C 0.12164 0.50374 0.14628 0.0
C721 C 0.14706 0.54115 0.07278 0.0
C722 C 0.1271 0.50325 0.98775 0.0
C723 C 0.14198 0.48359 0.94769 0.0
C724 C 0.13357 0.47296 0.86998 0.0
C725 C 0.10994 0.48314 0.83175 0.0
C726 C 0.0951 0.50396 0.87061 0.0
C727 C 0.10382 0.51386 0.94991 0.0
H728 H 0.97851 0.82198 0.41218 0.0
H729 H 0.99989 0.86091 0.1751 0.0
H730 H 0.01246 0.90138 0.25182 0.0
H731 H 0.95432 0.87804 0.52645 0.0
H732 H 0.97093 0.87075 0.62561 0.0
H733 H 0.96256 0.84395 0.55401 0.0
H734 H 0.01219 0.82864 0.55178 0.0
H735 H 0.02057 0.85512 0.62462 0.0
H736 H 0.03798 0.85243 0.525 0.0
H737 H 0.01674 0.93998 0.34881 0.0
H738 H 0.026 0.971 0.46724 0.0
H739 H 0.01104 0.90701 0.64706 0.0
C740 C 0.98627 0.83884 0.37678 0.0
C741 C 0.98672 0.83845 0.28661 0.0
C742 C 0.9979 0.86088 0.24353 0.0
C743 C 0.00524 0.88414 0.28654 0.0
C744 C 1.00292 0.88461 0.37409 0.0
C745 C 0.99504 0.86227 0.41961 0.0
C746 C 0.99699 0.8681 0.5145 0.0
C747 C 0.96956 0.86502 0.55766 0.0
C748 C 0.01819 0.84999 0.55647 0.0
C749 C 0.00607 0.89732 0.51394 0.0
C750 C 0.00875 0.90643 0.4318 0.0
C751 C 0.01532 0.93298 0.41362 0.0
C752 C 0.02029 0.95055 0.48117 0.0
C753 C 0.01932 0.94144 0.56593 0.0
C754 C 0.01198 0.91445 0.58259 0.0
H755 H 0.67641 0.94375 0.31105 0.0
H756 H 0.73546 0.00363 0.37987 0.0
H757 H 0.70457 0.02115 0.48835 0.0
H758 H 0.6201 0.98276 0.32259 0.0
H759 H 0.59784 0.95883 0.37118 0.0
H760 H 0.62579 0.94739 0.30892 0.0
H761 H 0.64336 0.91926 0.43515 0.0
H762 H 0.61513 0.93013 0.49767 0.0
H763 H 0.64883 0.93508 0.53632 0.0
H764 H 0.66609 0.03644 0.57197 0.0
H765 H 0.62404 0.04692 0.64057 0.0
H766 H 0.58656 0.97742 0.5236 0.0
C767 C 0.68325 0.95986 0.3515 0.0
C768 C 0.70879 0.97205 0.33747 0.0
C769 C 0.71658 0.99346 0.39049 0.0
C770 C 0.69893 0.00375 0.45172 0.0
C771 C 0.67357 0.99218 0.46081 0.0
C772 C 0.66585 0.97027 0.41389 0.0
C773 C 0.63681 0.9626 0.43457 0.0
C774 C 0.6191 0.96293 0.35453 0.0
C775 C 0.63598 0.93513 0.4785 0.0
C776 C 0.62885 0.98476 0.49629 0.0
C777 C 0.65077 1.00115 0.51077 0.0
C778 C 0.64898 0.02348 0.56221 0.0
C779 C 0.62449 0.02929 0.6008 0.0
C780 C 0.60118 0.01315 0.58854 0.0
C781 C 0.60364 0.99025 0.53534 0.0
H782 H 0.59279 0.6969 0.4089 0.0
H783 H 0.51685 0.71544 0.28769 0.0
H784 H 0.49605 0.67686 0.35963 0.0
H785 H 0.58969 0.62827 0.39719 0.0
H786 H 0.60322 0.62061 0.50062 0.0
H787 H 0.61209 0.65147 0.44866 0.0
H788 H 0.59518 0.67895 0.57675 0.0
H789 H 0.58722 0.64814 0.63066 0.0
H790 H 0.56174 0.67339 0.61624 0.0
H791 H 0.48525 0.63301 0.42622 0.0
H792 H 0.48109 0.59239 0.51382 0.0
H793 H 0.56287 0.60237 0.60302 0.0
C794 C 0.57143 0.69367 0.40148 0.0
C795 C 0.55622 0.70973 0.34439 0.0
C796 C 0.52861 0.70413 0.33332 0.0
C797 C 0.51676 0.68188 0.37267 0.0
C798 C 0.53262 0.66566 0.42475 0.0
C799 C 0.55906 0.67181 0.44221 0.0
C800 C 0.57142 0.65087 0.50114 0.0
C801 C 0.59554 0.63699 0.45936 0.0
C802 C 0.57936 0.66359 0.58626 0.0
C803 C 0.54803 0.63157 0.51186 0.0
C804 C 0.52603 0.64049 0.46601 0.0
C805 C 0.50218 0.6261 0.46346 0.0
C806 C 0.50013 0.60285 0.51274 0.0
C807 C 0.52168 0.59401 0.56466 0.0
C808 C 0.54625 0.60827 0.5627 0.0
H809 H 0.86938 0.5891 0.28575 0.0
H810 H 0.80334 0.54443 0.39546 0.0
H811 H 0.83261 0.53154 0.51547 0.0
H812 H 0.91776 0.54123 0.32228 0.0
H813 H 0.94491 0.56378 0.34657 0.0
H814 H 0.91775 0.57472 0.27946 0.0
H815 H 0.90875 0.61476 0.37902 0.0
H816 H 0.93612 0.60414 0.44628 0.0
H817 H 0.90313 0.60884 0.49035 0.0
H818 H 0.87006 0.51875 0.61352 0.0
H819 H 0.91225 0.50581 0.68179 0.0
H820 H 0.95672 0.55496 0.50351 0.0
C821 C 0.86077 0.57705 0.33583 0.0
C822 C 0.83368 0.56785 0.33026 0.0
C823 C 0.82357 0.55227 0.39808 0.0
C824 C 0.84025 0.54462 0.46641 0.0
C825 C 0.86713 0.55271 0.46681 0.0
C826 C 0.87733 0.56876 0.40357 0.0
C827 C 0.90761 0.57239 0.41454 0.0
C828 C 0.9229 0.56243 0.33606 0.0
C829 C 0.9143 0.60178 0.43367 0.0
C830 C 0.91315 0.55476 0.49167 0.0
C831 C 0.88925 0.54428 0.52168 0.0
C832 C 0.88878 0.52694 0.59056 0.0
C833 C 0.91313 0.51958 0.62871 0.0
C834 C 0.93825 0.52898 0.59797 0.0
C835 C 0.93809 0.54744 0.52925 0.0
loop_
_geom_bond_atom_site_label_1
_geom_bond_atom_site_label_2
_geom_bond_distance
_geom_bond_site_symmetry_2
_ccdc_geom_bond_type
H0 C7 0.929 . S
H1 C10 0.930 1_556 S
H2 C12 0.929 . S
H3 C4 0.969 . S
C4 H3 0.969 . S
C4 O5 1.550 . S
C4 H6 0.973 1_554 S
O5 C4 1.550 . S
O5 C11 1.412 . S
H6 C4 0.973 1_556 S
C7 H0 0.929 . S
C7 C8 1.400 . S
C7 C9 1.364 . S
C8 C7 1.400 . S
C8 C12 1.377 . S
C9 C7 1.364 . S
C9 C10 1.374 . S
C10 H1 0.930 1_554 S
C10 C9 1.374 . S
C10 C11 1.383 . S
C11 O5 1.412 . S
C11 C10 1.383 . S
C11 C12 1.394 . S
C12 H2 0.929 . S
C12 C8 1.377 . S
C12 C11 1.394 . S
H13 C20 0.929 . S
H14 C23 0.930 1_556 S
H15 C25 0.929 . S
H16 C17 0.969 1_455 S
C17 H16 0.969 1_655 S
C17 O18 1.550 . S
C17 H19 0.973 1_554 S
O18 C17 1.550 . S
O18 C24 1.412 . S
H19 C17 0.973 1_556 S
C20 H13 0.929 . S
C20 C21 1.400 . S
C20 C22 1.364 . S
C21 C20 1.400 . S
C21 C25 1.377 . S
C22 C20 1.364 . S
C22 C23 1.374 . S
C23 H14 0.930 1_554 S
C23 C22 1.374 . S
C23 C24 1.383 . S
C24 O18 1.412 . S
C24 C23 1.383 . S
C24 C25 1.394 . S
C25 H15 0.929 . S
C25 C21 1.377 . S
C25 C24 1.394 . S
H26 C33 0.929 . S
H27 C36 0.930 1_556 S
H28 C38 0.929 . S
H29 C30 0.969 . S
C30 H29 0.969 . S
C30 O31 1.550 . S
C30 H32 0.973 1_554 S
O31 C30 1.550 . S
O31 C37 1.412 . S
H32 C30 0.973 1_556 S
C33 H26 0.929 . S
C33 C34 1.400 . S
C33 C35 1.364 . S
C34 C33 1.400 . S
C34 C38 1.377 . S
C35 C33 1.364 . S
C35 C36 1.374 . S
C36 H27 0.930 1_554 S
C36 C35 1.374 . S
C36 C37 1.383 . S
C37 O31 1.412 . S
C37 C36 1.383 . S
C37 C38 1.394 . S
C38 H28 0.929 . S
C38 C34 1.377 . S
C38 C37 1.394 . S
H39 C46 0.929 . S
H40 C49 0.930 1_556 S
H41 C51 0.929 . S
H42 C43 0.969 . S
C43 H42 0.969 . S
C43 O44 1.550 . S
C43 H45 0.973 1_554 S
O44 C43 1.550 . S
O44 C50 1.412 . S
H45 C43 0.973 1_556 S
C46 H39 0.929 . S
C46 C47 1.400 . S
C46 C48 1.364 . S
C47 C46 1.400 . S
C47 C51 1.377 . S
C48 C46 1.364 . S
C48 C49 1.374 . S
C49 H40 0.930 1_554 S
C49 C48 1.374 . S
C49 C50 1.383 . S
C50 O44 1.412 . S
C50 C49 1.383 . S
C50 C51 1.394 . S
C51 H41 0.929 . S
C51 C47 1.377 . S
C51 C50 1.394 . S
H52 C59 0.929 . S
H53 C62 0.930 . S
H54 C64 0.929 . S
H55 C56 0.969 . S
C56 H55 0.969 . S
C56 O57 1.550 . S
C56 H58 0.973 . S
O57 C56 1.550 . S
O57 C63 1.412 . S
H58 C56 0.973 . S
C59 H52 0.929 . S
C59 C60 1.400 . S
C59 C61 1.364 . S
C60 C59 1.400 . S
C60 C64 1.377 . S
C61 C59 1.364 . S
C61 C62 1.374 . S
C62 H53 0.930 . S
C62 C61 1.374 . S
C62 C63 1.383 . S
C63 O57 1.412 . S
C63 C62 1.383 . S
C63 C64 1.394 . S
C64 H54 0.929 . S
C64 C60 1.377 . S
C64 C63 1.394 . S
H65 C72 0.929 . S
H66 C75 0.930 . S
H67 C77 0.929 . S
H68 C69 0.969 . S
C69 H68 0.969 . S
C69 O70 1.550 . S
C69 H71 0.973 . S
O70 C69 1.550 . S
O70 C76 1.412 . S
H71 C69 0.973 . S
C72 H65 0.929 . S
C72 C73 1.400 . S
C72 C74 1.364 . S
C73 C72 1.400 . S
C73 C77 1.377 . S
C74 C72 1.364 . S
C74 C75 1.374 . S
C75 H66 0.930 . S
C75 C74 1.374 . S
C75 C76 1.383 . S
C76 O70 1.412 . S
C76 C75 1.383 . S
C76 C77 1.394 . S
C77 H67 0.929 . S
C77 C73 1.377 . S
C77 C76 1.394 . S
H78 C85 0.929 . S
H79 C88 0.930 . S
H80 C90 0.929 . S
H81 C82 0.969 . S
C82 H81 0.969 . S
C82 O83 1.550 . S
C82 H84 0.973 . S
O83 C82 1.550 . S
O83 C89 1.412 . S
H84 C82 0.973 . S
C85 H78 0.929 . S
C85 C86 1.400 . S
C85 C87 1.364 . S
C86 C85 1.400 . S
C86 C90 1.377 . S
C87 C85 1.364 . S
C87 C88 1.374 . S
C88 H79 0.930 . S
C88 C87 1.374 . S
C88 C89 1.383 . S
C89 O83 1.412 . S
C89 C88 1.383 . S
C89 C90 1.394 . S
C90 H80 0.929 . S
C90 C86 1.377 . S
C90 C89 1.394 . S
H91 C98 0.929 . S
H92 C101 0.930 . S
H93 C103 0.929 . S
H94 C95 0.969 . S
C95 H94 0.969 . S
C95 O96 1.550 . S
C95 H97 0.973 . S
O96 C95 1.550 . S
O96 C102 1.412 . S
H97 C95 0.973 . S
C98 H91 0.929 . S
C98 C99 1.400 . S
C98 C100 1.364 . S
C99 C98 1.400 . S
C99 C103 1.377 . S
C100 C98 1.364 . S
C100 C101 1.374 . S
C101 H92 0.930 . S
C101 C100 1.374 . S
C101 C102 1.383 . S
C102 O96 1.412 . S
C102 C101 1.383 . S
C102 C103 1.394 . S
C103 H93 0.929 . S
C103 C99 1.377 . S
C103 C102 1.394 . S
O104 Mn105 2.163 . S
O104 C118 1.244 . S
Mn105 O104 2.163 . S
Mn105 O108 2.160 1_545 S
Mn105 O109 2.221 . S
Mn105 O111 2.163 1_545 S
Mn105 O113 2.160 . S
Mn105 O123 2.221 1_455 S
O106 Mn107 2.087 1_455 S
O106 C118 1.256 . S
Mn107 O106 2.087 1_655 S
Mn107 O114 2.089 . S
Mn107 O123 2.290 . S
Mn107 O124 2.251 . S
O108 Mn105 2.160 1_565 S
O108 C119 1.239 . S
O109 Mn105 2.221 . S
O109 Mn110 2.290 1_545 S
O109 C120 1.278 . S
Mn110 O109 2.290 1_565 S
Mn110 O112 2.089 . S
Mn110 O115 2.251 . S
Mn110 O116 2.087 . S
O111 Mn105 2.163 1_565 S
O111 C121 1.244 . S
O112 Mn110 2.089 . S
O112 C119 1.256 . S
O113 Mn105 2.160 . S
O113 C122 1.239 . S
O114 Mn107 2.089 . S
O114 C122 1.256 1_655 S
O115 Mn110 2.251 . S
O115 C120 1.241 1_565 S
O116 Mn110 2.087 . S
O116 C121 1.256 . S
C117 O123 1.278 . S
C117 O124 1.241 . S
C118 O104 1.244 . S
C118 O106 1.256 . S
C119 O108 1.239 . S
C119 O112 1.256 . S
C120 O109 1.278 . S
C120 O115 1.241 1_545 S
C121 O111 1.244 . S
C121 O116 1.256 . S
C122 O113 1.239 . S
C122 O114 1.256 1_455 S
O123 Mn105 2.221 1_655 S
O123 Mn107 2.290 . S
O123 C117 1.278 . S
O124 Mn107 2.251 . S
O124 C117 1.241 . S
O125 Mn126 2.163 . S
O125 C139 1.244 . S
Mn126 O125 2.163 . S
Mn126 O129 2.160 . S
Mn126 O130 2.221 1_545 S
Mn126 O132 2.163 . S
Mn126 O134 2.160 1_545 S
Mn126 O144 2.221 . S
O127 Mn128 2.087 . S
O127 C139 1.256 . S
Mn128 O127 2.087 . S
Mn128 O135 2.089 . S
Mn128 O144 2.290 . S
Mn128 O145 2.251 . S
O129 Mn126 2.160 . S
O129 C140 1.239 . S
O130 Mn126 2.221 1_565 S
O130 Mn131 2.290 . S
O130 C141 1.278 . S
Mn131 O130 2.290 . S
Mn131 O133 2.089 . S
Mn131 O136 2.251 . S
Mn131 O137 2.094 . S
O132 Mn126 2.163 . S
O132 C142 1.244 . S
O133 Mn131 2.089 . S
O133 C140 1.256 1_565 S
O134 Mn126 2.160 1_565 S
O134 C143 1.239 1_565 S
O135 Mn128 2.089 . S
O135 C143 1.256 . S
O136 Mn131 2.251 . S
O136 C141 1.241 . S
O137 Mn131 2.094 . S
O137 C142 1.247 1_565 S
C138 O144 1.278 . S
C138 O145 1.241 . S
C139 O125 1.244 . S
C139 O127 1.256 . S
C140 O129 1.239 . S
C140 O133 1.256 1_545 S
C141 O130 1.278 . S
C141 O136 1.241 . S
C142 O132 1.244 . S
C142 O137 1.247 1_545 S
C143 O134 1.239 1_545 S
C143 O135 1.256 . S
O144 Mn126 2.221 . S
O144 Mn128 2.290 . S
O144 C138 1.278 . S
O145 Mn128 2.251 . S
O145 C138 1.241 . S
O146 Mn147 2.163 . S
O146 C160 1.244 . S
Mn147 O146 2.163 . S
Mn147 O150 2.160 . S
Mn147 O151 2.221 . S
Mn147 O153 2.163 . S
Mn147 O155 2.160 . S
Mn147 O165 2.221 . S
O148 Mn149 2.087 . S
O148 C160 1.256 . S
Mn149 O148 2.087 . S
Mn149 O156 2.089 . S
Mn149 O165 2.290 . S
Mn149 O166 2.251 . S
O150 Mn147 2.160 . S
O150 C161 1.239 . S
O151 Mn147 2.221 . S
O151 Mn152 2.290 . S
O151 C162 1.278 . S
Mn152 O151 2.290 . S
Mn152 O154 2.089 . S
Mn152 O157 2.251 . S
Mn152 O158 2.087 . S
O153 Mn147 2.163 . S
O153 C163 1.244 . S
O154 Mn152 2.089 . S
O154 C161 1.256 . S
O155 Mn147 2.160 . S
O155 C164 1.239 . S
O156 Mn149 2.089 . S
O156 C164 1.256 . S
O157 Mn152 2.251 . S
O157 C162 1.241 . S
O158 Mn152 2.087 . S
O158 C163 1.256 . S
C159 O165 1.278 . S
C159 O166 1.241 . S
C160 O146 1.244 . S
C160 O148 1.256 . S
C161 O150 1.239 . S
C161 O154 1.256 . S
C162 O151 1.278 . S
C162 O157 1.241 . S
C163 O153 1.244 . S
C163 O158 1.256 . S
C164 O155 1.239 . S
C164 O156 1.256 . S
O165 Mn147 2.221 . S
O165 Mn149 2.290 . S
O165 C159 1.278 . S
O166 Mn149 2.251 . S
O166 C159 1.241 . S
O167 Mn168 2.163 . S
O167 C181 1.244 . S
Mn168 O167 2.163 . S
Mn168 O171 2.160 1_455 S
Mn168 O172 2.221 . S
Mn168 O174 2.163 1_455 S
Mn168 O176 2.160 . S
Mn168 O186 2.221 . S
O169 Mn170 2.087 . S
O169 C181 1.256 . S
Mn170 O169 2.087 . S
Mn170 O177 2.089 . S
Mn170 O186 2.290 . S
Mn170 O187 2.251 . S
O171 Mn168 2.160 1_655 S
O171 C182 1.239 . S
O172 Mn168 2.221 . S
O172 Mn173 2.290 1_455 S
O172 C183 1.278 . S
Mn173 O172 2.290 1_655 S
Mn173 O175 2.089 . S
Mn173 O178 2.251 . S
Mn173 O179 2.087 . S
O174 Mn168 2.163 1_655 S
O174 C184 1.244 . S
O175 Mn173 2.089 . S
O175 C182 1.256 . S
O176 Mn168 2.160 . S
O176 C185 1.239 . S
O177 Mn170 2.089 . S
O177 C185 1.256 . S
O178 Mn173 2.251 . S
O178 C183 1.241 1_655 S
O179 Mn173 2.087 . S
O179 C184 1.256 . S
C180 O186 1.278 . S
C180 O187 1.241 . S
C181 O167 1.244 . S
C181 O169 1.256 . S
C182 O171 1.239 . S
C182 O175 1.256 . S
C183 O172 1.278 . S
C183 O178 1.241 1_455 S
C184 O174 1.244 . S
C184 O179 1.256 . S
C185 O176 1.239 . S
C185 O177 1.256 . S
O186 Mn168 2.221 . S
O186 Mn170 2.290 . S
O186 C180 1.278 . S
O187 Mn170 2.251 . S
O187 C180 1.241 . S
H188 C200 0.930 . S
H189 C202 0.930 . S
H190 C203 0.930 . S
H191 C207 0.959 . S
H192 C207 0.959 . S
H193 C207 0.961 . S
H194 C208 0.960 . S
H195 C208 0.961 . S
H196 C208 0.959 . S
H197 C211 0.929 1_565 S
H198 C212 0.931 1_565 S
H199 C214 0.930 . S
C200 H188 0.930 . S
C200 C201 1.399 . S
C200 C205 1.399 . S
C201 C200 1.399 . S
C201 C202 1.376 . S
C202 H189 0.930 . S
C202 C201 1.376 . S
C202 C203 1.388 . S
C203 H190 0.930 . S
C203 C202 1.388 . S
C203 C204 1.390 . S
C204 C203 1.390 . S
C204 C205 1.394 . S
C204 C210 1.465 . S
C205 C200 1.399 . S
C205 C204 1.394 . S
C205 C206 1.516 . S
C206 C205 1.516 . S
C206 C207 1.502 . S
C206 C208 1.561 . S
C206 C209 1.526 . S
C207 H191 0.959 . S
C207 H192 0.959 . S
C207 H193 0.961 . S
C207 C206 1.502 . S
C208 H194 0.960 . S
C208 H195 0.961 . S
C208 H196 0.959 . S
C208 C206 1.561 . S
C209 C206 1.526 . S
C209 C210 1.396 . S
C209 C214 1.390 . S
C210 C204 1.465 . S
C210 C209 1.396 . S
C210 C211 1.399 . S
C211 H197 0.929 1_545 S
C211 C210 1.399 . S
C211 C212 1.385 . S
C212 H198 0.931 1_545 S
C212 C211 1.385 . S
C212 C213 1.389 . S
C213 C212 1.389 . S
C213 C214 1.387 . S
C214 H199 0.930 . S
C214 C209 1.390 . S
C214 C213 1.387 . S
H215 C227 0.930 . S
H216 C229 0.930 . S
H217 C230 0.930 . S
H218 C234 0.959 . S
H219 C234 0.959 . S
H220 C234 0.961 . S
H221 C235 0.960 . S
H222 C235 0.961 . S
H223 C235 0.959 . S
H224 C238 0.929 . S
H225 C239 0.931 . S
H226 C241 0.930 . S
C227 H215 0.930 . S
C227 C228 1.399 . S
C227 C232 1.399 . S
C228 C227 1.399 . S
C228 C229 1.376 . S
C229 H216 0.930 . S
C229 C228 1.376 . S
C229 C230 1.388 . S
C230 H217 0.930 . S
C230 C229 1.388 . S
C230 C231 1.390 . S
C231 C230 1.390 . S
C231 C232 1.394 . S
C231 C237 1.465 . S
C232 C227 1.399 . S
C232 C231 1.394 . S
C232 C233 1.516 . S
C233 C232 1.516 . S
C233 C234 1.502 . S
C233 C235 1.561 . S
C233 C236 1.526 . S
C234 H218 0.959 . S
C234 H219 0.959 . S
C234 H220 0.961 . S
C234 C233 1.502 . S
C235 H221 0.960 . S
C235 H222 0.961 . S
C235 H223 0.959 . S
C235 C233 1.561 . S
C236 C233 1.526 . S
C236 C237 1.396 . S
C236 C241 1.390 . S
C237 C231 1.465 . S
C237 C236 1.396 . S
C237 C238 1.399 . S
C238 H224 0.929 . S
C238 C237 1.399 . S
C238 C239 1.385 . S
C239 H225 0.931 . S
C239 C238 1.385 . S
C239 C240 1.389 . S
C240 C239 1.389 . S
C240 C241 1.387 . S
C241 H226 0.930 . S
C241 C236 1.390 . S
C241 C240 1.387 . S
H242 C254 0.930 . S
H243 C256 0.930 . S
H244 C257 0.930 . S
H245 C261 0.959 . S
H246 C261 0.959 . S
H247 C261 0.961 . S
H248 C262 0.960 . S
H249 C262 0.961 . S
H250 C262 0.959 . S
H251 C265 0.929 . S
H252 C266 0.931 . S
H253 C268 0.930 . S
C254 H242 0.930 . S
C254 C255 1.399 . S
C254 C259 1.399 . S
C255 C254 1.399 . S
C255 C256 1.376 . S
C256 H243 0.930 . S
C256 C255 1.376 . S
C256 C257 1.388 . S
C257 H244 0.930 . S
C257 C256 1.388 . S
C257 C258 1.390 . S
C258 C257 1.390 . S
C258 C259 1.394 . S
C258 C264 1.465 . S
C259 C254 1.399 . S
C259 C258 1.394 . S
C259 C260 1.516 . S
C260 C259 1.516 . S
C260 C261 1.502 . S
C260 C262 1.561 . S
C260 C263 1.526 . S
C261 H245 0.959 . S
C261 H246 0.959 . S
C261 H247 0.961 . S
C261 C260 1.502 . S
C262 H248 0.960 . S
C262 H249 0.961 . S
C262 H250 0.959 . S
C262 C260 1.561 . S
C263 C260 1.526 . S
C263 C264 1.396 . S
C263 C268 1.390 . S
C264 C258 1.465 . S
C264 C263 1.396 . S
C264 C265 1.399 . S
C265 H251 0.929 . S
C265 C264 1.399 . S
C265 C266 1.385 . S
C266 H252 0.931 . S
C266 C265 1.385 . S
C266 C267 1.389 . S
C267 C266 1.389 . S
C267 C268 1.387 . S
C268 H253 0.930 . S
C268 C263 1.390 . S
C268 C267 1.387 . S
H269 C281 0.930 . S
H270 C283 0.930 . S
H271 C284 0.930 . S
H272 C288 0.959 . S
H273 C288 0.959 . S
H274 C288 0.961 . S
H275 C289 0.960 . S
H276 C289 0.961 . S
H277 C289 0.959 . S
H278 C292 0.929 . S
H279 C293 0.931 . S
H280 C295 0.930 . S
C281 H269 0.930 . S
C281 C282 1.399 . S
C281 C286 1.399 . S
C282 C281 1.399 . S
C282 C283 1.376 . S
C283 H270 0.930 . S
C283 C282 1.376 . S
C283 C284 1.388 . S
C284 H271 0.930 . S
C284 C283 1.388 . S
C284 C285 1.390 . S
C285 C284 1.390 . S
C285 C286 1.394 . S
C285 C291 1.465 . S
C286 C281 1.399 . S
C286 C285 1.394 . S
C286 C287 1.516 . S
C287 C286 1.516 . S
C287 C288 1.502 1_455 S
C287 C289 1.561 . S
C287 C290 1.526 . S
C288 H272 0.959 . S
C288 H273 0.959 . S
C288 H274 0.961 . S
C288 C287 1.502 1_655 S
C289 H275 0.960 . S
C289 H276 0.961 . S
C289 H277 0.959 . S
C289 C287 1.561 . S
C290 C287 1.526 . S
C290 C291 1.396 . S
C290 C295 1.390 . S
C291 C285 1.465 . S
C291 C290 1.396 . S
C291 C292 1.399 . S
C292 H278 0.929 . S
C292 C291 1.399 . S
C292 C293 1.385 . S
C293 H279 0.931 . S
C293 C292 1.385 . S
C293 C294 1.389 . S
C294 C293 1.389 . S
C294 C295 1.387 . S
C295 H280 0.930 . S
C295 C290 1.390 . S
C295 C294 1.387 . S
H296 C308 0.928 1_544 S
H297 C310 0.928 1_554 S
H298 C311 0.930 . S
H299 C315 0.959 . S
H300 C315 0.959 . S
H301 C315 0.961 . S
H302 C316 0.960 . S
H303 C316 0.961 1_556 S
H304 C316 0.959 . S
H305 C319 0.929 . S
H306 C320 0.931 . S
H307 C322 0.930 . S
C308 H296 0.928 1_566 S
C308 C309 1.399 1_556 S
C308 C313 1.399 . S
C309 C308 1.399 1_554 S
C309 C310 1.375 1_554 S
C310 H297 0.928 1_556 S
C310 C309 1.375 1_556 S
C310 C311 1.391 . S
C311 H298 0.930 . S
C311 C310 1.391 . S
C311 C312 1.390 . S
C312 C311 1.390 . S
C312 C313 1.394 . S
C312 C318 1.465 . S
C313 C308 1.399 . S
C313 C312 1.394 . S
C313 C314 1.516 1_565 S
C314 C313 1.516 1_545 S
C314 C315 1.502 . S
C314 C316 1.561 1_556 S
C314 C317 1.526 . S
C315 H299 0.959 . S
C315 H300 0.959 . S
C315 H301 0.961 . S
C315 C314 1.502 . S
C316 H302 0.960 . S
C316 H303 0.961 1_554 S
C316 H304 0.959 . S
C316 C314 1.561 1_554 S
C317 C314 1.526 . S
C317 C318 1.396 1_545 S
C317 C322 1.390 . S
C318 C312 1.465 . S
C318 C317 1.396 1_565 S
C318 C319 1.399 . S
C319 H305 0.929 . S
C319 C318 1.399 . S
C319 C320 1.385 . S
C320 H306 0.931 . S
C320 C319 1.385 . S
C320 C321 1.353 1_565 S
C321 C320 1.353 1_545 S
C321 C322 1.410 . S
C322 H307 0.930 . S
C322 C317 1.390 . S
C322 C321 1.410 . S
H323 C335 0.930 1_554 S
H324 C337 0.930 . S
H325 C338 0.930 . S
H326 C342 0.959 1_554 S
H327 C342 0.959 . S
H328 C342 0.961 1_554 S
H329 C343 0.960 . S
H330 C343 0.961 . S
H331 C343 0.959 . S
H332 C346 0.929 . S
H333 C347 0.931 . S
H334 C349 0.930 . S
C335 H323 0.930 1_556 S
C335 C336 1.399 1_556 S
C335 C340 1.399 . S
C336 C335 1.399 1_554 S
C336 C337 1.376 1_554 S
C337 H324 0.930 . S
C337 C336 1.376 1_556 S
C337 C338 1.388 . S
C338 H325 0.930 . S
C338 C337 1.388 . S
C338 C339 1.390 . S
C339 C338 1.390 . S
C339 C340 1.394 . S
C339 C345 1.465 . S
C340 C335 1.399 . S
C340 C339 1.394 . S
C340 C341 1.516 . S
C341 C340 1.516 . S
C341 C342 1.502 . S
C341 C343 1.561 . S
C341 C344 1.526 . S
C342 H326 0.959 1_556 S
C342 H327 0.959 . S
C342 H328 0.961 1_556 S
C342 C341 1.502 . S
C343 H329 0.960 . S
C343 H330 0.961 . S
C343 H331 0.959 . S
C343 C341 1.561 . S
C344 C341 1.526 . S
C344 C345 1.396 . S
C344 C349 1.390 . S
C345 C339 1.465 . S
C345 C344 1.396 . S
C345 C346 1.399 . S
C346 H332 0.929 . S
C346 C345 1.399 . S
C346 C347 1.385 . S
C347 H333 0.931 . S
C347 C346 1.385 . S
C347 C348 1.389 . S
C348 C347 1.389 . S
C348 C349 1.387 . S
C349 H334 0.930 . S
C349 C344 1.390 . S
C349 C348 1.387 . S
H350 C362 0.930 . S
H351 C364 0.930 . S
H352 C365 0.930 . S
H353 C369 0.959 . S
H354 C369 0.959 . S
H355 C369 0.961 . S
H356 C370 0.960 . S
H357 C370 0.961 . S
H358 C370 0.959 . S
H359 C373 0.929 . S
H360 C374 0.931 . S
H361 C376 0.930 . S
C362 H350 0.930 . S
C362 C363 1.399 . S
C362 C367 1.399 1_554 S
C363 C362 1.399 . S
C363 C364 1.376 1_554 S
C364 H351 0.930 . S
C364 C363 1.376 1_556 S
C364 C365 1.388 . S
C365 H352 0.930 . S
C365 C364 1.388 . S
C365 C366 1.390 . S
C366 C365 1.390 . S
C366 C367 1.394 . S
C366 C372 1.465 . S
C367 C362 1.399 1_556 S
C367 C366 1.394 . S
C367 C368 1.516 . S
C368 C367 1.516 . S
C368 C369 1.502 . S
C368 C370 1.561 1_556 S
C368 C371 1.526 . S
C369 H353 0.959 . S
C369 H354 0.959 . S
C369 H355 0.961 . S
C369 C368 1.502 . S
C370 H356 0.960 . S
C370 H357 0.961 . S
C370 H358 0.959 . S
C370 C368 1.561 1_554 S
C371 C368 1.526 . S
C371 C372 1.396 . S
C371 C376 1.390 . S
C372 C366 1.465 . S
C372 C371 1.396 . S
C372 C373 1.399 . S
C373 H359 0.929 . S
C373 C372 1.399 . S
C373 C374 1.385 . S
C374 H360 0.931 . S
C374 C373 1.385 . S
C374 C375 1.389 . S
C375 C374 1.389 . S
C375 C376 1.387 . S
C376 H361 0.930 . S
C376 C371 1.390 . S
C376 C375 1.387 . S
H377 C389 0.930 . S
H378 C391 0.930 . S
H379 C392 0.930 . S
H380 C396 0.959 . S
H381 C396 0.959 . S
H382 C396 0.961 . S
H383 C397 0.960 . S
H384 C397 0.961 . S
H385 C397 0.959 . S
H386 C400 0.929 . S
H387 C401 0.931 . S
H388 C403 0.930 . S
C389 H377 0.930 . S
C389 C390 1.399 . S
C389 C394 1.399 1_554 S
C390 C389 1.399 . S
C390 C391 1.376 1_554 S
C391 H378 0.930 . S
C391 C390 1.376 1_556 S
C391 C392 1.388 . S
C392 H379 0.930 . S
C392 C391 1.388 . S
C392 C393 1.390 . S
C393 C392 1.390 . S
C393 C394 1.394 . S
C393 C399 1.465 . S
C394 C389 1.399 1_556 S
C394 C393 1.394 . S
C394 C395 1.515 1_655 S
C395 C394 1.515 1_455 S
C395 C396 1.504 1_556 S
C395 C397 1.559 1_456 S
C395 C398 1.526 . S
C396 H380 0.959 . S
C396 H381 0.959 . S
C396 H382 0.961 . S
C396 C395 1.504 1_554 S
C397 H383 0.960 . S
C397 H384 0.961 . S
C397 H385 0.959 . S
C397 C395 1.559 1_654 S
C398 C395 1.526 . S
C398 C399 1.393 1_455 S
C398 C403 1.392 . S
C399 C393 1.465 . S
C399 C398 1.393 1_655 S
C399 C400 1.399 . S
C400 H386 0.929 . S
C400 C399 1.399 . S
C400 C401 1.385 . S
C401 H387 0.931 . S
C401 C400 1.385 . S
C401 C402 1.389 1_655 S
C402 C401 1.389 1_455 S
C402 C403 1.387 . S
C403 H388 0.930 . S
C403 C398 1.392 . S
C403 C402 1.387 . S
H404 C416 0.930 . S
H405 C418 0.930 . S
H406 C419 0.930 . S
H407 C423 0.959 1_655 S
H408 C423 0.959 . S
H409 C423 0.961 . S
H410 C424 0.960 . S
H411 C424 0.961 . S
H412 C424 0.959 . S
H413 C427 0.929 . S
H414 C428 0.931 . S
H415 C430 0.930 . S
C416 H404 0.930 . S
C416 C417 1.399 . S
C416 C421 1.399 . S
C417 C416 1.399 . S
C417 C418 1.376 . S
C418 H405 0.930 . S
C418 C417 1.376 . S
C418 C419 1.388 . S
C419 H406 0.930 . S
C419 C418 1.388 . S
C419 C420 1.390 . S
C420 C419 1.390 . S
C420 C421 1.394 . S
C420 C426 1.465 . S
C421 C416 1.399 . S
C421 C420 1.394 . S
C421 C422 1.516 . S
C422 C421 1.516 . S
C422 C423 1.502 . S
C422 C424 1.561 . S
C422 C425 1.526 . S
C423 H407 0.959 1_455 S
C423 H408 0.959 . S
C423 H409 0.961 . S
C423 C422 1.502 . S
C424 H410 0.960 . S
C424 H411 0.961 . S
C424 H412 0.959 . S
C424 C422 1.561 . S
C425 C422 1.526 . S
C425 C426 1.396 . S
C425 C430 1.390 . S
C426 C420 1.465 . S
C426 C425 1.396 . S
C426 C427 1.399 . S
C427 H413 0.929 . S
C427 C426 1.399 . S
C427 C428 1.385 . S
C428 H414 0.931 . S
C428 C427 1.385 . S
C428 C429 1.389 . S
C429 C428 1.389 . S
C429 C430 1.387 . S
C430 H415 0.930 . S
C430 C425 1.390 . S
C430 C429 1.387 . S
H431 C443 0.930 . S
H432 C445 0.930 . S
H433 C446 0.955 . S
H434 C450 0.959 . S
H435 C450 0.959 . S
H436 C450 0.961 . S
H437 C451 0.960 . S
H438 C451 0.961 . S
H439 C451 0.959 . S
H440 C454 0.929 . S
H441 C455 0.931 . S
H442 C457 0.930 . S
C443 H431 0.930 . S
C443 C444 1.399 . S
C443 C448 1.399 . S
C444 C443 1.399 . S
C444 C445 1.376 . S
C445 H432 0.930 . S
C445 C444 1.376 . S
C445 C446 1.388 . S
C446 H433 0.955 . S
C446 C445 1.388 . S
C446 C447 1.390 . S
C447 C446 1.390 . S
C447 C448 1.394 . S
C447 C453 1.465 . S
C448 C443 1.399 . S
C448 C447 1.394 . S
C448 C449 1.516 . S
C449 C448 1.516 . S
C449 C450 1.502 . S
C449 C451 1.561 . S
C449 C452 1.526 . S
C450 H434 0.959 . S
C450 H435 0.959 . S
C450 H436 0.961 . S
C450 C449 1.502 . S
C451 H437 0.960 . S
C451 H438 0.961 . S
C451 H439 0.959 . S
C451 C449 1.561 . S
C452 C449 1.526 . S
C452 C453 1.396 . S
C452 C457 1.390 . S
C453 C447 1.465 . S
C453 C452 1.396 . S
C453 C454 1.399 1_545 S
C454 H440 0.929 . S
C454 C453 1.399 1_565 S
C454 C455 1.385 . S
C455 H441 0.931 . S
C455 C454 1.385 . S
C455 C456 1.389 1_565 S
C456 C455 1.389 1_545 S
C456 C457 1.387 . S
C457 H442 0.930 . S
C457 C452 1.390 . S
C457 C456 1.387 . S
H458 C470 0.930 . S
H459 C472 0.930 . S
H460 C473 0.930 . S
H461 C477 0.959 . S
H462 C477 0.959 . S
H463 C477 0.961 . S
H464 C478 0.960 . S
H465 C478 0.961 . S
H466 C478 0.959 . S
H467 C481 0.929 . S
H468 C482 0.931 . S
H469 C484 0.930 . S
C470 H458 0.930 . S
C470 C471 1.399 . S
C470 C475 1.399 . S
C471 C470 1.399 . S
C471 C472 1.376 . S
C472 H459 0.930 . S
C472 C471 1.376 . S
C472 C473 1.388 . S
C473 H460 0.930 . S
C473 C472 1.388 . S
C473 C474 1.390 . S
C474 C473 1.390 . S
C474 C475 1.394 . S
C474 C480 1.465 . S
C475 C470 1.399 . S
C475 C474 1.394 . S
C475 C476 1.516 . S
C476 C475 1.516 . S
C476 C477 1.502 . S
C476 C478 1.561 . S
C476 C479 1.526 . S
C477 H461 0.959 . S
C477 H462 0.959 . S
C477 H463 0.961 . S
C477 C476 1.502 . S
C478 H464 0.960 . S
C478 H465 0.961 . S
C478 H466 0.959 . S
C478 C476 1.561 . S
C479 C476 1.526 . S
C479 C480 1.396 . S
C479 C484 1.390 . S
C480 C474 1.465 . S
C480 C479 1.396 . S
C480 C481 1.399 . S
C481 H467 0.929 . S
C481 C480 1.399 . S
C481 C482 1.385 . S
C482 H468 0.931 . S
C482 C481 1.385 . S
C482 C483 1.389 . S
C483 C482 1.389 . S
C483 C484 1.387 . S
C484 H469 0.930 . S
C484 C479 1.390 . S
C484 C483 1.387 . S
H485 C497 0.930 . S
H486 C499 0.930 . S
H487 C500 0.930 . S
H488 C504 0.959 . S
H489 C504 0.959 . S
H490 C504 0.961 . S
H491 C505 0.960 . S
H492 C505 0.961 . S
H493 C505 0.959 . S
H494 C508 0.929 . S
H495 C509 0.931 . S
H496 C511 0.930 . S
C497 H485 0.930 . S
C497 C498 1.399 . S
C497 C502 1.399 . S
C498 C497 1.399 . S
C498 C499 1.376 . S
C499 H486 0.930 . S
C499 C498 1.376 . S
C499 C500 1.388 . S
C500 H487 0.930 . S
C500 C499 1.388 . S
C500 C501 1.390 . S
C501 C500 1.390 . S
C501 C502 1.394 . S
C501 C507 1.465 . S
C502 C497 1.399 . S
C502 C501 1.394 . S
C502 C503 1.516 . S
C503 C502 1.516 . S
C503 C504 1.502 . S
C503 C505 1.561 . S
C503 C506 1.526 . S
C504 H488 0.959 . S
C504 H489 0.959 . S
C504 H490 0.961 . S
C504 C503 1.502 . S
C505 H491 0.960 . S
C505 H492 0.961 . S
C505 H493 0.959 . S
C505 C503 1.561 . S
C506 C503 1.526 . S
C506 C507 1.396 . S
C506 C511 1.390 . S
C507 C501 1.465 . S
C507 C506 1.396 . S
C507 C508 1.399 . S
C508 H494 0.929 . S
C508 C507 1.399 . S
C508 C509 1.385 . S
C509 H495 0.931 . S
C509 C508 1.385 . S
C509 C510 1.389 . S
C510 C509 1.389 . S
C510 C511 1.387 . S
C511 H496 0.930 . S
C511 C506 1.390 . S
C511 C510 1.387 . S
H512 C524 0.930 . S
H513 C526 0.930 . S
H514 C527 0.930 1_554 S
H515 C531 0.959 . S
H516 C531 0.959 . S
H517 C531 0.961 . S
H518 C532 0.960 . S
H519 C532 0.961 . S
H520 C532 0.959 1_554 S
H521 C535 0.929 . S
H522 C536 0.931 . S
H523 C538 0.930 . S
C524 H512 0.930 . S
C524 C525 1.399 1_556 S
C524 C529 1.399 . S
C525 C524 1.399 1_554 S
C525 C526 1.376 1_655 S
C526 H513 0.930 . S
C526 C525 1.376 1_455 S
C526 C527 1.388 1_554 S
C527 H514 0.930 1_556 S
C527 C526 1.388 1_556 S
C527 C528 1.390 . S
C528 C527 1.390 . S
C528 C529 1.394 1_455 S
C528 C534 1.465 . S
C529 C524 1.399 . S
C529 C528 1.394 1_655 S
C529 C530 1.516 . S
C530 C529 1.516 . S
C530 C531 1.502 . S
C530 C532 1.561 . S
C530 C533 1.526 . S
C531 H515 0.959 . S
C531 H516 0.959 . S
C531 H517 0.961 . S
C531 C530 1.502 . S
C532 H518 0.960 . S
C532 H519 0.961 . S
C532 H520 0.959 1_556 S
C532 C530 1.561 . S
C533 C530 1.526 . S
C533 C534 1.396 1_655 S
C533 C538 1.390 . S
C534 C528 1.465 . S
C534 C533 1.396 1_455 S
C534 C535 1.399 . S
C535 H521 0.929 . S
C535 C534 1.399 . S
C535 C536 1.385 . S
C536 H522 0.931 . S
C536 C535 1.385 . S
C536 C537 1.389 . S
C537 C536 1.389 . S
C537 C538 1.387 1_455 S
C538 H523 0.930 . S
C538 C533 1.390 . S
C538 C537 1.387 1_655 S
H539 C551 0.930 . S
H540 C553 0.930 . S
H541 C554 0.930 . S
H542 C558 0.959 . S
H543 C558 0.959 . S
H544 C558 0.961 . S
H545 C559 0.960 . S
H546 C559 0.961 . S
H547 C559 0.959 1_554 S
H548 C562 0.929 . S
H549 C563 0.931 . S
H550 C565 0.930 . S
C551 H539 0.930 . S
C551 C552 1.399 1_556 S
C551 C556 1.399 . S
C552 C551 1.399 1_554 S
C552 C553 1.376 1_565 S
C553 H540 0.930 . S
C553 C552 1.376 1_545 S
C553 C554 1.388 . S
C554 H541 0.930 . S
C554 C553 1.388 . S
C554 C555 1.390 1_554 S
C555 C554 1.390 1_556 S
C555 C556 1.394 1_545 S
C555 C561 1.465 . S
C556 C551 1.399 . S
C556 C555 1.394 1_565 S
C556 C557 1.516 . S
C557 C556 1.516 . S
C557 C558 1.502 . S
C557 C559 1.561 . S
C557 C560 1.526 . S
C558 H542 0.959 . S
C558 H543 0.959 . S
C558 H544 0.961 . S
C558 C557 1.502 . S
C559 H545 0.960 . S
C559 H546 0.961 . S
C559 H547 0.959 1_556 S
C559 C557 1.561 . S
C560 C557 1.526 . S
C560 C561 1.396 1_565 S
C560 C565 1.390 . S
C561 C555 1.465 . S
C561 C560 1.396 1_545 S
C561 C562 1.399 . S
C562 H548 0.929 . S
C562 C561 1.399 . S
C562 C563 1.385 . S
C563 H549 0.931 . S
C563 C562 1.385 . S
C563 C564 1.389 . S
C564 C563 1.389 . S
C564 C565 1.387 1_545 S
C565 H550 0.930 . S
C565 C560 1.390 . S
C565 C564 1.387 1_565 S
H566 C578 0.930 . S
H567 C580 0.930 . S
H568 C581 0.930 . S
H569 C585 0.959 . S
H570 C585 0.959 . S
H571 C585 0.961 . S
H572 C586 0.960 . S
H573 C586 0.961 . S
H574 C586 0.959 1_556 S
H575 C589 0.929 . S
H576 C590 0.931 . S
H577 C592 0.930 . S
C578 H566 0.930 . S
C578 C579 1.400 . S
C578 C583 1.399 1_554 S
C579 C578 1.400 . S
C579 C580 1.374 1_554 S
C580 H567 0.930 . S
C580 C579 1.374 1_556 S
C580 C581 1.388 . S
C581 H568 0.930 . S
C581 C580 1.388 . S
C581 C582 1.390 . S
C582 C581 1.390 . S
C582 C583 1.394 . S
C582 C588 1.465 . S
C583 C578 1.399 1_556 S
C583 C582 1.394 . S
C583 C584 1.516 1_556 S
C584 C583 1.516 1_554 S
C584 C585 1.502 . S
C584 C586 1.561 . S
C584 C587 1.526 1_554 S
C585 H569 0.959 . S
C585 H570 0.959 . S
C585 H571 0.961 . S
C585 C584 1.502 . S
C586 H572 0.960 . S
C586 H573 0.961 . S
C586 H574 0.959 1_554 S
C586 C584 1.561 . S
C587 C584 1.526 1_556 S
C587 C588 1.396 . S
C587 C592 1.390 . S
C588 C582 1.465 . S
C588 C587 1.396 . S
C588 C589 1.399 . S
C589 H575 0.929 . S
C589 C588 1.399 . S
C589 C590 1.385 . S
C590 H576 0.931 . S
C590 C589 1.385 . S
C590 C591 1.389 . S
C591 C590 1.389 . S
C591 C592 1.387 . S
C592 H577 0.930 . S
C592 C587 1.390 . S
C592 C591 1.387 . S
H593 C605 0.930 . S
H594 C607 0.930 . S
H595 C608 0.930 . S
H596 C612 0.959 . S
H597 C612 0.959 . S
H598 C612 0.961 . S
H599 C613 0.960 . S
H600 C613 0.961 . S
H601 C613 0.959 . S
H602 C616 0.929 1_554 S
H603 C617 0.931 . S
H604 C619 0.930 . S
C605 H593 0.930 . S
C605 C606 1.399 1_556 S
C605 C610 1.399 . S
C606 C605 1.399 1_554 S
C606 C607 1.376 . S
C607 H594 0.930 . S
C607 C606 1.376 . S
C607 C608 1.388 . S
C608 H595 0.930 . S
C608 C607 1.388 . S
C608 C609 1.390 1_554 S
C609 C608 1.390 1_556 S
C609 C610 1.394 . S
C609 C615 1.465 . S
C610 C605 1.399 . S
C610 C609 1.394 . S
C610 C611 1.516 . S
C611 C610 1.516 . S
C611 C612 1.502 . S
C611 C613 1.561 . S
C611 C614 1.526 . S
C612 H596 0.959 . S
C612 H597 0.959 . S
C612 H598 0.961 . S
C612 C611 1.502 . S
C613 H599 0.960 . S
C613 H600 0.961 . S
C613 H601 0.959 . S
C613 C611 1.561 . S
C614 C611 1.526 . S
C614 C615 1.396 . S
C614 C619 1.390 . S
C615 C609 1.465 . S
C615 C614 1.396 . S
C615 C616 1.399 . S
C616 H602 0.929 1_556 S
C616 C615 1.399 . S
C616 C617 1.385 . S
C617 H603 0.931 . S
C617 C616 1.385 . S
C617 C618 1.389 . S
C618 C617 1.389 . S
C618 C619 1.387 . S
C619 H604 0.930 . S
C619 C614 1.390 . S
C619 C618 1.387 . S
H620 C632 0.930 . S
H621 C634 0.930 . S
H622 C635 0.930 . S
H623 C639 0.959 . S
H624 C639 0.959 . S
H625 C639 0.961 . S
H626 C640 0.960 . S
H627 C640 0.961 1_556 S
H628 C640 0.959 . S
H629 C643 0.929 1_655 S
H630 C644 0.931 . S
H631 C646 0.930 . S
C632 H620 0.930 . S
C632 C633 1.399 . S
C632 C637 1.399 . S
C633 C632 1.399 . S
C633 C634 1.376 . S
C634 H621 0.930 . S
C634 C633 1.376 . S
C634 C635 1.388 . S
C635 H622 0.930 . S
C635 C634 1.388 . S
C635 C636 1.390 . S
C636 C635 1.390 . S
C636 C637 1.394 . S
C636 C642 1.465 . S
C637 C632 1.399 . S
C637 C636 1.394 . S
C637 C638 1.516 1_554 S
C638 C637 1.516 1_556 S
C638 C639 1.502 . S
C638 C640 1.561 1_556 S
C638 C641 1.526 . S
C639 H623 0.959 . S
C639 H624 0.959 . S
C639 H625 0.961 . S
C639 C638 1.502 . S
C640 H626 0.960 . S
C640 H627 0.961 1_554 S
C640 H628 0.959 . S
C640 C638 1.561 1_554 S
C641 C638 1.526 . S
C641 C642 1.396 1_556 S
C641 C646 1.390 . S
C642 C636 1.465 . S
C642 C641 1.396 1_554 S
C642 C643 1.399 . S
C643 H629 0.929 1_455 S
C643 C642 1.399 . S
C643 C644 1.385 1_554 S
C644 H630 0.931 . S
C644 C643 1.385 1_556 S
C644 C645 1.389 . S
C645 C644 1.389 . S
C645 C646 1.387 . S
C646 H631 0.930 . S
C646 C641 1.390 . S
C646 C645 1.387 . S
H647 C659 0.930 . S
H648 C661 0.930 . S
H649 C662 0.930 1_556 S
H650 C666 0.959 . S
H651 C666 0.959 1_565 S
H652 C666 0.956 1_565 S
H653 C667 0.960 . S
H654 C667 0.961 . S
H655 C667 0.959 1_556 S
H656 C670 0.929 . S
H657 C671 0.931 . S
H658 C673 0.930 . S
C659 H647 0.930 . S
C659 C660 1.399 . S
C659 C664 1.399 . S
C660 C659 1.399 . S
C660 C661 1.376 . S
C661 H648 0.930 . S
C661 C660 1.376 . S
C661 C662 1.388 . S
C662 H649 0.930 1_554 S
C662 C661 1.388 . S
C662 C663 1.390 . S
C663 C662 1.390 . S
C663 C664 1.394 . S
C663 C669 1.465 1_554 S
C664 C659 1.399 . S
C664 C663 1.394 . S
C664 C665 1.516 . S
C665 C664 1.516 . S
C665 C666 1.502 . S
C665 C667 1.561 1_545 S
C665 C668 1.526 . S
C666 H650 0.959 . S
C666 H651 0.959 1_545 S
C666 H652 0.956 1_545 S
C666 C665 1.502 . S
C667 H653 0.960 . S
C667 H654 0.961 . S
C667 H655 0.959 1_554 S
C667 C665 1.561 1_565 S
C668 C665 1.526 . S
C668 C669 1.396 1_554 S
C668 C673 1.390 1_554 S
C669 C663 1.465 1_556 S
C669 C668 1.396 1_556 S
C669 C670 1.399 . S
C670 H656 0.929 . S
C670 C669 1.399 . S
C670 C671 1.385 . S
C671 H657 0.931 . S
C671 C670 1.385 . S
C671 C672 1.389 . S
C672 C671 1.389 . S
C672 C673 1.387 . S
C673 H658 0.930 . S
C673 C668 1.390 1_556 S
C673 C672 1.387 . S
H674 C686 0.930 . S
H675 C688 0.930 . S
H676 C689 0.930 . S
H677 C693 0.959 . S
H678 C693 0.959 . S
H679 C693 0.961 . S
H680 C694 0.960 . S
H681 C694 0.961 . S
H682 C694 0.959 . S
H683 C697 0.929 . S
H684 C698 0.931 . S
H685 C700 0.930 . S
C686 H674 0.930 . S
C686 C687 1.399 . S
C686 C691 1.399 . S
C687 C686 1.399 . S
C687 C688 1.376 . S
C688 H675 0.930 . S
C688 C687 1.376 . S
C688 C689 1.388 . S
C689 H676 0.930 . S
C689 C688 1.388 . S
C689 C690 1.390 . S
C690 C689 1.390 . S
C690 C691 1.394 . S
C690 C696 1.465 . S
C691 C686 1.399 . S
C691 C690 1.394 . S
C691 C692 1.516 1_554 S
C692 C691 1.516 1_556 S
C692 C693 1.502 . S
C692 C694 1.561 . S
C692 C695 1.526 . S
C693 H677 0.959 . S
C693 H678 0.959 . S
C693 H679 0.961 . S
C693 C692 1.502 . S
C694 H680 0.960 . S
C694 H681 0.961 . S
C694 H682 0.959 . S
C694 C692 1.561 . S
C695 C692 1.526 . S
C695 C696 1.396 1_556 S
C695 C700 1.390 . S
C696 C690 1.465 . S
C696 C695 1.396 1_554 S
C696 C697 1.399 . S
C697 H683 0.929 . S
C697 C696 1.399 . S
C697 C698 1.385 1_554 S
C698 H684 0.931 . S
C698 C697 1.385 1_556 S
C698 C699 1.389 . S
C699 C698 1.389 . S
C699 C700 1.387 . S
C700 H685 0.930 . S
C700 C695 1.390 . S
C700 C699 1.387 . S
H701 C713 0.930 . S
H702 C715 0.930 . S
H703 C716 0.930 1_556 S
H704 C720 0.959 . S
H705 C720 0.959 . S
H706 C720 0.961 . S
H707 C721 0.960 . S
H708 C721 0.961 . S
H709 C721 0.959 . S
H710 C724 0.929 . S
H711 C725 0.931 . S
H712 C727 0.930 1_554 S
C713 H701 0.930 . S
C713 C714 1.399 . S
C713 C718 1.399 . S
C714 C713 1.399 . S
C714 C715 1.376 . S
C715 H702 0.930 . S
C715 C714 1.376 . S
C715 C716 1.388 . S
C716 H703 0.930 1_554 S
C716 C715 1.388 . S
C716 C717 1.390 . S
C717 C716 1.390 . S
C717 C718 1.394 . S
C717 C723 1.465 1_554 S
C718 C713 1.399 . S
C718 C717 1.394 . S
C718 C719 1.516 . S
C719 C718 1.516 . S
C719 C720 1.502 . S
C719 C721 1.561 . S
C719 C722 1.526 . S
C720 H704 0.959 . S
C720 H705 0.959 . S
C720 H706 0.961 . S
C720 C719 1.502 . S
C721 H707 0.960 . S
C721 H708 0.961 . S
C721 H709 0.959 . S
C721 C719 1.561 . S
C722 C719 1.526 . S
C722 C723 1.396 1_554 S
C722 C727 1.390 1_554 S
C723 C717 1.465 1_556 S
C723 C722 1.396 1_556 S
C723 C724 1.399 . S
C724 H710 0.929 . S
C724 C723 1.399 . S
C724 C725 1.385 . S
C725 H711 0.931 . S
C725 C724 1.385 . S
C725 C726 1.389 . S
C726 C725 1.389 . S
C726 C727 1.387 . S
C727 H712 0.930 1_556 S
C727 C722 1.390 1_556 S
C727 C726 1.387 . S
H728 C740 0.930 . S
H729 C742 0.930 . S
H730 C743 0.930 . S
H731 C747 0.959 . S
H732 C747 0.959 . S
H733 C747 0.961 . S
H734 C748 0.960 . S
H735 C748 0.961 . S
H736 C748 0.959 . S
H737 C751 0.929 . S
H738 C752 0.931 . S
H739 C754 0.930 . S
C740 H728 0.930 . S
C740 C741 1.399 . S
C740 C745 1.399 . S
C741 C740 1.399 . S
C741 C742 1.376 . S
C742 H729 0.930 . S
C742 C741 1.376 . S
C742 C743 1.388 . S
C743 H730 0.930 . S
C743 C742 1.388 . S
C743 C744 1.390 . S
C744 C743 1.390 . S
C744 C745 1.394 . S
C744 C750 1.465 . S
C745 C740 1.399 . S
C745 C744 1.394 . S
C745 C746 1.516 . S
C746 C745 1.516 . S
C746 C747 1.502 . S
C746 C748 1.561 1_655 S
C746 C749 1.526 . S
C747 H731 0.959 . S
C747 H732 0.959 . S
C747 H733 0.961 . S
C747 C746 1.502 . S
C748 H734 0.960 . S
C748 H735 0.961 . S
C748 H736 0.959 . S
C748 C746 1.561 1_455 S
C749 C746 1.526 . S
C749 C750 1.396 . S
C749 C754 1.390 . S
C750 C744 1.465 . S
C750 C749 1.396 . S
C750 C751 1.399 . S
C751 H737 0.929 . S
C751 C750 1.399 . S
C751 C752 1.385 . S
C752 H738 0.931 . S
C752 C751 1.385 . S
C752 C753 1.389 . S
C753 C752 1.389 . S
C753 C754 1.387 . S
C754 H739 0.930 . S
C754 C749 1.390 . S
C754 C753 1.387 . S
H755 C767 0.930 . S
H756 C769 0.930 . S
H757 C770 0.930 . S
H758 C774 0.959 . S
H759 C774 0.959 . S
H760 C774 0.961 . S
H761 C775 0.960 . S
H762 C775 0.961 . S
H763 C775 0.959 . S
H764 C778 0.929 . S
H765 C779 0.931 . S
H766 C781 0.930 . S
C767 H755 0.930 . S
C767 C768 1.399 . S
C767 C772 1.399 . S
C768 C767 1.399 . S
C768 C769 1.376 1_565 S
C769 H756 0.930 . S
C769 C768 1.376 1_545 S
C769 C770 1.388 . S
C770 H757 0.930 . S
C770 C769 1.388 . S
C770 C771 1.390 1_545 S
C771 C770 1.390 1_565 S
C771 C772 1.394 . S
C771 C777 1.465 . S
C772 C767 1.399 . S
C772 C771 1.394 . S
C772 C773 1.516 . S
C773 C772 1.516 . S
C773 C774 1.502 . S
C773 C775 1.561 . S
C773 C776 1.526 . S
C774 H758 0.959 . S
C774 H759 0.959 . S
C774 H760 0.961 . S
C774 C773 1.502 . S
C775 H761 0.960 . S
C775 H762 0.961 . S
C775 H763 0.959 . S
C775 C773 1.561 . S
C776 C773 1.526 . S
C776 C777 1.396 . S
C776 C781 1.390 . S
C777 C771 1.465 . S
C777 C776 1.396 . S
C777 C778 1.399 1_565 S
C778 H764 0.929 . S
C778 C777 1.399 1_545 S
C778 C779 1.385 . S
C779 H765 0.931 . S
C779 C778 1.385 . S
C779 C780 1.389 1_545 S
C780 C779 1.389 1_565 S
C780 C781 1.387 . S
C781 H766 0.930 . S
C781 C776 1.390 . S
C781 C780 1.387 . S
H782 C794 0.930 . S
H783 C796 0.930 . S
H784 C797 0.930 . S
H785 C801 0.959 . S
H786 C801 0.959 . S
H787 C801 0.961 . S
H788 C802 0.960 . S
H789 C802 0.961 . S
H790 C802 0.959 . S
H791 C805 0.929 . S
H792 C806 0.931 . S
H793 C808 0.930 . S
C794 H782 0.930 . S
C794 C795 1.399 . S
C794 C799 1.399 . S
C795 C794 1.399 . S
C795 C796 1.376 . S
C796 H783 0.930 . S
C796 C795 1.376 . S
C796 C797 1.388 . S
C797 H784 0.930 . S
C797 C796 1.388 . S
C797 C798 1.390 . S
C798 C797 1.390 . S
C798 C799 1.394 . S
C798 C804 1.465 . S
C799 C794 1.399 . S
C799 C798 1.394 . S
C799 C800 1.516 . S
C800 C799 1.516 . S
C800 C801 1.502 . S
C800 C802 1.561 . S
C800 C803 1.526 . S
C801 H785 0.959 . S
C801 H786 0.959 . S
C801 H787 0.961 . S
C801 C800 1.502 . S
C802 H788 0.960 . S
C802 H789 0.961 . S
C802 H790 0.959 . S
C802 C800 1.561 . S
C803 C800 1.526 . S
C803 C804 1.396 . S
C803 C808 1.390 . S
C804 C798 1.465 . S
C804 C803 1.396 . S
C804 C805 1.399 . S
C805 H791 0.929 . S
C805 C804 1.399 . S
C805 C806 1.385 . S
C806 H792 0.931 . S
C806 C805 1.385 . S
C806 C807 1.389 . S
C807 C806 1.389 . S
C807 C808 1.387 . S
C808 H793 0.930 . S
C808 C803 1.390 . S
C808 C807 1.387 . S
H809 C821 0.930 . S
H810 C823 0.930 . S
H811 C824 0.930 . S
H812 C828 0.959 . S
H813 C828 0.959 . S
H814 C828 0.961 . S
H815 C829 0.960 . S
H816 C829 0.961 . S
H817 C829 0.959 . S
H818 C832 0.929 . S
H819 C833 0.931 . S
H820 C835 0.930 . S
C821 H809 0.930 . S
C821 C822 1.399 . S
C821 C826 1.399 . S
C822 C821 1.399 . S
C822 C823 1.376 . S
C823 H810 0.930 . S
C823 C822 1.376 . S
C823 C824 1.388 . S
C824 H811 0.930 . S
C824 C823 1.388 . S
C824 C825 1.390 . S
C825 C824 1.390 . S
C825 C826 1.394 . S
C825 C831 1.465 . S
C826 C821 1.399 . S
C826 C825 1.394 . S
C826 C827 1.516 . S
C827 C826 1.516 . S
C827 C828 1.502 . S
C827 C829 1.561 . S
C827 C830 1.526 . S
C828 H812 0.959 . S
C828 H813 0.959 . S
C828 H814 0.961 . S
C828 C827 1.502 . S
C829 H815 0.960 . S
C829 H816 0.961 . S
C829 H817 0.959 . S
C829 C827 1.561 . S
C830 C827 1.526 . S
C830 C831 1.396 . S
C830 C835 1.390 . S
C831 C825 1.465 . S
C831 C830 1.396 . S
C831 C832 1.399 . S
C832 H818 0.929 . S
C832 C831 1.399 . S
C832 C833 1.385 . S
C833 H819 0.931 . S
C833 C832 1.385 . S
C833 C834 1.389 . S
C834 C833 1.389 . S
C834 C835 1.387 . S
C835 H820 0.930 . S
C835 C830 1.390 . S
C835 C834 1.387 . S
C201 C82 1.556 . S
C213 C120 1.376 . S
C240 C138 1.457 . S
C228 C95 1.523 . S
C267 C159 1.493 . S
C255 C56 1.474 . S
C294 C183 1.467 . S
C282 C69 1.514 . S
C321 C117 1.432 . S
C309 C30 1.438 . S
C336 C43 1.329 . S
C348 C141 1.296 . S
C363 C4 1.430 . S
C375 C162 1.411 . S
C390 C17 1.372 . S
C402 C180 1.389 . S
C429 C122 0.572 . S
C417 C74 0.748 . S
C456 C140 0.597 . S
C444 C87 0.705 . S
C483 C161 0.607 . S
C471 C100 0.724 . S
C498 C61 0.665 . S
C510 C185 0.632 . S
C525 C22 0.665 . S
C537 C121 0.728 . S
C564 C139 0.734 . S
C552 C35 0.661 . S
C591 C160 0.697 . S
C579 C48 0.811 . S
C606 C9 0.659 . S
C618 C184 0.771 . S
C633 C73 1.558 . S
C645 C118 1.525 . S
C660 C86 1.620 . S
C672 C142 1.579 . S
C699 C163 1.588 . S
C687 C99 1.574 . S
C726 C181 1.542 . S
C714 C60 1.621 . S
C741 C21 1.415 . S
C753 C119 1.446 1_655 S
C780 C143 1.371 1_565 S
C768 C34 1.475 . S
C807 C164 1.410 . S
C795 C47 1.430 . S
C822 C8 1.485 . S
C834 C182 1.370 . S
