# Generated by pormake.
# Topology hwx, (6,3)-cn, num edge types: 1
# Building blocks:
#     Node 0, Type 0, BuildingBlock: OJICUG_clean_sbu_0, # of connection points: 6
#     Node 1, Type 0, BuildingBlock: OJICUG_clean_sbu_0, # of connection points: 6
#     Node 2, Type 0, BuildingBlock: OJICUG_clean_sbu_0, # of connection points: 6
#     Node 3, Type 0, BuildingBlock: OJICUG_clean_sbu_0, # of connection points: 6
#     Node 4, Type 1, BuildingBlock: BETDIP_clean_linker_0, # of connection points: 3
#     Node 5, Type 1, BuildingBlock: BETDIP_clean_linker_0, # of connection points: 3
#     Node 6, Type 1, BuildingBlock: BETDIP_clean_linker_0, # of connection points: 3
#     Node 7, Type 1, BuildingBlock: BETDIP_clean_linker_0, # of connection points: 3
#     Node 8, Type 1, BuildingBlock: BETDIP_clean_linker_0, # of connection points: 3
#     Node 9, Type 1, BuildingBlock: BETDIP_clean_linker_0, # of connection points: 3
#     Node 10, Type 1, BuildingBlock: BETDIP_clean_linker_0, # of connection points: 3
#     Node 11, Type 1, BuildingBlock: BETDIP_clean_linker_0, # of connection points: 3
#     Edge 12, Type (0, 1), BuildingBlock: EZIPEK_clean_linker_0, # of connection points: 2
#     Edge 13, Type (0, 1), BuildingBlock: EZIPEK_clean_linker_0, # of connection points: 2
#     Edge 14, Type (0, 1), BuildingBlock: EZIPEK_clean_linker_0, # of connection points: 2
#     Edge 15, Type (0, 1), BuildingBlock: EZIPEK_clean_linker_0, # of connection points: 2
#     Edge 16, Type (0, 1), BuildingBlock: EZIPEK_clean_linker_0, # of connection points: 2
#     Edge 17, Type (0, 1), BuildingBlock: EZIPEK_clean_linker_0, # of connection points: 2
#     Edge 18, Type (0, 1), BuildingBlock: EZIPEK_clean_linker_0, # of connection points: 2
#     Edge 19, Type (0, 1), BuildingBlock: EZIPEK_clean_linker_0, # of connection points: 2
#     Edge 20, Type (0, 1), BuildingBlock: EZIPEK_clean_linker_0, # of connection points: 2
#     Edge 21, Type (0, 1), BuildingBlock: EZIPEK_clean_linker_0, # of connection points: 2
#     Edge 22, Type (0, 1), BuildingBlock: EZIPEK_clean_linker_0, # of connection points: 2
#     Edge 23, Type (0, 1), BuildingBlock: EZIPEK_clean_linker_0, # of connection points: 2
#     Edge 24, Type (0, 1), BuildingBlock: EZIPEK_clean_linker_0, # of connection points: 2
#     Edge 25, Type (0, 1), BuildingBlock: EZIPEK_clean_linker_0, # of connection points: 2
#     Edge 26, Type (0, 1), BuildingBlock: EZIPEK_clean_linker_0, # of connection points: 2
#     Edge 27, Type (0, 1), BuildingBlock: EZIPEK_clean_linker_0, # of connection points: 2
#     Edge 28, Type (0, 1), BuildingBlock: EZIPEK_clean_linker_0, # of connection points: 2
#     Edge 29, Type (0, 1), BuildingBlock: EZIPEK_clean_linker_0, # of connection points: 2
#     Edge 30, Type (0, 1), BuildingBlock: EZIPEK_clean_linker_0, # of connection points: 2
#     Edge 31, Type (0, 1), BuildingBlock: EZIPEK_clean_linker_0, # of connection points: 2
#     Edge 32, Type (0, 1), BuildingBlock: EZIPEK_clean_linker_0, # of connection points: 2
#     Edge 33, Type (0, 1), BuildingBlock: EZIPEK_clean_linker_0, # of connection points: 2
#     Edge 34, Type (0, 1), BuildingBlock: EZIPEK_clean_linker_0, # of connection points: 2
#     Edge 35, Type (0, 1), BuildingBlock: EZIPEK_clean_linker_0, # of connection points: 2
# Relax obj value: 0.006
# Max RMSD: 0.040
# Mean RMSD: 0.038
data_MOF--net-hwx--node1-OJICUG_clean_sbu_0--node2-BETDIP_clean_linker_0--edge1-EZIPEK_clean_linker_0
_symmetry_space_group_name_H-M    P1
_symmetry_Int_Tables_number       1
_symmetry_cell_setting            triclinic
loop_
_symmetry_equiv_pos_as_xyz
'x, y, z'
_cell_length_a     39.104445
_cell_length_b     39.06568
_cell_length_c     14.995725
_cell_angle_alpha  91.912094
_cell_angle_beta   91.930606
_cell_angle_gamma 90.025893
loop_
_atom_site_label
_atom_site_type_symbol
_atom_site_fract_x
_atom_site_fract_y
_atom_site_fract_z
_atom_type_partial_charge
Sc0 Sc 0.22235 0.22111 0.11278 0.0
Sc1 Sc 0.16727 0.16737 0.98214 0.0
Sc2 Sc 0.2246 0.22158 0.87854 0.0
O3 O 0.20483 0.20347 -0.00887 0.0
C4 C 0.22157 0.28936 0.00036 0.0
C5 C 0.14348 0.21388 0.14748 0.0
C6 C 0.14368 0.21739 0.8325 0.0
C7 C 0.21479 0.14009 0.13696 0.0
C8 C 0.29133 0.2163 0.00731 0.0
C9 C 0.21457 0.14342 0.82254 0.0
O10 O 0.22313 0.27377 0.07352 0.0
O11 O 0.13926 0.18906 0.09152 0.0
O12 O 0.17416 0.22582 0.81459 0.0
O13 O 0.2241 0.17 0.16443 0.0
O14 O 0.27685 0.21976 0.93081 0.0
O15 O 0.18901 0.13972 0.8712 0.0
O16 O 0.275 0.21469 0.07888 0.0
O17 O 0.19589 0.13432 0.06761 0.0
O18 O 0.23194 0.17086 0.82185 0.0
O19 O 0.17152 0.23003 0.15912 0.0
O20 O 0.2202 0.27417 0.92405 0.0
O21 O 0.13652 0.1983 0.89615 0.0
Sc22 Sc 0.27464 0.72702 0.36769 0.0
Sc23 Sc 0.33304 0.67257 0.47401 0.0
Sc24 Sc 0.27532 0.72068 0.60136 0.0
O25 O 0.29434 0.70687 0.48142 0.0
C26 C 0.27958 0.79177 0.50083 0.0
C27 C 0.35412 0.72221 0.32452 0.0
C28 C 0.3553 0.71756 0.64729 0.0
C29 C 0.28025 0.64775 0.31801 0.0
C30 C 0.20718 0.72019 0.48043 0.0
C31 C 0.28836 0.64024 0.62234 0.0
O32 O 0.28243 0.77867 0.4222 0.0
O33 O 0.36216 0.70431 0.39089 0.0
O34 O 0.32561 0.72941 0.66108 0.0
O35 O 0.26487 0.67633 0.31141 0.0
O36 O 0.22263 0.714 0.55418 0.0
O37 O 0.30835 0.63724 0.55767 0.0
O38 O 0.22273 0.72717 0.41047 0.0
O39 O 0.3083 0.64511 0.36263 0.0
O40 O 0.27488 0.66863 0.6464 0.0
O41 O 0.32333 0.72961 0.3035 0.0
O42 O 0.27501 0.77409 0.56926 0.0
O43 O 0.36161 0.69597 0.58484 0.0
Sc44 Sc 0.78365 0.78642 0.90046 0.0
Sc45 Sc 0.83261 0.83639 0.05673 0.0
Sc46 Sc 0.77443 0.77557 0.12964 0.0
O47 O 0.79674 0.79949 0.02881 0.0
C48 C 0.71136 0.78457 -0.00486 0.0
C49 C 0.79173 0.86667 0.88932 0.0
C50 C 0.77849 0.85419 0.20051 0.0
C51 C 0.86541 0.79548 0.89714 0.0
C52 C 0.78419 0.71367 0.98738 0.0
C53 C 0.85035 0.78172 0.20566 0.0
O54 O 0.72959 0.78433 0.92637 0.0
O55 O 0.81458 0.86893 0.95143 0.0
O56 O 0.76931 0.82311 0.20814 0.0
O57 O 0.8365 0.78682 0.8615 0.0
O58 O 0.77694 0.72553 0.06442 0.0
O59 O 0.85554 0.80981 0.16779 0.0
O60 O 0.78932 0.73245 0.92158 0.0
O61 O 0.86881 0.81156 0.97191 0.0
O62 O 0.82326 0.76422 0.19145 0.0
O63 O 0.77634 0.83897 0.86656 0.0
O64 O 0.72368 0.78358 0.07452 0.0
O65 O 0.79932 0.86374 0.14325 0.0
Sc66 Sc 0.72129 0.28188 0.61187 0.0
Sc67 Sc 0.66682 0.33715 0.49345 0.0
Sc68 Sc 0.72255 0.28243 0.3774 0.0
O69 O 0.70365 0.30038 0.49424 0.0
C70 C 0.78987 0.28588 0.50149 0.0
C71 C 0.71251 0.36037 0.66503 0.0
C72 C 0.71638 0.36361 0.35004 0.0
C73 C 0.64013 0.28774 0.63704 0.0
C74 C 0.71881 0.21402 0.48939 0.0
C75 C 0.6443 0.29071 0.32249 0.0
O76 O 0.77405 0.28281 0.57359 0.0
O77 O 0.68784 0.36464 0.60947 0.0
O78 O 0.7257 0.33356 0.32548 0.0
O79 O 0.6701 0.27851 0.66231 0.0
O80 O 0.72192 0.22962 0.41689 0.0
O81 O 0.63984 0.31562 0.37726 0.0
O82 O 0.7164 0.2293 0.56509 0.0
O83 O 0.63425 0.30709 0.57196 0.0
O84 O 0.67218 0.2742 0.31792 0.0
O85 O 0.72899 0.3325 0.67069 0.0
O86 O 0.77488 0.28802 0.42532 0.0
O87 O 0.697 0.36961 0.41493 0.0
H88 H 0.24263 0.49386 0.81802 0.0
H89 H 0.23504 0.50288 0.10464 0.0
H90 H 0.2646 0.58954 0.95801 0.0
H91 H 0.23138 0.44774 0.10217 0.0
C92 C 0.23052 0.43687 0.03477 0.0
C93 C 0.2444 0.50894 0.87999 0.0
C94 C 0.25394 0.54351 0.87906 0.0
C95 C 0.23818 0.49351 0.96102 0.0
C96 C 0.24036 0.51355 0.04108 0.0
C97 C 0.25 0.54812 0.03974 0.0
C98 C 0.25694 0.56285 0.95886 0.0
N99 N 0.23109 0.45778 0.95905 0.0
H100 H 0.00943 0.73801 0.69288 0.0
H101 H 0.99165 0.72387 0.40812 0.0
H102 H 0.91528 0.77126 0.56898 0.0
H103 H 0.04688 0.72114 0.40071 0.0
C104 C 0.05906 0.71685 0.46531 0.0
C105 C 0.99338 0.74087 0.63327 0.0
C106 C 0.96053 0.7548 0.6401 0.0
C107 C 0.00573 0.73105 0.54938 0.0
C108 C 0.98385 0.73331 0.47282 0.0
C109 C 0.95136 0.74838 0.47934 0.0
C110 C 0.94039 0.75973 0.56311 0.0
N111 N 0.04038 0.72017 0.54481 0.0
H112 H 0.77458 0.50876 0.16394 0.0
H113 H 0.76375 0.50569 0.87624 0.0
H114 H 0.74614 0.41526 0.02215 0.0
H115 H 0.79586 0.55323 0.8858 0.0
C116 C 0.79031 0.56589 0.94915 0.0
C117 C 0.7702 0.49452 0.10132 0.0
C118 C 0.76039 0.46001 0.1018 0.0
C119 C 0.77266 0.51118 0.02018 0.0
C120 C 0.76441 0.49299 0.93926 0.0
C121 C 0.75529 0.45822 0.94005 0.0
C122 C 0.75421 0.44185 0.02129 0.0
N123 N 0.78066 0.54674 0.02325 0.0
H124 H 0.99935 0.26886 0.33873 0.0
H125 H 0.00144 0.27904 0.62687 0.0
H126 H 0.09174 0.2493 0.49153 0.0
H127 H 0.94617 0.27486 0.61323 0.0
C128 C 0.93714 0.2796 0.54568 0.0
C129 C 0.01324 0.26875 0.4025 0.0
C130 C 0.0479 0.25939 0.40598 0.0
C131 C 0.99593 0.276 0.48155 0.0
C132 C 0.01391 0.27418 0.56454 0.0
C133 C 0.04833 0.26418 0.56759 0.0
C134 C 0.06531 0.25783 0.48855 0.0
N135 N 0.96015 0.28252 0.47486 0.0
H136 H 0.73923 0.01151 0.68603 0.0
H137 H 0.7276 0.99872 0.39904 0.0
H138 H 0.75403 0.91306 0.55744 0.0
H139 H 0.72577 0.05417 0.3973 0.0
C140 C 0.72505 0.0658 0.46377 0.0
C141 C 0.73836 0.99525 0.626 0.0
C142 C 0.74656 0.96042 0.6313 0.0
C143 C 0.731 0.00962 0.54281 0.0
C144 C 0.73192 0.9885 0.46446 0.0
C145 C 0.74015 0.95366 0.47025 0.0
C146 C 0.7465 0.93974 0.5536 0.0
N147 N 0.72523 0.04559 0.541 0.0
H148 H 0.49607 0.22817 0.8236 0.0
H149 H 0.49962 0.23859 0.11136 0.0
H150 H 0.58947 0.25724 0.96453 0.0
H151 H 0.45171 0.20768 0.10279 0.0
C152 C 0.43927 0.21248 0.0387 0.0
C153 C 0.51037 0.23258 0.8861 0.0
C154 C 0.54473 0.24271 0.88533 0.0
C155 C 0.49392 0.22988 0.96736 0.0
C156 C 0.51216 0.23814 0.04817 0.0
C157 C 0.54681 0.24754 0.04707 0.0
C158 C 0.56299 0.24893 0.96566 0.0
N159 N 0.45847 0.22164 0.96438 0.0
H160 H 0.27634 0.99704 0.33132 0.0
H161 H 0.26679 0.99926 0.61749 0.0
H162 H 0.24668 0.08953 0.4702 0.0
H163 H 0.29605 0.95079 0.61287 0.0
C164 C 0.29163 0.939 0.54699 0.0
C165 C 0.27203 0.01105 0.39353 0.0
C166 C 0.26141 0.04525 0.39214 0.0
C167 C 0.27518 0.99428 0.47466 0.0
C168 C 0.26693 0.01206 0.55471 0.0
C169 C 0.25719 0.04663 0.55317 0.0
C170 C 0.25532 0.06314 0.47196 0.0
N171 N 0.28363 0.95891 0.4717 0.0
H172 H 0.50247 0.77241 0.1453 0.0
H173 H 0.50278 0.76973 0.8569 0.0
H174 H 0.41004 0.75125 -0.00923 0.0
H175 H 0.5537 0.79408 0.87389 0.0
C176 C 0.56434 0.78628 0.93775 0.0
C177 C 0.48898 0.77027 0.08103 0.0
C178 C 0.45402 0.76216 0.07665 0.0
C179 C 0.50691 0.77415 0.00229 0.0
C180 C 0.48946 0.76911 0.9188 0.0
C181 C 0.45448 0.7611 0.91524 0.0
C182 C 0.43689 0.75848 -0.00605 0.0
N183 N 0.54278 0.78015 0.00998 0.0
C184 C 0.10347 0.20134 0.26928 0.0
C185 C 0.11461 0.2238 0.20388 0.0
C186 C 0.07713 0.26897 0.26146 0.0
C187 C 0.0657 0.2463 0.32604 0.0
N188 N 0.05968 0.18831 0.37344 0.0
N189 N 0.10424 0.27434 0.11958 0.0
C190 C 0.07604 0.21149 0.32346 0.0
C191 C 0.09896 0.25625 0.1942 0.0
N192 N 0.12034 0.17127 0.28337 0.0
N193 N 0.06852 0.30284 0.26666 0.0
H194 H 0.1188 0.26466 0.06744 0.0
H195 H 0.09127 0.2969 0.1052 0.0
H196 H 0.05222 0.31297 0.31437 0.0
H197 H 0.07935 0.32119 0.22735 0.0
H198 H 0.11557 0.15566 0.33655 0.0
H199 H 0.14126 0.16342 0.2467 0.0
H200 H 0.06416 0.16204 0.36853 0.0
H201 H 0.03912 0.19504 0.41302 0.0
C202 C 0.30545 0.58886 0.71236 0.0
C203 C 0.27949 0.60921 0.67144 0.0
C204 C 0.23546 0.57947 0.75183 0.0
C205 C 0.26144 0.56042 0.79534 0.0
N206 N 0.31921 0.53946 0.80097 0.0
N207 N 0.22001 0.61569 0.62913 0.0
C208 C 0.29582 0.56252 0.76965 0.0
C209 C 0.24448 0.60186 0.68398 0.0
N210 N 0.33926 0.59592 0.70145 0.0
N211 N 0.20241 0.57718 0.77801 0.0
H212 H 0.22635 0.63099 0.5766 0.0
H213 H 0.1942 0.60915 0.62944 0.0
H214 H 0.19471 0.55979 0.82474 0.0
H215 H 0.18304 0.59362 0.75687 0.0
H216 H 0.35904 0.58529 0.73958 0.0
H217 H 0.34791 0.6138 0.65766 0.0
H218 H 0.34397 0.53729 0.77806 0.0
H219 H 0.31281 0.52024 0.84415 0.0
C220 C 0.86753 0.75356 0.35006 0.0
C221 C 0.87693 0.76926 0.27024 0.0
C222 C 0.93668 0.77032 0.32504 0.0
C223 C 0.9275 0.75173 0.40043 0.0
N224 N 0.88582 0.71513 0.46501 0.0
N225 N 0.92266 0.78065 0.17022 0.0
C226 C 0.89347 0.73963 0.40593 0.0
C227 C 0.91223 0.77391 0.25385 0.0
N228 N 0.8345 0.75412 0.37707 0.0
N229 N 0.96772 0.78623 0.32266 0.0
H230 H 0.90586 0.78077 0.11471 0.0
H231 H 0.9484 0.7817 0.15447 0.0
H232 H 0.98587 0.78601 0.37509 0.0
H233 H 0.97389 0.8026 0.27208 0.0
H234 H 0.82757 0.74521 0.43872 0.0
H235 H 0.81493 0.76738 0.34454 0.0
H236 H 0.86167 0.70387 0.46656 0.0
H237 H 0.90455 0.7035 0.50492 0.0
C238 C 0.75338 0.40638 0.71992 0.0
C239 C 0.72185 0.38904 0.7279 0.0
C240 C 0.70857 0.42661 0.85542 0.0
C241 C 0.74275 0.43895 0.85835 0.0
N242 N 0.79903 0.43859 0.79677 0.0
N243 N 0.67053 0.38007 0.80905 0.0
C244 C 0.76553 0.42862 0.79095 0.0
C245 C 0.69949 0.39868 0.7967 0.0
N246 N 0.77114 0.40235 0.64346 0.0
N247 N 0.68488 0.4417 0.90889 0.0
H248 H 0.66359 0.35876 0.76885 0.0
H249 H 0.65516 0.38383 0.86391 0.0
H250 H 0.69067 0.46275 0.95143 0.0
H251 H 0.6589 0.43568 0.90419 0.0
H252 H 0.79287 0.4166 0.63073 0.0
H253 H 0.76193 0.3874 0.58888 0.0
H254 H 0.8175 0.42864 0.7547 0.0
H255 H 0.80891 0.45494 0.84765 0.0
C256 C 0.59889 0.24932 0.26673 0.0
C257 C 0.61586 0.28112 0.25926 0.0
C258 C 0.5781 0.29436 0.13212 0.0
C259 C 0.5661 0.26004 0.12872 0.0
N260 N 0.56708 0.20351 0.18927 0.0
N261 N 0.62436 0.33269 0.17854 0.0
C262 C 0.57673 0.23714 0.19562 0.0
C263 C 0.60599 0.30355 0.19076 0.0
N264 N 0.6032 0.23135 0.34281 0.0
N265 N 0.56274 0.31809 0.07917 0.0
H266 H 0.64574 0.33965 0.21842 0.0
H267 H 0.62039 0.34816 0.12391 0.0
H268 H 0.54171 0.3122 0.03666 0.0
H269 H 0.56851 0.34413 0.08429 0.0
H270 H 0.58923 0.2094 0.35521 0.0
H271 H 0.61806 0.2406 0.3975 0.0
H272 H 0.57725 0.185 0.23094 0.0
H273 H 0.55079 0.19361 0.13831 0.0
C274 C 0.25532 0.0975 0.77441 0.0
C275 C 0.22378 0.11476 0.76126 0.0
C276 C 0.21044 0.07734 0.63116 0.0
C277 C 0.2447 0.06539 0.63341 0.0
N278 N 0.30109 0.06603 0.70445 0.0
N279 N 0.17255 0.1238 0.67081 0.0
C280 C 0.26752 0.07565 0.70488 0.0
C281 C 0.2014 0.10517 0.68846 0.0
N282 N 0.27303 0.10123 0.85415 0.0
N283 N 0.18667 0.06207 0.57396 0.0
H284 H 0.16582 0.14529 0.7093 0.0
H285 H 0.15717 0.11996 0.61326 0.0
H286 H 0.19246 0.04107 0.53233 0.0
H287 H 0.16067 0.06789 0.57471 0.0
H288 H 0.29476 0.08699 0.87024 0.0
H289 H 0.26375 0.11587 0.90756 0.0
H290 H 0.31951 0.07598 0.75002 0.0
H291 H 0.31104 0.05005 0.6547 0.0
C292 C 0.3872 0.7683 0.25027 0.0
C293 C 0.38193 0.73295 0.26622 0.0
C294 C 0.43022 0.71761 0.17187 0.0
C295 C 0.43506 0.75283 0.15609 0.0
N296 N 0.4241 0.81194 0.19263 0.0
N297 N 0.39885 0.67369 0.24523 0.0
C298 C 0.41544 0.77824 0.19971 0.0
C299 C 0.40391 0.70756 0.22883 0.0
N300 N 0.36459 0.79229 0.28073 0.0
N301 N 0.44968 0.69379 0.12781 0.0
H302 H 0.37704 0.66444 0.27444 0.0
H303 H 0.41642 0.65445 0.23121 0.0
H304 H 0.47037 0.70045 0.08977 0.0
H305 H 0.44511 0.66756 0.12618 0.0
H306 H 0.3647 0.8178 0.26296 0.0
H307 H 0.34392 0.78644 0.31921 0.0
H308 H 0.4132 0.83191 0.22942 0.0
H309 H 0.44464 0.8197 0.15545 0.0
C310 C 0.80589 0.90911 0.77441 0.0
C311 C 0.78318 0.89742 0.83847 0.0
C312 C 0.73788 0.93464 0.78054 0.0
C313 C 0.76027 0.94546 0.71472 0.0
N314 N 0.81795 0.95208 0.66672 0.0
N315 N 0.73253 0.9072 0.92222 0.0
C316 C 0.79524 0.93587 0.7183 0.0
C317 C 0.7507 0.91292 0.84801 0.0
N318 N 0.83668 0.89326 0.76336 0.0
N319 N 0.70412 0.94357 0.77585 0.0
H320 H 0.74213 0.89227 0.97379 0.0
H321 H 0.70991 0.91999 0.93676 0.0
H322 H 0.69417 0.96014 0.72846 0.0
H323 H 0.68577 0.93311 0.81574 0.0
H324 H 0.85261 0.89806 0.71093 0.0
H325 H 0.84525 0.87344 0.80313 0.0
H326 H 0.84429 0.9482 0.6714 0.0
H327 H 0.81062 0.97203 0.62559 0.0
C328 C 0.90182 0.74907 0.83354 0.0
C329 C 0.89649 0.78456 0.85037 0.0
C330 C 0.94486 0.7979 0.75769 0.0
C331 C 0.94529 0.76326 0.72711 0.0
N332 N 0.92558 0.7051 0.73608 0.0
N333 N 0.91363 0.84331 0.83309 0.0
C334 C 0.92466 0.73845 0.7665 0.0
C335 C 0.91875 0.80918 0.81549 0.0
N336 N 0.88523 0.7257 0.88252 0.0
N337 N 0.96922 0.81988 0.72999 0.0
H338 H 0.89559 0.85256 0.87735 0.0
H339 H 0.92608 0.86266 0.80083 0.0
H340 H 0.98841 0.81194 0.68726 0.0
H341 H 0.97234 0.84489 0.75505 0.0
H342 H 0.89014 0.69951 0.87904 0.0
H343 H 0.86878 0.73291 0.9332 0.0
H344 H 0.90809 0.68658 0.75352 0.0
H345 H 0.94311 0.69623 0.68974 0.0
C346 C 0.70462 0.41559 0.25916 0.0
C347 C 0.72857 0.39308 0.30004 0.0
C348 C 0.77562 0.42108 0.22653 0.0
C349 C 0.7516 0.44297 0.18472 0.0
N350 N 0.69532 0.46786 0.17906 0.0
N351 N 0.78713 0.38089 0.34376 0.0
C352 C 0.71681 0.44261 0.20783 0.0
C353 C 0.76425 0.39789 0.29038 0.0
N354 N 0.67023 0.40985 0.26386 0.0
N355 N 0.809 0.42162 0.20248 0.0
H356 H 0.77955 0.36445 0.39289 0.0
H357 H 0.81337 0.38554 0.3454 0.0
H358 H 0.81826 0.43953 0.15911 0.0
H359 H 0.827 0.40349 0.22211 0.0
H360 H 0.65186 0.42262 0.22571 0.0
H361 H 0.65978 0.3905 0.30047 0.0
H362 H 0.67049 0.47105 0.20088 0.0
H363 H 0.70342 0.48769 0.1399 0.0
C364 C 0.11157 0.26619 0.76488 0.0
C365 C 0.11505 0.23038 0.77605 0.0
C366 C 0.06533 0.21988 0.67509 0.0
C367 C 0.06607 0.2547 0.65184 0.0
N368 N 0.0895 0.31147 0.67212 0.0
N369 N 0.09648 0.17244 0.73732 0.0
C370 C 0.08885 0.27813 0.6968 0.0
C371 C 0.09188 0.20701 0.73127 0.0
N372 N 0.12925 0.2887 0.82097 0.0
N373 N 0.03947 0.19902 0.64216 0.0
H374 H 0.11534 0.16147 0.77768 0.0
H375 H 0.08324 0.15438 0.69685 0.0
H376 H 0.01998 0.20745 0.59911 0.0
H377 H 0.03545 0.17435 0.66392 0.0
H378 H 0.12551 0.31509 0.82137 0.0
H379 H 0.14534 0.28077 0.87321 0.0
H380 H 0.10829 0.32891 0.6945 0.0
H381 H 0.07197 0.32121 0.62547 0.0
C382 C 0.28619 0.58632 0.25917 0.0
C383 C 0.26667 0.61692 0.26528 0.0
C384 C 0.22923 0.59543 0.1413 0.0
C385 C 0.25355 0.56934 0.12319 0.0
N386 N 0.30647 0.54069 0.16229 0.0
N387 N 0.20922 0.63864 0.24693 0.0
C388 C 0.28217 0.56466 0.182 0.0
C389 C 0.23497 0.61823 0.21629 0.0
N390 N 0.30594 0.57614 0.33031 0.0
N391 N 0.20116 0.5989 0.08547 0.0
H392 H 0.21086 0.65138 0.30911 0.0
H393 H 0.18467 0.6391 0.21805 0.0
H394 H 0.1949 0.58125 0.03372 0.0
H395 H 0.18497 0.62004 0.0876 0.0
H396 H 0.31878 0.55277 0.331 0.0
H397 H 0.30471 0.58799 0.39344 0.0
H398 H 0.32978 0.53923 0.19777 0.0
H399 H 0.3047 0.52414 0.10632 0.0
C400 C 0.40193 0.7045 0.75948 0.0
C401 C 0.38397 0.72893 0.70802 0.0
C402 C 0.41782 0.77532 0.78143 0.0
C403 C 0.43607 0.75065 0.83104 0.0
N404 N 0.45207 0.6919 0.85179 0.0
N405 N 0.37949 0.78649 0.65527 0.0
C406 C 0.43045 0.71522 0.81402 0.0
C407 C 0.3934 0.76408 0.71435 0.0
N408 N 0.39017 0.6716 0.76153 0.0
N409 N 0.42288 0.80938 0.80108 0.0
H410 H 0.36154 0.779 0.60551 0.0
H411 H 0.3877 0.81172 0.65078 0.0
H412 H 0.4417 0.81829 0.84714 0.0
H413 H 0.40747 0.82864 0.77515 0.0
H414 H 0.40009 0.65353 0.80484 0.0
H415 H 0.36809 0.66332 0.72653 0.0
H416 H 0.45117 0.66578 0.83553 0.0
H417 H 0.47309 0.69914 0.8929 0.0
C418 C 0.73255 0.88942 0.27347 0.0
C419 C 0.76757 0.88038 0.26698 0.0
C420 C 0.78368 0.92636 0.37485 0.0
C421 C 0.74864 0.93234 0.39047 0.0
N422 N 0.6893 0.91833 0.36088 0.0
N423 N 0.82593 0.88579 0.32411 0.0
C424 C 0.72285 0.91365 0.34115 0.0
C425 C 0.79305 0.89776 0.32078 0.0
N426 N 0.70882 0.87568 0.21353 0.0
N427 N 0.80803 0.94812 0.41193 0.0
H428 H 0.83373 0.86398 0.28833 0.0
H429 H 0.84467 0.8953 0.36937 0.0
H430 H 0.80201 0.96953 0.45177 0.0
H431 H 0.83373 0.94694 0.39593 0.0
H432 H 0.68348 0.88381 0.20921 0.0
H433 H 0.7151 0.85793 0.1632 0.0
H434 H 0.66956 0.90277 0.33453 0.0
H435 H 0.68144 0.93675 0.40782 0.0
C436 C 0.60602 0.23958 0.69536 0.0
C437 C 0.61066 0.27535 0.68634 0.0
C438 C 0.56148 0.2867 0.77973 0.0
C439 C 0.56139 0.25181 0.80227 0.0
N440 N 0.58273 0.19443 0.7828 0.0
N441 N 0.59373 0.3336 0.72334 0.0
C442 C 0.58312 0.22792 0.75943 0.0
C443 C 0.5882 0.29913 0.7279 0.0
N444 N 0.62297 0.21691 0.64129 0.0
N445 N 0.5363 0.30802 0.80955 0.0
H446 H 0.61281 0.3442 0.68616 0.0
H447 H 0.58102 0.35188 0.76196 0.0
H448 H 0.51669 0.29972 0.84907 0.0
H449 H 0.53292 0.33294 0.7883 0.0
H450 H 0.61846 0.19062 0.63921 0.0
H451 H 0.63925 0.22473 0.5921 0.0
H452 H 0.60079 0.1765 0.76233 0.0
H453 H 0.56503 0.18498 0.82641 0.0
C454 C 0.26317 0.10612 0.20147 0.0
C455 C 0.22736 0.11057 0.18764 0.0
C456 C 0.2166 0.06177 0.28095 0.0
C457 C 0.25164 0.06193 0.30809 0.0
N458 N 0.30887 0.08337 0.29555 0.0
N459 N 0.16938 0.09328 0.21569 0.0
C460 C 0.27524 0.08353 0.26774 0.0
C461 C 0.20385 0.08811 0.22622 0.0
N462 N 0.28546 0.12295 0.14985 0.0
N463 N 0.1955 0.03665 0.30897 0.0
H464 H 0.15867 0.11187 0.17528 0.0
H465 H 0.15123 0.08067 0.25184 0.0
H466 H 0.20407 0.01729 0.35039 0.0
H467 H 0.17045 0.03307 0.28473 0.0
H468 H 0.31173 0.11857 0.15139 0.0
H469 H 0.2773 0.13895 0.09902 0.0
H470 H 0.32665 0.1014 0.27685 0.0
H471 H 0.31862 0.06592 0.34106 0.0
C472 C 0.25308 0.34402 0.97756 0.0
C473 C 0.22313 0.3272 0.00449 0.0
C474 C 0.19884 0.38211 0.05463 0.0
C475 C 0.22784 0.39916 0.02284 0.0
N476 N 0.28159 0.39739 0.94805 0.0
N477 N 0.16531 0.32986 0.05415 0.0
C478 C 0.25455 0.38043 0.98181 0.0
C479 C 0.19542 0.34616 0.03929 0.0
N480 N 0.28082 0.3251 0.95247 0.0
N481 N 0.17467 0.40027 0.10003 0.0
H482 H 0.16202 0.30362 0.04229 0.0
H483 H 0.14284 0.34248 0.07056 0.0
H484 H 0.17524 0.42687 0.10849 0.0
H485 H 0.15515 0.38889 0.13417 0.0
H486 H 0.30485 0.33549 0.9426 0.0
H487 H 0.2807 0.29842 0.94748 0.0
H488 H 0.2994 0.38576 0.90686 0.0
H489 H 0.28558 0.42365 0.9576 0.0
C490 C 0.1505 0.74968 0.45667 0.0
C491 C 0.16918 0.71934 0.47477 0.0
C492 C 0.11557 0.68816 0.49339 0.0
C493 C 0.09692 0.71789 0.47085 0.0
N494 N 0.09572 0.77585 0.42021 0.0
N495 N 0.16942 0.65798 0.48365 0.0
C496 C 0.11415 0.74833 0.44907 0.0
C497 C 0.15171 0.68808 0.48637 0.0
N498 N 0.16747 0.77999 0.44889 0.0
N499 N 0.09878 0.65988 0.5208 0.0
H500 H 0.19543 0.65704 0.47075 0.0
H501 H 0.15783 0.63397 0.48334 0.0
H502 H 0.07219 0.6585 0.52322 0.0
H503 H 0.11134 0.63882 0.54733 0.0
H504 H 0.15544 0.80374 0.44769 0.0
H505 H 0.19402 0.78177 0.44841 0.0
H506 H 0.10667 0.7972 0.39271 0.0
H507 H 0.06905 0.77667 0.41876 0.0
C508 C 0.81287 0.65801 0.0214 0.0
C509 C 0.78691 0.67602 0.97407 0.0
C510 C 0.7666 0.62223 0.90128 0.0
C511 C 0.79016 0.6039 0.95564 0.0
N512 N 0.83492 0.60346 0.07033 0.0
N513 N 0.73637 0.6755 0.87723 0.0
C514 C 0.81299 0.62155 0.01685 0.0
C515 C 0.76321 0.65824 0.91557 0.0
N516 N 0.83833 0.67586 0.06734 0.0
N517 N 0.74737 0.60522 0.83602 0.0
H518 H 0.733 0.70188 0.8856 0.0
H519 H 0.7159 0.66348 0.8428 0.0
H520 H 0.74773 0.57867 0.82625 0.0
H521 H 0.7328 0.61753 0.78736 0.0
H522 H 0.86002 0.66451 0.09549 0.0
H523 H 0.83936 0.70256 0.07107 0.0
H524 H 0.84899 0.61439 0.12416 0.0
H525 H 0.83796 0.57699 0.06369 0.0
C526 C 0.84561 0.3122 0.555 0.0
C527 C 0.82778 0.28557 0.50657 0.0
C528 C 0.8822 0.25725 0.47373 0.0
C529 C 0.89969 0.28235 0.5288 0.0
N530 N 0.89839 0.33172 0.62962 0.0
N531 N 0.82805 0.2305 0.42872 0.0
C532 C 0.88146 0.30922 0.57184 0.0
C533 C 0.8458 0.25766 0.46735 0.0
N534 N 0.82836 0.34094 0.58189 0.0
N535 N 0.90028 0.23261 0.42873 0.0
H536 H 0.80144 0.22975 0.42218 0.0
H537 H 0.83934 0.20748 0.40899 0.0
H538 H 0.92655 0.22916 0.43804 0.0
H539 H 0.88956 0.21655 0.37848 0.0
H540 H 0.84022 0.3629 0.60935 0.0
H541 H 0.8022 0.34397 0.56935 0.0
H542 H 0.88608 0.34923 0.67134 0.0
H543 H 0.9249 0.33159 0.6401 0.0
C544 C 0.74885 0.1589 0.52224 0.0
C545 C 0.71982 0.17604 0.48594 0.0
C546 C 0.6952 0.1211 0.43156 0.0
C547 C 0.72318 0.10376 0.47256 0.0
N548 N 0.77592 0.10532 0.56118 0.0
N549 N 0.66312 0.17397 0.41865 0.0
C550 C 0.74966 0.12242 0.51979 0.0
C551 C 0.69242 0.15726 0.44371 0.0
N552 N 0.77645 0.17756 0.55481 0.0
N553 N 0.67133 0.10299 0.38055 0.0
H554 H 0.66034 0.20037 0.42738 0.0
H555 H 0.64068 0.16166 0.39628 0.0
H556 H 0.67126 0.07632 0.37416 0.0
H557 H 0.65273 0.11436 0.3401 0.0
H558 H 0.80004 0.16694 0.57214 0.0
H559 H 0.77675 0.20425 0.5589 0.0
H560 H 0.79331 0.1169 0.60683 0.0
H561 H 0.77974 0.07903 0.55298 0.0
C562 C 0.34715 0.24064 0.06738 0.0
C563 C 0.32925 0.21525 0.01427 0.0
C564 C 0.38377 0.18888 0.97321 0.0
C565 C 0.40137 0.21277 0.03153 0.0
N566 N 0.40012 0.25833 0.14403 0.0
N567 N 0.32969 0.16224 0.92735 0.0
C568 C 0.38311 0.2376 0.08201 0.0
C569 C 0.34736 0.18865 0.96956 0.0
N570 N 0.33005 0.26867 0.1 0.0
N571 N 0.40185 0.16622 0.92176 0.0
H572 H 0.30308 0.16121 0.92371 0.0
H573 H 0.34114 0.14008 0.90211 0.0
H574 H 0.42836 0.16363 0.92776 0.0
H575 H 0.39086 0.15118 0.86981 0.0
H576 H 0.34221 0.28996 0.13033 0.0
H577 H 0.30381 0.27225 0.08969 0.0
H578 H 0.3878 0.27401 0.19034 0.0
H579 H 0.42666 0.25818 0.15377 0.0
C580 C 0.25665 0.84858 0.55694 0.0
C581 C 0.28299 0.82947 0.51503 0.0
C582 C 0.31467 0.88253 0.4924 0.0
C583 C 0.28925 0.90128 0.53802 0.0
N584 N 0.23909 0.90231 0.62718 0.0
N585 N 0.34127 0.82735 0.46746 0.0
C586 C 0.26124 0.88431 0.57476 0.0
C587 C 0.31315 0.8462 0.48911 0.0
N588 N 0.2267 0.83294 0.57684 0.0
N589 N 0.3404 0.89936 0.45253 0.0
H590 H 0.34174 0.80071 0.46906 0.0
H591 H 0.36514 0.83809 0.45717 0.0
H592 H 0.34355 0.92588 0.45779 0.0
H593 H 0.35724 0.88722 0.4094 0.0
H594 H 0.20497 0.8462 0.59639 0.0
H595 H 0.22254 0.80673 0.56813 0.0
H596 H 0.2206 0.89081 0.66462 0.0
H597 H 0.24074 0.92875 0.63872 0.0
C598 C 0.65482 0.7544 -0.01001 0.0
C599 C 0.67372 0.78507 0.98179 0.0
C600 C 0.62138 0.81576 0.93832 0.0
C601 C 0.60208 0.78568 0.95198 0.0
N602 N 0.59942 0.72654 -0.00667 0.0
N603 N 0.67545 0.84583 0.96114 0.0
C604 C 0.61851 0.75508 0.97907 0.0
C605 C 0.65714 0.81598 0.95904 0.0
N606 N 0.6718 0.72436 0.0046 0.0
N607 N 0.60553 0.84411 0.90535 0.0
H608 H 0.70165 0.84675 0.97634 0.0
H609 H 0.6645 0.86995 0.95507 0.0
H610 H 0.57912 0.84587 0.89463 0.0
H611 H 0.61864 0.86528 0.88349 0.0
H612 H 0.66025 0.70035 0.00105 0.0
H613 H 0.69827 0.72304 0.0151 0.0
H614 H 0.60898 0.70497 0.02448 0.0
H615 H 0.57337 0.72465 0.9768 0.0
loop_
_geom_bond_atom_site_label_1
_geom_bond_atom_site_label_2
_geom_bond_distance
_geom_bond_site_symmetry_2
_ccdc_geom_bond_type
Sc0 O3 2.025 . S
Sc0 O10 2.105 . S
Sc0 O13 2.105 . S
Sc0 O16 2.105 . S
Sc0 O19 2.105 . S
Sc1 O3 2.025 . S
Sc1 O11 2.114 . S
Sc1 O15 2.096 1_554 S
Sc1 O17 2.114 . S
Sc1 O21 2.096 1_554 S
Sc2 O3 2.025 1_556 S
Sc2 O12 2.105 . S
Sc2 O14 2.105 . S
Sc2 O18 2.105 . S
Sc2 O20 2.105 . S
O3 Sc0 2.025 . S
O3 Sc1 2.025 . S
O3 Sc2 2.025 1_554 S
C4 O10 1.268 . S
C4 O20 1.268 1_554 S
C5 O11 1.268 . S
C5 O19 1.268 . S
C6 O12 1.268 . S
C6 O21 1.268 . S
C7 O13 1.268 . S
C7 O17 1.268 . S
C8 O14 1.268 1_554 S
C8 O16 1.268 . S
C9 O15 1.268 . S
C9 O18 1.268 . S
O10 Sc0 2.105 . S
O10 C4 1.268 . S
O11 Sc1 2.114 . S
O11 C5 1.268 . S
O12 Sc2 2.105 . S
O12 C6 1.268 . S
O13 Sc0 2.105 . S
O13 C7 1.268 . S
O14 Sc2 2.105 . S
O14 C8 1.268 1_556 S
O15 Sc1 2.096 1_556 S
O15 C9 1.268 . S
O16 Sc0 2.105 . S
O16 C8 1.268 . S
O17 Sc1 2.114 . S
O17 C7 1.268 . S
O18 Sc2 2.105 . S
O18 C9 1.268 . S
O19 Sc0 2.105 . S
O19 C5 1.268 . S
O20 Sc2 2.105 . S
O20 C4 1.268 1_556 S
O21 Sc1 2.096 1_556 S
O21 C6 1.268 . S
Sc22 O25 2.025 . S
Sc22 O32 2.105 . S
Sc22 O35 2.105 . S
Sc22 O38 2.105 . S
Sc22 O41 2.105 . S
Sc23 O25 2.025 . S
Sc23 O33 2.105 . S
Sc23 O37 2.105 . S
Sc23 O39 2.105 . S
Sc23 O43 2.105 . S
Sc24 O25 2.025 . S
Sc24 O34 2.105 . S
Sc24 O36 2.105 . S
Sc24 O40 2.105 . S
Sc24 O42 2.105 . S
O25 Sc22 2.025 . S
O25 Sc23 2.025 . S
O25 Sc24 2.025 . S
C26 O32 1.268 . S
C26 O42 1.268 . S
C27 O33 1.268 . S
C27 O41 1.268 . S
C28 O34 1.268 . S
C28 O43 1.268 . S
C29 O35 1.268 . S
C29 O39 1.268 . S
C30 O36 1.268 . S
C30 O38 1.268 . S
C31 O37 1.268 . S
C31 O40 1.268 . S
O32 Sc22 2.105 . S
O32 C26 1.268 . S
O33 Sc23 2.105 . S
O33 C27 1.268 . S
O34 Sc24 2.105 . S
O34 C28 1.268 . S
O35 Sc22 2.105 . S
O35 C29 1.268 . S
O36 Sc24 2.105 . S
O36 C30 1.268 . S
O37 Sc23 2.105 . S
O37 C31 1.268 . S
O38 Sc22 2.105 . S
O38 C30 1.268 . S
O39 Sc23 2.105 . S
O39 C29 1.268 . S
O40 Sc24 2.105 . S
O40 C31 1.268 . S
O41 Sc22 2.105 . S
O41 C27 1.268 . S
O42 Sc24 2.105 . S
O42 C26 1.268 . S
O43 Sc23 2.105 . S
O43 C28 1.268 . S
Sc44 O47 2.025 1_556 S
Sc44 O54 2.105 . S
Sc44 O57 2.105 . S
Sc44 O60 2.105 . S
Sc44 O63 2.105 . S
Sc45 O47 2.025 . S
Sc45 O55 2.105 1_554 S
Sc45 O59 2.105 . S
Sc45 O61 2.105 1_554 S
Sc45 O65 2.105 . S
Sc46 O47 2.025 . S
Sc46 O56 2.105 . S
Sc46 O58 2.105 . S
Sc46 O62 2.105 . S
Sc46 O64 2.105 . S
O47 Sc44 2.025 1_554 S
O47 Sc45 2.025 . S
O47 Sc46 2.025 . S
C48 O54 1.268 1_554 S
C48 O64 1.268 . S
C49 O55 1.268 . S
C49 O63 1.268 . S
C50 O56 1.268 . S
C50 O65 1.268 . S
C51 O57 1.268 . S
C51 O61 1.268 . S
C52 O58 1.268 . S
C52 O60 1.268 1_554 S
C53 O59 1.268 . S
C53 O62 1.268 . S
O54 Sc44 2.105 . S
O54 C48 1.268 1_556 S
O55 Sc45 2.105 1_556 S
O55 C49 1.268 . S
O56 Sc46 2.105 . S
O56 C50 1.268 . S
O57 Sc44 2.105 . S
O57 C51 1.268 . S
O58 Sc46 2.105 . S
O58 C52 1.268 . S
O59 Sc45 2.105 . S
O59 C53 1.268 . S
O60 Sc44 2.105 . S
O60 C52 1.268 1_556 S
O61 Sc45 2.105 1_556 S
O61 C51 1.268 . S
O62 Sc46 2.105 . S
O62 C53 1.268 . S
O63 Sc44 2.105 . S
O63 C49 1.268 . S
O64 Sc46 2.105 . S
O64 C48 1.268 . S
O65 Sc45 2.105 . S
O65 C50 1.268 . S
Sc66 O69 2.025 . S
Sc66 O76 2.105 . S
Sc66 O79 2.105 . S
Sc66 O82 2.105 . S
Sc66 O85 2.105 . S
Sc67 O69 2.025 . S
Sc67 O77 2.105 . S
Sc67 O81 2.105 . S
Sc67 O83 2.105 . S
Sc67 O87 2.105 . S
Sc68 O69 2.025 . S
Sc68 O78 2.105 . S
Sc68 O80 2.105 . S
Sc68 O84 2.105 . S
Sc68 O86 2.105 . S
O69 Sc66 2.025 . S
O69 Sc67 2.025 . S
O69 Sc68 2.025 . S
C70 O76 1.268 . S
C70 O86 1.268 . S
C71 O77 1.268 . S
C71 O85 1.268 . S
C72 O78 1.268 . S
C72 O87 1.268 . S
C73 O79 1.268 . S
C73 O83 1.268 . S
C74 O80 1.268 . S
C74 O82 1.268 . S
C75 O81 1.268 . S
C75 O84 1.268 . S
O76 Sc66 2.105 . S
O76 C70 1.268 . S
O77 Sc67 2.105 . S
O77 C71 1.268 . S
O78 Sc68 2.105 . S
O78 C72 1.268 . S
O79 Sc66 2.105 . S
O79 C73 1.268 . S
O80 Sc68 2.105 . S
O80 C74 1.268 . S
O81 Sc67 2.105 . S
O81 C75 1.268 . S
O82 Sc66 2.105 . S
O82 C74 1.268 . S
O83 Sc67 2.105 . S
O83 C73 1.268 . S
O84 Sc68 2.105 . S
O84 C75 1.268 . S
O85 Sc66 2.105 . S
O85 C71 1.268 . S
O86 Sc68 2.105 . S
O86 C70 1.268 . S
O87 Sc67 2.105 . S
O87 C72 1.268 . S
H88 C93 0.930 . S
H89 C96 0.930 . S
H90 C98 0.930 . S
H91 C92 1.016 . S
C92 H91 1.016 . S
C92 N99 1.286 1_554 S
C93 H88 0.930 . S
C93 C94 1.397 . S
C93 C95 1.361 . S
C94 C93 1.397 . S
C94 C98 1.390 1_556 S
C95 C93 1.361 . S
C95 C96 1.393 1_556 S
C95 N99 1.413 . S
C96 H89 0.930 . S
C96 C95 1.393 1_554 S
C96 C97 1.399 . S
C97 C96 1.399 . S
C97 C98 1.381 . S
C98 H90 0.930 . S
C98 C94 1.390 1_554 S
C98 C97 1.381 . S
N99 C92 1.286 1_556 S
N99 C95 1.413 . S
H100 C105 0.930 . S
H101 C108 0.930 . S
H102 C110 0.930 . S
H103 C104 1.016 . S
C104 H103 1.016 . S
C104 N111 1.286 . S
C105 H100 0.930 . S
C105 C106 1.397 . S
C105 C107 1.361 1_655 S
C106 C105 1.397 . S
C106 C110 1.390 . S
C107 C105 1.361 1_455 S
C107 C108 1.393 1_455 S
C107 N111 1.413 . S
C108 H101 0.930 . S
C108 C107 1.393 1_655 S
C108 C109 1.399 . S
C109 C108 1.399 . S
C109 C110 1.381 . S
C110 H102 0.930 . S
C110 C106 1.390 . S
C110 C109 1.381 . S
N111 C104 1.286 . S
N111 C107 1.413 . S
H112 C117 0.930 . S
H113 C120 0.930 . S
H114 C122 0.930 . S
H115 C116 1.018 . S
C116 H115 1.018 . S
C116 N123 1.285 1_556 S
C117 H112 0.930 . S
C117 C118 1.397 . S
C117 C119 1.361 . S
C118 C117 1.397 . S
C118 C122 1.390 . S
C119 C117 1.361 . S
C119 C120 1.393 1_554 S
C119 N123 1.413 . S
C120 H113 0.930 . S
C120 C119 1.393 1_556 S
C120 C121 1.399 . S
C121 C120 1.399 . S
C121 C122 1.381 1_556 S
C122 H114 0.930 . S
C122 C118 1.390 . S
C122 C121 1.381 1_554 S
N123 C116 1.285 1_554 S
N123 C119 1.413 . S
H124 C129 0.930 . S
H125 C132 0.930 . S
H126 C134 0.930 . S
H127 C128 1.016 . S
C128 H127 1.016 . S
C128 N135 1.286 . S
C129 H124 0.930 . S
C129 C130 1.397 . S
C129 C131 1.361 . S
C130 C129 1.397 . S
C130 C134 1.390 . S
C131 C129 1.361 . S
C131 C132 1.393 . S
C131 N135 1.413 1_455 S
C132 H125 0.930 . S
C132 C131 1.393 . S
C132 C133 1.399 . S
C133 C132 1.399 . S
C133 C134 1.381 . S
C134 H126 0.930 . S
C134 C130 1.390 . S
C134 C133 1.381 . S
N135 C128 1.286 . S
N135 C131 1.413 1_655 S
H136 C141 0.930 . S
H137 C144 0.930 . S
H138 C146 0.930 . S
H139 C140 1.016 . S
C140 H139 1.016 . S
C140 N147 1.286 . S
C141 H136 0.930 . S
C141 C142 1.397 . S
C141 C143 1.361 . S
C142 C141 1.397 . S
C142 C146 1.390 . S
C143 C141 1.361 . S
C143 C144 1.393 . S
C143 N147 1.413 1_565 S
C144 H137 0.930 . S
C144 C143 1.393 . S
C144 C145 1.399 . S
C145 C144 1.399 . S
C145 C146 1.381 . S
C146 H138 0.930 . S
C146 C142 1.390 . S
C146 C145 1.381 . S
N147 C140 1.286 . S
N147 C143 1.413 1_545 S
H148 C153 0.930 . S
H149 C156 0.930 . S
H150 C158 0.930 . S
H151 C152 1.016 . S
C152 H151 1.016 . S
C152 N159 1.286 1_554 S
C153 H148 0.930 . S
C153 C154 1.397 . S
C153 C155 1.361 . S
C154 C153 1.397 . S
C154 C158 1.390 1_556 S
C155 C153 1.361 . S
C155 C156 1.393 1_556 S
C155 N159 1.413 . S
C156 H149 0.930 . S
C156 C155 1.393 1_554 S
C156 C157 1.399 . S
C157 C156 1.399 . S
C157 C158 1.381 . S
C158 H150 0.930 . S
C158 C154 1.390 1_554 S
C158 C157 1.381 . S
N159 C152 1.286 1_556 S
N159 C155 1.413 . S
H160 C165 0.930 . S
H161 C168 0.930 . S
H162 C170 0.930 . S
H163 C164 1.016 . S
C164 H163 1.016 . S
C164 N171 1.286 . S
C165 H160 0.930 . S
C165 C166 1.397 . S
C165 C167 1.341 1_545 S
C166 C165 1.397 . S
C166 C170 1.390 . S
C167 C165 1.341 1_565 S
C167 C168 1.379 1_565 S
C167 N171 1.447 . S
C168 H161 0.930 . S
C168 C167 1.379 1_545 S
C168 C169 1.399 . S
C169 C168 1.399 . S
C169 C170 1.381 . S
C170 H162 0.930 . S
C170 C166 1.390 . S
C170 C169 1.381 . S
N171 C164 1.286 . S
N171 C167 1.447 . S
H172 C177 0.930 . S
H173 C180 0.930 . S
H174 C182 0.930 . S
H175 C176 1.020 . S
C176 H175 1.020 . S
C176 N183 1.283 1_556 S
C177 H172 0.930 . S
C177 C178 1.397 . S
C177 C179 1.361 . S
C178 C177 1.397 . S
C178 C182 1.390 . S
C179 C177 1.361 . S
C179 C180 1.393 1_554 S
C179 N183 1.413 . S
C180 H173 0.930 . S
C180 C179 1.393 1_556 S
C180 C181 1.399 . S
C181 C180 1.399 . S
C181 C182 1.381 1_556 S
C182 H174 0.930 . S
C182 C178 1.390 . S
C182 C181 1.381 1_554 S
N183 C176 1.283 1_554 S
N183 C179 1.413 . S
C184 C185 1.363 . S
C184 C190 1.379 . S
C184 N192 1.356 . S
C185 C184 1.363 . S
C185 C191 1.363 . S
C186 C187 1.363 . S
C186 C191 1.379 . S
C186 N193 1.356 . S
C187 C186 1.363 . S
C187 C190 1.363 . S
N188 C190 1.356 . S
N188 H200 0.984 . S
N188 H201 0.985 . S
N189 C191 1.356 . S
N189 H194 0.984 . S
N189 H195 0.985 . S
C190 C184 1.379 . S
C190 C187 1.363 . S
C190 N188 1.356 . S
C191 C185 1.363 . S
C191 C186 1.379 . S
C191 N189 1.356 . S
N192 C184 1.356 . S
N192 H198 0.984 . S
N192 H199 0.984 . S
N193 C186 1.356 . S
N193 H196 0.984 . S
N193 H197 0.985 . S
H194 N189 0.984 . S
H195 N189 0.985 . S
H196 N193 0.984 . S
H197 N193 0.985 . S
H198 N192 0.984 . S
H199 N192 0.984 . S
H200 N188 0.984 . S
H201 N188 0.985 . S
C202 C203 1.363 . S
C202 C208 1.379 . S
C202 N210 1.356 . S
C203 C202 1.363 . S
C203 C209 1.363 . S
C204 C205 1.363 . S
C204 C209 1.379 . S
C204 N211 1.356 . S
C205 C204 1.363 . S
C205 C208 1.363 . S
N206 C208 1.356 . S
N206 H218 0.984 . S
N206 H219 0.985 . S
N207 C209 1.356 . S
N207 H212 0.984 . S
N207 H213 0.985 . S
C208 C202 1.379 . S
C208 C205 1.363 . S
C208 N206 1.356 . S
C209 C203 1.363 . S
C209 C204 1.379 . S
C209 N207 1.356 . S
N210 C202 1.356 . S
N210 H216 0.984 . S
N210 H217 0.984 . S
N211 C204 1.356 . S
N211 H214 0.984 . S
N211 H215 0.985 . S
H212 N207 0.984 . S
H213 N207 0.985 . S
H214 N211 0.984 . S
H215 N211 0.985 . S
H216 N210 0.984 . S
H217 N210 0.984 . S
H218 N206 0.984 . S
H219 N206 0.985 . S
C220 C221 1.363 . S
C220 C226 1.379 . S
C220 N228 1.356 . S
C221 C220 1.363 . S
C221 C227 1.363 . S
C222 C223 1.363 . S
C222 C227 1.379 . S
C222 N229 1.356 . S
C223 C222 1.363 . S
C223 C226 1.363 . S
N224 C226 1.356 . S
N224 H236 0.984 . S
N224 H237 0.985 . S
N225 C227 1.356 . S
N225 H230 0.984 . S
N225 H231 0.985 . S
C226 C220 1.379 . S
C226 C223 1.363 . S
C226 N224 1.356 . S
C227 C221 1.363 . S
C227 C222 1.379 . S
C227 N225 1.356 . S
N228 C220 1.356 . S
N228 H234 0.984 . S
N228 H235 0.984 . S
N229 C222 1.356 . S
N229 H232 0.984 . S
N229 H233 0.985 . S
H230 N225 0.984 . S
H231 N225 0.985 . S
H232 N229 0.984 . S
H233 N229 0.985 . S
H234 N228 0.984 . S
H235 N228 0.984 . S
H236 N224 0.984 . S
H237 N224 0.985 . S
C238 C239 1.363 . S
C238 C244 1.379 . S
C238 N246 1.356 . S
C239 C238 1.363 . S
C239 C245 1.363 . S
C240 C241 1.363 . S
C240 C245 1.379 . S
C240 N247 1.356 . S
C241 C240 1.363 . S
C241 C244 1.363 . S
N242 C244 1.356 . S
N242 H254 0.984 . S
N242 H255 0.985 . S
N243 C245 1.356 . S
N243 H248 0.984 . S
N243 H249 0.985 . S
C244 C238 1.379 . S
C244 C241 1.363 . S
C244 N242 1.356 . S
C245 C239 1.363 . S
C245 C240 1.379 . S
C245 N243 1.356 . S
N246 C238 1.356 . S
N246 H252 0.984 . S
N246 H253 0.984 . S
N247 C240 1.356 . S
N247 H250 0.984 1_556 S
N247 H251 0.985 1_556 S
H248 N243 0.984 . S
H249 N243 0.985 . S
H250 N247 0.984 1_554 S
H251 N247 0.985 1_554 S
H252 N246 0.984 . S
H253 N246 0.984 . S
H254 N242 0.984 . S
H255 N242 0.985 . S
C256 C257 1.363 . S
C256 C262 1.379 . S
C256 N264 1.356 . S
C257 C256 1.363 . S
C257 C263 1.363 . S
C258 C259 1.363 . S
C258 C263 1.379 . S
C258 N265 1.356 . S
C259 C258 1.363 . S
C259 C262 1.363 . S
N260 C262 1.356 . S
N260 H272 0.984 . S
N260 H273 0.985 . S
N261 C263 1.356 . S
N261 H266 0.984 . S
N261 H267 0.985 . S
C262 C256 1.379 . S
C262 C259 1.363 . S
C262 N260 1.356 . S
C263 C257 1.363 . S
C263 C258 1.379 . S
C263 N261 1.356 . S
N264 C256 1.356 . S
N264 H270 0.984 . S
N264 H271 0.984 . S
N265 C258 1.356 . S
N265 H268 0.984 . S
N265 H269 0.985 . S
H266 N261 0.984 . S
H267 N261 0.985 . S
H268 N265 0.984 . S
H269 N265 0.985 . S
H270 N264 0.984 . S
H271 N264 0.984 . S
H272 N260 0.984 . S
H273 N260 0.985 . S
C274 C275 1.363 . S
C274 C280 1.379 . S
C274 N282 1.356 . S
C275 C274 1.363 . S
C275 C281 1.363 . S
C276 C277 1.363 . S
C276 C281 1.379 . S
C276 N283 1.356 . S
C277 C276 1.363 . S
C277 C280 1.363 . S
N278 C280 1.356 . S
N278 H290 0.984 . S
N278 H291 0.985 . S
N279 C281 1.356 . S
N279 H284 0.984 . S
N279 H285 0.985 . S
C280 C274 1.379 . S
C280 C277 1.363 . S
C280 N278 1.356 . S
C281 C275 1.363 . S
C281 C276 1.379 . S
C281 N279 1.356 . S
N282 C274 1.356 . S
N282 H288 0.984 . S
N282 H289 0.984 . S
N283 C276 1.356 . S
N283 H286 0.984 . S
N283 H287 0.985 . S
H284 N279 0.984 . S
H285 N279 0.985 . S
H286 N283 0.984 . S
H287 N283 0.985 . S
H288 N282 0.984 . S
H289 N282 0.984 . S
H290 N278 0.984 . S
H291 N278 0.985 . S
C292 C293 1.363 . S
C292 C298 1.379 . S
C292 N300 1.356 . S
C293 C292 1.363 . S
C293 C299 1.363 . S
C294 C295 1.363 . S
C294 C299 1.379 . S
C294 N301 1.356 . S
C295 C294 1.363 . S
C295 C298 1.363 . S
N296 C298 1.356 . S
N296 H308 0.984 . S
N296 H309 0.985 . S
N297 C299 1.356 . S
N297 H302 0.984 . S
N297 H303 0.985 . S
C298 C292 1.379 . S
C298 C295 1.363 . S
C298 N296 1.356 . S
C299 C293 1.363 . S
C299 C294 1.379 . S
C299 N297 1.356 . S
N300 C292 1.356 . S
N300 H306 0.984 . S
N300 H307 0.984 . S
N301 C294 1.356 . S
N301 H304 0.984 . S
N301 H305 0.985 . S
H302 N297 0.984 . S
H303 N297 0.985 . S
H304 N301 0.984 . S
H305 N301 0.985 . S
H306 N300 0.984 . S
H307 N300 0.984 . S
H308 N296 0.984 . S
H309 N296 0.985 . S
C310 C311 1.363 . S
C310 C316 1.379 . S
C310 N318 1.356 . S
C311 C310 1.363 . S
C311 C317 1.363 . S
C312 C313 1.363 . S
C312 C317 1.379 . S
C312 N319 1.356 . S
C313 C312 1.363 . S
C313 C316 1.363 . S
N314 C316 1.356 . S
N314 H326 0.984 . S
N314 H327 0.985 . S
N315 C317 1.356 . S
N315 H320 0.984 . S
N315 H321 0.985 . S
C316 C310 1.379 . S
C316 C313 1.363 . S
C316 N314 1.356 . S
C317 C311 1.363 . S
C317 C312 1.379 . S
C317 N315 1.356 . S
N318 C310 1.356 . S
N318 H324 0.984 . S
N318 H325 0.984 . S
N319 C312 1.356 . S
N319 H322 0.984 . S
N319 H323 0.985 . S
H320 N315 0.984 . S
H321 N315 0.985 . S
H322 N319 0.984 . S
H323 N319 0.985 . S
H324 N318 0.984 . S
H325 N318 0.984 . S
H326 N314 0.984 . S
H327 N314 0.985 . S
C328 C329 1.363 . S
C328 C334 1.379 . S
C328 N336 1.356 . S
C329 C328 1.363 . S
C329 C335 1.363 . S
C330 C331 1.363 . S
C330 C335 1.379 . S
C330 N337 1.356 . S
C331 C330 1.363 . S
C331 C334 1.363 . S
N332 C334 1.356 . S
N332 H344 0.984 . S
N332 H345 0.985 . S
N333 C335 1.356 . S
N333 H338 0.984 . S
N333 H339 0.985 . S
C334 C328 1.379 . S
C334 C331 1.363 . S
C334 N332 1.356 . S
C335 C329 1.363 . S
C335 C330 1.379 . S
C335 N333 1.356 . S
N336 C328 1.356 . S
N336 H342 0.984 . S
N336 H343 0.984 . S
N337 C330 1.356 . S
N337 H340 0.984 . S
N337 H341 0.985 . S
H338 N333 0.984 . S
H339 N333 0.985 . S
H340 N337 0.984 . S
H341 N337 0.985 . S
H342 N336 0.984 . S
H343 N336 0.984 . S
H344 N332 0.984 . S
H345 N332 0.985 . S
C346 C347 1.363 . S
C346 C352 1.379 . S
C346 N354 1.356 . S
C347 C346 1.363 . S
C347 C353 1.363 . S
C348 C349 1.363 . S
C348 C353 1.379 . S
C348 N355 1.356 . S
C349 C348 1.363 . S
C349 C352 1.363 . S
N350 C352 1.356 . S
N350 H362 0.984 . S
N350 H363 0.985 . S
N351 C353 1.356 . S
N351 H356 0.984 . S
N351 H357 0.985 . S
C352 C346 1.379 . S
C352 C349 1.363 . S
C352 N350 1.356 . S
C353 C347 1.363 . S
C353 C348 1.379 . S
C353 N351 1.356 . S
N354 C346 1.356 . S
N354 H360 0.984 . S
N354 H361 0.984 . S
N355 C348 1.356 . S
N355 H358 0.984 . S
N355 H359 0.985 . S
H356 N351 0.984 . S
H357 N351 0.985 . S
H358 N355 0.984 . S
H359 N355 0.985 . S
H360 N354 0.984 . S
H361 N354 0.984 . S
H362 N350 0.984 . S
H363 N350 0.985 . S
C364 C365 1.363 . S
C364 C370 1.379 . S
C364 N372 1.356 . S
C365 C364 1.363 . S
C365 C371 1.363 . S
C366 C367 1.363 . S
C366 C371 1.379 . S
C366 N373 1.356 . S
C367 C366 1.363 . S
C367 C370 1.363 . S
N368 C370 1.356 . S
N368 H380 0.984 . S
N368 H381 0.985 . S
N369 C371 1.356 . S
N369 H374 0.984 . S
N369 H375 0.985 . S
C370 C364 1.379 . S
C370 C367 1.363 . S
C370 N368 1.356 . S
C371 C365 1.363 . S
C371 C366 1.379 . S
C371 N369 1.356 . S
N372 C364 1.356 . S
N372 H378 0.984 . S
N372 H379 0.984 . S
N373 C366 1.356 . S
N373 H376 0.984 . S
N373 H377 0.985 . S
H374 N369 0.984 . S
H375 N369 0.985 . S
H376 N373 0.984 . S
H377 N373 0.985 . S
H378 N372 0.984 . S
H379 N372 0.984 . S
H380 N368 0.984 . S
H381 N368 0.985 . S
C382 C383 1.363 . S
C382 C388 1.379 . S
C382 N390 1.356 . S
C383 C382 1.363 . S
C383 C389 1.363 . S
C384 C385 1.363 . S
C384 C389 1.379 . S
C384 N391 1.356 . S
C385 C384 1.363 . S
C385 C388 1.363 . S
N386 C388 1.356 . S
N386 H398 0.984 . S
N386 H399 0.985 . S
N387 C389 1.356 . S
N387 H392 0.984 . S
N387 H393 0.985 . S
C388 C382 1.379 . S
C388 C385 1.363 . S
C388 N386 1.356 . S
C389 C383 1.363 . S
C389 C384 1.379 . S
C389 N387 1.356 . S
N390 C382 1.356 . S
N390 H396 0.984 . S
N390 H397 0.984 . S
N391 C384 1.356 . S
N391 H394 0.984 . S
N391 H395 0.985 . S
H392 N387 0.984 . S
H393 N387 0.985 . S
H394 N391 0.984 . S
H395 N391 0.985 . S
H396 N390 0.984 . S
H397 N390 0.984 . S
H398 N386 0.984 . S
H399 N386 0.985 . S
C400 C401 1.363 . S
C400 C406 1.379 . S
C400 N408 1.356 . S
C401 C400 1.363 . S
C401 C407 1.363 . S
C402 C403 1.363 . S
C402 C407 1.379 . S
C402 N409 1.356 . S
C403 C402 1.363 . S
C403 C406 1.363 . S
N404 C406 1.356 . S
N404 H416 0.984 1_556 S
N404 H417 0.980 1_556 S
N405 C407 1.356 . S
N405 H410 0.984 . S
N405 H411 0.985 . S
C406 C400 1.379 . S
C406 C403 1.363 . S
C406 N404 1.356 . S
C407 C401 1.363 . S
C407 C402 1.379 . S
C407 N405 1.356 . S
N408 C400 1.356 . S
N408 H414 0.984 . S
N408 H415 0.984 . S
N409 C402 1.356 . S
N409 H412 0.984 . S
N409 H413 0.985 . S
H410 N405 0.984 . S
H411 N405 0.985 . S
H412 N409 0.984 . S
H413 N409 0.985 . S
H414 N408 0.984 . S
H415 N408 0.984 . S
H416 N404 0.984 1_554 S
H417 N404 0.980 1_554 S
C418 C419 1.363 . S
C418 C424 1.379 . S
C418 N426 1.356 . S
C419 C418 1.363 . S
C419 C425 1.363 . S
C420 C421 1.363 . S
C420 C425 1.379 . S
C420 N427 1.356 . S
C421 C420 1.363 . S
C421 C424 1.363 . S
N422 C424 1.356 . S
N422 H434 0.984 . S
N422 H435 0.985 . S
N423 C425 1.356 . S
N423 H428 0.984 . S
N423 H429 0.985 . S
C424 C418 1.379 . S
C424 C421 1.363 . S
C424 N422 1.356 . S
C425 C419 1.363 . S
C425 C420 1.379 . S
C425 N423 1.356 . S
N426 C418 1.356 . S
N426 H432 0.984 . S
N426 H433 0.984 . S
N427 C420 1.356 . S
N427 H430 0.984 . S
N427 H431 0.985 . S
H428 N423 0.984 . S
H429 N423 0.985 . S
H430 N427 0.984 . S
H431 N427 0.985 . S
H432 N426 0.984 . S
H433 N426 0.984 . S
H434 N422 0.984 . S
H435 N422 0.985 . S
C436 C437 1.363 . S
C436 C442 1.379 . S
C436 N444 1.356 . S
C437 C436 1.363 . S
C437 C443 1.363 . S
C438 C439 1.363 . S
C438 C443 1.379 . S
C438 N445 1.356 . S
C439 C438 1.363 . S
C439 C442 1.363 . S
N440 C442 1.356 . S
N440 H452 0.984 . S
N440 H453 0.985 . S
N441 C443 1.356 . S
N441 H446 0.984 . S
N441 H447 0.985 . S
C442 C436 1.379 . S
C442 C439 1.363 . S
C442 N440 1.356 . S
C443 C437 1.363 . S
C443 C438 1.379 . S
C443 N441 1.356 . S
N444 C436 1.356 . S
N444 H450 0.984 . S
N444 H451 0.984 . S
N445 C438 1.356 . S
N445 H448 0.984 . S
N445 H449 0.985 . S
H446 N441 0.984 . S
H447 N441 0.985 . S
H448 N445 0.984 . S
H449 N445 0.985 . S
H450 N444 0.984 . S
H451 N444 0.984 . S
H452 N440 0.984 . S
H453 N440 0.985 . S
C454 C455 1.363 . S
C454 C460 1.379 . S
C454 N462 1.356 . S
C455 C454 1.363 . S
C455 C461 1.363 . S
C456 C457 1.363 . S
C456 C461 1.379 . S
C456 N463 1.356 . S
C457 C456 1.363 . S
C457 C460 1.363 . S
N458 C460 1.356 . S
N458 H470 0.984 . S
N458 H471 0.985 . S
N459 C461 1.356 . S
N459 H464 0.984 . S
N459 H465 0.985 . S
C460 C454 1.379 . S
C460 C457 1.363 . S
C460 N458 1.356 . S
C461 C455 1.363 . S
C461 C456 1.379 . S
C461 N459 1.356 . S
N462 C454 1.356 . S
N462 H468 0.984 . S
N462 H469 0.984 . S
N463 C456 1.356 . S
N463 H466 0.984 . S
N463 H467 0.985 . S
H464 N459 0.984 . S
H465 N459 0.985 . S
H466 N463 0.984 . S
H467 N463 0.985 . S
H468 N462 0.984 . S
H469 N462 0.984 . S
H470 N458 0.984 . S
H471 N458 0.985 . S
C472 C473 1.363 1_556 S
C472 C478 1.379 . S
C472 N480 1.356 . S
C473 C472 1.363 1_554 S
C473 C479 1.363 . S
C474 C475 1.363 . S
C474 C479 1.379 . S
C474 N481 1.356 . S
C475 C474 1.363 . S
C475 C478 1.363 1_554 S
N476 C478 1.356 . S
N476 H488 0.984 . S
N476 H489 0.985 . S
N477 C479 1.356 . S
N477 H482 0.984 . S
N477 H483 0.985 . S
C478 C472 1.379 . S
C478 C475 1.363 1_556 S
C478 N476 1.356 . S
C479 C473 1.363 . S
C479 C474 1.379 . S
C479 N477 1.356 . S
N480 C472 1.356 . S
N480 H486 0.984 . S
N480 H487 0.984 . S
N481 C474 1.356 . S
N481 H484 0.984 . S
N481 H485 0.985 . S
H482 N477 0.984 . S
H483 N477 0.985 . S
H484 N481 0.984 . S
H485 N481 0.985 . S
H486 N480 0.984 . S
H487 N480 0.984 . S
H488 N476 0.984 . S
H489 N476 0.985 . S
C490 C491 1.363 . S
C490 C496 1.379 . S
C490 N498 1.356 . S
C491 C490 1.363 . S
C491 C497 1.363 . S
C492 C493 1.363 . S
C492 C497 1.379 . S
C492 N499 1.356 . S
C493 C492 1.363 . S
C493 C496 1.363 . S
N494 C496 1.356 . S
N494 H506 0.984 . S
N494 H507 0.985 . S
N495 C497 1.356 . S
N495 H500 0.984 . S
N495 H501 0.985 . S
C496 C490 1.379 . S
C496 C493 1.363 . S
C496 N494 1.356 . S
C497 C491 1.363 . S
C497 C492 1.379 . S
C497 N495 1.356 . S
N498 C490 1.356 . S
N498 H504 0.984 . S
N498 H505 0.984 . S
N499 C492 1.356 . S
N499 H502 0.984 . S
N499 H503 0.985 . S
H500 N495 0.984 . S
H501 N495 0.985 . S
H502 N499 0.984 . S
H503 N499 0.985 . S
H504 N498 0.984 . S
H505 N498 0.984 . S
H506 N494 0.984 . S
H507 N494 0.985 . S
C508 C509 1.363 . S
C508 C514 1.379 . S
C508 N516 1.356 . S
C509 C508 1.363 . S
C509 C515 1.363 1_554 S
C510 C511 1.363 1_556 S
C510 C515 1.379 . S
C510 N517 1.356 . S
C511 C510 1.363 1_554 S
C511 C514 1.363 . S
N512 C514 1.356 . S
N512 H524 0.984 . S
N512 H525 0.985 . S
N513 C515 1.356 . S
N513 H518 0.984 . S
N513 H519 0.985 . S
C514 C508 1.379 . S
C514 C511 1.363 . S
C514 N512 1.356 . S
C515 C509 1.363 1_556 S
C515 C510 1.379 . S
C515 N513 1.356 . S
N516 C508 1.356 . S
N516 H522 0.984 . S
N516 H523 0.984 . S
N517 C510 1.356 . S
N517 H520 0.984 . S
N517 H521 0.985 . S
H518 N513 0.984 . S
H519 N513 0.985 . S
H520 N517 0.984 . S
H521 N517 0.985 . S
H522 N516 0.984 . S
H523 N516 0.984 . S
H524 N512 0.984 . S
H525 N512 0.985 . S
C526 C527 1.363 . S
C526 C532 1.379 . S
C526 N534 1.356 . S
C527 C526 1.363 . S
C527 C533 1.363 . S
C528 C529 1.363 . S
C528 C533 1.379 . S
C528 N535 1.356 . S
C529 C528 1.363 . S
C529 C532 1.363 . S
N530 C532 1.356 . S
N530 H542 0.984 . S
N530 H543 0.985 . S
N531 C533 1.356 . S
N531 H536 0.984 . S
N531 H537 0.985 . S
C532 C526 1.379 . S
C532 C529 1.363 . S
C532 N530 1.356 . S
C533 C527 1.363 . S
C533 C528 1.379 . S
C533 N531 1.356 . S
N534 C526 1.356 . S
N534 H540 0.984 . S
N534 H541 0.984 . S
N535 C528 1.356 . S
N535 H538 0.984 . S
N535 H539 0.985 . S
H536 N531 0.984 . S
H537 N531 0.985 . S
H538 N535 0.984 . S
H539 N535 0.985 . S
H540 N534 0.984 . S
H541 N534 0.984 . S
H542 N530 0.984 . S
H543 N530 0.985 . S
C544 C545 1.363 . S
C544 C550 1.379 . S
C544 N552 1.356 . S
C545 C544 1.363 . S
C545 C551 1.363 . S
C546 C547 1.363 . S
C546 C551 1.379 . S
C546 N553 1.356 . S
C547 C546 1.363 . S
C547 C550 1.363 . S
N548 C550 1.356 . S
N548 H560 0.984 . S
N548 H561 0.985 . S
N549 C551 1.356 . S
N549 H554 0.984 . S
N549 H555 0.985 . S
C550 C544 1.379 . S
C550 C547 1.363 . S
C550 N548 1.356 . S
C551 C545 1.363 . S
C551 C546 1.379 . S
C551 N549 1.356 . S
N552 C544 1.356 . S
N552 H558 0.984 . S
N552 H559 0.984 . S
N553 C546 1.356 . S
N553 H556 0.984 . S
N553 H557 0.985 . S
H554 N549 0.984 . S
H555 N549 0.985 . S
H556 N553 0.984 . S
H557 N553 0.985 . S
H558 N552 0.984 . S
H559 N552 0.984 . S
H560 N548 0.984 . S
H561 N548 0.985 . S
C562 C563 1.363 . S
C562 C568 1.379 . S
C562 N570 1.356 . S
C563 C562 1.363 . S
C563 C569 1.363 1_554 S
C564 C565 1.363 1_556 S
C564 C569 1.379 . S
C564 N571 1.356 . S
C565 C564 1.363 1_554 S
C565 C568 1.363 . S
N566 C568 1.356 . S
N566 H578 0.984 . S
N566 H579 0.985 . S
N567 C569 1.356 . S
N567 H572 0.984 . S
N567 H573 0.985 . S
C568 C562 1.379 . S
C568 C565 1.363 . S
C568 N566 1.356 . S
C569 C563 1.363 1_556 S
C569 C564 1.379 . S
C569 N567 1.356 . S
N570 C562 1.356 . S
N570 H576 0.984 . S
N570 H577 0.984 . S
N571 C564 1.356 . S
N571 H574 0.984 . S
N571 H575 0.985 . S
H572 N567 0.984 . S
H573 N567 0.985 . S
H574 N571 0.984 . S
H575 N571 0.985 . S
H576 N570 0.984 . S
H577 N570 0.984 . S
H578 N566 0.984 . S
H579 N566 0.985 . S
C580 C581 1.363 . S
C580 C586 1.379 . S
C580 N588 1.356 . S
C581 C580 1.363 . S
C581 C587 1.363 . S
C582 C583 1.363 . S
C582 C587 1.379 . S
C582 N589 1.356 . S
C583 C582 1.363 . S
C583 C586 1.363 . S
N584 C586 1.356 . S
N584 H596 0.984 . S
N584 H597 0.985 . S
N585 C587 1.356 . S
N585 H590 0.984 . S
N585 H591 0.985 . S
C586 C580 1.379 . S
C586 C583 1.363 . S
C586 N584 1.356 . S
C587 C581 1.363 . S
C587 C582 1.379 . S
C587 N585 1.356 . S
N588 C580 1.356 . S
N588 H594 0.984 . S
N588 H595 0.984 . S
N589 C582 1.356 . S
N589 H592 0.984 . S
N589 H593 0.985 . S
H590 N585 0.984 . S
H591 N585 0.985 . S
H592 N589 0.984 . S
H593 N589 0.985 . S
H594 N588 0.984 . S
H595 N588 0.984 . S
H596 N584 0.984 . S
H597 N584 0.985 . S
C598 C599 1.363 . S
C598 C604 1.379 . S
C598 N606 1.356 . S
C599 C598 1.363 . S
C599 C605 1.363 1_554 S
C600 C601 1.363 1_556 S
C600 C605 1.379 . S
C600 N607 1.356 . S
C601 C600 1.363 1_554 S
C601 C604 1.363 . S
N602 C604 1.356 . S
N602 H614 0.984 . S
N602 H615 0.985 . S
N603 C605 1.356 . S
N603 H608 0.984 . S
N603 H609 0.985 . S
C604 C598 1.379 . S
C604 C601 1.363 . S
C604 N602 1.356 . S
C605 C599 1.363 1_556 S
C605 C600 1.379 . S
C605 N603 1.356 . S
N606 C598 1.356 . S
N606 H612 0.984 . S
N606 H613 0.984 . S
N607 C600 1.356 . S
N607 H610 0.984 . S
N607 H611 0.985 . S
H608 N603 0.984 . S
H609 N603 0.985 . S
H610 N607 0.984 . S
H611 N607 0.985 . S
H612 N606 0.984 . S
H613 N606 0.984 . S
H614 N602 0.984 . S
H615 N602 0.985 . S
C185 C5 1.460 . S
C187 C130 1.473 . S
C203 C31 1.476 . S
C205 C94 1.485 . S
C223 C109 1.478 . S
C221 C53 1.498 . S
C239 C71 1.481 . S
C241 C121 1.467 . S
C259 C157 1.467 . S
C257 C75 1.481 . S
C277 C169 1.478 . S
C275 C9 1.498 . S
C295 C178 1.485 . S
C293 C27 1.476 . S
C313 C142 1.472 . S
C311 C49 1.460 . S
C329 C51 1.460 . S
C331 C106 1.463 . S
C347 C72 1.476 . S
C349 C118 1.474 . S
C365 C6 1.498 . S
C367 C133 1.484 . S
C385 C97 1.472 . S
C383 C29 1.481 . S
C401 C28 1.481 . S
C403 C181 1.472 . S
C421 C145 1.484 . S
C419 C50 1.498 . S
C439 C154 1.474 . S
C437 C73 1.476 . S
C455 C7 1.460 . S
C457 C166 1.463 . S
C475 C92 1.505 . S
C473 C4 1.508 . S
C493 C104 1.511 . S
C491 C30 1.508 . S
C509 C52 1.508 . S
C511 C116 1.511 1_554 S
C527 C70 1.507 . S
C529 C128 1.504 . S
C547 C140 1.504 . S
C545 C74 1.508 . S
C563 C8 1.508 . S
C565 C152 1.511 . S
C581 C26 1.508 . S
C583 C164 1.511 . S
C599 C48 1.508 . S
C601 C176 1.504 1_554 S
