# Generated by pormake.
# Topology ctn, (3,4)-cn, num edge types: 1
# Building blocks:
#     Node 0, Type 0, BuildingBlock: VETTIZ_charged_linker_0, # of connection points: 3
#     Node 1, Type 0, BuildingBlock: VETTIZ_charged_linker_0, # of connection points: 3
#     Node 2, Type 0, BuildingBlock: VETTIZ_charged_linker_0, # of connection points: 3
#     Node 3, Type 0, BuildingBlock: VETTIZ_charged_linker_0, # of connection points: 3
#     Node 4, Type 0, BuildingBlock: VETTIZ_charged_linker_0, # of connection points: 3
#     Node 5, Type 0, BuildingBlock: VETTIZ_charged_linker_0, # of connection points: 3
#     Node 6, Type 0, BuildingBlock: VETTIZ_charged_linker_0, # of connection points: 3
#     Node 7, Type 0, BuildingBlock: VETTIZ_charged_linker_0, # of connection points: 3
#     Node 8, Type 0, BuildingBlock: VETTIZ_charged_linker_0, # of connection points: 3
#     Node 9, Type 0, BuildingBlock: VETTIZ_charged_linker_0, # of connection points: 3
#     Node 10, Type 0, BuildingBlock: VETTIZ_charged_linker_0, # of connection points: 3
#     Node 11, Type 0, BuildingBlock: VETTIZ_charged_linker_0, # of connection points: 3
#     Node 12, Type 0, BuildingBlock: VETTIZ_charged_linker_0, # of connection points: 3
#     Node 13, Type 0, BuildingBlock: VETTIZ_charged_linker_0, # of connection points: 3
#     Node 14, Type 0, BuildingBlock: VETTIZ_charged_linker_0, # of connection points: 3
#     Node 15, Type 0, BuildingBlock: VETTIZ_charged_linker_0, # of connection points: 3
#     Node 16, Type 1, BuildingBlock: KUFVIS_clean_sbu_0, # of connection points: 4
#     Node 17, Type 1, BuildingBlock: KUFVIS_clean_sbu_0, # of connection points: 4
#     Node 18, Type 1, BuildingBlock: KUFVIS_clean_sbu_0, # of connection points: 4
#     Node 19, Type 1, BuildingBlock: KUFVIS_clean_sbu_0, # of connection points: 4
#     Node 20, Type 1, BuildingBlock: KUFVIS_clean_sbu_0, # of connection points: 4
#     Node 21, Type 1, BuildingBlock: KUFVIS_clean_sbu_0, # of connection points: 4
#     Node 22, Type 1, BuildingBlock: KUFVIS_clean_sbu_0, # of connection points: 4
#     Node 23, Type 1, BuildingBlock: KUFVIS_clean_sbu_0, # of connection points: 4
#     Node 24, Type 1, BuildingBlock: KUFVIS_clean_sbu_0, # of connection points: 4
#     Node 25, Type 1, BuildingBlock: KUFVIS_clean_sbu_0, # of connection points: 4
#     Node 26, Type 1, BuildingBlock: KUFVIS_clean_sbu_0, # of connection points: 4
#     Node 27, Type 1, BuildingBlock: KUFVIS_clean_sbu_0, # of connection points: 4
#     Edge 28, Type (0, 1), BuildingBlock: ZUJKAS_clean_linker_0, # of connection points: 2
#     Edge 29, Type (0, 1), BuildingBlock: ZUJKAS_clean_linker_0, # of connection points: 2
#     Edge 30, Type (0, 1), BuildingBlock: ZUJKAS_clean_linker_0, # of connection points: 2
#     Edge 31, Type (0, 1), BuildingBlock: ZUJKAS_clean_linker_0, # of connection points: 2
#     Edge 32, Type (0, 1), BuildingBlock: ZUJKAS_clean_linker_0, # of connection points: 2
#     Edge 33, Type (0, 1), BuildingBlock: ZUJKAS_clean_linker_0, # of connection points: 2
#     Edge 34, Type (0, 1), BuildingBlock: ZUJKAS_clean_linker_0, # of connection points: 2
#     Edge 35, Type (0, 1), BuildingBlock: ZUJKAS_clean_linker_0, # of connection points: 2
#     Edge 36, Type (0, 1), BuildingBlock: ZUJKAS_clean_linker_0, # of connection points: 2
#     Edge 37, Type (0, 1), BuildingBlock: ZUJKAS_clean_linker_0, # of connection points: 2
#     Edge 38, Type (0, 1), BuildingBlock: ZUJKAS_clean_linker_0, # of connection points: 2
#     Edge 39, Type (0, 1), BuildingBlock: ZUJKAS_clean_linker_0, # of connection points: 2
#     Edge 40, Type (0, 1), BuildingBlock: ZUJKAS_clean_linker_0, # of connection points: 2
#     Edge 41, Type (0, 1), BuildingBlock: ZUJKAS_clean_linker_0, # of connection points: 2
#     Edge 42, Type (0, 1), BuildingBlock: ZUJKAS_clean_linker_0, # of connection points: 2
#     Edge 43, Type (0, 1), BuildingBlock: ZUJKAS_clean_linker_0, # of connection points: 2
#     Edge 44, Type (0, 1), BuildingBlock: ZUJKAS_clean_linker_0, # of connection points: 2
#     Edge 45, Type (0, 1), BuildingBlock: ZUJKAS_clean_linker_0, # of connection points: 2
#     Edge 46, Type (0, 1), BuildingBlock: ZUJKAS_clean_linker_0, # of connection points: 2
#     Edge 47, Type (0, 1), BuildingBlock: ZUJKAS_clean_linker_0, # of connection points: 2
#     Edge 48, Type (0, 1), BuildingBlock: ZUJKAS_clean_linker_0, # of connection points: 2
#     Edge 49, Type (0, 1), BuildingBlock: ZUJKAS_clean_linker_0, # of connection points: 2
#     Edge 50, Type (0, 1), BuildingBlock: ZUJKAS_clean_linker_0, # of connection points: 2
#     Edge 51, Type (0, 1), BuildingBlock: ZUJKAS_clean_linker_0, # of connection points: 2
#     Edge 52, Type (0, 1), BuildingBlock: ZUJKAS_clean_linker_0, # of connection points: 2
#     Edge 53, Type (0, 1), BuildingBlock: ZUJKAS_clean_linker_0, # of connection points: 2
#     Edge 54, Type (0, 1), BuildingBlock: ZUJKAS_clean_linker_0, # of connection points: 2
#     Edge 55, Type (0, 1), BuildingBlock: ZUJKAS_clean_linker_0, # of connection points: 2
#     Edge 56, Type (0, 1), BuildingBlock: ZUJKAS_clean_linker_0, # of connection points: 2
#     Edge 57, Type (0, 1), BuildingBlock: ZUJKAS_clean_linker_0, # of connection points: 2
#     Edge 58, Type (0, 1), BuildingBlock: ZUJKAS_clean_linker_0, # of connection points: 2
#     Edge 59, Type (0, 1), BuildingBlock: ZUJKAS_clean_linker_0, # of connection points: 2
#     Edge 60, Type (0, 1), BuildingBlock: ZUJKAS_clean_linker_0, # of connection points: 2
#     Edge 61, Type (0, 1), BuildingBlock: ZUJKAS_clean_linker_0, # of connection points: 2
#     Edge 62, Type (0, 1), BuildingBlock: ZUJKAS_clean_linker_0, # of connection points: 2
#     Edge 63, Type (0, 1), BuildingBlock: ZUJKAS_clean_linker_0, # of connection points: 2
#     Edge 64, Type (0, 1), BuildingBlock: ZUJKAS_clean_linker_0, # of connection points: 2
#     Edge 65, Type (0, 1), BuildingBlock: ZUJKAS_clean_linker_0, # of connection points: 2
#     Edge 66, Type (0, 1), BuildingBlock: ZUJKAS_clean_linker_0, # of connection points: 2
#     Edge 67, Type (0, 1), BuildingBlock: ZUJKAS_clean_linker_0, # of connection points: 2
#     Edge 68, Type (0, 1), BuildingBlock: ZUJKAS_clean_linker_0, # of connection points: 2
#     Edge 69, Type (0, 1), BuildingBlock: ZUJKAS_clean_linker_0, # of connection points: 2
#     Edge 70, Type (0, 1), BuildingBlock: ZUJKAS_clean_linker_0, # of connection points: 2
#     Edge 71, Type (0, 1), BuildingBlock: ZUJKAS_clean_linker_0, # of connection points: 2
#     Edge 72, Type (0, 1), BuildingBlock: ZUJKAS_clean_linker_0, # of connection points: 2
#     Edge 73, Type (0, 1), BuildingBlock: ZUJKAS_clean_linker_0, # of connection points: 2
#     Edge 74, Type (0, 1), BuildingBlock: ZUJKAS_clean_linker_0, # of connection points: 2
#     Edge 75, Type (0, 1), BuildingBlock: ZUJKAS_clean_linker_0, # of connection points: 2
# Relax obj value: 0.012
# Max RMSD: 0.064
# Mean RMSD: 0.029
data_MOF--net-ctn--node1-KUFVIS_clean_sbu_0--node2-VETTIZ_charged_linker_0--edge1-ZUJKAS_clean_linker_0
_symmetry_space_group_name_H-M    P1
_symmetry_Int_Tables_number       1
_symmetry_cell_setting            triclinic
loop_
_symmetry_equiv_pos_as_xyz
'x, y, z'
_cell_length_a     82.874488
_cell_length_b     82.693201
_cell_length_c     83.070457
_cell_angle_alpha  90.852939
_cell_angle_beta   90.224664
_cell_angle_gamma 91.329319
loop_
_atom_site_label
_atom_site_type_symbol
_atom_site_fract_x
_atom_site_fract_y
_atom_site_fract_z
_atom_type_partial_charge
C0 C 0.04075 0.08891 0.00784 0.0
C1 C 0.02799 0.09973 0.00978 0.0
C2 C 0.01724 0.09749 0.02274 0.0
C3 C 0.03195 0.07412 0.03143 0.0
C4 C 0.04247 0.07626 0.01873 0.0
C5 C 0.05532 0.0637 0.01833 0.0
H6 H 0.08781 0.9968 0.05015 0.0
C7 C 0.03705 0.05981 0.04048 0.0
C8 C 0.05074 0.05364 0.03284 0.0
H9 H 0.10447 0.02415 0.00917 0.0
H10 H 0.08266 0.04258 0.01262 0.0
H11 H 0.08104 0.02798 0.07243 0.0
H12 H 0.04998 0.99815 0.04209 0.0
H13 H 0.03935 1.00234 0.05987 0.0
H14 H 0.05783 0.99129 0.06091 0.0
H15 H 0.0747 0.00791 0.07789 0.0
H16 H 0.06273 0.02526 0.08269 0.0
C17 C 0.07194 0.07243 0.02061 0.0
C18 C 0.05347 0.05389 1.00237 0.0
C19 C 0.00589 0.04226 0.09019 0.0
C20 C 0.00772 0.02949 0.10104 0.0
C21 C 0.02032 0.01857 0.09849 0.0
C22 C 0.03094 0.02037 0.08551 0.0
C23 C 0.02902 0.03323 0.07486 0.0
C24 C 0.01661 0.04388 0.07726 0.0
C25 C 0.01636 0.05677 0.06467 0.0
C26 C 0.03072 0.05218 0.0544 0.0
C27 C 0.03809 0.03838 0.06043 0.0
C28 C 0.01905 0.07341 0.0732 0.0
C29 C 1.00023 0.05496 0.05523 0.0
C30 C 0.08687 0.00682 0.04198 0.0
C31 C 0.09791 0.00887 0.02929 0.0
C32 C 0.09602 0.02203 0.01887 0.0
C33 C 0.08338 0.03283 0.02096 0.0
C34 C 0.07244 0.03057 0.03365 0.0
C35 C 0.07433 0.01778 0.04395 0.0
C36 C 0.06171 0.01743 0.05693 0.0
C37 C 0.0519 0.03208 0.05267 0.0
C38 C 0.05822 0.0397 0.03899 0.0
C39 C 0.07037 0.01964 0.07341 0.0
C40 C 0.05169 1.00146 0.05503 0.0
H41 H 0.01054 0.08377 0.0431 0.0
H42 H 0.04935 0.09034 0.99816 0.0
H43 H 0.04051 0.05195 0.99919 0.0
H44 H 0.05838 0.04163 0.00306 0.0
H45 H 0.05934 0.06037 0.99225 0.0
H46 H 0.07098 0.08316 0.02877 0.0
H47 H 0.07678 0.07673 0.00894 0.0
H48 H 0.08097 0.06479 0.02642 0.0
H49 H 0.99645 0.05097 0.09183 0.0
H50 H 0.02188 0.00847 0.10645 0.0
H51 H 0.04024 0.01163 0.08426 0.0
H52 H 0.02791 0.07252 0.08323 0.0
H53 H 0.00762 0.07789 0.07836 0.0
H54 H 0.02425 0.0827 0.06521 0.0
H55 H 0.99635 0.04202 0.05406 0.0
H56 H 1.00116 0.0592 0.04271 0.0
H57 H 0.99043 0.0615 0.06144 0.0
H58 H 0.00717 0.10544 0.02441 0.0
C59 C 0.01915 0.0848 0.03354 0.0
C60 C 0.28098 0.65042 0.20677 0.0
C61 C 0.26793 0.64692 0.19627 0.0
C62 C 0.2661 0.65655 0.1825 0.0
C63 C 0.28935 0.6732 0.19038 0.0
C64 C 0.29154 0.66345 0.20353 0.0
C65 C 0.3061 0.66863 0.21337 0.0
H66 H 0.36899 0.72108 0.22596 0.0
C67 C 0.30211 0.686 0.19076 0.0
C68 C 0.3121 0.68326 0.20409 0.0
H69 H 0.35528 0.67925 0.25392 0.0
H70 H 0.33316 0.67332 0.23576 0.0
H71 H 0.33293 0.73347 0.22169 0.0
H72 H 0.36303 0.70469 0.19098 0.0
H73 H 0.353 0.7184 0.17869 0.0
H74 H 0.36658 0.72599 0.19421 0.0
H75 H 0.34973 0.742 0.21092 0.0
H76 H 0.32995 0.73994 0.2019 0.0
C77 C 0.30033 0.67337 0.23048 0.0
C78 C 0.31831 0.65472 0.21288 0.0
C79 C 0.30095 0.7315 0.15024 0.0
C80 C 0.31078 0.74539 0.14794 0.0
C81 C 0.32444 0.74792 0.15794 0.0
C82 C 0.32807 0.73702 0.17013 0.0
C83 C 0.31795 0.72339 0.17246 0.0
C84 C 0.30474 0.72073 0.16249 0.0
C85 C 0.29542 0.70553 0.16663 0.0
C86 C 0.30506 0.69966 0.18091 0.0
C87 C 0.31822 0.7102 0.18429 0.0
C88 C 0.27814 0.71031 0.1715 0.0
C89 C 0.29614 0.69363 0.15205 0.0
C90 C 0.3612 0.71068 0.22823 0.0
C91 C 0.36401 0.7006 0.24143 0.0
C92 C 0.35362 0.68708 0.24374 0.0
C93 C 0.34067 0.68371 0.23323 0.0
C94 C 0.33795 0.69398 0.22022 0.0
C95 C 0.34814 0.70718 0.21788 0.0
C96 C 0.34323 0.7169 0.20356 0.0
C97 C 0.32852 0.70725 0.1976 0.0
C98 C 0.32547 0.69386 0.20744 0.0
C99 C 0.33881 0.73404 0.20968 0.0
C100 C 0.35716 0.71666 0.19118 0.0
H101 H 0.2745 0.67655 0.16896 0.0
H102 H 0.2828 0.64344 0.21752 0.0
H103 H 0.31765 0.648 0.20118 0.0
H104 H 0.33099 0.65907 0.21381 0.0
H105 H 0.31584 0.64589 0.22256 0.0
H106 H 0.28869 0.6798 0.22991 0.0
H107 H 0.29841 0.66249 0.23799 0.0
H108 H 0.30872 0.68186 0.23683 0.0
H109 H 0.2903 0.72921 0.14288 0.0
H110 H 0.33242 0.75831 0.15628 0.0
H111 H 0.33861 0.73968 0.17733 0.0
H112 H 0.2785 0.72131 0.17938 0.0
H113 H 0.27075 0.713 0.16073 0.0
H114 H 0.27173 0.70096 0.17852 0.0
H115 H 0.30738 0.69558 0.14499 0.0
H116 H 0.2965 0.68085 0.15573 0.0
H117 H 0.28576 0.69519 0.14376 0.0
H118 H 0.25648 0.65397 0.17392 0.0
C119 C 0.27667 0.66964 0.17954 0.0
C120 C 0.98328 0.42326 0.0099 0.0
C121 C 0.97394 0.41885 0.99628 0.0
C122 C 0.96086 0.42857 0.99203 0.0
C123 C 0.96653 0.44656 0.01479 0.0
C124 C 0.97935 0.43705 0.01894 0.0
C125 C 0.9879 0.44325 0.03388 0.0
H126 H 0.99446 0.49874 0.09447 0.0
C127 C 0.96567 0.45999 0.02672 0.0
C128 C 0.97817 0.45809 0.03795 0.0
H129 H 0.02376 0.45688 0.08589 0.0
H130 H 0.00818 0.45004 0.06212 0.0
H131 H 0.96011 0.48056 0.08601 0.0
H132 H 0.9929 0.50983 0.05807 0.0
H133 H 0.97327 0.51509 0.05253 0.0
H134 H 0.97998 0.51845 0.07304 0.0
H135 H 0.96295 0.50193 0.08941 0.0
H136 H 0.94859 0.49402 0.07479 0.0
C137 C 0.98627 0.43015 0.04697 0.0
C138 C 0.00553 0.44779 0.02933 0.0
C139 C 0.92214 0.50211 0.02165 0.0
C140 C 0.91856 0.51612 0.03065 0.0
C141 C 0.92827 0.5203 0.04414 0.0
C142 C 0.94123 0.51071 0.04862 0.0
C143 C 0.94463 0.49674 0.03952 0.0
C144 C 0.9352 0.49269 0.02624 0.0
C145 C 0.94082 0.47759 0.01782 0.0
C146 C 0.95509 0.47322 0.02829 0.0
C147 C 0.95723 0.48444 0.04104 0.0
C148 C 0.92701 0.46467 0.01853 0.0
C149 C 0.94609 0.48212 1.00056 0.0
C150 C 0.99743 0.48802 0.08755 0.0
C151 C 0.01042 0.47837 0.09211 0.0
C152 C 0.01399 0.46466 0.08257 0.0
C153 C 0.00484 0.46064 0.0688 0.0
C154 C 0.99193 0.47039 0.06441 0.0
C155 C 0.9884 0.48382 0.07373 0.0
C156 C 0.97427 0.4928 0.06717 0.0
C157 C 0.96984 0.48248 0.05245 0.0
C158 C 0.98023 0.46937 0.05091 0.0
C159 C 0.96073 0.49248 0.07997 0.0
C160 C 0.98026 0.51 0.06253 0.0
H161 H 0.94703 0.44923 0.99729 0.0
H162 H 0.99328 0.41597 0.01363 0.0
H163 H 0.00607 0.45311 0.01711 0.0
H164 H 0.01103 0.45714 0.03738 0.0
H165 H 0.01323 0.43697 0.02924 0.0
H166 H 0.97445 0.42354 0.04595 0.0
H167 H 0.9959 0.42109 0.0458 0.0
H168 H 0.98646 0.43525 0.05933 0.0
H169 H 0.91506 0.49865 0.01111 0.0
H170 H 0.92569 0.53091 0.0514 0.0
H171 H 0.94808 0.51454 0.05904 0.0
H172 H 0.92059 0.46537 0.03025 0.0
H173 H 0.91799 0.46645 0.00884 0.0
H174 H 0.93137 0.45217 0.01775 0.0
H175 H 0.9518 0.49443 1.00041 0.0
H176 H 0.95535 0.47408 0.99561 0.0
H177 H 0.93558 0.48209 0.99221 0.0
H178 H 0.95357 0.42559 0.9815 0.0
C179 C 0.95712 0.44236 1.00118 0.0
C180 C 0.65702 0.81219 0.24217 0.0
C181 C 0.64609 0.7989 0.24182 0.0
C182 C 0.64745 0.78718 0.22941 0.0
C183 C 0.67049 0.80178 0.21836 0.0
C184 C 0.66905 0.81337 0.23041 0.0
C185 C 0.68171 0.82663 0.2292 0.0
H186 H 0.74934 0.85644 0.19373 0.0
C187 C 0.68448 0.80642 0.20827 0.0
C188 C 0.6911 0.82099 0.21457 0.0
H189 H 0.72244 0.87769 0.23279 0.0
H190 H 0.70278 0.85563 0.23119 0.0
H191 H 0.71902 0.84855 0.1723 0.0
H192 H 0.74549 0.81873 0.20457 0.0
H193 H 0.74164 0.80744 0.18678 0.0
H194 H 0.75342 0.82598 0.18586 0.0
H195 H 0.73755 0.83944 0.16642 0.0
H196 H 0.7183 0.82904 0.16374 0.0
C197 C 0.67312 0.84277 0.22614 0.0
C198 C 0.6921 0.8266 0.24473 0.0
C199 C 0.70056 0.7707 0.16072 0.0
C200 C 0.713 0.77198 0.14927 0.0
C201 C 0.72402 0.78521 0.15038 0.0
C202 C 0.72268 0.79696 0.16258 0.0
C203 C 0.71016 0.79558 0.17386 0.0
C204 C 0.69934 0.78263 0.17282 0.0
C205 C 0.68672 0.7833 0.18581 0.0
C206 C 0.69168 0.79885 0.19468 0.0
C207 C 0.70547 0.80591 0.18766 0.0
C208 C 0.66997 0.78457 0.17763 0.0
C209 C 0.68853 0.76825 0.1965 0.0
C210 C 0.73925 0.85622 0.20199 0.0
C211 C 0.73745 0.86865 0.2135 0.0
C212 C 0.72401 0.86821 0.22382 0.0
C213 C 0.71266 0.85538 0.2229 0.0
C214 C 0.71468 0.84292 0.21143 0.0
C215 C 0.72767 0.84363 0.20104 0.0
C216 C 0.72736 0.82985 0.18902 0.0
C217 C 0.71228 0.82054 0.19415 0.0
C218 C 0.70501 0.82814 0.20739 0.0
C219 C 0.72558 0.83696 0.17194 0.0
C220 C 0.7428 0.81995 0.19152 0.0
H221 H 0.65992 0.77922 0.20862 0.0
H222 H 0.65645 0.82136 0.25159 0.0
H223 H 0.6947 0.81399 0.24827 0.0
H224 H 0.70402 0.83261 0.24332 0.0
H225 H 0.68573 0.83248 0.25491 0.0
H226 H 0.66163 0.84069 0.21938 0.0
H227 H 0.67017 0.84903 0.23764 0.0
H228 H 0.68029 0.85109 0.21854 0.0
H229 H 0.69181 0.76077 0.16013 0.0
H230 H 0.73384 0.78638 0.14188 0.0
H231 H 0.73149 0.80667 0.16276 0.0
H232 H 0.67077 0.79225 0.16676 0.0
H233 H 0.66519 0.77247 0.17376 0.0
H234 H 0.66099 0.79045 0.18541 0.0
H235 H 0.70146 0.76521 0.19794 0.0
H236 H 0.68414 0.77016 0.20889 0.0
H237 H 0.68217 0.75751 0.19108 0.0
H238 H 0.63905 0.77696 0.22865 0.0
C239 C 0.65955 0.78855 0.21771 0.0
C240 C 0.03542 0.92432 0.51078 0.0
C241 C 0.02183 0.91391 0.50906 0.0
C242 C 0.01073 0.9167 0.49653 0.0
C243 C 0.02687 0.93975 0.4877 0.0
C244 C 0.03767 0.93709 0.50006 0.0
C245 C 0.05141 0.94929 0.50035 0.0
H246 H 0.08919 0.01423 0.46752 0.0
C247 C 0.0328 0.954 0.47867 0.0
C248 C 0.04716 0.95966 0.48608 0.0
H249 H 0.10302 0.98785 0.50981 0.0
H250 H 0.07987 0.97003 0.50641 0.0
H251 H 0.05176 0.01548 0.4764 0.0
H252 H 0.07826 0.98311 0.44587 0.0
H253 H 0.06025 0.98761 0.43581 0.0
H254 H 0.07461 0.00369 0.44063 0.0
H255 H 0.05906 0.02134 0.45699 0.0
H256 H 0.0397 0.01125 0.45938 0.0
C257 C 0.05076 0.95894 0.51648 0.0
C258 C 0.06729 0.94013 0.49759 0.0
C259 C 1.00184 0.97299 0.42964 0.0
C260 C 0.00441 0.98577 0.41885 0.0
C261 C 0.01798 0.99617 0.42117 0.0
C262 C 0.02883 0.99385 0.43388 0.0
C263 C 0.02613 0.98099 0.4445 0.0
C264 C 0.01278 0.97086 0.44231 0.0
C265 C 0.01178 0.95792 0.45487 0.0
C266 C 0.02676 0.96192 0.46489 0.0
C267 C 0.03515 0.97542 0.45872 0.0
C268 C 0.99608 0.96024 0.46462 0.0
C269 C 0.01287 0.94126 0.44621 0.0
C270 C 0.08719 0.0047 0.47613 0.0
C271 C 0.09811 1.00247 0.48892 0.0
C272 C 0.09505 0.98973 0.49969 0.0
C273 C 0.08148 0.97943 0.49777 0.0
C274 C 0.07073 0.98183 0.48494 0.0
C275 C 0.07364 0.99434 0.47443 0.0
C276 C 0.06077 0.9952 0.46165 0.0
C277 C 0.04968 0.98114 0.46622 0.0
C278 C 0.05562 0.97332 0.47984 0.0
C279 C 0.05238 0.01168 0.46352 0.0
C280 C 0.06878 0.99238 0.44506 0.0
H281 H 0.00434 0.93093 0.47655 0.0
H282 H 0.04406 0.92269 0.5204 0.0
H283 H 0.06543 0.93011 0.48864 0.0
H284 H 0.07703 0.94781 0.49253 0.0
H285 H 0.07164 0.93476 0.50894 0.0
H286 H 0.03809 0.96028 0.52058 0.0
H287 H 0.05743 0.95273 0.52613 0.0
H288 H 0.05553 0.97147 0.51548 0.0
H289 H 0.99144 0.96489 0.42835 0.0
H290 H 0.02038 0.00598 0.41296 0.0
H291 H 0.03895 1.00213 0.4349 0.0
H292 H 0.99338 0.9733 0.46604 0.0
H293 H 0.98558 0.95422 0.45849 0.0
H294 H 0.99695 0.95577 0.47704 0.0
H295 H 0.02164 0.94185 0.43611 0.0
H296 H 0.01734 0.93171 0.4541 0.0
H297 H 1.00098 0.93732 0.44112 0.0
H298 H 1.00024 0.90879 0.49482 0.0
C299 C 0.01318 0.92952 0.48587 0.0
C300 C 0.24212 0.65746 0.81262 0.0
C301 C 0.24223 0.64676 0.79927 0.0
C302 C 0.23014 0.64809 0.78737 0.0
C303 C 0.21827 0.67034 0.80214 0.0
C304 C 0.23011 0.66908 0.8138 0.0
C305 C 0.2284 0.68144 0.82712 0.0
H306 H 0.18688 0.74302 0.86022 0.0
C307 C 0.20756 0.68361 0.80702 0.0
C308 C 0.21341 0.6901 0.82171 0.0
H309 H 0.23209 0.72353 0.87647 0.0
H310 H 0.23107 0.70386 0.85485 0.0
H311 H 0.16908 0.70915 0.84979 0.0
H312 H 0.19747 0.74459 0.82439 0.0
H313 H 0.18213 0.73802 0.8111 0.0
H314 H 0.17686 0.74786 0.82981 0.0
H315 H 0.16165 0.72868 0.8448 0.0
H316 H 0.15973 0.71168 0.83099 0.0
C317 C 0.22558 0.67235 0.84307 0.0
C318 C 0.2436 0.69274 0.82716 0.0
C319 C 0.16046 0.69905 0.77112 0.0
C320 C 0.14846 0.71076 0.77271 0.0
C321 C 0.14803 0.72024 0.78697 0.0
C322 C 0.15948 0.7184 0.79919 0.0
C323 C 0.17161 0.70696 0.79725 0.0
C324 C 0.17185 0.69736 0.78351 0.0
C325 C 0.18547 0.68559 0.7838 0.0
C326 C 0.19355 0.69003 0.79978 0.0
C327 C 0.18538 0.7026 0.80755 0.0
C328 C 0.17805 0.66822 0.78378 0.0
C329 C 0.19667 0.68919 0.76934 0.0
C330 C 0.19665 0.73462 0.85917 0.0
C331 C 0.20957 0.73498 0.87026 0.0
C332 C 0.22181 0.72349 0.86839 0.0
C333 C 0.22132 0.71214 0.85566 0.0
C334 C 0.20858 0.71232 0.84445 0.0
C335 C 0.19655 0.72346 0.84633 0.0
C336 C 0.18449 0.72262 0.83276 0.0
C337 C 0.19122 0.70909 0.82244 0.0
C338 C 0.20523 0.70297 0.82942 0.0
C339 C 0.16779 0.71791 0.83984 0.0
C340 C 0.18508 0.7391 0.82404 0.0
H341 H 0.20942 0.66018 0.77924 0.0
H342 H 0.2511 0.65674 0.82207 0.0
H343 H 0.24878 0.6938 0.81487 0.0
H344 H 0.24094 0.70531 0.8308 0.0
H345 H 0.25318 0.6881 0.83514 0.0
H346 H 0.21704 0.66192 0.84116 0.0
H347 H 0.23706 0.66758 0.84779 0.0
H348 H 0.22007 0.67992 0.85251 0.0
H349 H 0.16119 0.69156 0.76036 0.0
H350 H 0.13871 0.72905 0.78876 0.0
H351 H 0.15847 0.72605 0.80966 0.0
H352 H 0.16647 0.66781 0.79051 0.0
H353 H 0.17551 0.66377 0.77132 0.0
H354 H 0.18576 0.6595 0.78995 0.0
H355 H 0.19813 0.70246 0.76762 0.0
H356 H 0.20902 0.68481 0.77105 0.0
H357 H 0.1916 0.68383 0.75802 0.0
H358 H 0.23004 0.64023 0.77683 0.0
C359 C 0.2182 0.65977 0.78874 0.0
C360 C 0.92651 0.50895 0.49095 0.0
C361 C 0.92205 0.49454 0.4827 0.0
C362 C 0.93172 0.48922 0.46981 0.0
C363 C 0.9498 0.51246 0.47355 0.0
C364 C 0.94038 0.51764 0.48622 0.0
C365 C 0.94686 0.53311 0.4938 0.0
H366 H 0.00424 0.59273 0.49683 0.0
C367 C 0.96337 0.52423 0.47173 0.0
C368 C 0.96173 0.53634 0.4836 0.0
H369 H 0.96191 0.58707 0.52675 0.0
H370 H 0.9542 0.56271 0.51223 0.0
H371 H 0.98562 0.5836 0.46341 0.0
H372 H 0.01382 0.55564 0.49602 0.0
H373 H 0.01908 0.54972 0.47637 0.0
H374 H 0.02279 0.57037 0.48294 0.0
H375 H 0.00715 0.58596 0.46502 0.0
H376 H 0.99785 0.57102 0.4517 0.0
C377 C 0.93405 0.5463 0.49167 0.0
C378 C 0.9513 0.52966 0.51154 0.0
C379 C 0.00454 0.51627 0.42717 0.0
C380 C 0.01847 0.52509 0.4226 0.0
C381 C 0.02307 0.53906 0.4316 0.0
C382 C 0.01394 0.54424 0.44479 0.0
C383 C 0.99999 0.53538 0.44912 0.0
C384 C 0.99555 0.5216 0.44042 0.0
C385 C 0.98047 0.51361 0.44691 0.0
C386 C 0.9765 0.52498 0.46079 0.0
C387 C 0.98795 0.53774 0.46199 0.0
C388 C 0.96738 0.51364 0.43355 0.0
C389 C 0.98482 0.49655 0.45281 0.0
C390 C 0.99324 0.58634 0.50018 0.0
C391 C 0.98378 0.59185 0.5131 0.0
C392 C 0.96962 0.58298 0.51709 0.0
C393 C 0.96509 0.56886 0.50855 0.0
C394 C 0.97473 0.56345 0.49579 0.0
C395 C 0.98849 0.5722 0.49172 0.0
C396 C 0.99713 0.5647 0.47766 0.0
C397 C 0.98635 0.54996 0.47406 0.0
C398 C 0.97327 0.54929 0.48475 0.0
C399 C 0.99711 0.5769 0.46368 0.0
C400 C 0.01416 0.55991 0.48339 0.0
H401 H 0.9523 0.49341 0.45525 0.0
H402 H 0.91946 0.51331 0.501 0.0
H403 H 0.95638 0.51739 0.51266 0.0
H404 H 0.96078 0.53797 0.51642 0.0
H405 H 0.94052 0.53022 0.5194 0.0
H406 H 0.92742 0.54456 0.48008 0.0
H407 H 0.92502 0.5459 0.50151 0.0
H408 H 0.9394 0.55863 0.49106 0.0
H409 H 1.00075 0.50539 0.42064 0.0
H410 H 0.03361 0.54622 0.42824 0.0
H411 H 0.01806 0.55501 0.45105 0.0
H412 H 0.96793 0.52518 0.42683 0.0
H413 H 0.96909 0.5036 0.42474 0.0
H414 H 0.95498 0.51283 0.43831 0.0
H415 H 0.99736 0.49647 0.45764 0.0
H416 H 0.9772 0.49243 0.46291 0.0
H417 H 0.98397 0.48746 0.44284 0.0
H418 H 0.92846 0.47829 0.46309 0.0
C419 C 0.94553 0.49808 0.4652 0.0
C420 C 0.8161 0.77663 0.85579 0.0
C421 C 0.8035 0.77673 0.86709 0.0
C422 C 0.79185 0.78886 0.86617 0.0
C423 C 0.80497 0.79997 0.84261 0.0
C424 C 0.81656 0.78829 0.84369 0.0
C425 C 0.82879 0.78953 0.8304 0.0
H426 H 0.8545 0.82509 0.76188 0.0
C427 C 0.80859 0.80987 0.82831 0.0
C428 C 0.82257 0.80383 0.82113 0.0
H429 H 0.87565 0.7853 0.78702 0.0
H430 H 0.85532 0.78706 0.80756 0.0
H431 H 0.84747 0.84693 0.79425 0.0
H432 H 0.81814 0.81337 0.76605 0.0
H433 H 0.80596 0.82968 0.77136 0.0
H434 H 0.82355 0.83319 0.75906 0.0
H435 H 0.84015 0.85158 0.77452 0.0
H436 H 0.82824 0.85522 0.79228 0.0
C437 C 0.84553 0.7933 0.83813 0.0
C438 C 0.82782 0.77363 0.82028 0.0
C439 C 0.77114 0.85506 0.81286 0.0
C440 C 0.77099 0.86593 0.79997 0.0
C441 C 0.78352 0.86529 0.78852 0.0
C442 C 0.79586 0.85407 0.78983 0.0
C443 C 0.79574 0.84323 0.8027 0.0
C444 C 0.78353 0.84387 0.81396 0.0
C445 C 0.78527 0.8313 0.82672 0.0
C446 C 0.80053 0.82303 0.82129 0.0
C447 C 0.80661 0.83006 0.80719 0.0
C448 C 0.78761 0.84012 0.84318 0.0
C449 C 0.77029 0.81974 0.82576 0.0
C450 C 0.85486 0.8169 0.77192 0.0
C451 C 0.86667 0.80497 0.77275 0.0
C452 C 0.86656 0.79443 0.78595 0.0
C453 C 0.85476 0.79551 0.79792 0.0
C454 C 0.84283 0.80723 0.79674 0.0
C455 C 0.84308 0.81777 0.78398 0.0
C456 C 0.82933 0.82935 0.78468 0.0
C457 C 0.82079 0.82398 0.79992 0.0
C458 C 0.82875 0.81099 0.8069 0.0
C459 C 0.83654 0.84674 0.78641 0.0
C460 C 0.81867 0.82643 0.76949 0.0
H461 H 0.78325 0.8093 0.85398 0.0
H462 H 0.82515 0.7674 0.85604 0.0
H463 H 0.81513 0.76899 0.81932 0.0
H464 H 0.83174 0.7752 0.80771 0.0
H465 H 0.83507 0.76406 0.82587 0.0
H466 H 0.84439 0.80119 0.84902 0.0
H467 H 0.85145 0.78204 0.84188 0.0
H468 H 0.85373 0.80012 0.83011 0.0
H469 H 0.76185 0.85529 0.82199 0.0
H470 H 0.78363 0.8733 0.77832 0.0
H471 H 0.80495 0.85418 0.78067 0.0
H472 H 0.79489 0.85149 0.84183 0.0
H473 H 0.77582 0.84339 0.84849 0.0
H474 H 0.79438 0.83298 0.85195 0.0
H475 H 0.76627 0.81785 0.81306 0.0
H476 H 0.7727 0.80748 0.83012 0.0
H477 H 0.76 0.82475 0.83259 0.0
H478 H 0.78215 0.78937 0.87486 0.0
C479 C 0.79253 0.80047 0.85405 0.0
C480 C 0.31614 0.27755 0.35485 0.0
C481 C 0.30314 0.27709 0.3657 0.0
C482 C 0.29092 0.2886 0.36414 0.0
C483 C 0.30451 0.30028 0.34109 0.0
C484 C 0.31653 0.2891 0.34268 0.0
C485 C 0.32921 0.29079 0.32988 0.0
H486 H 0.35562 0.32611 0.26155 0.0
C487 C 0.3083 0.31029 0.3269 0.0
C488 C 0.32276 0.30473 0.32026 0.0
H489 H 0.3781 0.28842 0.28862 0.0
H490 H 0.35701 0.28963 0.30846 0.0
H491 H 0.34775 0.34807 0.29229 0.0
H492 H 0.31867 0.31314 0.26559 0.0
H493 H 0.30672 0.33003 0.26958 0.0
H494 H 0.32471 0.33242 0.25765 0.0
H495 H 0.3391 0.35258 0.27309 0.0
H496 H 0.32816 0.35562 0.2916 0.0
C497 C 0.34552 0.29529 0.33819 0.0
C498 C 0.32926 0.27482 0.31987 0.0
C499 C 0.27096 0.35543 0.31075 0.0
C500 C 0.27126 0.36652 0.29803 0.0
C501 C 0.2839 0.36575 0.28672 0.0
C502 C 0.29602 0.35431 0.28809 0.0
C503 C 0.2956 0.3434 0.30089 0.0
C504 C 0.28319 0.34404 0.31194 0.0
C505 C 0.28466 0.33136 0.32466 0.0
C506 C 0.30014 0.32323 0.31958 0.0
C507 C 0.30645 0.33032 0.30561 0.0
C508 C 0.28651 0.34006 0.34123 0.0
C509 C 0.26979 0.3197 0.32326 0.0
C510 C 0.35591 0.31808 0.27173 0.0
C511 C 0.3685 0.30711 0.27349 0.0
C512 C 0.36861 0.29706 0.28705 0.0
C513 C 0.35628 0.29771 0.29852 0.0
C514 C 0.34366 0.30856 0.29649 0.0
C515 C 0.34374 0.31868 0.2834 0.0
C516 C 0.32967 0.32988 0.2836 0.0
C517 C 0.32098 0.32456 0.29878 0.0
C518 C 0.32916 0.31196 0.30618 0.0
C519 C 0.33639 0.3475 0.28511 0.0
C520 C 0.31937 0.32636 0.26829 0.0
H521 H 0.28184 0.3085 0.35139 0.0
H522 H 0.32586 0.26907 0.35576 0.0
H523 H 0.31674 0.26998 0.31801 0.0
H524 H 0.33415 0.27633 0.30765 0.0
H525 H 0.33619 0.26541 0.32611 0.0
H526 H 0.34365 0.30264 0.34933 0.0
H527 H 0.35208 0.2843 0.34166 0.0
H528 H 0.35345 0.30295 0.33064 0.0
H529 H 0.26152 0.3557 0.31972 0.0
H530 H 0.28431 0.37388 0.27663 0.0
H531 H 0.30524 0.35437 0.27906 0.0
H532 H 0.29442 0.35106 0.34025 0.0
H533 H 0.27462 0.34392 0.34585 0.0
H534 H 0.29234 0.33258 0.35037 0.0
H535 H 0.26577 0.31825 0.31051 0.0
H536 H 0.27238 0.30731 0.32713 0.0
H537 H 0.25946 0.32433 0.33029 0.0
H538 H 0.28061 0.28845 0.37212 0.0
C539 C 0.29156 0.30018 0.35197 0.0
C540 C 0.48404 0.92674 0.50928 0.0
C541 C 0.47518 0.9228 0.49522 0.0
C542 C 0.46216 0.93259 0.49093 0.0
C543 C 0.46684 0.94963 0.51459 0.0
C544 C 0.47966 0.94011 0.51874 0.0
C545 C 0.48766 0.94576 0.53417 0.0
H546 H 0.49064 0.99765 0.59799 0.0
C547 C 0.46532 0.96242 0.52713 0.0
C548 C 0.47749 0.96019 0.53865 0.0
H549 H 0.52241 0.95819 0.58708 0.0
H550 H 0.50736 0.95197 0.56288 0.0
H551 H 0.4576 0.97913 0.58763 0.0
H552 H 0.48968 0.01107 0.56177 0.0
H553 H 0.46985 0.01621 0.55678 0.0
H554 H 0.47663 0.0182 0.5774 0.0
H555 H 0.45909 1.00045 0.59189 0.0
H556 H 0.44564 0.99228 0.57655 0.0
C557 C 0.48592 0.93201 0.54657 0.0
C558 C 0.50533 0.95088 0.53035 0.0
C559 C 0.42095 0.00377 0.52287 0.0
C560 C 0.41635 0.01682 0.53279 0.0
C561 C 0.42519 0.02014 0.54706 0.0
C562 C 0.43831 0.01068 0.55138 0.0
C563 C 0.44272 0.99768 0.54138 0.0
C564 C 0.43407 0.9944 0.52739 0.0
C565 C 0.4404 0.97999 0.51833 0.0
C566 C 0.45433 0.97525 0.5291 0.0
C567 C 0.45563 0.98566 0.54259 0.0
C568 C 0.42687 0.96674 0.51763 0.0
C569 C 0.44631 0.98573 0.50165 0.0
C570 C 0.49444 0.98774 0.59034 0.0
C571 C 0.50773 0.97834 0.59462 0.0
C572 C 0.51208 0.96545 0.58432 0.0
C573 C 0.50338 0.96192 0.57015 0.0
C574 C 0.49014 0.97137 0.56609 0.0
C575 C 0.4859 0.98407 0.57608 0.0
C576 C 0.47159 0.99291 0.5697 0.0
C577 C 0.46794 0.98338 0.55427 0.0
C578 C 0.47882 0.97075 0.55226 0.0
C579 C 0.45771 0.99128 0.58205 0.0
C580 C 0.47706 0.01057 0.56629 0.0
H581 H 0.44794 0.95287 0.49657 0.0
H582 H 0.49399 0.9194 0.51304 0.0
H583 H 0.50626 0.95619 0.51815 0.0
H584 H 0.51015 0.96045 0.53857 0.0
H585 H 0.5134 0.94035 0.53066 0.0
H586 H 0.474 0.92563 0.54526 0.0
H587 H 0.49542 0.9229 0.54485 0.0
H588 H 0.48627 0.93643 0.55917 0.0
H589 H 0.41433 1.00074 0.51193 0.0
H590 H 0.42209 0.03023 0.55483 0.0
H591 H 0.44451 0.01388 0.56237 0.0
H592 H 0.41965 0.96679 0.5289 0.0
H593 H 0.41846 0.96871 0.50744 0.0
H594 H 0.43156 0.95438 0.51668 0.0
H595 H 0.45213 0.99797 0.50262 0.0
H596 H 0.45565 0.97795 0.49642 0.0
H597 H 0.4361 0.98643 0.49301 0.0
H598 H 0.45526 0.92999 0.48006 0.0
C599 C 0.45797 0.94595 0.50051 0.0
C600 C 0.15523 0.31405 0.74031 0.0
C601 C 0.14442 0.30066 0.74036 0.0
C602 C 0.14569 0.28874 0.72812 0.0
C603 C 0.16834 0.30341 0.71641 0.0
C604 C 0.16703 0.31515 0.72832 0.0
C605 C 0.17961 0.32844 0.72678 0.0
H606 H 0.24498 0.35934 0.68835 0.0
C607 C 0.1821 0.30804 0.70599 0.0
C608 C 0.18872 0.32272 0.71202 0.0
H609 H 0.22123 0.37849 0.73059 0.0
H610 H 0.20136 0.35681 0.72908 0.0
H611 H 0.21219 0.3493 0.66848 0.0
H612 H 0.24395 0.32333 0.69937 0.0
H613 H 0.23818 0.30992 0.68373 0.0
H614 H 0.24927 0.32829 0.67909 0.0
H615 H 0.23212 0.34368 0.66254 0.0
H616 H 0.21494 0.33016 0.65955 0.0
C617 C 0.17087 0.34448 0.72374 0.0
C618 C 0.1903 0.32858 0.74214 0.0
C619 C 0.19785 0.27162 0.65887 0.0
C620 C 0.21044 0.27252 0.64756 0.0
C621 C 0.22126 0.28593 0.64817 0.0
C622 C 0.21964 0.29819 0.65982 0.0
C623 C 0.2071 0.29707 0.67112 0.0
C624 C 0.19647 0.28395 0.67054 0.0
C625 C 0.1841 0.28468 0.68375 0.0
C626 C 0.18902 0.30044 0.69228 0.0
C627 C 0.20249 0.30763 0.68479 0.0
C628 C 0.16719 0.28562 0.67586 0.0
C629 C 0.18629 0.26985 0.69467 0.0
C630 C 0.23553 0.35887 0.69731 0.0
C631 C 0.23476 0.37072 0.70961 0.0
C632 C 0.22205 0.36971 0.72084 0.0
C633 C 0.21058 0.35698 0.72005 0.0
C634 C 0.2118 0.34501 0.70795 0.0
C635 C 0.22405 0.34617 0.69676 0.0
C636 C 0.22365 0.33224 0.68491 0.0
C637 C 0.20918 0.32248 0.69087 0.0
C638 C 0.20229 0.33001 0.70436 0.0
C639 C 0.22068 0.33908 0.66792 0.0
C640 C 0.23959 0.32294 0.68668 0.0
H641 H 0.15792 0.28053 0.70727 0.0
H642 H 0.15451 0.32354 0.74939 0.0
H643 H 0.19193 0.31609 0.74657 0.0
H644 H 0.20267 0.33329 0.74004 0.0
H645 H 0.18475 0.33573 0.752 0.0
H646 H 0.15999 0.34234 0.71603 0.0
H647 H 0.16685 0.3501 0.73522 0.0
H648 H 0.17836 0.35335 0.71713 0.0
H649 H 0.18944 0.2614 0.65882 0.0
H650 H 0.23092 0.28703 0.63948 0.0
H651 H 0.22826 0.30806 0.65959 0.0
H652 H 0.16765 0.29333 0.66501 0.0
H653 H 0.16261 0.27342 0.67202 0.0
H654 H 0.15821 0.29126 0.68381 0.0
H655 H 0.19926 0.2668 0.69571 0.0
H656 H 0.18237 0.27203 0.70719 0.0
H657 H 0.17972 0.25902 0.68971 0.0
H658 H 0.13771 0.27819 0.72794 0.0
C659 C 0.15754 0.29006 0.71617 0.0
C660 C 0.77625 0.15331 0.71133 0.0
C661 C 0.76214 0.15119 0.70205 0.0
C662 C 0.75844 0.16274 0.69038 0.0
C663 C 0.78296 0.17803 0.69712 0.0
C664 C 0.78636 0.16684 0.70879 0.0
C665 C 0.80141 0.1713 0.71817 0.0
H666 H 0.86648 0.22117 0.72976 0.0
C667 C 0.79598 0.19059 0.69751 0.0
C668 C 0.80676 0.18676 0.70989 0.0
H669 H 0.85141 0.18018 0.75811 0.0
H670 H 0.82821 0.17561 0.74079 0.0
H671 H 0.83189 0.23587 0.72763 0.0
H672 H 0.85712 0.20538 0.69416 0.0
H673 H 0.84792 0.2207 0.68317 0.0
H674 H 0.86296 0.22609 0.69817 0.0
H675 H 0.84788 0.24359 0.7152 0.0
H676 H 0.82721 0.24255 0.70826 0.0
C677 C 0.79666 0.17439 0.73599 0.0
C678 C 0.81366 0.15764 0.71567 0.0
C679 C 0.79595 0.23612 0.65696 0.0
C680 C 0.80651 0.24938 0.6542 0.0
C681 C 0.8204 0.25136 0.66398 0.0
C682 C 0.82369 0.24043 0.67625 0.0
C683 C 0.81298 0.22733 0.67888 0.0
C684 C 0.79939 0.22533 0.6693 0.0
C685 C 0.78932 0.21075 0.67391 0.0
C686 C 0.79907 0.20437 0.68787 0.0
C687 C 0.81293 0.21412 0.69071 0.0
C688 C 0.77252 0.21657 0.67936 0.0
C689 C 0.78886 0.19879 0.65939 0.0
C690 C 0.85822 0.21113 0.73207 0.0
C691 C 0.86075 0.20092 0.74518 0.0
C692 C 0.84963 0.18818 0.74807 0.0
C693 C 0.83619 0.18556 0.738 0.0
C694 C 0.83371 0.19592 0.725 0.0
C695 C 0.84455 0.20854 0.72229 0.0
C696 C 0.83943 0.21885 0.70848 0.0
C697 C 0.8238 0.21028 0.7033 0.0
C698 C 0.82063 0.19676 0.71291 0.0
C699 C 0.83653 0.23618 0.71508 0.0
C700 C 0.85252 0.21788 0.69527 0.0
H701 H 0.76541 0.18442 0.67867 0.0
H702 H 0.7792 0.14477 0.7206 0.0
H703 H 0.81388 0.15367 0.70281 0.0
H704 H 0.82618 0.16144 0.71863 0.0
H705 H 0.81035 0.14693 0.72298 0.0
H706 H 0.78388 0.17812 0.73706 0.0
H707 H 0.79803 0.16335 0.74328 0.0
H708 H 0.80373 0.18449 0.74164 0.0
H709 H 0.78527 0.23408 0.64959 0.0
H710 H 0.82864 0.26155 0.66233 0.0
H711 H 0.83442 0.24268 0.68327 0.0
H712 H 0.77347 0.22872 0.68528 0.0
H713 H 0.76416 0.2175 0.66895 0.0
H714 H 0.76692 0.20869 0.6885 0.0
H715 H 0.80088 0.19833 0.65351 0.0
H716 H 0.78601 0.18621 0.66282 0.0
H717 H 0.77998 0.20254 0.65019 0.0
H718 H 0.7476 0.16132 0.68312 0.0
C719 C 0.76882 0.1761 0.68781 0.0
C720 C 0.54089 0.59063 0.50777 0.0
C721 C 0.52795 0.60123 0.50966 0.0
C722 C 0.51705 0.59867 0.52243 0.0
C723 C 0.532 0.57544 0.53107 0.0
C724 C 0.54266 0.57789 0.51854 0.0
C725 C 0.55575 0.56558 0.51821 0.0
H726 H 0.58907 0.49913 0.55008 0.0
C727 C 0.53728 0.56119 0.54011 0.0
C728 C 0.5512 0.55535 0.53262 0.0
H729 H 0.60557 0.52671 0.5092 0.0
H730 H 0.5835 0.54487 0.51258 0.0
H731 H 0.58211 0.52965 0.5723 0.0
H732 H 0.55104 0.50011 0.54176 0.0
H733 H 0.54067 0.5037 0.55983 0.0
H734 H 0.5594 0.49306 0.56027 0.0
H735 H 0.57507 0.50991 0.57811 0.0
H736 H 0.56358 0.52777 0.58231 0.0
C737 C 0.57219 0.57459 0.52071 0.0
C738 C 0.55424 0.55584 0.50218 0.0
C739 C 0.50573 0.54244 0.5892 0.0
C740 C 0.50787 0.52977 0.60011 0.0
C741 C 0.52105 0.51947 0.59789 0.0
C742 C 0.53179 0.52165 0.58509 0.0
C743 C 0.52948 0.53433 0.57432 0.0
C744 C 0.51664 0.5445 0.57648 0.0
C745 C 0.51623 0.55744 0.56393 0.0
C746 C 0.53094 0.55336 0.55392 0.0
C747 C 0.53861 0.53978 0.56005 0.0
C748 C 0.51823 0.5741 0.57259 0.0
C749 C 0.50035 0.55518 0.55416 0.0
C750 C 0.58804 0.50915 0.54192 0.0
C751 C 0.59912 0.51136 0.52929 0.0
C752 C 0.5971 0.5245 0.51887 0.0
C753 C 0.58431 0.53513 0.52091 0.0
C754 C 0.57333 0.5327 0.53355 0.0
C755 C 0.57535 0.51992 0.54383 0.0
C756 C 0.56266 0.51933 0.55673 0.0
C757 C 0.55264 0.53381 0.55242 0.0
C758 C 0.55891 0.54157 0.53881 0.0
C759 C 0.57118 0.52166 0.57328 0.0
C760 C 0.55293 0.5032 0.55472 0.0
H761 H 0.51026 0.58459 0.54252 0.0
H762 H 0.5496 0.59231 0.49822 0.0
H763 H 0.54135 0.55376 0.4988 0.0
H764 H 0.55927 0.54362 0.50289 0.0
H765 H 0.5602 0.56243 0.49218 0.0
H766 H 0.57098 0.58513 0.52907 0.0
H767 H 0.57698 0.5792 0.50914 0.0
H768 H 0.58136 0.56702 0.5264 0.0
H769 H 0.49568 0.55051 0.5904 0.0
H770 H 0.52322 0.5098 0.60622 0.0
H771 H 0.54155 0.51339 0.58413 0.0
H772 H 0.52668 0.57338 0.58299 0.0
H773 H 0.50649 0.57832 0.57727 0.0
H774 H 0.52358 0.58351 0.56484 0.0
H775 H 0.49715 0.54211 0.55251 0.0
H776 H 0.50125 0.55991 0.54184 0.0
H777 H 0.49013 0.56098 0.56043 0.0
H778 H 0.50683 0.60645 0.52406 0.0
C779 C 0.519 0.58588 0.53311 0.0
C780 C 0.53506 0.42679 0.01178 0.0
C781 C 0.52138 0.41651 0.0101 0.0
C782 C 0.51018 0.41951 0.99772 0.0
C783 C 0.52643 0.44253 0.98895 0.0
C784 C 0.53732 0.43964 1.00116 0.0
C785 C 0.5512 0.45168 1.00143 0.0
H786 H 0.58943 0.51644 0.96885 0.0
C787 C 0.53241 0.45682 0.98001 0.0
C788 C 0.54691 0.46223 0.98732 0.0
H789 H 0.60331 0.4895 0.01077 0.0
H790 H 0.57991 0.47199 0.00743 0.0
H791 H 0.5523 0.51822 0.97819 0.0
H792 H 0.57778 0.48564 0.94702 0.0
H793 H 0.55977 0.49061 0.93721 0.0
H794 H 0.57446 0.50636 0.94207 0.0
H795 H 0.5592 0.52406 0.95862 0.0
H796 H 0.53978 0.51419 0.96146 0.0
C797 C 0.55082 0.46117 0.01766 0.0
C798 C 0.56693 0.44236 0.9984 0.0
C799 C 0.50112 0.4769 0.93163 0.0
C800 C 0.50373 0.48982 0.92101 0.0
C801 C 0.51747 0.5 0.9233 0.0
C802 C 0.52843 0.49733 0.93583 0.0
C803 C 0.52569 0.48434 0.94628 0.0
C804 C 0.51219 0.47442 0.94412 0.0
C805 C 0.51118 0.4613 0.9565 0.0
C806 C 0.52632 0.46498 0.96639 0.0
C807 C 0.53479 0.47846 0.9603 0.0
C808 C 0.49563 0.46367 0.96647 0.0
C809 C 0.51196 0.44475 0.94761 0.0
C810 C 0.58739 0.50686 0.9774 0.0
C811 C 0.59839 0.50436 0.99005 0.0
C812 C 0.59527 0.49157 1.00074 0.0
C813 C 0.58156 0.48146 0.99886 0.0
C814 C 0.57073 0.48412 0.98617 0.0
C815 C 0.5737 0.49669 0.97574 0.0
C816 C 0.5607 0.49787 0.96313 0.0
C817 C 0.54948 0.4839 0.96769 0.0
C818 C 0.55546 0.47586 0.98115 0.0
C819 C 0.55256 0.51446 0.96528 0.0
C820 C 0.56848 0.4951 0.94642 0.0
H821 H 0.50372 0.434 0.97794 0.0
H822 H 0.54378 0.42501 0.0213 0.0
H823 H 0.56487 0.43243 0.98939 0.0
H824 H 0.57669 0.44997 0.99328 0.0
H825 H 0.57136 0.43684 0.00965 0.0
H826 H 0.53822 0.46257 0.02194 0.0
H827 H 0.55755 0.45482 0.02717 0.0
H828 H 0.55567 0.47368 0.01673 0.0
H829 H 0.49061 0.46896 0.93034 0.0
H830 H 0.5199 0.5099 0.91521 0.0
H831 H 0.53867 0.50545 0.93683 0.0
H832 H 0.49318 0.47676 0.96821 0.0
H833 H 0.48497 0.45798 0.96032 0.0
H834 H 0.49653 0.45889 0.97877 0.0
H835 H 0.52063 0.44537 0.93742 0.0
H836 H 0.51638 0.43502 0.95531 0.0
H837 H 0.49997 0.44104 0.94259 0.0
H838 H 0.49961 0.4117 0.99604 0.0
C839 C 0.51264 0.43242 0.98715 0.0
C840 C 0.74263 0.1609 0.31113 0.0
C841 C 0.74234 0.14963 0.29827 0.0
C842 C 0.72986 0.15038 0.28671 0.0
C843 C 0.71849 0.17336 0.30079 0.0
C844 C 0.73065 0.17254 0.31216 0.0
C845 C 0.72927 0.18533 0.32511 0.0
H846 H 0.68981 0.24903 0.35666 0.0
C847 C 0.70807 0.18698 0.30532 0.0
C848 C 0.71433 0.194 0.31961 0.0
H849 H 0.73308 0.22696 0.37452 0.0
H850 H 0.73202 0.20756 0.35267 0.0
H851 H 0.67067 0.21561 0.34652 0.0
H852 H 0.70072 0.24927 0.32057 0.0
H853 H 0.68552 0.24264 0.30713 0.0
H854 H 0.68012 0.25343 0.3253 0.0
H855 H 0.6645 0.23561 0.3416 0.0
H856 H 0.66139 0.21879 0.3278 0.0
C857 C 0.72658 0.17675 0.34138 0.0
C858 C 0.74459 0.19643 0.32455 0.0
C859 C 0.66023 0.20129 0.26995 0.0
C860 C 0.6489 0.2137 0.27087 0.0
C861 C 0.64965 0.22468 0.28401 0.0
C862 C 0.66148 0.22341 0.29599 0.0
C863 C 0.6728 0.21106 0.29484 0.0
C864 C 0.67209 0.20027 0.28198 0.0
C865 C 0.68537 0.18815 0.28264 0.0
C866 C 0.69414 0.19348 0.29799 0.0
C867 C 0.68666 0.20687 0.3051 0.0
C868 C 0.67751 0.17107 0.28414 0.0
C869 C 0.69608 0.19036 0.26755 0.0
C870 C 0.69911 0.24008 0.35585 0.0
C871 C 0.71149 0.23955 0.36749 0.0
C872 C 0.72322 0.22752 0.36597 0.0
C873 C 0.72267 0.21631 0.35315 0.0
C874 C 0.71031 0.21709 0.34159 0.0
C875 C 0.69881 0.22884 0.34306 0.0
C876 C 0.68679 0.22809 0.32943 0.0
C877 C 0.69291 0.21386 0.31962 0.0
C878 C 0.70667 0.20746 0.32682 0.0
C879 C 0.66988 0.22445 0.33659 0.0
C880 C 0.68817 0.24417 0.32011 0.0
H881 H 0.70881 0.16204 0.27873 0.0
H882 H 0.75211 0.16086 0.32014 0.0
H883 H 0.74886 0.19788 0.31196 0.0
H884 H 0.74244 0.20888 0.3289 0.0
H885 H 0.75461 0.19131 0.33161 0.0
H886 H 0.71896 0.16559 0.33972 0.0
H887 H 0.73822 0.17317 0.34677 0.0
H888 H 0.71999 0.18418 0.35021 0.0
H889 H 0.66007 0.19276 0.25993 0.0
H890 H 0.64095 0.2342 0.28512 0.0
H891 H 0.66135 0.23213 0.30566 0.0
H892 H 0.66658 0.17144 0.29186 0.0
H893 H 0.67376 0.16611 0.27216 0.0
H894 H 0.68548 0.1624 0.29002 0.0
H895 H 0.69743 0.20338 0.26452 0.0
H896 H 0.70852 0.18623 0.26931 0.0
H897 H 0.69069 0.18392 0.25693 0.0
H898 H 0.72916 0.14172 0.27681 0.0
C899 C 0.71796 0.16214 0.2879 0.0
C900 C 0.42558 0.00866 0.99161 0.0
C901 C 0.42154 0.99392 0.98372 0.0
C902 C 0.43138 0.98864 0.97093 0.0
C903 C 0.44851 0.0127 0.97385 0.0
C904 C 0.43906 0.01776 0.98654 0.0
C905 C 0.445 0.03361 0.99373 0.0
H906 H 0.49901 0.09633 0.99375 0.0
C907 C 0.46143 0.02508 0.97145 0.0
C908 C 0.45946 0.03734 0.98312 0.0
H909 H 0.45919 0.08809 0.02635 0.0
H910 H 0.45187 0.06343 0.01205 0.0
H911 H 0.48001 0.08647 0.96207 0.0
H912 H 0.51076 0.05898 0.99265 0.0
H913 H 0.51591 0.05461 0.97255 0.0
H914 H 0.51814 0.07506 0.98017 0.0
H915 H 0.50158 0.08857 0.96135 0.0
H916 H 0.49073 0.07349 0.94934 0.0
C917 C 0.43156 0.04614 0.99169 0.0
C918 C 0.45003 0.03068 0.01143 0.0
C919 C 0.50161 0.01866 0.92566 0.0
C920 C 0.51441 0.02854 0.92004 0.0
C921 C 0.51795 0.0433 0.92823 0.0
C922 C 0.50903 0.04808 0.94171 0.0
C923 C 0.49629 0.03811 0.94712 0.0
C924 C 0.49271 0.02371 0.9391 0.0
C925 C 0.47845 0.01489 0.94634 0.0
C926 C 0.47409 0.02639 0.96001 0.0
C927 C 0.48465 0.03993 0.96043 0.0
C928 C 0.46495 0.0135 0.93341 0.0
C929 C 0.48422 0.99846 0.95265 0.0
C930 C 0.4888 0.08914 0.9979 0.0
C931 C 0.47968 0.09421 0.01123 0.0
C932 C 0.46631 0.08459 0.01602 0.0
C933 C 0.46214 0.07019 0.00776 0.0
C934 C 0.47141 0.06525 0.99451 0.0
C935 C 0.48446 0.0747 0.98976 0.0
C936 C 0.49282 0.06761 0.97533 0.0
C937 C 0.48278 0.05224 0.97237 0.0
C938 C 0.47026 0.05093 0.98364 0.0
C939 C 0.49138 0.07961 0.96125 0.0
C940 C 0.51038 0.06392 0.98027 0.0
H941 H 0.45174 0.99322 0.95616 0.0
H942 H 0.41826 0.01322 1.00138 0.0
H943 H 0.455 0.01839 0.01282 0.0
H944 H 0.45981 0.03901 0.01567 0.0
H945 H 0.43956 0.03167 0.01966 0.0
H946 H 0.42526 0.04435 0.97993 0.0
H947 H 0.42237 0.04498 1.00133 0.0
H948 H 0.43624 0.05875 0.99156 0.0
H949 H 0.49857 0.0072 0.91981 0.0
H950 H 0.52746 0.05138 0.92405 0.0
H951 H 0.51234 0.05945 0.94731 0.0
H952 H 0.46459 0.02468 0.92613 0.0
H953 H 0.467 0.00318 0.92501 0.0
H954 H 0.45276 0.01222 0.93858 0.0
H955 H 0.49672 0.99961 0.95754 0.0
H956 H 0.4769 0.99391 0.96277 0.0
H957 H 0.48423 0.98915 0.94287 0.0
H958 H 0.4288 0.97722 0.96481 0.0
C959 C 0.44479 0.99792 0.96597 0.0
Mn960 Mn 0.25287 0.87589 0.00849 0.0
Mn961 Mn 0.25364 0.8933 0.97201 0.0
C962 C 0.2412 0.86265 0.98638 0.0
C963 C 0.26405 0.85986 0.02839 0.0
C964 C 0.23024 0.90283 0.99813 0.0
O965 O 0.27063 0.89319 0.01133 0.0
O966 O 0.26977 0.90398 0.98664 0.0
C967 C 0.28634 0.88339 0.96227 0.0
N968 N 0.27019 0.88384 0.95928 0.0
C969 C 0.27345 0.87156 0.93311 0.0
C970 C 0.29014 0.87101 0.93586 0.0
C971 C 0.29659 0.87684 0.95056 0.0
C972 C 0.26382 0.87795 0.94534 0.0
H973 H 0.29138 0.88805 0.97345 0.0
C974 C 0.27559 0.90332 1.00091 0.0
O975 O 0.25353 0.87075 0.03181 0.0
O976 O 0.26836 0.85851 0.01342 0.0
N977 N 0.23893 0.88426 0.95636 0.0
C978 C 0.22252 0.88498 0.95593 0.0
C979 C 0.21413 0.87928 0.94219 0.0
C980 C 0.2227 0.87327 0.92892 0.0
C981 C 0.23959 0.87276 0.92961 0.0
C982 C 0.24727 0.87833 0.94372 0.0
H983 H 0.21591 0.88991 0.96597 0.0
O984 O 0.2367 0.85916 1.00089 0.0
O985 O 0.25248 0.87378 0.98518 0.0
O986 O 0.23549 0.89321 0.0087 0.0
O987 O 0.23606 0.9037 0.98396 0.0
C988 C 0.24913 0.86698 0.91684 0.0
C989 C 0.26602 0.86614 0.91868 0.0
H990 H 0.29809 0.86612 0.92679 0.0
H991 H 0.30945 0.87643 0.95279 0.0
H992 H 0.20109 0.8797 0.94175 0.0
H993 H 0.21619 0.86905 0.91827 0.0
H994 H 0.24357 0.86292 0.90563 0.0
H995 H 0.27317 0.86135 0.9089 0.0
Mn996 Mn 0.13553 0.50525 0.25477 0.0
Mn997 Mn 0.1185 0.54195 0.25623 0.0
C998 C 0.1485 0.52742 0.24327 0.0
C999 C 0.15166 0.48511 0.26535 0.0
C1000 C 0.10807 0.51573 0.23244 0.0
O1001 O 0.11878 0.50241 0.27255 0.0
O1002 O 0.10824 0.52721 0.27198 0.0
C1003 C 0.12963 0.55155 0.28899 0.0
N1004 N 0.1286 0.55466 0.27297 0.0
C1005 C 0.14103 0.581 0.2768 0.0
C1006 C 0.14219 0.57812 0.29336 0.0
C1007 C 0.13658 0.56327 0.29946 0.0
C1008 C 0.13432 0.56872 0.26693 0.0
H1009 H 0.12511 0.54025 0.29376 0.0
C1010 C 0.10885 0.5129 0.27757 0.0
O1011 O 0.14033 0.4818 0.25491 0.0
O1012 O 0.15339 0.50013 0.26998 0.0
N1013 N 0.12705 0.5578 0.24188 0.0
C1014 C 0.12544 0.55846 0.22558 0.0
C1015 C 0.13059 0.57246 0.21754 0.0
C1016 C 0.13692 0.58577 0.22639 0.0
C1017 C 0.13836 0.58484 0.24318 0.0
C1018 C 0.13328 0.57048 0.25049 0.0
H1019 H 0.12018 0.54841 0.21878 0.0
O1020 O 0.15174 0.5128 0.23865 0.0
O1021 O 0.13787 0.52873 0.25468 0.0
O1022 O 0.1177 0.5051 0.23752 0.0
O1023 O 0.10748 0.52998 0.23848 0.0
C1024 C 0.14452 0.59763 0.25297 0.0
C1025 C 0.14611 0.59562 0.26973 0.0
H1026 H 0.14736 0.58722 0.30149 0.0
H1027 H 0.13744 0.56095 0.31222 0.0
H1028 H 0.12945 0.57309 0.20458 0.0
H1029 H 0.14067 0.59663 0.22016 0.0
H1030 H 0.14828 0.60901 0.24771 0.0
H1031 H 0.15116 0.60543 0.27708 0.0
Mn1032 Mn 0.75805 0.63086 0.00498 0.0
Mn1033 Mn 0.72366 0.64409 0.98803 0.0
C1034 C 0.73443 0.6153 0.00649 0.0
C1035 C 0.78241 0.61716 0.00407 0.0
C1036 C 0.73676 0.65695 0.01994 0.0
O1037 O 0.76641 0.64844 0.98987 0.0
O1038 O 0.74277 0.65546 0.9789 0.0
C1039 C 0.72893 0.63162 0.9549 0.0
N1040 N 0.71949 0.63265 0.96825 0.0
C1041 C 0.69815 0.61699 0.95536 0.0
C1042 C 0.70761 0.61583 0.94144 0.0
C1043 C 0.72309 0.62313 0.94124 0.0
C1044 C 0.70463 0.62559 0.96861 0.0
H1045 H 0.74081 0.63726 0.95469 0.0
C1046 C 0.75816 0.65672 0.98008 0.0
O1047 O 0.77984 0.6285 0.01463 0.0
O1048 O 0.77098 0.61407 0.99364 0.0
N1049 N 0.704 0.63423 0.99539 0.0
C1050 C 0.69678 0.63577 0.01002 0.0
C1051 C 0.68123 0.62912 0.01226 0.0
C1052 C 0.67323 0.62106 0.99942 0.0
C1053 C 0.68094 0.61953 0.98452 0.0
C1054 C 0.69634 0.62661 0.98293 0.0
H1055 H 0.7028 0.64214 0.01986 0.0
O1056 O 0.74609 0.61344 0.01671 0.0
O1057 O 0.73691 0.62615 0.9955 0.0
O1058 O 0.7491 0.64804 0.02031 0.0
O1059 O 0.72656 0.65653 0.00838 0.0
C1060 C 0.67402 0.61111 0.97123 0.0
C1061 C 0.68266 0.60977 0.95668 0.0
H1062 H 0.70315 0.60928 0.93088 0.0
H1063 H 0.73048 0.62224 0.93057 0.0
H1064 H 0.67538 0.63026 0.02383 0.0
H1065 H 0.66121 0.61598 1.00117 0.0
H1066 H 0.66215 0.60544 0.97213 0.0
H1067 H 0.67731 0.60306 0.94663 0.0
Mn1068 Mn 0.87591 0.00966 0.25852 0.0
Mn1069 Mn 0.88762 0.97095 0.25468 0.0
C1070 C 0.85957 0.99067 0.24521 0.0
C1071 C 0.86246 0.0302 0.27214 0.0
C1072 C 0.90153 0.99829 0.23467 0.0
O1073 O 0.89349 0.00818 0.27574 0.0
O1074 O 0.89935 0.98177 0.27297 0.0
C1075 C 0.87464 0.95803 0.28519 0.0
N1076 N 0.87535 0.95745 0.26882 0.0
C1077 C 0.85693 0.93451 0.26762 0.0
C1078 C 0.85609 0.93481 0.28448 0.0
C1079 C 0.86496 0.94664 0.29329 0.0
C1080 C 0.86688 0.9461 0.26022 0.0
H1081 H 0.88139 0.96713 0.29201 0.0
C1082 C 0.9011 0.99563 0.28 0.0
O1083 O 0.8739 0.03342 0.26198 0.0
O1084 O 0.85943 0.01505 0.27501 0.0
N1085 N 0.87693 0.95911 0.23759 0.0
C1086 C 0.87826 0.96113 0.22139 0.0
C1087 C 0.86971 0.9506 0.21085 0.0
C1088 C 0.85996 0.93807 0.21705 0.0
C1089 C 0.85885 0.93617 0.23375 0.0
C1090 C 0.86776 0.94695 0.24367 0.0
H1091 H 0.88571 0.97076 0.21655 0.0
O1092 O 0.85817 0.00595 0.24235 0.0
O1093 O 0.87058 0.98697 0.25562 0.0
O1094 O 0.89287 0.00939 0.24065 0.0
O1095 O 0.90073 0.98364 0.23931 0.0
C1096 C 0.84899 0.92422 0.24095 0.0
C1097 C 0.84803 0.9234 0.25787 0.0
H1098 H 0.84855 0.92612 0.29077 0.0
H1099 H 0.8643 0.94699 0.3063 0.0
H1100 H 0.87059 0.95217 0.19797 0.0
H1101 H 0.85328 0.93005 0.20887 0.0
H1102 H 0.8419 0.91577 0.23358 0.0
H1103 H 0.84022 0.91432 0.26326 0.0
Mn1104 Mn 0.25603 0.13118 0.5038 0.0
Mn1105 Mn 0.22134 0.14394 0.48709 0.0
C1106 C 0.23257 0.11538 0.50551 0.0
C1107 C 0.28047 0.11759 0.5029 0.0
C1108 C 0.23424 0.15686 0.51897 0.0
O1109 O 0.26417 0.14866 0.4885 0.0
O1110 O 0.24026 0.15608 0.47847 0.0
C1111 C 0.22741 0.13233 0.45381 0.0
N1112 N 0.21775 0.13282 0.46702 0.0
C1113 C 0.19705 0.1168 0.45354 0.0
C1114 C 0.20674 0.11618 0.43975 0.0
C1115 C 0.22201 0.12394 0.43991 0.0
C1116 C 0.20309 0.12532 0.46704 0.0
H1117 H 0.23913 0.13831 0.45387 0.0
C1118 C 0.25566 0.15738 0.47934 0.0
O1119 O 0.27793 0.12907 0.51333 0.0
O1120 O 0.26899 0.11434 0.49259 0.0
N1121 N 0.20181 0.13343 0.49394 0.0
C1122 C 0.19431 0.13454 0.50847 0.0
C1123 C 0.17889 0.12742 0.51034 0.0
C1124 C 0.17133 0.11935 0.49725 0.0
C1125 C 0.17931 0.11831 0.48246 0.0
C1126 C 0.19455 0.12584 0.48123 0.0
H1127 H 0.19999 0.14089 0.5185 0.0
O1128 O 0.24426 0.1138 0.51575 0.0
O1129 O 0.23489 0.12617 0.49442 0.0
O1130 O 0.24702 0.14855 0.51898 0.0
O1131 O 0.2237 0.15591 0.50773 0.0
C1132 C 0.17283 0.10994 0.46892 0.0
C1133 C 0.18173 0.10911 0.4545 0.0
H1134 H 0.20262 0.10971 0.42901 0.0
H1135 H 0.22958 0.12347 0.42934 0.0
H1136 H 0.17282 0.12821 0.52183 0.0
H1137 H 0.15944 0.11387 0.49874 0.0
H1138 H 0.1611 0.10393 0.46954 0.0
H1139 H 0.17672 0.10246 0.44425 0.0
Mn1140 Mn 0.37757 0.50707 0.75809 0.0
Mn1141 Mn 0.39267 0.46954 0.75672 0.0
C1142 C 0.36329 0.48591 0.74544 0.0
C1143 C 0.36238 0.5274 0.77006 0.0
C1144 C 0.40454 0.49663 0.73531 0.0
O1145 O 0.39474 0.50819 0.77589 0.0
O1146 O 0.40313 0.4825 0.77431 0.0
C1147 C 0.38071 0.4575 0.78798 0.0
N1148 N 0.38166 0.45592 0.77167 0.0
C1149 C 0.36834 0.42978 0.77213 0.0
C1150 C 0.36721 0.43111 0.78894 0.0
C1151 C 0.37329 0.4451 0.79688 0.0
C1152 C 0.37544 0.44273 0.76388 0.0
H1153 H 0.38569 0.46808 0.79415 0.0
C1154 C 0.40348 0.49667 0.78077 0.0
O1155 O 0.37379 0.53067 0.75989 0.0
O1156 O 0.36017 0.51231 0.77378 0.0
N1157 N 0.3835 0.45555 0.7404 0.0
C1158 C 0.385 0.45644 0.72411 0.0
C1159 C 0.37902 0.44365 0.71433 0.0
C1160 C 0.37198 0.42989 0.72142 0.0
C1161 C 0.37079 0.42916 0.73823 0.0
C1162 C 0.37651 0.44248 0.74733 0.0
H1163 H 0.39075 0.46682 0.71862 0.0
O1164 O 0.36066 0.5008 0.74168 0.0
O1165 O 0.37416 0.48383 0.75645 0.0
O1166 O 0.39502 0.50727 0.74072 0.0
O1167 O 0.40474 0.48223 0.74059 0.0
C1168 C 0.36434 0.41565 0.74633 0.0
C1169 C 0.36293 0.41604 0.76326 0.0
H1170 H 0.36174 0.42145 0.79587 0.0
H1171 H 0.37248 0.44621 0.80985 0.0
H1172 H 0.38004 0.44429 0.70137 0.0
H1173 H 0.3676 0.41994 0.71385 0.0
H1174 H 0.36003 0.40506 0.73963 0.0
H1175 H 0.35758 0.40573 0.76932 0.0
Mn1176 Mn 0.75243 0.37638 0.511 0.0
Mn1177 Mn 0.75094 0.39015 0.47297 0.0
C1178 C 0.73989 0.36105 0.49076 0.0
C1179 C 0.76497 0.3621 0.53142 0.0
C1180 C 0.72944 0.4025 0.49966 0.0
O1181 O 0.77008 0.39405 0.51112 0.0
O1182 O 0.76842 0.40171 0.48523 0.0
C1183 C 0.78239 0.37828 0.46155 0.0
N1184 N 0.76605 0.37878 0.45998 0.0
C1185 C 0.76653 0.3621 0.43602 0.0
C1186 C 0.78338 0.36146 0.43733 0.0
C1187 C 0.79133 0.36953 0.45019 0.0
C1188 C 0.75826 0.37091 0.44776 0.0
H1189 H 0.78856 0.38452 0.47138 0.0
C1190 C 0.77478 0.40268 0.49931 0.0
O1191 O 0.75462 0.37323 0.53463 0.0
O1192 O 0.76843 0.35966 0.51637 0.0
N1193 N 0.73468 0.37986 0.45971 0.0
C1194 C 0.71834 0.38117 0.46052 0.0
C1195 C 0.70856 0.37348 0.44873 0.0
C1196 C 0.71569 0.36472 0.43611 0.0
C1197 C 0.73254 0.36373 0.43542 0.0
C1198 C 0.74166 0.37158 0.44755 0.0
H1199 H 0.7128 0.38798 0.47012 0.0
O1200 O 0.73615 0.35875 0.50572 0.0
O1201 O 0.75072 0.37226 0.48813 0.0
O1202 O 0.73487 0.39347 0.51065 0.0
O1203 O 0.73471 0.40229 0.48523 0.0
C1204 C 0.74064 0.35521 0.4232 0.0
C1205 C 0.75762 0.35429 0.42356 0.0
H1206 H 0.79032 0.35477 0.42857 0.0
H1207 H 0.80433 0.36906 0.45132 0.0
H1208 H 0.69557 0.37432 0.44934 0.0
H1209 H 0.70811 0.35878 0.42705 0.0
H1210 H 0.73391 0.34911 0.4136 0.0
H1211 H 0.76368 0.34746 0.41425 0.0
Mn1212 Mn 0.63583 0.00287 0.75527 0.0
Mn1213 Mn 0.62353 0.04148 0.75328 0.0
C1214 C 0.65159 0.02218 0.74236 0.0
C1215 C 0.64965 0.9823 0.76801 0.0
C1216 C 0.60943 0.01418 0.7324 0.0
O1217 O 0.61858 0.00389 0.77275 0.0
O1218 O 0.61256 0.0303 0.77138 0.0
C1219 C 0.63742 0.05416 0.78398 0.0
N1220 N 0.63603 0.05502 0.76768 0.0
C1221 C 0.65357 0.07861 0.76704 0.0
C1222 C 0.6551 0.07804 0.78384 0.0
C1223 C 0.64703 0.06574 0.79233 0.0
C1224 C 0.64378 0.06678 0.75938 0.0
H1225 H 0.63128 0.0447 0.79055 0.0
C1226 C 0.61105 0.01631 0.77776 0.0
O1227 O 0.6381 0.97911 0.75777 0.0
O1228 O 0.6527 0.99744 0.77137 0.0
N1229 N 0.63338 0.05375 0.73645 0.0
C1230 C 0.63147 0.05198 0.72021 0.0
C1231 C 0.63911 0.06307 0.70993 0.0
C1232 C 0.64855 0.07591 0.71644 0.0
C1233 C 0.65032 0.0775 0.73318 0.0
C1234 C 0.64229 0.06617 0.74284 0.0
H1235 H 0.62421 0.04216 0.71513 0.0
O1236 O 0.65316 0.00693 0.73899 0.0
O1237 O 0.64084 0.02568 0.75314 0.0
O1238 O 0.61844 0.00314 0.73769 0.0
O1239 O 0.61013 0.02876 0.73768 0.0
C1240 C 0.65998 0.08971 0.74066 0.0
C1241 C 0.66163 0.09024 0.75757 0.0
H1242 H 0.66256 0.0869 0.79032 0.0
H1243 H 0.64822 0.06518 0.80529 0.0
H1244 H 0.63773 0.06173 0.69702 0.0
H1245 H 0.65445 0.08441 0.70847 0.0
H1246 H 0.66641 0.09859 0.73349 0.0
H1247 H 0.66929 0.09953 0.76316 0.0
Mn1248 Mn 0.00547 0.25293 0.87512 0.0
Mn1249 Mn 0.96687 0.24841 0.88749 0.0
C1250 C 0.9867 0.23903 0.85912 0.0
C1251 C 0.02589 0.2669 0.86145 0.0
C1252 C 0.99442 0.22911 0.90096 0.0
O1253 O 0.00374 0.2704 0.89267 0.0
O1254 O 0.9774 0.26718 0.8989 0.0
C1255 C 0.95351 0.27855 0.87468 0.0
N1256 N 0.95318 0.26211 0.87546 0.0
C1257 C 0.93018 0.26011 0.8577 0.0
C1258 C 0.93022 0.27703 0.85678 0.0
C1259 C 0.94196 0.28628 0.86529 0.0
C1260 C 0.94193 0.25309 0.86734 0.0
H1261 H 0.96253 0.28571 0.88116 0.0
C1262 C 0.99113 0.27454 0.90041 0.0
O1263 O 0.02914 0.25683 0.87279 0.0
O1264 O 0.01075 0.26945 0.85861 0.0
N1265 N 0.95532 0.23082 0.87711 0.0
C1266 C 0.9576 0.21462 0.87844 0.0
C1267 C 0.94718 0.20367 0.87023 0.0
C1268 C 0.9345 0.20946 0.86083 0.0
C1269 C 0.93235 0.22617 0.8597 0.0
C1270 C 0.94303 0.23651 0.86826 0.0
H1271 H 0.96734 0.2101 0.88564 0.0
O1272 O 1.00199 0.23644 0.85746 0.0
O1273 O 0.98288 0.2495 0.87019 0.0
O1274 O 0.0054 0.23518 0.89205 0.0
O1275 O 0.97974 0.23346 0.90042 0.0
C1276 C 0.92024 0.23298 0.85017 0.0
C1277 C 0.91916 0.24994 0.84916 0.0
H1278 H 0.9214 0.28304 0.84946 0.0
H1279 H 0.94211 0.29934 0.86457 0.0
H1280 H 0.94895 0.19078 0.87113 0.0
H1281 H 0.92655 0.20096 0.85445 0.0
H1282 H 0.91185 0.22528 0.84336 0.0
H1283 H 0.90995 0.25502 0.84159 0.0
Mn1284 Mn 0.50457 0.75522 0.37608 0.0
Mn1285 Mn 0.46665 0.75217 0.39061 0.0
C1286 C 0.48449 0.74155 0.36143 0.0
C1287 C 0.52472 0.76828 0.36118 0.0
C1288 C 0.49419 0.73212 0.40285 0.0
O1289 O 0.50436 0.77314 0.39334 0.0
O1290 O 0.47842 0.77065 0.4012 0.0
C1291 C 0.45374 0.78268 0.37818 0.0
N1292 N 0.45284 0.76626 0.37923 0.0
C1293 C 0.42829 0.765 0.36366 0.0
C1294 C 0.42891 0.7819 0.36246 0.0
C1295 C 0.44174 0.79077 0.3697 0.0
C1296 C 0.44064 0.7576 0.37217 0.0
H1297 H 0.46353 0.78955 0.3838 0.0
C1298 C 0.49237 0.77769 0.4018 0.0
O1299 O 0.52817 0.75829 0.37253 0.0
O1300 O 0.50956 0.77121 0.35895 0.0
N1301 N 0.45387 0.73492 0.38119 0.0
C1302 C 0.45557 0.71865 0.38264 0.0
C1303 C 0.44402 0.70802 0.37559 0.0
C1304 C 0.43075 0.71422 0.36734 0.0
C1305 C 0.4292 0.73101 0.36613 0.0
C1306 C 0.44115 0.741 0.37328 0.0
H1307 H 0.46567 0.71381 0.38909 0.0
O1308 O 0.49958 0.73846 0.35899 0.0
O1309 O 0.48163 0.75243 0.37241 0.0
O1310 O 0.50488 0.73782 0.39337 0.0
O1311 O 0.47964 0.73687 0.40297 0.0
C1312 C 0.41632 0.73822 0.35804 0.0
C1313 C 0.41594 0.75519 0.35666 0.0
H1314 H 0.41966 0.78818 0.35596 0.0
H1315 H 0.44233 0.80381 0.3688 0.0
H1316 H 0.44532 0.69508 0.37656 0.0
H1317 H 0.42187 0.70599 0.36191 0.0
H1318 H 0.40677 0.7308 0.3526 0.0
H1319 H 0.40614 0.76056 0.3501 0.0
Mn1320 Mn 0.00679 0.75529 0.63049 0.0
Mn1321 Mn 0.9898 0.72084 0.6448 0.0
C1322 C 0.0087 0.7313 0.61582 0.0
C1323 C 0.00536 0.77922 0.61595 0.0
C1324 C 0.02152 0.73519 0.65734 0.0
O1325 O 0.99139 0.76368 0.64769 0.0
O1326 O 0.98015 0.74 0.6553 0.0
C1327 C 0.95679 0.72466 0.63184 0.0
N1328 N 0.97028 0.71569 0.63335 0.0
C1329 C 0.95801 0.69351 0.61833 0.0
C1330 C 0.94395 0.70248 0.61668 0.0
C1331 C 0.94337 0.71814 0.62342 0.0
C1332 C 0.971 0.70066 0.62684 0.0
H1333 H 0.95629 0.73669 0.63704 0.0
C1334 C 0.98136 0.75546 0.65607 0.0
O1335 O 0.01604 0.77745 0.62723 0.0
O1336 O 0.99525 0.76722 0.61339 0.0
N1337 N 0.99766 0.70114 0.63578 0.0
C1338 C 0.01241 0.69447 0.63771 0.0
C1339 C 0.01502 0.67881 0.63164 0.0
C1340 C 1.00244 0.67016 0.62377 0.0
C1341 C 0.98743 0.67734 0.62179 0.0
C1342 C 0.98545 0.69287 0.62829 0.0
H1343 H 0.02205 0.70098 0.64395 0.0
O1344 O 0.01885 0.74322 0.61354 0.0
O1345 O 0.99756 0.73378 0.62655 0.0
O1346 O 0.02212 0.74723 0.64792 0.0
O1347 O 0.00989 0.72479 0.65727 0.0
C1348 C 0.9744 0.66976 0.61348 0.0
C1349 C 0.95972 0.67787 0.61168 0.0
H1350 H 0.93358 0.6975 0.61018 0.0
H1351 H 0.93259 0.72516 0.62214 0.0
H1352 H 0.02668 0.67338 0.63311 0.0
H1353 H 0.00447 0.65806 0.61917 0.0
H1354 H 0.9756 0.65777 0.60824 0.0
H1355 H 0.94987 0.67202 0.60506 0.0
Mn1356 Mn 0.50668 0.25617 0.12919 0.0
Mn1357 Mn 0.48985 0.2211 0.14208 0.0
C1358 C 0.50846 0.23278 0.11361 0.0
C1359 C 0.50502 0.28057 0.11552 0.0
C1360 C 0.52128 0.23543 0.15549 0.0
O1361 O 0.49133 0.26364 0.14684 0.0
O1362 O 0.4795 0.2397 0.15299 0.0
C1363 C 0.45705 0.22444 0.12845 0.0
N1364 N 0.47081 0.21588 0.12985 0.0
C1365 C 0.45997 0.19442 0.11284 0.0
C1366 C 0.44564 0.20297 0.11129 0.0
C1367 C 0.4442 0.21806 0.11909 0.0
C1368 C 0.47236 0.20139 0.12232 0.0
H1369 H 0.45592 0.23605 0.13441 0.0
C1370 C 0.48095 0.25512 0.15454 0.0
O1371 O 0.51577 0.2785 0.12666 0.0
O1372 O 0.49493 0.26863 0.11265 0.0
N1373 N 0.49859 0.20207 0.13244 0.0
C1374 C 0.51347 0.19574 0.13456 0.0
C1375 C 0.51694 0.18071 0.12747 0.0
C1376 C 0.50505 0.1723 0.11838 0.0
C1377 C 0.48985 0.17907 0.1163 0.0
C1378 C 0.48702 0.194 0.12382 0.0
H1379 H 0.52263 0.20208 0.14163 0.0
O1380 O 0.51863 0.24474 0.11161 0.0
O1381 O 0.49755 0.23489 0.12457 0.0
O1382 O 0.52208 0.24757 0.14622 0.0
O1383 O 0.50957 0.2251 0.15518 0.0
C1384 C 0.47743 0.17168 0.10696 0.0
C1385 C 0.46253 0.17939 0.10517 0.0
H1386 H 0.43571 0.19812 0.10405 0.0
H1387 H 0.43321 0.22476 0.11788 0.0
H1388 H 0.52872 0.17558 0.12907 0.0
H1389 H 0.50774 0.16065 0.11304 0.0
H1390 H 0.47929 0.16018 0.10092 0.0
H1391 H 0.45316 0.1737 0.09776 0.0
H1392 H 0.22244 0.73305 0.90089 0.0
H1393 H 0.22633 0.7549 0.92068 0.0
H1394 H 0.2023 0.78763 0.88909 0.0
H1395 H 0.19967 0.7664 0.86872 0.0
H1396 H 0.22828 0.80119 0.89956 0.0
H1397 H 0.19697 0.77535 0.95229 0.0
H1398 H 0.21267 0.76258 0.94511 0.0
H1399 H 0.19544 0.76619 0.93248 0.0
C1400 C 0.21806 0.74491 0.89806 0.0
C1401 C 0.21073 0.74784 0.88308 0.0
C1402 C 0.22002 0.75735 0.90958 0.0
C1403 C 0.21435 0.77289 0.90656 0.0
C1404 C 0.2067 0.77573 0.89179 0.0
H1405 H 0.2112 0.85063 0.97898 0.0
H1406 H 0.20412 0.82955 0.95886 0.0
C1407 C 0.20503 0.76344 0.88017 0.0
C1408 C 0.21748 0.78658 0.91807 0.0
H1409 H 0.21373 0.79888 0.95732 0.0
C1410 C 0.22498 0.80067 0.91217 0.0
C1411 C 0.21299 0.78608 0.9345 0.0
C1412 C 0.20392 0.7718 0.94143 0.0
C1413 C 0.22819 0.81417 0.92215 0.0
C1414 C 0.22445 0.81345 0.93873 0.0
C1415 C 0.21678 0.79943 0.94465 0.0
C1416 C 0.22852 0.82704 0.95011 0.0
C1417 C 0.23488 0.82935 0.91469 0.0
C1418 C 0.24456 0.83275 0.95185 0.0
C1419 C 0.24853 0.84493 0.96314 0.0
C1420 C 0.23657 0.8516 0.97295 0.0
C1421 C 0.22056 0.84589 0.97129 0.0
C1422 C 0.21654 0.8338 0.95989 0.0
H1423 H 0.23319 0.8293 0.90141 0.0
H1424 H 0.22877 0.83999 0.91985 0.0
H1425 H 0.248 0.83053 0.91724 0.0
H1426 H 0.25412 0.8274 0.94488 0.0
H1427 H 0.26106 0.84867 0.96466 0.0
H1428 H 0.05135 0.52453 0.41957 0.0
H1429 H 0.06691 0.51855 0.39531 0.0
H1430 H 0.0228 0.50833 0.36903 0.0
H1431 H 0.00712 0.51434 0.39323 0.0
H1432 H 0.04826 0.4863 0.36209 0.0
H1433 H 0.0681 0.55079 0.35796 0.0
H1434 H 0.07254 0.54142 0.37679 0.0
H1435 H 0.0519 0.54423 0.37095 0.0
C1436 C 0.04495 0.521 0.40863 0.0
C1437 C 0.02798 0.5201 0.40828 0.0
C1438 C 0.05387 0.51753 0.3948 0.0
C1439 C 0.046 0.51322 0.38033 0.0
C1440 C 0.0291 0.51164 0.38009 0.0
H1441 H 0.08038 0.52688 0.28461 0.0
H1442 H 0.06485 0.52466 0.30933 0.0
C1443 C 0.02017 0.51505 0.39393 0.0
C1444 C 0.05529 0.51138 0.36521 0.0
H1445 H 0.07882 0.53263 0.33893 0.0
C1446 C 0.055 0.49639 0.35701 0.0
C1447 C 0.06392 0.52463 0.35855 0.0
C1448 C 0.06407 0.54122 0.3664 0.0
C1449 C 0.06313 0.49431 0.34231 0.0
C1450 C 0.07184 0.50755 0.33575 0.0
C1451 C 0.07219 0.52248 0.34402 0.0
C1452 C 0.08 0.50667 0.3199 0.0
C1453 C 0.06201 0.47816 0.33367 0.0
C1454 C 0.09344 0.49689 0.3174 0.0
C1455 C 0.10237 0.49806 0.30312 0.0
C1456 C 0.09807 0.50918 0.29127 0.0
C1457 C 0.08412 0.5183 0.29355 0.0
C1458 C 0.0752 0.51705 0.30768 0.0
H1459 H 0.05235 0.4702 0.33869 0.0
H1460 H 0.05965 0.47978 0.32063 0.0
H1461 H 0.07367 0.47196 0.33489 0.0
H1462 H 0.09749 0.48896 0.32677 0.0
H1463 H 0.11312 0.49097 0.30176 0.0
H1464 H 0.77623 0.7603 0.87634 0.0
H1465 H 0.77372 0.739 0.8963 0.0
H1466 H 0.82494 0.74233 0.90538 0.0
H1467 H 0.82756 0.76394 0.88552 0.0
H1468 H 0.79129 0.70844 0.89559 0.0
H1469 H 0.80285 0.74597 0.95094 0.0
H1470 H 0.79653 0.7548 0.93224 0.0
H1471 H 0.81672 0.74781 0.93439 0.0
C1472 C 0.78695 0.75668 0.88272 0.0
C1473 C 0.80208 0.7639 0.87941 0.0
C1474 C 0.7855 0.74443 0.89404 0.0
C1475 C 0.79912 0.7392 0.90239 0.0
C1476 C 0.81427 0.74633 0.89917 0.0
H1477 H 0.79043 0.66611 0.97931 0.0
H1478 H 0.80342 0.68507 0.96051 0.0
C1479 C 0.81575 0.75857 0.88774 0.0
C1480 C 0.79725 0.72601 0.91418 0.0
H1481 H 0.79509 0.71873 0.9545 0.0
C1482 C 0.79236 0.71062 0.90846 0.0
C1483 C 0.79882 0.72885 0.93095 0.0
C1484 C 0.80395 0.74525 0.93762 0.0
C1485 C 0.78832 0.69816 0.9191 0.0
C1486 C 0.78888 0.70129 0.93588 0.0
C1487 C 0.79466 0.71639 0.94162 0.0
C1488 C 0.78146 0.68981 0.9474 0.0
C1489 C 0.78302 0.68188 0.91227 0.0
C1490 C 0.76485 0.68646 0.9464 0.0
C1491 C 0.75744 0.6758 0.95704 0.0
C1492 C 0.76645 0.6682 0.96906 0.0
C1493 C 0.78314 0.67169 0.97018 0.0
C1494 C 0.79058 0.68251 0.95947 0.0
H1495 H 0.78799 0.67984 0.90003 0.0
H1496 H 0.78685 0.67193 0.92016 0.0
H1497 H 0.76965 0.68136 0.91133 0.0
H1498 H 0.75754 0.69219 0.93737 0.0
H1499 H 0.74458 0.6735 0.95573 0.0
H1500 H 0.99278 0.01431 0.40761 0.0
H1501 H 0.97449 0.01812 0.38481 0.0
H1502 H 0.97245 0.96657 0.37615 0.0
H1503 H 0.99066 0.96266 0.39889 0.0
H1504 H 0.97815 0.01018 0.3528 0.0
H1505 H 0.92499 0.9774 0.3775 0.0
H1506 H 0.94219 0.9834 0.38977 0.0
H1507 H 0.94275 0.9654 0.37735 0.0
C1508 C 0.98846 0.00378 0.40083 0.0
C1509 C 0.99312 0.98816 0.40514 0.0
C1510 C 0.97796 0.00598 0.38784 0.0
C1511 C 0.97186 0.99262 0.37894 0.0
C1512 C 0.97664 0.97703 0.3831 0.0
H1513 H 0.91766 0.97112 0.29367 0.0
H1514 H 0.93459 0.9722 0.31767 0.0
C1515 C 0.98708 0.97482 0.39611 0.0
C1516 C 0.96087 0.99493 0.36502 0.0
H1517 H 0.92434 0.98279 0.34929 0.0
C1518 C 0.9663 0.00437 0.35211 0.0
C1519 C 0.94535 0.98744 0.36417 0.0
C1520 C 0.93839 0.97798 0.37801 0.0
C1521 C 0.95693 0.0059 0.33808 0.0
C1522 C 0.9417 0.99789 0.33702 0.0
C1523 C 0.93607 0.98886 0.35011 0.0
C1524 C 0.93183 0.99781 0.32208 0.0
C1525 C 0.96362 0.01553 0.32423 0.0
C1526 C 0.92464 0.01191 0.31654 0.0
C1527 C 0.91484 0.01137 0.30272 0.0
C1528 C 0.91208 0.9967 0.29421 0.0
C1529 C 0.91949 0.98267 0.2998 0.0
C1530 C 0.92918 0.98322 0.31358 0.0
H1531 H 0.97657 0.01888 0.32599 0.0
H1532 H 0.96223 0.00854 0.31277 0.0
H1533 H 0.95675 0.02681 0.32306 0.0
H1534 H 0.92638 0.02326 0.32306 0.0
H1535 H 0.9093 0.02239 0.29884 0.0
H1536 H 0.18703 0.25784 0.62872 0.0
H1537 H 0.19057 0.23723 0.60754 0.0
H1538 H 0.24175 0.23763 0.61704 0.0
H1539 H 0.23831 0.2581 0.63827 0.0
H1540 H 0.21234 0.24108 0.57955 0.0
H1541 H 0.22683 0.18869 0.61779 0.0
H1542 H 0.21636 0.2061 0.62544 0.0
H1543 H 0.23775 0.20729 0.62221 0.0
C1544 C 0.199 0.25338 0.62642 0.0
C1545 C 0.2124 0.25959 0.63515 0.0
C1546 C 0.20101 0.24168 0.61429 0.0
C1547 C 0.2164 0.23583 0.61084 0.0
C1548 C 0.22976 0.24187 0.61964 0.0
H1549 H 0.25558 0.16676 0.54268 0.0
H1550 H 0.25101 0.18601 0.56474 0.0
C1551 C 0.22779 0.25365 0.63167 0.0
C1552 C 0.21862 0.22391 0.5976 0.0
H1553 H 0.22985 0.18515 0.58965 0.0
C1554 C 0.21607 0.22881 0.58172 0.0
C1555 C 0.22363 0.208 0.60052 0.0
C1556 C 0.22621 0.20208 0.61741 0.0
C1557 C 0.2187 0.21829 0.56861 0.0
C1558 C 0.22358 0.20228 0.57151 0.0
C1559 C 0.22609 0.19739 0.58743 0.0
C1560 C 0.22622 0.19046 0.55819 0.0
C1561 C 0.21668 0.2246 0.55178 0.0
C1562 C 0.21373 0.18633 0.54732 0.0
C1563 C 0.21634 0.17544 0.53461 0.0
C1564 C 0.23144 0.16823 0.53264 0.0
C1565 C 0.24381 0.17208 0.5438 0.0
C1566 C 0.24122 0.18309 0.55643 0.0
H1567 H 0.21759 0.23802 0.55157 0.0
H1568 H 0.22591 0.21964 0.54353 0.0
H1569 H 0.20457 0.22089 0.54712 0.0
H1570 H 0.20192 0.19151 0.54867 0.0
H1571 H 0.20646 0.17262 0.52639 0.0
H1572 H 0.49639 0.50107 0.61219 0.0
H1573 H 0.47888 0.49699 0.63545 0.0
H1574 H 0.47589 0.5486 0.64224 0.0
H1575 H 0.49377 0.55286 0.61921 0.0
H1576 H 0.48533 0.50976 0.66817 0.0
H1577 H 0.4279 0.53095 0.64167 0.0
H1578 H 0.44464 0.52464 0.6294 0.0
H1579 H 0.44546 0.54395 0.63954 0.0
C1580 C 0.49213 0.51158 0.61867 0.0
C1581 C 0.49657 0.52731 0.61382 0.0
C1582 C 0.48203 0.50921 0.6319 0.0
C1583 C 0.47601 0.52248 0.64047 0.0
C1584 C 0.48024 0.5382 0.63563 0.0
H1585 H 0.41058 0.52665 0.72261 0.0
H1586 H 0.42847 0.53354 0.70024 0.0
C1587 C 0.49042 0.5406 0.62243 0.0
C1588 C 0.46575 0.51979 0.6548 0.0
H1589 H 0.42733 0.52331 0.6689 0.0
C1590 C 0.47265 0.51273 0.66836 0.0
C1591 C 0.44927 0.52382 0.65502 0.0
C1592 C 0.44126 0.53117 0.64062 0.0
C1593 C 0.46349 0.50957 0.6822 0.0
C1594 C 0.44687 0.51318 0.6823 0.0
C1595 C 0.44005 0.5205 0.6688 0.0
C1596 C 0.43627 0.50904 0.69609 0.0
C1597 C 0.47179 0.50263 0.69666 0.0
C1598 C 0.43456 0.49296 0.7011 0.0
C1599 C 0.42445 0.48899 0.71394 0.0
C1600 C 0.41561 0.50099 0.72195 0.0
C1601 C 0.41721 0.51709 0.71678 0.0
C1602 C 0.42742 0.52106 0.70397 0.0
H1603 H 0.48499 0.50529 0.69652 0.0
H1604 H 0.46674 0.50748 0.70806 0.0
H1605 H 0.47001 0.48928 0.69648 0.0
H1606 H 0.44092 0.4834 0.69494 0.0
H1607 H 0.4234 0.47644 0.71743 0.0
H1608 H 0.77721 0.26144 0.64556 0.0
H1609 H 0.77155 0.28074 0.62437 0.0
H1610 H 0.82215 0.28368 0.61269 0.0
H1611 H 0.82793 0.26413 0.63365 0.0
H1612 H 0.80676 0.31433 0.61597 0.0
H1613 H 0.77311 0.27163 0.57514 0.0
H1614 H 0.76613 0.27203 0.5956 0.0
H1615 H 0.78596 0.26489 0.59119 0.0
C1616 C 0.78713 0.266 0.63836 0.0
C1617 C 0.80303 0.26114 0.6413 0.0
C1618 C 0.78386 0.27707 0.62627 0.0
C1619 C 0.79641 0.28351 0.61686 0.0
C1620 C 0.8123 0.27884 0.61983 0.0
H1621 H 0.78462 0.33621 0.52783 0.0
H1622 H 0.79346 0.31774 0.54867 0.0
C1623 C 0.81558 0.26772 0.63187 0.0
C1624 C 0.79297 0.29525 0.60405 0.0
H1625 H 0.77265 0.29944 0.56857 0.0
C1626 C 0.79935 0.31108 0.60557 0.0
C1627 C 0.78346 0.29092 0.59042 0.0
C1628 C 0.77686 0.27391 0.58784 0.0
C1629 C 0.79618 0.3228 0.59396 0.0
C1630 C 0.78626 0.31859 0.58058 0.0
C1631 C 0.78017 0.30266 0.5789 0.0
C1632 C 0.7819 0.33051 0.56822 0.0
C1633 C 0.80356 0.33955 0.59602 0.0
C1634 C 0.77254 0.34388 0.57232 0.0
C1635 C 0.76745 0.35446 0.56043 0.0
C1636 C 0.77159 0.35183 0.54421 0.0
C1637 C 0.78126 0.33862 0.54021 0.0
C1638 C 0.7863 0.32802 0.55209 0.0
H1639 H 0.81391 0.33972 0.60458 0.0
H1640 H 0.80776 0.34433 0.5843 0.0
H1641 H 0.79433 0.3478 0.60086 0.0
H1642 H 0.76879 0.34589 0.58465 0.0
H1643 H 0.75995 0.36448 0.5639 0.0
H1644 H 0.52063 0.95682 0.61566 0.0
H1645 H 0.53702 0.96279 0.63964 0.0
H1646 H 0.53239 0.01389 0.63184 0.0
H1647 H 0.51628 0.00808 0.60761 0.0
H1648 H 0.56679 0.98159 0.64076 0.0
H1649 H 0.51931 0.00765 0.67972 0.0
H1650 H 0.51464 0.99529 0.66212 0.0
H1651 H 0.521 0.01604 0.65994 0.0
C1652 C 0.52315 0.96935 0.61896 0.0
C1653 C 0.51713 0.98197 0.60963 0.0
C1654 C 0.53244 0.97272 0.63274 0.0
C1655 C 0.53577 0.98876 0.63761 0.0
C1656 C 0.52971 1.00141 0.62845 0.0
H1657 H 0.59133 0.03492 0.71475 0.0
H1658 H 0.57357 0.02833 0.69195 0.0
C1659 C 0.52047 0.99806 0.61461 0.0
C1660 C 0.54612 0.99225 0.65191 0.0
H1661 H 0.54617 0.00942 0.68955 0.0
C1662 C 0.56229 0.9876 0.65147 0.0
C1663 C 0.5402 1.00015 0.66581 0.0
C1664 C 0.52281 0.00498 0.66707 0.0
C1665 C 0.57282 0.99093 0.66445 0.0
C1666 C 0.5669 0.99877 0.67843 0.0
C1667 C 0.55069 0.00338 0.67886 0.0
C1668 C 0.57739 1.00256 0.6926 0.0
C1669 C 0.5903 0.98645 0.66287 0.0
C1670 C 0.58523 0.99023 0.70079 0.0
C1671 C 0.5955 0.99395 0.7138 0.0
C1672 C 0.59798 0.01008 0.71905 0.0
C1673 C 0.58974 0.02235 0.71108 0.0
C1674 C 0.57956 0.01862 0.69802 0.0
H1675 H 0.5938 0.98473 0.65007 0.0
H1676 H 0.5984 0.99587 0.66842 0.0
H1677 H 0.59224 0.97489 0.66913 0.0
H1678 H 0.58343 0.9777 0.69709 0.0
H1679 H 0.60151 0.98416 0.71972 0.0
H1680 H 0.8926 0.2027 0.73716 0.0
H1681 H 0.91576 0.2068 0.75536 0.0
H1682 H 0.88329 0.21063 0.79569 0.0
H1683 H 0.86027 0.20563 0.77762 0.0
H1684 H 0.9251 0.23068 0.77315 0.0
H1685 H 0.91364 0.17966 0.81395 0.0
H1686 H 0.9025 0.18183 0.79545 0.0
H1687 H 0.89658 0.19254 0.81348 0.0
C1688 C 0.8905 0.20429 0.74995 0.0
C1689 C 0.87473 0.2037 0.75606 0.0
C1690 C 0.9037 0.20662 0.76034 0.0
C1691 C 0.90135 0.20864 0.777 0.0
C1692 C 0.88552 0.20848 0.78301 0.0
H1693 H 0.96658 0.25808 0.84279 0.0
H1694 H 0.94695 0.25 0.82206 0.0
C1695 C 0.87235 0.20579 0.77267 0.0
C1696 C 0.91538 0.21166 0.78798 0.0
H1697 H 0.93166 0.20074 0.82393 0.0
C1698 C 0.92662 0.22397 0.78415 0.0
C1699 C 0.91767 0.20271 0.8022 0.0
C1700 C 0.90704 0.18834 0.8064 0.0
C1701 C 0.93969 0.22797 0.79437 0.0
C1702 C 0.94123 0.21987 0.80919 0.0
C1703 C 0.93036 0.20715 0.81273 0.0
C1704 C 0.95357 0.22479 0.82145 0.0
C1705 C 0.95177 0.2407 0.78901 0.0
C1706 C 0.9636 0.21328 0.82842 0.0
C1707 C 0.97451 0.21785 0.84067 0.0
C1708 C 0.97532 0.23392 0.8463 0.0
C1709 C 0.96575 0.2455 0.83897 0.0
C1710 C 0.95477 0.24094 0.82688 0.0
H1711 H 0.95244 0.2411 0.77567 0.0
H1712 H 0.9479 0.25275 0.79334 0.0
H1713 H 0.96403 0.23848 0.79381 0.0
H1714 H 0.96291 0.20075 0.82444 0.0
H1715 H 0.98206 0.20881 0.84597 0.0
H1716 H 0.50523 0.91221 0.48682 0.0
H1717 H 0.51175 0.88845 0.47029 0.0
H1718 H 0.461 0.87699 0.46465 0.0
H1719 H 0.4544 0.90059 0.48113 0.0
H1720 H 0.50434 0.85587 0.47487 0.0
H1721 H 0.47676 0.87677 0.41829 0.0
H1722 H 0.48079 0.89019 0.43525 0.0
H1723 H 0.46298 0.87731 0.43488 0.0
C1724 C 0.49546 0.9046 0.48209 0.0
C1725 C 0.47928 0.9084 0.48518 0.0
C1726 C 0.49921 0.89106 0.4726 0.0
C1727 C 0.48686 0.88112 0.46597 0.0
C1728 C 0.47073 0.88473 0.46927 0.0
H1729 H 0.46977 0.79018 0.42199 0.0
H1730 H 0.47118 0.81546 0.43732 0.0
C1731 C 0.46697 0.89825 0.4787 0.0
C1732 C 0.49071 0.86673 0.4559 0.0
H1733 H 0.48203 0.84838 0.41968 0.0
C1734 C 0.49972 0.85434 0.4627 0.0
C1735 C 0.4848 0.86481 0.43995 0.0
C1736 C 0.47594 0.87805 0.4316 0.0
C1737 C 0.50217 0.83973 0.45428 0.0
C1738 C 0.49548 0.83752 0.43872 0.0
C1739 C 0.4871 0.85014 0.43166 0.0
C1740 C 0.49557 0.82167 0.43024 0.0
C1741 C 0.51124 0.8264 0.46224 0.0
C1742 C 0.50895 0.81671 0.42128 0.0
C1743 C 0.50822 0.80216 0.41236 0.0
C1744 C 0.49406 0.79239 0.41227 0.0
C1745 C 0.48088 0.79732 0.42167 0.0
C1746 C 0.48163 0.8118 0.43048 0.0
H1747 H 0.51584 0.83005 0.47437 0.0
H1748 H 0.50319 0.81556 0.46341 0.0
H1749 H 0.52158 0.8229 0.4546 0.0
H1750 H 0.5198 0.82426 0.42093 0.0
H1751 H 0.51858 0.79878 0.40526 0.0
H1752 H 0.11304 0.28967 0.73739 0.0
H1753 H 0.0931 0.28608 0.75875 0.0
H1754 H 0.12771 0.30431 0.79381 0.0
H1755 H 0.14783 0.3077 0.77259 0.0
H1756 H 0.09615 0.26663 0.78621 0.0
H1757 H 0.08712 0.33107 0.80296 0.0
H1758 H 0.09634 0.32495 0.78423 0.0
H1759 H 0.10779 0.32495 0.80264 0.0
C1760 C 0.11645 0.29287 0.74964 0.0
C1761 C 0.13206 0.29898 0.75325 0.0
C1762 C 0.105 0.2909 0.76182 0.0
C1763 C 0.10886 0.29513 0.77782 0.0
C1764 C 0.12437 0.30129 0.78148 0.0
H1765 H 0.05826 0.2614 0.86287 0.0
H1766 H 0.07878 0.26928 0.8432 0.0
C1767 C 0.13586 0.30323 0.76932 0.0
C1768 C 0.09688 0.29233 0.79077 0.0
H1769 H 0.07486 0.31139 0.81981 0.0
C1770 C 0.09148 0.27641 0.79355 0.0
C1771 C 0.09072 0.30514 0.80023 0.0
C1772 C 0.09565 0.32252 0.79733 0.0
C1773 C 0.08023 0.27292 0.80566 0.0
C1774 C 0.07434 0.28567 0.81537 0.0
C1775 C 0.07955 0.30163 0.81246 0.0
C1776 C 0.06242 0.28258 0.82829 0.0
C1777 C 0.07451 0.25563 0.80782 0.0
C1778 C 0.04659 0.28803 0.82676 0.0
C1779 C 0.03483 0.28358 0.838 0.0
C1780 C 0.03874 0.27367 0.85101 0.0
C1781 C 0.05483 0.26899 0.85297 0.0
C1782 C 0.06656 0.27341 0.8417 0.0
H1783 H 0.07755 0.24784 0.7973 0.0
H1784 H 0.0804 0.25065 0.81863 0.0
H1785 H 0.06125 0.25497 0.80968 0.0
H1786 H 0.04319 0.29518 0.81652 0.0
H1787 H 0.02256 0.28741 0.83616 0.0
H1788 H 0.53193 0.60115 0.47689 0.0
H1789 H 0.52805 0.62352 0.45841 0.0
H1790 H 0.51451 0.65427 0.49825 0.0
H1791 H 0.51888 0.63218 0.51686 0.0
H1792 H 0.50024 0.63999 0.45248 0.0
H1793 H 0.54822 0.6822 0.4754 0.0
H1794 H 0.54728 0.66108 0.48064 0.0
H1795 H 0.53462 0.67536 0.49077 0.0
C1796 C 0.52838 0.61274 0.48176 0.0
C1797 C 0.52577 0.61486 0.49838 0.0
C1798 C 0.52607 0.62549 0.47116 0.0
C1799 C 0.52121 0.64064 0.47696 0.0
C1800 C 0.51856 0.64279 0.49352 0.0
H1801 H 0.47476 0.7162 0.42437 0.0
H1802 H 0.48182 0.69401 0.44191 0.0
C1803 C 0.52087 0.63007 0.50413 0.0
C1804 C 0.51827 0.654 0.46563 0.0
H1805 H 0.52896 0.69316 0.45739 0.0
C1806 C 0.50659 0.65158 0.45349 0.0
C1807 C 0.52672 0.66904 0.46681 0.0
C1808 C 0.54003 0.67207 0.479 0.0
C1809 C 0.50282 0.66394 0.44278 0.0
C1810 C 0.51074 0.67922 0.44443 0.0
C1811 C 0.52275 0.6815 0.45627 0.0
C1812 C 0.50664 0.69301 0.43405 0.0
C1813 C 0.49047 0.66046 0.42971 0.0
C1814 C 0.51838 0.7002 0.42416 0.0
C1815 C 0.51443 0.71301 0.41416 0.0
C1816 C 0.49865 0.71897 0.41393 0.0
C1817 C 0.48701 0.71192 0.42414 0.0
C1818 C 0.49099 0.69913 0.43412 0.0
H1819 H 0.4889 0.64726 0.42728 0.0
H1820 H 0.47864 0.66516 0.43356 0.0
H1821 H 0.49396 0.66647 0.41833 0.0
H1822 H 0.53057 0.69572 0.424 0.0
H1823 H 0.52373 0.71813 0.40651 0.0
H1824 H 0.8764 0.77689 0.75862 0.0
H1825 H 0.89639 0.77347 0.73738 0.0
H1826 H 0.904 0.82517 0.73569 0.0
H1827 H 0.88409 0.82871 0.75723 0.0
H1828 H 0.89541 0.78819 0.70535 0.0
H1829 H 0.95025 0.8056 0.74127 0.0
H1830 H 0.9316 0.79926 0.75072 0.0
H1831 H 0.93328 0.81882 0.74178 0.0
C1832 C 0.88244 0.78754 0.75388 0.0
C1833 C 0.87875 0.80307 0.75971 0.0
C1834 C 0.89378 0.78557 0.74167 0.0
C1835 C 0.90176 0.79905 0.73509 0.0
C1836 C 0.89808 0.8146 0.74075 0.0
H1837 H 0.97972 0.78817 0.66315 0.0
H1838 H 0.96039 0.8015 0.68109 0.0
C1839 C 0.88663 0.81661 0.75295 0.0
C1840 C 0.91373 0.79657 0.72213 0.0
H1841 H 0.95427 0.79563 0.71497 0.0
C1842 C 0.90827 0.79005 0.70735 0.0
C1843 C 0.93047 0.79915 0.72474 0.0
C1844 C 0.93688 0.80603 0.74048 0.0
C1845 C 0.91915 0.7854 0.69535 0.0
C1846 C 0.93594 0.78702 0.69833 0.0
C1847 C 0.9414 0.79438 0.71274 0.0
C1848 C 0.94781 0.77933 0.68751 0.0
C1849 C 0.91259 0.7784 0.67971 0.0
C1850 C 0.94731 0.76248 0.68547 0.0
C1851 C 0.95826 0.75487 0.67537 0.0
C1852 C 0.97009 0.76391 0.66706 0.0
C1853 C 0.97075 0.78084 0.6693 0.0
C1854 C 0.95973 0.78848 0.67954 0.0
H1855 H 0.9002 0.78261 0.67725 0.0
H1856 H 0.92047 0.78171 0.66943 0.0
H1857 H 0.912 0.76501 0.68047 0.0
H1858 H 0.93842 0.75516 0.69176 0.0
H1859 H 0.95733 0.74183 0.67405 0.0
H1860 H 0.04433 0.89306 0.52024 0.0
H1861 H 0.04018 0.87054 0.53867 0.0
H1862 H 0.98953 0.88095 0.54142 0.0
H1863 H 0.99361 0.90371 0.52321 0.0
H1864 H 0.00489 0.87572 0.57189 0.0
H1865 H 0.01704 0.82685 0.52728 0.0
H1866 H 0.03237 0.84255 0.52862 0.0
H1867 H 0.01256 0.84723 0.52146 0.0
C1868 C 0.03231 0.89063 0.52483 0.0
C1869 C 0.01929 0.90017 0.52021 0.0
C1870 C 0.02994 0.87766 0.53525 0.0
C1871 C 0.01451 0.87396 0.54125 0.0
C1872 C 1.00151 0.88355 0.53684 0.0
H1873 H 0.9863 0.78501 0.58981 0.0
H1874 H 0.98752 0.80847 0.57216 0.0
C1875 C 0.00385 0.89648 0.52635 0.0
C1876 C 0.01199 0.86018 0.55227 0.0
H1877 H 0.01481 0.81914 0.55461 0.0
C1878 C 0.00699 0.86334 0.56811 0.0
C1879 C 0.01456 0.84403 0.54725 0.0
C1880 C 0.01929 0.83987 0.53019 0.0
C1881 C 0.00485 0.85078 0.57919 0.0
C1882 C 0.00792 0.83469 0.5743 0.0
C1883 C 0.01256 0.8315 0.55836 0.0
C1884 C 0.00658 0.82096 0.58557 0.0
C1885 C 0.9992 0.85482 0.59598 0.0
C1886 C 0.01688 0.82021 0.59898 0.0
C1887 C 0.01624 0.80681 0.60907 0.0
C1888 C 0.00529 0.79389 0.60592 0.0
C1889 C 0.99482 0.79478 0.59261 0.0
C1890 C 0.99552 0.80816 0.58249 0.0
H1891 H 0.99357 0.86687 0.59662 0.0
H1892 H 0.99036 0.84556 0.60025 0.0
H1893 H 0.00971 0.85503 0.60431 0.0
H1894 H 0.02569 0.82982 0.60143 0.0
H1895 H 0.02451 0.80647 0.61917 0.0
H1896 H 0.13289 0.68779 0.75364 0.0
H1897 H 0.11231 0.69212 0.73299 0.0
H1898 H 0.1159 0.74357 0.74186 0.0
H1899 H 0.13669 0.73945 0.76222 0.0
H1900 H 0.08365 0.7298 0.7423 0.0
H1901 H 0.11779 0.71237 0.68746 0.0
H1902 H 0.1181 0.69822 0.7037 0.0
H1903 H 0.12762 0.71782 0.70629 0.0
C1904 C 0.12951 0.70005 0.75101 0.0
C1905 C 0.13642 0.71326 0.75967 0.0
C1906 C 0.11772 0.70249 0.73923 0.0
C1907 C 0.11267 0.71817 0.73585 0.0
C1908 C 0.11963 0.73137 0.74431 0.0
H1909 H 0.05046 0.75206 0.65925 0.0
H1910 H 0.07264 0.74807 0.67826 0.0
C1911 C 0.13144 0.72896 0.75603 0.0
C1912 C 0.0996 0.72083 0.724 0.0
H1913 H 0.08995 0.71748 0.68405 0.0
C1914 C 0.08502 0.72713 0.72956 0.0
C1915 C 0.10151 0.71747 0.70739 0.0
C1916 C 0.11712 0.71121 0.70075 0.0
C1917 C 0.07219 0.72992 0.71896 0.0
C1918 C 0.07397 0.72624 0.7024 0.0
C1919 C 0.08863 0.72019 0.69678 0.0
C1920 C 0.06063 0.7285 0.69078 0.0
C1921 C 0.05685 0.73691 0.7255 0.0
C1922 C 0.04663 0.7187 0.69146 0.0
C1923 C 0.03396 0.72088 0.68061 0.0
C1924 C 0.03502 0.73296 0.66886 0.0
C1925 C 0.04916 0.74271 0.66818 0.0
C1926 C 0.06188 0.74043 0.67899 0.0
H1927 H 0.05855 0.74207 0.73783 0.0
H1928 H 0.05241 0.74651 0.71751 0.0
H1929 H 0.04738 0.72722 0.72599 0.0
H1930 H 0.04552 0.70932 0.70038 0.0
H1931 H 0.02332 0.7131 0.6815 0.0
H1932 H 0.98169 0.59697 0.54565 0.0
H1933 H 0.98837 0.62166 0.56094 0.0
H1934 H 0.00424 0.64481 0.51742 0.0
H1935 H 0.99689 0.62035 0.50186 0.0
H1936 H 0.01727 0.63812 0.56483 0.0
H1937 H 0.97241 0.677 0.53539 0.0
H1938 H 0.97211 0.6553 0.53281 0.0
H1939 H 0.98643 0.66758 0.52198 0.0
C1940 C 0.98639 0.60737 0.53926 0.0
C1941 C 0.98856 0.60671 0.52247 0.0
C1942 C 0.99035 0.62144 0.54806 0.0
C1943 C 0.99658 0.63517 0.5403 0.0
C1944 C 0.99916 0.63447 0.52362 0.0
H1945 H 0.0341 0.71509 0.60323 0.0
H1946 H 0.03315 0.69302 0.58319 0.0
C1947 C 0.99513 0.62039 0.51477 0.0
C1948 C 1.00025 0.65015 0.54983 0.0
H1949 H 0.98942 0.68942 0.55487 0.0
C1950 C 0.01117 0.64937 0.56272 0.0
C1951 C 0.99235 0.6648 0.54696 0.0
C1952 C 0.98007 0.66627 0.53363 0.0
C1953 C 0.01405 0.66263 0.57319 0.0
C1954 C 0.00593 0.67731 0.57052 0.0
C1955 C 0.9955 0.67821 0.55716 0.0
C1956 C 0.00701 0.69149 0.58189 0.0
C1957 C 0.02549 0.66036 0.5871 0.0
C1958 C 0.99279 0.69899 0.58696 0.0
C1959 C 0.99343 0.71209 0.59775 0.0
C1960 C 0.00818 0.71747 0.6044 0.0
C1961 C 0.02249 0.71061 0.59882 0.0
C1962 C 0.02193 0.69789 0.58749 0.0
H1963 H 0.02582 0.64748 0.59071 0.0
H1964 H 0.03786 0.66404 0.58335 0.0
H1965 H 0.02224 0.66769 0.59777 0.0
H1966 H 0.98109 0.69464 0.58268 0.0
H1967 H 0.98234 0.71797 0.60098 0.0
H1968 H 0.7323 0.90106 0.21282 0.0
H1969 H 0.75244 0.92314 0.21538 0.0
H1970 H 0.78993 0.88822 0.22088 0.0
H1971 H 0.76991 0.86621 0.21746 0.0
H1972 H 0.7705 0.93197 0.23904 0.0
H1973 H 0.81126 0.91645 0.18901 0.0
H1974 H 0.79184 0.90652 0.19144 0.0
H1975 H 0.80916 0.89988 0.20254 0.0
C1976 C 0.74488 0.89817 0.2144 0.0
C1977 C 0.74962 0.88199 0.21484 0.0
C1978 C 0.75638 0.91075 0.21586 0.0
C1979 C 0.7728 0.9074 0.218 0.0
C1980 C 0.77747 0.89118 0.21866 0.0
H1981 H 0.84269 0.97089 0.26479 0.0
H1982 H 0.82116 0.95148 0.25744 0.0
C1983 C 0.76602 0.8786 0.21686 0.0
C1984 C 0.78485 0.92084 0.22053 0.0
H1985 H 0.82219 0.93476 0.20924 0.0
C1986 C 0.78171 0.93267 0.23235 0.0
C1987 C 0.79939 0.92201 0.21165 0.0
C1988 C 0.80302 0.91063 0.19784 0.0
C1989 C 0.79284 0.94528 0.23587 0.0
C1990 C 0.80785 0.94576 0.2278 0.0
C1991 C 0.8108 0.93427 0.21561 0.0
C1992 C 0.82085 0.9577 0.2322 0.0
C1993 C 0.78824 0.95803 0.2481 0.0
C1994 C 0.82823 0.96738 0.2204 0.0
C1995 C 0.84087 0.9782 0.22457 0.0
C1996 C 0.8465 0.97921 0.2405 0.0
C1997 C 0.83885 0.9699 0.25233 0.0
C1998 C 0.82635 0.95904 0.24818 0.0
H1999 H 0.77494 0.95929 0.24866 0.0
H2000 H 0.79242 0.95441 0.2602 0.0
H2001 H 0.79378 0.97001 0.24529 0.0
H2002 H 0.82419 0.96657 0.208 0.0
H2003 H 0.84641 0.98556 0.21533 0.0
H2004 H 0.75738 0.13879 0.27094 0.0
H2005 H 0.77821 0.11841 0.26874 0.0
H2006 H 0.77727 0.11226 0.32016 0.0
H2007 H 0.75622 0.13242 0.32249 0.0
H2008 H 0.80899 0.11568 0.30664 0.0
H2009 H 0.77116 0.06906 0.2746 0.0
H2010 H 0.77127 0.0887 0.26563 0.0
H2011 H 0.76266 0.08602 0.28525 0.0
C2012 C 0.76143 0.13297 0.28178 0.0
C2013 C 0.75503 0.13721 0.29689 0.0
C2014 C 0.77338 0.12136 0.28049 0.0
C2015 C 0.77915 0.11372 0.29427 0.0
C2016 C 0.77296 0.11802 0.30938 0.0
H2017 H 0.83613 0.02662 0.29158 0.0
H2018 H 0.81661 0.0472 0.29887 0.0
C2019 C 0.76098 0.1296 0.31069 0.0
C2020 C 0.79172 0.1013 0.29289 0.0
H2021 H 0.79924 0.06425 0.27627 0.0
C2022 C 0.80687 0.10439 0.30008 0.0
C2023 C 0.78882 0.08651 0.2845 0.0
C2024 C 0.77256 0.08224 0.27716 0.0
C2025 C 0.81935 0.09323 0.29872 0.0
C2026 C 0.81662 0.07869 0.28984 0.0
C2027 C 0.80134 0.07544 0.28301 0.0
C2028 C 0.82948 0.06676 0.28713 0.0
C2029 C 0.8353 0.09703 0.30689 0.0
C2030 C 0.84334 0.07098 0.27833 0.0
C2031 C 0.85454 0.05924 0.27416 0.0
C2032 C 0.85204 0.04305 0.27864 0.0
C2033 C 0.83846 0.03899 0.28798 0.0
C2034 C 0.82726 0.05072 0.29212 0.0
H2035 H 0.8341 0.1063 0.3166 0.0
H2036 H 0.84046 0.08598 0.3121 0.0
H2037 H 0.84395 0.10184 0.29788 0.0
H2038 H 0.84517 0.08321 0.27411 0.0
H2039 H 0.86483 0.06275 0.26689 0.0
H2040 H 0.4099 0.98891 0.01427 0.0
H2041 H 0.38564 0.97347 0.02201 0.0
H2042 H 0.37618 0.96141 0.97216 0.0
H2043 H 0.40008 0.97711 0.96423 0.0
H2044 H 0.35281 0.97827 0.0111 0.0
H2045 H 0.37489 0.91718 0.99562 0.0
H2046 H 0.3883 0.93451 0.99866 0.0
H2047 H 0.37756 0.93173 0.97994 0.0
C2048 C 0.40262 0.98307 0.00492 0.0
C2049 C 0.40703 0.98423 0.9886 0.0
C2050 C 0.38881 0.97417 0.0094 0.0
C2051 C 0.37927 0.96612 0.99768 0.0
C2052 C 0.38358 0.96727 0.98142 0.0
H2053 H 0.28346 0.93192 0.98685 0.0
H2054 H 0.30859 0.94762 0.98966 0.0
C2055 C 0.39729 0.97622 0.97692 0.0
C2056 C 0.36448 0.95692 1.00227 0.0
H2057 H 0.34644 0.91945 0.99937 0.0
C2058 C 0.35147 0.96537 0.00877 0.0
C2059 C 0.36285 0.94005 0.99944 0.0
C2060 C 0.37668 0.93027 0.99317 0.0
C2061 C 0.33656 0.95752 0.01167 0.0
C2062 C 0.33464 0.94086 0.00787 0.0
C2063 C 0.34792 0.93225 1.00222 0.0
C2064 C 0.31862 0.9325 0.00804 0.0
C2065 C 0.32289 0.96719 0.01844 0.0
C2066 C 0.31583 0.91882 0.01755 0.0
C2067 C 0.30135 0.9098 0.01603 0.0
C2068 C 0.28961 0.91417 0.00472 0.0
C2069 C 0.29226 0.92821 0.99566 0.0
C2070 C 0.30659 0.93727 0.99731 0.0
H2071 H 0.32742 0.97816 0.02507 0.0
H2072 H 0.31513 0.97119 0.0084 0.0
H2073 H 0.31531 0.95979 0.02666 0.0
H2074 H 0.32504 0.91487 0.02581 0.0
H2075 H 0.29973 0.89897 0.02307 0.0
H2076 H 0.23867 0.36276 0.30335 0.0
H2077 H 0.21767 0.38273 0.29949 0.0
H2078 H 0.25376 0.41788 0.28499 0.0
H2079 H 0.27486 0.39817 0.2891 0.0
H2080 H 0.2145 0.41513 0.31341 0.0
H2081 H 0.22095 0.41487 0.24685 0.0
H2082 H 0.22883 0.39912 0.25926 0.0
H2083 H 0.23939 0.41827 0.25797 0.0
C2084 C 0.24219 0.3748 0.29954 0.0
C2085 C 0.25847 0.37879 0.29639 0.0
C2086 C 0.23015 0.38617 0.29728 0.0
C2087 C 0.23415 0.4017 0.29174 0.0
C2088 C 0.2504 0.40587 0.289 0.0
H2089 H 0.17697 0.48841 0.28659 0.0
H2090 H 0.19633 0.46781 0.294 0.0
C2091 C 0.26243 0.39455 0.29129 0.0
C2092 C 0.22133 0.41346 0.28848 0.0
H2093 H 0.20394 0.43457 0.25822 0.0
C2094 C 0.21214 0.41937 0.30135 0.0
C2095 C 0.21818 0.41882 0.27271 0.0
C2096 C 0.22724 0.41237 0.25835 0.0
C2097 C 0.20006 0.43077 0.29889 0.0
C2098 C 0.19721 0.43644 0.28317 0.0
C2099 C 0.20622 0.43029 0.27028 0.0
C2100 C 0.18486 0.44866 0.27971 0.0
C2101 C 0.1903 0.43649 0.31308 0.0
C2102 C 0.17204 0.44478 0.26917 0.0
C2103 C 0.161 0.45652 0.26489 0.0
C2104 C 0.16263 0.47244 0.27097 0.0
C2105 C 0.17534 0.47625 0.28175 0.0
C2106 C 0.18637 0.46447 0.28606 0.0
H2107 H 0.19128 0.42825 0.32346 0.0
H2108 H 0.19482 0.44866 0.31699 0.0
H2109 H 0.17737 0.43746 0.30975 0.0
H2110 H 0.17068 0.43268 0.26408 0.0
H2111 H 0.15137 0.45318 0.25654 0.0
H2112 H 0.10027 0.03526 0.48449 0.0
H2113 H 0.12394 0.05314 0.48807 0.0
H2114 H 0.15201 0.01265 0.50286 0.0
H2115 H 0.12864 0.99454 0.49855 0.0
H2116 H 0.14145 0.0599 0.51523 0.0
H2117 H 0.1807 0.0325 0.46882 0.0
H2118 H 0.15942 0.02766 0.47014 0.0
H2119 H 0.17347 0.0185 0.4836 0.0
C2120 C 0.11154 0.03008 0.48822 0.0
C2121 C 0.11253 0.0134 0.49113 0.0
C2122 C 0.12503 0.04036 0.49041 0.0
C2123 C 0.13982 0.03421 0.49552 0.0
C2124 C 0.14083 0.01763 0.4986 0.0
H2125 H 0.21646 0.10209 0.5308 0.0
H2126 H 0.19503 0.08117 0.5298 0.0
C2127 C 0.12736 0.00731 0.49633 0.0
C2128 C 0.15402 0.04529 0.49796 0.0
H2129 H 0.19272 0.05261 0.48579 0.0
C2130 C 0.15266 0.05842 0.50872 0.0
C2131 C 0.16862 0.04328 0.48951 0.0
C2132 C 0.17065 0.02982 0.47726 0.0
C2133 C 0.16535 0.06977 0.5111 0.0
C2134 C 0.18009 0.06778 0.50267 0.0
C2135 C 0.18149 0.05436 0.49217 0.0
C2136 C 0.19388 0.07976 0.50372 0.0
C2137 C 0.16244 0.08379 0.52247 0.0
C2138 C 0.20144 0.08507 0.48954 0.0
C2139 C 0.21421 0.09638 0.49021 0.0
C2140 C 0.21918 0.1033 0.50495 0.0
C2141 C 0.21229 0.09747 0.51921 0.0
C2142 C 0.19991 0.08564 0.51861 0.0
H2143 H 0.14945 0.08681 0.52288 0.0
H2144 H 0.1661 0.08037 0.53481 0.0
H2145 H 0.16938 0.09478 0.51912 0.0
H2146 H 0.19739 0.08058 0.47786 0.0
H2147 H 0.22012 0.09985 0.47914 0.0
H2148 H 0.77 0.1194 0.70222 0.0
H2149 H 0.75205 0.09598 0.70684 0.0
H2150 H 0.71204 0.1279 0.71348 0.0
H2151 H 0.72984 0.15121 0.70806 0.0
H2152 H 0.73613 0.08716 0.73175 0.0
H2153 H 0.69148 0.09608 0.68335 0.0
H2154 H 0.71016 0.10766 0.68455 0.0
H2155 H 0.69296 0.11353 0.69633 0.0
C2156 C 0.75733 0.12134 0.70451 0.0
C2157 C 0.75124 0.13705 0.70466 0.0
C2158 C 0.74708 0.10798 0.70715 0.0
C2159 C 0.73057 0.11009 0.71019 0.0
C2160 C 0.72457 0.12585 0.7106 0.0
H2161 H 0.6689 0.04305 0.76127 0.0
H2162 H 0.6888 0.06345 0.75291 0.0
C2163 C 0.73475 0.13919 0.70763 0.0
C2164 C 0.71987 0.09588 0.71369 0.0
H2165 H 0.68343 0.07801 0.70429 0.0
C2166 C 0.72467 0.08509 0.72561 0.0
C2167 C 0.70505 0.09289 0.70549 0.0
C2168 C 0.69971 0.10306 0.6916 0.0
C2169 C 0.71492 0.07175 0.72988 0.0
C2170 C 0.69959 0.06944 0.72249 0.0
C2171 C 0.69502 0.0799 0.7102 0.0
C2172 C 0.68789 0.05662 0.72762 0.0
C2173 C 0.72134 0.06015 0.74208 0.0
C2174 C 0.68036 0.04618 0.7162 0.0
C2175 C 0.66858 0.03484 0.72096 0.0
C2176 C 0.66397 0.03398 0.73715 0.0
C2177 C 0.67191 0.04392 0.74863 0.0
C2178 C 0.68353 0.05534 0.74389 0.0
H2179 H 0.73475 0.06003 0.74189 0.0
H2180 H 0.71769 0.06413 0.75433 0.0
H2181 H 0.71665 0.04763 0.73987 0.0
H2182 H 0.68353 0.04688 0.70359 0.0
H2183 H 0.66283 0.027 0.71197 0.0
H2184 H 0.40825 0.02808 0.50296 0.0
H2185 H 0.38546 0.04499 0.49592 0.0
H2186 H 0.37029 0.0456 0.5455 0.0
H2187 H 0.39279 0.0284 0.55259 0.0
H2188 H 0.34496 0.0393 0.52315 0.0
H2189 H 0.38178 0.09367 0.50699 0.0
H2190 H 0.38708 0.07518 0.49688 0.0
H2191 H 0.3899 0.0772 0.51827 0.0
C2192 C 0.4 0.03171 0.51235 0.0
C2193 C 0.40241 0.02695 0.52837 0.0
C2194 C 0.38707 0.04151 0.50833 0.0
C2195 C 0.37631 0.04675 0.52022 0.0
C2196 C 0.37852 0.04179 0.53615 0.0
H2197 H 0.30666 0.12247 0.5226 0.0
H2198 H 0.32997 0.10514 0.52554 0.0
C2199 C 0.39145 0.03205 0.54019 0.0
C2200 C 0.36265 0.05728 0.51614 0.0
H2201 H 0.35359 0.09498 0.50294 0.0
C2202 C 0.34683 0.05144 0.51866 0.0
C2203 C 0.36514 0.07318 0.51044 0.0
C2204 C 0.38187 0.0803 0.50809 0.0
C2205 C 0.33343 0.06108 0.51565 0.0
C2206 C 0.33591 0.07693 0.5098 0.0
C2207 C 0.35172 0.08277 0.50727 0.0
C2208 C 0.32225 0.0879 0.50708 0.0
C2209 C 0.31675 0.0544 0.51921 0.0
C2210 C 0.31035 0.08419 0.49543 0.0
C2211 C 0.297 0.09411 0.49369 0.0
C2212 C 0.29532 0.10793 0.50356 0.0
C2213 C 0.30755 0.1119 0.51483 0.0
C2214 C 0.3209 0.10201 0.51653 0.0
H2215 H 0.31712 0.04343 0.52675 0.0
H2216 H 0.30942 0.06361 0.52549 0.0
H2217 H 0.31057 0.05106 0.50772 0.0
H2218 H 0.31129 0.0735 0.48784 0.0
H2219 H 0.28782 0.09073 0.48487 0.0
H2220 H 0.61773 0.4973 0.55244 0.0
H2221 H 0.64005 0.4788 0.54844 0.0
H2222 H 0.63381 0.4815 0.49703 0.0
H2223 H 0.61126 0.49967 0.50085 0.0
H2224 H 0.63961 0.44793 0.53077 0.0
H2225 H 0.68239 0.49344 0.50534 0.0
H2226 H 0.66479 0.49901 0.51673 0.0
H2227 H 0.66274 0.49247 0.49609 0.0
C2228 C 0.62098 0.49385 0.54027 0.0
C2229 C 0.6127 0.50007 0.52696 0.0
C2230 C 0.6338 0.48334 0.53803 0.0
C2231 C 0.6387 0.47897 0.52245 0.0
C2232 C 0.6304 0.48498 0.50915 0.0
H2233 H 0.71186 0.42061 0.4789 0.0
H2234 H 0.68991 0.43872 0.4853 0.0
C2235 C 0.61754 0.49541 0.51137 0.0
C2236 C 0.65238 0.46797 0.52005 0.0
H2237 H 0.69017 0.46606 0.50403 0.0
C2238 C 0.65073 0.45188 0.52503 0.0
C2239 C 0.66683 0.4732 0.51255 0.0
C2240 C 0.66943 0.4905 0.50747 0.0
C2241 C 0.66298 0.44071 0.52224 0.0
C2242 C 0.6774 0.4459 0.51461 0.0
C2243 C 0.67911 0.46208 0.50986 0.0
C2244 C 0.69069 0.43468 0.51096 0.0
C2245 C 0.66012 0.42334 0.527 0.0
C2246 C 0.69858 0.42647 0.52328 0.0
C2247 C 0.71113 0.41599 0.51966 0.0
C2248 C 0.71618 0.41366 0.50365 0.0
C2249 C 0.70836 0.42209 0.49138 0.0
C2250 C 0.69577 0.43247 0.495 0.0
H2251 H 0.64709 0.42048 0.52877 0.0
H2252 H 0.66489 0.41489 0.51775 0.0
H2253 H 0.66646 0.42116 0.53853 0.0
H2254 H 0.69513 0.42828 0.53573 0.0
H2255 H 0.71695 0.40981 0.52944 0.0
H2256 H 0.7048 0.27188 0.36642 0.0
H2257 H 0.70764 0.29205 0.38805 0.0
H2258 H 0.72408 0.25539 0.42023 0.0
H2259 H 0.72044 0.23492 0.39892 0.0
H2260 H 0.70365 0.27605 0.43521 0.0
H2261 H 0.75106 0.31047 0.40245 0.0
H2262 H 0.73249 0.30825 0.39139 0.0
H2263 H 0.74394 0.29065 0.39594 0.0
C2264 C 0.70875 0.268 0.37816 0.0
C2265 C 0.71252 0.25175 0.38085 0.0
C2266 C 0.71056 0.27962 0.39047 0.0
C2267 C 0.71641 0.27529 0.40565 0.0
C2268 C 0.71968 0.25902 0.40856 0.0
H2269 H 0.76078 0.34382 0.47313 0.0
H2270 H 0.75467 0.32228 0.45347 0.0
C2271 C 0.71775 0.24737 0.3963 0.0
C2272 C 0.71956 0.28779 0.41836 0.0
H2273 H 0.7415 0.32227 0.42644 0.0
C2274 C 0.71186 0.28625 0.43331 0.0
C2275 C 0.73058 0.30083 0.41599 0.0
C2276 C 0.74013 0.3026 0.40064 0.0
C2277 C 0.71471 0.29755 0.44588 0.0
C2278 C 0.7252 0.31103 0.44326 0.0
C2279 C 0.73309 0.31231 0.42838 0.0
C2280 C 0.72869 0.3237 0.45581 0.0
C2281 C 0.70691 0.2945 0.46197 0.0
C2282 C 0.71619 0.33178 0.46379 0.0
C2283 C 0.71973 0.34384 0.47537 0.0
C2284 C 0.7358 0.34855 0.47855 0.0
C2285 C 0.74828 0.34058 0.47059 0.0
C2286 C 0.74477 0.32826 0.45938 0.0
H2287 H 0.70391 0.28145 0.46354 0.0
H2288 H 0.71488 0.29862 0.47207 0.0
H2289 H 0.69546 0.30117 0.46269 0.0
H2290 H 0.70368 0.32892 0.46094 0.0
H2291 H 0.70996 0.3498 0.4815 0.0
H2292 H 0.54684 0.03322 0.91467 0.0
H2293 H 0.56176 0.02778 0.89001 0.0
H2294 H 0.5188 0.00668 0.86814 0.0
H2295 H 0.50348 0.01299 0.89241 0.0
H2296 H 0.56861 1.0008 0.87328 0.0
H2297 H 0.53101 0.04032 0.83569 0.0
H2298 H 0.52943 0.03998 0.85731 0.0
H2299 H 0.51987 0.02426 0.8452 0.0
C2300 C 0.54047 0.0276 0.90457 0.0
C2301 C 0.52384 0.02383 0.9055 0.0
C2302 C 0.54909 0.02432 0.89052 0.0
C2303 C 0.54135 0.01711 0.87708 0.0
C2304 C 0.52495 0.0126 0.8782 0.0
H2305 H 0.59957 0.98867 0.79248 0.0
H2306 H 0.58193 0.98699 0.81608 0.0
C2307 C 0.51626 0.01604 0.89221 0.0
C2308 C 0.55042 0.01487 0.86182 0.0
H2309 H 0.55156 0.02621 0.82247 0.0
C2310 C 0.56485 0.00627 0.86213 0.0
C2311 C 0.54558 0.02216 0.84731 0.0
C2312 C 0.53072 0.03233 0.84632 0.0
C2313 C 0.57474 0.00507 0.84847 0.0
C2314 C 0.56987 0.01233 0.83396 0.0
C2315 C 0.55524 0.02055 0.83355 0.0
C2316 C 0.58038 0.01292 0.8195 0.0
C2317 C 0.59065 0.99669 0.84992 0.0
C2318 C 0.58504 0.028 0.8133 0.0
C2319 C 0.59485 0.02899 0.79974 0.0
C2320 C 0.60035 0.0149 0.79201 0.0
C2321 C 0.59565 0.99975 0.79818 0.0
C2322 C 0.58564 0.99877 0.81174 0.0
H2323 H 0.59425 0.99512 0.86269 0.0
H2324 H 0.58957 0.98451 0.84418 0.0
H2325 H 0.6004 0.00359 0.84373 0.0
H2326 H 0.58117 0.03908 0.81906 0.0
H2327 H 0.59826 0.04088 0.79544 0.0
H2328 H 0.29214 0.28001 0.39677 0.0
H2329 H 0.28841 0.25865 0.41646 0.0
H2330 H 0.30835 0.2241 0.38308 0.0
H2331 H 0.31133 0.24519 0.363 0.0
H2332 H 0.28107 0.21282 0.39528 0.0
H2333 H 0.31928 0.2361 0.44553 0.0
H2334 H 0.30496 0.25074 0.43938 0.0
H2335 H 0.32037 0.24441 0.42557 0.0
C2336 C 0.29573 0.26787 0.39358 0.0
C2337 C 0.30201 0.26437 0.37823 0.0
C2338 C 0.29384 0.2557 0.40499 0.0
C2339 C 0.29839 0.2398 0.4014 0.0
C2340 C 0.30491 0.23631 0.3862 0.0
H2341 H 0.28821 0.16206 0.47319 0.0
H2342 H 0.30053 0.18117 0.45415 0.0
C2343 C 0.3067 0.24844 0.37475 0.0
C2344 C 0.29497 0.22656 0.41293 0.0
H2345 H 0.29904 0.21583 0.45231 0.0
C2346 C 0.28523 0.21339 0.40768 0.0
C2347 C 0.30059 0.22709 0.42906 0.0
C2348 C 0.31203 0.24027 0.43517 0.0
C2349 C 0.28028 0.20121 0.41828 0.0
C2350 C 0.2849 0.20239 0.43468 0.0
C2351 C 0.29534 0.21507 0.43978 0.0
C2352 C 0.27787 0.19131 0.4468 0.0
C2353 C 0.26991 0.1873 0.41186 0.0
C2354 C 0.26116 0.19101 0.44927 0.0
C2355 C 0.25413 0.1802 0.46002 0.0
C2356 C 0.26365 0.16943 0.46872 0.0
C2357 C 0.28051 0.17012 0.46666 0.0
C2358 C 0.28757 0.18102 0.4558 0.0
H2359 H 0.27161 0.18547 0.3987 0.0
H2360 H 0.27267 0.17588 0.41805 0.0
H2361 H 0.25702 0.18999 0.41393 0.0
H2362 H 0.25349 0.1991 0.44274 0.0
H2363 H 0.24113 0.18023 0.46137 0.0
H2364 H 0.49237 0.51869 0.91034 0.0
H2365 H 0.47408 0.52311 0.88766 0.0
H2366 H 0.47134 0.47169 0.87822 0.0
H2367 H 0.48954 0.46719 0.90084 0.0
H2368 H 0.47769 0.5157 0.8556 0.0
H2369 H 0.42408 0.48308 0.87945 0.0
H2370 H 0.44127 0.48867 0.89193 0.0
H2371 H 0.44162 0.47078 0.87932 0.0
C2372 C 0.48788 0.50832 0.90342 0.0
C2373 C 0.49235 0.49257 0.90747 0.0
C2374 C 0.47738 0.51087 0.89051 0.0
C2375 C 0.4711 0.49772 0.88142 0.0
C2376 C 0.47567 0.482 0.88533 0.0
H2377 H 0.42315 0.47468 0.79445 0.0
H2378 H 0.43895 0.47753 0.81904 0.0
C2379 C 0.4861 0.47944 0.89826 0.0
C2380 C 0.46022 0.50037 0.86748 0.0
H2381 H 0.42407 0.48806 0.85102 0.0
C2382 C 0.46584 0.5099 0.85471 0.0
C2383 C 0.44469 0.49292 0.86638 0.0
C2384 C 0.43748 0.48344 0.88008 0.0
C2385 C 0.45673 0.5114 0.84051 0.0
C2386 C 0.44163 0.50322 0.83912 0.0
C2387 C 0.4357 0.49427 0.85213 0.0
C2388 C 0.43256 0.50233 0.82373 0.0
C2389 C 0.46356 0.52104 0.82676 0.0
C2390 C 0.42378 0.51545 0.81811 0.0
C2391 C 0.41457 0.51389 0.80392 0.0
C2392 C 0.41404 0.49917 0.79516 0.0
C2393 C 0.42319 0.48623 0.80078 0.0
C2394 C 0.43226 0.48779 0.8149 0.0
H2395 H 0.47586 0.52602 0.82944 0.0
H2396 H 0.46406 0.5133 0.81574 0.0
H2397 H 0.45552 0.53123 0.82414 0.0
H2398 H 0.42382 0.52676 0.82486 0.0
H2399 H 0.40767 0.52408 0.8 0.0
H2400 H 0.71017 0.73899 0.15147 0.0
H2401 H 0.71405 0.71877 0.13004 0.0
H2402 H 0.72312 0.75688 0.09615 0.0
H2403 H 0.71934 0.77712 0.11747 0.0
H2404 H 0.69828 0.71334 0.10117 0.0
H2405 H 0.76269 0.7292 0.09071 0.0
H2406 H 0.75184 0.73641 0.10808 0.0
H2407 H 0.74969 0.74615 0.08899 0.0
C2408 C 0.71288 0.74305 0.13942 0.0
C2409 C 0.71461 0.75965 0.1362 0.0
C2410 C 0.71516 0.73149 0.12721 0.0
C2411 C 0.71921 0.73631 0.11157 0.0
C2412 C 0.72045 0.75287 0.10822 0.0
H2413 H 0.713 0.67932 0.02316 0.0
H2414 H 0.70865 0.69798 0.04569 0.0
C2415 C 0.71826 0.76442 0.12042 0.0
C2416 C 0.72205 0.72405 0.09872 0.0
H2417 H 0.74994 0.71165 0.07129 0.0
C2418 C 0.7096 0.7129 0.09469 0.0
C2419 C 0.73692 0.72332 0.09044 0.0
C2420 C 0.75111 0.7343 0.09486 0.0
C2421 C 0.71147 0.70131 0.08234 0.0
C2422 C 0.72609 0.70107 0.07358 0.0
C2423 C 0.73867 0.71196 0.07788 0.0
C2424 C 0.72863 0.68961 0.05993 0.0
C2425 C 0.69786 0.68929 0.07895 0.0
C2426 C 0.7416 0.67899 0.06022 0.0
C2427 C 0.74426 0.66841 0.04725 0.0
C2428 C 0.73402 0.66826 0.03368 0.0
C2429 C 0.72109 0.67901 0.03342 0.0
C2430 C 0.71849 0.68962 0.04636 0.0
H2431 H 0.6897 0.68804 0.08946 0.0
H2432 H 0.69059 0.69355 0.06866 0.0
H2433 H 0.70254 0.67719 0.07575 0.0
H2434 H 0.74964 0.67884 0.07053 0.0
H2435 H 0.75433 0.66034 0.04792 0.0
H2436 H 0.97494 0.03354 0.10171 0.0
H2437 H 0.9567 0.03003 0.12455 0.0
H2438 H 0.9968 0.01678 0.15443 0.0
H2439 H 0.0152 0.02084 0.13187 0.0
H2440 H 0.95028 1.00259 0.14167 0.0
H2441 H 0.97523 0.05089 0.18216 0.0
H2442 H 0.98021 0.04962 0.16105 0.0
H2443 H 0.99017 0.03703 0.17531 0.0
C2444 C 0.97994 0.03014 0.11321 0.0
C2445 C 0.99657 0.02752 0.11494 0.0
C2446 C 0.96946 0.02803 0.12623 0.0
C2447 C 0.97541 0.02337 0.14127 0.0
C2448 C 0.99198 0.0207 0.14303 0.0
H2449 H 0.92206 0.9782 0.21858 0.0
H2450 H 0.93963 0.98472 0.19597 0.0
C2451 C 1.00246 0.02282 0.13004 0.0
C2452 C 0.9642 0.02065 0.15493 0.0
H2453 H 0.95691 0.03182 0.19395 0.0
C2454 C 0.95167 0.00905 0.15307 0.0
C2455 C 0.96587 0.02925 0.16973 0.0
C2456 C 0.97849 0.04251 0.17218 0.0
C2457 C 0.94103 0.00551 0.16572 0.0
C2458 C 0.94316 0.01358 0.18076 0.0
C2459 C 0.95541 0.0255 0.18249 0.0
C2460 C 0.93281 0.00978 0.19483 0.0
C2461 C 0.92749 0.99329 0.16281 0.0
C2462 C 0.92353 0.02184 0.20208 0.0
C2463 C 0.91353 0.01819 0.21514 0.0
C2464 C 0.91268 1.00241 0.22128 0.0
C2465 C 0.9223 0.99046 0.21417 0.0
C2466 C 0.93229 0.99413 0.20114 0.0
H2467 H 0.92478 0.99168 0.14977 0.0
H2468 H 0.93107 0.98141 0.16753 0.0
H2469 H 0.9163 0.99695 0.16907 0.0
H2470 H 0.92382 0.03402 0.19746 0.0
H2471 H 0.90635 0.02772 0.2203 0.0
H2472 H 0.31308 0.77849 0.15005 0.0
H2473 H 0.30597 0.79808 0.12959 0.0
H2474 H 0.29186 0.75912 0.09708 0.0
H2475 H 0.2992 0.73939 0.11736 0.0
H2476 H 0.31786 0.80136 0.09746 0.0
H2477 H 0.25182 0.78821 0.09914 0.0
H2478 H 0.2654 0.78192 0.11477 0.0
H2479 H 0.26419 0.77088 0.096 0.0
C2480 C 0.30864 0.77405 0.13849 0.0
C2481 C 0.30669 0.75733 0.13538 0.0
C2482 C 0.3045 0.78528 0.12684 0.0
C2483 C 0.29821 0.78005 0.11191 0.0
C2484 C 0.29643 0.76341 0.10865 0.0
H2485 H 0.28608 0.83591 0.0248 0.0
H2486 H 0.295 0.81693 0.04517 0.0
C2487 C 0.3006 0.75215 0.12027 0.0
C2488 C 0.29351 0.79205 0.09975 0.0
H2489 H 0.26117 0.80607 0.07902 0.0
C2490 C 0.30547 0.80241 0.09341 0.0
C2491 C 0.27731 0.79351 0.09466 0.0
C2492 C 0.26388 0.78315 0.10156 0.0
C2493 C 0.30168 0.81406 0.08193 0.0
C2494 C 0.28554 0.81527 0.07657 0.0
C2495 C 0.27356 0.80505 0.08307 0.0
C2496 C 0.28074 0.82719 0.06437 0.0
C2497 C 0.31492 0.82517 0.07583 0.0
C2498 C 0.26966 0.83916 0.06836 0.0
C2499 C 0.26452 0.85 0.05676 0.0
C2500 C 0.27027 0.84899 0.04088 0.0
C2501 C 0.28148 0.83706 0.03693 0.0
C2502 C 0.28665 0.82624 0.04858 0.0
H2503 H 0.32571 0.82527 0.08382 0.0
H2504 H 0.31865 0.82097 0.06369 0.0
H2505 H 0.31062 0.83774 0.0748 0.0
H2506 H 0.26491 0.84006 0.08047 0.0
H2507 H 0.25584 0.85901 0.06018 0.0
H2508 H 0.99983 0.48898 0.12157 0.0
H2509 H 0.01606 0.49568 0.14557 0.0
H2510 H 0.05928 0.48328 0.11991 0.0
H2511 H 0.04323 0.47701 0.09575 0.0
H2512 H 0.03662 0.47561 0.1629 0.0
H2513 H 0.07006 0.52861 0.1383 0.0
H2514 H 0.05209 0.52006 0.12884 0.0
H2515 H 0.07119 0.51055 0.12611 0.0
C2516 C 0.01281 0.48788 0.12097 0.0
C2517 C 0.02023 0.48252 0.10671 0.0
C2518 C 0.02205 0.4916 0.13472 0.0
C2519 C 0.03889 0.49015 0.13446 0.0
C2520 C 0.04633 0.48472 0.1203 0.0
H2521 H 0.10505 0.48673 0.21594 0.0
H2522 H 0.08792 0.48036 0.19255 0.0
C2523 C 0.03711 0.48098 0.10656 0.0
C2524 C 0.04865 0.49408 0.14908 0.0
H2525 H 0.07908 0.5189 0.16346 0.0
C2526 C 0.04587 0.48511 0.16306 0.0
C2527 C 0.0606 0.50659 0.1493 0.0
C2528 C 0.0636 0.51712 0.13489 0.0
C2529 C 0.05491 0.48814 0.17718 0.0
C2530 C 0.06718 0.50032 0.17724 0.0
C2531 C 0.06977 0.50946 0.16334 0.0
C2532 C 0.07732 0.504 0.19168 0.0
C2533 C 0.05107 0.47844 0.19198 0.0
C2534 C 0.07726 0.51948 0.19879 0.0
C2535 C 0.08708 0.52321 0.21211 0.0
C2536 C 0.09728 0.51154 0.21857 0.0
C2537 C 0.09731 0.49601 0.21138 0.0
C2538 C 0.08745 0.4923 0.19804 0.0
H2539 H 0.03888 0.47258 0.19121 0.0
H2540 H 0.06004 0.46878 0.19322 0.0
H2541 H 0.0517 0.48621 0.203 0.0
H2542 H 0.06958 0.52872 0.19402 0.0
H2543 H 0.08676 0.53531 0.21724 0.0
H2544 H 0.38409 0.67942 0.25631 0.0
H2545 H 0.40492 0.68566 0.27658 0.0
H2546 H 0.39563 0.73653 0.27246 0.0
H2547 H 0.37432 0.73039 0.25279 0.0
H2548 H 0.43299 0.70454 0.2754 0.0
H2549 H 0.39071 0.72946 0.32044 0.0
H2550 H 0.38383 0.71826 0.30282 0.0
H2551 H 0.38972 0.73927 0.30136 0.0
C2552 C 0.38635 0.69193 0.25984 0.0
C2553 C 0.37739 0.70439 0.25301 0.0
C2554 C 0.39836 0.69548 0.27132 0.0
C2555 C 0.40162 0.71153 0.27625 0.0
C2556 C 0.39308 0.72402 0.26909 0.0
H2557 H 0.46427 0.76075 0.34535 0.0
H2558 H 0.44468 0.75286 0.3244 0.0
C2559 C 0.38103 0.7205 0.25767 0.0
C2560 C 0.41381 0.71523 0.28899 0.0
H2561 H 0.41866 0.73368 0.32566 0.0
C2562 C 0.42986 0.71074 0.28651 0.0
C2563 C 0.40968 0.72332 0.30346 0.0
C2564 C 0.39252 0.72773 0.30728 0.0
C2565 C 0.44198 0.71452 0.29795 0.0
C2566 C 0.43786 0.72277 0.31236 0.0
C2567 C 0.4218 0.72719 0.31478 0.0
C2568 C 0.44998 0.72735 0.32497 0.0
C2569 C 0.45916 0.71018 0.29419 0.0
C2570 C 0.4594 0.71564 0.33241 0.0
C2571 C 0.47065 0.72018 0.34437 0.0
C2572 C 0.47226 0.73641 0.3494 0.0
C2573 C 0.46289 0.74809 0.34195 0.0
C2574 C 0.45179 0.7436 0.32993 0.0
H2575 H 0.46097 0.70818 0.28107 0.0
H2576 H 0.46778 0.7198 0.29846 0.0
H2577 H 0.46207 0.6988 0.30036 0.0
H2578 H 0.45797 0.70298 0.32907 0.0
H2579 H 0.47792 0.71102 0.34986 0.0
H2580 H 0.95269 0.39618 0.98372 0.0
H2581 H 0.95872 0.37215 0.96758 0.0
H2582 H 0.00958 0.38409 0.97069 0.0
H2583 H 0.00363 0.4082 0.9869 0.0
H2584 H 0.97403 0.37051 0.93818 0.0
H2585 H 0.00807 0.33684 0.9842 0.0
H2586 H 0.99601 0.35407 0.98928 0.0
H2587 H 0.01558 0.35697 0.9804 0.0
C2588 C 0.96516 0.39374 0.98093 0.0
C2589 C 0.97768 0.40412 0.98661 0.0
C2590 C 0.9686 0.37995 0.97176 0.0
C2591 C 0.98461 0.37619 0.96809 0.0
C2592 C 0.99716 0.38654 0.97367 0.0
H2593 H 0.01732 0.29477 0.90738 0.0
H2594 H 0.01745 0.31987 0.92359 0.0
C2595 C 0.99373 0.40034 0.98291 0.0
C2596 C 0.98798 0.36169 0.958 0.0
H2597 H 0.00583 0.32481 0.95827 0.0
C2598 C 0.98106 0.36056 0.94256 0.0
C2599 C 0.99724 0.34875 0.96368 0.0
C2600 C 0.00457 0.34908 0.98034 0.0
C2601 C 0.98286 0.34675 0.93278 0.0
C2602 C 0.9917 0.33365 0.93864 0.0
C2603 C 0.9991 0.33493 0.95384 0.0
C2604 C 0.99213 0.31806 0.92964 0.0
C2605 C 0.97511 0.34615 0.91632 0.0
C2606 C 0.97796 0.30862 0.92803 0.0
C2607 C 0.97783 0.29433 0.91891 0.0
C2608 C 0.9919 0.28911 0.91113 0.0
C2609 C 0.00626 0.2984 0.91315 0.0
C2610 C 0.00637 0.31274 0.9224 0.0
H2611 H 0.97206 0.35841 0.91211 0.0
H2612 H 0.98319 0.34042 0.90737 0.0
H2613 H 0.96378 0.33876 0.91681 0.0
H2614 H 0.96689 0.31244 0.93369 0.0
H2615 H 0.96654 0.28755 0.91773 0.0
H2616 H 0.62762 0.82258 0.25547 0.0
H2617 H 0.60707 0.81954 0.27636 0.0
H2618 H 0.61525 0.76827 0.27751 0.0
H2619 H 0.63594 0.7712 0.2568 0.0
H2620 H 0.58244 0.77628 0.27573 0.0
H2621 H 0.61453 0.81075 0.32459 0.0
H2622 H 0.61254 0.82122 0.30591 0.0
H2623 H 0.62465 0.80352 0.30676 0.0
C2624 C 0.62519 0.81068 0.26029 0.0
C2625 C 0.63347 0.79714 0.25445 0.0
C2626 C 0.61343 0.80897 0.27224 0.0
C2627 C 0.60977 0.79371 0.27862 0.0
C2628 C 0.61791 0.78017 0.27275 0.0
H2629 H 0.55724 0.76374 0.36283 0.0
H2630 H 0.57759 0.77132 0.3429 0.0
C2631 C 0.62967 0.78186 0.26084 0.0
C2632 C 0.59719 0.79171 0.29115 0.0
H2633 H 0.5878 0.80173 0.33001 0.0
C2634 C 0.58358 0.78189 0.28758 0.0
C2635 C 0.59879 0.79893 0.30665 0.0
C2636 C 0.61346 0.8091 0.31133 0.0
C2637 C 0.57151 0.77906 0.29908 0.0
C2638 C 0.57299 0.78644 0.31452 0.0
C2639 C 0.58662 0.79624 0.31811 0.0
C2640 C 0.56089 0.78338 0.3273 0.0
C2641 C 0.55748 0.76784 0.29477 0.0
C2642 C 0.54484 0.7881 0.32539 0.0
C2643 C 0.53316 0.7838 0.33678 0.0
C2644 C 0.53736 0.77472 0.35029 0.0
C2645 C 0.5536 0.77069 0.35254 0.0
C2646 C 0.56526 0.77502 0.34116 0.0
H2647 H 0.55988 0.7605 0.28376 0.0
H2648 H 0.5547 0.75952 0.30481 0.0
H2649 H 0.54663 0.77509 0.29249 0.0
H2650 H 0.54127 0.7948 0.3149 0.0
H2651 H 0.52078 0.78714 0.33472 0.0
H2652 H 0.03172 0.09917 0.97696 0.0
H2653 H 0.02778 0.12127 0.95819 0.0
H2654 H 0.01464 0.15265 0.99769 0.0
H2655 H 0.01914 0.13084 0.0166 0.0
H2656 H 1.00022 0.13762 0.95202 0.0
H2657 H 0.04802 0.18029 0.9744 0.0
H2658 H 0.04707 0.15931 0.98008 0.0
H2659 H 0.03439 0.17379 0.98987 0.0
C2660 C 0.02826 0.11085 0.9817 0.0
C2661 C 0.0258 0.11322 0.99832 0.0
C2662 C 0.02591 0.12344 0.97094 0.0
C2663 C 0.02114 0.13869 0.97655 0.0
C2664 C 0.01863 0.14109 0.99311 0.0
H2665 H 0.97464 0.21312 0.92215 0.0
H2666 H 0.98154 0.1912 0.94008 0.0
C2667 C 0.021 0.12853 0.00388 0.0
C2668 C 0.01815 0.15189 0.96503 0.0
H2669 H 0.02869 0.19096 0.95626 0.0
C2670 C 0.00652 0.14925 0.95288 0.0
C2671 C 0.02653 0.16699 0.96602 0.0
C2672 C 0.03981 0.17025 0.97819 0.0
C2673 C 1.00274 0.16142 0.94196 0.0
C2674 C 0.01059 0.17676 0.94341 0.0
C2675 C 0.02254 0.17926 0.95528 0.0
C2676 C 0.00654 0.19036 0.93276 0.0
C2677 C 0.99051 0.15766 0.92885 0.0
C2678 C 0.01842 0.19756 0.92304 0.0
C2679 C 0.01456 0.21024 0.91283 0.0
C2680 C 0.99873 0.21604 0.9122 0.0
C2681 C 0.98693 0.20896 0.92221 0.0
C2682 C 0.99082 0.19632 0.93242 0.0
H2683 H 0.9891 0.14442 0.92658 0.0
H2684 H 0.9786 0.16225 0.93259 0.0
H2685 H 0.99398 0.16357 0.91742 0.0
H2686 H 0.03065 0.19322 0.92318 0.0
H2687 H 0.02397 0.21539 0.90535 0.0
H2688 H 0.40108 0.30581 0.27825 0.0
H2689 H 0.42194 0.30119 0.25802 0.0
H2690 H 0.38555 0.29991 0.22069 0.0
H2691 H 0.36474 0.30494 0.24085 0.0
H2692 H 0.42489 0.27536 0.23988 0.0
H2693 H 0.41941 0.3276 0.19966 0.0
H2694 H 0.40998 0.32696 0.2192 0.0
H2695 H 0.40041 0.31712 0.20206 0.0
C2696 C 0.39758 0.30475 0.26569 0.0
C2697 C 0.38129 0.30573 0.26112 0.0
C2698 C 0.4095 0.30216 0.25414 0.0
C2699 C 0.40539 0.30042 0.23777 0.0
C2700 C 0.38914 0.30168 0.23315 0.0
H2701 H 0.45339 0.24254 0.16766 0.0
H2702 H 0.43605 0.25481 0.18776 0.0
C2703 C 0.37723 0.30446 0.2447 0.0
C2704 C 0.41782 0.29573 0.22581 0.0
H2705 H 0.43308 0.30449 0.18868 0.0
C2706 C 0.4268 0.28189 0.2288 0.0
C2707 C 0.42055 0.30433 0.21141 0.0
C2708 C 0.41219 0.31992 0.20797 0.0
C2709 C 0.43793 0.27607 0.21757 0.0
C2710 C 0.43984 0.28402 0.20271 0.0
C2711 C 0.43141 0.29826 0.19997 0.0
C2712 C 0.44997 0.27722 0.18967 0.0
C2713 C 0.44752 0.26139 0.22175 0.0
C2714 C 0.46319 0.28603 0.18349 0.0
C2715 C 0.47313 0.27908 0.17177 0.0
C2716 C 0.46999 0.26319 0.16608 0.0
C2717 C 0.45637 0.25469 0.17193 0.0
C2718 C 0.44644 0.26167 0.18349 0.0
H2719 H 0.4485 0.25995 0.235 0.0
H2720 H 0.4413 0.2504 0.21673 0.0
H2721 H 0.45987 0.26215 0.21665 0.0
H2722 H 0.46603 0.29813 0.18799 0.0
H2723 H 0.48347 0.28598 0.16748 0.0
H2724 H 0.49321 0.40622 0.02433 0.0
H2725 H 0.48928 0.38353 0.04265 0.0
H2726 H 0.5399 0.37306 0.03946 0.0
H2727 H 0.54387 0.39546 0.02088 0.0
H2728 H 0.51906 0.34563 0.03573 0.0
H2729 H 0.50428 0.38215 0.09018 0.0
H2730 H 0.49245 0.3862 0.07257 0.0
H2731 H 0.51373 0.39085 0.07267 0.0
C2732 C 0.50348 0.39903 0.02745 0.0
C2733 C 0.51887 0.4027 0.02118 0.0
C2734 C 0.50125 0.38617 0.03805 0.0
C2735 C 0.51434 0.37676 0.04259 0.0
C2736 C 0.52965 0.38025 0.0362 0.0
H2737 H 0.52447 0.30759 0.11903 0.0
H2738 H 0.52597 0.33107 0.10143 0.0
C2739 C 0.53192 0.39312 0.02566 0.0
C2740 C 0.51208 0.36305 0.05375 0.0
H2741 H 0.50179 0.35367 0.09236 0.0
C2742 C 0.51525 0.34737 0.04811 0.0
C2743 C 0.50729 0.3654 0.06994 0.0
C2744 C 0.50436 0.38206 0.07681 0.0
C2745 C 0.51365 0.33394 0.05817 0.0
C2746 C 0.50856 0.33624 0.07427 0.0
C2747 C 0.50553 0.35193 0.07997 0.0
C2748 C 0.50683 0.3225 0.08547 0.0
C2749 C 0.51773 0.31742 0.05161 0.0
C2750 C 0.4953 0.3101 0.08256 0.0
C2751 C 0.49438 0.29668 0.09261 0.0
C2752 C 0.50498 0.29544 0.10578 0.0
C2753 C 0.51616 0.30815 0.10897 0.0
C2754 C 0.51703 0.32159 0.09894 0.0
H2755 H 0.52476 0.31819 0.04027 0.0
H2756 H 0.52478 0.31062 0.06055 0.0
H2757 H 0.5064 0.31044 0.04902 0.0
H2758 H 0.48714 0.3107 0.07238 0.0
H2759 H 0.4856 0.28713 0.08985 0.0
H2760 H 0.6396 0.24132 0.25616 0.0
H2761 H 0.61817 0.24424 0.23609 0.0
H2762 H 0.60846 0.19282 0.23681 0.0
H2763 H 0.62985 0.18979 0.25699 0.0
H2764 H 0.61497 0.2262 0.20412 0.0
H2765 H 0.56419 0.21622 0.24681 0.0
H2766 H 0.58413 0.22263 0.25349 0.0
H2767 H 0.58037 0.20207 0.24713 0.0
C2768 C 0.63286 0.23064 0.25209 0.0
C2769 C 0.63634 0.21533 0.25822 0.0
C2770 C 0.6207 0.23232 0.24057 0.0
C2771 C 0.61168 0.21877 0.2351 0.0
C2772 C 0.61524 0.20344 0.241 0.0
H2773 H 0.52709 0.20857 0.17336 0.0
H2774 H 0.54938 0.20437 0.19203 0.0
C2775 C 0.62751 0.20172 0.25243 0.0
C2776 C 0.59846 0.22075 0.2233 0.0
H2777 H 0.55742 0.21998 0.21958 0.0
C2778 C 0.60238 0.22484 0.20745 0.0
C2779 C 0.58209 0.2189 0.22773 0.0
C2780 C 0.57732 0.2148 0.24473 0.0
C2781 C 0.5903 0.22697 0.1958 0.0
C2782 C 0.57387 0.2254 0.20027 0.0
C2783 C 0.57 0.22122 0.21615 0.0
C2784 C 0.56048 0.22802 0.18871 0.0
C2785 C 0.59531 0.23049 0.17873 0.0
C2786 C 0.55916 0.2428 0.18075 0.0
C2787 C 0.54648 0.24521 0.16993 0.0
C2788 C 0.5347 0.23297 0.16705 0.0
C2789 C 0.53591 0.21828 0.17527 0.0
C2790 C 0.54867 0.21585 0.18596 0.0
H2791 H 0.60779 0.22651 0.17629 0.0
H2792 H 0.587 0.22442 0.1699 0.0
H2793 H 0.59502 0.24373 0.1768 0.0
H2794 H 0.56786 0.25255 0.183 0.0
H2795 H 0.54585 0.25673 0.16395 0.0
H2796 H 0.50991 0.10544 0.01988 0.0
H2797 H 0.51705 0.13002 0.03536 0.0
H2798 H 0.46672 0.14163 0.03873 0.0
H2799 H 0.45949 0.11731 0.02293 0.0
H2800 H 0.48755 0.16824 0.03057 0.0
H2801 H 0.5094 0.13561 0.08418 0.0
H2802 H 0.51853 0.12998 0.06538 0.0
H2803 H 0.49743 0.12574 0.06854 0.0
C2804 C 0.50037 0.1133 0.02377 0.0
C2805 C 0.48412 0.10936 0.02025 0.0
C2806 C 0.50447 0.12726 0.03275 0.0
C2807 C 0.49239 0.13751 0.03838 0.0
C2808 C 0.47621 0.13382 0.03458 0.0
H2809 H 0.48207 0.22344 0.09639 0.0
H2810 H 0.47947 0.20104 0.07693 0.0
C2811 C 0.4721 0.11985 0.02565 0.0
C2812 C 0.49656 0.15204 0.04836 0.0
H2813 H 0.51208 0.16401 0.08482 0.0
C2814 C 0.49289 0.16734 0.04246 0.0
C2815 C 0.50366 0.15083 0.06379 0.0
C2816 C 0.5074 0.13467 0.07096 0.0
C2817 C 0.49602 0.18148 0.05163 0.0
C2818 C 0.50269 0.18024 0.06728 0.0
C2819 C 0.50681 0.16496 0.07294 0.0
C2820 C 0.50458 0.19443 0.07837 0.0
C2821 C 0.49235 0.1976 0.04435 0.0
C2822 C 0.51947 0.19803 0.08595 0.0
C2823 C 0.52086 0.21066 0.09732 0.0
C2824 C 0.50729 0.21958 0.10156 0.0
C2825 C 0.49258 0.21637 0.09361 0.0
C2826 C 0.49117 0.20377 0.08229 0.0
H2827 H 0.49292 0.19699 0.03099 0.0
H2828 H 0.47992 0.20101 0.04769 0.0
H2829 H 0.50089 0.20725 0.04873 0.0
H2830 H 0.52997 0.19098 0.08315 0.0
H2831 H 0.5324 0.21319 0.10312 0.0
H2832 H 0.23153 0.40269 0.71846 0.0
H2833 H 0.25309 0.42291 0.72339 0.0
H2834 H 0.28851 0.38818 0.70909 0.0
H2835 H 0.2672 0.36774 0.70485 0.0
H2836 H 0.29553 0.40254 0.73783 0.0
H2837 H 0.28143 0.44927 0.69301 0.0
H2838 H 0.26495 0.44391 0.70601 0.0
H2839 H 0.27259 0.42911 0.69212 0.0
C2840 C 0.24391 0.39936 0.71634 0.0
C2841 C 0.2476 0.38355 0.71127 0.0
C2842 C 0.2562 0.41101 0.71895 0.0
C2843 C 0.2724 0.40713 0.71639 0.0
C2844 C 0.27608 0.39148 0.71101 0.0
H2845 H 0.35347 0.476 0.71542 0.0
H2846 H 0.33182 0.45624 0.70868 0.0
C2847 C 0.26384 0.37983 0.70848 0.0
C2848 C 0.28568 0.4188 0.72061 0.0
H2849 H 0.30175 0.45612 0.71232 0.0
C2850 C 0.29696 0.41423 0.73218 0.0
C2851 C 0.28752 0.43402 0.71322 0.0
C2852 C 0.27607 0.43937 0.70029 0.0
C2853 C 0.31012 0.42432 0.73653 0.0
C2854 C 0.31196 0.43974 0.72937 0.0
C2855 C 0.30053 0.44435 0.71782 0.0
C2856 C 0.32565 0.45119 0.73349 0.0
C2857 C 0.32202 0.41795 0.74846 0.0
C2858 C 0.32959 0.45497 0.74962 0.0
C2859 C 0.34249 0.46554 0.7534 0.0
C2860 C 0.35125 0.47319 0.74114 0.0
C2861 C 0.34704 0.46996 0.72504 0.0
C2862 C 0.33458 0.45881 0.72123 0.0
H2863 H 0.32282 0.40458 0.74751 0.0
H2864 H 0.33414 0.42331 0.74659 0.0
H2865 H 0.31801 0.421 0.76085 0.0
H2866 H 0.32258 0.44989 0.75936 0.0
H2867 H 0.34522 0.46826 0.76593 0.0
H2868 H 0.27448 0.64996 0.80668 0.0
H2869 H 0.29534 0.6297 0.80349 0.0
H2870 H 0.25978 0.59537 0.7849 0.0
H2871 H 0.23876 0.6154 0.78832 0.0
H2872 H 0.29697 0.59738 0.81652 0.0
H2873 H 0.29526 0.59779 0.74963 0.0
H2874 H 0.28669 0.61363 0.76186 0.0
H2875 H 0.27607 0.59458 0.75923 0.0
C2876 C 0.27103 0.63805 0.80209 0.0
C2877 C 0.25492 0.63437 0.79767 0.0
C2878 C 0.283 0.62651 0.80022 0.0
C2879 C 0.27913 0.61112 0.79379 0.0
C2880 C 0.26306 0.60728 0.78963 0.0
H2881 H 0.33615 0.52406 0.78985 0.0
H2882 H 0.31651 0.54471 0.79684 0.0
C2883 C 0.25107 0.61878 0.79154 0.0
C2884 C 0.29196 0.59915 0.79117 0.0
H2885 H 0.31142 0.57809 0.76173 0.0
C2886 C 0.30017 0.59315 0.80456 0.0
C2887 C 0.2962 0.59382 0.77553 0.0
C2888 C 0.28822 0.60036 0.7607 0.0
C2889 C 0.31238 0.58174 0.80271 0.0
C2890 C 0.31636 0.57614 0.78708 0.0
C2891 C 0.30828 0.58233 0.7737 0.0
C2892 C 0.32895 0.56397 0.7842 0.0
C2893 C 0.32107 0.57593 0.81744 0.0
C2894 C 0.34247 0.56794 0.77482 0.0
C2895 C 0.35368 0.55619 0.77079 0.0
C2896 C 0.35152 0.54017 0.77597 0.0
C2897 C 0.3382 0.5363 0.78574 0.0
C2898 C 0.32699 0.5481 0.7898 0.0
H2899 H 0.31929 0.58408 0.828 0.0
H2900 H 0.31633 0.56371 0.82053 0.0
H2901 H 0.33422 0.57503 0.81514 0.0
H2902 H 0.34419 0.5801 0.77035 0.0
H2903 H 0.36378 0.55958 0.76323 0.0
H2904 H 0.91826 0.4617 0.4852 0.0
H2905 H 0.89349 0.44627 0.49112 0.0
H2906 H 0.8677 0.49069 0.49658 0.0
H2907 H 0.89241 0.50623 0.49064 0.0
H2908 H 0.85992 0.46734 0.52026 0.0
H2909 H 0.85657 0.44151 0.45817 0.0
H2910 H 0.87519 0.43808 0.46855 0.0
H2911 H 0.86984 0.45834 0.46356 0.0
C2912 C 0.9073 0.46819 0.48762 0.0
C2913 C 0.90727 0.48519 0.48727 0.0
C2914 C 0.89318 0.45935 0.49105 0.0
C2915 C 0.87871 0.46733 0.49406 0.0
C2916 C 0.87874 0.4843 0.49428 0.0
H2917 H 0.7827 0.42862 0.48096 0.0
H2918 H 0.80763 0.44479 0.4816 0.0
C2919 C 0.89288 0.49316 0.4909 0.0
C2920 C 0.8634 0.45799 0.49622 0.0
H2921 H 0.83724 0.43189 0.47669 0.0
C2922 C 0.85494 0.45956 0.51077 0.0
C2923 C 0.85686 0.448 0.48374 0.0
C2924 C 0.86498 0.44645 0.46756 0.0
C2925 C 0.8401 0.45135 0.51316 0.0
C2926 C 0.83369 0.4412 0.50073 0.0
C2927 C 0.84221 0.43962 0.48623 0.0
C2928 C 0.81782 0.43262 0.50201 0.0
C2929 C 0.83119 0.45393 0.52875 0.0
C2930 C 0.81507 0.42062 0.51355 0.0
C2931 C 0.80067 0.41136 0.5133 0.0
C2932 C 0.78893 0.41384 0.50136 0.0
C2933 C 0.79153 0.42629 0.49025 0.0
C2934 C 0.80579 0.43557 0.49058 0.0
H2935 H 0.83584 0.4648 0.53546 0.0
H2936 H 0.81807 0.45525 0.52651 0.0
H2937 H 0.83276 0.44325 0.53649 0.0
H2938 H 0.8243 0.41796 0.52231 0.0
H2939 H 0.79908 0.40178 0.52195 0.0
H2940 H 0.73867 0.86117 0.80598 0.0
H2941 H 0.71691 0.88033 0.80238 0.0
H2942 H 0.75139 0.91634 0.78628 0.0
H2943 H 0.77328 0.89745 0.79017 0.0
H2944 H 0.71341 0.91291 0.81612 0.0
H2945 H 0.71712 0.9116 0.74932 0.0
H2946 H 0.72586 0.89626 0.76166 0.0
H2947 H 0.7359 0.9156 0.7597 0.0
C2948 C 0.74169 0.87323 0.80188 0.0
C2949 C 0.75776 0.87771 0.79827 0.0
C2950 C 0.72921 0.88414 0.79976 0.0
C2951 C 0.73253 0.89967 0.79388 0.0
C2952 C 0.74855 0.90431 0.79058 0.0
H2953 H 0.67499 0.98544 0.78912 0.0
H2954 H 0.69404 0.96465 0.79664 0.0
C2955 C 0.76104 0.89346 0.79275 0.0
C2956 C 0.71923 0.91096 0.79094 0.0
H2957 H 0.70004 0.93104 0.76108 0.0
C2958 C 0.71042 0.91685 0.8041 0.0
C2959 C 0.71525 0.9159 0.77523 0.0
C2960 C 0.72391 0.90944 0.76062 0.0
C2961 C 0.69796 0.92789 0.80195 0.0
C2962 C 0.69431 0.9332 0.78627 0.0
C2963 C 0.7029 0.92701 0.7731 0.0
C2964 C 0.68184 0.94537 0.78316 0.0
C2965 C 0.6887 0.93369 0.81644 0.0
C2966 C 0.66861 0.94144 0.77314 0.0
C2967 C 0.6577 0.95329 0.76881 0.0
C2968 C 0.65991 0.96936 0.77431 0.0
C2969 C 0.6729 0.97317 0.78474 0.0
C2970 C 0.68378 0.96128 0.78911 0.0
H2971 H 0.69017 0.92556 0.82686 0.0
H2972 H 0.69328 0.94593 0.82007 0.0
H2973 H 0.67564 0.93452 0.8136 0.0
H2974 H 0.66693 0.92924 0.76837 0.0
H2975 H 0.64785 0.94996 0.76072 0.0
H2976 H 0.60092 0.53717 0.98581 0.0
H2977 H 0.62482 0.55472 0.9893 0.0
H2978 H 0.65248 0.51379 0.00367 0.0
H2979 H 0.62887 0.49599 0.99941 0.0
H2980 H 0.64252 0.5612 0.01625 0.0
H2981 H 0.68124 0.53339 0.96965 0.0
H2982 H 0.65993 0.52875 0.97109 0.0
H2983 H 0.67397 0.51943 0.98444 0.0
C2984 C 0.61215 0.53181 0.98942 0.0
C2985 C 0.61295 0.51511 0.99222 0.0
C2986 C 0.62578 0.54191 0.99156 0.0
C2987 C 0.64051 0.53555 0.99653 0.0
C2988 C 0.64134 0.51893 0.99951 0.0
H2989 H 0.71806 0.60231 0.03175 0.0
H2990 H 0.69632 0.58172 0.03073 0.0
C2991 C 0.62774 0.5088 0.99728 0.0
C2992 C 0.65486 0.54644 0.99893 0.0
H2993 H 0.6936 0.55325 0.98667 0.0
C2994 C 0.65368 0.55958 0.0097 0.0
C2995 C 0.6694 0.54425 0.99043 0.0
C2996 C 0.67122 0.53078 0.97814 0.0
C2997 C 0.66652 0.57077 0.01206 0.0
C2998 C 0.68121 0.56858 0.0036 0.0
C2999 C 0.68242 0.55515 0.99308 0.0
C3000 C 0.69516 0.58035 0.00465 0.0
C3001 C 0.66382 0.58483 0.02343 0.0
C3002 C 0.70281 0.58555 0.99047 0.0
C3003 C 0.71576 0.59665 0.99115 0.0
C3004 C 0.72082 0.60348 0.0059 0.0
C3005 C 0.71382 0.59777 0.02015 0.0
C3006 C 0.70127 0.58613 0.01955 0.0
H3007 H 0.65088 0.58806 0.0238 0.0
H3008 H 0.66738 0.58134 0.03577 0.0
H3009 H 0.67094 0.59572 0.02011 0.0
H3010 H 0.6987 0.58113 0.97879 0.0
H3011 H 0.72176 0.6 0.9801 0.0
H3012 H 0.27324 0.61752 0.21042 0.0
H3013 H 0.25317 0.59699 0.21805 0.0
H3014 H 0.21556 0.62531 0.19725 0.0
H3015 H 0.23528 0.64639 0.19066 0.0
H3016 H 0.20719 0.61582 0.22581 0.0
H3017 H 0.22965 0.56262 0.19217 0.0
H3018 H 0.24442 0.57156 0.20563 0.0
H3019 H 0.2373 0.58288 0.18879 0.0
C3020 C 0.26069 0.61946 0.20753 0.0
C3021 C 0.25596 0.63371 0.19989 0.0
C3022 C 0.24924 0.60753 0.21167 0.0
C3023 C 0.23285 0.60943 0.20798 0.0
C3024 C 0.22814 0.62349 0.20013 0.0
H3025 H 0.15761 0.53457 0.21277 0.0
H3026 H 0.17759 0.5551 0.2044 0.0
C3027 C 0.23951 0.6355 0.19621 0.0
C3028 C 0.22036 0.59744 0.21325 0.0
H3029 H 0.20866 0.55757 0.21107 0.0
C3030 C 0.20751 0.60309 0.22253 0.0
C3031 C 0.22066 0.58084 0.20885 0.0
C3032 C 0.23366 0.57412 0.19818 0.0
C3033 C 0.19491 0.59271 0.22743 0.0
C3034 C 0.19535 0.57602 0.22347 0.0
C3035 C 0.20828 0.57033 0.21422 0.0
C3036 C 0.18243 0.56431 0.22852 0.0
C3037 C 0.1808 0.59994 0.23601 0.0
C3038 C 0.17833 0.56267 0.24484 0.0
C3039 C 0.16667 0.55119 0.24956 0.0
C3040 C 0.159 0.54101 0.23807 0.0
C3041 C 0.16316 0.54251 0.22179 0.0
C3042 C 0.17463 0.55416 0.21704 0.0
H3043 H 0.18037 0.61326 0.23452 0.0
H3044 H 0.16946 0.59444 0.2312 0.0
H3045 H 0.18161 0.5975 0.24907 0.0
H3046 H 0.18452 0.56989 0.25403 0.0
H3047 H 0.1641 0.54983 0.26225 0.0
H3048 H 0.91775 0.54917 0.02967 0.0
H3049 H 0.89464 0.56596 0.0234 0.0
H3050 H 0.8651 0.52305 0.01499 0.0
H3051 H 0.8881 0.50615 0.02142 0.0
H3052 H 0.87425 0.56557 0.99406 0.0
H3053 H 0.84101 0.55042 0.05015 0.0
H3054 H 0.86239 0.54726 0.04794 0.0
H3055 H 0.84807 0.53364 0.03831 0.0
C3056 C 0.90632 0.5433 0.02654 0.0
C3057 C 0.90473 0.52632 0.02615 0.0
C3058 C 0.89317 0.55291 0.02286 0.0
C3059 C 0.87815 0.54574 0.01887 0.0
C3060 C 0.87657 0.52881 0.01817 0.0
H3061 H 0.79152 0.59274 0.98353 0.0
H3062 H 0.81507 0.57549 0.98611 0.0
C3063 C 0.88975 0.51918 0.02174 0.0
C3064 C 0.86406 0.55603 0.01584 0.0
H3065 H 0.82797 0.56722 0.03172 0.0
C3066 C 0.86409 0.56591 1.00223 0.0
C3067 C 0.85092 0.55652 0.02662 0.0
C3068 C 0.85054 0.54651 0.04166 0.0
C3069 C 0.85123 0.57624 0.9991 0.0
C3070 C 0.83806 0.57666 0.00985 0.0
C3071 C 0.83807 0.5668 0.02346 0.0
C3072 C 0.82437 0.58765 0.00756 0.0
C3073 C 0.85197 0.58692 0.98455 0.0
C3074 C 0.82182 0.60019 0.01874 0.0
C3075 C 0.80846 0.61008 0.01728 0.0
C3076 C 0.79725 0.60751 0.00468 0.0
C3077 C 0.79996 0.59507 0.99333 0.0
C3078 C 0.81342 0.58523 0.99476 0.0
H3079 H 0.86415 0.58721 0.97902 0.0
H3080 H 0.84317 0.58227 0.97539 0.0
H3081 H 0.84862 0.59946 0.98785 0.0
H3082 H 0.83011 0.60223 0.02872 0.0
H3083 H 0.80673 0.61951 0.02625 0.0
H3084 H 0.11645 0.99455 0.05235 0.0
H3085 H 0.13889 0.9762 0.04823 0.0
H3086 H 0.1326 0.9792 0.99685 0.0
H3087 H 0.10992 0.99717 1.00079 0.0
H3088 H 0.13889 0.94526 0.02969 0.0
H3089 H 0.18111 0.99225 0.00593 0.0
H3090 H 0.16344 0.99718 0.01751 0.0
H3091 H 0.16143 0.99125 0.99671 0.0
C3092 C 0.1197 0.99117 0.04017 0.0
C3093 C 0.1114 0.99746 0.0269 0.0
C3094 C 0.13258 0.98075 0.03785 0.0
C3095 C 0.13752 0.97653 0.02224 0.0
C3096 C 0.12915 0.98254 0.00899 0.0
H3097 H 0.21253 0.9213 0.97783 0.0
H3098 H 0.19004 0.93862 0.98455 0.0
C3099 C 0.11622 0.99287 0.01128 0.0
C3100 C 0.15143 0.96584 0.01973 0.0
H3101 H 0.18944 0.9651 0.0041 0.0
C3102 C 0.15 0.94958 0.0242 0.0
C3103 C 0.16587 0.97155 0.01255 0.0
C3104 C 0.16819 0.98904 0.00799 0.0
C3105 C 0.16248 0.93871 0.02121 0.0
C3106 C 0.17691 0.94439 0.01389 0.0
C3107 C 0.17839 0.96074 0.00967 0.0
C3108 C 0.19046 0.93353 0.01002 0.0
C3109 C 0.15986 0.92115 0.02538 0.0
C3110 C 0.1983 0.92496 0.02213 0.0
C3111 C 0.21116 0.91492 0.01831 0.0
C3112 C 0.21657 0.91341 1.00232 0.0
C3113 C 0.20876 0.92216 0.99027 0.0
C3114 C 0.19587 0.93209 0.99409 0.0
H3115 H 0.14685 0.918 0.02684 0.0
H3116 H 0.16493 0.91308 0.01596 0.0
H3117 H 0.16605 0.91873 0.03694 0.0
H3118 H 0.1946 0.92617 0.03456 0.0
H3119 H 0.21695 0.90847 0.02791 0.0
loop_
_geom_bond_atom_site_label_1
_geom_bond_atom_site_label_2
_geom_bond_distance
_geom_bond_site_symmetry_2
_ccdc_geom_bond_type
C0 C1 1.391 . S
C0 C4 1.391 1_556 S
C0 H42 0.948 . S
C1 C0 1.391 . S
C1 C2 1.391 1_556 S
C2 C1 1.391 1_554 S
C2 H58 0.947 . S
C2 C59 1.392 . S
C3 C4 1.391 . S
C3 C7 1.397 . S
C3 C59 1.419 . S
C4 C0 1.391 1_554 S
C4 C3 1.391 . S
C4 C5 1.399 . S
C5 C4 1.399 . S
C5 C8 1.396 . S
C5 C17 1.453 . S
C5 C18 1.684 1_554 S
H6 C30 0.948 . S
C7 C3 1.397 . S
C7 C8 1.394 . S
C7 C26 1.723 . S
C8 C5 1.396 . S
C8 C7 1.394 . S
C8 C38 1.723 . S
H9 C32 0.947 . S
H10 C33 0.948 . S
H11 C39 0.982 . S
H12 C40 0.979 . S
H13 C40 0.980 . S
H14 C40 0.983 . S
H15 C39 0.979 1_565 S
H16 C39 0.977 . S
C17 C5 1.453 . S
C17 H46 0.982 . S
C17 H47 0.979 1_554 S
C17 H48 0.977 . S
C18 C5 1.684 1_556 S
C18 H43 0.979 . S
C18 H44 0.980 . S
C18 H45 0.983 . S
C19 C20 1.391 . S
C19 C24 1.391 1_655 S
C19 H49 0.948 . S
C20 C19 1.391 . S
C20 C21 1.391 1_655 S
C21 C20 1.391 1_455 S
C21 C22 1.392 . S
C21 H50 0.947 . S
C22 C21 1.392 . S
C22 C23 1.419 . S
C22 H51 0.948 . S
C23 C22 1.419 . S
C23 C24 1.391 . S
C23 C27 1.397 . S
C24 C19 1.391 1_455 S
C24 C23 1.391 . S
C24 C25 1.399 . S
C25 C24 1.399 . S
C25 C26 1.396 . S
C25 C28 1.453 . S
C25 C29 1.684 1_455 S
C26 C7 1.723 . S
C26 C25 1.396 . S
C26 C27 1.394 . S
C27 C23 1.397 . S
C27 C26 1.394 . S
C27 C37 1.723 . S
C28 C25 1.453 . S
C28 H52 0.982 . S
C28 H53 0.979 1_455 S
C28 H54 0.977 . S
C29 C25 1.684 1_655 S
C29 H55 0.979 . S
C29 H56 0.980 . S
C29 H57 0.983 . S
C30 H6 0.948 . S
C30 C31 1.391 . S
C30 C35 1.391 1_565 S
C31 C30 1.391 . S
C31 C32 1.391 1_565 S
C32 H9 0.947 . S
C32 C31 1.391 1_545 S
C32 C33 1.392 . S
C33 H10 0.948 . S
C33 C32 1.392 . S
C33 C34 1.419 . S
C34 C33 1.419 . S
C34 C35 1.391 . S
C34 C38 1.397 . S
C35 C30 1.391 1_545 S
C35 C34 1.391 . S
C35 C36 1.399 . S
C36 C35 1.399 . S
C36 C37 1.396 . S
C36 C39 1.453 . S
C36 C40 1.684 1_545 S
C37 C27 1.723 . S
C37 C36 1.396 . S
C37 C38 1.394 . S
C38 C8 1.723 . S
C38 C34 1.397 . S
C38 C37 1.394 . S
C39 H11 0.982 . S
C39 H15 0.979 1_545 S
C39 H16 0.977 . S
C39 C36 1.453 . S
C40 H12 0.979 . S
C40 H13 0.980 . S
C40 H14 0.983 . S
C40 C36 1.684 1_565 S
H41 C59 0.948 . S
H42 C0 0.948 . S
H43 C18 0.979 . S
H44 C18 0.980 . S
H45 C18 0.983 . S
H46 C17 0.982 . S
H47 C17 0.979 1_556 S
H48 C17 0.977 . S
H49 C19 0.948 . S
H50 C21 0.947 . S
H51 C22 0.948 . S
H52 C28 0.982 . S
H53 C28 0.979 1_655 S
H54 C28 0.977 . S
H55 C29 0.979 . S
H56 C29 0.980 . S
H57 C29 0.983 . S
H58 C2 0.947 . S
C59 C2 1.392 . S
C59 C3 1.419 . S
C59 H41 0.948 . S
C60 C61 1.391 . S
C60 C64 1.391 . S
C60 H102 0.948 . S
C61 C60 1.391 . S
C61 C62 1.391 . S
C62 C61 1.391 . S
C62 H118 0.947 . S
C62 C119 1.392 . S
C63 C64 1.391 . S
C63 C67 1.397 . S
C63 C119 1.419 . S
C64 C60 1.391 . S
C64 C63 1.391 . S
C64 C65 1.399 . S
C65 C64 1.399 . S
C65 C68 1.396 . S
C65 C77 1.453 . S
C65 C78 1.684 . S
H66 C90 0.948 . S
C67 C63 1.397 . S
C67 C68 1.394 . S
C67 C86 1.723 . S
C68 C65 1.396 . S
C68 C67 1.394 . S
C68 C98 1.723 . S
H69 C92 0.947 . S
H70 C93 0.948 . S
H71 C99 0.982 . S
H72 C100 0.979 . S
H73 C100 0.980 . S
H74 C100 0.983 . S
H75 C99 0.979 . S
H76 C99 0.977 . S
C77 C65 1.453 . S
C77 H106 0.982 . S
C77 H107 0.979 . S
C77 H108 0.977 . S
C78 C65 1.684 . S
C78 H103 0.979 . S
C78 H104 0.980 . S
C78 H105 0.983 . S
C79 C80 1.391 . S
C79 C84 1.391 . S
C79 H109 0.948 . S
C80 C79 1.391 . S
C80 C81 1.391 . S
C81 C80 1.391 . S
C81 C82 1.392 . S
C81 H110 0.947 . S
C82 C81 1.392 . S
C82 C83 1.419 . S
C82 H111 0.948 . S
C83 C82 1.419 . S
C83 C84 1.391 . S
C83 C87 1.397 . S
C84 C79 1.391 . S
C84 C83 1.391 . S
C84 C85 1.399 . S
C85 C84 1.399 . S
C85 C86 1.396 . S
C85 C88 1.453 . S
C85 C89 1.684 . S
C86 C67 1.723 . S
C86 C85 1.396 . S
C86 C87 1.394 . S
C87 C83 1.397 . S
C87 C86 1.394 . S
C87 C97 1.723 . S
C88 C85 1.453 . S
C88 H112 0.982 . S
C88 H113 0.979 . S
C88 H114 0.977 . S
C89 C85 1.684 . S
C89 H115 0.979 . S
C89 H116 0.980 . S
C89 H117 0.983 . S
C90 H66 0.948 . S
C90 C91 1.391 . S
C90 C95 1.391 . S
C91 C90 1.391 . S
C91 C92 1.391 . S
C92 H69 0.947 . S
C92 C91 1.391 . S
C92 C93 1.392 . S
C93 H70 0.948 . S
C93 C92 1.392 . S
C93 C94 1.419 . S
C94 C93 1.419 . S
C94 C95 1.391 . S
C94 C98 1.397 . S
C95 C90 1.391 . S
C95 C94 1.391 . S
C95 C96 1.399 . S
C96 C95 1.399 . S
C96 C97 1.396 . S
C96 C99 1.453 . S
C96 C100 1.684 . S
C97 C87 1.723 . S
C97 C96 1.396 . S
C97 C98 1.394 . S
C98 C68 1.723 . S
C98 C94 1.397 . S
C98 C97 1.394 . S
C99 H71 0.982 . S
C99 H75 0.979 . S
C99 H76 0.977 . S
C99 C96 1.453 . S
C100 H72 0.979 . S
C100 H73 0.980 . S
C100 H74 0.983 . S
C100 C96 1.684 . S
H101 C119 0.948 . S
H102 C60 0.948 . S
H103 C78 0.979 . S
H104 C78 0.980 . S
H105 C78 0.983 . S
H106 C77 0.982 . S
H107 C77 0.979 . S
H108 C77 0.977 . S
H109 C79 0.948 . S
H110 C81 0.947 . S
H111 C82 0.948 . S
H112 C88 0.982 . S
H113 C88 0.979 . S
H114 C88 0.977 . S
H115 C89 0.979 . S
H116 C89 0.980 . S
H117 C89 0.983 . S
H118 C62 0.947 . S
C119 C62 1.392 . S
C119 C63 1.419 . S
C119 H101 0.948 . S
C120 C121 1.391 1_554 S
C120 C124 1.391 . S
C120 H162 0.948 . S
C121 C120 1.391 1_556 S
C121 C122 1.391 . S
C122 C121 1.391 . S
C122 H178 0.947 . S
C122 C179 1.392 . S
C123 C124 1.391 . S
C123 C127 1.397 . S
C123 C179 1.419 1_554 S
C124 C120 1.391 . S
C124 C123 1.391 . S
C124 C125 1.399 . S
C125 C124 1.399 . S
C125 C128 1.396 . S
C125 C137 1.453 . S
C125 C138 1.684 1_655 S
H126 C150 0.964 . S
C127 C123 1.397 . S
C127 C128 1.394 . S
C127 C146 1.723 . S
C128 C125 1.396 . S
C128 C127 1.394 . S
C128 C158 1.723 . S
H129 C152 0.947 . S
H130 C153 0.948 . S
H131 C159 0.982 . S
H132 C160 0.979 . S
H133 C160 0.980 . S
H134 C160 0.983 . S
H135 C159 0.979 . S
H136 C159 0.977 . S
C137 C125 1.453 . S
C137 H166 0.982 . S
C137 H167 0.979 . S
C137 H168 0.977 . S
C138 C125 1.684 1_455 S
C138 H163 0.979 . S
C138 H164 0.980 . S
C138 H165 0.983 . S
C139 C140 1.391 . S
C139 C144 1.391 . S
C139 H169 0.948 . S
C140 C139 1.391 . S
C140 C141 1.391 . S
C141 C140 1.391 . S
C141 C142 1.392 . S
C141 H170 0.947 . S
C142 C141 1.392 . S
C142 C143 1.419 . S
C142 H171 0.948 . S
C143 C142 1.419 . S
C143 C144 1.391 . S
C143 C147 1.397 . S
C144 C139 1.391 . S
C144 C143 1.391 . S
C144 C145 1.399 . S
C145 C144 1.399 . S
C145 C146 1.396 . S
C145 C148 1.453 . S
C145 C149 1.684 1_554 S
C146 C127 1.723 . S
C146 C145 1.396 . S
C146 C147 1.394 . S
C147 C143 1.397 . S
C147 C146 1.394 . S
C147 C157 1.723 . S
C148 C145 1.453 . S
C148 H172 0.982 . S
C148 H173 0.979 . S
C148 H174 0.977 . S
C149 C145 1.684 1_556 S
C149 H175 0.979 . S
C149 H176 0.980 . S
C149 H177 0.983 . S
C150 H126 0.964 . S
C150 C151 1.344 1_655 S
C150 C155 1.426 . S
C151 C150 1.344 1_455 S
C151 C152 1.391 . S
C152 H129 0.947 . S
C152 C151 1.391 . S
C152 C153 1.392 . S
C153 H130 0.948 . S
C153 C152 1.392 . S
C153 C154 1.419 1_455 S
C154 C153 1.419 1_655 S
C154 C155 1.391 . S
C154 C158 1.397 . S
C155 C150 1.426 . S
C155 C154 1.391 . S
C155 C156 1.399 . S
C156 C155 1.399 . S
C156 C157 1.396 . S
C156 C159 1.453 . S
C156 C160 1.684 . S
C157 C147 1.723 . S
C157 C156 1.396 . S
C157 C158 1.394 . S
C158 C128 1.723 . S
C158 C154 1.397 . S
C158 C157 1.394 . S
C159 H131 0.982 . S
C159 H135 0.979 . S
C159 H136 0.977 . S
C159 C156 1.453 . S
C160 H132 0.979 . S
C160 H133 0.980 . S
C160 H134 0.983 . S
C160 C156 1.684 . S
H161 C179 0.948 . S
H162 C120 0.948 . S
H163 C138 0.979 . S
H164 C138 0.980 . S
H165 C138 0.983 . S
H166 C137 0.982 . S
H167 C137 0.979 . S
H168 C137 0.977 . S
H169 C139 0.948 . S
H170 C141 0.947 . S
H171 C142 0.948 . S
H172 C148 0.982 . S
H173 C148 0.979 . S
H174 C148 0.977 . S
H175 C149 0.979 . S
H176 C149 0.980 . S
H177 C149 0.983 . S
H178 C122 0.947 . S
C179 C122 1.392 . S
C179 C123 1.419 1_556 S
C179 H161 0.948 . S
C180 C181 1.391 . S
C180 C184 1.391 . S
C180 H222 0.948 . S
C181 C180 1.391 . S
C181 C182 1.391 . S
C182 C181 1.391 . S
C182 H238 0.947 . S
C182 C239 1.392 . S
C183 C184 1.391 . S
C183 C187 1.397 . S
C183 C239 1.419 . S
C184 C180 1.391 . S
C184 C183 1.391 . S
C184 C185 1.399 . S
C185 C184 1.399 . S
C185 C188 1.396 . S
C185 C197 1.453 . S
C185 C198 1.684 . S
H186 C210 0.948 . S
C187 C183 1.397 . S
C187 C188 1.394 . S
C187 C206 1.723 . S
C188 C185 1.396 . S
C188 C187 1.394 . S
C188 C218 1.723 . S
H189 C212 0.947 . S
H190 C213 0.948 . S
H191 C219 0.982 . S
H192 C220 0.979 . S
H193 C220 0.980 . S
H194 C220 0.983 . S
H195 C219 0.979 . S
H196 C219 0.977 . S
C197 C185 1.453 . S
C197 H226 0.982 . S
C197 H227 0.979 . S
C197 H228 0.977 . S
C198 C185 1.684 . S
C198 H223 0.979 . S
C198 H224 0.980 . S
C198 H225 0.983 . S
C199 C200 1.391 . S
C199 C204 1.391 . S
C199 H229 0.948 . S
C200 C199 1.391 . S
C200 C201 1.391 . S
C201 C200 1.391 . S
C201 C202 1.392 . S
C201 H230 0.947 . S
C202 C201 1.392 . S
C202 C203 1.419 . S
C202 H231 0.948 . S
C203 C202 1.419 . S
C203 C204 1.391 . S
C203 C207 1.397 . S
C204 C199 1.391 . S
C204 C203 1.391 . S
C204 C205 1.399 . S
C205 C204 1.399 . S
C205 C206 1.396 . S
C205 C208 1.453 . S
C205 C209 1.684 . S
C206 C187 1.723 . S
C206 C205 1.396 . S
C206 C207 1.394 . S
C207 C203 1.397 . S
C207 C206 1.394 . S
C207 C217 1.723 . S
C208 C205 1.453 . S
C208 H232 0.982 . S
C208 H233 0.979 . S
C208 H234 0.977 . S
C209 C205 1.684 . S
C209 H235 0.979 . S
C209 H236 0.980 . S
C209 H237 0.983 . S
C210 H186 0.948 . S
C210 C211 1.391 . S
C210 C215 1.391 . S
C211 C210 1.391 . S
C211 C212 1.391 . S
C212 H189 0.947 . S
C212 C211 1.391 . S
C212 C213 1.392 . S
C213 H190 0.948 . S
C213 C212 1.392 . S
C213 C214 1.419 . S
C214 C213 1.419 . S
C214 C215 1.391 . S
C214 C218 1.397 . S
C215 C210 1.391 . S
C215 C214 1.391 . S
C215 C216 1.399 . S
C216 C215 1.399 . S
C216 C217 1.396 . S
C216 C219 1.453 . S
C216 C220 1.684 . S
C217 C207 1.723 . S
C217 C216 1.396 . S
C217 C218 1.394 . S
C218 C188 1.723 . S
C218 C214 1.397 . S
C218 C217 1.394 . S
C219 H191 0.982 . S
C219 H195 0.979 . S
C219 H196 0.977 . S
C219 C216 1.453 . S
C220 H192 0.979 . S
C220 H193 0.980 . S
C220 H194 0.983 . S
C220 C216 1.684 . S
H221 C239 0.948 . S
H222 C180 0.948 . S
H223 C198 0.979 . S
H224 C198 0.980 . S
H225 C198 0.983 . S
H226 C197 0.982 . S
H227 C197 0.979 . S
H228 C197 0.977 . S
H229 C199 0.948 . S
H230 C201 0.947 . S
H231 C202 0.948 . S
H232 C208 0.982 . S
H233 C208 0.979 . S
H234 C208 0.977 . S
H235 C209 0.979 . S
H236 C209 0.980 . S
H237 C209 0.983 . S
H238 C182 0.947 . S
C239 C182 1.392 . S
C239 C183 1.419 . S
C239 H221 0.948 . S
C240 C241 1.391 . S
C240 C244 1.391 . S
C240 H282 0.948 . S
C241 C240 1.391 . S
C241 C242 1.391 . S
C242 C241 1.391 . S
C242 H298 0.947 . S
C242 C299 1.392 . S
C243 C244 1.391 . S
C243 C247 1.397 . S
C243 C299 1.419 . S
C244 C240 1.391 . S
C244 C243 1.391 . S
C244 C245 1.399 . S
C245 C244 1.399 . S
C245 C248 1.396 . S
C245 C257 1.453 . S
C245 C258 1.684 . S
H246 C270 0.948 . S
C247 C243 1.397 . S
C247 C248 1.394 . S
C247 C266 1.723 . S
C248 C245 1.396 . S
C248 C247 1.394 . S
C248 C278 1.723 . S
H249 C272 0.944 . S
H250 C273 0.948 . S
H251 C279 0.982 . S
H252 C280 0.979 1_565 S
H253 C280 0.980 . S
H254 C280 0.983 . S
H255 C279 0.979 . S
H256 C279 0.977 . S
C257 C245 1.453 . S
C257 H286 0.982 . S
C257 H287 0.979 . S
C257 H288 0.977 . S
C258 C245 1.684 . S
C258 H283 0.979 . S
C258 H284 0.980 . S
C258 H285 0.983 . S
C259 C260 1.391 . S
C259 C264 1.391 1_655 S
C259 H289 0.948 . S
C260 C259 1.391 . S
C260 C261 1.391 1_655 S
C261 C260 1.391 1_455 S
C261 C262 1.392 . S
C261 H290 0.947 1_565 S
C262 C261 1.392 . S
C262 C263 1.419 . S
C262 H291 0.983 . S
C263 C262 1.419 . S
C263 C264 1.391 . S
C263 C267 1.397 . S
C264 C259 1.391 1_455 S
C264 C263 1.391 . S
C264 C265 1.399 . S
C265 C264 1.399 . S
C265 C266 1.396 . S
C265 C268 1.453 1_455 S
C265 C269 1.684 . S
C266 C247 1.723 . S
C266 C265 1.396 . S
C266 C267 1.394 . S
C267 C263 1.397 . S
C267 C266 1.394 . S
C267 C277 1.723 . S
C268 C265 1.453 1_655 S
C268 H292 0.982 . S
C268 H293 0.979 . S
C268 H294 0.977 . S
C269 C265 1.684 . S
C269 H295 0.979 . S
C269 H296 0.980 . S
C269 H297 0.983 1_455 S
C270 H246 0.948 . S
C270 C271 1.391 . S
C270 C275 1.391 . S
C271 C270 1.391 . S
C271 C272 1.381 1_545 S
C272 H249 0.944 . S
C272 C271 1.381 1_565 S
C272 C273 1.400 . S
C273 H250 0.948 . S
C273 C272 1.400 . S
C273 C274 1.419 . S
C274 C273 1.419 . S
C274 C275 1.391 1_565 S
C274 C278 1.397 . S
C275 C270 1.391 . S
C275 C274 1.391 1_545 S
C275 C276 1.400 . S
C276 C275 1.400 . S
C276 C277 1.384 1_545 S
C276 C279 1.468 . S
C276 C280 1.687 . S
C277 C267 1.723 . S
C277 C276 1.384 1_565 S
C277 C278 1.394 . S
C278 C248 1.723 . S
C278 C274 1.397 . S
C278 C277 1.394 . S
C279 H251 0.982 . S
C279 H255 0.979 . S
C279 H256 0.977 . S
C279 C276 1.468 . S
C280 H252 0.979 1_545 S
C280 H253 0.980 . S
C280 H254 0.983 . S
C280 C276 1.687 . S
H281 C299 0.948 . S
H282 C240 0.948 . S
H283 C258 0.979 . S
H284 C258 0.980 . S
H285 C258 0.983 . S
H286 C257 0.982 . S
H287 C257 0.979 . S
H288 C257 0.977 . S
H289 C259 0.948 . S
H290 C261 0.947 1_545 S
H291 C262 0.983 . S
H292 C268 0.982 . S
H293 C268 0.979 . S
H294 C268 0.977 . S
H295 C269 0.979 . S
H296 C269 0.980 . S
H297 C269 0.983 1_655 S
H298 C242 0.947 . S
C299 C242 1.392 . S
C299 C243 1.419 . S
C299 H281 0.948 . S
C300 C301 1.391 . S
C300 C304 1.391 . S
C300 H342 0.948 . S
C301 C300 1.391 . S
C301 C302 1.391 . S
C302 C301 1.391 . S
C302 H358 0.947 . S
C302 C359 1.392 . S
C303 C304 1.391 . S
C303 C307 1.397 . S
C303 C359 1.419 . S
C304 C300 1.391 . S
C304 C303 1.391 . S
C304 C305 1.399 . S
C305 C304 1.399 . S
C305 C308 1.396 . S
C305 C317 1.453 . S
C305 C318 1.684 . S
H306 C330 0.948 . S
C307 C303 1.397 . S
C307 C308 1.394 . S
C307 C326 1.723 . S
C308 C305 1.396 . S
C308 C307 1.394 . S
C308 C338 1.723 . S
H309 C332 0.947 . S
H310 C333 0.948 . S
H311 C339 0.982 . S
H312 C340 0.979 . S
H313 C340 0.980 . S
H314 C340 0.983 . S
H315 C339 0.979 . S
H316 C339 0.977 . S
C317 C305 1.453 . S
C317 H346 0.982 . S
C317 H347 0.979 . S
C317 H348 0.977 . S
C318 C305 1.684 . S
C318 H343 0.979 . S
C318 H344 0.980 . S
C318 H345 0.983 . S
C319 C320 1.391 . S
C319 C324 1.391 . S
C319 H349 0.948 . S
C320 C319 1.391 . S
C320 C321 1.391 . S
C321 C320 1.391 . S
C321 C322 1.392 . S
C321 H350 0.947 . S
C322 C321 1.392 . S
C322 C323 1.419 . S
C322 H351 0.948 . S
C323 C322 1.419 . S
C323 C324 1.391 . S
C323 C327 1.397 . S
C324 C319 1.391 . S
C324 C323 1.391 . S
C324 C325 1.399 . S
C325 C324 1.399 . S
C325 C326 1.396 . S
C325 C328 1.453 . S
C325 C329 1.684 . S
C326 C307 1.723 . S
C326 C325 1.396 . S
C326 C327 1.394 . S
C327 C323 1.397 . S
C327 C326 1.394 . S
C327 C337 1.723 . S
C328 C325 1.453 . S
C328 H352 0.982 . S
C328 H353 0.979 . S
C328 H354 0.977 . S
C329 C325 1.684 . S
C329 H355 0.979 . S
C329 H356 0.980 . S
C329 H357 0.983 . S
C330 H306 0.948 . S
C330 C331 1.391 . S
C330 C335 1.391 . S
C331 C330 1.391 . S
C331 C332 1.391 . S
C332 H309 0.947 . S
C332 C331 1.391 . S
C332 C333 1.392 . S
C333 H310 0.948 . S
C333 C332 1.392 . S
C333 C334 1.419 . S
C334 C333 1.419 . S
C334 C335 1.391 . S
C334 C338 1.397 . S
C335 C330 1.391 . S
C335 C334 1.391 . S
C335 C336 1.399 . S
C336 C335 1.399 . S
C336 C337 1.396 . S
C336 C339 1.453 . S
C336 C340 1.684 . S
C337 C327 1.723 . S
C337 C336 1.396 . S
C337 C338 1.394 . S
C338 C308 1.723 . S
C338 C334 1.397 . S
C338 C337 1.394 . S
C339 H311 0.982 . S
C339 H315 0.979 . S
C339 H316 0.977 . S
C339 C336 1.453 . S
C340 H312 0.979 . S
C340 H313 0.980 . S
C340 H314 0.983 . S
C340 C336 1.684 . S
H341 C359 0.948 . S
H342 C300 0.948 . S
H343 C318 0.979 . S
H344 C318 0.980 . S
H345 C318 0.983 . S
H346 C317 0.982 . S
H347 C317 0.979 . S
H348 C317 0.977 . S
H349 C319 0.948 . S
H350 C321 0.947 . S
H351 C322 0.948 . S
H352 C328 0.982 . S
H353 C328 0.979 . S
H354 C328 0.977 . S
H355 C329 0.979 . S
H356 C329 0.980 . S
H357 C329 0.983 . S
H358 C302 0.947 . S
C359 C302 1.392 . S
C359 C303 1.419 . S
C359 H341 0.948 . S
C360 C361 1.391 . S
C360 C364 1.391 . S
C360 H402 0.948 . S
C361 C360 1.391 . S
C361 C362 1.391 . S
C362 C361 1.391 . S
C362 H418 0.947 . S
C362 C419 1.392 . S
C363 C364 1.391 . S
C363 C367 1.397 . S
C363 C419 1.419 . S
C364 C360 1.391 . S
C364 C363 1.391 . S
C364 C365 1.399 . S
C365 C364 1.399 . S
C365 C368 1.396 . S
C365 C377 1.453 . S
C365 C378 1.684 . S
H366 C390 1.007 . S
C367 C363 1.397 . S
C367 C368 1.394 . S
C367 C386 1.723 . S
C368 C365 1.396 . S
C368 C367 1.394 . S
C368 C398 1.723 . S
H369 C392 0.947 . S
H370 C393 0.948 . S
H371 C399 0.982 . S
H372 C400 0.979 . S
H373 C400 0.980 . S
H374 C400 0.983 . S
H375 C399 0.979 1_455 S
H376 C399 0.957 1_455 S
C377 C365 1.453 . S
C377 H406 0.982 . S
C377 H407 0.979 . S
C377 H408 0.977 . S
C378 C365 1.684 . S
C378 H403 0.979 . S
C378 H404 0.980 . S
C378 H405 0.983 . S
C379 C380 1.391 . S
C379 C384 1.391 1_455 S
C379 H409 0.937 1_455 S
C380 C379 1.391 . S
C380 C381 1.391 . S
C381 C380 1.391 . S
C381 C382 1.392 . S
C381 H410 0.947 . S
C382 C381 1.392 . S
C382 C383 1.419 1_455 S
C382 H411 0.948 . S
C383 C382 1.419 1_655 S
C383 C384 1.391 . S
C383 C387 1.397 . S
C384 C379 1.391 1_655 S
C384 C383 1.391 . S
C384 C385 1.399 . S
C385 C384 1.399 . S
C385 C386 1.396 . S
C385 C388 1.453 . S
C385 C389 1.684 . S
C386 C367 1.723 . S
C386 C385 1.396 . S
C386 C387 1.394 . S
C387 C383 1.397 . S
C387 C386 1.394 . S
C387 C397 1.723 . S
C388 C385 1.453 . S
C388 H412 0.982 . S
C388 H413 0.979 . S
C388 H414 0.977 . S
C389 C385 1.684 . S
C389 H415 0.979 . S
C389 H416 0.980 . S
C389 H417 0.983 . S
C390 H366 1.007 . S
C390 C391 1.391 . S
C390 C395 1.391 . S
C391 C390 1.391 . S
C391 C392 1.391 . S
C392 H369 0.947 . S
C392 C391 1.391 . S
C392 C393 1.392 . S
C393 H370 0.948 . S
C393 C392 1.392 . S
C393 C394 1.419 . S
C394 C393 1.419 . S
C394 C395 1.391 . S
C394 C398 1.397 . S
C395 C390 1.391 . S
C395 C394 1.391 . S
C395 C396 1.399 . S
C396 C395 1.399 . S
C396 C397 1.396 . S
C396 C399 1.453 . S
C396 C400 1.684 1_655 S
C397 C387 1.723 . S
C397 C396 1.396 . S
C397 C398 1.394 . S
C398 C368 1.723 . S
C398 C394 1.397 . S
C398 C397 1.394 . S
C399 H371 0.982 . S
C399 H375 0.979 1_655 S
C399 H376 0.957 1_655 S
C399 C396 1.453 . S
C400 H372 0.979 . S
C400 H373 0.980 . S
C400 H374 0.983 . S
C400 C396 1.684 1_455 S
H401 C419 0.948 . S
H402 C360 0.948 . S
H403 C378 0.979 . S
H404 C378 0.980 . S
H405 C378 0.983 . S
H406 C377 0.982 . S
H407 C377 0.979 . S
H408 C377 0.977 . S
H409 C379 0.937 1_655 S
H410 C381 0.947 . S
H411 C382 0.948 . S
H412 C388 0.982 . S
H413 C388 0.979 . S
H414 C388 0.977 . S
H415 C389 0.979 . S
H416 C389 0.980 . S
H417 C389 0.983 . S
H418 C362 0.947 . S
C419 C362 1.392 . S
C419 C363 1.419 . S
C419 H401 0.948 . S
C420 C421 1.391 . S
C420 C424 1.391 . S
C420 H462 0.948 . S
C421 C420 1.391 . S
C421 C422 1.391 . S
C422 C421 1.391 . S
C422 H478 0.947 . S
C422 C479 1.392 . S
C423 C424 1.391 . S
C423 C427 1.397 . S
C423 C479 1.419 . S
C424 C420 1.391 . S
C424 C423 1.391 . S
C424 C425 1.399 . S
C425 C424 1.399 . S
C425 C428 1.396 . S
C425 C437 1.453 . S
C425 C438 1.684 . S
H426 C450 0.948 . S
C427 C423 1.397 . S
C427 C428 1.394 . S
C427 C446 1.723 . S
C428 C425 1.396 . S
C428 C427 1.394 . S
C428 C458 1.723 . S
H429 C452 0.947 . S
H430 C453 0.948 . S
H431 C459 0.982 . S
H432 C460 0.979 . S
H433 C460 0.980 . S
H434 C460 0.983 . S
H435 C459 0.979 . S
H436 C459 0.977 . S
C437 C425 1.453 . S
C437 H466 0.982 . S
C437 H467 0.979 . S
C437 H468 0.977 . S
C438 C425 1.684 . S
C438 H463 0.979 . S
C438 H464 0.980 . S
C438 H465 0.983 . S
C439 C440 1.391 . S
C439 C444 1.391 . S
C439 H469 0.948 . S
C440 C439 1.391 . S
C440 C441 1.391 . S
C441 C440 1.391 . S
C441 C442 1.392 . S
C441 H470 0.947 . S
C442 C441 1.392 . S
C442 C443 1.419 . S
C442 H471 0.948 . S
C443 C442 1.419 . S
C443 C444 1.391 . S
C443 C447 1.397 . S
C444 C439 1.391 . S
C444 C443 1.391 . S
C444 C445 1.399 . S
C445 C444 1.399 . S
C445 C446 1.396 . S
C445 C448 1.453 . S
C445 C449 1.684 . S
C446 C427 1.723 . S
C446 C445 1.396 . S
C446 C447 1.394 . S
C447 C443 1.397 . S
C447 C446 1.394 . S
C447 C457 1.723 . S
C448 C445 1.453 . S
C448 H472 0.982 . S
C448 H473 0.979 . S
C448 H474 0.977 . S
C449 C445 1.684 . S
C449 H475 0.979 . S
C449 H476 0.980 . S
C449 H477 0.983 . S
C450 H426 0.948 . S
C450 C451 1.391 . S
C450 C455 1.391 . S
C451 C450 1.391 . S
C451 C452 1.391 . S
C452 H429 0.947 . S
C452 C451 1.391 . S
C452 C453 1.392 . S
C453 H430 0.948 . S
C453 C452 1.392 . S
C453 C454 1.419 . S
C454 C453 1.419 . S
C454 C455 1.391 . S
C454 C458 1.397 . S
C455 C450 1.391 . S
C455 C454 1.391 . S
C455 C456 1.399 . S
C456 C455 1.399 . S
C456 C457 1.396 . S
C456 C459 1.453 . S
C456 C460 1.684 . S
C457 C447 1.723 . S
C457 C456 1.396 . S
C457 C458 1.394 . S
C458 C428 1.723 . S
C458 C454 1.397 . S
C458 C457 1.394 . S
C459 H431 0.982 . S
C459 H435 0.979 . S
C459 H436 0.977 . S
C459 C456 1.453 . S
C460 H432 0.979 . S
C460 H433 0.980 . S
C460 H434 0.983 . S
C460 C456 1.684 . S
H461 C479 0.948 . S
H462 C420 0.948 . S
H463 C438 0.979 . S
H464 C438 0.980 . S
H465 C438 0.983 . S
H466 C437 0.982 . S
H467 C437 0.979 . S
H468 C437 0.977 . S
H469 C439 0.948 . S
H470 C441 0.947 . S
H471 C442 0.948 . S
H472 C448 0.982 . S
H473 C448 0.979 . S
H474 C448 0.977 . S
H475 C449 0.979 . S
H476 C449 0.980 . S
H477 C449 0.983 . S
H478 C422 0.947 . S
C479 C422 1.392 . S
C479 C423 1.419 . S
C479 H461 0.948 . S
C480 C481 1.391 . S
C480 C484 1.391 . S
C480 H522 0.948 . S
C481 C480 1.391 . S
C481 C482 1.391 . S
C482 C481 1.391 . S
C482 H538 0.947 . S
C482 C539 1.392 . S
C483 C484 1.391 . S
C483 C487 1.397 . S
C483 C539 1.419 . S
C484 C480 1.391 . S
C484 C483 1.391 . S
C484 C485 1.399 . S
C485 C484 1.399 . S
C485 C488 1.396 . S
C485 C497 1.453 . S
C485 C498 1.684 . S
H486 C510 0.948 . S
C487 C483 1.397 . S
C487 C488 1.394 . S
C487 C506 1.723 . S
C488 C485 1.396 . S
C488 C487 1.394 . S
C488 C518 1.723 . S
H489 C512 0.947 . S
H490 C513 0.948 . S
H491 C519 0.982 . S
H492 C520 0.979 . S
H493 C520 0.980 . S
H494 C520 0.983 . S
H495 C519 0.979 . S
H496 C519 0.977 . S
C497 C485 1.453 . S
C497 H526 0.982 . S
C497 H527 0.979 . S
C497 H528 0.977 . S
C498 C485 1.684 . S
C498 H523 0.979 . S
C498 H524 0.980 . S
C498 H525 0.983 . S
C499 C500 1.391 . S
C499 C504 1.391 . S
C499 H529 0.948 . S
C500 C499 1.391 . S
C500 C501 1.391 . S
C501 C500 1.391 . S
C501 C502 1.392 . S
C501 H530 0.947 . S
C502 C501 1.392 . S
C502 C503 1.419 . S
C502 H531 0.948 . S
C503 C502 1.419 . S
C503 C504 1.391 . S
C503 C507 1.397 . S
C504 C499 1.391 . S
C504 C503 1.391 . S
C504 C505 1.399 . S
C505 C504 1.399 . S
C505 C506 1.396 . S
C505 C508 1.453 . S
C505 C509 1.684 . S
C506 C487 1.723 . S
C506 C505 1.396 . S
C506 C507 1.394 . S
C507 C503 1.397 . S
C507 C506 1.394 . S
C507 C517 1.723 . S
C508 C505 1.453 . S
C508 H532 0.982 . S
C508 H533 0.979 . S
C508 H534 0.977 . S
C509 C505 1.684 . S
C509 H535 0.979 . S
C509 H536 0.980 . S
C509 H537 0.983 . S
C510 H486 0.948 . S
C510 C511 1.391 . S
C510 C515 1.391 . S
C511 C510 1.391 . S
C511 C512 1.391 . S
C512 H489 0.947 . S
C512 C511 1.391 . S
C512 C513 1.392 . S
C513 H490 0.948 . S
C513 C512 1.392 . S
C513 C514 1.419 . S
C514 C513 1.419 . S
C514 C515 1.391 . S
C514 C518 1.397 . S
C515 C510 1.391 . S
C515 C514 1.391 . S
C515 C516 1.399 . S
C516 C515 1.399 . S
C516 C517 1.396 . S
C516 C519 1.453 . S
C516 C520 1.684 . S
C517 C507 1.723 . S
C517 C516 1.396 . S
C517 C518 1.394 . S
C518 C488 1.723 . S
C518 C514 1.397 . S
C518 C517 1.394 . S
C519 H491 0.982 . S
C519 H495 0.979 . S
C519 H496 0.977 . S
C519 C516 1.453 . S
C520 H492 0.979 . S
C520 H493 0.980 . S
C520 H494 0.983 . S
C520 C516 1.684 . S
H521 C539 0.948 . S
H522 C480 0.948 . S
H523 C498 0.979 . S
H524 C498 0.980 . S
H525 C498 0.983 . S
H526 C497 0.982 . S
H527 C497 0.979 . S
H528 C497 0.977 . S
H529 C499 0.948 . S
H530 C501 0.947 . S
H531 C502 0.948 . S
H532 C508 0.982 . S
H533 C508 0.979 . S
H534 C508 0.977 . S
H535 C509 0.979 . S
H536 C509 0.980 . S
H537 C509 0.983 . S
H538 C482 0.947 . S
C539 C482 1.392 . S
C539 C483 1.419 . S
C539 H521 0.948 . S
C540 C541 1.391 . S
C540 C544 1.391 . S
C540 H582 0.948 . S
C541 C540 1.391 . S
C541 C542 1.391 . S
C542 C541 1.391 . S
C542 H598 0.947 . S
C542 C599 1.392 . S
C543 C544 1.391 . S
C543 C547 1.397 . S
C543 C599 1.419 . S
C544 C540 1.391 . S
C544 C543 1.391 . S
C544 C545 1.399 . S
C545 C544 1.399 . S
C545 C548 1.396 . S
C545 C557 1.453 . S
C545 C558 1.684 . S
H546 C570 0.948 . S
C547 C543 1.397 . S
C547 C548 1.394 . S
C547 C566 1.723 . S
C548 C545 1.396 . S
C548 C547 1.394 . S
C548 C578 1.723 . S
H549 C572 0.947 . S
H550 C573 0.948 . S
H551 C579 0.982 . S
H552 C580 0.979 . S
H553 C580 0.980 . S
H554 C580 0.983 . S
H555 C579 0.985 . S
H556 C579 0.977 . S
C557 C545 1.453 . S
C557 H586 0.982 . S
C557 H587 0.979 . S
C557 H588 0.977 . S
C558 C545 1.684 . S
C558 H583 0.979 . S
C558 H584 0.980 . S
C558 H585 0.983 . S
C559 C560 1.412 . S
C559 C564 1.375 1_545 S
C559 H589 0.944 1_545 S
C560 C559 1.412 . S
C560 C561 1.391 . S
C561 C560 1.391 . S
C561 C562 1.392 . S
C561 H590 0.947 . S
C562 C561 1.392 . S
C562 C563 1.419 1_545 S
C562 H591 0.948 . S
C563 C562 1.419 1_565 S
C563 C564 1.391 . S
C563 C567 1.397 . S
C564 C559 1.375 1_565 S
C564 C563 1.391 . S
C564 C565 1.399 . S
C565 C564 1.399 . S
C565 C566 1.396 . S
C565 C568 1.453 . S
C565 C569 1.684 . S
C566 C547 1.723 . S
C566 C565 1.396 . S
C566 C567 1.394 . S
C567 C563 1.397 . S
C567 C566 1.394 . S
C567 C577 1.723 . S
C568 C565 1.453 . S
C568 H592 0.982 . S
C568 H593 0.979 . S
C568 H594 0.977 . S
C569 C565 1.684 . S
C569 H595 0.979 . S
C569 H596 0.980 . S
C569 H597 0.983 . S
C570 H546 0.948 . S
C570 C571 1.391 . S
C570 C575 1.391 . S
C571 C570 1.391 . S
C571 C572 1.391 . S
C572 H549 0.947 . S
C572 C571 1.391 . S
C572 C573 1.392 . S
C573 H550 0.948 . S
C573 C572 1.392 . S
C573 C574 1.419 . S
C574 C573 1.419 . S
C574 C575 1.391 . S
C574 C578 1.397 . S
C575 C570 1.391 . S
C575 C574 1.391 . S
C575 C576 1.399 . S
C576 C575 1.399 . S
C576 C577 1.396 . S
C576 C579 1.453 . S
C576 C580 1.684 1_565 S
C577 C567 1.723 . S
C577 C576 1.396 . S
C577 C578 1.394 . S
C578 C548 1.723 . S
C578 C574 1.397 . S
C578 C577 1.394 . S
C579 H551 0.982 . S
C579 H555 0.985 . S
C579 H556 0.977 . S
C579 C576 1.453 . S
C580 H552 0.979 . S
C580 H553 0.980 . S
C580 H554 0.983 . S
C580 C576 1.684 1_545 S
H581 C599 0.948 . S
H582 C540 0.948 . S
H583 C558 0.979 . S
H584 C558 0.980 . S
H585 C558 0.983 . S
H586 C557 0.982 . S
H587 C557 0.979 . S
H588 C557 0.977 . S
H589 C559 0.944 1_565 S
H590 C561 0.947 . S
H591 C562 0.948 . S
H592 C568 0.982 . S
H593 C568 0.979 . S
H594 C568 0.977 . S
H595 C569 0.979 . S
H596 C569 0.980 . S
H597 C569 0.983 . S
H598 C542 0.947 . S
C599 C542 1.392 . S
C599 C543 1.419 . S
C599 H581 0.948 . S
C600 C601 1.391 . S
C600 C604 1.391 . S
C600 H642 0.948 . S
C601 C600 1.391 . S
C601 C602 1.391 . S
C602 C601 1.391 . S
C602 H658 0.947 . S
C602 C659 1.392 . S
C603 C604 1.391 . S
C603 C607 1.397 . S
C603 C659 1.419 . S
C604 C600 1.391 . S
C604 C603 1.391 . S
C604 C605 1.399 . S
C605 C604 1.399 . S
C605 C608 1.396 . S
C605 C617 1.453 . S
C605 C618 1.684 . S
H606 C630 0.948 . S
C607 C603 1.397 . S
C607 C608 1.394 . S
C607 C626 1.723 . S
C608 C605 1.396 . S
C608 C607 1.394 . S
C608 C638 1.723 . S
H609 C632 0.947 . S
H610 C633 0.948 . S
H611 C639 0.982 . S
H612 C640 0.979 . S
H613 C640 0.980 . S
H614 C640 0.983 . S
H615 C639 0.979 . S
H616 C639 0.977 . S
C617 C605 1.453 . S
C617 H646 0.982 . S
C617 H647 0.979 . S
C617 H648 0.977 . S
C618 C605 1.684 . S
C618 H643 0.979 . S
C618 H644 0.980 . S
C618 H645 0.983 . S
C619 C620 1.391 . S
C619 C624 1.391 . S
C619 H649 0.948 . S
C620 C619 1.391 . S
C620 C621 1.391 . S
C621 C620 1.391 . S
C621 C622 1.392 . S
C621 H650 0.947 . S
C622 C621 1.392 . S
C622 C623 1.419 . S
C622 H651 0.948 . S
C623 C622 1.419 . S
C623 C624 1.391 . S
C623 C627 1.397 . S
C624 C619 1.391 . S
C624 C623 1.391 . S
C624 C625 1.399 . S
C625 C624 1.399 . S
C625 C626 1.396 . S
C625 C628 1.453 . S
C625 C629 1.684 . S
C626 C607 1.723 . S
C626 C625 1.396 . S
C626 C627 1.394 . S
C627 C623 1.397 . S
C627 C626 1.394 . S
C627 C637 1.723 . S
C628 C625 1.453 . S
C628 H652 0.982 . S
C628 H653 0.979 . S
C628 H654 0.977 . S
C629 C625 1.684 . S
C629 H655 0.979 . S
C629 H656 0.980 . S
C629 H657 0.983 . S
C630 H606 0.948 . S
C630 C631 1.391 . S
C630 C635 1.391 . S
C631 C630 1.391 . S
C631 C632 1.391 . S
C632 H609 0.947 . S
C632 C631 1.391 . S
C632 C633 1.392 . S
C633 H610 0.948 . S
C633 C632 1.392 . S
C633 C634 1.419 . S
C634 C633 1.419 . S
C634 C635 1.391 . S
C634 C638 1.397 . S
C635 C630 1.391 . S
C635 C634 1.391 . S
C635 C636 1.399 . S
C636 C635 1.399 . S
C636 C637 1.396 . S
C636 C639 1.453 . S
C636 C640 1.684 . S
C637 C627 1.723 . S
C637 C636 1.396 . S
C637 C638 1.394 . S
C638 C608 1.723 . S
C638 C634 1.397 . S
C638 C637 1.394 . S
C639 H611 0.982 . S
C639 H615 0.979 . S
C639 H616 0.977 . S
C639 C636 1.453 . S
C640 H612 0.979 . S
C640 H613 0.980 . S
C640 H614 0.983 . S
C640 C636 1.684 . S
H641 C659 0.948 . S
H642 C600 0.948 . S
H643 C618 0.979 . S
H644 C618 0.980 . S
H645 C618 0.983 . S
H646 C617 0.982 . S
H647 C617 0.979 . S
H648 C617 0.977 . S
H649 C619 0.948 . S
H650 C621 0.947 . S
H651 C622 0.948 . S
H652 C628 0.982 . S
H653 C628 0.979 . S
H654 C628 0.977 . S
H655 C629 0.979 . S
H656 C629 0.980 . S
H657 C629 0.983 . S
H658 C602 0.947 . S
C659 C602 1.392 . S
C659 C603 1.419 . S
C659 H641 0.948 . S
C660 C661 1.391 . S
C660 C664 1.391 . S
C660 H702 0.948 . S
C661 C660 1.391 . S
C661 C662 1.391 . S
C662 C661 1.391 . S
C662 H718 0.947 . S
C662 C719 1.392 . S
C663 C664 1.391 . S
C663 C667 1.397 . S
C663 C719 1.419 . S
C664 C660 1.391 . S
C664 C663 1.391 . S
C664 C665 1.399 . S
C665 C664 1.399 . S
C665 C668 1.396 . S
C665 C677 1.453 . S
C665 C678 1.684 . S
H666 C690 0.948 . S
C667 C663 1.397 . S
C667 C668 1.394 . S
C667 C686 1.723 . S
C668 C665 1.396 . S
C668 C667 1.394 . S
C668 C698 1.723 . S
H669 C692 0.947 . S
H670 C693 0.948 . S
H671 C699 0.982 . S
H672 C700 0.979 . S
H673 C700 0.980 . S
H674 C700 0.983 . S
H675 C699 0.979 . S
H676 C699 0.977 . S
C677 C665 1.453 . S
C677 H706 0.982 . S
C677 H707 0.979 . S
C677 H708 0.977 . S
C678 C665 1.684 . S
C678 H703 0.979 . S
C678 H704 0.980 . S
C678 H705 0.983 . S
C679 C680 1.391 . S
C679 C684 1.391 . S
C679 H709 0.948 . S
C680 C679 1.391 . S
C680 C681 1.391 . S
C681 C680 1.391 . S
C681 C682 1.392 . S
C681 H710 0.947 . S
C682 C681 1.392 . S
C682 C683 1.419 . S
C682 H711 0.948 . S
C683 C682 1.419 . S
C683 C684 1.391 . S
C683 C687 1.397 . S
C684 C679 1.391 . S
C684 C683 1.391 . S
C684 C685 1.399 . S
C685 C684 1.399 . S
C685 C686 1.396 . S
C685 C688 1.453 . S
C685 C689 1.684 . S
C686 C667 1.723 . S
C686 C685 1.396 . S
C686 C687 1.394 . S
C687 C683 1.397 . S
C687 C686 1.394 . S
C687 C697 1.723 . S
C688 C685 1.453 . S
C688 H712 0.982 . S
C688 H713 0.979 . S
C688 H714 0.977 . S
C689 C685 1.684 . S
C689 H715 0.979 . S
C689 H716 0.980 . S
C689 H717 0.983 . S
C690 H666 0.948 . S
C690 C691 1.391 . S
C690 C695 1.391 . S
C691 C690 1.391 . S
C691 C692 1.391 . S
C692 H669 0.947 . S
C692 C691 1.391 . S
C692 C693 1.392 . S
C693 H670 0.948 . S
C693 C692 1.392 . S
C693 C694 1.419 . S
C694 C693 1.419 . S
C694 C695 1.391 . S
C694 C698 1.397 . S
C695 C690 1.391 . S
C695 C694 1.391 . S
C695 C696 1.399 . S
C696 C695 1.399 . S
C696 C697 1.396 . S
C696 C699 1.453 . S
C696 C700 1.684 . S
C697 C687 1.723 . S
C697 C696 1.396 . S
C697 C698 1.394 . S
C698 C668 1.723 . S
C698 C694 1.397 . S
C698 C697 1.394 . S
C699 H671 0.982 . S
C699 H675 0.979 . S
C699 H676 0.977 . S
C699 C696 1.453 . S
C700 H672 0.979 . S
C700 H673 0.980 . S
C700 H674 0.983 . S
C700 C696 1.684 . S
H701 C719 0.948 . S
H702 C660 0.948 . S
H703 C678 0.979 . S
H704 C678 0.980 . S
H705 C678 0.983 . S
H706 C677 0.982 . S
H707 C677 0.979 . S
H708 C677 0.977 . S
H709 C679 0.948 . S
H710 C681 0.947 . S
H711 C682 0.948 . S
H712 C688 0.982 . S
H713 C688 0.979 . S
H714 C688 0.977 . S
H715 C689 0.979 . S
H716 C689 0.980 . S
H717 C689 0.983 . S
H718 C662 0.947 . S
C719 C662 1.392 . S
C719 C663 1.419 . S
C719 H701 0.948 . S
C720 C721 1.391 . S
C720 C724 1.391 . S
C720 H762 0.948 . S
C721 C720 1.391 . S
C721 C722 1.391 . S
C722 C721 1.391 . S
C722 H778 0.947 . S
C722 C779 1.392 . S
C723 C724 1.391 . S
C723 C727 1.397 . S
C723 C779 1.419 . S
C724 C720 1.391 . S
C724 C723 1.391 . S
C724 C725 1.399 . S
C725 C724 1.399 . S
C725 C728 1.396 . S
C725 C737 1.453 . S
C725 C738 1.684 . S
H726 C750 0.948 . S
C727 C723 1.397 . S
C727 C728 1.394 . S
C727 C746 1.723 . S
C728 C725 1.396 . S
C728 C727 1.394 . S
C728 C758 1.723 . S
H729 C752 0.947 . S
H730 C753 0.948 . S
H731 C759 0.982 . S
H732 C760 0.979 . S
H733 C760 0.980 . S
H734 C760 0.983 . S
H735 C759 0.979 . S
H736 C759 0.977 . S
C737 C725 1.453 . S
C737 H766 0.982 . S
C737 H767 0.979 . S
C737 H768 0.977 . S
C738 C725 1.684 . S
C738 H763 0.979 . S
C738 H764 0.980 . S
C738 H765 0.983 . S
C739 C740 1.391 . S
C739 C744 1.391 . S
C739 H769 0.948 . S
C740 C739 1.391 . S
C740 C741 1.391 . S
C741 C740 1.391 . S
C741 C742 1.392 . S
C741 H770 0.947 . S
C742 C741 1.392 . S
C742 C743 1.419 . S
C742 H771 0.948 . S
C743 C742 1.419 . S
C743 C744 1.391 . S
C743 C747 1.397 . S
C744 C739 1.391 . S
C744 C743 1.391 . S
C744 C745 1.399 . S
C745 C744 1.399 . S
C745 C746 1.396 . S
C745 C748 1.453 . S
C745 C749 1.684 . S
C746 C727 1.723 . S
C746 C745 1.396 . S
C746 C747 1.394 . S
C747 C743 1.397 . S
C747 C746 1.394 . S
C747 C757 1.723 . S
C748 C745 1.453 . S
C748 H772 0.982 . S
C748 H773 0.979 . S
C748 H774 0.977 . S
C749 C745 1.684 . S
C749 H775 0.979 . S
C749 H776 0.980 . S
C749 H777 0.983 . S
C750 H726 0.948 . S
C750 C751 1.391 . S
C750 C755 1.391 . S
C751 C750 1.391 . S
C751 C752 1.391 . S
C752 H729 0.947 . S
C752 C751 1.391 . S
C752 C753 1.392 . S
C753 H730 0.948 . S
C753 C752 1.392 . S
C753 C754 1.419 . S
C754 C753 1.419 . S
C754 C755 1.391 . S
C754 C758 1.397 . S
C755 C750 1.391 . S
C755 C754 1.391 . S
C755 C756 1.399 . S
C756 C755 1.399 . S
C756 C757 1.396 . S
C756 C759 1.453 . S
C756 C760 1.684 . S
C757 C747 1.723 . S
C757 C756 1.396 . S
C757 C758 1.394 . S
C758 C728 1.723 . S
C758 C754 1.397 . S
C758 C757 1.394 . S
C759 H731 0.982 . S
C759 H735 0.979 . S
C759 H736 0.977 . S
C759 C756 1.453 . S
C760 H732 0.979 . S
C760 H733 0.980 . S
C760 H734 0.983 . S
C760 C756 1.684 . S
H761 C779 0.948 . S
H762 C720 0.948 . S
H763 C738 0.979 . S
H764 C738 0.980 . S
H765 C738 0.983 . S
H766 C737 0.982 . S
H767 C737 0.979 . S
H768 C737 0.977 . S
H769 C739 0.948 . S
H770 C741 0.947 . S
H771 C742 0.948 . S
H772 C748 0.982 . S
H773 C748 0.979 . S
H774 C748 0.977 . S
H775 C749 0.979 . S
H776 C749 0.980 . S
H777 C749 0.983 . S
H778 C722 0.947 . S
C779 C722 1.392 . S
C779 C723 1.419 . S
C779 H761 0.948 . S
C780 C781 1.391 . S
C780 C784 1.391 1_554 S
C780 H822 0.948 . S
C781 C780 1.391 . S
C781 C782 1.391 1_554 S
C782 C781 1.391 1_556 S
C782 H838 0.947 . S
C782 C839 1.392 . S
C783 C784 1.391 . S
C783 C787 1.397 . S
C783 C839 1.419 . S
C784 C780 1.391 1_556 S
C784 C783 1.391 . S
C784 C785 1.399 . S
C785 C784 1.399 . S
C785 C788 1.396 . S
C785 C797 1.453 1_556 S
C785 C798 1.684 . S
H786 C810 0.948 . S
C787 C783 1.397 . S
C787 C788 1.394 . S
C787 C806 1.723 . S
C788 C785 1.396 . S
C788 C787 1.394 . S
C788 C818 1.723 . S
H789 C812 0.947 . S
H790 C813 0.948 . S
H791 C819 0.982 . S
H792 C820 0.979 . S
H793 C820 0.980 . S
H794 C820 0.983 . S
H795 C819 0.979 . S
H796 C819 0.977 . S
C797 C785 1.453 1_554 S
C797 H826 0.982 . S
C797 H827 0.979 . S
C797 H828 0.977 . S
C798 C785 1.684 . S
C798 H823 0.979 . S
C798 H824 0.980 . S
C798 H825 0.983 1_556 S
C799 C800 1.391 . S
C799 C804 1.391 . S
C799 H829 0.948 . S
C800 C799 1.391 . S
C800 C801 1.391 . S
C801 C800 1.391 . S
C801 C802 1.392 . S
C801 H830 0.947 . S
C802 C801 1.392 . S
C802 C803 1.419 . S
C802 H831 0.948 . S
C803 C802 1.419 . S
C803 C804 1.391 . S
C803 C807 1.397 . S
C804 C799 1.391 . S
C804 C803 1.391 . S
C804 C805 1.399 . S
C805 C804 1.399 . S
C805 C806 1.396 . S
C805 C808 1.453 . S
C805 C809 1.684 . S
C806 C787 1.723 . S
C806 C805 1.396 . S
C806 C807 1.394 . S
C807 C803 1.397 . S
C807 C806 1.394 . S
C807 C817 1.723 . S
C808 C805 1.453 . S
C808 H832 0.982 . S
C808 H833 0.979 . S
C808 H834 0.977 . S
C809 C805 1.684 . S
C809 H835 0.979 . S
C809 H836 0.980 . S
C809 H837 0.983 . S
C810 H786 0.948 . S
C810 C811 1.391 . S
C810 C815 1.391 . S
C811 C810 1.391 . S
C811 C812 1.391 . S
C812 H789 0.947 . S
C812 C811 1.391 . S
C812 C813 1.392 . S
C813 H790 0.948 . S
C813 C812 1.392 . S
C813 C814 1.419 . S
C814 C813 1.419 . S
C814 C815 1.391 . S
C814 C818 1.397 . S
C815 C810 1.391 . S
C815 C814 1.391 . S
C815 C816 1.399 . S
C816 C815 1.399 . S
C816 C817 1.396 . S
C816 C819 1.453 . S
C816 C820 1.684 . S
C817 C807 1.723 . S
C817 C816 1.396 . S
C817 C818 1.394 . S
C818 C788 1.723 . S
C818 C814 1.397 . S
C818 C817 1.394 . S
C819 H791 0.982 . S
C819 H795 0.979 . S
C819 H796 0.977 . S
C819 C816 1.453 . S
C820 H792 0.979 . S
C820 H793 0.980 . S
C820 H794 0.983 . S
C820 C816 1.684 . S
H821 C839 0.948 . S
H822 C780 0.948 . S
H823 C798 0.979 . S
H824 C798 0.980 . S
H825 C798 0.983 1_554 S
H826 C797 0.982 . S
H827 C797 0.979 . S
H828 C797 0.977 . S
H829 C799 0.948 . S
H830 C801 0.947 . S
H831 C802 0.948 . S
H832 C808 0.982 . S
H833 C808 0.979 . S
H834 C808 0.977 . S
H835 C809 0.979 . S
H836 C809 0.980 . S
H837 C809 0.983 . S
H838 C782 0.947 . S
C839 C782 1.392 . S
C839 C783 1.419 . S
C839 H821 0.948 . S
C840 C841 1.391 . S
C840 C844 1.391 . S
C840 H882 0.948 . S
C841 C840 1.391 . S
C841 C842 1.391 . S
C842 C841 1.391 . S
C842 H898 0.947 . S
C842 C899 1.392 . S
C843 C844 1.391 . S
C843 C847 1.397 . S
C843 C899 1.419 . S
C844 C840 1.391 . S
C844 C843 1.391 . S
C844 C845 1.399 . S
C845 C844 1.399 . S
C845 C848 1.396 . S
C845 C857 1.453 . S
C845 C858 1.684 . S
H846 C870 0.948 . S
C847 C843 1.397 . S
C847 C848 1.394 . S
C847 C866 1.723 . S
C848 C845 1.396 . S
C848 C847 1.394 . S
C848 C878 1.723 . S
H849 C872 0.947 . S
H850 C873 0.948 . S
H851 C879 0.982 . S
H852 C880 0.979 . S
H853 C880 0.980 . S
H854 C880 0.983 . S
H855 C879 0.979 . S
H856 C879 0.977 . S
C857 C845 1.453 . S
C857 H886 0.982 . S
C857 H887 0.979 . S
C857 H888 0.977 . S
C858 C845 1.684 . S
C858 H883 0.979 . S
C858 H884 0.980 . S
C858 H885 0.983 . S
C859 C860 1.391 . S
C859 C864 1.391 . S
C859 H889 0.948 . S
C860 C859 1.391 . S
C860 C861 1.391 . S
C861 C860 1.391 . S
C861 C862 1.392 . S
C861 H890 0.947 . S
C862 C861 1.392 . S
C862 C863 1.419 . S
C862 H891 0.948 . S
C863 C862 1.419 . S
C863 C864 1.391 . S
C863 C867 1.397 . S
C864 C859 1.391 . S
C864 C863 1.391 . S
C864 C865 1.399 . S
C865 C864 1.399 . S
C865 C866 1.396 . S
C865 C868 1.453 . S
C865 C869 1.684 . S
C866 C847 1.723 . S
C866 C865 1.396 . S
C866 C867 1.394 . S
C867 C863 1.397 . S
C867 C866 1.394 . S
C867 C877 1.723 . S
C868 C865 1.453 . S
C868 H892 0.982 . S
C868 H893 0.979 . S
C868 H894 0.977 . S
C869 C865 1.684 . S
C869 H895 0.979 . S
C869 H896 0.980 . S
C869 H897 0.983 . S
C870 H846 0.948 . S
C870 C871 1.391 . S
C870 C875 1.391 . S
C871 C870 1.391 . S
C871 C872 1.391 . S
C872 H849 0.947 . S
C872 C871 1.391 . S
C872 C873 1.392 . S
C873 H850 0.948 . S
C873 C872 1.392 . S
C873 C874 1.419 . S
C874 C873 1.419 . S
C874 C875 1.391 . S
C874 C878 1.397 . S
C875 C870 1.391 . S
C875 C874 1.391 . S
C875 C876 1.399 . S
C876 C875 1.399 . S
C876 C877 1.396 . S
C876 C879 1.453 . S
C876 C880 1.684 . S
C877 C867 1.723 . S
C877 C876 1.396 . S
C877 C878 1.394 . S
C878 C848 1.723 . S
C878 C874 1.397 . S
C878 C877 1.394 . S
C879 H851 0.982 . S
C879 H855 0.979 . S
C879 H856 0.977 . S
C879 C876 1.453 . S
C880 H852 0.979 . S
C880 H853 0.980 . S
C880 H854 0.983 . S
C880 C876 1.684 . S
H881 C899 0.948 . S
H882 C840 0.948 . S
H883 C858 0.979 . S
H884 C858 0.980 . S
H885 C858 0.983 . S
H886 C857 0.982 . S
H887 C857 0.979 . S
H888 C857 0.977 . S
H889 C859 0.948 . S
H890 C861 0.947 . S
H891 C862 0.948 . S
H892 C868 0.982 . S
H893 C868 0.979 . S
H894 C868 0.977 . S
H895 C869 0.979 . S
H896 C869 0.980 . S
H897 C869 0.983 . S
H898 C842 0.947 . S
C899 C842 1.392 . S
C899 C843 1.419 . S
C899 H881 0.948 . S
C900 C901 1.391 1_545 S
C900 C904 1.391 . S
C900 H942 0.957 . S
C901 C900 1.391 1_565 S
C901 C902 1.391 . S
C902 C901 1.391 . S
C902 H958 0.947 . S
C902 C959 1.392 . S
C903 C904 1.391 . S
C903 C907 1.397 . S
C903 C959 1.419 1_545 S
C904 C900 1.391 . S
C904 C903 1.391 . S
C904 C905 1.399 . S
C905 C904 1.399 . S
C905 C908 1.396 . S
C905 C917 1.453 . S
C905 C918 1.684 1_556 S
H906 C930 0.958 . S
C907 C903 1.397 . S
C907 C908 1.394 . S
C907 C926 1.723 . S
C908 C905 1.396 . S
C908 C907 1.394 . S
C908 C938 1.723 . S
H909 C932 0.947 . S
H910 C933 0.948 . S
H911 C939 0.982 . S
H912 C940 0.979 . S
H913 C940 0.980 . S
H914 C940 0.983 . S
H915 C939 0.979 . S
H916 C939 0.977 . S
C917 C905 1.453 . S
C917 H946 0.982 . S
C917 H947 0.979 1_556 S
C917 H948 0.977 1_556 S
C918 C905 1.684 1_554 S
C918 H943 0.979 . S
C918 H944 0.980 . S
C918 H945 0.983 . S
C919 C920 1.391 . S
C919 C924 1.391 . S
C919 H949 0.948 . S
C920 C919 1.391 . S
C920 C921 1.391 . S
C921 C920 1.391 . S
C921 C922 1.392 . S
C921 H950 0.947 . S
C922 C921 1.392 . S
C922 C923 1.419 . S
C922 H951 0.948 . S
C923 C922 1.419 . S
C923 C924 1.391 . S
C923 C927 1.397 . S
C924 C919 1.391 . S
C924 C923 1.391 . S
C924 C925 1.399 . S
C925 C924 1.399 . S
C925 C926 1.396 . S
C925 C928 1.453 . S
C925 C929 1.684 1_545 S
C926 C907 1.723 . S
C926 C925 1.396 . S
C926 C927 1.394 . S
C927 C923 1.397 . S
C927 C926 1.394 . S
C927 C937 1.723 . S
C928 C925 1.453 . S
C928 H952 0.982 . S
C928 H953 0.979 . S
C928 H954 0.977 . S
C929 C925 1.684 1_565 S
C929 H955 0.979 . S
C929 H956 0.980 . S
C929 H957 0.983 . S
C930 H906 0.958 . S
C930 C931 1.391 . S
C930 C935 1.391 1_554 S
C931 C930 1.391 . S
C931 C932 1.391 . S
C932 H909 0.947 . S
C932 C931 1.391 . S
C932 C933 1.392 . S
C933 H910 0.948 . S
C933 C932 1.392 . S
C933 C934 1.419 1_554 S
C934 C933 1.419 1_556 S
C934 C935 1.391 . S
C934 C938 1.397 . S
C935 C930 1.391 1_556 S
C935 C934 1.391 . S
C935 C936 1.399 . S
C936 C935 1.399 . S
C936 C937 1.396 . S
C936 C939 1.453 . S
C936 C940 1.684 . S
C937 C927 1.723 . S
C937 C936 1.396 . S
C937 C938 1.394 . S
C938 C908 1.723 . S
C938 C934 1.397 . S
C938 C937 1.394 . S
C939 H911 0.982 . S
C939 H915 0.979 . S
C939 H916 0.977 . S
C939 C936 1.453 . S
C940 H912 0.979 . S
C940 H913 0.980 . S
C940 H914 0.983 . S
C940 C936 1.684 . S
H941 C959 0.948 . S
H942 C900 0.957 . S
H943 C918 0.979 . S
H944 C918 0.980 . S
H945 C918 0.983 . S
H946 C917 0.982 . S
H947 C917 0.979 1_554 S
H948 C917 0.977 1_554 S
H949 C919 0.948 . S
H950 C921 0.947 . S
H951 C922 0.948 . S
H952 C928 0.982 . S
H953 C928 0.979 . S
H954 C928 0.977 . S
H955 C929 0.979 . S
H956 C929 0.980 . S
H957 C929 0.983 . S
H958 C902 0.947 . S
C959 C902 1.392 . S
C959 C903 1.419 1_565 S
C959 H941 0.948 . S
Mn960 O965 2.095 . S
Mn960 O975 2.162 . S
Mn960 O976 2.297 . S
Mn960 O984 2.385 . S
Mn960 O985 2.209 1_554 S
Mn960 O986 2.094 . S
Mn961 O966 2.121 . S
Mn961 N968 2.257 . S
Mn961 N977 2.282 . S
Mn961 O985 2.215 . S
Mn961 O987 2.117 . S
C962 O984 1.234 1_556 S
C962 O985 1.283 . S
C963 O975 1.281 . S
C963 O976 1.236 . S
C964 O986 1.240 . S
C964 O987 1.264 1_554 S
O965 Mn960 2.095 . S
O965 C974 1.250 . S
O966 Mn961 2.121 . S
O966 C974 1.258 1_556 S
C967 N968 1.326 . S
C967 C971 1.460 . S
C967 H973 0.929 . S
N968 Mn961 2.257 . S
N968 C967 1.326 . S
N968 C972 1.362 . S
C969 C970 1.258 . S
C969 C972 1.431 . S
C969 C989 1.449 . S
C970 C969 1.258 . S
C970 C971 1.477 . S
C970 H990 0.931 . S
C971 C967 1.460 . S
C971 C970 1.477 . S
C971 H991 0.930 . S
C972 N968 1.362 . S
C972 C969 1.431 . S
C972 C982 1.476 . S
H973 C967 0.929 . S
C974 O965 1.250 . S
C974 O966 1.258 1_554 S
O975 Mn960 2.162 . S
O975 C963 1.281 . S
O976 Mn960 2.297 . S
O976 C963 1.236 . S
N977 Mn961 2.282 . S
N977 C978 1.328 . S
N977 C982 1.318 . S
C978 N977 1.328 . S
C978 C979 1.457 . S
C978 H983 0.929 . S
C979 C978 1.457 . S
C979 C980 1.291 . S
C979 H992 0.931 . S
C980 C979 1.291 . S
C980 C981 1.373 . S
C980 H993 0.929 . S
C981 C980 1.373 . S
C981 C982 1.396 . S
C981 C988 1.403 . S
C982 C972 1.476 . S
C982 N977 1.318 . S
C982 C981 1.396 . S
H983 C978 0.929 . S
O984 Mn960 2.385 . S
O984 C962 1.234 1_554 S
O985 Mn960 2.209 1_556 S
O985 Mn961 2.215 . S
O985 C962 1.283 . S
O986 Mn960 2.094 . S
O986 C964 1.240 . S
O987 Mn961 2.117 . S
O987 C964 1.264 1_556 S
C988 C981 1.403 . S
C988 C989 1.399 . S
C988 H994 0.929 . S
C989 C969 1.449 . S
C989 C988 1.399 . S
C989 H995 0.930 . S
H990 C970 0.931 . S
H991 C971 0.930 . S
H992 C979 0.931 . S
H993 C980 0.929 . S
H994 C988 0.929 . S
H995 C989 0.930 . S
Mn996 O1001 2.095 . S
Mn996 O1011 2.162 . S
Mn996 O1012 2.297 . S
Mn996 O1020 2.385 . S
Mn996 O1021 2.209 . S
Mn996 O1022 2.094 . S
Mn997 O1002 2.121 . S
Mn997 N1004 2.257 . S
Mn997 N1013 2.282 . S
Mn997 O1021 2.215 . S
Mn997 O1023 2.117 . S
C998 O1020 1.234 . S
C998 O1021 1.283 . S
C999 O1011 1.281 . S
C999 O1012 1.236 . S
C1000 O1022 1.240 . S
C1000 O1023 1.264 . S
O1001 Mn996 2.095 . S
O1001 C1010 1.250 . S
O1002 Mn997 2.121 . S
O1002 C1010 1.258 . S
C1003 N1004 1.326 . S
C1003 C1007 1.460 . S
C1003 H1009 0.929 . S
N1004 Mn997 2.257 . S
N1004 C1003 1.326 . S
N1004 C1008 1.362 . S
C1005 C1006 1.258 . S
C1005 C1008 1.431 . S
C1005 C1025 1.449 . S
C1006 C1005 1.258 . S
C1006 C1007 1.477 . S
C1006 H1026 0.931 . S
C1007 C1003 1.460 . S
C1007 C1006 1.477 . S
C1007 H1027 0.930 . S
C1008 N1004 1.362 . S
C1008 C1005 1.431 . S
C1008 C1018 1.476 . S
H1009 C1003 0.929 . S
C1010 O1001 1.250 . S
C1010 O1002 1.258 . S
O1011 Mn996 2.162 . S
O1011 C999 1.281 . S
O1012 Mn996 2.297 . S
O1012 C999 1.236 . S
N1013 Mn997 2.282 . S
N1013 C1014 1.328 . S
N1013 C1018 1.318 . S
C1014 N1013 1.328 . S
C1014 C1015 1.457 . S
C1014 H1019 0.929 . S
C1015 C1014 1.457 . S
C1015 C1016 1.291 . S
C1015 H1028 0.931 . S
C1016 C1015 1.291 . S
C1016 C1017 1.373 . S
C1016 H1029 0.929 . S
C1017 C1016 1.373 . S
C1017 C1018 1.396 . S
C1017 C1024 1.403 . S
C1018 C1008 1.476 . S
C1018 N1013 1.318 . S
C1018 C1017 1.396 . S
H1019 C1014 0.929 . S
O1020 Mn996 2.385 . S
O1020 C998 1.234 . S
O1021 Mn996 2.209 . S
O1021 Mn997 2.215 . S
O1021 C998 1.283 . S
O1022 Mn996 2.094 . S
O1022 C1000 1.240 . S
O1023 Mn997 2.117 . S
O1023 C1000 1.264 . S
C1024 C1017 1.403 . S
C1024 C1025 1.399 . S
C1024 H1030 0.929 . S
C1025 C1005 1.449 . S
C1025 C1024 1.399 . S
C1025 H1031 0.930 . S
H1026 C1006 0.931 . S
H1027 C1007 0.930 . S
H1028 C1015 0.931 . S
H1029 C1016 0.929 . S
H1030 C1024 0.929 . S
H1031 C1025 0.930 . S
Mn1032 O1037 2.095 1_554 S
Mn1032 O1047 2.162 . S
Mn1032 O1048 2.297 1_554 S
Mn1032 O1056 2.385 . S
Mn1032 O1057 2.209 1_554 S
Mn1032 O1058 2.094 . S
Mn1033 O1038 2.121 . S
Mn1033 N1040 2.257 . S
Mn1033 N1049 2.291 . S
Mn1033 O1057 2.215 . S
Mn1033 O1059 2.117 1_556 S
C1034 O1056 1.234 . S
C1034 O1057 1.283 1_554 S
C1035 O1047 1.281 . S
C1035 O1048 1.236 1_554 S
C1036 O1058 1.240 . S
C1036 O1059 1.264 . S
O1037 Mn1032 2.095 1_556 S
O1037 C1046 1.250 . S
O1038 Mn1033 2.121 . S
O1038 C1046 1.258 . S
C1039 N1040 1.326 . S
C1039 C1043 1.460 . S
C1039 H1045 0.929 . S
N1040 Mn1033 2.257 . S
N1040 C1039 1.326 . S
N1040 C1044 1.362 . S
C1041 C1042 1.258 . S
C1041 C1044 1.431 . S
C1041 C1061 1.449 . S
C1042 C1041 1.258 . S
C1042 C1043 1.477 . S
C1042 H1062 0.931 . S
C1043 C1039 1.460 . S
C1043 C1042 1.477 . S
C1043 H1063 0.930 . S
C1044 N1040 1.362 . S
C1044 C1041 1.431 . S
C1044 C1054 1.476 . S
H1045 C1039 0.929 . S
C1046 O1037 1.250 . S
C1046 O1038 1.258 . S
O1047 Mn1032 2.162 . S
O1047 C1035 1.281 . S
O1048 Mn1032 2.297 1_556 S
O1048 C1035 1.236 1_556 S
N1049 Mn1033 2.291 . S
N1049 C1050 1.304 1_556 S
N1049 C1054 1.334 . S
C1050 N1049 1.304 1_554 S
C1050 C1051 1.457 . S
C1050 H1055 0.929 . S
C1051 C1050 1.457 . S
C1051 C1052 1.291 . S
C1051 H1064 0.931 . S
C1052 C1051 1.291 . S
C1052 C1053 1.373 1_554 S
C1052 H1065 0.929 . S
C1053 C1052 1.373 1_556 S
C1053 C1054 1.396 . S
C1053 C1060 1.403 . S
C1054 C1044 1.476 . S
C1054 N1049 1.334 . S
C1054 C1053 1.396 . S
H1055 C1050 0.929 . S
O1056 Mn1032 2.385 . S
O1056 C1034 1.234 . S
O1057 Mn1032 2.209 1_556 S
O1057 Mn1033 2.215 . S
O1057 C1034 1.283 1_556 S
O1058 Mn1032 2.094 . S
O1058 C1036 1.240 . S
O1059 Mn1033 2.117 1_554 S
O1059 C1036 1.264 . S
C1060 C1053 1.403 . S
C1060 C1061 1.399 . S
C1060 H1066 0.929 . S
C1061 C1041 1.449 . S
C1061 C1060 1.399 . S
C1061 H1067 0.930 . S
H1062 C1042 0.931 . S
H1063 C1043 0.930 . S
H1064 C1051 0.931 . S
H1065 C1052 0.929 . S
H1066 C1060 0.929 . S
H1067 C1061 0.930 . S
Mn1068 O1073 2.095 . S
Mn1068 O1083 2.162 . S
Mn1068 O1084 2.297 . S
Mn1068 O1092 2.411 . S
Mn1068 O1093 2.209 1_545 S
Mn1068 O1094 2.094 . S
Mn1069 O1074 2.121 . S
Mn1069 N1076 2.257 . S
Mn1069 N1085 2.282 . S
Mn1069 O1093 2.215 . S
Mn1069 O1095 2.117 . S
C1070 O1092 1.184 1_565 S
C1070 O1093 1.283 . S
C1071 O1083 1.281 . S
C1071 O1084 1.236 . S
C1072 O1094 1.240 . S
C1072 O1095 1.264 1_545 S
O1073 Mn1068 2.095 . S
O1073 C1082 1.250 . S
O1074 Mn1069 2.121 . S
O1074 C1082 1.258 1_565 S
C1075 N1076 1.326 . S
C1075 C1079 1.460 . S
C1075 H1081 0.929 . S
N1076 Mn1069 2.257 . S
N1076 C1075 1.326 . S
N1076 C1080 1.362 . S
C1077 C1078 1.258 . S
C1077 C1080 1.431 . S
C1077 C1097 1.449 . S
C1078 C1077 1.258 . S
C1078 C1079 1.477 . S
C1078 H1098 0.931 . S
C1079 C1075 1.460 . S
C1079 C1078 1.477 . S
C1079 H1099 0.930 . S
C1080 N1076 1.362 . S
C1080 C1077 1.431 . S
C1080 C1090 1.476 . S
H1081 C1075 0.929 . S
C1082 O1073 1.250 . S
C1082 O1074 1.258 1_545 S
O1083 Mn1068 2.162 . S
O1083 C1071 1.281 . S
O1084 Mn1068 2.297 . S
O1084 C1071 1.236 . S
N1085 Mn1069 2.282 . S
N1085 C1086 1.328 . S
N1085 C1090 1.318 . S
C1086 N1085 1.328 . S
C1086 C1087 1.457 . S
C1086 H1091 0.929 . S
C1087 C1086 1.457 . S
C1087 C1088 1.291 . S
C1087 H1100 0.931 . S
C1088 C1087 1.291 . S
C1088 C1089 1.373 . S
C1088 H1101 0.929 . S
C1089 C1088 1.373 . S
C1089 C1090 1.396 . S
C1089 C1096 1.403 . S
C1090 C1080 1.476 . S
C1090 N1085 1.318 . S
C1090 C1089 1.396 . S
H1091 C1086 0.929 . S
O1092 Mn1068 2.411 . S
O1092 C1070 1.184 1_545 S
O1093 Mn1068 2.209 1_565 S
O1093 Mn1069 2.215 . S
O1093 C1070 1.283 . S
O1094 Mn1068 2.094 . S
O1094 C1072 1.240 . S
O1095 Mn1069 2.117 . S
O1095 C1072 1.264 1_565 S
C1096 C1089 1.403 . S
C1096 C1097 1.399 . S
C1096 H1102 0.929 . S
C1097 C1077 1.449 . S
C1097 C1096 1.399 . S
C1097 H1103 0.930 . S
H1098 C1078 0.931 . S
H1099 C1079 0.930 . S
H1100 C1087 0.931 . S
H1101 C1088 0.929 . S
H1102 C1096 0.929 . S
H1103 C1097 0.930 . S
Mn1104 O1109 2.095 . S
Mn1104 O1119 2.162 . S
Mn1104 O1120 2.297 . S
Mn1104 O1128 2.385 . S
Mn1104 O1129 2.209 . S
Mn1104 O1130 2.094 . S
Mn1105 O1110 2.121 . S
Mn1105 N1112 2.257 . S
Mn1105 N1121 2.282 . S
Mn1105 O1129 2.215 . S
Mn1105 O1131 2.117 . S
C1106 O1128 1.234 . S
C1106 O1129 1.283 . S
C1107 O1119 1.281 . S
C1107 O1120 1.236 . S
C1108 O1130 1.240 . S
C1108 O1131 1.264 . S
O1109 Mn1104 2.095 . S
O1109 C1118 1.250 . S
O1110 Mn1105 2.121 . S
O1110 C1118 1.258 . S
C1111 N1112 1.326 . S
C1111 C1115 1.460 . S
C1111 H1117 0.929 . S
N1112 Mn1105 2.257 . S
N1112 C1111 1.326 . S
N1112 C1116 1.362 . S
C1113 C1114 1.258 . S
C1113 C1116 1.431 . S
C1113 C1133 1.449 . S
C1114 C1113 1.258 . S
C1114 C1115 1.477 . S
C1114 H1134 0.931 . S
C1115 C1111 1.460 . S
C1115 C1114 1.477 . S
C1115 H1135 0.930 . S
C1116 N1112 1.362 . S
C1116 C1113 1.431 . S
C1116 C1126 1.476 . S
H1117 C1111 0.929 . S
C1118 O1109 1.250 . S
C1118 O1110 1.258 . S
O1119 Mn1104 2.162 . S
O1119 C1107 1.281 . S
O1120 Mn1104 2.297 . S
O1120 C1107 1.236 . S
N1121 Mn1105 2.282 . S
N1121 C1122 1.328 . S
N1121 C1126 1.318 . S
C1122 N1121 1.328 . S
C1122 C1123 1.457 . S
C1122 H1127 0.929 . S
C1123 C1122 1.457 . S
C1123 C1124 1.291 . S
C1123 H1136 0.931 . S
C1124 C1123 1.291 . S
C1124 C1125 1.373 . S
C1124 H1137 0.929 . S
C1125 C1124 1.373 . S
C1125 C1126 1.396 . S
C1125 C1132 1.403 . S
C1126 C1116 1.476 . S
C1126 N1121 1.318 . S
C1126 C1125 1.396 . S
H1127 C1122 0.929 . S
O1128 Mn1104 2.385 . S
O1128 C1106 1.234 . S
O1129 Mn1104 2.209 . S
O1129 Mn1105 2.215 . S
O1129 C1106 1.283 . S
O1130 Mn1104 2.094 . S
O1130 C1108 1.240 . S
O1131 Mn1105 2.117 . S
O1131 C1108 1.264 . S
C1132 C1125 1.403 . S
C1132 C1133 1.399 . S
C1132 H1138 0.929 . S
C1133 C1113 1.449 . S
C1133 C1132 1.399 . S
C1133 H1139 0.930 . S
H1134 C1114 0.931 . S
H1135 C1115 0.930 . S
H1136 C1123 0.931 . S
H1137 C1124 0.929 . S
H1138 C1132 0.929 . S
H1139 C1133 0.930 . S
Mn1140 O1145 2.095 . S
Mn1140 O1155 2.162 . S
Mn1140 O1156 2.297 . S
Mn1140 O1164 2.385 . S
Mn1140 O1165 2.209 . S
Mn1140 O1166 2.094 . S
Mn1141 O1146 2.121 . S
Mn1141 N1148 2.257 . S
Mn1141 N1157 2.282 . S
Mn1141 O1165 2.215 . S
Mn1141 O1167 2.117 . S
C1142 O1164 1.234 . S
C1142 O1165 1.283 . S
C1143 O1155 1.281 . S
C1143 O1156 1.236 . S
C1144 O1166 1.240 . S
C1144 O1167 1.264 . S
O1145 Mn1140 2.095 . S
O1145 C1154 1.250 . S
O1146 Mn1141 2.121 . S
O1146 C1154 1.258 . S
C1147 N1148 1.326 . S
C1147 C1151 1.460 . S
C1147 H1153 0.929 . S
N1148 Mn1141 2.257 . S
N1148 C1147 1.326 . S
N1148 C1152 1.362 . S
C1149 C1150 1.258 . S
C1149 C1152 1.431 . S
C1149 C1169 1.449 . S
C1150 C1149 1.258 . S
C1150 C1151 1.477 . S
C1150 H1170 0.931 . S
C1151 C1147 1.460 . S
C1151 C1150 1.477 . S
C1151 H1171 0.930 . S
C1152 N1148 1.362 . S
C1152 C1149 1.431 . S
C1152 C1162 1.476 . S
H1153 C1147 0.929 . S
C1154 O1145 1.250 . S
C1154 O1146 1.258 . S
O1155 Mn1140 2.162 . S
O1155 C1143 1.281 . S
O1156 Mn1140 2.297 . S
O1156 C1143 1.236 . S
N1157 Mn1141 2.282 . S
N1157 C1158 1.328 . S
N1157 C1162 1.318 . S
C1158 N1157 1.328 . S
C1158 C1159 1.457 . S
C1158 H1163 0.929 . S
C1159 C1158 1.457 . S
C1159 C1160 1.291 . S
C1159 H1172 0.931 . S
C1160 C1159 1.291 . S
C1160 C1161 1.373 . S
C1160 H1173 0.929 . S
C1161 C1160 1.373 . S
C1161 C1162 1.396 . S
C1161 C1168 1.403 . S
C1162 C1152 1.476 . S
C1162 N1157 1.318 . S
C1162 C1161 1.396 . S
H1163 C1158 0.929 . S
O1164 Mn1140 2.385 . S
O1164 C1142 1.234 . S
O1165 Mn1140 2.209 . S
O1165 Mn1141 2.215 . S
O1165 C1142 1.283 . S
O1166 Mn1140 2.094 . S
O1166 C1144 1.240 . S
O1167 Mn1141 2.117 . S
O1167 C1144 1.264 . S
C1168 C1161 1.403 . S
C1168 C1169 1.399 . S
C1168 H1174 0.929 . S
C1169 C1149 1.449 . S
C1169 C1168 1.399 . S
C1169 H1175 0.930 . S
H1170 C1150 0.931 . S
H1171 C1151 0.930 . S
H1172 C1159 0.931 . S
H1173 C1160 0.929 . S
H1174 C1168 0.929 . S
H1175 C1169 0.930 . S
Mn1176 O1181 2.095 . S
Mn1176 O1191 2.162 . S
Mn1176 O1192 2.297 . S
Mn1176 O1200 2.385 . S
Mn1176 O1201 2.209 . S
Mn1176 O1202 2.094 . S
Mn1177 O1182 2.121 . S
Mn1177 N1184 2.257 . S
Mn1177 N1193 2.282 . S
Mn1177 O1201 2.215 . S
Mn1177 O1203 2.117 . S
C1178 O1200 1.234 . S
C1178 O1201 1.283 . S
C1179 O1191 1.281 . S
C1179 O1192 1.236 . S
C1180 O1202 1.240 . S
C1180 O1203 1.264 . S
O1181 Mn1176 2.095 . S
O1181 C1190 1.250 . S
O1182 Mn1177 2.121 . S
O1182 C1190 1.258 . S
C1183 N1184 1.326 . S
C1183 C1187 1.460 . S
C1183 H1189 0.929 . S
N1184 Mn1177 2.257 . S
N1184 C1183 1.326 . S
N1184 C1188 1.362 . S
C1185 C1186 1.258 . S
C1185 C1188 1.431 . S
C1185 C1205 1.449 . S
C1186 C1185 1.258 . S
C1186 C1187 1.477 . S
C1186 H1206 0.931 . S
C1187 C1183 1.460 . S
C1187 C1186 1.477 . S
C1187 H1207 0.930 . S
C1188 N1184 1.362 . S
C1188 C1185 1.431 . S
C1188 C1198 1.476 . S
H1189 C1183 0.929 . S
C1190 O1181 1.250 . S
C1190 O1182 1.258 . S
O1191 Mn1176 2.162 . S
O1191 C1179 1.281 . S
O1192 Mn1176 2.297 . S
O1192 C1179 1.236 . S
N1193 Mn1177 2.282 . S
N1193 C1194 1.328 . S
N1193 C1198 1.318 . S
C1194 N1193 1.328 . S
C1194 C1195 1.457 . S
C1194 H1199 0.929 . S
C1195 C1194 1.457 . S
C1195 C1196 1.291 . S
C1195 H1208 0.931 . S
C1196 C1195 1.291 . S
C1196 C1197 1.373 . S
C1196 H1209 0.929 . S
C1197 C1196 1.373 . S
C1197 C1198 1.396 . S
C1197 C1204 1.403 . S
C1198 C1188 1.476 . S
C1198 N1193 1.318 . S
C1198 C1197 1.396 . S
H1199 C1194 0.929 . S
O1200 Mn1176 2.385 . S
O1200 C1178 1.234 . S
O1201 Mn1176 2.209 . S
O1201 Mn1177 2.215 . S
O1201 C1178 1.283 . S
O1202 Mn1176 2.094 . S
O1202 C1180 1.240 . S
O1203 Mn1177 2.117 . S
O1203 C1180 1.264 . S
C1204 C1197 1.403 . S
C1204 C1205 1.399 . S
C1204 H1210 0.929 . S
C1205 C1185 1.449 . S
C1205 C1204 1.399 . S
C1205 H1211 0.930 . S
H1206 C1186 0.931 . S
H1207 C1187 0.930 . S
H1208 C1195 0.931 . S
H1209 C1196 0.929 . S
H1210 C1204 0.929 . S
H1211 C1205 0.930 . S
Mn1212 O1217 2.095 . S
Mn1212 O1227 2.162 . S
Mn1212 O1228 2.297 . S
Mn1212 O1236 2.385 1_565 S
Mn1212 O1237 2.209 1_565 S
Mn1212 O1238 2.094 . S
Mn1213 O1218 2.121 . S
Mn1213 N1220 2.257 . S
Mn1213 N1229 2.282 . S
Mn1213 O1237 2.215 . S
Mn1213 O1239 2.117 . S
C1214 O1236 1.234 . S
C1214 O1237 1.283 . S
C1215 O1227 1.281 . S
C1215 O1228 1.236 . S
C1216 O1238 1.218 1_545 S
C1216 O1239 1.293 . S
O1217 Mn1212 2.095 . S
O1217 C1226 1.250 1_565 S
O1218 Mn1213 2.121 . S
O1218 C1226 1.258 . S
C1219 N1220 1.326 . S
C1219 C1223 1.460 . S
C1219 H1225 0.929 . S
N1220 Mn1213 2.257 . S
N1220 C1219 1.326 . S
N1220 C1224 1.362 . S
C1221 C1222 1.258 . S
C1221 C1224 1.431 . S
C1221 C1241 1.449 . S
C1222 C1221 1.258 . S
C1222 C1223 1.477 . S
C1222 H1242 0.931 . S
C1223 C1219 1.460 . S
C1223 C1222 1.477 . S
C1223 H1243 0.930 . S
C1224 N1220 1.362 . S
C1224 C1221 1.431 . S
C1224 C1234 1.476 . S
H1225 C1219 0.929 . S
C1226 O1217 1.250 1_545 S
C1226 O1218 1.258 . S
O1227 Mn1212 2.162 . S
O1227 C1215 1.281 . S
O1228 Mn1212 2.297 . S
O1228 C1215 1.236 . S
N1229 Mn1213 2.282 . S
N1229 C1230 1.328 . S
N1229 C1234 1.318 . S
C1230 N1229 1.328 . S
C1230 C1231 1.457 . S
C1230 H1235 0.929 . S
C1231 C1230 1.457 . S
C1231 C1232 1.291 . S
C1231 H1244 0.931 . S
C1232 C1231 1.291 . S
C1232 C1233 1.373 . S
C1232 H1245 0.929 . S
C1233 C1232 1.373 . S
C1233 C1234 1.396 . S
C1233 C1240 1.403 . S
C1234 C1224 1.476 . S
C1234 N1229 1.318 . S
C1234 C1233 1.396 . S
H1235 C1230 0.929 . S
O1236 Mn1212 2.385 1_545 S
O1236 C1214 1.234 . S
O1237 Mn1212 2.209 1_545 S
O1237 Mn1213 2.215 . S
O1237 C1214 1.283 . S
O1238 Mn1212 2.094 . S
O1238 C1216 1.218 1_565 S
O1239 Mn1213 2.117 . S
O1239 C1216 1.293 . S
C1240 C1233 1.403 . S
C1240 C1241 1.399 . S
C1240 H1246 0.929 . S
C1241 C1221 1.449 . S
C1241 C1240 1.399 . S
C1241 H1247 0.930 . S
H1242 C1222 0.931 . S
H1243 C1223 0.930 . S
H1244 C1231 0.931 . S
H1245 C1232 0.929 . S
H1246 C1240 0.929 . S
H1247 C1241 0.930 . S
Mn1248 O1253 2.095 . S
Mn1248 O1263 2.162 . S
Mn1248 O1264 2.297 . S
Mn1248 O1272 2.385 1_455 S
Mn1248 O1273 2.209 1_455 S
Mn1248 O1274 2.094 . S
Mn1249 O1254 2.121 . S
Mn1249 N1256 2.257 . S
Mn1249 N1265 2.282 . S
Mn1249 O1273 2.215 . S
Mn1249 O1275 2.117 . S
C1250 O1272 1.234 . S
C1250 O1273 1.283 . S
C1251 O1263 1.281 . S
C1251 O1264 1.236 . S
C1252 O1274 1.240 . S
C1252 O1275 1.264 1_455 S
O1253 Mn1248 2.095 . S
O1253 C1262 1.250 1_455 S
O1254 Mn1249 2.121 . S
O1254 C1262 1.258 . S
C1255 N1256 1.326 . S
C1255 C1259 1.460 . S
C1255 H1261 0.929 . S
N1256 Mn1249 2.257 . S
N1256 C1255 1.326 . S
N1256 C1260 1.362 . S
C1257 C1258 1.258 . S
C1257 C1260 1.431 . S
C1257 C1277 1.449 . S
C1258 C1257 1.258 . S
C1258 C1259 1.477 . S
C1258 H1278 0.931 . S
C1259 C1255 1.460 . S
C1259 C1258 1.477 . S
C1259 H1279 0.930 . S
C1260 N1256 1.362 . S
C1260 C1257 1.431 . S
C1260 C1270 1.476 . S
H1261 C1255 0.929 . S
C1262 O1253 1.250 1_655 S
C1262 O1254 1.258 . S
O1263 Mn1248 2.162 . S
O1263 C1251 1.281 . S
O1264 Mn1248 2.297 . S
O1264 C1251 1.236 . S
N1265 Mn1249 2.282 . S
N1265 C1266 1.328 . S
N1265 C1270 1.318 . S
C1266 N1265 1.328 . S
C1266 C1267 1.457 . S
C1266 H1271 0.929 . S
C1267 C1266 1.457 . S
C1267 C1268 1.291 . S
C1267 H1280 0.931 . S
C1268 C1267 1.291 . S
C1268 C1269 1.373 . S
C1268 H1281 0.929 . S
C1269 C1268 1.373 . S
C1269 C1270 1.396 . S
C1269 C1276 1.403 . S
C1270 C1260 1.476 . S
C1270 N1265 1.318 . S
C1270 C1269 1.396 . S
H1271 C1266 0.929 . S
O1272 Mn1248 2.385 1_655 S
O1272 C1250 1.234 . S
O1273 Mn1248 2.209 1_655 S
O1273 Mn1249 2.215 . S
O1273 C1250 1.283 . S
O1274 Mn1248 2.094 . S
O1274 C1252 1.240 . S
O1275 Mn1249 2.117 . S
O1275 C1252 1.264 1_655 S
C1276 C1269 1.403 . S
C1276 C1277 1.399 . S
C1276 H1282 0.929 . S
C1277 C1257 1.449 . S
C1277 C1276 1.399 . S
C1277 H1283 0.930 . S
H1278 C1258 0.931 . S
H1279 C1259 0.930 . S
H1280 C1267 0.931 . S
H1281 C1268 0.929 . S
H1282 C1276 0.929 . S
H1283 C1277 0.930 . S
Mn1284 O1289 2.095 . S
Mn1284 O1299 2.162 . S
Mn1284 O1300 2.297 . S
Mn1284 O1308 2.385 . S
Mn1284 O1309 2.209 . S
Mn1284 O1310 2.094 . S
Mn1285 O1290 2.121 . S
Mn1285 N1292 2.257 . S
Mn1285 N1301 2.282 . S
Mn1285 O1309 2.215 . S
Mn1285 O1311 2.117 . S
C1286 O1308 1.234 . S
C1286 O1309 1.283 . S
C1287 O1299 1.281 . S
C1287 O1300 1.236 . S
C1288 O1310 1.240 . S
C1288 O1311 1.264 . S
O1289 Mn1284 2.095 . S
O1289 C1298 1.250 . S
O1290 Mn1285 2.121 . S
O1290 C1298 1.258 . S
C1291 N1292 1.326 . S
C1291 C1295 1.460 . S
C1291 H1297 0.929 . S
N1292 Mn1285 2.257 . S
N1292 C1291 1.326 . S
N1292 C1296 1.362 . S
C1293 C1294 1.258 . S
C1293 C1296 1.431 . S
C1293 C1313 1.449 . S
C1294 C1293 1.258 . S
C1294 C1295 1.477 . S
C1294 H1314 0.931 . S
C1295 C1291 1.460 . S
C1295 C1294 1.477 . S
C1295 H1315 0.930 . S
C1296 N1292 1.362 . S
C1296 C1293 1.431 . S
C1296 C1306 1.476 . S
H1297 C1291 0.929 . S
C1298 O1289 1.250 . S
C1298 O1290 1.258 . S
O1299 Mn1284 2.162 . S
O1299 C1287 1.281 . S
O1300 Mn1284 2.297 . S
O1300 C1287 1.236 . S
N1301 Mn1285 2.282 . S
N1301 C1302 1.328 . S
N1301 C1306 1.318 . S
C1302 N1301 1.328 . S
C1302 C1303 1.457 . S
C1302 H1307 0.929 . S
C1303 C1302 1.457 . S
C1303 C1304 1.291 . S
C1303 H1316 0.931 . S
C1304 C1303 1.291 . S
C1304 C1305 1.373 . S
C1304 H1317 0.929 . S
C1305 C1304 1.373 . S
C1305 C1306 1.396 . S
C1305 C1312 1.403 . S
C1306 C1296 1.476 . S
C1306 N1301 1.318 . S
C1306 C1305 1.396 . S
H1307 C1302 0.929 . S
O1308 Mn1284 2.385 . S
O1308 C1286 1.234 . S
O1309 Mn1284 2.209 . S
O1309 Mn1285 2.215 . S
O1309 C1286 1.283 . S
O1310 Mn1284 2.094 . S
O1310 C1288 1.240 . S
O1311 Mn1285 2.117 . S
O1311 C1288 1.264 . S
C1312 C1305 1.403 . S
C1312 C1313 1.399 . S
C1312 H1318 0.929 . S
C1313 C1293 1.449 . S
C1313 C1312 1.399 . S
C1313 H1319 0.930 . S
H1314 C1294 0.931 . S
H1315 C1295 0.930 . S
H1316 C1303 0.931 . S
H1317 C1304 0.929 . S
H1318 C1312 0.929 . S
H1319 C1313 0.930 . S
Mn1320 O1325 2.095 1_455 S
Mn1320 O1335 2.162 . S
Mn1320 O1336 2.297 1_455 S
Mn1320 O1344 2.385 . S
Mn1320 O1345 2.209 1_455 S
Mn1320 O1346 2.094 . S
Mn1321 O1326 2.121 . S
Mn1321 N1328 2.257 . S
Mn1321 N1337 2.282 1_655 S
Mn1321 O1345 2.215 . S
Mn1321 O1347 2.117 1_655 S
C1322 O1344 1.234 . S
C1322 O1345 1.283 1_455 S
C1323 O1335 1.281 . S
C1323 O1336 1.236 1_455 S
C1324 O1346 1.240 . S
C1324 O1347 1.264 . S
O1325 Mn1320 2.095 1_655 S
O1325 C1334 1.250 . S
O1326 Mn1321 2.121 . S
O1326 C1334 1.258 . S
C1327 N1328 1.326 . S
C1327 C1331 1.460 . S
C1327 H1333 0.929 . S
N1328 Mn1321 2.257 . S
N1328 C1327 1.326 . S
N1328 C1332 1.362 . S
C1329 C1330 1.258 . S
C1329 C1332 1.431 . S
C1329 C1349 1.449 . S
C1330 C1329 1.258 . S
C1330 C1331 1.477 . S
C1330 H1350 0.931 . S
C1331 C1327 1.460 . S
C1331 C1330 1.477 . S
C1331 H1351 0.930 . S
C1332 N1328 1.362 . S
C1332 C1329 1.431 . S
C1332 C1342 1.476 . S
H1333 C1327 0.929 . S
C1334 O1325 1.250 . S
C1334 O1326 1.258 . S
O1335 Mn1320 2.162 . S
O1335 C1323 1.281 . S
O1336 Mn1320 2.297 1_655 S
O1336 C1323 1.236 1_655 S
N1337 Mn1321 2.282 1_455 S
N1337 C1338 1.328 . S
N1337 C1342 1.318 1_455 S
C1338 N1337 1.328 . S
C1338 C1339 1.457 . S
C1338 H1343 0.929 . S
C1339 C1338 1.457 . S
C1339 C1340 1.291 . S
C1339 H1352 0.931 . S
C1340 C1339 1.291 . S
C1340 C1341 1.373 1_455 S
C1340 H1353 0.929 . S
C1341 C1340 1.373 1_655 S
C1341 C1342 1.396 . S
C1341 C1348 1.403 . S
C1342 C1332 1.476 . S
C1342 N1337 1.318 1_655 S
C1342 C1341 1.396 . S
H1343 C1338 0.929 . S
O1344 Mn1320 2.385 . S
O1344 C1322 1.234 . S
O1345 Mn1320 2.209 1_655 S
O1345 Mn1321 2.215 . S
O1345 C1322 1.283 1_655 S
O1346 Mn1320 2.094 . S
O1346 C1324 1.240 . S
O1347 Mn1321 2.117 1_455 S
O1347 C1324 1.264 . S
C1348 C1341 1.403 . S
C1348 C1349 1.399 . S
C1348 H1354 0.929 . S
C1349 C1329 1.449 . S
C1349 C1348 1.399 . S
C1349 H1355 0.930 . S
H1350 C1330 0.931 . S
H1351 C1331 0.930 . S
H1352 C1339 0.931 . S
H1353 C1340 0.929 . S
H1354 C1348 0.929 . S
H1355 C1349 0.930 . S
Mn1356 O1361 2.095 . S
Mn1356 O1371 2.162 . S
Mn1356 O1372 2.297 . S
Mn1356 O1380 2.385 . S
Mn1356 O1381 2.209 . S
Mn1356 O1382 2.094 . S
Mn1357 O1362 2.121 . S
Mn1357 N1364 2.257 . S
Mn1357 N1373 2.282 . S
Mn1357 O1381 2.215 . S
Mn1357 O1383 2.117 . S
C1358 O1380 1.234 . S
C1358 O1381 1.283 . S
C1359 O1371 1.281 . S
C1359 O1372 1.236 . S
C1360 O1382 1.240 . S
C1360 O1383 1.264 . S
O1361 Mn1356 2.095 . S
O1361 C1370 1.250 . S
O1362 Mn1357 2.121 . S
O1362 C1370 1.258 . S
C1363 N1364 1.326 . S
C1363 C1367 1.460 . S
C1363 H1369 0.929 . S
N1364 Mn1357 2.257 . S
N1364 C1363 1.326 . S
N1364 C1368 1.362 . S
C1365 C1366 1.258 . S
C1365 C1368 1.431 . S
C1365 C1385 1.449 . S
C1366 C1365 1.258 . S
C1366 C1367 1.477 . S
C1366 H1386 0.931 . S
C1367 C1363 1.460 . S
C1367 C1366 1.477 . S
C1367 H1387 0.930 . S
C1368 N1364 1.362 . S
C1368 C1365 1.431 . S
C1368 C1378 1.476 . S
H1369 C1363 0.929 . S
C1370 O1361 1.250 . S
C1370 O1362 1.258 . S
O1371 Mn1356 2.162 . S
O1371 C1359 1.281 . S
O1372 Mn1356 2.297 . S
O1372 C1359 1.236 . S
N1373 Mn1357 2.282 . S
N1373 C1374 1.328 . S
N1373 C1378 1.318 . S
C1374 N1373 1.328 . S
C1374 C1375 1.457 . S
C1374 H1379 0.929 . S
C1375 C1374 1.457 . S
C1375 C1376 1.291 . S
C1375 H1388 0.931 . S
C1376 C1375 1.291 . S
C1376 C1377 1.373 . S
C1376 H1389 0.929 . S
C1377 C1376 1.373 . S
C1377 C1378 1.396 . S
C1377 C1384 1.403 . S
C1378 C1368 1.476 . S
C1378 N1373 1.318 . S
C1378 C1377 1.396 . S
H1379 C1374 0.929 . S
O1380 Mn1356 2.385 . S
O1380 C1358 1.234 . S
O1381 Mn1356 2.209 . S
O1381 Mn1357 2.215 . S
O1381 C1358 1.283 . S
O1382 Mn1356 2.094 . S
O1382 C1360 1.240 . S
O1383 Mn1357 2.117 . S
O1383 C1360 1.264 . S
C1384 C1377 1.403 . S
C1384 C1385 1.399 . S
C1384 H1390 0.929 . S
C1385 C1365 1.449 . S
C1385 C1384 1.399 . S
C1385 H1391 0.930 . S
H1386 C1366 0.931 . S
H1387 C1367 0.930 . S
H1388 C1375 0.931 . S
H1389 C1376 0.929 . S
H1390 C1384 0.929 . S
H1391 C1385 0.930 . S
H1392 C1400 0.929 . S
H1393 C1402 0.930 . S
H1394 C1404 0.930 . S
H1395 C1407 0.929 . S
H1396 C1410 0.930 . S
H1397 C1412 0.960 . S
H1398 C1412 0.960 . S
H1399 C1412 0.960 . S
C1400 H1392 0.929 . S
C1400 C1401 1.377 . S
C1400 C1402 1.384 . S
C1401 C1400 1.377 . S
C1401 C1407 1.390 . S
C1402 H1393 0.930 . S
C1402 C1400 1.384 . S
C1402 C1403 1.372 . S
C1403 C1402 1.372 . S
C1403 C1404 1.400 . S
C1403 C1408 1.490 . S
C1404 H1394 0.930 . S
C1404 C1403 1.400 . S
C1404 C1407 1.386 . S
H1405 C1421 0.930 . S
H1406 C1422 0.931 . S
C1407 H1395 0.929 . S
C1407 C1401 1.390 . S
C1407 C1404 1.386 . S
C1408 C1403 1.490 . S
C1408 C1410 1.395 . S
C1408 C1411 1.403 . S
H1409 C1415 0.930 . S
C1410 H1396 0.930 . S
C1410 C1408 1.395 . S
C1410 C1413 1.403 . S
C1411 C1408 1.403 . S
C1411 C1412 1.524 . S
C1411 C1415 1.400 . S
C1412 H1397 0.960 . S
C1412 H1398 0.960 . S
C1412 H1399 0.960 . S
C1412 C1411 1.524 . S
C1413 C1410 1.403 . S
C1413 C1414 1.392 . S
C1413 C1417 1.495 . S
C1414 C1413 1.392 . S
C1414 C1415 1.385 . S
C1414 C1416 1.478 . S
C1415 H1409 0.930 . S
C1415 C1411 1.400 . S
C1415 C1414 1.385 . S
C1416 C1414 1.478 . S
C1416 C1418 1.381 . S
C1416 C1422 1.383 . S
C1417 C1413 1.495 . S
C1417 H1423 0.959 . S
C1417 H1424 0.961 . S
C1417 H1425 0.960 . S
C1418 C1416 1.381 . S
C1418 C1419 1.394 . S
C1418 H1426 0.930 . S
C1419 C1418 1.394 . S
C1419 C1420 1.383 . S
C1419 H1427 0.929 . S
C1420 C1419 1.383 . S
C1420 C1421 1.377 . S
C1421 H1405 0.930 . S
C1421 C1420 1.377 . S
C1421 C1422 1.379 . S
C1422 H1406 0.931 . S
C1422 C1416 1.383 . S
C1422 C1421 1.379 . S
H1423 C1417 0.959 . S
H1424 C1417 0.961 . S
H1425 C1417 0.960 . S
H1426 C1418 0.930 . S
H1427 C1419 0.929 . S
H1428 C1436 0.929 . S
H1429 C1438 0.930 . S
H1430 C1440 0.930 . S
H1431 C1443 0.929 . S
H1432 C1446 0.930 . S
H1433 C1448 0.960 . S
H1434 C1448 0.960 . S
H1435 C1448 0.960 . S
C1436 H1428 0.929 . S
C1436 C1437 1.377 . S
C1436 C1438 1.384 . S
C1437 C1436 1.377 . S
C1437 C1443 1.390 . S
C1438 H1429 0.930 . S
C1438 C1436 1.384 . S
C1438 C1439 1.372 . S
C1439 C1438 1.372 . S
C1439 C1440 1.400 . S
C1439 C1444 1.490 . S
C1440 H1430 0.930 . S
C1440 C1439 1.400 . S
C1440 C1443 1.386 . S
H1441 C1457 0.930 . S
H1442 C1458 0.931 . S
C1443 H1431 0.929 . S
C1443 C1437 1.390 . S
C1443 C1440 1.386 . S
C1444 C1439 1.490 . S
C1444 C1446 1.395 . S
C1444 C1447 1.403 . S
H1445 C1451 0.930 . S
C1446 H1432 0.930 . S
C1446 C1444 1.395 . S
C1446 C1449 1.403 . S
C1447 C1444 1.403 . S
C1447 C1448 1.524 . S
C1447 C1451 1.400 . S
C1448 H1433 0.960 . S
C1448 H1434 0.960 . S
C1448 H1435 0.960 . S
C1448 C1447 1.524 . S
C1449 C1446 1.403 . S
C1449 C1450 1.392 . S
C1449 C1453 1.495 . S
C1450 C1449 1.392 . S
C1450 C1451 1.385 . S
C1450 C1452 1.478 . S
C1451 H1445 0.930 . S
C1451 C1447 1.400 . S
C1451 C1450 1.385 . S
C1452 C1450 1.478 . S
C1452 C1454 1.381 . S
C1452 C1458 1.383 . S
C1453 C1449 1.495 . S
C1453 H1459 0.959 . S
C1453 H1460 0.961 . S
C1453 H1461 0.960 . S
C1454 C1452 1.381 . S
C1454 C1455 1.394 . S
C1454 H1462 0.930 . S
C1455 C1454 1.394 . S
C1455 C1456 1.383 . S
C1455 H1463 0.929 . S
C1456 C1455 1.383 . S
C1456 C1457 1.377 . S
C1457 H1441 0.930 . S
C1457 C1456 1.377 . S
C1457 C1458 1.379 . S
C1458 H1442 0.931 . S
C1458 C1452 1.383 . S
C1458 C1457 1.379 . S
H1459 C1453 0.959 . S
H1460 C1453 0.961 . S
H1461 C1453 0.960 . S
H1462 C1454 0.930 . S
H1463 C1455 0.929 . S
H1464 C1472 0.929 . S
H1465 C1474 0.930 . S
H1466 C1476 0.930 . S
H1467 C1479 0.929 . S
H1468 C1482 0.930 . S
H1469 C1484 0.960 . S
H1470 C1484 0.960 . S
H1471 C1484 0.960 . S
C1472 H1464 0.929 . S
C1472 C1473 1.377 . S
C1472 C1474 1.384 . S
C1473 C1472 1.377 . S
C1473 C1479 1.390 . S
C1474 H1465 0.930 . S
C1474 C1472 1.384 . S
C1474 C1475 1.372 . S
C1475 C1474 1.372 . S
C1475 C1476 1.400 . S
C1475 C1480 1.490 . S
C1476 H1466 0.930 . S
C1476 C1475 1.400 . S
C1476 C1479 1.386 . S
H1477 C1493 0.930 . S
H1478 C1494 0.931 . S
C1479 H1467 0.929 . S
C1479 C1473 1.390 . S
C1479 C1476 1.386 . S
C1480 C1475 1.490 . S
C1480 C1482 1.395 . S
C1480 C1483 1.403 . S
H1481 C1487 0.930 . S
C1482 H1468 0.930 . S
C1482 C1480 1.395 . S
C1482 C1485 1.403 . S
C1483 C1480 1.403 . S
C1483 C1484 1.524 . S
C1483 C1487 1.400 . S
C1484 H1469 0.960 . S
C1484 H1470 0.960 . S
C1484 H1471 0.960 . S
C1484 C1483 1.524 . S
C1485 C1482 1.403 . S
C1485 C1486 1.392 . S
C1485 C1489 1.495 . S
C1486 C1485 1.392 . S
C1486 C1487 1.385 . S
C1486 C1488 1.478 . S
C1487 H1481 0.930 . S
C1487 C1483 1.400 . S
C1487 C1486 1.385 . S
C1488 C1486 1.478 . S
C1488 C1490 1.381 . S
C1488 C1494 1.383 . S
C1489 C1485 1.495 . S
C1489 H1495 0.959 . S
C1489 H1496 0.961 . S
C1489 H1497 0.960 . S
C1490 C1488 1.381 . S
C1490 C1491 1.394 . S
C1490 H1498 0.930 . S
C1491 C1490 1.394 . S
C1491 C1492 1.383 . S
C1491 H1499 0.929 . S
C1492 C1491 1.383 . S
C1492 C1493 1.377 . S
C1493 H1477 0.930 . S
C1493 C1492 1.377 . S
C1493 C1494 1.379 . S
C1494 H1478 0.931 . S
C1494 C1488 1.383 . S
C1494 C1493 1.379 . S
H1495 C1489 0.959 . S
H1496 C1489 0.961 . S
H1497 C1489 0.960 . S
H1498 C1490 0.930 . S
H1499 C1491 0.929 . S
H1500 C1508 0.929 1_545 S
H1501 C1510 0.988 . S
H1502 C1512 0.930 . S
H1503 C1515 0.929 . S
H1504 C1518 0.930 . S
H1505 C1520 0.960 . S
H1506 C1520 0.960 . S
H1507 C1520 0.960 . S
C1508 H1500 0.929 1_565 S
C1508 C1509 1.377 . S
C1508 C1510 1.373 1_565 S
C1509 C1508 1.377 . S
C1509 C1515 1.390 . S
C1510 H1501 0.988 . S
C1510 C1508 1.373 1_545 S
C1510 C1511 1.328 1_545 S
C1511 C1510 1.328 1_565 S
C1511 C1512 1.400 . S
C1511 C1516 1.490 . S
C1512 H1502 0.930 . S
C1512 C1511 1.400 . S
C1512 C1515 1.386 . S
H1513 C1529 0.930 . S
H1514 C1530 0.931 . S
C1515 H1503 0.929 . S
C1515 C1509 1.390 . S
C1515 C1512 1.386 . S
C1516 C1511 1.490 . S
C1516 C1518 1.395 1_565 S
C1516 C1519 1.403 . S
H1517 C1523 0.930 . S
C1518 H1504 0.930 . S
C1518 C1516 1.395 1_545 S
C1518 C1521 1.403 . S
C1519 C1516 1.403 . S
C1519 C1520 1.524 . S
C1519 C1523 1.400 . S
C1520 H1505 0.960 . S
C1520 H1506 0.960 . S
C1520 H1507 0.960 . S
C1520 C1519 1.524 . S
C1521 C1518 1.403 . S
C1521 C1522 1.392 1_545 S
C1521 C1525 1.495 . S
C1522 C1521 1.392 1_565 S
C1522 C1523 1.385 . S
C1522 C1524 1.478 1_565 S
C1523 H1517 0.930 . S
C1523 C1519 1.400 . S
C1523 C1522 1.385 . S
C1524 C1522 1.478 1_545 S
C1524 C1526 1.381 . S
C1524 C1530 1.383 1_545 S
C1525 C1521 1.495 . S
C1525 H1531 0.959 . S
C1525 H1532 0.961 . S
C1525 H1533 0.960 . S
C1526 C1524 1.381 . S
C1526 C1527 1.394 . S
C1526 H1534 0.930 . S
C1527 C1526 1.394 . S
C1527 C1528 1.383 . S
C1527 H1535 0.929 . S
C1528 C1527 1.383 . S
C1528 C1529 1.377 1_545 S
C1529 H1513 0.930 . S
C1529 C1528 1.377 1_565 S
C1529 C1530 1.379 . S
C1530 H1514 0.931 . S
C1530 C1524 1.383 1_565 S
C1530 C1529 1.379 . S
H1531 C1525 0.959 . S
H1532 C1525 0.961 . S
H1533 C1525 0.960 . S
H1534 C1526 0.930 . S
H1535 C1527 0.929 . S
H1536 C1544 0.929 . S
H1537 C1546 0.930 . S
H1538 C1548 0.930 . S
H1539 C1551 0.929 . S
H1540 C1554 0.930 . S
H1541 C1556 0.960 . S
H1542 C1556 0.960 . S
H1543 C1556 0.960 . S
C1544 H1536 0.929 . S
C1544 C1545 1.377 . S
C1544 C1546 1.384 . S
C1545 C1544 1.377 . S
C1545 C1551 1.390 . S
C1546 H1537 0.930 . S
C1546 C1544 1.384 . S
C1546 C1547 1.372 . S
C1547 C1546 1.372 . S
C1547 C1548 1.400 . S
C1547 C1552 1.490 . S
C1548 H1538 0.930 . S
C1548 C1547 1.400 . S
C1548 C1551 1.386 . S
H1549 C1565 0.930 . S
H1550 C1566 0.931 . S
C1551 H1539 0.929 . S
C1551 C1545 1.390 . S
C1551 C1548 1.386 . S
C1552 C1547 1.490 . S
C1552 C1554 1.395 . S
C1552 C1555 1.403 . S
H1553 C1559 0.930 . S
C1554 H1540 0.930 . S
C1554 C1552 1.395 . S
C1554 C1557 1.403 . S
C1555 C1552 1.403 . S
C1555 C1556 1.524 . S
C1555 C1559 1.400 . S
C1556 H1541 0.960 . S
C1556 H1542 0.960 . S
C1556 H1543 0.960 . S
C1556 C1555 1.524 . S
C1557 C1554 1.403 . S
C1557 C1558 1.392 . S
C1557 C1561 1.495 . S
C1558 C1557 1.392 . S
C1558 C1559 1.385 . S
C1558 C1560 1.478 . S
C1559 H1553 0.930 . S
C1559 C1555 1.400 . S
C1559 C1558 1.385 . S
C1560 C1558 1.478 . S
C1560 C1562 1.381 . S
C1560 C1566 1.383 . S
C1561 C1557 1.495 . S
C1561 H1567 0.959 . S
C1561 H1568 0.961 . S
C1561 H1569 0.960 . S
C1562 C1560 1.381 . S
C1562 C1563 1.394 . S
C1562 H1570 0.930 . S
C1563 C1562 1.394 . S
C1563 C1564 1.383 . S
C1563 H1571 0.929 . S
C1564 C1563 1.383 . S
C1564 C1565 1.377 . S
C1565 H1549 0.930 . S
C1565 C1564 1.377 . S
C1565 C1566 1.379 . S
C1566 H1550 0.931 . S
C1566 C1560 1.383 . S
C1566 C1565 1.379 . S
H1567 C1561 0.959 . S
H1568 C1561 0.961 . S
H1569 C1561 0.960 . S
H1570 C1562 0.930 . S
H1571 C1563 0.929 . S
H1572 C1580 0.929 . S
H1573 C1582 0.930 . S
H1574 C1584 0.930 . S
H1575 C1587 0.929 . S
H1576 C1590 0.930 . S
H1577 C1592 0.960 . S
H1578 C1592 0.960 . S
H1579 C1592 0.960 . S
C1580 H1572 0.929 . S
C1580 C1581 1.377 . S
C1580 C1582 1.384 . S
C1581 C1580 1.377 . S
C1581 C1587 1.390 . S
C1582 H1573 0.930 . S
C1582 C1580 1.384 . S
C1582 C1583 1.372 . S
C1583 C1582 1.372 . S
C1583 C1584 1.400 . S
C1583 C1588 1.490 . S
C1584 H1574 0.930 . S
C1584 C1583 1.400 . S
C1584 C1587 1.386 . S
H1585 C1601 0.930 . S
H1586 C1602 0.931 . S
C1587 H1575 0.929 . S
C1587 C1581 1.390 . S
C1587 C1584 1.386 . S
C1588 C1583 1.490 . S
C1588 C1590 1.395 . S
C1588 C1591 1.403 . S
H1589 C1595 0.930 . S
C1590 H1576 0.930 . S
C1590 C1588 1.395 . S
C1590 C1593 1.403 . S
C1591 C1588 1.403 . S
C1591 C1592 1.524 . S
C1591 C1595 1.400 . S
C1592 H1577 0.960 . S
C1592 H1578 0.960 . S
C1592 H1579 0.960 . S
C1592 C1591 1.524 . S
C1593 C1590 1.403 . S
C1593 C1594 1.392 . S
C1593 C1597 1.495 . S
C1594 C1593 1.392 . S
C1594 C1595 1.385 . S
C1594 C1596 1.478 . S
C1595 H1589 0.930 . S
C1595 C1591 1.400 . S
C1595 C1594 1.385 . S
C1596 C1594 1.478 . S
C1596 C1598 1.381 . S
C1596 C1602 1.383 . S
C1597 C1593 1.495 . S
C1597 H1603 0.959 . S
C1597 H1604 0.961 . S
C1597 H1605 0.960 . S
C1598 C1596 1.381 . S
C1598 C1599 1.394 . S
C1598 H1606 0.930 . S
C1599 C1598 1.394 . S
C1599 C1600 1.383 . S
C1599 H1607 0.929 . S
C1600 C1599 1.383 . S
C1600 C1601 1.377 . S
C1601 H1585 0.930 . S
C1601 C1600 1.377 . S
C1601 C1602 1.379 . S
C1602 H1586 0.931 . S
C1602 C1596 1.383 . S
C1602 C1601 1.379 . S
H1603 C1597 0.959 . S
H1604 C1597 0.961 . S
H1605 C1597 0.960 . S
H1606 C1598 0.930 . S
H1607 C1599 0.929 . S
H1608 C1616 0.929 . S
H1609 C1618 0.930 . S
H1610 C1620 0.930 . S
H1611 C1623 0.929 . S
H1612 C1626 0.930 . S
H1613 C1628 0.960 . S
H1614 C1628 0.960 . S
H1615 C1628 0.960 . S
C1616 H1608 0.929 . S
C1616 C1617 1.377 . S
C1616 C1618 1.384 . S
C1617 C1616 1.377 . S
C1617 C1623 1.390 . S
C1618 H1609 0.930 . S
C1618 C1616 1.384 . S
C1618 C1619 1.372 . S
C1619 C1618 1.372 . S
C1619 C1620 1.400 . S
C1619 C1624 1.490 . S
C1620 H1610 0.930 . S
C1620 C1619 1.400 . S
C1620 C1623 1.386 . S
H1621 C1637 0.930 . S
H1622 C1638 0.931 . S
C1623 H1611 0.929 . S
C1623 C1617 1.390 . S
C1623 C1620 1.386 . S
C1624 C1619 1.490 . S
C1624 C1626 1.395 . S
C1624 C1627 1.403 . S
H1625 C1631 0.930 . S
C1626 H1612 0.930 . S
C1626 C1624 1.395 . S
C1626 C1629 1.403 . S
C1627 C1624 1.403 . S
C1627 C1628 1.524 . S
C1627 C1631 1.400 . S
C1628 H1613 0.960 . S
C1628 H1614 0.960 . S
C1628 H1615 0.960 . S
C1628 C1627 1.524 . S
C1629 C1626 1.403 . S
C1629 C1630 1.392 . S
C1629 C1633 1.495 . S
C1630 C1629 1.392 . S
C1630 C1631 1.385 . S
C1630 C1632 1.478 . S
C1631 H1625 0.930 . S
C1631 C1627 1.400 . S
C1631 C1630 1.385 . S
C1632 C1630 1.478 . S
C1632 C1634 1.381 . S
C1632 C1638 1.383 . S
C1633 C1629 1.495 . S
C1633 H1639 0.959 . S
C1633 H1640 0.961 . S
C1633 H1641 0.960 . S
C1634 C1632 1.381 . S
C1634 C1635 1.394 . S
C1634 H1642 0.930 . S
C1635 C1634 1.394 . S
C1635 C1636 1.383 . S
C1635 H1643 0.929 . S
C1636 C1635 1.383 . S
C1636 C1637 1.377 . S
C1637 H1621 0.930 . S
C1637 C1636 1.377 . S
C1637 C1638 1.379 . S
C1638 H1622 0.931 . S
C1638 C1632 1.383 . S
C1638 C1637 1.379 . S
H1639 C1633 0.959 . S
H1640 C1633 0.961 . S
H1641 C1633 0.960 . S
H1642 C1634 0.930 . S
H1643 C1635 0.929 . S
H1644 C1652 0.929 . S
H1645 C1654 0.930 . S
H1646 C1656 0.930 1_545 S
H1647 C1659 0.929 1_545 S
H1648 C1662 0.930 . S
H1649 C1664 0.960 . S
H1650 C1664 0.960 . S
H1651 C1664 0.960 1_545 S
C1652 H1644 0.929 . S
C1652 C1653 1.377 . S
C1652 C1654 1.384 . S
C1653 C1652 1.377 . S
C1653 C1659 1.390 . S
C1654 H1645 0.930 . S
C1654 C1652 1.384 . S
C1654 C1655 1.372 . S
C1655 C1654 1.372 . S
C1655 C1656 1.400 . S
C1655 C1660 1.490 . S
C1656 H1646 0.930 1_565 S
C1656 C1655 1.400 . S
C1656 C1659 1.386 . S
H1657 C1673 0.930 . S
H1658 C1674 0.931 . S
C1659 H1647 0.929 1_565 S
C1659 C1653 1.390 . S
C1659 C1656 1.386 . S
C1660 C1655 1.490 . S
C1660 C1662 1.395 . S
C1660 C1663 1.403 . S
H1661 C1667 0.930 . S
C1662 H1648 0.930 . S
C1662 C1660 1.395 . S
C1662 C1665 1.403 . S
C1663 C1660 1.403 . S
C1663 C1664 1.524 . S
C1663 C1667 1.400 . S
C1664 H1649 0.960 . S
C1664 H1650 0.960 . S
C1664 H1651 0.960 1_565 S
C1664 C1663 1.524 . S
C1665 C1662 1.403 . S
C1665 C1666 1.392 . S
C1665 C1669 1.495 . S
C1666 C1665 1.392 . S
C1666 C1667 1.385 . S
C1666 C1668 1.478 . S
C1667 H1661 0.930 . S
C1667 C1663 1.400 . S
C1667 C1666 1.385 . S
C1668 C1666 1.478 . S
C1668 C1670 1.381 . S
C1668 C1674 1.383 1_565 S
C1669 C1665 1.495 . S
C1669 H1675 0.959 . S
C1669 H1676 0.961 . S
C1669 H1677 0.960 . S
C1670 C1668 1.381 . S
C1670 C1671 1.394 . S
C1670 H1678 0.930 . S
C1671 C1670 1.394 . S
C1671 C1672 1.383 . S
C1671 H1679 0.929 . S
C1672 C1671 1.383 . S
C1672 C1673 1.377 1_565 S
C1673 H1657 0.930 . S
C1673 C1672 1.377 1_545 S
C1673 C1674 1.379 . S
C1674 H1658 0.931 . S
C1674 C1668 1.383 1_545 S
C1674 C1673 1.379 . S
H1675 C1669 0.959 . S
H1676 C1669 0.961 . S
H1677 C1669 0.960 . S
H1678 C1670 0.930 . S
H1679 C1671 0.929 . S
H1680 C1688 0.929 . S
H1681 C1690 0.930 . S
H1682 C1692 0.930 . S
H1683 C1695 0.929 . S
H1684 C1698 0.930 . S
H1685 C1700 0.960 . S
H1686 C1700 0.960 . S
H1687 C1700 0.960 . S
C1688 H1680 0.929 . S
C1688 C1689 1.377 . S
C1688 C1690 1.384 . S
C1689 C1688 1.377 . S
C1689 C1695 1.390 . S
C1690 H1681 0.930 . S
C1690 C1688 1.384 . S
C1690 C1691 1.372 . S
C1691 C1690 1.372 . S
C1691 C1692 1.400 . S
C1691 C1696 1.490 . S
C1692 H1682 0.930 . S
C1692 C1691 1.400 . S
C1692 C1695 1.386 . S
H1693 C1709 0.930 . S
H1694 C1710 0.931 . S
C1695 H1683 0.929 . S
C1695 C1689 1.390 . S
C1695 C1692 1.386 . S
C1696 C1691 1.490 . S
C1696 C1698 1.395 . S
C1696 C1699 1.403 . S
H1697 C1703 0.930 . S
C1698 H1684 0.930 . S
C1698 C1696 1.395 . S
C1698 C1701 1.403 . S
C1699 C1696 1.403 . S
C1699 C1700 1.524 . S
C1699 C1703 1.400 . S
C1700 H1685 0.960 . S
C1700 H1686 0.960 . S
C1700 H1687 0.960 . S
C1700 C1699 1.524 . S
C1701 C1698 1.403 . S
C1701 C1702 1.392 . S
C1701 C1705 1.495 . S
C1702 C1701 1.392 . S
C1702 C1703 1.385 . S
C1702 C1704 1.478 . S
C1703 H1697 0.930 . S
C1703 C1699 1.400 . S
C1703 C1702 1.385 . S
C1704 C1702 1.478 . S
C1704 C1706 1.381 . S
C1704 C1710 1.383 . S
C1705 C1701 1.495 . S
C1705 H1711 0.959 . S
C1705 H1712 0.961 . S
C1705 H1713 0.960 . S
C1706 C1704 1.381 . S
C1706 C1707 1.394 . S
C1706 H1714 0.930 . S
C1707 C1706 1.394 . S
C1707 C1708 1.383 . S
C1707 H1715 0.929 . S
C1708 C1707 1.383 . S
C1708 C1709 1.377 . S
C1709 H1693 0.930 . S
C1709 C1708 1.377 . S
C1709 C1710 1.379 . S
C1710 H1694 0.931 . S
C1710 C1704 1.383 . S
C1710 C1709 1.379 . S
H1711 C1705 0.959 . S
H1712 C1705 0.961 . S
H1713 C1705 0.960 . S
H1714 C1706 0.930 . S
H1715 C1707 0.929 . S
H1716 C1724 0.929 . S
H1717 C1726 0.930 . S
H1718 C1728 0.930 . S
H1719 C1731 0.929 . S
H1720 C1734 0.930 . S
H1721 C1736 0.960 . S
H1722 C1736 0.960 . S
H1723 C1736 0.960 . S
C1724 H1716 0.929 . S
C1724 C1725 1.377 . S
C1724 C1726 1.384 . S
C1725 C1724 1.377 . S
C1725 C1731 1.390 . S
C1726 H1717 0.930 . S
C1726 C1724 1.384 . S
C1726 C1727 1.372 . S
C1727 C1726 1.372 . S
C1727 C1728 1.400 . S
C1727 C1732 1.490 . S
C1728 H1718 0.930 . S
C1728 C1727 1.400 . S
C1728 C1731 1.386 . S
H1729 C1745 0.930 . S
H1730 C1746 0.931 . S
C1731 H1719 0.929 . S
C1731 C1725 1.390 . S
C1731 C1728 1.386 . S
C1732 C1727 1.490 . S
C1732 C1734 1.395 . S
C1732 C1735 1.403 . S
H1733 C1739 0.930 . S
C1734 H1720 0.930 . S
C1734 C1732 1.395 . S
C1734 C1737 1.403 . S
C1735 C1732 1.403 . S
C1735 C1736 1.524 . S
C1735 C1739 1.400 . S
C1736 H1721 0.960 . S
C1736 H1722 0.960 . S
C1736 H1723 0.960 . S
C1736 C1735 1.524 . S
C1737 C1734 1.403 . S
C1737 C1738 1.392 . S
C1737 C1741 1.495 . S
C1738 C1737 1.392 . S
C1738 C1739 1.385 . S
C1738 C1740 1.478 . S
C1739 H1733 0.930 . S
C1739 C1735 1.400 . S
C1739 C1738 1.385 . S
C1740 C1738 1.478 . S
C1740 C1742 1.381 . S
C1740 C1746 1.383 . S
C1741 C1737 1.495 . S
C1741 H1747 0.959 . S
C1741 H1748 0.961 . S
C1741 H1749 0.960 . S
C1742 C1740 1.381 . S
C1742 C1743 1.394 . S
C1742 H1750 0.930 . S
C1743 C1742 1.394 . S
C1743 C1744 1.383 . S
C1743 H1751 0.929 . S
C1744 C1743 1.383 . S
C1744 C1745 1.377 . S
C1745 H1729 0.930 . S
C1745 C1744 1.377 . S
C1745 C1746 1.379 . S
C1746 H1730 0.931 . S
C1746 C1740 1.383 . S
C1746 C1745 1.379 . S
H1747 C1741 0.959 . S
H1748 C1741 0.961 . S
H1749 C1741 0.960 . S
H1750 C1742 0.930 . S
H1751 C1743 0.929 . S
H1752 C1760 0.929 . S
H1753 C1762 0.930 . S
H1754 C1764 0.930 . S
H1755 C1767 0.929 . S
H1756 C1770 0.930 . S
H1757 C1772 0.960 . S
H1758 C1772 0.960 . S
H1759 C1772 0.960 . S
C1760 H1752 0.929 . S
C1760 C1761 1.377 . S
C1760 C1762 1.384 . S
C1761 C1760 1.377 . S
C1761 C1767 1.390 . S
C1762 H1753 0.930 . S
C1762 C1760 1.384 . S
C1762 C1763 1.372 . S
C1763 C1762 1.372 . S
C1763 C1764 1.400 . S
C1763 C1768 1.490 . S
C1764 H1754 0.930 . S
C1764 C1763 1.400 . S
C1764 C1767 1.386 . S
H1765 C1781 0.930 . S
H1766 C1782 0.931 . S
C1767 H1755 0.929 . S
C1767 C1761 1.390 . S
C1767 C1764 1.386 . S
C1768 C1763 1.490 . S
C1768 C1770 1.395 . S
C1768 C1771 1.403 . S
H1769 C1775 0.930 . S
C1770 H1756 0.930 . S
C1770 C1768 1.395 . S
C1770 C1773 1.403 . S
C1771 C1768 1.403 . S
C1771 C1772 1.524 . S
C1771 C1775 1.400 . S
C1772 H1757 0.960 . S
C1772 H1758 0.960 . S
C1772 H1759 0.960 . S
C1772 C1771 1.524 . S
C1773 C1770 1.403 . S
C1773 C1774 1.392 . S
C1773 C1777 1.495 . S
C1774 C1773 1.392 . S
C1774 C1775 1.385 . S
C1774 C1776 1.478 . S
C1775 H1769 0.930 . S
C1775 C1771 1.400 . S
C1775 C1774 1.385 . S
C1776 C1774 1.478 . S
C1776 C1778 1.381 . S
C1776 C1782 1.383 . S
C1777 C1773 1.495 . S
C1777 H1783 0.959 . S
C1777 H1784 0.961 . S
C1777 H1785 0.960 . S
C1778 C1776 1.381 . S
C1778 C1779 1.394 . S
C1778 H1786 0.930 . S
C1779 C1778 1.394 . S
C1779 C1780 1.383 . S
C1779 H1787 0.929 . S
C1780 C1779 1.383 . S
C1780 C1781 1.377 . S
C1781 H1765 0.930 . S
C1781 C1780 1.377 . S
C1781 C1782 1.379 . S
C1782 H1766 0.931 . S
C1782 C1776 1.383 . S
C1782 C1781 1.379 . S
H1783 C1777 0.959 . S
H1784 C1777 0.961 . S
H1785 C1777 0.960 . S
H1786 C1778 0.930 . S
H1787 C1779 0.929 . S
H1788 C1796 0.929 . S
H1789 C1798 0.930 . S
H1790 C1800 0.930 . S
H1791 C1803 0.929 . S
H1792 C1806 0.930 . S
H1793 C1808 0.960 . S
H1794 C1808 0.960 . S
H1795 C1808 0.960 . S
C1796 H1788 0.929 . S
C1796 C1797 1.377 . S
C1796 C1798 1.384 . S
C1797 C1796 1.377 . S
C1797 C1803 1.390 . S
C1798 H1789 0.930 . S
C1798 C1796 1.384 . S
C1798 C1799 1.372 . S
C1799 C1798 1.372 . S
C1799 C1800 1.400 . S
C1799 C1804 1.490 . S
C1800 H1790 0.930 . S
C1800 C1799 1.400 . S
C1800 C1803 1.386 . S
H1801 C1817 0.930 . S
H1802 C1818 0.931 . S
C1803 H1791 0.929 . S
C1803 C1797 1.390 . S
C1803 C1800 1.386 . S
C1804 C1799 1.490 . S
C1804 C1806 1.395 . S
C1804 C1807 1.403 . S
H1805 C1811 0.930 . S
C1806 H1792 0.930 . S
C1806 C1804 1.395 . S
C1806 C1809 1.403 . S
C1807 C1804 1.403 . S
C1807 C1808 1.524 . S
C1807 C1811 1.400 . S
C1808 H1793 0.960 . S
C1808 H1794 0.960 . S
C1808 H1795 0.960 . S
C1808 C1807 1.524 . S
C1809 C1806 1.403 . S
C1809 C1810 1.392 . S
C1809 C1813 1.495 . S
C1810 C1809 1.392 . S
C1810 C1811 1.385 . S
C1810 C1812 1.478 . S
C1811 H1805 0.930 . S
C1811 C1807 1.400 . S
C1811 C1810 1.385 . S
C1812 C1810 1.478 . S
C1812 C1814 1.381 . S
C1812 C1818 1.383 . S
C1813 C1809 1.495 . S
C1813 H1819 0.959 . S
C1813 H1820 0.961 . S
C1813 H1821 0.960 . S
C1814 C1812 1.381 . S
C1814 C1815 1.394 . S
C1814 H1822 0.930 . S
C1815 C1814 1.394 . S
C1815 C1816 1.383 . S
C1815 H1823 0.929 . S
C1816 C1815 1.383 . S
C1816 C1817 1.377 . S
C1817 H1801 0.930 . S
C1817 C1816 1.377 . S
C1817 C1818 1.379 . S
C1818 H1802 0.931 . S
C1818 C1812 1.383 . S
C1818 C1817 1.379 . S
H1819 C1813 0.959 . S
H1820 C1813 0.961 . S
H1821 C1813 0.960 . S
H1822 C1814 0.930 . S
H1823 C1815 0.929 . S
H1824 C1832 0.929 . S
H1825 C1834 0.930 . S
H1826 C1836 0.930 . S
H1827 C1839 0.929 . S
H1828 C1842 0.930 . S
H1829 C1844 0.960 . S
H1830 C1844 0.960 . S
H1831 C1844 0.960 . S
C1832 H1824 0.929 . S
C1832 C1833 1.377 . S
C1832 C1834 1.384 . S
C1833 C1832 1.377 . S
C1833 C1839 1.390 . S
C1834 H1825 0.930 . S
C1834 C1832 1.384 . S
C1834 C1835 1.372 . S
C1835 C1834 1.372 . S
C1835 C1836 1.400 . S
C1835 C1840 1.490 . S
C1836 H1826 0.930 . S
C1836 C1835 1.400 . S
C1836 C1839 1.386 . S
H1837 C1853 0.930 . S
H1838 C1854 0.931 . S
C1839 H1827 0.929 . S
C1839 C1833 1.390 . S
C1839 C1836 1.386 . S
C1840 C1835 1.490 . S
C1840 C1842 1.395 . S
C1840 C1843 1.403 . S
H1841 C1847 0.930 . S
C1842 H1828 0.930 . S
C1842 C1840 1.395 . S
C1842 C1845 1.403 . S
C1843 C1840 1.403 . S
C1843 C1844 1.524 . S
C1843 C1847 1.400 . S
C1844 H1829 0.960 . S
C1844 H1830 0.960 . S
C1844 H1831 0.960 . S
C1844 C1843 1.524 . S
C1845 C1842 1.403 . S
C1845 C1846 1.392 . S
C1845 C1849 1.495 . S
C1846 C1845 1.392 . S
C1846 C1847 1.385 . S
C1846 C1848 1.478 . S
C1847 H1841 0.930 . S
C1847 C1843 1.400 . S
C1847 C1846 1.385 . S
C1848 C1846 1.478 . S
C1848 C1850 1.381 . S
C1848 C1854 1.383 . S
C1849 C1845 1.495 . S
C1849 H1855 0.959 . S
C1849 H1856 0.961 . S
C1849 H1857 0.960 . S
C1850 C1848 1.381 . S
C1850 C1851 1.394 . S
C1850 H1858 0.930 . S
C1851 C1850 1.394 . S
C1851 C1852 1.383 . S
C1851 H1859 0.929 . S
C1852 C1851 1.383 . S
C1852 C1853 1.377 . S
C1853 H1837 0.930 . S
C1853 C1852 1.377 . S
C1853 C1854 1.379 . S
C1854 H1838 0.931 . S
C1854 C1848 1.383 . S
C1854 C1853 1.379 . S
H1855 C1849 0.959 . S
H1856 C1849 0.961 . S
H1857 C1849 0.960 . S
H1858 C1850 0.930 . S
H1859 C1851 0.929 . S
H1860 C1868 0.929 . S
H1861 C1870 0.930 . S
H1862 C1872 0.930 1_655 S
H1863 C1875 0.929 . S
H1864 C1878 0.930 . S
H1865 C1880 0.960 . S
H1866 C1880 0.960 1_455 S
H1867 C1880 0.960 . S
C1868 H1860 0.929 . S
C1868 C1869 1.377 . S
C1868 C1870 1.384 . S
C1869 C1868 1.377 . S
C1869 C1875 1.390 . S
C1870 H1861 0.930 . S
C1870 C1868 1.384 . S
C1870 C1871 1.372 . S
C1871 C1870 1.372 . S
C1871 C1872 1.400 . S
C1871 C1876 1.490 . S
C1872 H1862 0.930 1_455 S
C1872 C1871 1.400 . S
C1872 C1875 1.386 . S
H1873 C1889 0.930 . S
H1874 C1890 0.881 1_655 S
C1875 H1863 0.929 . S
C1875 C1869 1.390 . S
C1875 C1872 1.386 . S
C1876 C1871 1.490 . S
C1876 C1878 1.395 . S
C1876 C1879 1.403 . S
H1877 C1883 0.947 . S
C1878 H1864 0.930 . S
C1878 C1876 1.395 . S
C1878 C1881 1.403 . S
C1879 C1876 1.403 . S
C1879 C1880 1.524 1_455 S
C1879 C1883 1.400 . S
C1880 H1865 0.960 . S
C1880 H1866 0.960 1_655 S
C1880 H1867 0.960 . S
C1880 C1879 1.524 1_655 S
C1881 C1878 1.403 . S
C1881 C1882 1.392 . S
C1881 C1885 1.495 . S
C1882 C1881 1.392 . S
C1882 C1883 1.385 . S
C1882 C1884 1.478 . S
C1883 H1877 0.947 . S
C1883 C1879 1.400 . S
C1883 C1882 1.385 . S
C1884 C1882 1.478 . S
C1884 C1886 1.381 . S
C1884 C1890 1.444 . S
C1885 C1881 1.495 . S
C1885 H1891 0.959 . S
C1885 H1892 0.961 . S
C1885 H1893 0.960 . S
C1886 C1884 1.381 . S
C1886 C1887 1.394 . S
C1886 H1894 0.930 . S
C1887 C1886 1.394 . S
C1887 C1888 1.383 . S
C1887 H1895 0.929 . S
C1888 C1887 1.383 . S
C1888 C1889 1.377 1_455 S
C1889 H1873 0.930 . S
C1889 C1888 1.377 1_655 S
C1889 C1890 1.371 1_655 S
C1890 H1874 0.881 1_455 S
C1890 C1884 1.444 . S
C1890 C1889 1.371 1_455 S
H1891 C1885 0.959 . S
H1892 C1885 0.961 . S
H1893 C1885 0.960 . S
H1894 C1886 0.930 . S
H1895 C1887 0.929 . S
H1896 C1904 0.929 . S
H1897 C1906 0.930 . S
H1898 C1908 0.930 . S
H1899 C1911 0.929 . S
H1900 C1914 0.930 . S
H1901 C1916 0.960 . S
H1902 C1916 0.960 . S
H1903 C1916 0.960 . S
C1904 H1896 0.929 . S
C1904 C1905 1.377 . S
C1904 C1906 1.384 . S
C1905 C1904 1.377 . S
C1905 C1911 1.390 . S
C1906 H1897 0.930 . S
C1906 C1904 1.384 . S
C1906 C1907 1.372 . S
C1907 C1906 1.372 . S
C1907 C1908 1.400 . S
C1907 C1912 1.490 . S
C1908 H1898 0.930 . S
C1908 C1907 1.400 . S
C1908 C1911 1.386 . S
H1909 C1925 0.930 . S
H1910 C1926 0.931 . S
C1911 H1899 0.929 . S
C1911 C1905 1.390 . S
C1911 C1908 1.386 . S
C1912 C1907 1.490 . S
C1912 C1914 1.395 . S
C1912 C1915 1.403 . S
H1913 C1919 0.930 . S
C1914 H1900 0.930 . S
C1914 C1912 1.395 . S
C1914 C1917 1.403 . S
C1915 C1912 1.403 . S
C1915 C1916 1.524 . S
C1915 C1919 1.400 . S
C1916 H1901 0.960 . S
C1916 H1902 0.960 . S
C1916 H1903 0.960 . S
C1916 C1915 1.524 . S
C1917 C1914 1.403 . S
C1917 C1918 1.392 . S
C1917 C1921 1.495 . S
C1918 C1917 1.392 . S
C1918 C1919 1.385 . S
C1918 C1920 1.478 . S
C1919 H1913 0.930 . S
C1919 C1915 1.400 . S
C1919 C1918 1.385 . S
C1920 C1918 1.478 . S
C1920 C1922 1.381 . S
C1920 C1926 1.383 . S
C1921 C1917 1.495 . S
C1921 H1927 0.959 . S
C1921 H1928 0.961 . S
C1921 H1929 0.960 . S
C1922 C1920 1.381 . S
C1922 C1923 1.394 . S
C1922 H1930 0.930 . S
C1923 C1922 1.394 . S
C1923 C1924 1.383 . S
C1923 H1931 0.929 . S
C1924 C1923 1.383 . S
C1924 C1925 1.377 . S
C1925 H1909 0.930 . S
C1925 C1924 1.377 . S
C1925 C1926 1.379 . S
C1926 H1910 0.931 . S
C1926 C1920 1.383 . S
C1926 C1925 1.379 . S
H1927 C1921 0.959 . S
H1928 C1921 0.961 . S
H1929 C1921 0.960 . S
H1930 C1922 0.930 . S
H1931 C1923 0.929 . S
H1932 C1940 0.929 . S
H1933 C1942 0.930 . S
H1934 C1944 0.930 1_455 S
H1935 C1947 0.929 1_455 S
H1936 C1950 0.930 . S
H1937 C1952 0.960 . S
H1938 C1952 0.960 . S
H1939 C1952 0.960 . S
C1940 H1932 0.929 . S
C1940 C1941 1.377 . S
C1940 C1942 1.384 . S
C1941 C1940 1.377 . S
C1941 C1947 1.390 . S
C1942 H1933 0.930 . S
C1942 C1940 1.384 . S
C1942 C1943 1.372 . S
C1943 C1942 1.372 . S
C1943 C1944 1.400 . S
C1943 C1948 1.490 . S
C1944 H1934 0.930 1_655 S
C1944 C1943 1.400 . S
C1944 C1947 1.386 . S
H1945 C1961 0.930 . S
H1946 C1962 0.931 . S
C1947 H1935 0.929 1_655 S
C1947 C1941 1.390 . S
C1947 C1944 1.386 . S
C1948 C1943 1.490 . S
C1948 C1950 1.395 . S
C1948 C1951 1.403 . S
H1949 C1955 0.930 . S
C1950 H1936 0.930 . S
C1950 C1948 1.395 . S
C1950 C1953 1.403 . S
C1951 C1948 1.403 . S
C1951 C1952 1.524 . S
C1951 C1955 1.400 . S
C1952 H1937 0.960 . S
C1952 H1938 0.960 . S
C1952 H1939 0.960 . S
C1952 C1951 1.524 . S
C1953 C1950 1.403 . S
C1953 C1954 1.392 . S
C1953 C1957 1.497 . S
C1954 C1953 1.392 . S
C1954 C1955 1.385 . S
C1954 C1956 1.478 . S
C1955 H1949 0.930 . S
C1955 C1951 1.400 . S
C1955 C1954 1.385 . S
C1956 C1954 1.478 . S
C1956 C1958 1.381 . S
C1956 C1962 1.383 1_655 S
C1957 C1953 1.497 . S
C1957 H1963 0.959 1_655 S
C1957 H1964 0.956 1_655 S
C1957 H1965 0.963 . S
C1958 C1956 1.381 . S
C1958 C1959 1.394 . S
C1958 H1966 0.930 . S
C1959 C1958 1.394 . S
C1959 C1960 1.337 1_655 S
C1959 H1967 0.929 . S
C1960 C1959 1.337 1_455 S
C1960 C1961 1.419 . S
C1961 H1945 0.930 . S
C1961 C1960 1.419 . S
C1961 C1962 1.379 . S
C1962 H1946 0.931 . S
C1962 C1956 1.383 1_455 S
C1962 C1961 1.379 . S
H1963 C1957 0.959 1_455 S
H1964 C1957 0.956 1_455 S
H1965 C1957 0.963 . S
H1966 C1958 0.930 . S
H1967 C1959 0.929 . S
H1968 C1976 0.929 . S
H1969 C1978 0.930 . S
H1970 C1980 0.930 . S
H1971 C1983 0.929 . S
H1972 C1986 0.930 . S
H1973 C1988 0.960 . S
H1974 C1988 0.960 . S
H1975 C1988 0.960 . S
C1976 H1968 0.929 . S
C1976 C1977 1.377 . S
C1976 C1978 1.384 . S
C1977 C1976 1.377 . S
C1977 C1983 1.390 . S
C1978 H1969 0.930 . S
C1978 C1976 1.384 . S
C1978 C1979 1.372 . S
C1979 C1978 1.372 . S
C1979 C1980 1.400 . S
C1979 C1984 1.490 . S
C1980 H1970 0.930 . S
C1980 C1979 1.400 . S
C1980 C1983 1.386 . S
H1981 C1997 0.930 . S
H1982 C1998 0.931 . S
C1983 H1971 0.929 . S
C1983 C1977 1.390 . S
C1983 C1980 1.386 . S
C1984 C1979 1.490 . S
C1984 C1986 1.395 . S
C1984 C1987 1.403 . S
H1985 C1991 0.930 . S
C1986 H1972 0.930 . S
C1986 C1984 1.395 . S
C1986 C1989 1.403 . S
C1987 C1984 1.403 . S
C1987 C1988 1.524 . S
C1987 C1991 1.400 . S
C1988 H1973 0.960 . S
C1988 H1974 0.960 . S
C1988 H1975 0.960 . S
C1988 C1987 1.524 . S
C1989 C1986 1.403 . S
C1989 C1990 1.392 . S
C1989 C1993 1.495 . S
C1990 C1989 1.392 . S
C1990 C1991 1.385 . S
C1990 C1992 1.478 . S
C1991 H1985 0.930 . S
C1991 C1987 1.400 . S
C1991 C1990 1.385 . S
C1992 C1990 1.478 . S
C1992 C1994 1.381 . S
C1992 C1998 1.383 . S
C1993 C1989 1.495 . S
C1993 H1999 0.959 . S
C1993 H2000 0.961 . S
C1993 H2001 0.960 . S
C1994 C1992 1.381 . S
C1994 C1995 1.394 . S
C1994 H2002 0.930 . S
C1995 C1994 1.394 . S
C1995 C1996 1.383 . S
C1995 H2003 0.929 . S
C1996 C1995 1.383 . S
C1996 C1997 1.377 . S
C1997 H1981 0.930 . S
C1997 C1996 1.377 . S
C1997 C1998 1.379 . S
C1998 H1982 0.931 . S
C1998 C1992 1.383 . S
C1998 C1997 1.379 . S
H1999 C1993 0.959 . S
H2000 C1993 0.961 . S
H2001 C1993 0.960 . S
H2002 C1994 0.930 . S
H2003 C1995 0.929 . S
H2004 C2012 0.929 . S
H2005 C2014 0.930 . S
H2006 C2016 0.930 . S
H2007 C2019 0.929 . S
H2008 C2022 0.930 . S
H2009 C2024 0.960 . S
H2010 C2024 0.960 . S
H2011 C2024 0.960 . S
C2012 H2004 0.929 . S
C2012 C2013 1.377 . S
C2012 C2014 1.384 . S
C2013 C2012 1.377 . S
C2013 C2019 1.390 . S
C2014 H2005 0.930 . S
C2014 C2012 1.384 . S
C2014 C2015 1.372 . S
C2015 C2014 1.372 . S
C2015 C2016 1.400 . S
C2015 C2020 1.490 . S
C2016 H2006 0.930 . S
C2016 C2015 1.400 . S
C2016 C2019 1.386 . S
H2017 C2033 0.930 . S
H2018 C2034 0.931 . S
C2019 H2007 0.929 . S
C2019 C2013 1.390 . S
C2019 C2016 1.386 . S
C2020 C2015 1.490 . S
C2020 C2022 1.395 . S
C2020 C2023 1.403 . S
H2021 C2027 0.930 . S
C2022 H2008 0.930 . S
C2022 C2020 1.395 . S
C2022 C2025 1.403 . S
C2023 C2020 1.403 . S
C2023 C2024 1.524 . S
C2023 C2027 1.400 . S
C2024 H2009 0.960 . S
C2024 H2010 0.960 . S
C2024 H2011 0.960 . S
C2024 C2023 1.524 . S
C2025 C2022 1.403 . S
C2025 C2026 1.392 . S
C2025 C2029 1.495 . S
C2026 C2025 1.392 . S
C2026 C2027 1.385 . S
C2026 C2028 1.478 . S
C2027 H2021 0.930 . S
C2027 C2023 1.400 . S
C2027 C2026 1.385 . S
C2028 C2026 1.478 . S
C2028 C2030 1.381 . S
C2028 C2034 1.383 . S
C2029 C2025 1.495 . S
C2029 H2035 0.959 . S
C2029 H2036 0.961 . S
C2029 H2037 0.960 . S
C2030 C2028 1.381 . S
C2030 C2031 1.394 . S
C2030 H2038 0.930 . S
C2031 C2030 1.394 . S
C2031 C2032 1.383 . S
C2031 H2039 0.929 . S
C2032 C2031 1.383 . S
C2032 C2033 1.377 . S
C2033 H2017 0.930 . S
C2033 C2032 1.377 . S
C2033 C2034 1.379 . S
C2034 H2018 0.931 . S
C2034 C2028 1.383 . S
C2034 C2033 1.379 . S
H2035 C2029 0.959 . S
H2036 C2029 0.961 . S
H2037 C2029 0.960 . S
H2038 C2030 0.930 . S
H2039 C2031 0.929 . S
H2040 C2048 0.931 1_554 S
H2041 C2050 0.930 . S
H2042 C2052 0.930 . S
H2043 C2055 0.929 . S
H2044 C2058 0.930 . S
H2045 C2060 0.960 . S
H2046 C2060 0.960 . S
H2047 C2060 0.960 . S
C2048 H2040 0.931 1_556 S
C2048 C2049 1.376 . S
C2048 C2050 1.384 1_556 S
C2049 C2048 1.376 . S
C2049 C2055 1.390 . S
C2050 H2041 0.930 . S
C2050 C2048 1.384 1_554 S
C2050 C2051 1.372 1_554 S
C2051 C2050 1.372 1_556 S
C2051 C2052 1.400 . S
C2051 C2056 1.490 . S
C2052 H2042 0.930 . S
C2052 C2051 1.400 . S
C2052 C2055 1.386 . S
H2053 C2069 0.930 . S
H2054 C2070 0.931 . S
C2055 H2043 0.929 . S
C2055 C2049 1.390 . S
C2055 C2052 1.386 . S
C2056 C2051 1.490 . S
C2056 C2058 1.395 . S
C2056 C2059 1.403 . S
H2057 C2063 0.930 . S
C2058 H2044 0.930 . S
C2058 C2056 1.395 . S
C2058 C2061 1.409 . S
C2059 C2056 1.403 . S
C2059 C2060 1.524 . S
C2059 C2063 1.400 . S
C2060 H2045 0.960 . S
C2060 H2046 0.960 . S
C2060 H2047 0.960 . S
C2060 C2059 1.524 . S
C2061 C2058 1.409 . S
C2061 C2062 1.395 . S
C2061 C2065 1.489 1_556 S
C2062 C2061 1.395 . S
C2062 C2063 1.385 . S
C2062 C2064 1.474 1_556 S
C2063 H2057 0.930 . S
C2063 C2059 1.400 . S
C2063 C2062 1.385 . S
C2064 C2062 1.474 1_554 S
C2064 C2066 1.406 . S
C2064 C2070 1.362 1_554 S
C2065 C2061 1.489 1_554 S
C2065 H2071 0.959 . S
C2065 H2072 0.961 1_554 S
C2065 H2073 0.960 . S
C2066 C2064 1.406 . S
C2066 C2067 1.394 . S
C2066 H2074 0.930 . S
C2067 C2066 1.394 . S
C2067 C2068 1.383 . S
C2067 H2075 0.929 . S
C2068 C2067 1.383 . S
C2068 C2069 1.377 1_554 S
C2069 H2053 0.930 . S
C2069 C2068 1.377 1_556 S
C2069 C2070 1.379 . S
C2070 H2054 0.931 . S
C2070 C2064 1.362 1_556 S
C2070 C2069 1.379 . S
H2071 C2065 0.959 . S
H2072 C2065 0.961 1_556 S
H2073 C2065 0.960 . S
H2074 C2066 0.930 . S
H2075 C2067 0.929 . S
H2076 C2084 0.929 . S
H2077 C2086 0.930 . S
H2078 C2088 0.930 . S
H2079 C2091 0.929 . S
H2080 C2094 0.930 . S
H2081 C2096 0.960 . S
H2082 C2096 0.960 . S
H2083 C2096 0.960 . S
C2084 H2076 0.929 . S
C2084 C2085 1.377 . S
C2084 C2086 1.384 . S
C2085 C2084 1.377 . S
C2085 C2091 1.390 . S
C2086 H2077 0.930 . S
C2086 C2084 1.384 . S
C2086 C2087 1.372 . S
C2087 C2086 1.372 . S
C2087 C2088 1.400 . S
C2087 C2092 1.490 . S
C2088 H2078 0.930 . S
C2088 C2087 1.400 . S
C2088 C2091 1.386 . S
H2089 C2105 0.930 . S
H2090 C2106 0.931 . S
C2091 H2079 0.929 . S
C2091 C2085 1.390 . S
C2091 C2088 1.386 . S
C2092 C2087 1.490 . S
C2092 C2094 1.395 . S
C2092 C2095 1.403 . S
H2093 C2099 0.930 . S
C2094 H2080 0.930 . S
C2094 C2092 1.395 . S
C2094 C2097 1.403 . S
C2095 C2092 1.403 . S
C2095 C2096 1.524 . S
C2095 C2099 1.400 . S
C2096 H2081 0.960 . S
C2096 H2082 0.960 . S
C2096 H2083 0.960 . S
C2096 C2095 1.524 . S
C2097 C2094 1.403 . S
C2097 C2098 1.392 . S
C2097 C2101 1.495 . S
C2098 C2097 1.392 . S
C2098 C2099 1.385 . S
C2098 C2100 1.478 . S
C2099 H2093 0.930 . S
C2099 C2095 1.400 . S
C2099 C2098 1.385 . S
C2100 C2098 1.478 . S
C2100 C2102 1.381 . S
C2100 C2106 1.383 . S
C2101 C2097 1.495 . S
C2101 H2107 0.959 . S
C2101 H2108 0.961 . S
C2101 H2109 0.960 . S
C2102 C2100 1.381 . S
C2102 C2103 1.394 . S
C2102 H2110 0.930 . S
C2103 C2102 1.394 . S
C2103 C2104 1.383 . S
C2103 H2111 0.929 . S
C2104 C2103 1.383 . S
C2104 C2105 1.377 . S
C2105 H2089 0.930 . S
C2105 C2104 1.377 . S
C2105 C2106 1.379 . S
C2106 H2090 0.931 . S
C2106 C2100 1.383 . S
C2106 C2105 1.379 . S
H2107 C2101 0.959 . S
H2108 C2101 0.961 . S
H2109 C2101 0.960 . S
H2110 C2102 0.930 . S
H2111 C2103 0.929 . S
H2112 C2120 0.929 . S
H2113 C2122 0.930 . S
H2114 C2124 0.930 . S
H2115 C2127 0.929 . S
H2116 C2130 0.930 . S
H2117 C2132 0.960 . S
H2118 C2132 0.960 . S
H2119 C2132 0.960 . S
C2120 H2112 0.929 . S
C2120 C2121 1.377 . S
C2120 C2122 1.384 . S
C2121 C2120 1.377 . S
C2121 C2127 1.390 . S
C2122 H2113 0.930 . S
C2122 C2120 1.384 . S
C2122 C2123 1.372 . S
C2123 C2122 1.372 . S
C2123 C2124 1.400 . S
C2123 C2128 1.490 . S
C2124 H2114 0.930 . S
C2124 C2123 1.400 . S
C2124 C2127 1.386 . S
H2125 C2141 0.930 . S
H2126 C2142 0.931 . S
C2127 H2115 0.929 . S
C2127 C2121 1.390 . S
C2127 C2124 1.386 . S
C2128 C2123 1.490 . S
C2128 C2130 1.395 . S
C2128 C2131 1.403 . S
H2129 C2135 0.930 . S
C2130 H2116 0.930 . S
C2130 C2128 1.395 . S
C2130 C2133 1.403 . S
C2131 C2128 1.403 . S
C2131 C2132 1.524 . S
C2131 C2135 1.400 . S
C2132 H2117 0.960 . S
C2132 H2118 0.960 . S
C2132 H2119 0.960 . S
C2132 C2131 1.524 . S
C2133 C2130 1.403 . S
C2133 C2134 1.392 . S
C2133 C2137 1.495 . S
C2134 C2133 1.392 . S
C2134 C2135 1.385 . S
C2134 C2136 1.478 . S
C2135 H2129 0.930 . S
C2135 C2131 1.400 . S
C2135 C2134 1.385 . S
C2136 C2134 1.478 . S
C2136 C2138 1.381 . S
C2136 C2142 1.383 . S
C2137 C2133 1.495 . S
C2137 H2143 0.959 . S
C2137 H2144 0.961 . S
C2137 H2145 0.960 . S
C2138 C2136 1.381 . S
C2138 C2139 1.394 . S
C2138 H2146 0.930 . S
C2139 C2138 1.394 . S
C2139 C2140 1.383 . S
C2139 H2147 0.929 . S
C2140 C2139 1.383 . S
C2140 C2141 1.377 . S
C2141 H2125 0.930 . S
C2141 C2140 1.377 . S
C2141 C2142 1.379 . S
C2142 H2126 0.931 . S
C2142 C2136 1.383 . S
C2142 C2141 1.379 . S
H2143 C2137 0.959 . S
H2144 C2137 0.961 . S
H2145 C2137 0.960 . S
H2146 C2138 0.930 . S
H2147 C2139 0.929 . S
H2148 C2156 0.929 . S
H2149 C2158 0.930 . S
H2150 C2160 0.930 . S
H2151 C2163 0.929 . S
H2152 C2166 0.930 . S
H2153 C2168 0.960 . S
H2154 C2168 0.960 . S
H2155 C2168 0.960 . S
C2156 H2148 0.929 . S
C2156 C2157 1.377 . S
C2156 C2158 1.384 . S
C2157 C2156 1.377 . S
C2157 C2163 1.390 . S
C2158 H2149 0.930 . S
C2158 C2156 1.384 . S
C2158 C2159 1.372 . S
C2159 C2158 1.372 . S
C2159 C2160 1.400 . S
C2159 C2164 1.490 . S
C2160 H2150 0.930 . S
C2160 C2159 1.400 . S
C2160 C2163 1.386 . S
H2161 C2177 0.930 . S
H2162 C2178 0.931 . S
C2163 H2151 0.929 . S
C2163 C2157 1.390 . S
C2163 C2160 1.386 . S
C2164 C2159 1.490 . S
C2164 C2166 1.395 . S
C2164 C2167 1.403 . S
H2165 C2171 0.930 . S
C2166 H2152 0.930 . S
C2166 C2164 1.395 . S
C2166 C2169 1.403 . S
C2167 C2164 1.403 . S
C2167 C2168 1.524 . S
C2167 C2171 1.400 . S
C2168 H2153 0.960 . S
C2168 H2154 0.960 . S
C2168 H2155 0.960 . S
C2168 C2167 1.524 . S
C2169 C2166 1.403 . S
C2169 C2170 1.392 . S
C2169 C2173 1.495 . S
C2170 C2169 1.392 . S
C2170 C2171 1.385 . S
C2170 C2172 1.478 . S
C2171 H2165 0.930 . S
C2171 C2167 1.400 . S
C2171 C2170 1.385 . S
C2172 C2170 1.478 . S
C2172 C2174 1.381 . S
C2172 C2178 1.383 . S
C2173 C2169 1.495 . S
C2173 H2179 0.959 . S
C2173 H2180 0.961 . S
C2173 H2181 0.960 . S
C2174 C2172 1.381 . S
C2174 C2175 1.394 . S
C2174 H2182 0.930 . S
C2175 C2174 1.394 . S
C2175 C2176 1.383 . S
C2175 H2183 0.929 . S
C2176 C2175 1.383 . S
C2176 C2177 1.377 . S
C2177 H2161 0.930 . S
C2177 C2176 1.377 . S
C2177 C2178 1.379 . S
C2178 H2162 0.931 . S
C2178 C2172 1.383 . S
C2178 C2177 1.379 . S
H2179 C2173 0.959 . S
H2180 C2173 0.961 . S
H2181 C2173 0.960 . S
H2182 C2174 0.930 . S
H2183 C2175 0.929 . S
H2184 C2192 0.929 . S
H2185 C2194 0.930 . S
H2186 C2196 0.930 . S
H2187 C2199 0.929 . S
H2188 C2202 0.930 . S
H2189 C2204 0.960 . S
H2190 C2204 0.960 . S
H2191 C2204 0.960 . S
C2192 H2184 0.929 . S
C2192 C2193 1.377 . S
C2192 C2194 1.384 . S
C2193 C2192 1.377 . S
C2193 C2199 1.390 . S
C2194 H2185 0.930 . S
C2194 C2192 1.384 . S
C2194 C2195 1.372 . S
C2195 C2194 1.372 . S
C2195 C2196 1.400 . S
C2195 C2200 1.490 . S
C2196 H2186 0.930 . S
C2196 C2195 1.400 . S
C2196 C2199 1.386 . S
H2197 C2213 0.930 . S
H2198 C2214 0.931 . S
C2199 H2187 0.929 . S
C2199 C2193 1.390 . S
C2199 C2196 1.386 . S
C2200 C2195 1.490 . S
C2200 C2202 1.395 . S
C2200 C2203 1.403 . S
H2201 C2207 0.930 . S
C2202 H2188 0.930 . S
C2202 C2200 1.395 . S
C2202 C2205 1.403 . S
C2203 C2200 1.403 . S
C2203 C2204 1.524 . S
C2203 C2207 1.400 . S
C2204 H2189 0.960 . S
C2204 H2190 0.960 . S
C2204 H2191 0.960 . S
C2204 C2203 1.524 . S
C2205 C2202 1.403 . S
C2205 C2206 1.392 . S
C2205 C2209 1.495 . S
C2206 C2205 1.392 . S
C2206 C2207 1.385 . S
C2206 C2208 1.478 . S
C2207 H2201 0.930 . S
C2207 C2203 1.400 . S
C2207 C2206 1.385 . S
C2208 C2206 1.478 . S
C2208 C2210 1.381 . S
C2208 C2214 1.383 . S
C2209 C2205 1.495 . S
C2209 H2215 0.959 . S
C2209 H2216 0.961 . S
C2209 H2217 0.960 . S
C2210 C2208 1.381 . S
C2210 C2211 1.394 . S
C2210 H2218 0.930 . S
C2211 C2210 1.394 . S
C2211 C2212 1.383 . S
C2211 H2219 0.929 . S
C2212 C2211 1.383 . S
C2212 C2213 1.377 . S
C2213 H2197 0.930 . S
C2213 C2212 1.377 . S
C2213 C2214 1.379 . S
C2214 H2198 0.931 . S
C2214 C2208 1.383 . S
C2214 C2213 1.379 . S
H2215 C2209 0.959 . S
H2216 C2209 0.961 . S
H2217 C2209 0.960 . S
H2218 C2210 0.930 . S
H2219 C2211 0.929 . S
H2220 C2228 0.929 . S
H2221 C2230 0.930 . S
H2222 C2232 0.930 . S
H2223 C2235 0.929 . S
H2224 C2238 0.930 . S
H2225 C2240 0.960 . S
H2226 C2240 0.960 . S
H2227 C2240 0.960 . S
C2228 H2220 0.929 . S
C2228 C2229 1.377 . S
C2228 C2230 1.384 . S
C2229 C2228 1.377 . S
C2229 C2235 1.390 . S
C2230 H2221 0.930 . S
C2230 C2228 1.384 . S
C2230 C2231 1.372 . S
C2231 C2230 1.372 . S
C2231 C2232 1.400 . S
C2231 C2236 1.490 . S
C2232 H2222 0.930 . S
C2232 C2231 1.400 . S
C2232 C2235 1.386 . S
H2233 C2249 0.930 . S
H2234 C2250 0.931 . S
C2235 H2223 0.929 . S
C2235 C2229 1.390 . S
C2235 C2232 1.386 . S
C2236 C2231 1.490 . S
C2236 C2238 1.395 . S
C2236 C2239 1.403 . S
H2237 C2243 0.930 . S
C2238 H2224 0.930 . S
C2238 C2236 1.395 . S
C2238 C2241 1.403 . S
C2239 C2236 1.403 . S
C2239 C2240 1.524 . S
C2239 C2243 1.400 . S
C2240 H2225 0.960 . S
C2240 H2226 0.960 . S
C2240 H2227 0.960 . S
C2240 C2239 1.524 . S
C2241 C2238 1.403 . S
C2241 C2242 1.392 . S
C2241 C2245 1.495 . S
C2242 C2241 1.392 . S
C2242 C2243 1.385 . S
C2242 C2244 1.478 . S
C2243 H2237 0.930 . S
C2243 C2239 1.400 . S
C2243 C2242 1.385 . S
C2244 C2242 1.478 . S
C2244 C2246 1.381 . S
C2244 C2250 1.383 . S
C2245 C2241 1.495 . S
C2245 H2251 0.959 . S
C2245 H2252 0.961 . S
C2245 H2253 0.960 . S
C2246 C2244 1.381 . S
C2246 C2247 1.394 . S
C2246 H2254 0.930 . S
C2247 C2246 1.394 . S
C2247 C2248 1.383 . S
C2247 H2255 0.929 . S
C2248 C2247 1.383 . S
C2248 C2249 1.377 . S
C2249 H2233 0.930 . S
C2249 C2248 1.377 . S
C2249 C2250 1.379 . S
C2250 H2234 0.931 . S
C2250 C2244 1.383 . S
C2250 C2249 1.379 . S
H2251 C2245 0.959 . S
H2252 C2245 0.961 . S
H2253 C2245 0.960 . S
H2254 C2246 0.930 . S
H2255 C2247 0.929 . S
H2256 C2264 0.929 . S
H2257 C2266 0.930 . S
H2258 C2268 0.930 . S
H2259 C2271 0.929 . S
H2260 C2274 0.930 . S
H2261 C2276 0.960 . S
H2262 C2276 0.960 . S
H2263 C2276 0.960 . S
C2264 H2256 0.929 . S
C2264 C2265 1.377 . S
C2264 C2266 1.384 . S
C2265 C2264 1.377 . S
C2265 C2271 1.390 . S
C2266 H2257 0.930 . S
C2266 C2264 1.384 . S
C2266 C2267 1.372 . S
C2267 C2266 1.372 . S
C2267 C2268 1.400 . S
C2267 C2272 1.490 . S
C2268 H2258 0.930 . S
C2268 C2267 1.400 . S
C2268 C2271 1.386 . S
H2269 C2285 0.930 . S
H2270 C2286 0.931 . S
C2271 H2259 0.929 . S
C2271 C2265 1.390 . S
C2271 C2268 1.386 . S
C2272 C2267 1.490 . S
C2272 C2274 1.395 . S
C2272 C2275 1.403 . S
H2273 C2279 0.930 . S
C2274 H2260 0.930 . S
C2274 C2272 1.395 . S
C2274 C2277 1.403 . S
C2275 C2272 1.403 . S
C2275 C2276 1.524 . S
C2275 C2279 1.400 . S
C2276 H2261 0.960 . S
C2276 H2262 0.960 . S
C2276 H2263 0.960 . S
C2276 C2275 1.524 . S
C2277 C2274 1.403 . S
C2277 C2278 1.392 . S
C2277 C2281 1.495 . S
C2278 C2277 1.392 . S
C2278 C2279 1.385 . S
C2278 C2280 1.478 . S
C2279 H2273 0.930 . S
C2279 C2275 1.400 . S
C2279 C2278 1.385 . S
C2280 C2278 1.478 . S
C2280 C2282 1.381 . S
C2280 C2286 1.383 . S
C2281 C2277 1.495 . S
C2281 H2287 0.959 . S
C2281 H2288 0.961 . S
C2281 H2289 0.960 . S
C2282 C2280 1.381 . S
C2282 C2283 1.394 . S
C2282 H2290 0.930 . S
C2283 C2282 1.394 . S
C2283 C2284 1.383 . S
C2283 H2291 0.929 . S
C2284 C2283 1.383 . S
C2284 C2285 1.377 . S
C2285 H2269 0.930 . S
C2285 C2284 1.377 . S
C2285 C2286 1.379 . S
C2286 H2270 0.931 . S
C2286 C2280 1.383 . S
C2286 C2285 1.379 . S
H2287 C2281 0.959 . S
H2288 C2281 0.961 . S
H2289 C2281 0.960 . S
H2290 C2282 0.930 . S
H2291 C2283 0.929 . S
H2292 C2300 0.929 . S
H2293 C2302 0.930 . S
H2294 C2304 0.930 . S
H2295 C2307 0.929 . S
H2296 C2310 0.930 . S
H2297 C2312 0.960 . S
H2298 C2312 0.960 . S
H2299 C2312 0.960 . S
C2300 H2292 0.929 . S
C2300 C2301 1.377 . S
C2300 C2302 1.384 . S
C2301 C2300 1.377 . S
C2301 C2307 1.390 . S
C2302 H2293 0.930 . S
C2302 C2300 1.384 . S
C2302 C2303 1.372 . S
C2303 C2302 1.372 . S
C2303 C2304 1.400 . S
C2303 C2308 1.490 . S
C2304 H2294 0.930 . S
C2304 C2303 1.400 . S
C2304 C2307 1.386 . S
H2305 C2321 0.930 . S
H2306 C2322 0.931 . S
C2307 H2295 0.929 . S
C2307 C2301 1.390 . S
C2307 C2304 1.386 . S
C2308 C2303 1.490 . S
C2308 C2310 1.395 . S
C2308 C2311 1.403 . S
H2309 C2315 0.930 . S
C2310 H2296 0.930 . S
C2310 C2308 1.395 . S
C2310 C2313 1.403 . S
C2311 C2308 1.403 . S
C2311 C2312 1.524 . S
C2311 C2315 1.400 . S
C2312 H2297 0.960 . S
C2312 H2298 0.960 . S
C2312 H2299 0.960 . S
C2312 C2311 1.524 . S
C2313 C2310 1.403 . S
C2313 C2314 1.392 . S
C2313 C2317 1.495 . S
C2314 C2313 1.392 . S
C2314 C2315 1.385 . S
C2314 C2316 1.478 . S
C2315 H2309 0.930 . S
C2315 C2311 1.400 . S
C2315 C2314 1.385 . S
C2316 C2314 1.478 . S
C2316 C2318 1.381 . S
C2316 C2322 1.383 1_545 S
C2317 C2313 1.495 . S
C2317 H2323 0.959 . S
C2317 H2324 0.961 1_545 S
C2317 H2325 0.960 . S
C2318 C2316 1.381 . S
C2318 C2319 1.394 . S
C2318 H2326 0.930 . S
C2319 C2318 1.394 . S
C2319 C2320 1.383 . S
C2319 H2327 0.929 . S
C2320 C2319 1.383 . S
C2320 C2321 1.377 1_545 S
C2321 H2305 0.930 . S
C2321 C2320 1.377 1_565 S
C2321 C2322 1.379 . S
C2322 H2306 0.931 . S
C2322 C2316 1.383 1_565 S
C2322 C2321 1.379 . S
H2323 C2317 0.959 . S
H2324 C2317 0.961 1_565 S
H2325 C2317 0.960 . S
H2326 C2318 0.930 . S
H2327 C2319 0.929 . S
H2328 C2336 0.929 . S
H2329 C2338 0.930 . S
H2330 C2340 0.930 . S
H2331 C2343 0.929 . S
H2332 C2346 0.930 . S
H2333 C2348 0.960 . S
H2334 C2348 0.960 . S
H2335 C2348 0.960 . S
C2336 H2328 0.929 . S
C2336 C2337 1.377 . S
C2336 C2338 1.384 . S
C2337 C2336 1.377 . S
C2337 C2343 1.390 . S
C2338 H2329 0.930 . S
C2338 C2336 1.384 . S
C2338 C2339 1.372 . S
C2339 C2338 1.372 . S
C2339 C2340 1.400 . S
C2339 C2344 1.490 . S
C2340 H2330 0.930 . S
C2340 C2339 1.400 . S
C2340 C2343 1.386 . S
H2341 C2357 0.930 . S
H2342 C2358 0.931 . S
C2343 H2331 0.929 . S
C2343 C2337 1.390 . S
C2343 C2340 1.386 . S
C2344 C2339 1.490 . S
C2344 C2346 1.395 . S
C2344 C2347 1.403 . S
H2345 C2351 0.930 . S
C2346 H2332 0.930 . S
C2346 C2344 1.395 . S
C2346 C2349 1.403 . S
C2347 C2344 1.403 . S
C2347 C2348 1.524 . S
C2347 C2351 1.400 . S
C2348 H2333 0.960 . S
C2348 H2334 0.960 . S
C2348 H2335 0.960 . S
C2348 C2347 1.524 . S
C2349 C2346 1.403 . S
C2349 C2350 1.392 . S
C2349 C2353 1.495 . S
C2350 C2349 1.392 . S
C2350 C2351 1.385 . S
C2350 C2352 1.478 . S
C2351 H2345 0.930 . S
C2351 C2347 1.400 . S
C2351 C2350 1.385 . S
C2352 C2350 1.478 . S
C2352 C2354 1.381 . S
C2352 C2358 1.383 . S
C2353 C2349 1.495 . S
C2353 H2359 0.959 . S
C2353 H2360 0.961 . S
C2353 H2361 0.960 . S
C2354 C2352 1.381 . S
C2354 C2355 1.394 . S
C2354 H2362 0.930 . S
C2355 C2354 1.394 . S
C2355 C2356 1.383 . S
C2355 H2363 0.929 . S
C2356 C2355 1.383 . S
C2356 C2357 1.377 . S
C2357 H2341 0.930 . S
C2357 C2356 1.377 . S
C2357 C2358 1.379 . S
C2358 H2342 0.931 . S
C2358 C2352 1.383 . S
C2358 C2357 1.379 . S
H2359 C2353 0.959 . S
H2360 C2353 0.961 . S
H2361 C2353 0.960 . S
H2362 C2354 0.930 . S
H2363 C2355 0.929 . S
H2364 C2372 0.929 . S
H2365 C2374 0.930 . S
H2366 C2376 0.930 . S
H2367 C2379 0.929 . S
H2368 C2382 0.930 . S
H2369 C2384 0.960 . S
H2370 C2384 0.960 . S
H2371 C2384 0.960 . S
C2372 H2364 0.929 . S
C2372 C2373 1.377 . S
C2372 C2374 1.384 . S
C2373 C2372 1.377 . S
C2373 C2379 1.390 . S
C2374 H2365 0.930 . S
C2374 C2372 1.384 . S
C2374 C2375 1.372 . S
C2375 C2374 1.372 . S
C2375 C2376 1.400 . S
C2375 C2380 1.490 . S
C2376 H2366 0.930 . S
C2376 C2375 1.400 . S
C2376 C2379 1.386 . S
H2377 C2393 0.930 . S
H2378 C2394 0.931 . S
C2379 H2367 0.929 . S
C2379 C2373 1.390 . S
C2379 C2376 1.386 . S
C2380 C2375 1.490 . S
C2380 C2382 1.395 . S
C2380 C2383 1.403 . S
H2381 C2387 0.930 . S
C2382 H2368 0.930 . S
C2382 C2380 1.395 . S
C2382 C2385 1.403 . S
C2383 C2380 1.403 . S
C2383 C2384 1.524 . S
C2383 C2387 1.400 . S
C2384 H2369 0.960 . S
C2384 H2370 0.960 . S
C2384 H2371 0.960 . S
C2384 C2383 1.524 . S
C2385 C2382 1.403 . S
C2385 C2386 1.392 . S
C2385 C2389 1.495 . S
C2386 C2385 1.392 . S
C2386 C2387 1.385 . S
C2386 C2388 1.478 . S
C2387 H2381 0.930 . S
C2387 C2383 1.400 . S
C2387 C2386 1.385 . S
C2388 C2386 1.478 . S
C2388 C2390 1.381 . S
C2388 C2394 1.383 . S
C2389 C2385 1.495 . S
C2389 H2395 0.959 . S
C2389 H2396 0.961 . S
C2389 H2397 0.960 . S
C2390 C2388 1.381 . S
C2390 C2391 1.394 . S
C2390 H2398 0.930 . S
C2391 C2390 1.394 . S
C2391 C2392 1.383 . S
C2391 H2399 0.929 . S
C2392 C2391 1.383 . S
C2392 C2393 1.377 . S
C2393 H2377 0.930 . S
C2393 C2392 1.377 . S
C2393 C2394 1.379 . S
C2394 H2378 0.931 . S
C2394 C2388 1.383 . S
C2394 C2393 1.379 . S
H2395 C2389 0.959 . S
H2396 C2389 0.961 . S
H2397 C2389 0.960 . S
H2398 C2390 0.930 . S
H2399 C2391 0.929 . S
H2400 C2408 0.929 . S
H2401 C2410 0.930 . S
H2402 C2412 0.930 . S
H2403 C2415 0.929 . S
H2404 C2418 0.930 . S
H2405 C2420 0.960 . S
H2406 C2420 0.960 . S
H2407 C2420 0.960 . S
C2408 H2400 0.929 . S
C2408 C2409 1.377 . S
C2408 C2410 1.384 . S
C2409 C2408 1.377 . S
C2409 C2415 1.390 . S
C2410 H2401 0.930 . S
C2410 C2408 1.384 . S
C2410 C2411 1.372 . S
C2411 C2410 1.372 . S
C2411 C2412 1.400 . S
C2411 C2416 1.490 . S
C2412 H2402 0.930 . S
C2412 C2411 1.400 . S
C2412 C2415 1.386 . S
H2413 C2429 0.930 . S
H2414 C2430 0.931 . S
C2415 H2403 0.929 . S
C2415 C2409 1.390 . S
C2415 C2412 1.386 . S
C2416 C2411 1.490 . S
C2416 C2418 1.395 . S
C2416 C2419 1.403 . S
H2417 C2423 0.930 . S
C2418 H2404 0.930 . S
C2418 C2416 1.395 . S
C2418 C2421 1.403 . S
C2419 C2416 1.403 . S
C2419 C2420 1.524 . S
C2419 C2423 1.400 . S
C2420 H2405 0.960 . S
C2420 H2406 0.960 . S
C2420 H2407 0.960 . S
C2420 C2419 1.524 . S
C2421 C2418 1.403 . S
C2421 C2422 1.392 . S
C2421 C2425 1.495 . S
C2422 C2421 1.392 . S
C2422 C2423 1.385 . S
C2422 C2424 1.478 . S
C2423 H2417 0.930 . S
C2423 C2419 1.400 . S
C2423 C2422 1.385 . S
C2424 C2422 1.478 . S
C2424 C2426 1.381 . S
C2424 C2430 1.383 . S
C2425 C2421 1.495 . S
C2425 H2431 0.959 . S
C2425 H2432 0.961 . S
C2425 H2433 0.960 . S
C2426 C2424 1.381 . S
C2426 C2427 1.394 . S
C2426 H2434 0.930 . S
C2427 C2426 1.394 . S
C2427 C2428 1.383 . S
C2427 H2435 0.929 . S
C2428 C2427 1.383 . S
C2428 C2429 1.377 . S
C2429 H2413 0.930 . S
C2429 C2428 1.377 . S
C2429 C2430 1.379 . S
C2430 H2414 0.931 . S
C2430 C2424 1.383 . S
C2430 C2429 1.379 . S
H2431 C2425 0.959 . S
H2432 C2425 0.961 . S
H2433 C2425 0.960 . S
H2434 C2426 0.930 . S
H2435 C2427 0.929 . S
H2436 C2444 0.929 . S
H2437 C2446 0.930 . S
H2438 C2448 0.930 . S
H2439 C2451 0.929 . S
H2440 C2454 0.930 1_565 S
H2441 C2456 0.960 . S
H2442 C2456 0.960 . S
H2443 C2456 0.960 . S
C2444 H2436 0.929 . S
C2444 C2445 1.377 . S
C2444 C2446 1.384 . S
C2445 C2444 1.377 . S
C2445 C2451 1.390 . S
C2446 H2437 0.930 . S
C2446 C2444 1.384 . S
C2446 C2447 1.372 . S
C2447 C2446 1.372 . S
C2447 C2448 1.400 . S
C2447 C2452 1.490 . S
C2448 H2438 0.930 . S
C2448 C2447 1.400 . S
C2448 C2451 1.386 . S
H2449 C2465 0.930 . S
H2450 C2466 0.931 . S
C2451 H2439 0.929 . S
C2451 C2445 1.390 . S
C2451 C2448 1.386 . S
C2452 C2447 1.490 . S
C2452 C2454 1.395 . S
C2452 C2455 1.403 . S
H2453 C2459 0.930 . S
C2454 H2440 0.930 1_545 S
C2454 C2452 1.395 . S
C2454 C2457 1.401 1_545 S
C2455 C2452 1.403 . S
C2455 C2456 1.524 . S
C2455 C2459 1.400 . S
C2456 H2441 0.960 . S
C2456 H2442 0.960 . S
C2456 H2443 0.960 . S
C2456 C2455 1.524 . S
C2457 C2454 1.401 1_565 S
C2457 C2458 1.380 1_565 S
C2457 C2461 1.510 . S
C2458 C2457 1.380 1_545 S
C2458 C2459 1.385 . S
C2458 C2460 1.478 . S
C2459 H2453 0.930 . S
C2459 C2455 1.400 . S
C2459 C2458 1.385 . S
C2460 C2458 1.478 . S
C2460 C2462 1.381 . S
C2460 C2466 1.383 . S
C2461 C2457 1.510 . S
C2461 H2467 0.959 . S
C2461 H2468 0.961 . S
C2461 H2469 0.960 . S
C2462 C2460 1.381 . S
C2462 C2463 1.394 . S
C2462 H2470 0.930 . S
C2463 C2462 1.394 . S
C2463 C2464 1.383 . S
C2463 H2471 0.929 . S
C2464 C2463 1.383 . S
C2464 C2465 1.377 . S
C2465 H2449 0.930 . S
C2465 C2464 1.377 . S
C2465 C2466 1.379 . S
C2466 H2450 0.931 . S
C2466 C2460 1.383 . S
C2466 C2465 1.379 . S
H2467 C2461 0.959 . S
H2468 C2461 0.961 . S
H2469 C2461 0.960 . S
H2470 C2462 0.930 . S
H2471 C2463 0.929 . S
H2472 C2480 0.929 . S
H2473 C2482 0.930 . S
H2474 C2484 0.930 . S
H2475 C2487 0.929 . S
H2476 C2490 0.930 . S
H2477 C2492 0.960 . S
H2478 C2492 0.960 . S
H2479 C2492 0.960 . S
C2480 H2472 0.929 . S
C2480 C2481 1.377 . S
C2480 C2482 1.384 . S
C2481 C2480 1.377 . S
C2481 C2487 1.390 . S
C2482 H2473 0.930 . S
C2482 C2480 1.384 . S
C2482 C2483 1.372 . S
C2483 C2482 1.372 . S
C2483 C2484 1.400 . S
C2483 C2488 1.490 . S
C2484 H2474 0.930 . S
C2484 C2483 1.400 . S
C2484 C2487 1.386 . S
H2485 C2501 0.930 . S
H2486 C2502 0.931 . S
C2487 H2475 0.929 . S
C2487 C2481 1.390 . S
C2487 C2484 1.386 . S
C2488 C2483 1.490 . S
C2488 C2490 1.395 . S
C2488 C2491 1.403 . S
H2489 C2495 0.930 . S
C2490 H2476 0.930 . S
C2490 C2488 1.395 . S
C2490 C2493 1.403 . S
C2491 C2488 1.403 . S
C2491 C2492 1.524 . S
C2491 C2495 1.400 . S
C2492 H2477 0.960 . S
C2492 H2478 0.960 . S
C2492 H2479 0.960 . S
C2492 C2491 1.524 . S
C2493 C2490 1.403 . S
C2493 C2494 1.392 . S
C2493 C2497 1.495 . S
C2494 C2493 1.392 . S
C2494 C2495 1.385 . S
C2494 C2496 1.478 . S
C2495 H2489 0.930 . S
C2495 C2491 1.400 . S
C2495 C2494 1.385 . S
C2496 C2494 1.478 . S
C2496 C2498 1.381 . S
C2496 C2502 1.383 . S
C2497 C2493 1.495 . S
C2497 H2503 0.959 . S
C2497 H2504 0.961 . S
C2497 H2505 0.960 . S
C2498 C2496 1.381 . S
C2498 C2499 1.394 . S
C2498 H2506 0.930 . S
C2499 C2498 1.394 . S
C2499 C2500 1.383 . S
C2499 H2507 0.929 . S
C2500 C2499 1.383 . S
C2500 C2501 1.377 . S
C2501 H2485 0.930 . S
C2501 C2500 1.377 . S
C2501 C2502 1.379 . S
C2502 H2486 0.931 . S
C2502 C2496 1.383 . S
C2502 C2501 1.379 . S
H2503 C2497 0.959 . S
H2504 C2497 0.961 . S
H2505 C2497 0.960 . S
H2506 C2498 0.930 . S
H2507 C2499 0.929 . S
H2508 C2516 0.929 . S
H2509 C2518 0.930 . S
H2510 C2520 0.930 . S
H2511 C2523 0.929 . S
H2512 C2526 0.930 . S
H2513 C2528 0.960 . S
H2514 C2528 0.960 . S
H2515 C2528 0.960 . S
C2516 H2508 0.929 . S
C2516 C2517 1.377 . S
C2516 C2518 1.384 . S
C2517 C2516 1.377 . S
C2517 C2523 1.390 . S
C2518 H2509 0.930 . S
C2518 C2516 1.384 . S
C2518 C2519 1.372 . S
C2519 C2518 1.372 . S
C2519 C2520 1.400 . S
C2519 C2524 1.490 . S
C2520 H2510 0.930 . S
C2520 C2519 1.400 . S
C2520 C2523 1.386 . S
H2521 C2537 0.930 . S
H2522 C2538 0.931 . S
C2523 H2511 0.929 . S
C2523 C2517 1.390 . S
C2523 C2520 1.386 . S
C2524 C2519 1.490 . S
C2524 C2526 1.395 . S
C2524 C2527 1.403 . S
H2525 C2531 0.930 . S
C2526 H2512 0.930 . S
C2526 C2524 1.395 . S
C2526 C2529 1.403 . S
C2527 C2524 1.403 . S
C2527 C2528 1.524 . S
C2527 C2531 1.400 . S
C2528 H2513 0.960 . S
C2528 H2514 0.960 . S
C2528 H2515 0.960 . S
C2528 C2527 1.524 . S
C2529 C2526 1.403 . S
C2529 C2530 1.392 . S
C2529 C2533 1.495 . S
C2530 C2529 1.392 . S
C2530 C2531 1.385 . S
C2530 C2532 1.478 . S
C2531 H2525 0.930 . S
C2531 C2527 1.400 . S
C2531 C2530 1.385 . S
C2532 C2530 1.478 . S
C2532 C2534 1.381 . S
C2532 C2538 1.383 . S
C2533 C2529 1.495 . S
C2533 H2539 0.959 . S
C2533 H2540 0.961 . S
C2533 H2541 0.960 . S
C2534 C2532 1.381 . S
C2534 C2535 1.394 . S
C2534 H2542 0.930 . S
C2535 C2534 1.394 . S
C2535 C2536 1.383 . S
C2535 H2543 0.929 . S
C2536 C2535 1.383 . S
C2536 C2537 1.377 . S
C2537 H2521 0.930 . S
C2537 C2536 1.377 . S
C2537 C2538 1.379 . S
C2538 H2522 0.931 . S
C2538 C2532 1.383 . S
C2538 C2537 1.379 . S
H2539 C2533 0.959 . S
H2540 C2533 0.961 . S
H2541 C2533 0.960 . S
H2542 C2534 0.930 . S
H2543 C2535 0.929 . S
H2544 C2552 0.929 . S
H2545 C2554 0.930 . S
H2546 C2556 0.930 . S
H2547 C2559 0.929 . S
H2548 C2562 0.930 . S
H2549 C2564 0.960 . S
H2550 C2564 0.960 . S
H2551 C2564 0.960 . S
C2552 H2544 0.929 . S
C2552 C2553 1.377 . S
C2552 C2554 1.384 . S
C2553 C2552 1.377 . S
C2553 C2559 1.390 . S
C2554 H2545 0.930 . S
C2554 C2552 1.384 . S
C2554 C2555 1.372 . S
C2555 C2554 1.372 . S
C2555 C2556 1.400 . S
C2555 C2560 1.490 . S
C2556 H2546 0.930 . S
C2556 C2555 1.400 . S
C2556 C2559 1.386 . S
H2557 C2573 0.930 . S
H2558 C2574 0.931 . S
C2559 H2547 0.929 . S
C2559 C2553 1.390 . S
C2559 C2556 1.386 . S
C2560 C2555 1.490 . S
C2560 C2562 1.395 . S
C2560 C2563 1.403 . S
H2561 C2567 0.930 . S
C2562 H2548 0.930 . S
C2562 C2560 1.395 . S
C2562 C2565 1.403 . S
C2563 C2560 1.403 . S
C2563 C2564 1.524 . S
C2563 C2567 1.400 . S
C2564 H2549 0.960 . S
C2564 H2550 0.960 . S
C2564 H2551 0.960 . S
C2564 C2563 1.524 . S
C2565 C2562 1.403 . S
C2565 C2566 1.392 . S
C2565 C2569 1.495 . S
C2566 C2565 1.392 . S
C2566 C2567 1.385 . S
C2566 C2568 1.478 . S
C2567 H2561 0.930 . S
C2567 C2563 1.400 . S
C2567 C2566 1.385 . S
C2568 C2566 1.478 . S
C2568 C2570 1.381 . S
C2568 C2574 1.383 . S
C2569 C2565 1.495 . S
C2569 H2575 0.959 . S
C2569 H2576 0.961 . S
C2569 H2577 0.960 . S
C2570 C2568 1.381 . S
C2570 C2571 1.394 . S
C2570 H2578 0.930 . S
C2571 C2570 1.394 . S
C2571 C2572 1.383 . S
C2571 H2579 0.929 . S
C2572 C2571 1.383 . S
C2572 C2573 1.377 . S
C2573 H2557 0.930 . S
C2573 C2572 1.377 . S
C2573 C2574 1.379 . S
C2574 H2558 0.931 . S
C2574 C2568 1.383 . S
C2574 C2573 1.379 . S
H2575 C2569 0.959 . S
H2576 C2569 0.961 . S
H2577 C2569 0.960 . S
H2578 C2570 0.930 . S
H2579 C2571 0.929 . S
H2580 C2588 0.929 . S
H2581 C2590 0.930 . S
H2582 C2592 0.930 1_455 S
H2583 C2595 0.929 . S
H2584 C2598 0.930 . S
H2585 C2600 0.960 . S
H2586 C2600 0.960 . S
H2587 C2600 0.960 . S
C2588 H2580 0.929 . S
C2588 C2589 1.377 . S
C2588 C2590 1.384 . S
C2589 C2588 1.377 . S
C2589 C2595 1.390 . S
C2590 H2581 0.930 . S
C2590 C2588 1.384 . S
C2590 C2591 1.372 . S
C2591 C2590 1.372 . S
C2591 C2592 1.400 . S
C2591 C2596 1.490 . S
C2592 H2582 0.930 1_655 S
C2592 C2591 1.400 . S
C2592 C2595 1.386 . S
H2593 C2609 0.930 . S
H2594 C2610 0.931 . S
C2595 H2583 0.929 . S
C2595 C2589 1.390 . S
C2595 C2592 1.386 . S
C2596 C2591 1.490 . S
C2596 C2598 1.395 . S
C2596 C2599 1.348 1_655 S
H2597 C2603 0.930 . S
C2598 H2584 0.930 . S
C2598 C2596 1.395 . S
C2598 C2601 1.403 . S
C2599 C2596 1.348 1_455 S
C2599 C2600 1.573 . S
C2599 C2603 1.406 . S
C2600 H2585 0.960 . S
C2600 H2586 0.960 . S
C2600 H2587 0.960 . S
C2600 C2599 1.573 . S
C2601 C2598 1.403 . S
C2601 C2602 1.392 . S
C2601 C2605 1.495 . S
C2602 C2601 1.392 . S
C2602 C2603 1.385 1_655 S
C2602 C2604 1.478 . S
C2603 H2597 0.930 . S
C2603 C2599 1.406 . S
C2603 C2602 1.385 1_455 S
C2604 C2602 1.478 . S
C2604 C2606 1.381 . S
C2604 C2610 1.383 1_655 S
C2605 C2601 1.495 . S
C2605 H2611 0.959 . S
C2605 H2612 0.961 . S
C2605 H2613 0.960 . S
C2606 C2604 1.381 . S
C2606 C2607 1.394 . S
C2606 H2614 0.930 . S
C2607 C2606 1.394 . S
C2607 C2608 1.383 . S
C2607 H2615 0.929 . S
C2608 C2607 1.383 . S
C2608 C2609 1.377 1_655 S
C2609 H2593 0.930 . S
C2609 C2608 1.377 1_455 S
C2609 C2610 1.379 . S
C2610 H2594 0.931 . S
C2610 C2604 1.383 1_455 S
C2610 C2609 1.379 . S
H2611 C2605 0.959 . S
H2612 C2605 0.961 . S
H2613 C2605 0.960 . S
H2614 C2606 0.930 . S
H2615 C2607 0.929 . S
H2616 C2624 0.929 . S
H2617 C2626 0.930 . S
H2618 C2628 0.930 . S
H2619 C2631 0.929 . S
H2620 C2634 0.930 . S
H2621 C2636 0.960 . S
H2622 C2636 0.960 . S
H2623 C2636 0.960 . S
C2624 H2616 0.929 . S
C2624 C2625 1.377 . S
C2624 C2626 1.384 . S
C2625 C2624 1.377 . S
C2625 C2631 1.390 . S
C2626 H2617 0.930 . S
C2626 C2624 1.384 . S
C2626 C2627 1.372 . S
C2627 C2626 1.372 . S
C2627 C2628 1.400 . S
C2627 C2632 1.490 . S
C2628 H2618 0.930 . S
C2628 C2627 1.400 . S
C2628 C2631 1.386 . S
H2629 C2645 0.930 . S
H2630 C2646 0.931 . S
C2631 H2619 0.929 . S
C2631 C2625 1.390 . S
C2631 C2628 1.386 . S
C2632 C2627 1.490 . S
C2632 C2634 1.395 . S
C2632 C2635 1.403 . S
H2633 C2639 0.930 . S
C2634 H2620 0.930 . S
C2634 C2632 1.395 . S
C2634 C2637 1.403 . S
C2635 C2632 1.403 . S
C2635 C2636 1.524 . S
C2635 C2639 1.400 . S
C2636 H2621 0.960 . S
C2636 H2622 0.960 . S
C2636 H2623 0.960 . S
C2636 C2635 1.524 . S
C2637 C2634 1.403 . S
C2637 C2638 1.392 . S
C2637 C2641 1.495 . S
C2638 C2637 1.392 . S
C2638 C2639 1.385 . S
C2638 C2640 1.478 . S
C2639 H2633 0.930 . S
C2639 C2635 1.400 . S
C2639 C2638 1.385 . S
C2640 C2638 1.478 . S
C2640 C2642 1.381 . S
C2640 C2646 1.383 . S
C2641 C2637 1.495 . S
C2641 H2647 0.959 . S
C2641 H2648 0.961 . S
C2641 H2649 0.960 . S
C2642 C2640 1.381 . S
C2642 C2643 1.394 . S
C2642 H2650 0.930 . S
C2643 C2642 1.394 . S
C2643 C2644 1.383 . S
C2643 H2651 0.929 . S
C2644 C2643 1.383 . S
C2644 C2645 1.377 . S
C2645 H2629 0.930 . S
C2645 C2644 1.377 . S
C2645 C2646 1.379 . S
C2646 H2630 0.931 . S
C2646 C2640 1.383 . S
C2646 C2645 1.379 . S
H2647 C2641 0.959 . S
H2648 C2641 0.961 . S
H2649 C2641 0.960 . S
H2650 C2642 0.930 . S
H2651 C2643 0.929 . S
H2652 C2660 0.929 . S
H2653 C2662 0.930 . S
H2654 C2664 0.930 . S
H2655 C2667 0.929 . S
H2656 C2670 0.930 1_655 S
H2657 C2672 0.960 . S
H2658 C2672 0.960 . S
H2659 C2672 0.960 . S
C2660 H2652 0.929 . S
C2660 C2661 1.377 . S
C2660 C2662 1.384 . S
C2661 C2660 1.377 . S
C2661 C2667 1.390 . S
C2662 H2653 0.930 . S
C2662 C2660 1.384 . S
C2662 C2663 1.372 . S
C2663 C2662 1.372 . S
C2663 C2664 1.400 . S
C2663 C2668 1.490 . S
C2664 H2654 0.930 . S
C2664 C2663 1.400 . S
C2664 C2667 1.386 . S
H2665 C2681 0.930 . S
H2666 C2682 0.931 . S
C2667 H2655 0.929 . S
C2667 C2661 1.390 . S
C2667 C2664 1.386 . S
C2668 C2663 1.490 . S
C2668 C2670 1.395 . S
C2668 C2671 1.403 . S
H2669 C2675 0.930 . S
C2670 H2656 0.930 1_455 S
C2670 C2668 1.395 . S
C2670 C2673 1.403 1_455 S
C2671 C2668 1.403 . S
C2671 C2672 1.524 . S
C2671 C2675 1.400 . S
C2672 H2657 0.960 . S
C2672 H2658 0.960 . S
C2672 H2659 0.960 . S
C2672 C2671 1.524 . S
C2673 C2670 1.403 1_655 S
C2673 C2674 1.392 1_655 S
C2673 C2677 1.495 . S
C2674 C2673 1.392 1_455 S
C2674 C2675 1.385 . S
C2674 C2676 1.478 . S
C2675 H2669 0.930 . S
C2675 C2671 1.400 . S
C2675 C2674 1.385 . S
C2676 C2674 1.478 . S
C2676 C2678 1.381 . S
C2676 C2682 1.383 . S
C2677 C2673 1.495 . S
C2677 H2683 0.959 . S
C2677 H2684 0.961 . S
C2677 H2685 0.960 . S
C2678 C2676 1.381 . S
C2678 C2679 1.394 . S
C2678 H2686 0.930 . S
C2679 C2678 1.394 . S
C2679 C2680 1.383 . S
C2679 H2687 0.929 . S
C2680 C2679 1.383 . S
C2680 C2681 1.377 . S
C2681 H2665 0.930 . S
C2681 C2680 1.377 . S
C2681 C2682 1.379 . S
C2682 H2666 0.931 . S
C2682 C2676 1.383 . S
C2682 C2681 1.379 . S
H2683 C2677 0.959 . S
H2684 C2677 0.961 . S
H2685 C2677 0.960 . S
H2686 C2678 0.930 . S
H2687 C2679 0.929 . S
H2688 C2696 0.929 . S
H2689 C2698 0.930 . S
H2690 C2700 0.930 . S
H2691 C2703 0.929 . S
H2692 C2706 0.930 . S
H2693 C2708 0.960 . S
H2694 C2708 0.960 . S
H2695 C2708 0.960 . S
C2696 H2688 0.929 . S
C2696 C2697 1.377 . S
C2696 C2698 1.384 . S
C2697 C2696 1.377 . S
C2697 C2703 1.390 . S
C2698 H2689 0.930 . S
C2698 C2696 1.384 . S
C2698 C2699 1.372 . S
C2699 C2698 1.372 . S
C2699 C2700 1.400 . S
C2699 C2704 1.490 . S
C2700 H2690 0.930 . S
C2700 C2699 1.400 . S
C2700 C2703 1.386 . S
H2701 C2717 0.930 . S
H2702 C2718 0.931 . S
C2703 H2691 0.929 . S
C2703 C2697 1.390 . S
C2703 C2700 1.386 . S
C2704 C2699 1.490 . S
C2704 C2706 1.395 . S
C2704 C2707 1.403 . S
H2705 C2711 0.930 . S
C2706 H2692 0.930 . S
C2706 C2704 1.395 . S
C2706 C2709 1.403 . S
C2707 C2704 1.403 . S
C2707 C2708 1.524 . S
C2707 C2711 1.400 . S
C2708 H2693 0.960 . S
C2708 H2694 0.960 . S
C2708 H2695 0.960 . S
C2708 C2707 1.524 . S
C2709 C2706 1.403 . S
C2709 C2710 1.392 . S
C2709 C2713 1.495 . S
C2710 C2709 1.392 . S
C2710 C2711 1.385 . S
C2710 C2712 1.478 . S
C2711 H2705 0.930 . S
C2711 C2707 1.400 . S
C2711 C2710 1.385 . S
C2712 C2710 1.478 . S
C2712 C2714 1.381 . S
C2712 C2718 1.383 . S
C2713 C2709 1.495 . S
C2713 H2719 0.959 . S
C2713 H2720 0.961 . S
C2713 H2721 0.960 . S
C2714 C2712 1.381 . S
C2714 C2715 1.394 . S
C2714 H2722 0.930 . S
C2715 C2714 1.394 . S
C2715 C2716 1.383 . S
C2715 H2723 0.929 . S
C2716 C2715 1.383 . S
C2716 C2717 1.377 . S
C2717 H2701 0.930 . S
C2717 C2716 1.377 . S
C2717 C2718 1.379 . S
C2718 H2702 0.931 . S
C2718 C2712 1.383 . S
C2718 C2717 1.379 . S
H2719 C2713 0.959 . S
H2720 C2713 0.961 . S
H2721 C2713 0.960 . S
H2722 C2714 0.930 . S
H2723 C2715 0.929 . S
H2724 C2732 0.929 . S
H2725 C2734 0.930 . S
H2726 C2736 0.930 . S
H2727 C2739 0.929 . S
H2728 C2742 0.930 . S
H2729 C2744 0.960 . S
H2730 C2744 0.960 . S
H2731 C2744 0.960 . S
C2732 H2724 0.929 . S
C2732 C2733 1.377 . S
C2732 C2734 1.384 . S
C2733 C2732 1.377 . S
C2733 C2739 1.390 . S
C2734 H2725 0.930 . S
C2734 C2732 1.384 . S
C2734 C2735 1.372 . S
C2735 C2734 1.372 . S
C2735 C2736 1.400 . S
C2735 C2740 1.490 . S
C2736 H2726 0.930 . S
C2736 C2735 1.400 . S
C2736 C2739 1.386 . S
H2737 C2753 0.930 . S
H2738 C2754 0.931 . S
C2739 H2727 0.929 . S
C2739 C2733 1.390 . S
C2739 C2736 1.386 . S
C2740 C2735 1.490 . S
C2740 C2742 1.395 . S
C2740 C2743 1.403 . S
H2741 C2747 0.930 . S
C2742 H2728 0.930 . S
C2742 C2740 1.395 . S
C2742 C2745 1.403 . S
C2743 C2740 1.403 . S
C2743 C2744 1.524 . S
C2743 C2747 1.400 . S
C2744 H2729 0.960 . S
C2744 H2730 0.960 . S
C2744 H2731 0.960 . S
C2744 C2743 1.524 . S
C2745 C2742 1.403 . S
C2745 C2746 1.392 . S
C2745 C2749 1.495 . S
C2746 C2745 1.392 . S
C2746 C2747 1.385 . S
C2746 C2748 1.478 . S
C2747 H2741 0.930 . S
C2747 C2743 1.400 . S
C2747 C2746 1.385 . S
C2748 C2746 1.478 . S
C2748 C2750 1.381 . S
C2748 C2754 1.383 . S
C2749 C2745 1.495 . S
C2749 H2755 0.959 . S
C2749 H2756 0.961 . S
C2749 H2757 0.960 . S
C2750 C2748 1.381 . S
C2750 C2751 1.394 . S
C2750 H2758 0.930 . S
C2751 C2750 1.394 . S
C2751 C2752 1.383 . S
C2751 H2759 0.929 . S
C2752 C2751 1.383 . S
C2752 C2753 1.377 . S
C2753 H2737 0.930 . S
C2753 C2752 1.377 . S
C2753 C2754 1.379 . S
C2754 H2738 0.931 . S
C2754 C2748 1.383 . S
C2754 C2753 1.379 . S
H2755 C2749 0.959 . S
H2756 C2749 0.961 . S
H2757 C2749 0.960 . S
H2758 C2750 0.930 . S
H2759 C2751 0.929 . S
H2760 C2768 0.929 . S
H2761 C2770 0.930 . S
H2762 C2772 0.930 . S
H2763 C2775 0.929 . S
H2764 C2778 0.930 . S
H2765 C2780 0.960 . S
H2766 C2780 0.960 . S
H2767 C2780 0.960 . S
C2768 H2760 0.929 . S
C2768 C2769 1.377 . S
C2768 C2770 1.384 . S
C2769 C2768 1.377 . S
C2769 C2775 1.390 . S
C2770 H2761 0.930 . S
C2770 C2768 1.384 . S
C2770 C2771 1.372 . S
C2771 C2770 1.372 . S
C2771 C2772 1.400 . S
C2771 C2776 1.490 . S
C2772 H2762 0.930 . S
C2772 C2771 1.400 . S
C2772 C2775 1.386 . S
H2773 C2789 0.930 . S
H2774 C2790 0.931 . S
C2775 H2763 0.929 . S
C2775 C2769 1.390 . S
C2775 C2772 1.386 . S
C2776 C2771 1.490 . S
C2776 C2778 1.395 . S
C2776 C2779 1.403 . S
H2777 C2783 0.930 . S
C2778 H2764 0.930 . S
C2778 C2776 1.395 . S
C2778 C2781 1.403 . S
C2779 C2776 1.403 . S
C2779 C2780 1.524 . S
C2779 C2783 1.400 . S
C2780 H2765 0.960 . S
C2780 H2766 0.960 . S
C2780 H2767 0.960 . S
C2780 C2779 1.524 . S
C2781 C2778 1.403 . S
C2781 C2782 1.392 . S
C2781 C2785 1.495 . S
C2782 C2781 1.392 . S
C2782 C2783 1.385 . S
C2782 C2784 1.478 . S
C2783 H2777 0.930 . S
C2783 C2779 1.400 . S
C2783 C2782 1.385 . S
C2784 C2782 1.478 . S
C2784 C2786 1.381 . S
C2784 C2790 1.383 . S
C2785 C2781 1.495 . S
C2785 H2791 0.959 . S
C2785 H2792 0.961 . S
C2785 H2793 0.960 . S
C2786 C2784 1.381 . S
C2786 C2787 1.394 . S
C2786 H2794 0.930 . S
C2787 C2786 1.394 . S
C2787 C2788 1.383 . S
C2787 H2795 0.929 . S
C2788 C2787 1.383 . S
C2788 C2789 1.377 . S
C2789 H2773 0.930 . S
C2789 C2788 1.377 . S
C2789 C2790 1.379 . S
C2790 H2774 0.931 . S
C2790 C2784 1.383 . S
C2790 C2789 1.379 . S
H2791 C2785 0.959 . S
H2792 C2785 0.961 . S
H2793 C2785 0.960 . S
H2794 C2786 0.930 . S
H2795 C2787 0.929 . S
H2796 C2804 0.929 . S
H2797 C2806 0.930 . S
H2798 C2808 0.930 . S
H2799 C2811 0.929 . S
H2800 C2814 0.930 . S
H2801 C2816 0.960 . S
H2802 C2816 0.960 . S
H2803 C2816 0.960 . S
C2804 H2796 0.929 . S
C2804 C2805 1.377 . S
C2804 C2806 1.384 . S
C2805 C2804 1.377 . S
C2805 C2811 1.390 . S
C2806 H2797 0.930 . S
C2806 C2804 1.384 . S
C2806 C2807 1.372 . S
C2807 C2806 1.372 . S
C2807 C2808 1.400 . S
C2807 C2812 1.490 . S
C2808 H2798 0.930 . S
C2808 C2807 1.400 . S
C2808 C2811 1.386 . S
H2809 C2825 0.930 . S
H2810 C2826 0.931 . S
C2811 H2799 0.929 . S
C2811 C2805 1.390 . S
C2811 C2808 1.386 . S
C2812 C2807 1.490 . S
C2812 C2814 1.395 . S
C2812 C2815 1.403 . S
H2813 C2819 0.930 . S
C2814 H2800 0.930 . S
C2814 C2812 1.395 . S
C2814 C2817 1.403 . S
C2815 C2812 1.403 . S
C2815 C2816 1.524 . S
C2815 C2819 1.400 . S
C2816 H2801 0.960 . S
C2816 H2802 0.960 . S
C2816 H2803 0.960 . S
C2816 C2815 1.524 . S
C2817 C2814 1.403 . S
C2817 C2818 1.392 . S
C2817 C2821 1.495 . S
C2818 C2817 1.392 . S
C2818 C2819 1.385 . S
C2818 C2820 1.478 . S
C2819 H2813 0.930 . S
C2819 C2815 1.400 . S
C2819 C2818 1.385 . S
C2820 C2818 1.478 . S
C2820 C2822 1.381 . S
C2820 C2826 1.383 . S
C2821 C2817 1.495 . S
C2821 H2827 0.959 . S
C2821 H2828 0.961 . S
C2821 H2829 0.960 . S
C2822 C2820 1.381 . S
C2822 C2823 1.394 . S
C2822 H2830 0.930 . S
C2823 C2822 1.394 . S
C2823 C2824 1.383 . S
C2823 H2831 0.929 . S
C2824 C2823 1.383 . S
C2824 C2825 1.377 . S
C2825 H2809 0.930 . S
C2825 C2824 1.377 . S
C2825 C2826 1.379 . S
C2826 H2810 0.931 . S
C2826 C2820 1.383 . S
C2826 C2825 1.379 . S
H2827 C2821 0.959 . S
H2828 C2821 0.961 . S
H2829 C2821 0.960 . S
H2830 C2822 0.930 . S
H2831 C2823 0.929 . S
H2832 C2840 0.929 . S
H2833 C2842 0.930 . S
H2834 C2844 0.930 . S
H2835 C2847 0.929 . S
H2836 C2850 0.930 . S
H2837 C2852 0.960 . S
H2838 C2852 0.960 . S
H2839 C2852 0.960 . S
C2840 H2832 0.929 . S
C2840 C2841 1.377 . S
C2840 C2842 1.384 . S
C2841 C2840 1.377 . S
C2841 C2847 1.390 . S
C2842 H2833 0.930 . S
C2842 C2840 1.384 . S
C2842 C2843 1.372 . S
C2843 C2842 1.372 . S
C2843 C2844 1.400 . S
C2843 C2848 1.490 . S
C2844 H2834 0.930 . S
C2844 C2843 1.400 . S
C2844 C2847 1.386 . S
H2845 C2861 0.930 . S
H2846 C2862 0.931 . S
C2847 H2835 0.929 . S
C2847 C2841 1.390 . S
C2847 C2844 1.386 . S
C2848 C2843 1.490 . S
C2848 C2850 1.395 . S
C2848 C2851 1.403 . S
H2849 C2855 0.930 . S
C2850 H2836 0.930 . S
C2850 C2848 1.395 . S
C2850 C2853 1.403 . S
C2851 C2848 1.403 . S
C2851 C2852 1.524 . S
C2851 C2855 1.400 . S
C2852 H2837 0.960 . S
C2852 H2838 0.960 . S
C2852 H2839 0.960 . S
C2852 C2851 1.524 . S
C2853 C2850 1.403 . S
C2853 C2854 1.392 . S
C2853 C2857 1.495 . S
C2854 C2853 1.392 . S
C2854 C2855 1.385 . S
C2854 C2856 1.478 . S
C2855 H2849 0.930 . S
C2855 C2851 1.400 . S
C2855 C2854 1.385 . S
C2856 C2854 1.478 . S
C2856 C2858 1.381 . S
C2856 C2862 1.383 . S
C2857 C2853 1.495 . S
C2857 H2863 0.959 . S
C2857 H2864 0.961 . S
C2857 H2865 0.960 . S
C2858 C2856 1.381 . S
C2858 C2859 1.394 . S
C2858 H2866 0.930 . S
C2859 C2858 1.394 . S
C2859 C2860 1.383 . S
C2859 H2867 0.929 . S
C2860 C2859 1.383 . S
C2860 C2861 1.377 . S
C2861 H2845 0.930 . S
C2861 C2860 1.377 . S
C2861 C2862 1.379 . S
C2862 H2846 0.931 . S
C2862 C2856 1.383 . S
C2862 C2861 1.379 . S
H2863 C2857 0.959 . S
H2864 C2857 0.961 . S
H2865 C2857 0.960 . S
H2866 C2858 0.930 . S
H2867 C2859 0.929 . S
H2868 C2876 0.929 . S
H2869 C2878 0.930 . S
H2870 C2880 0.930 . S
H2871 C2883 0.929 . S
H2872 C2886 0.930 . S
H2873 C2888 0.960 . S
H2874 C2888 0.960 . S
H2875 C2888 0.960 . S
C2876 H2868 0.929 . S
C2876 C2877 1.377 . S
C2876 C2878 1.384 . S
C2877 C2876 1.377 . S
C2877 C2883 1.390 . S
C2878 H2869 0.930 . S
C2878 C2876 1.384 . S
C2878 C2879 1.372 . S
C2879 C2878 1.372 . S
C2879 C2880 1.400 . S
C2879 C2884 1.490 . S
C2880 H2870 0.930 . S
C2880 C2879 1.400 . S
C2880 C2883 1.386 . S
H2881 C2897 0.930 . S
H2882 C2898 0.931 . S
C2883 H2871 0.929 . S
C2883 C2877 1.390 . S
C2883 C2880 1.386 . S
C2884 C2879 1.490 . S
C2884 C2886 1.395 . S
C2884 C2887 1.403 . S
H2885 C2891 0.930 . S
C2886 H2872 0.930 . S
C2886 C2884 1.395 . S
C2886 C2889 1.403 . S
C2887 C2884 1.403 . S
C2887 C2888 1.524 . S
C2887 C2891 1.400 . S
C2888 H2873 0.960 . S
C2888 H2874 0.960 . S
C2888 H2875 0.960 . S
C2888 C2887 1.524 . S
C2889 C2886 1.403 . S
C2889 C2890 1.392 . S
C2889 C2893 1.495 . S
C2890 C2889 1.392 . S
C2890 C2891 1.385 . S
C2890 C2892 1.478 . S
C2891 H2885 0.930 . S
C2891 C2887 1.400 . S
C2891 C2890 1.385 . S
C2892 C2890 1.478 . S
C2892 C2894 1.381 . S
C2892 C2898 1.383 . S
C2893 C2889 1.495 . S
C2893 H2899 0.959 . S
C2893 H2900 0.961 . S
C2893 H2901 0.960 . S
C2894 C2892 1.381 . S
C2894 C2895 1.394 . S
C2894 H2902 0.930 . S
C2895 C2894 1.394 . S
C2895 C2896 1.383 . S
C2895 H2903 0.929 . S
C2896 C2895 1.383 . S
C2896 C2897 1.377 . S
C2897 H2881 0.930 . S
C2897 C2896 1.377 . S
C2897 C2898 1.379 . S
C2898 H2882 0.931 . S
C2898 C2892 1.383 . S
C2898 C2897 1.379 . S
H2899 C2893 0.959 . S
H2900 C2893 0.961 . S
H2901 C2893 0.960 . S
H2902 C2894 0.930 . S
H2903 C2895 0.929 . S
H2904 C2912 0.929 . S
H2905 C2914 0.930 . S
H2906 C2916 0.930 . S
H2907 C2919 0.929 . S
H2908 C2922 0.930 . S
H2909 C2924 0.960 . S
H2910 C2924 0.960 . S
H2911 C2924 0.960 . S
C2912 H2904 0.929 . S
C2912 C2913 1.377 . S
C2912 C2914 1.384 . S
C2913 C2912 1.377 . S
C2913 C2919 1.390 . S
C2914 H2905 0.930 . S
C2914 C2912 1.384 . S
C2914 C2915 1.372 . S
C2915 C2914 1.372 . S
C2915 C2916 1.400 . S
C2915 C2920 1.490 . S
C2916 H2906 0.930 . S
C2916 C2915 1.400 . S
C2916 C2919 1.386 . S
H2917 C2933 0.930 . S
H2918 C2934 0.931 . S
C2919 H2907 0.929 . S
C2919 C2913 1.390 . S
C2919 C2916 1.386 . S
C2920 C2915 1.490 . S
C2920 C2922 1.395 . S
C2920 C2923 1.403 . S
H2921 C2927 0.930 . S
C2922 H2908 0.930 . S
C2922 C2920 1.395 . S
C2922 C2925 1.403 . S
C2923 C2920 1.403 . S
C2923 C2924 1.524 . S
C2923 C2927 1.400 . S
C2924 H2909 0.960 . S
C2924 H2910 0.960 . S
C2924 H2911 0.960 . S
C2924 C2923 1.524 . S
C2925 C2922 1.403 . S
C2925 C2926 1.392 . S
C2925 C2929 1.495 . S
C2926 C2925 1.392 . S
C2926 C2927 1.385 . S
C2926 C2928 1.478 . S
C2927 H2921 0.930 . S
C2927 C2923 1.400 . S
C2927 C2926 1.385 . S
C2928 C2926 1.478 . S
C2928 C2930 1.381 . S
C2928 C2934 1.383 . S
C2929 C2925 1.495 . S
C2929 H2935 0.959 . S
C2929 H2936 0.961 . S
C2929 H2937 0.960 . S
C2930 C2928 1.381 . S
C2930 C2931 1.394 . S
C2930 H2938 0.930 . S
C2931 C2930 1.394 . S
C2931 C2932 1.383 . S
C2931 H2939 0.929 . S
C2932 C2931 1.383 . S
C2932 C2933 1.377 . S
C2933 H2917 0.930 . S
C2933 C2932 1.377 . S
C2933 C2934 1.379 . S
C2934 H2918 0.931 . S
C2934 C2928 1.383 . S
C2934 C2933 1.379 . S
H2935 C2929 0.959 . S
H2936 C2929 0.961 . S
H2937 C2929 0.960 . S
H2938 C2930 0.930 . S
H2939 C2931 0.929 . S
H2940 C2948 0.929 . S
H2941 C2950 0.930 . S
H2942 C2952 0.930 . S
H2943 C2955 0.929 . S
H2944 C2958 0.930 . S
H2945 C2960 0.960 . S
H2946 C2960 0.960 . S
H2947 C2960 0.960 . S
C2948 H2940 0.929 . S
C2948 C2949 1.377 . S
C2948 C2950 1.384 . S
C2949 C2948 1.377 . S
C2949 C2955 1.390 . S
C2950 H2941 0.930 . S
C2950 C2948 1.384 . S
C2950 C2951 1.372 . S
C2951 C2950 1.372 . S
C2951 C2952 1.400 . S
C2951 C2956 1.490 . S
C2952 H2942 0.930 . S
C2952 C2951 1.400 . S
C2952 C2955 1.386 . S
H2953 C2969 0.930 . S
H2954 C2970 0.931 . S
C2955 H2943 0.929 . S
C2955 C2949 1.390 . S
C2955 C2952 1.386 . S
C2956 C2951 1.490 . S
C2956 C2958 1.395 . S
C2956 C2959 1.403 . S
H2957 C2963 0.930 . S
C2958 H2944 0.930 . S
C2958 C2956 1.395 . S
C2958 C2961 1.403 . S
C2959 C2956 1.403 . S
C2959 C2960 1.524 . S
C2959 C2963 1.400 . S
C2960 H2945 0.960 . S
C2960 H2946 0.960 . S
C2960 H2947 0.960 . S
C2960 C2959 1.524 . S
C2961 C2958 1.403 . S
C2961 C2962 1.392 . S
C2961 C2965 1.495 . S
C2962 C2961 1.392 . S
C2962 C2963 1.385 . S
C2962 C2964 1.478 . S
C2963 H2957 0.930 . S
C2963 C2959 1.400 . S
C2963 C2962 1.385 . S
C2964 C2962 1.478 . S
C2964 C2966 1.381 . S
C2964 C2970 1.383 . S
C2965 C2961 1.495 . S
C2965 H2971 0.959 . S
C2965 H2972 0.961 . S
C2965 H2973 0.960 . S
C2966 C2964 1.381 . S
C2966 C2967 1.394 . S
C2966 H2974 0.930 . S
C2967 C2966 1.394 . S
C2967 C2968 1.383 . S
C2967 H2975 0.929 . S
C2968 C2967 1.383 . S
C2968 C2969 1.377 . S
C2969 H2953 0.930 . S
C2969 C2968 1.377 . S
C2969 C2970 1.379 . S
C2970 H2954 0.931 . S
C2970 C2964 1.383 . S
C2970 C2969 1.379 . S
H2971 C2965 0.959 . S
H2972 C2965 0.961 . S
H2973 C2965 0.960 . S
H2974 C2966 0.930 . S
H2975 C2967 0.929 . S
H2976 C2984 0.929 . S
H2977 C2986 0.930 . S
H2978 C2988 0.930 . S
H2979 C2991 0.929 . S
H2980 C2994 0.930 . S
H2981 C2996 0.960 . S
H2982 C2996 0.960 . S
H2983 C2996 0.960 . S
C2984 H2976 0.929 . S
C2984 C2985 1.377 . S
C2984 C2986 1.384 . S
C2985 C2984 1.377 . S
C2985 C2991 1.390 . S
C2986 H2977 0.930 . S
C2986 C2984 1.384 . S
C2986 C2987 1.372 . S
C2987 C2986 1.372 . S
C2987 C2988 1.400 . S
C2987 C2992 1.490 . S
C2988 H2978 0.930 . S
C2988 C2987 1.400 . S
C2988 C2991 1.386 . S
H2989 C3005 0.930 . S
H2990 C3006 0.931 . S
C2991 H2979 0.929 . S
C2991 C2985 1.390 . S
C2991 C2988 1.386 . S
C2992 C2987 1.490 . S
C2992 C2994 1.395 . S
C2992 C2995 1.403 . S
H2993 C2999 0.930 . S
C2994 H2980 0.930 . S
C2994 C2992 1.395 . S
C2994 C2997 1.403 . S
C2995 C2992 1.403 . S
C2995 C2996 1.524 . S
C2995 C2999 1.400 . S
C2996 H2981 0.960 . S
C2996 H2982 0.960 . S
C2996 H2983 0.960 . S
C2996 C2995 1.524 . S
C2997 C2994 1.403 . S
C2997 C2998 1.392 . S
C2997 C3001 1.495 1_556 S
C2998 C2997 1.392 . S
C2998 C2999 1.385 . S
C2998 C3000 1.478 . S
C2999 H2993 0.930 . S
C2999 C2995 1.400 . S
C2999 C2998 1.385 . S
C3000 C2998 1.478 . S
C3000 C3002 1.381 . S
C3000 C3006 1.383 1_556 S
C3001 C2997 1.495 1_554 S
C3001 H3007 0.959 . S
C3001 H3008 0.961 . S
C3001 H3009 0.960 1_554 S
C3002 C3000 1.381 . S
C3002 C3003 1.394 . S
C3002 H3010 0.930 . S
C3003 C3002 1.394 . S
C3003 C3004 1.383 . S
C3003 H3011 0.929 . S
C3004 C3003 1.383 . S
C3004 C3005 1.377 1_556 S
C3005 H2989 0.930 . S
C3005 C3004 1.377 1_554 S
C3005 C3006 1.379 . S
C3006 H2990 0.931 . S
C3006 C3000 1.383 1_554 S
C3006 C3005 1.379 . S
H3007 C3001 0.959 . S
H3008 C3001 0.961 . S
H3009 C3001 0.960 1_556 S
H3010 C3002 0.930 . S
H3011 C3003 0.929 . S
H3012 C3020 0.929 . S
H3013 C3022 0.930 . S
H3014 C3024 0.930 . S
H3015 C3027 0.929 . S
H3016 C3030 0.930 . S
H3017 C3032 0.960 . S
H3018 C3032 0.960 . S
H3019 C3032 0.960 . S
C3020 H3012 0.929 . S
C3020 C3021 1.377 . S
C3020 C3022 1.384 . S
C3021 C3020 1.377 . S
C3021 C3027 1.390 . S
C3022 H3013 0.930 . S
C3022 C3020 1.384 . S
C3022 C3023 1.372 . S
C3023 C3022 1.372 . S
C3023 C3024 1.400 . S
C3023 C3028 1.490 . S
C3024 H3014 0.930 . S
C3024 C3023 1.400 . S
C3024 C3027 1.386 . S
H3025 C3041 0.930 . S
H3026 C3042 0.931 . S
C3027 H3015 0.929 . S
C3027 C3021 1.390 . S
C3027 C3024 1.386 . S
C3028 C3023 1.490 . S
C3028 C3030 1.395 . S
C3028 C3031 1.403 . S
H3029 C3035 0.930 . S
C3030 H3016 0.930 . S
C3030 C3028 1.395 . S
C3030 C3033 1.403 . S
C3031 C3028 1.403 . S
C3031 C3032 1.524 . S
C3031 C3035 1.400 . S
C3032 H3017 0.960 . S
C3032 H3018 0.960 . S
C3032 H3019 0.960 . S
C3032 C3031 1.524 . S
C3033 C3030 1.403 . S
C3033 C3034 1.392 . S
C3033 C3037 1.495 . S
C3034 C3033 1.392 . S
C3034 C3035 1.385 . S
C3034 C3036 1.478 . S
C3035 H3029 0.930 . S
C3035 C3031 1.400 . S
C3035 C3034 1.385 . S
C3036 C3034 1.478 . S
C3036 C3038 1.381 . S
C3036 C3042 1.383 . S
C3037 C3033 1.495 . S
C3037 H3043 0.959 . S
C3037 H3044 0.961 . S
C3037 H3045 0.960 . S
C3038 C3036 1.381 . S
C3038 C3039 1.394 . S
C3038 H3046 0.930 . S
C3039 C3038 1.394 . S
C3039 C3040 1.383 . S
C3039 H3047 0.929 . S
C3040 C3039 1.383 . S
C3040 C3041 1.377 . S
C3041 H3025 0.930 . S
C3041 C3040 1.377 . S
C3041 C3042 1.379 . S
C3042 H3026 0.931 . S
C3042 C3036 1.383 . S
C3042 C3041 1.379 . S
H3043 C3037 0.959 . S
H3044 C3037 0.961 . S
H3045 C3037 0.960 . S
H3046 C3038 0.930 . S
H3047 C3039 0.929 . S
H3048 C3056 0.929 . S
H3049 C3058 0.930 . S
H3050 C3060 0.930 . S
H3051 C3063 0.929 . S
H3052 C3066 0.906 1_556 S
H3053 C3068 0.960 . S
H3054 C3068 0.960 . S
H3055 C3068 0.960 . S
C3056 H3048 0.929 . S
C3056 C3057 1.377 . S
C3056 C3058 1.384 . S
C3057 C3056 1.377 . S
C3057 C3063 1.390 . S
C3058 H3049 0.930 . S
C3058 C3056 1.384 . S
C3058 C3059 1.372 . S
C3059 C3058 1.372 . S
C3059 C3060 1.400 . S
C3059 C3064 1.490 . S
C3060 H3050 0.930 . S
C3060 C3059 1.400 . S
C3060 C3063 1.386 . S
H3061 C3077 0.930 . S
H3062 C3078 0.931 . S
C3063 H3051 0.929 . S
C3063 C3057 1.390 . S
C3063 C3060 1.386 . S
C3064 C3059 1.490 . S
C3064 C3066 1.425 . S
C3064 C3067 1.403 . S
H3065 C3071 0.930 . S
C3066 H3052 0.906 1_554 S
C3066 C3064 1.425 . S
C3066 C3069 1.397 1_554 S
C3067 C3064 1.403 . S
C3067 C3068 1.524 . S
C3067 C3071 1.400 . S
C3068 H3053 0.960 . S
C3068 H3054 0.960 . S
C3068 H3055 0.960 . S
C3068 C3067 1.524 . S
C3069 C3066 1.397 1_556 S
C3069 C3070 1.392 1_556 S
C3069 C3073 1.495 . S
C3070 C3069 1.392 1_554 S
C3070 C3071 1.385 . S
C3070 C3072 1.478 . S
C3071 H3065 0.930 . S
C3071 C3067 1.400 . S
C3071 C3070 1.385 . S
C3072 C3070 1.478 . S
C3072 C3074 1.381 . S
C3072 C3078 1.383 . S
C3073 C3069 1.495 . S
C3073 H3079 0.959 . S
C3073 H3080 0.961 . S
C3073 H3081 0.960 . S
C3074 C3072 1.381 . S
C3074 C3075 1.394 . S
C3074 H3082 0.930 . S
C3075 C3074 1.394 . S
C3075 C3076 1.383 . S
C3075 H3083 0.929 . S
C3076 C3075 1.383 . S
C3076 C3077 1.377 . S
C3077 H3061 0.930 . S
C3077 C3076 1.377 . S
C3077 C3078 1.379 . S
C3078 H3062 0.931 . S
C3078 C3072 1.383 . S
C3078 C3077 1.379 . S
H3079 C3073 0.959 . S
H3080 C3073 0.961 . S
H3081 C3073 0.960 . S
H3082 C3074 0.930 . S
H3083 C3075 0.929 . S
H3084 C3092 0.929 . S
H3085 C3094 0.930 . S
H3086 C3096 0.930 1_556 S
H3087 C3099 0.925 1_556 S
H3088 C3102 0.930 . S
H3089 C3104 0.960 1_556 S
H3090 C3104 0.960 . S
H3091 C3104 0.960 1_556 S
C3092 H3084 0.929 . S
C3092 C3093 1.377 . S
C3092 C3094 1.384 . S
C3093 C3092 1.377 . S
C3093 C3099 1.390 . S
C3094 H3085 0.930 . S
C3094 C3092 1.384 . S
C3094 C3095 1.372 . S
C3095 C3094 1.372 . S
C3095 C3096 1.400 . S
C3095 C3100 1.490 . S
C3096 H3086 0.930 1_554 S
C3096 C3095 1.400 . S
C3096 C3099 1.386 . S
H3097 C3113 0.898 1_556 S
H3098 C3114 0.931 1_556 S
C3099 H3087 0.925 1_554 S
C3099 C3093 1.390 . S
C3099 C3096 1.386 . S
C3100 C3095 1.490 . S
C3100 C3102 1.395 . S
C3100 C3103 1.403 . S
H3101 C3107 0.930 . S
C3102 H3088 0.930 . S
C3102 C3100 1.395 . S
C3102 C3105 1.403 . S
C3103 C3100 1.403 . S
C3103 C3104 1.524 . S
C3103 C3107 1.400 . S
C3104 H3089 0.960 1_554 S
C3104 H3090 0.960 . S
C3104 H3091 0.960 1_554 S
C3104 C3103 1.524 . S
C3105 C3102 1.403 . S
C3105 C3106 1.392 . S
C3105 C3109 1.495 . S
C3106 C3105 1.392 . S
C3106 C3107 1.385 . S
C3106 C3108 1.478 . S
C3107 H3101 0.930 . S
C3107 C3103 1.400 . S
C3107 C3106 1.385 . S
C3108 C3106 1.478 . S
C3108 C3110 1.381 . S
C3108 C3114 1.383 . S
C3109 C3105 1.495 . S
C3109 H3115 0.959 . S
C3109 H3116 0.961 . S
C3109 H3117 0.960 . S
C3110 C3108 1.381 . S
C3110 C3111 1.394 . S
C3110 H3118 0.930 . S
C3111 C3110 1.394 . S
C3111 C3112 1.383 . S
C3111 H3119 0.929 . S
C3112 C3111 1.383 . S
C3112 C3113 1.404 . S
C3113 H3097 0.898 1_554 S
C3113 C3112 1.404 . S
C3113 C3114 1.384 . S
C3114 H3098 0.931 1_554 S
C3114 C3108 1.383 . S
C3114 C3113 1.384 . S
H3115 C3109 0.959 . S
H3116 C3109 0.961 . S
H3117 C3109 0.960 . S
H3118 C3110 0.930 . S
H3119 C3111 0.929 . S
C1420 C962 1.430 . S
C1401 C331 1.396 . S
C1456 C1010 1.678 . S
C1437 C380 1.692 . S
C1473 C421 1.369 . S
C1492 C1046 1.330 . S
C1528 C1082 1.607 . S
C1509 C260 1.627 . S
C1564 C1108 1.431 . S
C1545 C620 1.409 . S
C1600 C1144 1.606 . S
C1581 C740 1.591 . S
C1617 C680 1.466 . S
C1636 C1179 1.480 . S
C1672 C1216 1.622 1_565 S
C1653 C571 1.616 . S
C1689 C691 1.406 . S
C1708 C1250 1.403 . S
C1744 C1298 1.588 . S
C1725 C541 1.611 . S
C1761 C601 1.386 . S
C1780 C1251 1.422 . S
C1816 C1288 1.632 . S
C1797 C721 1.622 . S
C1833 C451 1.408 . S
C1852 C1334 1.367 . S
C1869 C241 1.628 . S
C1888 C1323 1.644 . S
C1905 C320 1.445 . S
C1924 C1324 1.465 . S
C1941 C391 1.662 . S
C1960 C1322 1.685 . S
C1977 C211 1.400 . S
C1996 C1070 1.413 . S
C2013 C841 1.375 . S
C2032 C1071 1.416 . S
C2068 C974 1.616 . S
C2049 C901 1.665 . S
C2104 C999 1.448 . S
C2085 C500 1.409 . S
C2121 C271 1.632 . S
C2140 C1106 1.646 . S
C2176 C1214 1.448 . S
C2157 C661 1.443 . S
C2212 C1107 1.623 . S
C2193 C560 1.605 . S
C2248 C1180 1.636 . S
C2229 C751 1.630 . S
C2284 C1178 1.410 . S
C2265 C871 1.389 . S
C2301 C920 1.694 . S
C2320 C1226 1.677 . S
C2337 C481 1.370 . S
C2356 C1118 1.325 . S
C2392 C1154 1.603 . S
C2373 C800 1.627 . S
C2409 C200 1.403 . S
C2428 C1036 1.441 . S
C2464 C1072 1.599 . S
C2445 C20 1.594 . S
C2500 C963 1.480 . S
C2481 C80 1.460 . S
C2536 C1000 1.635 . S
C2517 C151 1.618 . S
C2553 C91 1.405 . S
C2572 C1286 1.394 . S
C2589 C121 1.616 . S
C2608 C1262 1.562 . S
C2625 C181 1.385 . S
C2644 C1287 1.422 . S
C2661 C1 1.622 . S
C2680 C1252 1.630 . S
C2716 C1370 1.350 . S
C2697 C511 1.412 . S
C2752 C1359 1.659 . S
C2733 C781 1.633 . S
C2788 C1360 1.484 . S
C2769 C860 1.440 . S
C2805 C931 1.664 . S
C2824 C1358 1.677 . S
C2841 C631 1.399 . S
C2860 C1142 1.430 . S
C2896 C1143 1.417 . S
C2877 C301 1.374 . S
C2932 C1190 1.647 . S
C2913 C361 1.664 . S
C2968 C1215 1.449 . S
C2949 C440 1.416 . S
C2985 C811 1.630 . S
C3004 C1034 1.649 1_556 S
C3040 C998 1.459 . S
C3021 C61 1.451 . S
C3057 C140 1.601 . S
C3076 C1035 1.619 . S
C3112 C964 1.641 . S
C3093 C31 1.627 . S
