# Generated by pormake.
# Topology ssa, (4,4)-cn, num edge types: 1
# Building blocks:
#     Node 0, Type 0, BuildingBlock: ESEHIV_clean_sbu_0, # of connection points: 4
#     Node 1, Type 0, BuildingBlock: ESEHIV_clean_sbu_0, # of connection points: 4
#     Node 2, Type 0, BuildingBlock: ESEHIV_clean_sbu_0, # of connection points: 4
#     Node 3, Type 0, BuildingBlock: ESEHIV_clean_sbu_0, # of connection points: 4
#     Node 4, Type 0, BuildingBlock: ESEHIV_clean_sbu_0, # of connection points: 4
#     Node 5, Type 0, BuildingBlock: ESEHIV_clean_sbu_0, # of connection points: 4
#     Node 6, Type 1, BuildingBlock: AZAVOO_clean_linker_0, # of connection points: 4
#     Node 7, Type 1, BuildingBlock: AZAVOO_clean_linker_0, # of connection points: 4
#     Node 8, Type 1, BuildingBlock: AZAVOO_clean_linker_0, # of connection points: 4
#     Node 9, Type 1, BuildingBlock: AZAVOO_clean_linker_0, # of connection points: 4
#     Node 10, Type 1, BuildingBlock: AZAVOO_clean_linker_0, # of connection points: 4
#     Node 11, Type 1, BuildingBlock: AZAVOO_clean_linker_0, # of connection points: 4
#     Edge 12, Type (0, 1), BuildingBlock: TEMPAE_clean_linker_10, # of connection points: 2
#     Edge 13, Type (0, 1), BuildingBlock: TEMPAE_clean_linker_10, # of connection points: 2
#     Edge 14, Type (0, 1), BuildingBlock: TEMPAE_clean_linker_10, # of connection points: 2
#     Edge 15, Type (0, 1), BuildingBlock: TEMPAE_clean_linker_10, # of connection points: 2
#     Edge 16, Type (0, 1), BuildingBlock: TEMPAE_clean_linker_10, # of connection points: 2
#     Edge 17, Type (0, 1), BuildingBlock: TEMPAE_clean_linker_10, # of connection points: 2
#     Edge 18, Type (0, 1), BuildingBlock: TEMPAE_clean_linker_10, # of connection points: 2
#     Edge 19, Type (0, 1), BuildingBlock: TEMPAE_clean_linker_10, # of connection points: 2
#     Edge 20, Type (0, 1), BuildingBlock: TEMPAE_clean_linker_10, # of connection points: 2
#     Edge 21, Type (0, 1), BuildingBlock: TEMPAE_clean_linker_10, # of connection points: 2
#     Edge 22, Type (0, 1), BuildingBlock: TEMPAE_clean_linker_10, # of connection points: 2
#     Edge 23, Type (0, 1), BuildingBlock: TEMPAE_clean_linker_10, # of connection points: 2
#     Edge 24, Type (0, 1), BuildingBlock: TEMPAE_clean_linker_10, # of connection points: 2
#     Edge 25, Type (0, 1), BuildingBlock: TEMPAE_clean_linker_10, # of connection points: 2
#     Edge 26, Type (0, 1), BuildingBlock: TEMPAE_clean_linker_10, # of connection points: 2
#     Edge 27, Type (0, 1), BuildingBlock: TEMPAE_clean_linker_10, # of connection points: 2
#     Edge 28, Type (0, 1), BuildingBlock: TEMPAE_clean_linker_10, # of connection points: 2
#     Edge 29, Type (0, 1), BuildingBlock: TEMPAE_clean_linker_10, # of connection points: 2
#     Edge 30, Type (0, 1), BuildingBlock: TEMPAE_clean_linker_10, # of connection points: 2
#     Edge 31, Type (0, 1), BuildingBlock: TEMPAE_clean_linker_10, # of connection points: 2
#     Edge 32, Type (0, 1), BuildingBlock: TEMPAE_clean_linker_10, # of connection points: 2
#     Edge 33, Type (0, 1), BuildingBlock: TEMPAE_clean_linker_10, # of connection points: 2
#     Edge 34, Type (0, 1), BuildingBlock: TEMPAE_clean_linker_10, # of connection points: 2
#     Edge 35, Type (0, 1), BuildingBlock: TEMPAE_clean_linker_10, # of connection points: 2
# Relax obj value: 0.074
# Max RMSD: 0.230
# Mean RMSD: 0.156
data_MOF--net-ssa--node1-ESEHIV_clean_sbu_0--node2-AZAVOO_clean_linker_0--edge1-TEMPAE_clean_linker_10
_symmetry_space_group_name_H-M    P1
_symmetry_Int_Tables_number       1
_symmetry_cell_setting            triclinic
loop_
_symmetry_equiv_pos_as_xyz
'x, y, z'
_cell_length_a     50.145349
_cell_length_b     53.983234
_cell_length_c     49.372538
_cell_angle_alpha  88.535531
_cell_angle_beta   93.541769
_cell_angle_gamma 122.38587
loop_
_atom_site_label
_atom_site_type_symbol
_atom_site_fract_x
_atom_site_fract_y
_atom_site_fract_z
_atom_type_partial_charge
Cu0 Cu 0.15159 0.58981 0.00486 0.0
N1 N 0.15919 0.57837 0.97237 0.0
N2 N 0.14783 0.55078 0.93548 0.0
C3 C 0.13619 0.55708 0.95621 0.0
C4 C 0.17954 0.56852 0.93874 0.0
C5 C 0.18652 0.58586 0.96149 0.0
O6 O 0.10967 0.58408 0.00084 0.0
C7 C 0.18384 0.57192 0.03844 0.0
O8 O 0.20637 0.59132 0.02334 0.0
H9 H 0.11135 0.5454 0.96031 0.0
H10 H 0.20985 0.60203 0.96995 0.0
N11 N 0.18124 0.62892 0.01351 0.0
N12 N 0.2132 0.6673 0.04068 0.0
C13 C 0.18898 0.63906 0.03914 0.0
C14 C 0.20093 0.65156 0.99798 0.0
C15 C 0.22069 0.67544 0.01476 0.0
C16 C 0.1033 0.59357 0.97907 0.0
O17 O 0.12523 0.60741 0.96149 0.0
H18 H 0.17726 0.6256 0.05639 0.0
H19 H 0.20152 0.65051 0.97619 0.0
O20 O 0.15599 0.56677 0.03384 0.0
H21 H 0.1963 0.56849 0.92596 0.0
H22 H 0.23977 0.6967 0.00847 0.0
Cu23 Cu 0.61221 0.00929 0.57285 0.0
N24 N 0.62109 0.9799 0.57483 0.0
N25 N 0.63262 0.94783 0.5608 0.0
C26 C 0.62337 0.96645 0.55333 0.0
C27 C 0.63626 0.94963 0.58816 0.0
C28 C 0.62904 0.96943 0.59677 0.0
O29 O 0.59502 0.00761 0.53631 0.0
C30 C 0.65173 0.0704 0.5831 0.0
O31 O 0.62637 0.07075 0.57555 0.0
H32 H 0.61957 0.97119 0.53252 0.0
H33 H 0.63025 0.97624 0.61746 0.0
N34 N 0.58201 0.00243 0.5973 0.0
N35 N 0.55779 0.01263 0.62754 0.0
C36 C 0.58567 0.02046 0.61753 0.0
C37 C 0.55081 0.98213 0.5948 0.0
C38 C 0.53576 0.98844 0.61338 0.0
C39 C 0.57599 0.01571 0.52942 0.0
O40 O 0.56966 0.02933 0.54714 0.0
H41 H 0.60797 0.04022 0.62339 0.0
H42 H 0.53959 0.96519 0.5793 0.0
O43 O 0.65084 0.04647 0.58179 0.0
H44 H 0.64387 0.93774 0.60101 0.0
H45 H 0.51049 0.97698 0.61542 0.0
Cu46 Cu 0.60092 0.49682 0.10452 0.0
N47 N 0.59114 0.45877 0.0983 0.0
N48 N 0.57975 0.41964 0.07386 0.0
C49 C 0.5825 0.4459 0.07362 0.0
C50 C 0.58685 0.41576 0.09983 0.0
C51 C 0.59374 0.43993 0.11492 0.0
O52 O 0.62139 0.51874 0.07243 0.0
C53 C 0.55236 0.4859 0.13529 0.0
O54 O 0.56659 0.47578 0.15086 0.0
H55 H 0.57968 0.45627 0.05557 0.0
H56 H 0.60084 0.44377 0.1363 0.0
N57 N 0.62923 0.51545 0.13447 0.0
N58 N 0.65447 0.54861 0.16794 0.0
C59 C 0.63299 0.53918 0.14668 0.0
C60 C 0.64903 0.50948 0.14842 0.0
C61 C 0.66462 0.52991 0.16916 0.0
C62 C 0.64709 0.52016 0.06871 0.0
O63 O 0.65715 0.50836 0.0869 0.0
H64 H 0.61954 0.54886 0.1403 0.0
H65 H 0.65206 0.49169 0.14381 0.0
O66 O 0.56264 0.49567 0.11195 0.0
H67 H 0.5873 0.39695 0.10731 0.0
H68 H 0.68226 0.53104 0.18375 0.0
Cu69 Cu 0.0242 0.48348 0.53885 0.0
N70 N 0.0129 0.45741 0.51025 0.0
N71 N 0.02028 0.43737 0.47483 0.0
C72 C 0.03169 0.46174 0.49007 0.0
C73 C 0.99308 0.41686 0.48579 0.0
C74 C 0.98851 0.42937 0.50767 0.0
O75 O 0.06715 0.51609 0.53309 0.0
C76 C 0.03683 0.45791 0.58725 0.0
O77 O 0.06598 0.46906 0.58031 0.0
H78 H 0.05456 0.4817 0.48795 0.0
H79 H 0.96982 0.41838 0.52165 0.0
N80 N 0.99689 0.49678 0.53919 0.0
N81 N 0.97001 0.51386 0.55712 0.0
C82 C 0.99099 0.50574 0.5619 0.0
C83 C 0.97879 0.49894 0.51918 0.0
C84 C 0.96198 0.50944 0.53027 0.0
C85 C 0.07595 0.54292 0.53536 0.0
O86 O 0.05735 0.54948 0.54647 0.0
H87 H 0.00165 0.50586 0.58169 0.0
H88 H 0.97776 0.49314 0.49816 0.0
O89 O 0.01814 0.4624 0.57255 0.0
H90 H 0.97835 0.39418 0.47922 0.0
H91 H 0.94538 0.51364 0.51945 0.0
Cu92 Cu 0.57 0.9917 0.06448 0.0
N93 N 0.53919 0.98894 0.03952 0.0
N94 N 0.5129 0.00578 0.0158 0.0
C95 C 0.53843 0.01265 0.03222 0.0
C96 C 0.49695 0.9764 0.01234 0.0
C97 C 0.51315 0.96598 0.02726 0.0
O98 O 0.60871 0.0289 0.05716 0.0
C99 C 0.53029 0.9621 0.1047 0.0
O100 O 0.51929 0.94252 0.08505 0.0
H101 H 0.55646 0.03464 0.03899 0.0
H102 H 0.50589 0.94328 0.02953 0.0
N103 N 0.57864 0.96242 0.06095 0.0
N104 N 0.60169 0.93775 0.07253 0.0
C105 C 0.60148 0.96222 0.0764 0.0
C106 C 0.56391 0.93726 0.04643 0.0
C107 C 0.57797 0.92177 0.05379 0.0
C108 C 0.62074 0.02868 0.03522 0.0
O109 O 0.60671 0.00437 0.02071 0.0
H110 H 0.61643 0.97898 0.09147 0.0
H111 H 0.54373 0.9301 0.03233 0.0
O112 O 0.55425 0.9876 0.1005 0.0
H113 H 0.47484 0.96335 1.00051 0.0
H114 H 0.57071 0.90013 0.04663 0.0
Cu115 Cu 0.57164 0.51058 0.56391 0.0
N116 N 0.60447 0.529 0.5406 0.0
N117 N 0.63683 0.56391 0.51258 0.0
C118 C 0.61923 0.55751 0.53425 0.0
C119 C 0.63385 0.53852 0.50551 0.0
C120 C 0.6137 0.5169 0.52286 0.0
O121 O 0.53354 0.50304 0.54341 0.0
C122 C 0.56918 0.52757 0.61718 0.0
O123 O 0.54062 0.50378 0.61645 0.0
H124 H 0.61542 0.5729 0.5442 0.0
H125 H 0.60456 0.4937 0.52135 0.0
N126 N 0.56699 0.47558 0.5758 0.0
N127 N 0.56584 0.44264 0.60469 0.0
C128 C 0.57487 0.47082 0.60104 0.0
C129 C 0.55301 0.44959 0.56276 0.0
C130 C 0.55232 0.42914 0.58061 0.0
C131 C 0.5325 0.52406 0.53228 0.0
O132 O 0.55537 0.55114 0.53824 0.0
H133 H 0.58638 0.48752 0.61673 0.0
H134 H 0.54299 0.4456 0.54212 0.0
O135 O 0.58403 0.53584 0.59549 0.0
H136 H 0.64327 0.5353 0.48772 0.0
H137 H 0.54128 0.40591 0.57665 0.0
H138 H 0.33526 0.47166 0.4761 0.0
H139 H 0.09701 0.42937 0.22917 0.0
H140 H 0.3588 0.52277 0.33005 0.0
H141 H 0.39926 0.5317 0.36555 0.0
H142 H 0.37321 0.44178 0.35883 0.0
H143 H 0.3323 0.43283 0.32334 0.0
H144 H 0.31129 0.50362 0.36742 0.0
H145 H 0.32363 0.49854 0.41518 0.0
H146 H 0.28469 0.40616 0.40161 0.0
H147 H 0.27261 0.41165 0.35382 0.0
H148 H 0.25564 0.4951 0.35019 0.0
H149 H 0.21179 0.48545 0.37731 0.0
H150 H 0.1585 0.39527 0.34972 0.0
H151 H 0.20297 0.40491 0.32318 0.0
H152 H 0.24561 0.50692 0.28198 0.0
H153 H 0.19828 0.50513 0.26309 0.0
H154 H 0.15076 0.41116 0.25268 0.0
H155 H 0.19837 0.41336 0.27138 0.0
H156 H 0.30878 0.52359 0.24987 0.0
H157 H 0.29318 0.5383 0.20759 0.0
H158 H 0.22392 0.44724 0.18821 0.0
H159 H 0.24061 0.43276 0.23007 0.0
H160 H 0.36942 0.51901 0.27943 0.0
H161 H 0.40908 0.52313 0.25014 0.0
H162 H 0.33841 0.44065 0.2115 0.0
H163 H 0.29985 0.43562 0.24243 0.0
O164 O 0.32911 0.47294 0.45743 0.0
O165 O 0.30786 0.42537 0.44966 0.0
O166 O 0.14157 0.47909 0.24238 0.0
O167 O 0.11601 0.43071 0.2368 0.0
C168 C 0.31196 0.46992 0.31071 0.0
C169 C 0.28684 0.46181 0.32775 0.0
C170 C 0.25801 0.45736 0.31682 0.0
C171 C 0.25434 0.46168 0.28893 0.0
C172 C 0.27909 0.46933 0.27166 0.0
C173 C 0.30776 0.47272 0.28237 0.0
C174 C 0.34283 0.47725 0.32384 0.0
C175 C 0.36278 0.50534 0.33528 0.0
C176 C 0.38553 0.5103 0.35585 0.0
C177 C 0.38897 0.48731 0.36513 0.0
C178 C 0.37102 0.45986 0.35195 0.0
C179 C 0.34792 0.45481 0.3315 0.0
C180 C 0.29101 0.45798 0.35727 0.0
C181 C 0.30506 0.48224 0.37492 0.0
C182 C 0.31222 0.47929 0.40215 0.0
C183 C 0.3053 0.45197 0.41219 0.0
C184 C 0.2904 0.42753 0.39453 0.0
C185 C 0.28331 0.43054 0.36728 0.0
C186 C 0.23246 0.45067 0.33487 0.0
C187 C 0.23476 0.47314 0.35045 0.0
C188 C 0.20973 0.46761 0.36584 0.0
C189 C 0.18183 0.43963 0.36552 0.0
C190 C 0.17972 0.41704 0.35014 0.0
C191 C 0.20502 0.42248 0.3351 0.0
C192 C 0.22527 0.46026 0.27812 0.0
C193 C 0.22489 0.48599 0.27567 0.0
C194 C 0.19786 0.48489 0.26486 0.0
C195 C 0.1707 0.45797 0.2564 0.0
C196 C 0.17122 0.43222 0.25903 0.0
C197 C 0.19831 0.43338 0.26977 0.0
C198 C 0.27575 0.47714 0.2431 0.0
C199 C 0.29106 0.50679 0.236 0.0
C200 C 0.2817 0.51515 0.21206 0.0
C201 C 0.25674 0.49398 0.19483 0.0
C202 C 0.2432 0.46412 0.20098 0.0
C203 C 0.25273 0.45578 0.22487 0.0
C204 C 0.33184 0.47668 0.2636 0.0
C205 C 0.36268 0.50159 0.26499 0.0
C206 C 0.3852 0.50415 0.2478 0.0
C207 C 0.37716 0.48211 0.22845 0.0
C208 C 0.34583 0.45774 0.22651 0.0
C209 C 0.32358 0.45496 0.24403 0.0
C210 C 0.31405 0.44916 0.44087 0.0
C211 C 0.14196 0.45669 0.2448 0.0
H212 H 0.91066 0.31814 0.00438 0.0
H213 H 0.69075 0.07266 0.80512 0.0
H214 H 0.8968 0.32835 0.86078 0.0
H215 H 0.94617 0.37479 0.87251 0.0
H216 H 0.99933 0.34233 0.8389 0.0
H217 H 0.94982 0.29526 0.8282 0.0
H218 H 0.84751 0.28213 0.89613 0.0
H219 H 0.86705 0.29876 0.94291 0.0
H220 H 0.94187 0.28277 0.93405 0.0
H221 H 0.92185 0.26587 0.88739 0.0
H222 H 0.78705 0.23102 0.8665 0.0
H223 H 0.75247 0.20276 0.90294 0.0
H224 H 0.81642 0.17523 0.92948 0.0
H225 H 0.85123 0.20423 0.89332 0.0
H226 H 0.77799 0.21899 0.80255 0.0
H227 H 0.72811 0.17288 0.79137 0.0
H228 H 0.76682 0.12471 0.82905 0.0
H229 H 0.81673 0.17097 0.83974 0.0
H230 H 0.82923 0.26441 0.76532 0.0
H231 H 0.80234 0.24042 0.7218 0.0
H232 H 0.81887 0.171 0.74054 0.0
H233 H 0.8462 0.19531 0.78369 0.0
H234 H 0.88448 0.32034 0.79379 0.0
H235 H 0.91572 0.35238 0.75738 0.0
H236 H 0.9475 0.29405 0.74169 0.0
H237 H 0.9151 0.26158 0.77764 0.0
O238 O 0.90323 0.31133 0.98586 0.0
O239 O 0.94134 0.30287 0.98022 0.0
O240 O 0.69147 0.117 0.79007 0.0
O241 O 0.71011 0.0912 0.80947 0.0
C242 C 0.88979 0.27973 0.83821 0.0
C243 C 0.87146 0.26275 0.85997 0.0
C244 C 0.84205 0.23636 0.8546 0.0
C245 C 0.83169 0.22629 0.82757 0.0
C246 C 0.85047 0.24283 0.80586 0.0
C247 C 0.87914 0.2699 0.81112 0.0
C248 C 0.91974 0.30835 0.84386 0.0
C249 C 0.91907 0.33117 0.85606 0.0
C250 C 0.94717 0.35762 0.86266 0.0
C251 C 0.97634 0.3619 0.85662 0.0
C252 C 0.97702 0.33945 0.84361 0.0
C253 C 0.94887 0.3127 0.8375 0.0
C254 C 0.88317 0.27266 0.88844 0.0
C255 C 0.86797 0.28204 0.90441 0.0
C256 C 0.87926 0.29163 0.93109 0.0
C257 C 0.90602 0.29209 0.94224 0.0
C258 C 0.9212 0.28269 0.92611 0.0
C259 C 0.90984 0.27304 0.89946 0.0
C260 C 0.82157 0.21958 0.87721 0.0
C261 C 0.7936 0.21895 0.88028 0.0
C262 C 0.77384 0.20271 0.90106 0.0
C263 C 0.78156 0.18661 0.91916 0.0
C264 C 0.80993 0.18768 0.91621 0.0
C265 C 0.82976 0.20405 0.89545 0.0
C266 C 0.80096 0.1983 0.82191 0.0
C267 C 0.77562 0.19845 0.80837 0.0
C268 C 0.74716 0.17209 0.80203 0.0
C269 C 0.74349 0.14509 0.80928 0.0
C270 C 0.76885 0.14509 0.82316 0.0
C271 C 0.79734 0.17147 0.82939 0.0
C272 C 0.83953 0.23151 0.77767 0.0
C273 C 0.82789 0.24451 0.75962 0.0
C274 C 0.81251 0.23079 0.73486 0.0
C275 C 0.8083 0.20376 0.72804 0.0
C276 C 0.82155 0.19168 0.74549 0.0
C277 C 0.83723 0.20557 0.77003 0.0
C278 C 0.89749 0.28864 0.78831 0.0
C279 C 0.89809 0.31446 0.78238 0.0
C280 C 0.91624 0.33288 0.76172 0.0
C281 C 0.93445 0.32602 0.74667 0.0
C282 C 0.93357 0.29992 0.75261 0.0
C283 C 0.91515 0.28135 0.77318 0.0
C284 C 0.91802 0.30239 0.97055 0.0
C285 C 0.71342 0.117 0.80233 0.0
H286 H 0.68397 0.78191 0.14125 0.0
H287 H 0.73987 0.99599 0.3651 0.0
H288 H 0.65268 0.75037 0.28545 0.0
H289 H 0.64735 0.70617 0.26745 0.0
H290 H 0.74171 0.73519 0.30018 0.0
H291 H 0.74715 0.78006 0.31737 0.0
H292 H 0.65928 0.79936 0.25113 0.0
H293 H 0.66058 0.78988 0.2032 0.0
H294 H 0.75586 0.8092 0.2178 0.0
H295 H 0.75439 0.81904 0.26565 0.0
H296 H 0.65595 0.84551 0.28582 0.0
H297 H 0.64637 0.86794 0.24609 0.0
H298 H 0.74082 0.90024 0.22158 0.0
H299 H 0.75018 0.87745 0.26168 0.0
H300 H 0.65803 0.85122 0.34392 0.0
H301 H 0.66018 0.89506 0.3591 0.0
H302 H 0.75826 0.94822 0.33934 0.0
H303 H 0.75589 0.90409 0.3246 0.0
H304 H 0.65072 0.79924 0.37363 0.0
H305 H 0.64089 0.81559 0.41541 0.0
H306 H 0.73958 0.88523 0.42379 0.0
H307 H 0.74892 0.86903 0.38151 0.0
H308 H 0.64974 0.75026 0.34826 0.0
H309 H 0.64437 0.71156 0.37863 0.0
H310 H 0.74342 0.76627 0.4043 0.0
H311 H 0.74831 0.8052 0.37413 0.0
O312 O 0.68394 0.78568 0.16029 0.0
O313 O 0.73264 0.79523 0.16898 0.0
O314 O 0.68792 0.94997 0.36909 0.0
O315 O 0.73827 0.97834 0.35895 0.0
C316 C 0.70419 0.79651 0.31089 0.0
C317 C 0.70628 0.81645 0.29079 0.0
C318 C 0.7068 0.84182 0.29818 0.0
C319 C 0.70615 0.84767 0.32575 0.0
C320 C 0.70423 0.82779 0.34597 0.0
C321 C 0.70311 0.80217 0.33846 0.0
C322 C 0.70035 0.76846 0.30254 0.0
C323 C 0.67211 0.74706 0.2889 0.0
C324 C 0.66904 0.72169 0.27883 0.0
C325 C 0.69411 0.71708 0.28237 0.0
C326 C 0.7221 0.73822 0.29684 0.0
C327 C 0.72518 0.76372 0.30684 0.0
C328 C 0.70685 0.81013 0.26177 0.0
C329 C 0.68046 0.80167 0.24389 0.0
C330 C 0.68125 0.7962 0.21655 0.0
C331 C 0.70836 0.79886 0.20664 0.0
C332 C 0.73463 0.80702 0.22475 0.0
C333 C 0.73385 0.8126 0.25207 0.0
C334 C 0.70379 0.85999 0.27669 0.0
C335 C 0.67491 0.85816 0.27233 0.0
C336 C 0.66948 0.87095 0.24956 0.0
C337 C 0.69284 0.8858 0.23066 0.0
C338 C 0.7223 0.88868 0.23567 0.0
C339 C 0.72777 0.87593 0.25861 0.0
C340 C 0.70689 0.87448 0.33341 0.0
C341 C 0.67996 0.87235 0.34294 0.0
C342 C 0.68125 0.89743 0.35155 0.0
C343 C 0.70946 0.92515 0.35055 0.0
C344 C 0.73621 0.92722 0.34046 0.0
C345 C 0.73491 0.90208 0.33195 0.0
C346 C 0.70053 0.83294 0.37454 0.0
C347 C 0.67042 0.8174 0.38499 0.0
C348 C 0.66484 0.82688 0.40887 0.0
C349 C 0.68935 0.85202 0.4228 0.0
C350 C 0.72004 0.86616 0.41329 0.0
C351 C 0.72555 0.85673 0.38934 0.0
C352 C 0.69937 0.7804 0.35911 0.0
C353 C 0.67013 0.75397 0.36073 0.0
C354 C 0.66724 0.73183 0.37784 0.0
C355 C 0.69361 0.73572 0.39355 0.0
C356 C 0.72268 0.76269 0.39252 0.0
C357 C 0.72553 0.78491 0.37538 0.0
C358 C 0.70917 0.79316 0.17755 0.0
C359 C 0.71109 0.95182 0.36009 0.0
H360 H 0.75339 0.59145 0.64811 0.0
H361 H 0.99565 0.54959 0.8358 0.0
H362 H 0.79577 0.61557 0.78884 0.0
H363 H 0.74739 0.60936 0.76709 0.0
H364 H 0.69595 0.51791 0.78924 0.0
H365 H 0.74461 0.52434 0.8109 0.0
H366 H 0.83703 0.614 0.74491 0.0
H367 H 0.80926 0.61275 0.70187 0.0
H368 H 0.73789 0.52164 0.71525 0.0
H369 H 0.76615 0.5231 0.75797 0.0
H370 H 0.90086 0.61095 0.7607 0.0
H371 H 0.92233 0.6037 0.72037 0.0
H372 H 0.84269 0.51404 0.71395 0.0
H373 H 0.82206 0.52127 0.75452 0.0
H374 H 0.91832 0.61895 0.82741 0.0
H375 H 0.96721 0.61998 0.83794 0.0
H376 H 0.92003 0.52932 0.81222 0.0
H377 H 0.87114 0.5285 0.80211 0.0
H378 H 0.87743 0.61576 0.87239 0.0
H379 H 0.91354 0.61797 0.90938 0.0
H380 H 0.88391 0.52842 0.89135 0.0
H381 H 0.84675 0.52605 0.85599 0.0
H382 H 0.80598 0.61274 0.84912 0.0
H383 H 0.77379 0.60824 0.8865 0.0
H384 H 0.75922 0.52338 0.9058 0.0
H385 H 0.79009 0.52752 0.86767 0.0
O386 O 0.76467 0.59118 0.66463 0.0
O387 O 0.72849 0.54447 0.67268 0.0
O388 O 1.00059 0.59711 0.84235 0.0
O389 O 0.97697 0.55006 0.83084 0.0
C390 C 0.80401 0.5716 0.80528 0.0
C391 C 0.81845 0.57044 0.78201 0.0
C392 C 0.84665 0.57058 0.78478 0.0
C393 C 0.86077 0.57228 0.81083 0.0
C394 C 0.84563 0.57203 0.83428 0.0
C395 C 0.81726 0.57189 0.83151 0.0
C396 C 0.77371 0.57038 0.80133 0.0
C397 C 0.77375 0.59454 0.7901 0.0
C398 C 0.74609 0.59091 0.77759 0.0
C399 C 0.71802 0.56303 0.77611 0.0
C400 C 0.71737 0.53956 0.78983 0.0
C401 C 0.74502 0.54326 0.80249 0.0
C402 C 0.8035 0.5687 0.75457 0.0
C403 C 0.81565 0.5937 0.73828 0.0
C404 C 0.79963 0.59296 0.71381 0.0
C405 C 0.77119 0.56716 0.70524 0.0
C406 C 0.75964 0.5419 0.72129 0.0
C407 C 0.77575 0.54265 0.74567 0.0
C408 C 0.85993 0.56664 0.76044 0.0
C409 C 0.8882 0.58977 0.75055 0.0
C410 C 0.90025 0.58564 0.72746 0.0
C411 C 0.88419 0.55828 0.71398 0.0
C412 C 0.85583 0.53524 0.72404 0.0
C413 C 0.84389 0.53938 0.74707 0.0
C414 C 0.89125 0.5737 0.81391 0.0
C415 C 0.91872 0.59945 0.82375 0.0
C416 C 0.94658 0.59994 0.82983 0.0
C417 C 0.94749 0.57467 0.82604 0.0
C418 C 0.92012 0.54914 0.81544 0.0
C419 C 0.89223 0.54866 0.80942 0.0
C420 C 0.85965 0.57082 0.86137 0.0
C421 C 0.8778 0.59627 0.87733 0.0
C422 C 0.89886 0.59761 0.89815 0.0
C423 C 0.90241 0.57362 0.90308 0.0
C424 C 0.88192 0.54733 0.88855 0.0
C425 C 0.86056 0.54589 0.86816 0.0
C426 C 0.80044 0.57049 0.85572 0.0
C427 C 0.79587 0.59324 0.86151 0.0
C428 C 0.77758 0.59067 0.88294 0.0
C429 C 0.76367 0.56533 0.89903 0.0
C430 C 0.76901 0.54293 0.89349 0.0
C431 C 0.78706 0.54542 0.87196 0.0
C432 C 0.75345 0.56678 0.67987 0.0
C433 C 0.97668 0.57476 0.83353 0.0
H434 H 0.31348 0.81981 0.5136 0.0
H435 H 0.17106 0.60421 0.27777 0.0
H436 H 0.33026 0.85437 0.3738 0.0
H437 H 0.37214 0.89834 0.3985 0.0
H438 H 0.4418 0.88206 0.37181 0.0
H439 H 0.3998 0.83747 0.34815 0.0
H440 H 0.27632 0.79578 0.398 0.0
H441 H 0.2835 0.80532 0.44692 0.0
H442 H 0.37195 0.80912 0.44841 0.0
H443 H 0.36424 0.79914 0.39955 0.0
H444 H 0.22906 0.74209 0.36273 0.0
H445 H 0.19521 0.70379 0.39431 0.0
H446 H 0.27287 0.69363 0.41982 0.0
H447 H 0.30668 0.73255 0.3887 0.0
H448 H 0.23379 0.74749 0.29712 0.0
H449 H 0.19118 0.70039 0.2778 0.0
H450 H 0.23957 0.6591 0.31136 0.0
H451 H 0.28216 0.7064 0.3303 0.0
H452 H 0.28645 0.8045 0.27052 0.0
H453 H 0.27683 0.79358 0.22165 0.0
H454 H 0.31026 0.73477 0.23217 0.0
H455 H 0.31983 0.74584 0.28093 0.0
H456 H 0.34233 0.86192 0.30512 0.0
H457 H 0.38162 0.89819 0.27477 0.0
H458 H 0.41496 0.84045 0.26252 0.0
H459 H 0.37632 0.80488 0.29317 0.0
O460 O 0.31098 0.8158 0.49431 0.0
O461 O 0.35648 0.8179 0.49392 0.0
O462 O 0.1637 0.6454 0.26831 0.0
O463 O 0.18757 0.62311 0.28519 0.0
C464 C 0.33625 0.81389 0.34782 0.0
C465 C 0.31555 0.79151 0.36545 0.0
C466 C 0.29114 0.76396 0.3548 0.0
C467 C 0.28698 0.75901 0.32646 0.0
C468 C 0.30785 0.78125 0.30889 0.0
C469 C 0.33281 0.80852 0.31957 0.0
C470 C 0.36198 0.84267 0.35927 0.0
C471 C 0.35461 0.86051 0.373 0.0
C472 C 0.37844 0.88557 0.38698 0.0
C473 C 0.41004 0.89348 0.38687 0.0
C474 C 0.41761 0.87654 0.37185 0.0
C475 C 0.39369 0.85114 0.35836 0.0
C476 C 0.31975 0.79677 0.39525 0.0
C477 C 0.29711 0.79848 0.40898 0.0
C478 C 0.30134 0.80403 0.4369 0.0
C479 C 0.32834 0.80804 0.45158 0.0
C480 C 0.35091 0.80618 0.43772 0.0
C481 C 0.34659 0.80051 0.40982 0.0
C482 C 0.27031 0.74011 0.37345 0.0
C483 C 0.23866 0.73149 0.37511 0.0
C484 C 0.21934 0.70949 0.39308 0.0
C485 C 0.23125 0.69552 0.40966 0.0
C486 C 0.263 0.70415 0.40771 0.0
C487 C 0.28232 0.72626 0.38983 0.0
C488 C 0.26098 0.7303 0.31512 0.0
C489 C 0.23513 0.72824 0.30023 0.0
C490 C 0.21083 0.70132 0.28926 0.0
C491 C 0.21197 0.67596 0.29305 0.0
C492 C 0.23794 0.67817 0.30807 0.0
C493 C 0.26225 0.70513 0.31897 0.0
C494 C 0.30366 0.77582 0.27918 0.0
C495 C 0.29192 0.78946 0.26217 0.0
C496 C 0.28638 0.78316 0.23437 0.0
C497 C 0.29284 0.76336 0.22316 0.0
C498 C 0.30542 0.75037 0.24021 0.0
C499 C 0.31067 0.75647 0.26803 0.0
C500 C 0.3564 0.83073 0.30124 0.0
C501 C 0.35827 0.85727 0.29594 0.0
C502 C 0.38063 0.87788 0.27857 0.0
C503 C 0.40157 0.8723 0.26636 0.0
C504 C 0.39963 0.84571 0.27195 0.0
C505 C 0.37732 0.82519 0.2892 0.0
C506 C 0.33289 0.8142 0.4812 0.0
C507 C 0.18624 0.64731 0.2814 0.0
H508 H 0.57844 0.30402 0.65488 0.0
H509 H 0.4715 0.04451 0.87172 0.0
H510 H 0.59334 0.29958 0.79737 0.0
H511 H 0.60071 0.34052 0.76975 0.0
H512 H 0.50495 0.3156 0.7831 0.0
H513 H 0.4973 0.27339 0.80927 0.0
H514 H 0.58637 0.25726 0.76121 0.0
H515 H 0.59171 0.27763 0.71559 0.0
H516 H 0.4946 0.2544 0.71372 0.0
H517 H 0.48949 0.23374 0.75919 0.0
H518 H 0.58209 0.21203 0.78076 0.0
H519 H 0.58518 0.17883 0.74995 0.0
H520 H 0.48322 0.12483 0.74237 0.0
H521 H 0.48028 0.15884 0.77241 0.0
H522 H 0.56807 0.18754 0.84853 0.0
H523 H 0.56008 0.14144 0.8664 0.0
H524 H 0.46105 0.09686 0.84005 0.0
H525 H 0.46934 0.14319 0.82258 0.0
H526 H 0.56684 0.22984 0.8885 0.0
H527 H 0.55982 0.19857 0.92756 0.0
H528 H 0.4602 0.1432 0.9041 0.0
H529 H 0.46727 0.17545 0.86604 0.0
H530 H 0.58623 0.29046 0.86139 0.0
H531 H 0.5933 0.32075 0.90045 0.0
H532 H 0.4918 0.27335 0.90594 0.0
H533 H 0.48521 0.24247 0.86743 0.0
O534 O 0.57543 0.29465 0.67239 0.0
O535 O 0.52514 0.28153 0.67219 0.0
O536 O 0.5265 0.08693 0.87779 0.0
O537 O 0.47548 0.06289 0.86436 0.0
C538 C 0.53717 0.25366 0.81262 0.0
C539 C 0.53514 0.23461 0.79216 0.0
C540 C 0.52945 0.20676 0.79909 0.0
C541 C 0.5237 0.19721 0.82612 0.0
C542 C 0.52379 0.21553 0.84622 0.0
C543 C 0.53152 0.24414 0.83972 0.0
C544 C 0.54464 0.2833 0.80484 0.0
C545 C 0.57431 0.30355 0.79503 0.0
C546 C 0.57847 0.32705 0.77926 0.0
C547 C 0.55315 0.33101 0.77359 0.0
C548 C 0.52464 0.31266 0.78637 0.0
C549 C 0.52034 0.28881 0.80172 0.0
C550 C 0.5374 0.24361 0.7633 0.0
C551 C 0.56605 0.25589 0.75062 0.0
C552 C 0.56912 0.26781 0.72468 0.0
C553 C 0.5436 0.26774 0.71103 0.0
C554 C 0.51471 0.2548 0.72363 0.0
C555 C 0.51166 0.24283 0.74952 0.0
C556 C 0.53098 0.18801 0.77856 0.0
C557 C 0.56043 0.19344 0.77192 0.0
C558 C 0.56216 0.17443 0.75446 0.0
C559 C 0.53443 0.1493 0.74387 0.0
C560 C 0.50492 0.14401 0.75039 0.0
C561 C 0.50321 0.1634 0.76741 0.0
C562 C 0.51935 0.16858 0.83406 0.0
C563 C 0.54478 0.16768 0.84631 0.0
C564 C 0.54011 0.14137 0.85661 0.0
C565 C 0.50989 0.11546 0.8547 0.0
C566 C 0.48461 0.11639 0.84185 0.0
C567 C 0.48931 0.14275 0.83165 0.0
C568 C 0.51763 0.20458 0.87433 0.0
C569 C 0.54325 0.21189 0.89271 0.0
C570 C 0.53923 0.19373 0.91473 0.0
C571 C 0.50966 0.16787 0.91834 0.0
C572 C 0.48329 0.16286 0.9019 0.0
C573 C 0.48726 0.1813 0.88012 0.0
C574 C 0.53523 0.26434 0.86157 0.0
C575 C 0.56555 0.28689 0.87088 0.0
C576 C 0.56949 0.30424 0.89318 0.0
C577 C 0.54313 0.29952 0.90652 0.0
C578 C 0.51268 0.27732 0.89655 0.0
C579 C 0.5088 0.25982 0.87438 0.0
C580 C 0.54735 0.28162 0.68402 0.0
C581 C 0.5046 0.08764 0.86633 0.0
C582 C 0.22354 0.5665 0.06638 0.0
C583 C 0.19185 0.55778 0.06091 0.0
C584 C 0.23239 0.55446 0.08788 0.0
C585 C 0.209 0.53294 0.10438 0.0
C586 C 0.17685 0.5236 0.09879 0.0
C587 C 0.16863 0.53622 0.07714 0.0
C588 C 0.26696 0.56522 0.09322 0.0
C589 C 0.15124 0.50056 0.11587 0.0
C590 C 0.23427 0.48823 0.14669 0.0
C591 C 0.24351 0.50316 0.1717 0.0
C592 C 0.22185 0.49696 0.12485 0.0
C593 C 0.21871 0.52127 0.12807 0.0
C594 C 0.22731 0.53599 0.15344 0.0
C595 C 0.23947 0.5267 0.17492 0.0
C596 C 0.21289 0.48067 0.09813 0.0
C597 C 0.22443 0.56205 0.15772 0.0
H598 H 0.24173 0.58315 0.05402 0.0
H599 H 0.14411 0.52931 0.07302 0.0
H600 H 0.27522 0.57545 0.11371 0.0
H601 H 0.27029 0.54651 0.09289 0.0
H602 H 0.28213 0.58157 0.07808 0.0
H603 H 0.12726 0.49475 0.10819 0.0
H604 H 0.15204 0.48041 0.11631 0.0
H605 H 0.15527 0.50859 0.1371 0.0
H606 H 0.23735 0.47007 0.14399 0.0
H607 H 0.24573 0.53789 0.19437 0.0
H608 H 0.22897 0.49533 0.08254 0.0
H609 H 0.18851 0.47401 0.09099 0.0
H610 H 0.21427 0.46081 0.09957 0.0
H611 H 0.24037 0.58024 0.14432 0.0
H612 H 0.23058 0.57013 0.17905 0.0
H613 H 0.19995 0.55622 0.15213 0.0
C614 C 0.70725 0.09728 0.60309 0.0
C615 C 0.67831 0.09536 0.59865 0.0
C616 C 0.73075 0.11778 0.62158 0.0
C617 C 0.72488 0.1364 0.63629 0.0
C618 C 0.6964 0.13564 0.63079 0.0
C619 C 0.67355 0.11527 0.61183 0.0
C620 C 0.76102 0.11825 0.62657 0.0
C621 C 0.68903 0.1548 0.64633 0.0
C622 C 0.76302 0.15757 0.70747 0.0
C623 C 0.78764 0.18676 0.70418 0.0
C624 C 0.74238 0.14109 0.68554 0.0
C625 C 0.74672 0.15402 0.65956 0.0
C626 C 0.77167 0.18349 0.65606 0.0
C627 C 0.79173 0.19965 0.67853 0.0
C628 C 0.71574 0.10988 0.69025 0.0
C629 C 0.77716 0.19785 0.6286 0.0
H630 H 0.7111 0.08204 0.5928 0.0
H631 H 0.65115 0.11379 0.60863 0.0
H632 H 0.78179 0.14111 0.62657 0.0
H633 H 0.76119 0.10895 0.64683 0.0
H634 H 0.76371 0.10528 0.61108 0.0
H635 H 0.66762 0.15398 0.63755 0.0
H636 H 0.68497 0.14738 0.66769 0.0
H637 H 0.70927 0.17791 0.64666 0.0
H638 H 0.75952 0.14778 0.72743 0.0
H639 H 0.81082 0.22225 0.67604 0.0
H640 H 0.71802 0.09459 0.67745 0.0
H641 H 0.69267 0.10729 0.68426 0.0
H642 H 0.7154 0.1033 0.71179 0.0
H643 H 0.78101 0.18509 0.6138 0.0
H644 H 0.79789 0.22079 0.62921 0.0
H645 H 0.75592 0.19792 0.62099 0.0
C646 C 0.6753 0.57403 0.21251 0.0
C647 C 0.66369 0.57315 0.18569 0.0
C648 C 0.68266 0.5971 0.23026 0.0
C649 C 0.67812 0.61971 0.22103 0.0
C650 C 0.6671 0.61928 0.19386 0.0
C651 C 0.66023 0.59616 0.17654 0.0
C652 C 0.69465 0.59698 0.25904 0.0
C653 C 0.66194 0.64297 0.18317 0.0
C654 C 0.66272 0.66374 0.26924 0.0
C655 C 0.69141 0.69106 0.26962 0.0
C656 C 0.65852 0.63994 0.25442 0.0
C657 C 0.68372 0.6434 0.23983 0.0
C658 C 0.71328 0.6704 0.24132 0.0
C659 C 0.71674 0.69395 0.25609 0.0
C660 C 0.62659 0.61153 0.25334 0.0
C661 C 0.74081 0.67488 0.22622 0.0
H662 H 0.67789 0.55632 0.21986 0.0
H663 H 0.65203 0.59614 0.15574 0.0
H664 H 0.71705 0.61816 0.26388 0.0
H665 H 0.67722 0.59456 0.27336 0.0
H666 H 0.69883 0.57889 0.26257 0.0
H667 H 0.65379 0.63969 0.16138 0.0
H668 H 0.64402 0.64334 0.19496 0.0
H669 H 0.6842 0.66478 0.18573 0.0
H670 H 0.64323 0.66114 0.28007 0.0
H671 H 0.7389 0.715 0.25604 0.0
H672 H 0.62925 0.59281 0.25847 0.0
H673 H 0.61563 0.6077 0.23241 0.0
H674 H 0.61023 0.61166 0.26744 0.0
H675 H 0.74442 0.65653 0.23018 0.0
H676 H 0.76312 0.69584 0.232 0.0
H677 H 0.73564 0.67509 0.20407 0.0
C678 C 0.97788 0.53988 0.59992 0.0
C679 C 0.95833 0.52406 0.57718 0.0
C680 C 0.96619 0.54741 0.62115 0.0
C681 C 0.93411 0.53891 0.61963 0.0
C682 C 0.91455 0.52403 0.59621 0.0
C683 C 0.92695 0.51683 0.57518 0.0
C684 C 0.98789 0.56348 0.64567 0.0
C685 C 0.8802 0.51459 0.59391 0.0
C686 C 0.89652 0.52749 0.68685 0.0
C687 C 0.89698 0.5535 0.68969 0.0
C688 C 0.90811 0.52234 0.66395 0.0
C689 C 0.92062 0.54379 0.6434 0.0
C690 C 0.92119 0.57011 0.6461 0.0
C691 C 0.90936 0.57467 0.66924 0.0
C692 C 0.90731 0.49407 0.66191 0.0
C693 C 0.93443 0.59348 0.62461 0.0
H694 H 0.00233 0.54603 0.60126 0.0
H695 H 0.91175 0.50448 0.55771 0.0
H696 H 0.98741 0.58327 0.65015 0.0
H697 H 0.97957 0.54912 0.6637 0.0
H698 H 0.01273 0.5703 0.64285 0.0
H699 H 0.86889 0.50535 0.57353 0.0
H700 H 0.86706 0.49768 0.60936 0.0
H701 H 0.87787 0.53344 0.59802 0.0
H702 H 0.88744 0.51125 0.70277 0.0
H703 H 0.90944 0.59467 0.67119 0.0
H704 H 0.93174 0.49893 0.66124 0.0
H705 H 0.89421 0.48227 0.64283 0.0
H706 H 0.89595 0.47929 0.67927 0.0
H707 H 0.95964 0.60142 0.62224 0.0
H708 H 0.9327 0.61252 0.62957 0.0
H709 H 0.92158 0.58415 0.60474 0.0
C710 C 0.52182 0.9743 0.15123 0.0
C711 C 0.51458 0.95364 0.13083 0.0
C712 C 0.50582 0.96566 0.17553 0.0
C713 C 0.48228 0.93572 0.17945 0.0
C714 C 0.47523 0.91486 0.15899 0.0
C715 C 0.49135 0.92407 0.13504 0.0
C716 C 0.51384 0.9885 0.19688 0.0
C717 C 0.4505 0.88266 0.16231 0.0
C718 C 0.45513 0.8986 0.24709 0.0
C719 C 0.42447 0.89326 0.24684 0.0
C720 C 0.47536 0.91457 0.22632 0.0
C721 C 0.46471 0.92553 0.20476 0.0
C722 C 0.43473 0.92216 0.2055 0.0
C723 C 0.41494 0.90601 0.22651 0.0
C724 C 0.50717 0.91774 0.22642 0.0
C725 C 0.42251 0.9336 0.18299 0.0
H726 H 0.53968 0.99719 0.1481 0.0
H727 H 0.48564 0.90784 0.11952 0.0
H728 H 0.49256 0.98908 0.2005 0.0
H729 H 0.52128 0.98268 0.21639 0.0
H730 H 0.53304 0.01077 0.19097 0.0
H731 H 0.448 0.86925 0.14452 0.0
H732 H 0.45676 0.87407 0.18063 0.0
H733 H 0.42719 0.87969 0.16523 0.0
H734 H 0.46293 0.88936 0.26308 0.0
H735 H 0.39128 0.90196 0.2261 0.0
H736 H 0.52585 0.94048 0.22129 0.0
H737 H 0.50638 0.90295 0.21075 0.0
H738 H 0.5139 0.91205 0.24639 0.0
H739 H 0.44108 0.95628 0.17757 0.0
H740 H 0.40133 0.93346 0.18865 0.0
H741 H 0.41598 0.91965 0.16462 0.0
C742 C 0.57172 0.40637 0.63111 0.0
C743 C 0.56628 0.42923 0.6301 0.0
C744 C 0.57122 0.39258 0.65574 0.0
C745 C 0.56423 0.40142 0.6797 0.0
C746 C 0.55884 0.42461 0.67878 0.0
C747 C 0.56038 0.43852 0.65405 0.0
C748 C 0.57772 0.3683 0.65606 0.0
C749 C 0.55054 0.4342 0.7037 0.0
C750 C 0.52908 0.34256 0.73322 0.0
C751 C 0.55513 0.35127 0.75164 0.0
C752 C 0.53144 0.35939 0.71036 0.0
C753 C 0.56079 0.3852 0.70532 0.0
C754 C 0.58698 0.39463 0.72412 0.0
C755 C 0.58373 0.37774 0.74724 0.0
C756 C 0.50273 0.34897 0.69112 0.0
C757 C 0.61869 0.42202 0.71935 0.0
H758 H 0.57657 0.39945 0.61262 0.0
H759 H 0.55583 0.45602 0.65323 0.0
H760 H 0.59664 0.37291 0.6718 0.0
H761 H 0.5562 0.34726 0.66139 0.0
H762 H 0.585 0.3655 0.63614 0.0
H763 H 0.54412 0.45065 0.69892 0.0
H764 H 0.53039 0.41502 0.71332 0.0
H765 H 0.57092 0.44392 0.71883 0.0
H766 H 0.50705 0.3219 0.73597 0.0
H767 H 0.60385 0.38491 0.76154 0.0
H768 H 0.50669 0.34218 0.67152 0.0
H769 H 0.49873 0.36706 0.68686 0.0
H770 H 0.48098 0.33009 0.69931 0.0
H771 H 0.62692 0.42041 0.69949 0.0
H772 H 0.63698 0.42585 0.73548 0.0
H773 H 0.61644 0.44136 0.71852 0.0
C774 C 0.66354 0.9262 0.55009 0.0
C775 C 0.63945 0.9314 0.54294 0.0
C776 C 0.67189 0.91209 0.53199 0.0
C777 C 0.65558 0.90273 0.50621 0.0
C778 C 0.63059 0.90712 0.49922 0.0
C779 C 0.62292 0.92148 0.51762 0.0
C780 C 0.69884 0.90805 0.54011 0.0
C781 C 0.61234 0.89719 0.47207 0.0
C782 C 0.6961 0.89541 0.44714 0.0
C783 C 0.68232 0.86494 0.44554 0.0
C784 C 0.68815 0.90798 0.46717 0.0
C785 C 0.66558 0.88967 0.48597 0.0
C786 C 0.65189 0.85895 0.48477 0.0
C787 C 0.66048 0.84696 0.46463 0.0
C788 C 0.70335 0.94085 0.46775 0.0
C789 C 0.62764 0.83869 0.50437 0.0
H790 H 0.67661 0.93406 0.56949 0.0
H791 H 0.60398 0.92503 0.51215 0.0
H792 H 0.69111 0.8847 0.53781 0.0
H793 H 0.7185 0.92099 0.5265 0.0
H794 H 0.708 0.9151 0.5614 0.0
H795 H 0.59257 0.90093 0.4703 0.0
H796 H 0.62843 0.90921 0.45555 0.0
H797 H 0.60257 0.87349 0.46885 0.0
H798 H 0.71245 0.90948 0.43217 0.0
H799 H 0.64991 0.82344 0.46371 0.0
H800 H 0.71449 0.94973 0.48821 0.0
H801 H 0.68504 0.94624 0.46351 0.0
H802 H 0.72164 0.95213 0.4526 0.0
H803 H 0.6374 0.84526 0.52557 0.0
H804 H 0.61997 0.81541 0.50131 0.0
H805 H 0.60655 0.84041 0.50186 0.0
C806 C 0.6522 0.54122 0.02181 0.0
C807 C 0.6641 0.53192 0.04348 0.0
C808 C 0.66718 0.54971 0.99706 0.0
C809 C 0.69442 0.54857 0.99399 0.0
C810 C 0.70706 0.54017 0.01613 0.0
C811 C 0.69188 0.53212 0.04056 0.0
C812 C 0.65334 0.55898 0.97398 0.0
C813 C 0.73601 0.53855 0.01374 0.0
C814 C 0.7164 0.53479 0.92657 0.0
C815 C 0.7437 0.56211 0.92159 0.0
C816 C 0.69901 0.53052 0.94929 0.0
C817 C 0.7089 0.55424 0.96735 0.0
C818 C 0.73523 0.58232 0.96154 0.0
C819 C 0.75245 0.58589 0.93881 0.0
C820 C 0.67112 0.50017 0.95479 0.0
C821 C 0.7463 0.60822 0.98015 0.0
H822 H 0.63081 0.54122 0.02394 0.0
H823 H 0.70144 0.52518 0.05722 0.0
H824 H 0.67204 0.57994 0.96531 0.0
H825 H 0.64344 0.54224 0.95752 0.0
H826 H 0.63424 0.56172 0.98047 0.0
H827 H 0.7435 0.53263 0.0332 0.0
H828 H 0.73103 0.5219 0.99817 0.0
H829 H 0.75603 0.55992 0.00703 0.0
H830 H 0.70897 0.51649 0.91297 0.0
H831 H 0.77354 0.60707 0.9352 0.0
H832 H 0.65019 0.5011 0.95897 0.0
H833 H 0.67686 0.49116 0.97309 0.0
H834 H 0.66471 0.48479 0.93754 0.0
H835 H 0.72598 0.6095 0.98579 0.0
H836 H 0.76385 0.62927 0.97072 0.0
H837 H 0.75744 0.6055 0.99915 0.0
C838 C 0.11073 0.59487 0.52043 0.0
C839 C 0.1036 0.56593 0.52087 0.0
C840 C 0.1334 0.61596 0.50348 0.0
C841 C 0.1496 0.60806 0.48666 0.0
C842 C 0.14372 0.5793 0.48801 0.0
C843 C 0.12075 0.55856 0.50505 0.0
C844 C 0.13887 0.64633 0.50262 0.0
C845 C 0.16071 0.57008 0.4706 0.0
C846 C 0.17878 0.65176 0.42178 0.0
C847 C 0.21072 0.67228 0.42907 0.0
C848 C 0.15884 0.63047 0.44016 0.0
C849 C 0.17111 0.62939 0.46648 0.0
C850 C 0.20348 0.64953 0.47379 0.0
C851 C 0.22283 0.67081 0.45508 0.0
C852 C 0.12443 0.60943 0.43156 0.0
C853 C 0.21752 0.64896 0.50156 0.0
H854 H 0.0977 0.60085 0.53257 0.0
H855 H 0.11546 0.53628 0.50522 0.0
H856 H 0.16445 0.66317 0.50589 0.0
H857 H 0.13107 0.65017 0.48229 0.0
H858 H 0.12583 0.64953 0.51814 0.0
H859 H 0.15576 0.54792 0.47592 0.0
H860 H 0.15318 0.56978 0.44894 0.0
H861 H 0.18662 0.58607 0.47273 0.0
H862 H 0.16929 0.65229 0.4016 0.0
H863 H 0.24735 0.68673 0.46109 0.0
H864 H 0.10925 0.61229 0.44492 0.0
H865 H 0.11826 0.58647 0.43377 0.0
H866 H 0.11873 0.61275 0.4102 0.0
H867 H 0.20638 0.65426 0.51725 0.0
H868 H 0.24351 0.66486 0.5035 0.0
H869 H 0.21258 0.62666 0.50592 0.0
C870 C 0.48967 0.02115 0.97869 0.0
C871 C 0.5053 0.02621 0.00438 0.0
C872 C 0.48622 0.0429 0.96591 0.0
C873 C 0.49887 0.07027 0.97916 0.0
C874 C 0.51278 0.07471 0.0058 0.0
C875 C 0.51564 0.05256 0.01813 0.0
C876 C 0.47103 0.0373 0.93754 0.0
C877 C 0.52657 0.10358 0.02061 0.0
C878 C 0.53084 0.1374 0.93489 0.0
C879 C 0.50743 0.14406 0.93568 0.0
C880 C 0.52824 0.11348 0.94898 0.0
C881 C 0.50133 0.09545 0.96403 0.0
C882 C 0.47752 0.10191 0.96497 0.0
C883 C 0.48089 0.12625 0.95081 0.0
C884 C 0.55425 0.1074 0.94755 0.0
C885 C 0.44837 0.0829 0.98061 0.0
H886 H 0.48162 0.00084 0.968 0.0
H887 H 0.5269 0.05625 0.03832 0.0
H888 H 0.45479 0.04536 0.93535 0.0
H889 H 0.48968 0.04943 0.92289 0.0
H890 H 0.45764 0.01363 0.93202 0.0
H891 H 0.53344 0.10239 0.0422 0.0
H892 H 0.5479 0.12078 0.01054 0.0
H893 H 0.5094 0.11059 0.0198 0.0
H894 H 0.55092 0.15045 0.92255 0.0
H895 H 0.46267 0.13123 0.95142 0.0
H896 H 0.54448 0.08522 0.93883 0.0
H897 H 0.56437 0.10774 0.96827 0.0
H898 H 0.57366 0.12366 0.93498 0.0
H899 H 0.43556 0.06004 0.97273 0.0
H900 H 0.43198 0.09085 0.97924 0.0
H901 H 0.45521 0.08228 0.0023 0.0
C902 C 0.51525 0.54039 0.49073 0.0
C903 C 0.50903 0.51825 0.50956 0.0
C904 C 0.49514 0.53475 0.4675 0.0
C905 C 0.46773 0.50639 0.46318 0.0
C906 C 0.46077 0.48415 0.48252 0.0
C907 C 0.48168 0.49025 0.50534 0.0
C908 C 0.50366 0.559 0.44727 0.0
C909 C 0.43144 0.45382 0.47892 0.0
C910 C 0.40365 0.50152 0.41398 0.0
C911 C 0.40875 0.4913 0.39023 0.0
C912 C 0.42211 0.50581 0.43803 0.0
C913 C 0.44659 0.5001 0.43826 0.0
C914 C 0.45162 0.48947 0.41436 0.0
C915 C 0.43238 0.48489 0.39067 0.0
C916 C 0.41548 0.51654 0.46317 0.0
C917 C 0.47778 0.48356 0.41365 0.0
H918 H 0.53649 0.56202 0.49364 0.0
H919 H 0.47673 0.47305 0.5198 0.0
H920 H 0.50646 0.55221 0.42715 0.0
H921 H 0.48432 0.56326 0.44471 0.0
H922 H 0.52592 0.57979 0.45354 0.0
H923 H 0.42861 0.43942 0.49643 0.0
H924 H 0.41014 0.45521 0.47634 0.0
H925 H 0.43249 0.44342 0.46027 0.0
H926 H 0.38496 0.50597 0.41376 0.0
H927 H 0.43626 0.47695 0.37229 0.0
H928 H 0.43694 0.53735 0.47053 0.0
H929 H 0.40927 0.50024 0.47961 0.0
H930 H 0.39582 0.52027 0.4595 0.0
H931 H 0.50098 0.5041 0.4182 0.0
H932 H 0.47828 0.47493 0.39363 0.0
H933 H 0.4749 0.46749 0.4295 0.0
C934 C 0.10107 0.52262 0.90474 0.0
C935 C 0.1294 0.52705 0.91656 0.0
C936 C 0.07923 0.4965 0.89086 0.0
C937 C 0.08571 0.47408 0.88932 0.0
C938 C 0.11534 0.47932 0.89957 0.0
C939 C 0.13704 0.50598 0.91295 0.0
C940 C 0.04819 0.49207 0.87978 0.0
C941 C 0.12301 0.45589 0.89854 0.0
C942 C 0.01172 0.39833 0.89218 0.0
C943 C 0.00593 0.38946 0.86496 0.0
C944 C 0.0385 0.42529 0.90049 0.0
C945 C 0.05966 0.44404 0.88095 0.0
C946 C 0.05437 0.43479 0.85349 0.0
C947 C 0.02757 0.40737 0.84582 0.0
C948 C 0.04353 0.43408 0.93007 0.0
C949 C 0.0762 0.45434 0.83208 0.0
H950 H 0.09543 0.53914 0.90751 0.0
H951 H 0.1589 0.50945 0.92236 0.0
H952 H 0.04218 0.48249 0.85902 0.0
H953 H 0.029 0.47642 0.89281 0.0
H954 H 0.04873 0.51292 0.87916 0.0
H955 H 0.14856 0.46488 0.90327 0.0
H956 H 0.10927 0.43872 0.91361 0.0
H957 H 0.11618 0.44515 0.87827 0.0
H958 H 0.99505 0.38421 0.90696 0.0
H959 H 0.02288 0.40039 0.82474 0.0
H960 H 0.04111 0.45317 0.93236 0.0
H961 H 0.06779 0.44087 0.93777 0.0
H962 H 0.02629 0.41602 0.94292 0.0
H963 H 0.07415 0.47373 0.82922 0.0
H964 H 0.07057 0.44282 0.81225 0.0
H965 H 0.10116 0.46259 0.83864 0.0
C966 C 0.05424 0.59145 0.99113 0.0
C967 C 0.07128 0.58753 0.97209 0.0
C968 C 0.02532 0.58884 0.98334 0.0
C969 C 0.01287 0.58125 0.95613 0.0
C970 C 0.02937 0.57581 0.93727 0.0
C971 C 0.05859 0.5795 0.94538 0.0
C972 C 0.00887 0.59553 0.00384 0.0
C973 C 0.0166 0.56684 0.90827 0.0
C974 C 0.92688 0.5528 0.9349 0.0
C975 C 0.92955 0.57685 0.92064 0.0
C976 C 0.95357 0.5542 0.94756 0.0
C977 C 0.98362 0.58054 0.94664 0.0
C978 C 0.98614 0.60549 0.93399 0.0
C979 C 0.95926 0.60325 0.92087 0.0
C980 C 0.94989 0.52694 0.96043 0.0
C981 C 0.01762 0.6342 0.93295 0.0
H982 H 0.06423 0.59788 0.01174 0.0
H983 H 0.07167 0.57619 0.93073 0.0
H984 H 0.00922 0.61562 0.99773 0.0
H985 H 0.98371 0.57743 0.00445 0.0
H986 H 0.02033 0.59902 0.02457 0.0
H987 H 0.03075 0.56073 0.89695 0.0
H988 H 0.99173 0.54794 0.90776 0.0
H989 H 0.01672 0.58521 0.89756 0.0
H990 H 0.90405 0.53245 0.93544 0.0
H991 H 0.96202 0.62192 0.90965 0.0
H992 H 0.96173 0.53194 0.98105 0.0
H993 H 0.96148 0.51879 0.94813 0.0
H994 H 0.92466 0.50914 0.96189 0.0
H995 H 0.03029 0.63997 0.95326 0.0
H996 H 0.01493 0.65249 0.9259 0.0
H997 H 0.03264 0.63203 0.91883 0.0
C998 C 0.53745 0.01505 0.49419 0.0
C999 C 0.55644 0.00448 0.50372 0.0
C1000 C 0.51516 0.00128 0.47227 0.0
C1001 C 0.51134 0.97599 0.46018 0.0
C1002 C 0.53163 0.96623 0.46879 0.0
C1003 C 0.55419 0.98082 0.49023 0.0
C1004 C 0.49462 0.01286 0.46304 0.0
C1005 C 0.52804 0.93908 0.45673 0.0
C1006 C 0.43046 0.91541 0.43281 0.0
C1007 C 0.43456 0.91714 0.4049 0.0
C1008 C 0.45496 0.93521 0.45096 0.0
C1009 C 0.484 0.95764 0.44082 0.0
C1010 C 0.48758 0.9605 0.41247 0.0
C1011 C 0.46291 0.93984 0.3948 0.0
C1012 C 0.45036 0.93102 0.48106 0.0
C1013 C 0.51783 0.98462 0.40089 0.0
H1014 H 0.53931 0.03351 0.50436 0.0
H1015 H 0.56877 0.97249 0.49746 0.0
H1016 H 0.49273 0.01356 0.44055 0.0
H1017 H 0.47038 0.99797 0.46996 0.0
H1018 H 0.50392 0.03517 0.4713 0.0
H1019 H 0.54701 0.93552 0.46448 0.0
H1020 H 0.50486 0.91956 0.46171 0.0
H1021 H 0.52838 0.9406 0.4343 0.0
H1022 H 0.4086 0.89759 0.44056 0.0
H1023 H 0.4659 0.94113 0.37314 0.0
H1024 H 0.45561 0.95163 0.49064 0.0
H1025 H 0.46709 0.92547 0.49071 0.0
H1026 H 0.42591 0.91326 0.48552 0.0
H1027 H 0.52563 0.00603 0.41045 0.0
H1028 H 0.51514 0.98643 0.37855 0.0
H1029 H 0.53685 0.9802 0.40537 0.0
C1030 C 0.58746 0.38508 0.0488 0.0
C1031 C 0.57292 0.40103 0.05065 0.0
C1032 C 0.58242 0.3683 0.02552 0.0
C1033 C 0.56198 0.3671 0.00372 0.0
C1034 C 0.54672 0.38267 0.00575 0.0
C1035 C 0.55254 0.39957 0.02909 0.0
C1036 C 0.59946 0.35233 0.02401 0.0
C1037 C 0.52438 0.38162 0.98319 0.0
C1038 C 0.57133 0.34701 0.93309 0.0
C1039 C 0.54748 0.31708 0.93118 0.0
C1040 C 0.57638 0.36349 0.95658 0.0
C1041 C 0.55687 0.34987 0.97866 0.0
C1042 C 0.53248 0.31982 0.97676 0.0
C1043 C 0.52823 0.30377 0.95318 0.0
C1044 C 0.60272 0.39547 0.95782 0.0
C1045 C 0.51098 0.30456 0.99974 0.0
H1046 H 0.60353 0.38644 0.06524 0.0
H1047 H 0.54097 0.41159 0.03058 0.0
H1048 H 0.58213 0.32855 0.02054 0.0
H1049 H 0.61486 0.36049 0.00656 0.0
H1050 H 0.61427 0.35521 0.04279 0.0
H1051 H 0.51368 0.39427 0.98826 0.0
H1052 H 0.53717 0.39064 0.96434 0.0
H1053 H 0.5051 0.35854 0.97879 0.0
H1054 H 0.58604 0.35768 0.91613 0.0
H1055 H 0.51009 0.28059 0.9522 0.0
H1056 H 0.61943 0.39949 0.97545 0.0
H1057 H 0.59291 0.4093 0.9608 0.0
H1058 H 0.61613 0.40267 0.93912 0.0
H1059 H 0.52508 0.30517 0.01822 0.0
H1060 H 0.49255 0.28131 0.99479 0.0
H1061 H 0.49914 0.31618 0.0047 0.0
C1062 C 0.03723 0.40737 0.45387 0.0
C1063 C 0.03732 0.43335 0.45479 0.0
C1064 C 0.05794 0.40518 0.43765 0.0
C1065 C 0.07894 0.42948 0.42187 0.0
C1066 C 0.07765 0.45505 0.42143 0.0
C1067 C 0.05694 0.4567 0.43801 0.0
C1068 C 0.05875 0.37762 0.43877 0.0
C1069 C 0.09933 0.48129 0.4046 0.0
C1070 C 0.1593 0.44351 0.40769 0.0
C1071 C 0.15471 0.43452 0.38054 0.0
C1072 C 0.13443 0.44092 0.42164 0.0
C1073 C 0.10438 0.42946 0.40796 0.0
C1074 C 0.0994 0.41968 0.38071 0.0
C1075 C 0.12465 0.42216 0.36735 0.0
C1076 C 0.14058 0.45123 0.45082 0.0
C1077 C 0.06782 0.40768 0.36538 0.0
H1078 H 0.0223 0.38939 0.46701 0.0
H1079 H 0.05673 0.47665 0.4385 0.0
H1080 H 0.05834 0.37 0.41801 0.0
H1081 H 0.08109 0.38237 0.44958 0.0
H1082 H 0.03858 0.3596 0.44946 0.0
H1083 H 0.09301 0.49813 0.40426 0.0
H1084 H 0.12406 0.49153 0.41305 0.0
H1085 H 0.09856 0.47442 0.38344 0.0
H1086 H 0.1825 0.45282 0.41793 0.0
H1087 H 0.1212 0.41546 0.34625 0.0
H1088 H 0.12286 0.43365 0.46372 0.0
H1089 H 0.13814 0.47038 0.45242 0.0
H1090 H 0.16461 0.45769 0.45903 0.0
H1091 H 0.04862 0.38988 0.37704 0.0
H1092 H 0.06716 0.39901 0.34502 0.0
H1093 H 0.06278 0.42529 0.36279 0.0
C1094 C 0.65524 0.08338 0.02961 0.0
C1095 C 0.64862 0.05515 0.02449 0.0
C1096 C 0.67863 0.10778 0.0156 0.0
C1097 C 0.69583 0.1037 0.99632 0.0
C1098 C 0.69043 0.07546 0.99242 0.0
C1099 C 0.66685 0.05159 0.00643 0.0
C1100 C 0.68369 0.13754 0.0203 0.0
C1101 C 0.70842 0.07009 0.97236 0.0
C1102 C 0.72669 0.15101 0.93386 0.0
C1103 C 0.75943 0.16769 0.94018 0.0
C1104 C 0.7056 0.13137 0.95261 0.0
C1105 C 0.71744 0.12805 0.97833 0.0
C1106 C 0.7503 0.14564 0.98529 0.0
C1107 C 0.77089 0.16525 0.96615 0.0
C1108 C 0.67073 0.11306 0.94433 0.0
C1109 C 0.76385 0.14283 0.01251 0.0
H1110 H 0.64107 0.08619 0.04345 0.0
H1111 H 0.66203 0.02982 0.00261 0.0
H1112 H 0.7093 0.15449 0.02307 0.0
H1113 H 0.67426 0.1437 0.00223 0.0
H1114 H 0.67165 0.13785 0.03832 0.0
H1115 H 0.70323 0.04734 0.97335 0.0
H1116 H 0.70206 0.07399 0.95145 0.0
H1117 H 0.73426 0.0856 0.97616 0.0
H1118 H 0.71756 0.1524 0.91379 0.0
H1119 H 0.79607 0.17842 0.97142 0.0
H1120 H 0.65665 0.11414 0.9602 0.0
H1121 H 0.66326 0.08976 0.94215 0.0
H1122 H 0.66497 0.1203 0.92478 0.0
H1123 H 0.75046 0.14373 0.02911 0.0
H1124 H 0.78922 0.16031 0.016 0.0
H1125 H 0.76158 0.12123 0.01366 0.0
C1126 C 0.63238 0.60421 0.49385 0.0
C1127 C 0.64898 0.58999 0.49651 0.0
C1128 C 0.64264 0.6287 0.47722 0.0
C1129 C 0.67038 0.63942 0.46299 0.0
C1130 C 0.6876 0.62548 0.46587 0.0
C1131 C 0.67651 0.60069 0.48249 0.0
C1132 C 0.62326 0.64259 0.47434 0.0
C1133 C 0.71741 0.63652 0.45114 0.0
C1134 C 0.67307 0.68255 0.40054 0.0
C1135 C 0.6906 0.71143 0.41061 0.0
C1136 C 0.6676 0.65896 0.41703 0.0
C1137 C 0.68019 0.6644 0.44421 0.0
C1138 C 0.69928 0.6936 0.45409 0.0
C1139 C 0.7042 0.71681 0.43717 0.0
C1140 C 0.64705 0.62812 0.40575 0.0
C1141 C 0.71322 0.70022 0.48293 0.0
H1142 H 0.61066 0.59557 0.50412 0.0
H1143 H 0.68929 0.58966 0.4846 0.0
H1144 H 0.63819 0.66621 0.47983 0.0
H1145 H 0.6144 0.64105 0.4529 0.0
H1146 H 0.60267 0.63193 0.48732 0.0
H1147 H 0.72894 0.6242 0.45668 0.0
H1148 H 0.71184 0.6345 0.4289 0.0
H1149 H 0.73448 0.66012 0.45579 0.0
H1150 H 0.66313 0.67834 0.37981 0.0
H1151 H 0.7177 0.73907 0.44509 0.0
H1152 H 0.62456 0.61628 0.41624 0.0
H1153 H 0.65893 0.61586 0.4095 0.0
H1154 H 0.64135 0.62779 0.3836 0.0
H1155 H 0.694 0.69266 0.49709 0.0
H1156 H 0.7305 0.72404 0.48648 0.0
H1157 H 0.72516 0.6882 0.48798 0.0
C1158 C 0.57449 0.04535 0.66737 0.0
C1159 C 0.55254 0.02985 0.64576 0.0
C1160 C 0.57089 0.06387 0.68416 0.0
C1161 C 0.54504 0.06742 0.67883 0.0
C1162 C 0.52265 0.05161 0.65716 0.0
C1163 C 0.52652 0.03281 0.64105 0.0
C1164 C 0.59497 0.07991 0.70736 0.0
C1165 C 0.49516 0.05527 0.65044 0.0
C1166 C 0.5207 0.09849 0.73373 0.0
C1167 C 0.53643 0.12823 0.72681 0.0
C1168 C 0.52351 0.07848 0.71845 0.0
C1169 C 0.54195 0.08837 0.69539 0.0
C1170 C 0.55748 0.11833 0.6881 0.0
C1171 C 0.55481 0.13797 0.70409 0.0
C1172 C 0.50716 0.04687 0.72723 0.0
C1173 C 0.57684 0.12964 0.66335 0.0
H1174 H 0.59452 0.04296 0.67107 0.0
H1175 H 0.50983 0.02126 0.62406 0.0
H1176 H 0.60784 0.1039 0.70386 0.0
H1177 H 0.58293 0.07564 0.72661 0.0
H1178 H 0.61251 0.07333 0.70981 0.0
H1179 H 0.47955 0.04101 0.63322 0.0
H1180 H 0.48081 0.05005 0.66837 0.0
H1181 H 0.50415 0.07845 0.64513 0.0
H1182 H 0.50678 0.09105 0.7515 0.0
H1183 H 0.56685 0.16096 0.6987 0.0
H1184 H 0.52484 0.04063 0.73114 0.0
H1185 H 0.49027 0.03229 0.71078 0.0
H1186 H 0.49409 0.04279 0.74586 0.0
H1187 H 0.59684 0.1263 0.66557 0.0
H1188 H 0.5865 0.15333 0.65995 0.0
H1189 H 0.56209 0.11715 0.64506 0.0
C1190 C 0.50297 0.48722 0.12918 0.0
C1191 C 0.52678 0.48792 0.14621 0.0
C1192 C 0.47781 0.48744 0.14013 0.0
C1193 C 0.47702 0.48909 0.16867 0.0
C1194 C 0.50175 0.49098 0.18578 0.0
C1195 C 0.52608 0.49005 0.17437 0.0
C1196 C 0.45159 0.48492 0.12129 0.0
C1197 C 0.50224 0.4934 0.21626 0.0
C1198 C 0.42589 0.51098 0.2016 0.0
C1199 C 0.4015 0.48388 0.21109 0.0
C1200 C 0.45008 0.51297 0.18687 0.0
C1201 C 0.44964 0.4872 0.18107 0.0
C1202 C 0.42442 0.45968 0.18955 0.0
C1203 C 0.40094 0.45839 0.20467 0.0
C1204 C 0.47678 0.54277 0.17848 0.0
C1205 C 0.4229 0.43162 0.1836 0.0
H1206 H 0.50348 0.48557 0.10741 0.0
H1207 H 0.54472 0.49106 0.18761 0.0
H1208 H 0.42914 0.46398 0.12505 0.0
H1209 H 0.44786 0.50294 0.12533 0.0
H1210 H 0.4566 0.48555 0.09959 0.0
H1211 H 0.5243 0.49676 0.22652 0.0
H1212 H 0.49992 0.51194 0.22172 0.0
H1213 H 0.48182 0.47311 0.22427 0.0
H1214 H 0.42633 0.53078 0.20591 0.0
H1215 H 0.38265 0.43736 0.2122 0.0
H1216 H 0.48031 0.54277 0.15652 0.0
H1217 H 0.49912 0.54798 0.18964 0.0
H1218 H 0.47245 0.56041 0.18267 0.0
H1219 H 0.42619 0.43029 0.16179 0.0
H1220 H 0.40007 0.41182 0.18893 0.0
H1221 H 0.44233 0.43138 0.19539 0.0
C1222 C 0.04441 0.43423 0.62924 0.0
C1223 C 0.02473 0.4393 0.61171 0.0
C1224 C 0.03251 0.41622 0.65214 0.0
C1225 C 1.00019 0.40294 0.65754 0.0
C1226 C 0.98032 0.40809 0.63996 0.0
C1227 C 0.9928 0.42617 0.61738 0.0
C1228 C 0.05442 0.41129 0.6705 0.0
C1229 C 0.94574 0.3944 0.64493 0.0
C1230 C 0.95579 0.33435 0.70021 0.0
C1231 C 0.95383 0.34588 0.72465 0.0
C1232 C 0.97221 0.3528 0.67867 0.0
C1233 C 0.98675 0.38353 0.68146 0.0
C1234 C 0.9858 0.39538 0.70636 0.0
C1235 C 0.96955 0.37647 0.72767 0.0
C1236 C 0.97282 0.33927 0.65251 0.0
C1237 C 1.00087 0.428 0.71016 0.0
H1238 H 0.06908 0.44428 0.62507 0.0
H1239 H 0.97729 0.42986 0.60402 0.0
H1240 H 0.05488 0.41838 0.69151 0.0
H1241 H 0.04558 0.38755 0.67119 0.0
H1242 H 0.07897 0.42341 0.66368 0.0
H1243 H 0.93352 0.40076 0.62941 0.0
H1244 H 0.93352 0.37014 0.64484 0.0
H1245 H 0.94327 0.40111 0.66521 0.0
H1246 H 0.94356 0.3108 0.69749 0.0
H1247 H 0.96887 0.38569 0.74666 0.0
H1248 H 0.99734 0.35039 0.64581 0.0
H1249 H 0.95846 0.34228 0.63633 0.0
H1250 H 0.9633 0.31544 0.65451 0.0
H1251 H 0.02584 0.44002 0.70452 0.0
H1252 H 1.0002 0.43392 0.73138 0.0
H1253 H 0.98828 0.43563 0.69655 0.0
C1254 C 0.65083 0.95002 0.09815 0.0
C1255 C 0.61972 0.92898 0.08914 0.0
C1256 C 0.66674 0.94353 0.11864 0.0
C1257 C 0.65091 0.91543 0.13057 0.0
C1258 C 0.62032 0.89346 0.12017 0.0
C1259 C 0.60513 0.90048 0.0994 0.0
C1260 C 0.69958 0.96738 0.12877 0.0
C1261 C 0.60261 0.86325 0.13244 0.0
C1262 C 0.69333 0.89102 0.18007 0.0
C1263 C 0.68536 0.8964 0.20507 0.0
C1264 C 0.68315 0.89792 0.15553 0.0
C1265 C 0.66437 0.91022 0.1561 0.0
C1266 C 0.65723 0.91664 0.18129 0.0
C1267 C 0.66796 0.9098 0.20545 0.0
C1268 C 0.69153 0.89114 0.12905 0.0
C1269 C 0.63735 0.92988 0.18276 0.0
H1270 H 0.66218 0.97196 0.08992 0.0
H1271 H 0.58099 0.88429 0.09256 0.0
H1272 H 0.69844 0.97541 0.14887 0.0
H1273 H 0.71526 0.95874 0.13149 0.0
H1274 H 0.71036 0.98628 0.11472 0.0
H1275 H 0.58073 0.84778 0.1201 0.0
H1276 H 0.61783 0.85409 0.13456 0.0
H1277 H 0.59594 0.86475 0.15308 0.0
H1278 H 0.70649 0.88037 0.17964 0.0
H1279 H 0.66219 0.91442 0.22473 0.0
H1280 H 0.70153 0.91056 0.11565 0.0
H1281 H 0.66986 0.87316 0.11829 0.0
H1282 H 0.70887 0.88435 0.13211 0.0
H1283 H 0.64825 0.95088 0.17158 0.0
H1284 H 0.63453 0.93408 0.20399 0.0
H1285 H 0.61352 0.91487 0.17293 0.0
C1286 C 0.62034 0.55926 0.64401 0.0
C1287 C 0.58762 0.53863 0.64358 0.0
C1288 C 0.63963 0.56481 0.66777 0.0
C1289 C 0.62584 0.5498 0.69187 0.0
C1290 C 0.59258 0.53081 0.69218 0.0
C1291 C 0.57383 0.52535 0.66799 0.0
C1292 C 0.67505 0.58503 0.66647 0.0
C1293 C 0.577 0.51507 0.71772 0.0
C1294 C 0.67875 0.53465 0.73802 0.0
C1295 C 0.69136 0.55768 0.75699 0.0
C1296 C 0.65665 0.53134 0.71729 0.0
C1297 C 0.64659 0.55139 0.7156 0.0
C1298 C 0.65821 0.57396 0.73537 0.0
C1299 C 0.68071 0.57701 0.75571 0.0
C1300 C 0.64513 0.50713 0.69646 0.0
C1301 C 0.64783 0.59556 0.73442 0.0
H1302 H 0.63129 0.56979 0.62535 0.0
H1303 H 0.54858 0.50953 0.66797 0.0
H1304 H 0.68488 0.60122 0.68338 0.0
H1305 H 0.68627 0.57202 0.6687 0.0
H1306 H 0.68181 0.59706 0.64699 0.0
H1307 H 0.55079 0.50195 0.71492 0.0
H1308 H 0.58511 0.50022 0.72421 0.0
H1309 H 0.58407 0.53117 0.73441 0.0
H1310 H 0.68732 0.51997 0.7386 0.0
H1311 H 0.69041 0.59482 0.77036 0.0
H1312 H 0.65193 0.51673 0.676 0.0
H1313 H 0.61894 0.49294 0.69575 0.0
H1314 H 0.65504 0.49324 0.70083 0.0
H1315 H 0.65768 0.61016 0.71672 0.0
H1316 H 0.65587 0.60938 0.75307 0.0
H1317 H 0.62168 0.58389 0.7318 0.0
C1318 C 0.22804 0.66988 0.08951 0.0
C1319 C 0.22851 0.68417 0.06523 0.0
C1320 C 0.24082 0.68542 0.11401 0.0
C1321 C 0.25485 0.71618 0.1143 0.0
C1322 C 0.25655 0.731 0.08975 0.0
C1323 C 0.24327 0.71478 0.06546 0.0
C1324 C 0.23859 0.66875 0.13972 0.0
C1325 C 0.27167 0.76383 0.08927 0.0
C1326 C 0.25469 0.74634 0.1827 0.0
C1327 C 0.2847 0.75479 0.19411 0.0
C1328 C 0.24519 0.73501 0.15618 0.0
C1329 C 0.26635 0.73232 0.14065 0.0
C1330 C 0.29728 0.74225 0.15159 0.0
C1331 C 0.30602 0.75318 0.1783 0.0
C1332 C 0.2119 0.72438 0.14538 0.0
C1333 C 0.32064 0.74012 0.13553 0.0
H1334 H 0.21754 0.64637 0.08942 0.0
H1335 H 0.24368 0.72594 0.04681 0.0
H1336 H 0.26247 0.67763 0.14967 0.0
H1337 H 0.22432 0.67154 0.15423 0.0
H1338 H 0.22757 0.64492 0.13589 0.0
H1339 H 0.27332 0.77229 0.06829 0.0
H1340 H 0.25764 0.76986 0.10082 0.0
H1341 H 0.29578 0.77496 0.09932 0.0
H1342 H 0.23806 0.74731 0.19497 0.0
H1343 H 0.32938 0.76004 0.18701 0.0
H1344 H 0.19826 0.70015 0.14304 0.0
H1345 H 0.21214 0.73369 0.12505 0.0
H1346 H 0.19935 0.73033 0.15904 0.0
H1347 H 0.31279 0.71675 0.13313 0.0
H1348 H 0.34479 0.75203 0.14558 0.0
H1349 H 0.32174 0.74912 0.11488 0.0
loop_
_geom_bond_atom_site_label_1
_geom_bond_atom_site_label_2
_geom_bond_distance
_geom_bond_site_symmetry_2
_ccdc_geom_bond_type
Cu0 N1 1.999 1_554 S
Cu0 O6 1.974 1_554 S
Cu0 N11 1.985 . S
Cu0 O20 1.959 . S
N1 Cu0 1.999 1_556 S
N1 C3 1.263 . S
N1 C5 1.389 . S
N2 C3 1.358 . S
N2 C4 1.400 . S
C3 N1 1.263 . S
C3 N2 1.358 . S
C3 H9 0.930 . S
C4 N2 1.400 . S
C4 C5 1.351 . S
C4 H21 0.930 . S
C5 N1 1.389 . S
C5 C4 1.351 . S
C5 H10 0.930 1_556 S
O6 Cu0 1.974 1_556 S
O6 C16 1.282 . S
C7 O8 1.261 . S
C7 O20 1.251 . S
O8 C7 1.261 . S
H9 C3 0.930 . S
H10 C5 0.930 1_554 S
N11 Cu0 1.985 . S
N11 C13 1.335 . S
N11 C14 1.390 . S
N12 C13 1.345 . S
N12 C15 1.336 . S
C13 N11 1.335 . S
C13 N12 1.345 . S
C13 H18 0.930 . S
C14 N11 1.390 . S
C14 C15 1.346 . S
C14 H19 0.899 1_554 S
C15 N12 1.336 . S
C15 C14 1.346 . S
C15 H22 0.929 . S
C16 O6 1.282 . S
C16 O17 1.216 . S
O17 C16 1.216 . S
H18 C13 0.930 . S
H19 C14 0.899 1_556 S
O20 Cu0 1.959 . S
O20 C7 1.251 . S
H21 C4 0.930 . S
H22 C15 0.929 . S
Cu23 N24 1.999 . S
Cu23 O29 1.974 . S
Cu23 N34 1.985 1_565 S
Cu23 O43 1.959 1_565 S
N24 Cu23 1.999 . S
N24 C26 1.263 . S
N24 C28 1.389 . S
N25 C26 1.358 . S
N25 C27 1.400 . S
C26 N24 1.263 . S
C26 N25 1.358 . S
C26 H32 0.930 . S
C27 N25 1.400 . S
C27 C28 1.351 . S
C27 H44 0.930 . S
C28 N24 1.389 . S
C28 C27 1.351 . S
C28 H33 0.930 . S
O29 Cu23 1.974 . S
O29 C39 1.282 . S
C30 O31 1.261 . S
C30 O43 1.251 . S
O31 C30 1.261 . S
H32 C26 0.930 . S
H33 C28 0.930 . S
N34 Cu23 1.985 1_545 S
N34 C36 1.335 . S
N34 C37 1.390 . S
N35 C36 1.345 . S
N35 C38 1.336 . S
C36 N34 1.335 . S
C36 N35 1.345 . S
C36 H41 0.930 . S
C37 N34 1.390 . S
C37 C38 1.346 . S
C37 H42 0.930 . S
C38 N35 1.336 . S
C38 C37 1.346 . S
C38 H45 0.929 . S
C39 O29 1.282 . S
C39 O40 1.216 1_565 S
O40 C39 1.216 1_545 S
H41 C36 0.930 . S
H42 C37 0.930 . S
O43 Cu23 1.959 1_545 S
O43 C30 1.251 . S
H44 C27 0.930 . S
H45 C38 0.929 . S
Cu46 N47 1.999 . S
Cu46 O52 1.974 . S
Cu46 N57 1.985 . S
Cu46 O66 1.959 . S
N47 Cu46 1.999 . S
N47 C49 1.263 . S
N47 C51 1.389 . S
N48 C49 1.358 . S
N48 C50 1.400 . S
C49 N47 1.263 . S
C49 N48 1.358 . S
C49 H55 0.930 . S
C50 N48 1.400 . S
C50 C51 1.351 . S
C50 H67 0.930 . S
C51 N47 1.389 . S
C51 C50 1.351 . S
C51 H56 0.930 . S
O52 Cu46 1.974 . S
O52 C62 1.282 . S
C53 O54 1.261 . S
C53 O66 1.251 . S
O54 C53 1.261 . S
H55 C49 0.930 . S
H56 C51 0.930 . S
N57 Cu46 1.985 . S
N57 C59 1.335 . S
N57 C60 1.390 . S
N58 C59 1.345 . S
N58 C61 1.336 . S
C59 N57 1.335 . S
C59 N58 1.345 . S
C59 H64 0.930 . S
C60 N57 1.390 . S
C60 C61 1.346 . S
C60 H65 0.930 . S
C61 N58 1.336 . S
C61 C60 1.346 . S
C61 H68 0.929 . S
C62 O52 1.282 . S
C62 O63 1.216 . S
O63 C62 1.216 . S
H64 C59 0.930 . S
H65 C60 0.930 . S
O66 Cu46 1.959 . S
O66 C53 1.251 . S
H67 C50 0.930 . S
H68 C61 0.929 . S
Cu69 N70 1.999 1_655 S
Cu69 O75 1.974 1_655 S
Cu69 N80 1.985 . S
Cu69 O89 1.959 . S
N70 Cu69 1.999 1_455 S
N70 C72 1.263 . S
N70 C74 1.389 1_455 S
N71 C72 1.358 . S
N71 C73 1.402 . S
C72 N70 1.263 . S
C72 N71 1.358 . S
C72 H78 0.930 . S
C73 N71 1.402 . S
C73 C74 1.348 1_455 S
C73 H90 0.931 1_455 S
C74 N70 1.389 1_655 S
C74 C73 1.348 1_655 S
C74 H79 0.930 . S
O75 Cu69 1.974 1_455 S
O75 C85 1.282 . S
C76 O77 1.261 1_655 S
C76 O89 1.251 . S
O77 C76 1.261 1_455 S
H78 C72 0.930 . S
H79 C74 0.930 . S
N80 Cu69 1.985 . S
N80 C82 1.335 . S
N80 C83 1.390 . S
N81 C82 1.345 . S
N81 C84 1.336 . S
C82 N80 1.335 . S
C82 N81 1.345 . S
C82 H87 0.930 . S
C83 N80 1.390 . S
C83 C84 1.346 . S
C83 H88 0.930 1_655 S
C84 N81 1.336 . S
C84 C83 1.346 . S
C84 H91 0.929 . S
C85 O75 1.282 . S
C85 O86 1.216 . S
O86 C85 1.216 . S
H87 C82 0.930 . S
H88 C83 0.930 1_455 S
O89 Cu69 1.959 . S
O89 C76 1.251 . S
H90 C73 0.931 1_655 S
H91 C84 0.929 . S
Cu92 N93 1.999 . S
Cu92 O98 1.974 . S
Cu92 N103 1.985 . S
Cu92 O112 1.959 . S
N93 Cu92 1.999 . S
N93 C95 1.263 . S
N93 C97 1.389 . S
N94 C95 1.358 . S
N94 C96 1.400 . S
C95 N93 1.263 . S
C95 N94 1.358 . S
C95 H101 0.930 . S
C96 N94 1.400 . S
C96 C97 1.351 . S
C96 H113 0.930 . S
C97 N93 1.389 . S
C97 C96 1.351 . S
C97 H102 0.930 . S
O98 Cu92 1.974 . S
O98 C108 1.282 . S
C99 O100 1.261 . S
C99 O112 1.251 . S
O100 C99 1.261 . S
H101 C95 0.930 . S
H102 C97 0.930 . S
N103 Cu92 1.985 . S
N103 C105 1.335 . S
N103 C106 1.390 . S
N104 C105 1.345 . S
N104 C107 1.336 . S
C105 N103 1.335 . S
C105 N104 1.345 . S
C105 H110 0.930 . S
C106 N103 1.390 . S
C106 C107 1.346 . S
C106 H111 0.930 . S
C107 N104 1.336 . S
C107 C106 1.346 . S
C107 H114 0.929 . S
C108 O98 1.282 . S
C108 O109 1.216 . S
O109 C108 1.216 . S
H110 C105 0.930 . S
H111 C106 0.930 . S
O112 Cu92 1.959 . S
O112 C99 1.251 . S
H113 C96 0.930 . S
H114 C107 0.929 . S
Cu115 N116 1.999 . S
Cu115 O121 1.974 . S
Cu115 N126 1.985 . S
Cu115 O135 1.959 . S
N116 Cu115 1.999 . S
N116 C118 1.263 . S
N116 C120 1.389 . S
N117 C118 1.358 . S
N117 C119 1.400 . S
C118 N116 1.263 . S
C118 N117 1.358 . S
C118 H124 0.930 . S
C119 N117 1.400 . S
C119 C120 1.351 . S
C119 H136 0.930 . S
C120 N116 1.389 . S
C120 C119 1.351 . S
C120 H125 0.930 . S
O121 Cu115 1.974 . S
O121 C131 1.282 . S
C122 O123 1.261 . S
C122 O135 1.251 . S
O123 C122 1.261 . S
H124 C118 0.930 . S
H125 C120 0.930 . S
N126 Cu115 1.985 . S
N126 C128 1.335 . S
N126 C129 1.390 . S
N127 C128 1.345 . S
N127 C130 1.336 . S
C128 N126 1.335 . S
C128 N127 1.345 . S
C128 H133 0.930 . S
C129 N126 1.390 . S
C129 C130 1.346 . S
C129 H134 0.930 . S
C130 N127 1.336 . S
C130 C129 1.346 . S
C130 H137 0.929 . S
C131 O121 1.282 . S
C131 O132 1.216 . S
O132 C131 1.216 . S
H133 C128 0.930 . S
H134 C129 0.930 . S
O135 Cu115 1.959 . S
O135 C122 1.251 . S
H136 C119 0.930 . S
H137 C130 0.929 . S
H138 O164 0.856 . S
H139 O167 0.854 . S
H140 C175 0.930 . S
H141 C176 0.930 . S
H142 C178 0.930 . S
H143 C179 0.930 . S
H144 C181 0.931 . S
H145 C182 0.930 . S
H146 C184 0.930 . S
H147 C185 0.929 . S
H148 C187 0.930 . S
H149 C188 0.931 . S
H150 C190 0.930 . S
H151 C191 0.929 . S
H152 C193 0.931 . S
H153 C194 0.930 . S
H154 C196 0.930 . S
H155 C197 0.932 . S
H156 C199 0.930 . S
H157 C200 0.929 . S
H158 C202 0.931 . S
H159 C203 0.930 . S
H160 C205 0.929 . S
H161 C206 0.931 . S
H162 C208 0.930 . S
H163 C209 0.929 . S
O164 H138 0.856 . S
O164 C210 1.300 . S
O165 C210 1.209 . S
O166 C211 1.199 . S
O167 H139 0.854 . S
O167 C211 1.297 . S
C168 C169 1.404 . S
C168 C173 1.397 . S
C168 C174 1.492 . S
C169 C168 1.404 . S
C169 C170 1.396 . S
C169 C180 1.492 . S
C170 C169 1.396 . S
C170 C171 1.397 . S
C170 C186 1.509 . S
C171 C170 1.397 . S
C171 C172 1.412 . S
C171 C192 1.485 . S
C172 C171 1.412 . S
C172 C173 1.388 . S
C172 C198 1.490 . S
C173 C168 1.397 . S
C173 C172 1.388 . S
C173 C204 1.519 . S
C174 C168 1.492 . S
C174 C175 1.363 . S
C174 C179 1.390 . S
C175 H140 0.930 . S
C175 C174 1.363 . S
C175 C176 1.372 . S
C176 H141 0.930 . S
C176 C175 1.372 . S
C176 C177 1.383 . S
C177 C176 1.383 . S
C177 C178 1.395 . S
C178 H142 0.930 . S
C178 C177 1.395 . S
C178 C179 1.362 . S
C179 H143 0.930 . S
C179 C174 1.390 . S
C179 C178 1.362 . S
C180 C169 1.492 . S
C180 C181 1.377 . S
C180 C185 1.397 . S
C181 H144 0.931 . S
C181 C180 1.377 . S
C181 C182 1.376 . S
C182 H145 0.930 . S
C182 C181 1.376 . S
C182 C183 1.376 . S
C183 C182 1.376 . S
C183 C184 1.378 . S
C183 C210 1.486 . S
C184 H146 0.930 . S
C184 C183 1.378 . S
C184 C185 1.376 . S
C185 H147 0.929 . S
C185 C180 1.397 . S
C185 C184 1.376 . S
C186 C170 1.509 . S
C186 C187 1.391 . S
C186 C191 1.386 . S
C187 H148 0.930 . S
C187 C186 1.391 . S
C187 C188 1.375 . S
C188 H149 0.931 . S
C188 C187 1.375 . S
C188 C189 1.375 . S
C189 C188 1.375 . S
C189 C190 1.361 . S
C190 H150 0.930 . S
C190 C189 1.361 . S
C190 C191 1.399 . S
C191 H151 0.929 . S
C191 C186 1.386 . S
C191 C190 1.399 . S
C192 C171 1.485 . S
C192 C193 1.394 . S
C192 C197 1.360 . S
C193 H152 0.931 . S
C193 C192 1.394 . S
C193 C194 1.372 . S
C194 H153 0.930 . S
C194 C193 1.372 . S
C194 C195 1.397 . S
C195 C194 1.397 . S
C195 C196 1.390 . S
C195 C211 1.476 . S
C196 H154 0.930 . S
C196 C195 1.390 . S
C196 C197 1.366 . S
C197 H155 0.932 . S
C197 C192 1.360 . S
C197 C196 1.366 . S
C198 C172 1.490 . S
C198 C199 1.380 . S
C198 C203 1.386 . S
C199 H156 0.930 . S
C199 C198 1.380 . S
C199 C200 1.381 . S
C200 H157 0.929 . S
C200 C199 1.381 . S
C200 C201 1.371 . S
C201 C200 1.371 . S
C201 C202 1.380 . S
C202 H158 0.931 . S
C202 C201 1.380 . S
C202 C203 1.387 . S
C203 H159 0.930 . S
C203 C198 1.386 . S
C203 C202 1.387 . S
C204 C173 1.519 . S
C204 C205 1.377 . S
C204 C209 1.361 . S
C205 H160 0.929 . S
C205 C204 1.377 . S
C205 C206 1.386 . S
C206 H161 0.931 . S
C206 C205 1.386 . S
C206 C207 1.363 . S
C207 C206 1.363 . S
C207 C208 1.385 . S
C208 H162 0.930 . S
C208 C207 1.385 . S
C208 C209 1.396 . S
C209 H163 0.929 . S
C209 C204 1.361 . S
C209 C208 1.396 . S
C210 O164 1.300 . S
C210 O165 1.209 . S
C210 C183 1.486 . S
C211 O166 1.199 . S
C211 O167 1.297 . S
C211 C195 1.476 . S
H212 O238 0.856 . S
H213 O241 0.854 . S
H214 C249 0.930 . S
H215 C250 0.930 . S
H216 C252 0.930 1_455 S
H217 C253 0.930 . S
H218 C255 0.931 . S
H219 C256 0.930 . S
H220 C258 0.930 . S
H221 C259 0.929 . S
H222 C261 0.930 . S
H223 C262 0.931 . S
H224 C264 0.930 . S
H225 C265 0.929 . S
H226 C267 0.931 . S
H227 C268 0.930 . S
H228 C270 0.930 . S
H229 C271 0.932 . S
H230 C273 0.930 . S
H231 C274 0.929 . S
H232 C276 0.931 . S
H233 C277 0.930 . S
H234 C279 0.929 . S
H235 C280 0.931 . S
H236 C282 0.930 . S
H237 C283 0.929 . S
O238 H212 0.856 . S
O238 C284 1.300 . S
O239 C284 1.209 . S
O240 C285 1.199 . S
O241 H213 0.854 . S
O241 C285 1.297 . S
C242 C243 1.404 . S
C242 C247 1.397 . S
C242 C248 1.492 . S
C243 C242 1.404 . S
C243 C244 1.396 . S
C243 C254 1.492 . S
C244 C243 1.396 . S
C244 C245 1.397 . S
C244 C260 1.509 . S
C245 C244 1.397 . S
C245 C246 1.412 . S
C245 C266 1.485 . S
C246 C245 1.412 . S
C246 C247 1.388 . S
C246 C272 1.490 . S
C247 C242 1.397 . S
C247 C246 1.388 . S
C247 C278 1.519 . S
C248 C242 1.492 . S
C248 C249 1.363 . S
C248 C253 1.390 . S
C249 H214 0.930 . S
C249 C248 1.363 . S
C249 C250 1.372 . S
C250 H215 0.930 . S
C250 C249 1.372 . S
C250 C251 1.383 . S
C251 C250 1.383 . S
C251 C252 1.395 . S
C252 H216 0.930 1_655 S
C252 C251 1.395 . S
C252 C253 1.362 . S
C253 H217 0.930 . S
C253 C248 1.390 . S
C253 C252 1.362 . S
C254 C243 1.492 . S
C254 C255 1.377 . S
C254 C259 1.397 . S
C255 H218 0.931 . S
C255 C254 1.377 . S
C255 C256 1.376 . S
C256 H219 0.930 . S
C256 C255 1.376 . S
C256 C257 1.376 . S
C257 C256 1.376 . S
C257 C258 1.378 . S
C257 C284 1.486 . S
C258 H220 0.930 . S
C258 C257 1.378 . S
C258 C259 1.376 . S
C259 H221 0.929 . S
C259 C254 1.397 . S
C259 C258 1.376 . S
C260 C244 1.509 . S
C260 C261 1.391 . S
C260 C265 1.386 . S
C261 H222 0.930 . S
C261 C260 1.391 . S
C261 C262 1.375 . S
C262 H223 0.931 . S
C262 C261 1.375 . S
C262 C263 1.375 . S
C263 C262 1.375 . S
C263 C264 1.361 . S
C264 H224 0.930 . S
C264 C263 1.361 . S
C264 C265 1.399 . S
C265 H225 0.929 . S
C265 C260 1.386 . S
C265 C264 1.399 . S
C266 C245 1.485 . S
C266 C267 1.394 . S
C266 C271 1.360 . S
C267 H226 0.931 . S
C267 C266 1.394 . S
C267 C268 1.372 . S
C268 H227 0.930 . S
C268 C267 1.372 . S
C268 C269 1.397 . S
C269 C268 1.397 . S
C269 C270 1.390 . S
C269 C285 1.476 . S
C270 H228 0.930 . S
C270 C269 1.390 . S
C270 C271 1.366 . S
C271 H229 0.932 . S
C271 C266 1.360 . S
C271 C270 1.366 . S
C272 C246 1.490 . S
C272 C273 1.380 . S
C272 C277 1.386 . S
C273 H230 0.930 . S
C273 C272 1.380 . S
C273 C274 1.381 . S
C274 H231 0.929 . S
C274 C273 1.381 . S
C274 C275 1.371 . S
C275 C274 1.371 . S
C275 C276 1.380 . S
C276 H232 0.931 . S
C276 C275 1.380 . S
C276 C277 1.387 . S
C277 H233 0.930 . S
C277 C272 1.386 . S
C277 C276 1.387 . S
C278 C247 1.519 . S
C278 C279 1.377 . S
C278 C283 1.361 . S
C279 H234 0.929 . S
C279 C278 1.377 . S
C279 C280 1.386 . S
C280 H235 0.931 . S
C280 C279 1.386 . S
C280 C281 1.363 . S
C281 C280 1.363 . S
C281 C282 1.385 . S
C282 H236 0.930 . S
C282 C281 1.385 . S
C282 C283 1.396 . S
C283 H237 0.929 . S
C283 C278 1.361 . S
C283 C282 1.396 . S
C284 O238 1.300 . S
C284 O239 1.209 . S
C284 C257 1.486 . S
C285 O240 1.199 . S
C285 O241 1.297 . S
C285 C269 1.476 . S
H286 O312 0.856 . S
H287 O315 0.854 . S
H288 C323 0.930 . S
H289 C324 0.930 . S
H290 C326 0.930 . S
H291 C327 0.930 . S
H292 C329 0.931 . S
H293 C330 0.930 . S
H294 C332 0.930 . S
H295 C333 0.929 . S
H296 C335 0.930 . S
H297 C336 0.931 . S
H298 C338 0.930 . S
H299 C339 0.929 . S
H300 C341 0.931 . S
H301 C342 0.930 . S
H302 C344 0.930 . S
H303 C345 0.932 . S
H304 C347 0.930 . S
H305 C348 0.929 . S
H306 C350 0.931 . S
H307 C351 0.930 . S
H308 C353 0.929 . S
H309 C354 0.931 . S
H310 C356 0.930 . S
H311 C357 0.929 . S
O312 H286 0.856 . S
O312 C358 1.300 . S
O313 C358 1.209 . S
O314 C359 1.199 . S
O315 H287 0.854 . S
O315 C359 1.297 1_545 S
C316 C317 1.404 . S
C316 C321 1.397 . S
C316 C322 1.492 . S
C317 C316 1.404 . S
C317 C318 1.396 . S
C317 C328 1.492 . S
C318 C317 1.396 . S
C318 C319 1.397 . S
C318 C334 1.509 . S
C319 C318 1.397 . S
C319 C320 1.412 . S
C319 C340 1.485 . S
C320 C319 1.412 . S
C320 C321 1.388 . S
C320 C346 1.490 . S
C321 C316 1.397 . S
C321 C320 1.388 . S
C321 C352 1.519 . S
C322 C316 1.492 . S
C322 C323 1.363 . S
C322 C327 1.390 . S
C323 H288 0.930 . S
C323 C322 1.363 . S
C323 C324 1.372 . S
C324 H289 0.930 . S
C324 C323 1.372 . S
C324 C325 1.383 . S
C325 C324 1.383 . S
C325 C326 1.395 . S
C326 H290 0.930 . S
C326 C325 1.395 . S
C326 C327 1.362 . S
C327 H291 0.930 . S
C327 C322 1.390 . S
C327 C326 1.362 . S
C328 C317 1.492 . S
C328 C329 1.377 . S
C328 C333 1.397 . S
C329 H292 0.931 . S
C329 C328 1.377 . S
C329 C330 1.376 . S
C330 H293 0.930 . S
C330 C329 1.376 . S
C330 C331 1.376 . S
C331 C330 1.376 . S
C331 C332 1.378 . S
C331 C358 1.486 . S
C332 H294 0.930 . S
C332 C331 1.378 . S
C332 C333 1.376 . S
C333 H295 0.929 . S
C333 C328 1.397 . S
C333 C332 1.376 . S
C334 C318 1.509 . S
C334 C335 1.391 . S
C334 C339 1.386 . S
C335 H296 0.930 . S
C335 C334 1.391 . S
C335 C336 1.375 . S
C336 H297 0.931 . S
C336 C335 1.375 . S
C336 C337 1.375 . S
C337 C336 1.375 . S
C337 C338 1.361 . S
C338 H298 0.930 . S
C338 C337 1.361 . S
C338 C339 1.399 . S
C339 H299 0.929 . S
C339 C334 1.386 . S
C339 C338 1.399 . S
C340 C319 1.485 . S
C340 C341 1.394 . S
C340 C345 1.360 . S
C341 H300 0.931 . S
C341 C340 1.394 . S
C341 C342 1.372 . S
C342 H301 0.930 . S
C342 C341 1.372 . S
C342 C343 1.397 . S
C343 C342 1.397 . S
C343 C344 1.390 . S
C343 C359 1.476 . S
C344 H302 0.930 . S
C344 C343 1.390 . S
C344 C345 1.366 . S
C345 H303 0.932 . S
C345 C340 1.360 . S
C345 C344 1.366 . S
C346 C320 1.490 . S
C346 C347 1.380 . S
C346 C351 1.386 . S
C347 H304 0.930 . S
C347 C346 1.380 . S
C347 C348 1.381 . S
C348 H305 0.929 . S
C348 C347 1.381 . S
C348 C349 1.371 . S
C349 C348 1.371 . S
C349 C350 1.380 . S
C350 H306 0.931 . S
C350 C349 1.380 . S
C350 C351 1.387 . S
C351 H307 0.930 . S
C351 C346 1.386 . S
C351 C350 1.387 . S
C352 C321 1.519 . S
C352 C353 1.377 . S
C352 C357 1.361 . S
C353 H308 0.929 . S
C353 C352 1.377 . S
C353 C354 1.386 . S
C354 H309 0.931 . S
C354 C353 1.386 . S
C354 C355 1.363 . S
C355 C354 1.363 . S
C355 C356 1.385 . S
C356 H310 0.930 . S
C356 C355 1.385 . S
C356 C357 1.396 . S
C357 H311 0.929 . S
C357 C352 1.361 . S
C357 C356 1.396 . S
C358 O312 1.300 . S
C358 O313 1.209 . S
C358 C331 1.486 . S
C359 O314 1.199 . S
C359 O315 1.297 1_565 S
C359 C343 1.476 . S
H360 O386 0.856 . S
H361 O389 0.854 . S
H362 C397 0.930 . S
H363 C398 0.930 . S
H364 C400 0.930 . S
H365 C401 0.930 . S
H366 C403 0.931 . S
H367 C404 0.930 . S
H368 C406 0.930 . S
H369 C407 0.929 . S
H370 C409 0.930 . S
H371 C410 0.931 . S
H372 C412 0.930 . S
H373 C413 0.929 . S
H374 C415 0.931 . S
H375 C416 0.930 . S
H376 C418 0.930 . S
H377 C419 0.932 . S
H378 C421 0.930 . S
H379 C422 0.929 . S
H380 C424 0.931 . S
H381 C425 0.930 . S
H382 C427 0.929 . S
H383 C428 0.931 . S
H384 C430 0.930 . S
H385 C431 0.929 . S
O386 H360 0.856 . S
O386 C432 1.300 . S
O387 C432 1.209 . S
O388 C433 1.199 . S
O389 H361 0.854 . S
O389 C433 1.297 . S
C390 C391 1.404 . S
C390 C395 1.397 . S
C390 C396 1.492 . S
C391 C390 1.404 . S
C391 C392 1.396 . S
C391 C402 1.492 . S
C392 C391 1.396 . S
C392 C393 1.397 . S
C392 C408 1.509 . S
C393 C392 1.397 . S
C393 C394 1.412 . S
C393 C414 1.485 . S
C394 C393 1.412 . S
C394 C395 1.388 . S
C394 C420 1.490 . S
C395 C390 1.397 . S
C395 C394 1.388 . S
C395 C426 1.519 . S
C396 C390 1.492 . S
C396 C397 1.363 . S
C396 C401 1.390 . S
C397 H362 0.930 . S
C397 C396 1.363 . S
C397 C398 1.372 . S
C398 H363 0.930 . S
C398 C397 1.372 . S
C398 C399 1.383 . S
C399 C398 1.383 . S
C399 C400 1.395 . S
C400 H364 0.930 . S
C400 C399 1.395 . S
C400 C401 1.362 . S
C401 H365 0.930 . S
C401 C396 1.390 . S
C401 C400 1.362 . S
C402 C391 1.492 . S
C402 C403 1.377 . S
C402 C407 1.397 . S
C403 H366 0.931 . S
C403 C402 1.377 . S
C403 C404 1.376 . S
C404 H367 0.930 . S
C404 C403 1.376 . S
C404 C405 1.376 . S
C405 C404 1.376 . S
C405 C406 1.378 . S
C405 C432 1.486 . S
C406 H368 0.930 . S
C406 C405 1.378 . S
C406 C407 1.376 . S
C407 H369 0.929 . S
C407 C402 1.397 . S
C407 C406 1.376 . S
C408 C392 1.509 . S
C408 C409 1.391 . S
C408 C413 1.386 . S
C409 H370 0.930 . S
C409 C408 1.391 . S
C409 C410 1.375 . S
C410 H371 0.931 . S
C410 C409 1.375 . S
C410 C411 1.375 . S
C411 C410 1.375 . S
C411 C412 1.361 . S
C412 H372 0.930 . S
C412 C411 1.361 . S
C412 C413 1.399 . S
C413 H373 0.929 . S
C413 C408 1.386 . S
C413 C412 1.399 . S
C414 C393 1.485 . S
C414 C415 1.394 . S
C414 C419 1.360 . S
C415 H374 0.931 . S
C415 C414 1.394 . S
C415 C416 1.372 1_655 S
C416 H375 0.930 . S
C416 C415 1.372 1_455 S
C416 C417 1.397 . S
C417 C416 1.397 . S
C417 C418 1.390 1_455 S
C417 C433 1.476 . S
C418 H376 0.930 . S
C418 C417 1.390 1_655 S
C418 C419 1.366 . S
C419 H377 0.932 . S
C419 C414 1.360 . S
C419 C418 1.366 . S
C420 C394 1.490 . S
C420 C421 1.380 . S
C420 C425 1.386 . S
C421 H378 0.930 . S
C421 C420 1.380 . S
C421 C422 1.381 . S
C422 H379 0.929 . S
C422 C421 1.381 . S
C422 C423 1.371 . S
C423 C422 1.371 . S
C423 C424 1.380 . S
C424 H380 0.931 . S
C424 C423 1.380 . S
C424 C425 1.387 . S
C425 H381 0.930 . S
C425 C420 1.386 . S
C425 C424 1.387 . S
C426 C395 1.519 . S
C426 C427 1.377 . S
C426 C431 1.361 . S
C427 H382 0.929 . S
C427 C426 1.377 . S
C427 C428 1.386 . S
C428 H383 0.931 . S
C428 C427 1.386 . S
C428 C429 1.363 . S
C429 C428 1.363 . S
C429 C430 1.385 . S
C430 H384 0.930 . S
C430 C429 1.385 . S
C430 C431 1.396 . S
C431 H385 0.929 . S
C431 C426 1.361 . S
C431 C430 1.396 . S
C432 O386 1.300 . S
C432 O387 1.209 . S
C432 C405 1.486 . S
C433 O388 1.199 . S
C433 O389 1.297 . S
C433 C417 1.476 . S
H434 O460 0.856 . S
H435 O463 0.854 . S
H436 C471 0.930 . S
H437 C472 0.930 . S
H438 C474 0.930 . S
H439 C475 0.930 . S
H440 C477 0.931 . S
H441 C478 0.930 . S
H442 C480 0.930 . S
H443 C481 0.929 . S
H444 C483 0.930 . S
H445 C484 0.931 . S
H446 C486 0.930 . S
H447 C487 0.929 . S
H448 C489 0.931 . S
H449 C490 0.930 . S
H450 C492 0.930 . S
H451 C493 0.932 . S
H452 C495 0.930 . S
H453 C496 0.929 . S
H454 C498 0.931 . S
H455 C499 0.930 . S
H456 C501 0.929 . S
H457 C502 0.931 . S
H458 C504 0.930 . S
H459 C505 0.929 . S
O460 H434 0.856 . S
O460 C506 1.300 . S
O461 C506 1.209 . S
O462 C507 1.199 . S
O463 H435 0.854 . S
O463 C507 1.297 . S
C464 C465 1.404 . S
C464 C469 1.397 . S
C464 C470 1.492 . S
C465 C464 1.404 . S
C465 C466 1.396 . S
C465 C476 1.492 . S
C466 C465 1.396 . S
C466 C467 1.397 . S
C466 C482 1.509 . S
C467 C466 1.397 . S
C467 C468 1.412 . S
C467 C488 1.485 . S
C468 C467 1.412 . S
C468 C469 1.388 . S
C468 C494 1.490 . S
C469 C464 1.397 . S
C469 C468 1.388 . S
C469 C500 1.519 . S
C470 C464 1.492 . S
C470 C471 1.363 . S
C470 C475 1.390 . S
C471 H436 0.930 . S
C471 C470 1.363 . S
C471 C472 1.372 . S
C472 H437 0.930 . S
C472 C471 1.372 . S
C472 C473 1.383 . S
C473 C472 1.383 . S
C473 C474 1.395 . S
C474 H438 0.930 . S
C474 C473 1.395 . S
C474 C475 1.362 . S
C475 H439 0.930 . S
C475 C470 1.390 . S
C475 C474 1.362 . S
C476 C465 1.492 . S
C476 C477 1.377 . S
C476 C481 1.397 . S
C477 H440 0.931 . S
C477 C476 1.377 . S
C477 C478 1.376 . S
C478 H441 0.930 . S
C478 C477 1.376 . S
C478 C479 1.376 . S
C479 C478 1.376 . S
C479 C480 1.378 . S
C479 C506 1.486 . S
C480 H442 0.930 . S
C480 C479 1.378 . S
C480 C481 1.376 . S
C481 H443 0.929 . S
C481 C476 1.397 . S
C481 C480 1.376 . S
C482 C466 1.509 . S
C482 C483 1.391 . S
C482 C487 1.386 . S
C483 H444 0.930 . S
C483 C482 1.391 . S
C483 C484 1.375 . S
C484 H445 0.931 . S
C484 C483 1.375 . S
C484 C485 1.375 . S
C485 C484 1.375 . S
C485 C486 1.361 . S
C486 H446 0.930 . S
C486 C485 1.361 . S
C486 C487 1.399 . S
C487 H447 0.929 . S
C487 C482 1.386 . S
C487 C486 1.399 . S
C488 C467 1.485 . S
C488 C489 1.394 . S
C488 C493 1.360 . S
C489 H448 0.931 . S
C489 C488 1.394 . S
C489 C490 1.372 . S
C490 H449 0.930 . S
C490 C489 1.372 . S
C490 C491 1.397 . S
C491 C490 1.397 . S
C491 C492 1.390 . S
C491 C507 1.476 . S
C492 H450 0.930 . S
C492 C491 1.390 . S
C492 C493 1.366 . S
C493 H451 0.932 . S
C493 C488 1.360 . S
C493 C492 1.366 . S
C494 C468 1.490 . S
C494 C495 1.380 . S
C494 C499 1.386 . S
C495 H452 0.930 . S
C495 C494 1.380 . S
C495 C496 1.381 . S
C496 H453 0.929 . S
C496 C495 1.381 . S
C496 C497 1.371 . S
C497 C496 1.371 . S
C497 C498 1.380 . S
C498 H454 0.931 . S
C498 C497 1.380 . S
C498 C499 1.387 . S
C499 H455 0.930 . S
C499 C494 1.386 . S
C499 C498 1.387 . S
C500 C469 1.519 . S
C500 C501 1.377 . S
C500 C505 1.361 . S
C501 H456 0.929 . S
C501 C500 1.377 . S
C501 C502 1.386 . S
C502 H457 0.931 . S
C502 C501 1.386 . S
C502 C503 1.363 . S
C503 C502 1.363 . S
C503 C504 1.385 . S
C504 H458 0.930 . S
C504 C503 1.385 . S
C504 C505 1.396 . S
C505 H459 0.929 . S
C505 C500 1.361 . S
C505 C504 1.396 . S
C506 O460 1.300 . S
C506 O461 1.209 . S
C506 C479 1.486 . S
C507 O462 1.199 . S
C507 O463 1.297 . S
C507 C491 1.476 . S
H508 O534 0.856 . S
H509 O537 0.854 . S
H510 C545 0.930 . S
H511 C546 0.930 . S
H512 C548 0.930 . S
H513 C549 0.930 . S
H514 C551 0.931 . S
H515 C552 0.930 . S
H516 C554 0.930 . S
H517 C555 0.929 . S
H518 C557 0.930 . S
H519 C558 0.931 . S
H520 C560 0.930 . S
H521 C561 0.929 . S
H522 C563 0.931 . S
H523 C564 0.930 . S
H524 C566 0.930 . S
H525 C567 0.932 . S
H526 C569 0.930 . S
H527 C570 0.929 . S
H528 C572 0.931 . S
H529 C573 0.930 . S
H530 C575 0.929 . S
H531 C576 0.931 . S
H532 C578 0.930 . S
H533 C579 0.929 . S
O534 H508 0.856 . S
O534 C580 1.300 . S
O535 C580 1.209 . S
O536 C581 1.199 . S
O537 H509 0.854 . S
O537 C581 1.297 . S
C538 C539 1.404 . S
C538 C543 1.397 . S
C538 C544 1.492 . S
C539 C538 1.404 . S
C539 C540 1.396 . S
C539 C550 1.492 . S
C540 C539 1.396 . S
C540 C541 1.397 . S
C540 C556 1.509 . S
C541 C540 1.397 . S
C541 C542 1.412 . S
C541 C562 1.485 . S
C542 C541 1.412 . S
C542 C543 1.388 . S
C542 C568 1.490 . S
C543 C538 1.397 . S
C543 C542 1.388 . S
C543 C574 1.519 . S
C544 C538 1.492 . S
C544 C545 1.363 . S
C544 C549 1.390 . S
C545 H510 0.930 . S
C545 C544 1.363 . S
C545 C546 1.372 . S
C546 H511 0.930 . S
C546 C545 1.372 . S
C546 C547 1.383 . S
C547 C546 1.383 . S
C547 C548 1.395 . S
C548 H512 0.930 . S
C548 C547 1.395 . S
C548 C549 1.362 . S
C549 H513 0.930 . S
C549 C544 1.390 . S
C549 C548 1.362 . S
C550 C539 1.492 . S
C550 C551 1.377 . S
C550 C555 1.397 . S
C551 H514 0.931 . S
C551 C550 1.377 . S
C551 C552 1.376 . S
C552 H515 0.930 . S
C552 C551 1.376 . S
C552 C553 1.376 . S
C553 C552 1.376 . S
C553 C554 1.378 . S
C553 C580 1.486 . S
C554 H516 0.930 . S
C554 C553 1.378 . S
C554 C555 1.376 . S
C555 H517 0.929 . S
C555 C550 1.397 . S
C555 C554 1.376 . S
C556 C540 1.509 . S
C556 C557 1.391 . S
C556 C561 1.386 . S
C557 H518 0.930 . S
C557 C556 1.391 . S
C557 C558 1.375 . S
C558 H519 0.931 . S
C558 C557 1.375 . S
C558 C559 1.375 . S
C559 C558 1.375 . S
C559 C560 1.361 . S
C560 H520 0.930 . S
C560 C559 1.361 . S
C560 C561 1.399 . S
C561 H521 0.929 . S
C561 C556 1.386 . S
C561 C560 1.399 . S
C562 C541 1.485 . S
C562 C563 1.394 . S
C562 C567 1.360 . S
C563 H522 0.931 . S
C563 C562 1.394 . S
C563 C564 1.372 . S
C564 H523 0.930 . S
C564 C563 1.372 . S
C564 C565 1.397 . S
C565 C564 1.397 . S
C565 C566 1.390 . S
C565 C581 1.476 . S
C566 H524 0.930 . S
C566 C565 1.390 . S
C566 C567 1.366 . S
C567 H525 0.932 . S
C567 C562 1.360 . S
C567 C566 1.366 . S
C568 C542 1.490 . S
C568 C569 1.380 . S
C568 C573 1.386 . S
C569 H526 0.930 . S
C569 C568 1.380 . S
C569 C570 1.381 . S
C570 H527 0.929 . S
C570 C569 1.381 . S
C570 C571 1.371 . S
C571 C570 1.371 . S
C571 C572 1.380 . S
C572 H528 0.931 . S
C572 C571 1.380 . S
C572 C573 1.387 . S
C573 H529 0.930 . S
C573 C568 1.386 . S
C573 C572 1.387 . S
C574 C543 1.519 . S
C574 C575 1.377 . S
C574 C579 1.361 . S
C575 H530 0.929 . S
C575 C574 1.377 . S
C575 C576 1.386 . S
C576 H531 0.931 . S
C576 C575 1.386 . S
C576 C577 1.363 . S
C577 C576 1.363 . S
C577 C578 1.385 . S
C578 H532 0.930 . S
C578 C577 1.385 . S
C578 C579 1.396 . S
C579 H533 0.929 . S
C579 C574 1.361 . S
C579 C578 1.396 . S
C580 O534 1.300 . S
C580 O535 1.209 . S
C580 C553 1.486 . S
C581 O536 1.199 . S
C581 O537 1.297 . S
C581 C565 1.476 . S
C582 C583 1.391 . S
C582 C584 1.394 . S
C582 H598 0.931 . S
C583 C582 1.391 . S
C583 C587 1.376 . S
C584 C582 1.394 . S
C584 C585 1.369 . S
C584 C588 1.531 . S
C585 C584 1.369 . S
C585 C586 1.410 . S
C585 C593 1.503 . S
C586 C585 1.410 . S
C586 C587 1.392 . S
C586 C589 1.511 . S
C587 C583 1.376 . S
C587 C586 1.392 . S
C587 H599 0.929 . S
C588 C584 1.531 . S
C588 H600 0.960 . S
C588 H601 0.962 . S
C588 H602 0.960 . S
C589 C586 1.511 . S
C589 H603 0.961 . S
C589 H604 0.961 . S
C589 H605 0.961 . S
C590 C591 1.370 . S
C590 C592 1.363 . S
C590 H606 0.931 . S
C591 C590 1.370 . S
C591 C595 1.408 . S
C592 C590 1.363 . S
C592 C593 1.370 . S
C592 C596 1.524 . S
C593 C585 1.503 . S
C593 C592 1.370 . S
C593 C594 1.403 . S
C594 C593 1.403 . S
C594 C595 1.404 . S
C594 C597 1.539 . S
C595 C591 1.408 . S
C595 C594 1.404 . S
C595 H607 0.930 . S
C596 C592 1.524 . S
C596 H608 0.956 . S
C596 H609 0.961 . S
C596 H610 0.961 . S
C597 C594 1.539 . S
C597 H611 0.958 . S
C597 H612 0.961 . S
C597 H613 0.960 . S
H598 C582 0.931 . S
H599 C587 0.929 . S
H600 C588 0.960 . S
H601 C588 0.962 . S
H602 C588 0.960 . S
H603 C589 0.961 . S
H604 C589 0.961 . S
H605 C589 0.961 . S
H606 C590 0.931 . S
H607 C595 0.930 . S
H608 C596 0.956 . S
H609 C596 0.961 . S
H610 C596 0.961 . S
H611 C597 0.958 . S
H612 C597 0.961 . S
H613 C597 0.960 . S
C614 C615 1.391 . S
C614 C616 1.394 . S
C614 H630 0.931 . S
C615 C614 1.391 . S
C615 C619 1.376 . S
C616 C614 1.394 . S
C616 C617 1.369 . S
C616 C620 1.531 . S
C617 C616 1.369 . S
C617 C618 1.410 . S
C617 C625 1.503 . S
C618 C617 1.410 . S
C618 C619 1.392 . S
C618 C621 1.511 . S
C619 C615 1.376 . S
C619 C618 1.392 . S
C619 H631 0.929 . S
C620 C616 1.531 . S
C620 H632 0.960 . S
C620 H633 0.962 . S
C620 H634 0.960 . S
C621 C618 1.511 . S
C621 H635 0.961 . S
C621 H636 0.961 . S
C621 H637 0.961 . S
C622 C623 1.370 . S
C622 C624 1.363 . S
C622 H638 0.931 . S
C623 C622 1.370 . S
C623 C627 1.408 . S
C624 C622 1.363 . S
C624 C625 1.370 . S
C624 C628 1.524 . S
C625 C617 1.503 . S
C625 C624 1.370 . S
C625 C626 1.403 . S
C626 C625 1.403 . S
C626 C627 1.404 . S
C626 C629 1.539 . S
C627 C623 1.408 . S
C627 C626 1.404 . S
C627 H639 0.930 . S
C628 C624 1.524 . S
C628 H640 0.956 . S
C628 H641 0.961 . S
C628 H642 0.961 . S
C629 C626 1.539 . S
C629 H643 0.958 . S
C629 H644 0.961 . S
C629 H645 0.960 . S
H630 C614 0.931 . S
H631 C619 0.929 . S
H632 C620 0.960 . S
H633 C620 0.962 . S
H634 C620 0.960 . S
H635 C621 0.961 . S
H636 C621 0.961 . S
H637 C621 0.961 . S
H638 C622 0.931 . S
H639 C627 0.930 . S
H640 C628 0.956 . S
H641 C628 0.961 . S
H642 C628 0.961 . S
H643 C629 0.958 . S
H644 C629 0.961 . S
H645 C629 0.960 . S
C646 C647 1.391 . S
C646 C648 1.394 . S
C646 H662 0.931 . S
C647 C646 1.391 . S
C647 C651 1.376 . S
C648 C646 1.394 . S
C648 C649 1.369 . S
C648 C652 1.531 . S
C649 C648 1.369 . S
C649 C650 1.410 . S
C649 C657 1.503 . S
C650 C649 1.410 . S
C650 C651 1.392 . S
C650 C653 1.511 . S
C651 C647 1.376 . S
C651 C650 1.392 . S
C651 H663 0.929 . S
C652 C648 1.531 . S
C652 H664 0.960 . S
C652 H665 0.962 . S
C652 H666 0.960 . S
C653 C650 1.511 . S
C653 H667 0.961 . S
C653 H668 0.961 . S
C653 H669 0.961 . S
C654 C655 1.370 . S
C654 C656 1.363 . S
C654 H670 0.931 . S
C655 C654 1.370 . S
C655 C659 1.408 . S
C656 C654 1.363 . S
C656 C657 1.370 . S
C656 C660 1.524 . S
C657 C649 1.503 . S
C657 C656 1.370 . S
C657 C658 1.403 . S
C658 C657 1.403 . S
C658 C659 1.404 . S
C658 C661 1.539 . S
C659 C655 1.408 . S
C659 C658 1.404 . S
C659 H671 0.930 . S
C660 C656 1.524 . S
C660 H672 0.956 . S
C660 H673 0.961 . S
C660 H674 0.961 . S
C661 C658 1.539 . S
C661 H675 0.958 . S
C661 H676 0.961 . S
C661 H677 0.960 . S
H662 C646 0.931 . S
H663 C651 0.929 . S
H664 C652 0.960 . S
H665 C652 0.962 . S
H666 C652 0.960 . S
H667 C653 0.961 . S
H668 C653 0.961 . S
H669 C653 0.961 . S
H670 C654 0.931 . S
H671 C659 0.930 . S
H672 C660 0.956 . S
H673 C660 0.961 . S
H674 C660 0.961 . S
H675 C661 0.958 . S
H676 C661 0.961 . S
H677 C661 0.960 . S
C678 C679 1.391 . S
C678 C680 1.394 . S
C678 H694 0.931 . S
C679 C678 1.391 . S
C679 C683 1.376 . S
C680 C678 1.394 . S
C680 C681 1.369 . S
C680 C684 1.531 1_655 S
C681 C680 1.369 . S
C681 C682 1.410 . S
C681 C689 1.503 . S
C682 C681 1.410 . S
C682 C683 1.392 . S
C682 C685 1.511 . S
C683 C679 1.376 . S
C683 C682 1.392 . S
C683 H695 0.929 . S
C684 C680 1.531 1_455 S
C684 H696 0.960 . S
C684 H697 0.962 . S
C684 H698 0.960 . S
C685 C682 1.511 . S
C685 H699 0.961 . S
C685 H700 0.961 . S
C685 H701 0.961 . S
C686 C687 1.370 . S
C686 C688 1.363 . S
C686 H702 0.931 . S
C687 C686 1.370 . S
C687 C691 1.408 . S
C688 C686 1.363 . S
C688 C689 1.370 . S
C688 C692 1.524 . S
C689 C681 1.503 . S
C689 C688 1.370 . S
C689 C690 1.403 . S
C690 C689 1.403 . S
C690 C691 1.404 . S
C690 C693 1.539 . S
C691 C687 1.408 . S
C691 C690 1.404 . S
C691 H703 0.930 . S
C692 C688 1.524 . S
C692 H704 0.956 . S
C692 H705 0.961 . S
C692 H706 0.961 . S
C693 C690 1.539 . S
C693 H707 0.958 . S
C693 H708 0.961 . S
C693 H709 0.960 . S
H694 C678 0.931 . S
H695 C683 0.929 . S
H696 C684 0.960 . S
H697 C684 0.962 . S
H698 C684 0.960 . S
H699 C685 0.961 . S
H700 C685 0.961 . S
H701 C685 0.961 . S
H702 C686 0.931 . S
H703 C691 0.930 . S
H704 C692 0.956 . S
H705 C692 0.961 . S
H706 C692 0.961 . S
H707 C693 0.958 . S
H708 C693 0.961 . S
H709 C693 0.960 . S
C710 C711 1.391 . S
C710 C712 1.394 1_545 S
C710 H726 0.931 . S
C711 C710 1.391 . S
C711 C715 1.376 1_545 S
C712 C710 1.394 1_565 S
C712 C713 1.369 . S
C712 C716 1.531 1_565 S
C713 C712 1.369 . S
C713 C714 1.410 . S
C713 C721 1.503 . S
C714 C713 1.410 . S
C714 C715 1.392 . S
C714 C717 1.511 . S
C715 C711 1.376 1_565 S
C715 C714 1.392 . S
C715 H727 0.929 . S
C716 C712 1.531 1_545 S
C716 H728 0.960 1_545 S
C716 H729 0.962 . S
C716 H730 0.960 . S
C717 C714 1.511 . S
C717 H731 0.961 . S
C717 H732 0.961 . S
C717 H733 0.961 . S
C718 C719 1.370 . S
C718 C720 1.363 . S
C718 H734 0.931 . S
C719 C718 1.370 . S
C719 C723 1.408 . S
C720 C718 1.363 . S
C720 C721 1.370 . S
C720 C724 1.524 . S
C721 C713 1.503 . S
C721 C720 1.370 . S
C721 C722 1.403 . S
C722 C721 1.403 . S
C722 C723 1.404 . S
C722 C725 1.539 . S
C723 C719 1.408 . S
C723 C722 1.404 . S
C723 H735 0.930 . S
C724 C720 1.524 . S
C724 H736 0.956 . S
C724 H737 0.961 . S
C724 H738 0.961 . S
C725 C722 1.539 . S
C725 H739 0.958 . S
C725 H740 0.961 . S
C725 H741 0.960 . S
H726 C710 0.931 . S
H727 C715 0.929 . S
H728 C716 0.960 1_565 S
H729 C716 0.962 . S
H730 C716 0.960 . S
H731 C717 0.961 . S
H732 C717 0.961 . S
H733 C717 0.961 . S
H734 C718 0.931 . S
H735 C723 0.930 . S
H736 C724 0.956 . S
H737 C724 0.961 . S
H738 C724 0.961 . S
H739 C725 0.958 . S
H740 C725 0.961 . S
H741 C725 0.960 . S
C742 C743 1.391 . S
C742 C744 1.394 . S
C742 H758 0.931 . S
C743 C742 1.391 . S
C743 C747 1.376 . S
C744 C742 1.394 . S
C744 C745 1.369 . S
C744 C748 1.531 . S
C745 C744 1.369 . S
C745 C746 1.410 . S
C745 C753 1.503 . S
C746 C745 1.410 . S
C746 C747 1.392 . S
C746 C749 1.511 . S
C747 C743 1.376 . S
C747 C746 1.392 . S
C747 H759 0.929 . S
C748 C744 1.531 . S
C748 H760 0.960 . S
C748 H761 0.962 . S
C748 H762 0.960 . S
C749 C746 1.511 . S
C749 H763 0.961 . S
C749 H764 0.961 . S
C749 H765 0.961 . S
C750 C751 1.370 . S
C750 C752 1.363 . S
C750 H766 0.931 . S
C751 C750 1.370 . S
C751 C755 1.408 . S
C752 C750 1.363 . S
C752 C753 1.370 . S
C752 C756 1.524 . S
C753 C745 1.503 . S
C753 C752 1.370 . S
C753 C754 1.403 . S
C754 C753 1.403 . S
C754 C755 1.404 . S
C754 C757 1.539 . S
C755 C751 1.408 . S
C755 C754 1.404 . S
C755 H767 0.930 . S
C756 C752 1.524 . S
C756 H768 0.956 . S
C756 H769 0.961 . S
C756 H770 0.961 . S
C757 C754 1.539 . S
C757 H771 0.958 . S
C757 H772 0.961 . S
C757 H773 0.960 . S
H758 C742 0.931 . S
H759 C747 0.929 . S
H760 C748 0.960 . S
H761 C748 0.962 . S
H762 C748 0.960 . S
H763 C749 0.961 . S
H764 C749 0.961 . S
H765 C749 0.961 . S
H766 C750 0.931 . S
H767 C755 0.930 . S
H768 C756 0.956 . S
H769 C756 0.961 . S
H770 C756 0.961 . S
H771 C757 0.958 . S
H772 C757 0.961 . S
H773 C757 0.960 . S
C774 C775 1.391 . S
C774 C776 1.394 . S
C774 H790 0.931 . S
C775 C774 1.391 . S
C775 C779 1.376 . S
C776 C774 1.394 . S
C776 C777 1.369 . S
C776 C780 1.531 . S
C777 C776 1.369 . S
C777 C778 1.410 . S
C777 C785 1.503 . S
C778 C777 1.410 . S
C778 C779 1.392 . S
C778 C781 1.511 . S
C779 C775 1.376 . S
C779 C778 1.392 . S
C779 H791 0.929 . S
C780 C776 1.531 . S
C780 H792 0.960 . S
C780 H793 0.962 . S
C780 H794 0.960 . S
C781 C778 1.511 . S
C781 H795 0.961 . S
C781 H796 0.961 . S
C781 H797 0.961 . S
C782 C783 1.370 . S
C782 C784 1.363 . S
C782 H798 0.931 . S
C783 C782 1.370 . S
C783 C787 1.408 . S
C784 C782 1.363 . S
C784 C785 1.370 . S
C784 C788 1.524 . S
C785 C777 1.503 . S
C785 C784 1.370 . S
C785 C786 1.403 . S
C786 C785 1.403 . S
C786 C787 1.404 . S
C786 C789 1.539 . S
C787 C783 1.408 . S
C787 C786 1.404 . S
C787 H799 0.930 . S
C788 C784 1.524 . S
C788 H800 0.956 . S
C788 H801 0.961 . S
C788 H802 0.961 . S
C789 C786 1.539 . S
C789 H803 0.958 . S
C789 H804 0.961 . S
C789 H805 0.960 . S
H790 C774 0.931 . S
H791 C779 0.929 . S
H792 C780 0.960 . S
H793 C780 0.962 . S
H794 C780 0.960 . S
H795 C781 0.961 . S
H796 C781 0.961 . S
H797 C781 0.961 . S
H798 C782 0.931 . S
H799 C787 0.930 . S
H800 C788 0.956 . S
H801 C788 0.961 . S
H802 C788 0.961 . S
H803 C789 0.958 . S
H804 C789 0.961 . S
H805 C789 0.960 . S
C806 C807 1.391 . S
C806 C808 1.394 . S
C806 H822 0.931 . S
C807 C806 1.391 . S
C807 C811 1.376 . S
C808 C806 1.394 . S
C808 C809 1.369 1_554 S
C808 C812 1.531 1_554 S
C809 C808 1.369 1_556 S
C809 C810 1.410 1_556 S
C809 C817 1.503 . S
C810 C809 1.410 1_554 S
C810 C811 1.392 . S
C810 C813 1.511 . S
C811 C807 1.376 . S
C811 C810 1.392 . S
C811 H823 0.929 . S
C812 C808 1.531 1_556 S
C812 H824 0.960 . S
C812 H825 0.962 . S
C812 H826 0.960 . S
C813 C810 1.511 . S
C813 H827 0.961 . S
C813 H828 0.961 1_554 S
C813 H829 0.961 . S
C814 C815 1.370 . S
C814 C816 1.363 . S
C814 H830 0.931 . S
C815 C814 1.370 . S
C815 C819 1.408 . S
C816 C814 1.363 . S
C816 C817 1.370 . S
C816 C820 1.524 . S
C817 C809 1.503 . S
C817 C816 1.370 . S
C817 C818 1.403 . S
C818 C817 1.403 . S
C818 C819 1.404 . S
C818 C821 1.539 1_556 S
C819 C815 1.408 . S
C819 C818 1.404 . S
C819 H831 0.930 . S
C820 C816 1.524 . S
C820 H832 0.956 . S
C820 H833 0.961 . S
C820 H834 0.961 . S
C821 C818 1.539 1_554 S
C821 H835 0.958 . S
C821 H836 0.961 . S
C821 H837 0.960 . S
H822 C806 0.931 . S
H823 C811 0.929 . S
H824 C812 0.960 . S
H825 C812 0.962 . S
H826 C812 0.960 . S
H827 C813 0.961 . S
H828 C813 0.961 1_556 S
H829 C813 0.961 . S
H830 C814 0.931 . S
H831 C819 0.930 . S
H832 C820 0.956 . S
H833 C820 0.961 . S
H834 C820 0.961 . S
H835 C821 0.958 . S
H836 C821 0.961 . S
H837 C821 0.960 . S
C838 C839 1.391 . S
C838 C840 1.394 . S
C838 H854 0.931 . S
C839 C838 1.391 . S
C839 C843 1.376 . S
C840 C838 1.394 . S
C840 C841 1.369 . S
C840 C844 1.531 . S
C841 C840 1.369 . S
C841 C842 1.410 . S
C841 C849 1.503 . S
C842 C841 1.410 . S
C842 C843 1.392 . S
C842 C845 1.511 . S
C843 C839 1.376 . S
C843 C842 1.392 . S
C843 H855 0.929 . S
C844 C840 1.531 . S
C844 H856 0.960 . S
C844 H857 0.962 . S
C844 H858 0.960 . S
C845 C842 1.511 . S
C845 H859 0.961 . S
C845 H860 0.961 . S
C845 H861 0.961 . S
C846 C847 1.370 . S
C846 C848 1.363 . S
C846 H862 0.931 . S
C847 C846 1.370 . S
C847 C851 1.408 . S
C848 C846 1.363 . S
C848 C849 1.370 . S
C848 C852 1.524 . S
C849 C841 1.503 . S
C849 C848 1.370 . S
C849 C850 1.403 . S
C850 C849 1.403 . S
C850 C851 1.404 . S
C850 C853 1.539 . S
C851 C847 1.408 . S
C851 C850 1.404 . S
C851 H863 0.930 . S
C852 C848 1.524 . S
C852 H864 0.956 . S
C852 H865 0.961 . S
C852 H866 0.961 . S
C853 C850 1.539 . S
C853 H867 0.958 . S
C853 H868 0.961 . S
C853 H869 0.960 . S
H854 C838 0.931 . S
H855 C843 0.929 . S
H856 C844 0.960 . S
H857 C844 0.962 . S
H858 C844 0.960 . S
H859 C845 0.961 . S
H860 C845 0.961 . S
H861 C845 0.961 . S
H862 C846 0.931 . S
H863 C851 0.930 . S
H864 C852 0.956 . S
H865 C852 0.961 . S
H866 C852 0.961 . S
H867 C853 0.958 . S
H868 C853 0.961 . S
H869 C853 0.960 . S
C870 C871 1.391 . S
C870 C872 1.394 1_554 S
C870 H886 0.931 . S
C871 C870 1.391 . S
C871 C875 1.376 . S
C872 C870 1.394 1_556 S
C872 C873 1.369 . S
C872 C876 1.531 . S
C873 C872 1.369 . S
C873 C874 1.410 1_556 S
C873 C881 1.503 . S
C874 C873 1.410 1_554 S
C874 C875 1.392 . S
C874 C877 1.511 . S
C875 C871 1.376 . S
C875 C874 1.392 . S
C875 H887 0.929 . S
C876 C872 1.531 . S
C876 H888 0.960 . S
C876 H889 0.962 . S
C876 H890 0.960 . S
C877 C874 1.511 . S
C877 H891 0.961 . S
C877 H892 0.961 . S
C877 H893 0.961 . S
C878 C879 1.370 . S
C878 C880 1.363 . S
C878 H894 0.931 . S
C879 C878 1.370 . S
C879 C883 1.408 . S
C880 C878 1.363 . S
C880 C881 1.370 . S
C880 C884 1.524 . S
C881 C873 1.503 . S
C881 C880 1.370 . S
C881 C882 1.403 . S
C882 C881 1.403 . S
C882 C883 1.404 . S
C882 C885 1.539 . S
C883 C879 1.408 . S
C883 C882 1.404 . S
C883 H895 0.930 . S
C884 C880 1.524 . S
C884 H896 0.956 . S
C884 H897 0.961 . S
C884 H898 0.961 . S
C885 C882 1.539 . S
C885 H899 0.958 . S
C885 H900 0.961 . S
C885 H901 0.967 . S
H886 C870 0.931 . S
H887 C875 0.929 . S
H888 C876 0.960 . S
H889 C876 0.962 . S
H890 C876 0.960 . S
H891 C877 0.961 . S
H892 C877 0.961 . S
H893 C877 0.961 . S
H894 C878 0.931 . S
H895 C883 0.930 . S
H896 C884 0.956 . S
H897 C884 0.961 . S
H898 C884 0.961 . S
H899 C885 0.958 . S
H900 C885 0.961 . S
H901 C885 0.967 . S
C902 C903 1.391 . S
C902 C904 1.394 . S
C902 H918 0.931 . S
C903 C902 1.391 . S
C903 C907 1.376 . S
C904 C902 1.394 . S
C904 C905 1.369 . S
C904 C908 1.531 . S
C905 C904 1.369 . S
C905 C906 1.410 . S
C905 C913 1.503 . S
C906 C905 1.410 . S
C906 C907 1.392 . S
C906 C909 1.511 . S
C907 C903 1.376 . S
C907 C906 1.392 . S
C907 H919 0.929 . S
C908 C904 1.531 . S
C908 H920 0.960 . S
C908 H921 0.962 . S
C908 H922 0.960 . S
C909 C906 1.511 . S
C909 H923 0.961 . S
C909 H924 0.961 . S
C909 H925 0.961 . S
C910 C911 1.370 . S
C910 C912 1.363 . S
C910 H926 0.931 . S
C911 C910 1.370 . S
C911 C915 1.408 . S
C912 C910 1.363 . S
C912 C913 1.370 . S
C912 C916 1.524 . S
C913 C905 1.503 . S
C913 C912 1.370 . S
C913 C914 1.403 . S
C914 C913 1.403 . S
C914 C915 1.404 . S
C914 C917 1.539 . S
C915 C911 1.408 . S
C915 C914 1.404 . S
C915 H927 0.930 . S
C916 C912 1.524 . S
C916 H928 0.956 . S
C916 H929 0.961 . S
C916 H930 0.961 . S
C917 C914 1.539 . S
C917 H931 0.958 . S
C917 H932 0.961 . S
C917 H933 0.960 . S
H918 C902 0.931 . S
H919 C907 0.929 . S
H920 C908 0.960 . S
H921 C908 0.962 . S
H922 C908 0.960 . S
H923 C909 0.961 . S
H924 C909 0.961 . S
H925 C909 0.961 . S
H926 C910 0.931 . S
H927 C915 0.930 . S
H928 C916 0.956 . S
H929 C916 0.961 . S
H930 C916 0.961 . S
H931 C917 0.958 . S
H932 C917 0.961 . S
H933 C917 0.960 . S
C934 C935 1.391 . S
C934 C936 1.394 . S
C934 H950 0.931 . S
C935 C934 1.391 . S
C935 C939 1.376 . S
C936 C934 1.394 . S
C936 C937 1.369 . S
C936 C940 1.531 . S
C937 C936 1.369 . S
C937 C938 1.410 . S
C937 C945 1.503 . S
C938 C937 1.410 . S
C938 C939 1.392 . S
C938 C941 1.511 . S
C939 C935 1.376 . S
C939 C938 1.392 . S
C939 H951 0.929 . S
C940 C936 1.531 . S
C940 H952 0.960 . S
C940 H953 0.962 . S
C940 H954 0.960 . S
C941 C938 1.511 . S
C941 H955 0.961 . S
C941 H956 0.961 . S
C941 H957 0.961 . S
C942 C943 1.370 . S
C942 C944 1.363 . S
C942 H958 0.931 1_455 S
C943 C942 1.370 . S
C943 C947 1.408 . S
C944 C942 1.363 . S
C944 C945 1.370 . S
C944 C948 1.524 . S
C945 C937 1.503 . S
C945 C944 1.370 . S
C945 C946 1.403 . S
C946 C945 1.403 . S
C946 C947 1.404 . S
C946 C949 1.539 . S
C947 C943 1.408 . S
C947 C946 1.404 . S
C947 H959 0.930 . S
C948 C944 1.524 . S
C948 H960 0.956 . S
C948 H961 0.961 . S
C948 H962 0.961 1_455 S
C949 C946 1.539 . S
C949 H963 0.958 . S
C949 H964 0.961 . S
C949 H965 0.960 . S
H950 C934 0.931 . S
H951 C939 0.929 . S
H952 C940 0.960 . S
H953 C940 0.962 . S
H954 C940 0.960 . S
H955 C941 0.961 . S
H956 C941 0.961 . S
H957 C941 0.961 . S
H958 C942 0.931 1_655 S
H959 C947 0.930 . S
H960 C948 0.956 . S
H961 C948 0.961 . S
H962 C948 0.961 1_655 S
H963 C949 0.958 . S
H964 C949 0.961 . S
H965 C949 0.960 . S
C966 C967 1.391 . S
C966 C968 1.394 . S
C966 H982 0.931 . S
C967 C966 1.391 . S
C967 C971 1.376 . S
C968 C966 1.394 . S
C968 C969 1.369 . S
C968 C972 1.531 . S
C969 C968 1.369 . S
C969 C970 1.410 . S
C969 C977 1.503 . S
C970 C969 1.410 . S
C970 C971 1.392 . S
C970 C973 1.511 . S
C971 C967 1.376 . S
C971 C970 1.392 . S
C971 H983 0.929 . S
C972 C968 1.531 . S
C972 H984 0.960 . S
C972 H985 0.962 . S
C972 H986 0.960 . S
C973 C970 1.511 . S
C973 H987 0.961 . S
C973 H988 0.961 . S
C973 H989 0.961 . S
C974 C975 1.386 1_655 S
C974 C976 1.321 1_655 S
C974 H990 0.959 . S
C975 C974 1.386 1_455 S
C975 C979 1.408 . S
C976 C974 1.321 1_455 S
C976 C977 1.370 . S
C976 C980 1.524 . S
C977 C969 1.503 . S
C977 C976 1.370 . S
C977 C978 1.403 . S
C978 C977 1.403 . S
C978 C979 1.404 . S
C978 C981 1.539 . S
C979 C975 1.408 . S
C979 C978 1.404 . S
C979 H991 0.930 . S
C980 C976 1.524 . S
C980 H992 0.956 . S
C980 H993 0.961 . S
C980 H994 0.961 1_455 S
C981 C978 1.539 . S
C981 H995 0.958 . S
C981 H996 0.961 . S
C981 H997 0.960 . S
H982 C966 0.931 . S
H983 C971 0.929 . S
H984 C972 0.960 . S
H985 C972 0.962 . S
H986 C972 0.960 . S
H987 C973 0.961 . S
H988 C973 0.961 . S
H989 C973 0.961 . S
H990 C974 0.959 . S
H991 C979 0.930 . S
H992 C980 0.956 . S
H993 C980 0.961 . S
H994 C980 0.961 1_655 S
H995 C981 0.958 . S
H996 C981 0.961 . S
H997 C981 0.960 . S
C998 C999 1.391 . S
C998 C1000 1.394 . S
C998 H1014 0.931 . S
C999 C998 1.391 . S
C999 C1003 1.376 . S
C1000 C998 1.394 . S
C1000 C1001 1.369 . S
C1000 C1004 1.531 . S
C1001 C1000 1.369 . S
C1001 C1002 1.410 . S
C1001 C1009 1.503 . S
C1002 C1001 1.410 . S
C1002 C1003 1.392 . S
C1002 C1005 1.511 . S
C1003 C999 1.376 . S
C1003 C1002 1.392 . S
C1003 H1015 0.929 . S
C1004 C1000 1.531 . S
C1004 H1016 0.960 . S
C1004 H1017 0.962 . S
C1004 H1018 0.960 1_565 S
C1005 C1002 1.511 . S
C1005 H1019 0.961 . S
C1005 H1020 0.961 . S
C1005 H1021 0.961 . S
C1006 C1007 1.370 . S
C1006 C1008 1.363 . S
C1006 H1022 0.931 . S
C1007 C1006 1.370 . S
C1007 C1011 1.408 . S
C1008 C1006 1.363 . S
C1008 C1009 1.370 . S
C1008 C1012 1.524 . S
C1009 C1001 1.503 . S
C1009 C1008 1.370 . S
C1009 C1010 1.403 . S
C1010 C1009 1.403 . S
C1010 C1011 1.404 . S
C1010 C1013 1.539 . S
C1011 C1007 1.408 . S
C1011 C1010 1.404 . S
C1011 H1023 0.930 . S
C1012 C1008 1.524 . S
C1012 H1024 0.956 . S
C1012 H1025 0.961 . S
C1012 H1026 0.961 . S
C1013 C1010 1.539 . S
C1013 H1027 0.958 . S
C1013 H1028 0.961 . S
C1013 H1029 0.960 . S
H1014 C998 0.931 . S
H1015 C1003 0.929 . S
H1016 C1004 0.960 . S
H1017 C1004 0.962 . S
H1018 C1004 0.960 1_545 S
H1019 C1005 0.961 . S
H1020 C1005 0.961 . S
H1021 C1005 0.961 . S
H1022 C1006 0.931 . S
H1023 C1011 0.930 . S
H1024 C1012 0.956 . S
H1025 C1012 0.961 . S
H1026 C1012 0.961 . S
H1027 C1013 0.958 . S
H1028 C1013 0.961 . S
H1029 C1013 0.960 . S
C1030 C1031 1.391 . S
C1030 C1032 1.394 1_554 S
C1030 H1046 0.931 . S
C1031 C1030 1.391 . S
C1031 C1035 1.376 . S
C1032 C1030 1.394 1_556 S
C1032 C1033 1.369 . S
C1032 C1036 1.531 . S
C1033 C1032 1.369 . S
C1033 C1034 1.410 . S
C1033 C1041 1.503 . S
C1034 C1033 1.410 . S
C1034 C1035 1.392 1_556 S
C1034 C1037 1.511 . S
C1035 C1031 1.376 . S
C1035 C1034 1.392 1_554 S
C1035 H1047 0.929 . S
C1036 C1032 1.531 . S
C1036 H1048 0.960 . S
C1036 H1049 0.962 . S
C1036 H1050 0.960 . S
C1037 C1034 1.511 . S
C1037 H1051 0.961 . S
C1037 H1052 0.961 . S
C1037 H1053 0.961 . S
C1038 C1039 1.370 . S
C1038 C1040 1.363 . S
C1038 H1054 0.931 . S
C1039 C1038 1.370 . S
C1039 C1043 1.408 . S
C1040 C1038 1.363 . S
C1040 C1041 1.370 . S
C1040 C1044 1.524 . S
C1041 C1033 1.503 . S
C1041 C1040 1.370 . S
C1041 C1042 1.403 . S
C1042 C1041 1.403 . S
C1042 C1043 1.404 . S
C1042 C1045 1.539 . S
C1043 C1039 1.408 . S
C1043 C1042 1.404 . S
C1043 H1055 0.930 . S
C1044 C1040 1.524 . S
C1044 H1056 0.956 . S
C1044 H1057 0.961 . S
C1044 H1058 0.961 . S
C1045 C1042 1.539 . S
C1045 H1059 0.958 . S
C1045 H1060 0.961 . S
C1045 H1061 0.960 1_556 S
H1046 C1030 0.931 . S
H1047 C1035 0.929 . S
H1048 C1036 0.960 . S
H1049 C1036 0.962 . S
H1050 C1036 0.960 . S
H1051 C1037 0.961 . S
H1052 C1037 0.961 . S
H1053 C1037 0.961 . S
H1054 C1038 0.931 . S
H1055 C1043 0.930 . S
H1056 C1044 0.956 . S
H1057 C1044 0.961 . S
H1058 C1044 0.961 . S
H1059 C1045 0.958 . S
H1060 C1045 0.961 . S
H1061 C1045 0.960 1_554 S
C1062 C1063 1.391 . S
C1062 C1064 1.394 . S
C1062 H1078 0.931 . S
C1063 C1062 1.391 . S
C1063 C1067 1.376 . S
C1064 C1062 1.394 . S
C1064 C1065 1.369 . S
C1064 C1068 1.531 . S
C1065 C1064 1.369 . S
C1065 C1066 1.410 . S
C1065 C1073 1.503 . S
C1066 C1065 1.410 . S
C1066 C1067 1.392 . S
C1066 C1069 1.511 . S
C1067 C1063 1.376 . S
C1067 C1066 1.392 . S
C1067 H1079 0.929 . S
C1068 C1064 1.531 . S
C1068 H1080 0.960 . S
C1068 H1081 0.962 . S
C1068 H1082 0.960 . S
C1069 C1066 1.511 . S
C1069 H1083 0.961 . S
C1069 H1084 0.961 . S
C1069 H1085 0.961 . S
C1070 C1071 1.370 . S
C1070 C1072 1.363 . S
C1070 H1086 0.931 . S
C1071 C1070 1.370 . S
C1071 C1075 1.408 . S
C1072 C1070 1.363 . S
C1072 C1073 1.370 . S
C1072 C1076 1.524 . S
C1073 C1065 1.503 . S
C1073 C1072 1.370 . S
C1073 C1074 1.403 . S
C1074 C1073 1.403 . S
C1074 C1075 1.404 . S
C1074 C1077 1.539 . S
C1075 C1071 1.408 . S
C1075 C1074 1.404 . S
C1075 H1087 0.930 . S
C1076 C1072 1.524 . S
C1076 H1088 0.956 . S
C1076 H1089 0.961 . S
C1076 H1090 0.961 . S
C1077 C1074 1.539 . S
C1077 H1091 0.958 . S
C1077 H1092 0.961 . S
C1077 H1093 0.960 . S
H1078 C1062 0.931 . S
H1079 C1067 0.929 . S
H1080 C1068 0.960 . S
H1081 C1068 0.962 . S
H1082 C1068 0.960 . S
H1083 C1069 0.961 . S
H1084 C1069 0.961 . S
H1085 C1069 0.961 . S
H1086 C1070 0.931 . S
H1087 C1075 0.930 . S
H1088 C1076 0.956 . S
H1089 C1076 0.961 . S
H1090 C1076 0.961 . S
H1091 C1077 0.958 . S
H1092 C1077 0.961 . S
H1093 C1077 0.960 . S
C1094 C1095 1.391 . S
C1094 C1096 1.394 . S
C1094 H1110 0.931 . S
C1095 C1094 1.391 . S
C1095 C1099 1.376 . S
C1096 C1094 1.394 . S
C1096 C1097 1.369 . S
C1096 C1100 1.531 1_554 S
C1097 C1096 1.369 . S
C1097 C1098 1.410 . S
C1097 C1105 1.503 1_554 S
C1098 C1097 1.410 . S
C1098 C1099 1.392 . S
C1098 C1101 1.511 . S
C1099 C1095 1.376 . S
C1099 C1098 1.392 . S
C1099 H1111 0.929 . S
C1100 C1096 1.531 1_556 S
C1100 H1112 0.960 . S
C1100 H1113 0.962 . S
C1100 H1114 0.960 1_556 S
C1101 C1098 1.511 . S
C1101 H1115 0.961 . S
C1101 H1116 0.961 1_554 S
C1101 H1117 0.961 . S
C1102 C1103 1.370 . S
C1102 C1104 1.363 . S
C1102 H1118 0.931 . S
C1103 C1102 1.370 . S
C1103 C1107 1.408 . S
C1104 C1102 1.363 . S
C1104 C1105 1.370 . S
C1104 C1108 1.524 . S
C1105 C1097 1.503 1_556 S
C1105 C1104 1.370 . S
C1105 C1106 1.403 . S
C1106 C1105 1.403 . S
C1106 C1107 1.404 . S
C1106 C1109 1.539 1_556 S
C1107 C1103 1.408 . S
C1107 C1106 1.404 . S
C1107 H1119 0.930 . S
C1108 C1104 1.524 . S
C1108 H1120 0.956 . S
C1108 H1121 0.961 . S
C1108 H1122 0.961 . S
C1109 C1106 1.539 1_554 S
C1109 H1123 0.958 . S
C1109 H1124 0.961 . S
C1109 H1125 0.960 . S
H1110 C1094 0.931 . S
H1111 C1099 0.929 . S
H1112 C1100 0.960 . S
H1113 C1100 0.962 . S
H1114 C1100 0.960 1_554 S
H1115 C1101 0.961 . S
H1116 C1101 0.961 1_556 S
H1117 C1101 0.961 . S
H1118 C1102 0.931 . S
H1119 C1107 0.930 . S
H1120 C1108 0.956 . S
H1121 C1108 0.961 . S
H1122 C1108 0.961 . S
H1123 C1109 0.958 . S
H1124 C1109 0.961 . S
H1125 C1109 0.960 . S
C1126 C1127 1.391 . S
C1126 C1128 1.394 . S
C1126 H1142 0.931 . S
C1127 C1126 1.391 . S
C1127 C1131 1.376 . S
C1128 C1126 1.394 . S
C1128 C1129 1.369 . S
C1128 C1132 1.531 . S
C1129 C1128 1.369 . S
C1129 C1130 1.410 . S
C1129 C1137 1.503 . S
C1130 C1129 1.410 . S
C1130 C1131 1.392 . S
C1130 C1133 1.511 . S
C1131 C1127 1.376 . S
C1131 C1130 1.392 . S
C1131 H1143 0.929 . S
C1132 C1128 1.531 . S
C1132 H1144 0.960 . S
C1132 H1145 0.962 . S
C1132 H1146 0.960 . S
C1133 C1130 1.511 . S
C1133 H1147 0.961 . S
C1133 H1148 0.961 . S
C1133 H1149 0.961 . S
C1134 C1135 1.370 . S
C1134 C1136 1.363 . S
C1134 H1150 0.931 . S
C1135 C1134 1.370 . S
C1135 C1139 1.408 . S
C1136 C1134 1.363 . S
C1136 C1137 1.370 . S
C1136 C1140 1.524 . S
C1137 C1129 1.503 . S
C1137 C1136 1.370 . S
C1137 C1138 1.403 . S
C1138 C1137 1.403 . S
C1138 C1139 1.404 . S
C1138 C1141 1.539 . S
C1139 C1135 1.408 . S
C1139 C1138 1.404 . S
C1139 H1151 0.930 . S
C1140 C1136 1.524 . S
C1140 H1152 0.956 . S
C1140 H1153 0.961 . S
C1140 H1154 0.961 . S
C1141 C1138 1.539 . S
C1141 H1155 0.958 . S
C1141 H1156 0.961 . S
C1141 H1157 0.960 . S
H1142 C1126 0.931 . S
H1143 C1131 0.929 . S
H1144 C1132 0.960 . S
H1145 C1132 0.962 . S
H1146 C1132 0.960 . S
H1147 C1133 0.961 . S
H1148 C1133 0.961 . S
H1149 C1133 0.961 . S
H1150 C1134 0.931 . S
H1151 C1139 0.930 . S
H1152 C1140 0.956 . S
H1153 C1140 0.961 . S
H1154 C1140 0.961 . S
H1155 C1141 0.958 . S
H1156 C1141 0.961 . S
H1157 C1141 0.960 . S
C1158 C1159 1.391 . S
C1158 C1160 1.394 . S
C1158 H1174 0.931 . S
C1159 C1158 1.391 . S
C1159 C1163 1.376 . S
C1160 C1158 1.394 . S
C1160 C1161 1.369 . S
C1160 C1164 1.531 . S
C1161 C1160 1.369 . S
C1161 C1162 1.410 . S
C1161 C1169 1.503 . S
C1162 C1161 1.410 . S
C1162 C1163 1.392 . S
C1162 C1165 1.511 . S
C1163 C1159 1.376 . S
C1163 C1162 1.392 . S
C1163 H1175 0.929 . S
C1164 C1160 1.531 . S
C1164 H1176 0.960 . S
C1164 H1177 0.962 . S
C1164 H1178 0.960 . S
C1165 C1162 1.511 . S
C1165 H1179 0.961 . S
C1165 H1180 0.961 . S
C1165 H1181 0.961 . S
C1166 C1167 1.370 . S
C1166 C1168 1.363 . S
C1166 H1182 0.931 . S
C1167 C1166 1.370 . S
C1167 C1171 1.408 . S
C1168 C1166 1.363 . S
C1168 C1169 1.370 . S
C1168 C1172 1.524 . S
C1169 C1161 1.503 . S
C1169 C1168 1.370 . S
C1169 C1170 1.403 . S
C1170 C1169 1.403 . S
C1170 C1171 1.404 . S
C1170 C1173 1.539 . S
C1171 C1167 1.408 . S
C1171 C1170 1.404 . S
C1171 H1183 0.930 . S
C1172 C1168 1.524 . S
C1172 H1184 0.956 . S
C1172 H1185 0.961 . S
C1172 H1186 0.961 . S
C1173 C1170 1.539 . S
C1173 H1187 0.958 . S
C1173 H1188 0.961 . S
C1173 H1189 0.960 . S
H1174 C1158 0.931 . S
H1175 C1163 0.929 . S
H1176 C1164 0.960 . S
H1177 C1164 0.962 . S
H1178 C1164 0.960 . S
H1179 C1165 0.961 . S
H1180 C1165 0.961 . S
H1181 C1165 0.961 . S
H1182 C1166 0.931 . S
H1183 C1171 0.930 . S
H1184 C1172 0.956 . S
H1185 C1172 0.961 . S
H1186 C1172 0.961 . S
H1187 C1173 0.958 . S
H1188 C1173 0.961 . S
H1189 C1173 0.960 . S
C1190 C1191 1.391 . S
C1190 C1192 1.394 . S
C1190 H1206 0.931 . S
C1191 C1190 1.391 . S
C1191 C1195 1.376 . S
C1192 C1190 1.394 . S
C1192 C1193 1.369 . S
C1192 C1196 1.531 . S
C1193 C1192 1.369 . S
C1193 C1194 1.410 . S
C1193 C1201 1.503 . S
C1194 C1193 1.410 . S
C1194 C1195 1.392 . S
C1194 C1197 1.511 . S
C1195 C1191 1.376 . S
C1195 C1194 1.392 . S
C1195 H1207 0.929 . S
C1196 C1192 1.531 . S
C1196 H1208 0.960 . S
C1196 H1209 0.962 . S
C1196 H1210 0.960 . S
C1197 C1194 1.511 . S
C1197 H1211 0.961 . S
C1197 H1212 0.961 . S
C1197 H1213 0.961 . S
C1198 C1199 1.370 . S
C1198 C1200 1.363 . S
C1198 H1214 0.931 . S
C1199 C1198 1.370 . S
C1199 C1203 1.408 . S
C1200 C1198 1.363 . S
C1200 C1201 1.370 . S
C1200 C1204 1.524 . S
C1201 C1193 1.503 . S
C1201 C1200 1.370 . S
C1201 C1202 1.403 . S
C1202 C1201 1.403 . S
C1202 C1203 1.404 . S
C1202 C1205 1.539 . S
C1203 C1199 1.408 . S
C1203 C1202 1.404 . S
C1203 H1215 0.930 . S
C1204 C1200 1.524 . S
C1204 H1216 0.956 . S
C1204 H1217 0.961 . S
C1204 H1218 0.961 . S
C1205 C1202 1.539 . S
C1205 H1219 0.958 . S
C1205 H1220 0.961 . S
C1205 H1221 0.960 . S
H1206 C1190 0.931 . S
H1207 C1195 0.929 . S
H1208 C1196 0.960 . S
H1209 C1196 0.962 . S
H1210 C1196 0.960 . S
H1211 C1197 0.961 . S
H1212 C1197 0.961 . S
H1213 C1197 0.961 . S
H1214 C1198 0.931 . S
H1215 C1203 0.930 . S
H1216 C1204 0.956 . S
H1217 C1204 0.961 . S
H1218 C1204 0.961 . S
H1219 C1205 0.958 . S
H1220 C1205 0.961 . S
H1221 C1205 0.960 . S
C1222 C1223 1.391 . S
C1222 C1224 1.394 . S
C1222 H1238 0.931 1_655 S
C1223 C1222 1.391 . S
C1223 C1227 1.376 . S
C1224 C1222 1.394 . S
C1224 C1225 1.369 . S
C1224 C1228 1.531 1_655 S
C1225 C1224 1.369 . S
C1225 C1226 1.410 . S
C1225 C1233 1.503 . S
C1226 C1225 1.410 . S
C1226 C1227 1.392 . S
C1226 C1229 1.511 . S
C1227 C1223 1.376 . S
C1227 C1226 1.392 . S
C1227 H1239 0.929 . S
C1228 C1224 1.531 1_455 S
C1228 H1240 0.960 . S
C1228 H1241 0.962 . S
C1228 H1242 0.960 . S
C1229 C1226 1.511 . S
C1229 H1243 0.961 . S
C1229 H1244 0.961 . S
C1229 H1245 0.961 . S
C1230 C1231 1.370 . S
C1230 C1232 1.363 . S
C1230 H1246 0.931 . S
C1231 C1230 1.370 . S
C1231 C1235 1.408 . S
C1232 C1230 1.363 . S
C1232 C1233 1.370 . S
C1232 C1236 1.524 . S
C1233 C1225 1.503 . S
C1233 C1232 1.370 . S
C1233 C1234 1.403 . S
C1234 C1233 1.403 . S
C1234 C1235 1.404 . S
C1234 C1237 1.539 . S
C1235 C1231 1.408 . S
C1235 C1234 1.404 . S
C1235 H1247 0.930 . S
C1236 C1232 1.524 . S
C1236 H1248 0.956 . S
C1236 H1249 0.961 . S
C1236 H1250 0.961 . S
C1237 C1234 1.539 . S
C1237 H1251 0.958 . S
C1237 H1252 0.961 . S
C1237 H1253 0.960 . S
H1238 C1222 0.931 1_455 S
H1239 C1227 0.929 . S
H1240 C1228 0.960 . S
H1241 C1228 0.962 . S
H1242 C1228 0.960 . S
H1243 C1229 0.961 . S
H1244 C1229 0.961 . S
H1245 C1229 0.961 . S
H1246 C1230 0.931 . S
H1247 C1235 0.930 . S
H1248 C1236 0.956 . S
H1249 C1236 0.961 . S
H1250 C1236 0.961 . S
H1251 C1237 0.958 . S
H1252 C1237 0.961 . S
H1253 C1237 0.960 . S
C1254 C1255 1.391 . S
C1254 C1256 1.394 . S
C1254 H1270 0.931 . S
C1255 C1254 1.391 . S
C1255 C1259 1.376 1_545 S
C1256 C1254 1.394 . S
C1256 C1257 1.369 1_545 S
C1256 C1260 1.531 . S
C1257 C1256 1.369 1_565 S
C1257 C1258 1.410 . S
C1257 C1265 1.503 . S
C1258 C1257 1.410 . S
C1258 C1259 1.392 . S
C1258 C1261 1.511 . S
C1259 C1255 1.376 1_565 S
C1259 C1258 1.392 . S
C1259 H1271 0.929 . S
C1260 C1256 1.531 . S
C1260 H1272 0.960 . S
C1260 H1273 0.962 . S
C1260 H1274 0.960 . S
C1261 C1258 1.511 . S
C1261 H1275 0.961 . S
C1261 H1276 0.961 . S
C1261 H1277 0.961 . S
C1262 C1263 1.370 . S
C1262 C1264 1.363 . S
C1262 H1278 0.931 . S
C1263 C1262 1.370 . S
C1263 C1267 1.408 . S
C1264 C1262 1.363 . S
C1264 C1265 1.370 . S
C1264 C1268 1.524 . S
C1265 C1257 1.503 . S
C1265 C1264 1.370 . S
C1265 C1266 1.403 . S
C1266 C1265 1.403 . S
C1266 C1267 1.404 . S
C1266 C1269 1.539 1_565 S
C1267 C1263 1.408 . S
C1267 C1266 1.404 . S
C1267 H1279 0.930 . S
C1268 C1264 1.524 . S
C1268 H1280 0.956 . S
C1268 H1281 0.961 . S
C1268 H1282 0.961 . S
C1269 C1266 1.539 1_545 S
C1269 H1283 0.958 . S
C1269 H1284 0.961 . S
C1269 H1285 0.960 . S
H1270 C1254 0.931 . S
H1271 C1259 0.929 . S
H1272 C1260 0.960 . S
H1273 C1260 0.962 . S
H1274 C1260 0.960 . S
H1275 C1261 0.961 . S
H1276 C1261 0.961 . S
H1277 C1261 0.961 . S
H1278 C1262 0.931 . S
H1279 C1267 0.930 . S
H1280 C1268 0.956 . S
H1281 C1268 0.961 . S
H1282 C1268 0.961 . S
H1283 C1269 0.958 . S
H1284 C1269 0.961 . S
H1285 C1269 0.960 . S
C1286 C1287 1.391 . S
C1286 C1288 1.394 . S
C1286 H1302 0.931 . S
C1287 C1286 1.391 . S
C1287 C1291 1.376 . S
C1288 C1286 1.394 . S
C1288 C1289 1.369 . S
C1288 C1292 1.531 . S
C1289 C1288 1.369 . S
C1289 C1290 1.410 . S
C1289 C1297 1.503 . S
C1290 C1289 1.410 . S
C1290 C1291 1.392 . S
C1290 C1293 1.511 . S
C1291 C1287 1.376 . S
C1291 C1290 1.392 . S
C1291 H1303 0.929 . S
C1292 C1288 1.531 . S
C1292 H1304 0.960 . S
C1292 H1305 0.962 . S
C1292 H1306 0.960 . S
C1293 C1290 1.511 . S
C1293 H1307 0.961 . S
C1293 H1308 0.961 . S
C1293 H1309 0.961 . S
C1294 C1295 1.370 . S
C1294 C1296 1.363 . S
C1294 H1310 0.931 . S
C1295 C1294 1.370 . S
C1295 C1299 1.408 . S
C1296 C1294 1.363 . S
C1296 C1297 1.370 . S
C1296 C1300 1.524 . S
C1297 C1289 1.503 . S
C1297 C1296 1.370 . S
C1297 C1298 1.403 . S
C1298 C1297 1.403 . S
C1298 C1299 1.404 . S
C1298 C1301 1.539 . S
C1299 C1295 1.408 . S
C1299 C1298 1.404 . S
C1299 H1311 0.930 . S
C1300 C1296 1.524 . S
C1300 H1312 0.956 . S
C1300 H1313 0.961 . S
C1300 H1314 0.961 . S
C1301 C1298 1.539 . S
C1301 H1315 0.958 . S
C1301 H1316 0.961 . S
C1301 H1317 0.960 . S
H1302 C1286 0.931 . S
H1303 C1291 0.929 . S
H1304 C1292 0.960 . S
H1305 C1292 0.962 . S
H1306 C1292 0.960 . S
H1307 C1293 0.961 . S
H1308 C1293 0.961 . S
H1309 C1293 0.961 . S
H1310 C1294 0.931 . S
H1311 C1299 0.930 . S
H1312 C1300 0.956 . S
H1313 C1300 0.961 . S
H1314 C1300 0.961 . S
H1315 C1301 0.958 . S
H1316 C1301 0.961 . S
H1317 C1301 0.960 . S
C1318 C1319 1.391 . S
C1318 C1320 1.394 . S
C1318 H1334 0.931 . S
C1319 C1318 1.391 . S
C1319 C1323 1.376 . S
C1320 C1318 1.394 . S
C1320 C1321 1.369 . S
C1320 C1324 1.531 . S
C1321 C1320 1.369 . S
C1321 C1322 1.410 . S
C1321 C1329 1.503 . S
C1322 C1321 1.410 . S
C1322 C1323 1.392 . S
C1322 C1325 1.511 . S
C1323 C1319 1.376 . S
C1323 C1322 1.392 . S
C1323 H1335 0.929 . S
C1324 C1320 1.531 . S
C1324 H1336 0.960 . S
C1324 H1337 0.962 . S
C1324 H1338 0.960 . S
C1325 C1322 1.511 . S
C1325 H1339 0.961 . S
C1325 H1340 0.961 . S
C1325 H1341 0.961 . S
C1326 C1327 1.370 . S
C1326 C1328 1.363 . S
C1326 H1342 0.931 . S
C1327 C1326 1.370 . S
C1327 C1331 1.408 . S
C1328 C1326 1.363 . S
C1328 C1329 1.370 . S
C1328 C1332 1.524 . S
C1329 C1321 1.503 . S
C1329 C1328 1.370 . S
C1329 C1330 1.403 . S
C1330 C1329 1.403 . S
C1330 C1331 1.404 . S
C1330 C1333 1.539 . S
C1331 C1327 1.408 . S
C1331 C1330 1.404 . S
C1331 H1343 0.930 . S
C1332 C1328 1.524 . S
C1332 H1344 0.956 . S
C1332 H1345 0.961 . S
C1332 H1346 0.961 . S
C1333 C1330 1.539 . S
C1333 H1347 0.958 . S
C1333 H1348 0.961 . S
C1333 H1349 0.960 . S
H1334 C1318 0.931 . S
H1335 C1323 0.929 . S
H1336 C1324 0.960 . S
H1337 C1324 0.962 . S
H1338 C1324 0.960 . S
H1339 C1325 0.961 . S
H1340 C1325 0.961 . S
H1341 C1325 0.961 . S
H1342 C1326 0.931 . S
H1343 C1331 0.930 . S
H1344 C1332 0.956 . S
H1345 C1332 0.961 . S
H1346 C1332 0.961 . S
H1347 C1333 0.958 . S
H1348 C1333 0.961 . S
H1349 C1333 0.960 . S
C583 C7 2.373 . S
C591 C201 2.324 . S
C615 C30 1.300 . S
C623 C275 1.293 . S
C655 C325 1.787 . S
C647 N58 1.782 . S
C687 C411 1.171 . S
C679 N81 1.077 . S
C719 C503 2.021 . S
C711 C99 2.014 . S
C751 C547 1.654 . S
C743 N127 1.688 . S
C775 N25 1.212 . S
C783 C349 1.232 . S
C807 C62 2.453 . S
C815 C429 2.427 . S
C847 C485 1.479 . S
C839 C85 1.423 . S
C879 C571 1.280 . S
C871 N94 1.268 . S
C903 C131 2.415 . S
C911 C177 2.283 . S
C943 C251 1.707 1_455 S
C935 N2 1.681 . S
C975 C423 2.133 1_455 S
C967 C16 2.340 . S
C999 C39 2.012 . S
C1007 C473 1.909 . S
C1039 C577 2.257 . S
C1031 N48 2.249 . S
C1063 N71 1.280 . S
C1071 C189 1.297 . S
C1095 C108 1.937 . S
C1103 C263 1.908 . S
C1127 N117 2.032 . S
C1135 C355 2.042 . S
C1159 N35 1.839 . S
C1167 C559 1.825 . S
C1199 C207 2.155 . S
C1191 C53 2.157 . S
C1223 C76 2.448 . S
C1231 C281 2.343 . S
C1255 N104 1.567 . S
C1263 C337 1.535 . S
C1287 C122 1.798 . S
C1295 C399 1.659 . S
C1319 N12 1.779 . S
C1327 C497 1.708 . S
