# Generated by pormake.
# Topology eea, (3,6)-cn, num edge types: 1
# Building blocks:
#     Node 0, Type 0, BuildingBlock: VETTIZ_charged_linker_0, # of connection points: 3
#     Node 1, Type 0, BuildingBlock: VETTIZ_charged_linker_0, # of connection points: 3
#     Node 2, Type 0, BuildingBlock: VETTIZ_charged_linker_0, # of connection points: 3
#     Node 3, Type 0, BuildingBlock: VETTIZ_charged_linker_0, # of connection points: 3
#     Node 4, Type 0, BuildingBlock: VETTIZ_charged_linker_0, # of connection points: 3
#     Node 5, Type 0, BuildingBlock: VETTIZ_charged_linker_0, # of connection points: 3
#     Node 6, Type 0, BuildingBlock: VETTIZ_charged_linker_0, # of connection points: 3
#     Node 7, Type 0, BuildingBlock: VETTIZ_charged_linker_0, # of connection points: 3
#     Node 8, Type 0, BuildingBlock: VETTIZ_charged_linker_0, # of connection points: 3
#     Node 9, Type 0, BuildingBlock: VETTIZ_charged_linker_0, # of connection points: 3
#     Node 10, Type 0, BuildingBlock: VETTIZ_charged_linker_0, # of connection points: 3
#     Node 11, Type 0, BuildingBlock: VETTIZ_charged_linker_0, # of connection points: 3
#     Node 12, Type 0, BuildingBlock: VETTIZ_charged_linker_0, # of connection points: 3
#     Node 13, Type 0, BuildingBlock: VETTIZ_charged_linker_0, # of connection points: 3
#     Node 14, Type 0, BuildingBlock: VETTIZ_charged_linker_0, # of connection points: 3
#     Node 15, Type 0, BuildingBlock: VETTIZ_charged_linker_0, # of connection points: 3
#     Node 16, Type 0, BuildingBlock: VETTIZ_charged_linker_0, # of connection points: 3
#     Node 17, Type 0, BuildingBlock: VETTIZ_charged_linker_0, # of connection points: 3
#     Node 18, Type 1, BuildingBlock: NUHQIS_clean_sbu_0, # of connection points: 6
#     Node 19, Type 1, BuildingBlock: NUHQIS_clean_sbu_0, # of connection points: 6
#     Node 20, Type 1, BuildingBlock: NUHQIS_clean_sbu_0, # of connection points: 6
#     Node 21, Type 1, BuildingBlock: NUHQIS_clean_sbu_0, # of connection points: 6
#     Node 22, Type 1, BuildingBlock: NUHQIS_clean_sbu_0, # of connection points: 6
#     Node 23, Type 1, BuildingBlock: NUHQIS_clean_sbu_0, # of connection points: 6
#     Node 24, Type 1, BuildingBlock: NUHQIS_clean_sbu_0, # of connection points: 6
#     Node 25, Type 1, BuildingBlock: NUHQIS_clean_sbu_0, # of connection points: 6
#     Node 26, Type 1, BuildingBlock: NUHQIS_clean_sbu_0, # of connection points: 6
#     Edge 27, Type (0, 1), BuildingBlock: XIVTED_clean_linker_0, # of connection points: 2
#     Edge 28, Type (0, 1), BuildingBlock: XIVTED_clean_linker_0, # of connection points: 2
#     Edge 29, Type (0, 1), BuildingBlock: XIVTED_clean_linker_0, # of connection points: 2
#     Edge 30, Type (0, 1), BuildingBlock: XIVTED_clean_linker_0, # of connection points: 2
#     Edge 31, Type (0, 1), BuildingBlock: XIVTED_clean_linker_0, # of connection points: 2
#     Edge 32, Type (0, 1), BuildingBlock: XIVTED_clean_linker_0, # of connection points: 2
#     Edge 33, Type (0, 1), BuildingBlock: XIVTED_clean_linker_0, # of connection points: 2
#     Edge 34, Type (0, 1), BuildingBlock: XIVTED_clean_linker_0, # of connection points: 2
#     Edge 35, Type (0, 1), BuildingBlock: XIVTED_clean_linker_0, # of connection points: 2
#     Edge 36, Type (0, 1), BuildingBlock: XIVTED_clean_linker_0, # of connection points: 2
#     Edge 37, Type (0, 1), BuildingBlock: XIVTED_clean_linker_0, # of connection points: 2
#     Edge 38, Type (0, 1), BuildingBlock: XIVTED_clean_linker_0, # of connection points: 2
#     Edge 39, Type (0, 1), BuildingBlock: XIVTED_clean_linker_0, # of connection points: 2
#     Edge 40, Type (0, 1), BuildingBlock: XIVTED_clean_linker_0, # of connection points: 2
#     Edge 41, Type (0, 1), BuildingBlock: XIVTED_clean_linker_0, # of connection points: 2
#     Edge 42, Type (0, 1), BuildingBlock: XIVTED_clean_linker_0, # of connection points: 2
#     Edge 43, Type (0, 1), BuildingBlock: XIVTED_clean_linker_0, # of connection points: 2
#     Edge 44, Type (0, 1), BuildingBlock: XIVTED_clean_linker_0, # of connection points: 2
#     Edge 45, Type (0, 1), BuildingBlock: XIVTED_clean_linker_0, # of connection points: 2
#     Edge 46, Type (0, 1), BuildingBlock: XIVTED_clean_linker_0, # of connection points: 2
#     Edge 47, Type (0, 1), BuildingBlock: XIVTED_clean_linker_0, # of connection points: 2
#     Edge 48, Type (0, 1), BuildingBlock: XIVTED_clean_linker_0, # of connection points: 2
#     Edge 49, Type (0, 1), BuildingBlock: XIVTED_clean_linker_0, # of connection points: 2
#     Edge 50, Type (0, 1), BuildingBlock: XIVTED_clean_linker_0, # of connection points: 2
#     Edge 51, Type (0, 1), BuildingBlock: XIVTED_clean_linker_0, # of connection points: 2
#     Edge 52, Type (0, 1), BuildingBlock: XIVTED_clean_linker_0, # of connection points: 2
#     Edge 53, Type (0, 1), BuildingBlock: XIVTED_clean_linker_0, # of connection points: 2
#     Edge 54, Type (0, 1), BuildingBlock: XIVTED_clean_linker_0, # of connection points: 2
#     Edge 55, Type (0, 1), BuildingBlock: XIVTED_clean_linker_0, # of connection points: 2
#     Edge 56, Type (0, 1), BuildingBlock: XIVTED_clean_linker_0, # of connection points: 2
#     Edge 57, Type (0, 1), BuildingBlock: XIVTED_clean_linker_0, # of connection points: 2
#     Edge 58, Type (0, 1), BuildingBlock: XIVTED_clean_linker_0, # of connection points: 2
#     Edge 59, Type (0, 1), BuildingBlock: XIVTED_clean_linker_0, # of connection points: 2
#     Edge 60, Type (0, 1), BuildingBlock: XIVTED_clean_linker_0, # of connection points: 2
#     Edge 61, Type (0, 1), BuildingBlock: XIVTED_clean_linker_0, # of connection points: 2
#     Edge 62, Type (0, 1), BuildingBlock: XIVTED_clean_linker_0, # of connection points: 2
#     Edge 63, Type (0, 1), BuildingBlock: XIVTED_clean_linker_0, # of connection points: 2
#     Edge 64, Type (0, 1), BuildingBlock: XIVTED_clean_linker_0, # of connection points: 2
#     Edge 65, Type (0, 1), BuildingBlock: XIVTED_clean_linker_0, # of connection points: 2
#     Edge 66, Type (0, 1), BuildingBlock: XIVTED_clean_linker_0, # of connection points: 2
#     Edge 67, Type (0, 1), BuildingBlock: XIVTED_clean_linker_0, # of connection points: 2
#     Edge 68, Type (0, 1), BuildingBlock: XIVTED_clean_linker_0, # of connection points: 2
#     Edge 69, Type (0, 1), BuildingBlock: XIVTED_clean_linker_0, # of connection points: 2
#     Edge 70, Type (0, 1), BuildingBlock: XIVTED_clean_linker_0, # of connection points: 2
#     Edge 71, Type (0, 1), BuildingBlock: XIVTED_clean_linker_0, # of connection points: 2
#     Edge 72, Type (0, 1), BuildingBlock: XIVTED_clean_linker_0, # of connection points: 2
#     Edge 73, Type (0, 1), BuildingBlock: XIVTED_clean_linker_0, # of connection points: 2
#     Edge 74, Type (0, 1), BuildingBlock: XIVTED_clean_linker_0, # of connection points: 2
#     Edge 75, Type (0, 1), BuildingBlock: XIVTED_clean_linker_0, # of connection points: 2
#     Edge 76, Type (0, 1), BuildingBlock: XIVTED_clean_linker_0, # of connection points: 2
#     Edge 77, Type (0, 1), BuildingBlock: XIVTED_clean_linker_0, # of connection points: 2
#     Edge 78, Type (0, 1), BuildingBlock: XIVTED_clean_linker_0, # of connection points: 2
#     Edge 79, Type (0, 1), BuildingBlock: XIVTED_clean_linker_0, # of connection points: 2
#     Edge 80, Type (0, 1), BuildingBlock: XIVTED_clean_linker_0, # of connection points: 2
# Relax obj value: 0.035
# Max RMSD: 0.134
# Mean RMSD: 0.075
data_MOF--net-eea--node1-NUHQIS_clean_sbu_0--node2-VETTIZ_charged_linker_0--edge1-XIVTED_clean_linker_0
_symmetry_space_group_name_H-M    P1
_symmetry_Int_Tables_number       1
_symmetry_cell_setting            triclinic
loop_
_symmetry_equiv_pos_as_xyz
'x, y, z'
_cell_length_a     62.017767
_cell_length_b     62.28065
_cell_length_c     90.79568
_cell_angle_alpha  93.311338
_cell_angle_beta   93.283117
_cell_angle_gamma 119.78995
loop_
_atom_site_label
_atom_site_type_symbol
_atom_site_fract_x
_atom_site_fract_y
_atom_site_fract_z
_atom_type_partial_charge
C0 C 0.25169 0.18217 0.38897 0.0
C1 C 0.25532 0.2047 0.39587 0.0
C2 C 0.26989 0.21424 0.4097 0.0
C3 C 0.27527 0.17832 0.4099 0.0
C4 C 0.26198 0.16951 0.39609 0.0
C5 C 0.25985 0.14539 0.39024 0.0
H6 H 0.27681 0.04862 0.40231 0.0
C7 C 0.28239 0.16018 0.41453 0.0
C8 C 0.27379 0.14105 0.40293 0.0
H9 H 0.24037 0.0586 0.3634 0.0
H10 H 0.25169 0.09972 0.37387 0.0
H11 H 0.32467 0.10439 0.40687 0.0
H12 H 0.25387 0.06887 0.42495 0.0
H13 H 0.27612 0.08799 0.43961 0.0
H14 H 0.27862 0.06305 0.43038 0.0
H15 H 0.31806 0.08334 0.42086 0.0
H16 H 0.33046 0.11622 0.4256 0.0
C17 C 0.27333 0.14965 0.37592 0.0
C18 C 0.23177 0.1253 0.3881 0.0
C19 C 0.31896 0.16807 0.46747 0.0
C20 C 0.32507 0.15258 0.47521 0.0
C21 C 0.32443 0.13208 0.46732 0.0
C22 C 0.31663 0.12632 0.45215 0.0
C23 C 0.30909 0.14105 0.44475 0.0
C24 C 0.31097 0.16193 0.45228 0.0
C25 C 0.30231 0.17544 0.44249 0.0
C26 C 0.29412 0.15867 0.42802 0.0
C27 C 0.29796 0.13849 0.4295 0.0
C28 C 0.32486 0.20154 0.44104 0.0
C29 C 0.28009 0.17584 0.4492 0.0
C30 C 0.27129 0.05967 0.39602 0.0
C31 C 0.25747 0.05022 0.38206 0.0
C32 C 0.25114 0.06545 0.37414 0.0
C33 C 0.25753 0.08926 0.38031 0.0
C34 C 0.27024 0.0979 0.3946 0.0
C35 C 0.27732 0.08335 0.40207 0.0
C36 C 0.29015 0.09521 0.41728 0.0
C37 C 0.28953 0.11928 0.41773 0.0
C38 C 0.27771 0.12067 0.40447 0.0
C39 C 0.31721 0.09995 0.41783 0.0
C40 C 0.27413 0.07798 0.42874 0.0
H41 H 0.2905 0.20929 0.42728 0.0
H42 H 0.24059 0.17414 0.3784 0.0
H43 H 0.22176 0.12783 0.39724 0.0
H44 H 0.2284 0.10621 0.38842 0.0
H45 H 0.22271 0.12643 0.37749 0.0
H46 H 0.28946 0.16893 0.37647 0.0
H47 H 0.26052 0.14682 0.366 0.0
H48 H 0.28152 0.13759 0.37421 0.0
H49 H 0.31931 0.18398 0.47322 0.0
H50 H 0.32961 0.1202 0.47297 0.0
H51 H 0.31612 0.11021 0.44686 0.0
H52 H 0.34282 0.20157 0.44245 0.0
H53 H 0.32587 0.21563 0.44956 0.0
H54 H 0.32443 0.20774 0.42991 0.0
H55 H 0.26693 0.15729 0.45272 0.0
H56 H 0.26883 0.18002 0.44131 0.0
H57 H 0.28668 0.18966 0.4591 0.0
H58 H 0.27368 0.23188 0.41512 0.0
C59 C 0.27984 0.20119 0.41673 0.0
C60 C 0.95018 0.18937 0.39297 0.0
C61 C 0.97155 0.21123 0.39943 0.0
C62 C 0.97188 0.21972 0.41427 0.0
C63 C 0.93067 0.18444 0.41596 0.0
C64 C 0.9303 0.17623 0.40142 0.0
C65 C 0.90731 0.15169 0.39646 0.0
H66 H 0.80048 0.05295 0.41267 0.0
C67 C 0.90749 0.16581 0.42177 0.0
C68 C 0.8939 0.14649 0.41039 0.0
H69 H 0.83508 0.06395 0.3716 0.0
H70 H 0.86744 0.10479 0.38169 0.0
H71 H 0.84923 0.07312 0.43347 0.0
H72 H 0.8095 0.10913 0.41833 0.0
H73 H 0.81946 0.11961 0.43717 0.0
H74 H 0.79852 0.08692 0.43177 0.0
H75 H 0.82137 0.06855 0.4411 0.0
H76 H 0.85187 0.09352 0.4485 0.0
C77 C 0.91556 0.13246 0.39243 0.0
C78 C 0.8925 0.15558 0.38357 0.0
C79 C 0.88961 0.17834 0.47482 0.0
C80 C 0.87032 0.163 0.48322 0.0
C81 C 0.85087 0.13991 0.47661 0.0
C82 C 0.85053 0.13202 0.46183 0.0
C83 C 0.87004 0.14725 0.45357 0.0
C84 C 0.88922 0.16996 0.46004 0.0
C85 C 0.90892 0.18291 0.44964 0.0
C86 C 0.89802 0.16447 0.43581 0.0
C87 C 0.87524 0.14367 0.43824 0.0
C88 C 0.93374 0.18557 0.45643 0.0
C89 C 0.91041 0.20788 0.44697 0.0
C90 C 0.81508 0.0641 0.40586 0.0
C91 C 0.81518 0.05509 0.39131 0.0
C92 C 0.83433 0.07048 0.38278 0.0
C93 C 0.85329 0.09416 0.38871 0.0
C94 C 0.85329 0.1026 0.4034 0.0
C95 C 0.83425 0.08776 0.41165 0.0
C96 C 0.8374 0.09973 0.42708 0.0
C97 C 0.86171 0.12403 0.42679 0.0
C98 C 0.87091 0.12556 0.41291 0.0
C99 C 0.83994 0.08293 0.43821 0.0
C100 C 0.81505 0.104 0.42884 0.0
H101 H 0.95304 0.21391 0.43374 0.0
H102 H 0.94889 0.18233 0.38158 0.0
H103 H 0.8934 0.17382 0.38556 0.0
H104 H 0.87238 0.14164 0.3824 0.0
H105 H 0.90025 0.15533 0.37288 0.0
H106 H 0.93305 0.1369 0.39922 0.0
H107 H 0.91914 0.13218 0.38059 0.0
H108 H 0.9019 0.11343 0.39478 0.0
H109 H 0.90493 0.19605 0.47977 0.0
H110 H 0.83587 0.12792 0.48294 0.0
H111 H 0.83518 0.11422 0.45748 0.0
H112 H 0.9302 0.16988 0.4631 0.0
H113 H 0.94468 0.20309 0.46387 0.0
H114 H 0.94547 0.18482 0.44794 0.0
H115 H 0.89135 0.2053 0.44504 0.0
H116 H 0.91978 0.21578 0.43706 0.0
H117 H 0.9203 0.2218 0.45673 0.0
H118 H 0.98813 0.23622 0.41972 0.0
C119 C 0.95155 0.20657 0.42251 0.0
C120 C 0.95755 0.78014 0.40256 0.0
C121 C 0.9772 0.7771 0.40852 0.0
C122 C 0.97548 0.76809 0.4226 0.0
C123 C 0.93535 0.76564 0.42438 0.0
C124 C 0.93712 0.77451 0.41063 0.0
C125 C 0.91527 0.77751 0.40585 0.0
H126 H 0.80694 0.77189 0.42001 0.0
C127 C 0.91164 0.76183 0.4298 0.0
C128 C 0.89997 0.76893 0.41894 0.0
H129 H 0.8471 0.79522 0.3812 0.0
H130 H 0.87822 0.78666 0.39148 0.0
H131 H 0.81297 0.72377 0.42204 0.0
H132 H 0.85502 0.7979 0.44413 0.0
H133 H 0.851 0.77709 0.45741 0.0
H134 H 0.82397 0.77597 0.44806 0.0
H135 H 0.80162 0.73415 0.43699 0.0
H136 H 0.82136 0.7209 0.44029 0.0
C137 C 0.9015 0.75991 0.3915 0.0
C138 C 0.92519 0.80546 0.4042 0.0
C139 C 0.88499 0.72663 0.47933 0.0
C140 C 0.86367 0.72072 0.48681 0.0
C141 C 0.84549 0.72563 0.4804 0.0
C142 C 0.84819 0.73583 0.46681 0.0
C143 C 0.86932 0.74131 0.45939 0.0
C144 C 0.88736 0.73679 0.46565 0.0
C145 C 0.90852 0.74379 0.45604 0.0
C146 C 0.89999 0.75291 0.44295 0.0
C147 C 0.87701 0.75147 0.44504 0.0
C148 C 0.90965 0.7201 0.45141 0.0
C149 C 0.93274 0.7649 0.46477 0.0
C150 C 0.82235 0.77499 0.41368 0.0
C151 C 0.82463 0.78464 0.39982 0.0
C152 C 0.84509 0.78841 0.39203 0.0
C153 C 0.86315 0.78326 0.398 0.0
C154 C 0.8609 0.77413 0.41195 0.0
C155 C 0.84064 0.7699 0.4195 0.0
C156 C 0.84126 0.75972 0.43409 0.0
C157 C 0.86544 0.75898 0.43411 0.0
C158 C 0.87682 0.76752 0.42112 0.0
C159 C 0.81808 0.73333 0.43348 0.0
C160 C 0.84272 0.77843 0.44666 0.0
H161 H 0.95459 0.75563 0.44117 0.0
H162 H 0.95783 0.78658 0.39171 0.0
H163 H 0.94148 0.81745 0.41246 0.0
H164 H 0.91142 0.81129 0.40639 0.0
H165 H 0.93135 0.81019 0.393 0.0
H166 H 0.90239 0.74251 0.39163 0.0
H167 H 0.91 0.76888 0.38151 0.0
H168 H 0.88133 0.75356 0.39021 0.0
H169 H 0.89927 0.72302 0.48386 0.0
H170 H 0.82915 0.72178 0.48598 0.0
H171 H 0.83364 0.73905 0.46261 0.0
H172 H 0.89052 0.70391 0.44855 0.0
H173 H 0.91885 0.7155 0.46057 0.0
H174 H 0.91945 0.72165 0.44142 0.0
H175 H 0.92884 0.77793 0.47143 0.0
H176 H 0.94681 0.77659 0.45749 0.0
H177 H 0.94117 0.75732 0.47253 0.0
H178 H 0.99038 0.76581 0.42764 0.0
C179 C 0.95471 0.76233 0.43053 0.0
C180 C 0.16634 0.21675 0.60344 0.0
C181 C 0.18936 0.22227 0.59825 0.0
C182 C 0.19591 0.23433 0.58517 0.0
C183 C 0.1569 0.23464 0.58268 0.0
C184 C 0.15065 0.22327 0.59561 0.0
C185 C 0.12605 0.21947 0.59996 0.0
H186 H 0.0242 0.23138 0.58656 0.0
C187 C 0.13641 0.23881 0.57725 0.0
C188 C 0.11841 0.23018 0.58741 0.0
H189 H 0.04362 0.20145 0.62361 0.0
H190 H 0.08129 0.20915 0.61336 0.0
H191 H 0.08014 0.27806 0.58482 0.0
H192 H 0.04209 0.20469 0.56105 0.0
H193 H 0.0572 0.22693 0.54854 0.0
H194 H 0.03264 0.22722 0.55808 0.0
H195 H 0.05412 0.2683 0.57113 0.0
H196 H 0.08548 0.28068 0.566 0.0
C197 C 0.13094 0.23479 0.61512 0.0
C198 C 0.10798 0.19114 0.59992 0.0
C199 C 0.14019 0.27507 0.52819 0.0
C200 C 0.12424 0.28094 0.51995 0.0
C201 C 0.10219 0.2772 0.52586 0.0
C202 C 0.09598 0.26736 0.53958 0.0
C203 C 0.11201 0.26127 0.54755 0.0
C204 C 0.1338 0.26537 0.54183 0.0
C205 C 0.14895 0.25831 0.55181 0.0
C206 C 0.13253 0.24885 0.56437 0.0
C207 C 0.11083 0.25054 0.56188 0.0
C208 C 0.17426 0.2821 0.55703 0.0
C209 C 0.15123 0.2374 0.54324 0.0
C210 C 0.03654 0.22638 0.59239 0.0
C211 C 0.03094 0.21603 0.60605 0.0
C212 C 0.04762 0.20992 0.61328 0.0
C213 C 0.06952 0.21427 0.60724 0.0
C214 C 0.07506 0.22489 0.59376 0.0
C215 C 0.05873 0.23073 0.5865 0.0
C216 C 0.06805 0.24198 0.57226 0.0
C217 C 0.09268 0.24208 0.57233 0.0
C218 C 0.09653 0.23195 0.58498 0.0
C219 C 0.07206 0.26862 0.57346 0.0
C220 C 0.04903 0.2245 0.55922 0.0
H221 H 0.18595 0.24952 0.5675 0.0
H222 H 0.16041 0.20732 0.61334 0.0
H223 H 0.11087 0.1806 0.59067 0.0
H224 H 0.08813 0.18582 0.59808 0.0
H225 H 0.11106 0.18433 0.61043 0.0
H226 H 0.14988 0.25162 0.61648 0.0
H227 H 0.12968 0.22365 0.62449 0.0
H228 H 0.11811 0.24217 0.61627 0.0
H229 H 0.15753 0.27816 0.52416 0.0
H230 H 0.08951 0.28146 0.51975 0.0
H231 H 0.07888 0.26478 0.54342 0.0
H232 H 0.17235 0.29896 0.55757 0.0
H233 H 0.18855 0.28491 0.54934 0.0
H234 H 0.18152 0.2819 0.56841 0.0
H235 H 0.13323 0.2239 0.53671 0.0
H236 H 0.15552 0.22621 0.55056 0.0
H237 H 0.16573 0.24514 0.53537 0.0
H238 H 0.21367 0.23941 0.581 0.0
C239 C 0.17983 0.24043 0.57736 0.0
C240 C 0.73619 0.79589 0.61657 0.0
C241 C 0.73435 0.77479 0.60878 0.0
C242 C 0.72308 0.7678 0.59405 0.0
C243 C 0.71718 0.80351 0.5949 0.0
C244 C 0.72752 0.80986 0.60947 0.0
C245 C 0.72919 0.83339 0.61605 0.0
H246 H 0.7201 0.9351 0.6061 0.0
C247 C 0.71145 0.82279 0.59059 0.0
C248 C 0.71826 0.84022 0.60299 0.0
H249 H 0.7465 0.91711 0.64605 0.0
H250 H 0.73582 0.87711 0.63389 0.0
H251 H 0.7448 0.9156 0.58419 0.0
H252 H 0.67076 0.88092 0.59809 0.0
H253 H 0.66735 0.87037 0.57929 0.0
H254 H 0.68037 0.90318 0.58468 0.0
H255 H 0.72221 0.92428 0.57851 0.0
H256 H 0.72401 0.89967 0.5683 0.0
C257 C 0.75717 0.85274 0.62039 0.0
C258 C 0.71268 0.82705 0.6291 0.0
C259 C 0.68126 0.8217 0.5371 0.0
C260 C 0.67629 0.83829 0.52976 0.0
C261 C 0.67741 0.85869 0.53809 0.0
C262 C 0.68421 0.86303 0.55338 0.0
C263 C 0.69019 0.84694 0.56047 0.0
C264 C 0.6882 0.82641 0.55242 0.0
C265 C 0.69532 0.81142 0.56191 0.0
C266 C 0.70216 0.82655 0.5769 0.0
C267 C 0.69932 0.84743 0.57591 0.0
C268 C 0.71813 0.81136 0.55581 0.0
C269 C 0.6721 0.78527 0.56199 0.0
C270 C 0.7231 0.92236 0.61234 0.0
C271 C 0.73432 0.92935 0.62702 0.0
C272 C 0.73823 0.91231 0.63465 0.0
C273 C 0.73199 0.88908 0.62758 0.0
C274 C 0.7219 0.88287 0.61267 0.0
C275 C 0.71712 0.89918 0.60542 0.0
C276 C 0.70664 0.88965 0.58956 0.0
C277 C 0.70627 0.86507 0.58842 0.0
C278 C 0.71541 0.86131 0.60194 0.0
C279 C 0.72514 0.9082 0.57951 0.0
C280 C 0.67996 0.88594 0.58766 0.0
H281 H 0.70626 0.77588 0.57583 0.0
H282 H 0.74503 0.802 0.62783 0.0
H283 H 0.69599 0.80811 0.62689 0.0
H284 H 0.70499 0.83955 0.63086 0.0
H285 H 0.72316 0.82752 0.63957 0.0
H286 H 0.76902 0.85095 0.61221 0.0
H287 H 0.76365 0.8501 0.63144 0.0
H288 H 0.76136 0.87215 0.62042 0.0
H289 H 0.68065 0.80591 0.531 0.0
H290 H 0.67319 0.87145 0.53273 0.0
H291 H 0.68502 0.87905 0.55903 0.0
H292 H 0.73132 0.82989 0.55228 0.0
H293 H 0.71222 0.79743 0.54603 0.0
H294 H 0.72931 0.80776 0.56413 0.0
H295 H 0.65466 0.78628 0.56149 0.0
H296 H 0.67212 0.77664 0.57229 0.0
H297 H 0.67048 0.77262 0.55231 0.0
H298 H 0.72108 0.75141 0.58787 0.0
C299 C 0.71441 0.78199 0.58709 0.0
C300 C 0.04441 0.8163 0.60638 0.0
C301 C 0.02446 0.79316 0.60028 0.0
C302 C 0.02577 0.78348 0.58611 0.0
C303 C 0.06643 0.81973 0.58456 0.0
C304 C 0.06498 0.82916 0.5984 0.0
C305 C 0.08749 0.85395 0.60347 0.0
H306 H 0.19969 0.9488 0.59075 0.0
C307 C 0.09058 0.83779 0.57939 0.0
C308 C 0.10288 0.85786 0.59048 0.0
H309 H 0.15839 0.94201 0.6287 0.0
H310 H 0.12573 0.90158 0.61819 0.0
H311 H 0.19046 0.89465 0.5883 0.0
H312 H 0.15216 0.92714 0.56631 0.0
H313 H 0.15479 0.90742 0.55283 0.0
H314 H 0.18267 0.93326 0.5625 0.0
H315 H 0.20215 0.91225 0.57279 0.0
H316 H 0.1806 0.87913 0.57037 0.0
C317 C 0.10044 0.85126 0.61781 0.0
C318 C 0.07887 0.87339 0.60527 0.0
C319 C 0.1161 0.82124 0.52934 0.0
C320 C 0.13801 0.83467 0.5223 0.0
C321 C 0.15744 0.85739 0.52944 0.0
C322 C 0.15526 0.86665 0.5433 0.0
C323 C 0.13339 0.85313 0.55023 0.0
C324 C 0.11429 0.83073 0.54336 0.0
C325 C 0.09281 0.81878 0.55278 0.0
C326 C 0.10218 0.83787 0.56629 0.0
C327 C 0.12591 0.85797 0.5646 0.0
C328 C 0.08997 0.7937 0.5567 0.0
C329 C 0.06934 0.81645 0.54421 0.0
C330 C 0.18351 0.93868 0.59673 0.0
C331 C 0.18164 0.94865 0.61057 0.0
C332 C 0.16045 0.93465 0.61811 0.0
C333 C 0.14138 0.91121 0.61193 0.0
C334 C 0.14341 0.90158 0.59803 0.0
C335 C 0.16426 0.91522 0.59071 0.0
C336 C 0.16323 0.902 0.57608 0.0
C337 C 0.13816 0.8783 0.57575 0.0
C338 C 0.12669 0.8782 0.58861 0.0
C339 C 0.18527 0.89681 0.57677 0.0
C340 C 0.16338 0.91821 0.5637 0.0
H341 H 0.0465 0.78834 0.56751 0.0
H342 H 0.0443 0.82418 0.61731 0.0
H343 H 0.06261 0.86857 0.59716 0.0
H344 H 0.09326 0.89219 0.60299 0.0
H345 H 0.07315 0.87438 0.61655 0.0
H346 H 0.09909 0.83273 0.61731 0.0
H347 H 0.09159 0.85311 0.62774 0.0
H348 H 0.12066 0.86478 0.6195 0.0
H349 H 0.10092 0.80364 0.52416 0.0
H350 H 0.17432 0.86827 0.52417 0.0
H351 H 0.17073 0.88408 0.54805 0.0
H352 H 0.10858 0.79533 0.55894 0.0
H353 H 0.07946 0.7789 0.54742 0.0
H354 H 0.0807 0.78748 0.56688 0.0
H355 H 0.07426 0.83334 0.53844 0.0
H356 H 0.05513 0.81493 0.55152 0.0
H357 H 0.0607 0.80017 0.5357 0.0
H358 H 0.01056 0.76581 0.58105 0.0
C359 C 0.04662 0.79663 0.57823 0.0
C360 C 0.91798 0.51617 0.72206 0.0
C361 C 0.92181 0.53904 0.72849 0.0
C362 C 0.93643 0.54916 0.74227 0.0
C363 C 0.94169 0.51325 0.74329 0.0
C364 C 0.9282 0.50378 0.72956 0.0
C365 C 0.92586 0.47936 0.72422 0.0
H366 H 0.94343 0.38352 0.73803 0.0
C367 C 0.94881 0.49532 0.74835 0.0
C368 C 0.93991 0.4756 0.73712 0.0
H369 H 0.90639 0.39192 0.69878 0.0
H370 H 0.91727 0.43308 0.70878 0.0
H371 H 0.99093 0.43932 0.7418 0.0
H372 H 0.92074 0.40517 0.76071 0.0
H373 H 0.94374 0.4246 0.775 0.0
H374 H 0.94535 0.39901 0.76592 0.0
H375 H 0.9847 0.41893 0.75615 0.0
H376 H 0.99714 0.45191 0.76039 0.0
C377 C 0.93912 0.48276 0.70985 0.0
C378 C 0.89774 0.45938 0.72236 0.0
C379 C 0.98897 0.50755 0.80085 0.0
C380 C 0.99614 0.4931 0.80892 0.0
C381 C 0.99433 0.47156 0.80162 0.0
C382 C 0.98481 0.46411 0.78672 0.0
C383 C 0.9768 0.47818 0.77899 0.0
C384 C 0.9794 0.49977 0.78596 0.0
C385 C 0.97016 0.51249 0.7759 0.0
C386 C 0.96099 0.4946 0.76189 0.0
C387 C 0.96477 0.47447 0.76383 0.0
C388 C 0.99255 0.53821 0.77353 0.0
C389 C 0.94853 0.51367 0.78291 0.0
C390 C 0.93766 0.39422 0.73159 0.0
C391 C 0.9239 0.38434 0.71763 0.0
C392 C 0.91719 0.39912 0.7095 0.0
C393 C 0.92333 0.42297 0.71539 0.0
C394 C 0.93619 0.43215 0.72962 0.0
C395 C 0.94349 0.41801 0.73736 0.0
C396 C 0.9567 0.43062 0.75239 0.0
C397 C 0.95598 0.45463 0.75242 0.0
C398 C 0.9438 0.45531 0.7391 0.0
C399 C 0.98375 0.43537 0.75286 0.0
C400 C 0.94108 0.41408 0.76421 0.0
H401 H 0.95709 0.54498 0.76016 0.0
H402 H 0.9068 0.5077 0.71155 0.0
H403 H 0.88789 0.46254 0.73137 0.0
H404 H 0.89428 0.44034 0.72315 0.0
H405 H 0.88858 0.45993 0.71163 0.0
H406 H 0.95516 0.50201 0.71 0.0
H407 H 0.92614 0.47924 0.69989 0.0
H408 H 0.94742 0.47072 0.70852 0.0
H409 H 0.99055 0.52442 0.80605 0.0
H410 H 0.99951 0.45997 0.80758 0.0
H411 H 0.98354 0.44734 0.7819 0.0
H412 H 0.01042 0.53803 0.77448 0.0
H413 H 0.99443 0.55293 0.78189 0.0
H414 H 0.99118 0.54366 0.76229 0.0
H415 H 0.93585 0.49571 0.78726 0.0
H416 H 0.93655 0.51685 0.77495 0.0
H417 H 0.95581 0.52849 0.7923 0.0
H418 H 0.94033 0.56705 0.74734 0.0
C419 C 0.94634 0.5364 0.74968 0.0
C420 C 0.62151 0.52347 0.72965 0.0
C421 C 0.64091 0.54683 0.73587 0.0
C422 C 0.63869 0.55647 0.74981 0.0
C423 C 0.59823 0.51969 0.75093 0.0
C424 C 0.60054 0.51035 0.73729 0.0
C425 C 0.5787 0.48513 0.73215 0.0
H426 H 0.46608 0.38948 0.74331 0.0
C427 C 0.57402 0.5012 0.75583 0.0
C428 C 0.56255 0.481 0.74478 0.0
H429 H 0.51165 0.39493 0.70773 0.0
H430 H 0.54267 0.43612 0.71793 0.0
H431 H 0.51109 0.41062 0.76841 0.0
H432 H 0.47557 0.44452 0.745 0.0
H433 H 0.48303 0.45854 0.7633 0.0
H434 H 0.46182 0.42545 0.75967 0.0
H435 H 0.4809 0.40575 0.77197 0.0
H436 H 0.50919 0.43121 0.78155 0.0
C437 C 0.58817 0.46629 0.731 0.0
C438 C 0.56609 0.48705 0.71744 0.0
C439 C 0.54668 0.51561 0.80576 0.0
C440 C 0.52459 0.50166 0.81254 0.0
C441 C 0.50515 0.47947 0.80488 0.0
C442 C 0.50763 0.47107 0.79084 0.0
C443 C 0.52983 0.48489 0.78427 0.0
C444 C 0.54879 0.50698 0.79155 0.0
C445 C 0.57055 0.5195 0.78237 0.0
C446 C 0.56172 0.50082 0.76868 0.0
C447 C 0.53792 0.48055 0.77 0.0
C448 C 0.59396 0.52191 0.79106 0.0
C449 C 0.57319 0.5446 0.77869 0.0
C450 C 0.48278 0.3994 0.73772 0.0
C451 C 0.48617 0.38874 0.72459 0.0
C452 C 0.50815 0.40269 0.71767 0.0
C453 C 0.52638 0.42661 0.72372 0.0
C454 C 0.52285 0.43676 0.73696 0.0
C455 C 0.50138 0.42316 0.74375 0.0
C456 C 0.50136 0.43639 0.75812 0.0
C457 C 0.52641 0.46021 0.75883 0.0
C458 C 0.53877 0.46038 0.74636 0.0
C459 C 0.50041 0.42025 0.77074 0.0
C460 C 0.47925 0.44142 0.7566 0.0
H461 H 0.61687 0.55132 0.76791 0.0
H462 H 0.62279 0.51522 0.71914 0.0
H463 H 0.56551 0.50465 0.71795 0.0
H464 H 0.54646 0.47211 0.715 0.0
H465 H 0.57657 0.48692 0.70795 0.0
H466 H 0.60523 0.47247 0.73873 0.0
H467 H 0.59292 0.46401 0.71962 0.0
H468 H 0.57458 0.44784 0.73426 0.0
H469 H 0.56183 0.53288 0.81132 0.0
H470 H 0.4881 0.46823 0.80991 0.0
H471 H 0.49218 0.45394 0.78572 0.0
H472 H 0.58921 0.50455 0.79627 0.0
H473 H 0.60175 0.53747 0.80004 0.0
H474 H 0.60879 0.52473 0.78394 0.0
H475 H 0.55454 0.543 0.77675 0.0
H476 H 0.58204 0.55085 0.76838 0.0
H477 H 0.58398 0.55936 0.78794 0.0
H478 H 0.65331 0.57449 0.75484 0.0
C479 C 0.61746 0.54305 0.75736 0.0
C480 C 0.62606 0.11375 0.73649 0.0
C481 C 0.64569 0.1107 0.74249 0.0
C482 C 0.64417 0.10212 0.75668 0.0
C483 C 0.60429 0.10016 0.75855 0.0
C484 C 0.60583 0.10854 0.74466 0.0
C485 C 0.58392 0.11142 0.73983 0.0
H486 H 0.47442 0.1036 0.75349 0.0
C487 C 0.58076 0.09669 0.76404 0.0
C488 C 0.56889 0.10339 0.75306 0.0
H489 H 0.51495 0.12806 0.71491 0.0
H490 H 0.5468 0.12066 0.72544 0.0
H491 H 0.48295 0.05735 0.75692 0.0
H492 H 0.52238 0.1327 0.77724 0.0
H493 H 0.52124 0.11375 0.79109 0.0
H494 H 0.49252 0.10994 0.78233 0.0
H495 H 0.47063 0.06839 0.77098 0.0
H496 H 0.49087 0.05618 0.77561 0.0
C497 C 0.5699 0.09334 0.72569 0.0
C498 C 0.59377 0.13924 0.73779 0.0
C499 C 0.5561 0.06556 0.81472 0.0
C500 C 0.5356 0.06132 0.8226 0.0
C501 C 0.51697 0.06532 0.8159 0.0
C502 C 0.51874 0.07361 0.80178 0.0
C503 C 0.5394 0.07808 0.79413 0.0
C504 C 0.55766 0.07403 0.80056 0.0
C505 C 0.57841 0.08019 0.79073 0.0
C506 C 0.56946 0.08845 0.77738 0.0
C507 C 0.54655 0.08713 0.77949 0.0
C508 C 0.57926 0.05618 0.78666 0.0
C509 C 0.60294 0.10169 0.79895 0.0
C510 C 0.49025 0.10754 0.74736 0.0
C511 C 0.49198 0.11632 0.73327 0.0
C512 C 0.51283 0.12089 0.72565 0.0
C513 C 0.53148 0.11675 0.73185 0.0
C514 C 0.52948 0.10798 0.7459 0.0
C515 C 0.50913 0.10351 0.75342 0.0
C516 C 0.51026 0.09427 0.76825 0.0
C517 C 0.53468 0.09404 0.76839 0.0
C518 C 0.5458 0.10208 0.75526 0.0
C519 C 0.48747 0.06774 0.7681 0.0
C520 C 0.51149 0.11343 0.78045 0.0
H521 H 0.62365 0.09046 0.77544 0.0
H522 H 0.62622 0.11986 0.72556 0.0
H523 H 0.61045 0.15151 0.74573 0.0
H524 H 0.58016 0.14522 0.74016 0.0
H525 H 0.59929 0.14343 0.72643 0.0
H526 H 0.5703 0.07573 0.72624 0.0
H527 H 0.57861 0.10167 0.7156 0.0
H528 H 0.54987 0.08748 0.72426 0.0
H529 H 0.57082 0.06284 0.81957 0.0
H530 H 0.50079 0.06181 0.82156 0.0
H531 H 0.50391 0.07626 0.79739 0.0
H532 H 0.56004 0.03995 0.78422 0.0
H533 H 0.58876 0.05217 0.79594 0.0
H534 H 0.58859 0.05691 0.77656 0.0
H535 H 0.59935 0.11522 0.80532 0.0
H536 H 0.61673 0.11274 0.79136 0.0
H537 H 0.61158 0.09458 0.80692 0.0
H538 H 0.65907 0.09984 0.76171 0.0
C539 C 0.62363 0.09683 0.76471 0.0
C540 C 0.83379 0.55146 0.93723 0.0
C541 C 0.85727 0.55802 0.93236 0.0
C542 C 0.86402 0.57069 0.9195 0.0
C543 C 0.82425 0.56943 0.91654 0.0
C544 C 0.81781 0.55748 0.92927 0.0
C545 C 0.7926 0.5524 0.93326 0.0
H546 H 0.68685 0.55646 0.91741 0.0
C547 C 0.80321 0.57255 0.91081 0.0
C548 C 0.7847 0.56275 0.92061 0.0
H549 H 0.70851 0.53101 0.95591 0.0
H550 H 0.74713 0.54072 0.94629 0.0
H551 H 0.74217 0.60635 0.91663 0.0
H552 H 0.70812 0.53298 0.89315 0.0
H553 H 0.72364 0.55512 0.88069 0.0
H554 H 0.6978 0.55454 0.88918 0.0
H555 H 0.71594 0.59488 0.90287 0.0
H556 H 0.74745 0.6091 0.8978 0.0
C557 C 0.79625 0.56719 0.94844 0.0
C558 C 0.77548 0.52388 0.93297 0.0
C559 C 0.80774 0.61091 0.86239 0.0
C560 C 0.791 0.61525 0.85374 0.0
C561 C 0.76751 0.60843 0.85876 0.0
C562 C 0.76093 0.59767 0.87217 0.0
C563 C 0.77793 0.59348 0.88069 0.0
C564 C 0.80084 0.60001 0.87568 0.0
C565 C 0.8164 0.59371 0.88587 0.0
C566 C 0.7992 0.58245 0.8979 0.0
C567 C 0.77665 0.58241 0.89489 0.0
C568 C 0.84052 0.61819 0.89187 0.0
C569 C 0.82095 0.57438 0.87719 0.0
C570 C 0.69998 0.55313 0.92382 0.0
C571 C 0.6942 0.54255 0.93741 0.0
C572 C 0.71195 0.53848 0.94527 0.0
C573 C 0.73463 0.5444 0.93972 0.0
C574 C 0.74003 0.55474 0.92616 0.0
C575 C 0.72297 0.55913 0.91845 0.0
C576 C 0.73241 0.57072 0.90431 0.0
C577 C 0.75795 0.57269 0.90496 0.0
C578 C 0.76211 0.56309 0.91776 0.0
C579 C 0.73452 0.59659 0.9053 0.0
C580 C 0.71458 0.5526 0.89106 0.0
H581 H 0.85397 0.58594 0.90189 0.0
H582 H 0.82771 0.54155 0.94695 0.0
H583 H 0.77864 0.51408 0.92343 0.0
H584 H 0.75542 0.5178 0.93148 0.0
H585 H 0.77933 0.51703 0.94326 0.0
H586 H 0.8152 0.58395 0.95044 0.0
H587 H 0.79397 0.55563 0.95774 0.0
H588 H 0.78336 0.5746 0.9491 0.0
H589 H 0.82575 0.61548 0.85878 0.0
H590 H 0.7543 0.61169 0.85237 0.0
H591 H 0.74285 0.593 0.8754 0.0
H592 H 0.8368 0.63389 0.89329 0.0
H593 H 0.8552 0.6233 0.88413 0.0
H594 H 0.8481 0.61733 0.90299 0.0
H595 H 0.80408 0.56103 0.86969 0.0
H596 H 0.82463 0.56269 0.88443 0.0
H597 H 0.83668 0.5836 0.87026 0.0
H598 H 0.88213 0.57657 0.9156 0.0
C599 C 0.84767 0.57634 0.91158 0.0
C600 C 0.40566 0.1368 0.95219 0.0
C601 C 0.40423 0.11587 0.9444 0.0
C602 C 0.39334 0.10902 0.92958 0.0
C603 C 0.3874 0.14469 0.93028 0.0
C604 C 0.39718 0.15084 0.94497 0.0
C605 C 0.39846 0.17421 0.95151 0.0
H606 H 0.39298 0.27742 0.94046 0.0
C607 C 0.38199 0.1641 0.92581 0.0
C608 C 0.38825 0.18134 0.93825 0.0
H609 H 0.41244 0.25675 0.98174 0.0
H610 H 0.40251 0.21706 0.96951 0.0
H611 H 0.41817 0.25641 0.91949 0.0
H612 H 0.34334 0.22539 0.93175 0.0
H613 H 0.34028 0.21313 0.91336 0.0
H614 H 0.35424 0.24634 0.91765 0.0
H615 H 0.39725 0.26707 0.91364 0.0
H616 H 0.39778 0.24189 0.90324 0.0
C617 C 0.42623 0.19353 0.95639 0.0
C618 C 0.38119 0.16757 0.96421 0.0
C619 C 0.35452 0.16391 0.87186 0.0
C620 C 0.35009 0.1807 0.86434 0.0
C621 C 0.35156 0.20139 0.87253 0.0
C622 C 0.35803 0.20572 0.88786 0.0
C623 C 0.36326 0.18931 0.89513 0.0
C624 C 0.36108 0.16858 0.88722 0.0
C625 C 0.36739 0.15326 0.89691 0.0
C626 C 0.37373 0.16827 0.91191 0.0
C627 C 0.3715 0.18945 0.91072 0.0
C628 C 0.39034 0.1529 0.89126 0.0
C629 C 0.34384 0.12725 0.89669 0.0
C630 C 0.39468 0.26428 0.94702 0.0
C631 C 0.40389 0.27057 0.9621 0.0
C632 C 0.40599 0.25275 0.97004 0.0
C633 C 0.4001 0.22963 0.96293 0.0
C634 C 0.39202 0.22418 0.94771 0.0
C635 C 0.38872 0.24109 0.94014 0.0
C636 C 0.37925 0.23194 0.92414 0.0
C637 C 0.378 0.20695 0.92324 0.0
C638 C 0.38586 0.20268 0.937 0.0
C639 C 0.39892 0.25023 0.91451 0.0
C640 C 0.353 0.22916 0.92145 0.0
H641 H 0.37704 0.11725 0.91118 0.0
H642 H 0.41409 0.14275 0.96353 0.0
H643 H 0.36523 0.14818 0.96213 0.0
H644 H 0.37241 0.17922 0.96522 0.0
H645 H 0.39149 0.16914 0.97501 0.0
H646 H 0.43835 0.19313 0.94793 0.0
H647 H 0.43256 0.18951 0.96704 0.0
H648 H 0.43008 0.21285 0.9576 0.0
H649 H 0.35365 0.1479 0.86588 0.0
H650 H 0.34774 0.21432 0.86706 0.0
H651 H 0.35909 0.22195 0.89339 0.0
H652 H 0.40386 0.17136 0.88779 0.0
H653 H 0.38466 0.13891 0.88154 0.0
H654 H 0.40109 0.14921 0.89982 0.0
H655 H 0.32657 0.12858 0.8959 0.0
H656 H 0.34325 0.1184 0.90698 0.0
H657 H 0.34241 0.11465 0.88704 0.0
H658 H 0.39155 0.09272 0.9234 0.0
C659 C 0.38486 0.12326 0.92251 0.0
C660 C 0.7147 0.15211 0.94102 0.0
C661 C 0.69432 0.12919 0.93497 0.0
C662 C 0.69503 0.11947 0.92067 0.0
C663 C 0.73598 0.15515 0.91891 0.0
C664 C 0.73512 0.16466 0.93287 0.0
C665 C 0.75808 0.1892 0.93785 0.0
H666 H 0.87051 0.28267 0.92413 0.0
C667 C 0.76016 0.17278 0.9136 0.0
C668 C 0.77309 0.19274 0.9247 0.0
H669 H 0.83044 0.27698 0.96252 0.0
H670 H 0.7973 0.23656 0.95235 0.0
H671 H 0.86104 0.22874 0.92187 0.0
H672 H 0.82201 0.26053 0.89987 0.0
H673 H 0.8256 0.24128 0.88648 0.0
H674 H 0.85289 0.26729 0.89645 0.0
H675 H 0.87174 0.24488 0.90575 0.0
H676 H 0.84971 0.21188 0.90434 0.0
C677 C 0.77106 0.18614 0.95203 0.0
C678 C 0.75013 0.20912 0.93986 0.0
C679 C 0.78325 0.1556 0.86291 0.0
C680 C 0.80512 0.16836 0.85575 0.0
C681 C 0.82547 0.19032 0.863 0.0
C682 C 0.82408 0.19968 0.87705 0.0
C683 C 0.80214 0.18695 0.88404 0.0
C684 C 0.78228 0.16509 0.87712 0.0
C685 C 0.76103 0.15362 0.88673 0.0
C686 C 0.7713 0.17251 0.90036 0.0
C687 C 0.79528 0.19208 0.89857 0.0
C688 C 0.75732 0.12807 0.89032 0.0
C689 C 0.73779 0.15235 0.87854 0.0
C690 C 0.8545 0.27277 0.93028 0.0
C691 C 0.8531 0.28307 0.94414 0.0
C692 C 0.83213 0.26936 0.9519 0.0
C693 C 0.81278 0.24593 0.94592 0.0
C694 C 0.8143 0.23602 0.93198 0.0
C695 C 0.83497 0.24932 0.92445 0.0
C696 C 0.83341 0.23579 0.90982 0.0
C697 C 0.80814 0.21237 0.9097 0.0
C698 C 0.79709 0.21265 0.92269 0.0
C699 C 0.85512 0.2301 0.91032 0.0
C700 C 0.83363 0.25197 0.89742 0.0
H701 H 0.71511 0.124 0.90181 0.0
H702 H 0.71503 0.16002 0.95203 0.0
H703 H 0.73369 0.20458 0.93198 0.0
H704 H 0.76468 0.22774 0.93742 0.0
H705 H 0.74494 0.21042 0.95125 0.0
H706 H 0.76943 0.16748 0.95137 0.0
H707 H 0.76244 0.18802 0.96206 0.0
H708 H 0.79133 0.19946 0.95365 0.0
H709 H 0.76743 0.13852 0.85764 0.0
H710 H 0.8424 0.20057 0.85765 0.0
H711 H 0.84017 0.21658 0.88187 0.0
H712 H 0.77559 0.12877 0.89194 0.0
H713 H 0.74575 0.11341 0.88115 0.0
H714 H 0.74878 0.12221 0.90076 0.0
H715 H 0.74314 0.16959 0.87305 0.0
H716 H 0.7239 0.15102 0.88606 0.0
H717 H 0.72861 0.13636 0.86984 0.0
H718 H 0.67947 0.10199 0.91564 0.0
C719 C 0.71571 0.13231 0.91262 0.0
C720 C 0.58962 0.85906 0.0568 0.0
C721 C 0.59214 0.88056 0.06452 0.0
C722 C 0.6048 0.88818 0.07894 0.0
C723 C 0.61059 0.85242 0.07795 0.0
C724 C 0.59913 0.84553 0.06363 0.0
C725 C 0.598 0.82237 0.05684 0.0
H726 H 0.6114 0.72283 0.06551 0.0
C727 C 0.61726 0.83366 0.08199 0.0
C728 C 0.61028 0.81624 0.06957 0.0
H729 H 0.58359 0.74058 0.026 0.0
H730 H 0.59328 0.78001 0.03849 0.0
H731 H 0.65998 0.77763 0.0735 0.0
H732 H 0.58632 0.74107 0.08793 0.0
H733 H 0.60725 0.75723 0.10373 0.0
H734 H 0.6096 0.73314 0.09329 0.0
H735 H 0.65118 0.75517 0.08676 0.0
H736 H 0.66353 0.7878 0.09238 0.0
C737 C 0.61358 0.82906 0.04334 0.0
C738 C 0.57013 0.80229 0.05309 0.0
C739 C 0.64895 0.83492 0.13518 0.0
C740 C 0.65461 0.81861 0.14233 0.0
C741 C 0.65387 0.79856 0.13381 0.0
C742 C 0.64679 0.79429 0.11855 0.0
C743 C 0.64016 0.81009 0.11167 0.0
C744 C 0.64175 0.83029 0.11989 0.0
C745 C 0.6341 0.84512 0.11059 0.0
C746 C 0.62725 0.83016 0.09553 0.0
C747 C 0.63068 0.80959 0.09631 0.0
C748 C 0.65696 0.87152 0.1105 0.0
C749 C 0.6112 0.84463 0.11689 0.0
C750 C 0.60789 0.73541 0.05943 0.0
C751 C 0.59648 0.72846 0.04478 0.0
C752 C 0.59195 0.74531 0.03737 0.0
C753 C 0.59764 0.76823 0.04464 0.0
C754 C 0.60783 0.77433 0.05952 0.0
C755 C 0.61337 0.75833 0.06654 0.0
C756 C 0.62408 0.76784 0.08236 0.0
C757 C 0.62378 0.79209 0.08373 0.0
C758 C 0.61398 0.79561 0.07038 0.0
C759 C 0.65103 0.77223 0.08398 0.0
C760 C 0.60612 0.7489 0.09246 0.0
H761 H 0.6232 0.88086 0.0967 0.0
H762 H 0.57993 0.85242 0.04577 0.0
H763 H 0.55888 0.80281 0.06208 0.0
H764 H 0.56687 0.78316 0.05208 0.0
H765 H 0.56229 0.8054 0.04265 0.0
H766 H 0.62893 0.8488 0.04477 0.0
H767 H 0.60181 0.82641 0.03294 0.0
H768 H 0.62315 0.81821 0.04188 0.0
H769 H 0.64931 0.85048 0.14142 0.0
H770 H 0.65866 0.78605 0.13899 0.0
H771 H 0.64633 0.77855 0.11276 0.0
H772 H 0.67474 0.87115 0.11156 0.0
H773 H 0.65778 0.88431 0.11985 0.0
H774 H 0.65715 0.87964 0.09996 0.0
H775 H 0.59773 0.82562 0.11964 0.0
H776 H 0.60052 0.84949 0.109 0.0
H777 H 0.61695 0.85748 0.1272 0.0
H778 H 0.6077 0.90499 0.08505 0.0
C779 C 0.61398 0.87423 0.08568 0.0
C780 C 0.28894 0.85818 0.06269 0.0
C781 C 0.30955 0.88037 0.06945 0.0
C782 C 0.30847 0.8888 0.08404 0.0
C783 C 0.26697 0.85328 0.08468 0.0
C784 C 0.26821 0.84493 0.0705 0.0
C785 C 0.24569 0.82033 0.06505 0.0
H786 H 0.13328 0.72464 0.07648 0.0
C787 C 0.24269 0.83497 0.0896 0.0
C788 C 0.23031 0.81559 0.07811 0.0
H789 H 0.17702 0.73182 0.03961 0.0
H790 H 0.20846 0.77254 0.05017 0.0
H791 H 0.17936 0.74482 0.10107 0.0
H792 H 0.14338 0.78004 0.0796 0.0
H793 H 0.152 0.79365 0.098 0.0
H794 H 0.13022 0.7607 0.09424 0.0
H795 H 0.14902 0.7393 0.10485 0.0
H796 H 0.1771 0.76442 0.11481 0.0
C797 C 0.25426 0.80093 0.06252 0.0
C798 C 0.23272 0.82385 0.05105 0.0
C799 C 0.21692 0.84909 0.14009 0.0
C800 C 0.19486 0.83548 0.14698 0.0
C801 C 0.17513 0.81342 0.13935 0.0
C802 C 0.17722 0.80495 0.12521 0.0
C803 C 0.19931 0.81857 0.11851 0.0
C804 C 0.21864 0.84039 0.12582 0.0
C805 C 0.24041 0.85256 0.11663 0.0
C806 C 0.23093 0.83429 0.10272 0.0
C807 C 0.20691 0.81433 0.10402 0.0
C808 C 0.26344 0.85377 0.12508 0.0
C809 C 0.24405 0.87821 0.11338 0.0
C810 C 0.14969 0.73483 0.07069 0.0
C811 C 0.15242 0.72476 0.0571 0.0
C812 C 0.17401 0.73909 0.04993 0.0
C813 C 0.19253 0.76273 0.05619 0.0
C814 C 0.18977 0.77219 0.06992 0.0
C815 C 0.16862 0.75832 0.07693 0.0
C816 C 0.16935 0.771 0.09172 0.0
C817 C 0.19463 0.7946 0.09249 0.0
C818 C 0.20634 0.79523 0.07965 0.0
C819 C 0.1685 0.7541 0.10383 0.0
C820 C 0.14757 0.77656 0.09101 0.0
H821 H 0.28768 0.8828 0.10271 0.0
H822 H 0.28873 0.8511 0.05148 0.0
H823 H 0.23246 0.84158 0.05257 0.0
H824 H 0.21296 0.80917 0.04861 0.0
H825 H 0.24272 0.82451 0.04117 0.0
H826 H 0.27203 0.80647 0.06936 0.0
H827 H 0.25739 0.7987 0.05074 0.0
H828 H 0.24086 0.78253 0.06593 0.0
H829 H 0.23234 0.86621 0.14561 0.0
H830 H 0.15812 0.80234 0.14446 0.0
H831 H 0.16154 0.78797 0.12011 0.0
H832 H 0.25787 0.83673 0.13082 0.0
H833 H 0.27274 0.87001 0.1336 0.0
H834 H 0.27727 0.85455 0.11767 0.0
H835 H 0.22568 0.87696 0.11077 0.0
H836 H 0.25436 0.88535 0.10365 0.0
H837 H 0.25391 0.89217 0.12313 0.0
H838 H 0.32415 0.90551 0.08975 0.0
C839 C 0.2873 0.87546 0.09164 0.0
C840 C 0.29207 0.44581 0.06935 0.0
C841 C 0.31105 0.44151 0.07495 0.0
C842 C 0.30913 0.43192 0.08884 0.0
C843 C 0.26984 0.4311 0.09113 0.0
C844 C 0.27185 0.44053 0.07754 0.0
C845 C 0.25044 0.44437 0.07303 0.0
H846 H 0.14132 0.43715 0.08706 0.0
C847 C 0.24648 0.42789 0.09675 0.0
C848 C 0.23514 0.4357 0.08612 0.0
H849 H 0.18288 0.46371 0.04905 0.0
H850 H 0.21435 0.45557 0.05932 0.0
H851 H 0.14937 0.39032 0.08956 0.0
H852 H 0.18894 0.46486 0.11115 0.0
H853 H 0.18785 0.44523 0.12455 0.0
H854 H 0.1591 0.44183 0.11613 0.0
H855 H 0.13677 0.40106 0.10362 0.0
H856 H 0.15647 0.38826 0.10825 0.0
C857 C 0.23636 0.42733 0.05854 0.0
C858 C 0.261 0.47252 0.07175 0.0
C859 C 0.22084 0.39435 0.14678 0.0
C860 C 0.20049 0.39024 0.15476 0.0
C861 C 0.18227 0.39509 0.14836 0.0
C862 C 0.18431 0.40409 0.13443 0.0
C863 C 0.20484 0.40843 0.12668 0.0
C864 C 0.22269 0.40355 0.13282 0.0
C865 C 0.24338 0.40972 0.12294 0.0
C866 C 0.23493 0.41904 0.10993 0.0
C867 C 0.21228 0.41817 0.11222 0.0
C868 C 0.2435 0.38548 0.1183 0.0
C869 C 0.26814 0.43045 0.13141 0.0
C870 C 0.1573 0.44138 0.081 0.0
C871 C 0.15939 0.45091 0.06712 0.0
C872 C 0.18045 0.45592 0.0596 0.0
C873 C 0.19887 0.45132 0.06564 0.0
C874 C 0.19642 0.44162 0.07943 0.0
C875 C 0.17595 0.43688 0.0869 0.0
C876 C 0.17666 0.42672 0.10147 0.0
C877 C 0.20088 0.42609 0.10144 0.0
C878 C 0.2123 0.43481 0.08849 0.0
C879 C 0.15359 0.40027 0.10086 0.0
C880 C 0.17803 0.4454 0.11406 0.0
H881 H 0.28823 0.41933 0.10739 0.0
H882 H 0.29306 0.45357 0.05887 0.0
H883 H 0.27758 0.484 0.07991 0.0
H884 H 0.24766 0.47875 0.07434 0.0
H885 H 0.26689 0.47744 0.06053 0.0
H886 H 0.23636 0.40946 0.05852 0.0
H887 H 0.24529 0.43634 0.04866 0.0
H888 H 0.21641 0.42183 0.05718 0.0
H889 H 0.23525 0.39099 0.15141 0.0
H890 H 0.1662 0.39171 0.1541 0.0
H891 H 0.16979 0.40736 0.13026 0.0
H892 H 0.22409 0.3696 0.11584 0.0
H893 H 0.2529 0.3808 0.1273 0.0
H894 H 0.25253 0.38639 0.10805 0.0
H895 H 0.26502 0.44414 0.13797 0.0
H896 H 0.28224 0.44147 0.12396 0.0
H897 H 0.2762 0.4226 0.13921 0.0
H898 H 0.32335 0.42822 0.0934 0.0
C899 C 0.28865 0.42666 0.09693 0.0
C900 C 0.49937 0.88537 0.27008 0.0
C901 C 0.5222 0.89064 0.26476 0.0
C902 C 0.52845 0.90205 0.25146 0.0
C903 C 0.48964 0.9028 0.24918 0.0
C904 C 0.48351 0.89158 0.26217 0.0
C905 C 0.45868 0.88727 0.2664 0.0
H906 H 0.35593 0.8975 0.25263 0.0
C907 C 0.46903 0.90679 0.24373 0.0
C908 C 0.45084 0.89769 0.25378 0.0
H909 H 0.37476 0.8663 0.28921 0.0
H910 H 0.41294 0.87499 0.27926 0.0
H911 H 0.41219 0.94489 0.25165 0.0
H912 H 0.37407 0.87218 0.22713 0.0
H913 H 0.39032 0.89442 0.21488 0.0
H914 H 0.36556 0.89529 0.22389 0.0
H915 H 0.38597 0.93526 0.23814 0.0
H916 H 0.41723 0.94813 0.23282 0.0
C917 C 0.46319 0.90257 0.2815 0.0
C918 C 0.44102 0.85884 0.26639 0.0
C919 C 0.47483 0.94783 0.19625 0.0
C920 C 0.4588 0.95374 0.18813 0.0
C921 C 0.43571 0.94781 0.19345 0.0
C922 C 0.42886 0.93641 0.20665 0.0
C923 C 0.44517 0.93071 0.21465 0.0
C924 C 0.46767 0.93635 0.20934 0.0
C925 C 0.48253 0.92856 0.21902 0.0
C926 C 0.46539 0.91745 0.23109 0.0
C927 C 0.4435 0.91879 0.22856 0.0
C928 C 0.50738 0.95218 0.22512 0.0
C929 C 0.4857 0.90875 0.20978 0.0
C930 C 0.36825 0.89243 0.25843 0.0
C931 C 0.36233 0.88144 0.27188 0.0
C932 C 0.379 0.87525 0.27905 0.0
C933 C 0.40118 0.88018 0.27318 0.0
C934 C 0.40703 0.89145 0.25991 0.0
C935 C 0.3907 0.89732 0.25269 0.0
C936 C 0.40027 0.9092 0.23866 0.0
C937 C 0.42503 0.90957 0.23878 0.0
C938 C 0.42877 0.89911 0.25129 0.0
C939 C 0.40403 0.93574 0.24025 0.0
C940 C 0.38161 0.89209 0.22537 0.0
H941 H 0.51826 0.91688 0.23367 0.0
H942 H 0.49374 0.8763 0.28013 0.0
H943 H 0.44499 0.84835 0.25766 0.0
H944 H 0.42115 0.85303 0.26373 0.0
H945 H 0.44333 0.85239 0.27721 0.0
H946 H 0.4814 0.92027 0.28248 0.0
H947 H 0.46353 0.89206 0.2909 0.0
H948 H 0.44923 0.90842 0.28293 0.0
H949 H 0.49249 0.95168 0.19238 0.0
H950 H 0.42305 0.95227 0.18748 0.0
H951 H 0.41112 0.9325 0.21014 0.0
H952 H 0.50443 0.9682 0.22755 0.0
H953 H 0.52143 0.95751 0.21695 0.0
H954 H 0.51545 0.95014 0.23574 0.0
H955 H 0.4689 0.89686 0.20185 0.0
H956 H 0.48763 0.8956 0.21663 0.0
H957 H 0.50203 0.91762 0.20324 0.0
H958 H 0.54602 0.90663 0.24717 0.0
C959 C 0.51234 0.90815 0.24367 0.0
C960 C 0.07068 0.46107 0.2824 0.0
C961 C 0.06834 0.43962 0.27476 0.0
C962 C 0.0563 0.43209 0.26021 0.0
C963 C 0.05039 0.4678 0.26096 0.0
C964 C 0.06162 0.47476 0.27534 0.0
C965 C 0.06361 0.4985 0.28179 0.0
H966 H 0.05314 0.59939 0.27159 0.0
C967 C 0.04425 0.48681 0.25668 0.0
C968 C 0.05178 0.50473 0.26889 0.0
H969 H 0.08229 0.58308 0.31116 0.0
H970 H 0.07117 0.54279 0.29932 0.0
H971 H 0.07623 0.57854 0.24884 0.0
H972 H 0.00378 0.54523 0.26499 0.0
H973 H 0.99887 0.53343 0.24631 0.0
H974 H 0.01208 0.56645 0.251 0.0
H975 H 0.05353 0.58752 0.24405 0.0
H976 H 0.05399 0.56237 0.23355 0.0
C977 C 0.09172 0.51799 0.28545 0.0
C978 C 0.04805 0.49276 0.29528 0.0
C979 C 0.0098 0.4829 0.20379 0.0
C980 C 0.00365 0.49873 0.19647 0.0
C981 C 0.00518 0.51943 0.20469 0.0
C982 C 0.0134 0.52472 0.21982 0.0
C983 C 0.02035 0.50926 0.22686 0.0
C984 C 0.01803 0.48848 0.21894 0.0
C985 C 0.02605 0.47408 0.22835 0.0
C986 C 0.0339 0.48989 0.24314 0.0
C987 C 0.03075 0.51058 0.24212 0.0
C988 C 0.04838 0.47385 0.22166 0.0
C989 C 0.00313 0.44796 0.22915 0.0
C990 C 0.05671 0.58697 0.27782 0.0
C991 C 0.06882 0.59453 0.29229 0.0
C992 C 0.07337 0.57787 0.29991 0.0
C993 C 0.06685 0.55445 0.29302 0.0
C994 C 0.05581 0.54764 0.27831 0.0
C995 C 0.05042 0.56357 0.27107 0.0
C996 C 0.03878 0.55331 0.25546 0.0
C997 C 0.03849 0.52875 0.25443 0.0
C998 C 0.04867 0.52567 0.26779 0.0
C999 C 0.05631 0.5713 0.24482 0.0
C1000 C 0.01204 0.5495 0.25423 0.0
H1001 H 0.03844 0.43945 0.24218 0.0
H1002 H 0.08014 0.46761 0.2935 0.0
H1003 H 0.03141 0.47373 0.29355 0.0
H1004 H 0.04034 0.50522 0.2971 0.0
H1005 H 0.05926 0.49381 0.30557 0.0
H1006 H 0.10299 0.51583 0.27699 0.0
H1007 H 0.09896 0.51584 0.29641 0.0
H1008 H 0.09581 0.53734 0.28529 0.0
H1009 H 0.00846 0.46663 0.19784 0.0
H1010 H 1.00079 0.53206 0.19931 0.0
H1011 H 0.01455 0.54097 0.22538 0.0
H1012 H 0.06109 0.49217 0.21771 0.0
H1013 H 0.04186 0.45951 0.21205 0.0
H1014 H 0.06023 0.47071 0.22975 0.0
H1015 H 0.98563 0.44883 0.22903 0.0
H1016 H 0.00402 0.43992 0.23955 0.0
H1017 H 1.00094 0.43488 0.21957 0.0
H1018 H 0.05392 0.41544 0.25415 0.0
C1019 C 0.04724 0.44601 0.25329 0.0
C1020 C 0.38177 0.4783 0.27454 0.0
C1021 C 0.36168 0.45533 0.26833 0.0
C1022 C 0.36304 0.44569 0.25416 0.0
C1023 C 0.40383 0.48187 0.25272 0.0
C1024 C 0.40241 0.49115 0.26661 0.0
C1025 C 0.42486 0.51597 0.27171 0.0
H1026 H 0.53366 0.6141 0.2576 0.0
C1027 C 0.4279 0.50012 0.24752 0.0
C1028 C 0.44019 0.52011 0.25867 0.0
H1029 H 0.49439 0.60439 0.29677 0.0
H1030 H 0.46326 0.56307 0.28671 0.0
H1031 H 0.52884 0.56116 0.2556 0.0
H1032 H 0.48534 0.58849 0.23381 0.0
H1033 H 0.4905 0.57044 0.22038 0.0
H1034 H 0.5168 0.5975 0.23031 0.0
H1035 H 0.53819 0.57727 0.23934 0.0
H1036 H 0.51789 0.54394 0.23815 0.0
C1037 C 0.43799 0.51326 0.28596 0.0
C1038 C 0.41603 0.53523 0.27366 0.0
C1039 C 0.45274 0.48471 0.19699 0.0
C1040 C 0.47444 0.4984 0.18982 0.0
C1041 C 0.49385 0.52113 0.19697 0.0
C1042 C 0.4918 0.53018 0.21094 0.0
C1043 C 0.47011 0.51643 0.21797 0.0
C1044 C 0.45109 0.49397 0.21112 0.0
C1045 C 0.42984 0.48169 0.22067 0.0
C1046 C 0.43931 0.50057 0.23428 0.0
C1047 C 0.46281 0.52097 0.23249 0.0
C1048 C 0.42731 0.45663 0.22433 0.0
C1049 C 0.40613 0.47927 0.21236 0.0
C1050 C 0.5185 0.60296 0.26408 0.0
C1051 C 0.5163 0.61274 0.27791 0.0
C1052 C 0.49623 0.59757 0.28594 0.0
C1053 C 0.47818 0.57349 0.28009 0.0
C1054 C 0.48011 0.56432 0.26603 0.0
C1055 C 0.50025 0.57879 0.25839 0.0
C1056 C 0.49935 0.56572 0.24371 0.0
C1057 C 0.47497 0.54131 0.24366 0.0
C1058 C 0.46378 0.54072 0.25672 0.0
C1059 C 0.52226 0.56189 0.24407 0.0
C1060 C 0.49808 0.58128 0.23132 0.0
H1061 H 0.38385 0.45061 0.23559 0.0
H1062 H 0.38164 0.48613 0.28548 0.0
H1063 H 0.40011 0.53068 0.26534 0.0
H1064 H 0.43046 0.55425 0.27182 0.0
H1065 H 0.40971 0.53555 0.28483 0.0
H1066 H 0.43608 0.49449 0.28561 0.0
H1067 H 0.42975 0.51579 0.29601 0.0
H1068 H 0.45835 0.52633 0.28733 0.0
H1069 H 0.4376 0.46708 0.19181 0.0
H1070 H 0.51057 0.53221 0.19161 0.0
H1071 H 0.5072 0.54766 0.21568 0.0
H1072 H 0.44603 0.45843 0.22641 0.0
H1073 H 0.41679 0.44195 0.215 0.0
H1074 H 0.4182 0.45016 0.23454 0.0
H1075 H 0.41078 0.49622 0.20671 0.0
H1076 H 0.39203 0.4775 0.21982 0.0
H1077 H 0.39746 0.4631 0.20377 0.0
H1078 H 0.34774 0.42814 0.24902 0.0
C1079 C 0.38398 0.45883 0.24633 0.0
Tb1080 Tb 0.49657 0.98887 0.99069 0.0
Eu1081 Eu 0.5173 0.02654 0.02217 0.0
C1082 C 0.52137 0.97677 0.01748 0.0
C1083 C 0.46401 0.97683 0.01798 0.0
C1084 C 0.48941 0.97448 0.94997 0.0
C1085 C 0.5161 0.98478 0.92971 0.0
C1086 C 0.51001 0.97559 0.94352 0.0
C1087 C 0.47467 0.98215 0.94205 0.0
C1088 C 0.48077 0.99135 0.92827 0.0
C1089 C 0.50171 0.99304 0.92197 0.0
C1090 C 0.48368 0.966 0.96499 0.0
O1091 O 0.49801 0.02346 0.98643 0.0
O1092 O 0.49018 0.03394 0.00913 0.0
O1093 O 0.54378 0.04756 0.00546 0.0
O1094 O 0.53681 0.01259 0.99131 0.0
C1095 C 0.48892 0.03435 0.99471 0.0
O1096 O 0.51104 0.04796 0.03955 0.0
O1097 O 0.54484 0.04592 0.0414 0.0
O1098 O 0.53187 3e-05 0.02318 0.0
O1099 O 0.50392 0.96746 0.00623 0.0
O1100 O 0.46407 0.97559 0.00344 0.0
O1101 O 0.48421 0.99119 0.02692 0.0
C1102 C 0.55021 0.03663 0.9952 0.0
O1103 O 0.50213 0.96806 0.97379 0.0
O1104 O 0.47002 0.97283 0.97208 0.0
C1105 C 0.52455 0.04288 0.06305 0.0
C1106 C 0.51018 0.02504 0.09085 0.0
C1107 C 0.52382 0.05077 0.08952 0.0
C1108 C 0.53083 0.05961 0.0757 0.0
C1109 C 0.51143 0.01723 0.0644 0.0
C1110 C 0.50426 0.0084 0.07812 0.0
C1111 C 0.53029 0.05178 0.04828 0.0
H1112 H 0.53244 0.98594 0.92527 0.0
H1113 H 0.52169 0.9697 0.94925 0.0
H1114 H 0.4585 0.98131 0.94656 0.0
H1115 H 0.46895 0.99705 0.92251 0.0
H1116 H 0.52853 0.06407 0.09908 0.0
H1117 H 0.54083 0.07946 0.07487 0.0
H1118 H 0.50647 0.00398 0.05477 0.0
H1119 H 0.49415 0.9885 0.07877 0.0
Tb1120 Tb 0.02176 0.50883 0.98809 0.0
Eu1121 Eu 0.9874 0.49492 0.01642 0.0
C1122 C 0.03496 0.54883 0.01504 0.0
C1123 C 0.03677 0.49149 0.01716 0.0
C1124 C 0.04305 0.51809 0.95033 0.0
C1125 C 0.05884 0.52604 0.92624 0.0
C1126 C 0.06306 0.52679 0.94159 0.0
C1127 C 0.01873 0.50878 0.94364 0.0
C1128 C 0.01447 0.508 0.92828 0.0
C1129 C 0.03448 0.51654 0.9194 0.0
C1130 C 0.04781 0.51892 0.9664 0.0
O1131 O 0.98723 0.47475 0.98036 0.0
O1132 O 0.9786 0.45971 0.00292 0.0
O1133 O 0.96442 0.49847 0.99767 0.0
O1134 O 0.9958 0.5221 0.98337 0.0
C1135 C 0.97595 0.45614 0.98842 0.0
O1136 O 0.96663 0.4679 0.0317 0.0
O1137 O 0.9667 0.50273 0.0325 0.0
O1138 O 0.01241 0.53632 0.01921 0.0
O1139 O 0.04343 0.53905 0.00538 0.0
O1140 O 0.03415 0.48948 0.00258 0.0
O1141 O 0.02387 0.49853 0.02505 0.0
C1142 C 0.97284 0.51304 0.98698 0.0
O1143 O 0.04487 0.53518 0.97437 0.0
O1144 O 0.03776 0.4975 0.97184 0.0
C1145 C 0.96449 0.48481 0.0549 0.0
C1146 C 0.97235 0.48714 0.08591 0.0
C1147 C 0.94801 0.47635 0.07878 0.0
C1148 C 0.94414 0.47518 0.06338 0.0
C1149 C 0.98883 0.4959 0.06192 0.0
C1150 C 0.99274 0.49705 0.07732 0.0
C1151 C 0.96009 0.48228 0.03872 0.0
H1152 H 0.07469 0.5331 0.91976 0.0
H1153 H 0.08197 0.53417 0.94663 0.0
H1154 H 0.00307 0.50201 0.95029 0.0
H1155 H 0.99546 0.5003 0.92335 0.0
H1156 H 0.93193 0.4683 0.08506 0.0
H1157 H 0.92523 0.46644 0.05807 0.0
H1158 H 0.00475 0.50341 0.05548 0.0
H1159 H 0.01171 0.50578 0.0825 0.0
Tb1160 Tb 0.51457 0.4974 0.01732 0.0
Eu1161 Eu 0.48661 0.50309 0.98693 0.0
C1162 C 0.4802 0.45153 0.99446 0.0
C1163 C 0.54117 0.50807 0.98786 0.0
C1164 C 0.52443 0.48868 0.05649 0.0
C1165 C 0.52432 0.47228 0.08016 0.0
C1166 C 0.53248 0.47655 0.06598 0.0
C1167 C 0.50768 0.496 0.06123 0.0
C1168 C 0.49949 0.49173 0.07534 0.0
C1169 C 0.5079 0.48005 0.08506 0.0
C1170 C 0.53377 0.49405 0.04179 0.0
O1171 O 0.53276 0.53637 0.01321 0.0
O1172 O 0.49806 0.53596 0.00336 0.0
O1173 O 0.45662 0.48663 0.00251 0.0
O1174 O 0.48215 0.49873 0.0244 0.0
C1175 C 0.52052 0.54802 0.01031 0.0
O1176 O 0.48494 0.52788 0.9715 0.0
O1177 O 0.45905 0.48827 0.96754 0.0
O1178 O 0.48481 0.46629 0.98391 0.0
O1179 O 0.48556 0.4602 0.0085 0.0
O1180 O 0.53713 0.49645 0.99997 0.0
O1181 O 0.52645 0.516 0.98263 0.0
C1182 C 0.45997 0.48987 0.01709 0.0
O1183 O 0.52278 0.47588 0.03125 0.0
O1184 O 0.53711 0.51486 0.03728 0.0
C1185 C 0.47446 0.51052 0.94679 0.0
C1186 C 0.48856 0.51442 0.91761 0.0
C1187 C 0.47186 0.52218 0.92198 0.0
C1188 C 0.46489 0.52024 0.93644 0.0
C1189 C 0.49116 0.50282 0.94256 0.0
C1190 C 0.49809 0.50468 0.92809 0.0
C1191 C 0.46811 0.50976 0.96217 0.0
H1192 H 0.53093 0.46297 0.08729 0.0
H1193 H 0.5453 0.47063 0.0625 0.0
H1194 H 0.50133 0.50552 0.05412 0.0
H1195 H 0.48719 0.49833 0.07878 0.0
H1196 H 0.46444 0.53012 0.91429 0.0
H1197 H 0.45224 0.52658 0.93959 0.0
H1198 H 0.49892 0.49547 0.95047 0.0
H1199 H 0.51071 0.49821 0.92509 0.0
Tb1200 Tb 0.16065 0.31322 0.32154 0.0
Eu1201 Eu 0.18146 0.35095 0.35296 0.0
C1202 C 0.18469 0.30067 0.34848 0.0
C1203 C 0.12778 0.30203 0.34868 0.0
C1204 C 0.15313 0.29898 0.28086 0.0
C1205 C 0.17939 0.30904 0.26039 0.0
C1206 C 0.17325 0.2995 0.27412 0.0
C1207 C 0.13888 0.30757 0.27331 0.0
C1208 C 0.14503 0.3171 0.25962 0.0
C1209 C 0.16554 0.31825 0.25304 0.0
C1210 C 0.14754 0.29032 0.29585 0.0
O1211 O 0.16287 0.34807 0.31709 0.0
O1212 O 0.15476 0.35861 0.33968 0.0
O1213 O 0.20836 0.37154 0.33632 0.0
O1214 O 0.20099 0.33635 0.32227 0.0
C1215 C 0.15379 0.35909 0.32527 0.0
O1216 O 0.17525 0.37292 0.37 0.0
O1217 O 0.20885 0.37051 0.37225 0.0
O1218 O 0.19539 0.32394 0.3542 0.0
O1219 O 0.16736 0.29154 0.33717 0.0
O1220 O 0.12808 0.30084 0.33416 0.0
O1221 O 0.14798 0.31593 0.35772 0.0
C1222 C 0.21469 0.36036 0.32616 0.0
O1223 O 0.16611 0.29242 0.30455 0.0
O1224 O 0.13387 0.29699 0.30305 0.0
C1225 C 0.18885 0.36932 0.3942 0.0
C1226 C 0.17546 0.35205 0.42239 0.0
C1227 C 0.16323 0.36265 0.41477 0.0
C1228 C 0.1699 0.37125 0.4009 0.0
C1229 C 0.20154 0.35931 0.40197 0.0
C1230 C 0.19494 0.35081 0.41588 0.0
C1231 C 0.19427 0.3766 0.37893 0.0
H1232 H 0.19539 0.30976 0.25573 0.0
H1233 H 0.18454 0.29291 0.27956 0.0
H1234 H 0.12309 0.30722 0.27805 0.0
H1235 H 0.1336 0.32354 0.25416 0.0
H1236 H 0.14799 0.36372 0.41931 0.0
H1237 H 0.1598 0.37893 0.39525 0.0
H1238 H 0.21636 0.35769 0.39723 0.0
H1239 H 0.20515 0.34325 0.42151 0.0
Tb1240 Tb 0.68438 0.83988 0.32169 0.0
Eu1241 Eu 0.65002 0.82623 0.34973 0.0
C1242 C 0.69717 0.87929 0.34896 0.0
C1243 C 0.69936 0.82194 0.35002 0.0
C1244 C 0.70494 0.84619 0.28383 0.0
C1245 C 0.71902 0.8552 0.2594 0.0
C1246 C 0.72423 0.85824 0.27479 0.0
C1247 C 0.68037 0.83085 0.27736 0.0
C1248 C 0.67513 0.82774 0.26196 0.0
C1249 C 0.69439 0.84005 0.25282 0.0
C1250 C 0.71043 0.85085 0.29997 0.0
O1251 O 0.65958 0.7996 0.31882 0.0
O1252 O 0.62723 0.79709 0.33103 0.0
O1253 O 0.63788 0.84677 0.33477 0.0
O1254 O 0.64984 0.83759 0.31294 0.0
C1255 C 0.63609 0.78745 0.32162 0.0
O1256 O 0.62647 0.79904 0.36424 0.0
O1257 O 0.63286 0.83664 0.36691 0.0
O1258 O 0.68563 0.8615 0.35749 0.0
O1259 O 0.69421 0.87474 0.33447 0.0
O1260 O 0.70727 0.83811 0.34012 0.0
O1261 O 0.67611 0.81114 0.35323 0.0
C1262 C 0.6368 0.84527 0.32021 0.0
O1263 O 0.70315 0.8651 0.30632 0.0
O1264 O 0.70496 0.83152 0.30714 0.0
C1265 C 0.62905 0.81626 0.38838 0.0
C1266 C 0.63941 0.81858 0.41918 0.0
C1267 C 0.61459 0.80618 0.41264 0.0
C1268 C 0.60947 0.80507 0.39734 0.0
C1269 C 0.65384 0.82834 0.39479 0.0
C1270 C 0.65898 0.82955 0.41008 0.0
C1271 C 0.62357 0.81521 0.37237 0.0
H1272 H 0.73428 0.86467 0.25264 0.0
H1273 H 0.74329 0.87022 0.27965 0.0
H1274 H 0.66522 0.8216 0.28424 0.0
H1275 H 0.65594 0.81618 0.25724 0.0
H1276 H 0.59914 0.79778 0.41939 0.0
H1277 H 0.59024 0.79563 0.39251 0.0
H1278 H 0.66917 0.8369 0.38797 0.0
H1279 H 0.67828 0.83894 0.41478 0.0
Tb1280 Tb 0.17626 0.81878 0.34999 0.0
Eu1281 Eu 0.15045 0.82723 0.31979 0.0
C1282 C 0.14382 0.77524 0.32625 0.0
C1283 C 0.20545 0.83377 0.32137 0.0
C1284 C 0.18645 0.81147 0.38921 0.0
C1285 C 0.18881 0.80168 0.41452 0.0
C1286 C 0.19579 0.80237 0.4001 0.0
C1287 C 0.16992 0.81974 0.39283 0.0
C1288 C 0.16296 0.8191 0.40724 0.0
C1289 C 0.17234 0.81008 0.41829 0.0
C1290 C 0.1931 0.81135 0.37395 0.0
O1291 O 0.1767 0.85368 0.35417 0.0
O1292 O 0.18061 0.86441 0.33049 0.0
O1293 O 0.12631 0.82626 0.33778 0.0
O1294 O 0.13743 0.80529 0.35379 0.0
C1295 C 0.18387 0.87067 0.3448 0.0
O1296 O 0.14318 0.8509 0.30579 0.0
O1297 O 0.12834 0.81205 0.29842 0.0
O1298 O 0.13147 0.7865 0.32273 0.0
O1299 O 0.16599 0.78765 0.33363 0.0
O1300 O 0.20677 0.83573 0.33597 0.0
O1301 O 0.18436 0.82613 0.3131 0.0
C1302 C 0.12258 0.81362 0.34943 0.0
O1303 O 0.17577 0.7937 0.36462 0.0
O1304 O 0.20321 0.83273 0.36843 0.0
C1305 C 0.14208 0.84014 0.28024 0.0
C1306 C 0.15837 0.84977 0.25167 0.0
C1307 C 0.1405 0.85559 0.25648 0.0
C1308 C 0.1324 0.85075 0.27062 0.0
C1309 C 0.16053 0.83511 0.27572 0.0
C1310 C 0.16853 0.83979 0.26158 0.0
C1311 C 0.13237 0.83357 0.29473 0.0
H1312 H 0.1961 0.79428 0.42267 0.0
H1313 H 0.20834 0.79565 0.39742 0.0
H1314 H 0.16238 0.82667 0.3845 0.0
H1315 H 0.15053 0.82603 0.40977 0.0
H1316 H 0.13257 0.86369 0.24927 0.0
H1317 H 0.11829 0.85494 0.27396 0.0
H1318 H 0.1683 0.82695 0.283 0.0
H1319 H 0.18205 0.83474 0.25826 0.0
Tb1320 Tb 0.82636 0.64769 0.65471 0.0
Eu1321 Eu 0.84702 0.68479 0.68629 0.0
C1322 C 0.85209 0.63582 0.68112 0.0
C1323 C 0.79442 0.63472 0.68214 0.0
C1324 C 0.81943 0.63355 0.61427 0.0
C1325 C 0.81353 0.62565 0.58738 0.0
C1326 C 0.80799 0.61712 0.60139 0.0
C1327 C 0.8367 0.65862 0.61297 0.0
C1328 C 0.84227 0.66717 0.59898 0.0
C1329 C 0.83065 0.65084 0.58597 0.0
C1330 C 0.81303 0.62472 0.629 0.0
O1331 O 0.82824 0.68251 0.65064 0.0
O1332 O 0.81981 0.69221 0.67333 0.0
O1333 O 0.87362 0.70629 0.66973 0.0
O1334 O 0.86652 0.67166 0.6551 0.0
C1335 C 0.81894 0.69315 0.65895 0.0
O1336 O 0.83991 0.7051 0.70393 0.0
O1337 O 0.87445 0.70442 0.70554 0.0
O1338 O 0.86261 0.65911 0.68674 0.0
O1339 O 0.83429 0.62634 0.67005 0.0
O1340 O 0.79402 0.63491 0.66761 0.0
O1341 O 0.81501 0.64844 0.69088 0.0
C1342 C 0.87998 0.69561 0.65926 0.0
O1343 O 0.8313 0.62645 0.6378 0.0
O1344 O 0.80003 0.63255 0.63595 0.0
C1345 C 0.85435 0.70074 0.72737 0.0
C1346 C 0.8407 0.68304 0.75531 0.0
C1347 C 0.85315 0.70873 0.75378 0.0
C1348 C 0.8598 0.71748 0.7399 0.0
C1349 C 0.84243 0.67516 0.72891 0.0
C1350 C 0.83562 0.6664 0.74271 0.0
C1351 C 0.85952 0.70957 0.71255 0.0
H1352 H 0.80448 0.61245 0.57765 0.0
H1353 H 0.79466 0.5977 0.60217 0.0
H1354 H 0.8457 0.67164 0.62279 0.0
H1355 H 0.85527 0.68672 0.59837 0.0
H1356 H 0.85717 0.72204 0.76322 0.0
H1357 H 0.86882 0.73727 0.73892 0.0
H1358 H 0.83809 0.66191 0.71937 0.0
H1359 H 0.82642 0.64655 0.74351 0.0
Tb1360 Tb 0.35253 0.17308 0.65493 0.0
Eu1361 Eu 0.31945 0.16005 0.6838 0.0
C1362 C 0.36721 0.21355 0.68177 0.0
C1363 C 0.36835 0.15592 0.68371 0.0
C1364 C 0.37173 0.1813 0.61679 0.0
C1365 C 0.38588 0.19067 0.5924 0.0
C1366 C 0.39118 0.19221 0.60772 0.0
C1367 C 0.34688 0.16912 0.61048 0.0
C1368 C 0.34155 0.16747 0.59517 0.0
C1369 C 0.36101 0.1781 0.58596 0.0
C1370 C 0.37755 0.18275 0.6328 0.0
O1371 O 0.31764 0.13926 0.64752 0.0
O1372 O 0.30905 0.12444 0.67017 0.0
O1373 O 0.29581 0.16349 0.66543 0.0
O1374 O 0.32661 0.18656 0.65064 0.0
C1375 C 0.30614 0.12082 0.65566 0.0
O1376 O 0.30055 0.13402 0.69997 0.0
O1377 O 0.29887 0.16792 0.69993 0.0
O1378 O 0.34481 0.20145 0.68622 0.0
O1379 O 0.37509 0.20329 0.67204 0.0
O1380 O 0.365 0.15345 0.66914 0.0
O1381 O 0.35614 0.16358 0.69178 0.0
C1382 C 0.30385 0.17775 0.65458 0.0
O1383 O 0.37488 0.19915 0.64081 0.0
O1384 O 0.36808 0.16155 0.63851 0.0
C1385 C 0.29944 0.15242 0.7229 0.0
C1386 C 0.31041 0.15816 0.75385 0.0
C1387 C 0.28565 0.14344 0.74739 0.0
C1388 C 0.28023 0.14061 0.73201 0.0
C1389 C 0.32415 0.16725 0.72924 0.0
C1390 C 0.3296 0.17014 0.74462 0.0
C1391 C 0.29368 0.14831 0.70677 0.0
H1392 H 0.40124 0.19881 0.58558 0.0
H1393 H 0.41046 0.20173 0.61246 0.0
H1394 H 0.33164 0.1608 0.6174 0.0
H1395 H 0.32222 0.15794 0.59053 0.0
H1396 H 0.27044 0.13424 0.75421 0.0
H1397 H 0.26106 0.12904 0.72724 0.0
H1398 H 0.33922 0.17632 0.72229 0.0
H1399 H 0.34889 0.18135 0.74924 0.0
Tb1400 Tb 0.84435 0.15443 0.68331 0.0
Eu1401 Eu 0.81859 0.16263 0.653 0.0
C1402 C 0.81109 0.11049 0.6599 0.0
C1403 C 0.87339 0.16883 0.65465 0.0
C1404 C 0.85407 0.14644 0.72261 0.0
C1405 C 0.82205 0.13523 0.73962 0.0
C1406 C 0.82884 0.13592 0.72518 0.0
C1407 C 0.87241 0.1564 0.7347 0.0
C1408 C 0.86566 0.15587 0.74917 0.0
C1409 C 0.84037 0.14526 0.75183 0.0
C1410 C 0.86141 0.14759 0.70739 0.0
O1411 O 0.84442 0.18917 0.68721 0.0
O1412 O 0.84898 0.19983 0.66356 0.0
O1413 O 0.79418 0.1614 0.67085 0.0
O1414 O 0.80548 0.14087 0.68716 0.0
C1415 C 0.85197 0.20616 0.67785 0.0
O1416 O 0.81053 0.18593 0.6392 0.0
O1417 O 0.79791 0.14778 0.63119 0.0
O1418 O 0.79904 0.12197 0.65616 0.0
O1419 O 0.83337 0.12281 0.66717 0.0
O1420 O 0.87489 0.1713 0.66925 0.0
O1421 O 0.85217 0.16081 0.64647 0.0
C1422 C 0.79045 0.14888 0.68255 0.0
O1423 O 0.84545 0.12969 0.69761 0.0
O1424 O 0.8705 0.1692 0.70221 0.0
C1425 C 0.81254 0.17694 0.61387 0.0
C1426 C 0.83281 0.1851 0.58636 0.0
C1427 C 0.80787 0.17903 0.58734 0.0
C1428 C 0.79778 0.17485 0.601 0.0
C1429 C 0.83773 0.18414 0.61305 0.0
C1430 C 0.84777 0.18811 0.59942 0.0
C1431 C 0.8012 0.16918 0.62779 0.0
H1432 H 0.8024 0.12663 0.74121 0.0
H1433 H 0.81432 0.12821 0.71601 0.0
H1434 H 0.89199 0.16478 0.73294 0.0
H1435 H 0.88032 0.1642 0.75826 0.0
H1436 H 0.79582 0.17633 0.57746 0.0
H1437 H 0.77825 0.16914 0.60142 0.0
H1438 H 0.84942 0.18587 0.6229 0.0
H1439 H 0.8671 0.19301 0.59905 0.0
H1440 H 0.32925 0.86184 0.04915 0.0
H1441 H 0.45304 0.98889 0.04458 0.0
H1442 H 0.34152 0.93105 0.07106 0.0
H1443 H 0.42172 0.93266 0.00726 0.0
H1444 H 0.41495 0.96559 0.05656 0.0
H1445 H 0.36546 0.88526 0.0356 0.0
C1446 C 0.33929 0.88192 0.05106 0.0
C1447 C 0.33201 0.89439 0.06131 0.0
C1448 C 0.41636 0.95839 0.04573 0.0
C1449 C 0.37409 0.92116 0.04608 0.0
C1450 C 0.43813 0.97157 0.0389 0.0
C1451 C 0.44056 0.96263 0.0249 0.0
C1452 C 0.39697 0.9358 0.03869 0.0
C1453 C 0.42054 0.9402 0.01803 0.0
C1454 C 0.36006 0.89522 0.04333 0.0
C1455 C 0.34648 0.92046 0.06353 0.0
N1456 N 0.39961 0.92735 0.02509 0.0
N1457 N 0.36689 0.93293 0.05607 0.0
H1458 H 0.1335 0.47047 0.08079 0.0
H1459 H 0.06375 0.47288 0.00443 0.0
H1460 H 0.14062 0.442 0.03797 0.0
H1461 H 0.04957 0.49486 0.04713 0.0
H1462 H 0.09238 0.46206 0.0168 0.0
H1463 H 0.10276 0.47957 0.06901 0.0
C1464 C 0.12849 0.46595 0.06894 0.0
C1465 C 0.13986 0.45562 0.06036 0.0
C1466 C 0.08301 0.4692 0.0235 0.0
C1467 C 0.10491 0.46626 0.04679 0.0
C1468 C 0.06664 0.47546 0.01643 0.0
C1469 C 0.05419 0.48486 0.02473 0.0
C1470 C 0.08718 0.47241 0.03904 0.0
C1471 C 0.05874 0.48769 0.04026 0.0
C1472 C 0.11104 0.47128 0.06222 0.0
C1473 C 0.13277 0.45041 0.04502 0.0
N1474 N 0.07491 0.48155 0.04692 0.0
N1475 N 0.11588 0.45586 0.03875 0.0
H1476 H 0.61986 0.70084 0.04589 0.0
H1477 H 0.50122 0.57819 0.00505 0.0
H1478 H 0.55225 0.69779 0.02804 0.0
H1479 H 0.56705 0.57949 0.02462 0.0
H1480 H 0.52103 0.6228 0.01189 0.0
H1481 H 0.60231 0.6572 0.03653 0.0
C1482 C 0.60139 0.69104 0.03993 0.0
C1483 C 0.58746 0.70296 0.0378 0.0
C1484 C 0.53119 0.61336 0.01466 0.0
C1485 C 0.56731 0.6531 0.02706 0.0
C1486 C 0.51986 0.58785 0.01078 0.0
C1487 C 0.53245 0.57506 0.01433 0.0
C1488 C 0.55529 0.62622 0.02218 0.0
C1489 C 0.55662 0.5886 0.02171 0.0
C1490 C 0.59142 0.66616 0.03457 0.0
C1491 C 0.56379 0.68947 0.02981 0.0
N1492 N 0.56724 0.61346 0.02543 0.0
N1493 N 0.55441 0.66524 0.02482 0.0
H1494 H 0.87393 0.29826 0.97286 0.0
H1495 H 0.96185 0.44074 0.95869 0.0
H1496 H 0.87788 0.32497 0.92972 0.0
H1497 H 0.95281 0.41331 1.00184 0.0
H1498 H 0.93348 0.3982 0.94745 0.0
H1499 H 0.90522 0.34014 0.9833 0.0
C1500 C 0.88136 0.31297 0.96559 0.0
C1501 C 0.87313 0.30815 0.95042 0.0
C1502 C 0.9378 0.40154 0.95937 0.0
C1503 C 0.90915 0.3562 0.96228 0.0
C1504 C 0.954 0.4258 0.96579 0.0
C1505 C 0.95961 0.43062 0.98123 0.0
C1506 C 0.92725 0.38204 0.96848 0.0
C1507 C 0.94894 0.41055 0.98989 0.0
C1508 C 0.89932 0.33688 0.97154 0.0
C1509 C 0.88381 0.32783 0.94146 0.0
N1510 N 0.93326 0.3872 0.9834 0.0
N1511 N 0.90119 0.35105 0.94754 0.0
H1512 H 0.66561 0.5026 0.95272 0.0
H1513 H 0.56004 0.53785 0.96539 0.0
H1514 H 0.66756 0.56727 0.93643 0.0
H1515 H 0.57229 0.48879 0.99189 0.0
H1516 H 0.59623 0.54545 0.95236 0.0
H1517 H 0.62829 0.49393 0.96469 0.0
C1518 C 0.65831 0.51508 0.95168 0.0
C1519 C 0.67014 0.53597 0.94368 0.0
C1520 C 0.591 0.53305 0.96103 0.0
C1521 C 0.62682 0.5257 0.9572 0.0
C1522 C 0.57028 0.52862 0.96848 0.0
C1523 C 0.56308 0.51269 0.97984 0.0
C1524 C 0.60453 0.52125 0.96479 0.0
C1525 C 0.57716 0.5013 0.98329 0.0
C1526 C 0.63687 0.51001 0.95849 0.0
C1527 C 0.65913 0.5509 0.94238 0.0
N1528 N 0.59713 0.50574 0.97577 0.0
N1529 N 0.63816 0.54551 0.9491 0.0
H1530 H 0.43114 0.0969 0.93183 0.0
H1531 H 0.46499 0.05633 0.00779 0.0
H1532 H 0.40295 0.10399 0.97314 0.0
H1533 H 0.48478 0.04055 0.9653 0.0
H1534 H 0.44344 0.07526 0.99549 0.0
H1535 H 0.45147 0.0768 0.944 0.0
C1536 C 0.42894 0.09396 0.94342 0.0
C1537 C 0.41528 0.10217 0.95146 0.0
C1538 C 0.45252 0.06767 0.98887 0.0
C1539 C 0.43902 0.07961 0.96557 0.0
C1540 C 0.46493 0.05695 0.99589 0.0
C1541 C 0.47677 0.04688 0.98758 0.0
C1542 C 0.45202 0.0684 0.97342 0.0
C1543 C 0.47596 0.04812 0.97218 0.0
C1544 C 0.44075 0.08265 0.9504 0.0
C1545 C 0.41356 0.09828 0.96654 0.0
N1546 N 0.46381 0.05869 0.96561 0.0
N1547 N 0.42536 0.08736 0.97311 0.0
H1548 H 0.66749 0.07896 0.93711 0.0
H1549 H 0.58014 0.08757 0.99625 0.0
H1550 H 0.67214 0.14799 0.95296 0.0
H1551 H 0.57133 0.01876 0.97615 0.0
H1552 H 0.61547 0.1105 0.9817 0.0
H1553 H 0.63316 0.05687 0.95221 0.0
C1554 C 0.66117 0.08947 0.94365 0.0
C1555 C 0.67277 0.1154 0.94372 0.0
C1556 C 0.6058 0.09038 0.98054 0.0
C1557 C 0.63363 0.09021 0.96131 0.0
C1558 C 0.58572 0.0773 0.9889 0.0
C1559 C 0.5727 0.0512 0.98743 0.0
C1560 C 0.61291 0.07724 0.97071 0.0
C1561 C 0.5807 0.03886 0.97765 0.0
C1562 C 0.64166 0.07686 0.95238 0.0
C1563 C 0.66401 0.12804 0.95269 0.0
N1564 N 0.6002 0.05196 0.96969 0.0
N1565 N 0.645 0.11534 0.96113 0.0
H1566 H 0.86418 0.55654 0.9625 0.0
H1567 H 0.97684 0.52979 0.95948 0.0
H1568 H 0.89011 0.54499 0.92122 0.0
H1569 H 0.9304 0.51117 0.99565 0.0
H1570 H 0.94883 0.54082 0.94611 0.0
H1571 H 0.8918 0.54507 0.97565 0.0
C1572 C 0.87548 0.55145 0.95614 0.0
C1573 C 0.87456 0.55167 0.94063 0.0
C1574 C 0.94478 0.53428 0.95696 0.0
C1575 C 0.90684 0.53913 0.9558 0.0
C1576 C 0.96079 0.52808 0.96463 0.0
C1577 C 0.95594 0.51954 0.97871 0.0
C1578 C 0.92401 0.53234 0.96353 0.0
C1579 C 0.93478 0.51755 0.98479 0.0
C1580 C 0.89138 0.54503 0.96371 0.0
C1581 C 0.89033 0.54552 0.93316 0.0
N1582 N 0.9197 0.52407 0.97722 0.0
N1583 N 0.90585 0.5396 0.94081 0.0
H1584 H 0.44375 0.2987 0.98307 0.0
H1585 H 0.45056 0.42522 0.96915 0.0
H1586 H 0.38451 0.30111 0.95707 0.0
H1587 H 0.48127 0.41643 0.01073 0.0
H1588 H 0.42974 0.38024 0.96273 0.0
H1589 H 0.4607 0.34226 0.99222 0.0
C1590 C 0.43401 0.30814 0.97945 0.0
C1591 C 0.41273 0.29612 0.96912 0.0
C1592 C 0.44094 0.38818 0.97329 0.0
C1593 C 0.43266 0.34622 0.97921 0.0
C1594 C 0.45297 0.41382 0.9769 0.0
C1595 C 0.46768 0.42449 0.99046 0.0
C1596 C 0.44411 0.37323 0.98316 0.0
C1597 C 0.47002 0.40886 1.00017 0.0
C1598 C 0.44385 0.33309 0.98461 0.0
C1599 C 0.40131 0.30967 0.96468 0.0
N1600 N 0.45856 0.38397 0.99626 0.0
N1601 N 0.41162 0.33409 0.96958 0.0
H1602 H 0.13722 0.70698 0.02768 0.0
H1603 H 0.03311 0.57067 0.04161 0.0
H1604 H 0.12422 0.68378 0.07183 0.0
H1605 H 0.07423 0.58584 0.00309 0.0
H1606 H 0.06078 0.61397 0.05193 0.0
H1607 H 0.10831 0.66417 0.01747 0.0
C1608 C 0.12841 0.69298 0.03526 0.0
C1609 C 0.13347 0.69914 0.05069 0.0
C1610 C 0.06368 0.60773 0.04123 0.0
C1611 C 0.0998 0.65021 0.03898 0.0
C1612 C 0.04791 0.58312 0.03532 0.0
C1613 C 0.0515 0.5747 0.02152 0.0
C1614 C 0.08275 0.62406 0.0331 0.0
C1615 C 0.07098 0.59155 0.01383 0.0
C1616 C 0.11181 0.66858 0.02939 0.0
C1617 C 0.12077 0.68015 0.05989 0.0
N1618 N 0.08579 0.61551 0.01969 0.0
N1619 N 0.10449 0.65655 0.05389 0.0
H1620 H 0.31105 0.43353 0.04487 0.0
H1621 H 0.45972 0.4965 0.04723 0.0
H1622 H 0.36069 0.46299 0.08529 0.0
H1623 H 0.41028 0.46782 0.00671 0.0
H1624 H 0.42374 0.48402 0.0613 0.0
H1625 H 0.34704 0.4454 0.03077 0.0
C1626 C 0.32952 0.44255 0.0508 0.0
C1627 C 0.33278 0.44737 0.06633 0.0
C1628 C 0.42072 0.48046 0.04933 0.0
C1629 C 0.37422 0.4609 0.05017 0.0
C1630 C 0.44133 0.4876 0.04125 0.0
C1631 C 0.43816 0.4832 0.0257 0.0
C1632 C 0.3966 0.4688 0.04188 0.0
C1633 C 0.41373 0.47167 0.01865 0.0
C1634 C 0.35008 0.44924 0.04272 0.0
C1635 C 0.35719 0.45868 0.07337 0.0
N1636 N 0.39394 0.46486 0.02678 0.0
N1637 N 0.37693 0.46513 0.06525 0.0
H1638 H 0.57075 0.90483 0.07825 0.0
H1639 H 0.52208 0.93646 0.00421 0.0
H1640 H 0.58798 0.88809 0.03509 0.0
H1641 H 0.53972 0.98105 0.04605 0.0
H1642 H 0.5387 0.91213 0.01565 0.0
H1643 H 0.55237 0.92725 0.06677 0.0
C1644 C 0.57091 0.90598 0.0664 0.0
C1645 C 0.58114 0.89456 0.05768 0.0
C1646 C 0.53883 0.92722 0.02228 0.0
C1647 C 0.55928 0.91956 0.04446 0.0
C1648 C 0.52924 0.94096 0.01581 0.0
C1649 C 0.52972 0.96084 0.02419 0.0
C1650 C 0.5484 0.93316 0.03727 0.0
C1651 C 0.53927 0.96602 0.03916 0.0
C1652 C 0.5602 0.91863 0.05986 0.0
C1653 C 0.58003 0.8962 0.04229 0.0
N1654 N 0.54814 0.9522 0.04525 0.0
N1655 N 0.5692 0.90837 0.03616 0.0
H1656 H 0.98888 0.1914 0.37834 0.0
H1657 H 0.11691 0.31485 0.37512 0.0
H1658 H 0.005 0.26158 0.40093 0.0
H1659 H 0.08454 0.25904 0.33759 0.0
H1660 H 0.07806 0.29309 0.38661 0.0
H1661 H 0.02547 0.21356 0.36485 0.0
C1662 C 0.99982 0.21145 0.38039 0.0
C1663 C 0.99361 0.22455 0.39088 0.0
C1664 C 0.0794 0.28564 0.37584 0.0
C1665 C 0.03609 0.24983 0.37571 0.0
C1666 C 0.10162 0.29792 0.3693 0.0
C1667 C 0.10398 0.28864 0.35539 0.0
C1668 C 0.05946 0.2636 0.36859 0.0
C1669 C 0.08345 0.2668 0.34832 0.0
C1670 C 0.02081 0.22403 0.3727 0.0
C1671 C 0.00914 0.25051 0.39323 0.0
N1672 N 0.06205 0.2548 0.35508 0.0
N1673 N 0.02974 0.26223 0.38582 0.0
H1674 H 0.83352 0.82465 0.38472 0.0
H1675 H 0.68994 0.78713 0.36978 0.0
H1676 H 0.77344 0.75938 0.40033 0.0
H1677 H 0.74983 0.8442 0.34854 0.0
H1678 H 0.72016 0.77841 0.38265 0.0
H1679 H 0.80306 0.83383 0.37307 0.0
C1680 C 0.81389 0.81214 0.38565 0.0
C1681 C 0.80609 0.79101 0.3934 0.0
C1682 C 0.72664 0.79283 0.37517 0.0
C1683 C 0.77093 0.8017 0.38018 0.0
C1684 C 0.70941 0.79785 0.36782 0.0
C1685 C 0.71731 0.8164 0.35801 0.0
C1686 C 0.75198 0.80656 0.37277 0.0
C1687 C 0.7428 0.82968 0.35594 0.0
C1688 C 0.79648 0.81748 0.37904 0.0
C1689 C 0.78038 0.77593 0.39455 0.0
N1690 N 0.75917 0.82452 0.36325 0.0
N1691 N 0.76372 0.78152 0.38797 0.0
H1692 H 0.25475 0.03133 0.35344 0.0
H1693 H 0.19219 0.89058 0.37362 0.0
H1694 H 0.23876 0.00939 0.39757 0.0
H1695 H 0.2022 0.91111 0.32883 0.0
H1696 H 0.2113 0.9344 0.38268 0.0
H1697 H 0.23751 0.98764 0.34425 0.0
C1698 C 0.24763 0.01735 0.36119 0.0
C1699 C 0.24825 0.02405 0.3763 0.0
C1700 C 0.20933 0.92934 0.37087 0.0
C1701 C 0.22865 0.97411 0.36589 0.0
C1702 C 0.1984 0.90429 0.36568 0.0
C1703 C 0.1955 0.89714 0.35044 0.0
C1704 C 0.21747 0.9474 0.36075 0.0
C1705 C 0.20398 0.91576 0.34068 0.0
C1706 C 0.23788 0.99243 0.35595 0.0
C1707 C 0.23905 0.00517 0.38587 0.0
N1708 N 0.21457 0.94004 0.346 0.0
N1709 N 0.2296 0.98109 0.3805 0.0
H1710 H 0.50589 0.64606 0.29187 0.0
H1711 H 0.64744 0.75809 0.3036 0.0
H1712 H 0.56733 0.6392 0.27708 0.0
H1713 H 0.58583 0.7592 0.3228 0.0
H1714 H 0.61854 0.7157 0.29225 0.0
H1715 H 0.53514 0.6887 0.30185 0.0
C1716 C 0.52559 0.65346 0.29082 0.0
C1717 C 0.53417 0.63889 0.28377 0.0
C1718 C 0.61142 0.7253 0.29894 0.0
C1719 C 0.56788 0.68807 0.295 0.0
C1720 C 0.62787 0.74949 0.30539 0.0
C1721 C 0.61908 0.7622 0.31423 0.0
C1722 C 0.58602 0.71386 0.30129 0.0
C1723 C 0.59354 0.75015 0.31616 0.0
C1724 C 0.5423 0.67792 0.29644 0.0
C1725 C 0.55987 0.64979 0.28237 0.0
N1726 N 0.57797 0.72671 0.30977 0.0
N1727 N 0.57586 0.67373 0.28799 0.0
H1728 H 0.3149 0.86298 0.25799 0.0
H1729 H 0.2532 0.85294 0.33444 0.0
H1730 H 0.35661 0.88807 0.30118 0.0
H1731 H 0.21074 0.83154 0.29151 0.0
H1732 H 0.29117 0.86576 0.32223 0.0
H1733 H 0.27658 0.85197 0.26978 0.0
C1734 C 0.31606 0.86639 0.26992 0.0
C1735 C 0.33904 0.87625 0.2786 0.0
C1736 C 0.27356 0.85827 0.31546 0.0
C1737 C 0.2952 0.86342 0.29218 0.0
C1738 C 0.25179 0.85086 0.32244 0.0
C1739 C 0.22862 0.84107 0.31403 0.0
C1740 C 0.27229 0.85589 0.2999 0.0
C1741 C 0.22812 0.83895 0.29848 0.0
C1742 C 0.29415 0.85995 0.27666 0.0
C1743 C 0.33931 0.88006 0.29404 0.0
N1744 N 0.2496 0.84627 0.29193 0.0
N1745 N 0.31779 0.87355 0.30031 0.0
H1746 H 0.09406 0.41946 0.2619 0.0
H1747 H 0.13047 0.38175 0.33824 0.0
H1748 H 0.06828 0.42894 0.30364 0.0
H1749 H 0.14909 0.36442 0.29573 0.0
H1750 H 0.10873 0.40036 0.32583 0.0
H1751 H 0.1147 0.39959 0.27409 0.0
C1752 C 0.09247 0.4171 0.27359 0.0
C1753 C 0.07945 0.42594 0.28177 0.0
C1754 C 0.1176 0.39251 0.31922 0.0
C1755 C 0.10346 0.40365 0.29585 0.0
C1756 C 0.13012 0.38198 0.32631 0.0
C1757 C 0.14167 0.37156 0.31802 0.0
C1758 C 0.11668 0.3927 0.30374 0.0
C1759 C 0.1405 0.37229 0.30258 0.0
C1760 C 0.10444 0.40593 0.28057 0.0
C1761 C 0.07842 0.42275 0.29695 0.0
N1762 N 0.12822 0.38268 0.29594 0.0
N1763 N 0.09034 0.41195 0.3035 0.0
H1764 H 0.33874 0.47433 0.28545 0.0
H1765 H 0.23585 0.34186 0.30753 0.0
H1766 H 0.33432 0.40505 0.27051 0.0
H1767 H 0.24512 0.41121 0.32703 0.0
H1768 H 0.27133 0.3649 0.29356 0.0
H1769 H 0.30393 0.45176 0.3002 0.0
C1770 C 0.33053 0.45438 0.2853 0.0
C1771 C 0.33963 0.44161 0.27674 0.0
C1772 C 0.26574 0.37514 0.30093 0.0
C1773 C 0.29948 0.4156 0.29354 0.0
C1774 C 0.24542 0.36199 0.30896 0.0
C1775 C 0.23741 0.37461 0.31851 0.0
C1776 C 0.27822 0.40121 0.30233 0.0
C1777 C 0.25067 0.40071 0.31985 0.0
C1778 C 0.31058 0.4415 0.2937 0.0
C1779 C 0.32783 0.41568 0.27677 0.0
N1780 N 0.27037 0.41316 0.31179 0.0
N1781 N 0.30843 0.40357 0.28505 0.0
H1782 H 0.53336 0.89519 0.29487 0.0
H1783 H 0.62804 0.84312 0.29002 0.0
H1784 H 0.55033 0.87171 0.2536 0.0
H1785 H 0.60753 0.86276 0.33119 0.0
H1786 H 0.60046 0.85432 0.27646 0.0
H1787 H 0.56107 0.88409 0.30831 0.0
C1788 C 0.5428 0.88757 0.28862 0.0
C1789 C 0.53939 0.88432 0.27305 0.0
C1790 C 0.60199 0.85617 0.28846 0.0
C1791 C 0.57149 0.87182 0.28843 0.0
C1792 C 0.61776 0.84978 0.29623 0.0
C1793 C 0.62013 0.85196 0.3118 0.0
C1794 C 0.58849 0.86487 0.29629 0.0
C1795 C 0.60631 0.86072 0.31921 0.0
C1796 C 0.55875 0.88136 0.29631 0.0
C1797 C 0.55256 0.87482 0.26558 0.0
N1798 N 0.59112 0.86685 0.31139 0.0
N1799 N 0.56798 0.86887 0.27333 0.0
H1800 H 0.04549 0.62213 0.2912 0.0
H1801 H 0.16398 0.74568 0.33147 0.0
H1802 H 0.11374 0.62574 0.30829 0.0
H1803 H 0.09778 0.74336 0.31162 0.0
H1804 H 0.14478 0.70108 0.3245 0.0
H1805 H 0.06315 0.66589 0.30021 0.0
C1806 C 0.06415 0.6321 0.2969 0.0
C1807 C 0.0782 0.62028 0.29894 0.0
C1808 C 0.13444 0.71033 0.32169 0.0
C1809 C 0.09851 0.67032 0.30931 0.0
C1810 C 0.14541 0.73581 0.32564 0.0
C1811 C 0.13251 0.7483 0.32206 0.0
C1812 C 0.11038 0.69722 0.31411 0.0
C1813 C 0.10846 0.73452 0.31455 0.0
C1814 C 0.07421 0.65706 0.30207 0.0
C1815 C 0.10213 0.634 0.30661 0.0
N1816 N 0.09819 0.70972 0.31081 0.0
N1817 N 0.11158 0.65833 0.31144 0.0
H1818 H 0.79156 0.039 0.36309 0.0
H1819 H 0.71187 0.8961 0.37843 0.0
H1820 H 0.79516 0.01268 0.40562 0.0
H1821 H 0.71943 0.92148 0.33474 0.0
H1822 H 0.73925 0.93911 0.38906 0.0
H1823 H 0.76192 0.99633 0.35296 0.0
C1824 C 0.78616 0.02426 0.3703 0.0
C1825 C 0.79601 0.02946 0.38522 0.0
C1826 C 0.73488 0.93523 0.37715 0.0
C1827 C 0.76184 0.98055 0.37372 0.0
C1828 C 0.71923 0.91069 0.37107 0.0
C1829 C 0.71341 0.90515 0.35566 0.0
C1830 C 0.74465 0.95436 0.36776 0.0
C1831 C 0.72348 0.92483 0.34668 0.0
C1832 C 0.76915 -9e-05 0.36452 0.0
C1833 C 0.78788 0.00962 0.3941 0.0
N1834 N 0.73859 0.94853 0.35286 0.0
N1835 N 0.77133 0.98604 0.38821 0.0
H1836 H 1.00014 0.815 0.39063 0.0
H1837 H 0.10614 0.7833 0.37177 0.0
H1838 H 0.00477 0.75347 0.40692 0.0
H1839 H 0.08989 0.83149 0.34692 0.0
H1840 H 0.07129 0.77479 0.3862 0.0
H1841 H 0.03494 0.82371 0.37603 0.0
C1842 C 0.00831 0.80318 0.39111 0.0
C1843 C 0.9992 0.78329 0.40002 0.0
C1844 C 0.07526 0.78716 0.37757 0.0
C1845 C 0.03962 0.79362 0.38344 0.0
C1846 C 0.09523 0.79209 0.36929 0.0
C1847 C 0.101 0.80811 0.35801 0.0
C1848 C 0.06094 0.79847 0.37471 0.0
C1849 C 0.08611 0.81894 0.35543 0.0
C1850 C 0.02831 0.8083 0.38279 0.0
C1851 C 0.01118 0.76916 0.40041 0.0
N1852 N 0.06684 0.81399 0.36374 0.0
N1853 N 0.03072 0.7746 0.39226 0.0
H1854 H 0.23578 0.23072 0.40958 0.0
H1855 H 0.18356 0.25917 0.33548 0.0
H1856 H 0.2476 0.20861 0.36616 0.0
H1857 H 0.20414 0.30557 0.37687 0.0
H1858 H 0.1996 0.23439 0.34695 0.0
H1859 H 0.21707 0.25273 0.398 0.0
C1860 C 0.23467 0.23061 0.39763 0.0
C1861 C 0.24359 0.21793 0.38888 0.0
C1862 C 0.20049 0.24997 0.35347 0.0
C1863 C 0.22141 0.24253 0.37555 0.0
C1864 C 0.19124 0.26398 0.34699 0.0
C1865 C 0.19271 0.2845 0.35523 0.0
C1866 C 0.21074 0.25631 0.36834 0.0
C1867 C 0.2029 0.29004 0.37008 0.0
C1868 C 0.22377 0.24303 0.39103 0.0
C1869 C 0.24079 0.21786 0.37338 0.0
N1870 N 0.21145 0.27598 0.37617 0.0
N1871 N 0.2299 0.22995 0.36721 0.0
H1872 H 0.68985 0.57268 0.7476 0.0
H1873 H 0.74565 0.60887 0.66936 0.0
H1874 H 0.64359 0.55195 0.70607 0.0
H1875 H 0.7903 0.62689 0.71133 0.0
H1876 H 0.70788 0.58745 0.68226 0.0
H1877 H 0.72686 0.5932 0.73424 0.0
C1878 C 0.68746 0.57265 0.73568 0.0
C1879 C 0.66355 0.56054 0.72796 0.0
C1880 C 0.72599 0.59604 0.6886 0.0
C1881 C 0.70595 0.5837 0.7125 0.0
C1882 C 0.74755 0.60816 0.68122 0.0
C1883 C 0.77122 0.61979 0.68924 0.0
C1884 C 0.72819 0.59559 0.70408 0.0
C1885 C 0.77252 0.61836 0.70464 0.0
C1886 C 0.70862 0.58419 0.72802 0.0
C1887 C 0.66166 0.56078 0.71247 0.0
N1888 N 0.75137 0.6066 0.71152 0.0
N1889 N 0.68256 0.57215 0.70525 0.0
H1890 H 0.46668 0.13661 0.74682 0.0
H1891 H 0.39448 0.13643 0.67076 0.0
H1892 H 0.4725 0.10645 0.70418 0.0
H1893 H 0.38238 0.16036 0.71354 0.0
H1894 H 0.42345 0.12581 0.68298 0.0
H1895 H 0.43576 0.14541 0.73507 0.0
C1896 C 0.46133 0.13164 0.73502 0.0
C1897 C 0.47238 0.1209 0.72648 0.0
C1898 C 0.41445 0.13334 0.68972 0.0
C1899 C 0.4372 0.13123 0.71292 0.0
C1900 C 0.39789 0.13947 0.68273 0.0
C1901 C 0.38594 0.14936 0.69111 0.0
C1902 C 0.41927 0.13718 0.70524 0.0
C1903 C 0.39114 0.1528 0.70661 0.0
C1904 C 0.44378 0.13681 0.7283 0.0
C1905 C 0.46489 0.11517 0.71119 0.0
N1906 N 0.40746 0.14678 0.71317 0.0
N1907 N 0.44787 0.12047 0.70492 0.0
H1908 H 0.90602 0.34361 0.73325 0.0
H1909 H 0.87089 0.24669 0.66192 0.0
H1910 H 0.92164 0.36551 0.68908 0.0
H1911 H 0.8598 0.22599 0.70663 0.0
H1912 H 0.88995 0.29033 0.67158 0.0
H1913 H 0.88992 0.3005 0.72367 0.0
C1914 C 0.90636 0.33941 0.72155 0.0
C1915 C 0.91525 0.35825 0.71196 0.0
C1916 C 0.88338 0.27624 0.67927 0.0
C1917 C 0.89632 0.30873 0.70084 0.0
C1918 C 0.87246 0.2513 0.67377 0.0
C1919 C 0.86365 0.23264 0.68348 0.0
C1920 C 0.88546 0.28254 0.69459 0.0
C1921 C 0.86626 0.23973 0.69872 0.0
C1922 C 0.89697 0.31472 0.71606 0.0
C1923 C 0.9147 0.35156 0.69685 0.0
N1924 N 0.87687 0.26411 0.7038 0.0
N1925 N 0.90532 0.32733 0.69174 0.0
H1926 H 0.20151 0.96341 0.6395 0.0
H1927 H 0.29214 0.10562 0.62594 0.0
H1928 H 0.20697 0.99084 0.59649 0.0
H1929 H 0.2815 0.07807 0.66907 0.0
H1930 H 0.26305 0.06338 0.61461 0.0
H1931 H 0.23286 0.00509 0.65024 0.0
C1932 C 0.20927 0.97823 0.63232 0.0
C1933 C 0.20149 0.97366 0.61709 0.0
C1934 C 0.26715 0.06662 0.62655 0.0
C1935 C 0.23759 0.02145 0.62929 0.0
C1936 C 0.28377 0.09071 0.63302 0.0
C1937 C 0.28919 0.09542 0.64848 0.0
C1938 C 0.25596 0.04713 0.63561 0.0
C1939 C 0.27782 0.07538 0.65711 0.0
C1940 C 0.22727 0.00202 0.63845 0.0
C1941 C 0.21257 0.99348 0.60827 0.0
N1942 N 0.26174 0.05216 0.65056 0.0
N1943 N 0.23 0.01655 0.61451 0.0
H1944 H 0.02635 0.22454 0.63531 0.0
H1945 H 0.87782 0.16555 0.62475 0.0
H1946 H 0.98311 0.19695 0.59264 0.0
H1947 H 0.92156 0.18876 0.66733 0.0
H1948 H 0.91601 0.17851 0.61264 0.0
H1949 H 0.98821 0.21356 0.64696 0.0
C1950 C 0.0088 0.21614 0.62837 0.0
C1951 C 0.00796 0.2114 0.61296 0.0
C1952 C 0.91725 0.18075 0.62463 0.0
C1953 C 0.96399 0.19886 0.6263 0.0
C1954 C 0.89541 0.17332 0.63159 0.0
C1955 C 0.89637 0.17599 0.64714 0.0
C1956 C 0.94031 0.19098 0.63325 0.0
C1957 C 0.9198 0.18623 0.65534 0.0
C1958 C 0.987 0.20992 0.63504 0.0
C1959 C 0.98469 0.20101 0.60454 0.0
N1960 N 0.94077 0.19334 0.6483 0.0
N1961 N 0.96362 0.19495 0.61132 0.0
H1962 H 0.76102 0.75561 0.59612 0.0
H1963 H 0.79434 0.71439 0.67202 0.0
H1964 H 0.73314 0.76295 0.6375 0.0
H1965 H 0.81572 0.70034 0.62967 0.0
H1966 H 0.77281 0.73336 0.65973 0.0
H1967 H 0.78142 0.73555 0.60828 0.0
C1968 C 0.75891 0.75273 0.60772 0.0
C1969 C 0.74535 0.76101 0.61579 0.0
C1970 C 0.78223 0.72614 0.65314 0.0
C1971 C 0.76912 0.73848 0.62988 0.0
C1972 C 0.79463 0.7154 0.66016 0.0
C1973 C 0.80688 0.70579 0.65187 0.0
C1974 C 0.78215 0.72732 0.63773 0.0
C1975 C 0.80654 0.70752 0.63652 0.0
C1976 C 0.77075 0.74145 0.61469 0.0
C1977 C 0.74369 0.75718 0.63088 0.0
N1978 N 0.79437 0.71807 0.62995 0.0
N1979 N 0.75551 0.74627 0.63744 0.0
H1980 H 1.00119 0.81145 0.61768 0.0
H1981 H 0.90144 0.67809 0.64027 0.0
H1982 H 0.99826 0.74293 0.60261 0.0
H1983 H 0.90941 0.74663 0.6602 0.0
H1984 H 0.9363 0.70181 0.62604 0.0
H1985 H 0.96699 0.78832 0.63276 0.0
C1986 C 0.99342 0.79155 0.61756 0.0
C1987 C 0.00274 0.77915 0.60886 0.0
C1988 C 0.93057 0.71174 0.63357 0.0
C1989 C 0.96336 0.75254 0.62604 0.0
C1990 C 0.9106 0.69819 0.64174 0.0
C1991 C 0.90241 0.71037 0.65149 0.0
C1992 C 0.9425 0.73778 0.635 0.0
C1993 C 0.91514 0.73647 0.65288 0.0
C1994 C 0.97384 0.77836 0.62615 0.0
C1995 C 0.99155 0.75328 0.60896 0.0
N1996 N 0.9345 0.74932 0.64466 0.0
N1997 N 0.97251 0.74087 0.61742 0.0
H1998 H 0.22073 0.20745 0.58686 0.0
H1999 H 0.26189 0.17639 0.66372 0.0
H2000 H 0.1972 0.22165 0.62843 0.0
H2001 H 0.30668 0.19334 0.6268 0.0
H2002 H 0.23399 0.18722 0.65004 0.0
H2003 H 0.24877 0.19699 0.60052 0.0
C2004 C 0.22151 0.20858 0.59884 0.0
C2005 C 0.20646 0.21558 0.60644 0.0
C2006 C 0.24996 0.1886 0.64497 0.0
C2007 C 0.23818 0.20287 0.6221 0.0
C2008 C 0.26582 0.18232 0.65273 0.0
C2009 C 0.2867 0.18404 0.64641 0.0
C2010 C 0.25474 0.19622 0.63068 0.0
C2011 C 0.29091 0.19192 0.63214 0.0
C2012 C 0.23746 0.20243 0.60661 0.0
C2013 C 0.20799 0.21598 0.62199 0.0
N2014 N 0.27499 0.19757 0.62471 0.0
N2015 N 0.22345 0.20962 0.62928 0.0
H2016 H 0.71142 0.95731 0.62558 0.0
H2017 H 0.83039 0.08043 0.66581 0.0
H2018 H 0.77866 0.95994 0.64374 0.0
H2019 H 0.76491 0.0788 0.64536 0.0
H2020 H 0.81051 0.03563 0.65938 0.0
H2021 H 0.72936 0.00113 0.63453 0.0
C2022 C 0.7299 0.96708 0.63153 0.0
C2023 C 0.74362 0.95499 0.63385 0.0
C2024 C 0.80048 0.04507 0.65632 0.0
C2025 C 0.76425 0.00511 0.64412 0.0
C2026 C 0.81184 0.07067 0.65996 0.0
C2027 C 0.79935 0.08342 0.65604 0.0
C2028 C 0.77645 0.0321 0.64871 0.0
C2029 C 0.77529 0.06976 0.64854 0.0
C2030 C 0.74011 0.99207 0.63665 0.0
C2031 C 0.76732 0.96844 0.64182 0.0
N2032 N 0.76464 0.04485 0.64509 0.0
N2033 N 0.77695 0.99282 0.64657 0.0
H2034 H 0.45725 0.34858 0.73973 0.0
H2035 H 0.407 0.24929 0.66952 0.0
H2036 H 0.47208 0.36975 0.6953 0.0
H2037 H 0.36632 0.23666 0.70814 0.0
H2038 H 0.43517 0.29229 0.67987 0.0
H2039 H 0.42727 0.3062 0.72931 0.0
C2040 C 0.45408 0.3445 0.72779 0.0
C2041 C 0.46734 0.36295 0.71841 0.0
C2042 C 0.42003 0.2801 0.68604 0.0
C2043 C 0.43355 0.31419 0.7065 0.0
C2044 C 0.40406 0.25555 0.68021 0.0
C2045 C 0.38433 0.23944 0.68801 0.0
C2046 C 0.41653 0.28844 0.6999 0.0
C2047 C 0.38125 0.24855 0.70175 0.0
C2048 C 0.43705 0.32022 0.72188 0.0
C2049 C 0.46276 0.35617 0.70303 0.0
N2050 N 0.39734 0.27245 0.70734 0.0
N2051 N 0.4464 0.3323 0.69756 0.0
H2052 H 0.67242 0.08626 0.74084 0.0
H2053 H 0.75917 0.16837 0.68057 0.0
H2054 H 0.66882 0.14822 0.72441 0.0
H2055 H 0.77186 0.11639 0.7037 0.0
H2056 H 0.72407 0.15929 0.69517 0.0
H2057 H 0.70741 0.09551 0.72625 0.0
C2058 C 0.67905 0.10192 0.73428 0.0
C2059 C 0.66747 0.11641 0.7339 0.0
C2060 C 0.73458 0.1499 0.69705 0.0
C2061 C 0.70741 0.12685 0.71688 0.0
C2062 C 0.75457 0.155 0.68866 0.0
C2063 C 0.76861 0.14322 0.69092 0.0
C2064 C 0.72843 0.13272 0.70768 0.0
C2065 C 0.76176 0.12611 0.70162 0.0
C2066 C 0.69896 0.1071 0.72586 0.0
C2067 C 0.67675 0.13621 0.72491 0.0
N2068 N 0.74219 0.12137 0.70956 0.0
N2069 N 0.69606 0.14078 0.71675 0.0
H2070 H 0.91455 0.54192 0.69857 0.0
H2071 H 0.87098 0.64114 0.70962 0.0
H2072 H 0.90234 0.56573 0.7414 0.0
H2073 H 0.85204 0.59463 0.66842 0.0
H2074 H 0.88656 0.61637 0.721 0.0
H2075 H 0.8953 0.56348 0.6868 0.0
C2076 C 0.90771 0.55149 0.70552 0.0
C2077 C 0.91026 0.55207 0.72106 0.0
C2078 C 0.8789 0.61147 0.70949 0.0
C2079 C 0.88868 0.57713 0.70761 0.0
C2080 C 0.87012 0.62568 0.70296 0.0
C2081 C 0.86035 0.61996 0.68803 0.0
C2082 C 0.87833 0.59164 0.70099 0.0
C2083 C 0.85941 0.59956 0.67998 0.0
C2084 C 0.89679 0.56383 0.69877 0.0
C2085 C 0.90138 0.56519 0.72943 0.0
N2086 N 0.86858 0.58623 0.68653 0.0
N2087 N 0.89116 0.57731 0.72261 0.0
H2088 H 0.50461 0.99156 0.18254 0.0
H2089 H 0.46476 0.98654 0.09637 0.0
H2090 H 0.4298 0.94325 0.16174 0.0
H2091 H 0.53659 0.04156 0.11843 0.0
H2092 H 0.45185 0.97005 0.1201 0.0
H2093 H 0.51685 0.00971 0.15914 0.0
C2094 C 0.49074 0.98474 0.17304 0.0
C2095 C 0.46613 0.96575 0.17412 0.0
C2096 C 0.47041 0.98578 0.11978 0.0
C2097 C 0.48005 0.98657 0.14723 0.0
C2098 C 0.47787 0.99512 0.10621 0.0
C2099 C 0.50188 0.01542 0.10536 0.0
C2100 C 0.4871 0.99664 0.13267 0.0
C2101 C 0.51786 0.02602 0.11855 0.0
C2102 C 0.49773 0.99522 0.15969 0.0
C2103 C 0.44891 0.95796 0.16148 0.0
N2104 N 0.51025 0.01643 0.13162 0.0
N2105 N 0.45622 0.96828 0.14856 0.0
H2106 H 0.96721 0.50329 0.18081 0.0
H2107 H 0.00535 0.47785 0.10166 0.0
H2108 H 0.02506 0.48504 0.17508 0.0
H2109 H 0.94849 0.49754 0.10731 0.0
H2110 H 0.01185 0.47902 0.12854 0.0
H2111 H 0.95878 0.49949 0.15388 0.0
C2112 C 0.97811 0.49844 0.17388 0.0
C2113 C 0.99694 0.49457 0.18021 0.0
C2114 C 0.99792 0.48305 0.1239 0.0
C2115 C 0.98735 0.49011 0.14938 0.0
C2116 C 0.99432 0.48256 0.10856 0.0
C2117 C 0.97642 0.48771 0.10222 0.0
C2118 C 0.98355 0.48877 0.13301 0.0
C2119 C 0.96233 0.49322 0.1117 0.0
C2120 C 0.97324 0.49619 0.15851 0.0
C2121 C 0.01021 0.48794 0.1707 0.0
N2122 N 0.96625 0.49367 0.12662 0.0
N2123 N 0.00524 0.48605 0.15577 0.0
H2124 H 0.5149 0.49731 0.18033 0.0
H2125 H 0.46219 0.4676 0.09473 0.0
H2126 H 0.44034 0.48007 0.16516 0.0
H2127 H 0.53709 0.48665 0.11068 0.0
H2128 H 0.45212 0.46756 0.12039 0.0
H2129 H 0.52145 0.48853 0.15497 0.0
C2130 C 0.49983 0.49149 0.17164 0.0
C2131 C 0.47715 0.48972 0.17482 0.0
C2132 C 0.47068 0.47151 0.11826 0.0
C2133 C 0.48454 0.4797 0.14567 0.0
C2134 C 0.4765 0.47166 0.10361 0.0
C2135 C 0.50062 0.47735 0.10049 0.0
C2136 C 0.48912 0.47715 0.12993 0.0
C2137 C 0.51821 0.48197 0.11248 0.0
C2138 C 0.50356 0.48643 0.15715 0.0
C2139 C 0.4581 0.48165 0.16319 0.0
N2140 N 0.51217 0.48197 0.12663 0.0
N2141 N 0.46232 0.47723 0.14908 0.0
H2142 H 0.03403 0.49095 0.82465 0.0
H2143 H 0.00221 0.52669 0.90342 0.0
H2144 H 0.97644 0.50971 0.82994 0.0
H2145 H 0.05644 0.5033 0.89809 0.0
H2146 H 0.99433 0.52318 0.87646 0.0
H2147 H 0.04459 0.49835 0.85149 0.0
C2148 C 0.02364 0.49668 0.83146 0.0
C2149 C 0.00422 0.49957 0.82504 0.0
C2150 C 0.00802 0.5189 0.88119 0.0
C2151 C 0.01628 0.50818 0.85578 0.0
C2152 C 0.01242 0.52075 0.89659 0.0
C2153 C 0.02996 0.5152 0.90304 0.0
C2154 C 0.02122 0.5114 0.87216 0.0
C2155 C 0.04295 0.50804 0.89362 0.0
C2156 C 0.02973 0.50098 0.84678 0.0
C2157 C 0.99169 0.50746 0.83438 0.0
N2158 N 0.03826 0.50627 0.87867 0.0
N2159 N 0.99784 0.51134 0.84929 0.0
H2160 H 0.48411 0.50257 0.82213 0.0
H2161 H 0.53448 0.5273 0.90809 0.0
H2162 H 0.55786 0.51764 0.83751 0.0
H2163 H 0.45891 0.50542 0.89177 0.0
H2164 H 0.54506 0.5282 0.8825 0.0
H2165 H 0.4766 0.50884 0.84767 0.0
C2166 C 0.49882 0.50741 0.83091 0.0
C2167 C 0.52153 0.50929 0.82772 0.0
C2168 C 0.52621 0.52335 0.88454 0.0
C2169 C 0.51302 0.51638 0.85708 0.0
C2170 C 0.52008 0.52265 0.89915 0.0
C2171 C 0.49569 0.51613 0.90215 0.0
C2172 C 0.50784 0.5175 0.8728 0.0
C2173 C 0.47801 0.51081 0.89007 0.0
C2174 C 0.49452 0.51098 0.8455 0.0
C2175 C 0.54009 0.51604 0.83949 0.0
N2176 N 0.48441 0.51151 0.87598 0.0
N2177 N 0.53533 0.51907 0.85369 0.0
H2178 H 0.52145 0.07802 0.84664 0.0
H2179 H 0.51952 0.97769 0.89885 0.0
H2180 H 0.54452 0.02553 0.8332 0.0
H2181 H 0.49989 0.03297 0.91205 0.0
H2182 H 0.53003 0.99537 0.87512 0.0
H2183 H 0.51467 0.06222 0.8709 0.0
C2184 C 0.52509 0.06312 0.84879 0.0
C2185 C 0.53334 0.05293 0.83778 0.0
C2186 C 0.52347 0.00365 0.88323 0.0
C2187 C 0.52567 0.0347 0.86572 0.0
C2188 C 0.51756 0.99363 0.89683 0.0
C2189 C 0.50862 0.00372 0.9075 0.0
C2190 C 0.52048 0.02396 0.88024 0.0
C2191 C 0.50623 0.02422 0.90411 0.0
C2192 C 0.5213 0.05415 0.8627 0.0
C2193 C 0.53823 0.034 0.84136 0.0
N2194 N 0.51206 0.03358 0.89082 0.0
N2195 N 0.53415 0.02537 0.85498 0.0
H2196 H 0.14294 0.26514 0.49787 0.0
H2197 H 0.1598 0.37037 0.44528 0.0
H2198 H 0.12029 0.319 0.50848 0.0
H2199 H 0.17283 0.31017 0.43266 0.0
H2200 H 0.14625 0.3527 0.46867 0.0
H2201 H 0.15512 0.28233 0.47426 0.0
C2202 C 0.14059 0.28065 0.49526 0.0
C2203 C 0.13068 0.29071 0.50525 0.0
C2204 C 0.15207 0.34337 0.46077 0.0
C2205 C 0.14456 0.3105 0.47807 0.0
C2206 C 0.15973 0.35339 0.44735 0.0
C2207 C 0.16757 0.34183 0.43689 0.0
C2208 C 0.15228 0.32162 0.46385 0.0
C2209 C 0.1674 0.32005 0.44041 0.0
C2210 C 0.14744 0.29039 0.48171 0.0
C2211 C 0.12768 0.31053 0.5011 0.0
N2212 N 0.15993 0.31073 0.45355 0.0
N2213 N 0.13471 0.31985 0.48788 0.0
H2214 H 0.69529 0.87412 0.51068 0.0
H2215 H 0.61746 0.78241 0.43806 0.0
H2216 H 0.64567 0.79535 0.51165 0.0
H2217 H 0.67371 0.85946 0.43738 0.0
H2218 H 0.62641 0.78669 0.46503 0.0
H2219 H 0.68646 0.86905 0.48381 0.0
C2220 C 0.68239 0.85575 0.50522 0.0
C2221 C 0.67105 0.83514 0.51341 0.0
C2222 C 0.63684 0.80262 0.45896 0.0
C2223 C 0.66103 0.82913 0.48258 0.0
C2224 C 0.63165 0.80023 0.4436 0.0
C2225 C 0.64488 0.82061 0.43547 0.0
C2226 C 0.65526 0.82561 0.46626 0.0
C2227 C 0.66327 0.84318 0.44318 0.0
C2228 C 0.67748 0.85283 0.48986 0.0
C2229 C 0.65489 0.8117 0.50574 0.0
N2230 N 0.66785 0.84509 0.45813 0.0
N2231 N 0.65027 0.80934 0.49073 0.0
H2232 H 0.17855 0.83314 0.51343 0.0
H2233 H 0.12666 0.79871 0.42757 0.0
H2234 H 0.10441 0.81618 0.49741 0.0
H2235 H 0.20225 0.82131 0.44429 0.0
H2236 H 0.11654 0.80086 0.45308 0.0
H2237 H 0.18563 0.82396 0.48828 0.0
C2238 C 0.16368 0.82731 0.50459 0.0
C2239 C 0.14097 0.82573 0.50746 0.0
C2240 C 0.13529 0.80519 0.45115 0.0
C2241 C 0.14897 0.81523 0.47857 0.0
C2242 C 0.14115 0.80413 0.43658 0.0
C2243 C 0.16542 0.80998 0.43373 0.0
C2244 C 0.15383 0.81215 0.46297 0.0
C2245 C 0.18324 0.81639 0.44589 0.0
C2246 C 0.16772 0.82205 0.49023 0.0
C2247 C 0.12218 0.81762 0.49566 0.0
N2248 N 0.17712 0.81741 0.45994 0.0
N2249 N 0.12669 0.81293 0.48168 0.0
H2250 H 0.63771 0.78258 0.16143 0.0
H2251 H 0.71312 0.87633 0.23379 0.0
H2252 H 0.6844 0.86181 0.16041 0.0
H2253 H 0.66282 0.79766 0.23468 0.0
H2254 H 0.70364 0.87143 0.20689 0.0
H2255 H 0.64746 0.7878 0.18824 0.0
C2256 C 0.65017 0.80109 0.16684 0.0
C2257 C 0.66039 0.82179 0.15865 0.0
C2258 C 0.69467 0.85524 0.21297 0.0
C2259 C 0.67143 0.82794 0.18943 0.0
C2260 C 0.70018 0.85799 0.22831 0.0
C2261 C 0.68878 0.83735 0.23649 0.0
C2262 C 0.67768 0.83166 0.20573 0.0
C2263 C 0.67185 0.81412 0.22884 0.0
C2264 C 0.6556 0.80407 0.18218 0.0
C2265 C 0.67599 0.84537 0.16631 0.0
N2266 N 0.66686 0.8119 0.21389 0.0
N2267 N 0.6811 0.84781 0.18127 0.0
H2268 H 0.22912 0.85308 0.17159 0.0
H2269 H 0.12807 0.84129 0.2262 0.0
H2270 H 0.15431 0.83585 0.15703 0.0
H2271 H 0.20436 0.86438 0.24156 0.0
H2272 H 0.13869 0.8427 0.20076 0.0
H2273 H 0.22194 0.8609 0.19712 0.0
C2274 C 0.21134 0.85133 0.17372 0.0
C2275 C 0.19217 0.84347 0.16218 0.0
C2276 C 0.1532 0.84766 0.20968 0.0
C2277 C 0.18371 0.85207 0.19136 0.0
C2278 C 0.14717 0.84704 0.22428 0.0
C2279 C 0.16528 0.85261 0.23614 0.0
C2280 C 0.1775 0.85371 0.20681 0.0
C2281 C 0.18963 0.85947 0.23281 0.0
C2282 C 0.20719 0.85564 0.18831 0.0
C2283 C 0.16944 0.84136 0.16562 0.0
N2284 N 0.19497 0.85964 0.21847 0.0
N2285 N 0.16579 0.8454 0.17987 0.0
H2286 H 0.18703 0.40664 0.17925 0.0
H2287 H 0.18223 0.3028 0.22938 0.0
H2288 H 0.20822 0.35324 0.16451 0.0
H2289 H 0.16515 0.35938 0.244 0.0
H2290 H 0.19297 0.3213 0.20588 0.0
H2291 H 0.17999 0.38988 0.20324 0.0
C2292 C 0.19019 0.39134 0.18106 0.0
C2293 C 0.198 0.38118 0.16976 0.0
C2294 C 0.18692 0.32967 0.21425 0.0
C2295 C 0.19003 0.36185 0.19739 0.0
C2296 C 0.18088 0.31919 0.22772 0.0
C2297 C 0.17258 0.3294 0.23872 0.0
C2298 C 0.1847 0.35058 0.21174 0.0
C2299 C 0.17097 0.35051 0.2358 0.0
C2300 C 0.18626 0.38182 0.19481 0.0
C2301 C 0.20228 0.3617 0.1729 0.0
N2302 N 0.17689 0.3603 0.22263 0.0
N2303 N 0.19807 0.35254 0.18637 0.0
H2304 H 0.83599 0.65413 0.84788 0.0
H2305 H 0.79639 0.643 0.76099 0.0
H2306 H 0.76215 0.60206 0.82703 0.0
H2307 H 0.86669 0.70138 0.78294 0.0
H2308 H 0.78387 0.62716 0.78493 0.0
H2309 H 0.84784 0.67114 0.82415 0.0
C2310 C 0.82226 0.64624 0.83831 0.0
C2311 C 0.79804 0.62654 0.83948 0.0
C2312 C 0.80202 0.64347 0.78453 0.0
C2313 C 0.81151 0.64604 0.81218 0.0
C2314 C 0.80926 0.65245 0.77084 0.0
C2315 C 0.83271 0.67353 0.76991 0.0
C2316 C 0.81837 0.65551 0.79746 0.0
C2317 C 0.84838 0.68521 0.78311 0.0
C2318 C 0.82901 0.65606 0.82476 0.0
C2319 C 0.78095 0.61736 0.82671 0.0
N2320 N 0.84099 0.67599 0.7963 0.0
N2321 N 0.78805 0.62708 0.8136 0.0
H2322 H 0.36888 0.21611 0.84493 0.0
H2323 H 0.29116 0.12215 0.77304 0.0
H2324 H 0.31923 0.13749 0.84652 0.0
H2325 H 0.34292 0.20041 0.7718 0.0
H2326 H 0.30086 0.12723 0.79993 0.0
H2327 H 0.35935 0.21053 0.81809 0.0
C2328 C 0.35584 0.19767 0.83963 0.0
C2329 C 0.34468 0.17725 0.84799 0.0
C2330 C 0.31011 0.14328 0.79377 0.0
C2331 C 0.33387 0.17067 0.81719 0.0
C2332 C 0.30448 0.14043 0.77843 0.0
C2333 C 0.31622 0.16091 0.77016 0.0
C2334 C 0.32757 0.1668 0.8009 0.0
C2335 C 0.33362 0.18407 0.7777 0.0
C2336 C 0.35052 0.19447 0.82428 0.0
C2337 C 0.32835 0.15371 0.84049 0.0
N2338 N 0.33872 0.18638 0.79264 0.0
N2339 N 0.32336 0.15107 0.82551 0.0
H2340 H 0.77205 0.15498 0.83102 0.0
H2341 H 0.86145 0.13792 0.77712 0.0
H2342 H 0.84278 0.16225 0.84614 0.0
H2343 H 0.80277 0.15192 0.76177 0.0
H2344 H 0.85069 0.13966 0.80244 0.0
H2345 H 0.77853 0.14591 0.8055 0.0
C2346 C 0.78872 0.15423 0.82898 0.0
C2347 C 0.80701 0.15954 0.84064 0.0
C2348 C 0.84011 0.14223 0.7935 0.0
C2349 C 0.8146 0.14937 0.8116 0.0
C2350 C 0.84635 0.14142 0.77904 0.0
C2351 C 0.83319 0.14501 0.76723 0.0
C2352 C 0.82045 0.14653 0.79624 0.0
C2353 C 0.81334 0.14881 0.77044 0.0
C2354 C 0.7925 0.14927 0.81443 0.0
C2355 C 0.82837 0.15854 0.83741 0.0
N2356 N 0.80764 0.14955 0.78463 0.0
N2357 N 0.83163 0.15367 0.82319 0.0
H2358 H 0.30732 0.11779 0.49494 0.0
H2359 H 0.38264 0.2134 0.56652 0.0
H2360 H 0.35471 0.1966 0.49268 0.0
H2361 H 0.32684 0.13649 0.56826 0.0
H2362 H 0.37402 0.20776 0.53948 0.0
H2363 H 0.3158 0.12436 0.52184 0.0
C2364 C 0.3197 0.13649 0.50012 0.0
C2365 C 0.3305 0.15666 0.49155 0.0
C2366 C 0.3636 0.19217 0.5458 0.0
C2367 C 0.34006 0.16439 0.52243 0.0
C2368 C 0.36859 0.19534 0.56121 0.0
C2369 C 0.35543 0.17538 0.56964 0.0
C2370 C 0.34547 0.16881 0.53878 0.0
C2371 C 0.33722 0.15246 0.56221 0.0
C2372 C 0.32438 0.14026 0.51549 0.0
C2373 C 0.34595 0.18055 0.49888 0.0
N2374 N 0.33287 0.14978 0.54722 0.0
N2375 N 0.35036 0.18376 0.51392 0.0
H2376 H 0.87342 0.13965 0.50682 0.0
H2377 H 0.82742 0.2078 0.56243 0.0
H2378 H 0.86631 0.20208 0.49516 0.0
H2379 H 0.85988 0.1643 0.57679 0.0
H2380 H 0.84066 0.20586 0.53765 0.0
H2381 H 0.868 0.14826 0.53256 0.0
C2382 C 0.87105 0.1554 0.5098 0.0
C2383 C 0.87035 0.17025 0.49898 0.0
C2384 C 0.84514 0.19702 0.5463 0.0
C2385 C 0.86357 0.17992 0.52826 0.0
C2386 C 0.83748 0.198 0.56039 0.0
C2387 C 0.84251 0.18615 0.57168 0.0
C2388 C 0.85753 0.18373 0.54342 0.0
C2389 C 0.85578 0.17389 0.56848 0.0
C2390 C 0.86795 0.16033 0.52445 0.0
C2391 C 0.8671 0.19036 0.50328 0.0
N2392 N 0.86256 0.17276 0.55462 0.0
N2393 N 0.86347 0.19444 0.51759 0.0
H2394 H 0.89848 0.73195 0.51063 0.0
H2395 H 0.79769 0.63754 0.56105 0.0
H2396 H 0.82044 0.68349 0.4958 0.0
H2397 H 0.87551 0.68553 0.57669 0.0
H2398 H 0.80631 0.6533 0.53683 0.0
H2399 H 0.89115 0.71427 0.53453 0.0
C2400 C 0.87986 0.71748 0.51233 0.0
C2401 C 0.86002 0.70938 0.50118 0.0
C2402 C 0.82155 0.66037 0.54553 0.0
C2403 C 0.85144 0.68918 0.52859 0.0
C2404 C 0.81666 0.65123 0.55938 0.0
C2405 C 0.83588 0.66013 0.57101 0.0
C2406 C 0.84587 0.67863 0.54316 0.0
C2407 C 0.86 0.67829 0.56816 0.0
C2408 C 0.87565 0.70749 0.52602 0.0
C2409 C 0.83624 0.6907 0.50412 0.0
N2410 N 0.8643 0.68693 0.55456 0.0
N2411 N 0.83263 0.68132 0.5175 0.0
loop_
_geom_bond_atom_site_label_1
_geom_bond_atom_site_label_2
_geom_bond_distance
_geom_bond_site_symmetry_2
_ccdc_geom_bond_type
C0 C1 1.391 . S
C0 C4 1.391 . S
C0 H42 0.948 . S
C1 C0 1.391 . S
C1 C2 1.391 . S
C2 C1 1.391 . S
C2 H58 0.947 . S
C2 C59 1.392 . S
C3 C4 1.391 . S
C3 C7 1.397 . S
C3 C59 1.419 . S
C4 C0 1.391 . S
C4 C3 1.391 . S
C4 C5 1.399 . S
C5 C4 1.399 . S
C5 C8 1.396 . S
C5 C17 1.453 . S
C5 C18 1.684 . S
H6 C30 0.948 . S
C7 C3 1.397 . S
C7 C8 1.394 . S
C7 C26 1.723 . S
C8 C5 1.396 . S
C8 C7 1.394 . S
C8 C38 1.723 . S
H9 C32 0.947 . S
H10 C33 0.948 . S
H11 C39 0.982 . S
H12 C40 0.979 . S
H13 C40 0.980 . S
H14 C40 0.983 . S
H15 C39 0.979 . S
H16 C39 0.977 . S
C17 C5 1.453 . S
C17 H46 0.982 . S
C17 H47 0.979 . S
C17 H48 0.977 . S
C18 C5 1.684 . S
C18 H43 0.979 . S
C18 H44 0.980 . S
C18 H45 0.983 . S
C19 C20 1.391 . S
C19 C24 1.391 . S
C19 H49 0.948 . S
C20 C19 1.391 . S
C20 C21 1.391 . S
C21 C20 1.391 . S
C21 C22 1.392 . S
C21 H50 0.947 . S
C22 C21 1.392 . S
C22 C23 1.419 . S
C22 H51 0.948 . S
C23 C22 1.419 . S
C23 C24 1.391 . S
C23 C27 1.397 . S
C24 C19 1.391 . S
C24 C23 1.391 . S
C24 C25 1.399 . S
C25 C24 1.399 . S
C25 C26 1.396 . S
C25 C28 1.453 . S
C25 C29 1.684 . S
C26 C7 1.723 . S
C26 C25 1.396 . S
C26 C27 1.394 . S
C27 C23 1.397 . S
C27 C26 1.394 . S
C27 C37 1.723 . S
C28 C25 1.453 . S
C28 H52 0.982 . S
C28 H53 0.979 . S
C28 H54 0.977 . S
C29 C25 1.684 . S
C29 H55 0.979 . S
C29 H56 0.980 . S
C29 H57 0.983 . S
C30 H6 0.948 . S
C30 C31 1.391 . S
C30 C35 1.391 . S
C31 C30 1.391 . S
C31 C32 1.391 . S
C32 H9 0.947 . S
C32 C31 1.391 . S
C32 C33 1.392 . S
C33 H10 0.948 . S
C33 C32 1.392 . S
C33 C34 1.419 . S
C34 C33 1.419 . S
C34 C35 1.391 . S
C34 C38 1.397 . S
C35 C30 1.391 . S
C35 C34 1.391 . S
C35 C36 1.399 . S
C36 C35 1.399 . S
C36 C37 1.396 . S
C36 C39 1.453 . S
C36 C40 1.684 . S
C37 C27 1.723 . S
C37 C36 1.396 . S
C37 C38 1.394 . S
C38 C8 1.723 . S
C38 C34 1.397 . S
C38 C37 1.394 . S
C39 H11 0.982 . S
C39 H15 0.979 . S
C39 H16 0.977 . S
C39 C36 1.453 . S
C40 H12 0.979 . S
C40 H13 0.980 . S
C40 H14 0.983 . S
C40 C36 1.684 . S
H41 C59 0.948 . S
H42 C0 0.948 . S
H43 C18 0.979 . S
H44 C18 0.980 . S
H45 C18 0.983 . S
H46 C17 0.982 . S
H47 C17 0.979 . S
H48 C17 0.977 . S
H49 C19 0.948 . S
H50 C21 0.947 . S
H51 C22 0.948 . S
H52 C28 0.982 . S
H53 C28 0.979 . S
H54 C28 0.977 . S
H55 C29 0.979 . S
H56 C29 0.980 . S
H57 C29 0.983 . S
H58 C2 0.947 . S
C59 C2 1.392 . S
C59 C3 1.419 . S
C59 H41 0.948 . S
C60 C61 1.391 . S
C60 C64 1.391 . S
C60 H102 0.948 . S
C61 C60 1.391 . S
C61 C62 1.391 . S
C62 C61 1.391 . S
C62 H118 0.947 . S
C62 C119 1.392 . S
C63 C64 1.391 . S
C63 C67 1.397 . S
C63 C119 1.419 . S
C64 C60 1.391 . S
C64 C63 1.391 . S
C64 C65 1.399 . S
C65 C64 1.399 . S
C65 C68 1.396 . S
C65 C77 1.453 . S
C65 C78 1.684 . S
H66 C90 0.948 . S
C67 C63 1.397 . S
C67 C68 1.394 . S
C67 C86 1.723 . S
C68 C65 1.396 . S
C68 C67 1.394 . S
C68 C98 1.723 . S
H69 C92 0.947 . S
H70 C93 0.948 . S
H71 C99 0.982 . S
H72 C100 0.979 . S
H73 C100 0.980 . S
H74 C100 0.983 . S
H75 C99 0.979 . S
H76 C99 0.977 . S
C77 C65 1.453 . S
C77 H106 0.982 . S
C77 H107 0.979 . S
C77 H108 0.977 . S
C78 C65 1.684 . S
C78 H103 0.979 . S
C78 H104 0.980 . S
C78 H105 0.983 . S
C79 C80 1.391 . S
C79 C84 1.391 . S
C79 H109 0.948 . S
C80 C79 1.391 . S
C80 C81 1.391 . S
C81 C80 1.391 . S
C81 C82 1.392 . S
C81 H110 0.947 . S
C82 C81 1.392 . S
C82 C83 1.419 . S
C82 H111 0.948 . S
C83 C82 1.419 . S
C83 C84 1.391 . S
C83 C87 1.397 . S
C84 C79 1.391 . S
C84 C83 1.391 . S
C84 C85 1.399 . S
C85 C84 1.399 . S
C85 C86 1.396 . S
C85 C88 1.453 . S
C85 C89 1.684 . S
C86 C67 1.723 . S
C86 C85 1.396 . S
C86 C87 1.394 . S
C87 C83 1.397 . S
C87 C86 1.394 . S
C87 C97 1.723 . S
C88 C85 1.453 . S
C88 H112 0.982 . S
C88 H113 0.979 . S
C88 H114 0.977 . S
C89 C85 1.684 . S
C89 H115 0.979 . S
C89 H116 0.980 . S
C89 H117 0.983 . S
C90 H66 0.948 . S
C90 C91 1.391 . S
C90 C95 1.391 . S
C91 C90 1.391 . S
C91 C92 1.391 . S
C92 H69 0.947 . S
C92 C91 1.391 . S
C92 C93 1.392 . S
C93 H70 0.948 . S
C93 C92 1.392 . S
C93 C94 1.419 . S
C94 C93 1.419 . S
C94 C95 1.391 . S
C94 C98 1.397 . S
C95 C90 1.391 . S
C95 C94 1.391 . S
C95 C96 1.399 . S
C96 C95 1.399 . S
C96 C97 1.396 . S
C96 C99 1.453 . S
C96 C100 1.684 . S
C97 C87 1.723 . S
C97 C96 1.396 . S
C97 C98 1.394 . S
C98 C68 1.723 . S
C98 C94 1.397 . S
C98 C97 1.394 . S
C99 H71 0.982 . S
C99 H75 0.979 . S
C99 H76 0.977 . S
C99 C96 1.453 . S
C100 H72 0.979 . S
C100 H73 0.980 . S
C100 H74 0.983 . S
C100 C96 1.684 . S
H101 C119 0.948 . S
H102 C60 0.948 . S
H103 C78 0.979 . S
H104 C78 0.980 . S
H105 C78 0.983 . S
H106 C77 0.982 . S
H107 C77 0.979 . S
H108 C77 0.977 . S
H109 C79 0.948 . S
H110 C81 0.947 . S
H111 C82 0.948 . S
H112 C88 0.982 . S
H113 C88 0.979 . S
H114 C88 0.977 . S
H115 C89 0.979 . S
H116 C89 0.980 . S
H117 C89 0.983 . S
H118 C62 0.947 . S
C119 C62 1.392 . S
C119 C63 1.419 . S
C119 H101 0.948 . S
C120 C121 1.391 . S
C120 C124 1.391 . S
C120 H162 0.948 . S
C121 C120 1.391 . S
C121 C122 1.391 . S
C122 C121 1.391 . S
C122 H178 0.947 . S
C122 C179 1.392 . S
C123 C124 1.391 . S
C123 C127 1.397 . S
C123 C179 1.419 . S
C124 C120 1.391 . S
C124 C123 1.391 . S
C124 C125 1.399 . S
C125 C124 1.399 . S
C125 C128 1.396 . S
C125 C137 1.453 . S
C125 C138 1.684 . S
H126 C150 0.948 . S
C127 C123 1.397 . S
C127 C128 1.394 . S
C127 C146 1.723 . S
C128 C125 1.396 . S
C128 C127 1.394 . S
C128 C158 1.723 . S
H129 C152 0.947 . S
H130 C153 0.948 . S
H131 C159 0.982 . S
H132 C160 0.979 . S
H133 C160 0.980 . S
H134 C160 0.983 . S
H135 C159 0.979 . S
H136 C159 0.977 . S
C137 C125 1.453 . S
C137 H166 0.982 . S
C137 H167 0.979 . S
C137 H168 0.977 . S
C138 C125 1.684 . S
C138 H163 0.979 . S
C138 H164 0.980 . S
C138 H165 0.983 . S
C139 C140 1.391 . S
C139 C144 1.391 . S
C139 H169 0.948 . S
C140 C139 1.391 . S
C140 C141 1.391 . S
C141 C140 1.391 . S
C141 C142 1.392 . S
C141 H170 0.947 . S
C142 C141 1.392 . S
C142 C143 1.419 . S
C142 H171 0.948 . S
C143 C142 1.419 . S
C143 C144 1.391 . S
C143 C147 1.397 . S
C144 C139 1.391 . S
C144 C143 1.391 . S
C144 C145 1.399 . S
C145 C144 1.399 . S
C145 C146 1.396 . S
C145 C148 1.453 . S
C145 C149 1.684 . S
C146 C127 1.723 . S
C146 C145 1.396 . S
C146 C147 1.394 . S
C147 C143 1.397 . S
C147 C146 1.394 . S
C147 C157 1.723 . S
C148 C145 1.453 . S
C148 H172 0.982 . S
C148 H173 0.979 . S
C148 H174 0.977 . S
C149 C145 1.684 . S
C149 H175 0.979 . S
C149 H176 0.980 . S
C149 H177 0.983 . S
C150 H126 0.948 . S
C150 C151 1.391 . S
C150 C155 1.391 . S
C151 C150 1.391 . S
C151 C152 1.391 . S
C152 H129 0.947 . S
C152 C151 1.391 . S
C152 C153 1.392 . S
C153 H130 0.948 . S
C153 C152 1.392 . S
C153 C154 1.419 . S
C154 C153 1.419 . S
C154 C155 1.391 . S
C154 C158 1.397 . S
C155 C150 1.391 . S
C155 C154 1.391 . S
C155 C156 1.399 . S
C156 C155 1.399 . S
C156 C157 1.396 . S
C156 C159 1.453 . S
C156 C160 1.684 . S
C157 C147 1.723 . S
C157 C156 1.396 . S
C157 C158 1.394 . S
C158 C128 1.723 . S
C158 C154 1.397 . S
C158 C157 1.394 . S
C159 H131 0.982 . S
C159 H135 0.979 . S
C159 H136 0.977 . S
C159 C156 1.453 . S
C160 H132 0.979 . S
C160 H133 0.980 . S
C160 H134 0.983 . S
C160 C156 1.684 . S
H161 C179 0.948 . S
H162 C120 0.948 . S
H163 C138 0.979 . S
H164 C138 0.980 . S
H165 C138 0.983 . S
H166 C137 0.982 . S
H167 C137 0.979 . S
H168 C137 0.977 . S
H169 C139 0.948 . S
H170 C141 0.947 . S
H171 C142 0.948 . S
H172 C148 0.982 . S
H173 C148 0.979 . S
H174 C148 0.977 . S
H175 C149 0.979 . S
H176 C149 0.980 . S
H177 C149 0.983 . S
H178 C122 0.947 . S
C179 C122 1.392 . S
C179 C123 1.419 . S
C179 H161 0.948 . S
C180 C181 1.391 . S
C180 C184 1.391 . S
C180 H222 0.948 . S
C181 C180 1.391 . S
C181 C182 1.391 . S
C182 C181 1.391 . S
C182 H238 0.947 . S
C182 C239 1.392 . S
C183 C184 1.391 . S
C183 C187 1.397 . S
C183 C239 1.419 . S
C184 C180 1.391 . S
C184 C183 1.391 . S
C184 C185 1.399 . S
C185 C184 1.399 . S
C185 C188 1.396 . S
C185 C197 1.453 . S
C185 C198 1.684 . S
H186 C210 0.948 . S
C187 C183 1.397 . S
C187 C188 1.394 . S
C187 C206 1.723 . S
C188 C185 1.396 . S
C188 C187 1.394 . S
C188 C218 1.723 . S
H189 C212 0.947 . S
H190 C213 0.948 . S
H191 C219 0.982 . S
H192 C220 0.979 . S
H193 C220 0.980 . S
H194 C220 0.983 . S
H195 C219 0.979 . S
H196 C219 0.977 . S
C197 C185 1.453 . S
C197 H226 0.982 . S
C197 H227 0.979 . S
C197 H228 0.977 . S
C198 C185 1.684 . S
C198 H223 0.979 . S
C198 H224 0.980 . S
C198 H225 0.983 . S
C199 C200 1.391 . S
C199 C204 1.391 . S
C199 H229 0.948 . S
C200 C199 1.391 . S
C200 C201 1.391 . S
C201 C200 1.391 . S
C201 C202 1.392 . S
C201 H230 0.947 . S
C202 C201 1.392 . S
C202 C203 1.419 . S
C202 H231 0.948 . S
C203 C202 1.419 . S
C203 C204 1.391 . S
C203 C207 1.397 . S
C204 C199 1.391 . S
C204 C203 1.391 . S
C204 C205 1.399 . S
C205 C204 1.399 . S
C205 C206 1.396 . S
C205 C208 1.453 . S
C205 C209 1.684 . S
C206 C187 1.723 . S
C206 C205 1.396 . S
C206 C207 1.394 . S
C207 C203 1.397 . S
C207 C206 1.394 . S
C207 C217 1.723 . S
C208 C205 1.453 . S
C208 H232 0.982 . S
C208 H233 0.979 . S
C208 H234 0.977 . S
C209 C205 1.684 . S
C209 H235 0.979 . S
C209 H236 0.980 . S
C209 H237 0.983 . S
C210 H186 0.948 . S
C210 C211 1.391 . S
C210 C215 1.391 . S
C211 C210 1.391 . S
C211 C212 1.391 . S
C212 H189 0.947 . S
C212 C211 1.391 . S
C212 C213 1.392 . S
C213 H190 0.948 . S
C213 C212 1.392 . S
C213 C214 1.419 . S
C214 C213 1.419 . S
C214 C215 1.391 . S
C214 C218 1.397 . S
C215 C210 1.391 . S
C215 C214 1.391 . S
C215 C216 1.399 . S
C216 C215 1.399 . S
C216 C217 1.396 . S
C216 C219 1.453 . S
C216 C220 1.684 . S
C217 C207 1.723 . S
C217 C216 1.396 . S
C217 C218 1.394 . S
C218 C188 1.723 . S
C218 C214 1.397 . S
C218 C217 1.394 . S
C219 H191 0.982 . S
C219 H195 0.979 . S
C219 H196 0.977 . S
C219 C216 1.453 . S
C220 H192 0.979 . S
C220 H193 0.980 . S
C220 H194 0.983 . S
C220 C216 1.684 . S
H221 C239 0.948 . S
H222 C180 0.948 . S
H223 C198 0.979 . S
H224 C198 0.980 . S
H225 C198 0.983 . S
H226 C197 0.982 . S
H227 C197 0.979 . S
H228 C197 0.977 . S
H229 C199 0.948 . S
H230 C201 0.947 . S
H231 C202 0.948 . S
H232 C208 0.982 . S
H233 C208 0.979 . S
H234 C208 0.977 . S
H235 C209 0.979 . S
H236 C209 0.980 . S
H237 C209 0.983 . S
H238 C182 0.947 . S
C239 C182 1.392 . S
C239 C183 1.419 . S
C239 H221 0.948 . S
C240 C241 1.391 . S
C240 C244 1.391 . S
C240 H282 0.948 . S
C241 C240 1.391 . S
C241 C242 1.391 . S
C242 C241 1.391 . S
C242 H298 0.947 . S
C242 C299 1.392 . S
C243 C244 1.391 . S
C243 C247 1.397 . S
C243 C299 1.419 . S
C244 C240 1.391 . S
C244 C243 1.391 . S
C244 C245 1.399 . S
C245 C244 1.399 . S
C245 C248 1.396 . S
C245 C257 1.453 . S
C245 C258 1.684 . S
H246 C270 0.948 . S
C247 C243 1.397 . S
C247 C248 1.394 . S
C247 C266 1.723 . S
C248 C245 1.396 . S
C248 C247 1.394 . S
C248 C278 1.723 . S
H249 C272 0.947 . S
H250 C273 0.948 . S
H251 C279 0.982 . S
H252 C280 0.979 . S
H253 C280 0.980 . S
H254 C280 0.983 . S
H255 C279 0.979 . S
H256 C279 0.977 . S
C257 C245 1.453 . S
C257 H286 0.982 . S
C257 H287 0.979 . S
C257 H288 0.977 . S
C258 C245 1.684 . S
C258 H283 0.979 . S
C258 H284 0.980 . S
C258 H285 0.983 . S
C259 C260 1.391 . S
C259 C264 1.391 . S
C259 H289 0.948 . S
C260 C259 1.391 . S
C260 C261 1.391 . S
C261 C260 1.391 . S
C261 C262 1.392 . S
C261 H290 0.947 . S
C262 C261 1.392 . S
C262 C263 1.419 . S
C262 H291 0.948 . S
C263 C262 1.419 . S
C263 C264 1.391 . S
C263 C267 1.397 . S
C264 C259 1.391 . S
C264 C263 1.391 . S
C264 C265 1.399 . S
C265 C264 1.399 . S
C265 C266 1.396 . S
C265 C268 1.453 . S
C265 C269 1.684 . S
C266 C247 1.723 . S
C266 C265 1.396 . S
C266 C267 1.394 . S
C267 C263 1.397 . S
C267 C266 1.394 . S
C267 C277 1.723 . S
C268 C265 1.453 . S
C268 H292 0.982 . S
C268 H293 0.979 . S
C268 H294 0.977 . S
C269 C265 1.684 . S
C269 H295 0.979 . S
C269 H296 0.980 . S
C269 H297 0.983 . S
C270 H246 0.948 . S
C270 C271 1.391 . S
C270 C275 1.391 . S
C271 C270 1.391 . S
C271 C272 1.391 . S
C272 H249 0.947 . S
C272 C271 1.391 . S
C272 C273 1.392 . S
C273 H250 0.948 . S
C273 C272 1.392 . S
C273 C274 1.419 . S
C274 C273 1.419 . S
C274 C275 1.391 . S
C274 C278 1.397 . S
C275 C270 1.391 . S
C275 C274 1.391 . S
C275 C276 1.399 . S
C276 C275 1.399 . S
C276 C277 1.396 . S
C276 C279 1.453 . S
C276 C280 1.684 . S
C277 C267 1.723 . S
C277 C276 1.396 . S
C277 C278 1.394 . S
C278 C248 1.723 . S
C278 C274 1.397 . S
C278 C277 1.394 . S
C279 H251 0.982 . S
C279 H255 0.979 . S
C279 H256 0.977 . S
C279 C276 1.453 . S
C280 H252 0.979 . S
C280 H253 0.980 . S
C280 H254 0.983 . S
C280 C276 1.684 . S
H281 C299 0.948 . S
H282 C240 0.948 . S
H283 C258 0.979 . S
H284 C258 0.980 . S
H285 C258 0.983 . S
H286 C257 0.982 . S
H287 C257 0.979 . S
H288 C257 0.977 . S
H289 C259 0.948 . S
H290 C261 0.947 . S
H291 C262 0.948 . S
H292 C268 0.982 . S
H293 C268 0.979 . S
H294 C268 0.977 . S
H295 C269 0.979 . S
H296 C269 0.980 . S
H297 C269 0.983 . S
H298 C242 0.947 . S
C299 C242 1.392 . S
C299 C243 1.419 . S
C299 H281 0.948 . S
C300 C301 1.391 . S
C300 C304 1.391 . S
C300 H342 0.948 . S
C301 C300 1.391 . S
C301 C302 1.391 . S
C302 C301 1.391 . S
C302 H358 0.947 . S
C302 C359 1.392 . S
C303 C304 1.391 . S
C303 C307 1.397 . S
C303 C359 1.419 . S
C304 C300 1.391 . S
C304 C303 1.391 . S
C304 C305 1.399 . S
C305 C304 1.399 . S
C305 C308 1.396 . S
C305 C317 1.453 . S
C305 C318 1.684 . S
H306 C330 0.948 . S
C307 C303 1.397 . S
C307 C308 1.394 . S
C307 C326 1.723 . S
C308 C305 1.396 . S
C308 C307 1.394 . S
C308 C338 1.723 . S
H309 C332 0.947 . S
H310 C333 0.948 . S
H311 C339 0.982 . S
H312 C340 0.979 . S
H313 C340 0.980 . S
H314 C340 0.983 . S
H315 C339 0.979 . S
H316 C339 0.977 . S
C317 C305 1.453 . S
C317 H346 0.982 . S
C317 H347 0.979 . S
C317 H348 0.977 . S
C318 C305 1.684 . S
C318 H343 0.979 . S
C318 H344 0.980 . S
C318 H345 0.983 . S
C319 C320 1.391 . S
C319 C324 1.391 . S
C319 H349 0.948 . S
C320 C319 1.391 . S
C320 C321 1.391 . S
C321 C320 1.391 . S
C321 C322 1.392 . S
C321 H350 0.947 . S
C322 C321 1.392 . S
C322 C323 1.419 . S
C322 H351 0.948 . S
C323 C322 1.419 . S
C323 C324 1.391 . S
C323 C327 1.397 . S
C324 C319 1.391 . S
C324 C323 1.391 . S
C324 C325 1.399 . S
C325 C324 1.399 . S
C325 C326 1.396 . S
C325 C328 1.453 . S
C325 C329 1.684 . S
C326 C307 1.723 . S
C326 C325 1.396 . S
C326 C327 1.394 . S
C327 C323 1.397 . S
C327 C326 1.394 . S
C327 C337 1.723 . S
C328 C325 1.453 . S
C328 H352 0.982 . S
C328 H353 0.979 . S
C328 H354 0.977 . S
C329 C325 1.684 . S
C329 H355 0.979 . S
C329 H356 0.980 . S
C329 H357 0.983 . S
C330 H306 0.948 . S
C330 C331 1.391 . S
C330 C335 1.391 . S
C331 C330 1.391 . S
C331 C332 1.391 . S
C332 H309 0.947 . S
C332 C331 1.391 . S
C332 C333 1.392 . S
C333 H310 0.948 . S
C333 C332 1.392 . S
C333 C334 1.419 . S
C334 C333 1.419 . S
C334 C335 1.391 . S
C334 C338 1.397 . S
C335 C330 1.391 . S
C335 C334 1.391 . S
C335 C336 1.399 . S
C336 C335 1.399 . S
C336 C337 1.396 . S
C336 C339 1.453 . S
C336 C340 1.684 . S
C337 C327 1.723 . S
C337 C336 1.396 . S
C337 C338 1.394 . S
C338 C308 1.723 . S
C338 C334 1.397 . S
C338 C337 1.394 . S
C339 H311 0.982 . S
C339 H315 0.979 . S
C339 H316 0.977 . S
C339 C336 1.453 . S
C340 H312 0.979 . S
C340 H313 0.980 . S
C340 H314 0.983 . S
C340 C336 1.684 . S
H341 C359 0.948 . S
H342 C300 0.948 . S
H343 C318 0.979 . S
H344 C318 0.980 . S
H345 C318 0.983 . S
H346 C317 0.982 . S
H347 C317 0.979 . S
H348 C317 0.977 . S
H349 C319 0.948 . S
H350 C321 0.947 . S
H351 C322 0.948 . S
H352 C328 0.982 . S
H353 C328 0.979 . S
H354 C328 0.977 . S
H355 C329 0.979 . S
H356 C329 0.980 . S
H357 C329 0.983 . S
H358 C302 0.947 . S
C359 C302 1.392 . S
C359 C303 1.419 . S
C359 H341 0.948 . S
C360 C361 1.391 . S
C360 C364 1.391 . S
C360 H402 0.948 . S
C361 C360 1.391 . S
C361 C362 1.391 . S
C362 C361 1.391 . S
C362 H418 0.947 . S
C362 C419 1.392 . S
C363 C364 1.391 . S
C363 C367 1.397 . S
C363 C419 1.419 . S
C364 C360 1.391 . S
C364 C363 1.391 . S
C364 C365 1.399 . S
C365 C364 1.399 . S
C365 C368 1.396 . S
C365 C377 1.453 . S
C365 C378 1.684 . S
H366 C390 0.948 . S
C367 C363 1.397 . S
C367 C368 1.394 . S
C367 C386 1.723 . S
C368 C365 1.396 . S
C368 C367 1.394 . S
C368 C398 1.723 . S
H369 C392 0.947 . S
H370 C393 0.948 . S
H371 C399 0.982 . S
H372 C400 0.979 . S
H373 C400 0.980 . S
H374 C400 0.983 . S
H375 C399 0.979 . S
H376 C399 0.977 . S
C377 C365 1.453 . S
C377 H406 0.982 . S
C377 H407 0.979 . S
C377 H408 0.977 . S
C378 C365 1.684 . S
C378 H403 0.979 . S
C378 H404 0.980 . S
C378 H405 0.983 . S
C379 C380 1.391 . S
C379 C384 1.391 . S
C379 H409 0.948 . S
C380 C379 1.391 . S
C380 C381 1.391 . S
C381 C380 1.391 . S
C381 C382 1.392 . S
C381 H410 0.947 . S
C382 C381 1.392 . S
C382 C383 1.419 . S
C382 H411 0.948 . S
C383 C382 1.419 . S
C383 C384 1.391 . S
C383 C387 1.397 . S
C384 C379 1.391 . S
C384 C383 1.391 . S
C384 C385 1.399 . S
C385 C384 1.399 . S
C385 C386 1.396 . S
C385 C388 1.453 . S
C385 C389 1.684 . S
C386 C367 1.723 . S
C386 C385 1.396 . S
C386 C387 1.394 . S
C387 C383 1.397 . S
C387 C386 1.394 . S
C387 C397 1.723 . S
C388 C385 1.453 . S
C388 H412 0.982 1_655 S
C388 H413 0.979 . S
C388 H414 0.977 . S
C389 C385 1.684 . S
C389 H415 0.979 . S
C389 H416 0.980 . S
C389 H417 0.983 . S
C390 H366 0.948 . S
C390 C391 1.391 . S
C390 C395 1.391 . S
C391 C390 1.391 . S
C391 C392 1.391 . S
C392 H369 0.947 . S
C392 C391 1.391 . S
C392 C393 1.392 . S
C393 H370 0.948 . S
C393 C392 1.392 . S
C393 C394 1.419 . S
C394 C393 1.419 . S
C394 C395 1.391 . S
C394 C398 1.397 . S
C395 C390 1.391 . S
C395 C394 1.391 . S
C395 C396 1.399 . S
C396 C395 1.399 . S
C396 C397 1.396 . S
C396 C399 1.453 . S
C396 C400 1.684 . S
C397 C387 1.723 . S
C397 C396 1.396 . S
C397 C398 1.394 . S
C398 C368 1.723 . S
C398 C394 1.397 . S
C398 C397 1.394 . S
C399 H371 0.982 . S
C399 H375 0.979 . S
C399 H376 0.977 . S
C399 C396 1.453 . S
C400 H372 0.979 . S
C400 H373 0.980 . S
C400 H374 0.983 . S
C400 C396 1.684 . S
H401 C419 0.948 . S
H402 C360 0.948 . S
H403 C378 0.979 . S
H404 C378 0.980 . S
H405 C378 0.983 . S
H406 C377 0.982 . S
H407 C377 0.979 . S
H408 C377 0.977 . S
H409 C379 0.948 . S
H410 C381 0.947 . S
H411 C382 0.948 . S
H412 C388 0.982 1_455 S
H413 C388 0.979 . S
H414 C388 0.977 . S
H415 C389 0.979 . S
H416 C389 0.980 . S
H417 C389 0.983 . S
H418 C362 0.947 . S
C419 C362 1.392 . S
C419 C363 1.419 . S
C419 H401 0.948 . S
C420 C421 1.391 . S
C420 C424 1.391 . S
C420 H462 0.948 . S
C421 C420 1.391 . S
C421 C422 1.391 . S
C422 C421 1.391 . S
C422 H478 0.947 . S
C422 C479 1.392 . S
C423 C424 1.391 . S
C423 C427 1.397 . S
C423 C479 1.419 . S
C424 C420 1.391 . S
C424 C423 1.391 . S
C424 C425 1.399 . S
C425 C424 1.399 . S
C425 C428 1.396 . S
C425 C437 1.453 . S
C425 C438 1.684 . S
H426 C450 0.948 . S
C427 C423 1.397 . S
C427 C428 1.394 . S
C427 C446 1.723 . S
C428 C425 1.396 . S
C428 C427 1.394 . S
C428 C458 1.723 . S
H429 C452 0.947 . S
H430 C453 0.948 . S
H431 C459 0.982 . S
H432 C460 0.979 . S
H433 C460 0.980 . S
H434 C460 0.983 . S
H435 C459 0.979 . S
H436 C459 0.977 . S
C437 C425 1.453 . S
C437 H466 0.982 . S
C437 H467 0.979 . S
C437 H468 0.977 . S
C438 C425 1.684 . S
C438 H463 0.979 . S
C438 H464 0.980 . S
C438 H465 0.983 . S
C439 C440 1.391 . S
C439 C444 1.391 . S
C439 H469 0.948 . S
C440 C439 1.391 . S
C440 C441 1.391 . S
C441 C440 1.391 . S
C441 C442 1.392 . S
C441 H470 0.947 . S
C442 C441 1.392 . S
C442 C443 1.419 . S
C442 H471 0.948 . S
C443 C442 1.419 . S
C443 C444 1.391 . S
C443 C447 1.397 . S
C444 C439 1.391 . S
C444 C443 1.391 . S
C444 C445 1.399 . S
C445 C444 1.399 . S
C445 C446 1.396 . S
C445 C448 1.453 . S
C445 C449 1.684 . S
C446 C427 1.723 . S
C446 C445 1.396 . S
C446 C447 1.394 . S
C447 C443 1.397 . S
C447 C446 1.394 . S
C447 C457 1.723 . S
C448 C445 1.453 . S
C448 H472 0.982 . S
C448 H473 0.979 . S
C448 H474 0.977 . S
C449 C445 1.684 . S
C449 H475 0.979 . S
C449 H476 0.980 . S
C449 H477 0.983 . S
C450 H426 0.948 . S
C450 C451 1.391 . S
C450 C455 1.391 . S
C451 C450 1.391 . S
C451 C452 1.391 . S
C452 H429 0.947 . S
C452 C451 1.391 . S
C452 C453 1.392 . S
C453 H430 0.948 . S
C453 C452 1.392 . S
C453 C454 1.419 . S
C454 C453 1.419 . S
C454 C455 1.391 . S
C454 C458 1.397 . S
C455 C450 1.391 . S
C455 C454 1.391 . S
C455 C456 1.399 . S
C456 C455 1.399 . S
C456 C457 1.396 . S
C456 C459 1.453 . S
C456 C460 1.684 . S
C457 C447 1.723 . S
C457 C456 1.396 . S
C457 C458 1.394 . S
C458 C428 1.723 . S
C458 C454 1.397 . S
C458 C457 1.394 . S
C459 H431 0.982 . S
C459 H435 0.979 . S
C459 H436 0.977 . S
C459 C456 1.453 . S
C460 H432 0.979 . S
C460 H433 0.980 . S
C460 H434 0.983 . S
C460 C456 1.684 . S
H461 C479 0.948 . S
H462 C420 0.948 . S
H463 C438 0.979 . S
H464 C438 0.980 . S
H465 C438 0.983 . S
H466 C437 0.982 . S
H467 C437 0.979 . S
H468 C437 0.977 . S
H469 C439 0.948 . S
H470 C441 0.947 . S
H471 C442 0.948 . S
H472 C448 0.982 . S
H473 C448 0.979 . S
H474 C448 0.977 . S
H475 C449 0.979 . S
H476 C449 0.980 . S
H477 C449 0.983 . S
H478 C422 0.947 . S
C479 C422 1.392 . S
C479 C423 1.419 . S
C479 H461 0.948 . S
C480 C481 1.391 . S
C480 C484 1.391 . S
C480 H522 0.948 . S
C481 C480 1.391 . S
C481 C482 1.391 . S
C482 C481 1.391 . S
C482 H538 0.947 . S
C482 C539 1.392 . S
C483 C484 1.391 . S
C483 C487 1.397 . S
C483 C539 1.419 . S
C484 C480 1.391 . S
C484 C483 1.391 . S
C484 C485 1.399 . S
C485 C484 1.399 . S
C485 C488 1.396 . S
C485 C497 1.453 . S
C485 C498 1.684 . S
H486 C510 0.948 . S
C487 C483 1.397 . S
C487 C488 1.394 . S
C487 C506 1.723 . S
C488 C485 1.396 . S
C488 C487 1.394 . S
C488 C518 1.723 . S
H489 C512 0.947 . S
H490 C513 0.948 . S
H491 C519 0.982 . S
H492 C520 0.979 . S
H493 C520 0.980 . S
H494 C520 0.983 . S
H495 C519 0.979 . S
H496 C519 0.977 . S
C497 C485 1.453 . S
C497 H526 0.982 . S
C497 H527 0.979 . S
C497 H528 0.977 . S
C498 C485 1.684 . S
C498 H523 0.979 . S
C498 H524 0.980 . S
C498 H525 0.983 . S
C499 C500 1.391 . S
C499 C504 1.391 . S
C499 H529 0.948 . S
C500 C499 1.391 . S
C500 C501 1.391 . S
C501 C500 1.391 . S
C501 C502 1.392 . S
C501 H530 0.947 . S
C502 C501 1.392 . S
C502 C503 1.419 . S
C502 H531 0.948 . S
C503 C502 1.419 . S
C503 C504 1.391 . S
C503 C507 1.397 . S
C504 C499 1.391 . S
C504 C503 1.391 . S
C504 C505 1.399 . S
C505 C504 1.399 . S
C505 C506 1.396 . S
C505 C508 1.453 . S
C505 C509 1.684 . S
C506 C487 1.723 . S
C506 C505 1.396 . S
C506 C507 1.394 . S
C507 C503 1.397 . S
C507 C506 1.394 . S
C507 C517 1.723 . S
C508 C505 1.453 . S
C508 H532 0.982 . S
C508 H533 0.979 . S
C508 H534 0.977 . S
C509 C505 1.684 . S
C509 H535 0.979 . S
C509 H536 0.980 . S
C509 H537 0.983 . S
C510 H486 0.948 . S
C510 C511 1.391 . S
C510 C515 1.391 . S
C511 C510 1.391 . S
C511 C512 1.391 . S
C512 H489 0.947 . S
C512 C511 1.391 . S
C512 C513 1.392 . S
C513 H490 0.948 . S
C513 C512 1.392 . S
C513 C514 1.419 . S
C514 C513 1.419 . S
C514 C515 1.391 . S
C514 C518 1.397 . S
C515 C510 1.391 . S
C515 C514 1.391 . S
C515 C516 1.399 . S
C516 C515 1.399 . S
C516 C517 1.396 . S
C516 C519 1.453 . S
C516 C520 1.684 . S
C517 C507 1.723 . S
C517 C516 1.396 . S
C517 C518 1.394 . S
C518 C488 1.723 . S
C518 C514 1.397 . S
C518 C517 1.394 . S
C519 H491 0.982 . S
C519 H495 0.979 . S
C519 H496 0.977 . S
C519 C516 1.453 . S
C520 H492 0.979 . S
C520 H493 0.980 . S
C520 H494 0.983 . S
C520 C516 1.684 . S
H521 C539 0.948 . S
H522 C480 0.948 . S
H523 C498 0.979 . S
H524 C498 0.980 . S
H525 C498 0.983 . S
H526 C497 0.982 . S
H527 C497 0.979 . S
H528 C497 0.977 . S
H529 C499 0.948 . S
H530 C501 0.947 . S
H531 C502 0.948 . S
H532 C508 0.982 . S
H533 C508 0.979 . S
H534 C508 0.977 . S
H535 C509 0.979 . S
H536 C509 0.980 . S
H537 C509 0.983 . S
H538 C482 0.947 . S
C539 C482 1.392 . S
C539 C483 1.419 . S
C539 H521 0.948 . S
C540 C541 1.391 . S
C540 C544 1.391 . S
C540 H582 0.948 . S
C541 C540 1.391 . S
C541 C542 1.391 . S
C542 C541 1.391 . S
C542 H598 0.947 . S
C542 C599 1.392 . S
C543 C544 1.391 . S
C543 C547 1.397 . S
C543 C599 1.419 . S
C544 C540 1.391 . S
C544 C543 1.391 . S
C544 C545 1.399 . S
C545 C544 1.399 . S
C545 C548 1.396 . S
C545 C557 1.453 . S
C545 C558 1.684 . S
H546 C570 0.948 . S
C547 C543 1.397 . S
C547 C548 1.394 . S
C547 C566 1.723 . S
C548 C545 1.396 . S
C548 C547 1.394 . S
C548 C578 1.723 . S
H549 C572 0.947 . S
H550 C573 0.948 . S
H551 C579 0.982 . S
H552 C580 0.979 . S
H553 C580 0.980 . S
H554 C580 0.983 . S
H555 C579 0.979 . S
H556 C579 0.977 . S
C557 C545 1.453 . S
C557 H586 0.982 . S
C557 H587 0.979 . S
C557 H588 0.977 . S
C558 C545 1.684 . S
C558 H583 0.979 . S
C558 H584 0.980 . S
C558 H585 0.983 . S
C559 C560 1.391 . S
C559 C564 1.391 . S
C559 H589 0.948 . S
C560 C559 1.391 . S
C560 C561 1.391 . S
C561 C560 1.391 . S
C561 C562 1.392 . S
C561 H590 0.947 . S
C562 C561 1.392 . S
C562 C563 1.419 . S
C562 H591 0.948 . S
C563 C562 1.419 . S
C563 C564 1.391 . S
C563 C567 1.397 . S
C564 C559 1.391 . S
C564 C563 1.391 . S
C564 C565 1.399 . S
C565 C564 1.399 . S
C565 C566 1.396 . S
C565 C568 1.453 . S
C565 C569 1.684 . S
C566 C547 1.723 . S
C566 C565 1.396 . S
C566 C567 1.394 . S
C567 C563 1.397 . S
C567 C566 1.394 . S
C567 C577 1.723 . S
C568 C565 1.453 . S
C568 H592 0.982 . S
C568 H593 0.979 . S
C568 H594 0.977 . S
C569 C565 1.684 . S
C569 H595 0.979 . S
C569 H596 0.980 . S
C569 H597 0.983 . S
C570 H546 0.948 . S
C570 C571 1.391 . S
C570 C575 1.391 . S
C571 C570 1.391 . S
C571 C572 1.391 . S
C572 H549 0.947 . S
C572 C571 1.391 . S
C572 C573 1.392 . S
C573 H550 0.948 . S
C573 C572 1.392 . S
C573 C574 1.419 . S
C574 C573 1.419 . S
C574 C575 1.391 . S
C574 C578 1.397 . S
C575 C570 1.391 . S
C575 C574 1.391 . S
C575 C576 1.399 . S
C576 C575 1.399 . S
C576 C577 1.396 . S
C576 C579 1.453 . S
C576 C580 1.684 . S
C577 C567 1.723 . S
C577 C576 1.396 . S
C577 C578 1.394 . S
C578 C548 1.723 . S
C578 C574 1.397 . S
C578 C577 1.394 . S
C579 H551 0.982 . S
C579 H555 0.979 . S
C579 H556 0.977 . S
C579 C576 1.453 . S
C580 H552 0.979 . S
C580 H553 0.980 . S
C580 H554 0.983 . S
C580 C576 1.684 . S
H581 C599 0.948 . S
H582 C540 0.948 . S
H583 C558 0.979 . S
H584 C558 0.980 . S
H585 C558 0.983 . S
H586 C557 0.982 . S
H587 C557 0.979 . S
H588 C557 0.977 . S
H589 C559 0.948 . S
H590 C561 0.947 . S
H591 C562 0.948 . S
H592 C568 0.982 . S
H593 C568 0.979 . S
H594 C568 0.977 . S
H595 C569 0.979 . S
H596 C569 0.980 . S
H597 C569 0.983 . S
H598 C542 0.947 . S
C599 C542 1.392 . S
C599 C543 1.419 . S
C599 H581 0.948 . S
C600 C601 1.391 . S
C600 C604 1.391 . S
C600 H642 0.948 . S
C601 C600 1.391 . S
C601 C602 1.391 . S
C602 C601 1.391 . S
C602 H658 0.947 . S
C602 C659 1.392 . S
C603 C604 1.391 . S
C603 C607 1.397 . S
C603 C659 1.419 . S
C604 C600 1.391 . S
C604 C603 1.391 . S
C604 C605 1.399 . S
C605 C604 1.399 . S
C605 C608 1.396 . S
C605 C617 1.453 . S
C605 C618 1.684 . S
H606 C630 0.948 . S
C607 C603 1.397 . S
C607 C608 1.394 . S
C607 C626 1.723 . S
C608 C605 1.396 . S
C608 C607 1.394 . S
C608 C638 1.723 . S
H609 C632 0.947 . S
H610 C633 0.948 . S
H611 C639 0.982 . S
H612 C640 0.979 . S
H613 C640 0.980 . S
H614 C640 0.983 . S
H615 C639 0.979 . S
H616 C639 0.977 . S
C617 C605 1.453 . S
C617 H646 0.982 . S
C617 H647 0.979 . S
C617 H648 0.977 . S
C618 C605 1.684 . S
C618 H643 0.979 . S
C618 H644 0.980 . S
C618 H645 0.983 . S
C619 C620 1.391 . S
C619 C624 1.391 . S
C619 H649 0.948 . S
C620 C619 1.391 . S
C620 C621 1.391 . S
C621 C620 1.391 . S
C621 C622 1.392 . S
C621 H650 0.947 . S
C622 C621 1.392 . S
C622 C623 1.419 . S
C622 H651 0.948 . S
C623 C622 1.419 . S
C623 C624 1.391 . S
C623 C627 1.397 . S
C624 C619 1.391 . S
C624 C623 1.391 . S
C624 C625 1.399 . S
C625 C624 1.399 . S
C625 C626 1.396 . S
C625 C628 1.453 . S
C625 C629 1.684 . S
C626 C607 1.723 . S
C626 C625 1.396 . S
C626 C627 1.394 . S
C627 C623 1.397 . S
C627 C626 1.394 . S
C627 C637 1.723 . S
C628 C625 1.453 . S
C628 H652 0.982 . S
C628 H653 0.979 . S
C628 H654 0.977 . S
C629 C625 1.684 . S
C629 H655 0.979 . S
C629 H656 0.980 . S
C629 H657 0.983 . S
C630 H606 0.948 . S
C630 C631 1.391 . S
C630 C635 1.391 . S
C631 C630 1.391 . S
C631 C632 1.391 . S
C632 H609 0.947 . S
C632 C631 1.391 . S
C632 C633 1.392 . S
C633 H610 0.948 . S
C633 C632 1.392 . S
C633 C634 1.419 . S
C634 C633 1.419 . S
C634 C635 1.391 . S
C634 C638 1.397 . S
C635 C630 1.391 . S
C635 C634 1.391 . S
C635 C636 1.399 . S
C636 C635 1.399 . S
C636 C637 1.396 . S
C636 C639 1.453 . S
C636 C640 1.684 . S
C637 C627 1.723 . S
C637 C636 1.396 . S
C637 C638 1.394 . S
C638 C608 1.723 . S
C638 C634 1.397 . S
C638 C637 1.394 . S
C639 H611 0.982 . S
C639 H615 0.979 . S
C639 H616 0.977 . S
C639 C636 1.453 . S
C640 H612 0.979 . S
C640 H613 0.980 . S
C640 H614 0.983 . S
C640 C636 1.684 . S
H641 C659 0.948 . S
H642 C600 0.948 . S
H643 C618 0.979 . S
H644 C618 0.980 . S
H645 C618 0.983 . S
H646 C617 0.982 . S
H647 C617 0.979 . S
H648 C617 0.977 . S
H649 C619 0.948 . S
H650 C621 0.947 . S
H651 C622 0.948 . S
H652 C628 0.982 . S
H653 C628 0.979 . S
H654 C628 0.977 . S
H655 C629 0.979 . S
H656 C629 0.980 . S
H657 C629 0.983 . S
H658 C602 0.947 . S
C659 C602 1.392 . S
C659 C603 1.419 . S
C659 H641 0.948 . S
C660 C661 1.391 . S
C660 C664 1.391 . S
C660 H702 0.948 . S
C661 C660 1.391 . S
C661 C662 1.391 . S
C662 C661 1.391 . S
C662 H718 0.947 . S
C662 C719 1.392 . S
C663 C664 1.391 . S
C663 C667 1.397 . S
C663 C719 1.419 . S
C664 C660 1.391 . S
C664 C663 1.391 . S
C664 C665 1.399 . S
C665 C664 1.399 . S
C665 C668 1.396 . S
C665 C677 1.453 . S
C665 C678 1.684 . S
H666 C690 0.948 . S
C667 C663 1.397 . S
C667 C668 1.394 . S
C667 C686 1.723 . S
C668 C665 1.396 . S
C668 C667 1.394 . S
C668 C698 1.723 . S
H669 C692 0.947 . S
H670 C693 0.948 . S
H671 C699 0.982 . S
H672 C700 0.979 . S
H673 C700 0.980 . S
H674 C700 0.983 . S
H675 C699 0.979 . S
H676 C699 0.977 . S
C677 C665 1.453 . S
C677 H706 0.982 . S
C677 H707 0.979 . S
C677 H708 0.977 . S
C678 C665 1.684 . S
C678 H703 0.979 . S
C678 H704 0.980 . S
C678 H705 0.983 . S
C679 C680 1.391 . S
C679 C684 1.391 . S
C679 H709 0.948 . S
C680 C679 1.391 . S
C680 C681 1.391 . S
C681 C680 1.391 . S
C681 C682 1.392 . S
C681 H710 0.947 . S
C682 C681 1.392 . S
C682 C683 1.419 . S
C682 H711 0.948 . S
C683 C682 1.419 . S
C683 C684 1.391 . S
C683 C687 1.397 . S
C684 C679 1.391 . S
C684 C683 1.391 . S
C684 C685 1.399 . S
C685 C684 1.399 . S
C685 C686 1.396 . S
C685 C688 1.453 . S
C685 C689 1.684 . S
C686 C667 1.723 . S
C686 C685 1.396 . S
C686 C687 1.394 . S
C687 C683 1.397 . S
C687 C686 1.394 . S
C687 C697 1.723 . S
C688 C685 1.453 . S
C688 H712 0.982 . S
C688 H713 0.979 . S
C688 H714 0.977 . S
C689 C685 1.684 . S
C689 H715 0.979 . S
C689 H716 0.980 . S
C689 H717 0.983 . S
C690 H666 0.948 . S
C690 C691 1.391 . S
C690 C695 1.391 . S
C691 C690 1.391 . S
C691 C692 1.391 . S
C692 H669 0.947 . S
C692 C691 1.391 . S
C692 C693 1.392 . S
C693 H670 0.948 . S
C693 C692 1.392 . S
C693 C694 1.419 . S
C694 C693 1.419 . S
C694 C695 1.391 . S
C694 C698 1.397 . S
C695 C690 1.391 . S
C695 C694 1.391 . S
C695 C696 1.399 . S
C696 C695 1.399 . S
C696 C697 1.396 . S
C696 C699 1.453 . S
C696 C700 1.684 . S
C697 C687 1.723 . S
C697 C696 1.396 . S
C697 C698 1.394 . S
C698 C668 1.723 . S
C698 C694 1.397 . S
C698 C697 1.394 . S
C699 H671 0.982 . S
C699 H675 0.979 . S
C699 H676 0.977 . S
C699 C696 1.453 . S
C700 H672 0.979 . S
C700 H673 0.980 . S
C700 H674 0.983 . S
C700 C696 1.684 . S
H701 C719 0.948 . S
H702 C660 0.948 . S
H703 C678 0.979 . S
H704 C678 0.980 . S
H705 C678 0.983 . S
H706 C677 0.982 . S
H707 C677 0.979 . S
H708 C677 0.977 . S
H709 C679 0.948 . S
H710 C681 0.947 . S
H711 C682 0.948 . S
H712 C688 0.982 . S
H713 C688 0.979 . S
H714 C688 0.977 . S
H715 C689 0.979 . S
H716 C689 0.980 . S
H717 C689 0.983 . S
H718 C662 0.947 . S
C719 C662 1.392 . S
C719 C663 1.419 . S
C719 H701 0.948 . S
C720 C721 1.391 . S
C720 C724 1.391 . S
C720 H762 0.948 . S
C721 C720 1.391 . S
C721 C722 1.391 . S
C722 C721 1.391 . S
C722 H778 0.947 . S
C722 C779 1.392 . S
C723 C724 1.391 . S
C723 C727 1.397 . S
C723 C779 1.419 . S
C724 C720 1.391 . S
C724 C723 1.391 . S
C724 C725 1.399 . S
C725 C724 1.399 . S
C725 C728 1.396 . S
C725 C737 1.453 . S
C725 C738 1.684 . S
H726 C750 0.948 . S
C727 C723 1.397 . S
C727 C728 1.394 . S
C727 C746 1.723 . S
C728 C725 1.396 . S
C728 C727 1.394 . S
C728 C758 1.723 . S
H729 C752 0.947 . S
H730 C753 0.948 . S
H731 C759 0.982 . S
H732 C760 0.979 . S
H733 C760 0.980 . S
H734 C760 0.983 . S
H735 C759 0.979 . S
H736 C759 0.977 . S
C737 C725 1.453 . S
C737 H766 0.982 . S
C737 H767 0.979 . S
C737 H768 0.977 . S
C738 C725 1.684 . S
C738 H763 0.979 . S
C738 H764 0.980 . S
C738 H765 0.983 . S
C739 C740 1.391 . S
C739 C744 1.391 . S
C739 H769 0.948 . S
C740 C739 1.391 . S
C740 C741 1.391 . S
C741 C740 1.391 . S
C741 C742 1.392 . S
C741 H770 0.947 . S
C742 C741 1.392 . S
C742 C743 1.419 . S
C742 H771 0.948 . S
C743 C742 1.419 . S
C743 C744 1.391 . S
C743 C747 1.397 . S
C744 C739 1.391 . S
C744 C743 1.391 . S
C744 C745 1.399 . S
C745 C744 1.399 . S
C745 C746 1.396 . S
C745 C748 1.453 . S
C745 C749 1.684 . S
C746 C727 1.723 . S
C746 C745 1.396 . S
C746 C747 1.394 . S
C747 C743 1.397 . S
C747 C746 1.394 . S
C747 C757 1.723 . S
C748 C745 1.453 . S
C748 H772 0.982 . S
C748 H773 0.979 . S
C748 H774 0.977 . S
C749 C745 1.684 . S
C749 H775 0.979 . S
C749 H776 0.980 . S
C749 H777 0.983 . S
C750 H726 0.948 . S
C750 C751 1.391 . S
C750 C755 1.391 . S
C751 C750 1.391 . S
C751 C752 1.391 . S
C752 H729 0.947 . S
C752 C751 1.391 . S
C752 C753 1.392 . S
C753 H730 0.948 . S
C753 C752 1.392 . S
C753 C754 1.419 . S
C754 C753 1.419 . S
C754 C755 1.391 . S
C754 C758 1.397 . S
C755 C750 1.391 . S
C755 C754 1.391 . S
C755 C756 1.399 . S
C756 C755 1.399 . S
C756 C757 1.396 . S
C756 C759 1.453 . S
C756 C760 1.684 . S
C757 C747 1.723 . S
C757 C756 1.396 . S
C757 C758 1.394 . S
C758 C728 1.723 . S
C758 C754 1.397 . S
C758 C757 1.394 . S
C759 H731 0.982 . S
C759 H735 0.979 . S
C759 H736 0.977 . S
C759 C756 1.453 . S
C760 H732 0.979 . S
C760 H733 0.980 . S
C760 H734 0.983 . S
C760 C756 1.684 . S
H761 C779 0.948 . S
H762 C720 0.948 . S
H763 C738 0.979 . S
H764 C738 0.980 . S
H765 C738 0.983 . S
H766 C737 0.982 . S
H767 C737 0.979 . S
H768 C737 0.977 . S
H769 C739 0.948 . S
H770 C741 0.947 . S
H771 C742 0.948 . S
H772 C748 0.982 . S
H773 C748 0.979 . S
H774 C748 0.977 . S
H775 C749 0.979 . S
H776 C749 0.980 . S
H777 C749 0.983 . S
H778 C722 0.947 . S
C779 C722 1.392 . S
C779 C723 1.419 . S
C779 H761 0.948 . S
C780 C781 1.391 . S
C780 C784 1.391 . S
C780 H822 0.948 . S
C781 C780 1.391 . S
C781 C782 1.391 . S
C782 C781 1.391 . S
C782 H838 0.947 . S
C782 C839 1.392 . S
C783 C784 1.391 . S
C783 C787 1.397 . S
C783 C839 1.419 . S
C784 C780 1.391 . S
C784 C783 1.391 . S
C784 C785 1.399 . S
C785 C784 1.399 . S
C785 C788 1.396 . S
C785 C797 1.453 . S
C785 C798 1.684 . S
H786 C810 0.948 . S
C787 C783 1.397 . S
C787 C788 1.394 . S
C787 C806 1.723 . S
C788 C785 1.396 . S
C788 C787 1.394 . S
C788 C818 1.723 . S
H789 C812 0.947 . S
H790 C813 0.948 . S
H791 C819 0.982 . S
H792 C820 0.979 . S
H793 C820 0.980 . S
H794 C820 0.983 . S
H795 C819 0.979 . S
H796 C819 0.977 . S
C797 C785 1.453 . S
C797 H826 0.982 . S
C797 H827 0.979 . S
C797 H828 0.977 . S
C798 C785 1.684 . S
C798 H823 0.979 . S
C798 H824 0.980 . S
C798 H825 0.983 . S
C799 C800 1.391 . S
C799 C804 1.391 . S
C799 H829 0.948 . S
C800 C799 1.391 . S
C800 C801 1.391 . S
C801 C800 1.391 . S
C801 C802 1.392 . S
C801 H830 0.947 . S
C802 C801 1.392 . S
C802 C803 1.419 . S
C802 H831 0.948 . S
C803 C802 1.419 . S
C803 C804 1.391 . S
C803 C807 1.397 . S
C804 C799 1.391 . S
C804 C803 1.391 . S
C804 C805 1.399 . S
C805 C804 1.399 . S
C805 C806 1.396 . S
C805 C808 1.453 . S
C805 C809 1.684 . S
C806 C787 1.723 . S
C806 C805 1.396 . S
C806 C807 1.394 . S
C807 C803 1.397 . S
C807 C806 1.394 . S
C807 C817 1.723 . S
C808 C805 1.453 . S
C808 H832 0.982 . S
C808 H833 0.979 . S
C808 H834 0.977 . S
C809 C805 1.684 . S
C809 H835 0.979 . S
C809 H836 0.980 . S
C809 H837 0.983 . S
C810 H786 0.948 . S
C810 C811 1.391 . S
C810 C815 1.391 . S
C811 C810 1.391 . S
C811 C812 1.391 . S
C812 H789 0.947 . S
C812 C811 1.391 . S
C812 C813 1.392 . S
C813 H790 0.948 . S
C813 C812 1.392 . S
C813 C814 1.419 . S
C814 C813 1.419 . S
C814 C815 1.391 . S
C814 C818 1.397 . S
C815 C810 1.391 . S
C815 C814 1.391 . S
C815 C816 1.399 . S
C816 C815 1.399 . S
C816 C817 1.396 . S
C816 C819 1.453 . S
C816 C820 1.684 . S
C817 C807 1.723 . S
C817 C816 1.396 . S
C817 C818 1.394 . S
C818 C788 1.723 . S
C818 C814 1.397 . S
C818 C817 1.394 . S
C819 H791 0.982 . S
C819 H795 0.979 . S
C819 H796 0.977 . S
C819 C816 1.453 . S
C820 H792 0.979 . S
C820 H793 0.980 . S
C820 H794 0.983 . S
C820 C816 1.684 . S
H821 C839 0.948 . S
H822 C780 0.948 . S
H823 C798 0.979 . S
H824 C798 0.980 . S
H825 C798 0.983 . S
H826 C797 0.982 . S
H827 C797 0.979 . S
H828 C797 0.977 . S
H829 C799 0.948 . S
H830 C801 0.947 . S
H831 C802 0.948 . S
H832 C808 0.982 . S
H833 C808 0.979 . S
H834 C808 0.977 . S
H835 C809 0.979 . S
H836 C809 0.980 . S
H837 C809 0.983 . S
H838 C782 0.947 . S
C839 C782 1.392 . S
C839 C783 1.419 . S
C839 H821 0.948 . S
C840 C841 1.391 . S
C840 C844 1.391 . S
C840 H882 0.948 . S
C841 C840 1.391 . S
C841 C842 1.391 . S
C842 C841 1.391 . S
C842 H898 0.947 . S
C842 C899 1.392 . S
C843 C844 1.391 . S
C843 C847 1.397 . S
C843 C899 1.419 . S
C844 C840 1.391 . S
C844 C843 1.391 . S
C844 C845 1.399 . S
C845 C844 1.399 . S
C845 C848 1.396 . S
C845 C857 1.453 . S
C845 C858 1.684 . S
H846 C870 0.948 . S
C847 C843 1.397 . S
C847 C848 1.394 . S
C847 C866 1.723 . S
C848 C845 1.396 . S
C848 C847 1.394 . S
C848 C878 1.723 . S
H849 C872 0.947 . S
H850 C873 0.948 . S
H851 C879 0.982 . S
H852 C880 0.979 . S
H853 C880 0.980 . S
H854 C880 0.983 . S
H855 C879 0.979 . S
H856 C879 0.977 . S
C857 C845 1.453 . S
C857 H886 0.982 . S
C857 H887 0.979 . S
C857 H888 0.977 . S
C858 C845 1.684 . S
C858 H883 0.979 . S
C858 H884 0.980 . S
C858 H885 0.983 . S
C859 C860 1.391 . S
C859 C864 1.391 . S
C859 H889 0.948 . S
C860 C859 1.391 . S
C860 C861 1.391 . S
C861 C860 1.391 . S
C861 C862 1.392 . S
C861 H890 0.947 . S
C862 C861 1.392 . S
C862 C863 1.419 . S
C862 H891 0.948 . S
C863 C862 1.419 . S
C863 C864 1.391 . S
C863 C867 1.397 . S
C864 C859 1.391 . S
C864 C863 1.391 . S
C864 C865 1.399 . S
C865 C864 1.399 . S
C865 C866 1.396 . S
C865 C868 1.453 . S
C865 C869 1.684 . S
C866 C847 1.723 . S
C866 C865 1.396 . S
C866 C867 1.394 . S
C867 C863 1.397 . S
C867 C866 1.394 . S
C867 C877 1.723 . S
C868 C865 1.453 . S
C868 H892 0.982 . S
C868 H893 0.979 . S
C868 H894 0.977 . S
C869 C865 1.684 . S
C869 H895 0.979 . S
C869 H896 0.980 . S
C869 H897 0.983 . S
C870 H846 0.948 . S
C870 C871 1.391 . S
C870 C875 1.391 . S
C871 C870 1.391 . S
C871 C872 1.391 . S
C872 H849 0.947 . S
C872 C871 1.391 . S
C872 C873 1.392 . S
C873 H850 0.948 . S
C873 C872 1.392 . S
C873 C874 1.419 . S
C874 C873 1.419 . S
C874 C875 1.391 . S
C874 C878 1.397 . S
C875 C870 1.391 . S
C875 C874 1.391 . S
C875 C876 1.399 . S
C876 C875 1.399 . S
C876 C877 1.396 . S
C876 C879 1.453 . S
C876 C880 1.684 . S
C877 C867 1.723 . S
C877 C876 1.396 . S
C877 C878 1.394 . S
C878 C848 1.723 . S
C878 C874 1.397 . S
C878 C877 1.394 . S
C879 H851 0.982 . S
C879 H855 0.979 . S
C879 H856 0.977 . S
C879 C876 1.453 . S
C880 H852 0.979 . S
C880 H853 0.980 . S
C880 H854 0.983 . S
C880 C876 1.684 . S
H881 C899 0.948 . S
H882 C840 0.948 . S
H883 C858 0.979 . S
H884 C858 0.980 . S
H885 C858 0.983 . S
H886 C857 0.982 . S
H887 C857 0.979 . S
H888 C857 0.977 . S
H889 C859 0.948 . S
H890 C861 0.947 . S
H891 C862 0.948 . S
H892 C868 0.982 . S
H893 C868 0.979 . S
H894 C868 0.977 . S
H895 C869 0.979 . S
H896 C869 0.980 . S
H897 C869 0.983 . S
H898 C842 0.947 . S
C899 C842 1.392 . S
C899 C843 1.419 . S
C899 H881 0.948 . S
C900 C901 1.391 . S
C900 C904 1.391 . S
C900 H942 0.948 . S
C901 C900 1.391 . S
C901 C902 1.391 . S
C902 C901 1.391 . S
C902 H958 0.947 . S
C902 C959 1.392 . S
C903 C904 1.391 . S
C903 C907 1.397 . S
C903 C959 1.419 . S
C904 C900 1.391 . S
C904 C903 1.391 . S
C904 C905 1.399 . S
C905 C904 1.399 . S
C905 C908 1.396 . S
C905 C917 1.453 . S
C905 C918 1.684 . S
H906 C930 0.948 . S
C907 C903 1.397 . S
C907 C908 1.394 . S
C907 C926 1.723 . S
C908 C905 1.396 . S
C908 C907 1.394 . S
C908 C938 1.723 . S
H909 C932 0.947 . S
H910 C933 0.948 . S
H911 C939 0.982 . S
H912 C940 0.979 . S
H913 C940 0.980 . S
H914 C940 0.983 . S
H915 C939 0.979 . S
H916 C939 0.977 . S
C917 C905 1.453 . S
C917 H946 0.982 . S
C917 H947 0.979 . S
C917 H948 0.977 . S
C918 C905 1.684 . S
C918 H943 0.979 . S
C918 H944 0.980 . S
C918 H945 0.983 . S
C919 C920 1.391 . S
C919 C924 1.391 . S
C919 H949 0.948 . S
C920 C919 1.391 . S
C920 C921 1.391 . S
C921 C920 1.391 . S
C921 C922 1.392 . S
C921 H950 0.947 . S
C922 C921 1.392 . S
C922 C923 1.419 . S
C922 H951 0.948 . S
C923 C922 1.419 . S
C923 C924 1.391 . S
C923 C927 1.397 . S
C924 C919 1.391 . S
C924 C923 1.391 . S
C924 C925 1.399 . S
C925 C924 1.399 . S
C925 C926 1.396 . S
C925 C928 1.453 . S
C925 C929 1.684 . S
C926 C907 1.723 . S
C926 C925 1.396 . S
C926 C927 1.394 . S
C927 C923 1.397 . S
C927 C926 1.394 . S
C927 C937 1.723 . S
C928 C925 1.453 . S
C928 H952 0.982 . S
C928 H953 0.979 . S
C928 H954 0.977 . S
C929 C925 1.684 . S
C929 H955 0.979 . S
C929 H956 0.980 . S
C929 H957 0.983 . S
C930 H906 0.948 . S
C930 C931 1.391 . S
C930 C935 1.391 . S
C931 C930 1.391 . S
C931 C932 1.391 . S
C932 H909 0.947 . S
C932 C931 1.391 . S
C932 C933 1.392 . S
C933 H910 0.948 . S
C933 C932 1.392 . S
C933 C934 1.419 . S
C934 C933 1.419 . S
C934 C935 1.391 . S
C934 C938 1.397 . S
C935 C930 1.391 . S
C935 C934 1.391 . S
C935 C936 1.399 . S
C936 C935 1.399 . S
C936 C937 1.396 . S
C936 C939 1.453 . S
C936 C940 1.684 . S
C937 C927 1.723 . S
C937 C936 1.396 . S
C937 C938 1.394 . S
C938 C908 1.723 . S
C938 C934 1.397 . S
C938 C937 1.394 . S
C939 H911 0.982 . S
C939 H915 0.979 . S
C939 H916 0.977 . S
C939 C936 1.453 . S
C940 H912 0.979 . S
C940 H913 0.980 . S
C940 H914 0.983 . S
C940 C936 1.684 . S
H941 C959 0.948 . S
H942 C900 0.948 . S
H943 C918 0.979 . S
H944 C918 0.980 . S
H945 C918 0.983 . S
H946 C917 0.982 . S
H947 C917 0.979 . S
H948 C917 0.977 . S
H949 C919 0.948 . S
H950 C921 0.947 . S
H951 C922 0.948 . S
H952 C928 0.982 . S
H953 C928 0.979 . S
H954 C928 0.977 . S
H955 C929 0.979 . S
H956 C929 0.980 . S
H957 C929 0.983 . S
H958 C902 0.947 . S
C959 C902 1.392 . S
C959 C903 1.419 . S
C959 H941 0.948 . S
C960 C961 1.391 . S
C960 C964 1.391 . S
C960 H1002 0.948 . S
C961 C960 1.391 . S
C961 C962 1.391 . S
C962 C961 1.391 . S
C962 H1018 0.947 . S
C962 C1019 1.392 . S
C963 C964 1.391 . S
C963 C967 1.397 . S
C963 C1019 1.419 . S
C964 C960 1.391 . S
C964 C963 1.391 . S
C964 C965 1.399 . S
C965 C964 1.399 . S
C965 C968 1.396 . S
C965 C977 1.453 . S
C965 C978 1.684 . S
H966 C990 0.948 . S
C967 C963 1.397 . S
C967 C968 1.394 . S
C967 C986 1.723 . S
C968 C965 1.396 . S
C968 C967 1.394 . S
C968 C998 1.723 . S
H969 C992 0.947 . S
H970 C993 0.948 . S
H971 C999 0.982 . S
H972 C1000 0.979 1_655 S
H973 C1000 0.980 . S
H974 C1000 0.983 . S
H975 C999 0.979 . S
H976 C999 0.977 . S
C977 C965 1.453 . S
C977 H1006 0.982 . S
C977 H1007 0.979 . S
C977 H1008 0.977 . S
C978 C965 1.684 . S
C978 H1003 0.979 . S
C978 H1004 0.980 . S
C978 H1005 0.983 . S
C979 C980 1.391 . S
C979 C984 1.391 . S
C979 H1009 0.948 . S
C980 C979 1.391 . S
C980 C981 1.391 . S
C981 C980 1.391 . S
C981 C982 1.392 . S
C981 H1010 0.947 . S
C982 C981 1.392 . S
C982 C983 1.419 . S
C982 H1011 0.948 . S
C983 C982 1.419 . S
C983 C984 1.391 . S
C983 C987 1.397 . S
C984 C979 1.391 . S
C984 C983 1.391 . S
C984 C985 1.399 . S
C985 C984 1.399 . S
C985 C986 1.396 . S
C985 C988 1.453 . S
C985 C989 1.684 . S
C986 C967 1.723 . S
C986 C985 1.396 . S
C986 C987 1.394 . S
C987 C983 1.397 . S
C987 C986 1.394 . S
C987 C997 1.723 . S
C988 C985 1.453 . S
C988 H1012 0.982 . S
C988 H1013 0.979 . S
C988 H1014 0.977 . S
C989 C985 1.684 . S
C989 H1015 0.979 1_455 S
C989 H1016 0.980 . S
C989 H1017 0.983 . S
C990 H966 0.948 . S
C990 C991 1.391 . S
C990 C995 1.391 . S
C991 C990 1.391 . S
C991 C992 1.391 . S
C992 H969 0.947 . S
C992 C991 1.391 . S
C992 C993 1.392 . S
C993 H970 0.948 . S
C993 C992 1.392 . S
C993 C994 1.419 . S
C994 C993 1.419 . S
C994 C995 1.391 . S
C994 C998 1.397 . S
C995 C990 1.391 . S
C995 C994 1.391 . S
C995 C996 1.399 . S
C996 C995 1.399 . S
C996 C997 1.396 . S
C996 C999 1.453 . S
C996 C1000 1.684 . S
C997 C987 1.723 . S
C997 C996 1.396 . S
C997 C998 1.394 . S
C998 C968 1.723 . S
C998 C994 1.397 . S
C998 C997 1.394 . S
C999 H971 0.982 . S
C999 H975 0.979 . S
C999 H976 0.977 . S
C999 C996 1.453 . S
C1000 H972 0.979 1_455 S
C1000 H973 0.980 . S
C1000 H974 0.983 . S
C1000 C996 1.684 . S
H1001 C1019 0.948 . S
H1002 C960 0.948 . S
H1003 C978 0.979 . S
H1004 C978 0.980 . S
H1005 C978 0.983 . S
H1006 C977 0.982 . S
H1007 C977 0.979 . S
H1008 C977 0.977 . S
H1009 C979 0.948 . S
H1010 C981 0.947 . S
H1011 C982 0.948 . S
H1012 C988 0.982 . S
H1013 C988 0.979 . S
H1014 C988 0.977 . S
H1015 C989 0.979 1_655 S
H1016 C989 0.980 . S
H1017 C989 0.983 . S
H1018 C962 0.947 . S
C1019 C962 1.392 . S
C1019 C963 1.419 . S
C1019 H1001 0.948 . S
C1020 C1021 1.391 . S
C1020 C1024 1.391 . S
C1020 H1062 0.948 . S
C1021 C1020 1.391 . S
C1021 C1022 1.391 . S
C1022 C1021 1.391 . S
C1022 H1078 0.947 . S
C1022 C1079 1.392 . S
C1023 C1024 1.391 . S
C1023 C1027 1.397 . S
C1023 C1079 1.419 . S
C1024 C1020 1.391 . S
C1024 C1023 1.391 . S
C1024 C1025 1.399 . S
C1025 C1024 1.399 . S
C1025 C1028 1.396 . S
C1025 C1037 1.453 . S
C1025 C1038 1.684 . S
H1026 C1050 0.948 . S
C1027 C1023 1.397 . S
C1027 C1028 1.394 . S
C1027 C1046 1.723 . S
C1028 C1025 1.396 . S
C1028 C1027 1.394 . S
C1028 C1058 1.723 . S
H1029 C1052 0.947 . S
H1030 C1053 0.948 . S
H1031 C1059 0.982 . S
H1032 C1060 0.979 . S
H1033 C1060 0.980 . S
H1034 C1060 0.983 . S
H1035 C1059 0.979 . S
H1036 C1059 0.977 . S
C1037 C1025 1.453 . S
C1037 H1066 0.982 . S
C1037 H1067 0.979 . S
C1037 H1068 0.977 . S
C1038 C1025 1.684 . S
C1038 H1063 0.979 . S
C1038 H1064 0.980 . S
C1038 H1065 0.983 . S
C1039 C1040 1.391 . S
C1039 C1044 1.391 . S
C1039 H1069 0.948 . S
C1040 C1039 1.391 . S
C1040 C1041 1.391 . S
C1041 C1040 1.391 . S
C1041 C1042 1.392 . S
C1041 H1070 0.947 . S
C1042 C1041 1.392 . S
C1042 C1043 1.419 . S
C1042 H1071 0.948 . S
C1043 C1042 1.419 . S
C1043 C1044 1.391 . S
C1043 C1047 1.397 . S
C1044 C1039 1.391 . S
C1044 C1043 1.391 . S
C1044 C1045 1.399 . S
C1045 C1044 1.399 . S
C1045 C1046 1.396 . S
C1045 C1048 1.453 . S
C1045 C1049 1.684 . S
C1046 C1027 1.723 . S
C1046 C1045 1.396 . S
C1046 C1047 1.394 . S
C1047 C1043 1.397 . S
C1047 C1046 1.394 . S
C1047 C1057 1.723 . S
C1048 C1045 1.453 . S
C1048 H1072 0.982 . S
C1048 H1073 0.979 . S
C1048 H1074 0.977 . S
C1049 C1045 1.684 . S
C1049 H1075 0.979 . S
C1049 H1076 0.980 . S
C1049 H1077 0.983 . S
C1050 H1026 0.948 . S
C1050 C1051 1.391 . S
C1050 C1055 1.391 . S
C1051 C1050 1.391 . S
C1051 C1052 1.391 . S
C1052 H1029 0.947 . S
C1052 C1051 1.391 . S
C1052 C1053 1.392 . S
C1053 H1030 0.948 . S
C1053 C1052 1.392 . S
C1053 C1054 1.419 . S
C1054 C1053 1.419 . S
C1054 C1055 1.391 . S
C1054 C1058 1.397 . S
C1055 C1050 1.391 . S
C1055 C1054 1.391 . S
C1055 C1056 1.399 . S
C1056 C1055 1.399 . S
C1056 C1057 1.396 . S
C1056 C1059 1.453 . S
C1056 C1060 1.684 . S
C1057 C1047 1.723 . S
C1057 C1056 1.396 . S
C1057 C1058 1.394 . S
C1058 C1028 1.723 . S
C1058 C1054 1.397 . S
C1058 C1057 1.394 . S
C1059 H1031 0.982 . S
C1059 H1035 0.979 . S
C1059 H1036 0.977 . S
C1059 C1056 1.453 . S
C1060 H1032 0.979 . S
C1060 H1033 0.980 . S
C1060 H1034 0.983 . S
C1060 C1056 1.684 . S
H1061 C1079 0.948 . S
H1062 C1020 0.948 . S
H1063 C1038 0.979 . S
H1064 C1038 0.980 . S
H1065 C1038 0.983 . S
H1066 C1037 0.982 . S
H1067 C1037 0.979 . S
H1068 C1037 0.977 . S
H1069 C1039 0.948 . S
H1070 C1041 0.947 . S
H1071 C1042 0.948 . S
H1072 C1048 0.982 . S
H1073 C1048 0.979 . S
H1074 C1048 0.977 . S
H1075 C1049 0.979 . S
H1076 C1049 0.980 . S
H1077 C1049 0.983 . S
H1078 C1022 0.947 . S
C1079 C1022 1.392 . S
C1079 C1023 1.419 . S
C1079 H1061 0.948 . S
Tb1080 C1090 2.825 . S
Tb1080 O1091 2.347 1_565 S
Tb1080 O1094 2.366 1_565 S
Tb1080 O1099 2.418 . S
Tb1080 O1100 2.384 . S
Tb1080 O1103 2.479 . S
Tb1080 O1104 2.459 1_565 S
Eu1081 O1092 2.418 . S
Eu1081 O1093 2.384 . S
Eu1081 O1096 2.479 . S
Eu1081 O1097 2.465 1_545 S
Eu1081 O1098 2.347 1_545 S
Eu1081 O1101 2.366 1_545 S
Eu1081 C1111 2.825 . S
C1082 O1098 1.259 . S
C1082 O1099 1.265 1_554 S
C1083 O1100 1.255 1_554 S
C1083 O1101 1.265 . S
C1084 C1086 1.380 . S
C1084 C1087 1.374 1_565 S
C1084 C1090 1.507 . S
C1085 C1086 1.384 . S
C1085 C1089 1.387 1_565 S
C1085 H1112 0.930 . S
C1086 C1084 1.380 . S
C1086 C1085 1.384 . S
C1086 H1113 0.931 . S
C1087 C1084 1.374 1_545 S
C1087 C1088 1.390 . S
C1087 H1114 0.930 . S
C1088 C1087 1.390 . S
C1088 C1089 1.391 . S
C1088 H1115 0.930 . S
C1089 C1085 1.387 1_545 S
C1089 C1088 1.391 . S
C1090 Tb1080 2.825 . S
C1090 C1084 1.507 . S
C1090 O1103 1.238 . S
C1090 O1104 1.228 1_565 S
O1091 Tb1080 2.347 1_545 S
O1091 C1095 1.259 . S
O1092 Eu1081 2.418 . S
O1092 C1095 1.265 1_554 S
O1093 Eu1081 2.384 . S
O1093 C1102 1.255 1_554 S
O1094 Tb1080 2.366 1_545 S
O1094 C1102 1.265 . S
C1095 O1091 1.259 . S
C1095 O1092 1.265 1_556 S
O1096 Eu1081 2.479 . S
O1096 C1111 1.238 . S
O1097 Eu1081 2.465 1_565 S
O1097 C1111 1.238 1_565 S
O1098 Eu1081 2.347 1_565 S
O1098 C1082 1.259 . S
O1099 Tb1080 2.418 . S
O1099 C1082 1.265 1_556 S
O1100 Tb1080 2.384 . S
O1100 C1083 1.255 1_556 S
O1101 Eu1081 2.366 1_565 S
O1101 C1083 1.265 . S
C1102 O1093 1.255 1_556 S
C1102 O1094 1.265 . S
O1103 Tb1080 2.479 . S
O1103 C1090 1.238 . S
O1104 Tb1080 2.459 1_545 S
O1104 C1090 1.228 1_545 S
C1105 C1108 1.380 . S
C1105 C1109 1.374 1_545 S
C1105 C1111 1.507 . S
C1106 C1107 1.387 1_565 S
C1106 C1110 1.391 . S
C1107 C1106 1.387 1_545 S
C1107 C1108 1.384 . S
C1107 H1116 0.930 . S
C1108 C1105 1.380 . S
C1108 C1107 1.384 . S
C1108 H1117 0.931 . S
C1109 C1105 1.374 1_565 S
C1109 C1110 1.390 . S
C1109 H1118 0.930 . S
C1110 C1106 1.391 . S
C1110 C1109 1.390 . S
C1110 H1119 0.930 . S
C1111 Eu1081 2.825 . S
C1111 O1096 1.238 . S
C1111 O1097 1.238 1_545 S
C1111 C1105 1.507 . S
H1112 C1085 0.930 . S
H1113 C1086 0.931 . S
H1114 C1087 0.930 . S
H1115 C1088 0.930 . S
H1116 C1107 0.930 . S
H1117 C1108 0.931 . S
H1118 C1109 0.930 . S
H1119 C1110 0.930 . S
Tb1120 C1130 2.825 . S
Tb1120 O1131 2.347 1_455 S
Tb1120 O1134 2.366 1_455 S
Tb1120 O1139 2.418 . S
Tb1120 O1140 2.384 1_556 S
Tb1120 O1143 2.479 . S
Tb1120 O1144 2.471 1_455 S
Eu1121 O1132 2.418 . S
Eu1121 O1133 2.384 1_554 S
Eu1121 O1136 2.479 . S
Eu1121 O1137 2.471 1_655 S
Eu1121 O1138 2.347 1_655 S
Eu1121 O1141 2.366 1_655 S
Eu1121 C1151 2.825 . S
C1122 O1138 1.259 . S
C1122 O1139 1.265 1_554 S
C1123 O1140 1.255 . S
C1123 O1141 1.265 . S
C1124 C1126 1.380 . S
C1124 C1127 1.374 1_455 S
C1124 C1130 1.507 . S
C1125 C1126 1.384 . S
C1125 C1129 1.387 1_455 S
C1125 H1152 0.930 . S
C1126 C1124 1.380 . S
C1126 C1125 1.384 . S
C1126 H1153 0.931 . S
C1127 C1124 1.374 1_655 S
C1127 C1128 1.390 . S
C1127 H1154 0.930 . S
C1128 C1127 1.390 . S
C1128 C1129 1.391 . S
C1128 H1155 0.930 . S
C1129 C1125 1.387 1_655 S
C1129 C1128 1.391 . S
C1130 Tb1120 2.825 . S
C1130 C1124 1.507 . S
C1130 O1143 1.238 . S
C1130 O1144 1.247 1_455 S
O1131 Tb1120 2.347 1_655 S
O1131 C1135 1.259 . S
O1132 Eu1121 2.418 . S
O1132 C1135 1.265 1_554 S
O1133 Eu1121 2.384 1_556 S
O1133 C1142 1.255 . S
O1134 Tb1120 2.366 1_655 S
O1134 C1142 1.265 . S
C1135 O1131 1.259 . S
C1135 O1132 1.265 1_556 S
O1136 Eu1121 2.479 . S
O1136 C1151 1.238 . S
O1137 Eu1121 2.471 1_455 S
O1137 C1151 1.247 1_455 S
O1138 Eu1121 2.347 1_455 S
O1138 C1122 1.259 . S
O1139 Tb1120 2.418 . S
O1139 C1122 1.265 1_556 S
O1140 Tb1120 2.384 1_554 S
O1140 C1123 1.255 . S
O1141 Eu1121 2.366 1_455 S
O1141 C1123 1.265 . S
C1142 O1133 1.255 . S
C1142 O1134 1.265 . S
O1143 Tb1120 2.479 . S
O1143 C1130 1.238 . S
O1144 Tb1120 2.471 1_655 S
O1144 C1130 1.247 1_655 S
C1145 C1148 1.380 . S
C1145 C1149 1.374 1_655 S
C1145 C1151 1.507 . S
C1146 C1147 1.387 1_455 S
C1146 C1150 1.391 . S
C1147 C1146 1.387 1_655 S
C1147 C1148 1.384 . S
C1147 H1156 0.930 . S
C1148 C1145 1.380 . S
C1148 C1147 1.384 . S
C1148 H1157 0.931 . S
C1149 C1145 1.374 1_455 S
C1149 C1150 1.390 . S
C1149 H1158 0.930 . S
C1150 C1146 1.391 . S
C1150 C1149 1.390 . S
C1150 H1159 0.930 . S
C1151 Eu1121 2.825 . S
C1151 O1136 1.238 . S
C1151 O1137 1.247 1_655 S
C1151 C1145 1.507 . S
H1152 C1125 0.930 . S
H1153 C1126 0.931 . S
H1154 C1127 0.930 . S
H1155 C1128 0.930 . S
H1156 C1147 0.930 . S
H1157 C1148 0.931 . S
H1158 C1149 0.930 . S
H1159 C1150 0.930 . S
Tb1160 C1170 2.825 . S
Tb1160 O1171 2.347 . S
Tb1160 O1174 2.366 . S
Tb1160 O1179 2.418 . S
Tb1160 O1180 2.396 . S
Tb1160 O1183 2.479 . S
Tb1160 O1184 2.471 . S
Eu1161 O1172 2.418 . S
Eu1161 O1173 2.326 1_556 S
Eu1161 O1176 2.479 . S
Eu1161 O1177 2.471 . S
Eu1161 O1178 2.347 . S
Eu1161 O1181 2.366 . S
Eu1161 C1191 2.825 . S
C1162 O1178 1.259 . S
C1162 O1179 1.265 1_556 S
C1163 O1180 1.242 1_556 S
C1163 O1181 1.265 . S
C1164 C1166 1.380 . S
C1164 C1167 1.374 . S
C1164 C1170 1.507 . S
C1165 C1166 1.384 . S
C1165 C1169 1.387 . S
C1165 H1192 0.930 . S
C1166 C1164 1.380 . S
C1166 C1165 1.384 . S
C1166 H1193 0.931 . S
C1167 C1164 1.374 . S
C1167 C1168 1.390 . S
C1167 H1194 0.930 . S
C1168 C1167 1.390 . S
C1168 C1169 1.391 . S
C1168 H1195 0.930 . S
C1169 C1165 1.387 . S
C1169 C1168 1.391 . S
C1170 Tb1160 2.825 . S
C1170 C1164 1.507 . S
C1170 O1183 1.238 . S
C1170 O1184 1.247 . S
O1171 Tb1160 2.347 . S
O1171 C1175 1.259 . S
O1172 Eu1161 2.418 . S
O1172 C1175 1.265 1_556 S
O1173 Eu1161 2.326 1_554 S
O1173 C1182 1.323 . S
O1174 Tb1160 2.366 . S
O1174 C1182 1.265 . S
C1175 O1171 1.259 . S
C1175 O1172 1.265 1_554 S
O1176 Eu1161 2.479 . S
O1176 C1191 1.238 . S
O1177 Eu1161 2.471 . S
O1177 C1191 1.247 . S
O1178 Eu1161 2.347 . S
O1178 C1162 1.259 . S
O1179 Tb1160 2.418 . S
O1179 C1162 1.265 1_554 S
O1180 Tb1160 2.396 . S
O1180 C1163 1.242 1_554 S
O1181 Eu1161 2.366 . S
O1181 C1163 1.265 . S
C1182 O1173 1.323 . S
C1182 O1174 1.265 . S
O1183 Tb1160 2.479 . S
O1183 C1170 1.238 . S
O1184 Tb1160 2.471 . S
O1184 C1170 1.247 . S
C1185 C1188 1.380 . S
C1185 C1189 1.374 . S
C1185 C1191 1.507 . S
C1186 C1187 1.387 . S
C1186 C1190 1.391 . S
C1187 C1186 1.387 . S
C1187 C1188 1.384 . S
C1187 H1196 0.930 . S
C1188 C1185 1.380 . S
C1188 C1187 1.384 . S
C1188 H1197 0.931 . S
C1189 C1185 1.374 . S
C1189 C1190 1.390 . S
C1189 H1198 0.930 . S
C1190 C1186 1.391 . S
C1190 C1189 1.390 . S
C1190 H1199 0.930 . S
C1191 Eu1161 2.825 . S
C1191 O1176 1.238 . S
C1191 O1177 1.247 . S
C1191 C1185 1.507 . S
H1192 C1165 0.930 . S
H1193 C1166 0.931 . S
H1194 C1167 0.930 . S
H1195 C1168 0.930 . S
H1196 C1187 0.930 . S
H1197 C1188 0.931 . S
H1198 C1189 0.930 . S
H1199 C1190 0.930 . S
Tb1200 C1210 2.825 . S
Tb1200 O1211 2.347 . S
Tb1200 O1214 2.366 . S
Tb1200 O1219 2.418 . S
Tb1200 O1220 2.384 . S
Tb1200 O1223 2.479 . S
Tb1200 O1224 2.471 . S
Eu1201 O1212 2.418 . S
Eu1201 O1213 2.384 . S
Eu1201 O1216 2.479 . S
Eu1201 O1217 2.471 . S
Eu1201 O1218 2.347 . S
Eu1201 O1221 2.366 . S
Eu1201 C1231 2.825 . S
C1202 O1218 1.259 . S
C1202 O1219 1.265 . S
C1203 O1220 1.255 . S
C1203 O1221 1.265 . S
C1204 C1206 1.380 . S
C1204 C1207 1.374 . S
C1204 C1210 1.507 . S
C1205 C1206 1.384 . S
C1205 C1209 1.387 . S
C1205 H1232 0.930 . S
C1206 C1204 1.380 . S
C1206 C1205 1.384 . S
C1206 H1233 0.931 . S
C1207 C1204 1.374 . S
C1207 C1208 1.390 . S
C1207 H1234 0.930 . S
C1208 C1207 1.390 . S
C1208 C1209 1.391 . S
C1208 H1235 0.930 . S
C1209 C1205 1.387 . S
C1209 C1208 1.391 . S
C1210 Tb1200 2.825 . S
C1210 C1204 1.507 . S
C1210 O1223 1.238 . S
C1210 O1224 1.247 . S
O1211 Tb1200 2.347 . S
O1211 C1215 1.259 . S
O1212 Eu1201 2.418 . S
O1212 C1215 1.265 . S
O1213 Eu1201 2.384 . S
O1213 C1222 1.255 . S
O1214 Tb1200 2.366 . S
O1214 C1222 1.265 . S
C1215 O1211 1.259 . S
C1215 O1212 1.265 . S
O1216 Eu1201 2.479 . S
O1216 C1231 1.238 . S
O1217 Eu1201 2.471 . S
O1217 C1231 1.247 . S
O1218 Eu1201 2.347 . S
O1218 C1202 1.259 . S
O1219 Tb1200 2.418 . S
O1219 C1202 1.265 . S
O1220 Tb1200 2.384 . S
O1220 C1203 1.255 . S
O1221 Eu1201 2.366 . S
O1221 C1203 1.265 . S
C1222 O1213 1.255 . S
C1222 O1214 1.265 . S
O1223 Tb1200 2.479 . S
O1223 C1210 1.238 . S
O1224 Tb1200 2.471 . S
O1224 C1210 1.247 . S
C1225 C1228 1.380 . S
C1225 C1229 1.374 . S
C1225 C1231 1.507 . S
C1226 C1227 1.387 . S
C1226 C1230 1.391 . S
C1227 C1226 1.387 . S
C1227 C1228 1.384 . S
C1227 H1236 0.930 . S
C1228 C1225 1.380 . S
C1228 C1227 1.384 . S
C1228 H1237 0.931 . S
C1229 C1225 1.374 . S
C1229 C1230 1.390 . S
C1229 H1238 0.930 . S
C1230 C1226 1.391 . S
C1230 C1229 1.390 . S
C1230 H1239 0.930 . S
C1231 Eu1201 2.825 . S
C1231 O1216 1.238 . S
C1231 O1217 1.247 . S
C1231 C1225 1.507 . S
H1232 C1205 0.930 . S
H1233 C1206 0.931 . S
H1234 C1207 0.930 . S
H1235 C1208 0.930 . S
H1236 C1227 0.930 . S
H1237 C1228 0.931 . S
H1238 C1229 0.930 . S
H1239 C1230 0.930 . S
Tb1240 C1250 2.825 . S
Tb1240 O1251 2.347 . S
Tb1240 O1254 2.366 . S
Tb1240 O1259 2.418 . S
Tb1240 O1260 2.384 . S
Tb1240 O1263 2.479 . S
Tb1240 O1264 2.471 . S
Eu1241 O1252 2.418 . S
Eu1241 O1253 2.384 . S
Eu1241 O1256 2.479 . S
Eu1241 O1257 2.471 . S
Eu1241 O1258 2.347 . S
Eu1241 O1261 2.366 . S
Eu1241 C1271 2.825 . S
C1242 O1258 1.259 . S
C1242 O1259 1.265 . S
C1243 O1260 1.255 . S
C1243 O1261 1.265 . S
C1244 C1246 1.380 . S
C1244 C1247 1.374 . S
C1244 C1250 1.507 . S
C1245 C1246 1.384 . S
C1245 C1249 1.387 . S
C1245 H1272 0.930 . S
C1246 C1244 1.380 . S
C1246 C1245 1.384 . S
C1246 H1273 0.931 . S
C1247 C1244 1.374 . S
C1247 C1248 1.390 . S
C1247 H1274 0.930 . S
C1248 C1247 1.390 . S
C1248 C1249 1.391 . S
C1248 H1275 0.930 . S
C1249 C1245 1.387 . S
C1249 C1248 1.391 . S
C1250 Tb1240 2.825 . S
C1250 C1244 1.507 . S
C1250 O1263 1.238 . S
C1250 O1264 1.247 . S
O1251 Tb1240 2.347 . S
O1251 C1255 1.259 . S
O1252 Eu1241 2.418 . S
O1252 C1255 1.265 . S
O1253 Eu1241 2.384 . S
O1253 C1262 1.255 . S
O1254 Tb1240 2.366 . S
O1254 C1262 1.265 . S
C1255 O1251 1.259 . S
C1255 O1252 1.265 . S
O1256 Eu1241 2.479 . S
O1256 C1271 1.238 . S
O1257 Eu1241 2.471 . S
O1257 C1271 1.247 . S
O1258 Eu1241 2.347 . S
O1258 C1242 1.259 . S
O1259 Tb1240 2.418 . S
O1259 C1242 1.265 . S
O1260 Tb1240 2.384 . S
O1260 C1243 1.255 . S
O1261 Eu1241 2.366 . S
O1261 C1243 1.265 . S
C1262 O1253 1.255 . S
C1262 O1254 1.265 . S
O1263 Tb1240 2.479 . S
O1263 C1250 1.238 . S
O1264 Tb1240 2.471 . S
O1264 C1250 1.247 . S
C1265 C1268 1.380 . S
C1265 C1269 1.374 . S
C1265 C1271 1.507 . S
C1266 C1267 1.387 . S
C1266 C1270 1.391 . S
C1267 C1266 1.387 . S
C1267 C1268 1.384 . S
C1267 H1276 0.930 . S
C1268 C1265 1.380 . S
C1268 C1267 1.384 . S
C1268 H1277 0.931 . S
C1269 C1265 1.374 . S
C1269 C1270 1.390 . S
C1269 H1278 0.930 . S
C1270 C1266 1.391 . S
C1270 C1269 1.390 . S
C1270 H1279 0.930 . S
C1271 Eu1241 2.825 . S
C1271 O1256 1.238 . S
C1271 O1257 1.247 . S
C1271 C1265 1.507 . S
H1272 C1245 0.930 . S
H1273 C1246 0.931 . S
H1274 C1247 0.930 . S
H1275 C1248 0.930 . S
H1276 C1267 0.930 . S
H1277 C1268 0.931 . S
H1278 C1269 0.930 . S
H1279 C1270 0.930 . S
Tb1280 C1290 2.825 . S
Tb1280 O1291 2.347 . S
Tb1280 O1294 2.366 . S
Tb1280 O1299 2.418 . S
Tb1280 O1300 2.384 . S
Tb1280 O1303 2.479 . S
Tb1280 O1304 2.471 . S
Eu1281 O1292 2.418 . S
Eu1281 O1293 2.384 . S
Eu1281 O1296 2.479 . S
Eu1281 O1297 2.471 . S
Eu1281 O1298 2.347 . S
Eu1281 O1301 2.366 . S
Eu1281 C1311 2.825 . S
C1282 O1298 1.259 . S
C1282 O1299 1.265 . S
C1283 O1300 1.255 . S
C1283 O1301 1.265 . S
C1284 C1286 1.380 . S
C1284 C1287 1.374 . S
C1284 C1290 1.507 . S
C1285 C1286 1.384 . S
C1285 C1289 1.387 . S
C1285 H1312 0.930 . S
C1286 C1284 1.380 . S
C1286 C1285 1.384 . S
C1286 H1313 0.931 . S
C1287 C1284 1.374 . S
C1287 C1288 1.390 . S
C1287 H1314 0.930 . S
C1288 C1287 1.390 . S
C1288 C1289 1.391 . S
C1288 H1315 0.930 . S
C1289 C1285 1.387 . S
C1289 C1288 1.391 . S
C1290 Tb1280 2.825 . S
C1290 C1284 1.507 . S
C1290 O1303 1.238 . S
C1290 O1304 1.247 . S
O1291 Tb1280 2.347 . S
O1291 C1295 1.259 . S
O1292 Eu1281 2.418 . S
O1292 C1295 1.265 . S
O1293 Eu1281 2.384 . S
O1293 C1302 1.255 . S
O1294 Tb1280 2.366 . S
O1294 C1302 1.265 . S
C1295 O1291 1.259 . S
C1295 O1292 1.265 . S
O1296 Eu1281 2.479 . S
O1296 C1311 1.238 . S
O1297 Eu1281 2.471 . S
O1297 C1311 1.247 . S
O1298 Eu1281 2.347 . S
O1298 C1282 1.259 . S
O1299 Tb1280 2.418 . S
O1299 C1282 1.265 . S
O1300 Tb1280 2.384 . S
O1300 C1283 1.255 . S
O1301 Eu1281 2.366 . S
O1301 C1283 1.265 . S
C1302 O1293 1.255 . S
C1302 O1294 1.265 . S
O1303 Tb1280 2.479 . S
O1303 C1290 1.238 . S
O1304 Tb1280 2.471 . S
O1304 C1290 1.247 . S
C1305 C1308 1.380 . S
C1305 C1309 1.374 . S
C1305 C1311 1.507 . S
C1306 C1307 1.387 . S
C1306 C1310 1.391 . S
C1307 C1306 1.387 . S
C1307 C1308 1.384 . S
C1307 H1316 0.930 . S
C1308 C1305 1.380 . S
C1308 C1307 1.384 . S
C1308 H1317 0.931 . S
C1309 C1305 1.374 . S
C1309 C1310 1.390 . S
C1309 H1318 0.930 . S
C1310 C1306 1.391 . S
C1310 C1309 1.390 . S
C1310 H1319 0.930 . S
C1311 Eu1281 2.825 . S
C1311 O1296 1.238 . S
C1311 O1297 1.247 . S
C1311 C1305 1.507 . S
H1312 C1285 0.930 . S
H1313 C1286 0.931 . S
H1314 C1287 0.930 . S
H1315 C1288 0.930 . S
H1316 C1307 0.930 . S
H1317 C1308 0.931 . S
H1318 C1309 0.930 . S
H1319 C1310 0.930 . S
Tb1320 C1330 2.825 . S
Tb1320 O1331 2.347 . S
Tb1320 O1334 2.366 . S
Tb1320 O1339 2.418 . S
Tb1320 O1340 2.384 . S
Tb1320 O1343 2.479 . S
Tb1320 O1344 2.471 . S
Eu1321 O1332 2.418 . S
Eu1321 O1333 2.384 . S
Eu1321 O1336 2.479 . S
Eu1321 O1337 2.471 . S
Eu1321 O1338 2.347 . S
Eu1321 O1341 2.366 . S
Eu1321 C1351 2.825 . S
C1322 O1338 1.259 . S
C1322 O1339 1.265 . S
C1323 O1340 1.255 . S
C1323 O1341 1.265 . S
C1324 C1326 1.380 . S
C1324 C1327 1.374 . S
C1324 C1330 1.507 . S
C1325 C1326 1.384 . S
C1325 C1329 1.387 . S
C1325 H1352 0.930 . S
C1326 C1324 1.380 . S
C1326 C1325 1.384 . S
C1326 H1353 0.931 . S
C1327 C1324 1.374 . S
C1327 C1328 1.390 . S
C1327 H1354 0.930 . S
C1328 C1327 1.390 . S
C1328 C1329 1.391 . S
C1328 H1355 0.930 . S
C1329 C1325 1.387 . S
C1329 C1328 1.391 . S
C1330 Tb1320 2.825 . S
C1330 C1324 1.507 . S
C1330 O1343 1.238 . S
C1330 O1344 1.247 . S
O1331 Tb1320 2.347 . S
O1331 C1335 1.259 . S
O1332 Eu1321 2.418 . S
O1332 C1335 1.265 . S
O1333 Eu1321 2.384 . S
O1333 C1342 1.255 . S
O1334 Tb1320 2.366 . S
O1334 C1342 1.265 . S
C1335 O1331 1.259 . S
C1335 O1332 1.265 . S
O1336 Eu1321 2.479 . S
O1336 C1351 1.238 . S
O1337 Eu1321 2.471 . S
O1337 C1351 1.247 . S
O1338 Eu1321 2.347 . S
O1338 C1322 1.259 . S
O1339 Tb1320 2.418 . S
O1339 C1322 1.265 . S
O1340 Tb1320 2.384 . S
O1340 C1323 1.255 . S
O1341 Eu1321 2.366 . S
O1341 C1323 1.265 . S
C1342 O1333 1.255 . S
C1342 O1334 1.265 . S
O1343 Tb1320 2.479 . S
O1343 C1330 1.238 . S
O1344 Tb1320 2.471 . S
O1344 C1330 1.247 . S
C1345 C1348 1.380 . S
C1345 C1349 1.374 . S
C1345 C1351 1.507 . S
C1346 C1347 1.387 . S
C1346 C1350 1.391 . S
C1347 C1346 1.387 . S
C1347 C1348 1.384 . S
C1347 H1356 0.930 . S
C1348 C1345 1.380 . S
C1348 C1347 1.384 . S
C1348 H1357 0.931 . S
C1349 C1345 1.374 . S
C1349 C1350 1.390 . S
C1349 H1358 0.930 . S
C1350 C1346 1.391 . S
C1350 C1349 1.390 . S
C1350 H1359 0.930 . S
C1351 Eu1321 2.825 . S
C1351 O1336 1.238 . S
C1351 O1337 1.247 . S
C1351 C1345 1.507 . S
H1352 C1325 0.930 . S
H1353 C1326 0.931 . S
H1354 C1327 0.930 . S
H1355 C1328 0.930 . S
H1356 C1347 0.930 . S
H1357 C1348 0.931 . S
H1358 C1349 0.930 . S
H1359 C1350 0.930 . S
Tb1360 C1370 2.825 . S
Tb1360 O1371 2.347 . S
Tb1360 O1374 2.366 . S
Tb1360 O1379 2.418 . S
Tb1360 O1380 2.384 . S
Tb1360 O1383 2.479 . S
Tb1360 O1384 2.471 . S
Eu1361 O1372 2.418 . S
Eu1361 O1373 2.384 . S
Eu1361 O1376 2.479 . S
Eu1361 O1377 2.471 . S
Eu1361 O1378 2.347 . S
Eu1361 O1381 2.366 . S
Eu1361 C1391 2.825 . S
C1362 O1378 1.259 . S
C1362 O1379 1.265 . S
C1363 O1380 1.255 . S
C1363 O1381 1.265 . S
C1364 C1366 1.380 . S
C1364 C1367 1.374 . S
C1364 C1370 1.507 . S
C1365 C1366 1.384 . S
C1365 C1369 1.387 . S
C1365 H1392 0.930 . S
C1366 C1364 1.380 . S
C1366 C1365 1.384 . S
C1366 H1393 0.931 . S
C1367 C1364 1.374 . S
C1367 C1368 1.390 . S
C1367 H1394 0.930 . S
C1368 C1367 1.390 . S
C1368 C1369 1.391 . S
C1368 H1395 0.930 . S
C1369 C1365 1.387 . S
C1369 C1368 1.391 . S
C1370 Tb1360 2.825 . S
C1370 C1364 1.507 . S
C1370 O1383 1.238 . S
C1370 O1384 1.247 . S
O1371 Tb1360 2.347 . S
O1371 C1375 1.259 . S
O1372 Eu1361 2.418 . S
O1372 C1375 1.265 . S
O1373 Eu1361 2.384 . S
O1373 C1382 1.255 . S
O1374 Tb1360 2.366 . S
O1374 C1382 1.265 . S
C1375 O1371 1.259 . S
C1375 O1372 1.265 . S
O1376 Eu1361 2.479 . S
O1376 C1391 1.238 . S
O1377 Eu1361 2.471 . S
O1377 C1391 1.247 . S
O1378 Eu1361 2.347 . S
O1378 C1362 1.259 . S
O1379 Tb1360 2.418 . S
O1379 C1362 1.265 . S
O1380 Tb1360 2.384 . S
O1380 C1363 1.255 . S
O1381 Eu1361 2.366 . S
O1381 C1363 1.265 . S
C1382 O1373 1.255 . S
C1382 O1374 1.265 . S
O1383 Tb1360 2.479 . S
O1383 C1370 1.238 . S
O1384 Tb1360 2.471 . S
O1384 C1370 1.247 . S
C1385 C1388 1.380 . S
C1385 C1389 1.374 . S
C1385 C1391 1.507 . S
C1386 C1387 1.387 . S
C1386 C1390 1.391 . S
C1387 C1386 1.387 . S
C1387 C1388 1.384 . S
C1387 H1396 0.930 . S
C1388 C1385 1.380 . S
C1388 C1387 1.384 . S
C1388 H1397 0.931 . S
C1389 C1385 1.374 . S
C1389 C1390 1.390 . S
C1389 H1398 0.930 . S
C1390 C1386 1.391 . S
C1390 C1389 1.390 . S
C1390 H1399 0.930 . S
C1391 Eu1361 2.825 . S
C1391 O1376 1.238 . S
C1391 O1377 1.247 . S
C1391 C1385 1.507 . S
H1392 C1365 0.930 . S
H1393 C1366 0.931 . S
H1394 C1367 0.930 . S
H1395 C1368 0.930 . S
H1396 C1387 0.930 . S
H1397 C1388 0.931 . S
H1398 C1389 0.930 . S
H1399 C1390 0.930 . S
Tb1400 C1410 2.825 . S
Tb1400 O1411 2.347 . S
Tb1400 O1414 2.366 . S
Tb1400 O1419 2.418 . S
Tb1400 O1420 2.384 . S
Tb1400 O1423 2.479 . S
Tb1400 O1424 2.471 . S
Eu1401 O1412 2.418 . S
Eu1401 O1413 2.384 . S
Eu1401 O1416 2.479 . S
Eu1401 O1417 2.471 . S
Eu1401 O1418 2.347 . S
Eu1401 O1421 2.366 . S
Eu1401 C1431 2.825 . S
C1402 O1418 1.259 . S
C1402 O1419 1.265 . S
C1403 O1420 1.255 . S
C1403 O1421 1.265 . S
C1404 C1406 1.380 . S
C1404 C1407 1.374 . S
C1404 C1410 1.507 . S
C1405 C1406 1.384 . S
C1405 C1409 1.387 . S
C1405 H1432 0.930 . S
C1406 C1404 1.380 . S
C1406 C1405 1.384 . S
C1406 H1433 0.931 . S
C1407 C1404 1.374 . S
C1407 C1408 1.390 . S
C1407 H1434 0.930 . S
C1408 C1407 1.390 . S
C1408 C1409 1.391 . S
C1408 H1435 0.930 . S
C1409 C1405 1.387 . S
C1409 C1408 1.391 . S
C1410 Tb1400 2.825 . S
C1410 C1404 1.507 . S
C1410 O1423 1.238 . S
C1410 O1424 1.247 . S
O1411 Tb1400 2.347 . S
O1411 C1415 1.259 . S
O1412 Eu1401 2.418 . S
O1412 C1415 1.265 . S
O1413 Eu1401 2.384 . S
O1413 C1422 1.255 . S
O1414 Tb1400 2.366 . S
O1414 C1422 1.265 . S
C1415 O1411 1.259 . S
C1415 O1412 1.265 . S
O1416 Eu1401 2.479 . S
O1416 C1431 1.238 . S
O1417 Eu1401 2.471 . S
O1417 C1431 1.247 . S
O1418 Eu1401 2.347 . S
O1418 C1402 1.259 . S
O1419 Tb1400 2.418 . S
O1419 C1402 1.265 . S
O1420 Tb1400 2.384 . S
O1420 C1403 1.255 . S
O1421 Eu1401 2.366 . S
O1421 C1403 1.265 . S
C1422 O1413 1.255 . S
C1422 O1414 1.265 . S
O1423 Tb1400 2.479 . S
O1423 C1410 1.238 . S
O1424 Tb1400 2.471 . S
O1424 C1410 1.247 . S
C1425 C1428 1.380 . S
C1425 C1429 1.374 . S
C1425 C1431 1.507 . S
C1426 C1427 1.387 . S
C1426 C1430 1.391 . S
C1427 C1426 1.387 . S
C1427 C1428 1.384 . S
C1427 H1436 0.930 . S
C1428 C1425 1.380 . S
C1428 C1427 1.384 . S
C1428 H1437 0.931 . S
C1429 C1425 1.374 . S
C1429 C1430 1.390 . S
C1429 H1438 0.930 . S
C1430 C1426 1.391 . S
C1430 C1429 1.390 . S
C1430 H1439 0.930 . S
C1431 Eu1401 2.825 . S
C1431 O1416 1.238 . S
C1431 O1417 1.247 . S
C1431 C1425 1.507 . S
H1432 C1405 0.930 . S
H1433 C1406 0.931 . S
H1434 C1407 0.930 . S
H1435 C1408 0.930 . S
H1436 C1427 0.930 . S
H1437 C1428 0.931 . S
H1438 C1429 0.930 . S
H1439 C1430 0.930 . S
H1440 C1446 0.930 . S
H1441 C1450 0.930 . S
H1442 C1455 0.929 . S
H1443 C1453 0.929 . S
H1444 C1448 0.929 . S
H1445 C1454 0.929 . S
C1446 H1440 0.930 . S
C1446 C1447 1.367 . S
C1446 C1454 1.378 . S
C1447 C1446 1.367 . S
C1447 C1455 1.433 . S
C1448 H1444 0.929 . S
C1448 C1450 1.378 . S
C1448 C1452 1.350 . S
C1449 C1452 1.463 . S
C1449 C1454 1.350 . S
C1449 N1457 1.427 . S
C1450 H1441 0.930 . S
C1450 C1448 1.378 . S
C1450 C1451 1.367 . S
C1451 C1450 1.367 . S
C1451 C1453 1.433 . S
C1452 C1448 1.350 . S
C1452 C1449 1.463 . S
C1452 N1456 1.427 . S
C1453 H1443 0.929 . S
C1453 C1451 1.433 . S
C1453 N1456 1.384 . S
C1454 H1445 0.929 . S
C1454 C1446 1.378 . S
C1454 C1449 1.350 . S
C1455 H1442 0.929 . S
C1455 C1447 1.433 . S
C1455 N1457 1.384 . S
N1456 C1452 1.427 . S
N1456 C1453 1.384 . S
N1457 C1449 1.427 . S
N1457 C1455 1.384 . S
H1458 C1464 0.930 . S
H1459 C1468 0.930 . S
H1460 C1473 0.929 . S
H1461 C1471 0.929 . S
H1462 C1466 0.929 . S
H1463 C1472 0.929 . S
C1464 H1458 0.930 . S
C1464 C1465 1.367 . S
C1464 C1472 1.378 . S
C1465 C1464 1.367 . S
C1465 C1473 1.433 . S
C1466 H1462 0.929 . S
C1466 C1468 1.378 . S
C1466 C1470 1.350 . S
C1467 C1470 1.463 . S
C1467 C1472 1.350 . S
C1467 N1475 1.427 . S
C1468 H1459 0.930 . S
C1468 C1466 1.378 . S
C1468 C1469 1.367 . S
C1469 C1468 1.367 . S
C1469 C1471 1.433 . S
C1470 C1466 1.350 . S
C1470 C1467 1.463 . S
C1470 N1474 1.427 . S
C1471 H1461 0.929 . S
C1471 C1469 1.433 . S
C1471 N1474 1.384 . S
C1472 H1463 0.929 . S
C1472 C1464 1.378 . S
C1472 C1467 1.350 . S
C1473 H1460 0.929 . S
C1473 C1465 1.433 . S
C1473 N1475 1.384 . S
N1474 C1470 1.427 . S
N1474 C1471 1.384 . S
N1475 C1467 1.427 . S
N1475 C1473 1.384 . S
H1476 C1482 0.930 . S
H1477 C1486 0.930 . S
H1478 C1491 0.929 . S
H1479 C1489 0.929 . S
H1480 C1484 0.929 . S
H1481 C1490 0.929 . S
C1482 H1476 0.930 . S
C1482 C1483 1.367 . S
C1482 C1490 1.378 . S
C1483 C1482 1.367 . S
C1483 C1491 1.433 . S
C1484 H1480 0.929 . S
C1484 C1486 1.378 . S
C1484 C1488 1.350 . S
C1485 C1488 1.463 . S
C1485 C1490 1.350 . S
C1485 N1493 1.427 . S
C1486 H1477 0.930 . S
C1486 C1484 1.378 . S
C1486 C1487 1.367 . S
C1487 C1486 1.367 . S
C1487 C1489 1.433 . S
C1488 C1484 1.350 . S
C1488 C1485 1.463 . S
C1488 N1492 1.427 . S
C1489 H1479 0.929 . S
C1489 C1487 1.433 . S
C1489 N1492 1.384 . S
C1490 H1481 0.929 . S
C1490 C1482 1.378 . S
C1490 C1485 1.350 . S
C1491 H1478 0.929 . S
C1491 C1483 1.433 . S
C1491 N1493 1.384 . S
N1492 C1488 1.427 . S
N1492 C1489 1.384 . S
N1493 C1485 1.427 . S
N1493 C1491 1.384 . S
H1494 C1500 0.930 . S
H1495 C1504 0.930 . S
H1496 C1509 0.929 . S
H1497 C1507 0.929 . S
H1498 C1502 0.929 . S
H1499 C1508 0.929 . S
C1500 H1494 0.930 . S
C1500 C1501 1.367 . S
C1500 C1508 1.378 . S
C1501 C1500 1.367 . S
C1501 C1509 1.433 . S
C1502 H1498 0.929 . S
C1502 C1504 1.378 . S
C1502 C1506 1.350 . S
C1503 C1506 1.463 . S
C1503 C1508 1.350 . S
C1503 N1511 1.427 . S
C1504 H1495 0.930 . S
C1504 C1502 1.378 . S
C1504 C1505 1.367 . S
C1505 C1504 1.367 . S
C1505 C1507 1.433 . S
C1506 C1502 1.350 . S
C1506 C1503 1.463 . S
C1506 N1510 1.427 . S
C1507 H1497 0.929 . S
C1507 C1505 1.433 . S
C1507 N1510 1.384 . S
C1508 H1499 0.929 . S
C1508 C1500 1.378 . S
C1508 C1503 1.350 . S
C1509 H1496 0.929 . S
C1509 C1501 1.433 . S
C1509 N1511 1.384 . S
N1510 C1506 1.427 . S
N1510 C1507 1.384 . S
N1511 C1503 1.427 . S
N1511 C1509 1.384 . S
H1512 C1518 0.930 . S
H1513 C1522 0.930 . S
H1514 C1527 0.929 . S
H1515 C1525 0.929 . S
H1516 C1520 0.929 . S
H1517 C1526 0.929 . S
C1518 H1512 0.930 . S
C1518 C1519 1.367 . S
C1518 C1526 1.378 . S
C1519 C1518 1.367 . S
C1519 C1527 1.433 . S
C1520 H1516 0.929 . S
C1520 C1522 1.378 . S
C1520 C1524 1.350 . S
C1521 C1524 1.463 . S
C1521 C1526 1.350 . S
C1521 N1529 1.427 . S
C1522 H1513 0.930 . S
C1522 C1520 1.378 . S
C1522 C1523 1.367 . S
C1523 C1522 1.367 . S
C1523 C1525 1.433 . S
C1524 C1520 1.350 . S
C1524 C1521 1.463 . S
C1524 N1528 1.427 . S
C1525 H1515 0.929 . S
C1525 C1523 1.433 . S
C1525 N1528 1.384 . S
C1526 H1517 0.929 . S
C1526 C1518 1.378 . S
C1526 C1521 1.350 . S
C1527 H1514 0.929 . S
C1527 C1519 1.433 . S
C1527 N1529 1.384 . S
N1528 C1524 1.427 . S
N1528 C1525 1.384 . S
N1529 C1521 1.427 . S
N1529 C1527 1.384 . S
H1530 C1536 0.930 . S
H1531 C1540 0.930 . S
H1532 C1545 0.929 . S
H1533 C1543 0.929 . S
H1534 C1538 0.929 1_554 S
H1535 C1544 0.929 . S
C1536 H1530 0.930 . S
C1536 C1537 1.367 . S
C1536 C1544 1.378 . S
C1537 C1536 1.367 . S
C1537 C1545 1.433 . S
C1538 H1534 0.929 1_556 S
C1538 C1540 1.378 1_556 S
C1538 C1542 1.350 . S
C1539 C1542 1.463 . S
C1539 C1544 1.350 . S
C1539 N1547 1.427 . S
C1540 H1531 0.930 . S
C1540 C1538 1.378 1_554 S
C1540 C1541 1.367 1_554 S
C1541 C1540 1.367 1_556 S
C1541 C1543 1.433 . S
C1542 C1538 1.350 . S
C1542 C1539 1.463 . S
C1542 N1546 1.427 . S
C1543 H1533 0.929 . S
C1543 C1541 1.433 . S
C1543 N1546 1.384 . S
C1544 H1535 0.929 . S
C1544 C1536 1.378 . S
C1544 C1539 1.350 . S
C1545 H1532 0.929 . S
C1545 C1537 1.433 . S
C1545 N1547 1.384 . S
N1546 C1542 1.427 . S
N1546 C1543 1.384 . S
N1547 C1539 1.427 . S
N1547 C1545 1.384 . S
H1548 C1554 0.930 . S
H1549 C1558 0.930 . S
H1550 C1563 0.929 . S
H1551 C1561 0.929 . S
H1552 C1556 0.929 . S
H1553 C1562 0.929 . S
C1554 H1548 0.930 . S
C1554 C1555 1.367 . S
C1554 C1562 1.378 . S
C1555 C1554 1.367 . S
C1555 C1563 1.433 . S
C1556 H1552 0.929 . S
C1556 C1558 1.378 . S
C1556 C1560 1.350 . S
C1557 C1560 1.463 . S
C1557 C1562 1.350 . S
C1557 N1565 1.427 . S
C1558 H1549 0.930 . S
C1558 C1556 1.378 . S
C1558 C1559 1.367 . S
C1559 C1558 1.367 . S
C1559 C1561 1.433 . S
C1560 C1556 1.350 . S
C1560 C1557 1.463 . S
C1560 N1564 1.427 . S
C1561 H1551 0.929 . S
C1561 C1559 1.433 . S
C1561 N1564 1.384 . S
C1562 H1553 0.929 . S
C1562 C1554 1.378 . S
C1562 C1557 1.350 . S
C1563 H1550 0.929 . S
C1563 C1555 1.433 . S
C1563 N1565 1.384 . S
N1564 C1560 1.427 . S
N1564 C1561 1.384 . S
N1565 C1557 1.427 . S
N1565 C1563 1.384 . S
H1566 C1572 0.930 . S
H1567 C1576 0.930 . S
H1568 C1581 0.929 . S
H1569 C1579 0.929 . S
H1570 C1574 0.929 . S
H1571 C1580 0.929 . S
C1572 H1566 0.930 . S
C1572 C1573 1.367 . S
C1572 C1580 1.378 . S
C1573 C1572 1.367 . S
C1573 C1581 1.433 . S
C1574 H1570 0.929 . S
C1574 C1576 1.378 . S
C1574 C1578 1.350 . S
C1575 C1578 1.463 . S
C1575 C1580 1.350 . S
C1575 N1583 1.427 . S
C1576 H1567 0.930 . S
C1576 C1574 1.378 . S
C1576 C1577 1.367 . S
C1577 C1576 1.367 . S
C1577 C1579 1.433 . S
C1578 C1574 1.350 . S
C1578 C1575 1.463 . S
C1578 N1582 1.427 . S
C1579 H1569 0.929 . S
C1579 C1577 1.433 . S
C1579 N1582 1.384 . S
C1580 H1571 0.929 . S
C1580 C1572 1.378 . S
C1580 C1575 1.350 . S
C1581 H1568 0.929 . S
C1581 C1573 1.433 . S
C1581 N1583 1.384 . S
N1582 C1578 1.427 . S
N1582 C1579 1.384 . S
N1583 C1575 1.427 . S
N1583 C1581 1.384 . S
H1584 C1590 0.930 . S
H1585 C1594 0.930 . S
H1586 C1599 0.929 . S
H1587 C1597 0.929 1_554 S
H1588 C1592 0.929 . S
H1589 C1598 0.929 . S
C1590 H1584 0.930 . S
C1590 C1591 1.367 . S
C1590 C1598 1.378 . S
C1591 C1590 1.367 . S
C1591 C1599 1.433 . S
C1592 H1588 0.929 . S
C1592 C1594 1.378 . S
C1592 C1596 1.350 . S
C1593 C1596 1.463 . S
C1593 C1598 1.350 . S
C1593 N1601 1.427 . S
C1594 H1585 0.930 . S
C1594 C1592 1.378 . S
C1594 C1595 1.367 . S
C1595 C1594 1.367 . S
C1595 C1597 1.433 . S
C1596 C1592 1.350 . S
C1596 C1593 1.463 . S
C1596 N1600 1.427 . S
C1597 H1587 0.929 1_556 S
C1597 C1595 1.433 . S
C1597 N1600 1.384 . S
C1598 H1589 0.929 . S
C1598 C1590 1.378 . S
C1598 C1593 1.350 . S
C1599 H1586 0.929 . S
C1599 C1591 1.433 . S
C1599 N1601 1.384 . S
N1600 C1596 1.427 . S
N1600 C1597 1.384 . S
N1601 C1593 1.427 . S
N1601 C1599 1.384 . S
H1602 C1608 0.930 . S
H1603 C1612 0.930 . S
H1604 C1617 0.929 . S
H1605 C1615 0.929 1_556 S
H1606 C1610 0.929 . S
H1607 C1616 0.929 . S
C1608 H1602 0.930 . S
C1608 C1609 1.367 . S
C1608 C1616 1.378 . S
C1609 C1608 1.367 . S
C1609 C1617 1.433 . S
C1610 H1606 0.929 . S
C1610 C1612 1.378 . S
C1610 C1614 1.350 . S
C1611 C1614 1.463 . S
C1611 C1616 1.350 . S
C1611 N1619 1.427 . S
C1612 H1603 0.930 . S
C1612 C1610 1.378 . S
C1612 C1613 1.367 . S
C1613 C1612 1.367 . S
C1613 C1615 1.433 . S
C1614 C1610 1.350 . S
C1614 C1611 1.463 . S
C1614 N1618 1.427 . S
C1615 H1605 0.929 1_554 S
C1615 C1613 1.433 . S
C1615 N1618 1.384 . S
C1616 H1607 0.929 . S
C1616 C1608 1.378 . S
C1616 C1611 1.350 . S
C1617 H1604 0.929 . S
C1617 C1609 1.433 . S
C1617 N1619 1.384 . S
N1618 C1614 1.427 . S
N1618 C1615 1.384 . S
N1619 C1611 1.427 . S
N1619 C1617 1.384 . S
H1620 C1626 0.930 . S
H1621 C1630 0.930 . S
H1622 C1635 0.929 . S
H1623 C1633 0.929 . S
H1624 C1628 0.929 . S
H1625 C1634 0.929 . S
C1626 H1620 0.930 . S
C1626 C1627 1.367 . S
C1626 C1634 1.378 . S
C1627 C1626 1.367 . S
C1627 C1635 1.433 . S
C1628 H1624 0.929 . S
C1628 C1630 1.378 . S
C1628 C1632 1.350 . S
C1629 C1632 1.463 . S
C1629 C1634 1.350 . S
C1629 N1637 1.427 . S
C1630 H1621 0.930 . S
C1630 C1628 1.378 . S
C1630 C1631 1.367 . S
C1631 C1630 1.367 . S
C1631 C1633 1.433 . S
C1632 C1628 1.350 . S
C1632 C1629 1.463 . S
C1632 N1636 1.427 . S
C1633 H1623 0.929 . S
C1633 C1631 1.433 . S
C1633 N1636 1.384 . S
C1634 H1625 0.929 . S
C1634 C1626 1.378 . S
C1634 C1629 1.350 . S
C1635 H1622 0.929 . S
C1635 C1627 1.433 . S
C1635 N1637 1.384 . S
N1636 C1632 1.427 . S
N1636 C1633 1.384 . S
N1637 C1629 1.427 . S
N1637 C1635 1.384 . S
H1638 C1644 0.930 . S
H1639 C1648 0.951 . S
H1640 C1653 0.929 . S
H1641 C1651 0.929 . S
H1642 C1646 0.929 1_556 S
H1643 C1652 0.929 . S
C1644 H1638 0.930 . S
C1644 C1645 1.367 . S
C1644 C1652 1.378 . S
C1645 C1644 1.367 . S
C1645 C1653 1.433 . S
C1646 H1642 0.929 1_554 S
C1646 C1648 1.372 1_554 S
C1646 C1650 1.350 . S
C1647 C1650 1.463 . S
C1647 C1652 1.350 . S
C1647 N1655 1.427 . S
C1648 H1639 0.951 . S
C1648 C1646 1.372 1_556 S
C1648 C1649 1.351 1_556 S
C1649 C1648 1.351 1_554 S
C1649 C1651 1.433 . S
C1650 C1646 1.350 . S
C1650 C1647 1.463 . S
C1650 N1654 1.427 . S
C1651 H1641 0.929 . S
C1651 C1649 1.433 . S
C1651 N1654 1.384 . S
C1652 H1643 0.929 . S
C1652 C1644 1.378 . S
C1652 C1647 1.350 . S
C1653 H1640 0.929 . S
C1653 C1645 1.433 . S
C1653 N1655 1.384 . S
N1654 C1650 1.427 . S
N1654 C1651 1.384 . S
N1655 C1647 1.427 . S
N1655 C1653 1.384 . S
H1656 C1662 0.930 . S
H1657 C1666 0.930 . S
H1658 C1671 0.929 . S
H1659 C1669 0.929 . S
H1660 C1664 0.929 . S
H1661 C1670 0.929 . S
C1662 H1656 0.930 . S
C1662 C1663 1.367 . S
C1662 C1670 1.378 1_655 S
C1663 C1662 1.367 . S
C1663 C1671 1.433 . S
C1664 H1660 0.929 . S
C1664 C1666 1.378 . S
C1664 C1668 1.350 . S
C1665 C1668 1.463 . S
C1665 C1670 1.350 . S
C1665 N1673 1.427 . S
C1666 H1657 0.930 . S
C1666 C1664 1.378 . S
C1666 C1667 1.367 . S
C1667 C1666 1.367 . S
C1667 C1669 1.433 . S
C1668 C1664 1.350 . S
C1668 C1665 1.463 . S
C1668 N1672 1.427 . S
C1669 H1659 0.929 . S
C1669 C1667 1.433 . S
C1669 N1672 1.384 . S
C1670 H1661 0.929 . S
C1670 C1662 1.378 1_455 S
C1670 C1665 1.350 . S
C1671 H1658 0.929 . S
C1671 C1663 1.433 . S
C1671 N1673 1.384 1_655 S
N1672 C1668 1.427 . S
N1672 C1669 1.384 . S
N1673 C1665 1.427 . S
N1673 C1671 1.384 1_455 S
H1674 C1680 0.930 . S
H1675 C1684 0.930 . S
H1676 C1689 0.929 . S
H1677 C1687 0.929 . S
H1678 C1682 0.929 . S
H1679 C1688 0.929 . S
C1680 H1674 0.930 . S
C1680 C1681 1.367 . S
C1680 C1688 1.378 . S
C1681 C1680 1.367 . S
C1681 C1689 1.433 . S
C1682 H1678 0.929 . S
C1682 C1684 1.378 . S
C1682 C1686 1.350 . S
C1683 C1686 1.463 . S
C1683 C1688 1.350 . S
C1683 N1691 1.427 . S
C1684 H1675 0.930 . S
C1684 C1682 1.378 . S
C1684 C1685 1.367 . S
C1685 C1684 1.367 . S
C1685 C1687 1.433 . S
C1686 C1682 1.350 . S
C1686 C1683 1.463 . S
C1686 N1690 1.427 . S
C1687 H1677 0.929 . S
C1687 C1685 1.433 . S
C1687 N1690 1.384 . S
C1688 H1679 0.929 . S
C1688 C1680 1.378 . S
C1688 C1683 1.350 . S
C1689 H1676 0.929 . S
C1689 C1681 1.433 . S
C1689 N1691 1.384 . S
N1690 C1686 1.427 . S
N1690 C1687 1.384 . S
N1691 C1683 1.427 . S
N1691 C1689 1.384 . S
H1692 C1698 0.930 . S
H1693 C1702 0.930 . S
H1694 C1707 0.929 . S
H1695 C1705 0.929 . S
H1696 C1700 0.929 . S
H1697 C1706 0.929 1_565 S
C1698 H1692 0.930 . S
C1698 C1699 1.367 . S
C1698 C1706 1.378 . S
C1699 C1698 1.367 . S
C1699 C1707 1.433 . S
C1700 H1696 0.929 . S
C1700 C1702 1.378 . S
C1700 C1704 1.350 . S
C1701 C1704 1.463 . S
C1701 C1706 1.350 1_565 S
C1701 N1709 1.427 1_565 S
C1702 H1693 0.930 . S
C1702 C1700 1.378 . S
C1702 C1703 1.367 . S
C1703 C1702 1.367 . S
C1703 C1705 1.433 . S
C1704 C1700 1.350 . S
C1704 C1701 1.463 . S
C1704 N1708 1.427 . S
C1705 H1695 0.929 . S
C1705 C1703 1.433 . S
C1705 N1708 1.384 . S
C1706 H1697 0.929 1_545 S
C1706 C1698 1.378 . S
C1706 C1701 1.350 1_545 S
C1707 H1694 0.929 . S
C1707 C1699 1.433 . S
C1707 N1709 1.384 . S
N1708 C1704 1.427 . S
N1708 C1705 1.384 . S
N1709 C1701 1.427 1_545 S
N1709 C1707 1.384 . S
H1710 C1716 0.930 . S
H1711 C1720 0.930 . S
H1712 C1725 0.929 . S
H1713 C1723 0.929 . S
H1714 C1718 0.929 . S
H1715 C1724 0.929 . S
C1716 H1710 0.930 . S
C1716 C1717 1.367 . S
C1716 C1724 1.378 . S
C1717 C1716 1.367 . S
C1717 C1725 1.433 . S
C1718 H1714 0.929 . S
C1718 C1720 1.378 . S
C1718 C1722 1.350 . S
C1719 C1722 1.463 . S
C1719 C1724 1.350 . S
C1719 N1727 1.427 . S
C1720 H1711 0.930 . S
C1720 C1718 1.378 . S
C1720 C1721 1.367 . S
C1721 C1720 1.367 . S
C1721 C1723 1.433 . S
C1722 C1718 1.350 . S
C1722 C1719 1.463 . S
C1722 N1726 1.427 . S
C1723 H1713 0.929 . S
C1723 C1721 1.433 . S
C1723 N1726 1.384 . S
C1724 H1715 0.929 . S
C1724 C1716 1.378 . S
C1724 C1719 1.350 . S
C1725 H1712 0.929 . S
C1725 C1717 1.433 . S
C1725 N1727 1.384 . S
N1726 C1722 1.427 . S
N1726 C1723 1.384 . S
N1727 C1719 1.427 . S
N1727 C1725 1.384 . S
H1728 C1734 0.930 . S
H1729 C1738 0.930 . S
H1730 C1743 0.929 . S
H1731 C1741 0.929 . S
H1732 C1736 0.929 . S
H1733 C1742 0.929 . S
C1734 H1728 0.930 . S
C1734 C1735 1.367 . S
C1734 C1742 1.378 . S
C1735 C1734 1.367 . S
C1735 C1743 1.433 . S
C1736 H1732 0.929 . S
C1736 C1738 1.378 . S
C1736 C1740 1.350 . S
C1737 C1740 1.463 . S
C1737 C1742 1.350 . S
C1737 N1745 1.427 . S
C1738 H1729 0.930 . S
C1738 C1736 1.378 . S
C1738 C1739 1.367 . S
C1739 C1738 1.367 . S
C1739 C1741 1.433 . S
C1740 C1736 1.350 . S
C1740 C1737 1.463 . S
C1740 N1744 1.427 . S
C1741 H1731 0.929 . S
C1741 C1739 1.433 . S
C1741 N1744 1.384 . S
C1742 H1733 0.929 . S
C1742 C1734 1.378 . S
C1742 C1737 1.350 . S
C1743 H1730 0.929 . S
C1743 C1735 1.433 . S
C1743 N1745 1.384 . S
N1744 C1740 1.427 . S
N1744 C1741 1.384 . S
N1745 C1737 1.427 . S
N1745 C1743 1.384 . S
H1746 C1752 0.930 . S
H1747 C1756 0.930 . S
H1748 C1761 0.929 . S
H1749 C1759 0.929 . S
H1750 C1754 0.929 . S
H1751 C1760 0.929 . S
C1752 H1746 0.930 . S
C1752 C1753 1.367 . S
C1752 C1760 1.378 . S
C1753 C1752 1.367 . S
C1753 C1761 1.433 . S
C1754 H1750 0.929 . S
C1754 C1756 1.378 . S
C1754 C1758 1.350 . S
C1755 C1758 1.463 . S
C1755 C1760 1.350 . S
C1755 N1763 1.427 . S
C1756 H1747 0.930 . S
C1756 C1754 1.378 . S
C1756 C1757 1.367 . S
C1757 C1756 1.367 . S
C1757 C1759 1.433 . S
C1758 C1754 1.350 . S
C1758 C1755 1.463 . S
C1758 N1762 1.427 . S
C1759 H1749 0.929 . S
C1759 C1757 1.433 . S
C1759 N1762 1.384 . S
C1760 H1751 0.929 . S
C1760 C1752 1.378 . S
C1760 C1755 1.350 . S
C1761 H1748 0.929 . S
C1761 C1753 1.433 . S
C1761 N1763 1.384 . S
N1762 C1758 1.427 . S
N1762 C1759 1.384 . S
N1763 C1755 1.427 . S
N1763 C1761 1.384 . S
H1764 C1770 0.930 . S
H1765 C1774 0.930 . S
H1766 C1779 0.929 . S
H1767 C1777 0.929 . S
H1768 C1772 0.929 . S
H1769 C1778 0.929 . S
C1770 H1764 0.930 . S
C1770 C1771 1.367 . S
C1770 C1778 1.378 . S
C1771 C1770 1.367 . S
C1771 C1779 1.433 . S
C1772 H1768 0.929 . S
C1772 C1774 1.378 . S
C1772 C1776 1.350 . S
C1773 C1776 1.463 . S
C1773 C1778 1.350 . S
C1773 N1781 1.427 . S
C1774 H1765 0.930 . S
C1774 C1772 1.378 . S
C1774 C1775 1.367 . S
C1775 C1774 1.367 . S
C1775 C1777 1.433 . S
C1776 C1772 1.350 . S
C1776 C1773 1.463 . S
C1776 N1780 1.427 . S
C1777 H1767 0.929 . S
C1777 C1775 1.433 . S
C1777 N1780 1.384 . S
C1778 H1769 0.929 . S
C1778 C1770 1.378 . S
C1778 C1773 1.350 . S
C1779 H1766 0.929 . S
C1779 C1771 1.433 . S
C1779 N1781 1.384 . S
N1780 C1776 1.427 . S
N1780 C1777 1.384 . S
N1781 C1773 1.427 . S
N1781 C1779 1.384 . S
H1782 C1788 0.930 . S
H1783 C1792 0.930 . S
H1784 C1797 0.929 . S
H1785 C1795 0.929 . S
H1786 C1790 0.929 . S
H1787 C1796 0.929 . S
C1788 H1782 0.930 . S
C1788 C1789 1.367 . S
C1788 C1796 1.378 . S
C1789 C1788 1.367 . S
C1789 C1797 1.433 . S
C1790 H1786 0.929 . S
C1790 C1792 1.378 . S
C1790 C1794 1.350 . S
C1791 C1794 1.463 . S
C1791 C1796 1.350 . S
C1791 N1799 1.427 . S
C1792 H1783 0.930 . S
C1792 C1790 1.378 . S
C1792 C1793 1.367 . S
C1793 C1792 1.367 . S
C1793 C1795 1.433 . S
C1794 C1790 1.350 . S
C1794 C1791 1.463 . S
C1794 N1798 1.427 . S
C1795 H1785 0.929 . S
C1795 C1793 1.433 . S
C1795 N1798 1.384 . S
C1796 H1787 0.929 . S
C1796 C1788 1.378 . S
C1796 C1791 1.350 . S
C1797 H1784 0.929 . S
C1797 C1789 1.433 . S
C1797 N1799 1.384 . S
N1798 C1794 1.427 . S
N1798 C1795 1.384 . S
N1799 C1791 1.427 . S
N1799 C1797 1.384 . S
H1800 C1806 0.930 . S
H1801 C1810 0.930 . S
H1802 C1815 0.929 . S
H1803 C1813 0.929 . S
H1804 C1808 0.929 . S
H1805 C1814 0.929 . S
C1806 H1800 0.930 . S
C1806 C1807 1.367 . S
C1806 C1814 1.378 . S
C1807 C1806 1.367 . S
C1807 C1815 1.433 . S
C1808 H1804 0.929 . S
C1808 C1810 1.378 . S
C1808 C1812 1.350 . S
C1809 C1812 1.463 . S
C1809 C1814 1.350 . S
C1809 N1817 1.427 . S
C1810 H1801 0.930 . S
C1810 C1808 1.378 . S
C1810 C1811 1.367 . S
C1811 C1810 1.367 . S
C1811 C1813 1.433 . S
C1812 C1808 1.350 . S
C1812 C1809 1.463 . S
C1812 N1816 1.427 . S
C1813 H1803 0.929 . S
C1813 C1811 1.433 . S
C1813 N1816 1.384 . S
C1814 H1805 0.929 . S
C1814 C1806 1.378 . S
C1814 C1809 1.350 . S
C1815 H1802 0.929 . S
C1815 C1807 1.433 . S
C1815 N1817 1.384 . S
N1816 C1812 1.427 . S
N1816 C1813 1.384 . S
N1817 C1809 1.427 . S
N1817 C1815 1.384 . S
H1818 C1824 0.930 . S
H1819 C1828 0.930 . S
H1820 C1833 0.929 . S
H1821 C1831 0.929 . S
H1822 C1826 0.929 . S
H1823 C1832 0.929 1_565 S
C1824 H1818 0.930 . S
C1824 C1825 1.367 . S
C1824 C1832 1.378 . S
C1825 C1824 1.367 . S
C1825 C1833 1.433 . S
C1826 H1822 0.929 . S
C1826 C1828 1.378 . S
C1826 C1830 1.350 . S
C1827 C1830 1.463 . S
C1827 C1832 1.350 1_565 S
C1827 N1835 1.427 . S
C1828 H1819 0.930 . S
C1828 C1826 1.378 . S
C1828 C1829 1.367 . S
C1829 C1828 1.367 . S
C1829 C1831 1.433 . S
C1830 C1826 1.350 . S
C1830 C1827 1.463 . S
C1830 N1834 1.427 . S
C1831 H1821 0.929 . S
C1831 C1829 1.433 . S
C1831 N1834 1.384 . S
C1832 H1823 0.929 1_545 S
C1832 C1824 1.378 . S
C1832 C1827 1.350 1_545 S
C1833 H1820 0.929 . S
C1833 C1825 1.433 . S
C1833 N1835 1.384 1_545 S
N1834 C1830 1.427 . S
N1834 C1831 1.384 . S
N1835 C1827 1.427 . S
N1835 C1833 1.384 1_565 S
H1836 C1842 0.930 . S
H1837 C1846 0.930 . S
H1838 C1851 0.929 1_655 S
H1839 C1849 0.929 . S
H1840 C1844 0.929 . S
H1841 C1850 0.929 . S
C1842 H1836 0.930 . S
C1842 C1843 1.367 . S
C1842 C1850 1.378 1_655 S
C1843 C1842 1.367 . S
C1843 C1851 1.433 1_655 S
C1844 H1840 0.929 . S
C1844 C1846 1.378 . S
C1844 C1848 1.350 . S
C1845 C1848 1.463 . S
C1845 C1850 1.350 . S
C1845 N1853 1.427 . S
C1846 H1837 0.930 . S
C1846 C1844 1.378 . S
C1846 C1847 1.367 . S
C1847 C1846 1.367 . S
C1847 C1849 1.433 . S
C1848 C1844 1.350 . S
C1848 C1845 1.463 . S
C1848 N1852 1.427 . S
C1849 H1839 0.929 . S
C1849 C1847 1.433 . S
C1849 N1852 1.384 . S
C1850 H1841 0.929 . S
C1850 C1842 1.378 1_455 S
C1850 C1845 1.350 . S
C1851 H1838 0.929 1_455 S
C1851 C1843 1.433 1_455 S
C1851 N1853 1.384 . S
N1852 C1848 1.427 . S
N1852 C1849 1.384 . S
N1853 C1845 1.427 . S
N1853 C1851 1.384 . S
H1854 C1860 0.930 . S
H1855 C1864 0.930 . S
H1856 C1869 0.929 . S
H1857 C1867 0.929 . S
H1858 C1862 0.929 . S
H1859 C1868 0.929 . S
C1860 H1854 0.930 . S
C1860 C1861 1.367 . S
C1860 C1868 1.378 . S
C1861 C1860 1.367 . S
C1861 C1869 1.433 . S
C1862 H1858 0.929 . S
C1862 C1864 1.378 . S
C1862 C1866 1.350 . S
C1863 C1866 1.463 . S
C1863 C1868 1.350 . S
C1863 N1871 1.427 . S
C1864 H1855 0.930 . S
C1864 C1862 1.378 . S
C1864 C1865 1.367 . S
C1865 C1864 1.367 . S
C1865 C1867 1.433 . S
C1866 C1862 1.350 . S
C1866 C1863 1.463 . S
C1866 N1870 1.427 . S
C1867 H1857 0.929 . S
C1867 C1865 1.433 . S
C1867 N1870 1.384 . S
C1868 H1859 0.929 . S
C1868 C1860 1.378 . S
C1868 C1863 1.350 . S
C1869 H1856 0.929 . S
C1869 C1861 1.433 . S
C1869 N1871 1.384 . S
N1870 C1866 1.427 . S
N1870 C1867 1.384 . S
N1871 C1863 1.427 . S
N1871 C1869 1.384 . S
H1872 C1878 0.930 . S
H1873 C1882 0.930 . S
H1874 C1887 0.929 . S
H1875 C1885 0.929 . S
H1876 C1880 0.929 . S
H1877 C1886 0.929 . S
C1878 H1872 0.930 . S
C1878 C1879 1.367 . S
C1878 C1886 1.378 . S
C1879 C1878 1.367 . S
C1879 C1887 1.433 . S
C1880 H1876 0.929 . S
C1880 C1882 1.378 . S
C1880 C1884 1.350 . S
C1881 C1884 1.463 . S
C1881 C1886 1.350 . S
C1881 N1889 1.427 . S
C1882 H1873 0.930 . S
C1882 C1880 1.378 . S
C1882 C1883 1.367 . S
C1883 C1882 1.367 . S
C1883 C1885 1.433 . S
C1884 C1880 1.350 . S
C1884 C1881 1.463 . S
C1884 N1888 1.427 . S
C1885 H1875 0.929 . S
C1885 C1883 1.433 . S
C1885 N1888 1.384 . S
C1886 H1877 0.929 . S
C1886 C1878 1.378 . S
C1886 C1881 1.350 . S
C1887 H1874 0.929 . S
C1887 C1879 1.433 . S
C1887 N1889 1.384 . S
N1888 C1884 1.427 . S
N1888 C1885 1.384 . S
N1889 C1881 1.427 . S
N1889 C1887 1.384 . S
H1890 C1896 0.930 . S
H1891 C1900 0.930 . S
H1892 C1905 0.929 . S
H1893 C1903 0.929 . S
H1894 C1898 0.929 . S
H1895 C1904 0.929 . S
C1896 H1890 0.930 . S
C1896 C1897 1.367 . S
C1896 C1904 1.378 . S
C1897 C1896 1.367 . S
C1897 C1905 1.433 . S
C1898 H1894 0.929 . S
C1898 C1900 1.378 . S
C1898 C1902 1.350 . S
C1899 C1902 1.463 . S
C1899 C1904 1.350 . S
C1899 N1907 1.427 . S
C1900 H1891 0.930 . S
C1900 C1898 1.378 . S
C1900 C1901 1.367 . S
C1901 C1900 1.367 . S
C1901 C1903 1.433 . S
C1902 C1898 1.350 . S
C1902 C1899 1.463 . S
C1902 N1906 1.427 . S
C1903 H1893 0.929 . S
C1903 C1901 1.433 . S
C1903 N1906 1.384 . S
C1904 H1895 0.929 . S
C1904 C1896 1.378 . S
C1904 C1899 1.350 . S
C1905 H1892 0.929 . S
C1905 C1897 1.433 . S
C1905 N1907 1.384 . S
N1906 C1902 1.427 . S
N1906 C1903 1.384 . S
N1907 C1899 1.427 . S
N1907 C1905 1.384 . S
H1908 C1914 0.930 . S
H1909 C1918 0.930 . S
H1910 C1923 0.929 . S
H1911 C1921 0.929 . S
H1912 C1916 0.929 . S
H1913 C1922 0.929 . S
C1914 H1908 0.930 . S
C1914 C1915 1.367 . S
C1914 C1922 1.378 . S
C1915 C1914 1.367 . S
C1915 C1923 1.433 . S
C1916 H1912 0.929 . S
C1916 C1918 1.378 . S
C1916 C1920 1.350 . S
C1917 C1920 1.463 . S
C1917 C1922 1.350 . S
C1917 N1925 1.427 . S
C1918 H1909 0.930 . S
C1918 C1916 1.378 . S
C1918 C1919 1.367 . S
C1919 C1918 1.367 . S
C1919 C1921 1.433 . S
C1920 C1916 1.350 . S
C1920 C1917 1.463 . S
C1920 N1924 1.427 . S
C1921 H1911 0.929 . S
C1921 C1919 1.433 . S
C1921 N1924 1.384 . S
C1922 H1913 0.929 . S
C1922 C1914 1.378 . S
C1922 C1917 1.350 . S
C1923 H1910 0.929 . S
C1923 C1915 1.433 . S
C1923 N1925 1.384 . S
N1924 C1920 1.427 . S
N1924 C1921 1.384 . S
N1925 C1917 1.427 . S
N1925 C1923 1.384 . S
H1926 C1932 0.930 . S
H1927 C1936 0.930 . S
H1928 C1941 0.929 . S
H1929 C1939 0.929 . S
H1930 C1934 0.929 . S
H1931 C1940 0.929 1_545 S
C1932 H1926 0.930 . S
C1932 C1933 1.367 . S
C1932 C1940 1.378 . S
C1933 C1932 1.367 . S
C1933 C1941 1.433 . S
C1934 H1930 0.929 . S
C1934 C1936 1.378 . S
C1934 C1938 1.350 . S
C1935 C1938 1.463 . S
C1935 C1940 1.350 1_545 S
C1935 N1943 1.427 . S
C1936 H1927 0.930 . S
C1936 C1934 1.378 . S
C1936 C1937 1.367 . S
C1937 C1936 1.367 . S
C1937 C1939 1.433 . S
C1938 C1934 1.350 . S
C1938 C1935 1.463 . S
C1938 N1942 1.427 . S
C1939 H1929 0.929 . S
C1939 C1937 1.433 . S
C1939 N1942 1.384 . S
C1940 H1931 0.929 1_565 S
C1940 C1932 1.378 . S
C1940 C1935 1.350 1_565 S
C1941 H1928 0.929 . S
C1941 C1933 1.433 . S
C1941 N1943 1.384 1_565 S
N1942 C1938 1.427 . S
N1942 C1939 1.384 . S
N1943 C1935 1.427 . S
N1943 C1941 1.384 1_545 S
H1944 C1950 0.930 . S
H1945 C1954 0.930 . S
H1946 C1959 0.929 . S
H1947 C1957 0.929 . S
H1948 C1952 0.929 . S
H1949 C1958 0.929 . S
C1950 H1944 0.930 . S
C1950 C1951 1.367 . S
C1950 C1958 1.378 1_455 S
C1951 C1950 1.367 . S
C1951 C1959 1.433 1_455 S
C1952 H1948 0.929 . S
C1952 C1954 1.378 . S
C1952 C1956 1.350 . S
C1953 C1956 1.463 . S
C1953 C1958 1.350 . S
C1953 N1961 1.427 . S
C1954 H1945 0.930 . S
C1954 C1952 1.378 . S
C1954 C1955 1.367 . S
C1955 C1954 1.367 . S
C1955 C1957 1.433 . S
C1956 C1952 1.350 . S
C1956 C1953 1.463 . S
C1956 N1960 1.427 . S
C1957 H1947 0.929 . S
C1957 C1955 1.433 . S
C1957 N1960 1.384 . S
C1958 H1949 0.929 . S
C1958 C1950 1.378 1_655 S
C1958 C1953 1.350 . S
C1959 H1946 0.929 . S
C1959 C1951 1.433 1_655 S
C1959 N1961 1.384 . S
N1960 C1956 1.427 . S
N1960 C1957 1.384 . S
N1961 C1953 1.427 . S
N1961 C1959 1.384 . S
H1962 C1968 0.930 . S
H1963 C1972 0.930 . S
H1964 C1977 0.929 . S
H1965 C1975 0.929 . S
H1966 C1970 0.929 . S
H1967 C1976 0.929 . S
C1968 H1962 0.930 . S
C1968 C1969 1.367 . S
C1968 C1976 1.378 . S
C1969 C1968 1.367 . S
C1969 C1977 1.433 . S
C1970 H1966 0.929 . S
C1970 C1972 1.378 . S
C1970 C1974 1.350 . S
C1971 C1974 1.463 . S
C1971 C1976 1.350 . S
C1971 N1979 1.427 . S
C1972 H1963 0.930 . S
C1972 C1970 1.378 . S
C1972 C1973 1.367 . S
C1973 C1972 1.367 . S
C1973 C1975 1.433 . S
C1974 C1970 1.350 . S
C1974 C1971 1.463 . S
C1974 N1978 1.427 . S
C1975 H1965 0.929 . S
C1975 C1973 1.433 . S
C1975 N1978 1.384 . S
C1976 H1967 0.929 . S
C1976 C1968 1.378 . S
C1976 C1971 1.350 . S
C1977 H1964 0.929 . S
C1977 C1969 1.433 . S
C1977 N1979 1.384 . S
N1978 C1974 1.427 . S
N1978 C1975 1.384 . S
N1979 C1971 1.427 . S
N1979 C1977 1.384 . S
H1980 C1986 0.930 . S
H1981 C1990 0.930 . S
H1982 C1995 0.929 . S
H1983 C1993 0.929 . S
H1984 C1988 0.929 . S
H1985 C1994 0.929 . S
C1986 H1980 0.930 . S
C1986 C1987 1.367 . S
C1986 C1994 1.378 1_455 S
C1987 C1986 1.367 . S
C1987 C1995 1.433 . S
C1988 H1984 0.929 . S
C1988 C1990 1.378 . S
C1988 C1992 1.350 . S
C1989 C1992 1.463 . S
C1989 C1994 1.350 . S
C1989 N1997 1.427 . S
C1990 H1981 0.930 . S
C1990 C1988 1.378 . S
C1990 C1991 1.367 . S
C1991 C1990 1.367 . S
C1991 C1993 1.433 . S
C1992 C1988 1.350 . S
C1992 C1989 1.463 . S
C1992 N1996 1.427 . S
C1993 H1983 0.929 . S
C1993 C1991 1.433 . S
C1993 N1996 1.384 . S
C1994 H1985 0.929 . S
C1994 C1986 1.378 1_655 S
C1994 C1989 1.350 . S
C1995 H1982 0.929 . S
C1995 C1987 1.433 . S
C1995 N1997 1.384 1_455 S
N1996 C1992 1.427 . S
N1996 C1993 1.384 . S
N1997 C1989 1.427 . S
N1997 C1995 1.384 1_655 S
H1998 C2004 0.930 . S
H1999 C2008 0.930 . S
H2000 C2013 0.929 . S
H2001 C2011 0.929 . S
H2002 C2006 0.929 . S
H2003 C2012 0.929 . S
C2004 H1998 0.930 . S
C2004 C2005 1.367 . S
C2004 C2012 1.378 . S
C2005 C2004 1.367 . S
C2005 C2013 1.433 . S
C2006 H2002 0.929 . S
C2006 C2008 1.378 . S
C2006 C2010 1.350 . S
C2007 C2010 1.463 . S
C2007 C2012 1.350 . S
C2007 N2015 1.427 . S
C2008 H1999 0.930 . S
C2008 C2006 1.378 . S
C2008 C2009 1.367 . S
C2009 C2008 1.367 . S
C2009 C2011 1.433 . S
C2010 C2006 1.350 . S
C2010 C2007 1.463 . S
C2010 N2014 1.427 . S
C2011 H2001 0.929 . S
C2011 C2009 1.433 . S
C2011 N2014 1.384 . S
C2012 H2003 0.929 . S
C2012 C2004 1.378 . S
C2012 C2007 1.350 . S
C2013 H2000 0.929 . S
C2013 C2005 1.433 . S
C2013 N2015 1.384 . S
N2014 C2010 1.427 . S
N2014 C2011 1.384 . S
N2015 C2007 1.427 . S
N2015 C2013 1.384 . S
H2016 C2022 0.930 . S
H2017 C2026 0.930 . S
H2018 C2031 0.929 . S
H2019 C2029 0.929 . S
H2020 C2024 0.929 . S
H2021 C2030 0.929 1_545 S
C2022 H2016 0.930 . S
C2022 C2023 1.367 . S
C2022 C2030 1.378 . S
C2023 C2022 1.367 . S
C2023 C2031 1.433 . S
C2024 H2020 0.929 . S
C2024 C2026 1.378 . S
C2024 C2028 1.350 . S
C2025 C2028 1.463 . S
C2025 C2030 1.350 1_545 S
C2025 N2033 1.427 1_545 S
C2026 H2017 0.930 . S
C2026 C2024 1.378 . S
C2026 C2027 1.367 . S
C2027 C2026 1.367 . S
C2027 C2029 1.433 . S
C2028 C2024 1.350 . S
C2028 C2025 1.463 . S
C2028 N2032 1.427 . S
C2029 H2019 0.929 . S
C2029 C2027 1.433 . S
C2029 N2032 1.384 . S
C2030 H2021 0.929 1_565 S
C2030 C2022 1.378 . S
C2030 C2025 1.350 1_565 S
C2031 H2018 0.929 . S
C2031 C2023 1.433 . S
C2031 N2033 1.384 . S
N2032 C2028 1.427 . S
N2032 C2029 1.384 . S
N2033 C2025 1.427 1_565 S
N2033 C2031 1.384 . S
H2034 C2040 0.930 . S
H2035 C2044 0.930 . S
H2036 C2049 0.929 . S
H2037 C2047 0.929 . S
H2038 C2042 0.929 . S
H2039 C2048 0.929 . S
C2040 H2034 0.930 . S
C2040 C2041 1.367 . S
C2040 C2048 1.378 . S
C2041 C2040 1.367 . S
C2041 C2049 1.433 . S
C2042 H2038 0.929 . S
C2042 C2044 1.378 . S
C2042 C2046 1.350 . S
C2043 C2046 1.463 . S
C2043 C2048 1.350 . S
C2043 N2051 1.427 . S
C2044 H2035 0.930 . S
C2044 C2042 1.378 . S
C2044 C2045 1.367 . S
C2045 C2044 1.367 . S
C2045 C2047 1.433 . S
C2046 C2042 1.350 . S
C2046 C2043 1.463 . S
C2046 N2050 1.427 . S
C2047 H2037 0.929 . S
C2047 C2045 1.433 . S
C2047 N2050 1.384 . S
C2048 H2039 0.929 . S
C2048 C2040 1.378 . S
C2048 C2043 1.350 . S
C2049 H2036 0.929 . S
C2049 C2041 1.433 . S
C2049 N2051 1.384 . S
N2050 C2046 1.427 . S
N2050 C2047 1.384 . S
N2051 C2043 1.427 . S
N2051 C2049 1.384 . S
H2052 C2058 0.930 . S
H2053 C2062 0.930 . S
H2054 C2067 0.929 . S
H2055 C2065 0.929 . S
H2056 C2060 0.929 . S
H2057 C2066 0.929 . S
C2058 H2052 0.930 . S
C2058 C2059 1.367 . S
C2058 C2066 1.378 . S
C2059 C2058 1.367 . S
C2059 C2067 1.433 . S
C2060 H2056 0.929 . S
C2060 C2062 1.378 . S
C2060 C2064 1.350 . S
C2061 C2064 1.463 . S
C2061 C2066 1.350 . S
C2061 N2069 1.427 . S
C2062 H2053 0.930 . S
C2062 C2060 1.378 . S
C2062 C2063 1.367 . S
C2063 C2062 1.367 . S
C2063 C2065 1.433 . S
C2064 C2060 1.350 . S
C2064 C2061 1.463 . S
C2064 N2068 1.427 . S
C2065 H2055 0.929 . S
C2065 C2063 1.433 . S
C2065 N2068 1.384 . S
C2066 H2057 0.929 . S
C2066 C2058 1.378 . S
C2066 C2061 1.350 . S
C2067 H2054 0.929 . S
C2067 C2059 1.433 . S
C2067 N2069 1.384 . S
N2068 C2064 1.427 . S
N2068 C2065 1.384 . S
N2069 C2061 1.427 . S
N2069 C2067 1.384 . S
H2070 C2076 0.930 . S
H2071 C2080 0.930 . S
H2072 C2085 0.929 . S
H2073 C2083 0.929 . S
H2074 C2078 0.929 . S
H2075 C2084 0.929 . S
C2076 H2070 0.930 . S
C2076 C2077 1.367 . S
C2076 C2084 1.378 . S
C2077 C2076 1.367 . S
C2077 C2085 1.433 . S
C2078 H2074 0.929 . S
C2078 C2080 1.378 . S
C2078 C2082 1.350 . S
C2079 C2082 1.463 . S
C2079 C2084 1.350 . S
C2079 N2087 1.427 . S
C2080 H2071 0.930 . S
C2080 C2078 1.378 . S
C2080 C2081 1.367 . S
C2081 C2080 1.367 . S
C2081 C2083 1.433 . S
C2082 C2078 1.350 . S
C2082 C2079 1.463 . S
C2082 N2086 1.427 . S
C2083 H2073 0.929 . S
C2083 C2081 1.433 . S
C2083 N2086 1.384 . S
C2084 H2075 0.929 . S
C2084 C2076 1.378 . S
C2084 C2079 1.350 . S
C2085 H2072 0.929 . S
C2085 C2077 1.433 . S
C2085 N2087 1.384 . S
N2086 C2082 1.427 . S
N2086 C2083 1.384 . S
N2087 C2079 1.427 . S
N2087 C2085 1.384 . S
H2088 C2094 0.930 . S
H2089 C2098 0.930 . S
H2090 C2103 0.929 . S
H2091 C2101 0.929 . S
H2092 C2096 0.929 . S
H2093 C2102 0.929 . S
C2094 H2088 0.930 . S
C2094 C2095 1.367 . S
C2094 C2102 1.378 . S
C2095 C2094 1.367 . S
C2095 C2103 1.433 . S
C2096 H2092 0.929 . S
C2096 C2098 1.378 . S
C2096 C2100 1.350 . S
C2097 C2100 1.463 . S
C2097 C2102 1.350 . S
C2097 N2105 1.427 . S
C2098 H2089 0.930 . S
C2098 C2096 1.378 . S
C2098 C2099 1.367 . S
C2099 C2098 1.367 . S
C2099 C2101 1.433 1_565 S
C2100 C2096 1.350 . S
C2100 C2097 1.463 . S
C2100 N2104 1.427 . S
C2101 H2091 0.929 . S
C2101 C2099 1.433 1_545 S
C2101 N2104 1.384 1_545 S
C2102 H2093 0.929 . S
C2102 C2094 1.378 . S
C2102 C2097 1.350 . S
C2103 H2090 0.929 . S
C2103 C2095 1.433 . S
C2103 N2105 1.384 . S
N2104 C2100 1.427 . S
N2104 C2101 1.384 1_565 S
N2105 C2097 1.427 . S
N2105 C2103 1.384 . S
H2106 C2112 0.930 . S
H2107 C2116 0.930 . S
H2108 C2121 0.929 . S
H2109 C2119 0.929 . S
H2110 C2114 0.929 . S
H2111 C2120 0.929 . S
C2112 H2106 0.930 . S
C2112 C2113 1.367 1_655 S
C2112 C2120 1.378 . S
C2113 C2112 1.367 1_455 S
C2113 C2121 1.433 . S
C2114 H2110 0.929 . S
C2114 C2116 1.378 . S
C2114 C2118 1.350 . S
C2115 C2118 1.463 . S
C2115 C2120 1.350 1_455 S
C2115 N2123 1.427 . S
C2116 H2107 0.930 . S
C2116 C2114 1.378 . S
C2116 C2117 1.367 . S
C2117 C2116 1.367 . S
C2117 C2119 1.433 1_455 S
C2118 C2114 1.350 . S
C2118 C2115 1.463 . S
C2118 N2122 1.427 1_455 S
C2119 H2109 0.929 . S
C2119 C2117 1.433 1_655 S
C2119 N2122 1.384 . S
C2120 H2111 0.929 . S
C2120 C2112 1.378 . S
C2120 C2115 1.350 1_655 S
C2121 H2108 0.929 . S
C2121 C2113 1.433 . S
C2121 N2123 1.384 . S
N2122 C2118 1.427 1_655 S
N2122 C2119 1.384 . S
N2123 C2115 1.427 . S
N2123 C2121 1.384 . S
H2124 C2130 0.930 . S
H2125 C2134 0.930 . S
H2126 C2139 0.929 . S
H2127 C2137 0.929 . S
H2128 C2132 0.929 . S
H2129 C2138 0.929 . S
C2130 H2124 0.930 . S
C2130 C2131 1.367 . S
C2130 C2138 1.378 . S
C2131 C2130 1.367 . S
C2131 C2139 1.433 . S
C2132 H2128 0.929 . S
C2132 C2134 1.378 . S
C2132 C2136 1.350 . S
C2133 C2136 1.463 . S
C2133 C2138 1.350 . S
C2133 N2141 1.427 . S
C2134 H2125 0.930 . S
C2134 C2132 1.378 . S
C2134 C2135 1.367 . S
C2135 C2134 1.367 . S
C2135 C2137 1.433 . S
C2136 C2132 1.350 . S
C2136 C2133 1.463 . S
C2136 N2140 1.427 . S
C2137 H2127 0.929 . S
C2137 C2135 1.433 . S
C2137 N2140 1.384 . S
C2138 H2129 0.929 . S
C2138 C2130 1.378 . S
C2138 C2133 1.350 . S
C2139 H2126 0.929 . S
C2139 C2131 1.433 . S
C2139 N2141 1.384 . S
N2140 C2136 1.427 . S
N2140 C2137 1.384 . S
N2141 C2133 1.427 . S
N2141 C2139 1.384 . S
H2142 C2148 0.930 . S
H2143 C2152 0.930 . S
H2144 C2157 0.929 . S
H2145 C2155 0.929 . S
H2146 C2150 0.929 . S
H2147 C2156 0.929 . S
C2148 H2142 0.930 . S
C2148 C2149 1.367 1_455 S
C2148 C2156 1.378 . S
C2149 C2148 1.367 1_655 S
C2149 C2157 1.433 . S
C2150 H2146 0.929 . S
C2150 C2152 1.378 . S
C2150 C2154 1.350 . S
C2151 C2154 1.463 . S
C2151 C2156 1.350 1_655 S
C2151 N2159 1.427 . S
C2152 H2143 0.930 . S
C2152 C2150 1.378 . S
C2152 C2153 1.367 . S
C2153 C2152 1.367 . S
C2153 C2155 1.433 1_655 S
C2154 C2150 1.350 . S
C2154 C2151 1.463 . S
C2154 N2158 1.427 1_655 S
C2155 H2145 0.929 . S
C2155 C2153 1.433 1_455 S
C2155 N2158 1.384 . S
C2156 H2147 0.929 . S
C2156 C2148 1.378 . S
C2156 C2151 1.350 1_455 S
C2157 H2144 0.929 . S
C2157 C2149 1.433 . S
C2157 N2159 1.384 . S
N2158 C2154 1.427 1_455 S
N2158 C2155 1.384 . S
N2159 C2151 1.427 . S
N2159 C2157 1.384 . S
H2160 C2166 0.930 . S
H2161 C2170 0.930 . S
H2162 C2175 0.929 . S
H2163 C2173 0.929 . S
H2164 C2168 0.929 . S
H2165 C2174 0.929 . S
C2166 H2160 0.930 . S
C2166 C2167 1.367 . S
C2166 C2174 1.378 . S
C2167 C2166 1.367 . S
C2167 C2175 1.433 . S
C2168 H2164 0.929 . S
C2168 C2170 1.378 . S
C2168 C2172 1.350 . S
C2169 C2172 1.463 . S
C2169 C2174 1.350 . S
C2169 N2177 1.427 . S
C2170 H2161 0.930 . S
C2170 C2168 1.378 . S
C2170 C2171 1.367 . S
C2171 C2170 1.367 . S
C2171 C2173 1.433 . S
C2172 C2168 1.350 . S
C2172 C2169 1.463 . S
C2172 N2176 1.427 . S
C2173 H2163 0.929 . S
C2173 C2171 1.433 . S
C2173 N2176 1.384 . S
C2174 H2165 0.929 . S
C2174 C2166 1.378 . S
C2174 C2169 1.350 . S
C2175 H2162 0.929 . S
C2175 C2167 1.433 . S
C2175 N2177 1.384 . S
N2176 C2172 1.427 . S
N2176 C2173 1.384 . S
N2177 C2169 1.427 . S
N2177 C2175 1.384 . S
H2178 C2184 0.930 . S
H2179 C2188 0.930 . S
H2180 C2193 0.929 . S
H2181 C2191 0.929 . S
H2182 C2186 0.929 . S
H2183 C2192 0.929 . S
C2184 H2178 0.930 . S
C2184 C2185 1.367 . S
C2184 C2192 1.378 . S
C2185 C2184 1.367 . S
C2185 C2193 1.433 . S
C2186 H2182 0.929 . S
C2186 C2188 1.378 . S
C2186 C2190 1.350 1_565 S
C2187 C2190 1.463 . S
C2187 C2192 1.350 . S
C2187 N2195 1.427 . S
C2188 H2179 0.930 . S
C2188 C2186 1.378 . S
C2188 C2189 1.367 1_565 S
C2189 C2188 1.367 1_545 S
C2189 C2191 1.433 . S
C2190 C2186 1.350 1_545 S
C2190 C2187 1.463 . S
C2190 N2194 1.427 . S
C2191 H2181 0.929 . S
C2191 C2189 1.433 . S
C2191 N2194 1.384 . S
C2192 H2183 0.929 . S
C2192 C2184 1.378 . S
C2192 C2187 1.350 . S
C2193 H2180 0.929 . S
C2193 C2185 1.433 . S
C2193 N2195 1.384 . S
N2194 C2190 1.427 . S
N2194 C2191 1.384 . S
N2195 C2187 1.427 . S
N2195 C2193 1.384 . S
H2196 C2202 0.930 . S
H2197 C2206 0.930 . S
H2198 C2211 0.929 . S
H2199 C2209 0.929 . S
H2200 C2204 0.929 . S
H2201 C2210 0.929 . S
C2202 H2196 0.930 . S
C2202 C2203 1.367 . S
C2202 C2210 1.378 . S
C2203 C2202 1.367 . S
C2203 C2211 1.433 . S
C2204 H2200 0.929 . S
C2204 C2206 1.378 . S
C2204 C2208 1.350 . S
C2205 C2208 1.463 . S
C2205 C2210 1.350 . S
C2205 N2213 1.427 . S
C2206 H2197 0.930 . S
C2206 C2204 1.378 . S
C2206 C2207 1.367 . S
C2207 C2206 1.367 . S
C2207 C2209 1.433 . S
C2208 C2204 1.350 . S
C2208 C2205 1.463 . S
C2208 N2212 1.427 . S
C2209 H2199 0.929 . S
C2209 C2207 1.433 . S
C2209 N2212 1.384 . S
C2210 H2201 0.929 . S
C2210 C2202 1.378 . S
C2210 C2205 1.350 . S
C2211 H2198 0.929 . S
C2211 C2203 1.433 . S
C2211 N2213 1.384 . S
N2212 C2208 1.427 . S
N2212 C2209 1.384 . S
N2213 C2205 1.427 . S
N2213 C2211 1.384 . S
H2214 C2220 0.930 . S
H2215 C2224 0.930 . S
H2216 C2229 0.929 . S
H2217 C2227 0.929 . S
H2218 C2222 0.929 . S
H2219 C2228 0.929 . S
C2220 H2214 0.930 . S
C2220 C2221 1.367 . S
C2220 C2228 1.378 . S
C2221 C2220 1.367 . S
C2221 C2229 1.433 . S
C2222 H2218 0.929 . S
C2222 C2224 1.378 . S
C2222 C2226 1.350 . S
C2223 C2226 1.463 . S
C2223 C2228 1.350 . S
C2223 N2231 1.427 . S
C2224 H2215 0.930 . S
C2224 C2222 1.378 . S
C2224 C2225 1.367 . S
C2225 C2224 1.367 . S
C2225 C2227 1.433 . S
C2226 C2222 1.350 . S
C2226 C2223 1.463 . S
C2226 N2230 1.427 . S
C2227 H2217 0.929 . S
C2227 C2225 1.433 . S
C2227 N2230 1.384 . S
C2228 H2219 0.929 . S
C2228 C2220 1.378 . S
C2228 C2223 1.350 . S
C2229 H2216 0.929 . S
C2229 C2221 1.433 . S
C2229 N2231 1.384 . S
N2230 C2226 1.427 . S
N2230 C2227 1.384 . S
N2231 C2223 1.427 . S
N2231 C2229 1.384 . S
H2232 C2238 0.930 . S
H2233 C2242 0.930 . S
H2234 C2247 0.929 . S
H2235 C2245 0.929 . S
H2236 C2240 0.929 . S
H2237 C2246 0.929 . S
C2238 H2232 0.930 . S
C2238 C2239 1.367 . S
C2238 C2246 1.378 . S
C2239 C2238 1.367 . S
C2239 C2247 1.433 . S
C2240 H2236 0.929 . S
C2240 C2242 1.378 . S
C2240 C2244 1.350 . S
C2241 C2244 1.463 . S
C2241 C2246 1.350 . S
C2241 N2249 1.427 . S
C2242 H2233 0.930 . S
C2242 C2240 1.378 . S
C2242 C2243 1.367 . S
C2243 C2242 1.367 . S
C2243 C2245 1.433 . S
C2244 C2240 1.350 . S
C2244 C2241 1.463 . S
C2244 N2248 1.427 . S
C2245 H2235 0.929 . S
C2245 C2243 1.433 . S
C2245 N2248 1.384 . S
C2246 H2237 0.929 . S
C2246 C2238 1.378 . S
C2246 C2241 1.350 . S
C2247 H2234 0.929 . S
C2247 C2239 1.433 . S
C2247 N2249 1.384 . S
N2248 C2244 1.427 . S
N2248 C2245 1.384 . S
N2249 C2241 1.427 . S
N2249 C2247 1.384 . S
H2250 C2256 0.930 . S
H2251 C2260 0.930 . S
H2252 C2265 0.929 . S
H2253 C2263 0.929 . S
H2254 C2258 0.929 . S
H2255 C2264 0.929 . S
C2256 H2250 0.930 . S
C2256 C2257 1.367 . S
C2256 C2264 1.378 . S
C2257 C2256 1.367 . S
C2257 C2265 1.433 . S
C2258 H2254 0.929 . S
C2258 C2260 1.378 . S
C2258 C2262 1.350 . S
C2259 C2262 1.463 . S
C2259 C2264 1.350 . S
C2259 N2267 1.427 . S
C2260 H2251 0.930 . S
C2260 C2258 1.378 . S
C2260 C2261 1.367 . S
C2261 C2260 1.367 . S
C2261 C2263 1.433 . S
C2262 C2258 1.350 . S
C2262 C2259 1.463 . S
C2262 N2266 1.427 . S
C2263 H2253 0.929 . S
C2263 C2261 1.433 . S
C2263 N2266 1.384 . S
C2264 H2255 0.929 . S
C2264 C2256 1.378 . S
C2264 C2259 1.350 . S
C2265 H2252 0.929 . S
C2265 C2257 1.433 . S
C2265 N2267 1.384 . S
N2266 C2262 1.427 . S
N2266 C2263 1.384 . S
N2267 C2259 1.427 . S
N2267 C2265 1.384 . S
H2268 C2274 0.930 . S
H2269 C2278 0.930 . S
H2270 C2283 0.929 . S
H2271 C2281 0.929 . S
H2272 C2276 0.929 . S
H2273 C2282 0.929 . S
C2274 H2268 0.930 . S
C2274 C2275 1.367 . S
C2274 C2282 1.378 . S
C2275 C2274 1.367 . S
C2275 C2283 1.433 . S
C2276 H2272 0.929 . S
C2276 C2278 1.378 . S
C2276 C2280 1.350 . S
C2277 C2280 1.463 . S
C2277 C2282 1.350 . S
C2277 N2285 1.427 . S
C2278 H2269 0.930 . S
C2278 C2276 1.378 . S
C2278 C2279 1.367 . S
C2279 C2278 1.367 . S
C2279 C2281 1.433 . S
C2280 C2276 1.350 . S
C2280 C2277 1.463 . S
C2280 N2284 1.427 . S
C2281 H2271 0.929 . S
C2281 C2279 1.433 . S
C2281 N2284 1.384 . S
C2282 H2273 0.929 . S
C2282 C2274 1.378 . S
C2282 C2277 1.350 . S
C2283 H2270 0.929 . S
C2283 C2275 1.433 . S
C2283 N2285 1.384 . S
N2284 C2280 1.427 . S
N2284 C2281 1.384 . S
N2285 C2277 1.427 . S
N2285 C2283 1.384 . S
H2286 C2292 0.930 . S
H2287 C2296 0.930 . S
H2288 C2301 0.929 . S
H2289 C2299 0.929 . S
H2290 C2294 0.929 . S
H2291 C2300 0.929 . S
C2292 H2286 0.930 . S
C2292 C2293 1.367 . S
C2292 C2300 1.378 . S
C2293 C2292 1.367 . S
C2293 C2301 1.433 . S
C2294 H2290 0.929 . S
C2294 C2296 1.378 . S
C2294 C2298 1.350 . S
C2295 C2298 1.463 . S
C2295 C2300 1.350 . S
C2295 N2303 1.427 . S
C2296 H2287 0.930 . S
C2296 C2294 1.378 . S
C2296 C2297 1.367 . S
C2297 C2296 1.367 . S
C2297 C2299 1.433 . S
C2298 C2294 1.350 . S
C2298 C2295 1.463 . S
C2298 N2302 1.427 . S
C2299 H2289 0.929 . S
C2299 C2297 1.433 . S
C2299 N2302 1.384 . S
C2300 H2291 0.929 . S
C2300 C2292 1.378 . S
C2300 C2295 1.350 . S
C2301 H2288 0.929 . S
C2301 C2293 1.433 . S
C2301 N2303 1.384 . S
N2302 C2298 1.427 . S
N2302 C2299 1.384 . S
N2303 C2295 1.427 . S
N2303 C2301 1.384 . S
H2304 C2310 0.930 . S
H2305 C2314 0.930 . S
H2306 C2319 0.929 . S
H2307 C2317 0.929 . S
H2308 C2312 0.929 . S
H2309 C2318 0.929 . S
C2310 H2304 0.930 . S
C2310 C2311 1.367 . S
C2310 C2318 1.378 . S
C2311 C2310 1.367 . S
C2311 C2319 1.433 . S
C2312 H2308 0.929 . S
C2312 C2314 1.378 . S
C2312 C2316 1.350 . S
C2313 C2316 1.463 . S
C2313 C2318 1.350 . S
C2313 N2321 1.427 . S
C2314 H2305 0.930 . S
C2314 C2312 1.378 . S
C2314 C2315 1.367 . S
C2315 C2314 1.367 . S
C2315 C2317 1.433 . S
C2316 C2312 1.350 . S
C2316 C2313 1.463 . S
C2316 N2320 1.427 . S
C2317 H2307 0.929 . S
C2317 C2315 1.433 . S
C2317 N2320 1.384 . S
C2318 H2309 0.929 . S
C2318 C2310 1.378 . S
C2318 C2313 1.350 . S
C2319 H2306 0.929 . S
C2319 C2311 1.433 . S
C2319 N2321 1.384 . S
N2320 C2316 1.427 . S
N2320 C2317 1.384 . S
N2321 C2313 1.427 . S
N2321 C2319 1.384 . S
H2322 C2328 0.930 . S
H2323 C2332 0.930 . S
H2324 C2337 0.929 . S
H2325 C2335 0.929 . S
H2326 C2330 0.929 . S
H2327 C2336 0.929 . S
C2328 H2322 0.930 . S
C2328 C2329 1.367 . S
C2328 C2336 1.378 . S
C2329 C2328 1.367 . S
C2329 C2337 1.433 . S
C2330 H2326 0.929 . S
C2330 C2332 1.378 . S
C2330 C2334 1.350 . S
C2331 C2334 1.463 . S
C2331 C2336 1.350 . S
C2331 N2339 1.427 . S
C2332 H2323 0.930 . S
C2332 C2330 1.378 . S
C2332 C2333 1.367 . S
C2333 C2332 1.367 . S
C2333 C2335 1.433 . S
C2334 C2330 1.350 . S
C2334 C2331 1.463 . S
C2334 N2338 1.427 . S
C2335 H2325 0.929 . S
C2335 C2333 1.433 . S
C2335 N2338 1.384 . S
C2336 H2327 0.929 . S
C2336 C2328 1.378 . S
C2336 C2331 1.350 . S
C2337 H2324 0.929 . S
C2337 C2329 1.433 . S
C2337 N2339 1.384 . S
N2338 C2334 1.427 . S
N2338 C2335 1.384 . S
N2339 C2331 1.427 . S
N2339 C2337 1.384 . S
H2340 C2346 0.930 . S
H2341 C2350 0.930 . S
H2342 C2355 0.929 . S
H2343 C2353 0.929 . S
H2344 C2348 0.929 . S
H2345 C2354 0.929 . S
C2346 H2340 0.930 . S
C2346 C2347 1.367 . S
C2346 C2354 1.378 . S
C2347 C2346 1.367 . S
C2347 C2355 1.433 . S
C2348 H2344 0.929 . S
C2348 C2350 1.378 . S
C2348 C2352 1.350 . S
C2349 C2352 1.463 . S
C2349 C2354 1.350 . S
C2349 N2357 1.427 . S
C2350 H2341 0.930 . S
C2350 C2348 1.378 . S
C2350 C2351 1.367 . S
C2351 C2350 1.367 . S
C2351 C2353 1.433 . S
C2352 C2348 1.350 . S
C2352 C2349 1.463 . S
C2352 N2356 1.427 . S
C2353 H2343 0.929 . S
C2353 C2351 1.433 . S
C2353 N2356 1.384 . S
C2354 H2345 0.929 . S
C2354 C2346 1.378 . S
C2354 C2349 1.350 . S
C2355 H2342 0.929 . S
C2355 C2347 1.433 . S
C2355 N2357 1.384 . S
N2356 C2352 1.427 . S
N2356 C2353 1.384 . S
N2357 C2349 1.427 . S
N2357 C2355 1.384 . S
H2358 C2364 0.930 . S
H2359 C2368 0.930 . S
H2360 C2373 0.929 . S
H2361 C2371 0.929 . S
H2362 C2366 0.929 . S
H2363 C2372 0.929 . S
C2364 H2358 0.930 . S
C2364 C2365 1.367 . S
C2364 C2372 1.378 . S
C2365 C2364 1.367 . S
C2365 C2373 1.433 . S
C2366 H2362 0.929 . S
C2366 C2368 1.378 . S
C2366 C2370 1.350 . S
C2367 C2370 1.463 . S
C2367 C2372 1.350 . S
C2367 N2375 1.427 . S
C2368 H2359 0.930 . S
C2368 C2366 1.378 . S
C2368 C2369 1.367 . S
C2369 C2368 1.367 . S
C2369 C2371 1.433 . S
C2370 C2366 1.350 . S
C2370 C2367 1.463 . S
C2370 N2374 1.427 . S
C2371 H2361 0.929 . S
C2371 C2369 1.433 . S
C2371 N2374 1.384 . S
C2372 H2363 0.929 . S
C2372 C2364 1.378 . S
C2372 C2367 1.350 . S
C2373 H2360 0.929 . S
C2373 C2365 1.433 . S
C2373 N2375 1.384 . S
N2374 C2370 1.427 . S
N2374 C2371 1.384 . S
N2375 C2367 1.427 . S
N2375 C2373 1.384 . S
H2376 C2382 0.930 . S
H2377 C2386 0.930 . S
H2378 C2391 0.929 . S
H2379 C2389 0.929 . S
H2380 C2384 0.929 . S
H2381 C2390 0.929 . S
C2382 H2376 0.930 . S
C2382 C2383 1.367 . S
C2382 C2390 1.378 . S
C2383 C2382 1.367 . S
C2383 C2391 1.433 . S
C2384 H2380 0.929 . S
C2384 C2386 1.378 . S
C2384 C2388 1.350 . S
C2385 C2388 1.463 . S
C2385 C2390 1.350 . S
C2385 N2393 1.427 . S
C2386 H2377 0.930 . S
C2386 C2384 1.378 . S
C2386 C2387 1.367 . S
C2387 C2386 1.367 . S
C2387 C2389 1.433 . S
C2388 C2384 1.350 . S
C2388 C2385 1.463 . S
C2388 N2392 1.427 . S
C2389 H2379 0.929 . S
C2389 C2387 1.433 . S
C2389 N2392 1.384 . S
C2390 H2381 0.929 . S
C2390 C2382 1.378 . S
C2390 C2385 1.350 . S
C2391 H2378 0.929 . S
C2391 C2383 1.433 . S
C2391 N2393 1.384 . S
N2392 C2388 1.427 . S
N2392 C2389 1.384 . S
N2393 C2385 1.427 . S
N2393 C2391 1.384 . S
H2394 C2400 0.930 . S
H2395 C2404 0.930 . S
H2396 C2409 0.929 . S
H2397 C2407 0.929 . S
H2398 C2402 0.929 . S
H2399 C2408 0.929 . S
C2400 H2394 0.930 . S
C2400 C2401 1.367 . S
C2400 C2408 1.378 . S
C2401 C2400 1.367 . S
C2401 C2409 1.433 . S
C2402 H2398 0.929 . S
C2402 C2404 1.378 . S
C2402 C2406 1.350 . S
C2403 C2406 1.463 . S
C2403 C2408 1.350 . S
C2403 N2411 1.427 . S
C2404 H2395 0.930 . S
C2404 C2402 1.378 . S
C2404 C2405 1.367 . S
C2405 C2404 1.367 . S
C2405 C2407 1.433 . S
C2406 C2402 1.350 . S
C2406 C2403 1.463 . S
C2406 N2410 1.427 . S
C2407 H2397 0.929 . S
C2407 C2405 1.433 . S
C2407 N2410 1.384 . S
C2408 H2399 0.929 . S
C2408 C2400 1.378 . S
C2408 C2403 1.350 . S
C2409 H2396 0.929 . S
C2409 C2401 1.433 . S
C2409 N2411 1.384 . S
N2410 C2406 1.427 . S
N2410 C2407 1.384 . S
N2411 C2403 1.427 . S
N2411 C2409 1.384 . S
C1447 C781 1.690 . S
C1451 C1083 1.694 . S
C1465 C871 1.752 . S
C1469 C1123 1.794 . S
C1483 C751 1.713 . S
C1487 C1175 1.760 . S
C1501 C691 1.543 . S
C1505 C1135 1.576 . S
C1523 C1163 1.475 . S
C1519 C571 1.403 . S
C1537 C601 1.418 . S
C1541 C1095 1.437 . S
C1559 C1102 1.696 . S
C1555 C661 1.619 . S
C1577 C1142 1.802 . S
C1573 C541 1.747 . S
C1591 C631 1.781 . S
C1595 C1162 1.762 . S
C1609 C811 1.595 . S
C1613 C1122 1.579 . S
C1627 C841 1.445 . S
C1631 C1182 1.479 . S
C1649 C1082 1.440 . S
C1645 C721 1.350 . S
C1667 C1203 1.694 . S
C1663 C61 1.690 . S
C1681 C151 1.751 . S
C1685 C1243 1.800 . S
C1699 C31 1.712 . S
C1703 C1295 1.762 . S
C1717 C1051 1.530 . S
C1721 C1255 1.576 . S
C1735 C931 1.410 . S
C1739 C1283 1.475 . S
C1753 C961 1.418 . S
C1757 C1215 1.440 . S
C1771 C1021 1.613 . S
C1775 C1222 1.691 . S
C1789 C901 1.744 . S
C1793 C1262 1.802 . S
C1811 C1282 1.756 . S
C1807 C991 1.786 . S
C1825 C91 1.594 . S
C1829 C1242 1.578 . S
C1847 C1302 1.475 . S
C1843 C121 1.436 . S
C1861 C1 1.346 . S
C1865 C1202 1.440 . S
C1883 C1323 1.692 . S
C1879 C421 1.683 . S
C1897 C511 1.751 . S
C1901 C1363 1.798 . S
C1919 C1415 1.754 . S
C1915 C391 1.700 . S
C1937 C1375 1.578 . S
C1933 C331 1.539 . S
C1955 C1403 1.480 . S
C1951 C211 1.417 . S
C1969 C241 1.419 . S
C1973 C1335 1.440 . S
C1987 C301 1.613 . S
C1991 C1342 1.691 . S
C2005 C181 1.733 . S
C2009 C1382 1.798 . S
C2027 C1402 1.754 . S
C2023 C271 1.784 . S
C2041 C451 1.594 . S
C2045 C1362 1.568 . S
C2059 C481 1.445 . S
C2063 C1422 1.479 . S
C2077 C361 1.361 . S
C2081 C1322 1.449 . S
C2095 C920 1.308 . S
C2099 C1106 1.322 . S
C2117 C1146 1.863 . S
C2113 C980 1.867 . S
C2131 C1040 1.518 . S
C2135 C1169 1.581 . S
C2149 C380 1.811 . S
C2153 C1129 1.863 . S
C2167 C440 1.551 . S
C2171 C1186 1.581 . S
C2189 C1089 1.320 . S
C2185 C500 1.296 . S
C2203 C200 1.299 . S
C2207 C1226 1.318 . S
C2221 C260 1.863 . S
C2225 C1266 1.857 . S
C2239 C320 1.522 . S
C2243 C1289 1.582 . S
C2257 C740 1.801 . S
C2261 C1249 1.857 . S
C2279 C1306 1.577 . S
C2275 C800 1.554 . S
C2293 C860 1.298 . S
C2297 C1209 1.319 . S
C2311 C560 1.308 . S
C2315 C1346 1.321 . S
C2329 C620 1.863 . S
C2333 C1386 1.858 . S
C2351 C1409 1.577 . S
C2347 C680 1.526 . S
C2365 C20 1.802 . S
C2369 C1369 1.859 . S
C2383 C80 1.552 . S
C2387 C1426 1.578 . S
C2401 C140 1.305 . S
C2405 C1329 1.314 . S
