# Generated by pormake.
# Topology anh, (6,3)-cn, num edge types: 1
# Building blocks:
#     Node 0, Type 0, BuildingBlock: CUWYAW_clean_sbu_0, # of connection points: 6
#     Node 1, Type 0, BuildingBlock: CUWYAW_clean_sbu_0, # of connection points: 6
#     Node 2, Type 0, BuildingBlock: CUWYAW_clean_sbu_0, # of connection points: 6
#     Node 3, Type 1, BuildingBlock: BELTOD_clean_linker_0, # of connection points: 3
#     Node 4, Type 1, BuildingBlock: BELTOD_clean_linker_0, # of connection points: 3
#     Node 5, Type 1, BuildingBlock: BELTOD_clean_linker_0, # of connection points: 3
#     Node 6, Type 1, BuildingBlock: BELTOD_clean_linker_0, # of connection points: 3
#     Node 7, Type 1, BuildingBlock: BELTOD_clean_linker_0, # of connection points: 3
#     Node 8, Type 1, BuildingBlock: BELTOD_clean_linker_0, # of connection points: 3
#     Edge 9, Type (0, 1), BuildingBlock: CIFDUS_clean_linker_0, # of connection points: 2
#     Edge 10, Type (0, 1), BuildingBlock: CIFDUS_clean_linker_0, # of connection points: 2
#     Edge 11, Type (0, 1), BuildingBlock: CIFDUS_clean_linker_0, # of connection points: 2
#     Edge 12, Type (0, 1), BuildingBlock: CIFDUS_clean_linker_0, # of connection points: 2
#     Edge 13, Type (0, 1), BuildingBlock: CIFDUS_clean_linker_0, # of connection points: 2
#     Edge 14, Type (0, 1), BuildingBlock: CIFDUS_clean_linker_0, # of connection points: 2
#     Edge 15, Type (0, 1), BuildingBlock: CIFDUS_clean_linker_0, # of connection points: 2
#     Edge 16, Type (0, 1), BuildingBlock: CIFDUS_clean_linker_0, # of connection points: 2
#     Edge 17, Type (0, 1), BuildingBlock: CIFDUS_clean_linker_0, # of connection points: 2
#     Edge 18, Type (0, 1), BuildingBlock: CIFDUS_clean_linker_0, # of connection points: 2
#     Edge 19, Type (0, 1), BuildingBlock: CIFDUS_clean_linker_0, # of connection points: 2
#     Edge 20, Type (0, 1), BuildingBlock: CIFDUS_clean_linker_0, # of connection points: 2
#     Edge 21, Type (0, 1), BuildingBlock: CIFDUS_clean_linker_0, # of connection points: 2
#     Edge 22, Type (0, 1), BuildingBlock: CIFDUS_clean_linker_0, # of connection points: 2
#     Edge 23, Type (0, 1), BuildingBlock: CIFDUS_clean_linker_0, # of connection points: 2
#     Edge 24, Type (0, 1), BuildingBlock: CIFDUS_clean_linker_0, # of connection points: 2
#     Edge 25, Type (0, 1), BuildingBlock: CIFDUS_clean_linker_0, # of connection points: 2
#     Edge 26, Type (0, 1), BuildingBlock: CIFDUS_clean_linker_0, # of connection points: 2
# Relax obj value: 0.281
# Max RMSD: 0.185
# Mean RMSD: 0.153
data_MOF--net-anh--node1-CUWYAW_clean_sbu_0--node2-BELTOD_clean_linker_0--edge1-CIFDUS_clean_linker_0
_symmetry_space_group_name_H-M    P1
_symmetry_Int_Tables_number       1
_symmetry_cell_setting            triclinic
loop_
_symmetry_equiv_pos_as_xyz
'x, y, z'
_cell_length_a     30.409391
_cell_length_b     30.451237
_cell_length_c     54.06298
_cell_angle_alpha  90.785085
_cell_angle_beta   88.430812
_cell_angle_gamma 120.32096
loop_
_atom_site_label
_atom_site_type_symbol
_atom_site_fract_x
_atom_site_fract_y
_atom_site_fract_z
_atom_type_partial_charge
C0 C 0.99192 0.47305 0.13402 0.0
Eu1 Eu 1.05001 0.56362 0.15237 0.0
C2 C 0.97651 0.42018 0.14073 0.0
C3 C 0.93662 0.39329 0.15804 0.0
C4 C 0.92217 0.34362 0.16456 0.0
C5 C 0.9469 0.31936 0.1538 0.0
C6 C 0.98662 0.34599 0.13637 0.0
C7 C 1.00112 0.39589 0.12979 0.0
C8 C 1.06638 0.57184 0.2022 0.0
C9 C 0.98489 0.62088 0.15864 0.0
C10 C 0.16209 0.75087 0.19298 0.0
Eu11 Eu 1.10245 0.66705 0.16961 0.0
C12 C 0.21776 0.77896 0.19443 0.0
C13 C 0.24722 0.77295 0.1757 0.0
C14 C 0.29916 0.79241 0.17874 0.0
C15 C 0.32249 0.81849 0.20048 0.0
C16 C 0.29356 0.82687 0.21865 0.0
C17 C 0.24131 0.80686 0.2157 0.0
C18 C 1.08821 0.66304 0.12039 0.0
C19 C 0.17023 0.61317 0.15164 0.0
O20 O 0.97519 0.49638 0.14852 0.0
O21 O 1.03925 0.50286 0.12685 0.0
O22 O 1.07083 0.53985 0.18795 0.0
O23 O 1.05158 0.59653 0.18988 0.0
O24 O 0.99218 0.58827 0.14538 0.0
O25 O 1.02125 0.65363 0.1733 0.0
O26 O 0.13961 0.70615 0.20353 0.0
O27 O 0.14395 0.74985 0.17123 0.0
O28 O 1.08223 0.69298 0.13559 0.0
O29 O 1.10142 0.6357 0.1319 0.0
O30 O 0.16963 0.65088 0.16411 0.0
O31 O 0.12755 0.57603 0.14278 0.0
H32 H 0.91659 0.41063 0.16674 0.0
H33 H 0.89198 0.32442 0.17835 0.0
H34 H 1.00607 0.32808 0.12764 0.0
H35 H 1.03162 0.41545 0.11618 0.0
H36 H 0.22976 0.75157 0.15909 0.0
H37 H 0.32087 0.78595 0.16441 0.0
H38 H 0.31081 0.84663 0.23564 0.0
H39 H 0.219 0.81143 0.2304 0.0
C40 C 0.5759 0.13971 0.44926 0.0
Eu41 Eu 0.5912 0.0846 0.48033 0.0
C42 C 0.6045 0.19575 0.44629 0.0
C43 C 0.58731 0.22527 0.45878 0.0
C44 C 0.62076 0.27693 0.46309 0.0
C45 C 0.67181 0.29998 0.45476 0.0
C46 C 0.68679 0.27213 0.43931 0.0
C47 C 0.65346 0.22043 0.43511 0.0
C48 C 0.57806 0.09099 0.53042 0.0
C49 C 0.71058 0.15399 0.49457 0.0
C50 C 0.65548 0.99973 0.54938 0.0
Eu51 Eu 0.63467 1.03877 0.51205 0.0
C52 C 0.65911 0.95583 0.55686 0.0
C53 C 0.64707 0.91526 0.54061 0.0
C54 C 0.66063 0.87901 0.54625 0.0
C55 C 0.68696 0.88339 0.56804 0.0
C56 C 0.69652 0.92295 0.58472 0.0
C57 C 0.68253 0.9587 0.57918 0.0
C58 C 0.65549 1.03215 0.4639 0.0
C59 C 0.51693 0.96673 0.49047 0.0
O60 O 0.60044 0.11592 0.44323 0.0
O61 O 0.55017 0.12295 0.47013 0.0
O62 O 0.54247 0.0797 0.51471 0.0
O63 O 0.6177 0.09896 0.51898 0.0
O64 O 0.67592 0.14452 0.47794 0.0
O65 O 0.69953 0.12158 0.51299 0.0
O66 O 0.61019 0.9935 0.54608 0.0
O67 O 0.68884 1.02834 0.53248 0.0
O68 O 0.6852 1.03746 0.48181 0.0
O69 O 0.61333 1.02587 0.47225 0.0
O70 O 0.5514 0.97149 0.50675 0.0
O71 O 0.52623 1.00485 0.47578 0.0
H72 H 0.54948 0.20754 0.46722 0.0
H73 H 0.60791 0.29733 0.47499 0.0
H74 H 0.72556 0.28933 0.43213 0.0
H75 H 0.66766 0.19912 0.42488 0.0
H76 H 0.62932 0.91293 0.52316 0.0
H77 H 0.65196 0.84857 0.5332 0.0
H78 H 0.7174 0.92816 0.60145 0.0
H79 H 0.69264 0.9903 0.59173 0.0
C80 C 0.74162 0.65255 0.80112 0.0
Eu81 Eu 0.6483 0.60544 0.81876 0.0
C82 C 0.79287 0.66508 0.80779 0.0
C83 C 0.80203 0.65193 0.83103 0.0
C84 C 0.85199 0.66982 0.83828 0.0
C85 C 0.8933 0.70125 0.8224 0.0
C86 C 0.88365 0.71248 0.79873 0.0
C87 C 0.83371 0.69447 0.79149 0.0
C88 C 0.61935 0.59625 0.86753 0.0
C89 C 0.60095 0.47991 0.82036 0.0
C90 C 0.44338 0.49516 0.84517 0.0
Eu91 Eu 0.53585 0.53531 0.82759 0.0
C92 C 0.41482 0.52046 0.85277 0.0
C93 C 0.4163 0.5584 0.83773 0.0
C94 C 0.4022 0.59224 0.84738 0.0
C95 C 0.38637 0.58904 0.8723 0.0
C96 C 0.38002 0.54776 0.88657 0.0
C97 C 0.39444 0.51393 0.87691 0.0
C98 C 0.56945 0.54397 0.77998 0.0
C99 C 0.58052 0.65807 0.81708 0.0
O100 O 0.70902 0.60479 0.79652 0.0
O101 O 0.72174 0.67451 0.81447 0.0
O102 O 0.6567 0.637 0.8577 0.0
O103 O 0.60232 0.56073 0.85181 0.0
O104 O 0.63947 0.52599 0.81453 0.0
O105 O 0.55687 0.47363 0.82889 0.0
O106 O 0.4824 0.50623 0.85896 0.0
O107 O 0.45414 0.49604 0.82149 0.0
O108 O 0.53411 0.50127 0.78957 0.0
O109 O 0.58209 0.57909 0.79553 0.0
O110 O 0.54444 0.6157 0.82804 0.0
O111 O 0.62203 0.65985 0.80789 0.0
H112 H 0.77069 0.62942 0.84383 0.0
H113 H 0.85833 0.66096 0.85671 0.0
H114 H 0.91474 0.73609 0.78604 0.0
H115 H 0.82703 0.70484 0.77347 0.0
H116 H 0.43191 0.56449 0.81902 0.0
H117 H 0.40748 0.6231 0.83566 0.0
H118 H 0.36622 0.5429 0.90558 0.0
H119 H 0.39281 0.48476 0.8888 0.0
P120 P 0.74845 0.89984 0.26181 0.0
H121 H 0.69088 0.831 0.22126 0.0
H122 H 0.6068 0.80577 0.20481 0.0
H123 H 0.58116 0.88611 0.26483 0.0
H124 H 0.66485 0.91287 0.28016 0.0
H125 H 0.8212 0.93658 0.21926 0.0
H126 H 0.85483 1.01382 0.19371 0.0
H127 H 0.77649 1.06812 0.24164 0.0
H128 H 0.74377 0.99206 0.26697 0.0
H129 H 0.6822 0.84136 0.30362 0.0
H130 H 0.82235 0.98386 0.29254 0.0
O131 O 0.7721 0.86235 0.25438 0.0
H132 H 0.67408 0.86736 0.34578 0.0
H133 H 0.81459 1.00979 0.3346 0.0
C134 C 0.68352 0.87238 0.2524 0.0
C135 C 0.66654 0.84217 0.23108 0.0
C136 C 0.61865 0.82795 0.22168 0.0
C137 C 0.58756 0.84438 0.2334 0.0
C138 C 0.60447 0.87356 0.25508 0.0
C139 C 0.65215 0.88805 0.26421 0.0
C140 C 0.78058 0.959 0.24517 0.0
C141 C 0.81223 0.96567 0.22449 0.0
C142 C 0.83122 1.00955 0.20991 0.0
C143 C 0.8177 1.04643 0.21564 0.0
C144 C 0.78692 1.03992 0.23666 0.0
C145 C 0.76853 0.99663 0.25124 0.0
C146 C 0.75168 0.91163 0.29466 0.0
C147 C 0.71175 0.87778 0.31042 0.0
C148 C 0.70691 0.89277 0.33439 0.0
C149 C 0.74295 0.94113 0.34314 0.0
C150 C 0.78595 0.97252 0.32822 0.0
C151 C 0.79036 0.95775 0.30415 0.0
P152 P 0.87162 0.61347 0.62124 0.0
H153 H 0.9195 0.58816 0.57969 0.0
H154 H 0.88625 0.54445 0.54035 0.0
H155 H 0.73698 0.51887 0.56171 0.0
H156 H 0.77087 0.56403 0.60022 0.0
H157 H 0.91191 0.71068 0.59553 0.0
H158 H 0.87791 0.76792 0.59059 0.0
H159 H 0.75232 0.67368 0.64044 0.0
H160 H 0.78585 0.61739 0.64526 0.0
H161 H 0.787 0.50787 0.63002 0.0
H162 H 0.89319 0.63671 0.67307 0.0
O163 O 0.93501 0.64177 0.62172 0.0
H164 H 0.72849 0.47545 0.66564 0.0
H165 H 0.83514 0.6037 0.70892 0.0
C166 C 0.84746 0.57868 0.59297 0.0
C167 C 0.87965 0.57307 0.57583 0.0
C168 C 0.86058 0.54813 0.55335 0.0
C169 C 0.80894 0.52832 0.54776 0.0
C170 C 0.77712 0.53453 0.56506 0.0
C171 C 0.7963 0.55974 0.58732 0.0
C172 C 0.85242 0.66054 0.62128 0.0
C173 C 0.87782 0.70323 0.60587 0.0
C174 C 0.85809 0.73553 0.60288 0.0
C175 C 0.81256 0.72533 0.61523 0.0
C176 C 0.78798 0.68316 0.63108 0.0
C177 C 0.80745 0.6509 0.63391 0.0
C178 C 0.84393 0.57554 0.6487 0.0
C179 C 0.79888 0.52813 0.64736 0.0
C180 C 0.76542 0.50932 0.66783 0.0
C181 C 0.77684 0.53784 0.68976 0.0
C182 C 0.82522 0.58142 0.69205 0.0
C183 C 0.85864 0.60005 0.67163 0.0
P184 P 0.29162 0.92482 0.9345 0.0
H185 H 0.37247 0.9434 0.89855 0.0
H186 H 0.40374 0.88757 0.88328 0.0
H187 H 0.32102 0.7823 0.94277 0.0
H188 H 0.28936 0.83641 0.95743 0.0
H189 H 0.23296 0.96974 0.91691 0.0
H190 H 0.16308 0.93822 0.88774 0.0
H191 H 0.19178 0.81786 0.8657 0.0
H192 H 0.25899 0.84751 0.89532 0.0
H193 H 0.31434 0.9299 0.98684 0.0
H194 H 0.18071 0.85616 0.94178 0.0
O195 O 0.32962 0.98739 0.93804 0.0
H196 H 0.26354 0.87733 0.02224 0.0
H197 H 0.13027 0.80561 0.97713 0.0
C198 C 0.32889 0.8946 0.92925 0.0
C199 C 0.36281 0.90929 0.90884 0.0
C200 C 0.38024 0.87723 0.90001 0.0
C201 C 0.36455 0.83059 0.91182 0.0
C202 C 0.33426 0.8183 0.93348 0.0
C203 C 0.31616 0.84968 0.94196 0.0
C204 C 0.25177 0.91158 0.90817 0.0
C205 C 0.22514 0.93755 0.90522 0.0
C206 C 0.18525 0.91949 0.88854 0.0
C207 C 0.1716 0.87517 0.87466 0.0
C208 C 0.20087 0.85159 0.87643 0.0
C209 C 0.24004 0.86915 0.89325 0.0
C210 C 0.25151 0.89745 0.96167 0.0
C211 C 0.27392 0.90385 0.98476 0.0
C212 C 0.24515 0.87351 0.00482 0.0
C213 C 0.19333 0.83739 0.00215 0.0
C214 C 0.1702 0.83332 0.97952 0.0
C215 C 0.19918 0.86265 0.95934 0.0
P216 P 0.13319 0.54115 0.43073 0.0
H217 H 0.20389 0.56076 0.47067 0.0
H218 H 0.27664 0.63726 0.48664 0.0
H219 H 0.23967 0.72909 0.44099 0.0
H220 H 0.16426 0.6519 0.42674 0.0
H221 H 1.10065 0.45233 0.4634 0.0
H222 H 1.01655 0.38199 0.47566 0.0
H223 H 0.94703 0.46246 0.44576 0.0
H224 H 1.03149 0.53278 0.43346 0.0
H225 H 1.05253 0.47364 0.39725 0.0
H226 H 0.18917 0.62086 0.39191 0.0
O227 O 0.1635 0.50841 0.42764 0.0
H228 H 1.03955 0.47616 0.35315 0.0
H229 H 0.17471 0.62414 0.34781 0.0
C230 C 0.17897 0.5998 0.44674 0.0
C231 C 0.21071 0.59736 0.46441 0.0
C232 C 0.25334 0.6417 0.47327 0.0
C233 C 0.26641 0.69048 0.46457 0.0
C234 C 0.23209 0.69291 0.44821 0.0
C235 C 0.18868 0.6483 0.43974 0.0
C236 C 1.07295 0.49809 0.44712 0.0
C237 C 1.06756 0.4557 0.46002 0.0
C238 C 1.01907 0.41513 0.46707 0.0
C239 C 0.97438 0.41558 0.46132 0.0
C240 C 0.98025 0.45996 0.4501 0.0
C241 C 1.02881 0.50075 0.44329 0.0
C242 C 0.12005 0.54859 0.39876 0.0
C243 C 1.0786 0.50767 0.38703 0.0
C244 C 1.07137 0.50877 0.36162 0.0
C245 C 1.10551 0.55078 0.34713 0.0
C246 C 0.147 0.59189 0.35868 0.0
C247 C 0.15484 0.59028 0.38411 0.0
P248 P 0.61838 0.082 0.76231 0.0
H249 H 0.68292 0.17835 0.78854 0.0
H250 H 0.6708 0.24777 0.80249 0.0
H251 H 0.51204 0.15991 0.78376 0.0
H252 H 0.52445 0.08951 0.77021 0.0
H253 H 0.66444 1.05713 0.80273 0.0
H254 H 0.65914 0.97796 0.81555 0.0
H255 H 0.53127 0.89303 0.76814 0.0
H256 H 0.53676 0.97296 0.7553 0.0
H257 H 0.62311 1.01621 0.72396 0.0
H258 H 0.57901 0.13036 0.72845 0.0
O259 O 0.68185 0.11171 0.75989 0.0
H260 H 0.61535 1.01356 0.6791 0.0
H261 H 0.57082 0.12738 0.68357 0.0
C262 C 0.60475 0.12812 0.77797 0.0
C263 C 0.64513 0.17328 0.78765 0.0
C264 C 0.63828 0.21376 0.79543 0.0
C265 C 0.59064 0.21077 0.79389 0.0
C266 C 0.54943 0.16428 0.78539 0.0
C267 C 0.55637 0.12354 0.77765 0.0
C268 C 0.60143 1.02179 0.77778 0.0
C269 C 0.63422 1.02155 0.79553 0.0
C270 C 0.63147 0.97594 0.8027 0.0
C271 C 0.59541 0.92867 0.79257 0.0
C272 C 0.55964 0.92842 0.77637 0.0
C273 C 0.56271 0.97438 0.76902 0.0
C274 C 0.59997 1.07212 0.73004 0.0
C275 C 0.60989 1.03937 0.71551 0.0
C276 C 0.60601 1.03829 0.68974 0.0
C277 C 0.59241 1.07024 0.67771 0.0
C278 C 0.5806 0.10171 0.69227 0.0
C279 C 0.58504 0.10317 0.71812 0.0
P280 P 0.57234 0.59312 0.10146 0.0
H281 H 0.60545 0.56265 0.14537 0.0
H282 H 0.68889 0.57959 0.15867 0.0
H283 H 0.76164 0.6935 0.10164 0.0
H284 H 0.67779 0.67588 0.0882 0.0
H285 H 0.47033 0.53079 0.12423 0.0
H286 H 0.40239 0.54599 0.13679 0.0
H287 H 0.4983 0.70527 0.11901 0.0
H288 H 0.5683 0.68994 0.1076 0.0
H289 H 0.58854 0.53492 0.06256 0.0
H290 H 0.57646 0.66997 0.06619 0.0
O291 O 0.54509 0.53032 0.10539 0.0
H292 H 0.59915 0.54308 0.01768 0.0
H293 H 0.58677 0.67818 0.02118 0.0
C294 C 0.63464 0.61792 0.11572 0.0
C295 C 0.63928 0.59218 0.13601 0.0
C296 C 0.68729 0.60146 0.14345 0.0
C297 C 0.73253 0.63744 0.13108 0.0
C298 C 0.72798 0.66554 0.11172 0.0
C299 C 0.67975 0.65567 0.10406 0.0
C300 C 0.52517 0.60892 0.11442 0.0
C301 C 0.47765 0.56935 0.12316 0.0
C302 C 0.43785 0.57805 0.13013 0.0
C303 C 0.44332 0.62673 0.12839 0.0
C304 C 0.4918 0.66705 0.12063 0.0
C305 C 0.53215 0.65828 0.11386 0.0
C306 C 0.58049 0.60115 0.06799 0.0
C307 C 0.58755 0.56612 0.05375 0.0
C308 C 0.59345 0.57067 0.02794 0.0
C309 C 0.59326 0.61094 0.01561 0.0
C310 C 0.58719 0.64666 0.02997 0.0
C311 C 0.58096 0.64185 0.05585 0.0
H312 H 0.27346 0.68617 0.15961 0.0
H313 H 0.17617 0.53373 0.13223 0.0
H314 H 0.24971 0.52543 0.12259 0.0
H315 H 0.34139 0.55994 0.12091 0.0
H316 H 0.44201 0.71097 0.14859 0.0
H317 H 0.36856 0.72148 0.15788 0.0
C318 C 0.26833 0.65115 0.15159 0.0
C319 C 0.2183 0.61078 0.14674 0.0
C320 C 0.31183 0.6462 0.14579 0.0
C321 C 0.21335 0.56584 0.13624 0.0
C322 C 0.25576 0.56081 0.13063 0.0
C323 C 0.34779 0.59501 0.12945 0.0
C324 C 0.39818 0.63422 0.13416 0.0
C325 C 0.30516 0.60056 0.13527 0.0
C326 C 0.40436 0.67985 0.14447 0.0
C327 C 0.36197 0.68578 0.1501 0.0
H328 H 0.74978 0.22287 0.45631 0.0
H329 H 0.78858 0.19312 0.52783 0.0
H330 H 0.87241 0.27036 0.52425 0.0
H331 H 0.93569 0.34734 0.50067 0.0
H332 H 0.89526 0.37635 0.42933 0.0
H333 H 0.81228 0.2991 0.43299 0.0
C334 C 0.77638 0.23317 0.47121 0.0
C335 C 0.76211 0.20173 0.49241 0.0
C336 C 0.82486 0.27793 0.46903 0.0
C337 C 0.79787 0.21616 0.51131 0.0
C338 C 0.84608 0.26057 0.50927 0.0
C339 C 0.90871 0.33689 0.48593 0.0
C340 C 0.92229 0.36861 0.4648 0.0
C341 C 0.86014 0.29196 0.48821 0.0
C342 C 0.8862 0.35386 0.44603 0.0
C343 C 0.83855 0.30917 0.44801 0.0
H344 H 0.65403 0.7566 0.80632 0.0
H345 H 0.49271 0.66325 0.82038 0.0
H346 H 0.48186 0.73684 0.81406 0.0
H347 H 0.51878 0.82914 0.80372 0.0
H348 H 0.68119 0.92155 0.7911 0.0
H349 H 0.69081 0.84783 0.79749 0.0
C350 C 0.61637 0.75214 0.80803 0.0
C351 C 0.57409 0.70376 0.81392 0.0
C352 C 0.61063 0.79506 0.8045 0.0
C353 C 0.52591 0.69961 0.81616 0.0
C354 C 0.51975 0.74192 0.81237 0.0
C355 C 0.55626 0.83315 0.80236 0.0
C356 C 0.59923 0.88163 0.797 0.0
C357 C 0.56184 0.79004 0.80641 0.0
C358 C 0.64741 0.88546 0.7955 0.0
C359 C 0.65301 0.84301 0.79905 0.0
H360 H 0.96296 0.69904 0.15417 0.0
H361 H 0.89252 0.5358 0.15743 0.0
H362 H 0.80931 0.52641 0.15039 0.0
H363 H 0.75597 0.56351 0.14136 0.0
H364 H 0.8253 0.72625 0.13533 0.0
H365 H 0.90834 0.73667 0.14504 0.0
C366 C 0.92925 0.66152 0.15371 0.0
C367 C 0.93431 0.61815 0.15666 0.0
C368 C 0.88091 0.65615 0.14881 0.0
C369 C 0.89007 0.56986 0.15538 0.0
C370 C 0.84225 0.56438 0.15127 0.0
C371 C 0.78904 0.6014 0.14243 0.0
C372 C 0.78366 0.64399 0.13766 0.0
C373 C 0.83711 0.60712 0.14767 0.0
C374 C 0.82775 0.69259 0.13871 0.0
C375 C 0.87548 0.69862 0.14439 0.0
H376 H 0.49257 0.86549 0.49312 0.0
H377 H 0.42651 0.95957 0.48139 0.0
H378 H 0.34412 0.88434 0.47345 0.0
H379 H 0.29034 0.79162 0.46842 0.0
H380 H 0.35777 0.69735 0.4765 0.0
H381 H 0.43812 0.77159 0.48751 0.0
C382 C 0.45997 0.86942 0.48915 0.0
C383 C 0.46617 0.91861 0.48806 0.0
C384 C 0.41223 0.82548 0.48382 0.0
C385 C 0.42331 0.92255 0.4824 0.0
C386 C 0.37591 0.87933 0.47778 0.0
C387 C 0.32242 0.78686 0.47236 0.0
C388 C 0.31636 0.73756 0.47172 0.0
C389 C 0.36986 0.83049 0.47809 0.0
C390 C 0.35945 0.73367 0.47734 0.0
C391 C 0.40623 0.77663 0.48347 0.0
H392 H 0.53143 0.37734 0.82835 0.0
H393 H 0.68374 0.4786 0.79997 0.0
H394 H 0.69373 0.40605 0.78941 0.0
H395 H 0.65951 0.31348 0.78733 0.0
H396 H 0.50774 0.21134 0.81601 0.0
H397 H 0.4975 0.2839 0.82684 0.0
C398 C 0.56701 0.3837 0.82004 0.0
C399 C 0.60688 0.43418 0.81528 0.0
C400 C 0.57268 0.34123 0.8138 0.0
C401 C 0.65238 0.44082 0.80421 0.0
C402 C 0.65816 0.39905 0.79802 0.0
C403 C 0.62427 0.30673 0.79624 0.0
C404 C 0.58454 0.25605 0.80075 0.0
C405 C 0.61863 0.349 0.80267 0.0
C406 C 0.53898 0.2492 0.81187 0.0
C407 C 0.53315 0.291 0.81829 0.0
H408 H 0.69351 0.84472 0.61206 0.0
H409 H 0.72976 0.84763 0.53408 0.0
H410 H 0.77191 0.79928 0.54184 0.0
H411 H 0.80095 0.75852 0.57091 0.0
H412 H 0.76915 0.76019 0.64908 0.0
H413 H 0.72391 0.80564 0.64114 0.0
C414 C 0.71089 0.83512 0.59675 0.0
C415 C 0.70837 0.84991 0.57253 0.0
C416 C 0.73649 0.80872 0.60141 0.0
C417 C 0.73022 0.83606 0.55287 0.0
C418 C 0.75497 0.80895 0.55732 0.0
C419 C 0.78478 0.76953 0.58622 0.0
C420 C 0.78856 0.75623 0.61054 0.0
C421 C 0.75888 0.79565 0.58153 0.0
C422 C 0.76648 0.76978 0.63017 0.0
C423 C 0.74062 0.79573 0.62565 0.0
H424 H 0.96784 0.79989 0.81731 0.0
H425 H 0.93667 0.65638 0.8477 0.0
H426 H 1.02136 0.69763 0.86549 0.0
H427 H 1.10145 0.77491 0.87449 0.0
H428 H 0.13333 0.91888 0.84439 0.0
H429 H 1.05069 0.87682 0.82428 0.0
C430 C 0.97997 0.7775 0.82744 0.0
C431 C 0.94612 0.7252 0.83123 0.0
C432 C 1.02845 0.80154 0.83777 0.0
C433 C 0.96194 0.69678 0.84476 0.0
C434 C 1.01031 0.7203 0.85487 0.0
C435 C 1.09089 0.79702 0.86308 0.0
C436 C 0.12358 0.84991 0.86079 0.0
C437 C 1.0435 0.77273 0.85178 0.0
C438 C 1.10867 0.87817 0.84652 0.0
C439 C 1.06156 0.85413 0.835 0.0
H440 H 0.36367 0.7583 0.19676 0.0
H441 H 0.39968 0.91096 0.21502 0.0
H442 H 0.48677 0.93346 0.22481 0.0
H443 H 0.55077 0.90848 0.22981 0.0
H444 H 0.51383 0.75457 0.2135 0.0
H445 H 0.42933 0.73417 0.20013 0.0
C446 C 0.39105 0.79674 0.20238 0.0
C447 C 0.37579 0.83314 0.20502 0.0
C448 C 0.44061 0.80906 0.20818 0.0
C449 C 0.41083 0.88244 0.21297 0.0
C450 C 0.46047 0.89525 0.21849 0.0
C451 C 0.52415 0.87035 0.22346 0.0
C452 C 0.53822 0.83284 0.22303 0.0
C453 C 0.47545 0.85864 0.21649 0.0
C454 C 0.50393 0.78411 0.21399 0.0
C455 C 0.45553 0.77235 0.20653 0.0
H456 H 0.66812 0.3869 0.46356 0.0
H457 H 0.76127 0.31928 0.47343 0.0
H458 H 0.81739 0.38883 0.50017 0.0
H459 H 0.83098 0.46028 0.52632 0.0
H460 H 0.737 0.52783 0.51798 0.0
H461 H 0.68968 0.46655 0.48557 0.0
C462 C 0.7013 0.38807 0.4712 0.0
C463 C 0.71071 0.34803 0.46635 0.0
C464 C 0.73246 0.4275 0.48741 0.0
C465 C 0.75397 0.35016 0.4763 0.0
C466 C 0.78562 0.38958 0.49199 0.0
C467 C 0.80121 0.46273 0.51696 0.0
C468 C 0.78694 0.49796 0.52498 0.0
C469 C 0.77405 0.42734 0.49843 0.0
C470 C 0.74789 0.50015 0.51266 0.0
C471 C 0.72092 0.46527 0.49403 0.0
H472 H 0.35555 0.64979 0.85088 0.0
H473 H 0.40987 0.62589 0.91965 0.0
H474 H 0.41025 0.69973 0.93751 0.0
H475 H 0.39664 0.77222 0.93351 0.0
H476 H 0.34862 0.79956 0.86391 0.0
H477 H 0.34788 0.72517 0.84594 0.0
C478 C 0.36824 0.6609 0.86966 0.0
C479 C 0.38233 0.63164 0.88381 0.0
C480 C 0.37088 0.70494 0.8795 0.0
C481 C 0.39738 0.64644 0.90838 0.0
C482 C 0.39851 0.68934 0.91855 0.0
C483 C 0.3866 0.7621 0.91433 0.0
C484 C 0.37288 0.79127 0.90002 0.0
C485 C 0.38567 0.71902 0.90423 0.0
C486 C 0.36013 0.77809 0.87516 0.0
C487 C 0.35899 0.73519 0.865 0.0
H488 H 0.8508 0.24021 0.15971 0.0
H489 H 1.00812 0.28051 0.16465 0.0
H490 H 0.98176 0.19653 0.18179 0.0
H491 H 0.91384 0.11502 0.19954 0.0
H492 H 0.75724 0.07793 0.19622 0.0
H493 H 0.78336 0.15736 0.17444 0.0
C494 C 0.87933 0.23057 0.1645 0.0
C495 C 0.93128 0.2667 0.16127 0.0
C496 C 0.86398 0.18293 0.17483 0.0
C497 C 0.96783 0.25328 0.16694 0.0
C498 C 0.95279 0.20543 0.1769 0.0
C499 C 0.88557 0.12412 0.19361 0.0
C500 C 0.83385 0.09119 0.19962 0.0
C501 C 0.90099 0.17041 0.1815 0.0
C502 C 0.79736 0.10321 0.19201 0.0
C503 C 0.81223 0.1485 0.17957 0.0
H504 H 1.05441 0.71138 0.09251 0.0
H505 H 0.15865 0.65446 0.09135 0.0
H506 H 0.19994 0.703 0.05357 0.0
H507 H 0.21252 0.76967 0.02389 0.0
H508 H 1.10771 0.82579 0.02514 0.0
H509 H 1.06053 0.76989 0.0601 0.0
C510 C 1.0854 0.70871 0.08359 0.0
C511 C 1.10382 0.67989 0.09466 0.0
C512 C 1.10948 0.73748 0.06232 0.0
C513 C 0.14373 0.67629 0.08303 0.0
C514 C 0.16772 0.70453 0.06164 0.0
C515 C 0.17923 0.76935 0.03188 0.0
C516 C 0.16391 0.80222 0.02251 0.0
C517 C 0.15207 0.73668 0.05169 0.0
C518 C 0.12023 0.80103 0.0324 0.0
C519 C 1.09331 0.76907 0.05227 0.0
H520 H 0.74206 1.03926 0.44623 0.0
H521 H 0.58728 0.98893 0.42635 0.0
H522 H 0.60064 0.95523 0.38712 0.0
H523 H 0.65612 0.93814 0.35923 0.0
H524 H 0.8105 0.98851 0.37995 0.0
H525 H 0.79738 1.02389 0.41842 0.0
C526 C 0.71123 1.02109 0.43327 0.0
C527 C 0.66366 1.01623 0.43916 0.0
C528 C 0.71904 1.00143 0.41112 0.0
C529 C 0.62424 0.99308 0.42215 0.0
C530 C 0.63181 0.9736 0.39984 0.0
C531 C 0.68663 0.95639 0.37234 0.0
C532 C 0.7341 0.96037 0.36694 0.0
C533 C 0.67889 0.97698 0.39431 0.0
C534 C 0.77372 0.98506 0.38375 0.0
C535 C 0.76623 1.00527 0.40569 0.0
H536 H 0.58653 0.46929 0.76238 0.0
H537 H 0.63361 0.62787 0.754 0.0
H538 H 0.70305 0.63993 0.72594 0.0
H539 H 0.75205 0.60661 0.70513 0.0
H540 H 0.70737 0.44874 0.71312 0.0
H541 H 0.63553 0.43509 0.74043 0.0
C542 C 0.61143 0.50614 0.75397 0.0
C543 C 0.60489 0.54763 0.75998 0.0
C544 C 0.65218 0.5131 0.73832 0.0
C545 C 0.63782 0.59541 0.74939 0.0
C546 C 0.67772 0.60241 0.73356 0.0
C547 C 0.72701 0.56935 0.71315 0.0
C548 C 0.73542 0.52895 0.70763 0.0
C549 C 0.68574 0.5618 0.72827 0.0
C550 C 0.7018 0.48047 0.71742 0.0
C551 C 0.6607 0.47268 0.73286 0.0
H552 H 0.64581 0.09491 0.56296 0.0
H553 H 0.49685 0.07855 0.5595 0.0
H554 H 0.48804 1.07169 0.60482 0.0
H555 H 0.52305 1.06953 0.64567 0.0
H556 H 0.6702 0.08088 0.64768 0.0
H557 H 0.67891 0.08952 0.60279 0.0
C558 C 0.61128 0.0897 0.57207 0.0
C559 C 0.57203 0.08728 0.55784 0.0
C560 C 0.60606 0.0845 0.59796 0.0
C561 C 0.52762 0.08054 0.57001 0.0
C562 C 0.5226 0.07656 0.59593 0.0
C563 C 0.55698 1.07396 0.63623 0.0
C564 C 0.59584 1.07434 0.65011 0.0
C565 C 0.56158 0.07838 0.61015 0.0
C566 C 0.63943 0.07978 0.63753 0.0
C567 C 0.64462 0.08507 0.61183 0.0
H568 H 0.65479 0.67026 0.90258 0.0
H569 H 0.55623 0.50862 0.89328 0.0
H570 H 0.53872 0.49885 0.93802 0.0
H571 H 0.55284 0.53626 0.98005 0.0
H572 H 0.65167 0.69818 0.9889 0.0
H573 H 0.66712 0.70778 0.94424 0.0
C574 C 0.62939 0.63287 0.91033 0.0
C575 C 0.60705 0.59018 0.89457 0.0
C576 C 0.61947 0.6276 0.93608 0.0
C577 C 0.57397 0.54209 0.90494 0.0
C578 C 0.56402 0.53651 0.93056 0.0
C579 C 0.57793 0.57365 0.97224 0.0
C580 C 0.60104 0.61643 0.98804 0.0
C581 C 0.58684 0.57895 0.94637 0.0
C582 C 0.63281 0.66462 0.97737 0.0
C583 C 0.64197 0.67013 0.95176 0.0
H584 H 1.08268 0.50988 0.23164 0.0
H585 H 1.06371 0.64091 0.23424 0.0
H586 H 1.0768 0.648 0.27894 0.0
H587 H 1.093 0.61619 0.31777 0.0
H588 H 1.10518 0.48124 0.3152 0.0
H589 H 1.09537 0.47631 0.27031 0.0
C590 C 1.0814 0.53999 0.24199 0.0
C591 C 1.07284 0.57519 0.2295 0.0
C592 C 1.08772 0.54306 0.26783 0.0
C593 C 1.07079 0.61364 0.24329 0.0
C594 C 1.07817 0.61765 0.2689 0.0
C595 C 1.09366 0.5859 0.30728 0.0
C596 C 1.10002 0.54923 0.31976 0.0
C597 C 1.08672 0.5826 0.28143 0.0
C598 C 1.10024 0.50982 0.30602 0.0
C599 C 1.09466 0.50701 0.28034 0.0
loop_
_geom_bond_atom_site_label_1
_geom_bond_atom_site_label_2
_geom_bond_distance
_geom_bond_site_symmetry_2
_ccdc_geom_bond_type
C0 Eu1 2.835 . S
C0 C2 1.500 . S
C0 O20 1.257 . S
C0 O21 1.260 . S
Eu1 C0 2.835 . S
Eu1 O20 2.473 . S
Eu1 O21 2.480 . S
Eu1 O22 2.430 1_655 S
Eu1 O23 2.670 1_655 S
Eu1 O24 2.394 . S
Eu1 O29 2.355 1_655 S
Eu1 O31 2.374 1_655 S
C2 C0 1.500 . S
C2 C3 1.377 . S
C2 C7 1.377 . S
C3 C2 1.377 . S
C3 C4 1.395 . S
C3 H32 0.931 . S
C4 C3 1.395 . S
C4 C5 1.383 . S
C4 H33 0.931 . S
C5 C4 1.383 . S
C5 C6 1.394 . S
C6 C5 1.394 . S
C6 C7 1.378 . S
C6 H34 0.931 . S
C7 C2 1.377 . S
C7 C6 1.378 . S
C7 H35 0.931 . S
C8 O22 1.259 . S
C8 O23 1.270 . S
C9 O24 1.251 . S
C9 O25 1.251 . S
C10 Eu11 2.835 . S
C10 C12 1.500 . S
C10 O26 1.257 . S
C10 O27 1.260 . S
Eu11 C10 2.835 . S
Eu11 O23 2.355 . S
Eu11 O25 2.374 1_455 S
Eu11 O26 2.473 . S
Eu11 O27 2.480 . S
Eu11 O28 2.430 . S
Eu11 O29 2.670 . S
Eu11 O30 2.394 . S
C12 C10 1.500 . S
C12 C13 1.377 . S
C12 C17 1.377 . S
C13 C12 1.377 . S
C13 C14 1.395 . S
C13 H36 0.931 . S
C14 C13 1.395 . S
C14 C15 1.383 . S
C14 H37 0.931 . S
C15 C14 1.383 . S
C15 C16 1.394 . S
C16 C15 1.394 . S
C16 C17 1.378 . S
C16 H38 0.931 . S
C17 C12 1.377 . S
C17 C16 1.378 . S
C17 H39 0.931 . S
C18 O28 1.259 . S
C18 O29 1.270 . S
C19 O30 1.251 . S
C19 O31 1.251 . S
O20 C0 1.257 . S
O20 Eu1 2.473 . S
O21 C0 1.260 . S
O21 Eu1 2.480 . S
O22 Eu1 2.430 1_455 S
O22 C8 1.259 . S
O23 Eu1 2.670 1_455 S
O23 C8 1.270 . S
O23 Eu11 2.355 . S
O24 Eu1 2.394 . S
O24 C9 1.251 . S
O25 C9 1.251 . S
O25 Eu11 2.374 1_655 S
O26 C10 1.257 . S
O26 Eu11 2.473 . S
O27 C10 1.260 . S
O27 Eu11 2.480 . S
O28 Eu11 2.430 . S
O28 C18 1.259 . S
O29 Eu1 2.355 1_455 S
O29 Eu11 2.670 . S
O29 C18 1.270 . S
O30 Eu11 2.394 . S
O30 C19 1.251 . S
O31 Eu1 2.374 1_455 S
O31 C19 1.251 . S
H32 C3 0.931 . S
H33 C4 0.931 . S
H34 C6 0.931 . S
H35 C7 0.931 . S
H36 C13 0.931 . S
H37 C14 0.931 . S
H38 C16 0.931 . S
H39 C17 0.931 . S
C40 Eu41 2.835 . S
C40 C42 1.500 . S
C40 O60 1.257 . S
C40 O61 1.260 . S
Eu41 C40 2.835 . S
Eu41 O60 2.473 . S
Eu41 O61 2.480 . S
Eu41 O62 2.430 . S
Eu41 O63 2.670 . S
Eu41 O64 2.394 . S
Eu41 O69 2.355 . S
Eu41 O71 2.374 1_545 S
C42 C40 1.500 . S
C42 C43 1.377 . S
C42 C47 1.377 . S
C43 C42 1.377 . S
C43 C44 1.395 . S
C43 H72 0.931 . S
C44 C43 1.395 . S
C44 C45 1.383 . S
C44 H73 0.931 . S
C45 C44 1.383 . S
C45 C46 1.394 . S
C46 C45 1.394 . S
C46 C47 1.378 . S
C46 H74 0.931 . S
C47 C42 1.377 . S
C47 C46 1.378 . S
C47 H75 0.931 . S
C48 O62 1.259 . S
C48 O63 1.270 . S
C49 O64 1.251 . S
C49 O65 1.251 . S
C50 Eu51 2.835 . S
C50 C52 1.500 . S
C50 O66 1.257 . S
C50 O67 1.260 . S
Eu51 C50 2.835 . S
Eu51 O63 2.355 1_565 S
Eu51 O65 2.374 1_565 S
Eu51 O66 2.473 . S
Eu51 O67 2.480 . S
Eu51 O68 2.430 1_565 S
Eu51 O69 2.670 1_565 S
Eu51 O70 2.394 . S
C52 C50 1.500 . S
C52 C53 1.377 . S
C52 C57 1.377 . S
C53 C52 1.377 . S
C53 C54 1.395 . S
C53 H76 0.931 . S
C54 C53 1.395 . S
C54 C55 1.383 . S
C54 H77 0.931 . S
C55 C54 1.383 . S
C55 C56 1.394 . S
C56 C55 1.394 . S
C56 C57 1.378 . S
C56 H78 0.931 . S
C57 C52 1.377 . S
C57 C56 1.378 . S
C57 H79 0.931 . S
C58 O68 1.259 . S
C58 O69 1.270 . S
C59 O70 1.251 . S
C59 O71 1.251 . S
O60 C40 1.257 . S
O60 Eu41 2.473 . S
O61 C40 1.260 . S
O61 Eu41 2.480 . S
O62 Eu41 2.430 . S
O62 C48 1.259 . S
O63 Eu41 2.670 . S
O63 C48 1.270 . S
O63 Eu51 2.355 1_545 S
O64 Eu41 2.394 . S
O64 C49 1.251 . S
O65 C49 1.251 . S
O65 Eu51 2.374 1_545 S
O66 C50 1.257 . S
O66 Eu51 2.473 . S
O67 C50 1.260 . S
O67 Eu51 2.480 . S
O68 Eu51 2.430 1_545 S
O68 C58 1.259 . S
O69 Eu41 2.355 . S
O69 Eu51 2.670 1_545 S
O69 C58 1.270 . S
O70 Eu51 2.394 . S
O70 C59 1.251 . S
O71 Eu41 2.374 1_565 S
O71 C59 1.251 . S
H72 C43 0.931 . S
H73 C44 0.931 . S
H74 C46 0.931 . S
H75 C47 0.931 . S
H76 C53 0.931 . S
H77 C54 0.931 . S
H78 C56 0.931 . S
H79 C57 0.931 . S
C80 Eu81 2.835 . S
C80 C82 1.500 . S
C80 O100 1.257 . S
C80 O101 1.260 . S
Eu81 C80 2.835 . S
Eu81 O100 2.473 . S
Eu81 O101 2.480 . S
Eu81 O102 2.430 . S
Eu81 O103 2.670 . S
Eu81 O104 2.394 . S
Eu81 O109 2.355 . S
Eu81 O111 2.374 . S
C82 C80 1.500 . S
C82 C83 1.377 . S
C82 C87 1.377 . S
C83 C82 1.377 . S
C83 C84 1.395 . S
C83 H112 0.931 . S
C84 C83 1.395 . S
C84 C85 1.383 . S
C84 H113 0.931 . S
C85 C84 1.383 . S
C85 C86 1.394 . S
C86 C85 1.394 . S
C86 C87 1.378 . S
C86 H114 0.931 . S
C87 C82 1.377 . S
C87 C86 1.378 . S
C87 H115 0.931 . S
C88 O102 1.259 . S
C88 O103 1.270 . S
C89 O104 1.251 . S
C89 O105 1.251 . S
C90 Eu91 2.835 . S
C90 C92 1.500 . S
C90 O106 1.257 . S
C90 O107 1.260 . S
Eu91 C90 2.835 . S
Eu91 O103 2.355 . S
Eu91 O105 2.374 . S
Eu91 O106 2.473 . S
Eu91 O107 2.480 . S
Eu91 O108 2.430 . S
Eu91 O109 2.670 . S
Eu91 O110 2.394 . S
C92 C90 1.500 . S
C92 C93 1.377 . S
C92 C97 1.377 . S
C93 C92 1.377 . S
C93 C94 1.395 . S
C93 H116 0.931 . S
C94 C93 1.395 . S
C94 C95 1.383 . S
C94 H117 0.931 . S
C95 C94 1.383 . S
C95 C96 1.394 . S
C96 C95 1.394 . S
C96 C97 1.378 . S
C96 H118 0.931 . S
C97 C92 1.377 . S
C97 C96 1.378 . S
C97 H119 0.931 . S
C98 O108 1.259 . S
C98 O109 1.270 . S
C99 O110 1.251 . S
C99 O111 1.251 . S
O100 C80 1.257 . S
O100 Eu81 2.473 . S
O101 C80 1.260 . S
O101 Eu81 2.480 . S
O102 Eu81 2.430 . S
O102 C88 1.259 . S
O103 Eu81 2.670 . S
O103 C88 1.270 . S
O103 Eu91 2.355 . S
O104 Eu81 2.394 . S
O104 C89 1.251 . S
O105 C89 1.251 . S
O105 Eu91 2.374 . S
O106 C90 1.257 . S
O106 Eu91 2.473 . S
O107 C90 1.260 . S
O107 Eu91 2.480 . S
O108 Eu91 2.430 . S
O108 C98 1.259 . S
O109 Eu81 2.355 . S
O109 Eu91 2.670 . S
O109 C98 1.270 . S
O110 Eu91 2.394 . S
O110 C99 1.251 . S
O111 Eu81 2.374 . S
O111 C99 1.251 . S
H112 C83 0.931 . S
H113 C84 0.931 . S
H114 C86 0.931 . S
H115 C87 0.931 . S
H116 C93 0.931 . S
H117 C94 0.931 . S
H118 C96 0.931 . S
H119 C97 0.931 . S
P120 O131 1.490 1_545 S
P120 C134 1.812 1_545 S
P120 C140 1.803 . S
P120 C146 1.819 . S
H121 C135 0.941 . S
H122 C136 0.939 . S
H123 C138 0.940 . S
H124 C139 0.940 1_545 S
H125 C141 0.939 . S
H126 C142 0.942 . S
H127 C144 0.940 . S
H128 C145 0.939 . S
H129 C147 0.941 . S
H130 C151 0.939 . S
O131 P120 1.490 1_565 S
H132 C148 0.939 1_565 S
H133 C150 0.940 . S
C134 P120 1.812 1_565 S
C134 C135 1.389 . S
C134 C139 1.391 . S
C135 H121 0.941 . S
C135 C134 1.389 . S
C135 C136 1.397 . S
C136 H122 0.939 . S
C136 C135 1.397 . S
C136 C137 1.378 . S
C137 C136 1.378 . S
C137 C138 1.378 . S
C138 H123 0.940 . S
C138 C137 1.378 . S
C138 C139 1.396 . S
C139 H124 0.940 1_565 S
C139 C134 1.391 . S
C139 C138 1.396 . S
C140 P120 1.803 . S
C140 C141 1.378 . S
C140 C145 1.400 . S
C141 H125 0.939 . S
C141 C140 1.378 . S
C141 C142 1.361 . S
C142 H126 0.942 . S
C142 C141 1.361 . S
C142 C143 1.369 . S
C143 C142 1.369 . S
C143 C144 1.404 . S
C144 H127 0.940 . S
C144 C143 1.404 . S
C144 C145 1.389 . S
C145 H128 0.939 . S
C145 C140 1.400 . S
C145 C144 1.389 . S
C146 P120 1.819 . S
C146 C147 1.391 1_545 S
C146 C151 1.391 . S
C147 H129 0.941 . S
C147 C146 1.391 1_565 S
C147 C148 1.396 1_565 S
C148 H132 0.939 1_545 S
C148 C147 1.396 1_545 S
C148 C149 1.397 . S
C149 C148 1.397 . S
C149 C150 1.385 . S
C150 H133 0.940 . S
C150 C149 1.385 . S
C150 C151 1.388 . S
C151 H130 0.939 . S
C151 C146 1.391 . S
C151 C150 1.388 . S
P152 O163 1.490 . S
P152 C166 1.812 . S
P152 C172 1.803 . S
P152 C178 1.819 . S
H153 C167 0.941 . S
H154 C168 0.939 . S
H155 C170 0.940 . S
H156 C171 0.940 . S
H157 C173 0.939 . S
H158 C174 0.942 . S
H159 C176 0.940 . S
H160 C177 0.939 . S
H161 C179 0.941 . S
H162 C183 0.939 . S
O163 P152 1.490 . S
H164 C180 0.939 . S
H165 C182 0.940 . S
C166 P152 1.812 . S
C166 C167 1.389 . S
C166 C171 1.391 . S
C167 H153 0.941 . S
C167 C166 1.389 . S
C167 C168 1.397 . S
C168 H154 0.939 . S
C168 C167 1.397 . S
C168 C169 1.378 . S
C169 C168 1.378 . S
C169 C170 1.378 . S
C170 H155 0.940 . S
C170 C169 1.378 . S
C170 C171 1.396 . S
C171 H156 0.940 . S
C171 C166 1.391 . S
C171 C170 1.396 . S
C172 P152 1.803 . S
C172 C173 1.378 . S
C172 C177 1.400 . S
C173 H157 0.939 . S
C173 C172 1.378 . S
C173 C174 1.361 . S
C174 H158 0.942 . S
C174 C173 1.361 . S
C174 C175 1.369 . S
C175 C174 1.369 . S
C175 C176 1.404 . S
C176 H159 0.940 . S
C176 C175 1.404 . S
C176 C177 1.389 . S
C177 H160 0.939 . S
C177 C172 1.400 . S
C177 C176 1.389 . S
C178 P152 1.819 . S
C178 C179 1.391 . S
C178 C183 1.391 . S
C179 H161 0.941 . S
C179 C178 1.391 . S
C179 C180 1.396 . S
C180 H164 0.939 . S
C180 C179 1.396 . S
C180 C181 1.397 . S
C181 C180 1.397 . S
C181 C182 1.385 . S
C182 H165 0.940 . S
C182 C181 1.385 . S
C182 C183 1.388 . S
C183 H162 0.939 . S
C183 C178 1.391 . S
C183 C182 1.388 . S
P184 O195 1.490 . S
P184 C198 1.812 . S
P184 C204 1.803 1_455 S
P184 C210 1.819 . S
H185 C199 0.941 . S
H186 C200 0.939 . S
H187 C202 0.940 . S
H188 C203 0.940 . S
H189 C205 0.939 . S
H190 C206 0.942 . S
H191 C208 0.940 . S
H192 C209 0.939 . S
H193 C211 0.941 . S
H194 C215 0.939 . S
O195 P184 1.490 . S
H196 C212 0.939 . S
H197 C214 0.940 . S
C198 P184 1.812 . S
C198 C199 1.389 . S
C198 C203 1.391 . S
C199 H185 0.941 . S
C199 C198 1.389 . S
C199 C200 1.397 . S
C200 H186 0.939 . S
C200 C199 1.397 . S
C200 C201 1.378 . S
C201 C200 1.378 . S
C201 C202 1.378 . S
C202 H187 0.940 . S
C202 C201 1.378 . S
C202 C203 1.396 . S
C203 H188 0.940 . S
C203 C198 1.391 . S
C203 C202 1.396 . S
C204 P184 1.803 1_655 S
C204 C205 1.378 . S
C204 C209 1.400 . S
C205 H189 0.939 . S
C205 C204 1.378 . S
C205 C206 1.361 . S
C206 H190 0.942 . S
C206 C205 1.361 . S
C206 C207 1.369 . S
C207 C206 1.369 . S
C207 C208 1.404 . S
C208 H191 0.940 . S
C208 C207 1.404 . S
C208 C209 1.389 . S
C209 H192 0.939 . S
C209 C204 1.400 . S
C209 C208 1.389 . S
C210 P184 1.819 . S
C210 C211 1.391 . S
C210 C215 1.391 1_455 S
C211 H193 0.941 . S
C211 C210 1.391 . S
C211 C212 1.396 . S
C212 H196 0.939 . S
C212 C211 1.396 . S
C212 C213 1.397 . S
C213 C212 1.397 . S
C213 C214 1.385 1_455 S
C214 H197 0.940 . S
C214 C213 1.385 1_655 S
C214 C215 1.388 . S
C215 H194 0.939 . S
C215 C210 1.391 1_655 S
C215 C214 1.388 . S
P216 O227 1.490 . S
P216 C230 1.812 . S
P216 C236 1.803 . S
P216 C242 1.819 . S
H217 C231 0.941 . S
H218 C232 0.939 . S
H219 C234 0.940 . S
H220 C235 0.940 . S
H221 C237 0.939 . S
H222 C238 0.942 . S
H223 C240 0.940 . S
H224 C241 0.939 . S
H225 C243 0.941 . S
H226 C247 0.939 1_655 S
O227 P216 1.490 . S
H228 C244 0.939 . S
H229 C246 0.940 1_655 S
C230 P216 1.812 . S
C230 C231 1.389 . S
C230 C235 1.391 . S
C231 H217 0.941 . S
C231 C230 1.389 . S
C231 C232 1.397 . S
C232 H218 0.939 . S
C232 C231 1.397 . S
C232 C233 1.378 . S
C233 C232 1.378 . S
C233 C234 1.378 . S
C234 H219 0.940 . S
C234 C233 1.378 . S
C234 C235 1.396 . S
C235 H220 0.940 . S
C235 C230 1.391 . S
C235 C234 1.396 . S
C236 P216 1.803 . S
C236 C237 1.378 . S
C236 C241 1.400 . S
C237 H221 0.939 . S
C237 C236 1.378 . S
C237 C238 1.361 1_455 S
C238 H222 0.942 . S
C238 C237 1.361 1_655 S
C238 C239 1.369 . S
C239 C238 1.369 . S
C239 C240 1.404 . S
C240 H223 0.940 . S
C240 C239 1.404 . S
C240 C241 1.389 1_655 S
C241 H224 0.939 . S
C241 C236 1.400 . S
C241 C240 1.389 1_455 S
C242 P216 1.819 . S
C242 C243 1.391 . S
C242 C247 1.391 . S
C243 H225 0.941 . S
C243 C242 1.391 . S
C243 C244 1.396 . S
C244 H228 0.939 . S
C244 C243 1.396 . S
C244 C245 1.397 . S
C245 C244 1.397 . S
C245 C246 1.385 . S
C246 H229 0.940 1_455 S
C246 C245 1.385 . S
C246 C247 1.388 . S
C247 H226 0.939 1_455 S
C247 C242 1.391 . S
C247 C246 1.388 . S
P248 O259 1.490 . S
P248 C262 1.812 . S
P248 C268 1.803 1_545 S
P248 C274 1.819 . S
H249 C263 0.941 . S
H250 C264 0.939 . S
H251 C266 0.940 . S
H252 C267 0.940 . S
H253 C269 0.939 . S
H254 C270 0.942 . S
H255 C272 0.940 . S
H256 C273 0.939 . S
H257 C275 0.941 . S
H258 C279 0.939 . S
O259 P248 1.490 . S
H260 C276 0.939 . S
H261 C278 0.940 . S
C262 P248 1.812 . S
C262 C263 1.389 . S
C262 C267 1.391 . S
C263 H249 0.941 . S
C263 C262 1.389 . S
C263 C264 1.397 . S
C264 H250 0.939 . S
C264 C263 1.397 . S
C264 C265 1.378 . S
C265 C264 1.378 . S
C265 C266 1.378 . S
C266 H251 0.940 . S
C266 C265 1.378 . S
C266 C267 1.396 . S
C267 H252 0.940 . S
C267 C262 1.391 . S
C267 C266 1.396 . S
C268 P248 1.803 1_565 S
C268 C269 1.378 . S
C268 C273 1.400 . S
C269 H253 0.939 . S
C269 C268 1.378 . S
C269 C270 1.361 . S
C270 H254 0.942 . S
C270 C269 1.361 . S
C270 C271 1.369 . S
C271 C270 1.369 . S
C271 C272 1.404 . S
C272 H255 0.940 . S
C272 C271 1.404 . S
C272 C273 1.389 . S
C273 H256 0.939 . S
C273 C268 1.400 . S
C273 C272 1.389 . S
C274 P248 1.819 . S
C274 C275 1.391 . S
C274 C279 1.391 1_545 S
C275 H257 0.941 . S
C275 C274 1.391 . S
C275 C276 1.396 . S
C276 H260 0.939 . S
C276 C275 1.396 . S
C276 C277 1.397 . S
C277 C276 1.397 . S
C277 C278 1.385 1_545 S
C278 H261 0.940 . S
C278 C277 1.385 1_565 S
C278 C279 1.388 . S
C279 H258 0.939 . S
C279 C274 1.391 1_565 S
C279 C278 1.388 . S
P280 O291 1.490 . S
P280 C294 1.812 . S
P280 C300 1.803 . S
P280 C306 1.819 . S
H281 C295 0.941 . S
H282 C296 0.939 . S
H283 C298 0.940 . S
H284 C299 0.940 . S
H285 C301 0.939 . S
H286 C302 0.942 . S
H287 C304 0.940 . S
H288 C305 0.939 . S
H289 C307 0.941 . S
H290 C311 0.939 . S
O291 P280 1.490 . S
H292 C308 0.939 . S
H293 C310 0.940 . S
C294 P280 1.812 . S
C294 C295 1.389 . S
C294 C299 1.391 . S
C295 H281 0.941 . S
C295 C294 1.389 . S
C295 C296 1.397 . S
C296 H282 0.939 . S
C296 C295 1.397 . S
C296 C297 1.378 . S
C297 C296 1.378 . S
C297 C298 1.378 . S
C298 H283 0.940 . S
C298 C297 1.378 . S
C298 C299 1.396 . S
C299 H284 0.940 . S
C299 C294 1.391 . S
C299 C298 1.396 . S
C300 P280 1.803 . S
C300 C301 1.378 . S
C300 C305 1.400 . S
C301 H285 0.939 . S
C301 C300 1.378 . S
C301 C302 1.361 . S
C302 H286 0.942 . S
C302 C301 1.361 . S
C302 C303 1.369 . S
C303 C302 1.369 . S
C303 C304 1.404 . S
C304 H287 0.940 . S
C304 C303 1.404 . S
C304 C305 1.389 . S
C305 H288 0.939 . S
C305 C300 1.400 . S
C305 C304 1.389 . S
C306 P280 1.819 . S
C306 C307 1.391 . S
C306 C311 1.391 . S
C307 H289 0.941 . S
C307 C306 1.391 . S
C307 C308 1.396 . S
C308 H292 0.939 . S
C308 C307 1.396 . S
C308 C309 1.397 . S
C309 C308 1.397 . S
C309 C310 1.385 . S
C310 H293 0.940 . S
C310 C309 1.385 . S
C310 C311 1.388 . S
C311 H290 0.939 . S
C311 C306 1.391 . S
C311 C310 1.388 . S
H312 C318 0.930 . S
H313 C321 0.930 . S
H314 C322 0.930 . S
H315 C323 0.930 . S
H316 C326 0.930 . S
H317 C327 0.930 . S
C318 H312 0.930 . S
C318 C319 1.355 . S
C318 C320 1.415 . S
C319 C318 1.355 . S
C319 C321 1.419 . S
C320 C318 1.415 . S
C320 C325 1.425 . S
C320 C327 1.409 . S
C321 H313 0.930 . S
C321 C319 1.419 . S
C321 C322 1.362 . S
C322 H314 0.930 . S
C322 C321 1.362 . S
C322 C325 1.409 . S
C323 H315 0.930 . S
C323 C324 1.355 . S
C323 C325 1.415 . S
C324 C323 1.355 . S
C324 C326 1.419 . S
C325 C320 1.425 . S
C325 C322 1.409 . S
C325 C323 1.415 . S
C326 H316 0.930 . S
C326 C324 1.419 . S
C326 C327 1.362 . S
C327 H317 0.930 . S
C327 C320 1.409 . S
C327 C326 1.362 . S
H328 C334 0.930 . S
H329 C337 0.930 . S
H330 C338 0.930 . S
H331 C339 0.930 . S
H332 C342 0.930 . S
H333 C343 0.930 . S
C334 H328 0.930 . S
C334 C335 1.355 . S
C334 C336 1.415 . S
C335 C334 1.355 . S
C335 C337 1.419 . S
C336 C334 1.415 . S
C336 C341 1.425 . S
C336 C343 1.409 . S
C337 H329 0.930 . S
C337 C335 1.419 . S
C337 C338 1.362 . S
C338 H330 0.930 . S
C338 C337 1.362 . S
C338 C341 1.409 . S
C339 H331 0.930 . S
C339 C340 1.355 . S
C339 C341 1.415 . S
C340 C339 1.355 . S
C340 C342 1.419 . S
C341 C336 1.425 . S
C341 C338 1.409 . S
C341 C339 1.415 . S
C342 H332 0.930 . S
C342 C340 1.419 . S
C342 C343 1.362 . S
C343 H333 0.930 . S
C343 C336 1.409 . S
C343 C342 1.362 . S
H344 C350 0.930 . S
H345 C353 0.930 . S
H346 C354 0.930 . S
H347 C355 0.930 . S
H348 C358 0.930 . S
H349 C359 0.930 . S
C350 H344 0.930 . S
C350 C351 1.355 . S
C350 C352 1.415 . S
C351 C350 1.355 . S
C351 C353 1.419 . S
C352 C350 1.415 . S
C352 C357 1.425 . S
C352 C359 1.409 . S
C353 H345 0.930 . S
C353 C351 1.419 . S
C353 C354 1.362 . S
C354 H346 0.930 . S
C354 C353 1.362 . S
C354 C357 1.409 . S
C355 H347 0.930 . S
C355 C356 1.355 . S
C355 C357 1.415 . S
C356 C355 1.355 . S
C356 C358 1.419 . S
C357 C352 1.425 . S
C357 C354 1.409 . S
C357 C355 1.415 . S
C358 H348 0.930 . S
C358 C356 1.419 . S
C358 C359 1.362 . S
C359 H349 0.930 . S
C359 C352 1.409 . S
C359 C358 1.362 . S
H360 C366 0.930 . S
H361 C369 0.930 . S
H362 C370 0.930 . S
H363 C371 0.930 . S
H364 C374 0.930 . S
H365 C375 0.930 . S
C366 H360 0.930 . S
C366 C367 1.355 . S
C366 C368 1.415 . S
C367 C366 1.355 . S
C367 C369 1.419 . S
C368 C366 1.415 . S
C368 C373 1.425 . S
C368 C375 1.409 . S
C369 H361 0.930 . S
C369 C367 1.419 . S
C369 C370 1.362 . S
C370 H362 0.930 . S
C370 C369 1.362 . S
C370 C373 1.409 . S
C371 H363 0.930 . S
C371 C372 1.355 . S
C371 C373 1.415 . S
C372 C371 1.355 . S
C372 C374 1.419 . S
C373 C368 1.425 . S
C373 C370 1.409 . S
C373 C371 1.415 . S
C374 H364 0.930 . S
C374 C372 1.419 . S
C374 C375 1.362 . S
C375 H365 0.930 . S
C375 C368 1.409 . S
C375 C374 1.362 . S
H376 C382 0.930 . S
H377 C385 0.930 . S
H378 C386 0.930 . S
H379 C387 0.930 . S
H380 C390 0.930 . S
H381 C391 0.930 . S
C382 H376 0.930 . S
C382 C383 1.355 . S
C382 C384 1.415 . S
C383 C382 1.355 . S
C383 C385 1.419 . S
C384 C382 1.415 . S
C384 C389 1.425 . S
C384 C391 1.409 . S
C385 H377 0.930 . S
C385 C383 1.419 . S
C385 C386 1.362 . S
C386 H378 0.930 . S
C386 C385 1.362 . S
C386 C389 1.409 . S
C387 H379 0.930 . S
C387 C388 1.355 . S
C387 C389 1.415 . S
C388 C387 1.355 . S
C388 C390 1.419 . S
C389 C384 1.425 . S
C389 C386 1.409 . S
C389 C387 1.415 . S
C390 H380 0.930 . S
C390 C388 1.419 . S
C390 C391 1.362 . S
C391 H381 0.930 . S
C391 C384 1.409 . S
C391 C390 1.362 . S
H392 C398 0.930 . S
H393 C401 0.930 . S
H394 C402 0.930 . S
H395 C403 0.930 . S
H396 C406 0.930 . S
H397 C407 0.930 . S
C398 H392 0.930 . S
C398 C399 1.355 . S
C398 C400 1.415 . S
C399 C398 1.355 . S
C399 C401 1.419 . S
C400 C398 1.415 . S
C400 C405 1.425 . S
C400 C407 1.409 . S
C401 H393 0.930 . S
C401 C399 1.419 . S
C401 C402 1.362 . S
C402 H394 0.930 . S
C402 C401 1.362 . S
C402 C405 1.409 . S
C403 H395 0.930 . S
C403 C404 1.355 . S
C403 C405 1.415 . S
C404 C403 1.355 . S
C404 C406 1.419 . S
C405 C400 1.425 . S
C405 C402 1.409 . S
C405 C403 1.415 . S
C406 H396 0.930 . S
C406 C404 1.419 . S
C406 C407 1.362 . S
C407 H397 0.930 . S
C407 C400 1.409 . S
C407 C406 1.362 . S
H408 C414 0.930 . S
H409 C417 0.930 . S
H410 C418 0.930 . S
H411 C419 0.930 . S
H412 C422 0.930 . S
H413 C423 0.930 . S
C414 H408 0.930 . S
C414 C415 1.355 . S
C414 C416 1.415 . S
C415 C414 1.355 . S
C415 C417 1.419 . S
C416 C414 1.415 . S
C416 C421 1.425 . S
C416 C423 1.409 . S
C417 H409 0.930 . S
C417 C415 1.419 . S
C417 C418 1.362 . S
C418 H410 0.930 . S
C418 C417 1.362 . S
C418 C421 1.409 . S
C419 H411 0.930 . S
C419 C420 1.355 . S
C419 C421 1.415 . S
C420 C419 1.355 . S
C420 C422 1.419 . S
C421 C416 1.425 . S
C421 C418 1.409 . S
C421 C419 1.415 . S
C422 H412 0.930 . S
C422 C420 1.419 . S
C422 C423 1.362 . S
C423 H413 0.930 . S
C423 C416 1.409 . S
C423 C422 1.362 . S
H424 C430 0.930 . S
H425 C433 0.930 . S
H426 C434 0.930 . S
H427 C435 0.930 . S
H428 C438 0.930 . S
H429 C439 0.930 . S
C430 H424 0.930 . S
C430 C431 1.355 . S
C430 C432 1.415 . S
C431 C430 1.355 . S
C431 C433 1.419 . S
C432 C430 1.415 . S
C432 C437 1.425 . S
C432 C439 1.409 . S
C433 H425 0.930 . S
C433 C431 1.419 . S
C433 C434 1.362 . S
C434 H426 0.930 . S
C434 C433 1.362 . S
C434 C437 1.409 . S
C435 H427 0.930 . S
C435 C436 1.355 . S
C435 C437 1.415 . S
C436 C435 1.355 . S
C436 C438 1.419 . S
C437 C432 1.425 . S
C437 C434 1.409 . S
C437 C435 1.415 . S
C438 H428 0.930 . S
C438 C436 1.419 . S
C438 C439 1.362 . S
C439 H429 0.930 . S
C439 C432 1.409 . S
C439 C438 1.362 . S
H440 C446 0.930 . S
H441 C449 0.930 . S
H442 C450 0.930 . S
H443 C451 0.930 . S
H444 C454 0.930 . S
H445 C455 0.930 . S
C446 H440 0.930 . S
C446 C447 1.355 . S
C446 C448 1.415 . S
C447 C446 1.355 . S
C447 C449 1.419 . S
C448 C446 1.415 . S
C448 C453 1.425 . S
C448 C455 1.409 . S
C449 H441 0.930 . S
C449 C447 1.419 . S
C449 C450 1.362 . S
C450 H442 0.930 . S
C450 C449 1.362 . S
C450 C453 1.409 . S
C451 H443 0.930 . S
C451 C452 1.355 . S
C451 C453 1.415 . S
C452 C451 1.355 . S
C452 C454 1.419 . S
C453 C448 1.425 . S
C453 C450 1.409 . S
C453 C451 1.415 . S
C454 H444 0.930 . S
C454 C452 1.419 . S
C454 C455 1.362 . S
C455 H445 0.930 . S
C455 C448 1.409 . S
C455 C454 1.362 . S
H456 C462 0.930 . S
H457 C465 0.930 . S
H458 C466 0.930 . S
H459 C467 0.930 . S
H460 C470 0.930 . S
H461 C471 0.930 . S
C462 H456 0.930 . S
C462 C463 1.355 . S
C462 C464 1.415 . S
C463 C462 1.355 . S
C463 C465 1.419 . S
C464 C462 1.415 . S
C464 C469 1.425 . S
C464 C471 1.409 . S
C465 H457 0.930 . S
C465 C463 1.419 . S
C465 C466 1.362 . S
C466 H458 0.930 . S
C466 C465 1.362 . S
C466 C469 1.409 . S
C467 H459 0.930 . S
C467 C468 1.355 . S
C467 C469 1.415 . S
C468 C467 1.355 . S
C468 C470 1.419 . S
C469 C464 1.425 . S
C469 C466 1.409 . S
C469 C467 1.415 . S
C470 H460 0.930 . S
C470 C468 1.419 . S
C470 C471 1.362 . S
C471 H461 0.930 . S
C471 C464 1.409 . S
C471 C470 1.362 . S
H472 C478 0.930 . S
H473 C481 0.930 . S
H474 C482 0.930 . S
H475 C483 0.930 . S
H476 C486 0.930 . S
H477 C487 0.930 . S
C478 H472 0.930 . S
C478 C479 1.355 . S
C478 C480 1.415 . S
C479 C478 1.355 . S
C479 C481 1.419 . S
C480 C478 1.415 . S
C480 C485 1.425 . S
C480 C487 1.409 . S
C481 H473 0.930 . S
C481 C479 1.419 . S
C481 C482 1.362 . S
C482 H474 0.930 . S
C482 C481 1.362 . S
C482 C485 1.409 . S
C483 H475 0.930 . S
C483 C484 1.355 . S
C483 C485 1.415 . S
C484 C483 1.355 . S
C484 C486 1.419 . S
C485 C480 1.425 . S
C485 C482 1.409 . S
C485 C483 1.415 . S
C486 H476 0.930 . S
C486 C484 1.419 . S
C486 C487 1.362 . S
C487 H477 0.930 . S
C487 C480 1.409 . S
C487 C486 1.362 . S
H488 C494 0.930 . S
H489 C497 0.930 . S
H490 C498 0.930 . S
H491 C499 0.930 . S
H492 C502 0.930 . S
H493 C503 0.930 . S
C494 H488 0.930 . S
C494 C495 1.355 . S
C494 C496 1.415 . S
C495 C494 1.355 . S
C495 C497 1.419 . S
C496 C494 1.415 . S
C496 C501 1.425 . S
C496 C503 1.409 . S
C497 H489 0.930 . S
C497 C495 1.419 . S
C497 C498 1.362 . S
C498 H490 0.930 . S
C498 C497 1.362 . S
C498 C501 1.409 . S
C499 H491 0.930 . S
C499 C500 1.355 . S
C499 C501 1.415 . S
C500 C499 1.355 . S
C500 C502 1.419 . S
C501 C496 1.425 . S
C501 C498 1.409 . S
C501 C499 1.415 . S
C502 H492 0.930 . S
C502 C500 1.419 . S
C502 C503 1.362 . S
C503 H493 0.930 . S
C503 C496 1.409 . S
C503 C502 1.362 . S
H504 C510 0.930 . S
H505 C513 0.930 . S
H506 C514 0.930 . S
H507 C515 0.930 . S
H508 C518 0.894 1_556 S
H509 C519 0.930 . S
C510 H504 0.930 . S
C510 C511 1.355 . S
C510 C512 1.415 . S
C511 C510 1.355 . S
C511 C513 1.419 1_455 S
C512 C510 1.415 . S
C512 C517 1.428 . S
C512 C519 1.409 . S
C513 H505 0.930 . S
C513 C511 1.419 1_655 S
C513 C514 1.362 . S
C514 H506 0.930 . S
C514 C513 1.362 . S
C514 C517 1.405 1_655 S
C515 H507 0.930 . S
C515 C516 1.355 1_655 S
C515 C517 1.416 1_655 S
C516 C515 1.355 1_455 S
C516 C518 1.419 . S
C517 C512 1.428 . S
C517 C514 1.405 1_455 S
C517 C515 1.416 1_455 S
C518 H508 0.894 1_554 S
C518 C516 1.419 . S
C518 C519 1.362 . S
C519 H509 0.930 . S
C519 C512 1.409 . S
C519 C518 1.362 . S
H520 C526 0.930 . S
H521 C529 0.930 . S
H522 C530 0.932 1_565 S
H523 C531 0.930 . S
H524 C534 0.930 . S
H525 C535 0.930 . S
C526 H520 0.930 . S
C526 C527 1.355 . S
C526 C528 1.415 . S
C527 C526 1.355 . S
C527 C529 1.419 . S
C528 C526 1.415 . S
C528 C533 1.425 . S
C528 C535 1.409 . S
C529 H521 0.930 . S
C529 C527 1.419 . S
C529 C530 1.362 . S
C530 H522 0.932 1_545 S
C530 C529 1.362 . S
C530 C533 1.409 . S
C531 H523 0.930 . S
C531 C532 1.355 . S
C531 C533 1.415 . S
C532 C531 1.355 . S
C532 C534 1.419 . S
C533 C528 1.425 . S
C533 C530 1.409 . S
C533 C531 1.415 . S
C534 H524 0.930 . S
C534 C532 1.419 . S
C534 C535 1.362 . S
C535 H525 0.930 . S
C535 C528 1.409 . S
C535 C534 1.362 . S
H536 C542 0.930 . S
H537 C545 0.930 . S
H538 C546 0.930 . S
H539 C547 0.930 . S
H540 C550 0.930 . S
H541 C551 0.930 . S
C542 H536 0.930 . S
C542 C543 1.355 . S
C542 C544 1.415 . S
C543 C542 1.355 . S
C543 C545 1.419 . S
C544 C542 1.415 . S
C544 C549 1.425 . S
C544 C551 1.409 . S
C545 H537 0.930 . S
C545 C543 1.419 . S
C545 C546 1.362 . S
C546 H538 0.930 . S
C546 C545 1.362 . S
C546 C549 1.409 . S
C547 H539 0.930 . S
C547 C548 1.355 . S
C547 C549 1.415 . S
C548 C547 1.355 . S
C548 C550 1.419 . S
C549 C544 1.425 . S
C549 C546 1.409 . S
C549 C547 1.415 . S
C550 H540 0.930 . S
C550 C548 1.419 . S
C550 C551 1.362 . S
C551 H541 0.930 . S
C551 C544 1.409 . S
C551 C550 1.362 . S
H552 C558 0.930 . S
H553 C561 0.930 . S
H554 C562 0.930 . S
H555 C563 0.930 . S
H556 C566 0.930 . S
H557 C567 0.930 . S
C558 H552 0.930 . S
C558 C559 1.355 . S
C558 C560 1.415 . S
C559 C558 1.355 . S
C559 C561 1.419 1_545 S
C560 C558 1.415 . S
C560 C565 1.425 1_545 S
C560 C567 1.409 . S
C561 H553 0.930 . S
C561 C559 1.419 1_565 S
C561 C562 1.362 . S
C562 H554 0.930 . S
C562 C561 1.362 . S
C562 C565 1.409 . S
C563 H555 0.930 . S
C563 C564 1.355 1_565 S
C563 C565 1.415 . S
C564 C563 1.355 1_545 S
C564 C566 1.419 . S
C565 C560 1.425 1_565 S
C565 C562 1.409 . S
C565 C563 1.415 . S
C566 H556 0.930 . S
C566 C564 1.419 . S
C566 C567 1.362 . S
C567 H557 0.930 . S
C567 C560 1.409 . S
C567 C566 1.362 . S
H568 C574 0.930 . S
H569 C577 0.930 . S
H570 C578 0.930 . S
H571 C579 0.930 . S
H572 C582 0.930 1_554 S
H573 C583 0.930 . S
C574 H568 0.930 . S
C574 C575 1.355 . S
C574 C576 1.415 . S
C575 C574 1.355 . S
C575 C577 1.419 . S
C576 C574 1.415 . S
C576 C581 1.425 . S
C576 C583 1.409 . S
C577 H569 0.930 . S
C577 C575 1.419 . S
C577 C578 1.362 . S
C578 H570 0.930 . S
C578 C577 1.362 . S
C578 C581 1.409 . S
C579 H571 0.930 . S
C579 C580 1.329 1_556 S
C579 C581 1.415 . S
C580 C579 1.329 1_554 S
C580 C582 1.404 1_554 S
C581 C576 1.425 . S
C581 C578 1.409 . S
C581 C579 1.415 . S
C582 H572 0.930 1_556 S
C582 C580 1.404 1_556 S
C582 C583 1.362 . S
C583 H573 0.930 . S
C583 C576 1.409 . S
C583 C582 1.362 . S
H584 C590 0.930 . S
H585 C593 0.930 . S
H586 C594 0.930 . S
H587 C595 0.930 1_655 S
H588 C598 0.930 . S
H589 C599 0.930 . S
C590 H584 0.930 . S
C590 C591 1.355 . S
C590 C592 1.415 . S
C591 C590 1.355 . S
C591 C593 1.419 1_455 S
C592 C590 1.415 . S
C592 C597 1.425 . S
C592 C599 1.409 . S
C593 H585 0.930 . S
C593 C591 1.419 1_655 S
C593 C594 1.362 . S
C594 H586 0.930 . S
C594 C593 1.362 . S
C594 C597 1.409 1_655 S
C595 H587 0.930 1_455 S
C595 C596 1.355 . S
C595 C597 1.415 . S
C596 C595 1.355 . S
C596 C598 1.419 . S
C597 C592 1.425 . S
C597 C594 1.409 1_455 S
C597 C595 1.415 . S
C598 H588 0.930 . S
C598 C596 1.419 . S
C598 C599 1.362 . S
C599 H589 0.930 . S
C599 C592 1.409 . S
C599 C598 1.362 . S
C319 C19 2.959 . S
C324 C303 2.932 . S
C335 C49 3.070 . S
C340 C239 3.005 . S
C351 C99 3.000 . S
C356 C271 2.926 . S
C367 C9 3.079 . S
C372 C297 3.018 . S
C388 C233 2.916 . S
C383 C59 2.967 . S
C404 C265 3.016 . S
C399 C89 3.064 . S
C415 C55 0.451 . S
C420 C175 0.477 . S
C431 C85 0.489 . S
C436 C207 0.390 . S
C447 C15 0.416 . S
C452 C137 0.403 . S
C468 C169 0.501 . S
C463 C45 0.597 . S
C484 C201 0.615 . S
C479 C95 0.500 . S
C495 C5 0.434 . S
C500 C143 0.508 . S
C516 C213 0.981 1_554 S
C511 C18 1.071 . S
C527 C58 1.062 . S
C532 C149 0.965 . S
C543 C98 1.030 . S
C548 C181 1.046 . S
C564 C277 1.755 . S
C559 C48 1.729 . S
C580 C309 1.825 . S
C575 C88 1.746 . S
C591 C8 1.698 . S
C596 C245 1.770 . S
