# Generated by pormake.
# Topology tbo, (3,4)-cn, num edge types: 1
# Building blocks:
#     Node 0, Type 0, BuildingBlock: PAMTOO_clean_linker_0, # of connection points: 3
#     Node 1, Type 0, BuildingBlock: PAMTOO_clean_linker_0, # of connection points: 3
#     Node 2, Type 0, BuildingBlock: PAMTOO_clean_linker_0, # of connection points: 3
#     Node 3, Type 0, BuildingBlock: PAMTOO_clean_linker_0, # of connection points: 3
#     Node 4, Type 0, BuildingBlock: PAMTOO_clean_linker_0, # of connection points: 3
#     Node 5, Type 0, BuildingBlock: PAMTOO_clean_linker_0, # of connection points: 3
#     Node 6, Type 0, BuildingBlock: PAMTOO_clean_linker_0, # of connection points: 3
#     Node 7, Type 0, BuildingBlock: PAMTOO_clean_linker_0, # of connection points: 3
#     Node 8, Type 0, BuildingBlock: PAMTOO_clean_linker_0, # of connection points: 3
#     Node 9, Type 0, BuildingBlock: PAMTOO_clean_linker_0, # of connection points: 3
#     Node 10, Type 0, BuildingBlock: PAMTOO_clean_linker_0, # of connection points: 3
#     Node 11, Type 0, BuildingBlock: PAMTOO_clean_linker_0, # of connection points: 3
#     Node 12, Type 0, BuildingBlock: PAMTOO_clean_linker_0, # of connection points: 3
#     Node 13, Type 0, BuildingBlock: PAMTOO_clean_linker_0, # of connection points: 3
#     Node 14, Type 0, BuildingBlock: PAMTOO_clean_linker_0, # of connection points: 3
#     Node 15, Type 0, BuildingBlock: PAMTOO_clean_linker_0, # of connection points: 3
#     Node 16, Type 0, BuildingBlock: PAMTOO_clean_linker_0, # of connection points: 3
#     Node 17, Type 0, BuildingBlock: PAMTOO_clean_linker_0, # of connection points: 3
#     Node 18, Type 0, BuildingBlock: PAMTOO_clean_linker_0, # of connection points: 3
#     Node 19, Type 0, BuildingBlock: PAMTOO_clean_linker_0, # of connection points: 3
#     Node 20, Type 0, BuildingBlock: PAMTOO_clean_linker_0, # of connection points: 3
#     Node 21, Type 0, BuildingBlock: PAMTOO_clean_linker_0, # of connection points: 3
#     Node 22, Type 0, BuildingBlock: PAMTOO_clean_linker_0, # of connection points: 3
#     Node 23, Type 0, BuildingBlock: PAMTOO_clean_linker_0, # of connection points: 3
#     Node 24, Type 0, BuildingBlock: PAMTOO_clean_linker_0, # of connection points: 3
#     Node 25, Type 0, BuildingBlock: PAMTOO_clean_linker_0, # of connection points: 3
#     Node 26, Type 0, BuildingBlock: PAMTOO_clean_linker_0, # of connection points: 3
#     Node 27, Type 0, BuildingBlock: PAMTOO_clean_linker_0, # of connection points: 3
#     Node 28, Type 0, BuildingBlock: PAMTOO_clean_linker_0, # of connection points: 3
#     Node 29, Type 0, BuildingBlock: PAMTOO_clean_linker_0, # of connection points: 3
#     Node 30, Type 0, BuildingBlock: PAMTOO_clean_linker_0, # of connection points: 3
#     Node 31, Type 0, BuildingBlock: PAMTOO_clean_linker_0, # of connection points: 3
#     Node 32, Type 1, BuildingBlock: ESEHIV_clean_sbu_0, # of connection points: 4
#     Node 33, Type 1, BuildingBlock: ESEHIV_clean_sbu_0, # of connection points: 4
#     Node 34, Type 1, BuildingBlock: ESEHIV_clean_sbu_0, # of connection points: 4
#     Node 35, Type 1, BuildingBlock: ESEHIV_clean_sbu_0, # of connection points: 4
#     Node 36, Type 1, BuildingBlock: ESEHIV_clean_sbu_0, # of connection points: 4
#     Node 37, Type 1, BuildingBlock: ESEHIV_clean_sbu_0, # of connection points: 4
#     Node 38, Type 1, BuildingBlock: ESEHIV_clean_sbu_0, # of connection points: 4
#     Node 39, Type 1, BuildingBlock: ESEHIV_clean_sbu_0, # of connection points: 4
#     Node 40, Type 1, BuildingBlock: ESEHIV_clean_sbu_0, # of connection points: 4
#     Node 41, Type 1, BuildingBlock: ESEHIV_clean_sbu_0, # of connection points: 4
#     Node 42, Type 1, BuildingBlock: ESEHIV_clean_sbu_0, # of connection points: 4
#     Node 43, Type 1, BuildingBlock: ESEHIV_clean_sbu_0, # of connection points: 4
#     Node 44, Type 1, BuildingBlock: ESEHIV_clean_sbu_0, # of connection points: 4
#     Node 45, Type 1, BuildingBlock: ESEHIV_clean_sbu_0, # of connection points: 4
#     Node 46, Type 1, BuildingBlock: ESEHIV_clean_sbu_0, # of connection points: 4
#     Node 47, Type 1, BuildingBlock: ESEHIV_clean_sbu_0, # of connection points: 4
#     Node 48, Type 1, BuildingBlock: ESEHIV_clean_sbu_0, # of connection points: 4
#     Node 49, Type 1, BuildingBlock: ESEHIV_clean_sbu_0, # of connection points: 4
#     Node 50, Type 1, BuildingBlock: ESEHIV_clean_sbu_0, # of connection points: 4
#     Node 51, Type 1, BuildingBlock: ESEHIV_clean_sbu_0, # of connection points: 4
#     Node 52, Type 1, BuildingBlock: ESEHIV_clean_sbu_0, # of connection points: 4
#     Node 53, Type 1, BuildingBlock: ESEHIV_clean_sbu_0, # of connection points: 4
#     Node 54, Type 1, BuildingBlock: ESEHIV_clean_sbu_0, # of connection points: 4
#     Node 55, Type 1, BuildingBlock: ESEHIV_clean_sbu_0, # of connection points: 4
#     Edge 56, Type (0, 1), BuildingBlock: TEMPAE_clean_linker_10, # of connection points: 2
#     Edge 57, Type (0, 1), BuildingBlock: TEMPAE_clean_linker_10, # of connection points: 2
#     Edge 58, Type (0, 1), BuildingBlock: TEMPAE_clean_linker_10, # of connection points: 2
#     Edge 59, Type (0, 1), BuildingBlock: TEMPAE_clean_linker_10, # of connection points: 2
#     Edge 60, Type (0, 1), BuildingBlock: TEMPAE_clean_linker_10, # of connection points: 2
#     Edge 61, Type (0, 1), BuildingBlock: TEMPAE_clean_linker_10, # of connection points: 2
#     Edge 62, Type (0, 1), BuildingBlock: TEMPAE_clean_linker_10, # of connection points: 2
#     Edge 63, Type (0, 1), BuildingBlock: TEMPAE_clean_linker_10, # of connection points: 2
#     Edge 64, Type (0, 1), BuildingBlock: TEMPAE_clean_linker_10, # of connection points: 2
#     Edge 65, Type (0, 1), BuildingBlock: TEMPAE_clean_linker_10, # of connection points: 2
#     Edge 66, Type (0, 1), BuildingBlock: TEMPAE_clean_linker_10, # of connection points: 2
#     Edge 67, Type (0, 1), BuildingBlock: TEMPAE_clean_linker_10, # of connection points: 2
#     Edge 68, Type (0, 1), BuildingBlock: TEMPAE_clean_linker_10, # of connection points: 2
#     Edge 69, Type (0, 1), BuildingBlock: TEMPAE_clean_linker_10, # of connection points: 2
#     Edge 70, Type (0, 1), BuildingBlock: TEMPAE_clean_linker_10, # of connection points: 2
#     Edge 71, Type (0, 1), BuildingBlock: TEMPAE_clean_linker_10, # of connection points: 2
#     Edge 72, Type (0, 1), BuildingBlock: TEMPAE_clean_linker_10, # of connection points: 2
#     Edge 73, Type (0, 1), BuildingBlock: TEMPAE_clean_linker_10, # of connection points: 2
#     Edge 74, Type (0, 1), BuildingBlock: TEMPAE_clean_linker_10, # of connection points: 2
#     Edge 75, Type (0, 1), BuildingBlock: TEMPAE_clean_linker_10, # of connection points: 2
#     Edge 76, Type (0, 1), BuildingBlock: TEMPAE_clean_linker_10, # of connection points: 2
#     Edge 77, Type (0, 1), BuildingBlock: TEMPAE_clean_linker_10, # of connection points: 2
#     Edge 78, Type (0, 1), BuildingBlock: TEMPAE_clean_linker_10, # of connection points: 2
#     Edge 79, Type (0, 1), BuildingBlock: TEMPAE_clean_linker_10, # of connection points: 2
#     Edge 80, Type (0, 1), BuildingBlock: TEMPAE_clean_linker_10, # of connection points: 2
#     Edge 81, Type (0, 1), BuildingBlock: TEMPAE_clean_linker_10, # of connection points: 2
#     Edge 82, Type (0, 1), BuildingBlock: TEMPAE_clean_linker_10, # of connection points: 2
#     Edge 83, Type (0, 1), BuildingBlock: TEMPAE_clean_linker_10, # of connection points: 2
#     Edge 84, Type (0, 1), BuildingBlock: TEMPAE_clean_linker_10, # of connection points: 2
#     Edge 85, Type (0, 1), BuildingBlock: TEMPAE_clean_linker_10, # of connection points: 2
#     Edge 86, Type (0, 1), BuildingBlock: TEMPAE_clean_linker_10, # of connection points: 2
#     Edge 87, Type (0, 1), BuildingBlock: TEMPAE_clean_linker_10, # of connection points: 2
#     Edge 88, Type (0, 1), BuildingBlock: TEMPAE_clean_linker_10, # of connection points: 2
#     Edge 89, Type (0, 1), BuildingBlock: TEMPAE_clean_linker_10, # of connection points: 2
#     Edge 90, Type (0, 1), BuildingBlock: TEMPAE_clean_linker_10, # of connection points: 2
#     Edge 91, Type (0, 1), BuildingBlock: TEMPAE_clean_linker_10, # of connection points: 2
#     Edge 92, Type (0, 1), BuildingBlock: TEMPAE_clean_linker_10, # of connection points: 2
#     Edge 93, Type (0, 1), BuildingBlock: TEMPAE_clean_linker_10, # of connection points: 2
#     Edge 94, Type (0, 1), BuildingBlock: TEMPAE_clean_linker_10, # of connection points: 2
#     Edge 95, Type (0, 1), BuildingBlock: TEMPAE_clean_linker_10, # of connection points: 2
#     Edge 96, Type (0, 1), BuildingBlock: TEMPAE_clean_linker_10, # of connection points: 2
#     Edge 97, Type (0, 1), BuildingBlock: TEMPAE_clean_linker_10, # of connection points: 2
#     Edge 98, Type (0, 1), BuildingBlock: TEMPAE_clean_linker_10, # of connection points: 2
#     Edge 99, Type (0, 1), BuildingBlock: TEMPAE_clean_linker_10, # of connection points: 2
#     Edge 100, Type (0, 1), BuildingBlock: TEMPAE_clean_linker_10, # of connection points: 2
#     Edge 101, Type (0, 1), BuildingBlock: TEMPAE_clean_linker_10, # of connection points: 2
#     Edge 102, Type (0, 1), BuildingBlock: TEMPAE_clean_linker_10, # of connection points: 2
#     Edge 103, Type (0, 1), BuildingBlock: TEMPAE_clean_linker_10, # of connection points: 2
#     Edge 104, Type (0, 1), BuildingBlock: TEMPAE_clean_linker_10, # of connection points: 2
#     Edge 105, Type (0, 1), BuildingBlock: TEMPAE_clean_linker_10, # of connection points: 2
#     Edge 106, Type (0, 1), BuildingBlock: TEMPAE_clean_linker_10, # of connection points: 2
#     Edge 107, Type (0, 1), BuildingBlock: TEMPAE_clean_linker_10, # of connection points: 2
#     Edge 108, Type (0, 1), BuildingBlock: TEMPAE_clean_linker_10, # of connection points: 2
#     Edge 109, Type (0, 1), BuildingBlock: TEMPAE_clean_linker_10, # of connection points: 2
#     Edge 110, Type (0, 1), BuildingBlock: TEMPAE_clean_linker_10, # of connection points: 2
#     Edge 111, Type (0, 1), BuildingBlock: TEMPAE_clean_linker_10, # of connection points: 2
#     Edge 112, Type (0, 1), BuildingBlock: TEMPAE_clean_linker_10, # of connection points: 2
#     Edge 113, Type (0, 1), BuildingBlock: TEMPAE_clean_linker_10, # of connection points: 2
#     Edge 114, Type (0, 1), BuildingBlock: TEMPAE_clean_linker_10, # of connection points: 2
#     Edge 115, Type (0, 1), BuildingBlock: TEMPAE_clean_linker_10, # of connection points: 2
#     Edge 116, Type (0, 1), BuildingBlock: TEMPAE_clean_linker_10, # of connection points: 2
#     Edge 117, Type (0, 1), BuildingBlock: TEMPAE_clean_linker_10, # of connection points: 2
#     Edge 118, Type (0, 1), BuildingBlock: TEMPAE_clean_linker_10, # of connection points: 2
#     Edge 119, Type (0, 1), BuildingBlock: TEMPAE_clean_linker_10, # of connection points: 2
#     Edge 120, Type (0, 1), BuildingBlock: TEMPAE_clean_linker_10, # of connection points: 2
#     Edge 121, Type (0, 1), BuildingBlock: TEMPAE_clean_linker_10, # of connection points: 2
#     Edge 122, Type (0, 1), BuildingBlock: TEMPAE_clean_linker_10, # of connection points: 2
#     Edge 123, Type (0, 1), BuildingBlock: TEMPAE_clean_linker_10, # of connection points: 2
#     Edge 124, Type (0, 1), BuildingBlock: TEMPAE_clean_linker_10, # of connection points: 2
#     Edge 125, Type (0, 1), BuildingBlock: TEMPAE_clean_linker_10, # of connection points: 2
#     Edge 126, Type (0, 1), BuildingBlock: TEMPAE_clean_linker_10, # of connection points: 2
#     Edge 127, Type (0, 1), BuildingBlock: TEMPAE_clean_linker_10, # of connection points: 2
#     Edge 128, Type (0, 1), BuildingBlock: TEMPAE_clean_linker_10, # of connection points: 2
#     Edge 129, Type (0, 1), BuildingBlock: TEMPAE_clean_linker_10, # of connection points: 2
#     Edge 130, Type (0, 1), BuildingBlock: TEMPAE_clean_linker_10, # of connection points: 2
#     Edge 131, Type (0, 1), BuildingBlock: TEMPAE_clean_linker_10, # of connection points: 2
#     Edge 132, Type (0, 1), BuildingBlock: TEMPAE_clean_linker_10, # of connection points: 2
#     Edge 133, Type (0, 1), BuildingBlock: TEMPAE_clean_linker_10, # of connection points: 2
#     Edge 134, Type (0, 1), BuildingBlock: TEMPAE_clean_linker_10, # of connection points: 2
#     Edge 135, Type (0, 1), BuildingBlock: TEMPAE_clean_linker_10, # of connection points: 2
#     Edge 136, Type (0, 1), BuildingBlock: TEMPAE_clean_linker_10, # of connection points: 2
#     Edge 137, Type (0, 1), BuildingBlock: TEMPAE_clean_linker_10, # of connection points: 2
#     Edge 138, Type (0, 1), BuildingBlock: TEMPAE_clean_linker_10, # of connection points: 2
#     Edge 139, Type (0, 1), BuildingBlock: TEMPAE_clean_linker_10, # of connection points: 2
#     Edge 140, Type (0, 1), BuildingBlock: TEMPAE_clean_linker_10, # of connection points: 2
#     Edge 141, Type (0, 1), BuildingBlock: TEMPAE_clean_linker_10, # of connection points: 2
#     Edge 142, Type (0, 1), BuildingBlock: TEMPAE_clean_linker_10, # of connection points: 2
#     Edge 143, Type (0, 1), BuildingBlock: TEMPAE_clean_linker_10, # of connection points: 2
#     Edge 144, Type (0, 1), BuildingBlock: TEMPAE_clean_linker_10, # of connection points: 2
#     Edge 145, Type (0, 1), BuildingBlock: TEMPAE_clean_linker_10, # of connection points: 2
#     Edge 146, Type (0, 1), BuildingBlock: TEMPAE_clean_linker_10, # of connection points: 2
#     Edge 147, Type (0, 1), BuildingBlock: TEMPAE_clean_linker_10, # of connection points: 2
#     Edge 148, Type (0, 1), BuildingBlock: TEMPAE_clean_linker_10, # of connection points: 2
#     Edge 149, Type (0, 1), BuildingBlock: TEMPAE_clean_linker_10, # of connection points: 2
#     Edge 150, Type (0, 1), BuildingBlock: TEMPAE_clean_linker_10, # of connection points: 2
#     Edge 151, Type (0, 1), BuildingBlock: TEMPAE_clean_linker_10, # of connection points: 2
# Relax obj value: 0.022
# Max RMSD: 0.183
# Mean RMSD: 0.112
data_MOF--net-tbo--node1-ESEHIV_clean_sbu_0--node2-PAMTOO_clean_linker_0--edge1-TEMPAE_clean_linker_10
_symmetry_space_group_name_H-M    P1
_symmetry_Int_Tables_number       1
_symmetry_cell_setting            triclinic
loop_
_symmetry_equiv_pos_as_xyz
'x, y, z'
_cell_length_a     71.542957
_cell_length_b     74.354786
_cell_length_c     74.189919
_cell_angle_alpha  90.465388
_cell_angle_beta   93.634483
_cell_angle_gamma 97.65478
loop_
_atom_site_label
_atom_site_type_symbol
_atom_site_fract_x
_atom_site_fract_y
_atom_site_fract_z
_atom_type_partial_charge
H0 H 0.16637 0.20988 0.21535 0.0
H1 H 0.16879 0.16357 0.2494 0.0
H2 H 0.20798 0.17387 0.20802 0.0
H3 H 0.19432 0.13576 0.21165 0.0
C4 C 0.19186 0.1351 0.22631 0.0
O5 O 0.19737 0.15208 0.23419 0.0
H6 H 0.17644 0.13111 0.22752 0.0
C7 C 0.173 0.19811 0.2193 0.0
C8 C 0.18808 0.19336 0.20972 0.0
C9 C 0.16592 0.18756 0.23365 0.0
C10 C 0.17398 0.17181 0.23833 0.0
C11 C 0.18913 0.16688 0.22907 0.0
C12 C 0.19612 0.17768 0.21487 0.0
H13 H 0.87082 0.2121 0.21206 0.0
H14 H 0.83087 0.22194 0.16849 0.0
H15 H 0.88314 0.2575 0.17712 0.0
H16 H 0.85133 0.27689 0.16325 0.0
C17 C 0.84187 0.2649 0.15738 0.0
O18 O 0.85185 0.25031 0.15658 0.0
H19 H 0.82988 0.26186 0.16624 0.0
C20 C 0.86685 0.21998 0.20055 0.0
C21 C 0.8791 0.23531 0.19575 0.0
C22 C 0.84928 0.21511 0.19098 0.0
C23 C 0.84418 0.22566 0.17629 0.0
C24 C 0.85642 0.24085 0.17131 0.0
C25 C 0.87375 0.24576 0.18112 0.0
H26 H 0.86511 0.86752 0.20109 0.0
H27 H 0.82524 0.90607 0.19721 0.0
H28 H 0.86862 0.91114 0.24034 0.0
H29 H 0.8319 0.91777 0.2515 0.0
C30 C 0.82626 0.92414 0.23914 0.0
O31 O 0.8394 0.92507 0.22616 0.0
H32 H 0.81317 0.91529 0.23406 0.0
C33 C 0.86007 0.87961 0.20611 0.0
C34 C 0.86905 0.88853 0.22178 0.0
C35 C 0.84437 0.88579 0.19699 0.0
C36 C 0.83725 0.90099 0.20406 0.0
C37 C 0.84593 0.91005 0.21976 0.0
C38 C 0.86183 0.90383 0.22848 0.0
H39 H 0.1363 0.8464 0.21103 0.0
H40 H 0.13722 0.81066 0.16517 0.0
H41 H 0.18104 0.85565 0.17488 0.0
H42 H 0.16927 0.84959 0.13549 0.0
C43 C 0.16236 0.83534 0.13641 0.0
O44 O 0.16757 0.82851 0.15294 0.0
H45 H 0.14678 0.83545 0.13494 0.0
C46 C 0.14312 0.84218 0.19938 0.0
C47 C 0.15994 0.85245 0.19467 0.0
C48 C 0.13476 0.82694 0.18904 0.0
C49 C 0.14328 0.82235 0.1734 0.0
C50 C 0.15976 0.83287 0.16821 0.0
C51 C 0.16813 0.84782 0.17886 0.0
H52 H 0.1612 0.90432 0.8319 0.0
H53 H 0.17022 0.8638 0.87146 0.0
H54 H 0.20928 0.91282 0.87051 0.0
H55 H 0.22886 0.88178 0.88032 0.0
C56 C 0.21637 0.87211 0.88369 0.0
O57 O 0.20146 0.88164 0.88641 0.0
H58 H 0.21279 0.86238 0.8721 0.0
C59 C 0.16945 0.89975 0.84332 0.0
C60 C 0.18582 0.91076 0.85032 0.0
C61 C 0.16366 0.88284 0.85085 0.0
C62 C 0.17442 0.8769 0.86558 0.0
C63 C 0.19095 0.88763 0.87248 0.0
C64 C 0.19658 0.90455 0.86493 0.0
H65 H 0.19072 0.25087 0.92105 0.0
H66 H 0.18604 0.21965 0.8714 0.0
H67 H 0.22563 0.20854 0.9141 0.0
H68 H 0.24042 0.21145 0.87836 0.0
C69 C 0.22798 0.20431 0.87022 0.0
O70 O 0.21298 0.20031 0.88105 0.0
H71 H 0.22403 0.21368 0.85943 0.0
C72 C 0.19489 0.24001 0.91306 0.0
C73 C 0.20925 0.23018 0.92011 0.0
C74 C 0.18615 0.23631 0.89557 0.0
C75 C 0.19249 0.22288 0.88484 0.0
C76 C 0.20694 0.21319 0.89148 0.0
C77 C 0.21498 0.21664 0.90909 0.0
H78 H 0.82292 0.16064 0.88275 0.0
H79 H 0.8651 0.20711 0.89393 0.0
H80 H 0.87457 0.16684 0.85517 0.0
H81 H 0.9069 0.18023 0.87966 0.0
C82 C 0.90504 0.19485 0.88037 0.0
O83 O 0.88842 0.19754 0.87098 0.0
H84 H 0.90453 0.19879 0.89481 0.0
C85 C 0.83642 0.16837 0.88023 0.0
C86 C 0.84799 0.16167 0.86785 0.0
C87 C 0.84252 0.18468 0.88987 0.0
C88 C 0.86024 0.19439 0.8868 0.0
C89 C 0.87167 0.18791 0.8743 0.0
C90 C 0.86559 0.17162 0.86489 0.0
H91 H 0.80817 0.88054 0.89522 0.0
H92 H 0.847 0.84156 0.90535 0.0
H93 H 0.85038 0.87385 0.85771 0.0
H94 H 0.85232 0.83369 0.85401 0.0
C95 C 0.86253 0.83245 0.86577 0.0
O96 O 0.86501 0.84845 0.87586 0.0
H97 H 0.85646 0.82113 0.87422 0.0
C98 C 0.81989 0.87387 0.89126 0.0
C99 C 0.82841 0.87896 0.87514 0.0
C100 C 0.82638 0.86042 0.9024 0.0
C101 C 0.84159 0.85182 0.89698 0.0
C102 C 0.85018 0.85662 0.88085 0.0
C103 C 0.84364 0.87024 0.87009 0.0
H104 H 0.16676 0.72968 0.68628 0.0
H105 H 0.16441 0.68825 0.72679 0.0
H106 H 0.20665 0.69075 0.68843 0.0
H107 H 0.1922 0.65336 0.69686 0.0
C108 C 0.1863 0.65578 0.71004 0.0
O109 O 0.19269 0.67334 0.71598 0.0
H110 H 0.1706 0.654 0.70794 0.0
C111 C 0.17221 0.7181 0.69239 0.0
C112 C 0.18769 0.71119 0.68503 0.0
C113 C 0.1638 0.71016 0.70771 0.0
C114 C 0.17084 0.69492 0.71534 0.0
C115 C 0.18607 0.68792 0.70826 0.0
C116 C 0.19455 0.69614 0.69336 0.0
H117 H 0.87541 0.71758 0.68803 0.0
H118 H 0.82968 0.72138 0.64821 0.0
H119 H 0.87801 0.76247 0.65154 0.0
H120 H 0.84398 0.77798 0.64074 0.0
C121 C 0.83455 0.76524 0.63684 0.0
O122 O 0.84535 0.75148 0.63435 0.0
H123 H 0.82499 0.7619 0.64798 0.0
C124 C 0.86935 0.72442 0.67668 0.0
C125 C 0.87898 0.74079 0.6707 0.0
C126 C 0.85149 0.71733 0.66879 0.0
C127 C 0.8434 0.72667 0.65456 0.0
C128 C 0.85304 0.74282 0.64831 0.0
C129 C 0.87075 0.74989 0.6564 0.0
H130 H 0.87851 0.37296 0.72131 0.0
H131 H 0.84198 0.41477 0.7191 0.0
H132 H 0.8867 0.41701 0.76046 0.0
H133 H 0.85318 0.42936 0.77319 0.0
C134 C 0.84648 0.43365 0.76027 0.0
O135 O 0.85896 0.43335 0.7468 0.0
H136 H 0.8336 0.42376 0.75689 0.0
C137 C 0.87425 0.38523 0.72677 0.0
C138 C 0.88456 0.39388 0.74206 0.0
C139 C 0.85892 0.39268 0.71811 0.0
C140 C 0.85388 0.4089 0.72519 0.0
C141 C 0.86391 0.41762 0.74035 0.0
C142 C 0.87921 0.41018 0.74865 0.0
H143 H 0.16112 0.37807 0.72257 0.0
H144 H 0.13965 0.33995 0.67981 0.0
H145 H 0.18875 0.37826 0.67258 0.0
H146 H 0.1612 0.37055 0.63841 0.0
C147 C 0.15479 0.35695 0.64276 0.0
O148 O 0.16511 0.35171 0.65766 0.0
H149 H 0.13997 0.35793 0.64604 0.0
C150 C 0.16223 0.37238 0.70925 0.0
C151 C 0.17687 0.37982 0.69862 0.0
C152 C 0.14864 0.35804 0.70262 0.0
C153 C 0.14979 0.35117 0.68513 0.0
C154 C 0.16405 0.35868 0.67433 0.0
C155 C 0.17755 0.37291 0.68102 0.0
H156 H 0.16447 0.40884 0.34796 0.0
H157 H 0.15961 0.36362 0.38417 0.0
H158 H 0.2056 0.40632 0.39275 0.0
H159 H 0.21658 0.37102 0.39666 0.0
C160 C 0.20338 0.36338 0.40136 0.0
O161 O 0.19035 0.3751 0.40392 0.0
H162 H 0.19773 0.35301 0.39078 0.0
C163 C 0.16969 0.40202 0.35973 0.0
C164 C 0.18609 0.40994 0.36992 0.0
C165 C 0.1598 0.38544 0.36499 0.0
C166 C 0.1667 0.37665 0.38021 0.0
C167 C 0.1832 0.38418 0.39001 0.0
C168 C 0.19268 0.40083 0.38506 0.0
H169 H 0.16009 0.73336 0.38927 0.0
H170 H 0.16294 0.69586 0.34545 0.0
H171 H 0.20278 0.69744 0.39156 0.0
H172 H 0.21741 0.6937 0.35309 0.0
C173 C 0.2051 0.68423 0.34728 0.0
O174 O 0.19175 0.68141 0.36006 0.0
H175 H 0.19897 0.69067 0.33521 0.0
C176 C 0.16661 0.72251 0.38343 0.0
C177 C 0.18215 0.71626 0.3928 0.0
C178 C 0.15958 0.71535 0.3664 0.0
C179 C 0.16835 0.70167 0.3585 0.0
C180 C 0.18397 0.69523 0.3675 0.0
C181 C 0.19091 0.70264 0.38458 0.0
H182 H 0.80512 0.64822 0.3654 0.0
H183 H 0.8409 0.6993 0.37394 0.0
H184 H 0.85456 0.66119 0.33509 0.0
H185 H 0.88421 0.6763 0.36232 0.0
C186 C 0.88244 0.69083 0.36029 0.0
O187 O 0.86535 0.69232 0.35113 0.0
H188 H 0.88284 0.69747 0.37383 0.0
C189 C 0.81725 0.65758 0.36194 0.0
C190 C 0.82922 0.65245 0.34898 0.0
C191 C 0.82122 0.67449 0.37099 0.0
C192 C 0.83751 0.6862 0.36716 0.0
C193 C 0.84949 0.6812 0.35441 0.0
C194 C 0.84522 0.66458 0.34515 0.0
H195 H 0.81643 0.36071 0.42759 0.0
H196 H 0.8584 0.32418 0.42551 0.0
H197 H 0.85252 0.36215 0.38311 0.0
H198 H 0.86222 0.32752 0.36999 0.0
C199 C 0.86912 0.32274 0.38259 0.0
O200 O 0.87168 0.3366 0.39542 0.0
H201 H 0.85955 0.31104 0.38756 0.0
C202 C 0.82767 0.35554 0.42086 0.0
C203 C 0.8331 0.36306 0.40426 0.0
C204 C 0.83663 0.34145 0.42881 0.0
C205 C 0.85135 0.33507 0.41987 0.0
C206 C 0.85703 0.3425 0.40347 0.0
C207 C 0.84788 0.3564 0.39571 0.0
H208 H 0.67411 0.2208 0.70188 0.0
H209 H 0.6694 0.1753 0.73766 0.0
H210 H 0.71229 0.18049 0.69974 0.0
H211 H 0.6952 0.14344 0.70338 0.0
C212 C 0.69087 0.14381 0.7175 0.0
O213 O 0.69738 0.16064 0.72527 0.0
H214 H 0.67515 0.14159 0.71711 0.0
C215 C 0.67914 0.20851 0.70676 0.0
C216 C 0.6943 0.20186 0.69861 0.0
C217 C 0.66998 0.19903 0.72086 0.0
C218 C 0.67612 0.18272 0.72677 0.0
C219 C 0.69126 0.17609 0.71906 0.0
C220 C 0.70035 0.18569 0.70521 0.0
H221 H 0.3787 0.21365 0.7169 0.0
H222 H 0.33061 0.2257 0.68316 0.0
H223 H 0.38104 0.26386 0.6883 0.0
H224 H 0.3449 0.28159 0.68156 0.0
C225 C 0.33604 0.26899 0.67629 0.0
O226 O 0.34753 0.25633 0.67198 0.0
H227 H 0.32648 0.2638 0.68691 0.0
C228 C 0.37189 0.22256 0.70792 0.0
C229 C 0.38192 0.2394 0.70371 0.0
C230 C 0.35316 0.21737 0.70086 0.0
C231 C 0.34496 0.22913 0.68886 0.0
C232 C 0.3551 0.24572 0.68431 0.0
C233 C 0.37339 0.25094 0.69189 0.0
H234 H 0.37014 0.86952 0.70518 0.0
H235 H 0.33405 0.91169 0.70506 0.0
H236 H 0.3788 0.91189 0.74612 0.0
H237 H 0.34426 0.92177 0.75905 0.0
C238 C 0.33873 0.92871 0.747 0.0
O239 O 0.35127 0.92894 0.73353 0.0
H240 H 0.32494 0.92083 0.74226 0.0
C241 C 0.36602 0.8816 0.71119 0.0
C242 C 0.37646 0.88959 0.72672 0.0
C243 C 0.35074 0.88951 0.703 0.0
C244 C 0.34587 0.90547 0.71083 0.0
C245 C 0.35599 0.91346 0.7263 0.0
C246 C 0.37124 0.90559 0.73409 0.0
H247 H 0.6306 0.87007 0.69698 0.0
H248 H 0.62348 0.82684 0.65728 0.0
H249 H 0.66964 0.86998 0.65513 0.0
H250 H 0.65028 0.85838 0.61913 0.0
C251 C 0.64517 0.84403 0.6223 0.0
O252 O 0.65237 0.84012 0.63928 0.0
H253 H 0.62945 0.84241 0.62184 0.0
C254 C 0.63497 0.86409 0.68482 0.0
C255 C 0.65126 0.87215 0.67689 0.0
C256 C 0.62495 0.84773 0.67792 0.0
C257 C 0.63106 0.83952 0.6627 0.0
C258 C 0.64692 0.84779 0.65429 0.0
C259 C 0.65716 0.86391 0.66152 0.0
H260 H 0.6423 0.91245 0.32942 0.0
H261 H 0.65448 0.87122 0.3672 0.0
H262 H 0.69287 0.9204 0.36496 0.0
H263 H 0.71359 0.88905 0.37388 0.0
C264 C 0.70084 0.87935 0.37643 0.0
O265 O 0.68636 0.88896 0.38045 0.0
H266 H 0.69697 0.87091 0.36393 0.0
C267 C 0.65132 0.90772 0.34016 0.0
C268 C 0.66819 0.91863 0.34617 0.0
C269 C 0.6461 0.89064 0.34767 0.0
C270 C 0.658 0.88448 0.36142 0.0
C271 C 0.67486 0.89518 0.36747 0.0
C272 C 0.67985 0.91223 0.35999 0.0
H273 H 0.66543 0.25103 0.39945 0.0
H274 H 0.66728 0.21154 0.35694 0.0
H275 H 0.70696 0.21401 0.4031 0.0
H276 H 0.72392 0.20825 0.36946 0.0
C277 C 0.71162 0.20102 0.36121 0.0
O278 O 0.69634 0.19764 0.37183 0.0
H279 H 0.70815 0.21015 0.35002 0.0
C280 C 0.67187 0.2401 0.39367 0.0
C281 C 0.68713 0.23362 0.40331 0.0
C282 C 0.66433 0.23212 0.37704 0.0
C283 C 0.67266 0.2177 0.36984 0.0
C284 C 0.68818 0.21131 0.37909 0.0
C285 C 0.69512 0.21909 0.39594 0.0
H286 H 0.29471 0.15852 0.4034 0.0
H287 H 0.34327 0.19875 0.3997 0.0
H288 H 0.33415 0.15322 0.36273 0.0
H289 H 0.37426 0.16459 0.3789 0.0
C290 C 0.37413 0.17954 0.37843 0.0
O291 O 0.35638 0.18304 0.37227 0.0
H292 H 0.37758 0.18538 0.39228 0.0
C293 C 0.30734 0.16364 0.39671 0.0
C294 C 0.31286 0.15385 0.38217 0.0
C295 C 0.31812 0.17981 0.40307 0.0
C296 C 0.33486 0.18621 0.39496 0.0
C297 C 0.34063 0.17652 0.38049 0.0
C298 C 0.32968 0.16039 0.37412 0.0
H299 H 0.3093 0.87404 0.40952 0.0
H300 H 0.35014 0.8362 0.40883 0.0
H301 H 0.34475 0.87217 0.36476 0.0
H302 H 0.35034 0.83491 0.35434 0.0
C303 C 0.359 0.83136 0.36646 0.0
O304 O 0.36278 0.84637 0.37789 0.0
H305 H 0.35074 0.82001 0.37338 0.0
C306 C 0.32035 0.86833 0.40301 0.0
C307 C 0.32573 0.87486 0.38595 0.0
C308 C 0.3291 0.85438 0.41161 0.0
C309 C 0.3434 0.84712 0.40283 0.0
C310 C 0.34889 0.85348 0.386 0.0
C311 C 0.34014 0.86728 0.37768 0.0
H312 H 0.65764 0.71322 0.20515 0.0
H313 H 0.66267 0.6702 0.24301 0.0
H314 H 0.70128 0.67891 0.201 0.0
H315 H 0.68999 0.63965 0.20875 0.0
C316 C 0.68573 0.64103 0.2228 0.0
O317 O 0.69145 0.65869 0.22883 0.0
H318 H 0.67005 0.63794 0.2225 0.0
C319 C 0.66466 0.70198 0.21001 0.0
C320 C 0.68023 0.69736 0.20112 0.0
C321 C 0.65813 0.69235 0.22516 0.0
C322 C 0.66731 0.67772 0.23129 0.0
C323 C 0.68277 0.67281 0.22258 0.0
C324 C 0.68931 0.68275 0.20763 0.0
H325 H 0.37899 0.69847 0.20783 0.0
H326 H 0.3327 0.68971 0.16741 0.0
H327 H 0.37384 0.73741 0.16586 0.0
H328 H 0.33554 0.74416 0.15845 0.0
C329 C 0.32918 0.73129 0.15145 0.0
O330 O 0.34274 0.71984 0.15013 0.0
H331 H 0.31771 0.72473 0.15962 0.0
C332 C 0.37154 0.70278 0.19577 0.0
C333 C 0.37828 0.71925 0.18786 0.0
C334 C 0.35527 0.6919 0.18849 0.0
C335 C 0.34543 0.69782 0.17313 0.0
C336 C 0.3522 0.71419 0.16494 0.0
C337 C 0.36876 0.72475 0.17217 0.0
H338 H 0.32324 0.40199 0.20527 0.0
H339 H 0.36414 0.36536 0.217 0.0
H340 H 0.36173 0.41042 0.25274 0.0
H341 H 0.40165 0.40146 0.25013 0.0
C342 C 0.39775 0.38758 0.24421 0.0
O343 O 0.37884 0.38197 0.24669 0.0
H344 H 0.40009 0.38816 0.22952 0.0
C345 C 0.33456 0.39784 0.214 0.0
C346 C 0.34131 0.40831 0.22962 0.0
C347 C 0.34278 0.38238 0.20916 0.0
C348 C 0.35781 0.37733 0.2203 0.0
C349 C 0.36466 0.38744 0.2359 0.0
C350 C 0.35645 0.40287 0.2405 0.0
H351 H 0.66626 0.37688 0.21495 0.0
H352 H 0.65431 0.34427 0.16641 0.0
H353 H 0.70054 0.38732 0.16932 0.0
H354 H 0.68292 0.38109 0.13169 0.0
C355 C 0.67526 0.36736 0.13393 0.0
O356 O 0.68258 0.36045 0.14965 0.0
H357 H 0.66001 0.36858 0.13498 0.0
C358 C 0.66953 0.37384 0.20128 0.0
C359 C 0.68483 0.38414 0.19344 0.0
C360 C 0.65825 0.35964 0.19154 0.0
C361 C 0.66263 0.35541 0.17399 0.0
C362 C 0.67796 0.36528 0.16619 0.0
C363 C 0.68894 0.37965 0.17578 0.0
H364 H 0.67689 0.40857 0.82229 0.0
H365 H 0.68632 0.37489 0.86806 0.0
H366 H 0.72595 0.42198 0.85913 0.0
H367 H 0.74541 0.3924 0.87457 0.0
C368 C 0.7326 0.38357 0.87858 0.0
O369 O 0.71814 0.39402 0.87981 0.0
H370 H 0.72878 0.3727 0.86806 0.0
C371 C 0.68553 0.40552 0.83413 0.0
C372 C 0.70212 0.41717 0.83939 0.0
C373 C 0.67957 0.39036 0.84449 0.0
C374 C 0.69058 0.38668 0.86004 0.0
C375 C 0.70736 0.39797 0.86514 0.0
C376 C 0.71298 0.41329 0.85498 0.0
H377 H 0.68204 0.75151 0.91076 0.0
H378 H 0.68159 0.72157 0.86067 0.0
H379 H 0.72391 0.71594 0.90285 0.0
H380 H 0.73722 0.7189 0.86701 0.0
C381 C 0.72532 0.71046 0.85926 0.0
O382 O 0.71086 0.70533 0.87042 0.0
H383 H 0.72016 0.71895 0.84822 0.0
C384 C 0.68808 0.74209 0.90237 0.0
C385 C 0.704 0.73429 0.90923 0.0
C386 C 0.67983 0.7378 0.88479 0.0
C387 C 0.68777 0.7254 0.87408 0.0
C388 C 0.70356 0.71753 0.88069 0.0
C389 C 0.71158 0.72199 0.89813 0.0
H390 H 0.30821 0.65373 0.85757 0.0
H391 H 0.34715 0.70174 0.87162 0.0
H392 H 0.36245 0.663 0.83431 0.0
H393 H 0.39098 0.67723 0.86213 0.0
C394 C 0.38882 0.69179 0.86187 0.0
O395 O 0.37308 0.69388 0.85077 0.0
H396 H 0.38672 0.69621 0.87587 0.0
C397 C 0.32176 0.66186 0.85622 0.0
C398 C 0.33464 0.65613 0.84446 0.0
C399 C 0.32614 0.67824 0.86616 0.0
C400 C 0.3434 0.68916 0.86397 0.0
C401 C 0.3563 0.68357 0.85243 0.0
C402 C 0.35197 0.66719 0.84277 0.0
H403 H 0.31748 0.37695 0.90588 0.0
H404 H 0.35963 0.34129 0.91501 0.0
H405 H 0.35938 0.37338 0.86712 0.0
H406 H 0.36534 0.33407 0.86309 0.0
C407 C 0.37485 0.33312 0.87542 0.0
O408 O 0.37658 0.34935 0.88509 0.0
H409 H 0.36835 0.32194 0.88381 0.0
C410 C 0.32945 0.37106 0.90131 0.0
C411 C 0.33726 0.37685 0.88504 0.0
C412 C 0.33729 0.35824 0.9122 0.0
C413 C 0.3534 0.35119 0.90678 0.0
C414 C 0.36125 0.35651 0.89043 0.0
C415 C 0.35322 0.36937 0.87968 0.0
Cu416 Cu 0.26749 0.29204 0.06975 0.0
N417 N 0.26577 0.31025 0.05259 0.0
N418 N 0.27362 0.32518 0.02744 0.0
C419 C 0.27785 0.31248 0.03933 0.0
C420 C 0.2583 0.33146 0.03362 0.0
C421 C 0.25341 0.32215 0.04911 0.0
O422 O 0.27215 0.27213 0.05391 0.0
C423 C 0.28645 0.31713 0.09447 0.0
O424 O 0.27337 0.32623 0.08735 0.0
H425 H 0.28943 0.3046 0.03831 0.0
H426 H 0.24153 0.32372 0.05702 0.0
N427 N 0.24577 0.28512 0.08233 0.0
N428 N 0.22821 0.2711 0.10348 0.0
C429 C 0.24564 0.27475 0.09718 0.0
C430 C 0.22781 0.28825 0.07903 0.0
C431 C 0.21697 0.27965 0.09204 0.0
C432 C 0.25928 0.2591 0.04907 0.0
O433 O 0.24522 0.25482 0.05945 0.0
H434 H 0.25813 0.26961 0.1029 0.0
H435 H 0.22287 0.296 0.06787 0.0
O436 O 0.28734 0.30117 0.08835 0.0
H437 H 0.25079 0.34159 0.02708 0.0
H438 H 0.20196 0.27979 0.09293 0.0
Cu439 Cu 0.75141 0.27799 1.00904 0.0
N440 N 0.72766 0.27731 0.01806 0.0
N441 N 0.70549 0.2862 0.0346 0.0
C442 C 0.72208 0.2911 0.02721 0.0
C443 C 0.70038 0.26856 0.02998 0.0
C444 C 0.7141 0.26312 0.01965 0.0
O445 O 0.76957 0.28468 0.02929 0.0
C446 C 0.75454 0.31218 0.99154 0.0
O447 O 0.75532 0.3192 1.00791 0.0
H448 H 0.73068 0.30411 0.02954 0.0
H449 H 0.71461 0.24957 0.01446 0.0
N450 N 0.75488 0.2553 1.00009 0.0
N451 N 0.76584 0.23486 0.98269 0.0
C452 C 0.76209 0.25214 0.98425 0.0
C453 C 0.75381 0.23953 1.00891 0.0
C454 C 0.7605 0.22688 0.99821 0.0
C455 C 0.78563 0.2791 0.03104 0.0
O456 O 0.79141 0.27006 0.01764 0.0
H457 H 0.76513 0.26263 0.97445 0.0
H458 H 0.74941 0.23766 0.02253 0.0
O459 O 0.75354 0.29508 0.98947 0.0
H460 H 0.68801 0.2601 0.03429 0.0
H461 H 0.76224 0.21319 1.00211 0.0
Cu462 Cu 0.75719 0.79864 0.0615 0.0
N463 N 0.75425 0.81608 0.04378 0.0
N464 N 0.76056 0.8294 0.01739 0.0
C465 C 0.76723 0.82025 0.03153 0.0
C466 C 0.74259 0.83114 0.02098 0.0
C467 C 0.7387 0.82283 0.03721 0.0
O468 O 0.758 0.7774 0.04598 0.0
C469 C 0.77971 0.82403 0.08329 0.0
O470 O 0.76692 0.83362 0.07643 0.0
H471 H 0.78079 0.81526 0.03229 0.0
H472 H 0.72514 0.82075 0.04307 0.0
N473 N 0.73729 0.79381 0.07694 0.0
N474 N 0.72125 0.78051 0.09943 0.0
C475 C 0.73464 0.77916 0.08759 0.0
C476 C 0.72517 0.80487 0.08222 0.0
C477 C 0.71523 0.7967 0.09602 0.0
C478 C 0.7419 0.77129 0.03825 0.0
O479 O 0.72682 0.77718 0.04407 0.0
H480 H 0.74314 0.76817 0.0873 0.0
H481 H 0.72422 0.81827 0.07699 0.0
O482 O 0.77919 0.80761 0.0778 0.0
H483 H 0.73268 0.83731 0.0122 0.0
H484 H 0.70468 0.80242 0.10325 0.0
Cu485 Cu 0.24298 0.75657 1.00174 0.0
N486 N 0.21997 0.75675 0.01227 0.0
N487 N 0.19958 0.76377 0.03196 0.0
C488 C 0.21774 0.76201 0.02932 0.0
C489 C 0.18997 0.75921 0.01596 0.0
C490 C 0.2026 0.75491 1.00385 0.0
O491 O 0.26248 0.75419 0.02069 0.0
C492 C 0.2408 0.79277 0.99017 0.0
O493 O 0.23184 0.79434 1.00489 0.0
H494 H 0.2294 0.76579 0.03919 0.0
H495 H 0.19951 0.75167 0.98964 0.0
N496 N 0.24163 0.7368 0.9859 0.0
N497 N 0.24931 0.71925 0.9637 0.0
C498 C 0.25474 0.7341 0.9743 0.0
C499 C 0.22743 0.72314 0.98263 0.0
C500 C 0.23211 0.71231 0.96886 0.0
C501 C 0.26881 0.7666 0.03224 0.0
O502 O 0.26319 0.78266 0.03068 0.0
H503 H 0.26777 0.74319 0.9733 0.0
H504 H 0.2145 0.7213 0.98958 0.0
O505 O 0.2478 0.77822 0.98726 0.0
H506 H 0.17503 0.75964 0.01301 0.0
H507 H 0.22356 0.70027 0.96312 0.0
Cu508 Cu 0.02458 0.27021 0.30456 0.0
N509 N 0.03723 0.24957 0.30375 0.0
N510 N 0.05825 0.23145 0.29609 0.0
C511 C 0.05055 0.24676 0.2923 0.0
C512 C 0.04933 0.22431 0.3104 0.0
C513 C 0.03634 0.23545 0.31504 0.0
O514 O 0.04344 0.29167 0.30507 0.0
C515 C 0.99223 0.25714 0.28412 0.0
O516 O 0.99103 0.24606 0.29783 0.0
H517 H 0.05502 0.25614 0.28184 0.0
H518 H 0.02716 0.23355 0.32609 0.0
N519 N 1.01086 0.27152 0.32527 0.0
N520 N 0.9887 0.27888 0.34309 0.0
C521 C 0.99452 0.27866 0.3261 0.0
C522 C 0.01563 0.26718 0.34236 0.0
C523 C 1.002 0.27165 0.35335 0.0
C524 C 0.05803 0.29134 0.31577 0.0
O525 O 0.05949 0.27674 0.32533 0.0
H526 H 0.98734 0.28405 0.31449 0.0
H527 H 0.02829 0.26146 0.3466 0.0
O528 O 1.00659 0.26921 0.28375 0.0
H529 H 0.05204 0.21195 0.3171 0.0
H530 H 1.00192 0.26968 0.36779 0.0
Cu531 Cu 0.75808 0.06762 0.27389 0.0
N532 N 0.762 0.08084 0.25281 0.0
N533 N 0.77152 0.10312 0.23398 0.0
C534 C 0.76624 0.0989 0.25081 0.0
C535 C 0.77027 0.08704 0.22509 0.0
C536 C 0.7645 0.07341 0.23671 0.0
O537 O 0.75477 0.08388 0.29419 0.0
C538 C 0.77765 0.03721 0.28438 0.0
O539 O 0.765 0.03385 0.2964 0.0
H540 H 0.7661 0.10869 0.26162 0.0
H541 H 0.7633 0.05898 0.23397 0.0
N542 N 0.73537 0.0521 0.2707 0.0
N543 N 0.71251 0.03011 0.27741 0.0
C544 C 0.72696 0.04247 0.28391 0.0
C545 C 0.72558 0.04608 0.25526 0.0
C546 C 0.71147 0.03249 0.25936 0.0
C547 C 0.76526 0.09842 0.2995 0.0
O548 O 0.78181 0.1025 0.29275 0.0
H549 H 0.73225 0.04369 0.29791 0.0
H550 H 0.72898 0.0506 0.24191 0.0
O551 O 0.77829 0.05195 0.27561 0.0
H552 H 0.77448 0.08511 0.21152 0.0
H553 H 0.70174 0.02454 0.24968 0.0
Cu554 Cu 1.0082 0.78922 0.28359 0.0
N555 N 0.9993 0.81186 0.28341 0.0
N556 N 0.98014 0.83306 0.27791 0.0
C557 C 0.98201 0.81518 0.27709 0.0
C558 C 0.99698 0.84118 0.28526 0.0
C559 C 1.00872 0.82812 0.28856 0.0
O560 O 0.98714 0.77116 0.28824 0.0
C561 C 0.01575 0.79322 0.24646 0.0
O562 O 1.00323 0.80463 0.24603 0.0
H563 H 0.97134 0.80467 0.27134 0.0
H564 H 0.02322 0.83037 0.29406 0.0
N565 N 0.02753 0.78837 0.30175 0.0
N566 N 0.05278 0.7798 0.31706 0.0
C567 C 0.04119 0.77747 0.30188 0.0
C568 C 0.03059 0.79794 0.31737 0.0
C569 C 0.0462 0.79274 0.3268 0.0
C570 C 0.98903 0.75514 0.2932 0.0
O571 O 1.00588 0.74991 0.29401 0.0
H572 H 0.04257 0.768 0.29104 0.0
H573 H 0.02193 0.80782 0.32171 0.0
O574 O 0.01884 0.78461 0.26085 0.0
H575 H 1.00072 0.85556 0.28801 0.0
H576 H 0.05194 0.79774 0.34003 0.0
Cu577 Cu 0.23824 0.99571 0.3059 0.0
N578 N 0.2338 0.00974 0.32563 0.0
N579 N 0.23801 0.03489 0.34282 0.0
C580 C 0.24199 0.02701 0.32741 0.0
C581 C 0.2269 0.02194 0.35131 0.0
C582 C 0.22423 1.00636 0.34056 0.0
O583 O 0.24265 0.01414 0.28704 0.0
C584 C 0.25271 0.96855 0.32495 0.0
O585 O 0.23525 0.96734 0.32978 0.0
H586 H 0.25139 0.03347 0.3178 0.0
H587 H 0.21622 0.99349 0.3436 0.0
N588 N 0.21727 0.9793 0.29782 0.0
N589 N 0.20048 0.95697 0.28108 0.0
C590 C 0.21735 0.96738 0.28412 0.0
C591 C 0.19975 0.97641 0.30376 0.0
C592 C 0.18933 0.96264 0.2934 0.0
C593 C 0.22774 0.02096 0.28176 0.0
O594 O 0.21156 0.0141 0.28792 0.0
H595 H 0.22958 0.96654 0.27645 0.0
H596 H 0.19493 0.98376 0.31481 0.0
O597 O 0.2582 0.98097 0.31385 0.0
H598 H 0.22128 0.02356 0.36434 0.0
H599 H 0.1748 0.95703 0.29506 0.0
Cu600 Cu 0.01707 0.78204 0.78472 0.0
N601 N 0.02958 0.76195 0.77988 0.0
N602 N 0.05099 0.74628 0.76835 0.0
C603 C 0.04484 0.76264 0.76996 0.0
C604 C 0.03896 0.73485 0.77766 0.0
C605 C 0.0258 0.74452 0.78471 0.0
O606 O 0.03674 0.8023 0.79009 0.0
C607 C 0.9859 0.77274 0.76218 0.0
O608 O 0.9842 0.75999 0.77435 0.0
H609 H 0.05113 0.77497 0.76385 0.0
H610 H 0.01428 0.73918 0.79272 0.0
N611 N 1.00185 0.77977 0.80464 0.0
N612 N 0.97894 0.78528 0.82248 0.0
C613 C 0.98801 0.79001 0.80742 0.0
C614 C 1.00167 0.76823 0.81851 0.0
C615 C 0.98753 0.77154 0.82948 0.0
C616 C 0.04922 0.79892 0.80215 0.0
O617 O 0.04733 0.78296 0.80979 0.0
H618 H 0.9844 0.80045 0.79826 0.0
H619 H 1.0111 0.7581 0.82051 0.0
O620 O 1.00029 0.78488 0.76361 0.0
H621 H 0.03967 0.72054 0.77949 0.0
H622 H 0.98399 0.76445 0.84175 0.0
Cu623 Cu 0.26945 0.06787 0.78375 0.0
N624 N 0.27337 0.0791 0.7616 0.0
N625 N 0.28324 0.0997 0.74139 0.0
C626 C 0.27868 0.09683 0.75859 0.0
C627 C 0.28053 0.08323 0.73319 0.0
C628 C 0.27427 0.07056 0.74567 0.0
O629 O 0.26568 0.08559 0.80239 0.0
C630 C 0.30343 0.05172 0.78023 0.0
O631 O 0.30879 0.06553 0.76998 0.0
H632 H 0.28031 0.10729 0.76899 0.0
H633 H 0.27163 0.056 0.74359 0.0
N634 N 0.24728 0.05171 0.78165 0.0
N635 N 0.22714 0.02747 0.78822 0.0
C636 C 0.24267 0.0389 0.79384 0.0
C637 C 0.23419 0.04841 0.76776 0.0
C638 C 0.22171 0.03336 0.77178 0.0
C639 C 0.277 0.09953 0.80786 0.0
O640 O 0.29406 0.10218 0.80195 0.0
H641 H 0.25121 0.03742 0.80618 0.0
H642 H 0.23412 0.05596 0.75537 0.0
O643 O 0.28875 0.05194 0.78908 0.0
H644 H 0.28353 0.08051 0.71939 0.0
H645 H 0.20985 0.02703 0.76314 0.0
Cu646 Cu 0.03149 0.30876 0.8182 0.0
N647 N 0.01543 0.32679 0.81959 0.0
N648 N 0.992 0.34309 0.81158 0.0
C649 C 1.00309 0.33092 0.80619 0.0
C650 C 0.99767 0.34673 0.82911 0.0
C651 C 1.01201 0.33664 0.83401 0.0
O652 O 0.01596 0.28587 0.822 0.0
C653 C 0.04979 0.32592 0.79072 0.0
O654 O 0.04901 0.33958 0.80188 0.0
H655 H 1.00182 0.32453 0.79293 0.0
H656 H 0.01905 0.33613 0.8473 0.0
N657 N 0.05238 0.31112 0.83527 0.0
N658 N 0.07861 0.30416 0.85048 0.0
C659 C 0.06407 0.29846 0.83829 0.0
C660 C 0.05976 0.32541 0.84584 0.0
C661 C 0.07584 0.32115 0.85526 0.0
C662 C 0.01253 0.28213 0.83828 0.0
O663 O 0.02032 0.29333 0.85125 0.0
H664 H 0.06217 0.28548 0.83123 0.0
H665 H 0.05407 0.33814 0.84645 0.0
O666 O 0.0421 0.31019 0.79484 0.0
H667 H 0.9918 0.35591 0.83789 0.0
H668 H 0.08477 0.32996 0.86488 0.0
Cu669 Cu 0.76375 1.00551 0.78078 0.0
N670 N 0.78697 0.02203 0.78611 0.0
N671 N 0.80651 0.0457 0.79765 0.0
C672 C 0.79002 0.03487 0.7992 0.0
C673 C 0.81413 0.03933 0.78309 0.0
C674 C 0.80199 0.02466 0.77598 0.0
O675 O 0.75176 0.02626 0.7687 0.0
C676 C 0.77798 0.98372 0.80986 0.0
O677 O 0.77255 0.99646 0.8199 0.0
H678 H 0.77991 0.03685 0.80903 0.0
H679 H 0.80361 0.01692 0.7639 0.0
N680 N 0.74057 0.989 0.77528 0.0
N681 N 0.71927 0.96828 0.761 0.0
C682 C 0.73576 0.97928 0.75993 0.0
C683 C 0.72678 0.98413 0.78644 0.0
C684 C 0.71357 0.97129 0.77766 0.0
C685 C 0.74412 0.03749 0.77793 0.0
O686 O 0.7434 0.03519 0.79542 0.0
H687 H 0.74446 0.97984 0.74848 0.0
H688 H 0.72654 0.98934 0.80007 0.0
O689 O 0.77581 0.98473 0.79274 0.0
H690 H 0.82728 0.04511 0.77772 0.0
H691 H 0.7008 0.96466 0.78311 0.0
Cu692 Cu 0.25822 0.79721 0.55336 0.0
N693 N 0.25937 0.81697 0.5696 0.0
N694 N 0.27012 0.83534 0.59332 0.0
C695 C 0.27445 0.82344 0.58082 0.0
C696 C 0.25161 0.83661 0.58951 0.0
C697 C 0.24504 0.82526 0.57498 0.0
O698 O 0.2524 0.77533 0.56782 0.0
C699 C 0.28322 0.79256 0.52542 0.0
O700 O 0.27327 0.77654 0.52249 0.0
H701 H 0.28801 0.81854 0.58053 0.0
H702 H 0.23062 0.82257 0.56933 0.0
N703 N 0.2385 0.79657 0.53527 0.0
N704 N 0.22245 0.78691 0.50915 0.0
C705 C 0.2328 0.78232 0.52391 0.0
C706 C 0.23116 0.81064 0.52768 0.0
C707 C 0.22119 0.80474 0.5117 0.0
C708 C 0.25973 0.77338 0.5837 0.0
O709 O 0.27504 0.78419 0.58933 0.0
H710 H 0.23754 0.76921 0.52575 0.0
H711 H 0.23401 0.8245 0.53272 0.0
O712 O 0.28104 0.8014 0.53978 0.0
H713 H 0.24318 0.84475 0.59698 0.0
H714 H 0.21432 0.81322 0.50232 0.0
Cu715 Cu 0.72841 0.7604 0.49391 0.0
N716 N 0.72925 0.73906 0.48091 0.0
N717 N 0.73878 0.71954 0.46157 0.0
C718 C 0.74075 0.73691 0.46764 0.0
C719 C 0.72549 0.71045 0.47144 0.0
C720 C 0.71962 0.72255 0.48336 0.0
O721 O 0.7297 0.7804 0.47707 0.0
C722 C 0.75465 0.77736 0.52144 0.0
O723 O 0.7465 0.79191 0.51812 0.0
H724 H 0.75081 0.74778 0.46298 0.0
H725 H 0.7093 0.71949 0.49333 0.0
N726 N 0.70591 0.75885 0.50552 0.0
N727 N 0.68547 0.76502 0.52549 0.0
C728 C 0.70382 0.76582 0.52194 0.0
C729 C 0.6883 0.75319 0.49848 0.0
C730 C 0.67563 0.757 0.51077 0.0
C731 C 0.72137 0.79428 0.47933 0.0
O732 O 0.71251 0.79586 0.49411 0.0
H733 H 0.71546 0.77253 0.53057 0.0
H734 H 0.68492 0.74751 0.48501 0.0
O735 O 0.74934 0.76299 0.51206 0.0
H736 H 0.72039 0.6961 0.47018 0.0
H737 H 0.66038 0.75466 0.50876 0.0
Cu738 Cu 0.76271 0.29688 0.57117 0.0
N739 N 0.74334 0.29759 0.55282 0.0
N740 N 0.72722 0.29088 0.52614 0.0
C741 C 0.74042 0.28618 0.53836 0.0
C742 C 0.72135 0.30576 0.53322 0.0
C743 C 0.73143 0.30996 0.5496 0.0
O744 O 0.78572 0.2999 0.558 0.0
C745 C 0.76399 0.27188 0.60029 0.0
O746 O 0.77953 0.28235 0.60595 0.0
H747 H 0.748 0.27474 0.53661 0.0
H748 H 0.73066 0.32169 0.55807 0.0
N749 N 0.76454 0.31621 0.58805 0.0
N750 N 0.77609 0.3343 0.61176 0.0
C751 C 0.78005 0.32283 0.59865 0.0
C752 C 0.75029 0.3238 0.59462 0.0
C753 C 0.75734 0.33502 0.60904 0.0
C754 C 0.78964 0.28877 0.5461 0.0
O755 O 0.78126 0.27195 0.54599 0.0
H756 H 0.7937 0.31832 0.59748 0.0
H757 H 0.73559 0.32063 0.58995 0.0
O758 O 0.75618 0.27468 0.58481 0.0
H759 H 0.71119 0.31352 0.52664 0.0
H760 H 0.74907 0.34267 0.61721 0.0
Cu761 Cu 0.23262 0.26328 0.53359 0.0
N762 N 0.20801 0.25881 0.54051 0.0
N763 N 0.18362 0.26431 0.55599 0.0
C764 C 0.20254 0.26507 0.55607 0.0
C765 C 0.17687 0.25708 0.53974 0.0
C766 C 0.19202 0.25364 0.5302 0.0
O767 O 0.24862 0.27239 0.55446 0.0
C768 C 0.22616 0.29535 0.51588 0.0
O769 O 0.21841 0.29894 0.53087 0.0
H770 H 0.21236 0.27193 0.56642 0.0
H771 H 0.19152 0.2492 0.51623 0.0
N772 N 0.2408 0.24239 0.52503 0.0
N773 N 0.25651 0.22524 0.50823 0.0
C774 C 0.24991 0.24131 0.50987 0.0
C775 C 0.24148 0.22648 0.53334 0.0
C776 C 0.25112 0.21579 0.52294 0.0
C777 C 0.26642 0.27249 0.55519 0.0
O778 O 0.27442 0.26725 0.54094 0.0
H779 H 0.25197 0.25233 0.50046 0.0
H780 H 0.23603 0.22319 0.54635 0.0
O781 O 0.23362 0.28085 0.51463 0.0
H782 H 0.16221 0.25559 0.53466 0.0
H783 H 0.25451 0.20242 0.52633 0.0
Cu784 Cu 0.77463 0.57822 0.77324 0.0
N785 N 0.77467 0.59052 0.75137 0.0
N786 N 0.78334 0.6097 0.72944 0.0
C787 C 0.78856 0.60258 0.74537 0.0
C788 C 0.7656 0.60158 0.7251 0.0
C789 C 0.76029 0.58978 0.73867 0.0
O790 O 0.7728 0.59519 0.79324 0.0
C791 C 0.79726 0.5521 0.7871 0.0
O792 O 0.78639 0.55184 0.80076 0.0
H793 H 0.80219 0.60617 0.75259 0.0
H794 H 0.74672 0.58156 0.73944 0.0
N795 N 0.75261 0.56176 0.77319 0.0
N796 N 0.7346 0.53547 0.77792 0.0
C797 C 0.75148 0.54356 0.77287 0.0
C798 C 0.73571 0.56541 0.778 0.0
C799 C 0.72456 0.54926 0.7809 0.0
C800 C 0.78101 0.61148 0.79475 0.0
O801 O 0.79405 0.61715 0.78367 0.0
H802 H 0.76327 0.53649 0.77013 0.0
H803 H 0.73232 0.57889 0.7807 0.0
O804 O 0.79572 0.56389 0.7749 0.0
H805 H 0.75684 0.6045 0.71334 0.0
H806 H 0.71078 0.54794 0.78636 0.0
Cu807 Cu 0.2611 0.51275 0.78826 0.0
N808 N 0.26643 0.5006 0.80972 0.0
N809 N 0.2777 0.48058 0.82867 0.0
C810 C 0.27466 0.48531 0.81123 0.0
C811 C 0.27095 0.49346 0.83841 0.0
C812 C 0.26414 0.50577 0.82675 0.0
O813 O 0.25043 0.49516 0.76989 0.0
C814 C 0.29824 0.53186 0.79131 0.0
O815 O 0.30212 0.52021 0.80376 0.0
H816 H 0.27892 0.47821 0.79972 0.0
H817 H 0.25832 0.51785 0.83048 0.0
N818 N 0.24345 0.52897 0.7906 0.0
N819 N 0.2283 0.55277 0.78363 0.0
C820 C 0.24169 0.54267 0.7791 0.0
C821 C 0.23062 0.53033 0.80288 0.0
C822 C 0.22131 0.54506 0.79866 0.0
C823 C 0.25947 0.48487 0.76102 0.0
O824 O 0.27797 0.48636 0.76351 0.0
H825 H 0.25031 0.54528 0.76769 0.0
H826 H 0.22811 0.52123 0.81402 0.0
O827 O 0.28315 0.52842 0.78119 0.0
H828 H 0.27092 0.49411 0.85298 0.0
H829 H 0.21004 0.54953 0.80589 0.0
Cu830 Cu 0.2826 0.55072 0.29063 0.0
N831 N 0.284 0.53856 0.31246 0.0
N832 N 0.27321 0.51814 0.33249 0.0
C833 C 0.26879 0.52822 0.31825 0.0
C834 C 0.29207 0.52235 0.33588 0.0
C835 C 0.29872 0.53503 0.32346 0.0
O836 O 0.2813 0.53094 0.2725 0.0
C837 C 0.26279 0.57486 0.3069 0.0
O838 O 0.27697 0.57358 0.31876 0.0
H839 H 0.25495 0.52715 0.31122 0.0
H840 H 0.31332 0.54036 0.32192 0.0
N841 N 0.30373 0.56746 0.28682 0.0
N842 N 0.32059 0.59002 0.27283 0.0
C843 C 0.30585 0.57664 0.27138 0.0
C844 C 0.31763 0.57523 0.29855 0.0
C845 C 0.32811 0.58915 0.28992 0.0
C846 C 0.29595 0.5227 0.2735 0.0
O847 O 0.31016 0.52897 0.28488 0.0
H848 H 0.29595 0.57427 0.25969 0.0
H849 H 0.31943 0.57172 0.3126 0.0
O850 O 0.26165 0.56541 0.29225 0.0
H851 H 0.30054 0.51621 0.34609 0.0
H852 H 0.33997 0.59825 0.29595 0.0
Cu853 Cu 0.75923 0.4992 0.30825 0.0
N854 N 0.75816 0.48393 0.32834 0.0
N855 N 0.76583 0.46226 0.34729 0.0
C856 C 0.7707 0.47236 0.3328 0.0
C857 C 0.74959 0.46777 0.35214 0.0
C858 C 0.74493 0.48114 0.34049 0.0
O859 O 0.75867 0.48329 0.28732 0.0
C860 C 0.78896 0.52672 0.29984 0.0
O861 O 0.78266 0.52384 0.28291 0.0
H862 H 0.78289 0.47104 0.32521 0.0
H863 H 0.73267 0.48817 0.34077 0.0
N864 N 0.7389 0.51293 0.30547 0.0
N865 N 0.72242 0.53511 0.29568 0.0
C866 C 0.73973 0.52981 0.29863 0.0
C867 C 0.72041 0.50739 0.30704 0.0
C868 C 0.71025 0.521 0.30111 0.0
C869 C 0.75195 0.48675 0.27163 0.0
O870 O 0.74719 0.50292 0.26837 0.0
H871 H 0.75268 0.53761 0.29485 0.0
H872 H 0.71464 0.49408 0.31142 0.0
O873 O 0.7819 0.51639 0.31193 0.0
H874 H 0.74165 0.46258 0.36336 0.0
H875 H 0.69502 0.5203 0.30044 0.0
Cu876 Cu 0.5322 0.27839 0.80336 0.0
N877 N 0.51777 0.27891 0.82374 0.0
N878 N 0.49477 0.2862 0.84062 0.0
C879 C 0.5027 0.28803 0.82455 0.0
C880 C 0.50537 0.27553 0.85035 0.0
C881 C 0.51958 0.27115 0.83997 0.0
O882 O 0.51427 0.2777 0.78265 0.0
C883 C 0.56475 0.29871 0.81646 0.0
O884 O 0.56438 0.28427 0.8266 0.0
H885 H 0.49749 0.29564 0.81337 0.0
H886 H 0.53051 0.26303 0.84407 0.0
N887 N 0.5454 0.25824 0.80113 0.0
N888 N 0.56656 0.24164 0.79073 0.0
C889 C 0.55798 0.25668 0.78856 0.0
C890 C 0.54588 0.24354 0.81153 0.0
C891 C 0.55898 0.23333 0.8052 0.0
C892 C 0.50117 0.26434 0.78284 0.0
O893 O 0.50179 0.25259 0.79594 0.0
H894 H 0.56124 0.26677 0.77838 0.0
H895 H 0.53753 0.24054 0.82303 0.0
O896 O 0.55113 0.29966 0.80475 0.0
H897 H 0.50321 0.27139 0.8641 0.0
H898 H 0.56262 0.22077 0.81082 0.0
Cu899 Cu 0.52123 0.80295 0.80515 0.0
N900 N 0.54178 0.80532 0.82267 0.0
N901 N 0.56799 0.79901 0.83839 0.0
C902 C 0.55406 0.79316 0.82563 0.0
C903 C 0.5642 0.81553 0.84363 0.0
C904 C 0.54816 0.81939 0.83393 0.0
O905 O 0.53167 0.80286 0.78174 0.0
C906 C 0.50065 0.77756 0.82555 0.0
O907 O 0.50842 0.78881 0.83849 0.0
H908 H 0.55302 0.78048 0.81815 0.0
H909 H 0.54186 0.83176 0.83478 0.0
N910 N 0.50601 0.82172 0.80553 0.0
N911 N 0.483 0.83822 0.79669 0.0
C912 C 0.49431 0.82607 0.79169 0.0
C913 C 0.50194 0.83141 0.81981 0.0
C914 C 0.48791 0.84164 0.81441 0.0
C915 C 0.54428 0.81614 0.77908 0.0
O916 O 0.54864 0.82864 0.79183 0.0
H917 H 0.49344 0.81967 0.77845 0.0
H918 H 0.50808 0.83048 0.83341 0.0
O919 O 0.5048 0.78076 0.80936 0.0
H920 H 0.57241 0.8243 0.85378 0.0
H921 H 0.48157 0.85062 0.82302 0.0
Cu922 Cu 0.5141 0.76764 0.29791 0.0
N923 N 0.49585 0.76628 0.31519 0.0
N924 N 0.47117 0.77298 0.33 0.0
C925 C 0.484 0.7786 0.3179 0.0
C926 C 0.4751 0.7564 0.33502 0.0
C927 C 0.49017 0.75227 0.32581 0.0
O928 O 0.50062 0.76759 0.27438 0.0
C929 C 0.53055 0.80551 0.30262 0.0
O930 O 0.51378 0.81039 0.29884 0.0
H931 H 0.48419 0.79106 0.31047 0.0
H932 H 0.49604 0.73963 0.32636 0.0
N933 N 0.52856 0.74832 0.29901 0.0
N934 N 0.55101 0.73169 0.29168 0.0
C935 C 0.53928 0.74358 0.28588 0.0
C936 C 0.53378 0.73919 0.31367 0.0
C937 C 0.54746 0.72883 0.30917 0.0
C938 C 0.49201 0.75235 0.2686 0.0
O939 O 0.49362 0.73788 0.27832 0.0
H940 H 0.53938 0.74974 0.27271 0.0
H941 H 0.52895 0.74084 0.32702 0.0
O942 O 0.53264 0.78882 0.30238 0.0
H943 H 0.46747 0.74769 0.34448 0.0
H944 H 0.55471 0.72039 0.31829 0.0
Cu945 Cu 0.51698 0.27866 0.29097 0.0
N946 N 0.50123 0.25678 0.29332 0.0
N947 N 0.4785 0.23666 0.30358 0.0
C948 C 0.4868 0.25407 0.30421 0.0
C949 C 0.48811 0.22807 0.29186 0.0
C950 C 0.50223 0.24049 0.28567 0.0
O951 O 0.50122 0.29841 0.2919 0.0
C952 C 0.55052 0.26833 0.30534 0.0
O953 O 0.54758 0.25852 0.29038 0.0
H954 H 0.48254 0.26468 0.31248 0.0
H955 H 0.51274 0.2377 0.27657 0.0
N956 N 0.52727 0.28015 0.26837 0.0
N957 N 0.54713 0.28967 0.24738 0.0
C958 C 0.54204 0.29224 0.26429 0.0
C959 C 0.52269 0.26967 0.25343 0.0
C960 C 0.53504 0.27545 0.24047 0.0
C961 C 0.48861 0.29794 0.27882 0.0
O962 O 0.4871 0.28443 0.26706 0.0
H963 H 0.54926 0.30238 0.27377 0.0
H964 H 0.51125 0.25859 0.25203 0.0
O965 O 0.53844 0.27883 0.30906 0.0
H966 H 0.48551 0.21372 0.28848 0.0
H967 H 0.53508 0.26974 0.22701 0.0
C968 C 0.20043 0.19676 0.17854 0.0
C969 C 0.19516 0.20478 0.19434 0.0
C970 C 0.20626 0.20735 0.16372 0.0
C971 C 0.20675 0.22646 0.16456 0.0
C972 C 0.20168 0.23466 0.18052 0.0
C973 C 0.19609 0.22378 0.19519 0.0
C974 C 0.21168 0.19804 0.14705 0.0
C975 C 0.20195 0.25496 0.18205 0.0
C976 C 0.2364 0.25631 0.13236 0.0
C977 C 0.2228 0.25999 0.11883 0.0
C978 C 0.23143 0.24533 0.14716 0.0
C979 C 0.21233 0.2379 0.14871 0.0
C980 C 0.1985 0.24161 0.13522 0.0
C981 C 0.20389 0.2525 0.12047 0.0
C982 C 0.24666 0.24172 0.16118 0.0
C983 C 0.17795 0.23407 0.13636 0.0
H984 H 0.1996 0.18212 0.17757 0.0
H985 H 0.19244 0.23023 0.20739 0.0
H986 H 0.20195 0.2005 0.13535 0.0
H987 H 0.22615 0.20379 0.14373 0.0
H988 H 0.21121 0.18316 0.14872 0.0
H989 H 0.19768 0.25926 0.19539 0.0
H990 H 0.21633 0.26195 0.17999 0.0
H991 H 0.19224 0.25958 0.17134 0.0
H992 H 0.25099 0.26216 0.13156 0.0
H993 H 0.19322 0.25494 0.11012 0.0
H994 H 0.24686 0.22689 0.16244 0.0
H995 H 0.2436 0.24697 0.17456 0.0
H996 H 0.26092 0.24814 0.15784 0.0
H997 H 0.17635 0.21903 0.13657 0.0
H998 H 0.16889 0.23827 0.12486 0.0
H999 H 0.17273 0.23874 0.14913 0.0
C1000 C 0.84239 0.28352 0.12901 0.0
C1001 C 0.83416 0.26872 0.13866 0.0
C1002 C 0.83553 0.28679 0.11133 0.0
C1003 C 0.82025 0.27483 0.1031 0.0
C1004 C 0.812 0.25979 0.11281 0.0
C1005 C 0.81908 0.25691 0.13047 0.0
C1006 C 0.84467 0.30297 0.10143 0.0
C1007 C 0.79576 0.24666 0.10449 0.0
C1008 C 0.78945 0.28904 0.06357 0.0
C1009 C 0.79613 0.28015 0.049 0.0
C1010 C 0.79766 0.28803 0.08117 0.0
C1011 C 0.81289 0.27785 0.08429 0.0
C1012 C 0.82026 0.26956 0.06954 0.0
C1013 C 0.81183 0.27085 0.05207 0.0
C1014 C 0.7895 0.2972 0.09652 0.0
C1015 C 0.8365 0.2586 0.07232 0.0
H1016 H 0.85421 0.29253 0.13529 0.0
H1017 H 0.81291 0.24536 0.13792 0.0
H1018 H 0.85054 0.29838 0.08897 0.0
H1019 H 0.83394 0.31185 0.09723 0.0
H1020 H 0.85622 0.31111 0.10983 0.0
H1021 H 0.79092 0.23568 0.11386 0.0
H1022 H 0.78365 0.254 0.10052 0.0
H1023 H 0.80005 0.24039 0.09204 0.0
H1024 H 0.77738 0.29633 0.06134 0.0
H1025 H 0.81711 0.26395 0.04092 0.0
H1026 H 0.80088 0.30575 0.10472 0.0
H1027 H 0.78279 0.28677 0.10556 0.0
H1028 H 0.77873 0.30582 0.09167 0.0
H1029 H 0.84852 0.26662 0.08018 0.0
H1030 H 0.84151 0.25418 0.05933 0.0
H1031 H 0.832 0.24636 0.08023 0.0
C1032 C 0.84738 0.87127 0.16674 0.0
C1033 C 0.83578 0.87633 0.17998 0.0
C1034 C 0.83969 0.86201 0.1508 0.0
C1035 C 0.81985 0.85753 0.14797 0.0
C1036 C 0.80804 0.8625 0.16132 0.0
C1037 C 0.81613 0.87192 0.17708 0.0
C1038 C 0.8528 0.85727 0.13685 0.0
C1039 C 0.78683 0.85791 0.15891 0.0
C1040 C 0.79672 0.85098 0.10031 0.0
C1041 C 0.79256 0.83202 0.09866 0.0
C1042 C 0.80614 0.85936 0.11599 0.0
C1043 C 0.81136 0.84857 0.13063 0.0
C1044 C 0.80783 0.82937 0.12882 0.0
C1045 C 0.79858 0.82131 0.11279 0.0
C1046 C 0.80991 0.87983 0.11711 0.0
C1047 C 0.81306 0.81737 0.14411 0.0
H1048 H 0.86258 0.8748 0.16875 0.0
H1049 H 0.80707 0.87559 0.1873 0.0
H1050 H 0.85034 0.84248 0.13382 0.0
H1051 H 0.84981 0.8643 0.12407 0.0
H1052 H 0.86792 0.86115 0.14135 0.0
H1053 H 0.77966 0.86198 0.17086 0.0
H1054 H 0.7814 0.86487 0.14689 0.0
H1055 H 0.78293 0.8431 0.15648 0.0
H1056 H 0.79217 0.85936 0.08942 0.0
H1057 H 0.7952 0.80667 0.11171 0.0
H1058 H 0.82504 0.88434 0.121 0.0
H1059 H 0.80157 0.88489 0.12771 0.0
H1060 H 0.80615 0.88621 0.10412 0.0
H1061 H 0.82819 0.82094 0.14865 0.0
H1062 H 0.81045 0.80274 0.14023 0.0
H1063 H 0.80467 0.8196 0.15581 0.0
C1064 C 0.18225 0.83027 0.1104 0.0
C1065 C 0.16788 0.82363 0.12152 0.0
C1066 C 0.18711 0.8196 0.09618 0.0
C1067 C 0.17743 0.80183 0.09313 0.0
C1068 C 0.16314 0.79495 0.10458 0.0
C1069 C 0.15853 0.80597 0.11865 0.0
C1070 C 0.20242 0.82743 0.08427 0.0
C1071 C 0.1526 0.77605 0.10183 0.0
C1072 C 0.17794 0.78241 0.04569 0.0
C1073 C 0.19279 0.77186 0.04759 0.0
C1074 C 0.17247 0.79185 0.06051 0.0
C1075 C 0.18203 0.79067 0.07768 0.0
C1076 C 0.19658 0.77955 0.07983 0.0
C1077 C 0.20179 0.7703 0.06476 0.0
C1078 C 0.15692 0.80362 0.05765 0.0
C1079 C 0.207 0.77782 0.09795 0.0
H1080 H 0.18956 0.84391 0.11271 0.0
H1081 H 0.14748 0.80086 0.12738 0.0
H1082 H 0.21378 0.81862 0.08439 0.0
H1083 H 0.19652 0.82787 0.0701 0.0
H1084 H 0.20877 0.84136 0.08862 0.0
H1085 H 0.14232 0.77253 0.11228 0.0
H1086 H 0.14485 0.77485 0.08835 0.0
H1087 H 0.16272 0.76595 0.10215 0.0
H1088 H 0.17107 0.78389 0.03247 0.0
H1089 H 0.2131 0.76199 0.06636 0.0
H1090 H 0.16276 0.81806 0.06026 0.0
H1091 H 0.14587 0.80002 0.06733 0.0
H1092 H 0.15019 0.80228 0.04371 0.0
H1093 H 0.21488 0.79117 0.10231 0.0
H1094 H 0.21718 0.76778 0.09758 0.0
H1095 H 0.19683 0.77368 0.10831 0.0
C1096 C 0.20873 0.84605 0.90458 0.0
C1097 C 0.22081 0.86163 0.90037 0.0
C1098 C 0.21285 0.83573 0.91973 0.0
C1099 C 0.22944 0.84117 0.93097 0.0
C1100 C 0.24151 0.85712 0.92695 0.0
C1101 C 0.23701 0.86721 0.91171 0.0
C1102 C 0.19954 0.81888 0.92359 0.0
C1103 C 0.25928 0.8634 0.93862 0.0
C1104 C 0.23024 0.82139 0.97807 0.0
C1105 C 0.24006 0.80648 0.97578 0.0
C1106 C 0.22721 0.83316 0.96377 0.0
C1107 C 0.23419 0.82997 0.94676 0.0
C1108 C 0.24483 0.81543 0.94459 0.0
C1109 C 0.24763 0.80387 0.95911 0.0
C1110 C 0.21586 0.84855 0.96667 0.0
C1111 C 0.25262 0.81165 0.9267 0.0
H1112 H 0.19613 0.84188 0.89585 0.0
H1113 H 0.24628 0.87935 0.90853 0.0
H1114 H 0.20711 0.8068 0.92321 0.0
H1115 H 0.19449 0.81985 0.93735 0.0
H1116 H 0.18708 0.8167 0.91371 0.0
H1117 H 0.26695 0.87629 0.93387 0.0
H1118 H 0.25576 0.86538 0.95279 0.0
H1119 H 0.26888 0.85284 0.93866 0.0
H1120 H 0.22435 0.82358 0.99089 0.0
H1121 H 0.25527 0.79242 0.9572 0.0
H1122 H 0.20234 0.84613 0.95829 0.0
H1123 H 0.22362 0.86154 0.96231 0.0
H1124 H 0.21264 0.85002 0.98101 0.0
H1125 H 0.24078 0.80768 0.91644 0.0
H1126 H 0.26166 0.80061 0.92756 0.0
H1127 H 0.26104 0.82407 0.92185 0.0
C1128 C 0.20759 0.23942 0.95283 0.0
C1129 C 0.21816 0.23395 0.93891 0.0
C1130 C 0.21578 0.24316 0.97044 0.0
C1131 C 0.23491 0.24082 0.97458 0.0
C1132 C 0.24565 0.23516 0.96073 0.0
C1133 C 0.23727 0.23204 0.94309 0.0
C1134 C 0.20402 0.24998 0.98457 0.0
C1135 C 0.26607 0.23253 0.96451 0.0
C1136 C 0.25998 0.26605 0.01618 0.0
C1137 C 0.25646 0.25326 0.02977 0.0
C1138 C 0.25332 0.26218 0.99813 0.0
C1139 C 0.24364 0.24473 0.99333 0.0
C1140 C 0.24127 0.23133 1.00681 0.0
C1141 C 0.2473 0.23589 0.02492 0.0
C1142 C 0.25623 0.2771 0.98447 0.0
C1143 C 0.23179 0.21235 1.00221 0.0
H1144 H 0.19278 0.2407 0.95006 0.0
H1145 H 0.24585 0.22828 0.93252 0.0
H1146 H 0.20272 0.24034 0.99588 0.0
H1147 H 0.21111 0.2632 0.99023 0.0
H1148 H 0.1896 0.25179 0.97905 0.0
H1149 H 0.27197 0.22637 0.9528 0.0
H1150 H 0.27464 0.24583 0.96782 0.0
H1151 H 0.26754 0.22372 0.97639 0.0
H1152 H 0.26681 0.27957 0.01982 0.0
H1153 H 0.24448 0.22597 0.03536 0.0
H1154 H 0.24466 0.276 0.97368 0.0
H1155 H 0.26969 0.27628 0.97805 0.0
H1156 H 0.25724 0.2907 0.99103 0.0
H1157 H 0.21658 0.21261 0.99842 0.0
H1158 H 0.23301 0.203 0.0137 0.0
H1159 H 0.23813 0.20685 0.99041 0.0
C1160 C 0.81134 0.19248 0.89874 0.0
C1161 C 0.83049 0.19146 0.90326 0.0
C1162 C 0.7999 0.19918 0.91121 0.0
C1163 C 0.80777 0.20474 0.92869 0.0
C1164 C 0.82704 0.20346 0.9334 0.0
C1165 C 0.8382 0.19695 0.92058 0.0
C1166 C 0.7795 0.20061 0.9056 0.0
C1167 C 0.83588 0.20901 0.95198 0.0
C1168 C 0.7856 0.23848 0.95632 0.0
C1169 C 0.77547 0.22719 0.96848 0.0
C1170 C 0.79572 0.2313 0.94302 0.0
C1171 C 0.79604 0.21235 0.94194 0.0
C1172 C 0.78569 0.2008 0.95392 0.0
C1173 C 0.77542 0.20833 0.96691 0.0
C1174 C 0.80642 0.24407 0.93034 0.0
C1175 C 0.78579 0.18051 0.95325 0.0
H1176 H 0.8054 0.18836 0.88529 0.0
H1177 H 0.85295 0.19597 0.92416 0.0
H1178 H 0.77007 0.19286 0.91494 0.0
H1179 H 0.77698 0.21499 0.90645 0.0
H1180 H 0.77548 0.19545 0.89161 0.0
H1181 H 0.85088 0.2066 0.95368 0.0
H1182 H 0.83522 0.22364 0.95448 0.0
H1183 H 0.82786 0.20135 0.96243 0.0
H1184 H 0.78607 0.25304 0.95733 0.0
H1185 H 0.76744 0.19936 0.97591 0.0
H1186 H 0.80236 0.2398 0.91611 0.0
H1187 H 0.82181 0.24357 0.93265 0.0
H1188 H 0.80376 0.25833 0.93218 0.0
H1189 H 0.78082 0.17504 0.93957 0.0
H1190 H 0.7767 0.17335 0.96327 0.0
H1191 H 0.80043 0.17737 0.95594 0.0
C1192 C 0.8134 0.83748 0.92499 0.0
C1193 C 0.81726 0.85563 0.91969 0.0
C1194 C 0.8042 0.83287 0.9409 0.0
C1195 C 0.79871 0.84672 0.95187 0.0
C1196 C 0.80274 0.86505 0.9467 0.0
C1197 C 0.81196 0.86927 0.93077 0.0
C1198 C 0.80021 0.81316 0.9459 0.0
C1199 C 0.79723 0.88027 0.95798 0.0
C1200 C 0.75967 0.83486 0.98436 0.0
C1201 C 0.77002 0.83408 1.00101 0.0
C1202 C 0.76879 0.8388 0.9683 0.0
C1203 C 0.7888 0.84211 0.96879 0.0
C1204 C 0.79932 0.84135 0.98553 0.0
C1205 C 0.78984 0.83736 1.00137 0.0
C1206 C 0.75699 0.83938 0.95076 0.0
C1207 C 0.82065 0.8448 0.98674 0.0
H1208 H 0.81723 0.82681 0.91649 0.0
H1209 H 0.81515 0.88335 0.92704 0.0
H1210 H 0.80689 0.81108 0.9595 0.0
H1211 H 0.78477 0.80917 0.94658 0.0
H1212 H 0.80553 0.80402 0.93608 0.0
H1213 H 0.80135 0.89381 0.95212 0.0
H1214 H 0.78172 0.8783 0.95923 0.0
H1215 H 0.80404 0.88012 0.97182 0.0
H1216 H 0.7444 0.83206 0.98381 0.0
H1217 H 0.79799 0.83698 0.01414 0.0
H1218 H 0.76087 0.82939 0.94095 0.0
H1219 H 0.75986 0.853 0.94472 0.0
H1220 H 0.7416 0.83638 0.9526 0.0
H1221 H 0.82633 0.83512 0.97775 0.0
H1222 H 0.82679 0.84343 1.00071 0.0
H1223 H 0.82547 0.85867 0.98203 0.0
C1224 C 0.13387 0.18121 0.24631 0.0
C1225 C 0.15022 0.19332 0.24371 0.0
C1226 C 0.11855 0.18693 0.25484 0.0
C1227 C 0.11975 0.2051 0.26128 0.0
C1228 C 0.13645 0.21723 0.25904 0.0
C1229 C 0.15135 0.21126 0.25015 0.0
C1230 C 0.10094 0.17362 0.25665 0.0
C1231 C 0.13856 0.23659 0.26599 0.0
C1232 C 0.07503 0.22647 0.26865 0.0
C1233 C 0.07347 0.22464 0.28732 0.0
C1234 C 0.08975 0.21985 0.25996 0.0
C1235 C 0.10354 0.21151 0.27022 0.0
C1236 C 0.10208 0.20973 0.2891 0.0
C1237 C 0.08699 0.21613 0.29737 0.0
C1238 C 0.09053 0.22176 0.23977 0.0
C1239 C 0.11665 0.20133 0.30065 0.0
H1240 H 0.13285 0.16739 0.24123 0.0
H1241 H 0.16402 0.22064 0.2483 0.0
H1242 H 0.0979 0.17216 0.27108 0.0
H1243 H 0.08865 0.17881 0.2496 0.0
H1244 H 0.10219 0.16001 0.25094 0.0
H1245 H 0.1527 0.24411 0.2638 0.0
H1246 H 0.12763 0.24386 0.25912 0.0
H1247 H 0.13635 0.2368 0.28066 0.0
H1248 H 0.06453 0.23285 0.26079 0.0
H1249 H 0.08601 0.21487 0.31182 0.0
H1250 H 0.09072 0.20826 0.23334 0.0
H1251 H 0.10376 0.23039 0.23663 0.0
H1252 H 0.07833 0.22787 0.23363 0.0
H1253 H 0.11738 0.1873 0.29582 0.0
H1254 H 0.11349 0.20089 0.31512 0.0
H1255 H 0.13082 0.2092 0.29949 0.0
C1256 C 0.81716 0.2001 0.19828 0.0
C1257 C 0.83638 0.19902 0.19644 0.0
C1258 C 0.80506 0.18518 0.20424 0.0
C1259 C 0.81234 0.16876 0.20827 0.0
C1260 C 0.83166 0.16752 0.20612 0.0
C1261 C 0.84344 0.18268 0.20031 0.0
C1262 C 0.7846 0.18707 0.20653 0.0
C1263 C 0.83993 0.1502 0.21006 0.0
C1264 C 0.78878 0.134 0.23982 0.0
C1265 C 0.77982 0.12053 0.22762 0.0
C1266 C 0.79872 0.15012 0.23369 0.0
C1267 C 0.79991 0.15283 0.21491 0.0
C1268 C 0.79027 0.13969 0.20252 0.0
C1269 C 0.78027 0.12377 0.20902 0.0
C1270 C 0.80866 0.1639 0.24736 0.0
C1271 C 0.79116 0.14207 0.18238 0.0
H1272 H 0.81169 0.21277 0.19547 0.0
H1273 H 0.85824 0.18173 0.19869 0.0
H1274 H 0.77527 0.17652 0.19834 0.0
H1275 H 0.7814 0.18492 0.22085 0.0
H1276 H 0.78105 0.20062 0.20246 0.0
H1277 H 0.85513 0.15136 0.20735 0.0
H1278 H 0.8384 0.14658 0.22442 0.0
H1279 H 0.8321 0.13887 0.20169 0.0
H1280 H 0.78872 0.13168 0.2542 0.0
H1281 H 0.77309 0.11368 0.19947 0.0
H1282 H 0.80509 0.17764 0.24415 0.0
H1283 H 0.82418 0.16443 0.24677 0.0
H1284 H 0.80489 0.16062 0.26136 0.0
H1285 H 0.78699 0.15539 0.17839 0.0
H1286 H 0.78186 0.1312 0.17454 0.0
H1287 H 0.8059 0.14191 0.1786 0.0
C1288 C 0.8884 0.88132 0.24986 0.0
C1289 C 0.88594 0.8817 0.23093 0.0
C1290 C 0.90377 0.87404 0.25848 0.0
C1291 C 0.91694 0.8668 0.24796 0.0
C1292 C 0.9147 0.86739 0.22888 0.0
C1293 C 0.89938 0.87494 0.22065 0.0
C1294 C 0.90575 0.87386 0.27885 0.0
C1295 C 0.92837 0.85981 0.21712 0.0
C1296 C 0.96607 0.86042 0.26779 0.0
C1297 C 0.96404 0.84171 0.27129 0.0
C1298 C 0.95077 0.86883 0.26072 0.0
C1299 C 0.93295 0.85834 0.25678 0.0
C1300 C 0.93067 0.83955 0.2605 0.0
C1301 C 0.94615 0.83152 0.26779 0.0
C1302 C 0.95379 0.88894 0.25712 0.0
C1303 C 0.91195 0.82781 0.25641 0.0
H1304 H 0.87806 0.88633 0.25797 0.0
H1305 H 0.89793 0.8755 0.20604 0.0
H1306 H 0.90454 0.85965 0.28355 0.0
H1307 H 0.91994 0.88065 0.28377 0.0
H1308 H 0.89485 0.88075 0.2851 0.0
H1309 H 0.92467 0.86133 0.20249 0.0
H1310 H 0.9429 0.86679 0.22034 0.0
H1311 H 0.92853 0.84519 0.21989 0.0
H1312 H 0.97972 0.86853 0.27019 0.0
H1313 H 0.94415 0.81718 0.27068 0.0
H1314 H 0.94311 0.89579 0.26373 0.0
H1315 H 0.95192 0.89123 0.24239 0.0
H1316 H 0.96811 0.89544 0.26205 0.0
H1317 H 0.90068 0.83333 0.26347 0.0
H1318 H 0.91231 0.81353 0.26054 0.0
H1319 H 0.90799 0.82793 0.24171 0.0
C1320 C 0.1698 0.86587 0.22529 0.0
C1321 C 0.16855 0.86796 0.20649 0.0
C1322 C 0.17592 0.88068 0.23696 0.0
C1323 C 0.181 0.89804 0.22967 0.0
C1324 C 0.18047 0.90014 0.21068 0.0
C1325 C 0.17426 0.88503 0.19928 0.0
C1326 C 0.17642 0.87783 0.25711 0.0
C1327 C 0.18587 0.91843 0.20244 0.0
C1328 C 0.17692 0.93791 0.26085 0.0
C1329 C 0.19567 0.94261 0.26772 0.0
C1330 C 0.17203 0.92374 0.2481 0.0
C1331 C 0.18624 0.91401 0.24205 0.0
C1332 C 0.20523 0.91886 0.24869 0.0
C1333 C 0.20971 0.93306 0.26145 0.0
C1334 C 0.1516 0.91897 0.24132 0.0
C1335 C 0.22077 0.90875 0.24265 0.0
H1336 H 0.16566 0.85262 0.2309 0.0
H1337 H 0.17321 0.8867 0.18477 0.0
H1338 H 0.19069 0.88279 0.26337 0.0
H1339 H 0.1663 0.88577 0.26324 0.0
H1340 H 0.17274 0.86333 0.26057 0.0
H1341 H 0.18578 0.91759 0.18747 0.0
H1342 H 0.17583 0.9278 0.20614 0.0
H1343 H 0.20015 0.92447 0.20786 0.0
H1344 H 0.16605 0.94537 0.2654 0.0
H1345 H 0.22419 0.93639 0.26684 0.0
H1346 H 0.14631 0.90495 0.2453 0.0
H1347 H 0.15031 0.91932 0.22635 0.0
H1348 H 0.1424 0.92836 0.24674 0.0
H1349 H 0.21829 0.89446 0.24706 0.0
H1350 H 0.23497 0.91493 0.24822 0.0
H1351 H 0.22068 0.90849 0.22769 0.0
C1352 C 0.1322 0.86443 0.85408 0.0
C1353 C 0.14652 0.87136 0.84304 0.0
C1354 C 0.1158 0.85371 0.84675 0.0
C1355 C 0.11391 0.84955 0.82799 0.0
C1356 C 0.12834 0.85659 0.81678 0.0
C1357 C 0.14442 0.86755 0.82443 0.0
C1358 C 0.1006 0.84664 0.8591 0.0
C1359 C 0.12705 0.85214 0.79681 0.0
C1360 C 0.08249 0.80585 0.81445 0.0
C1361 C 0.06593 0.81218 0.80751 0.0
C1362 C 0.09833 0.8179 0.8207 0.0
C1363 C 0.09748 0.83679 0.82036 0.0
C1364 C 0.08088 0.84333 0.81313 0.0
C1365 C 0.06532 0.8309 0.80657 0.0
C1366 C 0.1159 0.81039 0.82789 0.0
C1367 C 0.0794 0.86338 0.8128 0.0
H1368 H 0.13376 0.86756 0.86844 0.0
H1369 H 0.15557 0.87285 0.81591 0.0
H1370 H 0.08673 0.85021 0.8538 0.0
H1371 H 0.09931 0.83162 0.85956 0.0
H1372 H 0.10361 0.85217 0.87309 0.0
H1373 H 0.13914 0.85929 0.78985 0.0
H1374 H 0.12676 0.83731 0.79473 0.0
H1375 H 0.11374 0.85587 0.79033 0.0
H1376 H 0.08308 0.79136 0.815 0.0
H1377 H 0.05248 0.8358 0.80129 0.0
H1378 H 0.11877 0.81395 0.84244 0.0
H1379 H 0.12831 0.81653 0.82078 0.0
H1380 H 0.11458 0.79539 0.8263 0.0
H1381 H 0.0809 0.86897 0.82681 0.0
H1382 H 0.06571 0.86628 0.80634 0.0
H1383 H 0.09105 0.87065 0.80541 0.0
C1384 C 0.23092 0.18379 0.84339 0.0
C1385 C 0.23357 0.18721 0.86206 0.0
C1386 C 0.2377 0.16891 0.83539 0.0
C1387 C 0.24733 0.15706 0.84632 0.0
C1388 C 0.24952 0.16014 0.86527 0.0
C1389 C 0.24264 0.17519 0.8729 0.0
C1390 C 0.23498 0.16616 0.81516 0.0
C1391 C 0.25956 0.14781 0.87743 0.0
C1392 C 0.25184 0.11082 0.82549 0.0
C1393 C 0.27008 0.11367 0.81914 0.0
C1394 C 0.24446 0.12461 0.83478 0.0
C1395 C 0.2555 0.14177 0.83777 0.0
C1396 C 0.2741 0.14459 0.83183 0.0
C1397 C 0.28117 0.13053 0.82265 0.0
C1398 C 0.22463 0.12095 0.84096 0.0
C1399 C 0.28638 0.16266 0.8347 0.0
H1400 H 0.22391 0.19304 0.83496 0.0
H1401 H 0.24471 0.17783 0.88733 0.0
H1402 H 0.24895 0.16729 0.80925 0.0
H1403 H 0.22761 0.15233 0.81184 0.0
H1404 H 0.22669 0.17622 0.80864 0.0
H1405 H 0.25928 0.1515 0.89194 0.0
H1406 H 0.25294 0.13353 0.8753 0.0
H1407 H 0.2745 0.1485 0.874 0.0
H1408 H 0.24312 0.09786 0.82292 0.0
H1409 H 0.29524 0.13295 0.81781 0.0
H1410 H 0.2155 0.12979 0.8336 0.0
H1411 H 0.22459 0.12427 0.85556 0.0
H1412 H 0.2183 0.10658 0.83862 0.0
H1413 H 0.27976 0.1733 0.82723 0.0
H1414 H 0.3008 0.16244 0.83005 0.0
H1415 H 0.28759 0.16661 0.84922 0.0
C1416 C 0.92155 0.2253 0.87205 0.0
C1417 C 0.92131 0.20645 0.87252 0.0
C1418 C 0.9367 0.23649 0.86516 0.0
C1419 C 0.95207 0.22863 0.85879 0.0
C1420 C 0.95181 0.20956 0.85908 0.0
C1421 C 0.93638 0.19867 0.86594 0.0
C1422 C 0.93642 0.25676 0.86501 0.0
C1423 C 0.96801 0.20072 0.85255 0.0
C1424 C 0.98463 0.25886 0.82972 0.0
C1425 C 0.99849 0.26664 0.84272 0.0
C1426 C 0.96971 0.24592 0.8346 0.0
C1427 C 0.96884 0.24055 0.85284 0.0
C1428 C 0.98339 0.24764 0.86578 0.0
C1429 C 0.99797 0.26066 0.86058 0.0
C1430 C 0.95441 0.23871 0.82045 0.0
C1431 C 0.98313 0.24207 0.88531 0.0
H1432 H 0.90988 0.23126 0.8772 0.0
H1433 H 0.93619 0.18408 0.86633 0.0
H1434 H 0.94824 0.2636 0.87404 0.0
H1435 H 0.93847 0.26198 0.85121 0.0
H1436 H 0.92296 0.26061 0.86954 0.0
H1437 H 0.96521 0.18567 0.85286 0.0
H1438 H 0.97079 0.20488 0.83854 0.0
H1439 H 0.98106 0.20531 0.86114 0.0
H1440 H 0.98494 0.26348 0.81591 0.0
H1441 H 1.00876 0.2665 0.87065 0.0
H1442 H 0.94101 0.24378 0.82342 0.0
H1443 H 0.9518 0.22367 0.82073 0.0
H1444 H 0.95802 0.24294 0.80663 0.0
H1445 H 0.97101 0.247 0.89152 0.0
H1446 H 0.99632 0.24763 0.89331 0.0
H1447 H 0.98122 0.22707 0.88627 0.0
C1448 C 0.83422 0.90746 0.85699 0.0
C1449 C 0.82147 0.8936 0.86386 0.0
C1450 C 0.8278 0.92196 0.84739 0.0
C1451 C 0.80812 0.92262 0.84447 0.0
C1452 C 0.7952 0.9084 0.85094 0.0
C1453 C 0.80201 0.89413 0.86057 0.0
C1454 C 0.84207 0.93686 0.84082 0.0
C1455 C 0.77412 0.90843 0.84802 0.0
C1456 C 0.79018 0.96825 0.83729 0.0
C1457 C 0.78623 0.96826 0.81851 0.0
C1458 C 0.79756 0.95365 0.84582 0.0
C1459 C 0.80101 0.93854 0.83538 0.0
C1460 C 0.7972 0.93851 0.81639 0.0
C1461 C 0.78993 0.95337 0.80818 0.0
C1462 C 0.80149 0.95433 0.86607 0.0
C1463 C 0.80058 0.92266 0.80476 0.0
H1464 H 0.84927 0.90726 0.85959 0.0
H1465 H 0.79205 0.88335 0.86558 0.0
H1466 H 0.83936 0.93882 0.82613 0.0
H1467 H 0.84065 0.94986 0.84773 0.0
H1468 H 0.85682 0.93393 0.84337 0.0
H1469 H 0.76595 0.89597 0.85313 0.0
H1470 H 0.76994 0.92038 0.85501 0.0
H1471 H 0.77013 0.9096 0.83342 0.0
H1472 H 0.78747 0.97968 0.84542 0.0
H1473 H 0.78691 0.9532 0.79367 0.0
H1474 H 0.81647 0.95267 0.86953 0.0
H1475 H 0.79262 0.94294 0.87227 0.0
H1476 H 0.79859 0.96727 0.8722 0.0
H1477 H 0.81554 0.92023 0.80675 0.0
H1478 H 0.79731 0.92486 0.79017 0.0
H1479 H 0.79169 0.91016 0.80885 0.0
C1480 C 0.21481 0.1118 0.22562 0.0
C1481 C 0.20239 0.12072 0.23527 0.0
C1482 C 0.22234 0.09654 0.2327 0.0
C1483 C 0.21734 0.08996 0.24987 0.0
C1484 C 0.20572 0.09964 0.26011 0.0
C1485 C 0.19839 0.11486 0.25269 0.0
C1486 C 0.23469 0.0868 0.22129 0.0
C1487 C 0.20007 0.09327 0.2785 0.0
C1488 C 0.21212 0.03929 0.25902 0.0
C1489 C 0.22789 0.03766 0.27083 0.0
C1490 C 0.20907 0.05602 0.25153 0.0
C1491 C 0.222 0.07178 0.25606 0.0
C1492 C 0.23851 0.07009 0.26729 0.0
C1493 C 0.2413 0.05301 0.27452 0.0
C1494 C 0.19137 0.05697 0.23953 0.0
C1495 C 0.25272 0.08647 0.27237 0.0
H1496 H 0.21802 0.11628 0.21216 0.0
H1497 H 0.18883 0.12172 0.2602 0.0
H1498 H 0.24724 0.08347 0.22949 0.0
H1499 H 0.22663 0.07381 0.21609 0.0
H1500 H 0.23953 0.09498 0.20959 0.0
H1501 H 0.19277 0.1033 0.28555 0.0
H1502 H 0.19042 0.08029 0.27702 0.0
H1503 H 0.21267 0.09068 0.28708 0.0
H1504 H 0.20165 0.02749 0.2562 0.0
H1505 H 0.25332 0.05194 0.28392 0.0
H1506 H 0.19499 0.06369 0.22668 0.0
H1507 H 0.18198 0.06525 0.24631 0.0
H1508 H 0.1834 0.04334 0.23634 0.0
H1509 H 0.25737 0.09366 0.26005 0.0
H1510 H 0.26533 0.08281 0.28028 0.0
H1511 H 0.24603 0.09614 0.28051 0.0
C1512 C 0.21036 0.93348 0.8376 0.0
C1513 C 0.19165 0.92857 0.84208 0.0
C1514 C 0.21576 0.94985 0.82886 0.0
C1515 C 0.20214 0.96164 0.82467 0.0
C1516 C 0.18331 0.9569 0.82948 0.0
C1517 C 0.17828 0.94039 0.83808 0.0
C1518 C 0.23596 0.95441 0.82386 0.0
C1519 C 0.16846 0.96921 0.82543 0.0
C1520 C 0.22062 0.01086 0.81619 0.0
C1521 C 0.21952 0.01133 0.79726 0.0
C1522 C 0.21469 0.99487 0.8253 0.0
C1523 C 0.20761 0.97891 0.81521 0.0
C1524 C 0.20609 0.97937 0.7961 0.0
C1525 C 0.21199 0.99563 0.78734 0.0
C1526 C 0.21629 0.99498 0.84569 0.0
C1527 C 0.1987 0.96259 0.78489 0.0
H1528 H 0.22067 0.92428 0.84051 0.0
H1529 H 0.16385 0.93671 0.84172 0.0
H1530 H 0.23634 0.95594 0.80902 0.0
H1531 H 0.2423 0.96757 0.83019 0.0
H1532 H 0.24484 0.94385 0.82817 0.0
H1533 H 0.15454 0.96368 0.83038 0.0
H1534 H 0.17303 0.98276 0.8318 0.0
H1535 H 0.16666 0.9712 0.81065 0.0
H1536 H 0.22621 0.02305 0.82388 0.0
H1537 H 0.21134 0.99588 0.77273 0.0
H1538 H 0.22621 0.98552 0.85054 0.0
H1539 H 0.20236 0.99014 0.85094 0.0
H1540 H 0.22141 0.00869 0.85152 0.0
H1541 H 0.20802 0.95197 0.7875 0.0
H1542 H 0.19794 0.96534 0.77019 0.0
H1543 H 0.1844 0.95699 0.7888 0.0
C1544 C 0.15652 0.2504 0.9002 0.0
C1545 C 0.17031 0.24632 0.88868 0.0
C1546 C 0.14154 0.25975 0.89399 0.0
C1547 C 0.14012 0.26519 0.87574 0.0
C1548 C 0.15392 0.26107 0.864 0.0
C1549 C 0.1688 0.25175 0.87059 0.0
C1550 C 0.12719 0.2638 0.90699 0.0
C1551 C 0.15301 0.26659 0.84447 0.0
C1552 C 0.09208 0.27532 0.85572 0.0
C1553 C 0.09404 0.29438 0.8567 0.0
C1554 C 0.10693 0.26569 0.86173 0.0
C1555 C 0.12427 0.27526 0.86899 0.0
C1556 C 0.12639 0.29447 0.86999 0.0
C1557 C 0.11133 0.30376 0.86384 0.0
C1558 C 0.10401 0.24523 0.8604 0.0
C1559 C 0.14459 0.30526 0.87759 0.0
H1560 H 0.15728 0.24606 0.9141 0.0
H1561 H 0.17943 0.24892 0.86158 0.0
H1562 H 0.12687 0.27866 0.9079 0.0
H1563 H 0.11287 0.25747 0.90197 0.0
H1564 H 0.13029 0.25875 0.92076 0.0
H1565 H 0.16466 0.2622 0.83701 0.0
H1566 H 0.13933 0.26061 0.83763 0.0
H1567 H 0.15376 0.28155 0.84362 0.0
H1568 H 0.0788 0.26784 0.85048 0.0
H1569 H 0.11324 0.31843 0.86446 0.0
H1570 H 0.10561 0.23944 0.87406 0.0
H1571 H 0.11493 0.24047 0.85226 0.0
H1572 H 0.08984 0.23979 0.85415 0.0
H1573 H 0.14771 0.30124 0.89172 0.0
H1574 H 0.14405 0.32012 0.87742 0.0
H1575 H 0.15651 0.30226 0.8697 0.0
C1576 C 0.8237 0.14064 0.84951 0.0
C1577 C 0.84186 0.14423 0.85808 0.0
C1578 C 0.81796 0.12436 0.83979 0.0
C1579 C 0.83063 0.11134 0.83881 0.0
C1580 C 0.84888 0.11479 0.84768 0.0
C1581 C 0.85431 0.13125 0.85714 0.0
C1582 C 0.79844 0.12122 0.83035 0.0
C1583 C 0.86269 0.10113 0.84712 0.0
C1584 C 0.80976 0.06285 0.82647 0.0
C1585 C 0.81331 0.06187 0.80815 0.0
C1586 C 0.81553 0.0788 0.8367 0.0
C1587 C 0.82487 0.09419 0.82831 0.0
C1588 C 0.82861 0.09325 0.80984 0.0
C1589 C 0.82287 0.07705 0.80001 0.0
C1590 C 0.81152 0.07923 0.85643 0.0
C1591 C 0.83837 0.10944 0.80039 0.0
H1592 H 0.81412 0.15074 0.85011 0.0
H1593 H 0.86828 0.13393 0.86395 0.0
H1594 H 0.79954 0.11935 0.81562 0.0
H1595 H 0.79043 0.10861 0.83527 0.0
H1596 H 0.79027 0.13266 0.83252 0.0
H1597 H 0.87617 0.10573 0.8551 0.0
H1598 H 0.85634 0.08798 0.85247 0.0
H1599 H 0.86587 0.09864 0.83295 0.0
H1600 H 0.80254 0.05106 0.83282 0.0
H1601 H 0.82538 0.07642 0.78579 0.0
H1602 H 0.80227 0.08971 0.85889 0.0
H1603 H 0.82489 0.083 0.86482 0.0
H1604 H 0.80455 0.06595 0.861 0.0
H1605 H 0.82996 0.12092 0.80102 0.0
H1606 H 0.84034 0.10642 0.786 0.0
H1607 H 0.85241 0.114 0.80734 0.0
C1608 C 0.89758 0.82946 0.87066 0.0
C1609 C 0.88105 0.82781 0.85919 0.0
C1610 C 0.91424 0.82343 0.86509 0.0
C1611 C 0.9143 0.81521 0.84777 0.0
C1612 C 0.89763 0.81356 0.83615 0.0
C1613 C 0.88127 0.81981 0.84201 0.0
C1614 C 0.93166 0.82553 0.87789 0.0
C1615 C 0.89692 0.80477 0.81766 0.0
C1616 C 0.96058 0.81108 0.82587 0.0
C1617 C 0.96311 0.79297 0.82931 0.0
C1618 C 0.94505 0.8186 0.83211 0.0
C1619 C 0.93152 0.80776 0.84193 0.0
C1620 C 0.93407 0.78952 0.84558 0.0
C1621 C 0.94981 0.7824 0.83931 0.0
C1622 C 0.94304 0.83813 0.82805 0.0
C1623 C 0.91993 0.77738 0.85582 0.0
H1624 H 0.8974 0.83522 0.8841 0.0
H1625 H 0.86844 0.81811 0.83323 0.0
H1626 H 0.93535 0.81196 0.88161 0.0
H1627 H 0.94385 0.83278 0.8712 0.0
H1628 H 0.92968 0.83309 0.89046 0.0
H1629 H 0.88306 0.80496 0.81006 0.0
H1630 H 0.90817 0.81183 0.80964 0.0
H1631 H 0.8996 0.79046 0.81898 0.0
H1632 H 0.97087 0.81946 0.81841 0.0
H1633 H 0.95144 0.76837 0.84188 0.0
H1634 H 0.94195 0.84575 0.84077 0.0
H1635 H 0.92983 0.83881 0.81955 0.0
H1636 H 0.95513 0.84498 0.82089 0.0
H1637 H 0.91824 0.78362 0.86914 0.0
H1638 H 0.92419 0.76369 0.85801 0.0
H1639 H 0.90591 0.77581 0.84825 0.0
C1640 C 0.80453 0.94851 0.23781 0.0
C1641 C 0.82167 0.94285 0.24414 0.0
C1642 C 0.79903 0.96485 0.24403 0.0
C1643 C 0.81101 0.97596 0.25682 0.0
C1644 C 0.82876 0.97072 0.26259 0.0
C1645 C 0.83387 0.95425 0.25617 0.0
C1646 C 0.78003 0.96984 0.23744 0.0
C1647 C 0.84205 0.98216 0.27606 0.0
C1648 C 0.79949 0.02433 0.26367 0.0
C1649 C 0.78844 0.02242 0.27872 0.0
C1650 C 0.80748 0.00955 0.25675 0.0
C1651 C 0.80432 0.99235 0.26499 0.0
C1652 C 0.79381 0.99055 0.28059 0.0
C1653 C 0.78607 1.00554 0.28725 0.0
C1654 C 0.8187 0.01217 0.2402 0.0
C1655 C 0.79006 0.97254 0.28987 0.0
H1656 H 0.79511 0.93981 0.22843 0.0
H1657 H 0.84717 0.94996 0.26102 0.0
H1658 H 0.77075 0.96966 0.24888 0.0
H1659 H 0.78166 0.98381 0.23208 0.0
H1660 H 0.77289 0.96038 0.2267 0.0
H1661 H 0.85595 0.97709 0.27797 0.0
H1662 H 0.84437 0.99644 0.2716 0.0
H1663 H 0.83566 0.98214 0.2893 0.0
H1664 H 0.80141 0.03724 0.2569 0.0
H1665 H 0.77759 1.0038 0.29886 0.0
H1666 H 0.81092 1.00425 0.22868 0.0
H1667 H 0.83248 1.007 0.24256 0.0
H1668 H 0.82132 0.02664 0.23633 0.0
H1669 H 0.7814 0.96252 0.28056 0.0
H1670 H 0.78249 0.97357 0.30238 0.0
H1671 H 0.80355 0.96719 0.29339 0.0
C1672 C 0.11396 0.81432 0.21302 0.0
C1673 C 0.11689 0.81646 0.1946 0.0
C1674 C 0.09617 0.80766 0.21883 0.0
C1675 C 0.08107 0.80213 0.20587 0.0
C1676 C 0.08437 0.80246 0.18726 0.0
C1677 C 0.10219 0.80993 0.1818 0.0
C1678 C 0.0933 0.80771 0.23885 0.0
C1679 C 0.0689 0.79584 0.17306 0.0
C1680 C 0.03945 0.77914 0.22966 0.0
C1681 C 0.02947 0.79382 0.23238 0.0
C1682 C 0.05525 0.78102 0.21918 0.0
C1683 C 0.0616 0.79818 0.21203 0.0
C1684 C 0.05071 0.81262 0.21364 0.0
C1685 C 0.03456 0.81014 0.22355 0.0
C1686 C 0.06588 0.76502 0.2169 0.0
C1687 C 0.05711 0.83125 0.2065 0.0
H1688 H 0.12543 0.81862 0.22302 0.0
H1689 H 0.10427 0.81138 0.16752 0.0
H1690 H 0.08279 0.81688 0.24179 0.0
H1691 H 0.08764 0.79393 0.24317 0.0
H1692 H 0.1066 0.81229 0.24713 0.0
H1693 H 0.07477 0.79248 0.16013 0.0
H1694 H 0.05983 0.78368 0.17766 0.0
H1695 H 0.0598 0.80662 0.17042 0.0
H1696 H 0.03537 0.76641 0.23629 0.0
H1697 H 0.02688 0.82153 0.22565 0.0
H1698 H 0.07824 0.76615 0.22685 0.0
H1699 H 0.07124 0.76471 0.2032 0.0
H1700 H 0.05685 0.75198 0.21914 0.0
H1701 H 0.0703 0.83726 0.21421 0.0
H1702 H 0.04633 0.84059 0.20766 0.0
H1703 H 0.06032 0.83033 0.19213 0.0
C1704 C 0.90191 0.25767 0.21418 0.0
C1705 C 0.89737 0.24034 0.20627 0.0
C1706 C 0.91823 0.26193 0.22579 0.0
C1707 C 0.9304 0.24862 0.22925 0.0
C1708 C 0.92633 0.23142 0.2205 0.0
C1709 C 0.90975 0.22742 0.20926 0.0
C1710 C 0.92188 0.2803 0.2351 0.0
C1711 C 0.93909 0.21696 0.22357 0.0
C1712 C 0.97945 0.26184 0.25245 0.0
C1713 C 0.9765 0.25594 0.27007 0.0
C1714 C 0.96454 0.25973 0.23896 0.0
C1715 C 0.94626 0.25193 0.24338 0.0
C1716 C 0.94315 0.24654 0.26132 0.0
C1717 C 0.95834 0.24843 0.27437 0.0
C1718 C 0.96843 0.26534 0.21992 0.0
C1719 C 0.92381 0.23852 0.2667 0.0
H1720 H 0.89225 0.26761 0.21193 0.0
H1721 H 0.90629 0.21407 0.20298 0.0
H1722 H 0.92017 0.27868 0.24979 0.0
H1723 H 0.93661 0.28665 0.23355 0.0
H1724 H 0.91206 0.28966 0.22975 0.0
H1725 H 0.93507 0.2051 0.21427 0.0
H1726 H 0.95399 0.22261 0.22173 0.0
H1727 H 0.93839 0.21216 0.23766 0.0
H1728 H 0.9935 0.26761 0.2491 0.0
H1729 H 0.95594 0.24408 0.28804 0.0
H1730 H 0.9587 0.27495 0.21506 0.0
H1731 H 0.96579 0.25326 0.21077 0.0
H1732 H 0.98322 0.27184 0.21884 0.0
H1733 H 0.91327 0.24772 0.26284 0.0
H1734 H 0.92354 0.23609 0.28144 0.0
H1735 H 0.91929 0.22543 0.25941 0.0
C1736 C 0.20408 0.70875 0.65602 0.0
C1737 C 0.19698 0.71962 0.66891 0.0
C1738 C 0.21397 0.71642 0.6415 0.0
C1739 C 0.21667 0.73549 0.63946 0.0
C1740 C 0.20907 0.74654 0.65205 0.0
C1741 C 0.19945 0.73852 0.66661 0.0
C1742 C 0.22185 0.70408 0.62852 0.0
C1743 C 0.21142 0.76692 0.65033 0.0
C1744 C 0.25797 0.75823 0.61386 0.0
C1745 C 0.24917 0.76167 0.59701 0.0
C1746 C 0.24769 0.74935 0.62755 0.0
C1747 C 0.22796 0.74393 0.62453 0.0
C1748 C 0.21906 0.74694 0.6074 0.0
C1749 C 0.22976 0.75564 0.59384 0.0
C1750 C 0.25789 0.74615 0.64544 0.0
C1751 C 0.19808 0.74157 0.60359 0.0
H1752 H 0.20196 0.69413 0.65728 0.0
H1753 H 0.19429 0.74716 0.67647 0.0
H1754 H 0.21632 0.70625 0.61451 0.0
H1755 H 0.23746 0.7074 0.62887 0.0
H1756 H 0.21828 0.68952 0.63174 0.0
H1757 H 0.20379 0.77354 0.66055 0.0
H1758 H 0.22663 0.77243 0.65198 0.0
H1759 H 0.20613 0.77064 0.63667 0.0
H1760 H 0.27293 0.76281 0.6165 0.0
H1761 H 0.22272 0.75836 0.58098 0.0
H1762 H 0.25522 0.73159 0.64892 0.0
H1763 H 0.2524 0.75396 0.65628 0.0
H1764 H 0.27339 0.75026 0.64535 0.0
H1765 H 0.19413 0.72697 0.60638 0.0
H1766 H 0.19339 0.74412 0.58939 0.0
H1767 H 0.19026 0.74934 0.61269 0.0
C1768 C 0.83217 0.77657 0.60502 0.0
C1769 C 0.82324 0.768 0.61952 0.0
C1770 C 0.82197 0.77885 0.58857 0.0
C1771 C 0.80241 0.77236 0.58665 0.0
C1772 C 0.79336 0.76364 0.60129 0.0
C1773 C 0.80393 0.76145 0.61752 0.0
C1774 C 0.83214 0.78807 0.57323 0.0
C1775 C 0.77252 0.75654 0.59977 0.0
C1776 C 0.77079 0.79102 0.55027 0.0
C1777 C 0.76824 0.77691 0.53732 0.0
C1778 C 0.7822 0.78991 0.56623 0.0
C1779 C 0.79139 0.77437 0.56925 0.0
C1780 C 0.7894 0.76037 0.55595 0.0
C1781 C 0.77781 0.76178 0.54018 0.0
C1782 C 0.78392 0.80508 0.58013 0.0
C1783 C 0.7991 0.74366 0.55859 0.0
H1784 H 0.84717 0.78142 0.60656 0.0
H1785 H 0.7971 0.75462 0.62869 0.0
H1786 H 0.83097 0.77868 0.56139 0.0
H1787 H 0.82543 0.8001 0.56896 0.0
H1788 H 0.84734 0.7925 0.57698 0.0
H1789 H 0.76756 0.75044 0.61253 0.0
H1790 H 0.7642 0.76771 0.59615 0.0
H1791 H 0.76952 0.74611 0.58882 0.0
H1792 H 0.76341 0.80274 0.5482 0.0
H1793 H 0.77599 0.75084 0.53021 0.0
H1794 H 0.79902 0.81015 0.58362 0.0
H1795 H 0.77769 0.7999 0.59272 0.0
H1796 H 0.77665 0.81663 0.57536 0.0
H1797 H 0.81449 0.74759 0.56166 0.0
H1798 H 0.79701 0.73451 0.54651 0.0
H1799 H 0.79352 0.73598 0.5703 0.0
C1800 C 0.8436 0.36469 0.70048 0.0
C1801 C 0.84809 0.38367 0.70174 0.0
C1802 C 0.83267 0.35621 0.68551 0.0
C1803 C 0.82594 0.3669 0.6714 0.0
C1804 C 0.83074 0.38601 0.67241 0.0
C1805 C 0.84175 0.39411 0.68746 0.0
C1806 C 0.82797 0.33581 0.685 0.0
C1807 C 0.82391 0.39797 0.65772 0.0
C1808 C 0.80839 0.34499 0.62547 0.0
C1809 C 0.78867 0.34247 0.62664 0.0
C1810 C 0.82068 0.35274 0.63992 0.0
C1811 C 0.81318 0.35823 0.656 0.0
C1812 C 0.79333 0.35571 0.6573 0.0
C1813 C 0.7814 0.34785 0.64271 0.0
C1814 C 0.84173 0.35513 0.63795 0.0
C1815 C 0.78466 0.36135 0.67413 0.0
H1816 H 0.84822 0.35645 0.71144 0.0
H1817 H 0.84541 0.40874 0.68803 0.0
H1818 H 0.81249 0.33198 0.68548 0.0
H1819 H 0.83213 0.33022 0.67217 0.0
H1820 H 0.83515 0.32935 0.69646 0.0
H1821 H 0.82937 0.41253 0.66019 0.0
H1822 H 0.82838 0.39375 0.64445 0.0
H1823 H 0.80824 0.39641 0.65679 0.0
H1824 H 0.81426 0.34109 0.61316 0.0
H1825 H 0.76631 0.34574 0.64408 0.0
H1826 H 0.84885 0.34804 0.64897 0.0
H1827 H 0.84748 0.36973 0.63916 0.0
H1828 H 0.84539 0.3498 0.62478 0.0
H1829 H 0.79007 0.35412 0.68598 0.0
H1830 H 0.76898 0.35847 0.67306 0.0
H1831 H 0.78878 0.3761 0.67679 0.0
C1832 C 0.16901 0.34498 0.61581 0.0
C1833 C 0.15481 0.34301 0.62804 0.0
C1834 C 0.17079 0.33101 0.6035 0.0
C1835 C 0.15817 0.31461 0.60363 0.0
C1836 C 0.14348 0.31275 0.61566 0.0
C1837 C 0.14205 0.32697 0.62784 0.0
C1838 C 0.18669 0.3335 0.59092 0.0
C1839 C 0.12981 0.29548 0.6162 0.0
C1840 C 0.16016 0.28454 0.56252 0.0
C1841 C 0.17397 0.2739 0.56864 0.0
C1842 C 0.15384 0.29713 0.57413 0.0
C1843 C 0.16154 0.29902 0.59221 0.0
C1844 C 0.17434 0.28726 0.59878 0.0
C1845 C 0.18038 0.27484 0.58689 0.0
C1846 C 0.14007 0.30933 0.56668 0.0
C1847 C 0.18276 0.28871 0.61801 0.0
H1848 H 0.17906 0.35728 0.61624 0.0
H1849 H 0.1313 0.32538 0.63759 0.0
H1850 H 0.19685 0.32382 0.59437 0.0
H1851 H 0.1811 0.33052 0.57676 0.0
H1852 H 0.19446 0.34748 0.5917 0.0
H1853 H 0.11798 0.29694 0.62487 0.0
H1854 H 0.12388 0.29132 0.60238 0.0
H1855 H 0.13738 0.28436 0.62155 0.0
H1856 H 0.15528 0.28395 0.54838 0.0
H1857 H 0.1909 0.26645 0.59163 0.0
H1858 H 0.14765 0.32317 0.56499 0.0
H1859 H 0.12891 0.31046 0.57619 0.0
H1860 H 0.13327 0.30436 0.55337 0.0
H1861 H 0.19252 0.30159 0.61991 0.0
H1862 H 0.19078 0.27727 0.62152 0.0
H1863 H 0.17153 0.28901 0.62761 0.0
C1864 C 0.22297 0.36104 0.43045 0.0
C1865 C 0.20747 0.35414 0.4188 0.0
C1866 C 0.22684 0.35253 0.44682 0.0
C1867 C 0.21476 0.3369 0.45164 0.0
C1868 C 0.19881 0.33015 0.44007 0.0
C1869 C 0.19532 0.33892 0.42379 0.0
C1870 C 0.24392 0.36013 0.45886 0.0
C1871 C 0.18556 0.31356 0.4448 0.0
C1872 C 0.23283 0.30301 0.484 0.0
C1873 C 0.22462 0.30705 0.49997 0.0
C1874 C 0.23015 0.31296 0.4683 0.0
C1875 C 0.21897 0.32727 0.46857 0.0
C1876 C 0.21113 0.33181 0.48478 0.0
C1877 C 0.21407 0.32164 0.50032 0.0
C1878 C 0.2388 0.30778 0.45127 0.0
C1879 C 0.19916 0.34702 0.48557 0.0
H1880 H 0.23214 0.37303 0.42667 0.0
H1881 H 0.18315 0.33384 0.41485 0.0
H1882 H 0.23957 0.36333 0.47248 0.0
H1883 H 0.25376 0.34984 0.46056 0.0
H1884 H 0.25164 0.37262 0.45333 0.0
H1885 H 0.17359 0.31031 0.4345 0.0
H1886 H 0.19339 0.30167 0.44605 0.0
H1887 H 0.17976 0.31568 0.45806 0.0
H1888 H 0.24107 0.2918 0.48363 0.0
H1889 H 0.2077 0.32486 0.5126 0.0
H1890 H 0.24738 0.3198 0.44582 0.0
H1891 H 0.22745 0.30293 0.4408 0.0
H1892 H 0.24794 0.29694 0.45357 0.0
H1893 H 0.20689 0.35974 0.48057 0.0
H1894 H 0.19505 0.34953 0.49946 0.0
H1895 H 0.18612 0.34366 0.47661 0.0
C1896 C 0.20815 0.72914 0.41594 0.0
C1897 C 0.18884 0.72423 0.41109 0.0
C1898 C 0.21427 0.73843 0.43238 0.0
C1899 C 0.20077 0.74299 0.44426 0.0
C1900 C 0.18132 0.73746 0.43973 0.0
C1901 C 0.17564 0.7281 0.42334 0.0
C1902 C 0.23515 0.74389 0.43675 0.0
C1903 C 0.16641 0.74196 0.45192 0.0
C1904 C 0.21508 0.75681 0.49352 0.0
C1905 C 0.21672 0.77586 0.49297 0.0
C1906 C 0.21027 0.74598 0.4778 0.0
C1907 C 0.2068 0.75428 0.46101 0.0
C1908 C 0.20837 0.77346 0.46034 0.0
C1909 C 0.21336 0.78397 0.47622 0.0
C1910 C 0.20882 0.7256 0.47916 0.0
C1911 C 0.20471 0.78293 0.44279 0.0
H1912 H 0.21848 0.72631 0.4066 0.0
H1913 H 0.1607 0.72404 0.41996 0.0
H1914 H 0.23844 0.7589 0.43679 0.0
H1915 H 0.23926 0.73931 0.45046 0.0
H1916 H 0.24388 0.73816 0.42686 0.0
H1917 H 0.15194 0.73605 0.44684 0.0
H1918 H 0.16922 0.73687 0.46571 0.0
H1919 H 0.1669 0.75691 0.45308 0.0
H1920 H 0.21741 0.75028 0.50629 0.0
H1921 H 0.21486 0.79859 0.47537 0.0
H1922 H 0.21822 0.72026 0.46968 0.0
H1923 H 0.19417 0.71933 0.47521 0.0
H1924 H 0.2127 0.72123 0.49303 0.0
H1925 H 0.21437 0.77921 0.43267 0.0
H1926 H 0.20667 0.79794 0.44445 0.0
H1927 H 0.19005 0.77844 0.43723 0.0
C1928 C 0.81596 0.6882 0.40091 0.0
C1929 C 0.80846 0.67993 0.38449 0.0
C1930 C 0.80414 0.69403 0.41351 0.0
C1931 C 0.78433 0.69156 0.40959 0.0
C1932 C 0.77664 0.68296 0.39316 0.0
C1933 C 0.7888 0.67722 0.38082 0.0
C1934 C 0.81287 0.70302 0.43093 0.0
C1935 C 0.75559 0.68015 0.38848 0.0
C1936 C 0.75327 0.69421 0.44899 0.0
C1937 C 0.74943 0.71221 0.44806 0.0
C1938 C 0.76437 0.6872 0.43639 0.0
C1939 C 0.77174 0.69844 0.4225 0.0
C1940 C 0.76759 0.7165 0.42127 0.0
C1941 C 0.75651 0.72316 0.43407 0.0
C1942 C 0.76856 0.6679 0.43818 0.0
C1943 C 0.77507 0.72887 0.40657 0.0
H1944 H 0.83112 0.69008 0.40393 0.0
H1945 H 0.78295 0.67099 0.36807 0.0
H1946 H 0.80944 0.71711 0.43176 0.0
H1947 H 0.80688 0.69565 0.44264 0.0
H1948 H 0.82848 0.70346 0.43215 0.0
H1949 H 0.75184 0.67271 0.37543 0.0
H1950 H 0.74818 0.67244 0.39927 0.0
H1951 H 0.75025 0.69347 0.38763 0.0
H1952 H 0.74803 0.68574 0.45986 0.0
H1953 H 0.75334 0.73697 0.43311 0.0
H1954 H 0.78399 0.66782 0.44081 0.0
H1955 H 0.76429 0.66021 0.42538 0.0
H1956 H 0.76115 0.66071 0.4493 0.0
H1957 H 0.79075 0.73092 0.40781 0.0
H1958 H 0.77002 0.74234 0.40713 0.0
H1959 H 0.77068 0.72253 0.39311 0.0
C1960 C 0.81152 0.33051 0.45018 0.0
C1961 C 0.83068 0.33339 0.44638 0.0
C1962 C 0.80577 0.32296 0.46662 0.0
C1963 C 0.81945 0.31801 0.47965 0.0
C1964 C 0.83877 0.32073 0.47588 0.0
C1965 C 0.84414 0.32845 0.4594 0.0
C1966 C 0.785 0.32032 0.47007 0.0
C1967 C 0.85381 0.31553 0.48929 0.0
C1968 C 0.80566 0.31455 0.52851 0.0
C1969 C 0.79974 0.29587 0.53008 0.0
C1970 C 0.81244 0.32186 0.51235 0.0
C1971 C 0.81352 0.31024 0.49732 0.0
C1972 C 0.80829 0.29129 0.49903 0.0
C1973 C 0.80145 0.28436 0.51532 0.0
C1974 C 0.81773 0.34214 0.51113 0.0
C1975 C 0.80934 0.27838 0.48343 0.0
H1976 H 0.80092 0.33394 0.44019 0.0
H1977 H 0.859 0.33082 0.45682 0.0
H1978 H 0.78012 0.30576 0.47229 0.0
H1979 H 0.78267 0.32786 0.48252 0.0
H1980 H 0.77614 0.32503 0.45868 0.0
H1981 H 0.86816 0.31802 0.48413 0.0
H1982 H 0.85385 0.3234 0.50207 0.0
H1983 H 0.85068 0.30095 0.49258 0.0
H1984 H 0.80435 0.32363 0.53973 0.0
H1985 H 0.79687 0.26992 0.51628 0.0
H1986 H 0.8081 0.34761 0.50088 0.0
H1987 H 0.83229 0.34533 0.50667 0.0
H1988 H 0.81692 0.34925 0.52423 0.0
H1989 H 0.79915 0.28111 0.47221 0.0
H1990 H 0.80607 0.26395 0.48729 0.0
H1991 H 0.82365 0.2805 0.47821 0.0
C1992 C 0.14693 0.71824 0.73484 0.0
C1993 C 0.14767 0.71747 0.71596 0.0
C1994 C 0.13129 0.72365 0.74298 0.0
C1995 C 0.11589 0.7286 0.73206 0.0
C1996 C 0.11676 0.72843 0.713 0.0
C1997 C 0.13259 0.72287 0.70519 0.0
C1998 C 0.13109 0.72367 0.76332 0.0
C1999 C 0.10074 0.73372 0.70083 0.0
C2000 C 0.0681 0.72409 0.75308 0.0
C2001 C 0.06701 0.74198 0.75879 0.0
C2002 C 0.08371 0.71965 0.74414 0.0
C2003 C 0.09871 0.73339 0.74065 0.0
C2004 C 0.09761 0.7515 0.74611 0.0
C2005 C 0.08187 0.75556 0.75512 0.0
C2006 C 0.08427 0.70014 0.73862 0.0
C2007 C 0.11323 0.7666 0.7427 0.0
H2008 H 0.15862 0.71448 0.74335 0.0
H2009 H 0.13289 0.72223 0.69062 0.0
H2010 H 0.129 0.73729 0.7684 0.0
H2011 H 0.11908 0.71391 0.76748 0.0
H2012 H 0.14438 0.71994 0.76994 0.0
H2013 H 0.10397 0.73385 0.68638 0.0
H2014 H 0.08777 0.72403 0.7024 0.0
H2015 H 0.09759 0.74737 0.70476 0.0
H2016 H 0.05669 0.71349 0.75551 0.0
H2017 H 0.08144 0.76937 0.7596 0.0
H2018 H 0.09667 0.6951 0.74562 0.0
H2019 H 0.08593 0.69916 0.72389 0.0
H2020 H 0.0713 0.69112 0.74186 0.0
H2021 H 0.12651 0.76406 0.7502 0.0
H2022 H 0.10985 0.7801 0.74692 0.0
H2023 H 0.11593 0.76695 0.72814 0.0
C2024 C 0.85027 0.68527 0.67925 0.0
C2025 C 0.84111 0.70057 0.676 0.0
C2026 C 0.84099 0.66972 0.68711 0.0
C2027 C 0.82219 0.6696 0.69209 0.0
C2028 C 0.81277 0.68492 0.68856 0.0
C2029 C 0.82231 0.70018 0.68045 0.0
C2030 C 0.85142 0.65356 0.69038 0.0
C2031 C 0.79281 0.68541 0.69387 0.0
C2032 C 0.7918 0.62497 0.7011 0.0
C2033 C 0.79369 0.62426 0.71999 0.0
C2034 C 0.80125 0.63947 0.69178 0.0
C2035 C 0.81263 0.65375 0.70164 0.0
C2036 C 0.81464 0.65306 0.72073 0.0
C2037 C 0.80526 0.63827 0.72965 0.0
C2038 C 0.79899 0.63957 0.67142 0.0
C2039 C 0.82643 0.66812 0.73176 0.0
H2040 H 0.86476 0.68549 0.67568 0.0
H2041 H 0.81526 0.71207 0.67812 0.0
H2042 H 0.85328 0.65125 0.7051 0.0
H2043 H 0.84305 0.64115 0.68422 0.0
H2044 H 0.86556 0.65542 0.68476 0.0
H2045 H 0.7873 0.69813 0.68972 0.0
H2046 H 0.78327 0.67372 0.68765 0.0
H2047 H 0.79233 0.6842 0.70874 0.0
H2048 H 0.78299 0.61408 0.6936 0.0
H2049 H 0.80652 0.63791 0.74427 0.0
H2050 H 0.81306 0.6407 0.6657 0.0
H2051 H 0.79235 0.65157 0.66692 0.0
H2052 H 0.79018 0.62714 0.66574 0.0
H2053 H 0.84118 0.66985 0.72763 0.0
H2054 H 0.82662 0.66548 0.74649 0.0
H2055 H 0.82079 0.68113 0.72923 0.0
C2056 C 0.89975 0.36724 0.75421 0.0
C2057 C 0.90083 0.38598 0.75126 0.0
C2058 C 0.91465 0.3598 0.76353 0.0
C2059 C 0.93113 0.37131 0.77007 0.0
C2060 C 0.93244 0.39019 0.76685 0.0
C2061 C 0.91734 0.39726 0.75754 0.0
C2062 C 0.91258 0.33962 0.76668 0.0
C2063 C 0.94975 0.40298 0.77343 0.0
C2064 C 0.96165 0.35599 0.80972 0.0
C2065 C 0.97673 0.35004 0.80113 0.0
C2066 C 0.94673 0.36278 0.7998 0.0
C2067 C 0.94678 0.36374 0.78073 0.0
C2068 C 0.96191 0.35772 0.77194 0.0
C2069 C 0.97663 0.35093 0.78221 0.0
C2070 C 0.93089 0.36893 0.80976 0.0
C2071 C 0.96262 0.35857 0.75167 0.0
H2072 H 0.88704 0.35839 0.74961 0.0
H2073 H 0.91851 0.41171 0.75511 0.0
H2074 H 0.9246 0.33377 0.76127 0.0
H2075 H 0.91292 0.33703 0.78139 0.0
H2076 H 0.89919 0.33242 0.76024 0.0
H2077 H 0.94885 0.41722 0.76941 0.0
H2078 H 0.95162 0.40259 0.78838 0.0
H2079 H 0.96255 0.39863 0.76798 0.0
H2080 H 0.96133 0.35513 0.82425 0.0
H2081 H 0.98825 0.34659 0.7754 0.0
H2082 H 0.91718 0.36118 0.80477 0.0
H2083 H 0.93004 0.38348 0.80712 0.0
H2084 H 0.93279 0.36713 0.82458 0.0
H2085 H 0.9497 0.35072 0.74505 0.0
H2086 H 0.97518 0.35314 0.74684 0.0
H2087 H 0.96296 0.37283 0.74728 0.0
C2088 C 0.19727 0.40972 0.69535 0.0
C2089 C 0.19124 0.39481 0.706 0.0
C2090 C 0.20986 0.42448 0.70263 0.0
C2091 C 0.21648 0.42437 0.72102 0.0
C2092 C 0.21098 0.40908 0.73165 0.0
C2093 C 0.1985 0.39447 0.72399 0.0
C2094 C 0.2155 0.4405 0.69085 0.0
C2095 C 0.2177 0.40842 0.75132 0.0
C2096 C 0.25809 0.45744 0.7407 0.0
C2097 C 0.24881 0.47028 0.74927 0.0
C2098 C 0.24779 0.44272 0.73086 0.0
C2099 C 0.22778 0.44078 0.72966 0.0
C2100 C 0.21839 0.45403 0.73776 0.0
C2101 C 0.229 0.46862 0.7474 0.0
C2102 C 0.25828 0.42893 0.72224 0.0
C2103 C 0.19707 0.45246 0.73684 0.0
H2104 H 0.19165 0.41014 0.68146 0.0
H2105 H 0.19424 0.38283 0.7322 0.0
H2106 H 0.20917 0.4524 0.69553 0.0
H2107 H 0.23107 0.44428 0.69193 0.0
H2108 H 0.21078 0.4377 0.67643 0.0
H2109 H 0.21304 0.3951 0.75741 0.0
H2110 H 0.23335 0.41113 0.75286 0.0
H2111 H 0.21215 0.41916 0.75905 0.0
H2112 H 0.27338 0.45865 0.74201 0.0
H2113 H 0.22166 0.4785 0.75387 0.0
H2114 H 0.25324 0.42663 0.70786 0.0
H2115 H 0.25543 0.41575 0.72913 0.0
H2116 H 0.2738 0.43321 0.72302 0.0
H2117 H 0.19132 0.45105 0.72258 0.0
H2118 H 0.19198 0.46439 0.74307 0.0
H2119 H 0.19123 0.44009 0.74394 0.0
C2120 C 0.12661 0.36997 0.36339 0.0
C2121 C 0.14272 0.37656 0.35443 0.0
C2122 C 0.1117 0.35843 0.35454 0.0
C2123 C 0.11301 0.35321 0.33631 0.0
C2124 C 0.12858 0.36098 0.32679 0.0
C2125 C 0.14328 0.37264 0.33598 0.0
C2126 C 0.09527 0.35067 0.36517 0.0
C2127 C 0.13048 0.35585 0.30734 0.0
C2128 C 0.09041 0.30487 0.32681 0.0
C2129 C 0.07276 0.30727 0.31856 0.0
C2130 C 0.10397 0.31974 0.33172 0.0
C2131 C 0.09978 0.33755 0.32844 0.0
C2132 C 0.08236 0.34008 0.31928 0.0
C2133 C 0.06903 0.32486 0.31437 0.0
C2134 C 0.12246 0.31636 0.34125 0.0
C2135 C 0.0774 0.35884 0.31552 0.0
H2136 H 0.12609 0.37319 0.37762 0.0
H2137 H 0.15576 0.37771 0.32904 0.0
H2138 H 0.08167 0.35141 0.35733 0.0
H2139 H 0.0962 0.33615 0.36785 0.0
H2140 H 0.0951 0.35789 0.37832 0.0
H2141 H 0.14137 0.36537 0.301 0.0
H2142 H 0.13463 0.34201 0.30668 0.0
H2143 H 0.11681 0.35558 0.29934 0.0
H2144 H 0.09349 0.29129 0.32987 0.0
H2145 H 0.0554 0.32679 0.30799 0.0
H2146 H 0.12323 0.3215 0.3554 0.0
H2147 H 0.13453 0.32379 0.33456 0.0
H2148 H 0.12412 0.30171 0.34148 0.0
H2149 H 0.07451 0.36538 0.32836 0.0
H2150 H 0.06471 0.35851 0.30601 0.0
H2151 H 0.0894 0.36746 0.30981 0.0
C2152 C 0.23064 0.66601 0.3384 0.0
C2153 C 0.21151 0.66656 0.34118 0.0
C2154 C 0.23693 0.6503 0.33157 0.0
C2155 C 0.22378 0.63462 0.32724 0.0
C2156 C 0.20435 0.63517 0.32972 0.0
C2157 C 0.19844 0.65115 0.33652 0.0
C2158 C 0.25775 0.65046 0.32914 0.0
C2159 C 0.18985 0.61882 0.32534 0.0
C2160 C 0.2423 0.59898 0.29785 0.0
C2161 C 0.24944 0.58786 0.31106 0.0
C2162 C 0.23304 0.6138 0.30278 0.0
C2163 C 0.23073 0.61743 0.3213 0.0
C2164 C 0.23683 0.60544 0.33447 0.0
C2165 C 0.24615 0.59096 0.32921 0.0
C2166 C 0.22679 0.62619 0.28827 0.0
C2167 C 0.23453 0.6085 0.35431 0.0
H2168 H 0.24077 0.67798 0.34152 0.0
H2169 H 0.18357 0.65163 0.33816 0.0
H2170 H 0.26341 0.64025 0.33802 0.0
H2171 H 0.25993 0.64667 0.31501 0.0
H2172 H 0.26604 0.66394 0.33238 0.0
H2173 H 0.17524 0.62158 0.3274 0.0
H2174 H 0.19055 0.61441 0.3111 0.0
H2175 H 0.19296 0.60734 0.33399 0.0
H2176 H 0.24494 0.59679 0.28383 0.0
H2177 H 0.25154 0.58237 0.33951 0.0
H2178 H 0.23615 0.63937 0.28929 0.0
H2179 H 0.21219 0.62902 0.29012 0.0
H2180 H 0.22734 0.62036 0.27451 0.0
H2181 H 0.24382 0.62098 0.35915 0.0
H2182 H 0.23821 0.59697 0.36264 0.0
H2183 H 0.21977 0.61056 0.35654 0.0
C2184 C 0.90047 0.69241 0.33225 0.0
C2185 C 0.89821 0.69939 0.34946 0.0
C2186 C 0.91496 0.7003 0.32179 0.0
C2187 C 0.9275 0.71542 0.32881 0.0
C2188 C 0.92534 0.7224 0.34628 0.0
C2189 C 0.91066 0.71431 0.35638 0.0
C2190 C 0.91675 0.69257 0.30319 0.0
C2191 C 0.93851 0.73846 0.35427 0.0
C2192 C 0.97572 0.72822 0.31052 0.0
C2193 C 0.97283 0.74355 0.30035 0.0
C2194 C 0.9609 0.71852 0.31938 0.0
C2195 C 0.94276 0.7242 0.31789 0.0
C2196 C 0.93953 0.73909 0.3069 0.0
C2197 C 0.95463 0.74863 0.29831 0.0
C2198 C 0.96488 0.70273 0.33103 0.0
C2199 C 0.92032 0.74541 0.3048 0.0
H2200 H 0.89079 0.68082 0.32698 0.0
H2201 H 0.90889 0.71967 0.36971 0.0
H2202 H 0.91529 0.70314 0.29291 0.0
H2203 H 0.93097 0.68837 0.30227 0.0
H2204 H 0.90593 0.68069 0.29978 0.0
H2205 H 0.93513 0.74198 0.36817 0.0
H2206 H 0.95333 0.73551 0.35467 0.0
H2207 H 0.93765 0.75047 0.34564 0.0
H2208 H 0.98974 0.72421 0.31216 0.0
H2209 H 0.95225 0.76038 0.29036 0.0
H2210 H 0.95446 0.69061 0.32745 0.0
H2211 H 0.96341 0.70617 0.34541 0.0
H2212 H 0.97932 0.69917 0.32967 0.0
H2213 H 0.90932 0.73386 0.3008 0.0
H2214 H 0.91977 0.75619 0.29457 0.0
H2215 H 0.91669 0.75082 0.31793 0.0
C2216 C 0.81975 0.3927 0.40631 0.0
C2217 C 0.82336 0.37786 0.39588 0.0
C2218 C 0.81065 0.40674 0.39856 0.0
C2219 C 0.80473 0.40586 0.37993 0.0
C2220 C 0.80827 0.39086 0.36935 0.0
C2221 C 0.81763 0.37715 0.3774 0.0
C2222 C 0.80742 0.42256 0.41032 0.0
C2223 C 0.80201 0.3892 0.34952 0.0
C2224 C 0.76549 0.43327 0.36365 0.0
C2225 C 0.77559 0.4482 0.35551 0.0
C2226 C 0.77475 0.41941 0.37154 0.0
C2227 C 0.79469 0.42053 0.37155 0.0
C2228 C 0.80499 0.43564 0.36346 0.0
C2229 C 0.79533 0.44919 0.35546 0.0
C2230 C 0.76315 0.40346 0.37974 0.0
C2231 C 0.82625 0.43757 0.36337 0.0
H2232 H 0.82431 0.39349 0.42055 0.0
H2233 H 0.82018 0.36565 0.36927 0.0
H2234 H 0.81418 0.43543 0.40472 0.0
H2235 H 0.79207 0.42343 0.41042 0.0
H2236 H 0.81318 0.42142 0.42446 0.0
H2237 H 0.80573 0.37668 0.34317 0.0
H2238 H 0.78648 0.38909 0.34773 0.0
H2239 H 0.80865 0.40112 0.34224 0.0
H2240 H 0.75024 0.43224 0.36357 0.0
H2241 H 0.80328 0.46075 0.3494 0.0
H2242 H 0.76763 0.40248 0.39425 0.0
H2243 H 0.76556 0.39067 0.373 0.0
H2244 H 0.74777 0.4045 0.37853 0.0
H2245 H 0.83256 0.43755 0.37742 0.0
H2246 H 0.83222 0.45024 0.3568 0.0
H2247 H 0.83055 0.42582 0.35613 0.0
C2248 C 0.21116 0.64331 0.73052 0.0
C2249 C 0.1924 0.64197 0.72333 0.0
C2250 C 0.21733 0.62956 0.74145 0.0
C2251 C 0.20453 0.61392 0.745 0.0
C2252 C 0.18553 0.61262 0.73789 0.0
C2253 C 0.17974 0.62661 0.72714 0.0
C2254 C 0.23767 0.63153 0.74879 0.0
C2255 C 0.17145 0.59615 0.74116 0.0
C2256 C 0.22395 0.56957 0.75536 0.0
C2257 C 0.22255 0.56825 0.7741 0.0
C2258 C 0.21832 0.58441 0.74581 0.0
C2259 C 0.21119 0.59843 0.7552 0.0
C2260 C 0.20992 0.5973 0.77415 0.0
C2261 C 0.21552 0.5822 0.78335 0.0
C2262 C 0.21974 0.58492 0.72559 0.0
C2263 C 0.20259 0.61203 0.7847 0.0
H2264 H 0.22109 0.65499 0.72732 0.0
H2265 H 0.16532 0.62533 0.72135 0.0
H2266 H 0.23842 0.62951 0.7636 0.0
H2267 H 0.24494 0.62094 0.74266 0.0
H2268 H 0.24546 0.64505 0.74595 0.0
H2269 H 0.15701 0.59759 0.73542 0.0
H2270 H 0.17601 0.58395 0.73498 0.0
H2271 H 0.17084 0.59374 0.75586 0.0
H2272 H 0.22911 0.55878 0.74805 0.0
H2273 H 0.21461 0.58141 0.79785 0.0
H2274 H 0.22862 0.59755 0.72185 0.0
H2275 H 0.2055 0.58503 0.71877 0.0
H2276 H 0.22589 0.57312 0.72035 0.0
H2277 H 0.21111 0.62532 0.78245 0.0
H2278 H 0.20299 0.60942 0.79943 0.0
H2279 H 0.1878 0.61315 0.77986 0.0
C2280 C 0.20137 0.4302 0.34666 0.0
C2281 C 0.19699 0.42728 0.36463 0.0
C2282 C 0.21344 0.44567 0.34193 0.0
C2283 C 0.22127 0.45849 0.35551 0.0
C2284 C 0.21639 0.45591 0.37357 0.0
C2285 C 0.20427 0.44036 0.3779 0.0
C2286 C 0.21826 0.44803 0.32249 0.0
C2287 C 0.22434 0.46932 0.3884 0.0
C2288 C 0.26714 0.48785 0.34602 0.0
C2289 C 0.26061 0.50389 0.34011 0.0
C2290 C 0.25452 0.47306 0.3514 0.0
C2291 C 0.23492 0.47439 0.35087 0.0
C2292 C 0.22833 0.49077 0.34554 0.0
C2293 C 0.24126 0.50532 0.34026 0.0
C2294 C 0.26208 0.45581 0.3571 0.0
C2295 C 0.20757 0.49278 0.34494 0.0
H2296 H 0.19592 0.42006 0.33639 0.0
H2297 H 0.20071 0.43828 0.39178 0.0
H2298 H 0.21503 0.46141 0.31761 0.0
H2299 H 0.23362 0.44778 0.32144 0.0
H2300 H 0.21038 0.43724 0.31345 0.0
H2301 H 0.21853 0.46569 0.40162 0.0
H2302 H 0.23994 0.46991 0.38988 0.0
H2303 H 0.22122 0.48313 0.38487 0.0
H2304 H 0.28203 0.48658 0.34576 0.0
H2305 H 0.23619 0.51779 0.33594 0.0
H2306 H 0.25628 0.44461 0.34753 0.0
H2307 H 0.25744 0.45182 0.37065 0.0
H2308 H 0.27775 0.45724 0.35752 0.0
H2309 H 0.19962 0.48298 0.33494 0.0
H2310 H 0.20485 0.50668 0.34121 0.0
H2311 H 0.20186 0.48957 0.35827 0.0
C2312 C 0.12681 0.72365 0.36648 0.0
C2313 C 0.14305 0.72244 0.35714 0.0
C2314 C 0.1118 0.73204 0.35881 0.0
C2315 C 0.11313 0.73971 0.34145 0.0
C2316 C 0.12928 0.73807 0.33172 0.0
C2317 C 0.144 0.72932 0.33963 0.0
C2318 C 0.09474 0.73316 0.36955 0.0
C2319 C 0.13137 0.74621 0.31327 0.0
C2320 C 0.06772 0.7516 0.31741 0.0
C2321 C 0.06835 0.76997 0.32226 0.0
C2322 C 0.08232 0.74163 0.32327 0.0
C2323 C 0.09809 0.75029 0.33403 0.0
C2324 C 0.09903 0.76898 0.33851 0.0
C2325 C 0.08411 0.77852 0.33271 0.0
C2326 C 0.08059 0.7217 0.31841 0.0
C2327 C 0.11568 0.77883 0.34972 0.0
H2328 H 0.12599 0.71822 0.37997 0.0
H2329 H 0.1566 0.72854 0.33244 0.0
H2330 H 0.09388 0.74754 0.37309 0.0
H2331 H 0.08161 0.72795 0.36133 0.0
H2332 H 0.09524 0.72534 0.38223 0.0
H2333 H 0.14418 0.7428 0.307 0.0
H2334 H 0.11878 0.74138 0.30415 0.0
H2335 H 0.13229 0.7612 0.3144 0.0
H2336 H 0.05549 0.74486 0.30951 0.0
H2337 H 0.08479 0.79275 0.33629 0.0
H2338 H 0.07967 0.71358 0.33088 0.0
H2339 H 0.09333 0.71872 0.31179 0.0
H2340 H 0.06792 0.71718 0.30924 0.0
H2341 H 0.11638 0.77298 0.36341 0.0
H2342 H 0.11483 0.79359 0.35112 0.0
H2343 H 0.12905 0.77706 0.34352 0.0
C2344 C 0.84028 0.6245 0.33634 0.0
C2345 C 0.82536 0.63428 0.33987 0.0
C2346 C 0.83681 0.60711 0.32835 0.0
C2347 C 0.81797 0.59912 0.32413 0.0
C2348 C 0.80286 0.60901 0.32732 0.0
C2349 C 0.80674 0.62651 0.33501 0.0
C2350 C 0.85329 0.59709 0.32487 0.0
C2351 C 0.78252 0.60087 0.32319 0.0
C2352 C 0.80405 0.5581 0.29304 0.0
C2353 C 0.80011 0.54429 0.30557 0.0
C2354 C 0.81096 0.57592 0.29883 0.0
C2355 C 0.81383 0.57999 0.31756 0.0
C2356 C 0.8111 0.56587 0.33018 0.0
C2357 C 0.80442 0.54819 0.32402 0.0
C2358 C 0.81404 0.59057 0.28495 0.0
C2359 C 0.81396 0.56964 0.35028 0.0
H2360 H 0.85471 0.63022 0.34025 0.0
H2361 H 0.79514 0.63405 0.33732 0.0
H2362 H 0.85323 0.58529 0.33393 0.0
H2363 H 0.85201 0.59175 0.31077 0.0
H2364 H 0.86708 0.60588 0.32718 0.0
H2365 H 0.77252 0.61089 0.32488 0.0
H2366 H 0.78047 0.59536 0.30917 0.0
H2367 H 0.7789 0.58938 0.33234 0.0
H2368 H 0.80084 0.55523 0.27874 0.0
H2369 H 0.80158 0.5376 0.33382 0.0
H2370 H 0.82766 0.59937 0.2881 0.0
H2371 H 0.80263 0.59931 0.28525 0.0
H2372 H 0.81397 0.58485 0.27107 0.0
H2373 H 0.82807 0.57745 0.35369 0.0
H2374 H 0.81268 0.55699 0.35822 0.0
H2375 H 0.80324 0.57805 0.35452 0.0
C2376 C 0.89112 0.29883 0.38052 0.0
C2377 C 0.88788 0.3169 0.37823 0.0
C2378 C 0.90781 0.29284 0.37514 0.0
C2379 C 0.92168 0.30521 0.36728 0.0
C2380 C 0.91862 0.32356 0.36523 0.0
C2381 C 0.90174 0.32916 0.37067 0.0
C2382 C 0.91042 0.27317 0.37757 0.0
C2383 C 0.93303 0.33722 0.35701 0.0
C2384 C 0.97165 0.29244 0.36678 0.0
C2385 C 0.97202 0.28572 0.34907 0.0
C2386 C 0.95551 0.29901 0.37281 0.0
C2387 C 0.93919 0.2988 0.3609 0.0
C2388 C 0.93948 0.29211 0.34298 0.0
C2389 C 0.95585 0.28571 0.33729 0.0
C2390 C 0.95591 0.30612 0.39196 0.0
C2391 C 0.92239 0.2915 0.32986 0.0
H2392 H 0.88041 0.28926 0.38624 0.0
H2393 H 0.8992 0.34309 0.36876 0.0
H2394 H 0.91162 0.26673 0.36422 0.0
H2395 H 0.92373 0.27216 0.38578 0.0
H2396 H 0.89852 0.26537 0.38425 0.0
H2397 H 0.92888 0.35109 0.35697 0.0
H2398 H 0.94696 0.33763 0.36458 0.0
H2399 H 0.93484 0.33309 0.34289 0.0
H2400 H 0.98411 0.29278 0.37593 0.0
H2401 H 0.95586 0.28037 0.32367 0.0
H2402 H 0.94478 0.29799 0.39934 0.0
H2403 H 0.95278 0.32034 0.39195 0.0
H2404 H 0.96978 0.30568 0.39945 0.0
H2405 H 0.91024 0.28278 0.3352 0.0
H2406 H 0.92495 0.28616 0.31633 0.0
H2407 H 0.91828 0.3053 0.32829 0.0
C2408 C 0.8231 0.45638 0.75686 0.0
C2409 C 0.84112 0.45252 0.7628 0.0
C2410 C 0.81731 0.47331 0.76059 0.0
C2411 C 0.82989 0.48683 0.77037 0.0
C2412 C 0.84836 0.48321 0.77582 0.0
C2413 C 0.85375 0.46611 0.77196 0.0
C2414 C 0.79749 0.47653 0.75454 0.0
C2415 C 0.86227 0.49722 0.78615 0.0
C2416 C 0.81738 0.53519 0.76808 0.0
C2417 C 0.80781 0.53647 0.7839 0.0
C2418 C 0.82516 0.51937 0.76377 0.0
C2419 C 0.82334 0.50439 0.77552 0.0
C2420 C 0.81429 0.50585 0.79182 0.0
C2421 C 0.8067 0.52182 0.79581 0.0
C2422 C 0.83472 0.51844 0.74629 0.0
C2423 C 0.81215 0.49031 0.80483 0.0
H2424 H 0.81333 0.44595 0.74969 0.0
H2425 H 0.86771 0.46316 0.77648 0.0
H2426 H 0.78945 0.47865 0.76651 0.0
H2427 H 0.7979 0.48901 0.74639 0.0
H2428 H 0.78973 0.46498 0.74637 0.0
H2429 H 0.87644 0.49277 0.78839 0.0
H2430 H 0.86376 0.51021 0.77879 0.0
H2431 H 0.85692 0.49997 0.79948 0.0
H2432 H 0.81832 0.54636 0.75873 0.0
H2433 H 0.79933 0.52258 0.80806 0.0
H2434 H 0.82633 0.50811 0.73711 0.0
H2435 H 0.84892 0.51416 0.74884 0.0
H2436 H 0.83629 0.53166 0.73929 0.0
H2437 H 0.80444 0.47798 0.79789 0.0
H2438 H 0.80442 0.49342 0.81675 0.0
H2439 H 0.82629 0.48702 0.80961 0.0
C2440 C 0.13692 0.34741 0.73228 0.0
C2441 C 0.13314 0.35054 0.71389 0.0
C2442 C 0.12227 0.34159 0.74343 0.0
C2443 C 0.10337 0.33884 0.736 0.0
C2444 C 0.09951 0.34125 0.71729 0.0
C2445 C 0.11446 0.3471 0.70645 0.0
C2446 C 0.12698 0.33909 0.76331 0.0
C2447 C 0.07954 0.33843 0.70889 0.0
C2448 C 0.06756 0.31415 0.76606 0.0
C2449 C 0.06136 0.32878 0.77492 0.0
C2450 C 0.08069 0.31714 0.75272 0.0
C2451 C 0.08766 0.33515 0.74819 0.0
C2452 C 0.08064 0.3499 0.75641 0.0
C2453 C 0.0676 0.34653 0.76967 0.0
C2454 C 0.0878 0.30108 0.74415 0.0
C2455 C 0.08759 0.36931 0.75184 0.0
H2456 H 0.15138 0.34972 0.73802 0.0
H2457 H 0.11143 0.34961 0.69226 0.0
H2458 H 0.12097 0.34936 0.77131 0.0
H2459 H 0.12054 0.32551 0.76756 0.0
H2460 H 0.14246 0.3405 0.7667 0.0
H2461 H 0.07911 0.33889 0.69391 0.0
H2462 H 0.07204 0.3252 0.71292 0.0
H2463 H 0.07167 0.34917 0.71385 0.0
H2464 H 0.06277 0.3004 0.77005 0.0
H2465 H 0.06271 0.3579 0.77633 0.0
H2466 H 0.10279 0.30078 0.74884 0.0
H2467 H 0.08726 0.30232 0.72924 0.0
H2468 H 0.07949 0.28801 0.74761 0.0
H2469 H 0.10278 0.37256 0.75627 0.0
H2470 H 0.07968 0.37915 0.75845 0.0
H2471 H 0.08626 0.3712 0.73702 0.0
C2472 C 0.89943 0.76664 0.68686 0.0
C2473 C 0.89708 0.74871 0.68024 0.0
C2474 C 0.91518 0.77336 0.6984 0.0
C2475 C 0.92891 0.76189 0.70327 0.0
C2476 C 0.92727 0.74424 0.69549 0.0
C2477 C 0.9113 0.73782 0.68417 0.0
C2478 C 0.91633 0.7922 0.70646 0.0
C2479 C 0.94172 0.73165 0.70012 0.0
C2480 C 0.97528 0.77863 0.73009 0.0
C2481 C 0.9711 0.77242 0.74735 0.0
C2482 C 0.96149 0.7759 0.71555 0.0
C2483 C 0.94317 0.76704 0.71855 0.0
C2484 C 0.9387 0.76174 0.73621 0.0
C2485 C 0.95274 0.76437 0.75032 0.0
C2486 C 0.96679 0.78165 0.6969 0.0
C2487 C 0.91926 0.75255 0.74011 0.0
H2488 H 0.8884 0.77506 0.68388 0.0
H2489 H 0.90961 0.72403 0.67885 0.0
H2490 H 0.91274 0.79122 0.72079 0.0
H2491 H 0.93089 0.79949 0.70627 0.0
H2492 H 0.90642 0.80036 0.69918 0.0
H2493 H 0.93981 0.71945 0.69111 0.0
H2494 H 0.95624 0.73881 0.69917 0.0
H2495 H 0.94044 0.72712 0.71426 0.0
H2496 H 0.9895 0.78481 0.72778 0.0
H2497 H 0.94942 0.75977 0.76373 0.0
H2498 H 0.95591 0.78918 0.69031 0.0
H2499 H 0.96745 0.76942 0.68841 0.0
H2500 H 0.98072 0.7903 0.69717 0.0
H2501 H 0.90827 0.76066 0.73476 0.0
H2502 H 0.91769 0.75059 0.75479 0.0
H2503 H 0.91652 0.73906 0.73323 0.0
C2504 C 0.70666 0.23065 0.68267 0.0
C2505 C 0.70386 0.21159 0.68329 0.0
C2506 C 0.71605 0.23983 0.66858 0.0
C2507 C 0.72312 0.2298 0.65479 0.0
C2508 C 0.72024 0.2106 0.65523 0.0
C2509 C 0.71054 0.20178 0.6693 0.0
C2510 C 0.7186 0.26031 0.66857 0.0
C2511 C 0.72762 0.19934 0.64093 0.0
C2512 C 0.73445 0.25348 0.61042 0.0
C2513 C 0.75393 0.25931 0.61319 0.0
C2514 C 0.72429 0.24374 0.62371 0.0
C2515 C 0.73384 0.23942 0.64012 0.0
C2516 C 0.75363 0.24465 0.64268 0.0
C2517 C 0.76337 0.25462 0.6293 0.0
C2518 C 0.7032 0.23863 0.62045 0.0
C2519 C 0.76447 0.24006 0.65977 0.0
H2520 H 0.70184 0.23847 0.69341 0.0
H2521 H 0.70816 0.18708 0.66926 0.0
H2522 H 0.73387 0.26562 0.66991 0.0
H2523 H 0.7128 0.26517 0.65554 0.0
H2524 H 0.71153 0.26612 0.67974 0.0
H2525 H 0.72428 0.18454 0.64318 0.0
H2526 H 0.72147 0.20245 0.62739 0.0
H2527 H 0.74318 0.20282 0.64076 0.0
H2528 H 0.72695 0.25716 0.59813 0.0
H2529 H 0.7784 0.25902 0.6316 0.0
H2530 H 0.69583 0.24556 0.63064 0.0
H2531 H 0.69931 0.22382 0.62207 0.0
H2532 H 0.69796 0.24239 0.60677 0.0
H2533 H 0.7595 0.24698 0.67151 0.0
H2534 H 0.77994 0.24418 0.65929 0.0
H2535 H 0.76185 0.22524 0.66213 0.0
C2536 C 0.31051 0.2588 0.65238 0.0
C2537 C 0.32431 0.27255 0.65953 0.0
C2538 C 0.30098 0.26069 0.63557 0.0
C2539 C 0.30532 0.27679 0.62574 0.0
C2540 C 0.31879 0.29102 0.6332 0.0
C2541 C 0.3283 0.28865 0.64999 0.0
C2542 C 0.28683 0.24514 0.628 0.0
C2543 C 0.3236 0.30846 0.62321 0.0
C2544 C 0.29559 0.27088 0.57511 0.0
C2545 C 0.27747 0.27602 0.57268 0.0
C2546 C 0.30517 0.27176 0.59225 0.0
C2547 C 0.29649 0.27816 0.60723 0.0
C2548 C 0.27868 0.28438 0.60466 0.0
C2549 C 0.26932 0.28313 0.58742 0.0
C2550 C 0.32411 0.2649 0.59448 0.0
C2551 C 0.26914 0.29158 0.62026 0.0
H2552 H 0.30767 0.24629 0.65974 0.0
H2553 H 0.33914 0.2992 0.65547 0.0
H2554 H 0.27304 0.24993 0.62446 0.0
H2555 H 0.29182 0.23981 0.61541 0.0
H2556 H 0.28458 0.23383 0.63766 0.0
H2557 H 0.33304 0.3188 0.63159 0.0
H2558 H 0.33074 0.30569 0.61084 0.0
H2559 H 0.31052 0.31418 0.61886 0.0
H2560 H 0.30198 0.26537 0.56379 0.0
H2561 H 0.25537 0.28729 0.58559 0.0
H2562 H 0.32284 0.2525 0.60279 0.0
H2563 H 0.33468 0.27517 0.6017 0.0
H2564 H 0.32952 0.26156 0.58131 0.0
H2565 H 0.26484 0.28035 0.62952 0.0
H2566 H 0.25638 0.29776 0.61569 0.0
H2567 H 0.27909 0.3019 0.62815 0.0
C2568 C 0.33495 0.8624 0.68432 0.0
C2569 C 0.33985 0.88129 0.6863 0.0
C2570 C 0.32408 0.85465 0.66898 0.0
C2571 C 0.3179 0.86599 0.65517 0.0
C2572 C 0.32306 0.88502 0.65694 0.0
C2573 C 0.33393 0.8924 0.6724 0.0
C2574 C 0.31892 0.8343 0.6677 0.0
C2575 C 0.31689 0.89766 0.64258 0.0
C2576 C 0.30191 0.84563 0.60826 0.0
C2577 C 0.28212 0.84329 0.60867 0.0
C2578 C 0.3137 0.85291 0.62324 0.0
C2579 C 0.3056 0.85804 0.63913 0.0
C2580 C 0.28565 0.85575 0.63964 0.0
C2581 C 0.27421 0.84844 0.62448 0.0
C2582 C 0.33486 0.85515 0.62204 0.0
C2583 C 0.27635 0.86098 0.65626 0.0
H2584 H 0.33924 0.85366 0.69499 0.0
H2585 H 0.33788 0.90697 0.67355 0.0
H2586 H 0.30334 0.83077 0.6674 0.0
H2587 H 0.3236 0.82904 0.65494 0.0
H2588 H 0.32536 0.8273 0.67921 0.0
H2589 H 0.32244 0.91209 0.64573 0.0
H2590 H 0.32179 0.89393 0.62933 0.0
H2591 H 0.30123 0.89629 0.64115 0.0
H2592 H 0.30824 0.84191 0.59613 0.0
H2593 H 0.25902 0.84647 0.6252 0.0
H2594 H 0.34141 0.84745 0.63294 0.0
H2595 H 0.34079 0.86964 0.62407 0.0
H2596 H 0.33899 0.85038 0.60883 0.0
H2597 H 0.28112 0.85325 0.66802 0.0
H2598 H 0.26068 0.85837 0.65455 0.0
H2599 H 0.28063 0.8756 0.65951 0.0
C2600 C 0.64395 0.81273 0.60879 0.0
C2601 C 0.65108 0.83121 0.60863 0.0
C2602 C 0.64902 0.80057 0.59596 0.0
C2603 C 0.66144 0.80713 0.58266 0.0
C2604 C 0.66883 0.82578 0.5826 0.0
C2605 C 0.66361 0.8376 0.59564 0.0
C2606 C 0.64097 0.78078 0.59653 0.0
C2607 C 0.68211 0.83329 0.56863 0.0
C2608 C 0.68865 0.77576 0.5572 0.0
C2609 C 0.67826 0.7738 0.54046 0.0
C2610 C 0.68298 0.78605 0.57131 0.0
C2611 C 0.66655 0.79463 0.56858 0.0
C2612 C 0.65559 0.79213 0.55196 0.0
C2613 C 0.66156 0.78171 0.53811 0.0
C2614 C 0.69494 0.78823 0.58891 0.0
C2615 C 0.63801 0.80112 0.54851 0.0
H2616 H 0.63433 0.80786 0.61894 0.0
H2617 H 0.66918 0.85188 0.5956 0.0
H2618 H 0.63243 0.77672 0.58379 0.0
H2619 H 0.65259 0.77226 0.59764 0.0
H2620 H 0.6319 0.77779 0.60805 0.0
H2621 H 0.68671 0.84809 0.57054 0.0
H2622 H 0.69483 0.8262 0.56925 0.0
H2623 H 0.67509 0.83085 0.5549 0.0
H2624 H 0.70143 0.76946 0.55916 0.0
H2625 H 0.65358 0.78043 0.52516 0.0
H2626 H 0.68605 0.78472 0.60042 0.0
H2627 H 0.70132 0.80261 0.59085 0.0
H2628 H 0.70649 0.7796 0.58933 0.0
H2629 H 0.62823 0.79786 0.5594 0.0
H2630 H 0.6304 0.79686 0.53533 0.0
H2631 H 0.64188 0.81608 0.54861 0.0
C2632 C 0.72057 0.87168 0.40405 0.0
C2633 C 0.70486 0.8671 0.39184 0.0
C2634 C 0.72432 0.8603 0.41849 0.0
C2635 C 0.71195 0.84408 0.42082 0.0
C2636 C 0.69595 0.83952 0.40859 0.0
C2637 C 0.69258 0.85112 0.39426 0.0
C2638 C 0.74147 0.86565 0.43127 0.0
C2639 C 0.68237 0.82241 0.41066 0.0
C2640 C 0.72855 0.80563 0.44842 0.0
C2641 C 0.72023 0.80776 0.4648 0.0
C2642 C 0.72631 0.81759 0.43411 0.0
C2643 C 0.71549 0.832 0.43622 0.0
C2644 C 0.70746 0.83448 0.45287 0.0
C2645 C 0.70994 0.82236 0.46695 0.0
C2646 C 0.73516 0.81455 0.41659 0.0
C2647 C 0.69584 0.84969 0.45566 0.0
H2648 H 0.72994 0.88415 0.40226 0.0
H2649 H 0.68034 0.84774 0.38488 0.0
H2650 H 0.73706 0.8672 0.4452 0.0
H2651 H 0.75074 0.85481 0.43151 0.0
H2652 H 0.74983 0.87857 0.42743 0.0
H2653 H 0.6707 0.82076 0.39991 0.0
H2654 H 0.69001 0.81039 0.41027 0.0
H2655 H 0.67615 0.82258 0.42398 0.0
H2656 H 0.73654 0.79441 0.44664 0.0
H2657 H 0.70348 0.82416 0.47955 0.0
H2658 H 0.74421 0.82708 0.41283 0.0
H2659 H 0.72394 0.81139 0.40558 0.0
H2660 H 0.74388 0.80324 0.4174 0.0
H2661 H 0.70411 0.86293 0.45273 0.0
H2662 H 0.69121 0.85022 0.46964 0.0
H2663 H 0.68312 0.84792 0.44613 0.0
C2664 C 0.69876 0.26086 0.4232 0.0
C2665 C 0.69441 0.24195 0.42119 0.0
C2666 C 0.70488 0.26901 0.44013 0.0
C2667 C 0.7063 0.25804 0.45557 0.0
C2668 C 0.70204 0.23892 0.45357 0.0
C2669 C 0.69634 0.23111 0.4364 0.0
C2670 C 0.7097 0.28939 0.4415 0.0
C2671 C 0.70305 0.22672 0.46967 0.0
C2672 C 0.73575 0.27703 0.49792 0.0
C2673 C 0.72197 0.28272 0.50849 0.0
C2674 C 0.73094 0.26923 0.48062 0.0
C2675 C 0.71177 0.2666 0.47384 0.0
C2676 C 0.69778 0.27223 0.48455 0.0
C2677 C 0.70309 0.28044 0.50162 0.0
C2678 C 0.7464 0.26396 0.46954 0.0
C2679 C 0.67717 0.26944 0.47804 0.0
H2680 H 0.69744 0.26929 0.41146 0.0
H2681 H 0.69284 0.2165 0.43495 0.0
H2682 H 0.69987 0.29507 0.45028 0.0
H2683 H 0.72419 0.29306 0.44783 0.0
H2684 H 0.70884 0.2959 0.4281 0.0
H2685 H 0.69942 0.21213 0.46588 0.0
H2686 H 0.71747 0.22885 0.47642 0.0
H2687 H 0.69317 0.23022 0.47969 0.0
H2688 H 0.75041 0.27905 0.50308 0.0
H2689 H 0.69243 0.28475 0.50981 0.0
H2690 H 0.74632 0.27116 0.45649 0.0
H2691 H 0.74385 0.2492 0.46636 0.0
H2692 H 0.76064 0.26723 0.4766 0.0
H2693 H 0.6751 0.27688 0.46533 0.0
H2694 H 0.66799 0.27416 0.48814 0.0
H2695 H 0.67249 0.25484 0.47501 0.0
C2696 C 0.29303 0.19405 0.41715 0.0
C2697 C 0.31151 0.18971 0.41823 0.0
C2698 C 0.28538 0.20109 0.43217 0.0
C2699 C 0.29646 0.20363 0.44872 0.0
C2700 C 0.31543 0.19995 0.44968 0.0
C2701 C 0.32279 0.1931 0.43433 0.0
C2702 C 0.26521 0.20513 0.43051 0.0
C2703 C 0.3276 0.20241 0.46713 0.0
C2704 C 0.27816 0.23286 0.48392 0.0
C2705 C 0.26761 0.21978 0.49409 0.0
C2706 C 0.28813 0.22781 0.46944 0.0
C2707 C 0.28771 0.2092 0.46513 0.0
C2708 C 0.27772 0.19589 0.47573 0.0
C2709 C 0.26772 0.20134 0.49004 0.0
C2710 C 0.2986 0.24239 0.45842 0.0
C2711 C 0.27705 0.17589 0.47158 0.0
H2712 H 0.28438 0.19149 0.40462 0.0
H2713 H 0.33704 0.18957 0.43513 0.0
H2714 H 0.25641 0.19578 0.43914 0.0
H2715 H 0.26448 0.21916 0.43533 0.0
H2716 H 0.25898 0.20358 0.41639 0.0
H2717 H 0.34248 0.20043 0.46525 0.0
H2718 H 0.32743 0.21616 0.47297 0.0
H2719 H 0.32182 0.19248 0.47711 0.0
H2720 H 0.2786 0.24713 0.48719 0.0
H2721 H 0.25956 0.19114 0.49771 0.0
H2722 H 0.29197 0.24196 0.44446 0.0
H2723 H 0.31347 0.23995 0.45745 0.0
H2724 H 0.29854 0.25619 0.46423 0.0
H2725 H 0.26935 0.17254 0.45827 0.0
H2726 H 0.26991 0.16727 0.48195 0.0
H2727 H 0.29157 0.1724 0.4707 0.0
C2728 C 0.30414 0.84402 0.43342 0.0
C2729 C 0.32325 0.84695 0.42949 0.0
C2730 C 0.29846 0.8358 0.44963 0.0
C2731 C 0.31218 0.83023 0.46228 0.0
C2732 C 0.33151 0.83351 0.45859 0.0
C2733 C 0.33679 0.84187 0.44238 0.0
C2734 C 0.27771 0.8327 0.45302 0.0
C2735 C 0.34663 0.82781 0.47162 0.0
C2736 C 0.29831 0.82084 0.51067 0.0
C2737 C 0.29306 0.80193 0.51022 0.0
C2738 C 0.30478 0.83019 0.49531 0.0
C2739 C 0.30625 0.82044 0.47906 0.0
C2740 C 0.30168 0.80129 0.47874 0.0
C2741 C 0.29511 0.79231 0.49424 0.0
C2742 C 0.3094 0.85059 0.49628 0.0
C2743 C 0.30322 0.79028 0.46184 0.0
H2744 H 0.29349 0.84766 0.42358 0.0
H2745 H 0.35163 0.84435 0.43976 0.0
H2746 H 0.27282 0.81792 0.45352 0.0
H2747 H 0.27534 0.83868 0.4663 0.0
H2748 H 0.2689 0.83868 0.44238 0.0
H2749 H 0.36107 0.83174 0.46704 0.0
H2750 H 0.34583 0.83402 0.48514 0.0
H2751 H 0.34429 0.81286 0.4732 0.0
H2752 H 0.29665 0.82849 0.52283 0.0
H2753 H 0.29109 0.77773 0.49365 0.0
H2754 H 0.29951 0.85677 0.48684 0.0
H2755 H 0.32388 0.85483 0.49198 0.0
H2756 H 0.3084 0.85612 0.51009 0.0
H2757 H 0.29321 0.7941 0.45095 0.0
H2758 H 0.30008 0.77545 0.46403 0.0
H2759 H 0.31766 0.79325 0.45701 0.0
C2760 C 0.65607 0.22405 0.73622 0.0
C2761 C 0.65414 0.20609 0.72968 0.0
C2762 C 0.64181 0.23041 0.74584 0.0
C2763 C 0.62499 0.21864 0.74872 0.0
C2764 C 0.62275 0.20066 0.74163 0.0
C2765 C 0.63738 0.19458 0.73239 0.0
C2766 C 0.64497 0.24956 0.75337 0.0
C2767 C 0.60496 0.18775 0.74401 0.0
C2768 C 0.59568 0.22728 0.78846 0.0
C2769 C 0.58123 0.23601 0.78021 0.0
C2770 C 0.61012 0.22187 0.77846 0.0
C2771 C 0.61 0.2249 0.7596 0.0
C2772 C 0.59537 0.23363 0.75118 0.0
C2773 C 0.58131 0.23922 0.7616 0.0
C2774 C 0.62558 0.21294 0.7881 0.0
C2775 C 0.59443 0.23683 0.7311 0.0
H2776 H 0.66905 0.23297 0.73433 0.0
H2777 H 0.63572 0.18073 0.72724 0.0
H2778 H 0.63332 0.25706 0.74839 0.0
H2779 H 0.64489 0.2493 0.76832 0.0
H2780 H 0.65859 0.25714 0.74964 0.0
H2781 H 0.60494 0.17458 0.73682 0.0
H2782 H 0.60346 0.18508 0.75858 0.0
H2783 H 0.5924 0.19393 0.73892 0.0
H2784 H 0.59587 0.22497 0.80287 0.0
H2785 H 0.5701 0.2458 0.7551 0.0
H2786 H 0.63958 0.22064 0.78578 0.0
H2787 H 0.62547 0.19901 0.78258 0.0
H2788 H 0.62403 0.2121 0.80288 0.0
H2789 H 0.60756 0.24522 0.72732 0.0
H2790 H 0.58216 0.24375 0.72658 0.0
H2791 H 0.59339 0.22368 0.72367 0.0
C2792 C 0.3449 0.19328 0.72379 0.0
C2793 C 0.34218 0.19993 0.70626 0.0
C2794 C 0.33497 0.1768 0.72902 0.0
C2795 C 0.32143 0.16694 0.71668 0.0
C2796 C 0.31824 0.17368 0.69913 0.0
C2797 C 0.32884 0.18992 0.69404 0.0
C2798 C 0.33907 0.16989 0.74776 0.0
C2799 C 0.30362 0.16374 0.68572 0.0
C2800 C 0.30826 0.11655 0.72456 0.0
C2801 C 0.29207 0.11639 0.73426 0.0
C2802 C 0.3179 0.1329 0.71865 0.0
C2803 C 0.31085 0.14942 0.72213 0.0
C2804 C 0.29413 0.14924 0.73143 0.0
C2805 C 0.28511 0.13273 0.73765 0.0
C2806 C 0.33597 0.13255 0.70926 0.0
C2807 C 0.28588 0.1665 0.73495 0.0
H2808 H 0.35474 0.20102 0.73356 0.0
H2809 H 0.32675 0.19463 0.68038 0.0
H2810 H 0.32617 0.16886 0.75542 0.0
H2811 H 0.34322 0.15606 0.74688 0.0
H2812 H 0.35055 0.17883 0.75549 0.0
H2813 H 0.30207 0.17132 0.67298 0.0
H2814 H 0.30758 0.15024 0.6824 0.0
H2815 H 0.2897 0.16142 0.69171 0.0
H2816 H 0.31375 0.1039 0.72219 0.0
H2817 H 0.27254 0.1325 0.7451 0.0
H2818 H 0.34788 0.1406 0.71727 0.0
H2819 H 0.33487 0.13889 0.69583 0.0
H2820 H 0.33941 0.11854 0.70741 0.0
H2821 H 0.2958 0.17565 0.7441 0.0
H2822 H 0.27209 0.16386 0.74119 0.0
H2823 H 0.28388 0.17379 0.72213 0.0
C2824 C 0.40932 0.8925 0.74187 0.0
C2825 C 0.39277 0.88139 0.73539 0.0
C2826 C 0.42434 0.88521 0.75105 0.0
C2827 C 0.42293 0.86627 0.75391 0.0
C2828 C 0.40649 0.8549 0.74702 0.0
C2829 C 0.39166 0.86257 0.73784 0.0
C2830 C 0.44161 0.89786 0.75801 0.0
C2831 C 0.40433 0.83466 0.74976 0.0
C2832 C 0.46829 0.846 0.76699 0.0
C2833 C 0.46789 0.84501 0.78588 0.0
C2834 C 0.45373 0.8527 0.7564 0.0
C2835 C 0.43829 0.85854 0.76483 0.0
C2836 C 0.43772 0.85742 0.78384 0.0
C2837 C 0.45245 0.85071 0.79408 0.0
C2838 C 0.45498 0.85371 0.7362 0.0
C2839 C 0.42153 0.86339 0.79343 0.0
H2840 H 0.41052 0.90701 0.7398 0.0
H2841 H 0.37892 0.85385 0.73304 0.0
H2842 H 0.44309 0.8974 0.77297 0.0
H2843 H 0.45452 0.89344 0.75286 0.0
H2844 H 0.44092 0.91213 0.75399 0.0
H2845 H 0.39117 0.82756 0.74278 0.0
H2846 H 0.4166 0.82893 0.74471 0.0
H2847 H 0.40409 0.83177 0.7644 0.0
H2848 H 0.48016 0.84181 0.76048 0.0
H2849 H 0.45172 0.84974 0.80857 0.0
H2850 H 0.45556 0.86803 0.73191 0.0
H2851 H 0.44216 0.84601 0.72924 0.0
H2852 H 0.46762 0.84822 0.73163 0.0
H2853 H 0.42075 0.87797 0.79095 0.0
H2854 H 0.42297 0.86136 0.80825 0.0
H2855 H 0.40795 0.8557 0.788 0.0
C2856 C 0.65356 0.90295 0.69124 0.0
C2857 C 0.66254 0.88841 0.68566 0.0
C2858 C 0.6634 0.91713 0.70205 0.0
C2859 C 0.68263 0.91662 0.70756 0.0
C2860 C 0.69202 0.90243 0.70121 0.0
C2861 C 0.68186 0.88851 0.69024 0.0
C2862 C 0.65295 0.93214 0.70832 0.0
C2863 C 0.71248 0.90137 0.70687 0.0
C2864 C 0.71157 0.95888 0.7291 0.0
C2865 C 0.71015 0.95539 0.74755 0.0
C2866 C 0.70271 0.94641 0.71587 0.0
C2867 C 0.69237 0.92998 0.72126 0.0
C2868 C 0.69103 0.92633 0.73988 0.0
C2869 C 0.69986 0.93911 0.75277 0.0
C2870 C 0.70426 0.95086 0.69616 0.0
C2871 C 0.68028 0.90889 0.74619 0.0
H2872 H 0.63864 0.90294 0.68757 0.0
H2873 H 0.68878 0.87719 0.68607 0.0
H2874 H 0.6513 0.93104 0.72306 0.0
H2875 H 0.66112 0.94559 0.706 0.0
H2876 H 0.6387 0.9316 0.7013 0.0
H2877 H 0.71817 0.89049 0.69942 0.0
H2878 H 0.72128 0.9145 0.70461 0.0
H2879 H 0.71388 0.89861 0.72154 0.0
H2880 H 0.71935 0.97153 0.72501 0.0
H2881 H 0.69897 0.93623 0.767 0.0
H2882 H 0.68996 0.95123 0.68956 0.0
H2883 H 0.71059 0.94013 0.68917 0.0
H2884 H 0.71298 0.96414 0.69421 0.0
H2885 H 0.66523 0.90783 0.74113 0.0
H2886 H 0.68091 0.90798 0.76115 0.0
H2887 H 0.68611 0.89708 0.74059 0.0
C2888 C 0.61656 0.86956 0.35283 0.0
C2889 C 0.62844 0.87912 0.34082 0.0
C2890 C 0.60002 0.85843 0.34647 0.0
C2891 C 0.59523 0.85684 0.32766 0.0
C2892 C 0.607 0.86667 0.31549 0.0
C2893 C 0.62349 0.87763 0.3222 0.0
C2894 C 0.58784 0.84811 0.35987 0.0
C2895 C 0.60242 0.86526 0.29533 0.0
C2896 C 0.56506 0.81355 0.31065 0.0
C2897 C 0.54707 0.81907 0.30815 0.0
C2898 C 0.58082 0.82576 0.31683 0.0
C2899 C 0.5786 0.84399 0.32065 0.0
C2900 C 0.56056 0.84978 0.31792 0.0
C2901 C 0.54498 0.83724 0.31166 0.0
C2902 C 0.59983 0.81906 0.31949 0.0
C2903 C 0.55771 0.86914 0.32184 0.0
H2904 H 0.62018 0.87084 0.36724 0.0
H2905 H 0.63274 0.88476 0.31281 0.0
H2906 H 0.57309 0.85117 0.35793 0.0
H2907 H 0.58748 0.8333 0.35755 0.0
H2908 H 0.59308 0.85144 0.37408 0.0
H2909 H 0.61239 0.87464 0.28777 0.0
H2910 H 0.60299 0.85118 0.29055 0.0
H2911 H 0.58786 0.86834 0.29202 0.0
H2912 H 0.56687 0.79957 0.30791 0.0
H2913 H 0.53113 0.8416 0.3098 0.0
H2914 H 0.60514 0.82084 0.33386 0.0
H2915 H 0.61027 0.82718 0.31134 0.0
H2916 H 0.59921 0.80453 0.3156 0.0
H2917 H 0.56152 0.8725 0.33632 0.0
H2918 H 0.54288 0.87158 0.31865 0.0
H2919 H 0.56717 0.87857 0.31387 0.0
C2920 C 0.72724 0.17236 0.36452 0.0
C2921 C 0.71722 0.1836 0.35357 0.0
C2922 C 0.73464 0.15745 0.35713 0.0
C2923 C 0.732 0.15366 0.33829 0.0
C2924 C 0.72122 0.16458 0.32732 0.0
C2925 C 0.71394 0.17932 0.33508 0.0
C2926 C 0.74584 0.14614 0.36938 0.0
C2927 C 0.71795 0.16109 0.30722 0.0
C2928 C 0.76748 0.12939 0.3142 0.0
C2929 C 0.75758 0.1119 0.31112 0.0
C2930 C 0.75952 0.1429 0.32339 0.0
C2931 C 0.74121 0.13892 0.32983 0.0
C2932 C 0.73142 0.12111 0.32735 0.0
C2933 C 0.73966 0.10788 0.31802 0.0
C2934 C 0.77052 0.16166 0.32567 0.0
C2935 C 0.71196 0.11617 0.33409 0.0
H2936 H 0.72981 0.17561 0.37881 0.0
H2937 H 0.70617 0.18792 0.32655 0.0
H2938 H 0.74033 0.13153 0.3675 0.0
H2939 H 0.7608 0.1479 0.36582 0.0
H2940 H 0.74541 0.14993 0.38385 0.0
H2941 H 0.70853 0.17021 0.3007 0.0
H2942 H 0.73167 0.16311 0.30083 0.0
H2943 H 0.7116 0.14681 0.30447 0.0
H2944 H 0.78128 0.13274 0.30894 0.0
H2945 H 0.73184 0.09445 0.31578 0.0
H2946 H 0.77183 0.1659 0.34011 0.0
H2947 H 0.76281 0.17156 0.31816 0.0
H2948 H 0.78491 0.16239 0.32067 0.0
H2949 H 0.71202 0.11989 0.34861 0.0
H2950 H 0.70679 0.10146 0.33232 0.0
H2951 H 0.70182 0.12394 0.32666 0.0
C2952 C 0.40632 0.1809 0.36635 0.0
C2953 C 0.38906 0.18787 0.36633 0.0
C2954 C 0.42092 0.1888 0.35599 0.0
C2955 C 0.41819 0.20406 0.34534 0.0
C2956 C 0.40083 0.21126 0.34534 0.0
C2957 C 0.38657 0.20324 0.35604 0.0
C2958 C 0.43934 0.18092 0.35661 0.0
C2959 C 0.39735 0.22747 0.3341 0.0
C2960 C 0.46145 0.23495 0.33152 0.0
C2961 C 0.46321 0.22869 0.31391 0.0
C2962 C 0.4469 0.22704 0.34192 0.0
C2963 C 0.43362 0.21267 0.33442 0.0
C2964 C 0.43519 0.20644 0.31656 0.0
C2965 C 0.45006 0.21444 0.30657 0.0
C2966 C 0.44589 0.23388 0.361 0.0
C2967 C 0.42115 0.19134 0.308 0.0
H2968 H 0.40843 0.1693 0.37463 0.0
H2969 H 0.37347 0.20904 0.35631 0.0
H2970 H 0.44231 0.17664 0.34284 0.0
H2971 H 0.45113 0.19141 0.36145 0.0
H2972 H 0.43921 0.16904 0.3656 0.0
H2973 H 0.38285 0.23103 0.33512 0.0
H2974 H 0.40767 0.2394 0.33853 0.0
H2975 H 0.39946 0.22468 0.31971 0.0
H2976 H 0.47174 0.24579 0.33732 0.0
H2977 H 0.45127 0.20972 0.2929 0.0
H2978 H 0.44695 0.22266 0.37061 0.0
H2979 H 0.43206 0.23873 0.36256 0.0
H2980 H 0.45731 0.24515 0.36482 0.0
H2981 H 0.42141 0.1788 0.31596 0.0
H2982 H 0.42412 0.18834 0.29385 0.0
H2983 H 0.40664 0.19506 0.3081 0.0
C2984 C 0.31241 0.90473 0.38603 0.0
C2985 C 0.3163 0.88938 0.37655 0.0
C2986 C 0.30364 0.91845 0.37721 0.0
C2987 C 0.29841 0.91679 0.35844 0.0
C2988 C 0.30251 0.90143 0.34877 0.0
C2989 C 0.31139 0.88799 0.35789 0.0
C2990 C 0.29963 0.93459 0.38808 0.0
C2991 C 0.29698 0.89887 0.32884 0.0
C2992 C 0.25642 0.93975 0.34106 0.0
C2993 C 0.26496 0.95529 0.33256 0.0
C2994 C 0.26712 0.92721 0.34931 0.0
C2995 C 0.28707 0.93015 0.3493 0.0
C2996 C 0.29588 0.94569 0.34059 0.0
C2997 C 0.28473 0.95804 0.33223 0.0
C2998 C 0.25699 0.91079 0.35817 0.0
C2999 C 0.31711 0.94938 0.34032 0.0
H3000 H 0.31636 0.90611 0.40037 0.0
H3001 H 0.3141 0.87612 0.35042 0.0
H3002 H 0.30539 0.94738 0.38163 0.0
H3003 H 0.28414 0.93453 0.38838 0.0
H3004 H 0.3058 0.93461 0.4022 0.0
H3005 H 0.30229 0.88687 0.32299 0.0
H3006 H 0.28135 0.89711 0.32664 0.0
H3007 H 0.30254 0.9111 0.32138 0.0
H3008 H 0.24116 0.93731 0.34132 0.0
H3009 H 0.29149 0.96999 0.32578 0.0
H3010 H 0.26145 0.91089 0.37277 0.0
H3011 H 0.26081 0.89819 0.35213 0.0
H3012 H 0.24137 0.91029 0.35672 0.0
H3013 H 0.32352 0.95082 0.35436 0.0
H3014 H 0.32184 0.9619 0.33287 0.0
H3015 H 0.32256 0.93776 0.33393 0.0
C3016 C 0.71842 0.12994 0.73232 0.0
C3017 C 0.69895 0.12879 0.72782 0.0
C3018 C 0.72621 0.11545 0.74071 0.0
C3019 C 0.71429 0.09928 0.74444 0.0
C3020 C 0.69462 0.09806 0.73986 0.0
C3021 C 0.68722 0.11277 0.73159 0.0
C3022 C 0.74722 0.11737 0.74541 0.0
C3023 C 0.6814 0.08108 0.74348 0.0
C3024 C 0.7356 0.05508 0.75041 0.0
C3025 C 0.73659 0.0533 0.76926 0.0
C3026 C 0.72849 0.07 0.74217 0.0
C3027 C 0.72233 0.08358 0.75301 0.0
C3028 C 0.72346 0.08193 0.77204 0.0
C3029 C 0.7305 0.06683 0.77991 0.0
C3030 C 0.72742 0.07115 0.72184 0.0
C3031 C 0.71718 0.09612 0.78412 0.0
H3032 H 0.72758 0.14215 0.7291 0.0
H3033 H 0.67222 0.11167 0.72784 0.0
H3034 H 0.74998 0.11509 0.76004 0.0
H3035 H 0.75353 0.10691 0.73798 0.0
H3036 H 0.75448 0.13097 0.74206 0.0
H3037 H 0.66645 0.08233 0.73926 0.0
H3038 H 0.68561 0.06935 0.73613 0.0
H3039 H 0.68235 0.078 0.75809 0.0
H3040 H 0.74026 0.04474 0.74205 0.0
H3041 H 0.73128 0.06568 0.79448 0.0
H3042 H 0.73562 0.084 0.71767 0.0
H3043 H 0.71254 0.0713 0.71668 0.0
H3044 H 0.73296 0.05962 0.71532 0.0
H3045 H 0.72507 0.10964 0.78154 0.0
H3046 H 0.71938 0.0931 0.79868 0.0
H3047 H 0.70196 0.09703 0.78102 0.0
C3048 C 0.69264 0.94141 0.33328 0.0
C3049 C 0.67384 0.9363 0.33745 0.0
C3050 C 0.69794 0.95746 0.32399 0.0
C3051 C 0.68407 0.96859 0.31857 0.0
C3052 C 0.66515 0.96372 0.32301 0.0
C3053 C 0.66028 0.9477 0.3325 0.0
C3054 C 0.71832 0.96229 0.31962 0.0
C3055 C 0.64996 0.97522 0.3174 0.0
C3056 C 0.70224 0.01692 0.30621 0.0
C3057 C 0.70306 0.01537 0.28741 0.0
C3058 C 0.69561 1.00193 0.3165 0.0
C3059 C 0.68936 0.98503 0.30776 0.0
C3060 C 0.68916 0.98359 0.28871 0.0
C3061 C 0.69608 0.99874 0.27878 0.0
C3062 C 0.69605 1.00401 0.3368 0.0
C3063 C 0.68238 0.96582 0.27888 0.0
H3064 H 0.70316 0.9326 0.33682 0.0
H3065 H 0.64579 0.94403 0.33593 0.0
H3066 H 0.71935 0.96224 0.30476 0.0
H3067 H 0.72381 0.97618 0.32471 0.0
H3068 H 0.72753 0.95267 0.32558 0.0
H3069 H 0.63603 0.96984 0.3224 0.0
H3070 H 0.65399 0.98933 0.32258 0.0
H3071 H 0.64846 0.97583 0.30245 0.0
H3072 H 0.70721 0.02977 0.31298 0.0
H3073 H 0.69675 0.99727 0.26432 0.0
H3074 H 0.70635 0.99567 0.34315 0.0
H3075 H 0.68202 0.99898 0.34173 0.0
H3076 H 0.70012 0.01832 0.34141 0.0
H3077 H 0.69213 0.9558 0.28251 0.0
H3078 H 0.68163 0.96732 0.26397 0.0
H3079 H 0.66819 0.96016 0.28302 0.0
C3080 C 0.64687 0.2574 0.36535 0.0
C3081 C 0.64759 0.23874 0.36743 0.0
C3082 C 0.6312 0.26382 0.35633 0.0
C3083 C 0.61566 0.25131 0.34939 0.0
C3084 C 0.61616 0.23246 0.35178 0.0
C3085 C 0.63214 0.22642 0.36061 0.0
C3086 C 0.63148 0.28397 0.3538 0.0
C3087 C 0.59988 0.21863 0.34481 0.0
C3088 C 0.56767 0.26672 0.33601 0.0
C3089 C 0.56777 0.26661 0.31712 0.0
C3090 C 0.58331 0.26215 0.3468 0.0
C3091 C 0.59951 0.25774 0.33849 0.0
C3092 C 0.59995 0.25858 0.31946 0.0
C3093 C 0.58407 0.2628 0.30907 0.0
C3094 C 0.58215 0.26123 0.36701 0.0
C3095 C 0.61698 0.25441 0.30997 0.0
H3096 H 0.6588 0.26701 0.37047 0.0
H3097 H 0.63245 0.212 0.36239 0.0
H3098 H 0.63128 0.28704 0.33918 0.0
H3099 H 0.61868 0.28849 0.35905 0.0
H3100 H 0.64417 0.29197 0.36071 0.0
H3101 H 0.60185 0.2046 0.34882 0.0
H3102 H 0.58649 0.2219 0.34999 0.0
H3103 H 0.59832 0.21905 0.32986 0.0
H3104 H 0.55506 0.26947 0.3423 0.0
H3105 H 0.58428 0.2628 0.29446 0.0
H3106 H 0.59472 0.26935 0.37395 0.0
H3107 H 0.58212 0.24697 0.37134 0.0
H3108 H 0.56922 0.26622 0.37151 0.0
H3109 H 0.62998 0.26266 0.31598 0.0
H3110 H 0.6157 0.25711 0.29527 0.0
H3111 H 0.61876 0.23993 0.31177 0.0
C3112 C 0.30917 0.12147 0.3712 0.0
C3113 C 0.30093 0.13685 0.37569 0.0
C3114 C 0.29791 0.10507 0.36609 0.0
C3115 C 0.27797 0.10401 0.3656 0.0
C3116 C 0.26956 0.11952 0.36994 0.0
C3117 C 0.28113 0.13577 0.37478 0.0
C3118 C 0.30736 0.08883 0.36131 0.0
C3119 C 0.24835 0.11892 0.36954 0.0
C3120 C 0.25016 0.0665 0.33634 0.0
C3121 C 0.24575 0.05291 0.34899 0.0
C3122 C 0.26024 0.08334 0.34163 0.0
C3123 C 0.26591 0.08678 0.36007 0.0
C3124 C 0.26063 0.0735 0.37306 0.0
C3125 C 0.2506 0.05666 0.36735 0.0
C3126 C 0.26549 0.09715 0.32735 0.0
C3127 C 0.2662 0.07683 0.39289 0.0
H3128 H 0.32442 0.12213 0.37205 0.0
H3129 H 0.27464 0.14769 0.3779 0.0
H3130 H 0.3032 0.07751 0.3705 0.0
H3131 H 0.30261 0.08403 0.34736 0.0
H3132 H 0.32302 0.09193 0.36224 0.0
H3133 H 0.24407 0.13209 0.37369 0.0
H3134 H 0.24204 0.11534 0.35572 0.0
H3135 H 0.24231 0.10824 0.37867 0.0
H3136 H 0.24608 0.06377 0.32217 0.0
H3137 H 0.24728 0.04618 0.37714 0.0
H3138 H 0.28105 0.0991 0.3264 0.0
H3139 H 0.26135 0.11048 0.33104 0.0
H3140 H 0.25869 0.09291 0.31384 0.0
H3141 H 0.28181 0.07813 0.39514 0.0
H3142 H 0.25985 0.06568 0.40138 0.0
H3143 H 0.26177 0.08977 0.39747 0.0
C3144 C 0.39148 0.82227 0.37399 0.0
C3145 C 0.37709 0.82496 0.36096 0.0
C3146 C 0.40756 0.81472 0.36922 0.0
C3147 C 0.40915 0.80944 0.35103 0.0
C3148 C 0.3947 0.81228 0.33781 0.0
C3149 C 0.37886 0.81995 0.34294 0.0
C3150 C 0.42262 0.81196 0.38374 0.0
C3151 C 0.39571 0.80675 0.3183 0.0
C3152 C 0.457 0.80119 0.33492 0.0
C3153 C 0.45578 0.78219 0.33551 0.0
C3154 C 0.44206 0.81026 0.34008 0.0
C3155 C 0.42541 0.80013 0.34595 0.0
C3156 C 0.42411 0.78097 0.34663 0.0
C3157 C 0.43926 0.77227 0.34143 0.0
C3158 C 0.44405 0.8307 0.3392 0.0
C3159 C 0.40659 0.7696 0.35267 0.0
H3160 H 0.38999 0.8258 0.38798 0.0
H3161 H 0.36761 0.82169 0.33287 0.0
H3162 H 0.42336 0.79724 0.38531 0.0
H3163 H 0.43666 0.81833 0.3798 0.0
H3164 H 0.41985 0.81776 0.397 0.0
H3165 H 0.38375 0.8106 0.30954 0.0
H3166 H 0.40916 0.81316 0.31307 0.0
H3167 H 0.39555 0.79183 0.31724 0.0
H3168 H 0.46975 0.80902 0.3306 0.0
H3169 H 0.43797 0.75761 0.3417 0.0
H3170 H 0.44229 0.83653 0.3527 0.0
H3171 H 0.43278 0.83485 0.3298 0.0
H3172 H 0.45799 0.83663 0.33459 0.0
H3173 H 0.40367 0.77388 0.36646 0.0
H3174 H 0.40792 0.75489 0.35276 0.0
H3175 H 0.3942 0.77171 0.34356 0.0
C3176 C 0.34585 0.95686 0.76711 0.0
C3177 C 0.33571 0.94783 0.75213 0.0
C3178 C 0.34219 0.97412 0.77275 0.0
C3179 C 0.32814 0.98263 0.7631 0.0
C3180 C 0.31831 0.97378 0.74759 0.0
C3181 C 0.32226 0.95654 0.74228 0.0
C3182 C 0.35309 0.98308 0.78925 0.0
C3183 C 0.30331 0.98236 0.73681 0.0
C3184 C 0.30322 0.0183 0.78562 0.0
C3185 C 0.3117 0.03447 0.7782 0.0
C3186 C 0.30886 1.00143 0.78131 0.0
C3187 C 0.3234 1.00062 0.76931 0.0
C3188 C 0.33263 0.01695 0.76248 0.0
C3189 C 0.32668 0.03363 0.76699 0.0
C3190 C 0.29867 0.98439 0.78897 0.0
C3191 C 0.34826 0.01676 0.74976 0.0
H3192 H 0.35639 0.95022 0.77466 0.0
H3193 H 0.31454 0.94964 0.73059 0.0
H3194 H 0.36005 0.99677 0.78588 0.0
H3195 H 0.34325 0.98491 0.79988 0.0
H3196 H 0.36405 0.97502 0.79485 0.0
H3197 H 0.2973 0.97394 0.72486 0.0
H3198 H 0.29168 0.9844 0.74549 0.0
H3199 H 0.30932 0.99592 0.73213 0.0
H3200 H 0.29161 0.01871 0.79426 0.0
H3201 H 0.33337 0.04598 0.76116 0.0
H3202 H 0.30898 0.97619 0.79551 0.0
H3203 H 0.29072 0.97595 0.77788 0.0
H3204 H 0.28858 0.98737 0.79903 0.0
H3205 H 0.35923 0.00884 0.75553 0.0
H3206 H 0.35507 0.03065 0.74683 0.0
H3207 H 0.34245 0.01002 0.73682 0.0
C3208 C 0.59408 0.8485 0.69134 0.0
C3209 C 0.60899 0.83888 0.68772 0.0
C3210 C 0.58108 0.84217 0.70395 0.0
C3211 C 0.58339 0.82606 0.71341 0.0
C3212 C 0.59752 0.81555 0.70868 0.0
C3213 C 0.61014 0.82207 0.69576 0.0
C3214 C 0.56599 0.85361 0.70832 0.0
C3215 C 0.60053 0.79838 0.71852 0.0
C3216 C 0.57197 0.82842 0.76234 0.0
C3217 C 0.55439 0.81758 0.76231 0.0
C3218 C 0.58173 0.83075 0.74661 0.0
C3219 C 0.57357 0.82227 0.73029 0.0
C3220 C 0.55593 0.81104 0.73017 0.0
C3221 C 0.54658 0.80869 0.74629 0.0
C3222 C 0.60066 0.84262 0.74741 0.0
C3223 C 0.54673 0.80199 0.71297 0.0
H3224 H 0.59321 0.86148 0.68499 0.0
H3225 H 0.62178 0.81471 0.69298 0.0
H3226 H 0.55231 0.84496 0.7098 0.0
H3227 H 0.5701 0.86092 0.72136 0.0
H3228 H 0.56397 0.8638 0.69775 0.0
H3229 H 0.60966 0.79021 0.71121 0.0
H3230 H 0.60746 0.80197 0.73212 0.0
H3231 H 0.58686 0.7899 0.72044 0.0
H3232 H 0.57817 0.83515 0.77475 0.0
H3233 H 0.53295 0.80034 0.74623 0.0
H3234 H 0.59973 0.85468 0.73886 0.0
H3235 H 0.61152 0.83508 0.74202 0.0
H3236 H 0.60549 0.84738 0.76138 0.0
H3237 H 0.54288 0.81248 0.7034 0.0
H3238 H 0.53376 0.79257 0.71541 0.0
H3239 H 0.55675 0.79432 0.70633 0.0
C3240 C 0.40497 0.26174 0.72171 0.0
C3241 C 0.40105 0.24515 0.71223 0.0
C3242 C 0.42231 0.26648 0.73162 0.0
C3243 C 0.43608 0.25445 0.73178 0.0
C3244 C 0.43259 0.2382 0.7213 0.0
C3245 C 0.415 0.23365 0.71179 0.0
C3246 C 0.42536 0.28377 0.74286 0.0
C3247 C 0.44704 0.22517 0.72089 0.0
C3248 C 0.48566 0.2703 0.75255 0.0
C3249 C 0.4847 0.26242 0.76962 0.0
C3250 C 0.46996 0.26782 0.73995 0.0
C3251 C 0.45291 0.25757 0.74477 0.0
C3252 C 0.45182 0.24997 0.76215 0.0
C3253 C 0.46776 0.25234 0.77427 0.0
C3254 C 0.47167 0.27586 0.72142 0.0
C3255 C 0.4338 0.23925 0.76796 0.0
H3256 H 0.39411 0.27058 0.7221 0.0
H3257 H 0.412 0.22092 0.70425 0.0
H3258 H 0.4252 0.28036 0.75739 0.0
H3259 H 0.43935 0.29156 0.74074 0.0
H3260 H 0.41425 0.29258 0.73967 0.0
H3261 H 0.44323 0.21449 0.71024 0.0
H3262 H 0.46118 0.23256 0.71854 0.0
H3263 H 0.44818 0.21847 0.73415 0.0
H3264 H 0.49878 0.27806 0.74894 0.0
H3265 H 0.46688 0.24641 0.78754 0.0
H3266 H 0.46076 0.28497 0.71874 0.0
H3267 H 0.46911 0.26487 0.711 0.0
H3268 H 0.48581 0.28367 0.71987 0.0
H3269 H 0.42202 0.24754 0.76648 0.0
H3270 H 0.43513 0.23484 0.78221 0.0
H3271 H 0.4299 0.22701 0.75917 0.0
C3272 C 0.7061 0.71464 0.18405 0.0
C3273 C 0.6869 0.70807 0.18522 0.0
C3274 C 0.71227 0.72598 0.16985 0.0
C3275 C 0.69896 0.73072 0.15631 0.0
C3276 C 0.67964 0.72364 0.15714 0.0
C3277 C 0.67386 0.71253 0.17158 0.0
C3278 C 0.73296 0.73332 0.16963 0.0
C3279 C 0.66498 0.72807 0.14291 0.0
C3280 C 0.70994 0.77441 0.12999 0.0
C3281 C 0.71573 0.76802 0.11365 0.0
C3282 C 0.70473 0.76248 0.144 0.0
C3283 C 0.70507 0.74358 0.14166 0.0
C3284 C 0.71086 0.73704 0.12518 0.0
C3285 C 0.71622 0.74932 0.11146 0.0
C3286 C 0.69888 0.77012 0.16138 0.0
C3287 C 0.7112 0.71702 0.12197 0.0
H3288 H 0.71625 0.7114 0.1946 0.0
H3289 H 0.65903 0.70734 0.17224 0.0
H3290 H 0.73845 0.72993 0.15655 0.0
H3291 H 0.73479 0.74834 0.17095 0.0
H3292 H 0.74161 0.72787 0.18073 0.0
H3293 H 0.65072 0.72075 0.14495 0.0
H3294 H 0.66418 0.74287 0.14316 0.0
H3295 H 0.66908 0.72452 0.12929 0.0
H3296 H 0.70979 0.78883 0.13195 0.0
H3297 H 0.72049 0.74423 0.09885 0.0
H3298 H 0.70798 0.76619 0.17296 0.0
H3299 H 0.68413 0.76437 0.16368 0.0
H3300 H 0.69983 0.78516 0.16128 0.0
H3301 H 0.72057 0.71167 0.13253 0.0
H3302 H 0.7162 0.71409 0.10851 0.0
H3303 H 0.69682 0.70954 0.12295 0.0
C3304 C 0.33343 0.74424 0.12041 0.0
C3305 C 0.32138 0.73579 0.1329 0.0
C3306 C 0.32627 0.74943 0.10342 0.0
C3307 C 0.30655 0.74621 0.09892 0.0
C3308 C 0.29434 0.73757 0.11149 0.0
C3309 C 0.3019 0.73246 0.12831 0.0
C3310 C 0.33975 0.75853 0.09039 0.0
C3311 C 0.27323 0.73396 0.10726 0.0
C3312 C 0.28373 0.77437 0.06331 0.0
C3313 C 0.28027 0.76214 0.0486 0.0
C3314 C 0.29274 0.76955 0.07961 0.0
C3315 C 0.29855 0.75211 0.08122 0.0
C3316 C 0.29575 0.73997 0.0662 0.0
C3317 C 0.28661 0.74511 0.0501 0.0
C3318 C 0.29541 0.78287 0.09533 0.0
C3319 C 0.30186 0.72132 0.06731 0.0
H3320 H 0.34847 0.74694 0.12404 0.0
H3321 H 0.29254 0.72605 0.138 0.0
H3322 H 0.33812 0.75088 0.07736 0.0
H3323 H 0.33637 0.7724 0.08752 0.0
H3324 H 0.35473 0.75953 0.09571 0.0
H3325 H 0.26572 0.72691 0.11839 0.0
H3326 H 0.26755 0.74695 0.10475 0.0
H3327 H 0.27003 0.72552 0.09477 0.0
H3328 H 0.27887 0.78754 0.06233 0.0
H3329 H 0.28407 0.73558 0.03879 0.0
H3330 H 0.31041 0.78494 0.1006 0.0
H3331 H 0.28685 0.77732 0.10648 0.0
H3332 H 0.29114 0.79625 0.09158 0.0
H3333 H 0.31696 0.72235 0.07217 0.0
H3334 H 0.29989 0.71399 0.05407 0.0
H3335 H 0.29355 0.71312 0.07721 0.0
C3336 C 0.34861 0.36607 0.18059 0.0
C3337 C 0.33581 0.37155 0.19245 0.0
C3338 C 0.34225 0.35614 0.16462 0.0
C3339 C 0.32261 0.35135 0.16044 0.0
C3340 C 0.30965 0.3565 0.17258 0.0
C3341 C 0.31639 0.36662 0.18833 0.0
C3342 C 0.35656 0.35122 0.15196 0.0
C3343 C 0.2886 0.35154 0.16879 0.0
C3344 C 0.30248 0.34424 0.11183 0.0
C3345 C 0.29843 0.32528 0.11031 0.0
C3346 C 0.31109 0.35278 0.12775 0.0
C3347 C 0.31549 0.34216 0.1428 0.0
C3348 C 0.31209 0.32294 0.14115 0.0
C3349 C 0.30373 0.3147 0.12485 0.0
C3350 C 0.31478 0.37326 0.12869 0.0
C3351 C 0.31638 0.31112 0.1569 0.0
H3352 H 0.36364 0.36994 0.18358 0.0
H3353 H 0.30642 0.37058 0.19753 0.0
H3354 H 0.35424 0.33643 0.14895 0.0
H3355 H 0.35476 0.35825 0.13895 0.0
H3356 H 0.37133 0.35503 0.15761 0.0
H3357 H 0.28046 0.35546 0.18012 0.0
H3358 H 0.28391 0.35842 0.15642 0.0
H3359 H 0.28512 0.3367 0.16626 0.0
H3360 H 0.29847 0.35248 0.10061 0.0
H3361 H 0.30041 0.30006 0.12383 0.0
H3362 H 0.32965 0.37784 0.13357 0.0
H3363 H 0.30559 0.37844 0.13848 0.0
H3364 H 0.31202 0.37948 0.11538 0.0
H3365 H 0.33114 0.31495 0.16247 0.0
H3366 H 0.31433 0.29647 0.15307 0.0
H3367 H 0.30698 0.31321 0.16784 0.0
C3368 C 0.69587 0.35052 0.11559 0.0
C3369 C 0.67787 0.35506 0.11833 0.0
C3370 C 0.69867 0.33879 0.10142 0.0
C3371 C 0.68314 0.33169 0.08951 0.0
C3372 C 0.66496 0.33647 0.09203 0.0
C3373 C 0.66253 0.34808 0.10648 0.0
C3374 C 0.71826 0.33394 0.09925 0.0
C3375 C 0.64815 0.32939 0.07943 0.0
C3376 C 0.69761 0.31572 0.04449 0.0
C3377 C 0.6971 0.29704 0.04717 0.0
C3378 C 0.69207 0.32705 0.05778 0.0
C3379 C 0.68616 0.31952 0.07427 0.0
C3380 C 0.68477 0.30051 0.07672 0.0
C3381 C 0.69014 0.28946 0.06304 0.0
C3382 C 0.69342 0.34719 0.05451 0.0
C3383 C 0.67871 0.292 0.09418 0.0
H3384 H 0.70773 0.35606 0.1247 0.0
H3385 H 0.64862 0.3517 0.10852 0.0
H3386 H 0.718 0.319 0.09965 0.0
H3387 H 0.72314 0.33846 0.08592 0.0
H3388 H 0.7287 0.34025 0.10996 0.0
H3389 H 0.63499 0.33447 0.0832 0.0
H3390 H 0.65088 0.33349 0.06539 0.0
H3391 H 0.64587 0.31434 0.0795 0.0
H3392 H 0.70283 0.32151 0.03211 0.0
H3393 H 0.68993 0.27504 0.06518 0.0
H3394 H 0.70501 0.35449 0.0635 0.0
H3395 H 0.68014 0.3523 0.0578 0.0
H3396 H 0.69627 0.35058 0.0403 0.0
H3397 H 0.68959 0.29645 0.10521 0.0
H3398 H 0.67673 0.27694 0.09333 0.0
H3399 H 0.66531 0.29655 0.09794 0.0
C3400 C 0.72157 0.36427 0.90459 0.0
C3401 C 0.73638 0.37463 0.89635 0.0
C3402 C 0.72497 0.35492 0.92057 0.0
C3403 C 0.74368 0.35575 0.92833 0.0
C3404 C 0.75868 0.36628 0.9201 0.0
C3405 C 0.75485 0.37558 0.90417 0.0
C3406 C 0.70858 0.34388 0.92896 0.0
C3407 C 0.77883 0.36739 0.92788 0.0
C3408 C 0.7501 0.34194 0.97737 0.0
C3409 C 0.75315 0.32379 0.97548 0.0
C3410 C 0.74725 0.35261 0.96214 0.0
C3411 C 0.74761 0.34498 0.94464 0.0
C3412 C 0.75121 0.32682 0.94267 0.0
C3413 C 0.75387 0.31644 0.9581 0.0
C3414 C 0.74339 0.3719 0.96478 0.0
C3415 C 0.75187 0.31823 0.92424 0.0
H3416 H 0.70733 0.36335 0.89837 0.0
H3417 H 0.76635 0.38341 0.89767 0.0
H3418 H 0.71051 0.32932 0.92882 0.0
H3419 H 0.70809 0.34809 0.94328 0.0
H3420 H 0.6948 0.34533 0.92172 0.0
H3421 H 0.78877 0.37671 0.92023 0.0
H3422 H 0.77985 0.37212 0.94217 0.0
H3423 H 0.78339 0.3537 0.92772 0.0
H3424 H 0.74946 0.34772 0.99074 0.0
H3425 H 0.75631 0.30245 0.95651 0.0
H3426 H 0.72907 0.37339 0.95881 0.0
H3427 H 0.75364 0.38137 0.95765 0.0
H3428 H 0.74427 0.37603 0.97926 0.0
H3429 H 0.7379 0.31773 0.91672 0.0
H3430 H 0.75563 0.30423 0.92504 0.0
H3431 H 0.76235 0.32655 0.9163 0.0
C3432 C 0.7196 0.72541 0.93877 0.0
C3433 C 0.71254 0.73879 0.92799 0.0
C3434 C 0.72702 0.72928 0.95662 0.0
C3435 C 0.72711 0.74686 0.96412 0.0
C3436 C 0.72052 0.76057 0.95319 0.0
C3437 C 0.71347 0.75641 0.93529 0.0
C3438 C 0.73421 0.71436 0.96765 0.0
C3439 C 0.7203 0.77951 0.96062 0.0
C3440 C 0.72192 0.75292 0.01434 0.0
C3441 C 0.73985 0.76158 0.0205 0.0
C3442 C 0.71787 0.74746 0.99622 0.0
C3443 C 0.73216 0.7505 0.98382 0.0
C3444 C 0.7507 0.75809 0.99018 0.0
C3445 C 0.75432 0.76362 1.00847 0.0
C3446 C 0.6979 0.7395 0.99013 0.0
C3447 C 0.76643 0.76133 0.97751 0.0
H3448 H 0.71885 0.7117 0.93347 0.0
H3449 H 0.70855 0.76701 0.92704 0.0
H3450 H 0.74833 0.71923 0.97432 0.0
H3451 H 0.72453 0.7104 0.97847 0.0
H3452 H 0.73529 0.70212 0.9593 0.0
H3453 H 0.71549 0.78883 0.9502 0.0
H3454 H 0.71073 0.77903 0.97186 0.0
H3455 H 0.73463 0.78524 0.9662 0.0
H3456 H 0.71067 0.75125 0.02356 0.0
H3457 H 0.76816 0.77048 0.01303 0.0
H3458 H 0.69786 0.72645 0.98278 0.0
H3459 H 0.69168 0.74889 0.98065 0.0
H3460 H 0.68869 0.73709 1.00162 0.0
H3461 H 0.76636 0.74942 0.96838 0.0
H3462 H 0.78051 0.7642 0.98493 0.0
H3463 H 0.76432 0.77315 0.96894 0.0
C3464 C 0.30598 0.67118 0.89222 0.0
C3465 C 0.31313 0.68361 0.87943 0.0
C3466 C 0.29484 0.67642 0.90575 0.0
C3467 C 0.29057 0.69446 0.90636 0.0
C3468 C 0.29728 0.70692 0.89313 0.0
C3469 C 0.30861 0.70138 0.87991 0.0
C3470 C 0.28816 0.66281 0.91973 0.0
C3471 C 0.29278 0.72619 0.89315 0.0
C3472 C 0.24991 0.7047 0.93375 0.0
C3473 C 0.25955 0.71265 0.94948 0.0
C3474 C 0.25979 0.69875 0.91956 0.0
C3475 C 0.27979 0.70055 0.92128 0.0
C3476 C 0.28957 0.70832 0.93727 0.0
C3477 C 0.27933 0.71439 0.95111 0.0
C3478 C 0.24888 0.69079 0.90262 0.0
C3479 C 0.31086 0.71022 0.93976 0.0
H3480 H 0.30963 0.65749 0.89199 0.0
H3481 H 0.314 0.71096 0.86994 0.0
H3482 H 0.2944 0.66754 0.9333 0.0
H3483 H 0.27258 0.66161 0.92021 0.0
H3484 H 0.29211 0.64914 0.91698 0.0
H3485 H 0.29811 0.73385 0.8813 0.0
H3486 H 0.27728 0.72626 0.89312 0.0
H3487 H 0.29922 0.73342 0.90563 0.0
H3488 H 0.23463 0.70353 0.93237 0.0
H3489 H 0.2868 0.72033 0.96334 0.0
H3490 H 0.25211 0.67684 0.90012 0.0
H3491 H 0.25325 0.699 0.89081 0.0
H3492 H 0.23336 0.69027 0.90343 0.0
H3493 H 0.31572 0.69676 0.93828 0.0
H3494 H 0.31628 0.71613 0.95319 0.0
H3495 H 0.31723 0.71903 0.92915 0.0
C3496 C 0.33909 0.35324 0.94575 0.0
C3497 C 0.32838 0.35239 0.9292 0.0
C3498 C 0.33045 0.34899 0.96201 0.0
C3499 C 0.31068 0.34341 0.96168 0.0
C3500 C 0.2999 0.34212 0.94492 0.0
C3501 C 0.30884 0.34678 0.92894 0.0
C3502 C 0.34244 0.35075 0.97958 0.0
C3503 C 0.27889 0.33585 0.94385 0.0
C3504 C 0.29101 0.31676 1.00154 0.0
C3505 C 0.28287 0.32987 0.01099 0.0
C3506 C 0.29995 0.32094 0.98548 0.0
C3507 C 0.30125 0.33882 0.97882 0.0
C3508 C 0.29326 0.3522 0.9884 0.0
C3509 C 0.28399 0.34752 1.00424 0.0
C3510 C 0.30776 0.3061 0.9755 0.0
C3511 C 0.29459 0.3715 0.98194 0.0
H3512 H 0.35416 0.35773 0.94602 0.0
H3513 H 0.30052 0.346 0.91615 0.0
H3514 H 0.33716 0.36054 0.98874 0.0
H3515 H 0.34136 0.3375 0.98647 0.0
H3516 H 0.35756 0.35542 0.97759 0.0
H3517 H 0.27265 0.335 0.92972 0.0
H3518 H 0.27601 0.32229 0.95002 0.0
H3519 H 0.27163 0.34533 0.95164 0.0
H3520 H 0.29005 0.30305 1.00651 0.0
H3521 H 0.27792 0.35775 0.01156 0.0
H3522 H 0.32302 0.31007 0.97369 0.0
H3523 H 0.30049 0.30406 0.96183 0.0
H3524 H 0.30596 0.29298 0.98266 0.0
H3525 H 0.30962 0.37713 0.98078 0.0
H3526 H 0.28817 0.38042 0.99118 0.0
H3527 H 0.28734 0.37182 0.96831 0.0
C3528 C 0.62769 0.68462 0.24044 0.0
C3529 C 0.64191 0.69777 0.23467 0.0
C3530 C 0.61237 0.6896 0.24944 0.0
C3531 C 0.61123 0.70819 0.25285 0.0
C3532 C 0.62551 0.72153 0.24703 0.0
C3533 C 0.64063 0.71617 0.23803 0.0
C3534 C 0.59741 0.67496 0.25535 0.0
C3535 C 0.62494 0.74148 0.25049 0.0
C3536 C 0.56405 0.72339 0.26306 0.0
C3537 C 0.5658 0.72524 0.28196 0.0
C3538 C 0.57858 0.71764 0.25343 0.0
C3539 C 0.59536 0.71371 0.26288 0.0
C3540 C 0.59717 0.71544 0.28196 0.0
C3541 C 0.5824 0.72113 0.29124 0.0
C3542 C 0.57603 0.71587 0.23311 0.0
C3543 C 0.61485 0.71154 0.29258 0.0
H3544 H 0.62842 0.6704 0.23773 0.0
H3545 H 0.65167 0.72643 0.23386 0.0
H3546 H 0.59676 0.67558 0.27024 0.0
H3547 H 0.58333 0.67719 0.24931 0.0
H3548 H 0.60015 0.66116 0.25139 0.0
H3549 H 0.63694 0.75017 0.24482 0.0
H3550 H 0.61153 0.74546 0.24446 0.0
H3551 H 0.62532 0.74424 0.26524 0.0
H3552 H 0.55123 0.72634 0.2558 0.0
H3553 H 0.58408 0.72278 0.30578 0.0
H3554 H 0.57765 0.70188 0.22876 0.0
H3555 H 0.58713 0.72521 0.22689 0.0
H3556 H 0.56197 0.719 0.2278 0.0
H3557 H 0.61756 0.69749 0.28966 0.0
H3558 H 0.61391 0.71316 0.30738 0.0
H3559 H 0.62721 0.72084 0.28841 0.0
C3560 C 0.33019 0.67122 0.20305 0.0
C3561 C 0.34868 0.67471 0.19756 0.0
C3562 C 0.32484 0.65648 0.21424 0.0
C3563 C 0.33829 0.64495 0.21991 0.0
C3564 C 0.35666 0.64787 0.21353 0.0
C3565 C 0.36163 0.66273 0.20248 0.0
C3566 C 0.30511 0.6538 0.22074 0.0
C3567 C 0.37135 0.63581 0.21907 0.0
C3568 C 0.33339 0.62129 0.26494 0.0
C3569 C 0.32556 0.60362 0.25955 0.0
C3570 C 0.33744 0.63487 0.25217 0.0
C3571 C 0.33366 0.63068 0.23352 0.0
C3572 C 0.32591 0.61284 0.22797 0.0
C3573 C 0.32193 0.59955 0.24104 0.0
C3574 C 0.34566 0.65375 0.25866 0.0
C3575 C 0.32187 0.6078 0.20822 0.0
H3576 H 0.3202 0.68053 0.19937 0.0
H3577 H 0.3759 0.66532 0.19809 0.0
H3578 H 0.29852 0.63954 0.2184 0.0
H3579 H 0.30576 0.65655 0.23551 0.0
H3580 H 0.29588 0.66292 0.2139 0.0
H3581 H 0.3844 0.63893 0.21168 0.0
H3582 H 0.37521 0.63758 0.23376 0.0
H3583 H 0.3656 0.62134 0.21659 0.0
H3584 H 0.33597 0.62464 0.27919 0.0
H3585 H 0.31609 0.58588 0.23677 0.0
H3586 H 0.33629 0.66368 0.2538 0.0
H3587 H 0.35959 0.65765 0.253 0.0
H3588 H 0.34757 0.65484 0.27363 0.0
H3589 H 0.31194 0.61652 0.20188 0.0
H3590 H 0.31566 0.59337 0.20613 0.0
H3591 H 0.3351 0.6102 0.20106 0.0
C3592 C 0.43032 0.38075 0.25409 0.0
C3593 C 0.41078 0.375 0.25282 0.0
C3594 C 0.44329 0.36912 0.26019 0.0
C3595 C 0.43664 0.35119 0.26525 0.0
C3596 C 0.41687 0.34545 0.26456 0.0
C3597 C 0.40419 0.35732 0.25816 0.0
C3598 C 0.46418 0.37577 0.26034 0.0
C3599 C 0.40912 0.32652 0.26992 0.0
C3600 C 0.46813 0.31459 0.25837 0.0
C3601 C 0.4761 0.3123 0.27587 0.0
C3602 C 0.45553 0.32726 0.25482 0.0
C3603 C 0.45035 0.33786 0.26915 0.0
C3604 C 0.45839 0.33574 0.28689 0.0
C3605 C 0.47133 0.3231 0.29002 0.0
C3606 C 0.44772 0.32924 0.23564 0.0
C3607 C 0.45307 0.3466 0.30258 0.0
H3608 H 0.4355 0.39429 0.24976 0.0
H3609 H 0.38917 0.35258 0.25705 0.0
H3610 H 0.4713 0.3732 0.27361 0.0
H3611 H 0.47063 0.36819 0.24996 0.0
H3612 H 0.46705 0.3905 0.25752 0.0
H3613 H 0.39353 0.32482 0.2707 0.0
H3614 H 0.41264 0.31656 0.25989 0.0
H3615 H 0.41571 0.32321 0.28321 0.0
H3616 H 0.47182 0.30644 0.24729 0.0
H3617 H 0.47732 0.32134 0.30358 0.0
H3618 H 0.45103 0.34352 0.23136 0.0
H3619 H 0.43211 0.32587 0.23481 0.0
H3620 H 0.45354 0.32032 0.22595 0.0
H3621 H 0.45641 0.36133 0.30005 0.0
H3622 H 0.46056 0.34346 0.31551 0.0
H3623 H 0.43761 0.34374 0.30398 0.0
C3624 C 0.71601 0.40307 0.20232 0.0
C3625 C 0.69636 0.39957 0.20366 0.0
C3626 C 0.72697 0.41747 0.21205 0.0
C3627 C 0.71813 0.42843 0.22367 0.0
C3628 C 0.69833 0.42505 0.22502 0.0
C3629 C 0.68769 0.41082 0.21488 0.0
C3630 C 0.74801 0.42083 0.21007 0.0
C3631 C 0.68837 0.43635 0.23738 0.0
C3632 C 0.7451 0.45364 0.26393 0.0
C3633 C 0.74622 0.47173 0.25835 0.0
C3634 C 0.73668 0.43932 0.25248 0.0
C3635 C 0.72951 0.44314 0.23491 0.0
C3636 C 0.73174 0.46123 0.22877 0.0
C3637 C 0.73993 0.47535 0.24062 0.0
C3638 C 0.73441 0.42024 0.25962 0.0
C3639 C 0.72466 0.4658 0.20998 0.0
H3640 H 0.72293 0.39436 0.19388 0.0
H3641 H 0.67249 0.40855 0.21572 0.0
H3642 H 0.75231 0.43515 0.2064 0.0
H3643 H 0.75568 0.41856 0.22314 0.0
H3644 H 0.75254 0.41182 0.19963 0.0
H3645 H 0.6729 0.43187 0.23698 0.0
H3646 H 0.69429 0.43552 0.2515 0.0
H3647 H 0.69074 0.45081 0.23352 0.0
H3648 H 0.7499 0.4507 0.27761 0.0
H3649 H 0.74088 0.48927 0.23617 0.0
H3650 H 0.73961 0.41082 0.25003 0.0
H3651 H 0.71919 0.41549 0.26098 0.0
H3652 H 0.74209 0.41935 0.273 0.0
H3653 H 0.72946 0.45667 0.19983 0.0
H3654 H 0.72956 0.48009 0.20652 0.0
H3655 H 0.70898 0.46369 0.20893 0.0
C3656 C 0.64821 0.37397 0.85164 0.0
C3657 C 0.66184 0.3784 0.83909 0.0
C3658 C 0.63158 0.36224 0.84689 0.0
C3659 C 0.62873 0.35448 0.82927 0.0
C3660 C 0.64231 0.35919 0.81643 0.0
C3661 C 0.65866 0.37124 0.82147 0.0
C3662 C 0.6173 0.35776 0.86087 0.0
C3663 C 0.63995 0.35094 0.79763 0.0
C3664 C 0.59844 0.30864 0.82599 0.0
C3665 C 0.58115 0.31305 0.81859 0.0
C3666 C 0.61414 0.32194 0.82901 0.0
C3667 C 0.61242 0.34021 0.82486 0.0
C3668 C 0.59506 0.34475 0.81715 0.0
C3669 C 0.57963 0.33104 0.81391 0.0
C3670 C 0.6325 0.31645 0.83691 0.0
C3671 C 0.59266 0.36414 0.81282 0.0
H3672 H 0.65059 0.37972 0.86521 0.0
H3673 H 0.66926 0.37463 0.81179 0.0
H3674 H 0.60299 0.35978 0.85529 0.0
H3675 H 0.61674 0.34327 0.86454 0.0
H3676 H 0.62079 0.3662 0.87336 0.0
H3677 H 0.65113 0.35696 0.7889 0.0
H3678 H 0.64048 0.33611 0.7984 0.0
H3679 H 0.62596 0.35279 0.79114 0.0
H3680 H 0.59974 0.2947 0.82943 0.0
H3681 H 0.56624 0.33447 0.80825 0.0
H3682 H 0.63613 0.32296 0.85041 0.0
H3683 H 0.64417 0.3212 0.82822 0.0
H3684 H 0.63178 0.30152 0.83837 0.0
H3685 H 0.59465 0.3725 0.82542 0.0
H3686 H 0.57849 0.36534 0.80627 0.0
H3687 H 0.60359 0.36992 0.80375 0.0
C3688 C 0.72639 0.68771 0.8339 0.0
C3689 C 0.73245 0.69397 0.85145 0.0
C3690 C 0.73411 0.67338 0.8259 0.0
C3691 C 0.74813 0.66497 0.83574 0.0
C3692 C 0.75368 0.67075 0.85378 0.0
C3693 C 0.74574 0.68515 0.86142 0.0
C3694 C 0.72768 0.66763 0.8067 0.0
C3695 C 0.76843 0.66209 0.86481 0.0
C3696 C 0.75824 0.61943 0.81716 0.0
C3697 C 0.77391 0.62469 0.807 0.0
C3698 C 0.75004 0.63227 0.82705 0.0
C3699 C 0.75764 0.65086 0.82676 0.0
C3700 C 0.77387 0.65615 0.81707 0.0
C3701 C 0.7818 0.64304 0.80736 0.0
C3702 C 0.73284 0.62602 0.83728 0.0
C3703 C 0.78249 0.67579 0.81642 0.0
H3704 H 0.71596 0.69437 0.82624 0.0
H3705 H 0.75027 0.68986 0.87507 0.0
H3706 H 0.73972 0.67037 0.79794 0.0
H3707 H 0.72285 0.65282 0.80593 0.0
H3708 H 0.71601 0.67488 0.80121 0.0
H3709 H 0.77022 0.66723 0.879 0.0
H3710 H 0.76457 0.64714 0.86484 0.0
H3711 H 0.78222 0.66491 0.85863 0.0
H3712 H 0.75199 0.60532 0.81701 0.0
H3713 H 0.7939 0.6473 0.7996 0.0
H3714 H 0.72042 0.63165 0.83102 0.0
H3715 H 0.73497 0.63116 0.85144 0.0
H3716 H 0.72956 0.61099 0.83736 0.0
H3717 H 0.77221 0.68385 0.8096 0.0
H3718 H 0.79565 0.67757 0.80908 0.0
H3719 H 0.78577 0.68145 0.83031 0.0
C3720 C 0.40587 0.72208 0.85381 0.0
C3721 C 0.40581 0.70332 0.85522 0.0
C3722 C 0.42166 0.73321 0.84799 0.0
C3723 C 0.43785 0.72536 0.8437 0.0
C3724 C 0.43781 0.70636 0.845 0.0
C3725 C 0.42174 0.69554 0.85072 0.0
C3726 C 0.42114 0.7534 0.84671 0.0
C3727 C 0.45486 0.69755 0.84068 0.0
C3728 C 0.47307 0.75426 0.81613 0.0
C3729 C 0.48584 0.76263 0.82977 0.0
C3730 C 0.45763 0.74164 0.8204 0.0
C3731 C 0.45507 0.73721 0.83869 0.0
C3732 C 0.46843 0.74499 0.8524 0.0
C3733 C 0.4836 0.75767 0.84777 0.0
C3734 C 0.44362 0.73366 0.80544 0.0
C3735 C 0.46633 0.74045 0.87203 0.0
H3736 H 0.39353 0.72804 0.85735 0.0
H3737 H 0.42169 0.68101 0.85187 0.0
H3738 H 0.43207 0.76075 0.85635 0.0
H3739 H 0.42443 0.75807 0.83296 0.0
H3740 H 0.40716 0.75723 0.84973 0.0
H3741 H 0.45229 0.68253 0.84172 0.0
H3742 H 0.45891 0.70103 0.82682 0.0
H3743 H 0.46706 0.7028 0.85011 0.0
H3744 H 0.47471 0.75807 0.80219 0.0
H3745 H 0.49352 0.76398 0.85836 0.0
H3746 H 0.4298 0.73854 0.80699 0.0
H3747 H 0.44128 0.71865 0.80625 0.0
H3748 H 0.44836 0.73744 0.79184 0.0
H3749 H 0.45346 0.74543 0.87666 0.0
H3750 H 0.47868 0.74661 0.88086 0.0
H3751 H 0.46455 0.72552 0.87377 0.0
C3752 C 0.34034 0.4051 0.86614 0.0
C3753 C 0.32882 0.39098 0.87412 0.0
C3754 C 0.33253 0.41939 0.85738 0.0
C3755 C 0.31272 0.4197 0.85668 0.0
C3756 C 0.30099 0.40518 0.86414 0.0
C3757 C 0.30913 0.39099 0.87261 0.0
C3758 C 0.34554 0.43447 0.8494 0.0
C3759 C 0.27982 0.40493 0.86376 0.0
C3760 C 0.29386 0.46525 0.85363 0.0
C3761 C 0.28683 0.46544 0.8355 0.0
C3762 C 0.30242 0.45058 0.86058 0.0
C3763 C 0.30431 0.43568 0.84914 0.0
C3764 C 0.2976 0.43585 0.83078 0.0
C3765 C 0.28886 0.45062 0.82422 0.0
C3766 C 0.30926 0.45095 0.88028 0.0
C3767 C 0.29946 0.42031 0.81808 0.0
H3768 H 0.35555 0.40536 0.8673 0.0
H3769 H 0.30002 0.37997 0.87833 0.0
H3770 H 0.34059 0.43685 0.83525 0.0
H3771 H 0.34535 0.44726 0.85715 0.0
H3772 H 0.36035 0.43146 0.84959 0.0
H3773 H 0.27258 0.39229 0.86945 0.0
H3774 H 0.27646 0.41668 0.87169 0.0
H3775 H 0.27397 0.40628 0.84971 0.0
H3776 H 0.29281 0.47663 0.86251 0.0
H3777 H 0.2834 0.45035 0.81028 0.0
H3778 H 0.32457 0.44976 0.88159 0.0
H3779 H 0.30181 0.43917 0.8872 0.0
H3780 H 0.30688 0.46358 0.88738 0.0
H3781 H 0.31443 0.41787 0.81821 0.0
H3782 H 0.29445 0.4229 0.80397 0.0
H3783 H 0.29116 0.40769 0.82266 0.0
C3784 C 0.69053 0.6267 0.25342 0.0
C3785 C 0.69403 0.6274 0.23502 0.0
C3786 C 0.6961 0.61268 0.26439 0.0
C3787 C 0.70521 0.59888 0.25676 0.0
C3788 C 0.70921 0.59984 0.23829 0.0
C3789 C 0.70356 0.61402 0.22768 0.0
C3790 C 0.69164 0.61228 0.284 0.0
C3791 C 0.71889 0.5855 0.22954 0.0
C3792 C 0.73122 0.56713 0.28662 0.0
C3793 C 0.71787 0.55143 0.2867 0.0
C3794 C 0.72725 0.58274 0.27721 0.0
C3795 C 0.70945 0.5828 0.26766 0.0
C3796 C 0.69583 0.56712 0.26792 0.0
C3797 C 0.70018 0.55171 0.27738 0.0
C3798 C 0.74215 0.59916 0.27743 0.0
C3799 C 0.67673 0.56645 0.25784 0.0
H3800 H 0.68296 0.63687 0.25909 0.0
H3801 H 0.70613 0.61436 0.21344 0.0
H3802 H 0.68114 0.60028 0.28635 0.0
H3803 H 0.70454 0.61094 0.29272 0.0
H3804 H 0.68583 0.62468 0.28823 0.0
H3805 H 0.72197 0.58873 0.21535 0.0
H3806 H 0.73235 0.58399 0.23731 0.0
H3807 H 0.70978 0.5722 0.22966 0.0
H3808 H 0.74481 0.56727 0.29395 0.0
H3809 H 0.68982 0.53969 0.27705 0.0
H3810 H 0.73711 0.61061 0.28452 0.0
H3811 H 0.74476 0.60354 0.26344 0.0
H3812 H 0.75574 0.59652 0.28428 0.0
H3813 H 0.6695 0.57784 0.26234 0.0
H3814 H 0.66746 0.5535 0.25986 0.0
H3815 H 0.67853 0.56807 0.24318 0.0
C3816 C 0.70754 0.43274 0.80998 0.0
C3817 C 0.70775 0.43366 0.82888 0.0
C3818 C 0.71222 0.4484 0.79989 0.0
C3819 C 0.71698 0.46538 0.80894 0.0
C3820 C 0.71736 0.46635 0.82803 0.0
C3821 C 0.71282 0.45046 0.83778 0.0
C3822 C 0.71201 0.44682 0.77957 0.0
C3823 C 0.72224 0.48423 0.83817 0.0
C3824 C 0.74434 0.50617 0.78786 0.0
C3825 C 0.72997 0.51683 0.78325 0.0
C3826 C 0.7402 0.48895 0.79533 0.0
C3827 C 0.72128 0.48228 0.79855 0.0
C3828 C 0.70662 0.4925 0.79315 0.0
C3829 C 0.71113 0.50957 0.78543 0.0
C3830 C 0.75625 0.47836 0.80065 0.0
C3831 C 0.68625 0.48582 0.79635 0.0
H3832 H 0.70381 0.41971 0.80309 0.0
H3833 H 0.71278 0.45123 0.85237 0.0
H3834 H 0.70151 0.45495 0.77326 0.0
H3835 H 0.72603 0.45239 0.77494 0.0
H3836 H 0.70849 0.43254 0.77464 0.0
H3837 H 0.72197 0.48263 0.85303 0.0
H3838 H 0.73653 0.49068 0.83504 0.0
H3839 H 0.7121 0.49364 0.83379 0.0
H3840 H 0.75898 0.5115 0.78645 0.0
H3841 H 0.69989 0.51746 0.78158 0.0
H3842 H 0.75267 0.46392 0.79638 0.0
H3843 H 0.75879 0.47877 0.81556 0.0
H3844 H 0.76956 0.48402 0.79463 0.0
H3845 H 0.6822 0.47188 0.79072 0.0
H3846 H 0.6764 0.49476 0.79021 0.0
H3847 H 0.68444 0.48521 0.81109 0.0
C3848 C 0.64838 0.7488 0.88887 0.0
C3849 C 0.66297 0.74624 0.87767 0.0
C3850 C 0.63265 0.75701 0.88245 0.0
C3851 C 0.6313 0.76281 0.86432 0.0
C3852 C 0.64584 0.76009 0.85287 0.0
C3853 C 0.66145 0.7519 0.85966 0.0
C3854 C 0.61751 0.75959 0.89515 0.0
C3855 C 0.64503 0.76605 0.83347 0.0
C3856 C 0.58295 0.77093 0.84325 0.0
C3857 C 0.58385 0.78989 0.84475 0.0
C3858 C 0.59824 0.76196 0.84948 0.0
C3859 C 0.61493 0.77211 0.85747 0.0
C3860 C 0.61596 0.79123 0.85898 0.0
C3861 C 0.60051 0.79984 0.85261 0.0
C3862 C 0.59649 0.74156 0.84759 0.0
C3863 C 0.63345 0.80264 0.86735 0.0
H3864 H 0.64916 0.74423 0.9027 0.0
H3865 H 0.67268 0.75023 0.8509 0.0
H3866 H 0.61629 0.77424 0.89659 0.0
H3867 H 0.60361 0.75275 0.88951 0.0
H3868 H 0.62047 0.75412 0.90877 0.0
H3869 H 0.65714 0.76248 0.82614 0.0
H3870 H 0.63171 0.75964 0.82626 0.0
H3871 H 0.64504 0.78096 0.83295 0.0
H3872 H 0.57017 0.76301 0.83744 0.0
H3873 H 0.60162 0.81448 0.85362 0.0
H3874 H 0.59806 0.73546 0.8611 0.0
H3875 H 0.60799 0.73771 0.83961 0.0
H3876 H 0.58269 0.73562 0.84088 0.0
H3877 H 0.63639 0.7983 0.8814 0.0
H3878 H 0.63204 0.81734 0.86759 0.0
H3879 H 0.64586 0.80063 0.8597 0.0
C3880 C 0.33669 0.63648 0.81698 0.0
C3881 C 0.33032 0.63847 0.83435 0.0
C3882 C 0.33339 0.61972 0.80767 0.0
C3883 C 0.32298 0.6047 0.81566 0.0
C3884 C 0.31619 0.60666 0.83299 0.0
C3885 C 0.32017 0.6234 0.84221 0.0
C3886 C 0.34115 0.61805 0.78936 0.0
C3887 C 0.3047 0.59103 0.84185 0.0
C3888 C 0.29661 0.565 0.78834 0.0
C3889 C 0.30707 0.55098 0.79355 0.0
C3890 C 0.30216 0.58285 0.79466 0.0
C3891 C 0.31889 0.58688 0.80599 0.0
C3892 C 0.33049 0.57317 0.80977 0.0
C3893 C 0.32431 0.5553 0.8037 0.0
C3894 C 0.28918 0.59695 0.79057 0.0
C3895 C 0.34877 0.57708 0.82129 0.0
H3896 H 0.34423 0.64805 0.81056 0.0
H3897 H 0.31552 0.62456 0.85573 0.0
H3898 H 0.3502 0.60704 0.78945 0.0
H3899 H 0.3294 0.61433 0.77897 0.0
H3900 H 0.3496 0.63084 0.78533 0.0
H3901 H 0.29975 0.59502 0.85502 0.0
H3902 H 0.29219 0.58569 0.83284 0.0
H3903 H 0.31329 0.5798 0.84414 0.0
H3904 H 0.28324 0.56183 0.78052 0.0
H3905 H 0.33251 0.54455 0.80765 0.0
H3906 H 0.29724 0.60974 0.78613 0.0
H3907 H 0.28238 0.60013 0.80303 0.0
H3908 H 0.27788 0.59222 0.77996 0.0
H3909 H 0.35712 0.58984 0.81707 0.0
H3910 H 0.35754 0.56588 0.82052 0.0
H3911 H 0.34563 0.57893 0.83559 0.0
C3912 C 0.41058 0.33316 0.88073 0.0
C3913 C 0.39377 0.32833 0.86997 0.0
C3914 C 0.42766 0.3272 0.87624 0.0
C3915 C 0.4279 0.31575 0.86087 0.0
C3916 C 0.41092 0.31077 0.85006 0.0
C3917 C 0.39415 0.31707 0.85475 0.0
C3918 C 0.44542 0.33293 0.8881 0.0
C3919 C 0.41035 0.29843 0.83371 0.0
C3920 C 0.47395 0.31041 0.83908 0.0
C3921 C 0.47836 0.29388 0.84611 0.0
C3922 C 0.45789 0.31788 0.84408 0.0
C3923 C 0.4457 0.30855 0.85628 0.0
C3924 C 0.45013 0.29192 0.86351 0.0
C3925 C 0.46641 0.28487 0.85843 0.0
C3926 C 0.45389 0.33573 0.83619 0.0
C3927 C 0.43745 0.28134 0.87633 0.0
H3928 H 0.41036 0.34145 0.89277 0.0
H3929 H 0.38112 0.3129 0.84664 0.0
H3930 H 0.4505 0.32083 0.89436 0.0
H3931 H 0.45677 0.33942 0.87984 0.0
H3932 H 0.44315 0.34258 0.899 0.0
H3933 H 0.39611 0.29604 0.82655 0.0
H3934 H 0.42065 0.30437 0.82411 0.0
H3935 H 0.41452 0.28514 0.83787 0.0
H3936 H 0.4832 0.31762 0.82976 0.0
H3937 H 0.46953 0.27202 0.86379 0.0
H3938 H 0.45251 0.34557 0.84719 0.0
H3939 H 0.44026 0.33376 0.82796 0.0
H3940 H 0.46516 0.34171 0.82754 0.0
H3941 H 0.43566 0.28994 0.88822 0.0
H3942 H 0.44309 0.26889 0.88113 0.0
H3943 H 0.42322 0.27736 0.86952 0.0
C3944 C 0.34406 0.44071 0.24118 0.0
C3945 C 0.33265 0.42491 0.23449 0.0
C3946 C 0.33617 0.45629 0.24611 0.0
C3947 C 0.3163 0.45624 0.2444 0.0
C3948 C 0.3047 0.44046 0.23742 0.0
C3949 C 0.31298 0.42505 0.23255 0.0
C3950 C 0.34916 0.47277 0.2534 0.0
C3951 C 0.28349 0.43969 0.23548 0.0
C3952 C 0.29839 0.48988 0.27606 0.0
C3953 C 0.29655 0.50473 0.26486 0.0
C3954 C 0.30376 0.47371 0.26934 0.0
C3955 C 0.30776 0.47235 0.25095 0.0
C3956 C 0.30504 0.48704 0.23936 0.0
C3957 C 0.29947 0.50308 0.24646 0.0
C3958 C 0.30626 0.45848 0.28224 0.0
C3959 C 0.30912 0.48625 0.21969 0.0
H3960 H 0.35926 0.44095 0.24248 0.0
H3961 H 0.30395 0.41293 0.22759 0.0
H3962 H 0.34669 0.48484 0.24535 0.0
H3963 H 0.34606 0.47563 0.26752 0.0
H3964 H 0.36431 0.47097 0.25318 0.0
H3965 H 0.27649 0.42687 0.22886 0.0
H3966 H 0.27791 0.44087 0.24899 0.0
H3967 H 0.27955 0.45129 0.22744 0.0
H3968 H 0.29646 0.49125 0.29037 0.0
H3969 H 0.29853 0.51469 0.23787 0.0
H3970 H 0.32149 0.45707 0.2843 0.0
H3971 H 0.29889 0.44541 0.27653 0.0
H3972 H 0.30078 0.46089 0.29561 0.0
H3973 H 0.32456 0.48664 0.21854 0.0
H3974 H 0.30432 0.49777 0.21205 0.0
H3975 H 0.30212 0.47334 0.21331 0.0
C3976 C 0.64388 0.3418 0.21684 0.0
C3977 C 0.64184 0.34924 0.19965 0.0
C3978 C 0.62844 0.33178 0.22456 0.0
C3979 C 0.61051 0.32945 0.21496 0.0
C3980 C 0.60836 0.33706 0.19764 0.0
C3981 C 0.62411 0.34675 0.19013 0.0
C3982 C 0.63134 0.32363 0.24293 0.0
C3983 C 0.58941 0.33513 0.18713 0.0
C3984 C 0.57355 0.2908 0.22747 0.0
C3985 C 0.56271 0.29967 0.23887 0.0
C3986 C 0.58923 0.3003 0.21966 0.0
C3987 C 0.59393 0.31917 0.2231 0.0
C3988 C 0.58283 0.32825 0.23438 0.0
C3989 C 0.56744 0.31834 0.24225 0.0
C3990 C 0.60092 0.2901 0.20795 0.0
C3991 C 0.58718 0.34842 0.23811 0.0
H3992 H 0.65764 0.3436 0.22412 0.0
H3993 H 0.62251 0.35266 0.1769 0.0
H3994 H 0.62228 0.32922 0.25258 0.0
H3995 H 0.62704 0.30873 0.24212 0.0
H3996 H 0.64627 0.32634 0.24842 0.0
H3997 H 0.5901 0.34202 0.17391 0.0
H3998 H 0.58405 0.32056 0.18467 0.0
H3999 H 0.57898 0.34096 0.1951 0.0
H4000 H 0.57003 0.27632 0.22504 0.0
H4001 H 0.55892 0.32523 0.2509 0.0
H4002 H 0.61576 0.29157 0.2137 0.0
H4003 H 0.60114 0.29592 0.19423 0.0
H4004 H 0.59544 0.27542 0.2067 0.0
H4005 H 0.60154 0.35167 0.24484 0.0
H4006 H 0.57688 0.35348 0.24683 0.0
H4007 H 0.58708 0.35587 0.22521 0.0
C4008 C 0.41149 0.73488 0.18707 0.0
C4009 C 0.39521 0.73039 0.19651 0.0
C4010 C 0.42875 0.74187 0.1963 0.0
C4011 C 0.42959 0.74432 0.21532 0.0
C4012 C 0.41276 0.7413 0.22456 0.0
C4013 C 0.39579 0.73436 0.21503 0.0
C4014 C 0.4463 0.74523 0.18592 0.0
C4015 C 0.41292 0.74386 0.2448 0.0
C4016 C 0.47103 0.73374 0.24552 0.0
C4017 C 0.47849 0.75094 0.25254 0.0
C4018 C 0.45594 0.73158 0.23238 0.0
C4019 C 0.44806 0.74702 0.22605 0.0
C4020 C 0.45643 0.76456 0.23205 0.0
C4021 C 0.47159 0.76633 0.24528 0.0
C4022 C 0.44756 0.71261 0.22628 0.0
C4023 C 0.44862 0.78136 0.22542 0.0
H4024 H 0.41101 0.73182 0.17272 0.0
H4025 H 0.3831 0.73109 0.22226 0.0
H4026 H 0.4554 0.75778 0.19087 0.0
H4027 H 0.45463 0.73376 0.18795 0.0
H4028 H 0.44281 0.74639 0.1712 0.0
H4029 H 0.39842 0.74294 0.24958 0.0
H4030 H 0.4202 0.73323 0.25158 0.0
H4031 H 0.42082 0.75722 0.24907 0.0
H4032 H 0.47649 0.7218 0.25085 0.0
H4033 H 0.47736 0.7797 0.25057 0.0
H4034 H 0.44587 0.71168 0.21132 0.0
H4035 H 0.43331 0.70931 0.23145 0.0
H4036 H 0.4564 0.70222 0.23117 0.0
H4037 H 0.44502 0.78041 0.21064 0.0
H4038 H 0.45877 0.79384 0.22847 0.0
H4039 H 0.43544 0.7827 0.23212 0.0
loop_
_geom_bond_atom_site_label_1
_geom_bond_atom_site_label_2
_geom_bond_distance
_geom_bond_site_symmetry_2
_ccdc_geom_bond_type
H0 C7 0.929 . S
H1 C10 0.930 . S
H2 C12 0.929 . S
H3 C4 0.969 . S
C4 H3 0.969 . S
C4 O5 1.550 . S
C4 H6 0.973 . S
O5 C4 1.550 . S
O5 C11 1.412 . S
H6 C4 0.973 . S
C7 H0 0.929 . S
C7 C8 1.400 . S
C7 C9 1.364 . S
C8 C7 1.400 . S
C8 C12 1.377 . S
C9 C7 1.364 . S
C9 C10 1.374 . S
C10 H1 0.930 . S
C10 C9 1.374 . S
C10 C11 1.383 . S
C11 O5 1.412 . S
C11 C10 1.383 . S
C11 C12 1.394 . S
C12 H2 0.929 . S
C12 C8 1.377 . S
C12 C11 1.394 . S
H13 C20 0.929 . S
H14 C23 0.930 . S
H15 C25 0.929 . S
H16 C17 0.969 . S
C17 H16 0.969 . S
C17 O18 1.550 . S
C17 H19 0.973 . S
O18 C17 1.550 . S
O18 C24 1.412 . S
H19 C17 0.973 . S
C20 H13 0.929 . S
C20 C21 1.400 . S
C20 C22 1.364 . S
C21 C20 1.400 . S
C21 C25 1.377 . S
C22 C20 1.364 . S
C22 C23 1.374 . S
C23 H14 0.930 . S
C23 C22 1.374 . S
C23 C24 1.383 . S
C24 O18 1.412 . S
C24 C23 1.383 . S
C24 C25 1.394 . S
C25 H15 0.929 . S
C25 C21 1.377 . S
C25 C24 1.394 . S
H26 C33 0.929 . S
H27 C36 0.930 . S
H28 C38 0.929 . S
H29 C30 0.969 . S
C30 H29 0.969 . S
C30 O31 1.550 . S
C30 H32 0.973 . S
O31 C30 1.550 . S
O31 C37 1.412 . S
H32 C30 0.973 . S
C33 H26 0.929 . S
C33 C34 1.400 . S
C33 C35 1.364 . S
C34 C33 1.400 . S
C34 C38 1.377 . S
C35 C33 1.364 . S
C35 C36 1.374 . S
C36 H27 0.930 . S
C36 C35 1.374 . S
C36 C37 1.383 . S
C37 O31 1.412 . S
C37 C36 1.383 . S
C37 C38 1.394 . S
C38 H28 0.929 . S
C38 C34 1.377 . S
C38 C37 1.394 . S
H39 C46 0.929 . S
H40 C49 0.930 . S
H41 C51 0.929 . S
H42 C43 0.969 . S
C43 H42 0.969 . S
C43 O44 1.550 . S
C43 H45 0.973 . S
O44 C43 1.550 . S
O44 C50 1.412 . S
H45 C43 0.973 . S
C46 H39 0.929 . S
C46 C47 1.400 . S
C46 C48 1.364 . S
C47 C46 1.400 . S
C47 C51 1.377 . S
C48 C46 1.364 . S
C48 C49 1.374 . S
C49 H40 0.930 . S
C49 C48 1.374 . S
C49 C50 1.383 . S
C50 O44 1.412 . S
C50 C49 1.383 . S
C50 C51 1.394 . S
C51 H41 0.929 . S
C51 C47 1.377 . S
C51 C50 1.394 . S
H52 C59 0.929 . S
H53 C62 0.930 . S
H54 C64 0.929 . S
H55 C56 0.969 . S
C56 H55 0.969 . S
C56 O57 1.550 . S
C56 H58 0.973 . S
O57 C56 1.550 . S
O57 C63 1.412 . S
H58 C56 0.973 . S
C59 H52 0.929 . S
C59 C60 1.400 . S
C59 C61 1.364 . S
C60 C59 1.400 . S
C60 C64 1.377 . S
C61 C59 1.364 . S
C61 C62 1.374 . S
C62 H53 0.930 . S
C62 C61 1.374 . S
C62 C63 1.383 . S
C63 O57 1.412 . S
C63 C62 1.383 . S
C63 C64 1.394 . S
C64 H54 0.929 . S
C64 C60 1.377 . S
C64 C63 1.394 . S
H65 C72 0.929 . S
H66 C75 0.930 . S
H67 C77 0.929 . S
H68 C69 0.969 . S
C69 H68 0.969 . S
C69 O70 1.550 . S
C69 H71 0.973 . S
O70 C69 1.550 . S
O70 C76 1.412 . S
H71 C69 0.973 . S
C72 H65 0.929 . S
C72 C73 1.400 . S
C72 C74 1.364 . S
C73 C72 1.400 . S
C73 C77 1.377 . S
C74 C72 1.364 . S
C74 C75 1.374 . S
C75 H66 0.930 . S
C75 C74 1.374 . S
C75 C76 1.383 . S
C76 O70 1.412 . S
C76 C75 1.383 . S
C76 C77 1.394 . S
C77 H67 0.929 . S
C77 C73 1.377 . S
C77 C76 1.394 . S
H78 C85 0.929 . S
H79 C88 0.930 . S
H80 C90 0.929 . S
H81 C82 0.969 . S
C82 H81 0.969 . S
C82 O83 1.550 . S
C82 H84 0.973 . S
O83 C82 1.550 . S
O83 C89 1.412 . S
H84 C82 0.973 . S
C85 H78 0.929 . S
C85 C86 1.400 . S
C85 C87 1.364 . S
C86 C85 1.400 . S
C86 C90 1.377 . S
C87 C85 1.364 . S
C87 C88 1.374 . S
C88 H79 0.930 . S
C88 C87 1.374 . S
C88 C89 1.383 . S
C89 O83 1.412 . S
C89 C88 1.383 . S
C89 C90 1.394 . S
C90 H80 0.929 . S
C90 C86 1.377 . S
C90 C89 1.394 . S
H91 C98 0.929 . S
H92 C101 0.930 . S
H93 C103 0.929 . S
H94 C95 0.969 . S
C95 H94 0.969 . S
C95 O96 1.550 . S
C95 H97 0.973 . S
O96 C95 1.550 . S
O96 C102 1.412 . S
H97 C95 0.973 . S
C98 H91 0.929 . S
C98 C99 1.400 . S
C98 C100 1.364 . S
C99 C98 1.400 . S
C99 C103 1.377 . S
C100 C98 1.364 . S
C100 C101 1.374 . S
C101 H92 0.930 . S
C101 C100 1.374 . S
C101 C102 1.383 . S
C102 O96 1.412 . S
C102 C101 1.383 . S
C102 C103 1.394 . S
C103 H93 0.929 . S
C103 C99 1.377 . S
C103 C102 1.394 . S
H104 C111 0.929 . S
H105 C114 0.930 . S
H106 C116 0.929 . S
H107 C108 0.969 . S
C108 H107 0.969 . S
C108 O109 1.550 . S
C108 H110 0.973 . S
O109 C108 1.550 . S
O109 C115 1.412 . S
H110 C108 0.973 . S
C111 H104 0.929 . S
C111 C112 1.400 . S
C111 C113 1.364 . S
C112 C111 1.400 . S
C112 C116 1.377 . S
C113 C111 1.364 . S
C113 C114 1.374 . S
C114 H105 0.930 . S
C114 C113 1.374 . S
C114 C115 1.383 . S
C115 O109 1.412 . S
C115 C114 1.383 . S
C115 C116 1.394 . S
C116 H106 0.929 . S
C116 C112 1.377 . S
C116 C115 1.394 . S
H117 C124 0.929 . S
H118 C127 0.930 . S
H119 C129 0.929 . S
H120 C121 0.969 . S
C121 H120 0.969 . S
C121 O122 1.550 . S
C121 H123 0.973 . S
O122 C121 1.550 . S
O122 C128 1.412 . S
H123 C121 0.973 . S
C124 H117 0.929 . S
C124 C125 1.400 . S
C124 C126 1.364 . S
C125 C124 1.400 . S
C125 C129 1.377 . S
C126 C124 1.364 . S
C126 C127 1.374 . S
C127 H118 0.930 . S
C127 C126 1.374 . S
C127 C128 1.383 . S
C128 O122 1.412 . S
C128 C127 1.383 . S
C128 C129 1.394 . S
C129 H119 0.929 . S
C129 C125 1.377 . S
C129 C128 1.394 . S
H130 C137 0.929 . S
H131 C140 0.930 . S
H132 C142 0.929 . S
H133 C134 0.969 . S
C134 H133 0.969 . S
C134 O135 1.550 . S
C134 H136 0.973 . S
O135 C134 1.550 . S
O135 C141 1.412 . S
H136 C134 0.973 . S
C137 H130 0.929 . S
C137 C138 1.400 . S
C137 C139 1.364 . S
C138 C137 1.400 . S
C138 C142 1.377 . S
C139 C137 1.364 . S
C139 C140 1.374 . S
C140 H131 0.930 . S
C140 C139 1.374 . S
C140 C141 1.383 . S
C141 O135 1.412 . S
C141 C140 1.383 . S
C141 C142 1.394 . S
C142 H132 0.929 . S
C142 C138 1.377 . S
C142 C141 1.394 . S
H143 C150 0.929 . S
H144 C153 0.930 . S
H145 C155 0.929 . S
H146 C147 0.969 . S
C147 H146 0.969 . S
C147 O148 1.550 . S
C147 H149 0.973 . S
O148 C147 1.550 . S
O148 C154 1.412 . S
H149 C147 0.973 . S
C150 H143 0.929 . S
C150 C151 1.400 . S
C150 C152 1.364 . S
C151 C150 1.400 . S
C151 C155 1.377 . S
C152 C150 1.364 . S
C152 C153 1.374 . S
C153 H144 0.930 . S
C153 C152 1.374 . S
C153 C154 1.383 . S
C154 O148 1.412 . S
C154 C153 1.383 . S
C154 C155 1.394 . S
C155 H145 0.929 . S
C155 C151 1.377 . S
C155 C154 1.394 . S
H156 C163 0.929 . S
H157 C166 0.930 . S
H158 C168 0.929 . S
H159 C160 0.969 . S
C160 H159 0.969 . S
C160 O161 1.550 . S
C160 H162 0.973 . S
O161 C160 1.550 . S
O161 C167 1.412 . S
H162 C160 0.973 . S
C163 H156 0.929 . S
C163 C164 1.400 . S
C163 C165 1.364 . S
C164 C163 1.400 . S
C164 C168 1.377 . S
C165 C163 1.364 . S
C165 C166 1.374 . S
C166 H157 0.930 . S
C166 C165 1.374 . S
C166 C167 1.383 . S
C167 O161 1.412 . S
C167 C166 1.383 . S
C167 C168 1.394 . S
C168 H158 0.929 . S
C168 C164 1.377 . S
C168 C167 1.394 . S
H169 C176 0.929 . S
H170 C179 0.930 . S
H171 C181 0.929 . S
H172 C173 0.969 . S
C173 H172 0.969 . S
C173 O174 1.550 . S
C173 H175 0.973 . S
O174 C173 1.550 . S
O174 C180 1.412 . S
H175 C173 0.973 . S
C176 H169 0.929 . S
C176 C177 1.400 . S
C176 C178 1.364 . S
C177 C176 1.400 . S
C177 C181 1.377 . S
C178 C176 1.364 . S
C178 C179 1.374 . S
C179 H170 0.930 . S
C179 C178 1.374 . S
C179 C180 1.383 . S
C180 O174 1.412 . S
C180 C179 1.383 . S
C180 C181 1.394 . S
C181 H171 0.929 . S
C181 C177 1.377 . S
C181 C180 1.394 . S
H182 C189 0.929 . S
H183 C192 0.930 . S
H184 C194 0.929 . S
H185 C186 0.969 . S
C186 H185 0.969 . S
C186 O187 1.550 . S
C186 H188 0.973 . S
O187 C186 1.550 . S
O187 C193 1.412 . S
H188 C186 0.973 . S
C189 H182 0.929 . S
C189 C190 1.400 . S
C189 C191 1.364 . S
C190 C189 1.400 . S
C190 C194 1.377 . S
C191 C189 1.364 . S
C191 C192 1.374 . S
C192 H183 0.930 . S
C192 C191 1.374 . S
C192 C193 1.383 . S
C193 O187 1.412 . S
C193 C192 1.383 . S
C193 C194 1.394 . S
C194 H184 0.929 . S
C194 C190 1.377 . S
C194 C193 1.394 . S
H195 C202 0.929 . S
H196 C205 0.930 . S
H197 C207 0.929 . S
H198 C199 0.969 . S
C199 H198 0.969 . S
C199 O200 1.550 . S
C199 H201 0.973 . S
O200 C199 1.550 . S
O200 C206 1.412 . S
H201 C199 0.973 . S
C202 H195 0.929 . S
C202 C203 1.400 . S
C202 C204 1.364 . S
C203 C202 1.400 . S
C203 C207 1.377 . S
C204 C202 1.364 . S
C204 C205 1.374 . S
C205 H196 0.930 . S
C205 C204 1.374 . S
C205 C206 1.383 . S
C206 O200 1.412 . S
C206 C205 1.383 . S
C206 C207 1.394 . S
C207 H197 0.929 . S
C207 C203 1.377 . S
C207 C206 1.394 . S
H208 C215 0.929 . S
H209 C218 0.930 . S
H210 C220 0.929 . S
H211 C212 0.969 . S
C212 H211 0.969 . S
C212 O213 1.550 . S
C212 H214 0.973 . S
O213 C212 1.550 . S
O213 C219 1.412 . S
H214 C212 0.973 . S
C215 H208 0.929 . S
C215 C216 1.400 . S
C215 C217 1.364 . S
C216 C215 1.400 . S
C216 C220 1.377 . S
C217 C215 1.364 . S
C217 C218 1.374 . S
C218 H209 0.930 . S
C218 C217 1.374 . S
C218 C219 1.383 . S
C219 O213 1.412 . S
C219 C218 1.383 . S
C219 C220 1.394 . S
C220 H210 0.929 . S
C220 C216 1.377 . S
C220 C219 1.394 . S
H221 C228 0.929 . S
H222 C231 0.930 . S
H223 C233 0.929 . S
H224 C225 0.969 . S
C225 H224 0.969 . S
C225 O226 1.550 . S
C225 H227 0.973 . S
O226 C225 1.550 . S
O226 C232 1.412 . S
H227 C225 0.973 . S
C228 H221 0.929 . S
C228 C229 1.400 . S
C228 C230 1.364 . S
C229 C228 1.400 . S
C229 C233 1.377 . S
C230 C228 1.364 . S
C230 C231 1.374 . S
C231 H222 0.930 . S
C231 C230 1.374 . S
C231 C232 1.383 . S
C232 O226 1.412 . S
C232 C231 1.383 . S
C232 C233 1.394 . S
C233 H223 0.929 . S
C233 C229 1.377 . S
C233 C232 1.394 . S
H234 C241 0.929 . S
H235 C244 0.930 . S
H236 C246 0.929 . S
H237 C238 0.969 . S
C238 H237 0.969 . S
C238 O239 1.550 . S
C238 H240 0.973 . S
O239 C238 1.550 . S
O239 C245 1.412 . S
H240 C238 0.973 . S
C241 H234 0.929 . S
C241 C242 1.400 . S
C241 C243 1.364 . S
C242 C241 1.400 . S
C242 C246 1.377 . S
C243 C241 1.364 . S
C243 C244 1.374 . S
C244 H235 0.930 . S
C244 C243 1.374 . S
C244 C245 1.383 . S
C245 O239 1.412 . S
C245 C244 1.383 . S
C245 C246 1.394 . S
C246 H236 0.929 . S
C246 C242 1.377 . S
C246 C245 1.394 . S
H247 C254 0.929 . S
H248 C257 0.930 . S
H249 C259 0.929 . S
H250 C251 0.969 . S
C251 H250 0.969 . S
C251 O252 1.550 . S
C251 H253 0.973 . S
O252 C251 1.550 . S
O252 C258 1.412 . S
H253 C251 0.973 . S
C254 H247 0.929 . S
C254 C255 1.400 . S
C254 C256 1.364 . S
C255 C254 1.400 . S
C255 C259 1.377 . S
C256 C254 1.364 . S
C256 C257 1.374 . S
C257 H248 0.930 . S
C257 C256 1.374 . S
C257 C258 1.383 . S
C258 O252 1.412 . S
C258 C257 1.383 . S
C258 C259 1.394 . S
C259 H249 0.929 . S
C259 C255 1.377 . S
C259 C258 1.394 . S
H260 C267 0.929 . S
H261 C270 0.930 . S
H262 C272 0.929 . S
H263 C264 0.969 . S
C264 H263 0.969 . S
C264 O265 1.550 . S
C264 H266 0.973 . S
O265 C264 1.550 . S
O265 C271 1.412 . S
H266 C264 0.973 . S
C267 H260 0.929 . S
C267 C268 1.400 . S
C267 C269 1.364 . S
C268 C267 1.400 . S
C268 C272 1.377 . S
C269 C267 1.364 . S
C269 C270 1.374 . S
C270 H261 0.930 . S
C270 C269 1.374 . S
C270 C271 1.383 . S
C271 O265 1.412 . S
C271 C270 1.383 . S
C271 C272 1.394 . S
C272 H262 0.929 . S
C272 C268 1.377 . S
C272 C271 1.394 . S
H273 C280 0.929 . S
H274 C283 0.930 . S
H275 C285 0.929 . S
H276 C277 0.969 . S
C277 H276 0.969 . S
C277 O278 1.550 . S
C277 H279 0.973 . S
O278 C277 1.550 . S
O278 C284 1.412 . S
H279 C277 0.973 . S
C280 H273 0.929 . S
C280 C281 1.400 . S
C280 C282 1.364 . S
C281 C280 1.400 . S
C281 C285 1.377 . S
C282 C280 1.364 . S
C282 C283 1.374 . S
C283 H274 0.930 . S
C283 C282 1.374 . S
C283 C284 1.383 . S
C284 O278 1.412 . S
C284 C283 1.383 . S
C284 C285 1.394 . S
C285 H275 0.929 . S
C285 C281 1.377 . S
C285 C284 1.394 . S
H286 C293 0.929 . S
H287 C296 0.930 . S
H288 C298 0.929 . S
H289 C290 0.969 . S
C290 H289 0.969 . S
C290 O291 1.550 . S
C290 H292 0.973 . S
O291 C290 1.550 . S
O291 C297 1.412 . S
H292 C290 0.973 . S
C293 H286 0.929 . S
C293 C294 1.400 . S
C293 C295 1.364 . S
C294 C293 1.400 . S
C294 C298 1.377 . S
C295 C293 1.364 . S
C295 C296 1.374 . S
C296 H287 0.930 . S
C296 C295 1.374 . S
C296 C297 1.383 . S
C297 O291 1.412 . S
C297 C296 1.383 . S
C297 C298 1.394 . S
C298 H288 0.929 . S
C298 C294 1.377 . S
C298 C297 1.394 . S
H299 C306 0.929 . S
H300 C309 0.930 . S
H301 C311 0.929 . S
H302 C303 0.969 . S
C303 H302 0.969 . S
C303 O304 1.550 . S
C303 H305 0.973 . S
O304 C303 1.550 . S
O304 C310 1.412 . S
H305 C303 0.973 . S
C306 H299 0.929 . S
C306 C307 1.400 . S
C306 C308 1.364 . S
C307 C306 1.400 . S
C307 C311 1.377 . S
C308 C306 1.364 . S
C308 C309 1.374 . S
C309 H300 0.930 . S
C309 C308 1.374 . S
C309 C310 1.383 . S
C310 O304 1.412 . S
C310 C309 1.383 . S
C310 C311 1.394 . S
C311 H301 0.929 . S
C311 C307 1.377 . S
C311 C310 1.394 . S
H312 C319 0.929 . S
H313 C322 0.930 . S
H314 C324 0.929 . S
H315 C316 0.969 . S
C316 H315 0.969 . S
C316 O317 1.550 . S
C316 H318 0.973 . S
O317 C316 1.550 . S
O317 C323 1.412 . S
H318 C316 0.973 . S
C319 H312 0.929 . S
C319 C320 1.400 . S
C319 C321 1.364 . S
C320 C319 1.400 . S
C320 C324 1.377 . S
C321 C319 1.364 . S
C321 C322 1.374 . S
C322 H313 0.930 . S
C322 C321 1.374 . S
C322 C323 1.383 . S
C323 O317 1.412 . S
C323 C322 1.383 . S
C323 C324 1.394 . S
C324 H314 0.929 . S
C324 C320 1.377 . S
C324 C323 1.394 . S
H325 C332 0.929 . S
H326 C335 0.930 . S
H327 C337 0.929 . S
H328 C329 0.969 . S
C329 H328 0.969 . S
C329 O330 1.550 . S
C329 H331 0.973 . S
O330 C329 1.550 . S
O330 C336 1.412 . S
H331 C329 0.973 . S
C332 H325 0.929 . S
C332 C333 1.400 . S
C332 C334 1.364 . S
C333 C332 1.400 . S
C333 C337 1.377 . S
C334 C332 1.364 . S
C334 C335 1.374 . S
C335 H326 0.930 . S
C335 C334 1.374 . S
C335 C336 1.383 . S
C336 O330 1.412 . S
C336 C335 1.383 . S
C336 C337 1.394 . S
C337 H327 0.929 . S
C337 C333 1.377 . S
C337 C336 1.394 . S
H338 C345 0.929 . S
H339 C348 0.930 . S
H340 C350 0.929 . S
H341 C342 0.969 . S
C342 H341 0.969 . S
C342 O343 1.550 . S
C342 H344 0.973 . S
O343 C342 1.550 . S
O343 C349 1.412 . S
H344 C342 0.973 . S
C345 H338 0.929 . S
C345 C346 1.400 . S
C345 C347 1.364 . S
C346 C345 1.400 . S
C346 C350 1.377 . S
C347 C345 1.364 . S
C347 C348 1.374 . S
C348 H339 0.930 . S
C348 C347 1.374 . S
C348 C349 1.383 . S
C349 O343 1.412 . S
C349 C348 1.383 . S
C349 C350 1.394 . S
C350 H340 0.929 . S
C350 C346 1.377 . S
C350 C349 1.394 . S
H351 C358 0.929 . S
H352 C361 0.930 . S
H353 C363 0.929 . S
H354 C355 0.969 . S
C355 H354 0.969 . S
C355 O356 1.550 . S
C355 H357 0.973 . S
O356 C355 1.550 . S
O356 C362 1.412 . S
H357 C355 0.973 . S
C358 H351 0.929 . S
C358 C359 1.400 . S
C358 C360 1.364 . S
C359 C358 1.400 . S
C359 C363 1.377 . S
C360 C358 1.364 . S
C360 C361 1.374 . S
C361 H352 0.930 . S
C361 C360 1.374 . S
C361 C362 1.383 . S
C362 O356 1.412 . S
C362 C361 1.383 . S
C362 C363 1.394 . S
C363 H353 0.929 . S
C363 C359 1.377 . S
C363 C362 1.394 . S
H364 C371 0.929 . S
H365 C374 0.930 . S
H366 C376 0.929 . S
H367 C368 0.969 . S
C368 H367 0.969 . S
C368 O369 1.550 . S
C368 H370 0.973 . S
O369 C368 1.550 . S
O369 C375 1.412 . S
H370 C368 0.973 . S
C371 H364 0.929 . S
C371 C372 1.400 . S
C371 C373 1.364 . S
C372 C371 1.400 . S
C372 C376 1.377 . S
C373 C371 1.364 . S
C373 C374 1.374 . S
C374 H365 0.930 . S
C374 C373 1.374 . S
C374 C375 1.383 . S
C375 O369 1.412 . S
C375 C374 1.383 . S
C375 C376 1.394 . S
C376 H366 0.929 . S
C376 C372 1.377 . S
C376 C375 1.394 . S
H377 C384 0.929 . S
H378 C387 0.930 . S
H379 C389 0.929 . S
H380 C381 0.969 . S
C381 H380 0.969 . S
C381 O382 1.550 . S
C381 H383 0.973 . S
O382 C381 1.550 . S
O382 C388 1.412 . S
H383 C381 0.973 . S
C384 H377 0.929 . S
C384 C385 1.400 . S
C384 C386 1.364 . S
C385 C384 1.400 . S
C385 C389 1.377 . S
C386 C384 1.364 . S
C386 C387 1.374 . S
C387 H378 0.930 . S
C387 C386 1.374 . S
C387 C388 1.383 . S
C388 O382 1.412 . S
C388 C387 1.383 . S
C388 C389 1.394 . S
C389 H379 0.929 . S
C389 C385 1.377 . S
C389 C388 1.394 . S
H390 C397 0.929 . S
H391 C400 0.930 . S
H392 C402 0.929 . S
H393 C394 0.969 . S
C394 H393 0.969 . S
C394 O395 1.550 . S
C394 H396 0.973 . S
O395 C394 1.550 . S
O395 C401 1.412 . S
H396 C394 0.973 . S
C397 H390 0.929 . S
C397 C398 1.400 . S
C397 C399 1.364 . S
C398 C397 1.400 . S
C398 C402 1.377 . S
C399 C397 1.364 . S
C399 C400 1.374 . S
C400 H391 0.930 . S
C400 C399 1.374 . S
C400 C401 1.383 . S
C401 O395 1.412 . S
C401 C400 1.383 . S
C401 C402 1.394 . S
C402 H392 0.929 . S
C402 C398 1.377 . S
C402 C401 1.394 . S
H403 C410 0.929 . S
H404 C413 0.930 . S
H405 C415 0.929 . S
H406 C407 0.969 . S
C407 H406 0.969 . S
C407 O408 1.550 . S
C407 H409 0.973 . S
O408 C407 1.550 . S
O408 C414 1.412 . S
H409 C407 0.973 . S
C410 H403 0.929 . S
C410 C411 1.400 . S
C410 C412 1.364 . S
C411 C410 1.400 . S
C411 C415 1.377 . S
C412 C410 1.364 . S
C412 C413 1.374 . S
C413 H404 0.930 . S
C413 C412 1.374 . S
C413 C414 1.383 . S
C414 O408 1.412 . S
C414 C413 1.383 . S
C414 C415 1.394 . S
C415 H405 0.929 . S
C415 C411 1.377 . S
C415 C414 1.394 . S
Cu416 N417 1.999 . S
Cu416 O422 1.974 . S
Cu416 N427 1.985 . S
Cu416 O436 1.959 . S
N417 Cu416 1.999 . S
N417 C419 1.263 . S
N417 C421 1.389 . S
N418 C419 1.358 . S
N418 C420 1.400 . S
C419 N417 1.263 . S
C419 N418 1.358 . S
C419 H425 0.930 . S
C420 N418 1.400 . S
C420 C421 1.351 . S
C420 H437 0.930 . S
C421 N417 1.389 . S
C421 C420 1.351 . S
C421 H426 0.930 . S
O422 Cu416 1.974 . S
O422 C432 1.282 . S
C423 O424 1.261 . S
C423 O436 1.251 . S
O424 C423 1.261 . S
H425 C419 0.930 . S
H426 C421 0.930 . S
N427 Cu416 1.985 . S
N427 C429 1.335 . S
N427 C430 1.390 . S
N428 C429 1.345 . S
N428 C431 1.336 . S
C429 N427 1.335 . S
C429 N428 1.345 . S
C429 H434 0.930 . S
C430 N427 1.390 . S
C430 C431 1.346 . S
C430 H435 0.930 . S
C431 N428 1.336 . S
C431 C430 1.346 . S
C431 H438 0.929 . S
C432 O422 1.282 . S
C432 O433 1.216 . S
O433 C432 1.216 . S
H434 C429 0.930 . S
H435 C430 0.930 . S
O436 Cu416 1.959 . S
O436 C423 1.251 . S
H437 C420 0.930 . S
H438 C431 0.929 . S
Cu439 N440 1.999 . S
Cu439 O445 1.974 . S
Cu439 N450 1.985 . S
Cu439 O459 1.959 1_554 S
N440 Cu439 1.999 . S
N440 C442 1.263 . S
N440 C444 1.389 . S
N441 C442 1.358 . S
N441 C443 1.400 . S
C442 N440 1.263 . S
C442 N441 1.358 . S
C442 H448 0.930 . S
C443 N441 1.400 . S
C443 C444 1.351 . S
C443 H460 0.930 . S
C444 N440 1.389 . S
C444 C443 1.351 . S
C444 H449 0.930 . S
O445 Cu439 1.974 . S
O445 C455 1.282 . S
C446 O447 1.261 1_556 S
C446 O459 1.251 . S
O447 C446 1.261 1_554 S
H448 C442 0.930 . S
H449 C444 0.930 . S
N450 Cu439 1.985 . S
N450 C452 1.335 1_554 S
N450 C453 1.390 . S
N451 C452 1.345 . S
N451 C454 1.336 . S
C452 N450 1.335 1_556 S
C452 N451 1.345 . S
C452 H457 0.930 . S
C453 N450 1.390 . S
C453 C454 1.346 1_554 S
C453 H458 0.930 . S
C454 N451 1.336 . S
C454 C453 1.346 1_556 S
C454 H461 0.929 . S
C455 O445 1.282 . S
C455 O456 1.216 . S
O456 C455 1.216 . S
H457 C452 0.930 . S
H458 C453 0.930 . S
O459 Cu439 1.959 1_556 S
O459 C446 1.251 . S
H460 C443 0.930 . S
H461 C454 0.929 . S
Cu462 N463 1.999 . S
Cu462 O468 1.974 . S
Cu462 N473 1.985 . S
Cu462 O482 1.959 . S
N463 Cu462 1.999 . S
N463 C465 1.294 . S
N463 C467 1.389 . S
N464 C465 1.343 1_556 S
N464 C466 1.400 1_556 S
C465 N463 1.294 . S
C465 N464 1.343 1_554 S
C465 H471 0.917 1_554 S
C466 N464 1.400 1_554 S
C466 C467 1.351 . S
C466 H483 0.930 . S
C467 N463 1.389 . S
C467 C466 1.351 . S
C467 H472 0.930 . S
O468 Cu462 1.974 . S
O468 C478 1.282 . S
C469 O470 1.261 . S
C469 O482 1.251 . S
O470 C469 1.261 . S
H471 C465 0.917 1_556 S
H472 C467 0.930 . S
N473 Cu462 1.985 . S
N473 C475 1.335 . S
N473 C476 1.390 . S
N474 C475 1.345 . S
N474 C477 1.336 . S
C475 N473 1.335 . S
C475 N474 1.345 . S
C475 H480 0.930 . S
C476 N473 1.390 . S
C476 C477 1.346 . S
C476 H481 0.930 . S
C477 N474 1.336 . S
C477 C476 1.346 . S
C477 H484 0.929 . S
C478 O468 1.282 . S
C478 O479 1.216 . S
O479 C478 1.216 . S
H480 C475 0.930 . S
H481 C476 0.930 . S
O482 Cu462 1.959 . S
O482 C469 1.251 . S
H483 C466 0.930 . S
H484 C477 0.929 . S
Cu485 N486 1.999 1_556 S
Cu485 O491 1.974 1_556 S
Cu485 N496 1.985 . S
Cu485 O505 1.959 . S
N486 Cu485 1.999 1_554 S
N486 C488 1.263 . S
N486 C490 1.389 . S
N487 C488 1.358 . S
N487 C489 1.400 . S
C488 N486 1.263 . S
C488 N487 1.358 . S
C488 H494 0.930 . S
C489 N487 1.400 . S
C489 C490 1.351 . S
C489 H506 0.930 . S
C490 N486 1.389 . S
C490 C489 1.351 . S
C490 H495 0.956 . S
O491 Cu485 1.974 1_554 S
O491 C501 1.282 . S
C492 O493 1.261 . S
C492 O505 1.251 . S
O493 C492 1.261 . S
H494 C488 0.930 . S
H495 C490 0.956 . S
N496 Cu485 1.985 . S
N496 C498 1.335 . S
N496 C499 1.390 . S
N497 C498 1.345 . S
N497 C500 1.336 . S
C498 N496 1.335 . S
C498 N497 1.345 . S
C498 H503 0.930 . S
C499 N496 1.390 . S
C499 C500 1.346 . S
C499 H504 0.980 . S
C500 N497 1.336 . S
C500 C499 1.346 . S
C500 H507 0.929 . S
C501 O491 1.282 . S
C501 O502 1.216 . S
O502 C501 1.216 . S
H503 C498 0.930 . S
H504 C499 0.980 . S
O505 Cu485 1.959 . S
O505 C492 1.251 . S
H506 C489 0.930 . S
H507 C500 0.929 . S
Cu508 N509 1.999 . S
Cu508 O514 1.974 . S
Cu508 N519 1.985 1_455 S
Cu508 O528 1.959 1_455 S
N509 Cu508 1.999 . S
N509 C511 1.263 . S
N509 C513 1.389 . S
N510 C511 1.358 . S
N510 C512 1.400 . S
C511 N509 1.263 . S
C511 N510 1.358 . S
C511 H517 0.930 . S
C512 N510 1.400 . S
C512 C513 1.351 . S
C512 H529 0.930 . S
C513 N509 1.389 . S
C513 C512 1.351 . S
C513 H518 0.930 . S
O514 Cu508 1.974 . S
O514 C524 1.282 . S
C515 O516 1.261 . S
C515 O528 1.251 . S
O516 C515 1.261 . S
H517 C511 0.930 . S
H518 C513 0.930 . S
N519 Cu508 1.985 1_655 S
N519 C521 1.335 . S
N519 C522 1.390 1_655 S
N520 C521 1.345 . S
N520 C523 1.336 . S
C521 N519 1.335 . S
C521 N520 1.345 . S
C521 H526 0.930 . S
C522 N519 1.390 1_455 S
C522 C523 1.346 1_455 S
C522 H527 0.930 . S
C523 N520 1.336 . S
C523 C522 1.346 1_655 S
C523 H530 0.929 . S
C524 O514 1.282 . S
C524 O525 1.216 . S
O525 C524 1.216 . S
H526 C521 0.930 . S
H527 C522 0.930 . S
O528 Cu508 1.959 1_655 S
O528 C515 1.251 . S
H529 C512 0.930 . S
H530 C523 0.929 . S
Cu531 N532 1.999 . S
Cu531 O537 1.974 . S
Cu531 N542 1.985 . S
Cu531 O551 1.959 . S
N532 Cu531 1.999 . S
N532 C534 1.263 . S
N532 C536 1.389 . S
N533 C534 1.358 . S
N533 C535 1.400 . S
C534 N532 1.263 . S
C534 N533 1.358 . S
C534 H540 0.930 . S
C535 N533 1.400 . S
C535 C536 1.351 . S
C535 H552 0.930 . S
C536 N532 1.389 . S
C536 C535 1.351 . S
C536 H541 0.930 . S
O537 Cu531 1.974 . S
O537 C547 1.282 . S
C538 O539 1.261 . S
C538 O551 1.251 . S
O539 C538 1.261 . S
H540 C534 0.930 . S
H541 C536 0.930 . S
N542 Cu531 1.985 . S
N542 C544 1.335 1_545 S
N542 C545 1.390 . S
N543 C544 1.345 . S
N543 C546 1.336 . S
C544 N542 1.335 1_565 S
C544 N543 1.345 . S
C544 H549 0.930 . S
C545 N542 1.390 . S
C545 C546 1.346 1_545 S
C545 H550 0.930 . S
C546 N543 1.336 . S
C546 C545 1.346 1_565 S
C546 H553 0.929 . S
C547 O537 1.282 . S
C547 O548 1.216 . S
O548 C547 1.216 . S
H549 C544 0.930 . S
H550 C545 0.930 . S
O551 Cu531 1.959 . S
O551 C538 1.251 . S
H552 C535 0.930 . S
H553 C546 0.929 . S
Cu554 N555 2.009 . S
Cu554 O560 1.985 . S
Cu554 N565 1.975 1_655 S
Cu554 O574 1.948 1_655 S
N555 Cu554 2.009 . S
N555 C557 1.263 . S
N555 C559 1.389 . S
N556 C557 1.358 . S
N556 C558 1.400 . S
C557 N555 1.263 . S
C557 N556 1.358 . S
C557 H563 0.930 . S
C558 N556 1.400 . S
C558 C559 1.351 . S
C558 H575 0.930 . S
C559 N555 1.389 . S
C559 C558 1.351 . S
C559 H564 0.930 . S
O560 Cu554 1.985 . S
O560 C570 1.282 . S
C561 O562 1.261 . S
C561 O574 1.251 . S
O562 C561 1.261 . S
H563 C557 0.930 . S
H564 C559 0.930 . S
N565 Cu554 1.975 1_455 S
N565 C567 1.335 . S
N565 C568 1.390 . S
N566 C567 1.345 . S
N566 C569 1.336 . S
C567 N565 1.335 . S
C567 N566 1.345 . S
C567 H572 0.930 . S
C568 N565 1.390 . S
C568 C569 1.346 . S
C568 H573 0.930 . S
C569 N566 1.336 . S
C569 C568 1.346 . S
C569 H576 0.929 . S
C570 O560 1.282 . S
C570 O571 1.216 . S
O571 C570 1.216 . S
H572 C567 0.930 . S
H573 C568 0.930 . S
O574 Cu554 1.948 1_455 S
O574 C561 1.251 . S
H575 C558 0.930 . S
H576 C569 0.929 . S
Cu577 N578 2.036 . S
Cu577 O583 2.021 . S
Cu577 N588 1.951 1_545 S
Cu577 O597 1.913 1_545 S
N578 Cu577 2.036 . S
N578 C580 1.263 . S
N578 C582 1.389 . S
N579 C580 1.358 . S
N579 C581 1.400 . S
C580 N578 1.263 . S
C580 N579 1.358 . S
C580 H586 0.930 . S
C581 N579 1.400 . S
C581 C582 1.351 . S
C581 H598 0.930 . S
C582 N578 1.389 . S
C582 C581 1.351 . S
C582 H587 0.930 . S
O583 Cu577 2.021 . S
O583 C593 1.282 . S
C584 O585 1.261 . S
C584 O597 1.251 . S
O585 C584 1.261 . S
H586 C580 0.930 . S
H587 C582 0.930 . S
N588 Cu577 1.951 1_565 S
N588 C590 1.335 . S
N588 C591 1.390 . S
N589 C590 1.345 . S
N589 C592 1.336 . S
C590 N588 1.335 . S
C590 N589 1.345 . S
C590 H595 0.930 . S
C591 N588 1.390 . S
C591 C592 1.346 . S
C591 H596 0.930 . S
C592 N589 1.336 . S
C592 C591 1.346 . S
C592 H599 0.929 . S
C593 O583 1.282 . S
C593 O594 1.216 . S
O594 C593 1.216 . S
H595 C590 0.930 . S
H596 C591 0.930 . S
O597 Cu577 1.913 1_565 S
O597 C584 1.251 . S
H598 C581 0.930 . S
H599 C592 0.929 . S
Cu600 N601 1.999 . S
Cu600 O606 1.974 . S
Cu600 N611 1.981 . S
Cu600 O620 1.959 1_455 S
N601 Cu600 1.999 . S
N601 C603 1.263 . S
N601 C605 1.389 . S
N602 C603 1.358 . S
N602 C604 1.400 . S
C603 N601 1.263 . S
C603 N602 1.358 . S
C603 H609 0.930 . S
C604 N602 1.400 . S
C604 C605 1.351 . S
C604 H621 0.930 . S
C605 N601 1.389 . S
C605 C604 1.351 . S
C605 H610 0.930 . S
O606 Cu600 1.974 . S
O606 C616 1.282 . S
C607 O608 1.261 . S
C607 O620 1.251 . S
O608 C607 1.261 . S
H609 C603 0.930 . S
H610 C605 0.930 . S
N611 Cu600 1.981 . S
N611 C613 1.340 1_455 S
N611 C614 1.389 . S
N612 C613 1.345 . S
N612 C615 1.336 . S
C613 N611 1.340 1_655 S
C613 N612 1.345 . S
C613 H618 0.930 . S
C614 N611 1.389 . S
C614 C615 1.346 1_455 S
C614 H619 0.930 . S
C615 N612 1.336 . S
C615 C614 1.346 1_655 S
C615 H622 0.929 . S
C616 O606 1.282 . S
C616 O617 1.216 . S
O617 C616 1.216 . S
H618 C613 0.930 . S
H619 C614 0.930 . S
O620 Cu600 1.959 1_655 S
O620 C607 1.251 . S
H621 C604 0.930 . S
H622 C615 0.929 . S
Cu623 N624 1.999 . S
Cu623 O629 1.974 . S
Cu623 N634 1.985 . S
Cu623 O643 1.959 . S
N624 Cu623 1.999 . S
N624 C626 1.263 . S
N624 C628 1.389 . S
N625 C626 1.358 . S
N625 C627 1.400 . S
C626 N624 1.263 . S
C626 N625 1.358 . S
C626 H632 0.930 . S
C627 N625 1.400 . S
C627 C628 1.351 . S
C627 H644 0.930 . S
C628 N624 1.389 . S
C628 C627 1.351 . S
C628 H633 0.930 . S
O629 Cu623 1.974 . S
O629 C639 1.282 . S
C630 O631 1.261 . S
C630 O643 1.251 . S
O631 C630 1.261 . S
H632 C626 0.930 . S
H633 C628 0.930 . S
N634 Cu623 1.985 . S
N634 C636 1.335 . S
N634 C637 1.390 . S
N635 C636 1.345 . S
N635 C638 1.336 . S
C636 N634 1.335 . S
C636 N635 1.345 . S
C636 H641 0.930 . S
C637 N634 1.390 . S
C637 C638 1.346 . S
C637 H642 0.930 . S
C638 N635 1.336 . S
C638 C637 1.346 . S
C638 H645 0.929 . S
C639 O629 1.282 . S
C639 O640 1.216 . S
O640 C639 1.216 . S
H641 C636 0.930 . S
H642 C637 0.930 . S
O643 Cu623 1.959 . S
O643 C630 1.251 . S
H644 C627 0.930 . S
H645 C638 0.929 . S
Cu646 N647 1.999 . S
Cu646 O652 1.964 1_455 S
Cu646 N657 1.985 . S
Cu646 O666 1.959 . S
N647 Cu646 1.999 . S
N647 C649 1.263 1_455 S
N647 C651 1.389 . S
N648 C649 1.358 . S
N648 C650 1.400 . S
C649 N647 1.263 1_655 S
C649 N648 1.358 . S
C649 H655 0.930 . S
C650 N648 1.400 . S
C650 C651 1.351 1_655 S
C650 H667 0.930 . S
C651 N647 1.389 . S
C651 C650 1.351 1_455 S
C651 H656 0.930 . S
O652 Cu646 1.964 1_655 S
O652 C662 1.287 . S
C653 O654 1.261 . S
C653 O666 1.251 . S
O654 C653 1.261 . S
H655 C649 0.930 . S
H656 C651 0.930 . S
N657 Cu646 1.985 . S
N657 C659 1.335 . S
N657 C660 1.390 . S
N658 C659 1.345 . S
N658 C661 1.336 . S
C659 N657 1.335 . S
C659 N658 1.345 . S
C659 H664 0.930 . S
C660 N657 1.390 . S
C660 C661 1.346 . S
C660 H665 0.930 . S
C661 N658 1.336 . S
C661 C660 1.346 . S
C661 H668 0.929 . S
C662 O652 1.287 . S
C662 O663 1.216 1_655 S
O663 C662 1.216 1_455 S
H664 C659 0.930 . S
H665 C660 0.930 . S
O666 Cu646 1.959 . S
O666 C653 1.251 . S
H667 C650 0.930 . S
H668 C661 0.929 . S
Cu669 N670 1.999 . S
Cu669 O675 1.974 . S
Cu669 N680 1.985 1_545 S
Cu669 O689 1.976 . S
N670 Cu669 1.999 . S
N670 C672 1.263 . S
N670 C674 1.389 . S
N671 C672 1.358 . S
N671 C673 1.400 . S
C672 N670 1.263 . S
C672 N671 1.358 . S
C672 H678 0.930 . S
C673 N671 1.400 . S
C673 C674 1.351 . S
C673 H690 0.930 . S
C674 N670 1.389 . S
C674 C673 1.351 . S
C674 H679 0.930 . S
O675 Cu669 1.974 . S
O675 C685 1.282 . S
C676 O677 1.286 . S
C676 O689 1.243 1_565 S
O677 C676 1.286 . S
H678 C672 0.930 . S
H679 C674 0.930 . S
N680 Cu669 1.985 1_565 S
N680 C682 1.335 . S
N680 C683 1.392 . S
N681 C682 1.345 . S
N681 C684 1.336 . S
C682 N680 1.335 . S
C682 N681 1.345 . S
C682 H687 0.930 . S
C683 N680 1.392 . S
C683 C684 1.353 . S
C683 H688 0.923 1_565 S
C684 N681 1.336 . S
C684 C683 1.353 . S
C684 H691 0.929 . S
C685 O675 1.282 . S
C685 O686 1.216 . S
O686 C685 1.216 . S
H687 C682 0.930 . S
H688 C683 0.923 1_545 S
O689 Cu669 1.976 . S
O689 C676 1.243 1_545 S
H690 C673 0.930 . S
H691 C684 0.929 . S
Cu692 N693 1.999 . S
Cu692 O698 1.974 . S
Cu692 N703 1.985 . S
Cu692 O712 1.959 . S
N693 Cu692 1.999 . S
N693 C695 1.263 . S
N693 C697 1.389 . S
N694 C695 1.358 . S
N694 C696 1.400 . S
C695 N693 1.263 . S
C695 N694 1.358 . S
C695 H701 0.930 . S
C696 N694 1.400 . S
C696 C697 1.351 . S
C696 H713 0.930 . S
C697 N693 1.389 . S
C697 C696 1.351 . S
C697 H702 0.930 . S
O698 Cu692 1.974 . S
O698 C708 1.282 . S
C699 O700 1.261 . S
C699 O712 1.251 . S
O700 C699 1.261 . S
H701 C695 0.930 . S
H702 C697 0.930 . S
N703 Cu692 1.985 . S
N703 C705 1.335 . S
N703 C706 1.390 . S
N704 C705 1.345 . S
N704 C707 1.336 . S
C705 N703 1.335 . S
C705 N704 1.345 . S
C705 H710 0.930 . S
C706 N703 1.390 . S
C706 C707 1.346 . S
C706 H711 0.930 . S
C707 N704 1.336 . S
C707 C706 1.346 . S
C707 H714 0.929 . S
C708 O698 1.282 . S
C708 O709 1.216 . S
O709 C708 1.216 . S
H710 C705 0.930 . S
H711 C706 0.930 . S
O712 Cu692 1.959 . S
O712 C699 1.251 . S
H713 C696 0.930 . S
H714 C707 0.929 . S
Cu715 N716 1.999 . S
Cu715 O721 1.974 . S
Cu715 N726 1.985 . S
Cu715 O735 1.959 . S
N716 Cu715 1.999 . S
N716 C718 1.263 . S
N716 C720 1.389 . S
N717 C718 1.358 . S
N717 C719 1.400 . S
C718 N716 1.263 . S
C718 N717 1.358 . S
C718 H724 0.930 . S
C719 N717 1.400 . S
C719 C720 1.351 . S
C719 H736 0.930 . S
C720 N716 1.389 . S
C720 C719 1.351 . S
C720 H725 0.930 . S
O721 Cu715 1.974 . S
O721 C731 1.282 . S
C722 O723 1.261 . S
C722 O735 1.251 . S
O723 C722 1.261 . S
H724 C718 0.930 . S
H725 C720 0.930 . S
N726 Cu715 1.985 . S
N726 C728 1.335 . S
N726 C729 1.390 . S
N727 C728 1.345 . S
N727 C730 1.336 . S
C728 N726 1.335 . S
C728 N727 1.345 . S
C728 H733 0.930 . S
C729 N726 1.390 . S
C729 C730 1.346 . S
C729 H734 0.930 . S
C730 N727 1.336 . S
C730 C729 1.346 . S
C730 H737 0.929 . S
C731 O721 1.282 . S
C731 O732 1.216 . S
O732 C731 1.216 . S
H733 C728 0.930 . S
H734 C729 0.930 . S
O735 Cu715 1.959 . S
O735 C722 1.251 . S
H736 C719 0.930 . S
H737 C730 0.929 . S
Cu738 N739 1.999 . S
Cu738 O744 1.974 . S
Cu738 N749 1.985 . S
Cu738 O758 1.959 . S
N739 Cu738 1.999 . S
N739 C741 1.263 . S
N739 C743 1.389 . S
N740 C741 1.358 . S
N740 C742 1.400 . S
C741 N739 1.263 . S
C741 N740 1.358 . S
C741 H747 0.930 . S
C742 N740 1.400 . S
C742 C743 1.351 . S
C742 H759 0.930 . S
C743 N739 1.389 . S
C743 C742 1.351 . S
C743 H748 0.930 . S
O744 Cu738 1.974 . S
O744 C754 1.282 . S
C745 O746 1.261 . S
C745 O758 1.251 . S
O746 C745 1.261 . S
H747 C741 0.930 . S
H748 C743 0.930 . S
N749 Cu738 1.985 . S
N749 C751 1.335 . S
N749 C752 1.390 . S
N750 C751 1.345 . S
N750 C753 1.336 . S
C751 N749 1.335 . S
C751 N750 1.345 . S
C751 H756 0.930 . S
C752 N749 1.390 . S
C752 C753 1.346 . S
C752 H757 0.930 . S
C753 N750 1.336 . S
C753 C752 1.346 . S
C753 H760 0.929 . S
C754 O744 1.282 . S
C754 O755 1.216 . S
O755 C754 1.216 . S
H756 C751 0.930 . S
H757 C752 0.930 . S
O758 Cu738 1.959 . S
O758 C745 1.251 . S
H759 C742 0.930 . S
H760 C753 0.929 . S
Cu761 N762 1.999 . S
Cu761 O767 1.974 . S
Cu761 N772 1.985 . S
Cu761 O781 1.959 . S
N762 Cu761 1.999 . S
N762 C764 1.263 . S
N762 C766 1.389 . S
N763 C764 1.358 . S
N763 C765 1.400 . S
C764 N762 1.263 . S
C764 N763 1.358 . S
C764 H770 0.930 . S
C765 N763 1.400 . S
C765 C766 1.351 . S
C765 H782 0.930 . S
C766 N762 1.389 . S
C766 C765 1.351 . S
C766 H771 0.930 . S
O767 Cu761 1.974 . S
O767 C777 1.282 . S
C768 O769 1.261 . S
C768 O781 1.251 . S
O769 C768 1.261 . S
H770 C764 0.930 . S
H771 C766 0.930 . S
N772 Cu761 1.985 . S
N772 C774 1.335 . S
N772 C775 1.390 . S
N773 C774 1.345 . S
N773 C776 1.336 . S
C774 N772 1.335 . S
C774 N773 1.345 . S
C774 H779 0.930 . S
C775 N772 1.390 . S
C775 C776 1.346 . S
C775 H780 0.930 . S
C776 N773 1.336 . S
C776 C775 1.346 . S
C776 H783 0.929 . S
C777 O767 1.282 . S
C777 O778 1.216 . S
O778 C777 1.216 . S
H779 C774 0.930 . S
H780 C775 0.930 . S
O781 Cu761 1.959 . S
O781 C768 1.251 . S
H782 C765 0.930 . S
H783 C776 0.929 . S
Cu784 N785 1.999 . S
Cu784 O790 1.974 . S
Cu784 N795 1.985 . S
Cu784 O804 1.959 . S
N785 Cu784 1.999 . S
N785 C787 1.263 . S
N785 C789 1.389 . S
N786 C787 1.358 . S
N786 C788 1.400 . S
C787 N785 1.263 . S
C787 N786 1.358 . S
C787 H793 0.930 . S
C788 N786 1.400 . S
C788 C789 1.351 . S
C788 H805 0.930 . S
C789 N785 1.389 . S
C789 C788 1.351 . S
C789 H794 0.930 . S
O790 Cu784 1.974 . S
O790 C800 1.282 . S
C791 O792 1.261 . S
C791 O804 1.251 . S
O792 C791 1.261 . S
H793 C787 0.930 . S
H794 C789 0.930 . S
N795 Cu784 1.985 . S
N795 C797 1.335 . S
N795 C798 1.390 . S
N796 C797 1.345 . S
N796 C799 1.336 . S
C797 N795 1.335 . S
C797 N796 1.345 . S
C797 H802 0.930 . S
C798 N795 1.390 . S
C798 C799 1.346 . S
C798 H803 0.930 . S
C799 N796 1.336 . S
C799 C798 1.346 . S
C799 H806 0.929 . S
C800 O790 1.282 . S
C800 O801 1.216 . S
O801 C800 1.216 . S
H802 C797 0.930 . S
H803 C798 0.930 . S
O804 Cu784 1.959 . S
O804 C791 1.251 . S
H805 C788 0.930 . S
H806 C799 0.929 . S
Cu807 N808 1.999 . S
Cu807 O813 1.974 . S
Cu807 N818 1.985 . S
Cu807 O827 1.959 . S
N808 Cu807 1.999 . S
N808 C810 1.263 . S
N808 C812 1.389 . S
N809 C810 1.358 . S
N809 C811 1.400 . S
C810 N808 1.263 . S
C810 N809 1.358 . S
C810 H816 0.930 . S
C811 N809 1.400 . S
C811 C812 1.351 . S
C811 H828 0.930 . S
C812 N808 1.389 . S
C812 C811 1.351 . S
C812 H817 0.930 . S
O813 Cu807 1.974 . S
O813 C823 1.282 . S
C814 O815 1.261 . S
C814 O827 1.251 . S
O815 C814 1.261 . S
H816 C810 0.930 . S
H817 C812 0.930 . S
N818 Cu807 1.985 . S
N818 C820 1.335 . S
N818 C821 1.390 . S
N819 C820 1.345 . S
N819 C822 1.336 . S
C820 N818 1.335 . S
C820 N819 1.345 . S
C820 H825 0.930 . S
C821 N818 1.390 . S
C821 C822 1.346 . S
C821 H826 0.930 . S
C822 N819 1.336 . S
C822 C821 1.346 . S
C822 H829 0.929 . S
C823 O813 1.282 . S
C823 O824 1.216 . S
O824 C823 1.216 . S
H825 C820 0.930 . S
H826 C821 0.930 . S
O827 Cu807 1.959 . S
O827 C814 1.251 . S
H828 C811 0.930 . S
H829 C822 0.929 . S
Cu830 N831 1.999 . S
Cu830 O836 1.974 . S
Cu830 N841 1.985 . S
Cu830 O850 1.959 . S
N831 Cu830 1.999 . S
N831 C833 1.263 . S
N831 C835 1.389 . S
N832 C833 1.358 . S
N832 C834 1.400 . S
C833 N831 1.263 . S
C833 N832 1.358 . S
C833 H839 0.930 . S
C834 N832 1.400 . S
C834 C835 1.351 . S
C834 H851 0.930 . S
C835 N831 1.389 . S
C835 C834 1.351 . S
C835 H840 0.930 . S
O836 Cu830 1.974 . S
O836 C846 1.282 . S
C837 O838 1.261 . S
C837 O850 1.251 . S
O838 C837 1.261 . S
H839 C833 0.930 . S
H840 C835 0.930 . S
N841 Cu830 1.985 . S
N841 C843 1.335 . S
N841 C844 1.390 . S
N842 C843 1.345 . S
N842 C845 1.336 . S
C843 N841 1.335 . S
C843 N842 1.345 . S
C843 H848 0.930 . S
C844 N841 1.390 . S
C844 C845 1.346 . S
C844 H849 0.930 . S
C845 N842 1.336 . S
C845 C844 1.346 . S
C845 H852 0.929 . S
C846 O836 1.282 . S
C846 O847 1.216 . S
O847 C846 1.216 . S
H848 C843 0.930 . S
H849 C844 0.930 . S
O850 Cu830 1.959 . S
O850 C837 1.251 . S
H851 C834 0.930 . S
H852 C845 0.929 . S
Cu853 N854 1.999 . S
Cu853 O859 1.974 . S
Cu853 N864 1.985 . S
Cu853 O873 1.959 . S
N854 Cu853 1.999 . S
N854 C856 1.263 . S
N854 C858 1.389 . S
N855 C856 1.358 . S
N855 C857 1.400 . S
C856 N854 1.263 . S
C856 N855 1.358 . S
C856 H862 0.930 . S
C857 N855 1.400 . S
C857 C858 1.351 . S
C857 H874 0.930 . S
C858 N854 1.389 . S
C858 C857 1.351 . S
C858 H863 0.930 . S
O859 Cu853 1.974 . S
O859 C869 1.282 . S
C860 O861 1.261 . S
C860 O873 1.251 . S
O861 C860 1.261 . S
H862 C856 0.930 . S
H863 C858 0.930 . S
N864 Cu853 1.985 . S
N864 C866 1.335 . S
N864 C867 1.390 . S
N865 C866 1.345 . S
N865 C868 1.336 . S
C866 N864 1.335 . S
C866 N865 1.345 . S
C866 H871 0.930 . S
C867 N864 1.390 . S
C867 C868 1.346 . S
C867 H872 0.930 . S
C868 N865 1.336 . S
C868 C867 1.346 . S
C868 H875 0.929 . S
C869 O859 1.282 . S
C869 O870 1.216 . S
O870 C869 1.216 . S
H871 C866 0.930 . S
H872 C867 0.930 . S
O873 Cu853 1.959 . S
O873 C860 1.251 . S
H874 C857 0.930 . S
H875 C868 0.929 . S
Cu876 N877 1.999 . S
Cu876 O882 1.974 . S
Cu876 N887 1.985 . S
Cu876 O896 1.959 . S
N877 Cu876 1.999 . S
N877 C879 1.263 . S
N877 C881 1.389 . S
N878 C879 1.358 . S
N878 C880 1.400 . S
C879 N877 1.263 . S
C879 N878 1.358 . S
C879 H885 0.930 . S
C880 N878 1.400 . S
C880 C881 1.351 . S
C880 H897 0.930 . S
C881 N877 1.389 . S
C881 C880 1.351 . S
C881 H886 0.930 . S
O882 Cu876 1.974 . S
O882 C892 1.282 . S
C883 O884 1.261 . S
C883 O896 1.251 . S
O884 C883 1.261 . S
H885 C879 0.930 . S
H886 C881 0.930 . S
N887 Cu876 1.985 . S
N887 C889 1.335 . S
N887 C890 1.390 . S
N888 C889 1.345 . S
N888 C891 1.336 . S
C889 N887 1.335 . S
C889 N888 1.345 . S
C889 H894 0.930 . S
C890 N887 1.390 . S
C890 C891 1.346 . S
C890 H895 0.930 . S
C891 N888 1.336 . S
C891 C890 1.346 . S
C891 H898 0.929 . S
C892 O882 1.282 . S
C892 O893 1.216 . S
O893 C892 1.216 . S
H894 C889 0.930 . S
H895 C890 0.930 . S
O896 Cu876 1.959 . S
O896 C883 1.251 . S
H897 C880 0.930 . S
H898 C891 0.929 . S
Cu899 N900 1.999 . S
Cu899 O905 1.974 . S
Cu899 N910 1.985 . S
Cu899 O919 1.959 . S
N900 Cu899 1.999 . S
N900 C902 1.263 . S
N900 C904 1.389 . S
N901 C902 1.358 . S
N901 C903 1.400 . S
C902 N900 1.263 . S
C902 N901 1.358 . S
C902 H908 0.930 . S
C903 N901 1.400 . S
C903 C904 1.351 . S
C903 H920 0.930 . S
C904 N900 1.389 . S
C904 C903 1.351 . S
C904 H909 0.930 . S
O905 Cu899 1.974 . S
O905 C915 1.282 . S
C906 O907 1.261 . S
C906 O919 1.251 . S
O907 C906 1.261 . S
H908 C902 0.930 . S
H909 C904 0.930 . S
N910 Cu899 1.985 . S
N910 C912 1.335 . S
N910 C913 1.390 . S
N911 C912 1.345 . S
N911 C914 1.336 . S
C912 N910 1.335 . S
C912 N911 1.345 . S
C912 H917 0.930 . S
C913 N910 1.390 . S
C913 C914 1.346 . S
C913 H918 0.930 . S
C914 N911 1.336 . S
C914 C913 1.346 . S
C914 H921 0.929 . S
C915 O905 1.282 . S
C915 O916 1.216 . S
O916 C915 1.216 . S
H917 C912 0.930 . S
H918 C913 0.930 . S
O919 Cu899 1.959 . S
O919 C906 1.251 . S
H920 C903 0.930 . S
H921 C914 0.929 . S
Cu922 N923 1.999 . S
Cu922 O928 1.974 . S
Cu922 N933 1.985 . S
Cu922 O942 1.959 . S
N923 Cu922 1.999 . S
N923 C925 1.263 . S
N923 C927 1.389 . S
N924 C925 1.358 . S
N924 C926 1.400 . S
C925 N923 1.263 . S
C925 N924 1.358 . S
C925 H931 0.930 . S
C926 N924 1.400 . S
C926 C927 1.351 . S
C926 H943 0.930 . S
C927 N923 1.389 . S
C927 C926 1.351 . S
C927 H932 0.930 . S
O928 Cu922 1.974 . S
O928 C938 1.282 . S
C929 O930 1.261 . S
C929 O942 1.251 . S
O930 C929 1.261 . S
H931 C925 0.930 . S
H932 C927 0.930 . S
N933 Cu922 1.985 . S
N933 C935 1.335 . S
N933 C936 1.390 . S
N934 C935 1.345 . S
N934 C937 1.336 . S
C935 N933 1.335 . S
C935 N934 1.345 . S
C935 H940 0.930 . S
C936 N933 1.390 . S
C936 C937 1.346 . S
C936 H941 0.930 . S
C937 N934 1.336 . S
C937 C936 1.346 . S
C937 H944 0.929 . S
C938 O928 1.282 . S
C938 O939 1.216 . S
O939 C938 1.216 . S
H940 C935 0.930 . S
H941 C936 0.930 . S
O942 Cu922 1.959 . S
O942 C929 1.251 . S
H943 C926 0.930 . S
H944 C937 0.929 . S
Cu945 N946 1.999 . S
Cu945 O951 1.974 . S
Cu945 N956 1.985 . S
Cu945 O965 1.959 . S
N946 Cu945 1.999 . S
N946 C948 1.263 . S
N946 C950 1.389 . S
N947 C948 1.358 . S
N947 C949 1.400 . S
C948 N946 1.263 . S
C948 N947 1.358 . S
C948 H954 0.930 . S
C949 N947 1.400 . S
C949 C950 1.351 . S
C949 H966 0.930 . S
C950 N946 1.389 . S
C950 C949 1.351 . S
C950 H955 0.930 . S
O951 Cu945 1.974 . S
O951 C961 1.282 . S
C952 O953 1.261 . S
C952 O965 1.251 . S
O953 C952 1.261 . S
H954 C948 0.930 . S
H955 C950 0.930 . S
N956 Cu945 1.985 . S
N956 C958 1.335 . S
N956 C959 1.390 . S
N957 C958 1.345 . S
N957 C960 1.336 . S
C958 N956 1.335 . S
C958 N957 1.345 . S
C958 H963 0.930 . S
C959 N956 1.390 . S
C959 C960 1.346 . S
C959 H964 0.930 . S
C960 N957 1.336 . S
C960 C959 1.346 . S
C960 H967 0.929 . S
C961 O951 1.282 . S
C961 O962 1.216 . S
O962 C961 1.216 . S
H963 C958 0.930 . S
H964 C959 0.930 . S
O965 Cu945 1.959 . S
O965 C952 1.251 . S
H966 C949 0.930 . S
H967 C960 0.929 . S
C968 C969 1.391 . S
C968 C970 1.394 . S
C968 H984 0.931 . S
C969 C968 1.391 . S
C969 C973 1.376 . S
C970 C968 1.394 . S
C970 C971 1.369 . S
C970 C974 1.531 . S
C971 C970 1.369 . S
C971 C972 1.410 . S
C971 C979 1.503 . S
C972 C971 1.410 . S
C972 C973 1.392 . S
C972 C975 1.511 . S
C973 C969 1.376 . S
C973 C972 1.392 . S
C973 H985 0.929 . S
C974 C970 1.531 . S
C974 H986 0.960 . S
C974 H987 0.962 . S
C974 H988 0.960 . S
C975 C972 1.511 . S
C975 H989 0.961 . S
C975 H990 0.961 . S
C975 H991 0.961 . S
C976 C977 1.370 . S
C976 C978 1.363 . S
C976 H992 0.931 . S
C977 C976 1.370 . S
C977 C981 1.408 . S
C978 C976 1.363 . S
C978 C979 1.370 . S
C978 C982 1.524 . S
C979 C971 1.503 . S
C979 C978 1.370 . S
C979 C980 1.403 . S
C980 C979 1.403 . S
C980 C981 1.404 . S
C980 C983 1.539 . S
C981 C977 1.408 . S
C981 C980 1.404 . S
C981 H993 0.930 . S
C982 C978 1.524 . S
C982 H994 0.956 . S
C982 H995 0.961 . S
C982 H996 0.961 . S
C983 C980 1.539 . S
C983 H997 0.958 . S
C983 H998 0.961 . S
C983 H999 0.960 . S
H984 C968 0.931 . S
H985 C973 0.929 . S
H986 C974 0.960 . S
H987 C974 0.962 . S
H988 C974 0.960 . S
H989 C975 0.961 . S
H990 C975 0.961 . S
H991 C975 0.961 . S
H992 C976 0.931 . S
H993 C981 0.930 . S
H994 C982 0.956 . S
H995 C982 0.961 . S
H996 C982 0.961 . S
H997 C983 0.958 . S
H998 C983 0.961 . S
H999 C983 0.960 . S
C1000 C1001 1.391 . S
C1000 C1002 1.394 . S
C1000 H1016 0.931 . S
C1001 C1000 1.391 . S
C1001 C1005 1.376 . S
C1002 C1000 1.394 . S
C1002 C1003 1.369 . S
C1002 C1006 1.531 . S
C1003 C1002 1.369 . S
C1003 C1004 1.410 . S
C1003 C1011 1.503 . S
C1004 C1003 1.410 . S
C1004 C1005 1.392 . S
C1004 C1007 1.511 . S
C1005 C1001 1.376 . S
C1005 C1004 1.392 . S
C1005 H1017 0.929 . S
C1006 C1002 1.531 . S
C1006 H1018 0.960 . S
C1006 H1019 0.962 . S
C1006 H1020 0.960 . S
C1007 C1004 1.511 . S
C1007 H1021 0.961 . S
C1007 H1022 0.961 . S
C1007 H1023 0.961 . S
C1008 C1009 1.370 . S
C1008 C1010 1.363 . S
C1008 H1024 0.931 . S
C1009 C1008 1.370 . S
C1009 C1013 1.408 . S
C1010 C1008 1.363 . S
C1010 C1011 1.370 . S
C1010 C1014 1.524 . S
C1011 C1003 1.503 . S
C1011 C1010 1.370 . S
C1011 C1012 1.403 . S
C1012 C1011 1.403 . S
C1012 C1013 1.404 . S
C1012 C1015 1.539 . S
C1013 C1009 1.408 . S
C1013 C1012 1.404 . S
C1013 H1025 0.930 . S
C1014 C1010 1.524 . S
C1014 H1026 0.956 . S
C1014 H1027 0.961 . S
C1014 H1028 0.961 . S
C1015 C1012 1.539 . S
C1015 H1029 0.958 . S
C1015 H1030 0.961 . S
C1015 H1031 0.960 . S
H1016 C1000 0.931 . S
H1017 C1005 0.929 . S
H1018 C1006 0.960 . S
H1019 C1006 0.962 . S
H1020 C1006 0.960 . S
H1021 C1007 0.961 . S
H1022 C1007 0.961 . S
H1023 C1007 0.961 . S
H1024 C1008 0.931 . S
H1025 C1013 0.930 . S
H1026 C1014 0.956 . S
H1027 C1014 0.961 . S
H1028 C1014 0.961 . S
H1029 C1015 0.958 . S
H1030 C1015 0.961 . S
H1031 C1015 0.960 . S
C1032 C1033 1.391 . S
C1032 C1034 1.394 . S
C1032 H1048 0.931 . S
C1033 C1032 1.391 . S
C1033 C1037 1.376 . S
C1034 C1032 1.394 . S
C1034 C1035 1.369 . S
C1034 C1038 1.531 . S
C1035 C1034 1.369 . S
C1035 C1036 1.410 . S
C1035 C1043 1.503 . S
C1036 C1035 1.410 . S
C1036 C1037 1.392 . S
C1036 C1039 1.511 . S
C1037 C1033 1.376 . S
C1037 C1036 1.392 . S
C1037 H1049 0.929 . S
C1038 C1034 1.531 . S
C1038 H1050 0.960 . S
C1038 H1051 0.962 . S
C1038 H1052 0.960 . S
C1039 C1036 1.511 . S
C1039 H1053 0.961 . S
C1039 H1054 0.961 . S
C1039 H1055 0.961 . S
C1040 C1041 1.370 . S
C1040 C1042 1.363 . S
C1040 H1056 0.931 . S
C1041 C1040 1.370 . S
C1041 C1045 1.408 . S
C1042 C1040 1.363 . S
C1042 C1043 1.370 . S
C1042 C1046 1.524 . S
C1043 C1035 1.503 . S
C1043 C1042 1.370 . S
C1043 C1044 1.403 . S
C1044 C1043 1.403 . S
C1044 C1045 1.404 . S
C1044 C1047 1.539 . S
C1045 C1041 1.408 . S
C1045 C1044 1.404 . S
C1045 H1057 0.930 . S
C1046 C1042 1.524 . S
C1046 H1058 0.956 . S
C1046 H1059 0.961 . S
C1046 H1060 0.961 . S
C1047 C1044 1.539 . S
C1047 H1061 0.958 . S
C1047 H1062 0.961 . S
C1047 H1063 0.960 . S
H1048 C1032 0.931 . S
H1049 C1037 0.929 . S
H1050 C1038 0.960 . S
H1051 C1038 0.962 . S
H1052 C1038 0.960 . S
H1053 C1039 0.961 . S
H1054 C1039 0.961 . S
H1055 C1039 0.961 . S
H1056 C1040 0.931 . S
H1057 C1045 0.930 . S
H1058 C1046 0.956 . S
H1059 C1046 0.961 . S
H1060 C1046 0.961 . S
H1061 C1047 0.958 . S
H1062 C1047 0.961 . S
H1063 C1047 0.960 . S
C1064 C1065 1.391 . S
C1064 C1066 1.394 . S
C1064 H1080 0.931 . S
C1065 C1064 1.391 . S
C1065 C1069 1.376 . S
C1066 C1064 1.394 . S
C1066 C1067 1.369 . S
C1066 C1070 1.531 . S
C1067 C1066 1.369 . S
C1067 C1068 1.410 . S
C1067 C1075 1.503 . S
C1068 C1067 1.410 . S
C1068 C1069 1.392 . S
C1068 C1071 1.511 . S
C1069 C1065 1.376 . S
C1069 C1068 1.392 . S
C1069 H1081 0.929 . S
C1070 C1066 1.531 . S
C1070 H1082 0.960 . S
C1070 H1083 0.962 . S
C1070 H1084 0.960 . S
C1071 C1068 1.511 . S
C1071 H1085 0.961 . S
C1071 H1086 0.961 . S
C1071 H1087 0.961 . S
C1072 C1073 1.370 . S
C1072 C1074 1.363 . S
C1072 H1088 0.931 . S
C1073 C1072 1.370 . S
C1073 C1077 1.408 . S
C1074 C1072 1.363 . S
C1074 C1075 1.370 . S
C1074 C1078 1.524 . S
C1075 C1067 1.503 . S
C1075 C1074 1.370 . S
C1075 C1076 1.403 . S
C1076 C1075 1.403 . S
C1076 C1077 1.404 . S
C1076 C1079 1.539 . S
C1077 C1073 1.408 . S
C1077 C1076 1.404 . S
C1077 H1089 0.930 . S
C1078 C1074 1.524 . S
C1078 H1090 0.956 . S
C1078 H1091 0.961 . S
C1078 H1092 0.961 . S
C1079 C1076 1.539 . S
C1079 H1093 0.958 . S
C1079 H1094 0.961 . S
C1079 H1095 0.960 . S
H1080 C1064 0.931 . S
H1081 C1069 0.929 . S
H1082 C1070 0.960 . S
H1083 C1070 0.962 . S
H1084 C1070 0.960 . S
H1085 C1071 0.961 . S
H1086 C1071 0.961 . S
H1087 C1071 0.961 . S
H1088 C1072 0.931 . S
H1089 C1077 0.930 . S
H1090 C1078 0.956 . S
H1091 C1078 0.961 . S
H1092 C1078 0.961 . S
H1093 C1079 0.958 . S
H1094 C1079 0.961 . S
H1095 C1079 0.960 . S
C1096 C1097 1.391 . S
C1096 C1098 1.394 . S
C1096 H1112 0.931 . S
C1097 C1096 1.391 . S
C1097 C1101 1.376 . S
C1098 C1096 1.394 . S
C1098 C1099 1.369 . S
C1098 C1102 1.531 . S
C1099 C1098 1.369 . S
C1099 C1100 1.410 . S
C1099 C1107 1.503 . S
C1100 C1099 1.410 . S
C1100 C1101 1.392 . S
C1100 C1103 1.511 . S
C1101 C1097 1.376 . S
C1101 C1100 1.392 . S
C1101 H1113 0.929 . S
C1102 C1098 1.531 . S
C1102 H1114 0.960 . S
C1102 H1115 0.962 . S
C1102 H1116 0.960 . S
C1103 C1100 1.511 . S
C1103 H1117 0.961 . S
C1103 H1118 0.961 . S
C1103 H1119 0.961 . S
C1104 C1105 1.370 . S
C1104 C1106 1.363 . S
C1104 H1120 0.931 . S
C1105 C1104 1.370 . S
C1105 C1109 1.408 . S
C1106 C1104 1.363 . S
C1106 C1107 1.370 . S
C1106 C1110 1.524 . S
C1107 C1099 1.503 . S
C1107 C1106 1.370 . S
C1107 C1108 1.403 . S
C1108 C1107 1.403 . S
C1108 C1109 1.404 . S
C1108 C1111 1.539 . S
C1109 C1105 1.408 . S
C1109 C1108 1.404 . S
C1109 H1121 0.930 . S
C1110 C1106 1.524 . S
C1110 H1122 0.956 . S
C1110 H1123 0.961 . S
C1110 H1124 0.961 . S
C1111 C1108 1.539 . S
C1111 H1125 0.958 . S
C1111 H1126 0.961 . S
C1111 H1127 0.960 . S
H1112 C1096 0.931 . S
H1113 C1101 0.929 . S
H1114 C1102 0.960 . S
H1115 C1102 0.962 . S
H1116 C1102 0.960 . S
H1117 C1103 0.961 . S
H1118 C1103 0.961 . S
H1119 C1103 0.961 . S
H1120 C1104 0.931 . S
H1121 C1109 0.930 . S
H1122 C1110 0.956 . S
H1123 C1110 0.961 . S
H1124 C1110 0.961 . S
H1125 C1111 0.958 . S
H1126 C1111 0.961 . S
H1127 C1111 0.960 . S
C1128 C1129 1.391 . S
C1128 C1130 1.394 . S
C1128 H1144 0.931 . S
C1129 C1128 1.391 . S
C1129 C1133 1.376 . S
C1130 C1128 1.394 . S
C1130 C1131 1.369 . S
C1130 C1134 1.531 . S
C1131 C1130 1.369 . S
C1131 C1132 1.410 . S
C1131 C1139 1.503 . S
C1132 C1131 1.410 . S
C1132 C1133 1.392 . S
C1132 C1135 1.511 . S
C1133 C1129 1.376 . S
C1133 C1132 1.392 . S
C1133 H1145 0.929 . S
C1134 C1130 1.531 . S
C1134 H1146 0.960 . S
C1134 H1147 0.962 . S
C1134 H1148 0.960 . S
C1135 C1132 1.511 . S
C1135 H1149 0.961 . S
C1135 H1150 0.961 . S
C1135 H1151 0.961 . S
C1136 C1137 1.370 . S
C1136 C1138 1.363 . S
C1136 H1152 0.931 . S
C1137 C1136 1.370 . S
C1137 C1141 1.408 1_556 S
C1138 C1136 1.363 . S
C1138 C1139 1.370 . S
C1138 C1142 1.524 . S
C1139 C1131 1.503 . S
C1139 C1138 1.370 . S
C1139 C1140 1.403 . S
C1140 C1139 1.403 . S
C1140 C1141 1.404 1_556 S
C1140 C1143 1.539 . S
C1141 C1137 1.408 1_554 S
C1141 C1140 1.404 1_554 S
C1141 H1153 0.930 . S
C1142 C1138 1.524 . S
C1142 H1154 0.956 . S
C1142 H1155 0.961 . S
C1142 H1156 0.961 . S
C1143 C1140 1.539 . S
C1143 H1157 0.958 . S
C1143 H1158 0.961 1_556 S
C1143 H1159 0.960 . S
H1144 C1128 0.931 . S
H1145 C1133 0.929 . S
H1146 C1134 0.960 . S
H1147 C1134 0.962 . S
H1148 C1134 0.960 . S
H1149 C1135 0.961 . S
H1150 C1135 0.961 . S
H1151 C1135 0.961 . S
H1152 C1136 0.931 . S
H1153 C1141 0.930 . S
H1154 C1142 0.956 . S
H1155 C1142 0.961 . S
H1156 C1142 0.961 . S
H1157 C1143 0.958 . S
H1158 C1143 0.961 1_554 S
H1159 C1143 0.960 . S
C1160 C1161 1.391 . S
C1160 C1162 1.394 . S
C1160 H1176 0.931 . S
C1161 C1160 1.391 . S
C1161 C1165 1.376 . S
C1162 C1160 1.394 . S
C1162 C1163 1.369 . S
C1162 C1166 1.531 . S
C1163 C1162 1.369 . S
C1163 C1164 1.410 . S
C1163 C1171 1.503 . S
C1164 C1163 1.410 . S
C1164 C1165 1.392 . S
C1164 C1167 1.511 . S
C1165 C1161 1.376 . S
C1165 C1164 1.392 . S
C1165 H1177 0.929 . S
C1166 C1162 1.531 . S
C1166 H1178 0.960 . S
C1166 H1179 0.962 . S
C1166 H1180 0.960 . S
C1167 C1164 1.511 . S
C1167 H1181 0.961 . S
C1167 H1182 0.961 . S
C1167 H1183 0.961 . S
C1168 C1169 1.370 . S
C1168 C1170 1.363 . S
C1168 H1184 0.931 . S
C1169 C1168 1.370 . S
C1169 C1173 1.408 . S
C1170 C1168 1.363 . S
C1170 C1171 1.370 . S
C1170 C1174 1.524 . S
C1171 C1163 1.503 . S
C1171 C1170 1.370 . S
C1171 C1172 1.403 . S
C1172 C1171 1.403 . S
C1172 C1173 1.404 . S
C1172 C1175 1.539 . S
C1173 C1169 1.408 . S
C1173 C1172 1.404 . S
C1173 H1185 0.930 . S
C1174 C1170 1.524 . S
C1174 H1186 0.956 . S
C1174 H1187 0.961 . S
C1174 H1188 0.961 . S
C1175 C1172 1.539 . S
C1175 H1189 0.958 . S
C1175 H1190 0.961 . S
C1175 H1191 0.960 . S
H1176 C1160 0.931 . S
H1177 C1165 0.929 . S
H1178 C1166 0.960 . S
H1179 C1166 0.962 . S
H1180 C1166 0.960 . S
H1181 C1167 0.961 . S
H1182 C1167 0.961 . S
H1183 C1167 0.961 . S
H1184 C1168 0.931 . S
H1185 C1173 0.930 . S
H1186 C1174 0.956 . S
H1187 C1174 0.961 . S
H1188 C1174 0.961 . S
H1189 C1175 0.958 . S
H1190 C1175 0.961 . S
H1191 C1175 0.960 . S
C1192 C1193 1.391 . S
C1192 C1194 1.394 . S
C1192 H1208 0.931 . S
C1193 C1192 1.391 . S
C1193 C1197 1.376 . S
C1194 C1192 1.394 . S
C1194 C1195 1.369 . S
C1194 C1198 1.531 . S
C1195 C1194 1.369 . S
C1195 C1196 1.410 . S
C1195 C1203 1.503 . S
C1196 C1195 1.410 . S
C1196 C1197 1.392 . S
C1196 C1199 1.511 . S
C1197 C1193 1.376 . S
C1197 C1196 1.392 . S
C1197 H1209 0.929 . S
C1198 C1194 1.531 . S
C1198 H1210 0.960 . S
C1198 H1211 0.962 . S
C1198 H1212 0.960 . S
C1199 C1196 1.511 . S
C1199 H1213 0.961 . S
C1199 H1214 0.961 . S
C1199 H1215 0.961 . S
C1200 C1201 1.370 . S
C1200 C1202 1.363 . S
C1200 H1216 0.931 . S
C1201 C1200 1.370 . S
C1201 C1205 1.408 . S
C1202 C1200 1.363 . S
C1202 C1203 1.370 . S
C1202 C1206 1.524 . S
C1203 C1195 1.503 . S
C1203 C1202 1.370 . S
C1203 C1204 1.403 . S
C1204 C1203 1.403 . S
C1204 C1205 1.404 . S
C1204 C1207 1.539 . S
C1205 C1201 1.408 . S
C1205 C1204 1.404 . S
C1205 H1217 0.930 . S
C1206 C1202 1.524 . S
C1206 H1218 0.956 . S
C1206 H1219 0.961 . S
C1206 H1220 0.961 . S
C1207 C1204 1.539 . S
C1207 H1221 0.958 . S
C1207 H1222 0.961 . S
C1207 H1223 0.960 . S
H1208 C1192 0.931 . S
H1209 C1197 0.929 . S
H1210 C1198 0.960 . S
H1211 C1198 0.962 . S
H1212 C1198 0.960 . S
H1213 C1199 0.961 . S
H1214 C1199 0.961 . S
H1215 C1199 0.961 . S
H1216 C1200 0.931 . S
H1217 C1205 0.930 . S
H1218 C1206 0.956 . S
H1219 C1206 0.961 . S
H1220 C1206 0.961 . S
H1221 C1207 0.958 . S
H1222 C1207 0.961 . S
H1223 C1207 0.960 . S
C1224 C1225 1.391 . S
C1224 C1226 1.394 . S
C1224 H1240 0.931 . S
C1225 C1224 1.391 . S
C1225 C1229 1.376 . S
C1226 C1224 1.394 . S
C1226 C1227 1.369 . S
C1226 C1230 1.531 . S
C1227 C1226 1.369 . S
C1227 C1228 1.410 . S
C1227 C1235 1.503 . S
C1228 C1227 1.410 . S
C1228 C1229 1.392 . S
C1228 C1231 1.511 . S
C1229 C1225 1.376 . S
C1229 C1228 1.392 . S
C1229 H1241 0.929 . S
C1230 C1226 1.531 . S
C1230 H1242 0.960 . S
C1230 H1243 0.962 . S
C1230 H1244 0.960 . S
C1231 C1228 1.511 . S
C1231 H1245 0.961 . S
C1231 H1246 0.961 . S
C1231 H1247 0.961 . S
C1232 C1233 1.370 . S
C1232 C1234 1.363 . S
C1232 H1248 0.931 . S
C1233 C1232 1.370 . S
C1233 C1237 1.408 . S
C1234 C1232 1.363 . S
C1234 C1235 1.370 . S
C1234 C1238 1.524 . S
C1235 C1227 1.503 . S
C1235 C1234 1.370 . S
C1235 C1236 1.403 . S
C1236 C1235 1.403 . S
C1236 C1237 1.404 . S
C1236 C1239 1.539 . S
C1237 C1233 1.408 . S
C1237 C1236 1.404 . S
C1237 H1249 0.930 . S
C1238 C1234 1.524 . S
C1238 H1250 0.956 . S
C1238 H1251 0.961 . S
C1238 H1252 0.961 . S
C1239 C1236 1.539 . S
C1239 H1253 0.958 . S
C1239 H1254 0.961 . S
C1239 H1255 0.960 . S
H1240 C1224 0.931 . S
H1241 C1229 0.929 . S
H1242 C1230 0.960 . S
H1243 C1230 0.962 . S
H1244 C1230 0.960 . S
H1245 C1231 0.961 . S
H1246 C1231 0.961 . S
H1247 C1231 0.961 . S
H1248 C1232 0.931 . S
H1249 C1237 0.930 . S
H1250 C1238 0.956 . S
H1251 C1238 0.961 . S
H1252 C1238 0.961 . S
H1253 C1239 0.958 . S
H1254 C1239 0.961 . S
H1255 C1239 0.960 . S
C1256 C1257 1.391 . S
C1256 C1258 1.394 . S
C1256 H1272 0.931 . S
C1257 C1256 1.391 . S
C1257 C1261 1.376 . S
C1258 C1256 1.394 . S
C1258 C1259 1.369 . S
C1258 C1262 1.531 . S
C1259 C1258 1.369 . S
C1259 C1260 1.410 . S
C1259 C1267 1.503 . S
C1260 C1259 1.410 . S
C1260 C1261 1.392 . S
C1260 C1263 1.511 . S
C1261 C1257 1.376 . S
C1261 C1260 1.392 . S
C1261 H1273 0.929 . S
C1262 C1258 1.531 . S
C1262 H1274 0.960 . S
C1262 H1275 0.962 . S
C1262 H1276 0.960 . S
C1263 C1260 1.511 . S
C1263 H1277 0.961 . S
C1263 H1278 0.961 . S
C1263 H1279 0.961 . S
C1264 C1265 1.370 . S
C1264 C1266 1.363 . S
C1264 H1280 0.931 . S
C1265 C1264 1.370 . S
C1265 C1269 1.408 . S
C1266 C1264 1.363 . S
C1266 C1267 1.370 . S
C1266 C1270 1.524 . S
C1267 C1259 1.503 . S
C1267 C1266 1.370 . S
C1267 C1268 1.403 . S
C1268 C1267 1.403 . S
C1268 C1269 1.404 . S
C1268 C1271 1.539 . S
C1269 C1265 1.408 . S
C1269 C1268 1.404 . S
C1269 H1281 0.930 . S
C1270 C1266 1.524 . S
C1270 H1282 0.956 . S
C1270 H1283 0.961 . S
C1270 H1284 0.961 . S
C1271 C1268 1.539 . S
C1271 H1285 0.958 . S
C1271 H1286 0.961 . S
C1271 H1287 0.960 . S
H1272 C1256 0.931 . S
H1273 C1261 0.929 . S
H1274 C1262 0.960 . S
H1275 C1262 0.962 . S
H1276 C1262 0.960 . S
H1277 C1263 0.961 . S
H1278 C1263 0.961 . S
H1279 C1263 0.961 . S
H1280 C1264 0.931 . S
H1281 C1269 0.930 . S
H1282 C1270 0.956 . S
H1283 C1270 0.961 . S
H1284 C1270 0.961 . S
H1285 C1271 0.958 . S
H1286 C1271 0.961 . S
H1287 C1271 0.960 . S
C1288 C1289 1.391 . S
C1288 C1290 1.394 . S
C1288 H1304 0.931 . S
C1289 C1288 1.391 . S
C1289 C1293 1.376 . S
C1290 C1288 1.394 . S
C1290 C1291 1.369 . S
C1290 C1294 1.531 . S
C1291 C1290 1.369 . S
C1291 C1292 1.410 . S
C1291 C1299 1.503 . S
C1292 C1291 1.410 . S
C1292 C1293 1.392 . S
C1292 C1295 1.511 . S
C1293 C1289 1.376 . S
C1293 C1292 1.392 . S
C1293 H1305 0.929 . S
C1294 C1290 1.531 . S
C1294 H1306 0.960 . S
C1294 H1307 0.962 . S
C1294 H1308 0.960 . S
C1295 C1292 1.511 . S
C1295 H1309 0.961 . S
C1295 H1310 0.961 . S
C1295 H1311 0.961 . S
C1296 C1297 1.370 . S
C1296 C1298 1.363 . S
C1296 H1312 0.931 . S
C1297 C1296 1.370 . S
C1297 C1301 1.408 . S
C1298 C1296 1.363 . S
C1298 C1299 1.370 . S
C1298 C1302 1.524 . S
C1299 C1291 1.503 . S
C1299 C1298 1.370 . S
C1299 C1300 1.403 . S
C1300 C1299 1.403 . S
C1300 C1301 1.404 . S
C1300 C1303 1.539 . S
C1301 C1297 1.408 . S
C1301 C1300 1.404 . S
C1301 H1313 0.930 . S
C1302 C1298 1.524 . S
C1302 H1314 0.956 . S
C1302 H1315 0.961 . S
C1302 H1316 0.961 . S
C1303 C1300 1.539 . S
C1303 H1317 0.958 . S
C1303 H1318 0.961 . S
C1303 H1319 0.960 . S
H1304 C1288 0.931 . S
H1305 C1293 0.929 . S
H1306 C1294 0.960 . S
H1307 C1294 0.962 . S
H1308 C1294 0.960 . S
H1309 C1295 0.961 . S
H1310 C1295 0.961 . S
H1311 C1295 0.961 . S
H1312 C1296 0.931 . S
H1313 C1301 0.930 . S
H1314 C1302 0.956 . S
H1315 C1302 0.961 . S
H1316 C1302 0.961 . S
H1317 C1303 0.958 . S
H1318 C1303 0.961 . S
H1319 C1303 0.960 . S
C1320 C1321 1.391 . S
C1320 C1322 1.394 . S
C1320 H1336 0.931 . S
C1321 C1320 1.391 . S
C1321 C1325 1.376 . S
C1322 C1320 1.394 . S
C1322 C1323 1.369 . S
C1322 C1326 1.531 . S
C1323 C1322 1.369 . S
C1323 C1324 1.410 . S
C1323 C1331 1.503 . S
C1324 C1323 1.410 . S
C1324 C1325 1.392 . S
C1324 C1327 1.511 . S
C1325 C1321 1.376 . S
C1325 C1324 1.392 . S
C1325 H1337 0.929 . S
C1326 C1322 1.531 . S
C1326 H1338 0.960 . S
C1326 H1339 0.962 . S
C1326 H1340 0.960 . S
C1327 C1324 1.511 . S
C1327 H1341 0.961 . S
C1327 H1342 0.961 . S
C1327 H1343 0.961 . S
C1328 C1329 1.370 . S
C1328 C1330 1.363 . S
C1328 H1344 0.931 . S
C1329 C1328 1.370 . S
C1329 C1333 1.408 . S
C1330 C1328 1.363 . S
C1330 C1331 1.370 . S
C1330 C1334 1.524 . S
C1331 C1323 1.503 . S
C1331 C1330 1.370 . S
C1331 C1332 1.403 . S
C1332 C1331 1.403 . S
C1332 C1333 1.404 . S
C1332 C1335 1.539 . S
C1333 C1329 1.408 . S
C1333 C1332 1.404 . S
C1333 H1345 0.930 . S
C1334 C1330 1.524 . S
C1334 H1346 0.956 . S
C1334 H1347 0.961 . S
C1334 H1348 0.961 . S
C1335 C1332 1.539 . S
C1335 H1349 0.958 . S
C1335 H1350 0.961 . S
C1335 H1351 0.960 . S
H1336 C1320 0.931 . S
H1337 C1325 0.929 . S
H1338 C1326 0.960 . S
H1339 C1326 0.962 . S
H1340 C1326 0.960 . S
H1341 C1327 0.961 . S
H1342 C1327 0.961 . S
H1343 C1327 0.961 . S
H1344 C1328 0.931 . S
H1345 C1333 0.930 . S
H1346 C1334 0.956 . S
H1347 C1334 0.961 . S
H1348 C1334 0.961 . S
H1349 C1335 0.958 . S
H1350 C1335 0.961 . S
H1351 C1335 0.960 . S
C1352 C1353 1.391 . S
C1352 C1354 1.394 . S
C1352 H1368 0.931 . S
C1353 C1352 1.391 . S
C1353 C1357 1.376 . S
C1354 C1352 1.394 . S
C1354 C1355 1.369 . S
C1354 C1358 1.531 . S
C1355 C1354 1.369 . S
C1355 C1356 1.410 . S
C1355 C1363 1.503 . S
C1356 C1355 1.410 . S
C1356 C1357 1.392 . S
C1356 C1359 1.511 . S
C1357 C1353 1.376 . S
C1357 C1356 1.392 . S
C1357 H1369 0.929 . S
C1358 C1354 1.531 . S
C1358 H1370 0.960 . S
C1358 H1371 0.962 . S
C1358 H1372 0.960 . S
C1359 C1356 1.511 . S
C1359 H1373 0.961 . S
C1359 H1374 0.961 . S
C1359 H1375 0.961 . S
C1360 C1361 1.370 . S
C1360 C1362 1.363 . S
C1360 H1376 0.931 . S
C1361 C1360 1.370 . S
C1361 C1365 1.408 . S
C1362 C1360 1.363 . S
C1362 C1363 1.370 . S
C1362 C1366 1.524 . S
C1363 C1355 1.503 . S
C1363 C1362 1.370 . S
C1363 C1364 1.403 . S
C1364 C1363 1.403 . S
C1364 C1365 1.404 . S
C1364 C1367 1.539 . S
C1365 C1361 1.408 . S
C1365 C1364 1.404 . S
C1365 H1377 0.930 . S
C1366 C1362 1.524 . S
C1366 H1378 0.956 . S
C1366 H1379 0.961 . S
C1366 H1380 0.961 . S
C1367 C1364 1.539 . S
C1367 H1381 0.958 . S
C1367 H1382 0.961 . S
C1367 H1383 0.960 . S
H1368 C1352 0.931 . S
H1369 C1357 0.929 . S
H1370 C1358 0.960 . S
H1371 C1358 0.962 . S
H1372 C1358 0.960 . S
H1373 C1359 0.961 . S
H1374 C1359 0.961 . S
H1375 C1359 0.961 . S
H1376 C1360 0.931 . S
H1377 C1365 0.930 . S
H1378 C1366 0.956 . S
H1379 C1366 0.961 . S
H1380 C1366 0.961 . S
H1381 C1367 0.958 . S
H1382 C1367 0.961 . S
H1383 C1367 0.960 . S
C1384 C1385 1.391 . S
C1384 C1386 1.394 . S
C1384 H1400 0.931 . S
C1385 C1384 1.391 . S
C1385 C1389 1.376 . S
C1386 C1384 1.394 . S
C1386 C1387 1.369 . S
C1386 C1390 1.531 . S
C1387 C1386 1.369 . S
C1387 C1388 1.410 . S
C1387 C1395 1.503 . S
C1388 C1387 1.410 . S
C1388 C1389 1.392 . S
C1388 C1391 1.511 . S
C1389 C1385 1.376 . S
C1389 C1388 1.392 . S
C1389 H1401 0.929 . S
C1390 C1386 1.531 . S
C1390 H1402 0.960 . S
C1390 H1403 0.962 . S
C1390 H1404 0.960 . S
C1391 C1388 1.511 . S
C1391 H1405 0.961 . S
C1391 H1406 0.961 . S
C1391 H1407 0.961 . S
C1392 C1393 1.370 . S
C1392 C1394 1.363 . S
C1392 H1408 0.931 . S
C1393 C1392 1.370 . S
C1393 C1397 1.408 . S
C1394 C1392 1.363 . S
C1394 C1395 1.370 . S
C1394 C1398 1.524 . S
C1395 C1387 1.503 . S
C1395 C1394 1.370 . S
C1395 C1396 1.403 . S
C1396 C1395 1.403 . S
C1396 C1397 1.404 . S
C1396 C1399 1.539 . S
C1397 C1393 1.408 . S
C1397 C1396 1.404 . S
C1397 H1409 0.930 . S
C1398 C1394 1.524 . S
C1398 H1410 0.956 . S
C1398 H1411 0.961 . S
C1398 H1412 0.961 . S
C1399 C1396 1.539 . S
C1399 H1413 0.958 . S
C1399 H1414 0.961 . S
C1399 H1415 0.960 . S
H1400 C1384 0.931 . S
H1401 C1389 0.929 . S
H1402 C1390 0.960 . S
H1403 C1390 0.962 . S
H1404 C1390 0.960 . S
H1405 C1391 0.961 . S
H1406 C1391 0.961 . S
H1407 C1391 0.961 . S
H1408 C1392 0.931 . S
H1409 C1397 0.930 . S
H1410 C1398 0.956 . S
H1411 C1398 0.961 . S
H1412 C1398 0.961 . S
H1413 C1399 0.958 . S
H1414 C1399 0.961 . S
H1415 C1399 0.960 . S
C1416 C1417 1.391 . S
C1416 C1418 1.394 . S
C1416 H1432 0.931 . S
C1417 C1416 1.391 . S
C1417 C1421 1.376 . S
C1418 C1416 1.394 . S
C1418 C1419 1.369 . S
C1418 C1422 1.531 . S
C1419 C1418 1.369 . S
C1419 C1420 1.410 . S
C1419 C1427 1.503 . S
C1420 C1419 1.410 . S
C1420 C1421 1.392 . S
C1420 C1423 1.511 . S
C1421 C1417 1.376 . S
C1421 C1420 1.392 . S
C1421 H1433 0.929 . S
C1422 C1418 1.531 . S
C1422 H1434 0.960 . S
C1422 H1435 0.962 . S
C1422 H1436 0.960 . S
C1423 C1420 1.511 . S
C1423 H1437 0.961 . S
C1423 H1438 0.961 . S
C1423 H1439 0.961 . S
C1424 C1425 1.370 . S
C1424 C1426 1.363 . S
C1424 H1440 0.931 . S
C1425 C1424 1.370 . S
C1425 C1429 1.408 . S
C1426 C1424 1.363 . S
C1426 C1427 1.370 . S
C1426 C1430 1.524 . S
C1427 C1419 1.503 . S
C1427 C1426 1.370 . S
C1427 C1428 1.403 . S
C1428 C1427 1.403 . S
C1428 C1429 1.404 . S
C1428 C1431 1.539 . S
C1429 C1425 1.408 . S
C1429 C1428 1.404 . S
C1429 H1441 0.930 . S
C1430 C1426 1.524 . S
C1430 H1442 0.956 . S
C1430 H1443 0.961 . S
C1430 H1444 0.961 . S
C1431 C1428 1.539 . S
C1431 H1445 0.958 . S
C1431 H1446 0.961 . S
C1431 H1447 0.960 . S
H1432 C1416 0.931 . S
H1433 C1421 0.929 . S
H1434 C1422 0.960 . S
H1435 C1422 0.962 . S
H1436 C1422 0.960 . S
H1437 C1423 0.961 . S
H1438 C1423 0.961 . S
H1439 C1423 0.961 . S
H1440 C1424 0.931 . S
H1441 C1429 0.930 . S
H1442 C1430 0.956 . S
H1443 C1430 0.961 . S
H1444 C1430 0.961 . S
H1445 C1431 0.958 . S
H1446 C1431 0.961 . S
H1447 C1431 0.960 . S
C1448 C1449 1.391 . S
C1448 C1450 1.394 . S
C1448 H1464 0.931 . S
C1449 C1448 1.391 . S
C1449 C1453 1.376 . S
C1450 C1448 1.394 . S
C1450 C1451 1.369 . S
C1450 C1454 1.531 . S
C1451 C1450 1.369 . S
C1451 C1452 1.410 . S
C1451 C1459 1.503 . S
C1452 C1451 1.410 . S
C1452 C1453 1.392 . S
C1452 C1455 1.511 . S
C1453 C1449 1.376 . S
C1453 C1452 1.392 . S
C1453 H1465 0.929 . S
C1454 C1450 1.531 . S
C1454 H1466 0.960 . S
C1454 H1467 0.962 . S
C1454 H1468 0.960 . S
C1455 C1452 1.511 . S
C1455 H1469 0.961 . S
C1455 H1470 0.961 . S
C1455 H1471 0.961 . S
C1456 C1457 1.370 . S
C1456 C1458 1.363 . S
C1456 H1472 0.931 . S
C1457 C1456 1.370 . S
C1457 C1461 1.408 . S
C1458 C1456 1.363 . S
C1458 C1459 1.370 . S
C1458 C1462 1.524 . S
C1459 C1451 1.503 . S
C1459 C1458 1.370 . S
C1459 C1460 1.403 . S
C1460 C1459 1.403 . S
C1460 C1461 1.404 . S
C1460 C1463 1.539 . S
C1461 C1457 1.408 . S
C1461 C1460 1.404 . S
C1461 H1473 0.930 . S
C1462 C1458 1.524 . S
C1462 H1474 0.956 . S
C1462 H1475 0.961 . S
C1462 H1476 0.961 . S
C1463 C1460 1.539 . S
C1463 H1477 0.958 . S
C1463 H1478 0.961 . S
C1463 H1479 0.960 . S
H1464 C1448 0.931 . S
H1465 C1453 0.929 . S
H1466 C1454 0.960 . S
H1467 C1454 0.962 . S
H1468 C1454 0.960 . S
H1469 C1455 0.961 . S
H1470 C1455 0.961 . S
H1471 C1455 0.961 . S
H1472 C1456 0.931 . S
H1473 C1461 0.930 . S
H1474 C1462 0.956 . S
H1475 C1462 0.961 . S
H1476 C1462 0.961 . S
H1477 C1463 0.958 . S
H1478 C1463 0.961 . S
H1479 C1463 0.960 . S
C1480 C1481 1.391 . S
C1480 C1482 1.394 . S
C1480 H1496 0.931 . S
C1481 C1480 1.391 . S
C1481 C1485 1.376 . S
C1482 C1480 1.394 . S
C1482 C1483 1.369 . S
C1482 C1486 1.531 . S
C1483 C1482 1.369 . S
C1483 C1484 1.410 . S
C1483 C1491 1.503 . S
C1484 C1483 1.410 . S
C1484 C1485 1.392 . S
C1484 C1487 1.511 . S
C1485 C1481 1.376 . S
C1485 C1484 1.392 . S
C1485 H1497 0.929 . S
C1486 C1482 1.531 . S
C1486 H1498 0.960 . S
C1486 H1499 0.962 . S
C1486 H1500 0.960 . S
C1487 C1484 1.511 . S
C1487 H1501 0.961 . S
C1487 H1502 0.961 . S
C1487 H1503 0.961 . S
C1488 C1489 1.370 . S
C1488 C1490 1.363 . S
C1488 H1504 0.931 . S
C1489 C1488 1.370 . S
C1489 C1493 1.408 . S
C1490 C1488 1.363 . S
C1490 C1491 1.370 . S
C1490 C1494 1.524 . S
C1491 C1483 1.503 . S
C1491 C1490 1.370 . S
C1491 C1492 1.403 . S
C1492 C1491 1.403 . S
C1492 C1493 1.404 . S
C1492 C1495 1.539 . S
C1493 C1489 1.408 . S
C1493 C1492 1.404 . S
C1493 H1505 0.930 . S
C1494 C1490 1.524 . S
C1494 H1506 0.956 . S
C1494 H1507 0.961 . S
C1494 H1508 0.961 . S
C1495 C1492 1.539 . S
C1495 H1509 0.958 . S
C1495 H1510 0.961 . S
C1495 H1511 0.960 . S
H1496 C1480 0.931 . S
H1497 C1485 0.929 . S
H1498 C1486 0.960 . S
H1499 C1486 0.962 . S
H1500 C1486 0.960 . S
H1501 C1487 0.961 . S
H1502 C1487 0.961 . S
H1503 C1487 0.961 . S
H1504 C1488 0.931 . S
H1505 C1493 0.930 . S
H1506 C1494 0.956 . S
H1507 C1494 0.961 . S
H1508 C1494 0.961 . S
H1509 C1495 0.958 . S
H1510 C1495 0.961 . S
H1511 C1495 0.960 . S
C1512 C1513 1.391 . S
C1512 C1514 1.394 . S
C1512 H1528 0.931 . S
C1513 C1512 1.391 . S
C1513 C1517 1.376 . S
C1514 C1512 1.394 . S
C1514 C1515 1.369 . S
C1514 C1518 1.531 . S
C1515 C1514 1.369 . S
C1515 C1516 1.410 . S
C1515 C1523 1.503 . S
C1516 C1515 1.410 . S
C1516 C1517 1.392 . S
C1516 C1519 1.511 . S
C1517 C1513 1.376 . S
C1517 C1516 1.392 . S
C1517 H1529 0.929 . S
C1518 C1514 1.531 . S
C1518 H1530 0.960 . S
C1518 H1531 0.962 . S
C1518 H1532 0.960 . S
C1519 C1516 1.511 . S
C1519 H1533 0.961 . S
C1519 H1534 0.961 . S
C1519 H1535 0.961 . S
C1520 C1521 1.370 . S
C1520 C1522 1.363 . S
C1520 H1536 0.931 . S
C1521 C1520 1.370 . S
C1521 C1525 1.408 . S
C1522 C1520 1.363 . S
C1522 C1523 1.370 . S
C1522 C1526 1.524 . S
C1523 C1515 1.503 . S
C1523 C1522 1.370 . S
C1523 C1524 1.403 . S
C1524 C1523 1.403 . S
C1524 C1525 1.404 . S
C1524 C1527 1.539 . S
C1525 C1521 1.408 . S
C1525 C1524 1.404 . S
C1525 H1537 0.930 . S
C1526 C1522 1.524 . S
C1526 H1538 0.956 . S
C1526 H1539 0.961 . S
C1526 H1540 0.961 . S
C1527 C1524 1.539 . S
C1527 H1541 0.958 . S
C1527 H1542 0.961 . S
C1527 H1543 0.960 . S
H1528 C1512 0.931 . S
H1529 C1517 0.929 . S
H1530 C1518 0.960 . S
H1531 C1518 0.962 . S
H1532 C1518 0.960 . S
H1533 C1519 0.961 . S
H1534 C1519 0.961 . S
H1535 C1519 0.961 . S
H1536 C1520 0.931 . S
H1537 C1525 0.930 . S
H1538 C1526 0.956 . S
H1539 C1526 0.961 . S
H1540 C1526 0.961 . S
H1541 C1527 0.958 . S
H1542 C1527 0.961 . S
H1543 C1527 0.960 . S
C1544 C1545 1.391 . S
C1544 C1546 1.394 . S
C1544 H1560 0.931 . S
C1545 C1544 1.391 . S
C1545 C1549 1.376 . S
C1546 C1544 1.394 . S
C1546 C1547 1.369 . S
C1546 C1550 1.531 . S
C1547 C1546 1.369 . S
C1547 C1548 1.410 . S
C1547 C1555 1.503 . S
C1548 C1547 1.410 . S
C1548 C1549 1.392 . S
C1548 C1551 1.511 . S
C1549 C1545 1.376 . S
C1549 C1548 1.392 . S
C1549 H1561 0.929 . S
C1550 C1546 1.531 . S
C1550 H1562 0.960 . S
C1550 H1563 0.962 . S
C1550 H1564 0.960 . S
C1551 C1548 1.511 . S
C1551 H1565 0.961 . S
C1551 H1566 0.961 . S
C1551 H1567 0.961 . S
C1552 C1553 1.370 . S
C1552 C1554 1.363 . S
C1552 H1568 0.931 . S
C1553 C1552 1.370 . S
C1553 C1557 1.408 . S
C1554 C1552 1.363 . S
C1554 C1555 1.370 . S
C1554 C1558 1.524 . S
C1555 C1547 1.503 . S
C1555 C1554 1.370 . S
C1555 C1556 1.403 . S
C1556 C1555 1.403 . S
C1556 C1557 1.404 . S
C1556 C1559 1.539 . S
C1557 C1553 1.408 . S
C1557 C1556 1.404 . S
C1557 H1569 0.930 . S
C1558 C1554 1.524 . S
C1558 H1570 0.956 . S
C1558 H1571 0.961 . S
C1558 H1572 0.961 . S
C1559 C1556 1.539 . S
C1559 H1573 0.958 . S
C1559 H1574 0.961 . S
C1559 H1575 0.960 . S
H1560 C1544 0.931 . S
H1561 C1549 0.929 . S
H1562 C1550 0.960 . S
H1563 C1550 0.962 . S
H1564 C1550 0.960 . S
H1565 C1551 0.961 . S
H1566 C1551 0.961 . S
H1567 C1551 0.961 . S
H1568 C1552 0.931 . S
H1569 C1557 0.930 . S
H1570 C1558 0.956 . S
H1571 C1558 0.961 . S
H1572 C1558 0.961 . S
H1573 C1559 0.958 . S
H1574 C1559 0.961 . S
H1575 C1559 0.960 . S
C1576 C1577 1.391 . S
C1576 C1578 1.394 . S
C1576 H1592 0.931 . S
C1577 C1576 1.391 . S
C1577 C1581 1.376 . S
C1578 C1576 1.394 . S
C1578 C1579 1.369 . S
C1578 C1582 1.531 . S
C1579 C1578 1.369 . S
C1579 C1580 1.410 . S
C1579 C1587 1.503 . S
C1580 C1579 1.410 . S
C1580 C1581 1.392 . S
C1580 C1583 1.511 . S
C1581 C1577 1.376 . S
C1581 C1580 1.392 . S
C1581 H1593 0.929 . S
C1582 C1578 1.531 . S
C1582 H1594 0.960 . S
C1582 H1595 0.962 . S
C1582 H1596 0.960 . S
C1583 C1580 1.511 . S
C1583 H1597 0.961 . S
C1583 H1598 0.961 . S
C1583 H1599 0.961 . S
C1584 C1585 1.370 . S
C1584 C1586 1.363 . S
C1584 H1600 0.931 . S
C1585 C1584 1.370 . S
C1585 C1589 1.408 . S
C1586 C1584 1.363 . S
C1586 C1587 1.370 . S
C1586 C1590 1.524 . S
C1587 C1579 1.503 . S
C1587 C1586 1.370 . S
C1587 C1588 1.403 . S
C1588 C1587 1.403 . S
C1588 C1589 1.404 . S
C1588 C1591 1.539 . S
C1589 C1585 1.408 . S
C1589 C1588 1.404 . S
C1589 H1601 0.930 . S
C1590 C1586 1.524 . S
C1590 H1602 0.956 . S
C1590 H1603 0.961 . S
C1590 H1604 0.961 . S
C1591 C1588 1.539 . S
C1591 H1605 0.958 . S
C1591 H1606 0.961 . S
C1591 H1607 0.960 . S
H1592 C1576 0.931 . S
H1593 C1581 0.929 . S
H1594 C1582 0.960 . S
H1595 C1582 0.962 . S
H1596 C1582 0.960 . S
H1597 C1583 0.961 . S
H1598 C1583 0.961 . S
H1599 C1583 0.961 . S
H1600 C1584 0.931 . S
H1601 C1589 0.930 . S
H1602 C1590 0.956 . S
H1603 C1590 0.961 . S
H1604 C1590 0.961 . S
H1605 C1591 0.958 . S
H1606 C1591 0.961 . S
H1607 C1591 0.960 . S
C1608 C1609 1.391 . S
C1608 C1610 1.394 . S
C1608 H1624 0.931 . S
C1609 C1608 1.391 . S
C1609 C1613 1.376 . S
C1610 C1608 1.394 . S
C1610 C1611 1.369 . S
C1610 C1614 1.531 . S
C1611 C1610 1.369 . S
C1611 C1612 1.410 . S
C1611 C1619 1.503 . S
C1612 C1611 1.410 . S
C1612 C1613 1.392 . S
C1612 C1615 1.511 . S
C1613 C1609 1.376 . S
C1613 C1612 1.392 . S
C1613 H1625 0.929 . S
C1614 C1610 1.531 . S
C1614 H1626 0.960 . S
C1614 H1627 0.962 . S
C1614 H1628 0.960 . S
C1615 C1612 1.511 . S
C1615 H1629 0.961 . S
C1615 H1630 0.961 . S
C1615 H1631 0.961 . S
C1616 C1617 1.370 . S
C1616 C1618 1.363 . S
C1616 H1632 0.931 . S
C1617 C1616 1.370 . S
C1617 C1621 1.408 . S
C1618 C1616 1.363 . S
C1618 C1619 1.370 . S
C1618 C1622 1.524 . S
C1619 C1611 1.503 . S
C1619 C1618 1.370 . S
C1619 C1620 1.403 . S
C1620 C1619 1.403 . S
C1620 C1621 1.404 . S
C1620 C1623 1.539 . S
C1621 C1617 1.408 . S
C1621 C1620 1.404 . S
C1621 H1633 0.930 . S
C1622 C1618 1.524 . S
C1622 H1634 0.956 . S
C1622 H1635 0.961 . S
C1622 H1636 0.961 . S
C1623 C1620 1.539 . S
C1623 H1637 0.958 . S
C1623 H1638 0.961 . S
C1623 H1639 0.960 . S
H1624 C1608 0.931 . S
H1625 C1613 0.929 . S
H1626 C1614 0.960 . S
H1627 C1614 0.962 . S
H1628 C1614 0.960 . S
H1629 C1615 0.961 . S
H1630 C1615 0.961 . S
H1631 C1615 0.961 . S
H1632 C1616 0.931 . S
H1633 C1621 0.930 . S
H1634 C1622 0.956 . S
H1635 C1622 0.961 . S
H1636 C1622 0.961 . S
H1637 C1623 0.958 . S
H1638 C1623 0.961 . S
H1639 C1623 0.960 . S
C1640 C1641 1.391 . S
C1640 C1642 1.394 . S
C1640 H1656 0.931 . S
C1641 C1640 1.391 . S
C1641 C1645 1.376 . S
C1642 C1640 1.394 . S
C1642 C1643 1.369 . S
C1642 C1646 1.531 . S
C1643 C1642 1.369 . S
C1643 C1644 1.410 . S
C1643 C1651 1.503 . S
C1644 C1643 1.410 . S
C1644 C1645 1.392 . S
C1644 C1647 1.511 . S
C1645 C1641 1.376 . S
C1645 C1644 1.392 . S
C1645 H1657 0.929 . S
C1646 C1642 1.531 . S
C1646 H1658 0.960 . S
C1646 H1659 0.962 . S
C1646 H1660 0.960 . S
C1647 C1644 1.511 . S
C1647 H1661 0.961 . S
C1647 H1662 0.961 . S
C1647 H1663 0.961 . S
C1648 C1649 1.370 . S
C1648 C1650 1.363 . S
C1648 H1664 0.931 . S
C1649 C1648 1.370 . S
C1649 C1653 1.408 . S
C1650 C1648 1.363 . S
C1650 C1651 1.370 . S
C1650 C1654 1.524 . S
C1651 C1643 1.503 . S
C1651 C1650 1.370 . S
C1651 C1652 1.403 . S
C1652 C1651 1.403 . S
C1652 C1653 1.404 . S
C1652 C1655 1.539 . S
C1653 C1649 1.408 . S
C1653 C1652 1.404 . S
C1653 H1665 0.930 . S
C1654 C1650 1.524 . S
C1654 H1666 0.956 . S
C1654 H1667 0.961 . S
C1654 H1668 0.961 . S
C1655 C1652 1.539 . S
C1655 H1669 0.958 . S
C1655 H1670 0.961 . S
C1655 H1671 0.960 . S
H1656 C1640 0.931 . S
H1657 C1645 0.929 . S
H1658 C1646 0.960 . S
H1659 C1646 0.962 . S
H1660 C1646 0.960 . S
H1661 C1647 0.961 . S
H1662 C1647 0.961 . S
H1663 C1647 0.961 . S
H1664 C1648 0.931 . S
H1665 C1653 0.930 . S
H1666 C1654 0.956 . S
H1667 C1654 0.961 . S
H1668 C1654 0.961 . S
H1669 C1655 0.958 . S
H1670 C1655 0.961 . S
H1671 C1655 0.960 . S
C1672 C1673 1.391 . S
C1672 C1674 1.394 . S
C1672 H1688 0.931 . S
C1673 C1672 1.391 . S
C1673 C1677 1.376 . S
C1674 C1672 1.394 . S
C1674 C1675 1.369 . S
C1674 C1678 1.531 . S
C1675 C1674 1.369 . S
C1675 C1676 1.410 . S
C1675 C1683 1.503 . S
C1676 C1675 1.410 . S
C1676 C1677 1.392 . S
C1676 C1679 1.511 . S
C1677 C1673 1.376 . S
C1677 C1676 1.392 . S
C1677 H1689 0.929 . S
C1678 C1674 1.531 . S
C1678 H1690 0.960 . S
C1678 H1691 0.962 . S
C1678 H1692 0.960 . S
C1679 C1676 1.511 . S
C1679 H1693 0.961 . S
C1679 H1694 0.961 . S
C1679 H1695 0.961 . S
C1680 C1681 1.370 . S
C1680 C1682 1.363 . S
C1680 H1696 0.931 . S
C1681 C1680 1.370 . S
C1681 C1685 1.408 . S
C1682 C1680 1.363 . S
C1682 C1683 1.370 . S
C1682 C1686 1.524 . S
C1683 C1675 1.503 . S
C1683 C1682 1.370 . S
C1683 C1684 1.403 . S
C1684 C1683 1.403 . S
C1684 C1685 1.404 . S
C1684 C1687 1.539 . S
C1685 C1681 1.408 . S
C1685 C1684 1.404 . S
C1685 H1697 0.930 . S
C1686 C1682 1.524 . S
C1686 H1698 0.956 . S
C1686 H1699 0.961 . S
C1686 H1700 0.961 . S
C1687 C1684 1.539 . S
C1687 H1701 0.958 . S
C1687 H1702 0.961 . S
C1687 H1703 0.960 . S
H1688 C1672 0.931 . S
H1689 C1677 0.929 . S
H1690 C1678 0.960 . S
H1691 C1678 0.962 . S
H1692 C1678 0.960 . S
H1693 C1679 0.961 . S
H1694 C1679 0.961 . S
H1695 C1679 0.961 . S
H1696 C1680 0.931 . S
H1697 C1685 0.930 . S
H1698 C1686 0.956 . S
H1699 C1686 0.961 . S
H1700 C1686 0.961 . S
H1701 C1687 0.958 . S
H1702 C1687 0.961 . S
H1703 C1687 0.960 . S
C1704 C1705 1.391 . S
C1704 C1706 1.394 . S
C1704 H1720 0.931 . S
C1705 C1704 1.391 . S
C1705 C1709 1.376 . S
C1706 C1704 1.394 . S
C1706 C1707 1.369 . S
C1706 C1710 1.531 . S
C1707 C1706 1.369 . S
C1707 C1708 1.410 . S
C1707 C1715 1.503 . S
C1708 C1707 1.410 . S
C1708 C1709 1.392 . S
C1708 C1711 1.511 . S
C1709 C1705 1.376 . S
C1709 C1708 1.392 . S
C1709 H1721 0.929 . S
C1710 C1706 1.531 . S
C1710 H1722 0.960 . S
C1710 H1723 0.962 . S
C1710 H1724 0.960 . S
C1711 C1708 1.511 . S
C1711 H1725 0.961 . S
C1711 H1726 0.961 . S
C1711 H1727 0.961 . S
C1712 C1713 1.370 . S
C1712 C1714 1.363 . S
C1712 H1728 0.931 . S
C1713 C1712 1.370 . S
C1713 C1717 1.408 . S
C1714 C1712 1.363 . S
C1714 C1715 1.370 . S
C1714 C1718 1.524 . S
C1715 C1707 1.503 . S
C1715 C1714 1.370 . S
C1715 C1716 1.403 . S
C1716 C1715 1.403 . S
C1716 C1717 1.404 . S
C1716 C1719 1.539 . S
C1717 C1713 1.408 . S
C1717 C1716 1.404 . S
C1717 H1729 0.930 . S
C1718 C1714 1.524 . S
C1718 H1730 0.956 . S
C1718 H1731 0.961 . S
C1718 H1732 0.961 . S
C1719 C1716 1.539 . S
C1719 H1733 0.958 . S
C1719 H1734 0.961 . S
C1719 H1735 0.960 . S
H1720 C1704 0.931 . S
H1721 C1709 0.929 . S
H1722 C1710 0.960 . S
H1723 C1710 0.962 . S
H1724 C1710 0.960 . S
H1725 C1711 0.961 . S
H1726 C1711 0.961 . S
H1727 C1711 0.961 . S
H1728 C1712 0.931 . S
H1729 C1717 0.930 . S
H1730 C1718 0.956 . S
H1731 C1718 0.961 . S
H1732 C1718 0.961 . S
H1733 C1719 0.958 . S
H1734 C1719 0.961 . S
H1735 C1719 0.960 . S
C1736 C1737 1.391 . S
C1736 C1738 1.394 . S
C1736 H1752 0.931 . S
C1737 C1736 1.391 . S
C1737 C1741 1.376 . S
C1738 C1736 1.394 . S
C1738 C1739 1.369 . S
C1738 C1742 1.531 . S
C1739 C1738 1.369 . S
C1739 C1740 1.410 . S
C1739 C1747 1.503 . S
C1740 C1739 1.410 . S
C1740 C1741 1.392 . S
C1740 C1743 1.511 . S
C1741 C1737 1.376 . S
C1741 C1740 1.392 . S
C1741 H1753 0.929 . S
C1742 C1738 1.531 . S
C1742 H1754 0.960 . S
C1742 H1755 0.962 . S
C1742 H1756 0.960 . S
C1743 C1740 1.511 . S
C1743 H1757 0.961 . S
C1743 H1758 0.961 . S
C1743 H1759 0.961 . S
C1744 C1745 1.370 . S
C1744 C1746 1.363 . S
C1744 H1760 0.931 . S
C1745 C1744 1.370 . S
C1745 C1749 1.408 . S
C1746 C1744 1.363 . S
C1746 C1747 1.370 . S
C1746 C1750 1.524 . S
C1747 C1739 1.503 . S
C1747 C1746 1.370 . S
C1747 C1748 1.403 . S
C1748 C1747 1.403 . S
C1748 C1749 1.404 . S
C1748 C1751 1.539 . S
C1749 C1745 1.408 . S
C1749 C1748 1.404 . S
C1749 H1761 0.930 . S
C1750 C1746 1.524 . S
C1750 H1762 0.956 . S
C1750 H1763 0.961 . S
C1750 H1764 0.961 . S
C1751 C1748 1.539 . S
C1751 H1765 0.958 . S
C1751 H1766 0.961 . S
C1751 H1767 0.960 . S
H1752 C1736 0.931 . S
H1753 C1741 0.929 . S
H1754 C1742 0.960 . S
H1755 C1742 0.962 . S
H1756 C1742 0.960 . S
H1757 C1743 0.961 . S
H1758 C1743 0.961 . S
H1759 C1743 0.961 . S
H1760 C1744 0.931 . S
H1761 C1749 0.930 . S
H1762 C1750 0.956 . S
H1763 C1750 0.961 . S
H1764 C1750 0.961 . S
H1765 C1751 0.958 . S
H1766 C1751 0.961 . S
H1767 C1751 0.960 . S
C1768 C1769 1.391 . S
C1768 C1770 1.394 . S
C1768 H1784 0.931 . S
C1769 C1768 1.391 . S
C1769 C1773 1.376 . S
C1770 C1768 1.394 . S
C1770 C1771 1.369 . S
C1770 C1774 1.531 . S
C1771 C1770 1.369 . S
C1771 C1772 1.410 . S
C1771 C1779 1.503 . S
C1772 C1771 1.410 . S
C1772 C1773 1.392 . S
C1772 C1775 1.511 . S
C1773 C1769 1.376 . S
C1773 C1772 1.392 . S
C1773 H1785 0.929 . S
C1774 C1770 1.531 . S
C1774 H1786 0.960 . S
C1774 H1787 0.962 . S
C1774 H1788 0.960 . S
C1775 C1772 1.511 . S
C1775 H1789 0.961 . S
C1775 H1790 0.961 . S
C1775 H1791 0.961 . S
C1776 C1777 1.370 . S
C1776 C1778 1.363 . S
C1776 H1792 0.931 . S
C1777 C1776 1.370 . S
C1777 C1781 1.408 . S
C1778 C1776 1.363 . S
C1778 C1779 1.370 . S
C1778 C1782 1.524 . S
C1779 C1771 1.503 . S
C1779 C1778 1.370 . S
C1779 C1780 1.403 . S
C1780 C1779 1.403 . S
C1780 C1781 1.404 . S
C1780 C1783 1.539 . S
C1781 C1777 1.408 . S
C1781 C1780 1.404 . S
C1781 H1793 0.930 . S
C1782 C1778 1.524 . S
C1782 H1794 0.956 . S
C1782 H1795 0.961 . S
C1782 H1796 0.961 . S
C1783 C1780 1.539 . S
C1783 H1797 0.958 . S
C1783 H1798 0.961 . S
C1783 H1799 0.960 . S
H1784 C1768 0.931 . S
H1785 C1773 0.929 . S
H1786 C1774 0.960 . S
H1787 C1774 0.962 . S
H1788 C1774 0.960 . S
H1789 C1775 0.961 . S
H1790 C1775 0.961 . S
H1791 C1775 0.961 . S
H1792 C1776 0.931 . S
H1793 C1781 0.930 . S
H1794 C1782 0.956 . S
H1795 C1782 0.961 . S
H1796 C1782 0.961 . S
H1797 C1783 0.958 . S
H1798 C1783 0.961 . S
H1799 C1783 0.960 . S
C1800 C1801 1.391 . S
C1800 C1802 1.394 . S
C1800 H1816 0.931 . S
C1801 C1800 1.391 . S
C1801 C1805 1.376 . S
C1802 C1800 1.394 . S
C1802 C1803 1.369 . S
C1802 C1806 1.531 . S
C1803 C1802 1.369 . S
C1803 C1804 1.410 . S
C1803 C1811 1.503 . S
C1804 C1803 1.410 . S
C1804 C1805 1.392 . S
C1804 C1807 1.511 . S
C1805 C1801 1.376 . S
C1805 C1804 1.392 . S
C1805 H1817 0.929 . S
C1806 C1802 1.531 . S
C1806 H1818 0.960 . S
C1806 H1819 0.962 . S
C1806 H1820 0.960 . S
C1807 C1804 1.511 . S
C1807 H1821 0.961 . S
C1807 H1822 0.961 . S
C1807 H1823 0.961 . S
C1808 C1809 1.370 . S
C1808 C1810 1.363 . S
C1808 H1824 0.931 . S
C1809 C1808 1.370 . S
C1809 C1813 1.408 . S
C1810 C1808 1.363 . S
C1810 C1811 1.370 . S
C1810 C1814 1.524 . S
C1811 C1803 1.503 . S
C1811 C1810 1.370 . S
C1811 C1812 1.403 . S
C1812 C1811 1.403 . S
C1812 C1813 1.404 . S
C1812 C1815 1.539 . S
C1813 C1809 1.408 . S
C1813 C1812 1.404 . S
C1813 H1825 0.930 . S
C1814 C1810 1.524 . S
C1814 H1826 0.956 . S
C1814 H1827 0.961 . S
C1814 H1828 0.961 . S
C1815 C1812 1.539 . S
C1815 H1829 0.958 . S
C1815 H1830 0.961 . S
C1815 H1831 0.960 . S
H1816 C1800 0.931 . S
H1817 C1805 0.929 . S
H1818 C1806 0.960 . S
H1819 C1806 0.962 . S
H1820 C1806 0.960 . S
H1821 C1807 0.961 . S
H1822 C1807 0.961 . S
H1823 C1807 0.961 . S
H1824 C1808 0.931 . S
H1825 C1813 0.930 . S
H1826 C1814 0.956 . S
H1827 C1814 0.961 . S
H1828 C1814 0.961 . S
H1829 C1815 0.958 . S
H1830 C1815 0.961 . S
H1831 C1815 0.960 . S
C1832 C1833 1.391 . S
C1832 C1834 1.394 . S
C1832 H1848 0.931 . S
C1833 C1832 1.391 . S
C1833 C1837 1.376 . S
C1834 C1832 1.394 . S
C1834 C1835 1.369 . S
C1834 C1838 1.531 . S
C1835 C1834 1.369 . S
C1835 C1836 1.410 . S
C1835 C1843 1.503 . S
C1836 C1835 1.410 . S
C1836 C1837 1.392 . S
C1836 C1839 1.511 . S
C1837 C1833 1.376 . S
C1837 C1836 1.392 . S
C1837 H1849 0.929 . S
C1838 C1834 1.531 . S
C1838 H1850 0.960 . S
C1838 H1851 0.962 . S
C1838 H1852 0.960 . S
C1839 C1836 1.511 . S
C1839 H1853 0.961 . S
C1839 H1854 0.961 . S
C1839 H1855 0.961 . S
C1840 C1841 1.370 . S
C1840 C1842 1.363 . S
C1840 H1856 0.931 . S
C1841 C1840 1.370 . S
C1841 C1845 1.408 . S
C1842 C1840 1.363 . S
C1842 C1843 1.370 . S
C1842 C1846 1.524 . S
C1843 C1835 1.503 . S
C1843 C1842 1.370 . S
C1843 C1844 1.403 . S
C1844 C1843 1.403 . S
C1844 C1845 1.404 . S
C1844 C1847 1.539 . S
C1845 C1841 1.408 . S
C1845 C1844 1.404 . S
C1845 H1857 0.930 . S
C1846 C1842 1.524 . S
C1846 H1858 0.956 . S
C1846 H1859 0.961 . S
C1846 H1860 0.961 . S
C1847 C1844 1.539 . S
C1847 H1861 0.958 . S
C1847 H1862 0.961 . S
C1847 H1863 0.960 . S
H1848 C1832 0.931 . S
H1849 C1837 0.929 . S
H1850 C1838 0.960 . S
H1851 C1838 0.962 . S
H1852 C1838 0.960 . S
H1853 C1839 0.961 . S
H1854 C1839 0.961 . S
H1855 C1839 0.961 . S
H1856 C1840 0.931 . S
H1857 C1845 0.930 . S
H1858 C1846 0.956 . S
H1859 C1846 0.961 . S
H1860 C1846 0.961 . S
H1861 C1847 0.958 . S
H1862 C1847 0.961 . S
H1863 C1847 0.960 . S
C1864 C1865 1.391 . S
C1864 C1866 1.394 . S
C1864 H1880 0.931 . S
C1865 C1864 1.391 . S
C1865 C1869 1.376 . S
C1866 C1864 1.394 . S
C1866 C1867 1.369 . S
C1866 C1870 1.531 . S
C1867 C1866 1.369 . S
C1867 C1868 1.410 . S
C1867 C1875 1.503 . S
C1868 C1867 1.410 . S
C1868 C1869 1.392 . S
C1868 C1871 1.511 . S
C1869 C1865 1.376 . S
C1869 C1868 1.392 . S
C1869 H1881 0.929 . S
C1870 C1866 1.531 . S
C1870 H1882 0.960 . S
C1870 H1883 0.962 . S
C1870 H1884 0.960 . S
C1871 C1868 1.511 . S
C1871 H1885 0.961 . S
C1871 H1886 0.961 . S
C1871 H1887 0.961 . S
C1872 C1873 1.370 . S
C1872 C1874 1.363 . S
C1872 H1888 0.931 . S
C1873 C1872 1.370 . S
C1873 C1877 1.408 . S
C1874 C1872 1.363 . S
C1874 C1875 1.370 . S
C1874 C1878 1.524 . S
C1875 C1867 1.503 . S
C1875 C1874 1.370 . S
C1875 C1876 1.403 . S
C1876 C1875 1.403 . S
C1876 C1877 1.404 . S
C1876 C1879 1.539 . S
C1877 C1873 1.408 . S
C1877 C1876 1.404 . S
C1877 H1889 0.930 . S
C1878 C1874 1.524 . S
C1878 H1890 0.956 . S
C1878 H1891 0.961 . S
C1878 H1892 0.961 . S
C1879 C1876 1.539 . S
C1879 H1893 0.958 . S
C1879 H1894 0.961 . S
C1879 H1895 0.960 . S
H1880 C1864 0.931 . S
H1881 C1869 0.929 . S
H1882 C1870 0.960 . S
H1883 C1870 0.962 . S
H1884 C1870 0.960 . S
H1885 C1871 0.961 . S
H1886 C1871 0.961 . S
H1887 C1871 0.961 . S
H1888 C1872 0.931 . S
H1889 C1877 0.930 . S
H1890 C1878 0.956 . S
H1891 C1878 0.961 . S
H1892 C1878 0.961 . S
H1893 C1879 0.958 . S
H1894 C1879 0.961 . S
H1895 C1879 0.960 . S
C1896 C1897 1.391 . S
C1896 C1898 1.394 . S
C1896 H1912 0.931 . S
C1897 C1896 1.391 . S
C1897 C1901 1.376 . S
C1898 C1896 1.394 . S
C1898 C1899 1.369 . S
C1898 C1902 1.531 . S
C1899 C1898 1.369 . S
C1899 C1900 1.410 . S
C1899 C1907 1.503 . S
C1900 C1899 1.410 . S
C1900 C1901 1.392 . S
C1900 C1903 1.511 . S
C1901 C1897 1.376 . S
C1901 C1900 1.392 . S
C1901 H1913 0.929 . S
C1902 C1898 1.531 . S
C1902 H1914 0.960 . S
C1902 H1915 0.962 . S
C1902 H1916 0.960 . S
C1903 C1900 1.511 . S
C1903 H1917 0.961 . S
C1903 H1918 0.961 . S
C1903 H1919 0.961 . S
C1904 C1905 1.370 . S
C1904 C1906 1.363 . S
C1904 H1920 0.931 . S
C1905 C1904 1.370 . S
C1905 C1909 1.408 . S
C1906 C1904 1.363 . S
C1906 C1907 1.370 . S
C1906 C1910 1.524 . S
C1907 C1899 1.503 . S
C1907 C1906 1.370 . S
C1907 C1908 1.403 . S
C1908 C1907 1.403 . S
C1908 C1909 1.404 . S
C1908 C1911 1.539 . S
C1909 C1905 1.408 . S
C1909 C1908 1.404 . S
C1909 H1921 0.930 . S
C1910 C1906 1.524 . S
C1910 H1922 0.956 . S
C1910 H1923 0.961 . S
C1910 H1924 0.961 . S
C1911 C1908 1.539 . S
C1911 H1925 0.958 . S
C1911 H1926 0.961 . S
C1911 H1927 0.960 . S
H1912 C1896 0.931 . S
H1913 C1901 0.929 . S
H1914 C1902 0.960 . S
H1915 C1902 0.962 . S
H1916 C1902 0.960 . S
H1917 C1903 0.961 . S
H1918 C1903 0.961 . S
H1919 C1903 0.961 . S
H1920 C1904 0.931 . S
H1921 C1909 0.930 . S
H1922 C1910 0.956 . S
H1923 C1910 0.961 . S
H1924 C1910 0.961 . S
H1925 C1911 0.958 . S
H1926 C1911 0.961 . S
H1927 C1911 0.960 . S
C1928 C1929 1.391 . S
C1928 C1930 1.394 . S
C1928 H1944 0.931 . S
C1929 C1928 1.391 . S
C1929 C1933 1.376 . S
C1930 C1928 1.394 . S
C1930 C1931 1.369 . S
C1930 C1934 1.531 . S
C1931 C1930 1.369 . S
C1931 C1932 1.410 . S
C1931 C1939 1.503 . S
C1932 C1931 1.410 . S
C1932 C1933 1.392 . S
C1932 C1935 1.511 . S
C1933 C1929 1.376 . S
C1933 C1932 1.392 . S
C1933 H1945 0.929 . S
C1934 C1930 1.531 . S
C1934 H1946 0.960 . S
C1934 H1947 0.962 . S
C1934 H1948 0.960 . S
C1935 C1932 1.511 . S
C1935 H1949 0.961 . S
C1935 H1950 0.961 . S
C1935 H1951 0.961 . S
C1936 C1937 1.370 . S
C1936 C1938 1.363 . S
C1936 H1952 0.931 . S
C1937 C1936 1.370 . S
C1937 C1941 1.408 . S
C1938 C1936 1.363 . S
C1938 C1939 1.370 . S
C1938 C1942 1.524 . S
C1939 C1931 1.503 . S
C1939 C1938 1.370 . S
C1939 C1940 1.403 . S
C1940 C1939 1.403 . S
C1940 C1941 1.404 . S
C1940 C1943 1.539 . S
C1941 C1937 1.408 . S
C1941 C1940 1.404 . S
C1941 H1953 0.930 . S
C1942 C1938 1.524 . S
C1942 H1954 0.956 . S
C1942 H1955 0.961 . S
C1942 H1956 0.961 . S
C1943 C1940 1.539 . S
C1943 H1957 0.958 . S
C1943 H1958 0.961 . S
C1943 H1959 0.960 . S
H1944 C1928 0.931 . S
H1945 C1933 0.929 . S
H1946 C1934 0.960 . S
H1947 C1934 0.962 . S
H1948 C1934 0.960 . S
H1949 C1935 0.961 . S
H1950 C1935 0.961 . S
H1951 C1935 0.961 . S
H1952 C1936 0.931 . S
H1953 C1941 0.930 . S
H1954 C1942 0.956 . S
H1955 C1942 0.961 . S
H1956 C1942 0.961 . S
H1957 C1943 0.958 . S
H1958 C1943 0.961 . S
H1959 C1943 0.960 . S
C1960 C1961 1.391 . S
C1960 C1962 1.394 . S
C1960 H1976 0.931 . S
C1961 C1960 1.391 . S
C1961 C1965 1.376 . S
C1962 C1960 1.394 . S
C1962 C1963 1.369 . S
C1962 C1966 1.531 . S
C1963 C1962 1.369 . S
C1963 C1964 1.410 . S
C1963 C1971 1.503 . S
C1964 C1963 1.410 . S
C1964 C1965 1.392 . S
C1964 C1967 1.511 . S
C1965 C1961 1.376 . S
C1965 C1964 1.392 . S
C1965 H1977 0.929 . S
C1966 C1962 1.531 . S
C1966 H1978 0.960 . S
C1966 H1979 0.962 . S
C1966 H1980 0.960 . S
C1967 C1964 1.511 . S
C1967 H1981 0.961 . S
C1967 H1982 0.961 . S
C1967 H1983 0.961 . S
C1968 C1969 1.370 . S
C1968 C1970 1.363 . S
C1968 H1984 0.931 . S
C1969 C1968 1.370 . S
C1969 C1973 1.408 . S
C1970 C1968 1.363 . S
C1970 C1971 1.370 . S
C1970 C1974 1.524 . S
C1971 C1963 1.503 . S
C1971 C1970 1.370 . S
C1971 C1972 1.403 . S
C1972 C1971 1.403 . S
C1972 C1973 1.404 . S
C1972 C1975 1.539 . S
C1973 C1969 1.408 . S
C1973 C1972 1.404 . S
C1973 H1985 0.930 . S
C1974 C1970 1.524 . S
C1974 H1986 0.956 . S
C1974 H1987 0.961 . S
C1974 H1988 0.961 . S
C1975 C1972 1.539 . S
C1975 H1989 0.958 . S
C1975 H1990 0.961 . S
C1975 H1991 0.960 . S
H1976 C1960 0.931 . S
H1977 C1965 0.929 . S
H1978 C1966 0.960 . S
H1979 C1966 0.962 . S
H1980 C1966 0.960 . S
H1981 C1967 0.961 . S
H1982 C1967 0.961 . S
H1983 C1967 0.961 . S
H1984 C1968 0.931 . S
H1985 C1973 0.930 . S
H1986 C1974 0.956 . S
H1987 C1974 0.961 . S
H1988 C1974 0.961 . S
H1989 C1975 0.958 . S
H1990 C1975 0.961 . S
H1991 C1975 0.960 . S
C1992 C1993 1.391 . S
C1992 C1994 1.394 . S
C1992 H2008 0.931 . S
C1993 C1992 1.391 . S
C1993 C1997 1.376 . S
C1994 C1992 1.394 . S
C1994 C1995 1.369 . S
C1994 C1998 1.531 . S
C1995 C1994 1.369 . S
C1995 C1996 1.410 . S
C1995 C2003 1.503 . S
C1996 C1995 1.410 . S
C1996 C1997 1.392 . S
C1996 C1999 1.511 . S
C1997 C1993 1.376 . S
C1997 C1996 1.392 . S
C1997 H2009 0.929 . S
C1998 C1994 1.531 . S
C1998 H2010 0.960 . S
C1998 H2011 0.962 . S
C1998 H2012 0.960 . S
C1999 C1996 1.511 . S
C1999 H2013 0.961 . S
C1999 H2014 0.961 . S
C1999 H2015 0.961 . S
C2000 C2001 1.370 . S
C2000 C2002 1.363 . S
C2000 H2016 0.931 . S
C2001 C2000 1.370 . S
C2001 C2005 1.408 . S
C2002 C2000 1.363 . S
C2002 C2003 1.370 . S
C2002 C2006 1.524 . S
C2003 C1995 1.503 . S
C2003 C2002 1.370 . S
C2003 C2004 1.403 . S
C2004 C2003 1.403 . S
C2004 C2005 1.404 . S
C2004 C2007 1.539 . S
C2005 C2001 1.408 . S
C2005 C2004 1.404 . S
C2005 H2017 0.930 . S
C2006 C2002 1.524 . S
C2006 H2018 0.956 . S
C2006 H2019 0.961 . S
C2006 H2020 0.961 . S
C2007 C2004 1.539 . S
C2007 H2021 0.958 . S
C2007 H2022 0.961 . S
C2007 H2023 0.960 . S
H2008 C1992 0.931 . S
H2009 C1997 0.929 . S
H2010 C1998 0.960 . S
H2011 C1998 0.962 . S
H2012 C1998 0.960 . S
H2013 C1999 0.961 . S
H2014 C1999 0.961 . S
H2015 C1999 0.961 . S
H2016 C2000 0.931 . S
H2017 C2005 0.930 . S
H2018 C2006 0.956 . S
H2019 C2006 0.961 . S
H2020 C2006 0.961 . S
H2021 C2007 0.958 . S
H2022 C2007 0.961 . S
H2023 C2007 0.960 . S
C2024 C2025 1.391 . S
C2024 C2026 1.394 . S
C2024 H2040 0.931 . S
C2025 C2024 1.391 . S
C2025 C2029 1.376 . S
C2026 C2024 1.394 . S
C2026 C2027 1.369 . S
C2026 C2030 1.531 . S
C2027 C2026 1.369 . S
C2027 C2028 1.410 . S
C2027 C2035 1.503 . S
C2028 C2027 1.410 . S
C2028 C2029 1.392 . S
C2028 C2031 1.511 . S
C2029 C2025 1.376 . S
C2029 C2028 1.392 . S
C2029 H2041 0.929 . S
C2030 C2026 1.531 . S
C2030 H2042 0.960 . S
C2030 H2043 0.962 . S
C2030 H2044 0.960 . S
C2031 C2028 1.511 . S
C2031 H2045 0.961 . S
C2031 H2046 0.961 . S
C2031 H2047 0.961 . S
C2032 C2033 1.370 . S
C2032 C2034 1.363 . S
C2032 H2048 0.931 . S
C2033 C2032 1.370 . S
C2033 C2037 1.408 . S
C2034 C2032 1.363 . S
C2034 C2035 1.370 . S
C2034 C2038 1.524 . S
C2035 C2027 1.503 . S
C2035 C2034 1.370 . S
C2035 C2036 1.403 . S
C2036 C2035 1.403 . S
C2036 C2037 1.404 . S
C2036 C2039 1.539 . S
C2037 C2033 1.408 . S
C2037 C2036 1.404 . S
C2037 H2049 0.930 . S
C2038 C2034 1.524 . S
C2038 H2050 0.956 . S
C2038 H2051 0.961 . S
C2038 H2052 0.961 . S
C2039 C2036 1.539 . S
C2039 H2053 0.958 . S
C2039 H2054 0.961 . S
C2039 H2055 0.960 . S
H2040 C2024 0.931 . S
H2041 C2029 0.929 . S
H2042 C2030 0.960 . S
H2043 C2030 0.962 . S
H2044 C2030 0.960 . S
H2045 C2031 0.961 . S
H2046 C2031 0.961 . S
H2047 C2031 0.961 . S
H2048 C2032 0.931 . S
H2049 C2037 0.930 . S
H2050 C2038 0.956 . S
H2051 C2038 0.961 . S
H2052 C2038 0.961 . S
H2053 C2039 0.958 . S
H2054 C2039 0.961 . S
H2055 C2039 0.960 . S
C2056 C2057 1.391 . S
C2056 C2058 1.394 . S
C2056 H2072 0.931 . S
C2057 C2056 1.391 . S
C2057 C2061 1.376 . S
C2058 C2056 1.394 . S
C2058 C2059 1.369 . S
C2058 C2062 1.531 . S
C2059 C2058 1.369 . S
C2059 C2060 1.410 . S
C2059 C2067 1.503 . S
C2060 C2059 1.410 . S
C2060 C2061 1.392 . S
C2060 C2063 1.511 . S
C2061 C2057 1.376 . S
C2061 C2060 1.392 . S
C2061 H2073 0.929 . S
C2062 C2058 1.531 . S
C2062 H2074 0.960 . S
C2062 H2075 0.962 . S
C2062 H2076 0.960 . S
C2063 C2060 1.511 . S
C2063 H2077 0.961 . S
C2063 H2078 0.961 . S
C2063 H2079 0.961 . S
C2064 C2065 1.370 . S
C2064 C2066 1.363 . S
C2064 H2080 0.931 . S
C2065 C2064 1.370 . S
C2065 C2069 1.408 . S
C2066 C2064 1.363 . S
C2066 C2067 1.370 . S
C2066 C2070 1.524 . S
C2067 C2059 1.503 . S
C2067 C2066 1.370 . S
C2067 C2068 1.403 . S
C2068 C2067 1.403 . S
C2068 C2069 1.404 . S
C2068 C2071 1.539 . S
C2069 C2065 1.408 . S
C2069 C2068 1.404 . S
C2069 H2081 0.930 . S
C2070 C2066 1.524 . S
C2070 H2082 0.956 . S
C2070 H2083 0.961 . S
C2070 H2084 0.961 . S
C2071 C2068 1.539 . S
C2071 H2085 0.958 . S
C2071 H2086 0.961 . S
C2071 H2087 0.960 . S
H2072 C2056 0.931 . S
H2073 C2061 0.929 . S
H2074 C2062 0.960 . S
H2075 C2062 0.962 . S
H2076 C2062 0.960 . S
H2077 C2063 0.961 . S
H2078 C2063 0.961 . S
H2079 C2063 0.961 . S
H2080 C2064 0.931 . S
H2081 C2069 0.930 . S
H2082 C2070 0.956 . S
H2083 C2070 0.961 . S
H2084 C2070 0.961 . S
H2085 C2071 0.958 . S
H2086 C2071 0.961 . S
H2087 C2071 0.960 . S
C2088 C2089 1.391 . S
C2088 C2090 1.394 . S
C2088 H2104 0.931 . S
C2089 C2088 1.391 . S
C2089 C2093 1.376 . S
C2090 C2088 1.394 . S
C2090 C2091 1.369 . S
C2090 C2094 1.531 . S
C2091 C2090 1.369 . S
C2091 C2092 1.410 . S
C2091 C2099 1.503 . S
C2092 C2091 1.410 . S
C2092 C2093 1.392 . S
C2092 C2095 1.511 . S
C2093 C2089 1.376 . S
C2093 C2092 1.392 . S
C2093 H2105 0.929 . S
C2094 C2090 1.531 . S
C2094 H2106 0.960 . S
C2094 H2107 0.962 . S
C2094 H2108 0.960 . S
C2095 C2092 1.511 . S
C2095 H2109 0.961 . S
C2095 H2110 0.961 . S
C2095 H2111 0.961 . S
C2096 C2097 1.370 . S
C2096 C2098 1.363 . S
C2096 H2112 0.931 . S
C2097 C2096 1.370 . S
C2097 C2101 1.408 . S
C2098 C2096 1.363 . S
C2098 C2099 1.370 . S
C2098 C2102 1.524 . S
C2099 C2091 1.503 . S
C2099 C2098 1.370 . S
C2099 C2100 1.403 . S
C2100 C2099 1.403 . S
C2100 C2101 1.404 . S
C2100 C2103 1.539 . S
C2101 C2097 1.408 . S
C2101 C2100 1.404 . S
C2101 H2113 0.930 . S
C2102 C2098 1.524 . S
C2102 H2114 0.956 . S
C2102 H2115 0.961 . S
C2102 H2116 0.961 . S
C2103 C2100 1.539 . S
C2103 H2117 0.958 . S
C2103 H2118 0.961 . S
C2103 H2119 0.960 . S
H2104 C2088 0.931 . S
H2105 C2093 0.929 . S
H2106 C2094 0.960 . S
H2107 C2094 0.962 . S
H2108 C2094 0.960 . S
H2109 C2095 0.961 . S
H2110 C2095 0.961 . S
H2111 C2095 0.961 . S
H2112 C2096 0.931 . S
H2113 C2101 0.930 . S
H2114 C2102 0.956 . S
H2115 C2102 0.961 . S
H2116 C2102 0.961 . S
H2117 C2103 0.958 . S
H2118 C2103 0.961 . S
H2119 C2103 0.960 . S
C2120 C2121 1.391 . S
C2120 C2122 1.394 . S
C2120 H2136 0.931 . S
C2121 C2120 1.391 . S
C2121 C2125 1.376 . S
C2122 C2120 1.394 . S
C2122 C2123 1.369 . S
C2122 C2126 1.531 . S
C2123 C2122 1.369 . S
C2123 C2124 1.410 . S
C2123 C2131 1.503 . S
C2124 C2123 1.410 . S
C2124 C2125 1.392 . S
C2124 C2127 1.511 . S
C2125 C2121 1.376 . S
C2125 C2124 1.392 . S
C2125 H2137 0.929 . S
C2126 C2122 1.531 . S
C2126 H2138 0.960 . S
C2126 H2139 0.962 . S
C2126 H2140 0.960 . S
C2127 C2124 1.511 . S
C2127 H2141 0.961 . S
C2127 H2142 0.961 . S
C2127 H2143 0.961 . S
C2128 C2129 1.370 . S
C2128 C2130 1.363 . S
C2128 H2144 0.931 . S
C2129 C2128 1.370 . S
C2129 C2133 1.408 . S
C2130 C2128 1.363 . S
C2130 C2131 1.370 . S
C2130 C2134 1.524 . S
C2131 C2123 1.503 . S
C2131 C2130 1.370 . S
C2131 C2132 1.403 . S
C2132 C2131 1.403 . S
C2132 C2133 1.404 . S
C2132 C2135 1.539 . S
C2133 C2129 1.408 . S
C2133 C2132 1.404 . S
C2133 H2145 0.930 . S
C2134 C2130 1.524 . S
C2134 H2146 0.956 . S
C2134 H2147 0.961 . S
C2134 H2148 0.961 . S
C2135 C2132 1.539 . S
C2135 H2149 0.958 . S
C2135 H2150 0.961 . S
C2135 H2151 0.960 . S
H2136 C2120 0.931 . S
H2137 C2125 0.929 . S
H2138 C2126 0.960 . S
H2139 C2126 0.962 . S
H2140 C2126 0.960 . S
H2141 C2127 0.961 . S
H2142 C2127 0.961 . S
H2143 C2127 0.961 . S
H2144 C2128 0.931 . S
H2145 C2133 0.930 . S
H2146 C2134 0.956 . S
H2147 C2134 0.961 . S
H2148 C2134 0.961 . S
H2149 C2135 0.958 . S
H2150 C2135 0.961 . S
H2151 C2135 0.960 . S
C2152 C2153 1.391 . S
C2152 C2154 1.394 . S
C2152 H2168 0.931 . S
C2153 C2152 1.391 . S
C2153 C2157 1.376 . S
C2154 C2152 1.394 . S
C2154 C2155 1.369 . S
C2154 C2158 1.531 . S
C2155 C2154 1.369 . S
C2155 C2156 1.410 . S
C2155 C2163 1.503 . S
C2156 C2155 1.410 . S
C2156 C2157 1.392 . S
C2156 C2159 1.511 . S
C2157 C2153 1.376 . S
C2157 C2156 1.392 . S
C2157 H2169 0.929 . S
C2158 C2154 1.531 . S
C2158 H2170 0.960 . S
C2158 H2171 0.962 . S
C2158 H2172 0.960 . S
C2159 C2156 1.511 . S
C2159 H2173 0.961 . S
C2159 H2174 0.961 . S
C2159 H2175 0.961 . S
C2160 C2161 1.370 . S
C2160 C2162 1.363 . S
C2160 H2176 0.931 . S
C2161 C2160 1.370 . S
C2161 C2165 1.408 . S
C2162 C2160 1.363 . S
C2162 C2163 1.370 . S
C2162 C2166 1.524 . S
C2163 C2155 1.503 . S
C2163 C2162 1.370 . S
C2163 C2164 1.403 . S
C2164 C2163 1.403 . S
C2164 C2165 1.404 . S
C2164 C2167 1.539 . S
C2165 C2161 1.408 . S
C2165 C2164 1.404 . S
C2165 H2177 0.930 . S
C2166 C2162 1.524 . S
C2166 H2178 0.956 . S
C2166 H2179 0.961 . S
C2166 H2180 0.961 . S
C2167 C2164 1.539 . S
C2167 H2181 0.958 . S
C2167 H2182 0.961 . S
C2167 H2183 0.960 . S
H2168 C2152 0.931 . S
H2169 C2157 0.929 . S
H2170 C2158 0.960 . S
H2171 C2158 0.962 . S
H2172 C2158 0.960 . S
H2173 C2159 0.961 . S
H2174 C2159 0.961 . S
H2175 C2159 0.961 . S
H2176 C2160 0.931 . S
H2177 C2165 0.930 . S
H2178 C2166 0.956 . S
H2179 C2166 0.961 . S
H2180 C2166 0.961 . S
H2181 C2167 0.958 . S
H2182 C2167 0.961 . S
H2183 C2167 0.960 . S
C2184 C2185 1.391 . S
C2184 C2186 1.394 . S
C2184 H2200 0.931 . S
C2185 C2184 1.391 . S
C2185 C2189 1.376 . S
C2186 C2184 1.394 . S
C2186 C2187 1.369 . S
C2186 C2190 1.531 . S
C2187 C2186 1.369 . S
C2187 C2188 1.410 . S
C2187 C2195 1.503 . S
C2188 C2187 1.410 . S
C2188 C2189 1.392 . S
C2188 C2191 1.511 . S
C2189 C2185 1.376 . S
C2189 C2188 1.392 . S
C2189 H2201 0.929 . S
C2190 C2186 1.531 . S
C2190 H2202 0.960 . S
C2190 H2203 0.962 . S
C2190 H2204 0.960 . S
C2191 C2188 1.511 . S
C2191 H2205 0.961 . S
C2191 H2206 0.961 . S
C2191 H2207 0.961 . S
C2192 C2193 1.370 . S
C2192 C2194 1.363 . S
C2192 H2208 0.931 . S
C2193 C2192 1.370 . S
C2193 C2197 1.408 . S
C2194 C2192 1.363 . S
C2194 C2195 1.370 . S
C2194 C2198 1.524 . S
C2195 C2187 1.503 . S
C2195 C2194 1.370 . S
C2195 C2196 1.403 . S
C2196 C2195 1.403 . S
C2196 C2197 1.404 . S
C2196 C2199 1.539 . S
C2197 C2193 1.408 . S
C2197 C2196 1.404 . S
C2197 H2209 0.930 . S
C2198 C2194 1.524 . S
C2198 H2210 0.956 . S
C2198 H2211 0.961 . S
C2198 H2212 0.961 . S
C2199 C2196 1.539 . S
C2199 H2213 0.958 . S
C2199 H2214 0.961 . S
C2199 H2215 0.960 . S
H2200 C2184 0.931 . S
H2201 C2189 0.929 . S
H2202 C2190 0.960 . S
H2203 C2190 0.962 . S
H2204 C2190 0.960 . S
H2205 C2191 0.961 . S
H2206 C2191 0.961 . S
H2207 C2191 0.961 . S
H2208 C2192 0.931 . S
H2209 C2197 0.930 . S
H2210 C2198 0.956 . S
H2211 C2198 0.961 . S
H2212 C2198 0.961 . S
H2213 C2199 0.958 . S
H2214 C2199 0.961 . S
H2215 C2199 0.960 . S
C2216 C2217 1.391 . S
C2216 C2218 1.394 . S
C2216 H2232 0.931 . S
C2217 C2216 1.391 . S
C2217 C2221 1.376 . S
C2218 C2216 1.394 . S
C2218 C2219 1.369 . S
C2218 C2222 1.531 . S
C2219 C2218 1.369 . S
C2219 C2220 1.410 . S
C2219 C2227 1.503 . S
C2220 C2219 1.410 . S
C2220 C2221 1.392 . S
C2220 C2223 1.511 . S
C2221 C2217 1.376 . S
C2221 C2220 1.392 . S
C2221 H2233 0.929 . S
C2222 C2218 1.531 . S
C2222 H2234 0.960 . S
C2222 H2235 0.962 . S
C2222 H2236 0.960 . S
C2223 C2220 1.511 . S
C2223 H2237 0.961 . S
C2223 H2238 0.961 . S
C2223 H2239 0.961 . S
C2224 C2225 1.370 . S
C2224 C2226 1.363 . S
C2224 H2240 0.931 . S
C2225 C2224 1.370 . S
C2225 C2229 1.408 . S
C2226 C2224 1.363 . S
C2226 C2227 1.370 . S
C2226 C2230 1.524 . S
C2227 C2219 1.503 . S
C2227 C2226 1.370 . S
C2227 C2228 1.403 . S
C2228 C2227 1.403 . S
C2228 C2229 1.404 . S
C2228 C2231 1.539 . S
C2229 C2225 1.408 . S
C2229 C2228 1.404 . S
C2229 H2241 0.930 . S
C2230 C2226 1.524 . S
C2230 H2242 0.956 . S
C2230 H2243 0.961 . S
C2230 H2244 0.961 . S
C2231 C2228 1.539 . S
C2231 H2245 0.958 . S
C2231 H2246 0.961 . S
C2231 H2247 0.960 . S
H2232 C2216 0.931 . S
H2233 C2221 0.929 . S
H2234 C2222 0.960 . S
H2235 C2222 0.962 . S
H2236 C2222 0.960 . S
H2237 C2223 0.961 . S
H2238 C2223 0.961 . S
H2239 C2223 0.961 . S
H2240 C2224 0.931 . S
H2241 C2229 0.930 . S
H2242 C2230 0.956 . S
H2243 C2230 0.961 . S
H2244 C2230 0.961 . S
H2245 C2231 0.958 . S
H2246 C2231 0.961 . S
H2247 C2231 0.960 . S
C2248 C2249 1.391 . S
C2248 C2250 1.394 . S
C2248 H2264 0.931 . S
C2249 C2248 1.391 . S
C2249 C2253 1.376 . S
C2250 C2248 1.394 . S
C2250 C2251 1.369 . S
C2250 C2254 1.531 . S
C2251 C2250 1.369 . S
C2251 C2252 1.410 . S
C2251 C2259 1.503 . S
C2252 C2251 1.410 . S
C2252 C2253 1.392 . S
C2252 C2255 1.511 . S
C2253 C2249 1.376 . S
C2253 C2252 1.392 . S
C2253 H2265 0.929 . S
C2254 C2250 1.531 . S
C2254 H2266 0.960 . S
C2254 H2267 0.962 . S
C2254 H2268 0.960 . S
C2255 C2252 1.511 . S
C2255 H2269 0.961 . S
C2255 H2270 0.961 . S
C2255 H2271 0.961 . S
C2256 C2257 1.370 . S
C2256 C2258 1.363 . S
C2256 H2272 0.931 . S
C2257 C2256 1.370 . S
C2257 C2261 1.408 . S
C2258 C2256 1.363 . S
C2258 C2259 1.370 . S
C2258 C2262 1.524 . S
C2259 C2251 1.503 . S
C2259 C2258 1.370 . S
C2259 C2260 1.403 . S
C2260 C2259 1.403 . S
C2260 C2261 1.404 . S
C2260 C2263 1.539 . S
C2261 C2257 1.408 . S
C2261 C2260 1.404 . S
C2261 H2273 0.930 . S
C2262 C2258 1.524 . S
C2262 H2274 0.956 . S
C2262 H2275 0.961 . S
C2262 H2276 0.961 . S
C2263 C2260 1.539 . S
C2263 H2277 0.958 . S
C2263 H2278 0.961 . S
C2263 H2279 0.960 . S
H2264 C2248 0.931 . S
H2265 C2253 0.929 . S
H2266 C2254 0.960 . S
H2267 C2254 0.962 . S
H2268 C2254 0.960 . S
H2269 C2255 0.961 . S
H2270 C2255 0.961 . S
H2271 C2255 0.961 . S
H2272 C2256 0.931 . S
H2273 C2261 0.930 . S
H2274 C2262 0.956 . S
H2275 C2262 0.961 . S
H2276 C2262 0.961 . S
H2277 C2263 0.958 . S
H2278 C2263 0.961 . S
H2279 C2263 0.960 . S
C2280 C2281 1.391 . S
C2280 C2282 1.394 . S
C2280 H2296 0.931 . S
C2281 C2280 1.391 . S
C2281 C2285 1.376 . S
C2282 C2280 1.394 . S
C2282 C2283 1.369 . S
C2282 C2286 1.531 . S
C2283 C2282 1.369 . S
C2283 C2284 1.410 . S
C2283 C2291 1.503 . S
C2284 C2283 1.410 . S
C2284 C2285 1.392 . S
C2284 C2287 1.511 . S
C2285 C2281 1.376 . S
C2285 C2284 1.392 . S
C2285 H2297 0.929 . S
C2286 C2282 1.531 . S
C2286 H2298 0.960 . S
C2286 H2299 0.962 . S
C2286 H2300 0.960 . S
C2287 C2284 1.511 . S
C2287 H2301 0.961 . S
C2287 H2302 0.961 . S
C2287 H2303 0.961 . S
C2288 C2289 1.370 . S
C2288 C2290 1.363 . S
C2288 H2304 0.931 . S
C2289 C2288 1.370 . S
C2289 C2293 1.408 . S
C2290 C2288 1.363 . S
C2290 C2291 1.370 . S
C2290 C2294 1.524 . S
C2291 C2283 1.503 . S
C2291 C2290 1.370 . S
C2291 C2292 1.403 . S
C2292 C2291 1.403 . S
C2292 C2293 1.404 . S
C2292 C2295 1.539 . S
C2293 C2289 1.408 . S
C2293 C2292 1.404 . S
C2293 H2305 0.930 . S
C2294 C2290 1.524 . S
C2294 H2306 0.956 . S
C2294 H2307 0.961 . S
C2294 H2308 0.961 . S
C2295 C2292 1.539 . S
C2295 H2309 0.958 . S
C2295 H2310 0.961 . S
C2295 H2311 0.960 . S
H2296 C2280 0.931 . S
H2297 C2285 0.929 . S
H2298 C2286 0.960 . S
H2299 C2286 0.962 . S
H2300 C2286 0.960 . S
H2301 C2287 0.961 . S
H2302 C2287 0.961 . S
H2303 C2287 0.961 . S
H2304 C2288 0.931 . S
H2305 C2293 0.930 . S
H2306 C2294 0.956 . S
H2307 C2294 0.961 . S
H2308 C2294 0.961 . S
H2309 C2295 0.958 . S
H2310 C2295 0.961 . S
H2311 C2295 0.960 . S
C2312 C2313 1.391 . S
C2312 C2314 1.394 . S
C2312 H2328 0.931 . S
C2313 C2312 1.391 . S
C2313 C2317 1.376 . S
C2314 C2312 1.394 . S
C2314 C2315 1.369 . S
C2314 C2318 1.531 . S
C2315 C2314 1.369 . S
C2315 C2316 1.410 . S
C2315 C2323 1.503 . S
C2316 C2315 1.410 . S
C2316 C2317 1.392 . S
C2316 C2319 1.511 . S
C2317 C2313 1.376 . S
C2317 C2316 1.392 . S
C2317 H2329 0.929 . S
C2318 C2314 1.531 . S
C2318 H2330 0.960 . S
C2318 H2331 0.962 . S
C2318 H2332 0.960 . S
C2319 C2316 1.511 . S
C2319 H2333 0.961 . S
C2319 H2334 0.961 . S
C2319 H2335 0.961 . S
C2320 C2321 1.370 . S
C2320 C2322 1.363 . S
C2320 H2336 0.931 . S
C2321 C2320 1.370 . S
C2321 C2325 1.408 . S
C2322 C2320 1.363 . S
C2322 C2323 1.370 . S
C2322 C2326 1.524 . S
C2323 C2315 1.503 . S
C2323 C2322 1.370 . S
C2323 C2324 1.403 . S
C2324 C2323 1.403 . S
C2324 C2325 1.404 . S
C2324 C2327 1.539 . S
C2325 C2321 1.408 . S
C2325 C2324 1.404 . S
C2325 H2337 0.930 . S
C2326 C2322 1.524 . S
C2326 H2338 0.956 . S
C2326 H2339 0.961 . S
C2326 H2340 0.961 . S
C2327 C2324 1.539 . S
C2327 H2341 0.958 . S
C2327 H2342 0.961 . S
C2327 H2343 0.960 . S
H2328 C2312 0.931 . S
H2329 C2317 0.929 . S
H2330 C2318 0.960 . S
H2331 C2318 0.962 . S
H2332 C2318 0.960 . S
H2333 C2319 0.961 . S
H2334 C2319 0.961 . S
H2335 C2319 0.961 . S
H2336 C2320 0.931 . S
H2337 C2325 0.930 . S
H2338 C2326 0.956 . S
H2339 C2326 0.961 . S
H2340 C2326 0.961 . S
H2341 C2327 0.958 . S
H2342 C2327 0.961 . S
H2343 C2327 0.960 . S
C2344 C2345 1.391 . S
C2344 C2346 1.394 . S
C2344 H2360 0.931 . S
C2345 C2344 1.391 . S
C2345 C2349 1.376 . S
C2346 C2344 1.394 . S
C2346 C2347 1.369 . S
C2346 C2350 1.531 . S
C2347 C2346 1.369 . S
C2347 C2348 1.410 . S
C2347 C2355 1.503 . S
C2348 C2347 1.410 . S
C2348 C2349 1.392 . S
C2348 C2351 1.511 . S
C2349 C2345 1.376 . S
C2349 C2348 1.392 . S
C2349 H2361 0.929 . S
C2350 C2346 1.531 . S
C2350 H2362 0.960 . S
C2350 H2363 0.962 . S
C2350 H2364 0.960 . S
C2351 C2348 1.511 . S
C2351 H2365 0.961 . S
C2351 H2366 0.961 . S
C2351 H2367 0.961 . S
C2352 C2353 1.370 . S
C2352 C2354 1.363 . S
C2352 H2368 0.931 . S
C2353 C2352 1.370 . S
C2353 C2357 1.408 . S
C2354 C2352 1.363 . S
C2354 C2355 1.370 . S
C2354 C2358 1.524 . S
C2355 C2347 1.503 . S
C2355 C2354 1.370 . S
C2355 C2356 1.403 . S
C2356 C2355 1.403 . S
C2356 C2357 1.404 . S
C2356 C2359 1.539 . S
C2357 C2353 1.408 . S
C2357 C2356 1.404 . S
C2357 H2369 0.930 . S
C2358 C2354 1.524 . S
C2358 H2370 0.956 . S
C2358 H2371 0.961 . S
C2358 H2372 0.961 . S
C2359 C2356 1.539 . S
C2359 H2373 0.958 . S
C2359 H2374 0.961 . S
C2359 H2375 0.960 . S
H2360 C2344 0.931 . S
H2361 C2349 0.929 . S
H2362 C2350 0.960 . S
H2363 C2350 0.962 . S
H2364 C2350 0.960 . S
H2365 C2351 0.961 . S
H2366 C2351 0.961 . S
H2367 C2351 0.961 . S
H2368 C2352 0.931 . S
H2369 C2357 0.930 . S
H2370 C2358 0.956 . S
H2371 C2358 0.961 . S
H2372 C2358 0.961 . S
H2373 C2359 0.958 . S
H2374 C2359 0.961 . S
H2375 C2359 0.960 . S
C2376 C2377 1.391 . S
C2376 C2378 1.394 . S
C2376 H2392 0.931 . S
C2377 C2376 1.391 . S
C2377 C2381 1.376 . S
C2378 C2376 1.394 . S
C2378 C2379 1.369 . S
C2378 C2382 1.531 . S
C2379 C2378 1.369 . S
C2379 C2380 1.410 . S
C2379 C2387 1.503 . S
C2380 C2379 1.410 . S
C2380 C2381 1.392 . S
C2380 C2383 1.511 . S
C2381 C2377 1.376 . S
C2381 C2380 1.392 . S
C2381 H2393 0.929 . S
C2382 C2378 1.531 . S
C2382 H2394 0.960 . S
C2382 H2395 0.962 . S
C2382 H2396 0.960 . S
C2383 C2380 1.511 . S
C2383 H2397 0.961 . S
C2383 H2398 0.961 . S
C2383 H2399 0.961 . S
C2384 C2385 1.370 . S
C2384 C2386 1.363 . S
C2384 H2400 0.931 . S
C2385 C2384 1.370 . S
C2385 C2389 1.408 . S
C2386 C2384 1.363 . S
C2386 C2387 1.370 . S
C2386 C2390 1.524 . S
C2387 C2379 1.503 . S
C2387 C2386 1.370 . S
C2387 C2388 1.403 . S
C2388 C2387 1.403 . S
C2388 C2389 1.404 . S
C2388 C2391 1.539 . S
C2389 C2385 1.408 . S
C2389 C2388 1.404 . S
C2389 H2401 0.930 . S
C2390 C2386 1.524 . S
C2390 H2402 0.956 . S
C2390 H2403 0.961 . S
C2390 H2404 0.961 . S
C2391 C2388 1.539 . S
C2391 H2405 0.958 . S
C2391 H2406 0.961 . S
C2391 H2407 0.960 . S
H2392 C2376 0.931 . S
H2393 C2381 0.929 . S
H2394 C2382 0.960 . S
H2395 C2382 0.962 . S
H2396 C2382 0.960 . S
H2397 C2383 0.961 . S
H2398 C2383 0.961 . S
H2399 C2383 0.961 . S
H2400 C2384 0.931 . S
H2401 C2389 0.930 . S
H2402 C2390 0.956 . S
H2403 C2390 0.961 . S
H2404 C2390 0.961 . S
H2405 C2391 0.958 . S
H2406 C2391 0.961 . S
H2407 C2391 0.960 . S
C2408 C2409 1.391 . S
C2408 C2410 1.394 . S
C2408 H2424 0.931 . S
C2409 C2408 1.391 . S
C2409 C2413 1.376 . S
C2410 C2408 1.394 . S
C2410 C2411 1.369 . S
C2410 C2414 1.531 . S
C2411 C2410 1.369 . S
C2411 C2412 1.410 . S
C2411 C2419 1.503 . S
C2412 C2411 1.410 . S
C2412 C2413 1.392 . S
C2412 C2415 1.511 . S
C2413 C2409 1.376 . S
C2413 C2412 1.392 . S
C2413 H2425 0.929 . S
C2414 C2410 1.531 . S
C2414 H2426 0.960 . S
C2414 H2427 0.962 . S
C2414 H2428 0.960 . S
C2415 C2412 1.511 . S
C2415 H2429 0.961 . S
C2415 H2430 0.961 . S
C2415 H2431 0.961 . S
C2416 C2417 1.370 . S
C2416 C2418 1.363 . S
C2416 H2432 0.931 . S
C2417 C2416 1.370 . S
C2417 C2421 1.408 . S
C2418 C2416 1.363 . S
C2418 C2419 1.370 . S
C2418 C2422 1.524 . S
C2419 C2411 1.503 . S
C2419 C2418 1.370 . S
C2419 C2420 1.403 . S
C2420 C2419 1.403 . S
C2420 C2421 1.404 . S
C2420 C2423 1.539 . S
C2421 C2417 1.408 . S
C2421 C2420 1.404 . S
C2421 H2433 0.930 . S
C2422 C2418 1.524 . S
C2422 H2434 0.956 . S
C2422 H2435 0.961 . S
C2422 H2436 0.961 . S
C2423 C2420 1.539 . S
C2423 H2437 0.958 . S
C2423 H2438 0.961 . S
C2423 H2439 0.960 . S
H2424 C2408 0.931 . S
H2425 C2413 0.929 . S
H2426 C2414 0.960 . S
H2427 C2414 0.962 . S
H2428 C2414 0.960 . S
H2429 C2415 0.961 . S
H2430 C2415 0.961 . S
H2431 C2415 0.961 . S
H2432 C2416 0.931 . S
H2433 C2421 0.930 . S
H2434 C2422 0.956 . S
H2435 C2422 0.961 . S
H2436 C2422 0.961 . S
H2437 C2423 0.958 . S
H2438 C2423 0.961 . S
H2439 C2423 0.960 . S
C2440 C2441 1.391 . S
C2440 C2442 1.394 . S
C2440 H2456 0.931 . S
C2441 C2440 1.391 . S
C2441 C2445 1.376 . S
C2442 C2440 1.394 . S
C2442 C2443 1.369 . S
C2442 C2446 1.531 . S
C2443 C2442 1.369 . S
C2443 C2444 1.410 . S
C2443 C2451 1.503 . S
C2444 C2443 1.410 . S
C2444 C2445 1.392 . S
C2444 C2447 1.511 . S
C2445 C2441 1.376 . S
C2445 C2444 1.392 . S
C2445 H2457 0.929 . S
C2446 C2442 1.531 . S
C2446 H2458 0.960 . S
C2446 H2459 0.962 . S
C2446 H2460 0.960 . S
C2447 C2444 1.511 . S
C2447 H2461 0.961 . S
C2447 H2462 0.961 . S
C2447 H2463 0.961 . S
C2448 C2449 1.370 . S
C2448 C2450 1.363 . S
C2448 H2464 0.931 . S
C2449 C2448 1.370 . S
C2449 C2453 1.408 . S
C2450 C2448 1.363 . S
C2450 C2451 1.370 . S
C2450 C2454 1.524 . S
C2451 C2443 1.503 . S
C2451 C2450 1.370 . S
C2451 C2452 1.403 . S
C2452 C2451 1.403 . S
C2452 C2453 1.404 . S
C2452 C2455 1.539 . S
C2453 C2449 1.408 . S
C2453 C2452 1.404 . S
C2453 H2465 0.930 . S
C2454 C2450 1.524 . S
C2454 H2466 0.956 . S
C2454 H2467 0.961 . S
C2454 H2468 0.961 . S
C2455 C2452 1.539 . S
C2455 H2469 0.958 . S
C2455 H2470 0.961 . S
C2455 H2471 0.960 . S
H2456 C2440 0.931 . S
H2457 C2445 0.929 . S
H2458 C2446 0.960 . S
H2459 C2446 0.962 . S
H2460 C2446 0.960 . S
H2461 C2447 0.961 . S
H2462 C2447 0.961 . S
H2463 C2447 0.961 . S
H2464 C2448 0.931 . S
H2465 C2453 0.930 . S
H2466 C2454 0.956 . S
H2467 C2454 0.961 . S
H2468 C2454 0.961 . S
H2469 C2455 0.958 . S
H2470 C2455 0.961 . S
H2471 C2455 0.960 . S
C2472 C2473 1.391 . S
C2472 C2474 1.394 . S
C2472 H2488 0.931 . S
C2473 C2472 1.391 . S
C2473 C2477 1.376 . S
C2474 C2472 1.394 . S
C2474 C2475 1.369 . S
C2474 C2478 1.531 . S
C2475 C2474 1.369 . S
C2475 C2476 1.410 . S
C2475 C2483 1.503 . S
C2476 C2475 1.410 . S
C2476 C2477 1.392 . S
C2476 C2479 1.511 . S
C2477 C2473 1.376 . S
C2477 C2476 1.392 . S
C2477 H2489 0.929 . S
C2478 C2474 1.531 . S
C2478 H2490 0.960 . S
C2478 H2491 0.962 . S
C2478 H2492 0.960 . S
C2479 C2476 1.511 . S
C2479 H2493 0.961 . S
C2479 H2494 0.961 . S
C2479 H2495 0.961 . S
C2480 C2481 1.370 . S
C2480 C2482 1.363 . S
C2480 H2496 0.931 . S
C2481 C2480 1.370 . S
C2481 C2485 1.408 . S
C2482 C2480 1.363 . S
C2482 C2483 1.370 . S
C2482 C2486 1.524 . S
C2483 C2475 1.503 . S
C2483 C2482 1.370 . S
C2483 C2484 1.403 . S
C2484 C2483 1.403 . S
C2484 C2485 1.404 . S
C2484 C2487 1.539 . S
C2485 C2481 1.408 . S
C2485 C2484 1.404 . S
C2485 H2497 0.930 . S
C2486 C2482 1.524 . S
C2486 H2498 0.956 . S
C2486 H2499 0.961 . S
C2486 H2500 0.961 . S
C2487 C2484 1.539 . S
C2487 H2501 0.958 . S
C2487 H2502 0.961 . S
C2487 H2503 0.960 . S
H2488 C2472 0.931 . S
H2489 C2477 0.929 . S
H2490 C2478 0.960 . S
H2491 C2478 0.962 . S
H2492 C2478 0.960 . S
H2493 C2479 0.961 . S
H2494 C2479 0.961 . S
H2495 C2479 0.961 . S
H2496 C2480 0.931 . S
H2497 C2485 0.930 . S
H2498 C2486 0.956 . S
H2499 C2486 0.961 . S
H2500 C2486 0.961 . S
H2501 C2487 0.958 . S
H2502 C2487 0.961 . S
H2503 C2487 0.960 . S
C2504 C2505 1.391 . S
C2504 C2506 1.394 . S
C2504 H2520 0.931 . S
C2505 C2504 1.391 . S
C2505 C2509 1.376 . S
C2506 C2504 1.394 . S
C2506 C2507 1.369 . S
C2506 C2510 1.531 . S
C2507 C2506 1.369 . S
C2507 C2508 1.410 . S
C2507 C2515 1.503 . S
C2508 C2507 1.410 . S
C2508 C2509 1.392 . S
C2508 C2511 1.511 . S
C2509 C2505 1.376 . S
C2509 C2508 1.392 . S
C2509 H2521 0.929 . S
C2510 C2506 1.531 . S
C2510 H2522 0.960 . S
C2510 H2523 0.962 . S
C2510 H2524 0.960 . S
C2511 C2508 1.511 . S
C2511 H2525 0.961 . S
C2511 H2526 0.961 . S
C2511 H2527 0.961 . S
C2512 C2513 1.370 . S
C2512 C2514 1.363 . S
C2512 H2528 0.931 . S
C2513 C2512 1.370 . S
C2513 C2517 1.408 . S
C2514 C2512 1.363 . S
C2514 C2515 1.370 . S
C2514 C2518 1.524 . S
C2515 C2507 1.503 . S
C2515 C2514 1.370 . S
C2515 C2516 1.403 . S
C2516 C2515 1.403 . S
C2516 C2517 1.404 . S
C2516 C2519 1.539 . S
C2517 C2513 1.408 . S
C2517 C2516 1.404 . S
C2517 H2529 0.930 . S
C2518 C2514 1.524 . S
C2518 H2530 0.956 . S
C2518 H2531 0.961 . S
C2518 H2532 0.961 . S
C2519 C2516 1.539 . S
C2519 H2533 0.958 . S
C2519 H2534 0.961 . S
C2519 H2535 0.960 . S
H2520 C2504 0.931 . S
H2521 C2509 0.929 . S
H2522 C2510 0.960 . S
H2523 C2510 0.962 . S
H2524 C2510 0.960 . S
H2525 C2511 0.961 . S
H2526 C2511 0.961 . S
H2527 C2511 0.961 . S
H2528 C2512 0.931 . S
H2529 C2517 0.930 . S
H2530 C2518 0.956 . S
H2531 C2518 0.961 . S
H2532 C2518 0.961 . S
H2533 C2519 0.958 . S
H2534 C2519 0.961 . S
H2535 C2519 0.960 . S
C2536 C2537 1.391 . S
C2536 C2538 1.394 . S
C2536 H2552 0.931 . S
C2537 C2536 1.391 . S
C2537 C2541 1.376 . S
C2538 C2536 1.394 . S
C2538 C2539 1.369 . S
C2538 C2542 1.531 . S
C2539 C2538 1.369 . S
C2539 C2540 1.410 . S
C2539 C2547 1.503 . S
C2540 C2539 1.410 . S
C2540 C2541 1.392 . S
C2540 C2543 1.511 . S
C2541 C2537 1.376 . S
C2541 C2540 1.392 . S
C2541 H2553 0.929 . S
C2542 C2538 1.531 . S
C2542 H2554 0.960 . S
C2542 H2555 0.962 . S
C2542 H2556 0.960 . S
C2543 C2540 1.511 . S
C2543 H2557 0.961 . S
C2543 H2558 0.961 . S
C2543 H2559 0.961 . S
C2544 C2545 1.370 . S
C2544 C2546 1.363 . S
C2544 H2560 0.931 . S
C2545 C2544 1.370 . S
C2545 C2549 1.408 . S
C2546 C2544 1.363 . S
C2546 C2547 1.370 . S
C2546 C2550 1.524 . S
C2547 C2539 1.503 . S
C2547 C2546 1.370 . S
C2547 C2548 1.403 . S
C2548 C2547 1.403 . S
C2548 C2549 1.404 . S
C2548 C2551 1.539 . S
C2549 C2545 1.408 . S
C2549 C2548 1.404 . S
C2549 H2561 0.930 . S
C2550 C2546 1.524 . S
C2550 H2562 0.956 . S
C2550 H2563 0.961 . S
C2550 H2564 0.961 . S
C2551 C2548 1.539 . S
C2551 H2565 0.958 . S
C2551 H2566 0.961 . S
C2551 H2567 0.960 . S
H2552 C2536 0.931 . S
H2553 C2541 0.929 . S
H2554 C2542 0.960 . S
H2555 C2542 0.962 . S
H2556 C2542 0.960 . S
H2557 C2543 0.961 . S
H2558 C2543 0.961 . S
H2559 C2543 0.961 . S
H2560 C2544 0.931 . S
H2561 C2549 0.930 . S
H2562 C2550 0.956 . S
H2563 C2550 0.961 . S
H2564 C2550 0.961 . S
H2565 C2551 0.958 . S
H2566 C2551 0.961 . S
H2567 C2551 0.960 . S
C2568 C2569 1.391 . S
C2568 C2570 1.394 . S
C2568 H2584 0.931 . S
C2569 C2568 1.391 . S
C2569 C2573 1.376 . S
C2570 C2568 1.394 . S
C2570 C2571 1.369 . S
C2570 C2574 1.531 . S
C2571 C2570 1.369 . S
C2571 C2572 1.410 . S
C2571 C2579 1.503 . S
C2572 C2571 1.410 . S
C2572 C2573 1.392 . S
C2572 C2575 1.511 . S
C2573 C2569 1.376 . S
C2573 C2572 1.392 . S
C2573 H2585 0.929 . S
C2574 C2570 1.531 . S
C2574 H2586 0.960 . S
C2574 H2587 0.962 . S
C2574 H2588 0.960 . S
C2575 C2572 1.511 . S
C2575 H2589 0.961 . S
C2575 H2590 0.961 . S
C2575 H2591 0.961 . S
C2576 C2577 1.370 . S
C2576 C2578 1.363 . S
C2576 H2592 0.931 . S
C2577 C2576 1.370 . S
C2577 C2581 1.408 . S
C2578 C2576 1.363 . S
C2578 C2579 1.370 . S
C2578 C2582 1.524 . S
C2579 C2571 1.503 . S
C2579 C2578 1.370 . S
C2579 C2580 1.403 . S
C2580 C2579 1.403 . S
C2580 C2581 1.404 . S
C2580 C2583 1.539 . S
C2581 C2577 1.408 . S
C2581 C2580 1.404 . S
C2581 H2593 0.930 . S
C2582 C2578 1.524 . S
C2582 H2594 0.956 . S
C2582 H2595 0.961 . S
C2582 H2596 0.961 . S
C2583 C2580 1.539 . S
C2583 H2597 0.958 . S
C2583 H2598 0.961 . S
C2583 H2599 0.960 . S
H2584 C2568 0.931 . S
H2585 C2573 0.929 . S
H2586 C2574 0.960 . S
H2587 C2574 0.962 . S
H2588 C2574 0.960 . S
H2589 C2575 0.961 . S
H2590 C2575 0.961 . S
H2591 C2575 0.961 . S
H2592 C2576 0.931 . S
H2593 C2581 0.930 . S
H2594 C2582 0.956 . S
H2595 C2582 0.961 . S
H2596 C2582 0.961 . S
H2597 C2583 0.958 . S
H2598 C2583 0.961 . S
H2599 C2583 0.960 . S
C2600 C2601 1.391 . S
C2600 C2602 1.394 . S
C2600 H2616 0.931 . S
C2601 C2600 1.391 . S
C2601 C2605 1.376 . S
C2602 C2600 1.394 . S
C2602 C2603 1.369 . S
C2602 C2606 1.531 . S
C2603 C2602 1.369 . S
C2603 C2604 1.410 . S
C2603 C2611 1.503 . S
C2604 C2603 1.410 . S
C2604 C2605 1.392 . S
C2604 C2607 1.511 . S
C2605 C2601 1.376 . S
C2605 C2604 1.392 . S
C2605 H2617 0.929 . S
C2606 C2602 1.531 . S
C2606 H2618 0.960 . S
C2606 H2619 0.962 . S
C2606 H2620 0.960 . S
C2607 C2604 1.511 . S
C2607 H2621 0.961 . S
C2607 H2622 0.961 . S
C2607 H2623 0.961 . S
C2608 C2609 1.370 . S
C2608 C2610 1.363 . S
C2608 H2624 0.931 . S
C2609 C2608 1.370 . S
C2609 C2613 1.408 . S
C2610 C2608 1.363 . S
C2610 C2611 1.370 . S
C2610 C2614 1.524 . S
C2611 C2603 1.503 . S
C2611 C2610 1.370 . S
C2611 C2612 1.403 . S
C2612 C2611 1.403 . S
C2612 C2613 1.404 . S
C2612 C2615 1.539 . S
C2613 C2609 1.408 . S
C2613 C2612 1.404 . S
C2613 H2625 0.930 . S
C2614 C2610 1.524 . S
C2614 H2626 0.956 . S
C2614 H2627 0.961 . S
C2614 H2628 0.961 . S
C2615 C2612 1.539 . S
C2615 H2629 0.958 . S
C2615 H2630 0.961 . S
C2615 H2631 0.960 . S
H2616 C2600 0.931 . S
H2617 C2605 0.929 . S
H2618 C2606 0.960 . S
H2619 C2606 0.962 . S
H2620 C2606 0.960 . S
H2621 C2607 0.961 . S
H2622 C2607 0.961 . S
H2623 C2607 0.961 . S
H2624 C2608 0.931 . S
H2625 C2613 0.930 . S
H2626 C2614 0.956 . S
H2627 C2614 0.961 . S
H2628 C2614 0.961 . S
H2629 C2615 0.958 . S
H2630 C2615 0.961 . S
H2631 C2615 0.960 . S
C2632 C2633 1.391 . S
C2632 C2634 1.394 . S
C2632 H2648 0.931 . S
C2633 C2632 1.391 . S
C2633 C2637 1.376 . S
C2634 C2632 1.394 . S
C2634 C2635 1.369 . S
C2634 C2638 1.531 . S
C2635 C2634 1.369 . S
C2635 C2636 1.410 . S
C2635 C2643 1.503 . S
C2636 C2635 1.410 . S
C2636 C2637 1.392 . S
C2636 C2639 1.511 . S
C2637 C2633 1.376 . S
C2637 C2636 1.392 . S
C2637 H2649 0.929 . S
C2638 C2634 1.531 . S
C2638 H2650 0.960 . S
C2638 H2651 0.962 . S
C2638 H2652 0.960 . S
C2639 C2636 1.511 . S
C2639 H2653 0.961 . S
C2639 H2654 0.961 . S
C2639 H2655 0.961 . S
C2640 C2641 1.370 . S
C2640 C2642 1.363 . S
C2640 H2656 0.931 . S
C2641 C2640 1.370 . S
C2641 C2645 1.408 . S
C2642 C2640 1.363 . S
C2642 C2643 1.370 . S
C2642 C2646 1.524 . S
C2643 C2635 1.503 . S
C2643 C2642 1.370 . S
C2643 C2644 1.403 . S
C2644 C2643 1.403 . S
C2644 C2645 1.404 . S
C2644 C2647 1.539 . S
C2645 C2641 1.408 . S
C2645 C2644 1.404 . S
C2645 H2657 0.930 . S
C2646 C2642 1.524 . S
C2646 H2658 0.956 . S
C2646 H2659 0.961 . S
C2646 H2660 0.961 . S
C2647 C2644 1.539 . S
C2647 H2661 0.958 . S
C2647 H2662 0.961 . S
C2647 H2663 0.960 . S
H2648 C2632 0.931 . S
H2649 C2637 0.929 . S
H2650 C2638 0.960 . S
H2651 C2638 0.962 . S
H2652 C2638 0.960 . S
H2653 C2639 0.961 . S
H2654 C2639 0.961 . S
H2655 C2639 0.961 . S
H2656 C2640 0.931 . S
H2657 C2645 0.930 . S
H2658 C2646 0.956 . S
H2659 C2646 0.961 . S
H2660 C2646 0.961 . S
H2661 C2647 0.958 . S
H2662 C2647 0.961 . S
H2663 C2647 0.960 . S
C2664 C2665 1.391 . S
C2664 C2666 1.394 . S
C2664 H2680 0.931 . S
C2665 C2664 1.391 . S
C2665 C2669 1.376 . S
C2666 C2664 1.394 . S
C2666 C2667 1.369 . S
C2666 C2670 1.531 . S
C2667 C2666 1.369 . S
C2667 C2668 1.410 . S
C2667 C2675 1.503 . S
C2668 C2667 1.410 . S
C2668 C2669 1.392 . S
C2668 C2671 1.511 . S
C2669 C2665 1.376 . S
C2669 C2668 1.392 . S
C2669 H2681 0.929 . S
C2670 C2666 1.531 . S
C2670 H2682 0.960 . S
C2670 H2683 0.962 . S
C2670 H2684 0.960 . S
C2671 C2668 1.511 . S
C2671 H2685 0.961 . S
C2671 H2686 0.961 . S
C2671 H2687 0.961 . S
C2672 C2673 1.370 . S
C2672 C2674 1.363 . S
C2672 H2688 0.931 . S
C2673 C2672 1.370 . S
C2673 C2677 1.408 . S
C2674 C2672 1.363 . S
C2674 C2675 1.370 . S
C2674 C2678 1.524 . S
C2675 C2667 1.503 . S
C2675 C2674 1.370 . S
C2675 C2676 1.403 . S
C2676 C2675 1.403 . S
C2676 C2677 1.404 . S
C2676 C2679 1.539 . S
C2677 C2673 1.408 . S
C2677 C2676 1.404 . S
C2677 H2689 0.930 . S
C2678 C2674 1.524 . S
C2678 H2690 0.956 . S
C2678 H2691 0.961 . S
C2678 H2692 0.961 . S
C2679 C2676 1.539 . S
C2679 H2693 0.958 . S
C2679 H2694 0.961 . S
C2679 H2695 0.960 . S
H2680 C2664 0.931 . S
H2681 C2669 0.929 . S
H2682 C2670 0.960 . S
H2683 C2670 0.962 . S
H2684 C2670 0.960 . S
H2685 C2671 0.961 . S
H2686 C2671 0.961 . S
H2687 C2671 0.961 . S
H2688 C2672 0.931 . S
H2689 C2677 0.930 . S
H2690 C2678 0.956 . S
H2691 C2678 0.961 . S
H2692 C2678 0.961 . S
H2693 C2679 0.958 . S
H2694 C2679 0.961 . S
H2695 C2679 0.960 . S
C2696 C2697 1.391 . S
C2696 C2698 1.394 . S
C2696 H2712 0.931 . S
C2697 C2696 1.391 . S
C2697 C2701 1.376 . S
C2698 C2696 1.394 . S
C2698 C2699 1.369 . S
C2698 C2702 1.531 . S
C2699 C2698 1.369 . S
C2699 C2700 1.410 . S
C2699 C2707 1.503 . S
C2700 C2699 1.410 . S
C2700 C2701 1.392 . S
C2700 C2703 1.511 . S
C2701 C2697 1.376 . S
C2701 C2700 1.392 . S
C2701 H2713 0.929 . S
C2702 C2698 1.531 . S
C2702 H2714 0.960 . S
C2702 H2715 0.962 . S
C2702 H2716 0.960 . S
C2703 C2700 1.511 . S
C2703 H2717 0.961 . S
C2703 H2718 0.961 . S
C2703 H2719 0.961 . S
C2704 C2705 1.370 . S
C2704 C2706 1.363 . S
C2704 H2720 0.931 . S
C2705 C2704 1.370 . S
C2705 C2709 1.408 . S
C2706 C2704 1.363 . S
C2706 C2707 1.370 . S
C2706 C2710 1.524 . S
C2707 C2699 1.503 . S
C2707 C2706 1.370 . S
C2707 C2708 1.403 . S
C2708 C2707 1.403 . S
C2708 C2709 1.404 . S
C2708 C2711 1.539 . S
C2709 C2705 1.408 . S
C2709 C2708 1.404 . S
C2709 H2721 0.930 . S
C2710 C2706 1.524 . S
C2710 H2722 0.956 . S
C2710 H2723 0.961 . S
C2710 H2724 0.961 . S
C2711 C2708 1.539 . S
C2711 H2725 0.958 . S
C2711 H2726 0.961 . S
C2711 H2727 0.960 . S
H2712 C2696 0.931 . S
H2713 C2701 0.929 . S
H2714 C2702 0.960 . S
H2715 C2702 0.962 . S
H2716 C2702 0.960 . S
H2717 C2703 0.961 . S
H2718 C2703 0.961 . S
H2719 C2703 0.961 . S
H2720 C2704 0.931 . S
H2721 C2709 0.930 . S
H2722 C2710 0.956 . S
H2723 C2710 0.961 . S
H2724 C2710 0.961 . S
H2725 C2711 0.958 . S
H2726 C2711 0.961 . S
H2727 C2711 0.960 . S
C2728 C2729 1.391 . S
C2728 C2730 1.394 . S
C2728 H2744 0.931 . S
C2729 C2728 1.391 . S
C2729 C2733 1.376 . S
C2730 C2728 1.394 . S
C2730 C2731 1.369 . S
C2730 C2734 1.531 . S
C2731 C2730 1.369 . S
C2731 C2732 1.410 . S
C2731 C2739 1.503 . S
C2732 C2731 1.410 . S
C2732 C2733 1.392 . S
C2732 C2735 1.511 . S
C2733 C2729 1.376 . S
C2733 C2732 1.392 . S
C2733 H2745 0.929 . S
C2734 C2730 1.531 . S
C2734 H2746 0.960 . S
C2734 H2747 0.962 . S
C2734 H2748 0.960 . S
C2735 C2732 1.511 . S
C2735 H2749 0.961 . S
C2735 H2750 0.961 . S
C2735 H2751 0.961 . S
C2736 C2737 1.370 . S
C2736 C2738 1.363 . S
C2736 H2752 0.931 . S
C2737 C2736 1.370 . S
C2737 C2741 1.408 . S
C2738 C2736 1.363 . S
C2738 C2739 1.370 . S
C2738 C2742 1.524 . S
C2739 C2731 1.503 . S
C2739 C2738 1.370 . S
C2739 C2740 1.403 . S
C2740 C2739 1.403 . S
C2740 C2741 1.404 . S
C2740 C2743 1.539 . S
C2741 C2737 1.408 . S
C2741 C2740 1.404 . S
C2741 H2753 0.930 . S
C2742 C2738 1.524 . S
C2742 H2754 0.956 . S
C2742 H2755 0.961 . S
C2742 H2756 0.961 . S
C2743 C2740 1.539 . S
C2743 H2757 0.958 . S
C2743 H2758 0.961 . S
C2743 H2759 0.960 . S
H2744 C2728 0.931 . S
H2745 C2733 0.929 . S
H2746 C2734 0.960 . S
H2747 C2734 0.962 . S
H2748 C2734 0.960 . S
H2749 C2735 0.961 . S
H2750 C2735 0.961 . S
H2751 C2735 0.961 . S
H2752 C2736 0.931 . S
H2753 C2741 0.930 . S
H2754 C2742 0.956 . S
H2755 C2742 0.961 . S
H2756 C2742 0.961 . S
H2757 C2743 0.958 . S
H2758 C2743 0.961 . S
H2759 C2743 0.960 . S
C2760 C2761 1.391 . S
C2760 C2762 1.394 . S
C2760 H2776 0.931 . S
C2761 C2760 1.391 . S
C2761 C2765 1.376 . S
C2762 C2760 1.394 . S
C2762 C2763 1.369 . S
C2762 C2766 1.531 . S
C2763 C2762 1.369 . S
C2763 C2764 1.410 . S
C2763 C2771 1.503 . S
C2764 C2763 1.410 . S
C2764 C2765 1.392 . S
C2764 C2767 1.511 . S
C2765 C2761 1.376 . S
C2765 C2764 1.392 . S
C2765 H2777 0.929 . S
C2766 C2762 1.531 . S
C2766 H2778 0.960 . S
C2766 H2779 0.962 . S
C2766 H2780 0.960 . S
C2767 C2764 1.511 . S
C2767 H2781 0.961 . S
C2767 H2782 0.961 . S
C2767 H2783 0.961 . S
C2768 C2769 1.370 . S
C2768 C2770 1.363 . S
C2768 H2784 0.931 . S
C2769 C2768 1.370 . S
C2769 C2773 1.408 . S
C2770 C2768 1.363 . S
C2770 C2771 1.370 . S
C2770 C2774 1.524 . S
C2771 C2763 1.503 . S
C2771 C2770 1.370 . S
C2771 C2772 1.403 . S
C2772 C2771 1.403 . S
C2772 C2773 1.404 . S
C2772 C2775 1.539 . S
C2773 C2769 1.408 . S
C2773 C2772 1.404 . S
C2773 H2785 0.930 . S
C2774 C2770 1.524 . S
C2774 H2786 0.956 . S
C2774 H2787 0.961 . S
C2774 H2788 0.961 . S
C2775 C2772 1.539 . S
C2775 H2789 0.958 . S
C2775 H2790 0.961 . S
C2775 H2791 0.960 . S
H2776 C2760 0.931 . S
H2777 C2765 0.929 . S
H2778 C2766 0.960 . S
H2779 C2766 0.962 . S
H2780 C2766 0.960 . S
H2781 C2767 0.961 . S
H2782 C2767 0.961 . S
H2783 C2767 0.961 . S
H2784 C2768 0.931 . S
H2785 C2773 0.930 . S
H2786 C2774 0.956 . S
H2787 C2774 0.961 . S
H2788 C2774 0.961 . S
H2789 C2775 0.958 . S
H2790 C2775 0.961 . S
H2791 C2775 0.960 . S
C2792 C2793 1.391 . S
C2792 C2794 1.394 . S
C2792 H2808 0.931 . S
C2793 C2792 1.391 . S
C2793 C2797 1.376 . S
C2794 C2792 1.394 . S
C2794 C2795 1.369 . S
C2794 C2798 1.531 . S
C2795 C2794 1.369 . S
C2795 C2796 1.410 . S
C2795 C2803 1.503 . S
C2796 C2795 1.410 . S
C2796 C2797 1.392 . S
C2796 C2799 1.511 . S
C2797 C2793 1.376 . S
C2797 C2796 1.392 . S
C2797 H2809 0.929 . S
C2798 C2794 1.531 . S
C2798 H2810 0.960 . S
C2798 H2811 0.962 . S
C2798 H2812 0.960 . S
C2799 C2796 1.511 . S
C2799 H2813 0.961 . S
C2799 H2814 0.961 . S
C2799 H2815 0.961 . S
C2800 C2801 1.370 . S
C2800 C2802 1.363 . S
C2800 H2816 0.931 . S
C2801 C2800 1.370 . S
C2801 C2805 1.408 . S
C2802 C2800 1.363 . S
C2802 C2803 1.370 . S
C2802 C2806 1.524 . S
C2803 C2795 1.503 . S
C2803 C2802 1.370 . S
C2803 C2804 1.403 . S
C2804 C2803 1.403 . S
C2804 C2805 1.404 . S
C2804 C2807 1.539 . S
C2805 C2801 1.408 . S
C2805 C2804 1.404 . S
C2805 H2817 0.930 . S
C2806 C2802 1.524 . S
C2806 H2818 0.956 . S
C2806 H2819 0.961 . S
C2806 H2820 0.961 . S
C2807 C2804 1.539 . S
C2807 H2821 0.958 . S
C2807 H2822 0.961 . S
C2807 H2823 0.960 . S
H2808 C2792 0.931 . S
H2809 C2797 0.929 . S
H2810 C2798 0.960 . S
H2811 C2798 0.962 . S
H2812 C2798 0.960 . S
H2813 C2799 0.961 . S
H2814 C2799 0.961 . S
H2815 C2799 0.961 . S
H2816 C2800 0.931 . S
H2817 C2805 0.930 . S
H2818 C2806 0.956 . S
H2819 C2806 0.961 . S
H2820 C2806 0.961 . S
H2821 C2807 0.958 . S
H2822 C2807 0.961 . S
H2823 C2807 0.960 . S
C2824 C2825 1.391 . S
C2824 C2826 1.394 . S
C2824 H2840 0.931 . S
C2825 C2824 1.391 . S
C2825 C2829 1.376 . S
C2826 C2824 1.394 . S
C2826 C2827 1.369 . S
C2826 C2830 1.531 . S
C2827 C2826 1.369 . S
C2827 C2828 1.410 . S
C2827 C2835 1.503 . S
C2828 C2827 1.410 . S
C2828 C2829 1.392 . S
C2828 C2831 1.511 . S
C2829 C2825 1.376 . S
C2829 C2828 1.392 . S
C2829 H2841 0.929 . S
C2830 C2826 1.531 . S
C2830 H2842 0.960 . S
C2830 H2843 0.962 . S
C2830 H2844 0.960 . S
C2831 C2828 1.511 . S
C2831 H2845 0.961 . S
C2831 H2846 0.961 . S
C2831 H2847 0.961 . S
C2832 C2833 1.370 . S
C2832 C2834 1.363 . S
C2832 H2848 0.931 . S
C2833 C2832 1.370 . S
C2833 C2837 1.408 . S
C2834 C2832 1.363 . S
C2834 C2835 1.370 . S
C2834 C2838 1.524 . S
C2835 C2827 1.503 . S
C2835 C2834 1.370 . S
C2835 C2836 1.403 . S
C2836 C2835 1.403 . S
C2836 C2837 1.404 . S
C2836 C2839 1.539 . S
C2837 C2833 1.408 . S
C2837 C2836 1.404 . S
C2837 H2849 0.930 . S
C2838 C2834 1.524 . S
C2838 H2850 0.956 . S
C2838 H2851 0.961 . S
C2838 H2852 0.961 . S
C2839 C2836 1.539 . S
C2839 H2853 0.958 . S
C2839 H2854 0.961 . S
C2839 H2855 0.960 . S
H2840 C2824 0.931 . S
H2841 C2829 0.929 . S
H2842 C2830 0.960 . S
H2843 C2830 0.962 . S
H2844 C2830 0.960 . S
H2845 C2831 0.961 . S
H2846 C2831 0.961 . S
H2847 C2831 0.961 . S
H2848 C2832 0.931 . S
H2849 C2837 0.930 . S
H2850 C2838 0.956 . S
H2851 C2838 0.961 . S
H2852 C2838 0.961 . S
H2853 C2839 0.958 . S
H2854 C2839 0.961 . S
H2855 C2839 0.960 . S
C2856 C2857 1.391 . S
C2856 C2858 1.394 . S
C2856 H2872 0.931 . S
C2857 C2856 1.391 . S
C2857 C2861 1.376 . S
C2858 C2856 1.394 . S
C2858 C2859 1.369 . S
C2858 C2862 1.531 . S
C2859 C2858 1.369 . S
C2859 C2860 1.410 . S
C2859 C2867 1.503 . S
C2860 C2859 1.410 . S
C2860 C2861 1.392 . S
C2860 C2863 1.511 . S
C2861 C2857 1.376 . S
C2861 C2860 1.392 . S
C2861 H2873 0.929 . S
C2862 C2858 1.531 . S
C2862 H2874 0.960 . S
C2862 H2875 0.962 . S
C2862 H2876 0.960 . S
C2863 C2860 1.511 . S
C2863 H2877 0.961 . S
C2863 H2878 0.961 . S
C2863 H2879 0.961 . S
C2864 C2865 1.370 . S
C2864 C2866 1.363 . S
C2864 H2880 0.931 . S
C2865 C2864 1.370 . S
C2865 C2869 1.408 . S
C2866 C2864 1.363 . S
C2866 C2867 1.370 . S
C2866 C2870 1.524 . S
C2867 C2859 1.503 . S
C2867 C2866 1.370 . S
C2867 C2868 1.403 . S
C2868 C2867 1.403 . S
C2868 C2869 1.404 . S
C2868 C2871 1.539 . S
C2869 C2865 1.408 . S
C2869 C2868 1.404 . S
C2869 H2881 0.930 . S
C2870 C2866 1.524 . S
C2870 H2882 0.956 . S
C2870 H2883 0.961 . S
C2870 H2884 0.961 . S
C2871 C2868 1.539 . S
C2871 H2885 0.958 . S
C2871 H2886 0.961 . S
C2871 H2887 0.960 . S
H2872 C2856 0.931 . S
H2873 C2861 0.929 . S
H2874 C2862 0.960 . S
H2875 C2862 0.962 . S
H2876 C2862 0.960 . S
H2877 C2863 0.961 . S
H2878 C2863 0.961 . S
H2879 C2863 0.961 . S
H2880 C2864 0.931 . S
H2881 C2869 0.930 . S
H2882 C2870 0.956 . S
H2883 C2870 0.961 . S
H2884 C2870 0.961 . S
H2885 C2871 0.958 . S
H2886 C2871 0.961 . S
H2887 C2871 0.960 . S
C2888 C2889 1.391 . S
C2888 C2890 1.394 . S
C2888 H2904 0.931 . S
C2889 C2888 1.391 . S
C2889 C2893 1.376 . S
C2890 C2888 1.394 . S
C2890 C2891 1.369 . S
C2890 C2894 1.531 . S
C2891 C2890 1.369 . S
C2891 C2892 1.410 . S
C2891 C2899 1.503 . S
C2892 C2891 1.410 . S
C2892 C2893 1.392 . S
C2892 C2895 1.511 . S
C2893 C2889 1.376 . S
C2893 C2892 1.392 . S
C2893 H2905 0.929 . S
C2894 C2890 1.531 . S
C2894 H2906 0.960 . S
C2894 H2907 0.962 . S
C2894 H2908 0.960 . S
C2895 C2892 1.511 . S
C2895 H2909 0.961 . S
C2895 H2910 0.961 . S
C2895 H2911 0.961 . S
C2896 C2897 1.370 . S
C2896 C2898 1.363 . S
C2896 H2912 0.931 . S
C2897 C2896 1.370 . S
C2897 C2901 1.408 . S
C2898 C2896 1.363 . S
C2898 C2899 1.370 . S
C2898 C2902 1.524 . S
C2899 C2891 1.503 . S
C2899 C2898 1.370 . S
C2899 C2900 1.403 . S
C2900 C2899 1.403 . S
C2900 C2901 1.404 . S
C2900 C2903 1.539 . S
C2901 C2897 1.408 . S
C2901 C2900 1.404 . S
C2901 H2913 0.930 . S
C2902 C2898 1.524 . S
C2902 H2914 0.956 . S
C2902 H2915 0.961 . S
C2902 H2916 0.961 . S
C2903 C2900 1.539 . S
C2903 H2917 0.958 . S
C2903 H2918 0.961 . S
C2903 H2919 0.960 . S
H2904 C2888 0.931 . S
H2905 C2893 0.929 . S
H2906 C2894 0.960 . S
H2907 C2894 0.962 . S
H2908 C2894 0.960 . S
H2909 C2895 0.961 . S
H2910 C2895 0.961 . S
H2911 C2895 0.961 . S
H2912 C2896 0.931 . S
H2913 C2901 0.930 . S
H2914 C2902 0.956 . S
H2915 C2902 0.961 . S
H2916 C2902 0.961 . S
H2917 C2903 0.958 . S
H2918 C2903 0.961 . S
H2919 C2903 0.960 . S
C2920 C2921 1.391 . S
C2920 C2922 1.394 . S
C2920 H2936 0.931 . S
C2921 C2920 1.391 . S
C2921 C2925 1.376 . S
C2922 C2920 1.394 . S
C2922 C2923 1.369 . S
C2922 C2926 1.531 . S
C2923 C2922 1.369 . S
C2923 C2924 1.410 . S
C2923 C2931 1.503 . S
C2924 C2923 1.410 . S
C2924 C2925 1.392 . S
C2924 C2927 1.511 . S
C2925 C2921 1.376 . S
C2925 C2924 1.392 . S
C2925 H2937 0.929 . S
C2926 C2922 1.531 . S
C2926 H2938 0.960 . S
C2926 H2939 0.962 . S
C2926 H2940 0.960 . S
C2927 C2924 1.511 . S
C2927 H2941 0.961 . S
C2927 H2942 0.961 . S
C2927 H2943 0.961 . S
C2928 C2929 1.370 . S
C2928 C2930 1.363 . S
C2928 H2944 0.931 . S
C2929 C2928 1.370 . S
C2929 C2933 1.408 . S
C2930 C2928 1.363 . S
C2930 C2931 1.370 . S
C2930 C2934 1.524 . S
C2931 C2923 1.503 . S
C2931 C2930 1.370 . S
C2931 C2932 1.403 . S
C2932 C2931 1.403 . S
C2932 C2933 1.404 . S
C2932 C2935 1.539 . S
C2933 C2929 1.408 . S
C2933 C2932 1.404 . S
C2933 H2945 0.930 . S
C2934 C2930 1.524 . S
C2934 H2946 0.956 . S
C2934 H2947 0.961 . S
C2934 H2948 0.961 . S
C2935 C2932 1.539 . S
C2935 H2949 0.958 . S
C2935 H2950 0.961 . S
C2935 H2951 0.960 . S
H2936 C2920 0.931 . S
H2937 C2925 0.929 . S
H2938 C2926 0.960 . S
H2939 C2926 0.962 . S
H2940 C2926 0.960 . S
H2941 C2927 0.961 . S
H2942 C2927 0.961 . S
H2943 C2927 0.961 . S
H2944 C2928 0.931 . S
H2945 C2933 0.930 . S
H2946 C2934 0.956 . S
H2947 C2934 0.961 . S
H2948 C2934 0.961 . S
H2949 C2935 0.958 . S
H2950 C2935 0.961 . S
H2951 C2935 0.960 . S
C2952 C2953 1.391 . S
C2952 C2954 1.394 . S
C2952 H2968 0.931 . S
C2953 C2952 1.391 . S
C2953 C2957 1.376 . S
C2954 C2952 1.394 . S
C2954 C2955 1.369 . S
C2954 C2958 1.531 . S
C2955 C2954 1.369 . S
C2955 C2956 1.410 . S
C2955 C2963 1.503 . S
C2956 C2955 1.410 . S
C2956 C2957 1.392 . S
C2956 C2959 1.511 . S
C2957 C2953 1.376 . S
C2957 C2956 1.392 . S
C2957 H2969 0.929 . S
C2958 C2954 1.531 . S
C2958 H2970 0.960 . S
C2958 H2971 0.962 . S
C2958 H2972 0.960 . S
C2959 C2956 1.511 . S
C2959 H2973 0.961 . S
C2959 H2974 0.961 . S
C2959 H2975 0.961 . S
C2960 C2961 1.370 . S
C2960 C2962 1.363 . S
C2960 H2976 0.931 . S
C2961 C2960 1.370 . S
C2961 C2965 1.408 . S
C2962 C2960 1.363 . S
C2962 C2963 1.370 . S
C2962 C2966 1.524 . S
C2963 C2955 1.503 . S
C2963 C2962 1.370 . S
C2963 C2964 1.403 . S
C2964 C2963 1.403 . S
C2964 C2965 1.404 . S
C2964 C2967 1.539 . S
C2965 C2961 1.408 . S
C2965 C2964 1.404 . S
C2965 H2977 0.930 . S
C2966 C2962 1.524 . S
C2966 H2978 0.956 . S
C2966 H2979 0.961 . S
C2966 H2980 0.961 . S
C2967 C2964 1.539 . S
C2967 H2981 0.958 . S
C2967 H2982 0.961 . S
C2967 H2983 0.960 . S
H2968 C2952 0.931 . S
H2969 C2957 0.929 . S
H2970 C2958 0.960 . S
H2971 C2958 0.962 . S
H2972 C2958 0.960 . S
H2973 C2959 0.961 . S
H2974 C2959 0.961 . S
H2975 C2959 0.961 . S
H2976 C2960 0.931 . S
H2977 C2965 0.930 . S
H2978 C2966 0.956 . S
H2979 C2966 0.961 . S
H2980 C2966 0.961 . S
H2981 C2967 0.958 . S
H2982 C2967 0.961 . S
H2983 C2967 0.960 . S
C2984 C2985 1.391 . S
C2984 C2986 1.394 . S
C2984 H3000 0.931 . S
C2985 C2984 1.391 . S
C2985 C2989 1.376 . S
C2986 C2984 1.394 . S
C2986 C2987 1.369 . S
C2986 C2990 1.531 . S
C2987 C2986 1.369 . S
C2987 C2988 1.410 . S
C2987 C2995 1.503 . S
C2988 C2987 1.410 . S
C2988 C2989 1.392 . S
C2988 C2991 1.511 . S
C2989 C2985 1.376 . S
C2989 C2988 1.392 . S
C2989 H3001 0.929 . S
C2990 C2986 1.531 . S
C2990 H3002 0.960 . S
C2990 H3003 0.962 . S
C2990 H3004 0.960 . S
C2991 C2988 1.511 . S
C2991 H3005 0.961 . S
C2991 H3006 0.961 . S
C2991 H3007 0.961 . S
C2992 C2993 1.370 . S
C2992 C2994 1.363 . S
C2992 H3008 0.931 . S
C2993 C2992 1.370 . S
C2993 C2997 1.408 . S
C2994 C2992 1.363 . S
C2994 C2995 1.370 . S
C2994 C2998 1.524 . S
C2995 C2987 1.503 . S
C2995 C2994 1.370 . S
C2995 C2996 1.403 . S
C2996 C2995 1.403 . S
C2996 C2997 1.404 . S
C2996 C2999 1.539 . S
C2997 C2993 1.408 . S
C2997 C2996 1.404 . S
C2997 H3009 0.930 . S
C2998 C2994 1.524 . S
C2998 H3010 0.956 . S
C2998 H3011 0.961 . S
C2998 H3012 0.961 . S
C2999 C2996 1.539 . S
C2999 H3013 0.958 . S
C2999 H3014 0.961 . S
C2999 H3015 0.960 . S
H3000 C2984 0.931 . S
H3001 C2989 0.929 . S
H3002 C2990 0.960 . S
H3003 C2990 0.962 . S
H3004 C2990 0.960 . S
H3005 C2991 0.961 . S
H3006 C2991 0.961 . S
H3007 C2991 0.961 . S
H3008 C2992 0.931 . S
H3009 C2997 0.930 . S
H3010 C2998 0.956 . S
H3011 C2998 0.961 . S
H3012 C2998 0.961 . S
H3013 C2999 0.958 . S
H3014 C2999 0.961 . S
H3015 C2999 0.960 . S
C3016 C3017 1.391 . S
C3016 C3018 1.394 . S
C3016 H3032 0.931 . S
C3017 C3016 1.391 . S
C3017 C3021 1.376 . S
C3018 C3016 1.394 . S
C3018 C3019 1.369 . S
C3018 C3022 1.531 . S
C3019 C3018 1.369 . S
C3019 C3020 1.410 . S
C3019 C3027 1.503 . S
C3020 C3019 1.410 . S
C3020 C3021 1.392 . S
C3020 C3023 1.511 . S
C3021 C3017 1.376 . S
C3021 C3020 1.392 . S
C3021 H3033 0.929 . S
C3022 C3018 1.531 . S
C3022 H3034 0.960 . S
C3022 H3035 0.962 . S
C3022 H3036 0.960 . S
C3023 C3020 1.511 . S
C3023 H3037 0.961 . S
C3023 H3038 0.961 . S
C3023 H3039 0.961 . S
C3024 C3025 1.370 . S
C3024 C3026 1.363 . S
C3024 H3040 0.931 . S
C3025 C3024 1.370 . S
C3025 C3029 1.408 . S
C3026 C3024 1.363 . S
C3026 C3027 1.370 . S
C3026 C3030 1.524 . S
C3027 C3019 1.503 . S
C3027 C3026 1.370 . S
C3027 C3028 1.403 . S
C3028 C3027 1.403 . S
C3028 C3029 1.404 . S
C3028 C3031 1.539 . S
C3029 C3025 1.408 . S
C3029 C3028 1.404 . S
C3029 H3041 0.930 . S
C3030 C3026 1.524 . S
C3030 H3042 0.956 . S
C3030 H3043 0.961 . S
C3030 H3044 0.961 . S
C3031 C3028 1.539 . S
C3031 H3045 0.958 . S
C3031 H3046 0.961 . S
C3031 H3047 0.960 . S
H3032 C3016 0.931 . S
H3033 C3021 0.929 . S
H3034 C3022 0.960 . S
H3035 C3022 0.962 . S
H3036 C3022 0.960 . S
H3037 C3023 0.961 . S
H3038 C3023 0.961 . S
H3039 C3023 0.961 . S
H3040 C3024 0.931 . S
H3041 C3029 0.930 . S
H3042 C3030 0.956 . S
H3043 C3030 0.961 . S
H3044 C3030 0.961 . S
H3045 C3031 0.958 . S
H3046 C3031 0.961 . S
H3047 C3031 0.960 . S
C3048 C3049 1.391 . S
C3048 C3050 1.394 . S
C3048 H3064 0.931 . S
C3049 C3048 1.391 . S
C3049 C3053 1.376 . S
C3050 C3048 1.394 . S
C3050 C3051 1.369 . S
C3050 C3054 1.531 . S
C3051 C3050 1.369 . S
C3051 C3052 1.410 . S
C3051 C3059 1.503 . S
C3052 C3051 1.410 . S
C3052 C3053 1.392 . S
C3052 C3055 1.511 . S
C3053 C3049 1.376 . S
C3053 C3052 1.392 . S
C3053 H3065 0.929 . S
C3054 C3050 1.531 . S
C3054 H3066 0.960 . S
C3054 H3067 0.962 . S
C3054 H3068 0.960 . S
C3055 C3052 1.511 . S
C3055 H3069 0.961 . S
C3055 H3070 0.961 . S
C3055 H3071 0.961 . S
C3056 C3057 1.370 . S
C3056 C3058 1.363 . S
C3056 H3072 0.931 . S
C3057 C3056 1.370 . S
C3057 C3061 1.408 . S
C3058 C3056 1.363 . S
C3058 C3059 1.370 . S
C3058 C3062 1.524 . S
C3059 C3051 1.503 . S
C3059 C3058 1.370 . S
C3059 C3060 1.403 . S
C3060 C3059 1.403 . S
C3060 C3061 1.404 . S
C3060 C3063 1.539 . S
C3061 C3057 1.408 . S
C3061 C3060 1.404 . S
C3061 H3073 0.930 . S
C3062 C3058 1.524 . S
C3062 H3074 0.956 . S
C3062 H3075 0.961 . S
C3062 H3076 0.961 . S
C3063 C3060 1.539 . S
C3063 H3077 0.958 . S
C3063 H3078 0.961 . S
C3063 H3079 0.960 . S
H3064 C3048 0.931 . S
H3065 C3053 0.929 . S
H3066 C3054 0.960 . S
H3067 C3054 0.962 . S
H3068 C3054 0.960 . S
H3069 C3055 0.961 . S
H3070 C3055 0.961 . S
H3071 C3055 0.961 . S
H3072 C3056 0.931 . S
H3073 C3061 0.930 . S
H3074 C3062 0.956 . S
H3075 C3062 0.961 . S
H3076 C3062 0.961 . S
H3077 C3063 0.958 . S
H3078 C3063 0.961 . S
H3079 C3063 0.960 . S
C3080 C3081 1.391 . S
C3080 C3082 1.394 . S
C3080 H3096 0.931 . S
C3081 C3080 1.391 . S
C3081 C3085 1.376 . S
C3082 C3080 1.394 . S
C3082 C3083 1.369 . S
C3082 C3086 1.531 . S
C3083 C3082 1.369 . S
C3083 C3084 1.410 . S
C3083 C3091 1.503 . S
C3084 C3083 1.410 . S
C3084 C3085 1.392 . S
C3084 C3087 1.511 . S
C3085 C3081 1.376 . S
C3085 C3084 1.392 . S
C3085 H3097 0.929 . S
C3086 C3082 1.531 . S
C3086 H3098 0.960 . S
C3086 H3099 0.962 . S
C3086 H3100 0.960 . S
C3087 C3084 1.511 . S
C3087 H3101 0.961 . S
C3087 H3102 0.961 . S
C3087 H3103 0.961 . S
C3088 C3089 1.370 . S
C3088 C3090 1.363 . S
C3088 H3104 0.931 . S
C3089 C3088 1.370 . S
C3089 C3093 1.408 . S
C3090 C3088 1.363 . S
C3090 C3091 1.370 . S
C3090 C3094 1.524 . S
C3091 C3083 1.503 . S
C3091 C3090 1.370 . S
C3091 C3092 1.403 . S
C3092 C3091 1.403 . S
C3092 C3093 1.404 . S
C3092 C3095 1.539 . S
C3093 C3089 1.408 . S
C3093 C3092 1.404 . S
C3093 H3105 0.930 . S
C3094 C3090 1.524 . S
C3094 H3106 0.956 . S
C3094 H3107 0.961 . S
C3094 H3108 0.961 . S
C3095 C3092 1.539 . S
C3095 H3109 0.958 . S
C3095 H3110 0.961 . S
C3095 H3111 0.960 . S
H3096 C3080 0.931 . S
H3097 C3085 0.929 . S
H3098 C3086 0.960 . S
H3099 C3086 0.962 . S
H3100 C3086 0.960 . S
H3101 C3087 0.961 . S
H3102 C3087 0.961 . S
H3103 C3087 0.961 . S
H3104 C3088 0.931 . S
H3105 C3093 0.930 . S
H3106 C3094 0.956 . S
H3107 C3094 0.961 . S
H3108 C3094 0.961 . S
H3109 C3095 0.958 . S
H3110 C3095 0.961 . S
H3111 C3095 0.960 . S
C3112 C3113 1.391 . S
C3112 C3114 1.394 . S
C3112 H3128 0.931 . S
C3113 C3112 1.391 . S
C3113 C3117 1.376 . S
C3114 C3112 1.394 . S
C3114 C3115 1.369 . S
C3114 C3118 1.531 . S
C3115 C3114 1.369 . S
C3115 C3116 1.410 . S
C3115 C3123 1.503 . S
C3116 C3115 1.410 . S
C3116 C3117 1.392 . S
C3116 C3119 1.511 . S
C3117 C3113 1.376 . S
C3117 C3116 1.392 . S
C3117 H3129 0.929 . S
C3118 C3114 1.531 . S
C3118 H3130 0.960 . S
C3118 H3131 0.962 . S
C3118 H3132 0.960 . S
C3119 C3116 1.511 . S
C3119 H3133 0.961 . S
C3119 H3134 0.961 . S
C3119 H3135 0.961 . S
C3120 C3121 1.370 . S
C3120 C3122 1.363 . S
C3120 H3136 0.931 . S
C3121 C3120 1.370 . S
C3121 C3125 1.408 . S
C3122 C3120 1.363 . S
C3122 C3123 1.370 . S
C3122 C3126 1.524 . S
C3123 C3115 1.503 . S
C3123 C3122 1.370 . S
C3123 C3124 1.403 . S
C3124 C3123 1.403 . S
C3124 C3125 1.404 . S
C3124 C3127 1.539 . S
C3125 C3121 1.408 . S
C3125 C3124 1.404 . S
C3125 H3137 0.930 . S
C3126 C3122 1.524 . S
C3126 H3138 0.956 . S
C3126 H3139 0.961 . S
C3126 H3140 0.961 . S
C3127 C3124 1.539 . S
C3127 H3141 0.958 . S
C3127 H3142 0.961 . S
C3127 H3143 0.960 . S
H3128 C3112 0.931 . S
H3129 C3117 0.929 . S
H3130 C3118 0.960 . S
H3131 C3118 0.962 . S
H3132 C3118 0.960 . S
H3133 C3119 0.961 . S
H3134 C3119 0.961 . S
H3135 C3119 0.961 . S
H3136 C3120 0.931 . S
H3137 C3125 0.930 . S
H3138 C3126 0.956 . S
H3139 C3126 0.961 . S
H3140 C3126 0.961 . S
H3141 C3127 0.958 . S
H3142 C3127 0.961 . S
H3143 C3127 0.960 . S
C3144 C3145 1.391 . S
C3144 C3146 1.394 . S
C3144 H3160 0.931 . S
C3145 C3144 1.391 . S
C3145 C3149 1.376 . S
C3146 C3144 1.394 . S
C3146 C3147 1.369 . S
C3146 C3150 1.531 . S
C3147 C3146 1.369 . S
C3147 C3148 1.410 . S
C3147 C3155 1.503 . S
C3148 C3147 1.410 . S
C3148 C3149 1.392 . S
C3148 C3151 1.511 . S
C3149 C3145 1.376 . S
C3149 C3148 1.392 . S
C3149 H3161 0.929 . S
C3150 C3146 1.531 . S
C3150 H3162 0.960 . S
C3150 H3163 0.962 . S
C3150 H3164 0.960 . S
C3151 C3148 1.511 . S
C3151 H3165 0.961 . S
C3151 H3166 0.961 . S
C3151 H3167 0.961 . S
C3152 C3153 1.370 . S
C3152 C3154 1.363 . S
C3152 H3168 0.931 . S
C3153 C3152 1.370 . S
C3153 C3157 1.408 . S
C3154 C3152 1.363 . S
C3154 C3155 1.370 . S
C3154 C3158 1.524 . S
C3155 C3147 1.503 . S
C3155 C3154 1.370 . S
C3155 C3156 1.403 . S
C3156 C3155 1.403 . S
C3156 C3157 1.404 . S
C3156 C3159 1.539 . S
C3157 C3153 1.408 . S
C3157 C3156 1.404 . S
C3157 H3169 0.930 . S
C3158 C3154 1.524 . S
C3158 H3170 0.956 . S
C3158 H3171 0.961 . S
C3158 H3172 0.961 . S
C3159 C3156 1.539 . S
C3159 H3173 0.958 . S
C3159 H3174 0.961 . S
C3159 H3175 0.960 . S
H3160 C3144 0.931 . S
H3161 C3149 0.929 . S
H3162 C3150 0.960 . S
H3163 C3150 0.962 . S
H3164 C3150 0.960 . S
H3165 C3151 0.961 . S
H3166 C3151 0.961 . S
H3167 C3151 0.961 . S
H3168 C3152 0.931 . S
H3169 C3157 0.930 . S
H3170 C3158 0.956 . S
H3171 C3158 0.961 . S
H3172 C3158 0.961 . S
H3173 C3159 0.958 . S
H3174 C3159 0.961 . S
H3175 C3159 0.960 . S
C3176 C3177 1.391 . S
C3176 C3178 1.394 . S
C3176 H3192 0.931 . S
C3177 C3176 1.391 . S
C3177 C3181 1.376 . S
C3178 C3176 1.394 . S
C3178 C3179 1.369 . S
C3178 C3182 1.531 . S
C3179 C3178 1.369 . S
C3179 C3180 1.410 . S
C3179 C3187 1.503 . S
C3180 C3179 1.410 . S
C3180 C3181 1.392 . S
C3180 C3183 1.511 . S
C3181 C3177 1.376 . S
C3181 C3180 1.392 . S
C3181 H3193 0.929 . S
C3182 C3178 1.531 . S
C3182 H3194 0.960 . S
C3182 H3195 0.962 . S
C3182 H3196 0.960 . S
C3183 C3180 1.511 . S
C3183 H3197 0.961 . S
C3183 H3198 0.961 1_565 S
C3183 H3199 0.961 1_565 S
C3184 C3185 1.370 . S
C3184 C3186 1.363 1_545 S
C3184 H3200 0.931 . S
C3185 C3184 1.370 . S
C3185 C3189 1.408 . S
C3186 C3184 1.363 1_565 S
C3186 C3187 1.370 . S
C3186 C3190 1.524 . S
C3187 C3179 1.503 . S
C3187 C3186 1.370 . S
C3187 C3188 1.403 . S
C3188 C3187 1.403 . S
C3188 C3189 1.404 1_565 S
C3188 C3191 1.539 . S
C3189 C3185 1.408 . S
C3189 C3188 1.404 1_545 S
C3189 H3201 0.930 . S
C3190 C3186 1.524 . S
C3190 H3202 0.956 . S
C3190 H3203 0.961 . S
C3190 H3204 0.961 . S
C3191 C3188 1.539 . S
C3191 H3205 0.958 . S
C3191 H3206 0.961 1_565 S
C3191 H3207 0.960 . S
H3192 C3176 0.931 . S
H3193 C3181 0.929 . S
H3194 C3182 0.960 . S
H3195 C3182 0.962 . S
H3196 C3182 0.960 . S
H3197 C3183 0.961 . S
H3198 C3183 0.961 1_545 S
H3199 C3183 0.961 1_545 S
H3200 C3184 0.931 . S
H3201 C3189 0.930 . S
H3202 C3190 0.956 . S
H3203 C3190 0.961 . S
H3204 C3190 0.961 . S
H3205 C3191 0.958 . S
H3206 C3191 0.961 1_545 S
H3207 C3191 0.960 . S
C3208 C3209 1.391 . S
C3208 C3210 1.394 . S
C3208 H3224 0.931 . S
C3209 C3208 1.391 . S
C3209 C3213 1.376 . S
C3210 C3208 1.394 . S
C3210 C3211 1.369 . S
C3210 C3214 1.531 . S
C3211 C3210 1.369 . S
C3211 C3212 1.410 . S
C3211 C3219 1.503 . S
C3212 C3211 1.410 . S
C3212 C3213 1.392 . S
C3212 C3215 1.511 . S
C3213 C3209 1.376 . S
C3213 C3212 1.392 . S
C3213 H3225 0.929 . S
C3214 C3210 1.531 . S
C3214 H3226 0.960 . S
C3214 H3227 0.962 . S
C3214 H3228 0.960 . S
C3215 C3212 1.511 . S
C3215 H3229 0.961 . S
C3215 H3230 0.961 . S
C3215 H3231 0.961 . S
C3216 C3217 1.370 . S
C3216 C3218 1.363 . S
C3216 H3232 0.931 . S
C3217 C3216 1.370 . S
C3217 C3221 1.408 . S
C3218 C3216 1.363 . S
C3218 C3219 1.370 . S
C3218 C3222 1.524 . S
C3219 C3211 1.503 . S
C3219 C3218 1.370 . S
C3219 C3220 1.403 . S
C3220 C3219 1.403 . S
C3220 C3221 1.404 . S
C3220 C3223 1.539 . S
C3221 C3217 1.408 . S
C3221 C3220 1.404 . S
C3221 H3233 0.930 . S
C3222 C3218 1.524 . S
C3222 H3234 0.956 . S
C3222 H3235 0.961 . S
C3222 H3236 0.961 . S
C3223 C3220 1.539 . S
C3223 H3237 0.958 . S
C3223 H3238 0.961 . S
C3223 H3239 0.960 . S
H3224 C3208 0.931 . S
H3225 C3213 0.929 . S
H3226 C3214 0.960 . S
H3227 C3214 0.962 . S
H3228 C3214 0.960 . S
H3229 C3215 0.961 . S
H3230 C3215 0.961 . S
H3231 C3215 0.961 . S
H3232 C3216 0.931 . S
H3233 C3221 0.930 . S
H3234 C3222 0.956 . S
H3235 C3222 0.961 . S
H3236 C3222 0.961 . S
H3237 C3223 0.958 . S
H3238 C3223 0.961 . S
H3239 C3223 0.960 . S
C3240 C3241 1.391 . S
C3240 C3242 1.394 . S
C3240 H3256 0.931 . S
C3241 C3240 1.391 . S
C3241 C3245 1.376 . S
C3242 C3240 1.394 . S
C3242 C3243 1.369 . S
C3242 C3246 1.531 . S
C3243 C3242 1.369 . S
C3243 C3244 1.410 . S
C3243 C3251 1.503 . S
C3244 C3243 1.410 . S
C3244 C3245 1.392 . S
C3244 C3247 1.511 . S
C3245 C3241 1.376 . S
C3245 C3244 1.392 . S
C3245 H3257 0.929 . S
C3246 C3242 1.531 . S
C3246 H3258 0.960 . S
C3246 H3259 0.962 . S
C3246 H3260 0.960 . S
C3247 C3244 1.511 . S
C3247 H3261 0.961 . S
C3247 H3262 0.961 . S
C3247 H3263 0.961 . S
C3248 C3249 1.370 . S
C3248 C3250 1.363 . S
C3248 H3264 0.931 . S
C3249 C3248 1.370 . S
C3249 C3253 1.408 . S
C3250 C3248 1.363 . S
C3250 C3251 1.370 . S
C3250 C3254 1.524 . S
C3251 C3243 1.503 . S
C3251 C3250 1.370 . S
C3251 C3252 1.403 . S
C3252 C3251 1.403 . S
C3252 C3253 1.404 . S
C3252 C3255 1.539 . S
C3253 C3249 1.408 . S
C3253 C3252 1.404 . S
C3253 H3265 0.930 . S
C3254 C3250 1.524 . S
C3254 H3266 0.956 . S
C3254 H3267 0.961 . S
C3254 H3268 0.961 . S
C3255 C3252 1.539 . S
C3255 H3269 0.958 . S
C3255 H3270 0.961 . S
C3255 H3271 0.960 . S
H3256 C3240 0.931 . S
H3257 C3245 0.929 . S
H3258 C3246 0.960 . S
H3259 C3246 0.962 . S
H3260 C3246 0.960 . S
H3261 C3247 0.961 . S
H3262 C3247 0.961 . S
H3263 C3247 0.961 . S
H3264 C3248 0.931 . S
H3265 C3253 0.930 . S
H3266 C3254 0.956 . S
H3267 C3254 0.961 . S
H3268 C3254 0.961 . S
H3269 C3255 0.958 . S
H3270 C3255 0.961 . S
H3271 C3255 0.960 . S
C3272 C3273 1.391 . S
C3272 C3274 1.394 . S
C3272 H3288 0.931 . S
C3273 C3272 1.391 . S
C3273 C3277 1.376 . S
C3274 C3272 1.394 . S
C3274 C3275 1.369 . S
C3274 C3278 1.531 . S
C3275 C3274 1.369 . S
C3275 C3276 1.410 . S
C3275 C3283 1.503 . S
C3276 C3275 1.410 . S
C3276 C3277 1.392 . S
C3276 C3279 1.511 . S
C3277 C3273 1.376 . S
C3277 C3276 1.392 . S
C3277 H3289 0.929 . S
C3278 C3274 1.531 . S
C3278 H3290 0.960 . S
C3278 H3291 0.962 . S
C3278 H3292 0.960 . S
C3279 C3276 1.511 . S
C3279 H3293 0.961 . S
C3279 H3294 0.961 . S
C3279 H3295 0.961 . S
C3280 C3281 1.370 . S
C3280 C3282 1.363 . S
C3280 H3296 0.931 . S
C3281 C3280 1.370 . S
C3281 C3285 1.408 . S
C3282 C3280 1.363 . S
C3282 C3283 1.370 . S
C3282 C3286 1.524 . S
C3283 C3275 1.503 . S
C3283 C3282 1.370 . S
C3283 C3284 1.403 . S
C3284 C3283 1.403 . S
C3284 C3285 1.404 . S
C3284 C3287 1.539 . S
C3285 C3281 1.408 . S
C3285 C3284 1.404 . S
C3285 H3297 0.930 . S
C3286 C3282 1.524 . S
C3286 H3298 0.956 . S
C3286 H3299 0.961 . S
C3286 H3300 0.961 . S
C3287 C3284 1.539 . S
C3287 H3301 0.958 . S
C3287 H3302 0.961 . S
C3287 H3303 0.960 . S
H3288 C3272 0.931 . S
H3289 C3277 0.929 . S
H3290 C3278 0.960 . S
H3291 C3278 0.962 . S
H3292 C3278 0.960 . S
H3293 C3279 0.961 . S
H3294 C3279 0.961 . S
H3295 C3279 0.961 . S
H3296 C3280 0.931 . S
H3297 C3285 0.930 . S
H3298 C3286 0.956 . S
H3299 C3286 0.961 . S
H3300 C3286 0.961 . S
H3301 C3287 0.958 . S
H3302 C3287 0.961 . S
H3303 C3287 0.960 . S
C3304 C3305 1.391 . S
C3304 C3306 1.394 . S
C3304 H3320 0.931 . S
C3305 C3304 1.391 . S
C3305 C3309 1.376 . S
C3306 C3304 1.394 . S
C3306 C3307 1.369 . S
C3306 C3310 1.531 . S
C3307 C3306 1.369 . S
C3307 C3308 1.410 . S
C3307 C3315 1.503 . S
C3308 C3307 1.410 . S
C3308 C3309 1.392 . S
C3308 C3311 1.511 . S
C3309 C3305 1.376 . S
C3309 C3308 1.392 . S
C3309 H3321 0.929 . S
C3310 C3306 1.531 . S
C3310 H3322 0.960 . S
C3310 H3323 0.962 . S
C3310 H3324 0.960 . S
C3311 C3308 1.511 . S
C3311 H3325 0.961 . S
C3311 H3326 0.961 . S
C3311 H3327 0.961 . S
C3312 C3313 1.370 . S
C3312 C3314 1.363 . S
C3312 H3328 0.931 . S
C3313 C3312 1.370 . S
C3313 C3317 1.408 . S
C3314 C3312 1.363 . S
C3314 C3315 1.370 . S
C3314 C3318 1.524 . S
C3315 C3307 1.503 . S
C3315 C3314 1.370 . S
C3315 C3316 1.403 . S
C3316 C3315 1.403 . S
C3316 C3317 1.404 . S
C3316 C3319 1.539 . S
C3317 C3313 1.408 . S
C3317 C3316 1.404 . S
C3317 H3329 0.930 . S
C3318 C3314 1.524 . S
C3318 H3330 0.956 . S
C3318 H3331 0.961 . S
C3318 H3332 0.961 . S
C3319 C3316 1.539 . S
C3319 H3333 0.958 . S
C3319 H3334 0.961 . S
C3319 H3335 0.960 . S
H3320 C3304 0.931 . S
H3321 C3309 0.929 . S
H3322 C3310 0.960 . S
H3323 C3310 0.962 . S
H3324 C3310 0.960 . S
H3325 C3311 0.961 . S
H3326 C3311 0.961 . S
H3327 C3311 0.961 . S
H3328 C3312 0.931 . S
H3329 C3317 0.930 . S
H3330 C3318 0.956 . S
H3331 C3318 0.961 . S
H3332 C3318 0.961 . S
H3333 C3319 0.958 . S
H3334 C3319 0.961 . S
H3335 C3319 0.960 . S
C3336 C3337 1.391 . S
C3336 C3338 1.394 . S
C3336 H3352 0.931 . S
C3337 C3336 1.391 . S
C3337 C3341 1.376 . S
C3338 C3336 1.394 . S
C3338 C3339 1.369 . S
C3338 C3342 1.531 . S
C3339 C3338 1.369 . S
C3339 C3340 1.410 . S
C3339 C3347 1.503 . S
C3340 C3339 1.410 . S
C3340 C3341 1.392 . S
C3340 C3343 1.511 . S
C3341 C3337 1.376 . S
C3341 C3340 1.392 . S
C3341 H3353 0.929 . S
C3342 C3338 1.531 . S
C3342 H3354 0.960 . S
C3342 H3355 0.962 . S
C3342 H3356 0.960 . S
C3343 C3340 1.511 . S
C3343 H3357 0.961 . S
C3343 H3358 0.961 . S
C3343 H3359 0.961 . S
C3344 C3345 1.370 . S
C3344 C3346 1.363 . S
C3344 H3360 0.931 . S
C3345 C3344 1.370 . S
C3345 C3349 1.408 . S
C3346 C3344 1.363 . S
C3346 C3347 1.370 . S
C3346 C3350 1.524 . S
C3347 C3339 1.503 . S
C3347 C3346 1.370 . S
C3347 C3348 1.403 . S
C3348 C3347 1.403 . S
C3348 C3349 1.404 . S
C3348 C3351 1.539 . S
C3349 C3345 1.408 . S
C3349 C3348 1.404 . S
C3349 H3361 0.930 . S
C3350 C3346 1.524 . S
C3350 H3362 0.956 . S
C3350 H3363 0.961 . S
C3350 H3364 0.961 . S
C3351 C3348 1.539 . S
C3351 H3365 0.958 . S
C3351 H3366 0.961 . S
C3351 H3367 0.960 . S
H3352 C3336 0.931 . S
H3353 C3341 0.929 . S
H3354 C3342 0.960 . S
H3355 C3342 0.962 . S
H3356 C3342 0.960 . S
H3357 C3343 0.961 . S
H3358 C3343 0.961 . S
H3359 C3343 0.961 . S
H3360 C3344 0.931 . S
H3361 C3349 0.930 . S
H3362 C3350 0.956 . S
H3363 C3350 0.961 . S
H3364 C3350 0.961 . S
H3365 C3351 0.958 . S
H3366 C3351 0.961 . S
H3367 C3351 0.960 . S
C3368 C3369 1.391 . S
C3368 C3370 1.394 . S
C3368 H3384 0.931 . S
C3369 C3368 1.391 . S
C3369 C3373 1.376 . S
C3370 C3368 1.394 . S
C3370 C3371 1.369 . S
C3370 C3374 1.531 . S
C3371 C3370 1.369 . S
C3371 C3372 1.410 . S
C3371 C3379 1.503 . S
C3372 C3371 1.410 . S
C3372 C3373 1.392 . S
C3372 C3375 1.511 . S
C3373 C3369 1.376 . S
C3373 C3372 1.392 . S
C3373 H3385 0.929 . S
C3374 C3370 1.531 . S
C3374 H3386 0.960 . S
C3374 H3387 0.962 . S
C3374 H3388 0.960 . S
C3375 C3372 1.511 . S
C3375 H3389 0.961 . S
C3375 H3390 0.961 . S
C3375 H3391 0.961 . S
C3376 C3377 1.370 . S
C3376 C3378 1.363 . S
C3376 H3392 0.931 . S
C3377 C3376 1.370 . S
C3377 C3381 1.408 . S
C3378 C3376 1.363 . S
C3378 C3379 1.370 . S
C3378 C3382 1.524 . S
C3379 C3371 1.503 . S
C3379 C3378 1.370 . S
C3379 C3380 1.403 . S
C3380 C3379 1.403 . S
C3380 C3381 1.404 . S
C3380 C3383 1.539 . S
C3381 C3377 1.408 . S
C3381 C3380 1.404 . S
C3381 H3393 0.930 . S
C3382 C3378 1.524 . S
C3382 H3394 0.956 . S
C3382 H3395 0.961 . S
C3382 H3396 0.961 . S
C3383 C3380 1.539 . S
C3383 H3397 0.958 . S
C3383 H3398 0.961 . S
C3383 H3399 0.960 . S
H3384 C3368 0.931 . S
H3385 C3373 0.929 . S
H3386 C3374 0.960 . S
H3387 C3374 0.962 . S
H3388 C3374 0.960 . S
H3389 C3375 0.961 . S
H3390 C3375 0.961 . S
H3391 C3375 0.961 . S
H3392 C3376 0.931 . S
H3393 C3381 0.930 . S
H3394 C3382 0.956 . S
H3395 C3382 0.961 . S
H3396 C3382 0.961 . S
H3397 C3383 0.958 . S
H3398 C3383 0.961 . S
H3399 C3383 0.960 . S
C3400 C3401 1.391 . S
C3400 C3402 1.394 . S
C3400 H3416 0.931 . S
C3401 C3400 1.391 . S
C3401 C3405 1.376 . S
C3402 C3400 1.394 . S
C3402 C3403 1.369 . S
C3402 C3406 1.531 . S
C3403 C3402 1.369 . S
C3403 C3404 1.410 . S
C3403 C3411 1.503 . S
C3404 C3403 1.410 . S
C3404 C3405 1.392 . S
C3404 C3407 1.511 . S
C3405 C3401 1.376 . S
C3405 C3404 1.392 . S
C3405 H3417 0.929 . S
C3406 C3402 1.531 . S
C3406 H3418 0.960 . S
C3406 H3419 0.962 . S
C3406 H3420 0.960 . S
C3407 C3404 1.511 . S
C3407 H3421 0.961 . S
C3407 H3422 0.961 . S
C3407 H3423 0.961 . S
C3408 C3409 1.370 . S
C3408 C3410 1.363 . S
C3408 H3424 0.931 . S
C3409 C3408 1.370 . S
C3409 C3413 1.408 . S
C3410 C3408 1.363 . S
C3410 C3411 1.370 . S
C3410 C3414 1.524 . S
C3411 C3403 1.503 . S
C3411 C3410 1.370 . S
C3411 C3412 1.403 . S
C3412 C3411 1.403 . S
C3412 C3413 1.404 . S
C3412 C3415 1.539 . S
C3413 C3409 1.408 . S
C3413 C3412 1.404 . S
C3413 H3425 0.930 . S
C3414 C3410 1.524 . S
C3414 H3426 0.956 . S
C3414 H3427 0.961 . S
C3414 H3428 0.961 . S
C3415 C3412 1.539 . S
C3415 H3429 0.958 . S
C3415 H3430 0.961 . S
C3415 H3431 0.960 . S
H3416 C3400 0.931 . S
H3417 C3405 0.929 . S
H3418 C3406 0.960 . S
H3419 C3406 0.962 . S
H3420 C3406 0.960 . S
H3421 C3407 0.961 . S
H3422 C3407 0.961 . S
H3423 C3407 0.961 . S
H3424 C3408 0.931 . S
H3425 C3413 0.930 . S
H3426 C3414 0.956 . S
H3427 C3414 0.961 . S
H3428 C3414 0.961 . S
H3429 C3415 0.958 . S
H3430 C3415 0.961 . S
H3431 C3415 0.960 . S
C3432 C3433 1.391 . S
C3432 C3434 1.394 . S
C3432 H3448 0.931 . S
C3433 C3432 1.391 . S
C3433 C3437 1.376 . S
C3434 C3432 1.394 . S
C3434 C3435 1.369 . S
C3434 C3438 1.531 . S
C3435 C3434 1.369 . S
C3435 C3436 1.410 . S
C3435 C3443 1.503 . S
C3436 C3435 1.410 . S
C3436 C3437 1.392 . S
C3436 C3439 1.511 . S
C3437 C3433 1.376 . S
C3437 C3436 1.392 . S
C3437 H3449 0.929 . S
C3438 C3434 1.531 . S
C3438 H3450 0.960 . S
C3438 H3451 0.962 . S
C3438 H3452 0.960 . S
C3439 C3436 1.511 . S
C3439 H3453 0.961 . S
C3439 H3454 0.961 . S
C3439 H3455 0.961 . S
C3440 C3441 1.370 . S
C3440 C3442 1.363 . S
C3440 H3456 0.931 . S
C3441 C3440 1.370 . S
C3441 C3445 1.408 . S
C3442 C3440 1.363 . S
C3442 C3443 1.370 . S
C3442 C3446 1.524 . S
C3443 C3435 1.503 . S
C3443 C3442 1.370 . S
C3443 C3444 1.403 . S
C3444 C3443 1.403 . S
C3444 C3445 1.404 . S
C3444 C3447 1.539 . S
C3445 C3441 1.408 . S
C3445 C3444 1.404 . S
C3445 H3457 0.930 . S
C3446 C3442 1.524 . S
C3446 H3458 0.956 . S
C3446 H3459 0.961 . S
C3446 H3460 0.961 . S
C3447 C3444 1.539 . S
C3447 H3461 0.958 . S
C3447 H3462 0.961 . S
C3447 H3463 0.960 . S
H3448 C3432 0.931 . S
H3449 C3437 0.929 . S
H3450 C3438 0.960 . S
H3451 C3438 0.962 . S
H3452 C3438 0.960 . S
H3453 C3439 0.961 . S
H3454 C3439 0.961 . S
H3455 C3439 0.961 . S
H3456 C3440 0.931 . S
H3457 C3445 0.930 . S
H3458 C3446 0.956 . S
H3459 C3446 0.961 . S
H3460 C3446 0.961 . S
H3461 C3447 0.958 . S
H3462 C3447 0.961 . S
H3463 C3447 0.960 . S
C3464 C3465 1.391 . S
C3464 C3466 1.394 . S
C3464 H3480 0.931 . S
C3465 C3464 1.391 . S
C3465 C3469 1.376 . S
C3466 C3464 1.394 . S
C3466 C3467 1.369 . S
C3466 C3470 1.531 . S
C3467 C3466 1.369 . S
C3467 C3468 1.410 . S
C3467 C3475 1.503 . S
C3468 C3467 1.410 . S
C3468 C3469 1.392 . S
C3468 C3471 1.511 . S
C3469 C3465 1.376 . S
C3469 C3468 1.392 . S
C3469 H3481 0.929 . S
C3470 C3466 1.531 . S
C3470 H3482 0.960 . S
C3470 H3483 0.962 . S
C3470 H3484 0.960 . S
C3471 C3468 1.511 . S
C3471 H3485 0.961 . S
C3471 H3486 0.961 . S
C3471 H3487 0.961 . S
C3472 C3473 1.370 . S
C3472 C3474 1.363 . S
C3472 H3488 0.931 . S
C3473 C3472 1.370 . S
C3473 C3477 1.408 . S
C3474 C3472 1.363 . S
C3474 C3475 1.370 . S
C3474 C3478 1.524 . S
C3475 C3467 1.503 . S
C3475 C3474 1.370 . S
C3475 C3476 1.403 . S
C3476 C3475 1.403 . S
C3476 C3477 1.404 . S
C3476 C3479 1.539 . S
C3477 C3473 1.408 . S
C3477 C3476 1.404 . S
C3477 H3489 0.930 . S
C3478 C3474 1.524 . S
C3478 H3490 0.956 . S
C3478 H3491 0.961 . S
C3478 H3492 0.961 . S
C3479 C3476 1.539 . S
C3479 H3493 0.958 . S
C3479 H3494 0.961 . S
C3479 H3495 0.960 . S
H3480 C3464 0.931 . S
H3481 C3469 0.929 . S
H3482 C3470 0.960 . S
H3483 C3470 0.962 . S
H3484 C3470 0.960 . S
H3485 C3471 0.961 . S
H3486 C3471 0.961 . S
H3487 C3471 0.961 . S
H3488 C3472 0.931 . S
H3489 C3477 0.930 . S
H3490 C3478 0.956 . S
H3491 C3478 0.961 . S
H3492 C3478 0.961 . S
H3493 C3479 0.958 . S
H3494 C3479 0.961 . S
H3495 C3479 0.960 . S
C3496 C3497 1.391 . S
C3496 C3498 1.394 . S
C3496 H3512 0.931 . S
C3497 C3496 1.391 . S
C3497 C3501 1.376 . S
C3498 C3496 1.394 . S
C3498 C3499 1.369 . S
C3498 C3502 1.531 . S
C3499 C3498 1.369 . S
C3499 C3500 1.410 . S
C3499 C3507 1.503 . S
C3500 C3499 1.410 . S
C3500 C3501 1.392 . S
C3500 C3503 1.511 . S
C3501 C3497 1.376 . S
C3501 C3500 1.392 . S
C3501 H3513 0.929 . S
C3502 C3498 1.531 . S
C3502 H3514 0.960 . S
C3502 H3515 0.962 . S
C3502 H3516 0.960 . S
C3503 C3500 1.511 . S
C3503 H3517 0.961 . S
C3503 H3518 0.961 . S
C3503 H3519 0.961 . S
C3504 C3505 1.370 . S
C3504 C3506 1.363 . S
C3504 H3520 0.931 . S
C3505 C3504 1.370 . S
C3505 C3509 1.408 . S
C3506 C3504 1.363 . S
C3506 C3507 1.370 . S
C3506 C3510 1.524 . S
C3507 C3499 1.503 . S
C3507 C3506 1.370 . S
C3507 C3508 1.403 . S
C3508 C3507 1.403 . S
C3508 C3509 1.404 . S
C3508 C3511 1.539 . S
C3509 C3505 1.408 . S
C3509 C3508 1.404 . S
C3509 H3521 0.930 . S
C3510 C3506 1.524 . S
C3510 H3522 0.956 . S
C3510 H3523 0.961 . S
C3510 H3524 0.961 . S
C3511 C3508 1.539 . S
C3511 H3525 0.958 . S
C3511 H3526 0.961 . S
C3511 H3527 0.960 . S
H3512 C3496 0.931 . S
H3513 C3501 0.929 . S
H3514 C3502 0.960 . S
H3515 C3502 0.962 . S
H3516 C3502 0.960 . S
H3517 C3503 0.961 . S
H3518 C3503 0.961 . S
H3519 C3503 0.961 . S
H3520 C3504 0.931 . S
H3521 C3509 0.930 . S
H3522 C3510 0.956 . S
H3523 C3510 0.961 . S
H3524 C3510 0.961 . S
H3525 C3511 0.958 . S
H3526 C3511 0.961 . S
H3527 C3511 0.960 . S
C3528 C3529 1.391 . S
C3528 C3530 1.394 . S
C3528 H3544 0.931 . S
C3529 C3528 1.391 . S
C3529 C3533 1.376 . S
C3530 C3528 1.394 . S
C3530 C3531 1.369 . S
C3530 C3534 1.531 . S
C3531 C3530 1.369 . S
C3531 C3532 1.410 . S
C3531 C3539 1.503 . S
C3532 C3531 1.410 . S
C3532 C3533 1.392 . S
C3532 C3535 1.511 . S
C3533 C3529 1.376 . S
C3533 C3532 1.392 . S
C3533 H3545 0.929 . S
C3534 C3530 1.531 . S
C3534 H3546 0.960 . S
C3534 H3547 0.962 . S
C3534 H3548 0.960 . S
C3535 C3532 1.511 . S
C3535 H3549 0.961 . S
C3535 H3550 0.961 . S
C3535 H3551 0.961 . S
C3536 C3537 1.370 . S
C3536 C3538 1.363 . S
C3536 H3552 0.931 . S
C3537 C3536 1.370 . S
C3537 C3541 1.408 . S
C3538 C3536 1.363 . S
C3538 C3539 1.370 . S
C3538 C3542 1.524 . S
C3539 C3531 1.503 . S
C3539 C3538 1.370 . S
C3539 C3540 1.403 . S
C3540 C3539 1.403 . S
C3540 C3541 1.404 . S
C3540 C3543 1.539 . S
C3541 C3537 1.408 . S
C3541 C3540 1.404 . S
C3541 H3553 0.930 . S
C3542 C3538 1.524 . S
C3542 H3554 0.956 . S
C3542 H3555 0.961 . S
C3542 H3556 0.961 . S
C3543 C3540 1.539 . S
C3543 H3557 0.958 . S
C3543 H3558 0.961 . S
C3543 H3559 0.960 . S
H3544 C3528 0.931 . S
H3545 C3533 0.929 . S
H3546 C3534 0.960 . S
H3547 C3534 0.962 . S
H3548 C3534 0.960 . S
H3549 C3535 0.961 . S
H3550 C3535 0.961 . S
H3551 C3535 0.961 . S
H3552 C3536 0.931 . S
H3553 C3541 0.930 . S
H3554 C3542 0.956 . S
H3555 C3542 0.961 . S
H3556 C3542 0.961 . S
H3557 C3543 0.958 . S
H3558 C3543 0.961 . S
H3559 C3543 0.960 . S
C3560 C3561 1.391 . S
C3560 C3562 1.394 . S
C3560 H3576 0.931 . S
C3561 C3560 1.391 . S
C3561 C3565 1.376 . S
C3562 C3560 1.394 . S
C3562 C3563 1.369 . S
C3562 C3566 1.531 . S
C3563 C3562 1.369 . S
C3563 C3564 1.410 . S
C3563 C3571 1.503 . S
C3564 C3563 1.410 . S
C3564 C3565 1.392 . S
C3564 C3567 1.511 . S
C3565 C3561 1.376 . S
C3565 C3564 1.392 . S
C3565 H3577 0.929 . S
C3566 C3562 1.531 . S
C3566 H3578 0.960 . S
C3566 H3579 0.962 . S
C3566 H3580 0.960 . S
C3567 C3564 1.511 . S
C3567 H3581 0.961 . S
C3567 H3582 0.961 . S
C3567 H3583 0.961 . S
C3568 C3569 1.370 . S
C3568 C3570 1.363 . S
C3568 H3584 0.931 . S
C3569 C3568 1.370 . S
C3569 C3573 1.408 . S
C3570 C3568 1.363 . S
C3570 C3571 1.370 . S
C3570 C3574 1.524 . S
C3571 C3563 1.503 . S
C3571 C3570 1.370 . S
C3571 C3572 1.403 . S
C3572 C3571 1.403 . S
C3572 C3573 1.404 . S
C3572 C3575 1.539 . S
C3573 C3569 1.408 . S
C3573 C3572 1.404 . S
C3573 H3585 0.930 . S
C3574 C3570 1.524 . S
C3574 H3586 0.956 . S
C3574 H3587 0.961 . S
C3574 H3588 0.961 . S
C3575 C3572 1.539 . S
C3575 H3589 0.958 . S
C3575 H3590 0.961 . S
C3575 H3591 0.960 . S
H3576 C3560 0.931 . S
H3577 C3565 0.929 . S
H3578 C3566 0.960 . S
H3579 C3566 0.962 . S
H3580 C3566 0.960 . S
H3581 C3567 0.961 . S
H3582 C3567 0.961 . S
H3583 C3567 0.961 . S
H3584 C3568 0.931 . S
H3585 C3573 0.930 . S
H3586 C3574 0.956 . S
H3587 C3574 0.961 . S
H3588 C3574 0.961 . S
H3589 C3575 0.958 . S
H3590 C3575 0.961 . S
H3591 C3575 0.960 . S
C3592 C3593 1.391 . S
C3592 C3594 1.394 . S
C3592 H3608 0.931 . S
C3593 C3592 1.391 . S
C3593 C3597 1.376 . S
C3594 C3592 1.394 . S
C3594 C3595 1.369 . S
C3594 C3598 1.531 . S
C3595 C3594 1.369 . S
C3595 C3596 1.410 . S
C3595 C3603 1.503 . S
C3596 C3595 1.410 . S
C3596 C3597 1.392 . S
C3596 C3599 1.511 . S
C3597 C3593 1.376 . S
C3597 C3596 1.392 . S
C3597 H3609 0.929 . S
C3598 C3594 1.531 . S
C3598 H3610 0.960 . S
C3598 H3611 0.962 . S
C3598 H3612 0.960 . S
C3599 C3596 1.511 . S
C3599 H3613 0.961 . S
C3599 H3614 0.961 . S
C3599 H3615 0.961 . S
C3600 C3601 1.370 . S
C3600 C3602 1.363 . S
C3600 H3616 0.931 . S
C3601 C3600 1.370 . S
C3601 C3605 1.408 . S
C3602 C3600 1.363 . S
C3602 C3603 1.370 . S
C3602 C3606 1.524 . S
C3603 C3595 1.503 . S
C3603 C3602 1.370 . S
C3603 C3604 1.403 . S
C3604 C3603 1.403 . S
C3604 C3605 1.404 . S
C3604 C3607 1.539 . S
C3605 C3601 1.408 . S
C3605 C3604 1.404 . S
C3605 H3617 0.930 . S
C3606 C3602 1.524 . S
C3606 H3618 0.956 . S
C3606 H3619 0.961 . S
C3606 H3620 0.961 . S
C3607 C3604 1.539 . S
C3607 H3621 0.958 . S
C3607 H3622 0.961 . S
C3607 H3623 0.960 . S
H3608 C3592 0.931 . S
H3609 C3597 0.929 . S
H3610 C3598 0.960 . S
H3611 C3598 0.962 . S
H3612 C3598 0.960 . S
H3613 C3599 0.961 . S
H3614 C3599 0.961 . S
H3615 C3599 0.961 . S
H3616 C3600 0.931 . S
H3617 C3605 0.930 . S
H3618 C3606 0.956 . S
H3619 C3606 0.961 . S
H3620 C3606 0.961 . S
H3621 C3607 0.958 . S
H3622 C3607 0.961 . S
H3623 C3607 0.960 . S
C3624 C3625 1.391 . S
C3624 C3626 1.394 . S
C3624 H3640 0.931 . S
C3625 C3624 1.391 . S
C3625 C3629 1.376 . S
C3626 C3624 1.394 . S
C3626 C3627 1.369 . S
C3626 C3630 1.531 . S
C3627 C3626 1.369 . S
C3627 C3628 1.410 . S
C3627 C3635 1.503 . S
C3628 C3627 1.410 . S
C3628 C3629 1.392 . S
C3628 C3631 1.511 . S
C3629 C3625 1.376 . S
C3629 C3628 1.392 . S
C3629 H3641 0.929 . S
C3630 C3626 1.531 . S
C3630 H3642 0.960 . S
C3630 H3643 0.962 . S
C3630 H3644 0.960 . S
C3631 C3628 1.511 . S
C3631 H3645 0.961 . S
C3631 H3646 0.961 . S
C3631 H3647 0.961 . S
C3632 C3633 1.370 . S
C3632 C3634 1.363 . S
C3632 H3648 0.931 . S
C3633 C3632 1.370 . S
C3633 C3637 1.408 . S
C3634 C3632 1.363 . S
C3634 C3635 1.370 . S
C3634 C3638 1.524 . S
C3635 C3627 1.503 . S
C3635 C3634 1.370 . S
C3635 C3636 1.403 . S
C3636 C3635 1.403 . S
C3636 C3637 1.404 . S
C3636 C3639 1.539 . S
C3637 C3633 1.408 . S
C3637 C3636 1.404 . S
C3637 H3649 0.930 . S
C3638 C3634 1.524 . S
C3638 H3650 0.956 . S
C3638 H3651 0.961 . S
C3638 H3652 0.961 . S
C3639 C3636 1.539 . S
C3639 H3653 0.958 . S
C3639 H3654 0.961 . S
C3639 H3655 0.960 . S
H3640 C3624 0.931 . S
H3641 C3629 0.929 . S
H3642 C3630 0.960 . S
H3643 C3630 0.962 . S
H3644 C3630 0.960 . S
H3645 C3631 0.961 . S
H3646 C3631 0.961 . S
H3647 C3631 0.961 . S
H3648 C3632 0.931 . S
H3649 C3637 0.930 . S
H3650 C3638 0.956 . S
H3651 C3638 0.961 . S
H3652 C3638 0.961 . S
H3653 C3639 0.958 . S
H3654 C3639 0.961 . S
H3655 C3639 0.960 . S
C3656 C3657 1.391 . S
C3656 C3658 1.394 . S
C3656 H3672 0.931 . S
C3657 C3656 1.391 . S
C3657 C3661 1.376 . S
C3658 C3656 1.394 . S
C3658 C3659 1.369 . S
C3658 C3662 1.531 . S
C3659 C3658 1.369 . S
C3659 C3660 1.410 . S
C3659 C3667 1.503 . S
C3660 C3659 1.410 . S
C3660 C3661 1.392 . S
C3660 C3663 1.511 . S
C3661 C3657 1.376 . S
C3661 C3660 1.392 . S
C3661 H3673 0.929 . S
C3662 C3658 1.531 . S
C3662 H3674 0.960 . S
C3662 H3675 0.962 . S
C3662 H3676 0.960 . S
C3663 C3660 1.511 . S
C3663 H3677 0.961 . S
C3663 H3678 0.961 . S
C3663 H3679 0.961 . S
C3664 C3665 1.370 . S
C3664 C3666 1.363 . S
C3664 H3680 0.931 . S
C3665 C3664 1.370 . S
C3665 C3669 1.408 . S
C3666 C3664 1.363 . S
C3666 C3667 1.370 . S
C3666 C3670 1.524 . S
C3667 C3659 1.503 . S
C3667 C3666 1.370 . S
C3667 C3668 1.403 . S
C3668 C3667 1.403 . S
C3668 C3669 1.404 . S
C3668 C3671 1.539 . S
C3669 C3665 1.408 . S
C3669 C3668 1.404 . S
C3669 H3681 0.930 . S
C3670 C3666 1.524 . S
C3670 H3682 0.956 . S
C3670 H3683 0.961 . S
C3670 H3684 0.961 . S
C3671 C3668 1.539 . S
C3671 H3685 0.958 . S
C3671 H3686 0.961 . S
C3671 H3687 0.960 . S
H3672 C3656 0.931 . S
H3673 C3661 0.929 . S
H3674 C3662 0.960 . S
H3675 C3662 0.962 . S
H3676 C3662 0.960 . S
H3677 C3663 0.961 . S
H3678 C3663 0.961 . S
H3679 C3663 0.961 . S
H3680 C3664 0.931 . S
H3681 C3669 0.930 . S
H3682 C3670 0.956 . S
H3683 C3670 0.961 . S
H3684 C3670 0.961 . S
H3685 C3671 0.958 . S
H3686 C3671 0.961 . S
H3687 C3671 0.960 . S
C3688 C3689 1.391 . S
C3688 C3690 1.394 . S
C3688 H3704 0.931 . S
C3689 C3688 1.391 . S
C3689 C3693 1.376 . S
C3690 C3688 1.394 . S
C3690 C3691 1.369 . S
C3690 C3694 1.531 . S
C3691 C3690 1.369 . S
C3691 C3692 1.410 . S
C3691 C3699 1.503 . S
C3692 C3691 1.410 . S
C3692 C3693 1.392 . S
C3692 C3695 1.511 . S
C3693 C3689 1.376 . S
C3693 C3692 1.392 . S
C3693 H3705 0.929 . S
C3694 C3690 1.531 . S
C3694 H3706 0.960 . S
C3694 H3707 0.962 . S
C3694 H3708 0.960 . S
C3695 C3692 1.511 . S
C3695 H3709 0.961 . S
C3695 H3710 0.961 . S
C3695 H3711 0.961 . S
C3696 C3697 1.370 . S
C3696 C3698 1.363 . S
C3696 H3712 0.931 . S
C3697 C3696 1.370 . S
C3697 C3701 1.408 . S
C3698 C3696 1.363 . S
C3698 C3699 1.370 . S
C3698 C3702 1.524 . S
C3699 C3691 1.503 . S
C3699 C3698 1.370 . S
C3699 C3700 1.403 . S
C3700 C3699 1.403 . S
C3700 C3701 1.404 . S
C3700 C3703 1.539 . S
C3701 C3697 1.408 . S
C3701 C3700 1.404 . S
C3701 H3713 0.930 . S
C3702 C3698 1.524 . S
C3702 H3714 0.956 . S
C3702 H3715 0.961 . S
C3702 H3716 0.961 . S
C3703 C3700 1.539 . S
C3703 H3717 0.958 . S
C3703 H3718 0.961 . S
C3703 H3719 0.960 . S
H3704 C3688 0.931 . S
H3705 C3693 0.929 . S
H3706 C3694 0.960 . S
H3707 C3694 0.962 . S
H3708 C3694 0.960 . S
H3709 C3695 0.961 . S
H3710 C3695 0.961 . S
H3711 C3695 0.961 . S
H3712 C3696 0.931 . S
H3713 C3701 0.930 . S
H3714 C3702 0.956 . S
H3715 C3702 0.961 . S
H3716 C3702 0.961 . S
H3717 C3703 0.958 . S
H3718 C3703 0.961 . S
H3719 C3703 0.960 . S
C3720 C3721 1.391 . S
C3720 C3722 1.394 . S
C3720 H3736 0.931 . S
C3721 C3720 1.391 . S
C3721 C3725 1.376 . S
C3722 C3720 1.394 . S
C3722 C3723 1.369 . S
C3722 C3726 1.531 . S
C3723 C3722 1.369 . S
C3723 C3724 1.410 . S
C3723 C3731 1.503 . S
C3724 C3723 1.410 . S
C3724 C3725 1.392 . S
C3724 C3727 1.511 . S
C3725 C3721 1.376 . S
C3725 C3724 1.392 . S
C3725 H3737 0.929 . S
C3726 C3722 1.531 . S
C3726 H3738 0.960 . S
C3726 H3739 0.962 . S
C3726 H3740 0.960 . S
C3727 C3724 1.511 . S
C3727 H3741 0.961 . S
C3727 H3742 0.961 . S
C3727 H3743 0.961 . S
C3728 C3729 1.370 . S
C3728 C3730 1.363 . S
C3728 H3744 0.931 . S
C3729 C3728 1.370 . S
C3729 C3733 1.408 . S
C3730 C3728 1.363 . S
C3730 C3731 1.370 . S
C3730 C3734 1.524 . S
C3731 C3723 1.503 . S
C3731 C3730 1.370 . S
C3731 C3732 1.403 . S
C3732 C3731 1.403 . S
C3732 C3733 1.404 . S
C3732 C3735 1.539 . S
C3733 C3729 1.408 . S
C3733 C3732 1.404 . S
C3733 H3745 0.930 . S
C3734 C3730 1.524 . S
C3734 H3746 0.956 . S
C3734 H3747 0.961 . S
C3734 H3748 0.961 . S
C3735 C3732 1.539 . S
C3735 H3749 0.958 . S
C3735 H3750 0.961 . S
C3735 H3751 0.960 . S
H3736 C3720 0.931 . S
H3737 C3725 0.929 . S
H3738 C3726 0.960 . S
H3739 C3726 0.962 . S
H3740 C3726 0.960 . S
H3741 C3727 0.961 . S
H3742 C3727 0.961 . S
H3743 C3727 0.961 . S
H3744 C3728 0.931 . S
H3745 C3733 0.930 . S
H3746 C3734 0.956 . S
H3747 C3734 0.961 . S
H3748 C3734 0.961 . S
H3749 C3735 0.958 . S
H3750 C3735 0.961 . S
H3751 C3735 0.960 . S
C3752 C3753 1.391 . S
C3752 C3754 1.394 . S
C3752 H3768 0.931 . S
C3753 C3752 1.391 . S
C3753 C3757 1.376 . S
C3754 C3752 1.394 . S
C3754 C3755 1.369 . S
C3754 C3758 1.531 . S
C3755 C3754 1.369 . S
C3755 C3756 1.410 . S
C3755 C3763 1.503 . S
C3756 C3755 1.410 . S
C3756 C3757 1.392 . S
C3756 C3759 1.511 . S
C3757 C3753 1.376 . S
C3757 C3756 1.392 . S
C3757 H3769 0.929 . S
C3758 C3754 1.531 . S
C3758 H3770 0.960 . S
C3758 H3771 0.962 . S
C3758 H3772 0.960 . S
C3759 C3756 1.511 . S
C3759 H3773 0.961 . S
C3759 H3774 0.961 . S
C3759 H3775 0.961 . S
C3760 C3761 1.370 . S
C3760 C3762 1.363 . S
C3760 H3776 0.931 . S
C3761 C3760 1.370 . S
C3761 C3765 1.408 . S
C3762 C3760 1.363 . S
C3762 C3763 1.370 . S
C3762 C3766 1.524 . S
C3763 C3755 1.503 . S
C3763 C3762 1.370 . S
C3763 C3764 1.403 . S
C3764 C3763 1.403 . S
C3764 C3765 1.404 . S
C3764 C3767 1.539 . S
C3765 C3761 1.408 . S
C3765 C3764 1.404 . S
C3765 H3777 0.930 . S
C3766 C3762 1.524 . S
C3766 H3778 0.956 . S
C3766 H3779 0.961 . S
C3766 H3780 0.961 . S
C3767 C3764 1.539 . S
C3767 H3781 0.958 . S
C3767 H3782 0.961 . S
C3767 H3783 0.960 . S
H3768 C3752 0.931 . S
H3769 C3757 0.929 . S
H3770 C3758 0.960 . S
H3771 C3758 0.962 . S
H3772 C3758 0.960 . S
H3773 C3759 0.961 . S
H3774 C3759 0.961 . S
H3775 C3759 0.961 . S
H3776 C3760 0.931 . S
H3777 C3765 0.930 . S
H3778 C3766 0.956 . S
H3779 C3766 0.961 . S
H3780 C3766 0.961 . S
H3781 C3767 0.958 . S
H3782 C3767 0.961 . S
H3783 C3767 0.960 . S
C3784 C3785 1.391 . S
C3784 C3786 1.394 . S
C3784 H3800 0.931 . S
C3785 C3784 1.391 . S
C3785 C3789 1.376 . S
C3786 C3784 1.394 . S
C3786 C3787 1.369 . S
C3786 C3790 1.531 . S
C3787 C3786 1.369 . S
C3787 C3788 1.410 . S
C3787 C3795 1.503 . S
C3788 C3787 1.410 . S
C3788 C3789 1.392 . S
C3788 C3791 1.511 . S
C3789 C3785 1.376 . S
C3789 C3788 1.392 . S
C3789 H3801 0.929 . S
C3790 C3786 1.531 . S
C3790 H3802 0.960 . S
C3790 H3803 0.962 . S
C3790 H3804 0.960 . S
C3791 C3788 1.511 . S
C3791 H3805 0.961 . S
C3791 H3806 0.961 . S
C3791 H3807 0.961 . S
C3792 C3793 1.370 . S
C3792 C3794 1.363 . S
C3792 H3808 0.931 . S
C3793 C3792 1.370 . S
C3793 C3797 1.408 . S
C3794 C3792 1.363 . S
C3794 C3795 1.370 . S
C3794 C3798 1.524 . S
C3795 C3787 1.503 . S
C3795 C3794 1.370 . S
C3795 C3796 1.403 . S
C3796 C3795 1.403 . S
C3796 C3797 1.404 . S
C3796 C3799 1.539 . S
C3797 C3793 1.408 . S
C3797 C3796 1.404 . S
C3797 H3809 0.930 . S
C3798 C3794 1.524 . S
C3798 H3810 0.956 . S
C3798 H3811 0.961 . S
C3798 H3812 0.961 . S
C3799 C3796 1.539 . S
C3799 H3813 0.958 . S
C3799 H3814 0.961 . S
C3799 H3815 0.960 . S
H3800 C3784 0.931 . S
H3801 C3789 0.929 . S
H3802 C3790 0.960 . S
H3803 C3790 0.962 . S
H3804 C3790 0.960 . S
H3805 C3791 0.961 . S
H3806 C3791 0.961 . S
H3807 C3791 0.961 . S
H3808 C3792 0.931 . S
H3809 C3797 0.930 . S
H3810 C3798 0.956 . S
H3811 C3798 0.961 . S
H3812 C3798 0.961 . S
H3813 C3799 0.958 . S
H3814 C3799 0.961 . S
H3815 C3799 0.960 . S
C3816 C3817 1.391 . S
C3816 C3818 1.394 . S
C3816 H3832 0.931 . S
C3817 C3816 1.391 . S
C3817 C3821 1.376 . S
C3818 C3816 1.394 . S
C3818 C3819 1.369 . S
C3818 C3822 1.531 . S
C3819 C3818 1.369 . S
C3819 C3820 1.410 . S
C3819 C3827 1.503 . S
C3820 C3819 1.410 . S
C3820 C3821 1.392 . S
C3820 C3823 1.511 . S
C3821 C3817 1.376 . S
C3821 C3820 1.392 . S
C3821 H3833 0.929 . S
C3822 C3818 1.531 . S
C3822 H3834 0.960 . S
C3822 H3835 0.962 . S
C3822 H3836 0.960 . S
C3823 C3820 1.511 . S
C3823 H3837 0.961 . S
C3823 H3838 0.961 . S
C3823 H3839 0.961 . S
C3824 C3825 1.370 . S
C3824 C3826 1.363 . S
C3824 H3840 0.931 . S
C3825 C3824 1.370 . S
C3825 C3829 1.408 . S
C3826 C3824 1.363 . S
C3826 C3827 1.370 . S
C3826 C3830 1.524 . S
C3827 C3819 1.503 . S
C3827 C3826 1.370 . S
C3827 C3828 1.403 . S
C3828 C3827 1.403 . S
C3828 C3829 1.404 . S
C3828 C3831 1.539 . S
C3829 C3825 1.408 . S
C3829 C3828 1.404 . S
C3829 H3841 0.930 . S
C3830 C3826 1.524 . S
C3830 H3842 0.956 . S
C3830 H3843 0.961 . S
C3830 H3844 0.961 . S
C3831 C3828 1.539 . S
C3831 H3845 0.958 . S
C3831 H3846 0.961 . S
C3831 H3847 0.960 . S
H3832 C3816 0.931 . S
H3833 C3821 0.929 . S
H3834 C3822 0.960 . S
H3835 C3822 0.962 . S
H3836 C3822 0.960 . S
H3837 C3823 0.961 . S
H3838 C3823 0.961 . S
H3839 C3823 0.961 . S
H3840 C3824 0.931 . S
H3841 C3829 0.930 . S
H3842 C3830 0.956 . S
H3843 C3830 0.961 . S
H3844 C3830 0.961 . S
H3845 C3831 0.958 . S
H3846 C3831 0.961 . S
H3847 C3831 0.960 . S
C3848 C3849 1.391 . S
C3848 C3850 1.394 . S
C3848 H3864 0.931 . S
C3849 C3848 1.391 . S
C3849 C3853 1.376 . S
C3850 C3848 1.394 . S
C3850 C3851 1.369 . S
C3850 C3854 1.531 . S
C3851 C3850 1.369 . S
C3851 C3852 1.410 . S
C3851 C3859 1.503 . S
C3852 C3851 1.410 . S
C3852 C3853 1.392 . S
C3852 C3855 1.511 . S
C3853 C3849 1.376 . S
C3853 C3852 1.392 . S
C3853 H3865 0.929 . S
C3854 C3850 1.531 . S
C3854 H3866 0.960 . S
C3854 H3867 0.962 . S
C3854 H3868 0.960 . S
C3855 C3852 1.511 . S
C3855 H3869 0.961 . S
C3855 H3870 0.961 . S
C3855 H3871 0.961 . S
C3856 C3857 1.370 . S
C3856 C3858 1.363 . S
C3856 H3872 0.931 . S
C3857 C3856 1.370 . S
C3857 C3861 1.408 . S
C3858 C3856 1.363 . S
C3858 C3859 1.370 . S
C3858 C3862 1.524 . S
C3859 C3851 1.503 . S
C3859 C3858 1.370 . S
C3859 C3860 1.403 . S
C3860 C3859 1.403 . S
C3860 C3861 1.404 . S
C3860 C3863 1.539 . S
C3861 C3857 1.408 . S
C3861 C3860 1.404 . S
C3861 H3873 0.930 . S
C3862 C3858 1.524 . S
C3862 H3874 0.956 . S
C3862 H3875 0.961 . S
C3862 H3876 0.961 . S
C3863 C3860 1.539 . S
C3863 H3877 0.958 . S
C3863 H3878 0.961 . S
C3863 H3879 0.960 . S
H3864 C3848 0.931 . S
H3865 C3853 0.929 . S
H3866 C3854 0.960 . S
H3867 C3854 0.962 . S
H3868 C3854 0.960 . S
H3869 C3855 0.961 . S
H3870 C3855 0.961 . S
H3871 C3855 0.961 . S
H3872 C3856 0.931 . S
H3873 C3861 0.930 . S
H3874 C3862 0.956 . S
H3875 C3862 0.961 . S
H3876 C3862 0.961 . S
H3877 C3863 0.958 . S
H3878 C3863 0.961 . S
H3879 C3863 0.960 . S
C3880 C3881 1.391 . S
C3880 C3882 1.394 . S
C3880 H3896 0.931 . S
C3881 C3880 1.391 . S
C3881 C3885 1.376 . S
C3882 C3880 1.394 . S
C3882 C3883 1.369 . S
C3882 C3886 1.531 . S
C3883 C3882 1.369 . S
C3883 C3884 1.410 . S
C3883 C3891 1.503 . S
C3884 C3883 1.410 . S
C3884 C3885 1.392 . S
C3884 C3887 1.511 . S
C3885 C3881 1.376 . S
C3885 C3884 1.392 . S
C3885 H3897 0.929 . S
C3886 C3882 1.531 . S
C3886 H3898 0.960 . S
C3886 H3899 0.962 . S
C3886 H3900 0.960 . S
C3887 C3884 1.511 . S
C3887 H3901 0.961 . S
C3887 H3902 0.961 . S
C3887 H3903 0.961 . S
C3888 C3889 1.370 . S
C3888 C3890 1.363 . S
C3888 H3904 0.931 . S
C3889 C3888 1.370 . S
C3889 C3893 1.408 . S
C3890 C3888 1.363 . S
C3890 C3891 1.370 . S
C3890 C3894 1.524 . S
C3891 C3883 1.503 . S
C3891 C3890 1.370 . S
C3891 C3892 1.403 . S
C3892 C3891 1.403 . S
C3892 C3893 1.404 . S
C3892 C3895 1.539 . S
C3893 C3889 1.408 . S
C3893 C3892 1.404 . S
C3893 H3905 0.930 . S
C3894 C3890 1.524 . S
C3894 H3906 0.956 . S
C3894 H3907 0.961 . S
C3894 H3908 0.961 . S
C3895 C3892 1.539 . S
C3895 H3909 0.958 . S
C3895 H3910 0.961 . S
C3895 H3911 0.960 . S
H3896 C3880 0.931 . S
H3897 C3885 0.929 . S
H3898 C3886 0.960 . S
H3899 C3886 0.962 . S
H3900 C3886 0.960 . S
H3901 C3887 0.961 . S
H3902 C3887 0.961 . S
H3903 C3887 0.961 . S
H3904 C3888 0.931 . S
H3905 C3893 0.930 . S
H3906 C3894 0.956 . S
H3907 C3894 0.961 . S
H3908 C3894 0.961 . S
H3909 C3895 0.958 . S
H3910 C3895 0.961 . S
H3911 C3895 0.960 . S
C3912 C3913 1.391 . S
C3912 C3914 1.394 . S
C3912 H3928 0.931 . S
C3913 C3912 1.391 . S
C3913 C3917 1.376 . S
C3914 C3912 1.394 . S
C3914 C3915 1.369 . S
C3914 C3918 1.531 . S
C3915 C3914 1.369 . S
C3915 C3916 1.410 . S
C3915 C3923 1.503 . S
C3916 C3915 1.410 . S
C3916 C3917 1.392 . S
C3916 C3919 1.511 . S
C3917 C3913 1.376 . S
C3917 C3916 1.392 . S
C3917 H3929 0.929 . S
C3918 C3914 1.531 . S
C3918 H3930 0.960 . S
C3918 H3931 0.962 . S
C3918 H3932 0.960 . S
C3919 C3916 1.511 . S
C3919 H3933 0.961 . S
C3919 H3934 0.961 . S
C3919 H3935 0.961 . S
C3920 C3921 1.370 . S
C3920 C3922 1.363 . S
C3920 H3936 0.931 . S
C3921 C3920 1.370 . S
C3921 C3925 1.408 . S
C3922 C3920 1.363 . S
C3922 C3923 1.370 . S
C3922 C3926 1.524 . S
C3923 C3915 1.503 . S
C3923 C3922 1.370 . S
C3923 C3924 1.403 . S
C3924 C3923 1.403 . S
C3924 C3925 1.404 . S
C3924 C3927 1.539 . S
C3925 C3921 1.408 . S
C3925 C3924 1.404 . S
C3925 H3937 0.930 . S
C3926 C3922 1.524 . S
C3926 H3938 0.956 . S
C3926 H3939 0.961 . S
C3926 H3940 0.961 . S
C3927 C3924 1.539 . S
C3927 H3941 0.958 . S
C3927 H3942 0.961 . S
C3927 H3943 0.960 . S
H3928 C3912 0.931 . S
H3929 C3917 0.929 . S
H3930 C3918 0.960 . S
H3931 C3918 0.962 . S
H3932 C3918 0.960 . S
H3933 C3919 0.961 . S
H3934 C3919 0.961 . S
H3935 C3919 0.961 . S
H3936 C3920 0.931 . S
H3937 C3925 0.930 . S
H3938 C3926 0.956 . S
H3939 C3926 0.961 . S
H3940 C3926 0.961 . S
H3941 C3927 0.958 . S
H3942 C3927 0.961 . S
H3943 C3927 0.960 . S
C3944 C3945 1.391 . S
C3944 C3946 1.394 . S
C3944 H3960 0.931 . S
C3945 C3944 1.391 . S
C3945 C3949 1.376 . S
C3946 C3944 1.394 . S
C3946 C3947 1.369 . S
C3946 C3950 1.531 . S
C3947 C3946 1.369 . S
C3947 C3948 1.410 . S
C3947 C3955 1.503 . S
C3948 C3947 1.410 . S
C3948 C3949 1.392 . S
C3948 C3951 1.511 . S
C3949 C3945 1.376 . S
C3949 C3948 1.392 . S
C3949 H3961 0.929 . S
C3950 C3946 1.531 . S
C3950 H3962 0.960 . S
C3950 H3963 0.962 . S
C3950 H3964 0.960 . S
C3951 C3948 1.511 . S
C3951 H3965 0.961 . S
C3951 H3966 0.961 . S
C3951 H3967 0.961 . S
C3952 C3953 1.370 . S
C3952 C3954 1.363 . S
C3952 H3968 0.931 . S
C3953 C3952 1.370 . S
C3953 C3957 1.408 . S
C3954 C3952 1.363 . S
C3954 C3955 1.370 . S
C3954 C3958 1.524 . S
C3955 C3947 1.503 . S
C3955 C3954 1.370 . S
C3955 C3956 1.403 . S
C3956 C3955 1.403 . S
C3956 C3957 1.404 . S
C3956 C3959 1.539 . S
C3957 C3953 1.408 . S
C3957 C3956 1.404 . S
C3957 H3969 0.930 . S
C3958 C3954 1.524 . S
C3958 H3970 0.956 . S
C3958 H3971 0.961 . S
C3958 H3972 0.961 . S
C3959 C3956 1.539 . S
C3959 H3973 0.958 . S
C3959 H3974 0.961 . S
C3959 H3975 0.960 . S
H3960 C3944 0.931 . S
H3961 C3949 0.929 . S
H3962 C3950 0.960 . S
H3963 C3950 0.962 . S
H3964 C3950 0.960 . S
H3965 C3951 0.961 . S
H3966 C3951 0.961 . S
H3967 C3951 0.961 . S
H3968 C3952 0.931 . S
H3969 C3957 0.930 . S
H3970 C3958 0.956 . S
H3971 C3958 0.961 . S
H3972 C3958 0.961 . S
H3973 C3959 0.958 . S
H3974 C3959 0.961 . S
H3975 C3959 0.960 . S
C3976 C3977 1.391 . S
C3976 C3978 1.394 . S
C3976 H3992 0.931 . S
C3977 C3976 1.391 . S
C3977 C3981 1.376 . S
C3978 C3976 1.394 . S
C3978 C3979 1.369 . S
C3978 C3982 1.531 . S
C3979 C3978 1.369 . S
C3979 C3980 1.410 . S
C3979 C3987 1.503 . S
C3980 C3979 1.410 . S
C3980 C3981 1.392 . S
C3980 C3983 1.511 . S
C3981 C3977 1.376 . S
C3981 C3980 1.392 . S
C3981 H3993 0.929 . S
C3982 C3978 1.531 . S
C3982 H3994 0.960 . S
C3982 H3995 0.962 . S
C3982 H3996 0.960 . S
C3983 C3980 1.511 . S
C3983 H3997 0.961 . S
C3983 H3998 0.961 . S
C3983 H3999 0.961 . S
C3984 C3985 1.370 . S
C3984 C3986 1.363 . S
C3984 H4000 0.931 . S
C3985 C3984 1.370 . S
C3985 C3989 1.408 . S
C3986 C3984 1.363 . S
C3986 C3987 1.370 . S
C3986 C3990 1.524 . S
C3987 C3979 1.503 . S
C3987 C3986 1.370 . S
C3987 C3988 1.403 . S
C3988 C3987 1.403 . S
C3988 C3989 1.404 . S
C3988 C3991 1.539 . S
C3989 C3985 1.408 . S
C3989 C3988 1.404 . S
C3989 H4001 0.930 . S
C3990 C3986 1.524 . S
C3990 H4002 0.956 . S
C3990 H4003 0.961 . S
C3990 H4004 0.961 . S
C3991 C3988 1.539 . S
C3991 H4005 0.958 . S
C3991 H4006 0.961 . S
C3991 H4007 0.960 . S
H3992 C3976 0.931 . S
H3993 C3981 0.929 . S
H3994 C3982 0.960 . S
H3995 C3982 0.962 . S
H3996 C3982 0.960 . S
H3997 C3983 0.961 . S
H3998 C3983 0.961 . S
H3999 C3983 0.961 . S
H4000 C3984 0.931 . S
H4001 C3989 0.930 . S
H4002 C3990 0.956 . S
H4003 C3990 0.961 . S
H4004 C3990 0.961 . S
H4005 C3991 0.958 . S
H4006 C3991 0.961 . S
H4007 C3991 0.960 . S
C4008 C4009 1.391 . S
C4008 C4010 1.394 . S
C4008 H4024 0.931 . S
C4009 C4008 1.391 . S
C4009 C4013 1.376 . S
C4010 C4008 1.394 . S
C4010 C4011 1.369 . S
C4010 C4014 1.531 . S
C4011 C4010 1.369 . S
C4011 C4012 1.410 . S
C4011 C4019 1.503 . S
C4012 C4011 1.410 . S
C4012 C4013 1.392 . S
C4012 C4015 1.511 . S
C4013 C4009 1.376 . S
C4013 C4012 1.392 . S
C4013 H4025 0.929 . S
C4014 C4010 1.531 . S
C4014 H4026 0.960 . S
C4014 H4027 0.962 . S
C4014 H4028 0.960 . S
C4015 C4012 1.511 . S
C4015 H4029 0.961 . S
C4015 H4030 0.961 . S
C4015 H4031 0.961 . S
C4016 C4017 1.370 . S
C4016 C4018 1.363 . S
C4016 H4032 0.931 . S
C4017 C4016 1.370 . S
C4017 C4021 1.408 . S
C4018 C4016 1.363 . S
C4018 C4019 1.370 . S
C4018 C4022 1.524 . S
C4019 C4011 1.503 . S
C4019 C4018 1.370 . S
C4019 C4020 1.403 . S
C4020 C4019 1.403 . S
C4020 C4021 1.404 . S
C4020 C4023 1.539 . S
C4021 C4017 1.408 . S
C4021 C4020 1.404 . S
C4021 H4033 0.930 . S
C4022 C4018 1.524 . S
C4022 H4034 0.956 . S
C4022 H4035 0.961 . S
C4022 H4036 0.961 . S
C4023 C4020 1.539 . S
C4023 H4037 0.958 . S
C4023 H4038 0.961 . S
C4023 H4039 0.960 . S
H4024 C4008 0.931 . S
H4025 C4013 0.929 . S
H4026 C4014 0.960 . S
H4027 C4014 0.962 . S
H4028 C4014 0.960 . S
H4029 C4015 0.961 . S
H4030 C4015 0.961 . S
H4031 C4015 0.961 . S
H4032 C4016 0.931 . S
H4033 C4021 0.930 . S
H4034 C4022 0.956 . S
H4035 C4022 0.961 . S
H4036 C4022 0.961 . S
H4037 C4023 0.958 . S
H4038 C4023 0.961 . S
H4039 C4023 0.960 . S
C977 N428 1.828 . S
C969 C8 1.875 . S
C1009 C455 1.022 . S
C1001 C17 1.056 . S
C1033 C35 1.871 . S
C1041 C469 1.870 . S
C1073 N487 1.450 . S
C1065 C43 1.356 . S
C1097 C56 1.128 . S
C1105 C492 1.209 . S
C1129 C73 1.762 . S
C1137 C432 1.758 1_556 S
C1161 C87 1.448 . S
C1169 N451 1.422 . S
C1201 N464 1.706 . S
C1193 C100 1.764 . S
C1233 N510 1.682 . S
C1225 C9 1.670 . S
C1257 C22 1.417 . S
C1265 N533 1.364 . S
C1289 C34 1.848 . S
C1297 N556 1.811 . S
C1329 N589 1.536 . S
C1321 C47 1.552 . S
C1353 C61 1.376 . S
C1361 C616 1.371 . S
C1393 C639 1.584 . S
C1385 C69 1.535 . S
C1417 C82 1.170 . S
C1425 C662 1.254 . S
C1457 C676 1.879 . S
C1449 C99 1.885 . S
C1481 C4 1.771 . S
C1489 C593 1.835 . S
C1513 C60 1.489 . S
C1521 N635 1.471 1_565 S
C1553 N658 1.684 . S
C1545 C74 1.724 . S
C1577 C86 1.405 . S
C1585 N671 1.329 . S
C1617 N612 1.758 . S
C1609 C95 1.771 . S
C1649 C538 1.456 1_565 S
C1641 C30 1.404 . S
C1673 C48 1.202 . S
C1681 C561 1.222 . S
C1713 C515 1.457 . S
C1705 C21 1.452 . S
C1745 C708 1.836 . S
C1737 C112 1.844 . S
C1769 C121 1.088 . S
C1777 C722 1.153 . S
C1801 C139 1.705 . S
C1809 N750 1.654 . S
C1841 N763 1.477 . S
C1833 C147 1.421 . S
C1865 C160 1.166 . S
C1873 C768 1.182 . S
C1897 C177 1.702 . S
C1905 N704 1.679 . S
C1929 C191 1.495 . S
C1937 N717 1.515 . S
C1961 C204 1.785 . S
C1969 C754 1.780 . S
C2001 N602 1.834 . S
C1993 C113 1.816 . S
C2025 C126 1.474 . S
C2033 N786 1.438 . S
C2065 N648 1.655 . S
C2057 C138 1.694 . S
C2089 C151 1.524 . S
C2097 C823 1.485 . S
C2121 C165 1.245 . S
C2129 C524 1.259 . S
C2161 C837 1.692 . S
C2153 C173 1.657 . S
C2185 C186 1.284 . S
C2193 C570 1.305 . S
C2225 N855 1.799 . S
C2217 C203 1.816 . S
C2249 C108 1.652 . S
C2257 N819 1.714 . S
C2289 N832 1.388 . S
C2281 C164 1.421 . S
C2313 C178 1.830 . S
C2321 N566 1.796 . S
C2353 C860 1.405 . S
C2345 C190 1.402 . S
C2377 C199 1.697 . S
C2385 N520 1.689 . S
C2409 C134 1.284 . S
C2417 C791 1.338 . S
C2441 C152 1.256 . S
C2449 C653 1.277 . S
C2473 C125 1.546 . S
C2481 C607 1.533 . S
C2505 C216 1.923 . S
C2513 C745 1.931 . S
C2545 C777 1.093 . S
C2537 C225 1.016 . S
C2569 C243 1.887 . S
C2577 N694 1.871 . S
C2601 C251 1.352 . S
C2609 N727 1.373 . S
C2633 C264 1.198 . S
C2641 C731 1.195 . S
C2665 C281 1.554 . S
C2673 N740 1.530 . S
C2705 N773 1.396 . S
C2697 C295 1.412 . S
C2729 C308 1.787 . S
C2737 C699 1.794 . S
C2769 N888 1.779 . S
C2761 C217 1.834 . S
C2793 C230 1.395 . S
C2801 N625 1.347 . S
C2833 N911 1.724 . S
C2825 C242 1.763 . S
C2857 C255 1.541 . S
C2865 N681 1.544 . S
C2889 C269 1.348 . S
C2897 C929 1.359 . S
C2921 C277 1.538 . S
C2929 C547 1.568 . S
C2961 N947 1.270 . S
C2953 C290 1.261 . S
C2985 C307 1.908 . S
C2993 C584 1.888 . S
C3025 C685 1.844 . S
C3017 C212 1.722 . S
C3057 N543 1.452 . S
C3049 C268 1.464 . S
C3081 C282 1.779 . S
C3089 C952 1.787 . S
C3113 C294 1.422 . S
C3121 N579 1.352 . S
C3153 N924 1.821 . S
C3145 C303 1.778 . S
C3185 C630 1.488 . S
C3177 C238 1.462 . S
C3217 C915 1.244 . S
C3209 C256 1.249 . S
C3249 C892 1.456 . S
C3241 C229 1.476 . S
C3273 C320 1.773 . S
C3281 N474 1.717 . S
C3305 C329 1.080 . S
C3313 C501 1.137 . S
C3345 C423 1.984 . S
C3337 C347 1.984 . S
C3377 N441 1.455 . S
C3369 C355 1.309 . S
C3409 C446 1.177 . S
C3401 C368 1.074 . S
C3441 C478 1.624 1_556 S
C3433 C385 1.612 . S
C3473 N497 1.418 . S
C3465 C399 1.474 . S
C3497 C412 1.786 . S
C3505 N418 1.762 1_556 S
C3529 C321 1.707 . S
C3537 N934 1.679 . S
C3569 N842 1.410 . S
C3561 C334 1.447 . S
C3601 C961 1.760 . S
C3593 C342 1.748 . S
C3633 C869 1.370 . S
C3625 C359 1.428 . S
C3657 C373 1.388 . S
C3665 C883 1.397 . S
C3697 C800 1.498 . S
C3689 C381 1.459 . S
C3729 C906 1.352 . S
C3721 C394 1.262 . S
C3753 C411 1.832 . S
C3761 N809 1.833 . S
C3793 N865 1.644 . S
C3785 C316 1.616 . S
C3825 N796 1.479 . S
C3817 C372 1.494 . S
C3857 N901 1.777 . S
C3849 C386 1.782 . S
C3881 C398 1.361 . S
C3889 C814 1.358 . S
C3913 C407 1.745 . S
C3921 N878 1.796 . S
C3945 C346 1.699 . S
C3953 C846 1.699 . S
C3977 C360 1.181 . S
C3985 N957 1.173 . S
C4017 C938 1.534 . S
C4009 C333 1.545 . S
