# Generated by pormake.
# Topology zzz, (3,6)-cn, num edge types: 1
# Building blocks:
#     Node 0, Type 0, BuildingBlock: BETDAH_clean_linker_0, # of connection points: 3
#     Node 1, Type 0, BuildingBlock: BETDAH_clean_linker_0, # of connection points: 3
#     Node 2, Type 0, BuildingBlock: BETDAH_clean_linker_0, # of connection points: 3
#     Node 3, Type 0, BuildingBlock: BETDAH_clean_linker_0, # of connection points: 3
#     Node 4, Type 0, BuildingBlock: BETDAH_clean_linker_0, # of connection points: 3
#     Node 5, Type 0, BuildingBlock: BETDAH_clean_linker_0, # of connection points: 3
#     Node 6, Type 0, BuildingBlock: BETDAH_clean_linker_0, # of connection points: 3
#     Node 7, Type 0, BuildingBlock: BETDAH_clean_linker_0, # of connection points: 3
#     Node 8, Type 1, BuildingBlock: JUFBIX_clean_sbu_0, # of connection points: 6
#     Node 9, Type 1, BuildingBlock: JUFBIX_clean_sbu_0, # of connection points: 6
#     Node 10, Type 1, BuildingBlock: JUFBIX_clean_sbu_0, # of connection points: 6
#     Node 11, Type 1, BuildingBlock: JUFBIX_clean_sbu_0, # of connection points: 6
#     Edge 12, Type (0, 1), BuildingBlock: EZIPEK_clean_linker_0, # of connection points: 2
#     Edge 13, Type (0, 1), BuildingBlock: EZIPEK_clean_linker_0, # of connection points: 2
#     Edge 14, Type (0, 1), BuildingBlock: EZIPEK_clean_linker_0, # of connection points: 2
#     Edge 15, Type (0, 1), BuildingBlock: EZIPEK_clean_linker_0, # of connection points: 2
#     Edge 16, Type (0, 1), BuildingBlock: EZIPEK_clean_linker_0, # of connection points: 2
#     Edge 17, Type (0, 1), BuildingBlock: EZIPEK_clean_linker_0, # of connection points: 2
#     Edge 18, Type (0, 1), BuildingBlock: EZIPEK_clean_linker_0, # of connection points: 2
#     Edge 19, Type (0, 1), BuildingBlock: EZIPEK_clean_linker_0, # of connection points: 2
#     Edge 20, Type (0, 1), BuildingBlock: EZIPEK_clean_linker_0, # of connection points: 2
#     Edge 21, Type (0, 1), BuildingBlock: EZIPEK_clean_linker_0, # of connection points: 2
#     Edge 22, Type (0, 1), BuildingBlock: EZIPEK_clean_linker_0, # of connection points: 2
#     Edge 23, Type (0, 1), BuildingBlock: EZIPEK_clean_linker_0, # of connection points: 2
#     Edge 24, Type (0, 1), BuildingBlock: EZIPEK_clean_linker_0, # of connection points: 2
#     Edge 25, Type (0, 1), BuildingBlock: EZIPEK_clean_linker_0, # of connection points: 2
#     Edge 26, Type (0, 1), BuildingBlock: EZIPEK_clean_linker_0, # of connection points: 2
#     Edge 27, Type (0, 1), BuildingBlock: EZIPEK_clean_linker_0, # of connection points: 2
#     Edge 28, Type (0, 1), BuildingBlock: EZIPEK_clean_linker_0, # of connection points: 2
#     Edge 29, Type (0, 1), BuildingBlock: EZIPEK_clean_linker_0, # of connection points: 2
#     Edge 30, Type (0, 1), BuildingBlock: EZIPEK_clean_linker_0, # of connection points: 2
#     Edge 31, Type (0, 1), BuildingBlock: EZIPEK_clean_linker_0, # of connection points: 2
#     Edge 32, Type (0, 1), BuildingBlock: EZIPEK_clean_linker_0, # of connection points: 2
#     Edge 33, Type (0, 1), BuildingBlock: EZIPEK_clean_linker_0, # of connection points: 2
#     Edge 34, Type (0, 1), BuildingBlock: EZIPEK_clean_linker_0, # of connection points: 2
#     Edge 35, Type (0, 1), BuildingBlock: EZIPEK_clean_linker_0, # of connection points: 2
# Relax obj value: 0.113
# Max RMSD: 0.173
# Mean RMSD: 0.084
data_MOF--net-zzz--node1-JUFBIX_clean_sbu_0--node2-BETDAH_clean_linker_0--edge1-EZIPEK_clean_linker_0
_symmetry_space_group_name_H-M    P1
_symmetry_Int_Tables_number       1
_symmetry_cell_setting            triclinic
loop_
_symmetry_equiv_pos_as_xyz
'x, y, z'
_cell_length_a     38.209328
_cell_length_b     37.937386
_cell_length_c     13.346455
_cell_angle_alpha  78.477855
_cell_angle_beta   89.448462
_cell_angle_gamma 91.368111
loop_
_atom_site_label
_atom_site_type_symbol
_atom_site_fract_x
_atom_site_fract_y
_atom_site_fract_z
_atom_type_partial_charge
H0 H 0.92737 0.52974 0.28866 0.0
H1 H 0.82964 0.53148 0.135 0.0
H2 H 0.83334 0.5522 0.44124 0.0
C3 C 0.89927 0.53347 0.2887 0.0
C4 C 0.88298 0.5425 0.37349 0.0
C5 C 0.87993 0.52861 0.20449 0.0
C6 C 0.84373 0.53328 0.20345 0.0
C7 C 0.82637 0.54092 0.2897 0.0
C8 C 0.84632 0.54623 0.37429 0.0
N9 N 0.78919 0.54266 0.29445 0.0
C10 C 0.76631 0.53367 0.22166 0.0
H11 H 0.995 0.86193 0.22299 0.0
H12 H 0.02583 0.76581 0.13176 0.0
H13 H 0.04512 0.77983 0.43958 0.0
C14 C 1.00516 0.835 0.24388 0.0
C15 C 0.01968 0.82396 0.34071 0.0
C16 C 1.01155 0.81614 0.16644 0.0
C17 C 0.02261 0.78078 0.19219 0.0
C18 C 0.03293 0.76649 0.29311 0.0
C19 C 0.03325 0.78901 0.36592 0.0
N20 N 0.04595 0.731 0.31957 0.0
C21 C 0.04764 0.70828 0.2494 0.0
H22 H 0.67642 0.02069 0.15653 0.0
H23 H 0.77407 0.02348 -0.00696 0.0
H24 H 0.77226 1.00939 0.32321 0.0
C25 C 0.70482 0.01959 0.15723 0.0
C26 C 0.72193 1.01498 0.25008 0.0
C27 C 0.72329 0.02263 0.06521 0.0
C28 C 0.75999 0.0212 0.06494 0.0
C29 C 0.77802 1.01626 0.15844 0.0
C30 C 0.75872 1.01317 0.25107 0.0
N31 N 0.8152 1.01393 0.16259 0.0
C32 C 0.838 0.01748 0.07832 0.0
H33 H 0.54781 0.63994 0.21712 0.0
H34 H 0.54969 0.74534 0.02447 0.0
H35 H 0.54643 0.73283 0.3539 0.0
C36 C 0.54777 0.66901 0.2089 0.0
C37 C 0.54764 0.68353 0.29671 0.0
C38 C 0.54834 0.69069 0.11096 0.0
C39 C 0.54845 0.72842 0.10009 0.0
C40 C 0.54745 0.74386 0.18817 0.0
C41 C 0.5471 0.72116 0.28616 0.0
N42 N 0.54768 0.78181 0.18254 0.0
C43 C 0.54246 0.80852 0.09568 0.0
H44 H 0.14878 0.48981 0.34282 0.0
H45 H 0.24847 0.50283 0.47389 0.0
H46 H 0.24204 0.48919 0.16048 0.0
C47 C 0.17715 0.49041 0.33584 0.0
C48 C 0.19283 0.48786 0.24287 0.0
C49 C 0.19707 0.49792 0.41596 0.0
C50 C 0.23359 0.49866 0.40876 0.0
C51 C 0.25031 0.49506 0.31691 0.0
C52 C 0.22963 0.49014 0.23319 0.0
N53 N 0.28743 0.49828 0.30493 0.0
C54 C 0.31019 0.50554 0.38012 0.0
H55 H 0.05663 0.15784 0.37398 0.0
H56 H 0.05564 0.25577 0.48466 0.0
H57 H 0.0733 0.25843 0.162 0.0
C58 C 0.05917 0.18702 0.35858 0.0
C59 C 0.06577 0.20568 0.25904 0.0
C60 C 0.05536 0.20516 0.43867 0.0
C61 C 0.05833 0.24257 0.42043 0.0
C62 C 0.06458 0.26238 0.32034 0.0
C63 C 0.06852 0.24365 0.23932 0.0
N64 N 0.06648 0.30076 0.30022 0.0
C65 C 0.06175 0.32043 0.37714 0.0
H66 H 0.38531 0.04683 0.48903 0.0
H67 H 0.28937 1.01587 0.65472 0.0
H68 H 0.3003 1.00145 0.34386 0.0
C69 C 0.35823 0.03737 0.48953 0.0
C70 C 0.34598 0.02395 0.40582 0.0
C71 C 0.33957 0.03072 0.58191 0.0
C72 C 0.30413 0.02007 0.58348 0.0
C73 C 0.28891 1.01224 0.49421 0.0
C74 C 0.31065 1.01192 0.40765 0.0
N75 N 0.25284 1.00195 0.49134 0.0
C76 C 0.22781 1.00276 0.56811 0.0
H77 H 0.51059 0.40238 0.4083 0.0
H78 H 0.52634 0.29854 0.5985 0.0
H79 H 0.51348 0.30927 0.27227 0.0
C80 C 0.51219 0.37338 0.41655 0.0
C81 C 0.51152 0.35851 0.3295 0.0
C82 C 0.51863 0.35236 0.51246 0.0
C83 C 0.52124 0.31478 0.52392 0.0
C84 C 0.51806 0.29878 0.43724 0.0
C85 C 0.51396 0.32104 0.33984 0.0
N86 N 0.52002 0.26092 0.44323 0.0
C87 C 0.52537 0.2346 0.53088 0.0
Co88 Co 0.03901 0.02067 0.88992 0.0
C89 C 0.96556 0.01865 0.85025 0.0
Co90 Co 0.0239 1.00648 0.7427 0.0
C91 C 0.06513 0.06871 0.01399 0.0
C92 C 0.0297 0.02896 0.09901 0.0
N93 N 0.04763 0.03758 0.00958 0.0
N94 N 0.0578 0.08048 0.10041 0.0
C95 C 0.03579 0.05539 0.15482 0.0
H96 H 0.0799 0.08462 0.95049 0.0
H97 H 1.01042 1.00722 0.11723 0.0
C98 C 0.09749 1.00854 0.78281 0.0
N99 N 0.01818 0.99143 0.6187 0.0
C100 C 1.00716 0.95891 0.60162 0.0
C101 C 0.04023 1.00453 0.53991 0.0
N102 N 0.0236 0.95026 0.51946 0.0
C103 C 0.04453 0.97911 0.4819 0.0
C104 C 0.03423 0.07854 0.72396 0.0
O105 O 0.08868 1.01658 0.86744 0.0
O106 O 0.0734 1.00337 0.72229 0.0
O107 O 0.02565 0.0549 0.6733 0.0
O108 O 0.04088 0.06914 0.81794 0.0
O109 O 0.97437 1.01011 0.76572 0.0
H110 H 0.0563 0.02877 0.53336 0.0
H111 H 0.98992 0.94071 0.65366 0.0
O112 O 0.98959 0.02412 0.91149 0.0
O113 O 0.03633 0.97174 0.96034 0.0
O114 O 0.02201 0.95811 0.81295 0.0
C115 C 0.02764 0.94837 0.9078 0.0
H116 H 0.0225 0.05778 0.22508 0.0
H117 H 0.06358 0.98086 0.42039 0.0
Co118 Co 0.52544 0.0246 0.89367 0.0
C119 C 0.5327 0.95254 0.86224 0.0
Co120 Co 0.54041 0.0192 0.73667 0.0
C121 C 0.47834 0.03528 0.05869 0.0
C122 C 0.51802 0.99673 0.10472 0.0
N123 N 0.50868 0.02298 0.0266 0.0
N124 N 0.46741 1.01611 0.15123 0.0
C125 C 0.49245 0.99171 0.17887 0.0
H126 H 0.46329 0.05595 0.01163 0.0
H127 H 0.54011 0.97952 0.10318 0.0
C128 C 0.53336 0.09108 0.76683 0.0
N129 N 0.55832 0.01845 0.60651 0.0
C130 C 0.58984 1.0054 0.5872 0.0
C131 C 0.54806 0.0372 0.51522 0.0
N132 N 0.60007 1.01606 0.4888 0.0
C133 C 0.57381 0.03589 0.44269 0.0
C134 C 0.46955 0.02084 0.75971 0.0
O135 O 0.52626 0.07644 0.85982 0.0
O136 O 0.54005 0.0708 0.7038 0.0
O137 O 0.49289 0.01769 0.69331 0.0
O138 O 0.47853 0.02356 0.84915 0.0
O139 O 0.54021 0.9673 0.77023 0.0
H140 H 0.5248 0.05314 0.50382 0.0
H141 H 0.6064 0.99066 0.64551 0.0
O142 O 0.52538 0.97283 0.92408 0.0
O143 O 0.57239 0.02595 0.93782 0.0
O144 O 0.5874 0.0215 0.78218 0.0
C145 C 0.59603 0.02434 0.87161 0.0
H146 H 0.4916 0.97044 0.2464 0.0
H147 H 0.57433 0.05037 0.36407 0.0
Co148 Co 0.56267 0.51751 0.82066 0.0
C149 C 0.51776 0.47649 0.97806 0.0
Co150 Co 0.50513 0.52499 0.8056 0.0
C151 C 0.63334 0.5271 0.90032 0.0
C152 C 0.62419 0.47519 0.86488 0.0
N153 N 0.60996 0.50801 0.85485 0.0
N154 N 0.66075 0.50714 0.93994 0.0
C155 C 0.65505 0.4746 0.91693 0.0
H156 H 0.6291 0.55408 0.91208 0.0
H157 H 0.61165 0.45189 0.84417 0.0
C158 C 0.5487 0.56619 0.64925 0.0
N159 N 0.45791 0.53374 0.7716 0.0
C160 C 0.43547 0.51356 0.72661 0.0
C161 C 0.44348 0.5665 0.75577 0.0
N162 N 0.40897 0.53304 0.67902 0.0
C163 C 0.41385 0.56623 0.69853 0.0
C164 C 0.53744 0.57492 0.90134 0.0
O165 O 0.57491 0.55029 0.69508 0.0
O166 O 0.51803 0.55748 0.68452 0.0
O167 O 0.50737 0.56445 0.87657 0.0
O168 O 0.56398 0.55707 0.88647 0.0
O169 O 0.49259 0.49272 0.92885 0.0
H170 H 0.45523 0.59015 0.77595 0.0
H171 H 0.44009 0.48609 0.71998 0.0
O172 O 0.54893 0.48472 0.94464 0.0
O173 O 0.5609 0.47865 0.75315 0.0
O174 O 0.50451 0.4853 0.7347 0.0
C175 C 0.53195 0.46814 0.72276 0.0
H176 H 0.67093 0.45132 0.94217 0.0
H177 H 0.39834 0.5893 0.66766 0.0
Co178 Co 0.04146 0.54183 0.81002 0.0
C179 C 0.08073 0.49436 0.95327 0.0
Co180 Co 0.03455 0.48397 0.80516 0.0
C181 C 0.04291 0.59861 0.92236 0.0
C182 C 0.05518 0.61959 0.76463 0.0
N183 N 0.04638 0.58879 0.83088 0.0
N184 N 0.04936 0.63397 0.9162 0.0
C185 C 0.05712 0.64752 0.81721 0.0
H186 H 0.03593 0.58021 -0.00718 0.0
H187 H 0.06028 0.62152 0.68382 0.0
C188 C 0.99419 0.5309 0.66461 0.0
N189 N 0.02956 0.43622 0.78567 0.0
C190 C 0.04975 0.41904 0.7274 0.0
C191 C 1.00161 0.41393 0.81135 0.0
N192 N 0.03639 0.3863 0.71809 0.0
C193 C 1.00529 0.38411 0.76889 0.0
C194 C 0.98618 0.50547 0.92947 0.0
O195 O 1.00827 0.55577 0.7037 0.0
O196 O 1.0041 0.49871 0.69338 0.0
O197 O 0.99507 0.47807 0.89509 0.0
O198 O 1.00408 0.53446 0.90477 0.0
O199 O 0.06486 0.46948 0.91894 0.0
H200 H 0.97849 0.42001 0.85132 0.0
H201 H 0.07224 0.43193 0.68493 0.0
O202 O 0.07387 0.52689 0.91486 0.0
O203 O 0.07935 0.54924 0.71528 0.0
O204 O 0.07405 0.49148 0.71639 0.0
C205 C 0.09019 0.52142 0.68665 0.0
H206 H 0.06398 0.67541 0.78574 0.0
H207 H 0.98457 0.36431 0.76869 0.0
C208 C 0.19261 0.02992 0.69157 0.0
C209 C 0.19795 1.00141 0.63893 0.0
C210 C 0.14187 0.97293 0.70776 0.0
C211 C 0.13476 1.00322 0.75221 0.0
N212 N 0.15837 0.05425 0.81505 0.0
N213 N 0.17817 0.94586 0.59452 0.0
C214 C 0.16169 0.02979 0.75325 0.0
C215 C 0.17295 0.97265 0.64781 0.0
N216 N 0.21628 0.05815 0.67809 0.0
N217 N 0.11941 0.94364 0.72709 0.0
H218 H 0.20125 0.94377 0.55394 0.0
H219 H 0.15916 0.9267 0.58552 0.0
H220 H 0.09716 0.94236 0.77356 0.0
H221 H 0.12421 0.91925 0.70589 0.0
H222 H 0.21213 0.08207 0.70278 0.0
H223 H 0.23946 0.05865 0.63584 0.0
H224 H 0.17827 0.07214 0.82655 0.0
H225 H 0.13704 0.05452 0.86371 0.0
C226 C 0.50534 0.18933 0.68478 0.0
C227 C 0.53119 0.20201 0.60825 0.0
C228 C 0.56333 0.14604 0.66046 0.0
C229 C 0.53528 0.1313 0.72838 0.0
N230 N 0.48551 0.14339 0.82925 0.0
N231 N 0.58519 0.19373 0.52288 0.0
C232 C 0.50813 0.15432 0.74844 0.0
C233 C 0.56062 0.18096 0.59741 0.0
N234 N 0.47708 0.21013 0.69269 0.0
N235 N 0.59333 0.12708 0.65978 0.0
H236 H 0.58513 0.21987 0.47949 0.0
H237 H 0.6047 0.17819 0.50027 0.0
H238 H 0.59683 0.10209 0.70721 0.0
H239 H 0.61612 0.13724 0.62005 0.0
H240 H 0.45469 0.20108 0.73608 0.0
H241 H 0.47526 0.2364 0.65104 0.0
H242 H 0.46755 0.16009 0.85397 0.0
H243 H 0.4863 0.11851 0.87844 0.0
C244 C 0.32577 0.53153 0.5319 0.0
C245 C 0.33553 0.5123 0.45583 0.0
C246 C 0.39536 0.50922 0.52141 0.0
C247 C 0.38407 0.52344 0.60694 0.0
N248 N 0.33599 0.54027 0.70393 0.0
N249 N 0.37871 0.47801 0.38662 0.0
C250 C 0.3484 0.53211 0.61535 0.0
C251 C 0.36999 0.49935 0.45375 0.0
N252 N 0.29591 0.55089 0.52209 0.0
N253 N 0.43021 0.50772 0.49966 0.0
H254 H 0.36116 0.47118 0.3337 0.0
H255 H 0.40245 0.46489 0.3892 0.0
H256 H 0.44968 0.51768 0.54119 0.0
H257 H 0.43965 0.50065 0.43306 0.0
H258 H 0.28901 0.5675 0.57221 0.0
H259 H 0.28064 0.55396 0.45675 0.0
H260 H 0.30952 0.54402 0.71693 0.0
H261 H 0.35161 0.53928 0.7681 0.0
C262 C 0.02872 0.3233 0.5361 0.0
C263 C 0.05676 0.33621 0.46724 0.0
C264 C 0.07947 0.37167 0.58865 0.0
C265 C 0.04829 0.36335 0.64857 0.0
N266 N 1.01079 0.3119 0.71341 0.0
N267 N 0.10883 0.37364 0.42544 0.0
C268 C 0.0275 0.33359 0.63251 0.0
C269 C 0.08229 0.36057 0.49294 0.0
N270 N 1.0028 0.30169 0.50933 0.0
N271 N 0.10808 0.38518 0.62998 0.0
H272 H 0.11192 0.36566 0.35549 0.0
H273 H 0.12597 0.39441 0.43539 0.0
H274 H 0.10856 0.38677 0.70716 0.0
H275 H 0.13249 0.38942 0.5936 0.0
H276 H 0.98027 0.29428 0.55401 0.0
H277 H 1.00238 0.29393 0.43861 0.0
H278 H 0.99753 0.28805 0.70777 0.0
H279 H 0.01525 0.31487 0.78837 0.0
C280 C 0.88747 0.05274 0.98129 0.0
C281 C 0.86583 0.02124 0.00032 0.0
C282 C 0.90229 0.99527 0.88182 0.0
C283 C 0.92808 0.02309 0.88087 0.0
N284 N 0.9431 0.08127 0.91819 0.0
N285 N 0.85169 0.96232 0.96897 0.0
C286 C 0.91977 0.05291 0.92643 0.0
C287 C 0.87274 0.99262 0.94967 0.0
N288 N 0.87687 0.08258 0.01505 0.0
N289 N 0.90528 0.97194 0.81664 0.0
H290 H 0.82901 0.96021 0.01424 0.0
H291 H 0.85779 0.93862 0.94532 0.0
H292 H 0.92524 0.97387 0.76224 0.0
H293 H 0.8858 0.95315 0.80813 0.0
H294 H 0.88955 0.10765 -0.00366 0.0
H295 H 0.85339 0.08307 0.05534 0.0
H296 H 0.94124 0.10145 0.96038 0.0
H297 H 0.96509 0.08429 0.87014 0.0
C298 C 0.55934 0.8531 0.9367 0.0
C299 C 0.53611 0.84163 0.02091 0.0
C300 C 0.50408 0.8977 0.97215 0.0
C301 C 0.53115 0.9123 0.90072 0.0
N302 N 0.58396 0.90227 0.80916 0.0
N303 N 0.48624 0.85274 0.12085 0.0
C304 C 0.55828 0.88934 0.87973 0.0
C305 C 0.50822 0.8637 0.03843 0.0
N306 N 0.58224 0.82914 0.91082 0.0
N307 N 0.47372 0.91593 0.97427 0.0
H308 H 0.48722 0.82732 0.16817 0.0
H309 H 0.46845 0.86957 0.146 0.0
H310 H 0.4691 0.94017 0.9243 0.0
H311 H 0.45168 0.90529 0.01731 0.0
H312 H 0.59749 0.83415 0.84422 0.0
H313 H 0.58382 0.80282 0.95218 0.0
H314 H 0.60707 0.88894 0.80207 0.0
H315 H 0.58309 0.92694 0.75896 0.0
C316 C 0.74761 0.50922 0.06919 0.0
C317 C 0.73918 0.52596 0.15183 0.0
C318 C 0.67762 0.52552 0.10246 0.0
C319 C 0.68725 0.51546 0.00927 0.0
N320 N 0.73319 0.50356 0.89682 0.0
N321 N 0.69587 0.55384 0.24131 0.0
C322 C 0.7229 0.50924 0.9903 0.0
C323 C 0.70412 0.53557 0.16623 0.0
N324 N 0.77797 0.49104 0.06934 0.0
N325 N 0.64354 0.52243 0.13474 0.0
H326 H 0.71433 0.56066 0.29182 0.0
H327 H 0.67121 0.56442 0.24802 0.0
H328 H 0.62394 0.51198 0.0946 0.0
H329 H 0.63559 0.52605 0.20684 0.0
H330 H 0.78429 0.47649 0.01347 0.0
H331 H 0.79389 0.48604 0.1333 0.0
H332 H 0.7594 0.50164 0.87665 0.0
H333 H 0.71578 0.50456 0.8366 0.0
C334 C 0.01609 0.67807 0.12663 0.0
C335 C 0.04817 0.68763 0.16826 0.0
C336 C 0.08085 0.65929 0.04757 0.0
C337 C 0.04904 0.65265 0.00024 0.0
N338 N 0.98675 0.65764 0.98665 0.0
N339 N 0.11126 0.6905 0.16468 0.0
C340 C 0.0167 0.6625 0.0379 0.0
C341 C 0.08065 0.67906 0.12783 0.0
N342 N 0.98512 0.68334 0.17311 0.0
N343 N 0.11104 0.64559 0.01746 0.0
H344 H 0.11205 0.70399 0.22556 0.0
H345 H 0.1357 0.68858 0.13142 0.0
H346 H 0.11179 0.63124 0.95845 0.0
H347 H 0.13469 0.64604 0.05526 0.0
H348 H 0.96094 0.67385 0.15306 0.0
H349 H 0.9838 0.6951 0.23733 0.0
H350 H 0.96251 0.66719 0.00325 0.0
H351 H 0.98666 0.64599 0.92213 0.0
C352 C 1.01324 0.16797 0.55917 0.0
C353 C 0.0473 0.18338 0.54073 0.0
C354 C 0.07155 0.13406 0.66371 0.0
C355 C 0.03796 0.11655 0.67279 0.0
N356 N 0.97569 0.11891 0.64155 0.0
N357 N 0.10633 0.18832 0.59617 0.0
C358 C 1.00843 0.13442 0.6258 0.0
C359 C 0.07556 0.16892 0.6013 0.0
N360 N 0.98504 0.18424 0.51025 0.0
N361 N 0.10002 0.11618 0.707 0.0
H362 H 0.10949 0.21382 0.54967 0.0
H363 H 0.12739 0.1809 0.64401 0.0
H364 H 0.0983 0.09032 0.75124 0.0
H365 H 0.12572 0.12579 0.69397 0.0
H366 H 0.98651 0.20933 0.46077 0.0
H367 H 0.98651 0.20933 0.46077 0.0
H368 H 0.95355 0.13132 0.60694 0.0
H369 H 0.97071 0.09404 0.6898 0.0
C370 C 0.37914 0.0582 0.69165 0.0
C371 C 0.36142 0.02691 0.67464 0.0
C372 C 0.41284 0.99089 0.72651 0.0
C373 C 0.43191 0.02272 0.73411 0.0
N374 N 0.43198 0.08551 0.74519 0.0
N375 N 0.35576 0.96251 0.71559 0.0
C376 C 0.41444 0.05597 0.72517 0.0
C377 C 0.37638 0.99284 0.70713 0.0
N378 N 0.36273 0.09029 0.66708 0.0
N379 N 0.42977 0.95918 0.73339 0.0
H380 H 0.32892 0.96367 0.70257 0.0
H381 H 0.36433 0.93675 0.74561 0.0
H382 H 0.45651 0.95679 0.74702 0.0
H383 H 0.41796 0.93588 0.71788 0.0
H384 H 0.37481 0.11526 0.66563 0.0
H385 H 0.33648 0.09149 0.64566 0.0
H386 H 0.42015 0.1096 0.74932 0.0
H387 H 0.45852 0.08546 0.76176 0.0
C388 C 0.49995 0.37862 0.66185 0.0
C389 C 0.52673 0.37253 0.59408 0.0
C390 C 0.55663 0.42878 0.60956 0.0
C391 C 0.53034 0.43481 0.67979 0.0
N392 N 0.48381 0.40886 0.79777 0.0
N393 N 0.58564 0.38499 0.53032 0.0
C394 C 0.50396 0.40773 0.71366 0.0
C395 C 0.5571 0.39513 0.57887 0.0
N396 N 0.47016 0.35754 0.67369 0.0
N397 N 0.57944 0.45592 0.56566 0.0
H398 H 0.58617 0.36038 0.50663 0.0
H399 H 0.60957 0.3991 0.52344 0.0
H400 H 0.57824 0.48205 0.57877 0.0
H401 H 0.59693 0.45365 0.50705 0.0
H402 H 0.44793 0.36348 0.71238 0.0
H403 H 0.46724 0.33507 0.64012 0.0
H404 H 0.46625 0.38825 0.83057 0.0
H405 H 0.48772 0.42833 0.84163 0.0
C406 C 0.15973 0.54227 0.47596 0.0
C407 C 0.17831 0.5098 0.49993 0.0
C408 C 0.14795 0.49492 0.66393 0.0
C409 C 0.12339 0.522 0.62849 0.0
N410 N 0.10536 0.5715 0.49693 0.0
N411 N 0.1899 0.45425 0.61648 0.0
C412 C 0.12943 0.54634 0.5343 0.0
C413 C 0.17282 0.48603 0.59464 0.0
N414 N 0.17084 0.56871 0.3962 0.0
N415 N 0.14801 0.47847 0.76449 0.0
H416 H 0.20896 0.44724 0.56807 0.0
H417 H 0.18353 0.43403 0.6796 0.0
H418 H 0.13165 0.48655 0.8179 0.0
H419 H 0.16705 0.46051 0.79612 0.0
H420 H 0.15988 0.59406 0.37935 0.0
H421 H 0.19353 0.56637 0.35405 0.0
H422 H 0.10684 0.58707 0.4232 0.0
H423 H 0.08245 0.57503 0.53621 0.0
C424 C 0.04971 0.85301 0.0346 0.0
C425 C 0.01574 0.83828 0.06184 0.0
C426 C 0.99022 0.89215 0.96035 0.0
C427 C 0.02373 0.90981 0.95545 0.0
N428 N 0.08581 0.90719 0.98743 0.0
N429 N 0.95389 0.84006 0.03884 0.0
C430 C 0.05372 0.89017 -0.0087 0.0
C431 C 0.98609 0.8564 0.0178 0.0
N432 N 0.07808 0.83155 0.05225 0.0
N433 N 0.96227 0.90996 0.91368 0.0
H434 H 0.95121 0.81337 0.07808 0.0
H435 H 0.93028 0.85269 0.02031 0.0
H436 H 0.96372 0.93698 0.87821 0.0
H437 H 0.93803 0.89775 0.90612 0.0
H438 H 0.10335 0.8401 0.02727 0.0
H439 H 0.07574 0.80399 0.0809 0.0
H440 H 0.10779 0.89515 0.02354 0.0
H441 H 0.09008 0.93426 0.95436 0.0
C442 C 0.68808 0.99466 0.94608 0.0
C443 C 0.70183 0.02647 0.97228 0.0
C444 C 0.64881 0.05863 0.91461 0.0
C445 C 0.6335 0.02592 0.89742 0.0
N446 N 0.64048 0.965 0.87368 0.0
N447 N 0.70185 0.09053 0.95014 0.0
C448 C 0.65402 0.99476 0.90404 0.0
C449 C 0.68441 0.05925 0.94389 0.0
N450 N 0.7066 0.96381 0.96969 0.0
N451 N 0.62895 0.0885 0.90769 0.0
H452 H 0.72794 0.09066 0.97289 0.0
H453 H 0.69189 0.116 0.9245 0.0
H454 H 0.60278 0.08907 0.88631 0.0
H455 H 0.63765 0.11213 0.92886 0.0
H456 H 0.69669 0.93838 0.96546 0.0
H457 H 0.73218 0.96381 -0.00359 0.0
H458 H 0.65505 0.94276 0.86687 0.0
H459 H 0.61475 0.96326 0.85005 0.0
C460 C 0.57818 0.64614 0.03205 0.0
C461 C 0.55125 0.67134 0.0246 0.0
C462 C 0.5218 0.63943 0.90589 0.0
C463 C 0.54261 0.60886 0.94086 0.0
N464 N 0.58727 0.58268 0.05893 0.0
N465 N 0.49556 0.69131 0.95323 0.0
C466 C 0.57045 0.61217 0.00851 0.0
C467 C 0.52257 0.66815 0.96015 0.0
N468 N 0.60975 0.65345 0.07128 0.0
N469 N 0.50312 0.64222 0.8183 0.0
H470 H 0.49549 0.713 0.99034 0.0
H471 H 0.47254 0.68751 0.91494 0.0
H472 H 0.50587 0.62416 0.76944 0.0
H473 H 0.48924 0.66508 0.78739 0.0
H474 H 0.63088 0.63639 0.07385 0.0
H475 H 0.61533 0.67824 0.09116 0.0
H476 H 0.60573 0.58421 0.11501 0.0
H477 H 0.57927 0.55651 0.05602 0.0
C478 C 0.915 0.48433 0.13576 0.0
C479 C 0.89887 0.51823 0.11865 0.0
C480 C 0.93117 0.53616 0.95827 0.0
C481 C 0.95311 0.50612 0.9874 0.0
N482 N 0.96682 0.4519 0.1085 0.0
N483 N 0.89299 0.57787 0.01663 0.0
C484 C 0.9449 0.47971 0.07628 0.0
C485 C 0.90682 0.54438 0.02983 0.0
N486 N 0.90208 0.45703 0.21052 0.0
N487 N 0.9333 0.55667 0.86182 0.0
H488 H 0.87462 0.58504 0.06671 0.0
H489 H 0.90168 0.59936 0.95973 0.0
H490 H 0.95014 0.551 0.80597 0.0
H491 H 0.91563 0.57668 0.83405 0.0
H492 H 0.91086 0.43077 0.22124 0.0
H493 H 0.88013 0.46002 0.25499 0.0
H494 H 0.96395 0.43432 0.17895 0.0
H495 H 0.98958 0.44791 0.06914 0.0
C496 C 0.03752 0.17415 0.13205 0.0
C497 C 0.06852 0.18321 0.17978 0.0
C498 C 0.09507 0.1271 0.15571 0.0
C499 C 0.06312 0.11681 0.11584 0.0
N500 N 1.00808 0.13382 0.03764 0.0
N501 N 0.12962 0.17421 0.21176 0.0
C502 C 0.03572 0.14162 0.09426 0.0
C503 C 0.09844 0.16167 0.18173 0.0
N504 N 1.00911 0.19548 0.12937 0.0
N505 N 0.12135 0.10297 0.17323 0.0
H506 H 0.13213 0.19954 0.23076 0.0
H507 H 0.1532 0.16119 0.20985 0.0
H508 H 0.11932 0.07775 0.15342 0.0
H509 H 0.1443 0.10708 0.21109 0.0
H510 H 0.98426 0.1883 0.10776 0.0
H511 H 1.01028 0.22015 0.15258 0.0
H512 H 0.98855 0.15189 0.01135 0.0
H513 H 1.00631 0.11011 0.00948 0.0
C514 C 0.37245 0.03019 0.22396 0.0
C515 C 0.37341 1.0167 0.33119 0.0
C516 C 0.43623 1.00961 0.31739 0.0
C517 C 0.43529 0.01817 0.20921 0.0
N518 N 0.39775 0.02438 0.06115 0.0
N519 N 0.40455 0.97839 0.4663 0.0
C520 C 0.40202 0.02507 0.16204 0.0
C521 C 0.40471 1.00091 0.37282 0.0
N522 N 0.34429 0.04852 0.18114 0.0
N523 N 0.46675 1.01182 0.36828 0.0
H524 H 0.3813 0.96972 0.50635 0.0
H525 H 0.42701 0.96549 0.4969 0.0
H526 H 0.48984 0.0227 0.33106 0.0
H527 H 0.4676 1.00747 0.44796 0.0
H528 H 0.34401 0.06133 0.10436 0.0
H529 H 0.32266 0.05338 0.2241 0.0
H530 H 0.3734 0.02716 0.02626 0.0
H531 H 0.4172 1.01601 0.01666 0.0
C532 C 0.54293 0.40721 0.20807 0.0
C533 C 0.51294 0.38428 0.2293 0.0
C534 C 0.48287 0.42224 0.08624 0.0
C535 C 0.51225 0.44717 0.07176 0.0
N536 N 0.56274 0.46865 0.15181 0.0
N537 N 0.45205 0.37305 0.20071 0.0
C538 C 0.54018 0.4411 0.14213 0.0
C539 C 0.48226 0.39257 0.17153 0.0
N540 N 0.57401 0.39696 0.25316 0.0
N541 N 0.4557 0.4259 0.01947 0.0
H542 H 0.45105 0.35046 0.25994 0.0
H543 H 0.42763 0.38062 0.17092 0.0
H544 H 0.45205 0.4481 0.96156 0.0
H545 H 0.43704 0.4055 0.01857 0.0
H546 H 0.59735 0.41169 0.23392 0.0
H547 H 0.577 0.37198 0.30153 0.0
H548 H 0.58178 0.46621 0.20805 0.0
H549 H 0.55905 0.49508 0.11386 0.0
C550 C 0.1606 0.45791 0.11551 0.0
C551 C 0.16888 0.48912 0.1549 0.0
C552 C 0.11408 0.51508 0.09021 0.0
C553 C 0.1083 0.48756 0.03389 0.0
N554 N 0.12948 0.43249 0.9886 0.0
N555 N 0.15773 0.55148 0.15355 0.0
C556 C 0.13241 0.45867 0.04518 0.0
C557 C 0.1472 0.51922 0.13195 0.0
N558 N 0.17876 0.42725 0.14775 0.0
N559 N 0.08719 0.53588 0.10985 0.0
H560 H 0.18257 0.55555 0.18175 0.0
H561 H 0.14326 0.57472 0.13281 0.0
H562 H 0.06135 0.53015 0.09257 0.0
H563 H 0.08988 0.55499 0.15582 0.0
H564 H 0.17117 0.40241 0.13178 0.0
H565 H 0.20008 0.42624 0.19637 0.0
H566 H 0.14893 0.4139 0.98592 0.0
H567 H 0.10926 0.43037 0.93869 0.0
C568 C 0.0152 0.85096 0.50333 0.0
C569 C 0.02649 0.85302 0.4005 0.0
C570 C 0.02947 0.91808 0.37655 0.0
C571 C 0.02301 0.91675 0.48191 0.0
N572 N 0.02319 0.87818 0.65101 0.0
N573 N 0.06031 0.88869 0.26029 0.0
C574 C 0.01963 0.8821 0.5479 0.0
C575 C 0.0395 0.88664 0.34499 0.0
N576 N 0.9997 0.82026 0.55777 0.0
N577 N 0.02392 0.94846 0.30513 0.0
H578 H 0.06979 0.86571 0.23853 0.0
H579 H 0.07093 0.91311 0.22004 0.0
H580 H 1.01183 0.97081 0.32312 0.0
H581 H 0.02693 0.94912 0.22695 0.0
H582 H 0.98869 0.81893 0.6303 0.0
H583 H 0.99532 0.79739 0.52702 0.0
H584 H 0.0227 0.85303 0.69999 0.0
H585 H 0.03186 0.89911 0.68523 0.0
C586 C 0.67926 0.97985 0.37579 0.0
C587 C 0.69921 1.01219 0.34296 0.0
C588 C 0.65794 0.04418 0.43267 0.0
C589 C 0.63489 1.01369 0.448 0.0
N590 N 0.62311 0.95207 0.43868 0.0
N591 N 0.70886 0.0751 0.34204 0.0
C592 C 0.64574 0.98111 0.42261 0.0
C593 C 0.68929 0.04422 0.37399 0.0
N594 N 0.69235 0.94826 0.35945 0.0
N595 N 0.64976 0.07288 0.47524 0.0
H596 H 0.7327 0.07543 0.30303 0.0
H597 H 0.70098 0.10042 0.35065 0.0
H598 H 0.62703 0.07325 0.51894 0.0
H599 H 0.66667 0.09483 0.47483 0.0
H600 H 0.68057 0.92313 0.38692 0.0
H601 H 0.7169 0.94715 0.32532 0.0
H602 H 0.62768 0.92835 0.41334 0.0
H603 H 0.59853 0.9525 0.47311 0.0
C604 C 0.52025 0.63016 0.41298 0.0
C605 C 0.54687 0.65744 0.39712 0.0
C606 C 0.57544 0.62592 0.55293 0.0
C607 C 0.55195 0.59589 0.5573 0.0
N608 N 0.50798 0.56671 0.47083 0.0
N609 N 0.60374 0.67774 0.44394 0.0
C610 C 0.5261 0.59725 0.48108 0.0
C611 C 0.57563 0.65444 0.46492 0.0
N612 N 0.48936 0.63564 0.36227 0.0
N613 N 0.59631 0.62841 0.63385 0.0
H614 H 0.60509 0.6988 0.38047 0.0
H615 H 0.62684 0.67423 0.48527 0.0
H616 H 0.59633 0.60906 0.7012 0.0
H617 H 0.61112 0.65152 0.6377 0.0
H618 H 0.46808 0.61754 0.37732 0.0
H619 H 0.48389 0.65999 0.31368 0.0
H620 H 0.49081 0.56592 0.41105 0.0
H621 H 0.51337 0.54142 0.51439 0.0
C622 C 0.90633 0.5153 0.54566 0.0
C623 C 0.90559 0.54481 0.46218 0.0
C624 C 0.9627 0.56674 0.51184 0.0
C625 C 0.96289 0.53774 0.59768 0.0
N626 N 0.92871 0.4917 0.71266 0.0
N627 N 0.92834 0.6031 0.37931 0.0
C628 C 0.93281 0.51429 0.61967 0.0
C629 C 0.93218 0.57218 0.45052 0.0
N630 N 0.88301 0.487 0.55171 0.0
N631 N 0.99226 0.58759 0.48453 0.0
H632 H 0.9062 0.60753 0.33372 0.0
H633 H 0.94523 0.62544 0.37242 0.0
H634 H 0.01553 0.58373 0.52482 0.0
H635 H 0.99476 0.60662 0.41667 0.0
H636 H 0.88552 0.46268 0.6033 0.0
H637 H 0.86267 0.48661 0.50049 0.0
H638 H 0.90561 0.47705 0.73594 0.0
H639 H 0.94651 0.49067 0.77118 0.0
loop_
_geom_bond_atom_site_label_1
_geom_bond_atom_site_label_2
_geom_bond_distance
_geom_bond_site_symmetry_2
_ccdc_geom_bond_type
H0 C3 0.929 . S
H1 C6 0.929 . S
H2 C8 0.930 . S
C3 H0 0.929 . S
C3 C4 1.398 . S
C3 C5 1.396 . S
C4 C3 1.398 . S
C4 C8 1.407 . S
C5 C3 1.396 . S
C5 C6 1.394 . S
C6 H1 0.929 . S
C6 C5 1.394 . S
C6 C7 1.382 . S
C7 C6 1.382 . S
C7 C8 1.392 . S
C7 N9 1.420 . S
C8 H2 0.930 . S
C8 C4 1.407 . S
C8 C7 1.392 . S
N9 C7 1.420 . S
N9 C10 1.244 . S
C10 N9 1.244 . S
H11 C14 0.929 . S
H12 C17 0.929 1_556 S
H13 C19 0.930 . S
C14 H11 0.929 . S
C14 C15 1.398 . S
C14 C16 1.396 . S
C15 C14 1.398 . S
C15 C19 1.407 . S
C16 C14 1.396 . S
C16 C17 1.394 . S
C17 H12 0.929 1_554 S
C17 C16 1.394 . S
C17 C18 1.382 . S
C18 C17 1.382 . S
C18 C19 1.392 . S
C18 N20 1.420 . S
C19 H13 0.930 . S
C19 C15 1.407 . S
C19 C18 1.392 . S
N20 C18 1.420 . S
N20 C21 1.244 . S
C21 N20 1.244 . S
H22 C25 0.929 . S
H23 C28 0.929 . S
H24 C30 0.930 . S
C25 H22 0.929 . S
C25 C26 1.398 1_565 S
C25 C27 1.398 1_564 S
C26 C25 1.398 1_545 S
C26 C30 1.407 . S
C27 C25 1.398 1_546 S
C27 C28 1.396 . S
C28 H23 0.929 . S
C28 C27 1.396 . S
C28 C29 1.382 1_556 S
C29 C28 1.382 1_554 S
C29 C30 1.392 . S
C29 N31 1.420 . S
C30 H24 0.930 . S
C30 C26 1.407 . S
C30 C29 1.392 . S
N31 C29 1.420 . S
N31 C32 1.227 1_544 S
C32 N31 1.227 1_566 S
H33 C36 0.929 . S
H34 C39 0.929 . S
H35 C41 0.930 . S
C36 H33 0.929 . S
C36 C37 1.398 . S
C36 C38 1.396 . S
C37 C36 1.398 . S
C37 C41 1.407 . S
C38 C36 1.396 . S
C38 C39 1.394 . S
C39 H34 0.929 . S
C39 C38 1.394 . S
C39 C40 1.382 . S
C40 C39 1.382 . S
C40 C41 1.392 . S
C40 N42 1.420 . S
C41 H35 0.930 . S
C41 C37 1.407 . S
C41 C40 1.392 . S
N42 C40 1.420 . S
N42 C43 1.244 . S
C43 N42 1.244 . S
H44 C47 0.929 . S
H45 C50 0.929 . S
H46 C52 0.930 . S
C47 H44 0.929 . S
C47 C48 1.398 . S
C47 C49 1.396 . S
C48 C47 1.398 . S
C48 C52 1.407 . S
C49 C47 1.396 . S
C49 C50 1.394 . S
C50 H45 0.929 . S
C50 C49 1.394 . S
C50 C51 1.382 . S
C51 C50 1.382 . S
C51 C52 1.392 . S
C51 N53 1.420 . S
C52 H46 0.930 . S
C52 C48 1.407 . S
C52 C51 1.392 . S
N53 C51 1.420 . S
N53 C54 1.244 . S
C54 N53 1.244 . S
H55 C58 0.929 . S
H56 C61 0.929 . S
H57 C63 0.930 . S
C58 H55 0.929 . S
C58 C59 1.398 . S
C58 C60 1.396 . S
C59 C58 1.398 . S
C59 C63 1.407 . S
C60 C58 1.396 . S
C60 C61 1.394 . S
C61 H56 0.929 . S
C61 C60 1.394 . S
C61 C62 1.382 . S
C62 C61 1.382 . S
C62 C63 1.392 . S
C62 N64 1.420 . S
C63 H57 0.930 . S
C63 C59 1.407 . S
C63 C62 1.392 . S
N64 C62 1.420 . S
N64 C65 1.244 . S
C65 N64 1.244 . S
H66 C69 0.929 . S
H67 C72 0.929 . S
H68 C74 0.930 . S
C69 H66 0.929 . S
C69 C70 1.398 1_565 S
C69 C71 1.389 1_565 S
C70 C69 1.398 1_545 S
C70 C74 1.407 . S
C71 C69 1.389 1_545 S
C71 C72 1.400 . S
C72 H67 0.929 . S
C72 C71 1.400 . S
C72 C73 1.382 . S
C73 C72 1.382 . S
C73 C74 1.392 . S
C73 N75 1.420 . S
C74 H68 0.930 . S
C74 C70 1.407 . S
C74 C73 1.392 . S
N75 C73 1.420 . S
N75 C76 1.238 1_545 S
C76 N75 1.238 1_565 S
H77 C80 0.929 . S
H78 C83 0.929 . S
H79 C85 0.930 . S
C80 H77 0.929 . S
C80 C81 1.398 . S
C80 C82 1.396 . S
C81 C80 1.398 . S
C81 C85 1.407 . S
C82 C80 1.396 . S
C82 C83 1.394 . S
C83 H78 0.929 . S
C83 C82 1.394 . S
C83 C84 1.382 . S
C84 C83 1.382 . S
C84 C85 1.392 . S
C84 N86 1.420 . S
C85 H79 0.930 . S
C85 C81 1.407 . S
C85 C84 1.392 . S
N86 C84 1.420 . S
N86 C87 1.244 . S
C87 N86 1.244 . S
Co88 N93 2.057 1_556 S
Co88 O105 2.021 . S
Co88 O108 2.062 . S
Co88 O112 2.117 1_455 S
Co88 O113 2.020 1_545 S
C89 O109 1.259 1_545 S
C89 O112 1.258 . S
Co90 N99 2.057 . S
Co90 O106 2.117 . S
Co90 O107 2.020 1_565 S
Co90 O109 2.021 1_455 S
Co90 O114 2.062 . S
C91 N93 1.316 . S
C91 N94 1.347 . S
C91 H96 0.931 . S
C92 N93 1.375 . S
C92 C95 1.350 . S
C92 H97 0.930 1_455 S
N93 Co88 2.057 1_554 S
N93 C91 1.316 . S
N93 C92 1.375 . S
N94 C91 1.347 . S
N94 C95 1.373 . S
C95 C92 1.350 . S
C95 N94 1.373 . S
C95 H116 0.931 . S
H96 C91 0.931 . S
H97 C92 0.930 1_655 S
C98 O105 1.259 1_565 S
C98 O106 1.258 . S
N99 Co90 2.057 . S
N99 C100 1.316 1_455 S
N99 C101 1.375 . S
C100 N99 1.316 1_655 S
C100 N102 1.347 . S
C100 H111 0.931 . S
C101 N99 1.375 . S
C101 C103 1.350 . S
C101 H110 0.930 . S
N102 C100 1.347 . S
N102 C103 1.373 1_655 S
C103 C101 1.350 . S
C103 N102 1.373 1_455 S
C103 H117 0.931 . S
C104 O107 1.256 . S
C104 O108 1.255 . S
O105 Co88 2.021 . S
O105 C98 1.259 1_545 S
O106 Co90 2.117 . S
O106 C98 1.258 . S
O107 Co90 2.020 1_545 S
O107 C104 1.256 . S
O108 Co88 2.062 . S
O108 C104 1.255 . S
O109 C89 1.259 1_565 S
O109 Co90 2.021 1_655 S
H110 C101 0.930 . S
H111 C100 0.931 . S
O112 Co88 2.117 1_655 S
O112 C89 1.258 . S
O113 Co88 2.020 1_565 S
O113 C115 1.256 . S
O114 Co90 2.062 . S
O114 C115 1.255 . S
C115 O113 1.256 . S
C115 O114 1.255 . S
H116 C95 0.931 . S
H117 C103 0.931 . S
Co118 N123 2.057 1_546 S
Co118 O135 2.021 . S
Co118 O138 2.062 . S
Co118 O142 2.117 1_545 S
Co118 O143 2.020 . S
C119 O139 1.259 . S
C119 O142 1.258 . S
Co120 N129 2.057 1_565 S
Co120 O136 2.117 1_565 S
Co120 O137 2.020 . S
Co120 O139 2.021 . S
Co120 O144 2.062 . S
C121 N123 1.316 1_545 S
C121 N124 1.347 . S
C121 H126 0.931 . S
C122 N123 1.375 . S
C122 C125 1.350 . S
C122 H127 0.930 . S
N123 Co118 2.057 1_564 S
N123 C121 1.316 1_565 S
N123 C122 1.375 . S
N124 C121 1.347 . S
N124 C125 1.373 1_545 S
C125 C122 1.350 . S
C125 N124 1.373 1_565 S
C125 H146 0.931 . S
H126 C121 0.931 . S
H127 C122 0.930 . S
C128 O135 1.259 . S
C128 O136 1.258 . S
N129 Co120 2.057 1_545 S
N129 C130 1.316 1_545 S
N129 C131 1.375 . S
C130 N129 1.316 1_565 S
C130 N132 1.347 . S
C130 H141 0.931 . S
C131 N129 1.375 . S
C131 C133 1.350 . S
C131 H140 0.930 . S
N132 C130 1.347 . S
N132 C133 1.373 1_565 S
C133 C131 1.350 . S
C133 N132 1.373 1_545 S
C133 H147 0.931 . S
C134 O137 1.256 . S
C134 O138 1.255 1_565 S
O135 Co118 2.021 . S
O135 C128 1.259 . S
O136 Co120 2.117 1_545 S
O136 C128 1.258 . S
O137 Co120 2.020 . S
O137 C134 1.256 . S
O138 Co118 2.062 . S
O138 C134 1.255 1_545 S
O139 C119 1.259 . S
O139 Co120 2.021 . S
H140 C131 0.930 . S
H141 C130 0.931 . S
O142 Co118 2.117 1_565 S
O142 C119 1.258 . S
O143 Co118 2.020 . S
O143 C145 1.256 . S
O144 Co120 2.062 . S
O144 C145 1.255 1_565 S
C145 O143 1.256 . S
C145 O144 1.255 1_545 S
H146 C125 0.931 . S
H147 C133 0.931 . S
Co148 N153 2.057 . S
Co148 O165 2.021 . S
Co148 O168 2.062 . S
Co148 O172 2.117 . S
Co148 O173 2.020 . S
C149 O169 1.259 . S
C149 O172 1.258 . S
Co150 N159 2.057 . S
Co150 O166 2.117 . S
Co150 O167 2.020 . S
Co150 O169 2.021 . S
Co150 O174 2.062 . S
C151 N153 1.316 . S
C151 N154 1.347 . S
C151 H156 0.931 . S
C152 N153 1.375 . S
C152 C155 1.350 1_556 S
C152 H157 0.930 1_556 S
N153 Co148 2.057 . S
N153 C151 1.316 . S
N153 C152 1.375 . S
N154 C151 1.347 . S
N154 C155 1.373 1_556 S
C155 C152 1.350 1_554 S
C155 N154 1.373 1_554 S
C155 H176 0.931 . S
H156 C151 0.931 . S
H157 C152 0.930 1_554 S
C158 O165 1.259 . S
C158 O166 1.258 . S
N159 Co150 2.057 . S
N159 C160 1.316 . S
N159 C161 1.375 . S
C160 N159 1.316 . S
C160 N162 1.347 . S
C160 H171 0.931 . S
C161 N159 1.375 . S
C161 C163 1.350 . S
C161 H170 0.930 . S
N162 C160 1.347 . S
N162 C163 1.373 . S
C163 C161 1.350 . S
C163 N162 1.373 . S
C163 H177 0.931 . S
C164 O167 1.256 . S
C164 O168 1.255 . S
O165 Co148 2.021 . S
O165 C158 1.259 . S
O166 Co150 2.117 . S
O166 C158 1.258 . S
O167 Co150 2.020 . S
O167 C164 1.256 . S
O168 Co148 2.062 . S
O168 C164 1.255 . S
O169 C149 1.259 . S
O169 Co150 2.021 . S
H170 C161 0.930 . S
H171 C160 0.931 . S
O172 Co148 2.117 . S
O172 C149 1.258 . S
O173 Co148 2.020 . S
O173 C175 1.256 . S
O174 Co150 2.062 . S
O174 C175 1.255 . S
C175 O173 1.256 . S
C175 O174 1.255 . S
H176 C155 0.931 . S
H177 C163 0.931 . S
Co178 N183 2.057 . S
Co178 O195 2.021 1_455 S
Co178 O198 2.062 1_455 S
Co178 O202 2.117 . S
Co178 O203 2.020 . S
C179 O199 1.259 . S
C179 O202 1.258 . S
Co180 N189 2.057 . S
Co180 O196 2.117 1_455 S
Co180 O197 2.020 1_455 S
Co180 O199 2.021 . S
Co180 O204 2.062 . S
C181 N183 1.316 . S
C181 N184 1.347 . S
C181 H186 0.931 1_455 S
C182 N183 1.375 . S
C182 C185 1.350 . S
C182 H187 0.930 . S
N183 Co178 2.057 . S
N183 C181 1.316 . S
N183 C182 1.375 . S
N184 C181 1.347 . S
N184 C185 1.373 . S
C185 C182 1.350 . S
C185 N184 1.373 . S
C185 H206 0.931 . S
H186 C181 0.931 1_655 S
H187 C182 0.930 . S
C188 O195 1.259 . S
C188 O196 1.258 . S
N189 Co180 2.057 . S
N189 C190 1.316 . S
N189 C191 1.375 1_455 S
C190 N189 1.316 . S
C190 N192 1.347 . S
C190 H201 0.931 . S
C191 N189 1.375 1_655 S
C191 C193 1.350 1_655 S
C191 H200 0.930 . S
N192 C190 1.347 . S
N192 C193 1.373 . S
C193 C191 1.350 1_455 S
C193 N192 1.373 . S
C193 H207 0.931 1_455 S
C194 O197 1.256 . S
C194 O198 1.255 . S
O195 Co178 2.021 1_655 S
O195 C188 1.259 . S
O196 Co180 2.117 1_655 S
O196 C188 1.258 . S
O197 Co180 2.020 1_655 S
O197 C194 1.256 . S
O198 Co178 2.062 1_655 S
O198 C194 1.255 . S
O199 C179 1.259 . S
O199 Co180 2.021 . S
H200 C191 0.930 . S
H201 C190 0.931 . S
O202 Co178 2.117 . S
O202 C179 1.258 . S
O203 Co178 2.020 . S
O203 C205 1.256 . S
O204 Co180 2.062 . S
O204 C205 1.255 . S
C205 O203 1.256 . S
C205 O204 1.255 . S
H206 C185 0.931 . S
H207 C193 0.931 1_655 S
C208 C209 1.363 1_545 S
C208 C214 1.379 . S
C208 N216 1.356 . S
C209 C208 1.363 1_565 S
C209 C215 1.363 . S
C210 C211 1.363 . S
C210 C215 1.379 . S
C210 N217 1.356 . S
C211 C210 1.363 . S
C211 C214 1.363 1_565 S
N212 C214 1.356 . S
N212 H224 0.984 . S
N212 H225 0.985 . S
N213 C215 1.356 . S
N213 H218 0.984 . S
N213 H219 0.985 . S
C214 C208 1.379 . S
C214 C211 1.363 1_545 S
C214 N212 1.356 . S
C215 C209 1.363 . S
C215 C210 1.379 . S
C215 N213 1.356 . S
N216 C208 1.356 . S
N216 H222 0.984 . S
N216 H223 0.984 . S
N217 C210 1.356 . S
N217 H220 0.984 . S
N217 H221 0.985 . S
H218 N213 0.984 . S
H219 N213 0.985 . S
H220 N217 0.984 . S
H221 N217 0.985 . S
H222 N216 0.984 . S
H223 N216 0.984 . S
H224 N212 0.984 . S
H225 N212 0.985 . S
C226 C227 1.363 . S
C226 C232 1.379 . S
C226 N234 1.356 . S
C227 C226 1.363 . S
C227 C233 1.363 . S
C228 C229 1.363 . S
C228 C233 1.379 . S
C228 N235 1.356 . S
C229 C228 1.363 . S
C229 C232 1.363 . S
N230 C232 1.356 . S
N230 H242 0.984 . S
N230 H243 0.985 . S
N231 C233 1.356 . S
N231 H236 0.984 . S
N231 H237 0.985 . S
C232 C226 1.379 . S
C232 C229 1.363 . S
C232 N230 1.356 . S
C233 C227 1.363 . S
C233 C228 1.379 . S
C233 N231 1.356 . S
N234 C226 1.356 . S
N234 H240 0.984 . S
N234 H241 0.984 . S
N235 C228 1.356 . S
N235 H238 0.984 . S
N235 H239 0.985 . S
H236 N231 0.984 . S
H237 N231 0.985 . S
H238 N235 0.984 . S
H239 N235 0.985 . S
H240 N234 0.984 . S
H241 N234 0.984 . S
H242 N230 0.984 . S
H243 N230 0.985 . S
C244 C245 1.363 . S
C244 C250 1.379 . S
C244 N252 1.356 . S
C245 C244 1.363 . S
C245 C251 1.363 . S
C246 C247 1.363 . S
C246 C251 1.379 . S
C246 N253 1.356 . S
C247 C246 1.363 . S
C247 C250 1.363 . S
N248 C250 1.356 . S
N248 H260 0.984 . S
N248 H261 0.985 . S
N249 C251 1.356 . S
N249 H254 0.984 . S
N249 H255 0.985 . S
C250 C244 1.379 . S
C250 C247 1.363 . S
C250 N248 1.356 . S
C251 C245 1.363 . S
C251 C246 1.379 . S
C251 N249 1.356 . S
N252 C244 1.356 . S
N252 H258 0.984 . S
N252 H259 0.984 . S
N253 C246 1.356 . S
N253 H256 0.984 . S
N253 H257 0.985 . S
H254 N249 0.984 . S
H255 N249 0.985 . S
H256 N253 0.984 . S
H257 N253 0.985 . S
H258 N252 0.984 . S
H259 N252 0.984 . S
H260 N248 0.984 . S
H261 N248 0.985 . S
C262 C263 1.363 . S
C262 C268 1.379 . S
C262 N270 1.356 . S
C263 C262 1.363 . S
C263 C269 1.363 . S
C264 C265 1.363 . S
C264 C269 1.379 . S
C264 N271 1.356 . S
C265 C264 1.363 . S
C265 C268 1.363 . S
N266 C268 1.356 1_655 S
N266 H278 0.984 . S
N266 H279 0.985 . S
N267 C269 1.356 . S
N267 H272 0.984 . S
N267 H273 0.985 . S
C268 C262 1.379 . S
C268 C265 1.363 . S
C268 N266 1.356 1_455 S
C269 C263 1.363 . S
C269 C264 1.379 . S
C269 N267 1.356 . S
N270 C262 1.356 . S
N270 H276 0.984 . S
N270 H277 0.984 . S
N271 C264 1.356 . S
N271 H274 0.984 . S
N271 H275 0.985 . S
H272 N267 0.984 . S
H273 N267 0.985 . S
H274 N271 0.984 . S
H275 N271 0.985 . S
H276 N270 0.984 . S
H277 N270 0.984 . S
H278 N266 0.984 . S
H279 N266 0.985 . S
C280 C281 1.363 . S
C280 C286 1.379 . S
C280 N288 1.356 . S
C281 C280 1.363 . S
C281 C287 1.363 1_545 S
C282 C283 1.363 1_565 S
C282 C287 1.379 . S
C282 N289 1.356 . S
C283 C282 1.363 1_545 S
C283 C286 1.363 . S
N284 C286 1.356 . S
N284 H296 0.984 . S
N284 H297 0.985 . S
N285 C287 1.356 1_554 S
N285 H290 0.984 . S
N285 H291 0.985 . S
C286 C280 1.379 . S
C286 C283 1.363 . S
C286 N284 1.356 . S
C287 C281 1.363 1_565 S
C287 C282 1.379 . S
C287 N285 1.356 1_556 S
N288 C280 1.356 . S
N288 H294 0.984 . S
N288 H295 0.984 . S
N289 C282 1.356 . S
N289 H292 0.984 . S
N289 H293 0.985 . S
H290 N285 0.984 . S
H291 N285 0.985 . S
H292 N289 0.984 . S
H293 N289 0.985 . S
H294 N288 0.984 . S
H295 N288 0.984 . S
H296 N284 0.984 . S
H297 N284 0.985 . S
C298 C299 1.363 1_556 S
C298 C304 1.379 . S
C298 N306 1.356 . S
C299 C298 1.363 1_554 S
C299 C305 1.363 . S
C300 C301 1.363 1_554 S
C300 C305 1.379 . S
C300 N307 1.356 . S
C301 C300 1.363 1_556 S
C301 C304 1.363 . S
N302 C304 1.356 . S
N302 H314 0.984 . S
N302 H315 0.985 . S
N303 C305 1.356 . S
N303 H308 0.984 . S
N303 H309 0.985 . S
C304 C298 1.379 . S
C304 C301 1.363 . S
C304 N302 1.356 . S
C305 C299 1.363 . S
C305 C300 1.379 . S
C305 N303 1.356 . S
N306 C298 1.356 . S
N306 H312 0.984 . S
N306 H313 0.984 . S
N307 C300 1.356 . S
N307 H310 0.984 1_554 S
N307 H311 0.985 . S
H308 N303 0.984 . S
H309 N303 0.985 . S
H310 N307 0.984 1_556 S
H311 N307 0.985 . S
H312 N306 0.984 . S
H313 N306 0.984 . S
H314 N302 0.984 . S
H315 N302 0.985 . S
C316 C317 1.363 . S
C316 C322 1.379 . S
C316 N324 1.356 . S
C317 C316 1.363 . S
C317 C323 1.363 . S
C318 C319 1.363 . S
C318 C323 1.379 1_556 S
C318 N325 1.356 . S
C319 C318 1.363 . S
C319 C322 1.363 1_556 S
N320 C322 1.356 1_556 S
N320 H332 0.984 . S
N320 H333 0.985 . S
N321 C323 1.356 . S
N321 H326 0.984 . S
N321 H327 0.985 . S
C322 C316 1.379 . S
C322 C319 1.363 1_554 S
C322 N320 1.356 1_554 S
C323 C317 1.363 . S
C323 C318 1.379 1_554 S
C323 N321 1.356 . S
N324 C316 1.356 . S
N324 H330 0.984 . S
N324 H331 0.984 . S
N325 C318 1.356 . S
N325 H328 0.984 . S
N325 H329 0.985 . S
H326 N321 0.984 . S
H327 N321 0.985 . S
H328 N325 0.984 . S
H329 N325 0.985 . S
H330 N324 0.984 . S
H331 N324 0.984 . S
H332 N320 0.984 . S
H333 N320 0.985 . S
C334 C335 1.363 1_556 S
C334 C340 1.379 . S
C334 N342 1.356 . S
C335 C334 1.363 1_554 S
C335 C341 1.363 . S
C336 C337 1.363 1_455 S
C336 C341 1.379 1_456 S
C336 N343 1.356 1_556 S
C337 C336 1.363 1_655 S
C337 C340 1.363 . S
N338 C340 1.356 . S
N338 H350 0.984 . S
N338 H351 0.985 . S
N339 C341 1.356 . S
N339 H344 0.984 . S
N339 H345 0.985 1_655 S
C340 C334 1.379 . S
C340 C337 1.363 . S
C340 N338 1.356 . S
C341 C335 1.363 . S
C341 C336 1.379 1_654 S
C341 N339 1.356 . S
N342 C334 1.356 . S
N342 H348 0.984 . S
N342 H349 0.984 . S
N343 C336 1.356 1_554 S
N343 H346 0.984 1_554 S
N343 H347 0.985 . S
H344 N339 0.984 . S
H345 N339 0.985 1_455 S
H346 N343 0.984 1_556 S
H347 N343 0.985 . S
H348 N342 0.984 . S
H349 N342 0.984 . S
H350 N338 0.984 . S
H351 N338 0.985 . S
C352 C353 1.363 . S
C352 C358 1.379 . S
C352 N360 1.356 . S
C353 C352 1.363 . S
C353 C359 1.363 . S
C354 C355 1.363 . S
C354 C359 1.379 . S
C354 N361 1.356 . S
C355 C354 1.363 . S
C355 C358 1.363 . S
N356 C358 1.356 . S
N356 H368 0.984 1_455 S
N356 H369 0.985 1_455 S
N357 C359 1.356 . S
N357 H362 0.984 . S
N357 H363 0.985 . S
C358 C352 1.379 . S
C358 C355 1.363 . S
C358 N356 1.356 . S
C359 C353 1.363 . S
C359 C354 1.379 . S
C359 N357 1.356 . S
N360 C352 1.356 . S
N360 H366 0.984 . S
N360 H367 0.984 . S
N361 C354 1.356 . S
N361 H364 0.984 . S
N361 H365 0.985 . S
H362 N357 0.984 . S
H363 N357 0.985 . S
H364 N361 0.984 . S
H365 N361 0.985 . S
H366 N360 0.984 . S
H367 N360 0.984 . S
H368 N356 0.984 1_655 S
H369 N356 0.985 1_655 S
C370 C371 1.350 1_545 S
C370 C376 1.379 . S
C370 N378 1.356 . S
C371 C370 1.350 1_565 S
C371 C377 1.378 . S
C372 C373 1.363 . S
C372 C377 1.379 . S
C372 N379 1.356 . S
C373 C372 1.363 . S
C373 C376 1.363 1_565 S
N374 C376 1.356 . S
N374 H386 0.984 . S
N374 H387 0.985 . S
N375 C377 1.356 . S
N375 H380 0.984 . S
N375 H381 0.985 . S
C376 C370 1.379 . S
C376 C373 1.363 1_545 S
C376 N374 1.356 . S
C377 C371 1.378 . S
C377 C372 1.379 . S
C377 N375 1.356 . S
N378 C370 1.356 . S
N378 H384 0.984 . S
N378 H385 0.984 . S
N379 C372 1.356 . S
N379 H382 0.984 . S
N379 H383 0.985 . S
H380 N375 0.984 . S
H381 N375 0.985 . S
H382 N379 0.984 . S
H383 N379 0.985 . S
H384 N378 0.984 . S
H385 N378 0.984 . S
H386 N374 0.984 . S
H387 N374 0.985 . S
C388 C389 1.363 . S
C388 C394 1.379 . S
C388 N396 1.356 . S
C389 C388 1.363 . S
C389 C395 1.363 . S
C390 C391 1.363 . S
C390 C395 1.379 . S
C390 N397 1.356 . S
C391 C390 1.363 . S
C391 C394 1.363 . S
N392 C394 1.356 . S
N392 H404 0.984 . S
N392 H405 0.985 . S
N393 C395 1.356 . S
N393 H398 0.984 . S
N393 H399 0.985 . S
C394 C388 1.379 . S
C394 C391 1.363 . S
C394 N392 1.356 . S
C395 C389 1.363 . S
C395 C390 1.379 . S
C395 N393 1.356 . S
N396 C388 1.356 . S
N396 H402 0.984 . S
N396 H403 0.984 . S
N397 C390 1.356 . S
N397 H400 0.984 . S
N397 H401 0.985 . S
H398 N393 0.984 . S
H399 N393 0.985 . S
H400 N397 0.984 . S
H401 N397 0.985 . S
H402 N396 0.984 . S
H403 N396 0.984 . S
H404 N392 0.984 . S
H405 N392 0.985 . S
C406 C407 1.363 . S
C406 C412 1.379 . S
C406 N414 1.356 . S
C407 C406 1.363 . S
C407 C413 1.363 . S
C408 C409 1.363 . S
C408 C413 1.379 . S
C408 N415 1.356 . S
C409 C408 1.363 . S
C409 C412 1.363 . S
N410 C412 1.356 . S
N410 H422 0.984 . S
N410 H423 0.985 . S
N411 C413 1.356 . S
N411 H416 0.984 . S
N411 H417 0.985 . S
C412 C406 1.379 . S
C412 C409 1.363 . S
C412 N410 1.356 . S
C413 C407 1.363 . S
C413 C408 1.379 . S
C413 N411 1.356 . S
N414 C406 1.356 . S
N414 H420 0.984 . S
N414 H421 0.984 . S
N415 C408 1.356 . S
N415 H418 0.984 . S
N415 H419 0.985 . S
H416 N411 0.984 . S
H417 N411 0.985 . S
H418 N415 0.984 . S
H419 N415 0.985 . S
H420 N414 0.984 . S
H421 N414 0.984 . S
H422 N410 0.984 . S
H423 N410 0.985 . S
C424 C425 1.363 . S
C424 C430 1.379 1_655 S
C424 N432 1.356 . S
C425 C424 1.363 . S
C425 C431 1.363 1_556 S
C426 C427 1.363 1_654 S
C426 C431 1.379 . S
C426 N433 1.356 . S
C427 C426 1.363 1_456 S
C427 C430 1.363 . S
N428 C430 1.356 . S
N428 H440 0.984 . S
N428 H441 0.985 . S
N429 C431 1.356 . S
N429 H434 0.984 . S
N429 H435 0.985 . S
C430 C424 1.379 1_455 S
C430 C427 1.363 . S
C430 N428 1.356 . S
C431 C425 1.363 1_554 S
C431 C426 1.379 . S
C431 N429 1.356 . S
N432 C424 1.356 . S
N432 H438 1.002 . S
N432 H439 0.984 . S
N433 C426 1.356 . S
N433 H436 0.984 1_655 S
N433 H437 0.985 . S
H434 N429 0.984 . S
H435 N429 0.985 . S
H436 N433 0.984 1_455 S
H437 N433 0.985 . S
H438 N432 1.002 . S
H439 N432 0.984 . S
H440 N428 0.984 . S
H441 N428 0.985 . S
C442 C443 1.355 1_565 S
C442 C448 1.379 . S
C442 N450 1.356 . S
C443 C442 1.355 1_545 S
C443 C449 1.374 1_556 S
C444 C445 1.363 1_554 S
C444 C449 1.379 . S
C444 N451 1.356 . S
C445 C444 1.363 1_556 S
C445 C448 1.363 1_545 S
N446 C448 1.356 . S
N446 H458 0.984 . S
N446 H459 0.985 . S
N447 C449 1.356 . S
N447 H452 0.984 . S
N447 H453 0.985 . S
C448 C442 1.379 . S
C448 C445 1.363 1_565 S
C448 N446 1.356 . S
C449 C443 1.374 1_554 S
C449 C444 1.379 . S
C449 N447 1.356 . S
N450 C442 1.356 . S
N450 H456 0.984 . S
N450 H457 0.984 . S
N451 C444 1.356 . S
N451 H454 0.984 . S
N451 H455 0.985 . S
H452 N447 0.984 . S
H453 N447 0.985 . S
H454 N451 0.984 . S
H455 N451 0.985 . S
H456 N450 0.984 . S
H457 N450 0.984 . S
H458 N446 0.984 . S
H459 N446 0.985 . S
C460 C461 1.363 . S
C460 C466 1.379 . S
C460 N468 1.356 . S
C461 C460 1.363 . S
C461 C467 1.363 1_554 S
C462 C463 1.363 . S
C462 C467 1.379 . S
C462 N469 1.356 . S
C463 C462 1.363 . S
C463 C466 1.363 1_556 S
N464 C466 1.356 . S
N464 H476 0.984 . S
N464 H477 0.985 . S
N465 C467 1.356 . S
N465 H470 0.984 . S
N465 H471 0.985 . S
C466 C460 1.379 . S
C466 C463 1.363 1_554 S
C466 N464 1.356 . S
C467 C461 1.363 1_556 S
C467 C462 1.379 . S
C467 N465 1.356 . S
N468 C460 1.356 . S
N468 H474 0.984 . S
N468 H475 0.984 . S
N469 C462 1.356 . S
N469 H472 0.984 . S
N469 H473 0.985 . S
H470 N465 0.984 . S
H471 N465 0.985 . S
H472 N469 0.984 . S
H473 N469 0.985 . S
H474 N468 0.984 . S
H475 N468 0.984 . S
H476 N464 0.984 . S
H477 N464 0.985 . S
C478 C479 1.363 . S
C478 C484 1.379 . S
C478 N486 1.356 . S
C479 C478 1.363 . S
C479 C485 1.369 . S
C480 C481 1.363 . S
C480 C485 1.374 1_556 S
C480 N487 1.356 . S
C481 C480 1.363 . S
C481 C484 1.363 1_556 S
N482 C484 1.356 . S
N482 H494 0.984 . S
N482 H495 0.985 . S
N483 C485 1.357 1_556 S
N483 H488 0.984 1_556 S
N483 H489 0.985 . S
C484 C478 1.379 . S
C484 C481 1.363 1_554 S
C484 N482 1.356 . S
C485 C479 1.369 . S
C485 C480 1.374 1_554 S
C485 N483 1.357 1_554 S
N486 C478 1.356 . S
N486 H492 0.984 . S
N486 H493 0.984 . S
N487 C480 1.356 . S
N487 H490 0.984 . S
N487 H491 0.985 . S
H488 N483 0.984 1_554 S
H489 N483 0.985 . S
H490 N487 0.984 . S
H491 N487 0.985 . S
H492 N486 0.984 . S
H493 N486 0.984 . S
H494 N482 0.984 . S
H495 N482 0.985 . S
C496 C497 1.363 . S
C496 C502 1.379 . S
C496 N504 1.356 . S
C497 C496 1.363 . S
C497 C503 1.363 . S
C498 C499 1.363 . S
C498 C503 1.379 . S
C498 N505 1.356 . S
C499 C498 1.363 . S
C499 C502 1.363 . S
N500 C502 1.356 . S
N500 H512 0.984 . S
N500 H513 0.985 . S
N501 C503 1.356 . S
N501 H506 0.984 . S
N501 H507 0.985 . S
C502 C496 1.379 . S
C502 C499 1.363 . S
C502 N500 1.356 . S
C503 C497 1.363 . S
C503 C498 1.379 . S
C503 N501 1.356 . S
N504 C496 1.356 . S
N504 H510 0.984 . S
N504 H511 0.984 . S
N505 C498 1.356 . S
N505 H508 0.984 . S
N505 H509 0.985 . S
H506 N501 0.984 . S
H507 N501 0.985 . S
H508 N505 0.984 . S
H509 N505 0.985 . S
H510 N504 0.984 . S
H511 N504 0.984 . S
H512 N500 0.984 . S
H513 N500 0.985 . S
C514 C515 1.363 . S
C514 C520 1.379 . S
C514 N522 1.356 . S
C515 C514 1.363 . S
C515 C521 1.363 1_545 S
C516 C517 1.363 1_565 S
C516 C521 1.379 . S
C516 N523 1.356 . S
C517 C516 1.363 1_545 S
C517 C520 1.363 . S
N518 C520 1.356 . S
N518 H530 0.984 . S
N518 H531 0.985 . S
N519 C521 1.356 . S
N519 H524 0.984 . S
N519 H525 0.985 . S
C520 C514 1.379 . S
C520 C517 1.363 . S
C520 N518 1.356 . S
C521 C515 1.363 1_565 S
C521 C516 1.379 . S
C521 N519 1.356 . S
N522 C514 1.356 . S
N522 H528 0.984 . S
N522 H529 0.984 . S
N523 C516 1.356 . S
N523 H526 0.984 . S
N523 H527 0.985 . S
H524 N519 0.984 . S
H525 N519 0.985 . S
H526 N523 0.984 . S
H527 N523 0.985 . S
H528 N522 0.984 . S
H529 N522 0.984 . S
H530 N518 0.984 . S
H531 N518 0.985 . S
C532 C533 1.363 . S
C532 C538 1.379 . S
C532 N540 1.356 . S
C533 C532 1.363 . S
C533 C539 1.363 . S
C534 C535 1.363 . S
C534 C539 1.379 . S
C534 N541 1.356 1_554 S
C535 C534 1.363 . S
C535 C538 1.363 . S
N536 C538 1.356 . S
N536 H548 0.984 . S
N536 H549 0.985 . S
N537 C539 1.356 . S
N537 H542 0.984 . S
N537 H543 0.985 . S
C538 C532 1.379 . S
C538 C535 1.363 . S
C538 N536 1.356 . S
C539 C533 1.363 . S
C539 C534 1.379 . S
C539 N537 1.356 . S
N540 C532 1.356 . S
N540 H546 0.984 . S
N540 H547 0.984 . S
N541 C534 1.356 1_556 S
N541 H544 0.984 . S
N541 H545 0.985 . S
H542 N537 0.984 . S
H543 N537 0.985 . S
H544 N541 0.984 . S
H545 N541 0.985 . S
H546 N540 0.984 . S
H547 N540 0.984 . S
H548 N536 0.984 . S
H549 N536 0.985 . S
C550 C551 1.363 . S
C550 C556 1.379 . S
C550 N558 1.356 . S
C551 C550 1.363 . S
C551 C557 1.363 . S
C552 C553 1.363 . S
C552 C557 1.379 . S
C552 N559 1.356 . S
C553 C552 1.363 . S
C553 C556 1.363 . S
N554 C556 1.356 1_556 S
N554 H566 0.984 . S
N554 H567 0.985 . S
N555 C557 1.356 . S
N555 H560 0.984 . S
N555 H561 0.985 . S
C556 C550 1.379 . S
C556 C553 1.363 . S
C556 N554 1.356 1_554 S
C557 C551 1.363 . S
C557 C552 1.379 . S
C557 N555 1.356 . S
N558 C550 1.356 . S
N558 H564 0.984 . S
N558 H565 0.984 . S
N559 C552 1.356 . S
N559 H562 0.984 . S
N559 H563 0.985 . S
H560 N555 0.984 . S
H561 N555 0.985 . S
H562 N559 0.984 . S
H563 N559 0.985 . S
H564 N558 0.984 . S
H565 N558 0.984 . S
H566 N554 0.984 . S
H567 N554 0.985 . S
C568 C569 1.363 . S
C568 C574 1.379 . S
C568 N576 1.356 . S
C569 C568 1.363 . S
C569 C575 1.363 . S
C570 C571 1.356 1_455 S
C570 C575 1.377 1_455 S
C570 N577 1.364 . S
C571 C570 1.356 1_655 S
C571 C574 1.363 . S
N572 C574 1.356 . S
N572 H584 0.984 . S
N572 H585 0.985 . S
N573 C575 1.356 1_455 S
N573 H578 0.984 1_455 S
N573 H579 0.985 . S
C574 C568 1.379 . S
C574 C571 1.363 . S
C574 N572 1.356 . S
C575 C569 1.363 . S
C575 C570 1.377 1_655 S
C575 N573 1.356 1_655 S
N576 C568 1.356 . S
N576 H582 0.984 . S
N576 H583 0.984 . S
N577 C570 1.364 . S
N577 H580 0.984 . S
N577 H581 0.985 . S
H578 N573 0.984 1_655 S
H579 N573 0.985 . S
H580 N577 0.984 . S
H581 N577 0.985 . S
H582 N576 0.984 . S
H583 N576 0.984 . S
H584 N572 0.984 . S
H585 N572 0.985 . S
C586 C587 1.363 . S
C586 C592 1.379 . S
C586 N594 1.356 . S
C587 C586 1.363 . S
C587 C593 1.363 1_565 S
C588 C589 1.363 1_545 S
C588 C593 1.379 . S
C588 N595 1.356 . S
C589 C588 1.363 1_565 S
C589 C592 1.363 . S
N590 C592 1.356 . S
N590 H602 0.984 . S
N590 H603 0.985 . S
N591 C593 1.356 . S
N591 H596 0.984 . S
N591 H597 0.985 . S
C592 C586 1.379 . S
C592 C589 1.363 . S
C592 N590 1.356 . S
C593 C587 1.363 1_545 S
C593 C588 1.379 . S
C593 N591 1.356 . S
N594 C586 1.356 . S
N594 H600 0.984 . S
N594 H601 0.984 . S
N595 C588 1.356 . S
N595 H598 0.984 . S
N595 H599 0.985 . S
H596 N591 0.984 . S
H597 N591 0.985 . S
H598 N595 0.984 . S
H599 N595 0.985 . S
H600 N594 0.984 . S
H601 N594 0.984 . S
H602 N590 0.984 . S
H603 N590 0.985 . S
C604 C605 1.363 . S
C604 C610 1.379 . S
C604 N612 1.356 . S
C605 C604 1.363 . S
C605 C611 1.363 . S
C606 C607 1.363 . S
C606 C611 1.379 . S
C606 N613 1.356 . S
C607 C606 1.363 . S
C607 C610 1.363 . S
N608 C610 1.356 . S
N608 H620 0.984 . S
N608 H621 0.985 . S
N609 C611 1.356 . S
N609 H614 0.984 . S
N609 H615 0.985 . S
C610 C604 1.379 . S
C610 C607 1.363 . S
C610 N608 1.356 . S
C611 C605 1.363 . S
C611 C606 1.379 . S
C611 N609 1.356 . S
N612 C604 1.356 . S
N612 H618 0.984 . S
N612 H619 0.984 . S
N613 C606 1.356 . S
N613 H616 0.984 . S
N613 H617 0.985 . S
H614 N609 0.984 . S
H615 N609 0.985 . S
H616 N613 0.984 . S
H617 N613 0.985 . S
H618 N612 0.984 . S
H619 N612 0.984 . S
H620 N608 0.984 . S
H621 N608 0.985 . S
C622 C623 1.363 . S
C622 C628 1.379 . S
C622 N630 1.356 . S
C623 C622 1.363 . S
C623 C629 1.363 . S
C624 C625 1.363 . S
C624 C629 1.379 . S
C624 N631 1.356 . S
C625 C624 1.363 . S
C625 C628 1.363 . S
N626 C628 1.356 . S
N626 H638 0.984 . S
N626 H639 0.985 . S
N627 C629 1.356 . S
N627 H632 0.984 . S
N627 H633 0.985 . S
C628 C622 1.379 . S
C628 C625 1.363 . S
C628 N626 1.356 . S
C629 C623 1.363 . S
C629 C624 1.379 . S
C629 N627 1.356 . S
N630 C622 1.356 . S
N630 H636 0.984 . S
N630 H637 0.984 . S
N631 C624 1.356 . S
N631 H634 0.984 . S
N631 H635 0.985 . S
H632 N627 0.984 . S
H633 N627 0.985 . S
H634 N631 0.984 . S
H635 N631 0.985 . S
H636 N630 0.984 . S
H637 N630 0.984 . S
H638 N626 0.984 . S
H639 N626 0.985 . S
C209 C76 1.709 . S
C211 C98 1.717 . S
C229 C128 1.799 . S
C227 C87 1.775 . S
C247 N162 1.377 . S
C245 C54 1.397 . S
C265 N192 1.481 . S
C263 C65 1.465 . S
C283 C89 1.717 . S
C281 C32 1.713 1_545 S
C299 C43 1.785 . S
C301 C119 1.803 . S
C317 C10 1.399 . S
C319 N154 1.377 . S
C335 C21 1.477 . S
C337 N184 1.481 1_655 S
C355 C104 0.732 . S
C353 C60 0.736 . S
C373 C134 1.103 . S
C371 C71 1.036 1_565 S
C391 C175 1.360 . S
C389 C82 1.323 . S
C407 C49 0.848 . S
C409 C205 0.847 . S
C425 C16 0.739 1_556 S
C427 C115 0.735 . S
C445 C145 1.103 . S
C443 C27 1.032 . S
C463 C164 1.360 . S
C461 C38 1.316 . S
C479 C5 0.846 . S
C481 C194 0.847 . S
C497 C59 1.466 . S
C499 N94 1.488 . S
C515 C70 1.427 . S
C517 N124 1.441 . S
C535 C149 1.667 1_554 S
C533 C81 1.636 . S
C553 C179 1.595 1_554 S
C551 C48 1.561 . S
C569 C15 1.457 . S
C571 N102 1.493 . S
C589 N132 1.441 . S
C587 C26 1.432 1_565 S
C607 C158 1.667 . S
C605 C37 1.631 . S
C623 C4 1.561 . S
C625 C188 1.595 . S
