# Generated by pormake.
# Topology nom, (4,4)-cn, num edge types: 1
# Building blocks:
#     Node 0, Type 0, BuildingBlock: AZAVOO_clean_linker_0, # of connection points: 4
#     Node 1, Type 0, BuildingBlock: AZAVOO_clean_linker_0, # of connection points: 4
#     Node 2, Type 0, BuildingBlock: AZAVOO_clean_linker_0, # of connection points: 4
#     Node 3, Type 0, BuildingBlock: AZAVOO_clean_linker_0, # of connection points: 4
#     Node 4, Type 0, BuildingBlock: AZAVOO_clean_linker_0, # of connection points: 4
#     Node 5, Type 0, BuildingBlock: AZAVOO_clean_linker_0, # of connection points: 4
#     Node 6, Type 1, BuildingBlock: NAHDIM_clean_sbu_0, # of connection points: 4
#     Node 7, Type 1, BuildingBlock: NAHDIM_clean_sbu_0, # of connection points: 4
#     Node 8, Type 1, BuildingBlock: NAHDIM_clean_sbu_0, # of connection points: 4
#     Node 9, Type 1, BuildingBlock: NAHDIM_clean_sbu_0, # of connection points: 4
#     Node 10, Type 1, BuildingBlock: NAHDIM_clean_sbu_0, # of connection points: 4
#     Node 11, Type 1, BuildingBlock: NAHDIM_clean_sbu_0, # of connection points: 4
#     Edge 12, Type (0, 1), BuildingBlock: ZUJKAS_clean_linker_0, # of connection points: 2
#     Edge 13, Type (0, 1), BuildingBlock: ZUJKAS_clean_linker_0, # of connection points: 2
#     Edge 14, Type (0, 1), BuildingBlock: ZUJKAS_clean_linker_0, # of connection points: 2
#     Edge 15, Type (0, 1), BuildingBlock: ZUJKAS_clean_linker_0, # of connection points: 2
#     Edge 16, Type (0, 1), BuildingBlock: ZUJKAS_clean_linker_0, # of connection points: 2
#     Edge 17, Type (0, 1), BuildingBlock: ZUJKAS_clean_linker_0, # of connection points: 2
#     Edge 18, Type (0, 1), BuildingBlock: ZUJKAS_clean_linker_0, # of connection points: 2
#     Edge 19, Type (0, 1), BuildingBlock: ZUJKAS_clean_linker_0, # of connection points: 2
#     Edge 20, Type (0, 1), BuildingBlock: ZUJKAS_clean_linker_0, # of connection points: 2
#     Edge 21, Type (0, 1), BuildingBlock: ZUJKAS_clean_linker_0, # of connection points: 2
#     Edge 22, Type (0, 1), BuildingBlock: ZUJKAS_clean_linker_0, # of connection points: 2
#     Edge 23, Type (0, 1), BuildingBlock: ZUJKAS_clean_linker_0, # of connection points: 2
#     Edge 24, Type (0, 1), BuildingBlock: ZUJKAS_clean_linker_0, # of connection points: 2
#     Edge 25, Type (0, 1), BuildingBlock: ZUJKAS_clean_linker_0, # of connection points: 2
#     Edge 26, Type (0, 1), BuildingBlock: ZUJKAS_clean_linker_0, # of connection points: 2
#     Edge 27, Type (0, 1), BuildingBlock: ZUJKAS_clean_linker_0, # of connection points: 2
#     Edge 28, Type (0, 1), BuildingBlock: ZUJKAS_clean_linker_0, # of connection points: 2
#     Edge 29, Type (0, 1), BuildingBlock: ZUJKAS_clean_linker_0, # of connection points: 2
#     Edge 30, Type (0, 1), BuildingBlock: ZUJKAS_clean_linker_0, # of connection points: 2
#     Edge 31, Type (0, 1), BuildingBlock: ZUJKAS_clean_linker_0, # of connection points: 2
#     Edge 32, Type (0, 1), BuildingBlock: ZUJKAS_clean_linker_0, # of connection points: 2
#     Edge 33, Type (0, 1), BuildingBlock: ZUJKAS_clean_linker_0, # of connection points: 2
#     Edge 34, Type (0, 1), BuildingBlock: ZUJKAS_clean_linker_0, # of connection points: 2
#     Edge 35, Type (0, 1), BuildingBlock: ZUJKAS_clean_linker_0, # of connection points: 2
# Relax obj value: 0.149
# Max RMSD: 0.223
# Mean RMSD: 0.170
data_MOF--net-nom--node1-NAHDIM_clean_sbu_0--node2-AZAVOO_clean_linker_0--edge1-ZUJKAS_clean_linker_0
_symmetry_space_group_name_H-M    P1
_symmetry_Int_Tables_number       1
_symmetry_cell_setting            triclinic
loop_
_symmetry_equiv_pos_as_xyz
'x, y, z'
_cell_length_a     58.88343
_cell_length_b     62.349851
_cell_length_c     75.000406
_cell_angle_alpha  89.96406
_cell_angle_beta   90.384523
_cell_angle_gamma 122.21528
loop_
_atom_site_label
_atom_site_type_symbol
_atom_site_fract_x
_atom_site_fract_y
_atom_site_fract_z
_atom_type_partial_charge
H0 H 0.07356 0.48236 0.18946 0.0
H1 H 0.20461 0.63935 0.35703 0.0
H2 H 0.01352 0.46107 0.27847 0.0
H3 H 0.97836 0.43637 0.25636 0.0
H4 H 0.95909 0.49426 0.25513 0.0
H5 H 0.99485 0.51915 0.27701 0.0
H6 H 0.0767 0.4933 0.26707 0.0
H7 H 0.07903 0.48479 0.2355 0.0
H8 H 0.04255 0.52712 0.22141 0.0
H9 H 0.04071 0.53579 0.25299 0.0
H10 H 0.12367 0.53101 0.29505 0.0
H11 H 0.16825 0.55809 0.28189 0.0
H12 H 0.13991 0.60026 0.25405 0.0
H13 H 0.09567 0.57329 0.26728 0.0
H14 H 0.10112 0.52451 0.33472 0.0
H15 H 0.14135 0.55116 0.35288 0.0
H16 H 0.15252 0.61781 0.32651 0.0
H17 H 0.11204 0.59096 0.30862 0.0
H18 H 0.03996 0.49381 0.34401 0.0
H19 H 0.04725 0.50171 0.37608 0.0
H20 H 0.07183 0.57979 0.36754 0.0
H21 H 0.06502 0.57174 0.33542 0.0
H22 H 0.9872 0.46679 0.31667 0.0
H23 H 0.94297 0.45615 0.32745 0.0
H24 H 0.97015 0.53564 0.32702 0.0
H25 H 0.01387 0.546 0.31617 0.0
O26 O 0.07259 0.48608 0.20187 0.0
O27 O 0.05357 0.50783 0.19535 0.0
O28 O 0.18191 0.59352 0.36325 0.0
O29 O 0.18869 0.62837 0.34999 0.0
C30 C 0.03135 0.50871 0.28984 0.0
C31 C 0.05665 0.51977 0.28152 0.0
C32 C 0.08033 0.53582 0.29136 0.0
C33 C 0.07883 0.53961 0.30976 0.0
C34 C 0.05353 0.52867 0.31803 0.0
C35 C 0.02978 0.51404 0.30792 0.0
C36 C 0.00672 0.49186 0.27929 0.0
C37 C 0.00126 0.46809 0.27373 0.0
C38 C 0.98111 0.45399 0.26114 0.0
C39 C 0.96608 0.46346 0.2539 0.0
C40 C 0.97058 0.48664 0.26031 0.0
C41 C 0.99077 0.50074 0.27292 0.0
C42 C 0.05837 0.51499 0.26231 0.0
C43 C 0.06931 0.50077 0.25713 0.0
C44 C 0.07056 0.49591 0.23909 0.0
C45 C 0.06089 0.5052 0.22593 0.0
C46 C 0.0501 0.51961 0.2312 0.0
C47 C 0.04895 0.52453 0.24923 0.0
C48 C 0.10651 0.55025 0.28213 0.0
C49 C 0.1271 0.54594 0.28596 0.0
C50 C 0.15249 0.56143 0.27848 0.0
C51 C 0.15755 0.5813 0.26695 0.0
C52 C 0.13654 0.5849 0.26267 0.0
C53 C 0.11128 0.56956 0.27024 0.0
C54 C 0.10375 0.55581 0.32034 0.0
C55 C 0.11231 0.54487 0.33289 0.0
C56 C 0.13528 0.56013 0.34323 0.0
C57 C 0.15016 0.58664 0.34114 0.0
C58 C 0.14155 0.59749 0.32845 0.0
C59 C 0.11851 0.5822 0.31817 0.0
C60 C 0.05221 0.53226 0.33744 0.0
C61 C 0.04622 0.51242 0.34915 0.0
C62 C 0.05037 0.51699 0.36747 0.0
C63 C 0.06048 0.54149 0.37435 0.0
C64 C 0.06454 0.56085 0.36263 0.0
C65 C 0.06046 0.55626 0.34431 0.0
C66 C 0.00365 0.50714 0.31565 0.0
C67 C 0.98356 0.48184 0.31905 0.0
C68 C 0.95844 0.47584 0.32524 0.0
C69 C 0.95311 0.49508 0.32792 0.0
C70 C 0.97356 0.52041 0.32484 0.0
C71 C -0.00142 0.52636 0.31878 0.0
C72 C 0.06209 0.49985 0.20679 0.0
C73 C 0.17452 0.60295 0.35215 0.0
H74 H 0.52676 0.08429 0.36995 0.0
H75 H 0.48732 0.16911 0.54968 0.0
H76 H 0.51372 0.02513 0.45607 0.0
H77 H 0.511 0.99456 0.43457 0.0
H78 H 0.42482 0.94912 0.44106 0.0
H79 H 0.42774 0.9807 0.46198 0.0
H80 H 0.52886 0.07935 0.44777 0.0
H81 H 0.53607 0.08635 0.41566 0.0
H82 H 0.45086 0.03549 0.4064 0.0
H83 H 0.44389 0.0289 0.43856 0.0
H84 H 0.53485 0.1124 0.48031 0.0
H85 H 0.54977 0.15475 0.4692 0.0
H86 H 0.4724 0.12526 0.44389 0.0
H87 H 0.45742 0.083 0.45555 0.0
H88 H 0.52318 0.09118 0.5185 0.0
H89 H 0.53135 0.12548 0.53866 0.0
H90 H 0.46069 0.1217 0.51769 0.0
H91 H 0.45257 0.08717 0.49778 0.0
H92 H 0.50578 0.03452 0.52354 0.0
H93 H 0.509 0.03787 0.55599 0.0
H94 H 0.43933 0.04415 0.55703 0.0
H95 H 0.43669 0.0413 0.52443 0.0
H96 H 0.49025 0.99228 0.49379 0.0
H97 H 0.46905 0.94916 0.50578 0.0
H98 H 0.39691 0.94909 0.51625 0.0
H99 H 0.41822 0.992 0.50437 0.0
O100 O 0.52344 0.08131 0.3826 0.0
O101 O 0.4795 0.05491 0.37855 0.0
O102 O 0.52058 0.15661 0.55229 0.0
O103 O 0.48459 0.1556 0.54184 0.0
C104 C 0.47297 0.02532 0.47225 0.0
C105 C 0.48151 0.04941 0.46499 0.0
C106 C 0.4858 0.06937 0.47627 0.0
C107 C 0.48197 0.06542 0.49482 0.0
C108 C 0.47305 0.04127 0.50204 0.0
C109 C 0.46791 0.02105 0.49072 0.0
C110 C 0.47094 0.00519 0.46051 0.0
C111 C 0.49427 0.0085 0.45289 0.0
C112 C 0.49267 0.99084 0.44073 0.0
C113 C 0.46768 0.96929 0.43606 0.0
C114 C 0.44435 0.96565 0.44416 0.0
C115 C 0.44597 0.98352 0.45623 0.0
C116 C 0.48585 0.05369 0.44548 0.0
C117 C 0.51177 0.06986 0.43878 0.0
C118 C 0.51583 0.07376 0.42044 0.0
C119 C 0.49404 0.06149 0.40845 0.0
C120 C 0.46808 0.04524 0.41525 0.0
C121 C 0.46405 0.04141 0.4336 0.0
C122 C 0.49506 0.09473 0.46877 0.0
C123 C 0.52117 0.11513 0.47236 0.0
C124 C 0.52969 0.13923 0.46588 0.0
C125 C 0.51226 0.14334 0.45564 0.0
C126 C 0.48618 0.12274 0.4519 0.0
C127 C 0.47765 0.09861 0.45842 0.0
C128 C 0.48725 0.08667 0.50674 0.0
C129 C 0.50947 0.09776 0.51833 0.0
C130 C 0.5141 0.11736 0.5298 0.0
C131 C 0.49664 0.12632 0.5298 0.0
C132 C 0.47451 0.11525 0.51804 0.0
C133 C 0.46985 0.09558 0.50663 0.0
C134 C 0.47116 0.03788 0.52167 0.0
C135 C 0.49079 0.03593 0.53083 0.0
C136 C 0.49255 0.0378 0.54939 0.0
C137 C 0.4746 0.04158 0.55911 0.0
C138 C 0.45376 0.04172 0.54991 0.0
C139 C 0.45207 0.0399 0.53133 0.0
C140 C 0.45572 0.99519 0.49818 0.0
C141 C 0.46988 0.98288 0.49868 0.0
C142 C 0.45774 0.95829 0.50549 0.0
C143 C 0.43134 0.94576 0.51202 0.0
C144 C 0.4174 0.95835 0.51161 0.0
C145 C 0.42948 0.9828 0.50475 0.0
C146 C 0.49844 0.06563 0.38897 0.0
C147 C 0.50142 0.14708 0.542 0.0
H148 H 0.56839 0.52153 0.758 0.0
H149 H 0.58675 0.44721 0.56741 0.0
H150 H 0.55818 0.57966 0.67019 0.0
H151 H 0.54767 0.59862 0.69473 0.0
H152 H 0.46431 0.53777 0.69138 0.0
H153 H 0.47511 0.51891 0.66664 0.0
H154 H 0.58108 0.54317 0.68154 0.0
H155 H 0.58395 0.53869 0.71377 0.0
H156 H 0.49766 0.48804 0.71563 0.0
H157 H 0.49515 0.49246 0.68337 0.0
H158 H 0.59653 0.51935 0.65145 0.0
H159 H 0.60937 0.49025 0.66286 0.0
H160 H 0.5259 0.43416 0.67298 0.0
H161 H 0.51335 0.46311 0.66142 0.0
H162 H 0.59248 0.54259 0.61205 0.0
H163 H 0.61192 0.52762 0.59038 0.0
H164 H 0.54607 0.45053 0.59894 0.0
H165 H 0.52664 0.46582 0.62037 0.0
H166 H 0.56328 0.57336 0.60737 0.0
H167 H 0.57414 0.58079 0.57563 0.0
H168 H 0.51907 0.50089 0.56514 0.0
H169 H 0.50783 0.49388 0.59672 0.0
H170 H 0.52978 0.58428 0.63696 0.0
H171 H 0.49719 0.59556 0.62819 0.0
H172 H 0.44319 0.51902 0.60919 0.0
H173 H 0.47531 0.50779 0.6185 0.0
O174 O 0.56681 0.52293 0.74525 0.0
O175 O 0.52239 0.4971 0.74549 0.0
O176 O 0.61282 0.49362 0.57193 0.0
O177 O 0.57961 0.45362 0.57602 0.0
C178 C 0.52509 0.53488 0.65403 0.0
C179 C 0.53628 0.52126 0.66066 0.0
C180 C 0.54579 0.51039 0.64874 0.0
C181 C 0.5459 0.51467 0.63027 0.0
C182 C 0.53408 0.52781 0.62364 0.0
C183 C 0.52256 0.5369 0.63548 0.0
C184 C 0.51739 0.54798 0.66673 0.0
C185 C 0.53755 0.57079 0.67448 0.0
C186 C 0.53149 0.58161 0.68843 0.0
C187 C 0.50518 0.56962 0.69497 0.0
C188 C 0.48477 0.5473 0.68664 0.0
C189 C 0.49083 0.5366 0.67251 0.0
C190 C 0.53791 0.51826 0.68018 0.0
C191 C 0.56285 0.53107 0.68895 0.0
C192 C 0.56441 0.5285 0.70735 0.0
C193 C 0.54102 0.51306 0.71729 0.0
C194 C 0.51605 0.50013 0.70839 0.0
C195 C 0.51454 0.50267 0.68998 0.0
C196 C 0.55404 0.49324 0.65561 0.0
C197 C 0.58111 0.50074 0.65611 0.0
C198 C 0.58838 0.48419 0.66269 0.0
C199 C 0.56861 0.4599 0.66872 0.0
C200 C 0.54153 0.45259 0.66819 0.0
C201 C 0.53434 0.46913 0.66171 0.0
C202 C 0.55822 0.50528 0.61781 0.0
C203 C 0.58235 0.52247 0.60926 0.0
C204 C 0.59338 0.51387 0.59689 0.0
C205 C 0.58054 0.48786 0.59293 0.0
C206 C 0.55648 0.47067 0.60168 0.0
C207 C 0.5454 0.47932 0.61399 0.0
C208 C 0.53509 0.53304 0.6043 0.0
C209 C 0.55287 0.55767 0.59808 0.0
C210 C 0.5592 0.56183 0.57999 0.0
C211 C 0.5478 0.54138 0.56792 0.0
C212 C 0.52809 0.5171 0.57403 0.0
C213 C 0.52172 0.513 0.59209 0.0
C214 C 0.50479 0.54516 0.62851 0.0
C215 C 0.51095 0.57004 0.63083 0.0
C216 C 0.4924 0.57647 0.62572 0.0
C217 C 0.46747 0.55808 0.61819 0.0
C218 C 0.46196 0.53348 0.61527 0.0
C219 C 0.4804 0.5271 0.62041 0.0
C220 C 0.54273 0.51048 0.73685 0.0
C221 C 0.59205 0.47865 0.57966 0.0
H222 H 0.04394 0.44214 0.93188 0.0
H223 H 0.17114 0.48353 0.74696 0.0
H224 H 0.98971 0.44922 0.84478 0.0
H225 H 0.95545 0.43307 0.86782 0.0
H226 H 0.92722 0.35634 0.85127 0.0
H227 H 0.96213 0.37285 0.82835 0.0
H228 H 0.04933 0.46857 0.85653 0.0
H229 H 0.05116 0.46514 0.88895 0.0
H230 H 0.01046 0.38365 0.88395 0.0
H231 H 0.0091 0.3874 0.85153 0.0
H232 H 0.09296 0.48955 0.82633 0.0
H233 H 0.13659 0.50387 0.83997 0.0
H234 H 0.11079 0.42605 0.85116 0.0
H235 H 0.06748 0.41189 0.83681 0.0
H236 H 0.07602 0.49142 0.7886 0.0
H237 H 0.11538 0.51042 0.7693 0.0
H238 H 0.11882 0.44314 0.77474 0.0
H239 H 0.07914 0.4242 0.79379 0.0
H240 H 0.0174 0.4715 0.78046 0.0
H241 H 0.03055 0.48936 0.7506 0.0
H242 H 0.04496 0.43041 0.73647 0.0
H243 H 0.03234 0.41307 0.76659 0.0
H244 H 0.96606 0.44037 0.80701 0.0
H245 H 0.92121 0.42025 0.79349 0.0
H246 H 0.93219 0.36325 0.76973 0.0
H247 H 0.97696 0.38363 0.78313 0.0
O248 O 0.04319 0.44307 0.91903 0.0
O249 O 0.0221 0.40125 0.91575 0.0
O250 O 0.15272 0.51051 0.75207 0.0
O251 O 0.15572 0.47656 0.7547 0.0
C252 C 0.00255 0.42215 0.82375 0.0
C253 C 0.02753 0.4304 0.83207 0.0
C254 C 0.05105 0.44115 0.82179 0.0
C255 C 0.04977 0.44429 0.80326 0.0
C256 C 0.02474 0.43587 0.79491 0.0
C257 C 0.00105 0.42432 0.80509 0.0
C258 C 0.97837 0.41218 0.83498 0.0
C259 C 0.97567 0.42894 0.84585 0.0
C260 C 0.95602 0.41966 0.85897 0.0
C261 C 0.93869 0.39339 0.86145 0.0
C262 C 0.94048 0.37665 0.84981 0.0
C263 C 0.96018 0.38601 0.83662 0.0
C264 C 0.02909 0.42824 0.85172 0.0
C265 C 0.04098 0.45002 0.86247 0.0
C266 C 0.04192 0.44799 0.88098 0.0
C267 C 0.03092 0.42411 0.88905 0.0
C268 C 0.0191 0.40232 0.87818 0.0
C269 C 0.01826 0.4044 0.85967 0.0
C270 C 0.07721 0.44972 0.83051 0.0
C271 C 0.09682 0.47563 0.83168 0.0
C272 C 0.12159 0.48375 0.83965 0.0
C273 C 0.12712 0.46609 0.84673 0.0
C274 C 0.10725 0.4401 0.84568 0.0
C275 C 0.08249 0.43199 0.8376 0.0
C276 C 0.07469 0.4564 0.7925 0.0
C277 C 0.08532 0.48084 0.78561 0.0
C278 C 0.10781 0.49164 0.7746 0.0
C279 C 0.1202 0.47826 0.77043 0.0
C280 C 0.10974 0.45394 0.77765 0.0
C281 C 0.08716 0.44311 0.78859 0.0
C282 C 0.02417 0.44117 0.7757 0.0
C283 C 0.0224 0.46189 0.77069 0.0
C284 C 0.03 0.4721 0.7536 0.0
C285 C 0.03935 0.4616 0.74125 0.0
C286 C 0.03845 0.43926 0.74581 0.0
C287 C 0.03092 0.42913 0.76291 0.0
C288 C 0.97464 0.41335 0.7961 0.0
C289 C 0.95876 0.42361 0.79881 0.0
C290 C 0.93316 0.41206 0.79112 0.0
C291 C 0.92311 0.3901 0.78057 0.0
C292 C 0.93944 0.38031 0.77757 0.0
C293 C 0.96496 0.39184 0.78527 0.0
C294 C 0.03175 0.42201 0.90873 0.0
C295 C 0.14385 0.4895 0.75853 0.0
H296 H 0.39045 0.99085 0.87548 0.0
H297 H 0.3787 0.8267 0.02912 0.0
H298 H 0.42327 0.03023 0.96553 0.0
H299 H 0.44445 0.06437 0.94368 0.0
H300 H 0.52083 0.07224 0.95422 0.0
H301 H 0.49917 0.03717 0.97526 0.0
H302 H 0.38448 0.97096 0.95212 0.0
H303 H 0.37885 0.97608 0.92033 0.0
H304 H 0.46357 0.00742 0.91235 0.0
H305 H 0.46879 0.00173 0.94404 0.0
H306 H 0.36886 0.91678 0.9749 0.0
H307 H 0.3554 0.87808 0.95772 0.0
H308 H 0.43548 0.91423 0.93627 0.0
H309 H 0.44883 0.95208 0.95367 0.0
H310 H 0.37993 0.93362 0.01833 0.0
H311 H 0.36016 0.89167 0.03188 0.0
H312 H 0.4186 0.88155 0.00502 0.0
H313 H 0.43836 0.92362 0.99176 0.0
H314 H 0.42016 0.99243 0.03568 0.0
H315 H 0.42693 0.98666 0.0672 0.0
H316 H 0.47185 0.95307 0.05158 0.0
H317 H 0.46595 0.95992 0.02033 0.0
H318 H 0.44666 0.04394 0.00885 0.0
H319 H 0.4821 0.08332 0.02305 0.0
H320 H 0.53255 0.05244 0.02636 0.0
H321 H 0.49757 0.01373 0.01171 0.0
O322 O 0.39305 0.98869 0.88796 0.0
O323 O 0.43684 0.00527 0.88468 0.0
O324 O 0.35667 0.84957 0.0376 0.0
O325 O 0.38614 0.84336 0.02398 0.0
C326 C 0.44558 0.00581 0.9806 0.0
C327 C 0.43047 0.98387 0.96986 0.0
C328 C 0.41968 0.95958 0.97737 0.0
C329 C 0.42235 0.95709 0.99588 0.0
C330 C 0.43748 0.97897 0.00662 0.0
C331 C 0.44973 0.00332 -0.00112 0.0
C332 C 0.45961 0.03106 0.97188 0.0
C333 C 0.44474 0.03989 0.96352 0.0
C334 C 0.45692 0.05946 0.95105 0.0
C335 C 0.48425 0.07069 0.94694 0.0
C336 C 0.49961 0.06358 0.95679 0.0
C337 C 0.48736 0.0438 0.96905 0.0
C338 C 0.42708 0.98626 0.95042 0.0
C339 C 0.40175 0.97882 0.94345 0.0
C340 C 0.39862 0.98182 0.92531 0.0
C341 C 0.42079 0.9923 0.91381 0.0
C342 C 0.44609 -0.00061 0.92083 0.0
C343 C 0.44916 0.99625 0.93894 0.0
C344 C 0.40978 0.9373 0.96543 0.0
C345 C 0.38328 0.91638 0.96625 0.0
C346 C 0.37565 0.89438 0.95646 0.0
C347 C 0.39434 0.89329 0.94553 0.0
C348 C 0.42047 0.91469 0.94424 0.0
C349 C 0.42815 0.93636 0.95419 0.0
C350 C 0.41038 0.93153 0.00395 0.0
C351 C 0.3884 0.92229 0.0154 0.0
C352 C 0.37716 0.89833 0.0231 0.0
C353 C 0.38775 0.88321 0.01948 0.0
C354 C 0.40989 0.89265 0.00805 0.0
C355 C 0.42116 0.91663 0.0004 0.0
C356 C 0.44225 0.97628 0.02574 0.0
C357 C 0.43163 0.98402 0.03914 0.0
C358 C 0.43539 0.98057 0.05711 0.0
C359 C 0.44987 0.96932 0.06194 0.0
C360 C 0.46092 0.96209 0.0484 0.0
C361 C 0.45727 0.96568 0.03051 0.0
C362 C 0.46954 0.02598 0.00931 0.0
C363 C 0.46527 0.04565 0.01286 0.0
C364 C 0.48544 0.06802 0.02103 0.0
C365 C 0.51016 0.071 0.0257 0.0
C366 C 0.51387 0.05083 0.0227 0.0
C367 C 0.49381 0.0286 0.01452 0.0
C368 C 0.41749 0.99584 0.8946 0.0
C369 C 0.37585 0.85773 0.0276 0.0
H370 H 0.54943 0.51392 0.01832 0.0
H371 H 0.63108 0.47138 0.20133 0.0
H372 H 0.51458 0.54277 0.10327 0.0
H373 H 0.508 0.56644 0.08002 0.0
H374 H 0.58181 0.63469 0.09625 0.0
H375 H 0.58855 0.6106 0.11921 0.0
H376 H 0.53342 0.50324 0.09548 0.0
H377 H 0.53397 0.50029 0.06297 0.0
H378 H 0.60128 0.57791 0.06097 0.0
H379 H 0.60074 0.58046 0.0935 0.0
H380 H 0.55141 0.47866 0.12626 0.0
H381 H 0.57218 0.45635 0.11462 0.0
H382 H 0.64174 0.52812 0.09899 0.0
H383 H 0.62088 0.5501 0.11059 0.0
H384 H 0.53822 0.48919 0.16567 0.0
H385 H 0.54992 0.46503 0.18525 0.0
H386 H 0.63359 0.51526 0.17181 0.0
H387 H 0.62163 0.53944 0.15248 0.0
H388 H 0.52047 0.52528 0.17532 0.0
H389 H 0.51993 0.52132 0.20792 0.0
H390 H 0.60666 0.56704 0.20887 0.0
H391 H 0.60692 0.57097 0.17647 0.0
H392 H 0.51091 0.56005 0.14302 0.0
H393 H 0.50248 0.59135 0.15582 0.0
H394 H 0.58468 0.63544 0.17451 0.0
H395 H 0.59294 0.60421 0.16161 0.0
O396 O 0.54971 0.51544 0.03118 0.0
O397 O 0.58417 0.55546 0.03087 0.0
O398 O 0.58264 0.45543 0.20026 0.0
O399 O 0.62589 0.48056 0.19367 0.0
C400 C 0.55848 0.55966 0.12443 0.0
C401 C 0.56613 0.54385 0.11654 0.0
C402 C 0.57335 0.52991 0.12741 0.0
C403 C 0.57189 0.53095 0.14613 0.0
C404 C 0.56433 0.54681 0.15398 0.0
C405 C 0.55808 0.56153 0.14317 0.0
C406 C 0.55207 0.57498 0.11282 0.0
C407 C 0.52899 0.56295 0.10203 0.0
C408 C 0.52524 0.57654 0.08882 0.0
C409 C 0.5445 0.60241 0.08623 0.0
C410 C 0.56682 0.61472 0.09779 0.0
C411 C 0.57057 0.60108 0.111 0.0
C412 C 0.56692 0.5421 0.09681 0.0
C413 C 0.54833 0.51954 0.08799 0.0
C414 C 0.54865 0.51794 0.06942 0.0
C415 C 0.56761 0.5389 0.05936 0.0
C416 C 0.58636 0.56144 0.0683 0.0
C417 C 0.58606 0.56297 0.08687 0.0
C418 C 0.58466 0.51596 0.11924 0.0
C419 C 0.57102 0.48946 0.12017 0.0
C420 C 0.58293 0.4768 0.11358 0.0
C421 C 0.60857 0.49049 0.10586 0.0
C422 C 0.6218 0.517 0.10458 0.0
C423 C 0.60997 0.5296 0.11124 0.0
C424 C 0.57906 0.51599 0.15764 0.0
C425 C 0.55905 0.49493 0.16699 0.0
C426 C 0.5658 0.48117 0.17814 0.0
C427 C 0.59271 0.48821 0.18008 0.0
C428 C 0.61269 0.5093 0.17061 0.0
C429 C 0.60591 0.52311 0.15952 0.0
C430 C 0.56373 0.5483 0.17364 0.0
C431 C 0.53926 0.53496 0.18268 0.0
C432 C 0.539 0.53262 0.20123 0.0
C433 C 0.56325 0.5438 0.21091 0.0
C434 C 0.58765 0.5585 0.20183 0.0
C435 C 0.58787 0.56067 0.18333 0.0
C436 C 0.55249 0.57982 0.15147 0.0
C437 C 0.52703 0.57644 0.14993 0.0
C438 C 0.5223 0.59435 0.15718 0.0
C439 C 0.54293 0.61582 0.16619 0.0
C440 C 0.5683 0.61892 0.16788 0.0
C441 C 0.57306 0.60114 0.16051 0.0
C442 C 0.56776 0.5372 0.03962 0.0
C443 C 0.59999 0.47369 0.19195 0.0
C444 C 0.63562 0.40564 0.41355 0.0
O445 O 0.65621 0.42117 0.42373 0.0
O446 O 0.69184 0.45892 0.39037 0.0
Zn447 Zn 0.65437 0.45133 0.39436 0.0
O448 O 0.65275 0.47118 0.41482 0.0
C449 C 0.64523 0.48157 0.37026 0.0
O450 O 0.66173 0.49964 0.38134 0.0
O451 O 0.63055 0.41434 0.39982 0.0
C452 C 0.62944 0.46691 0.41768 0.0
O453 O 0.6093 0.45004 0.40775 0.0
C454 C 0.70521 0.4698 0.37642 0.0
O455 O 0.69497 0.47759 0.36434 0.0
O456 O 0.63966 0.45912 0.37279 0.0
C457 C 0.27311 0.68133 0.55436 0.0
O458 O 0.27585 0.66607 0.54379 0.0
O459 O 0.2626 0.62381 0.57072 0.0
Zn460 Zn 0.23538 0.6337 0.56775 0.0
O461 O 0.21494 0.62003 0.54469 0.0
C462 C 0.21576 0.62131 0.6042 0.0
O463 O 0.24136 0.63372 0.60852 0.0
O464 O 0.25575 0.67174 0.56668 0.0
C465 C 0.19264 0.59893 0.5439 0.0
O466 O 0.1832 0.58507 0.55835 0.0
C467 C 0.25726 0.60265 0.5769 0.0
O468 O 0.23243 0.58555 0.58128 0.0
O469 O 0.20901 0.6198 0.58792 0.0
C470 C 0.59998 0.26644 0.74465 0.0
O471 O 0.61828 0.2703 0.75655 0.0
O472 O 0.62932 0.22974 0.74561 0.0
Zn473 Zn 0.58971 0.21586 0.74483 0.0
O474 O 0.57133 0.18857 0.72616 0.0
C475 C 0.58235 0.19046 0.77792 0.0
O476 O 0.60088 0.1874 0.771 0.0
O477 O 0.58481 0.24435 0.73816 0.0
C478 C 0.57678 0.17172 0.7233 0.0
O479 O 0.59536 0.17158 0.733 0.0
C480 C 0.6445 0.24342 0.73303 0.0
O481 O 0.6338 0.24732 0.71895 0.0
O482 O 0.57394 0.20225 0.76901 0.0
C483 C 0.43204 0.69369 0.90552 0.0
O484 O 0.42158 0.67457 0.91671 0.0
O485 O 0.41139 0.63385 0.88851 0.0
Zn486 Zn 0.44908 0.66339 0.89156 0.0
O487 O 0.46443 0.65981 0.91443 0.0
C488 C 0.47057 0.64446 0.86744 0.0
O489 O 0.46032 0.62631 0.87939 0.0
O490 O 0.44649 0.69405 0.89287 0.0
C491 C 0.48936 0.6703 0.9176 0.0
O492 O 0.50673 0.68407 0.90519 0.0
C493 C 0.40112 0.6125 0.89616 0.0
O494 O 0.41578 0.60836 0.90721 0.0
O495 O 0.46965 0.66408 0.87017 0.0
C496 C 0.77186 0.38763 0.07614 0.0
O497 O 0.78439 0.38669 0.09038 0.0
O498 O 0.75995 0.31961 0.06219 0.0
Zn499 Zn 0.78955 0.35634 0.06125 0.0
O500 O 0.81505 0.36626 0.08209 0.0
C501 C 0.81595 0.34768 0.0328 0.0
O502 O 0.81138 0.32874 0.0431 0.0
O503 O 0.77201 0.3766 0.06193 0.0
C504 C 0.81371 0.35078 0.09371 0.0
O505 O 0.79584 0.32646 0.09176 0.0
C506 C 0.74037 0.31193 0.0728 0.0
O507 O 0.74035 0.32806 0.08404 0.0
O508 O 0.80888 0.36265 0.03803 0.0
C509 C 0.4969 0.8087 0.22306 0.0
O510 O 0.48519 0.81511 0.21109 0.0
O511 O 0.43599 0.79987 0.24497 0.0
Zn512 Zn 0.4744 0.82918 0.24514 0.0
O513 O 0.47883 0.85438 0.22653 0.0
C514 C 0.46948 0.83241 0.28288 0.0
O515 O 0.45197 0.80804 0.28076 0.0
O516 O 0.4966 0.81431 0.23931 0.0
C517 C 0.46333 0.86276 0.22671 0.0
O518 O 0.44549 0.85544 0.23945 0.0
C519 C 0.42086 0.79156 0.23127 0.0
O520 O 0.42994 0.80297 0.21589 0.0
O521 O 0.48277 0.84554 0.26949 0.0
H522 H 0.20446 0.60316 0.28586 0.0
H523 H 0.24911 0.63645 0.27598 0.0
H524 H 0.21741 0.63399 0.22349 0.0
H525 H 0.17258 0.60063 0.2333 0.0
H526 H 0.28207 0.63864 0.24811 0.0
H527 H 0.25114 0.70816 0.23885 0.0
H528 H 0.23067 0.67865 0.25055 0.0
H529 H 0.23179 0.67898 0.22662 0.0
C530 C 0.20707 0.60937 0.27213 0.0
C531 C 0.18501 0.59941 0.26037 0.0
C532 C 0.23255 0.62846 0.26653 0.0
C533 C 0.23641 0.63795 0.24911 0.0
C534 C 0.2147 0.62728 0.2371 0.0
H535 H 0.38202 0.76961 0.20527 0.0
H536 H 0.3372 0.73109 0.20774 0.0
C537 C 0.18916 0.60823 0.24271 0.0
C538 C 0.26302 0.65965 0.24386 0.0
H539 H 0.29612 0.72227 0.2326 0.0
C540 C 0.28514 0.65688 0.2446 0.0
C541 C 0.26689 0.68339 0.23926 0.0
C542 C 0.24395 0.68767 0.23888 0.0
C543 C 0.31116 0.67738 0.24111 0.0
C544 C 0.3151 0.70128 0.23703 0.0
C545 C 0.29292 0.70386 0.23572 0.0
C546 C 0.34226 0.72421 0.23532 0.0
C547 C 0.33426 0.67339 0.24194 0.0
C548 C 0.35963 0.73322 0.25011 0.0
C549 C 0.38507 0.7552 0.24879 0.0
C550 C 0.39362 0.76861 0.23264 0.0
C551 C 0.37606 0.75966 0.21787 0.0
C552 C 0.35049 0.73768 0.21924 0.0
H553 H 0.32731 0.65306 0.24036 0.0
H554 H 0.34924 0.68448 0.23145 0.0
H555 H 0.3444 0.67988 0.25511 0.0
H556 H 0.3534 0.72335 0.26273 0.0
H557 H 0.39805 0.7616 0.26044 0.0
H558 H 0.48395 0.16672 0.45543 0.0
H559 H 0.49967 0.21012 0.44619 0.0
H560 H 0.57679 0.22205 0.43304 0.0
H561 H 0.56096 0.17851 0.44162 0.0
H562 H 0.54146 0.25379 0.46074 0.0
H563 H 0.55936 0.24866 0.38896 0.0
H564 H 0.5398 0.22073 0.40247 0.0
H565 H 0.57589 0.23754 0.40285 0.0
C566 C 0.50407 0.17842 0.45021 0.0
C567 C 0.52121 0.16918 0.44923 0.0
C568 C 0.51306 0.20324 0.44505 0.0
C569 C 0.53925 0.21916 0.43871 0.0
C570 C 0.55632 0.20992 0.43756 0.0
H571 H 0.64349 0.38047 0.44029 0.0
H572 H 0.61728 0.33504 0.44637 0.0
C573 C 0.54735 0.18513 0.44268 0.0
C574 C 0.54944 0.24594 0.43433 0.0
H575 H 0.58089 0.29036 0.4018 0.0
C576 C 0.54978 0.26175 0.44778 0.0
C577 C 0.55987 0.25618 0.41734 0.0
C578 C 0.55848 0.23983 0.40202 0.0
C579 C 0.56138 0.28779 0.44494 0.0
C580 C 0.5734 0.29831 0.42833 0.0
C581 C 0.57197 0.28231 0.41461 0.0
C582 C 0.58849 0.32596 0.42508 0.0
C583 C 0.56072 0.30377 0.45978 0.0
C584 C 0.58132 0.33586 0.41086 0.0
C585 C 0.59644 0.36181 0.40722 0.0
C586 C 0.61907 0.3783 0.41772 0.0
C587 C 0.62609 0.36832 0.43202 0.0
C588 C 0.61102 0.34237 0.43559 0.0
H589 H 0.54398 0.29216 0.46913 0.0
H590 H 0.57977 0.31249 0.4675 0.0
H591 H 0.55853 0.3192 0.45444 0.0
H592 H 0.56409 0.32347 0.40252 0.0
H593 H 0.5905 0.3689 0.39611 0.0
H594 H 0.47422 0.60076 0.60224 0.0
H595 H 0.43943 0.60991 0.59525 0.0
H596 H 0.37922 0.53774 0.61724 0.0
H597 H 0.41375 0.5288 0.6247 0.0
H598 H 0.39342 0.58136 0.5733 0.0
H599 H 0.36549 0.58787 0.64267 0.0
H600 H 0.39616 0.58937 0.63733 0.0
H601 H 0.36485 0.55929 0.63809 0.0
C602 C 0.45361 0.58701 0.60577 0.0
C603 C 0.44674 0.56405 0.614 0.0
C604 C 0.43377 0.59219 0.60169 0.0
C605 C 0.40683 0.57463 0.60594 0.0
C606 C 0.39994 0.55172 0.61411 0.0
H607 H 0.25373 0.56089 0.59182 0.0
H608 H 0.29045 0.55429 0.59801 0.0
C609 C 0.41968 0.54652 0.61817 0.0
C610 C 0.38567 0.5798 0.60143 0.0
H611 H 0.33599 0.5852 0.61969 0.0
C612 C 0.38099 0.58243 0.58343 0.0
C613 C 0.36948 0.5811 0.61469 0.0
C614 C 0.37435 0.5795 0.63429 0.0
C615 C 0.36002 0.58565 0.57829 0.0
C616 C 0.34362 0.58663 0.59155 0.0
C617 C 0.3485 0.58428 0.60956 0.0
C618 C 0.32136 0.59026 0.58707 0.0
C619 C 0.35512 0.5873 0.5587 0.0
C620 C 0.32662 0.6127 0.57892 0.0
C621 C 0.30572 0.61653 0.57536 0.0
C622 C 0.27915 0.59802 0.57998 0.0
C623 C 0.27393 0.57548 0.58806 0.0
C624 C 0.29488 0.57169 0.59163 0.0
H625 H 0.36495 0.57998 0.55023 0.0
H626 H 0.33329 0.57647 0.55559 0.0
H627 H 0.36349 0.60742 0.55512 0.0
H628 H 0.34698 0.62747 0.57561 0.0
H629 H 0.31048 0.63416 0.5692 0.0
H630 H 0.87781 0.38106 0.79742 0.0
H631 H 0.83159 0.35665 0.78629 0.0
H632 H 0.85901 0.34404 0.73652 0.0
H633 H 0.90542 0.36871 0.74747 0.0
H634 H 0.80806 0.36368 0.75524 0.0
H635 H 0.80289 0.27194 0.75458 0.0
H636 H 0.82895 0.29955 0.76631 0.0
H637 H 0.83026 0.29744 0.7425 0.0
C638 C 0.87409 0.37344 0.784 0.0
C639 C 0.89528 0.37673 0.77335 0.0
C640 C 0.84766 0.35938 0.77771 0.0
C641 C 0.84191 0.34827 0.7607 0.0
C642 C 0.86303 0.35209 0.74982 0.0
H643 H 0.68298 0.27814 0.71049 0.0
H644 H 0.73159 0.30333 0.71555 0.0
C645 C 0.8895 0.36616 0.7561 0.0
C646 C 0.81371 0.33232 0.75458 0.0
H647 H 0.76457 0.27134 0.74436 0.0
C648 C 0.79855 0.34353 0.75274 0.0
C649 C 0.80141 0.30601 0.75151 0.0
C650 C 0.81657 0.29288 0.75394 0.0
C651 C 0.77125 0.32904 0.74804 0.0
C652 C 0.75897 0.30274 0.74491 0.0
C653 C 0.77418 0.29157 0.74662 0.0
C654 C 0.72991 0.28625 0.74102 0.0
C655 C 0.75555 0.34181 0.74704 0.0
C656 C 0.71305 0.26772 0.75337 0.0
C657 C 0.68534 0.25325 0.75051 0.0
C658 C 0.674 0.25699 0.73517 0.0
C659 C 0.69107 0.27488 0.72247 0.0
C660 C 0.71882 0.28939 0.72538 0.0
H661 H 0.76663 0.36097 0.75323 0.0
H662 H 0.75161 0.34388 0.73285 0.0
H663 H 0.73589 0.33019 0.75377 0.0
H664 H 0.72129 0.26496 0.7655 0.0
H665 H 0.67278 0.23955 0.76052 0.0
H666 H 0.40556 0.88642 0.91153 0.0
H667 H 0.40544 0.84959 0.90012 0.0
H668 H 0.37018 0.80976 0.94917 0.0
H669 H 0.37029 0.84649 0.96065 0.0
H670 H 0.43585 0.83453 0.91822 0.0
H671 H 0.33041 0.75408 0.91141 0.0
H672 H 0.33955 0.78672 0.91216 0.0
H673 H 0.33773 0.7704 0.9324 0.0
C674 C 0.39708 0.86951 0.91966 0.0
C675 C 0.38808 0.86932 0.937 0.0
C676 C 0.39698 0.84852 0.91312 0.0
C677 C 0.38771 0.82695 0.92377 0.0
C678 C 0.37693 0.82603 0.9406 0.0
H679 H 0.40526 0.69998 0.93246 0.0
H680 H 0.39433 0.73251 0.93514 0.0
C681 C 0.37699 0.84703 0.94714 0.0
C682 C 0.39323 0.8073 0.91859 0.0
H683 H 0.36411 0.74362 0.91268 0.0
C684 C 0.42016 0.81469 0.91671 0.0
C685 C 0.37272 0.78147 0.91681 0.0
C686 C 0.34345 0.77267 0.91814 0.0
C687 C 0.42724 0.7968 0.9138 0.0
C688 C 0.40675 0.77088 0.91237 0.0
C689 C 0.37976 0.76354 0.9138 0.0
C690 C 0.41304 0.75101 0.91031 0.0
C691 C 0.45662 0.80571 0.91313 0.0
C692 C 0.42707 0.75059 0.8954 0.0
C693 C 0.43361 0.73217 0.89391 0.0
C694 C 0.42591 0.71368 0.90721 0.0
C695 C 0.41155 0.71399 0.92201 0.0
C696 C 0.40518 0.73249 0.92353 0.0
H697 H 0.46962 0.82517 0.91863 0.0
H698 H 0.46061 0.79273 0.92069 0.0
H699 H 0.46244 0.80594 0.89905 0.0
H700 H 0.4329 0.76448 0.8849 0.0
H701 H 0.44445 0.73227 0.88227 0.0
H702 H 0.61069 0.45306 0.12322 0.0
H703 H 0.63731 0.43496 0.11529 0.0
H704 H 0.66458 0.48082 0.06783 0.0
H705 H 0.63782 0.4989 0.07558 0.0
H706 H 0.63816 0.4092 0.08385 0.0
H707 H 0.73419 0.50093 0.09586 0.0
H708 H 0.70229 0.49495 0.10344 0.0
H709 H 0.71134 0.50196 0.0804 0.0
C710 C 0.62193 0.45894 0.11092 0.0
C711 C 0.62233 0.47755 0.10009 0.0
C712 C 0.63722 0.44867 0.10646 0.0
C713 C 0.6532 0.4569 0.09115 0.0
C714 C 0.65274 0.47462 0.07988 0.0
H715 H 0.73989 0.38921 0.05015 0.0
H716 H 0.71117 0.40646 0.05264 0.0
C717 C 0.63747 0.48491 0.08433 0.0
C718 C 0.67119 0.44769 0.08744 0.0
H719 H 0.7373 0.46682 0.08562 0.0
C720 C 0.65984 0.42176 0.08413 0.0
C721 C 0.69943 0.46417 0.08804 0.0
C722 C 0.71265 0.49203 0.09227 0.0
C723 C 0.67605 0.41183 0.08143 0.0
C724 C 0.70429 0.42837 0.08189 0.0
C725 C 0.71563 0.45429 0.08514 0.0
C726 C 0.72243 0.41891 0.07997 0.0
C727 C 0.66289 0.38365 0.07865 0.0
C728 C 0.73882 0.42093 0.09434 0.0
C729 C 0.75532 0.41123 0.09296 0.0
C730 C 0.7558 0.39944 0.07712 0.0
C731 C 0.7399 0.39809 0.06255 0.0
C732 C 0.72336 0.40778 0.06397 0.0
H733 H 0.64131 0.37303 0.08228 0.0
H734 H 0.66437 0.37985 0.06439 0.0
H735 H 0.6732 0.37629 0.08667 0.0
H736 H 0.73845 0.42959 0.10677 0.0
H737 H 0.76737 0.41265 0.1044 0.0
H738 H 0.39979 0.92603 0.54154 0.0
H739 H 0.37476 0.88183 0.55133 0.0
H740 H 0.40722 0.86175 0.50764 0.0
H741 H 0.43218 0.90587 0.49769 0.0
H742 H 0.33601 0.84074 0.5312 0.0
H743 H 0.41923 0.82803 0.55049 0.0
H744 H 0.42389 0.8589 0.54761 0.0
H745 H 0.42238 0.84074 0.52851 0.0
C746 C 0.40168 0.91221 0.53406 0.0
C747 C 0.41793 0.91942 0.51882 0.0
C748 C 0.38747 0.88702 0.53972 0.0
C749 C 0.38938 0.86861 0.53033 0.0
C750 C 0.40593 0.87579 0.5153 0.0
H751 H 0.31096 0.7068 0.52886 0.0
H752 H 0.33877 0.75251 0.52428 0.0
C753 C 0.42017 0.90099 0.50963 0.0
C754 C 0.37268 0.84162 0.53554 0.0
H755 H 0.37574 0.79045 0.54767 0.0
C756 C 0.34466 0.82977 0.535 0.0
C757 C 0.38408 0.82742 0.54045 0.0
C758 C 0.41405 0.83944 0.54198 0.0
C759 C 0.32766 0.80384 0.53865 0.0
C760 C 0.33906 0.78954 0.54326 0.0
C761 C 0.36709 0.80149 0.54412 0.0
C762 C 0.32226 0.76189 0.54645 0.0
C763 C 0.2977 0.79178 0.53689 0.0
C764 C 0.30392 0.75203 0.56056 0.0
C765 C 0.28787 0.72582 0.5632 0.0
C766 C 0.29004 0.70909 0.55181 0.0
C767 C 0.30871 0.71912 0.53785 0.0
C768 C 0.32468 0.74526 0.53522 0.0
H769 H 0.29252 0.80402 0.52943 0.0
H770 H 0.28831 0.77316 0.52999 0.0
H771 H 0.28883 0.78853 0.55038 0.0
H772 H 0.3021 0.7646 0.56956 0.0
H773 H 0.2738 0.7187 0.57414 0.0
H774 H 0.60922 0.47006 0.69198 0.0
H775 H 0.61931 0.43979 0.70479 0.0
H776 H 0.55408 0.37937 0.67441 0.0
H777 H 0.54427 0.40948 0.66133 0.0
H778 H 0.58331 0.39648 0.725 0.0
H779 H 0.61697 0.37024 0.66458 0.0
H780 H 0.61544 0.39838 0.66577 0.0
H781 H 0.58546 0.36794 0.66166 0.0
C782 C 0.59738 0.4504 0.68781 0.0
C783 C 0.57595 0.44211 0.67567 0.0
C784 C 0.60306 0.43315 0.69519 0.0
C785 C 0.58763 0.40744 0.69038 0.0
C786 C 0.56651 0.39921 0.67807 0.0
H787 H 0.56483 0.2648 0.7199 0.0
H788 H 0.56343 0.3004 0.70768 0.0
C789 C 0.56076 0.41638 0.67075 0.0
C790 C 0.59242 0.38879 0.69892 0.0
H791 H 0.60533 0.34274 0.68968 0.0
C792 C 0.58849 0.38493 0.71736 0.0
C793 C 0.59913 0.3738 0.68886 0.0
C794 C 0.60475 0.37792 0.66915 0.0
C795 C 0.58997 0.36568 0.72592 0.0
C796 C 0.59594 0.35022 0.71575 0.0
C797 C 0.6006 0.35456 0.6974 0.0
C798 C 0.59652 0.32882 0.72375 0.0
C799 C 0.58408 0.36137 0.74559 0.0
C800 C 0.61561 0.33305 0.73685 0.0
C801 C 0.61643 0.31272 0.74393 0.0
C802 C 0.59826 0.28784 0.73792 0.0
C803 C 0.57908 0.28371 0.72485 0.0
C804 C 0.57828 0.30402 0.71781 0.0
H805 H 0.5742 0.37117 0.75059 0.0
H806 H 0.57098 0.34081 0.74851 0.0
H807 H 0.60319 0.36883 0.75308 0.0
H808 H 0.63015 0.35212 0.74139 0.0
H809 H 0.63156 0.31657 0.75389 0.0
H810 H 0.15717 0.50709 0.86847 0.0
H811 H 0.20316 0.52435 0.8788 0.0
H812 H 0.2031 0.46176 0.85429 0.0
H813 H 0.15746 0.44495 0.84315 0.0
H814 H 0.22766 0.50566 0.89988 0.0
H815 H 0.26593 0.52342 0.83033 0.0
H816 H 0.23224 0.51478 0.83554 0.0
H817 H 0.24083 0.49112 0.83553 0.0
C818 C 0.16696 0.49703 0.86521 0.0
C819 C 0.15383 0.47489 0.85472 0.0
C820 C 0.19312 0.50676 0.87129 0.0
C821 C 0.20664 0.49453 0.86706 0.0
C822 C 0.19314 0.47169 0.85743 0.0
H823 H 0.37265 0.56343 0.90832 0.0
H824 H 0.3255 0.53101 0.90188 0.0
C825 C 0.16698 0.462 0.85123 0.0
C826 C 0.23538 0.50683 0.87178 0.0
H827 H 0.2978 0.53744 0.85339 0.0
C828 C 0.24306 0.51233 0.88977 0.0
C829 C 0.25532 0.51562 0.85848 0.0
C830 C 0.24831 0.51116 0.83887 0.0
C831 C 0.2702 0.52729 0.8948 0.0
C832 C 0.29007 0.53658 0.88146 0.0
C833 C 0.28243 0.53013 0.86355 0.0
C834 C 0.31859 0.55555 0.88543 0.0
C835 C 0.27736 0.53424 0.91418 0.0
C836 C 0.33031 0.57983 0.87806 0.0
C837 C 0.35709 0.59821 0.88157 0.0
C838 C 0.37276 0.59269 0.89255 0.0
C839 C 0.36104 0.56828 0.89988 0.0
C840 C 0.33412 0.54979 0.89629 0.0
H841 H 0.25946 0.52885 0.92239 0.0
H842 H 0.28689 0.52426 0.91953 0.0
H843 H 0.29198 0.55493 0.91567 0.0
H844 H 0.31863 0.58463 0.86965 0.0
H845 H 0.36544 0.6168 0.87571 0.0
H846 H 0.50879 0.10203 0.05106 0.0
H847 H 0.54643 0.14331 0.06147 0.0
H848 H 0.59978 0.13628 0.02632 0.0
H849 H 0.56246 0.09555 0.01563 0.0
H850 H 0.59809 0.15526 0.07699 0.0
H851 H 0.60865 0.20529 0.01341 0.0
H852 H 0.57862 0.17551 0.01907 0.0
H853 H 0.60758 0.17612 0.01089 0.0
C854 C 0.52855 0.10939 0.04553 0.0
C855 C 0.5327 0.09556 0.03255 0.0
C856 C 0.54998 0.13283 0.05154 0.0
C857 C 0.57573 0.14283 0.04451 0.0
C858 C 0.57997 0.12893 0.03176 0.0
H859 H 0.73418 0.27414 0.05096 0.0
H860 H 0.69351 0.23257 0.04601 0.0
C861 C 0.55867 0.10557 0.0258 0.0
C862 C 0.59838 0.16792 0.05024 0.0
H863 H 0.64471 0.22644 0.03424 0.0
C864 C 0.60816 0.17098 0.06776 0.0
C865 C 0.61132 0.18828 0.03812 0.0
C866 C 0.60091 0.18631 0.01936 0.0
C867 C 0.63139 0.19368 0.07327 0.0
C868 C 0.64479 0.21376 0.06095 0.0
C869 C 0.63449 0.21089 0.0436 0.0
C870 C 0.66993 0.23781 0.06549 0.0
C871 C 0.642 0.19571 0.09196 0.0
C872 C 0.67019 0.25435 0.07827 0.0
C873 C 0.69344 0.27815 0.08117 0.0
C874 C 0.71673 0.28582 0.07121 0.0
C875 C 0.71658 0.26885 0.05882 0.0
C876 C 0.69337 0.2451 0.05596 0.0
H877 H 0.63265 0.1769 0.09851 0.0
H878 H 0.66411 0.20463 0.09189 0.0
H879 H 0.63751 0.20786 0.10008 0.0
H880 H 0.65216 0.24921 0.08556 0.0
H881 H 0.69288 0.29081 0.09078 0.0
H882 H 0.55868 0.63975 0.19859 0.0
H883 H 0.55214 0.67289 0.20998 0.0
H884 H 0.51091 0.66946 0.16128 0.0
H885 H 0.51719 0.63626 0.14989 0.0
H886 H 0.5698 0.72001 0.19635 0.0
H887 H 0.45869 0.66332 0.19887 0.0
H888 H 0.47823 0.64902 0.19614 0.0
H889 H 0.47127 0.66259 0.1773 0.0
C890 C 0.54817 0.64605 0.19034 0.0
C891 C 0.53828 0.6353 0.17339 0.0
C892 C 0.54441 0.66492 0.19688 0.0
C893 C 0.53066 0.67334 0.1866 0.0
C894 C 0.52096 0.66278 0.16963 0.0
H895 H 0.49563 0.78992 0.19001 0.0
H896 H 0.50612 0.75818 0.18213 0.0
C897 C 0.52457 0.64382 0.16313 0.0
C898 C 0.52717 0.69373 0.19334 0.0
H899 H 0.47986 0.70828 0.20122 0.0
C900 C 0.55013 0.71739 0.19762 0.0
C901 C 0.50147 0.6902 0.19508 0.0
C902 C 0.47601 0.66483 0.19178 0.0
C903 C 0.54808 0.73788 0.20295 0.0
C904 C 0.52245 0.73452 0.20406 0.0
C905 C 0.49949 0.71077 0.20019 0.0
C906 C 0.51889 0.75557 0.2087 0.0
C907 C 0.57325 0.7632 0.20684 0.0
C908 C 0.52302 0.76483 0.22622 0.0
C909 C 0.51694 0.78297 0.23083 0.0
C910 C 0.50663 0.79205 0.21795 0.0
C911 C 0.50351 0.78335 0.20027 0.0
C912 C 0.50945 0.76517 0.19572 0.0
H913 H 0.59169 0.76354 0.20318 0.0
H914 H 0.57285 0.77846 0.19948 0.0
H915 H 0.57425 0.76745 0.2213 0.0
H916 H 0.53009 0.75743 0.23644 0.0
H917 H 0.51952 0.78924 0.24457 0.0
H918 H 0.92139 0.46334 0.35461 0.0
H919 H 0.8776 0.45515 0.36422 0.0
H920 H 0.88078 0.50522 0.32325 0.0
H921 H 0.92417 0.51327 0.31353 0.0
H922 H 0.86715 0.49424 0.37546 0.0
H923 H 0.80588 0.43858 0.31692 0.0
H924 H 0.8378 0.44247 0.32239 0.0
H925 H 0.83664 0.46752 0.31145 0.0
C926 C 0.91253 0.47231 0.34755 0.0
C927 C 0.92617 0.48899 0.33337 0.0
C928 C 0.88766 0.46772 0.35308 0.0
C929 C 0.87594 0.47942 0.34432 0.0
C930 C 0.88937 0.49579 0.33004 0.0
H931 H 0.7399 0.49413 0.34899 0.0
H932 H 0.78139 0.49568 0.34266 0.0
C933 C 0.91423 0.50052 0.3246 0.0
C934 C 0.85017 0.47551 0.3504 0.0
H935 H 0.78654 0.45484 0.33622 0.0
C936 C 0.84935 0.48533 0.36704 0.0
C937 C 0.82713 0.46395 0.3393 0.0
C938 C 0.82671 0.45231 0.32157 0.0
C939 C 0.82636 0.48489 0.37256 0.0
C940 C 0.80352 0.4739 0.36123 0.0
C941 C 0.80413 0.4634 0.34483 0.0
C942 C 0.77903 0.47382 0.36578 0.0
C943 C 0.82712 0.49714 0.39008 0.0
C944 C 0.76399 0.46108 0.38093 0.0
C945 C 0.74032 0.46029 0.38467 0.0
C946 C 0.73114 0.47201 0.37319 0.0
C947 C 0.74639 0.48491 0.3581 0.0
C948 C 0.77008 0.48578 0.35444 0.0
H949 H 0.84798 0.50993 0.39506 0.0
H950 H 0.8174 0.50821 0.38881 0.0
H951 H 0.81599 0.48217 0.40021 0.0
H952 H 0.77025 0.45131 0.38967 0.0
H953 H 0.72894 0.45004 0.39633 0.0
H954 H 0.03558 0.51272 0.40405 0.0
H955 H 0.05312 0.52084 0.43468 0.0
H956 H 0.1231 0.59117 0.41789 0.0
H957 H 0.10607 0.58311 0.38736 0.0
H958 H 0.10241 0.52712 0.4452 0.0
H959 H 0.09912 0.61179 0.4625 0.0
H960 H 0.08009 0.59099 0.44415 0.0
H961 H 0.11516 0.61468 0.44159 0.0
C962 C 0.0546 0.53001 0.40693 0.0
C963 C 0.06933 0.54735 0.39327 0.0
C964 C 0.06452 0.53465 0.42442 0.0
C965 C 0.0892 0.55677 0.42857 0.0
C966 C 0.10369 0.57429 0.41506 0.0
H967 H 0.20613 0.62358 0.51192 0.0
H968 H 0.179 0.61136 0.48468 0.0
C969 C 0.09387 0.56966 0.3976 0.0
C970 C 0.10097 0.56086 0.44668 0.0
H971 H 0.12736 0.60382 0.48076 0.0
C972 C 0.10752 0.54366 0.45314 0.0
C973 C 0.10759 0.58247 0.45694 0.0
C974 C 0.0999 0.60092 0.45104 0.0
C975 C 0.1217 0.54817 0.46924 0.0
C976 C 0.12912 0.57024 0.4792 0.0
C977 C 0.12178 0.58699 0.47302 0.0
C978 C 0.14553 0.57695 0.49568 0.0
C979 C 0.12965 0.52987 0.47507 0.0
C980 C 0.13566 0.5616 0.51088 0.0
C981 C 0.15116 0.56848 0.52648 0.0
C982 C 0.17673 0.59091 0.52716 0.0
C983 C 0.18656 0.60616 0.51185 0.0
C984 C 0.17106 0.59926 0.49628 0.0
H985 H 0.12732 0.51682 0.46413 0.0
H986 H 0.15081 0.54024 0.47983 0.0
H987 H 0.11669 0.51825 0.48627 0.0
H988 H 0.11581 0.54452 0.51076 0.0
H989 H 0.14294 0.5564 0.53807 0.0
H990 H 0.47033 0.07748 0.57686 0.0
H991 H 0.48347 0.09185 0.60758 0.0
H992 H 0.50429 0.03592 0.61567 0.0
H993 H 0.49055 0.02088 0.58494 0.0
H994 H 0.4669 0.06374 0.64198 0.0
H995 H 0.5748 0.10721 0.62499 0.0
H996 H 0.54929 0.09837 0.60809 0.0
H997 H 0.55197 0.07438 0.6193 0.0
C998 C 0.47698 0.0677 0.58527 0.0
C999 C 0.47942 0.04803 0.57841 0.0
C1000 C 0.48465 0.07608 0.6028 0.0
C1001 C 0.49508 0.06511 0.61377 0.0
C1002 C 0.49654 0.04478 0.60729 0.0
H1003 H 0.58246 0.13237 0.71385 0.0
H1004 H 0.56061 0.10267 0.68896 0.0
C1005 C 0.48876 0.03629 0.58974 0.0
C1006 C 0.50599 0.07621 0.63154 0.0
H1007 H 0.56502 0.11432 0.65382 0.0
C1008 C 0.48832 0.07456 0.64469 0.0
C1009 C 0.53393 0.09019 0.63499 0.0
C1010 C 0.55374 0.09288 0.62113 0.0
C1011 C 0.49793 0.08704 0.66114 0.0
C1012 C 0.52596 0.10205 0.66428 0.0
C1013 C 0.54355 0.10284 0.65138 0.0
C1014 C 0.53761 0.11864 0.68019 0.0
C1015 C 0.47796 0.08413 0.67495 0.0
C1016 C 0.53206 0.13755 0.68344 0.0
C1017 C 0.54442 0.15446 0.69763 0.0
C1018 C 0.56288 0.15302 0.70876 0.0
C1019 C 0.56834 0.13398 0.70554 0.0
C1020 C 0.55585 0.11698 0.69134 0.0
H1021 H 0.45837 0.06599 0.67316 0.0
H1022 H 0.48549 0.08481 0.68868 0.0
H1023 H 0.47438 0.09981 0.67348 0.0
H1024 H 0.51864 0.13965 0.67471 0.0
H1025 H 0.53987 0.16897 0.69965 0.0
H1026 H 0.5219 0.61859 0.70345 0.0
H1027 H 0.51812 0.63465 0.73245 0.0
H1028 H 0.47349 0.55834 0.75278 0.0
H1029 H 0.4773 0.54215 0.72396 0.0
H1030 H 0.46637 0.6164 0.75458 0.0
H1031 H 0.54445 0.6032 0.78523 0.0
H1032 H 0.54209 0.60649 0.76145 0.0
H1033 H 0.51861 0.57723 0.77223 0.0
C1034 C 0.51105 0.60525 0.71407 0.0
C1035 C 0.49989 0.57914 0.71149 0.0
C1036 C 0.50888 0.61443 0.73055 0.0
C1037 C 0.49579 0.59764 0.74468 0.0
C1038 C 0.4838 0.57152 0.74198 0.0
H1039 H 0.46787 0.60177 0.85572 0.0
H1040 H 0.47627 0.59287 0.82564 0.0
C1041 C 0.48578 0.56231 0.72549 0.0
C1042 C 0.49547 0.60738 0.76252 0.0
H1043 H 0.52102 0.61462 0.80457 0.0
C1044 C 0.47844 0.61627 0.76552 0.0
C1045 C 0.5113 0.60708 0.77663 0.0
C1046 C 0.53033 0.59816 0.77381 0.0
C1047 C 0.47605 0.62408 0.78258 0.0
C1048 C 0.49168 0.62351 0.7968 0.0
C1049 C 0.50915 0.61511 0.79363 0.0
C1050 C 0.48889 0.63 0.8153 0.0
C1051 C 0.45602 0.63182 0.78536 0.0
C1052 C 0.49409 0.65413 0.8196 0.0
C1053 C 0.48915 0.65925 0.83679 0.0
C1054 C 0.47919 0.64037 0.84998 0.0
C1055 C 0.47543 0.61669 0.84586 0.0
C1056 C 0.48021 0.61156 0.82866 0.0
H1057 H 0.44132 0.62551 0.77418 0.0
H1058 H 0.44485 0.62385 0.79797 0.0
H1059 H 0.46683 0.65279 0.78621 0.0
H1060 H 0.50146 0.66882 0.80957 0.0
H1061 H 0.49248 0.67776 0.8396 0.0
H1062 H 0.92967 0.35517 0.88392 0.0
H1063 H 0.90491 0.34304 0.91193 0.0
H1064 H 0.88419 0.39899 0.90327 0.0
H1065 H 0.90804 0.41056 0.87492 0.0
H1066 H 0.91789 0.37505 0.9403 0.0
H1067 H 0.81302 0.33815 0.91899 0.0
H1068 H 0.83853 0.34221 0.90365 0.0
H1069 H 0.83651 0.36893 0.9101 0.0
C1070 C 0.91913 0.36434 0.88768 0.0
C1071 C 0.92076 0.38379 0.87716 0.0
C1072 C 0.90518 0.35753 0.90378 0.0
C1073 C 0.8925 0.36994 0.90961 0.0
C1074 C 0.89338 0.38882 0.89888 0.0
H1075 H 0.8245 0.38258 0.00732 0.0
H1076 H 0.84313 0.38693 0.97754 0.0
C1077 C 0.90727 0.3956 0.88277 0.0
C1078 C 0.88047 0.3648 0.9276 0.0
H1079 H 0.82311 0.34849 0.94992 0.0
C1080 C 0.89707 0.36894 0.9424 0.0
C1081 C 0.85335 0.35694 0.9303 0.0
C1082 C 0.83424 0.35106 0.91491 0.0
C1083 C 0.8875 0.36614 0.95986 0.0
C1084 C 0.86054 0.35873 0.96255 0.0
C1085 C 0.84381 0.35426 0.94777 0.0
C1086 C 0.84948 0.35601 0.98064 0.0
C1087 C 0.9065 0.37186 0.97531 0.0
C1088 C 0.84681 0.3371 0.99218 0.0
C1089 C 0.83618 0.33455 0.00922 0.0
C1090 C 0.82798 0.35085 0.01497 0.0
C1091 C 0.83071 0.36978 0.00334 0.0
C1092 C 0.84126 0.37226 0.9863 0.0
H1093 H 0.92779 0.38233 0.97102 0.0
H1094 H 0.90408 0.38322 0.98565 0.0
H1095 H 0.90186 0.3538 0.9815 0.0
H1096 H 0.85274 0.32418 0.98794 0.0
H1097 H 0.83424 0.3197 0.01781 0.0
H1098 H 0.41191 0.9523 0.08813 0.0
H1099 H 0.41522 0.94021 0.11858 0.0
H1100 H 0.49651 0.96072 0.10879 0.0
H1101 H 0.49386 0.97407 0.07868 0.0
H1102 H 0.42249 0.90274 0.12727 0.0
H1103 H 0.50497 0.99193 0.15717 0.0
H1104 H 0.48857 0.9913 0.13657 0.0
H1105 H 0.51468 0.98446 0.13662 0.0
C1106 C 0.43076 0.95494 0.0926 0.0
C1107 C 0.45261 0.96412 0.08092 0.0
C1108 C 0.43256 0.94785 0.10999 0.0
C1109 C 0.45622 0.94984 0.11606 0.0
C1110 C 0.47825 0.95954 0.10457 0.0
H1111 H 0.49875 0.88272 0.19906 0.0
H1112 H 0.49684 0.90574 0.17322 0.0
C1113 C 0.47655 0.96679 0.08724 0.0
C1114 C 0.457 0.93952 0.13372 0.0
H1115 H 0.49365 0.95339 0.17224 0.0
C1116 C 0.43781 0.91394 0.13721 0.0
C1117 C 0.47705 0.95413 0.14666 0.0
C1118 C 0.49731 0.98204 0.14415 0.0
C1119 C 0.43864 0.90235 0.15301 0.0
C1120 C 0.45912 0.91676 0.16568 0.0
C1121 C 0.47805 0.94244 0.16241 0.0
C1122 C 0.46159 0.90504 0.18209 0.0
C1123 C 0.41814 0.87456 0.15586 0.0
C1124 C 0.4427 0.89756 0.19575 0.0
C1125 C 0.44376 0.88448 0.21055 0.0
C1126 C 0.46368 0.87859 0.21187 0.0
C1127 C 0.4831 0.88687 0.19841 0.0
C1128 C 0.4821 0.90007 0.18367 0.0
H1129 H 0.40595 0.86527 0.14367 0.0
H1130 H 0.42819 0.8645 0.16 0.0
H1131 H 0.40437 0.87244 0.16671 0.0
H1132 H 0.42682 0.90139 0.19475 0.0
H1133 H 0.42854 0.87843 0.22069 0.0
H1134 H 0.5344 0.49746 0.2266 0.0
H1135 H 0.54136 0.48585 0.25634 0.0
H1136 H 0.60093 0.56426 0.2676 0.0
H1137 H 0.59368 0.57611 0.23796 0.0
H1138 H 0.59315 0.49636 0.26499 0.0
H1139 H 0.55838 0.53847 0.31471 0.0
H1140 H 0.54671 0.53251 0.29183 0.0
H1141 H 0.57916 0.55962 0.29735 0.0
C1142 C 0.54823 0.51236 0.23564 0.0
C1143 C 0.56356 0.5377 0.22996 0.0
C1144 C 0.55229 0.50567 0.25258 0.0
C1145 C 0.57152 0.52421 0.26416 0.0
C1146 C 0.58568 0.54972 0.25896 0.0
H1147 H 0.65795 0.52809 0.35834 0.0
H1148 H 0.63831 0.53734 0.33292 0.0
C1149 C 0.5817 0.55643 0.24198 0.0
C1150 C 0.57965 0.51654 0.28042 0.0
H1151 H 0.58609 0.52401 0.3256 0.0
C1152 C 0.59131 0.50211 0.27828 0.0
C1153 C 0.5775 0.5244 0.29764 0.0
C1154 C 0.56456 0.53944 0.30062 0.0
C1155 C 0.6016 0.49587 0.29288 0.0
C1156 C 0.59953 0.50375 0.31015 0.0
C1157 C 0.58757 0.51796 0.31233 0.0
C1158 C 0.61038 0.49798 0.32601 0.0
C1159 C 0.61549 0.48171 0.28957 0.0
C1160 C 0.60086 0.47279 0.33068 0.0
C1161 C 0.61225 0.46745 0.34503 0.0
C1162 C 0.63309 0.48723 0.35514 0.0
C1163 C 0.64202 0.51244 0.35076 0.0
C1164 C 0.63077 0.51777 0.33629 0.0
H1165 H 0.62157 0.48303 0.27543 0.0
H1166 H 0.63361 0.48913 0.29816 0.0
H1167 H 0.60153 0.46137 0.29273 0.0
H1168 H 0.58473 0.45725 0.32314 0.0
H1169 H 0.60468 0.44782 0.34823 0.0
H1170 H 0.42956 0.94536 0.40981 0.0
H1171 H 0.42885 0.91884 0.38562 0.0
H1172 H 0.5024 0.92806 0.40566 0.0
H1173 H 0.50241 0.95329 0.4305 0.0
H1174 H 0.46456 0.93303 0.35989 0.0
H1175 H 0.45923 0.85323 0.39629 0.0
H1176 H 0.45317 0.87562 0.40698 0.0
H1177 H 0.48698 0.88339 0.40355 0.0
C1178 C 0.44518 0.94116 0.4094 0.0
C1179 C 0.46604 0.95149 0.42215 0.0
C1180 C 0.44488 0.92618 0.39544 0.0
C1181 C 0.46541 0.92122 0.39391 0.0
C1182 C 0.48602 0.93115 0.40675 0.0
H1183 H 0.50648 0.88119 0.29314 0.0
H1184 H 0.50669 0.90253 0.32057 0.0
C1185 C 0.4862 0.94592 0.42082 0.0
C1186 C 0.46627 0.90725 0.37817 0.0
H1187 H 0.47115 0.85726 0.36551 0.0
C1188 C 0.46583 0.91636 0.36113 0.0
C1189 C 0.46766 0.88536 0.37978 0.0
C1190 C 0.46651 0.87366 0.39763 0.0
C1191 C 0.467 0.90437 0.34566 0.0
C1192 C 0.46955 0.88313 0.34728 0.0
C1193 C 0.46964 0.87379 0.3643 0.0
C1194 C 0.47106 0.86975 0.33141 0.0
C1195 C 0.46482 0.91426 0.32776 0.0
C1196 C 0.45183 0.84391 0.32883 0.0
C1197 C 0.45197 0.83155 0.31334 0.0
C1198 C 0.47127 0.84485 0.30008 0.0
C1199 C 0.49117 0.87049 0.30302 0.0
C1200 C 0.4912 0.88276 0.31862 0.0
H1201 H 0.45542 0.92564 0.32889 0.0
H1202 H 0.48522 0.92673 0.32222 0.0
H1203 H 0.45282 0.89851 0.3182 0.0
H1204 H 0.43622 0.83345 0.33858 0.0
H1205 H 0.43638 0.81178 0.31153 0.0
H1206 H 0.60057 0.56844 0.55862 0.0
H1207 H 0.61984 0.56641 0.53047 0.0
H1208 H 0.5403 0.51744 0.5086 0.0
H1209 H 0.52081 0.5201 0.53655 0.0
H1210 H 0.6105 0.52091 0.51928 0.0
H1211 H 0.58016 0.56266 0.46627 0.0
H1212 H 0.57936 0.5691 0.48968 0.0
H1213 H 0.55245 0.54033 0.47975 0.0
C1214 C 0.58713 0.5581 0.54759 0.0
C1215 C 0.55912 0.54436 0.54983 0.0
C1216 C 0.59822 0.55684 0.53155 0.0
C1217 C 0.58153 0.54192 0.51742 0.0
C1218 C 0.55357 0.52945 0.51921 0.0
H1219 H 0.58161 0.45977 0.42794 0.0
H1220 H 0.57357 0.48173 0.45158 0.0
C1221 C 0.54245 0.53075 0.53526 0.0
C1222 C 0.59303 0.5361 0.50207 0.0
H1223 H 0.59257 0.5334 0.45664 0.0
C1224 C 0.60708 0.5241 0.50557 0.0
C1225 C 0.58839 0.54019 0.48425 0.0
C1226 C 0.57449 0.55401 0.47974 0.0
C1227 C 0.61536 0.51481 0.49171 0.0
C1228 C 0.60985 0.51804 0.47388 0.0
C1229 C 0.59673 0.53094 0.47035 0.0
C1230 C 0.61545 0.50623 0.45886 0.0
C1231 C 0.62861 0.50039 0.49633 0.0
C1232 C 0.64175 0.51298 0.455 0.0
C1233 C 0.64643 0.50027 0.44157 0.0
C1234 C 0.62487 0.48078 0.43172 0.0
C1235 C 0.59865 0.4746 0.43533 0.0
C1236 C 0.59401 0.48721 0.44878 0.0
H1237 H 0.62649 0.49524 0.51068 0.0
H1238 H 0.61991 0.48276 0.48826 0.0
H1239 H 0.65035 0.51234 0.49334 0.0
H1240 H 0.6586 0.5279 0.46247 0.0
H1241 H 0.66687 0.50564 0.43896 0.0
H1242 H 0.02514 0.48731 0.71856 0.0
H1243 H 0.05106 0.51432 0.69341 0.0
H1244 H 0.11065 0.49514 0.70182 0.0
H1245 H 0.08541 0.46872 0.7271 0.0
H1246 H 0.10606 0.55672 0.69581 0.0
H1247 H 0.09318 0.4835 0.64756 0.0
H1248 H 0.07095 0.47632 0.66619 0.0
H1249 H 0.10321 0.48024 0.66957 0.0
C1250 C 0.04366 0.4887 0.71496 0.0
C1251 C 0.05305 0.47564 0.72475 0.0
C1252 C 0.05838 0.50408 0.70058 0.0
C1253 C 0.08255 0.50644 0.69566 0.0
C1254 C 0.09174 0.49313 0.70518 0.0
H1255 H 0.22275 0.61944 0.64018 0.0
H1256 H 0.18857 0.5928 0.6621 0.0
C1257 C 0.07717 0.4779 0.71958 0.0
C1258 C 0.09917 0.52396 0.68128 0.0
H1259 H 0.12803 0.52618 0.64147 0.0
C1260 C 0.11065 0.55008 0.68382 0.0
C1261 C 0.10492 0.51517 0.66562 0.0
C1262 C 0.09225 0.48726 0.66193 0.0
C1263 C 0.12858 0.56774 0.67137 0.0
C1264 C 0.13529 0.55899 0.65612 0.0
C1265 C 0.12301 0.53283 0.65326 0.0
C1266 C 0.15557 0.57661 0.64318 0.0
C1267 C 0.14029 0.5956 0.67466 0.0
C1268 C 0.14833 0.57624 0.62528 0.0
C1269 C 0.16778 0.59139 0.61273 0.0
C1270 C 0.19493 0.60703 0.61782 0.0
C1271 C 0.20204 0.60769 0.63584 0.0
C1272 C 0.18252 0.59257 0.6484 0.0
H1273 H 0.12808 0.5988 0.68425 0.0
H1274 H 0.16081 0.60419 0.68035 0.0
H1275 H 0.14181 0.60556 0.66202 0.0
H1276 H 0.12765 0.56394 0.62099 0.0
H1277 H 0.1616 0.59037 0.59896 0.0
H1278 H 0.47615 0.10786 0.93482 0.0
H1279 H 0.4909 0.13049 0.90631 0.0
H1280 H 0.5329 0.09294 0.89451 0.0
H1281 H 0.51756 0.06968 0.92239 0.0
H1282 H 0.54305 0.16275 0.89165 0.0
H1283 H 0.48203 0.07503 0.85172 0.0
H1284 H 0.47699 0.07648 0.87531 0.0
H1285 H 0.50361 0.0728 0.86761 0.0
C1286 C 0.48857 0.10449 0.92615 0.0
C1287 C 0.49566 0.08695 0.93091 0.0
C1288 C 0.49705 0.11749 0.90993 0.0
C1289 C 0.51255 0.113 0.8982 0.0
C1290 C 0.52055 0.09633 0.90325 0.0
H1291 H 0.59268 0.16066 0.79867 0.0
H1292 H 0.57445 0.14328 0.82805 0.0
C1293 C 0.51207 0.08333 0.91935 0.0
C1294 C 0.52004 0.12515 0.88047 0.0
H1295 H 0.51608 0.11144 0.83608 0.0
C1296 C 0.53689 0.15163 0.87946 0.0
C1297 C 0.51175 0.11053 0.86461 0.0
C1298 C 0.49238 0.08216 0.8648 0.0
C1299 C 0.54676 0.16377 0.86299 0.0
C1300 C 0.53938 0.14899 0.84726 0.0
C1301 C 0.52182 0.12264 0.84823 0.0
C1302 C 0.55074 0.1603 0.82973 0.0
C1303 C 0.56582 0.19214 0.86254 0.0
C1304 C 0.54324 0.17549 0.82095 0.0
C1305 C 0.55351 0.18537 0.80409 0.0
C1306 C 0.57147 0.18022 0.79578 0.0
C1307 C 0.57895 0.16504 0.8047 0.0
C1308 C 0.56856 0.15508 0.82147 0.0
H1309 H 0.57226 0.20045 0.87611 0.0
H1310 H 0.5839 0.19714 0.85466 0.0
H1311 H 0.55582 0.2009 0.8559 0.0
H1312 H 0.52924 0.17946 0.82707 0.0
H1313 H 0.54736 0.197 0.79756 0.0
H1314 H 0.4997 0.5999 0.07296 0.0
H1315 H 0.4955 0.61726 0.04474 0.0
H1316 H 0.58041 0.65258 0.03586 0.0
H1317 H 0.58466 0.63461 0.06373 0.0
H1318 H 0.52131 0.66761 0.03144 0.0
H1319 H 0.54534 0.6068 0.99185 0.0
H1320 H 0.53713 0.60149 0.01523 0.0
H1321 H 0.56987 0.62664 0.0084 0.0
C1322 C 0.51749 0.61144 0.06503 0.0
C1323 C 0.54246 0.61572 0.0705 0.0
C1324 C 0.51509 0.62145 0.04898 0.0
C1325 C 0.53757 0.63582 0.03813 0.0
C1326 C 0.56276 0.64119 0.04395 0.0
H1327 H 0.54069 0.68683 0.9286 0.0
H1328 H 0.55514 0.68154 0.95816 0.0
C1329 C 0.56519 0.63116 0.05998 0.0
C1330 C 0.53428 0.64407 0.02035 0.0
H1331 H 0.53669 0.63419 0.97582 0.0
C1332 C 0.52483 0.66047 0.01926 0.0
C1333 C 0.53895 0.63469 0.00453 0.0
C1334 C 0.54818 0.61627 0.00495 0.0
C1335 C 0.51958 0.6675 0.00272 0.0
C1336 C 0.52355 0.65757 0.98693 0.0
C1337 C 0.53377 0.6418 0.98799 0.0
C1338 C 0.51521 0.66166 0.96929 0.0
C1339 C 0.50965 0.68535 0.00224 0.0
C1340 C 0.48799 0.65188 0.96579 0.0
C1341 C 0.47968 0.65471 0.94899 0.0
C1342 C 0.49846 0.66735 0.93533 0.0
C1343 C 0.52576 0.67708 0.93886 0.0
C1344 C 0.53406 0.67411 0.9557 0.0
H1345 H 0.51478 0.69664 0.01473 0.0
H1346 H 0.51824 0.69853 0.99077 0.0
H1347 H 0.48747 0.67417 0.00075 0.0
H1348 H 0.4731 0.64175 0.97602 0.0
H1349 H 0.45848 0.64693 0.94672 0.0
H1350 H 0.93025 0.41244 0.24923 0.0
H1351 H 0.90389 0.39095 0.22234 0.0
H1352 H 0.93404 0.46336 0.19715 0.0
H1353 H 0.96093 0.48492 0.22368 0.0
H1354 H 0.86428 0.39599 0.20368 0.0
H1355 H 0.95392 0.42461 0.16237 0.0
H1356 H 0.95536 0.42656 0.18642 0.0
H1357 H 0.95462 0.45047 0.17349 0.0
C1358 C 0.93121 0.42376 0.23796 0.0
C1359 C 0.94774 0.45037 0.23855 0.0
C1360 C 0.9161 0.41147 0.22266 0.0
C1361 C 0.91744 0.42559 0.20769 0.0
C1362 C 0.93311 0.45214 0.20848 0.0
H1363 H 0.85089 0.40005 0.10233 0.0
H1364 H 0.87578 0.41636 0.13031 0.0
C1365 C 0.94818 0.46443 0.22374 0.0
C1366 C 0.90281 0.41266 0.1911 0.0
H1367 H 0.91211 0.40631 0.14701 0.0
C1368 C 0.87467 0.398 0.19131 0.0
C1369 C 0.91653 0.41531 0.17505 0.0
C1370 C 0.94678 0.42989 0.17427 0.0
C1371 C 0.85979 0.38668 0.17565 0.0
C1372 C 0.87353 0.38979 0.15951 0.0
C1373 C 0.90168 0.40401 0.15942 0.0
C1374 C 0.85907 0.37946 0.1424 0.0
C1375 C 0.82955 0.37227 0.17638 0.0
C1376 C 0.84188 0.35324 0.13979 0.0
C1377 C 0.82758 0.3438 0.12378 0.0
C1378 C 0.83035 0.36046 0.1101 0.0
C1379 C 0.84823 0.38668 0.11259 0.0
C1380 C 0.86248 0.39606 0.12858 0.0
H1381 H 0.82234 0.37626 0.18885 0.0
H1382 H 0.82125 0.37709 0.16481 0.0
H1383 H 0.82147 0.35163 0.17585 0.0
H1384 H 0.8394 0.34009 0.15018 0.0
H1385 H 0.81407 0.32351 0.12225 0.0
loop_
_geom_bond_atom_site_label_1
_geom_bond_atom_site_label_2
_geom_bond_distance
_geom_bond_site_symmetry_2
_ccdc_geom_bond_type
H0 O26 0.856 . S
H1 O29 0.854 . S
H2 C37 0.930 1_455 S
H3 C38 0.930 . S
H4 C40 0.930 . S
H5 C41 0.930 . S
H6 C43 0.931 . S
H7 C44 0.930 . S
H8 C46 0.930 . S
H9 C47 0.929 . S
H10 C49 0.930 . S
H11 C50 0.931 . S
H12 C52 0.930 . S
H13 C53 0.929 . S
H14 C55 0.931 . S
H15 C56 0.930 . S
H16 C58 0.930 . S
H17 C59 0.932 . S
H18 C61 0.930 . S
H19 C62 0.929 . S
H20 C64 0.931 . S
H21 C65 0.930 . S
H22 C67 0.929 . S
H23 C68 0.931 . S
H24 C70 0.930 . S
H25 C71 0.925 1_455 S
O26 H0 0.856 . S
O26 C72 1.300 . S
O27 C72 1.209 . S
O28 C73 1.199 . S
O29 H1 0.854 . S
O29 C73 1.297 . S
C30 C31 1.404 . S
C30 C35 1.397 . S
C30 C36 1.492 . S
C31 C30 1.404 . S
C31 C32 1.396 . S
C31 C42 1.492 . S
C32 C31 1.396 . S
C32 C33 1.397 . S
C32 C48 1.509 . S
C33 C32 1.397 . S
C33 C34 1.412 . S
C33 C54 1.485 . S
C34 C33 1.412 . S
C34 C35 1.388 . S
C34 C60 1.490 . S
C35 C30 1.397 . S
C35 C34 1.388 . S
C35 C66 1.519 1_455 S
C36 C30 1.492 . S
C36 C37 1.363 1_455 S
C36 C41 1.390 1_455 S
C37 H2 0.930 1_655 S
C37 C36 1.363 1_655 S
C37 C38 1.372 . S
C38 H3 0.930 . S
C38 C37 1.372 . S
C38 C39 1.383 . S
C39 C38 1.383 . S
C39 C40 1.395 . S
C40 H4 0.930 . S
C40 C39 1.395 . S
C40 C41 1.362 . S
C41 H5 0.930 . S
C41 C36 1.390 1_655 S
C41 C40 1.362 . S
C42 C31 1.492 . S
C42 C43 1.377 . S
C42 C47 1.397 . S
C43 H6 0.931 . S
C43 C42 1.377 . S
C43 C44 1.376 . S
C44 H7 0.930 . S
C44 C43 1.376 . S
C44 C45 1.376 . S
C45 C44 1.376 . S
C45 C46 1.378 . S
C45 C72 1.486 . S
C46 H8 0.930 . S
C46 C45 1.378 . S
C46 C47 1.376 . S
C47 H9 0.929 . S
C47 C42 1.397 . S
C47 C46 1.376 . S
C48 C32 1.509 . S
C48 C49 1.391 . S
C48 C53 1.386 . S
C49 H10 0.930 . S
C49 C48 1.391 . S
C49 C50 1.375 . S
C50 H11 0.931 . S
C50 C49 1.375 . S
C50 C51 1.375 . S
C51 C50 1.375 . S
C51 C52 1.361 . S
C52 H12 0.930 . S
C52 C51 1.361 . S
C52 C53 1.399 . S
C53 H13 0.929 . S
C53 C48 1.386 . S
C53 C52 1.399 . S
C54 C33 1.485 . S
C54 C55 1.394 . S
C54 C59 1.360 . S
C55 H14 0.931 . S
C55 C54 1.394 . S
C55 C56 1.372 . S
C56 H15 0.930 . S
C56 C55 1.372 . S
C56 C57 1.397 . S
C57 C56 1.397 . S
C57 C58 1.390 . S
C57 C73 1.476 . S
C58 H16 0.930 . S
C58 C57 1.390 . S
C58 C59 1.366 . S
C59 H17 0.932 . S
C59 C54 1.360 . S
C59 C58 1.366 . S
C60 C34 1.490 . S
C60 C61 1.380 . S
C60 C65 1.386 . S
C61 H18 0.930 . S
C61 C60 1.380 . S
C61 C62 1.381 . S
C62 H19 0.929 . S
C62 C61 1.381 . S
C62 C63 1.371 . S
C63 C62 1.371 . S
C63 C64 1.380 . S
C64 H20 0.931 . S
C64 C63 1.380 . S
C64 C65 1.387 . S
C65 H21 0.930 . S
C65 C60 1.386 . S
C65 C64 1.387 . S
C66 C35 1.519 1_655 S
C66 C67 1.377 . S
C66 C71 1.361 . S
C67 H22 0.929 . S
C67 C66 1.377 . S
C67 C68 1.386 . S
C68 H23 0.931 . S
C68 C67 1.386 . S
C68 C69 1.363 . S
C69 C68 1.363 . S
C69 C70 1.385 . S
C70 H24 0.930 . S
C70 C69 1.385 . S
C70 C71 1.396 . S
C71 H25 0.925 1_655 S
C71 C66 1.361 . S
C71 C70 1.396 . S
C72 O26 1.300 . S
C72 O27 1.209 . S
C72 C45 1.486 . S
C73 O28 1.199 . S
C73 O29 1.297 . S
C73 C57 1.476 . S
H74 O100 0.856 . S
H75 O103 0.854 . S
H76 C111 0.930 . S
H77 C112 0.930 . S
H78 C114 0.930 . S
H79 C115 0.930 . S
H80 C117 0.931 . S
H81 C118 0.930 . S
H82 C120 0.930 . S
H83 C121 0.929 . S
H84 C123 0.930 . S
H85 C124 0.931 . S
H86 C126 0.930 . S
H87 C127 0.929 . S
H88 C129 0.931 . S
H89 C130 0.930 . S
H90 C132 0.930 . S
H91 C133 0.932 . S
H92 C135 0.930 . S
H93 C136 0.929 . S
H94 C138 0.931 . S
H95 C139 0.930 . S
H96 C141 0.929 1_545 S
H97 C142 0.931 . S
H98 C144 0.930 . S
H99 C145 0.934 . S
O100 H74 0.856 . S
O100 C146 1.300 . S
O101 C146 1.209 . S
O102 C147 1.199 . S
O103 H75 0.854 . S
O103 C147 1.297 . S
C104 C105 1.404 . S
C104 C109 1.397 . S
C104 C110 1.492 . S
C105 C104 1.404 . S
C105 C106 1.396 . S
C105 C116 1.492 . S
C106 C105 1.396 . S
C106 C107 1.397 . S
C106 C122 1.509 . S
C107 C106 1.397 . S
C107 C108 1.412 . S
C107 C128 1.485 . S
C108 C107 1.412 . S
C108 C109 1.388 . S
C108 C134 1.490 . S
C109 C104 1.397 . S
C109 C108 1.388 . S
C109 C140 1.519 . S
C110 C104 1.492 . S
C110 C111 1.363 . S
C110 C115 1.390 1_545 S
C111 H76 0.930 . S
C111 C110 1.363 . S
C111 C112 1.372 1_545 S
C112 H77 0.930 . S
C112 C111 1.372 1_565 S
C112 C113 1.383 . S
C113 C112 1.383 . S
C113 C114 1.395 . S
C114 H78 0.930 . S
C114 C113 1.395 . S
C114 C115 1.362 . S
C115 H79 0.930 . S
C115 C110 1.390 1_565 S
C115 C114 1.362 . S
C116 C105 1.492 . S
C116 C117 1.377 . S
C116 C121 1.397 . S
C117 H80 0.931 . S
C117 C116 1.377 . S
C117 C118 1.376 . S
C118 H81 0.930 . S
C118 C117 1.376 . S
C118 C119 1.376 . S
C119 C118 1.376 . S
C119 C120 1.378 . S
C119 C146 1.486 . S
C120 H82 0.930 . S
C120 C119 1.378 . S
C120 C121 1.376 . S
C121 H83 0.929 . S
C121 C116 1.397 . S
C121 C120 1.376 . S
C122 C106 1.509 . S
C122 C123 1.391 . S
C122 C127 1.386 . S
C123 H84 0.930 . S
C123 C122 1.391 . S
C123 C124 1.375 . S
C124 H85 0.931 . S
C124 C123 1.375 . S
C124 C125 1.375 . S
C125 C124 1.375 . S
C125 C126 1.361 . S
C126 H86 0.930 . S
C126 C125 1.361 . S
C126 C127 1.399 . S
C127 H87 0.929 . S
C127 C122 1.386 . S
C127 C126 1.399 . S
C128 C107 1.485 . S
C128 C129 1.394 . S
C128 C133 1.360 . S
C129 H88 0.931 . S
C129 C128 1.394 . S
C129 C130 1.372 . S
C130 H89 0.930 . S
C130 C129 1.372 . S
C130 C131 1.397 . S
C131 C130 1.397 . S
C131 C132 1.390 . S
C131 C147 1.476 . S
C132 H90 0.930 . S
C132 C131 1.390 . S
C132 C133 1.366 . S
C133 H91 0.932 . S
C133 C128 1.360 . S
C133 C132 1.366 . S
C134 C108 1.490 . S
C134 C135 1.380 . S
C134 C139 1.386 . S
C135 H92 0.930 . S
C135 C134 1.380 . S
C135 C136 1.381 . S
C136 H93 0.929 . S
C136 C135 1.381 . S
C136 C137 1.371 . S
C137 C136 1.371 . S
C137 C138 1.380 . S
C138 H94 0.931 . S
C138 C137 1.380 . S
C138 C139 1.387 . S
C139 H95 0.930 . S
C139 C134 1.386 . S
C139 C138 1.387 . S
C140 C109 1.519 . S
C140 C141 1.377 1_545 S
C140 C145 1.360 . S
C141 H96 0.929 1_565 S
C141 C140 1.377 1_565 S
C141 C142 1.386 . S
C142 H97 0.931 . S
C142 C141 1.386 . S
C142 C143 1.363 . S
C143 C142 1.363 . S
C143 C144 1.385 . S
C144 H98 0.930 . S
C144 C143 1.385 . S
C144 C145 1.391 1_565 S
C145 H99 0.934 . S
C145 C140 1.360 . S
C145 C144 1.391 1_545 S
C146 O100 1.300 . S
C146 O101 1.209 . S
C146 C119 1.486 . S
C147 O102 1.199 . S
C147 O103 1.297 . S
C147 C131 1.476 . S
H148 O174 0.856 . S
H149 O177 0.854 . S
H150 C185 0.930 . S
H151 C186 0.930 . S
H152 C188 0.930 . S
H153 C189 0.930 . S
H154 C191 0.931 . S
H155 C192 0.930 . S
H156 C194 0.930 . S
H157 C195 0.929 . S
H158 C197 0.930 . S
H159 C198 0.931 . S
H160 C200 0.930 . S
H161 C201 0.929 . S
H162 C203 0.931 . S
H163 C204 0.930 . S
H164 C206 0.930 . S
H165 C207 0.932 . S
H166 C209 0.930 . S
H167 C210 0.929 . S
H168 C212 0.931 . S
H169 C213 0.930 . S
H170 C215 0.929 . S
H171 C216 0.931 . S
H172 C218 0.930 . S
H173 C219 0.929 . S
O174 H148 0.856 . S
O174 C220 1.300 . S
O175 C220 1.209 . S
O176 C221 1.199 . S
O177 H149 0.854 . S
O177 C221 1.297 . S
C178 C179 1.404 . S
C178 C183 1.397 . S
C178 C184 1.492 . S
C179 C178 1.404 . S
C179 C180 1.396 . S
C179 C190 1.492 . S
C180 C179 1.396 . S
C180 C181 1.397 . S
C180 C196 1.509 . S
C181 C180 1.397 . S
C181 C182 1.412 . S
C181 C202 1.485 . S
C182 C181 1.412 . S
C182 C183 1.388 . S
C182 C208 1.490 . S
C183 C178 1.397 . S
C183 C182 1.388 . S
C183 C214 1.519 . S
C184 C178 1.492 . S
C184 C185 1.363 . S
C184 C189 1.390 . S
C185 H150 0.930 . S
C185 C184 1.363 . S
C185 C186 1.372 . S
C186 H151 0.930 . S
C186 C185 1.372 . S
C186 C187 1.383 . S
C187 C186 1.383 . S
C187 C188 1.395 . S
C188 H152 0.930 . S
C188 C187 1.395 . S
C188 C189 1.362 . S
C189 H153 0.930 . S
C189 C184 1.390 . S
C189 C188 1.362 . S
C190 C179 1.492 . S
C190 C191 1.377 . S
C190 C195 1.397 . S
C191 H154 0.931 . S
C191 C190 1.377 . S
C191 C192 1.376 . S
C192 H155 0.930 . S
C192 C191 1.376 . S
C192 C193 1.376 . S
C193 C192 1.376 . S
C193 C194 1.378 . S
C193 C220 1.486 . S
C194 H156 0.930 . S
C194 C193 1.378 . S
C194 C195 1.376 . S
C195 H157 0.929 . S
C195 C190 1.397 . S
C195 C194 1.376 . S
C196 C180 1.509 . S
C196 C197 1.391 . S
C196 C201 1.386 . S
C197 H158 0.930 . S
C197 C196 1.391 . S
C197 C198 1.375 . S
C198 H159 0.931 . S
C198 C197 1.375 . S
C198 C199 1.375 . S
C199 C198 1.375 . S
C199 C200 1.361 . S
C200 H160 0.930 . S
C200 C199 1.361 . S
C200 C201 1.399 . S
C201 H161 0.929 . S
C201 C196 1.386 . S
C201 C200 1.399 . S
C202 C181 1.485 . S
C202 C203 1.394 . S
C202 C207 1.360 . S
C203 H162 0.931 . S
C203 C202 1.394 . S
C203 C204 1.372 . S
C204 H163 0.930 . S
C204 C203 1.372 . S
C204 C205 1.397 . S
C205 C204 1.397 . S
C205 C206 1.390 . S
C205 C221 1.476 . S
C206 H164 0.930 . S
C206 C205 1.390 . S
C206 C207 1.366 . S
C207 H165 0.932 . S
C207 C202 1.360 . S
C207 C206 1.366 . S
C208 C182 1.490 . S
C208 C209 1.380 . S
C208 C213 1.386 . S
C209 H166 0.930 . S
C209 C208 1.380 . S
C209 C210 1.381 . S
C210 H167 0.929 . S
C210 C209 1.381 . S
C210 C211 1.371 . S
C211 C210 1.371 . S
C211 C212 1.380 . S
C212 H168 0.931 . S
C212 C211 1.380 . S
C212 C213 1.387 . S
C213 H169 0.930 . S
C213 C208 1.386 . S
C213 C212 1.387 . S
C214 C183 1.519 . S
C214 C215 1.377 . S
C214 C219 1.361 . S
C215 H170 0.929 . S
C215 C214 1.377 . S
C215 C216 1.386 . S
C216 H171 0.931 . S
C216 C215 1.386 . S
C216 C217 1.363 . S
C217 C216 1.363 . S
C217 C218 1.385 . S
C218 H172 0.930 . S
C218 C217 1.385 . S
C218 C219 1.396 . S
C219 H173 0.929 . S
C219 C214 1.361 . S
C219 C218 1.396 . S
C220 O174 1.300 . S
C220 O175 1.209 . S
C220 C193 1.486 . S
C221 O176 1.199 . S
C221 O177 1.297 . S
C221 C205 1.476 . S
H222 O248 0.856 . S
H223 O251 0.854 . S
H224 C259 0.930 1_455 S
H225 C260 0.930 . S
H226 C262 0.930 . S
H227 C263 0.930 . S
H228 C265 0.931 . S
H229 C266 0.930 . S
H230 C268 0.930 . S
H231 C269 0.929 . S
H232 C271 0.930 . S
H233 C272 0.931 . S
H234 C274 0.930 . S
H235 C275 0.929 . S
H236 C277 0.931 . S
H237 C278 0.930 . S
H238 C280 0.930 . S
H239 C281 0.932 . S
H240 C283 0.930 . S
H241 C284 0.929 . S
H242 C286 0.931 . S
H243 C287 0.930 . S
H244 C289 0.929 . S
H245 C290 0.931 . S
H246 C292 0.930 . S
H247 C293 0.929 . S
O248 H222 0.856 . S
O248 C294 1.300 . S
O249 C294 1.209 . S
O250 C295 1.199 . S
O251 H223 0.854 . S
O251 C295 1.297 . S
C252 C253 1.404 . S
C252 C257 1.397 . S
C252 C258 1.492 1_455 S
C253 C252 1.404 . S
C253 C254 1.396 . S
C253 C264 1.492 . S
C254 C253 1.396 . S
C254 C255 1.397 . S
C254 C270 1.509 . S
C255 C254 1.397 . S
C255 C256 1.412 . S
C255 C276 1.485 . S
C256 C255 1.412 . S
C256 C257 1.388 . S
C256 C282 1.490 . S
C257 C252 1.397 . S
C257 C256 1.388 . S
C257 C288 1.519 1_455 S
C258 C252 1.492 1_655 S
C258 C259 1.363 . S
C258 C263 1.390 . S
C259 H224 0.930 1_655 S
C259 C258 1.363 . S
C259 C260 1.372 . S
C260 H225 0.930 . S
C260 C259 1.372 . S
C260 C261 1.383 . S
C261 C260 1.383 . S
C261 C262 1.395 . S
C262 H226 0.930 . S
C262 C261 1.395 . S
C262 C263 1.362 . S
C263 H227 0.930 . S
C263 C258 1.390 . S
C263 C262 1.362 . S
C264 C253 1.492 . S
C264 C265 1.377 . S
C264 C269 1.397 . S
C265 H228 0.931 . S
C265 C264 1.377 . S
C265 C266 1.376 . S
C266 H229 0.930 . S
C266 C265 1.376 . S
C266 C267 1.376 . S
C267 C266 1.376 . S
C267 C268 1.378 . S
C267 C294 1.486 . S
C268 H230 0.930 . S
C268 C267 1.378 . S
C268 C269 1.376 . S
C269 H231 0.929 . S
C269 C264 1.397 . S
C269 C268 1.376 . S
C270 C254 1.509 . S
C270 C271 1.391 . S
C270 C275 1.386 . S
C271 H232 0.930 . S
C271 C270 1.391 . S
C271 C272 1.375 . S
C272 H233 0.931 . S
C272 C271 1.375 . S
C272 C273 1.375 . S
C273 C272 1.375 . S
C273 C274 1.361 . S
C274 H234 0.930 . S
C274 C273 1.361 . S
C274 C275 1.399 . S
C275 H235 0.929 . S
C275 C270 1.386 . S
C275 C274 1.399 . S
C276 C255 1.485 . S
C276 C277 1.394 . S
C276 C281 1.360 . S
C277 H236 0.931 . S
C277 C276 1.394 . S
C277 C278 1.372 . S
C278 H237 0.930 . S
C278 C277 1.372 . S
C278 C279 1.397 . S
C279 C278 1.397 . S
C279 C280 1.390 . S
C279 C295 1.476 . S
C280 H238 0.930 . S
C280 C279 1.390 . S
C280 C281 1.366 . S
C281 H239 0.932 . S
C281 C276 1.360 . S
C281 C280 1.366 . S
C282 C256 1.490 . S
C282 C283 1.380 . S
C282 C287 1.386 . S
C283 H240 0.930 . S
C283 C282 1.380 . S
C283 C284 1.381 . S
C284 H241 0.929 . S
C284 C283 1.381 . S
C284 C285 1.371 . S
C285 C284 1.371 . S
C285 C286 1.380 . S
C286 H242 0.931 . S
C286 C285 1.380 . S
C286 C287 1.387 . S
C287 H243 0.930 . S
C287 C282 1.386 . S
C287 C286 1.387 . S
C288 C257 1.519 1_655 S
C288 C289 1.377 . S
C288 C293 1.361 . S
C289 H244 0.929 . S
C289 C288 1.377 . S
C289 C290 1.386 . S
C290 H245 0.931 . S
C290 C289 1.386 . S
C290 C291 1.363 . S
C291 C290 1.363 . S
C291 C292 1.385 . S
C292 H246 0.930 . S
C292 C291 1.385 . S
C292 C293 1.396 . S
C293 H247 0.929 . S
C293 C288 1.361 . S
C293 C292 1.396 . S
C294 O248 1.300 . S
C294 O249 1.209 . S
C294 C267 1.486 . S
C295 O250 1.199 . S
C295 O251 1.297 . S
C295 C279 1.476 . S
H296 O322 0.856 . S
H297 O325 0.854 . S
H298 C333 0.930 . S
H299 C334 0.930 . S
H300 C336 0.930 . S
H301 C337 0.930 . S
H302 C339 0.931 . S
H303 C340 0.930 . S
H304 C342 0.930 . S
H305 C343 0.929 . S
H306 C345 0.930 . S
H307 C346 0.931 . S
H308 C348 0.930 . S
H309 C349 0.929 . S
H310 C351 0.931 . S
H311 C352 0.930 . S
H312 C354 0.930 . S
H313 C355 0.932 1_556 S
H314 C357 0.930 . S
H315 C358 0.929 . S
H316 C360 0.931 . S
H317 C361 0.930 . S
H318 C363 0.929 . S
H319 C364 0.931 . S
H320 C366 0.930 . S
H321 C367 0.929 . S
O322 H296 0.856 . S
O322 C368 1.300 . S
O323 C368 1.209 . S
O324 C369 1.199 . S
O325 H297 0.854 . S
O325 C369 1.297 . S
C326 C327 1.404 . S
C326 C331 1.397 . S
C326 C332 1.492 1_565 S
C327 C326 1.404 . S
C327 C328 1.396 . S
C327 C338 1.492 . S
C328 C327 1.396 . S
C328 C329 1.397 . S
C328 C344 1.509 . S
C329 C328 1.397 . S
C329 C330 1.412 1_556 S
C329 C350 1.485 1_556 S
C330 C329 1.412 1_554 S
C330 C331 1.388 1_554 S
C330 C356 1.490 . S
C331 C326 1.397 . S
C331 C330 1.388 1_556 S
C331 C362 1.519 1_565 S
C332 C326 1.492 1_545 S
C332 C333 1.363 . S
C332 C337 1.390 . S
C333 H298 0.930 . S
C333 C332 1.363 . S
C333 C334 1.372 . S
C334 H299 0.930 . S
C334 C333 1.372 . S
C334 C335 1.383 . S
C335 C334 1.383 . S
C335 C336 1.395 . S
C336 H300 0.930 . S
C336 C335 1.395 . S
C336 C337 1.362 . S
C337 H301 0.930 . S
C337 C332 1.390 . S
C337 C336 1.362 . S
C338 C327 1.492 . S
C338 C339 1.377 . S
C338 C343 1.397 . S
C339 H302 0.931 . S
C339 C338 1.377 . S
C339 C340 1.376 . S
C340 H303 0.930 . S
C340 C339 1.376 . S
C340 C341 1.376 . S
C341 C340 1.376 . S
C341 C342 1.378 . S
C341 C368 1.486 . S
C342 H304 0.930 . S
C342 C341 1.378 . S
C342 C343 1.376 . S
C343 H305 0.929 . S
C343 C338 1.397 . S
C343 C342 1.376 . S
C344 C328 1.509 . S
C344 C345 1.391 . S
C344 C349 1.386 . S
C345 H306 0.930 . S
C345 C344 1.391 . S
C345 C346 1.375 . S
C346 H307 0.931 . S
C346 C345 1.375 . S
C346 C347 1.375 . S
C347 C346 1.375 . S
C347 C348 1.361 . S
C348 H308 0.930 . S
C348 C347 1.361 . S
C348 C349 1.399 . S
C349 H309 0.929 . S
C349 C344 1.386 . S
C349 C348 1.399 . S
C350 C329 1.485 1_554 S
C350 C351 1.394 . S
C350 C355 1.360 . S
C351 H310 0.931 . S
C351 C350 1.394 . S
C351 C352 1.372 . S
C352 H311 0.930 . S
C352 C351 1.372 . S
C352 C353 1.397 . S
C353 C352 1.397 . S
C353 C354 1.390 . S
C353 C369 1.476 . S
C354 H312 0.930 . S
C354 C353 1.390 . S
C354 C355 1.366 . S
C355 H313 0.932 1_554 S
C355 C350 1.360 . S
C355 C354 1.366 . S
C356 C330 1.490 . S
C356 C357 1.380 . S
C356 C361 1.386 . S
C357 H314 0.930 . S
C357 C356 1.380 . S
C357 C358 1.381 . S
C358 H315 0.929 . S
C358 C357 1.381 . S
C358 C359 1.371 . S
C359 C358 1.371 . S
C359 C360 1.380 . S
C360 H316 0.931 . S
C360 C359 1.380 . S
C360 C361 1.387 . S
C361 H317 0.930 . S
C361 C356 1.386 . S
C361 C360 1.387 . S
C362 C331 1.519 1_545 S
C362 C363 1.377 . S
C362 C367 1.361 1_556 S
C363 H318 0.929 . S
C363 C362 1.377 . S
C363 C364 1.386 1_556 S
C364 H319 0.931 . S
C364 C363 1.386 1_554 S
C364 C365 1.363 . S
C365 C364 1.363 . S
C365 C366 1.385 . S
C366 H320 0.930 . S
C366 C365 1.385 . S
C366 C367 1.396 . S
C367 H321 0.929 . S
C367 C362 1.361 1_554 S
C367 C366 1.396 . S
C368 O322 1.300 . S
C368 O323 1.209 . S
C368 C341 1.486 . S
C369 O324 1.199 . S
C369 O325 1.297 . S
C369 C353 1.476 . S
H370 O396 0.856 . S
H371 O399 0.854 . S
H372 C407 0.930 . S
H373 C408 0.930 . S
H374 C410 0.930 . S
H375 C411 0.930 . S
H376 C413 0.931 . S
H377 C414 0.930 . S
H378 C416 0.930 . S
H379 C417 0.929 . S
H380 C419 0.930 . S
H381 C420 0.931 . S
H382 C422 0.930 . S
H383 C423 0.929 . S
H384 C425 0.931 . S
H385 C426 0.930 . S
H386 C428 0.930 . S
H387 C429 0.932 . S
H388 C431 0.930 . S
H389 C432 0.929 . S
H390 C434 0.931 . S
H391 C435 0.930 . S
H392 C437 0.929 . S
H393 C438 0.931 . S
H394 C440 0.930 . S
H395 C441 0.929 . S
O396 H370 0.856 . S
O396 C442 1.300 . S
O397 C442 1.209 . S
O398 C443 1.199 . S
O399 H371 0.854 . S
O399 C443 1.297 . S
C400 C401 1.404 . S
C400 C405 1.397 . S
C400 C406 1.492 . S
C401 C400 1.404 . S
C401 C402 1.396 . S
C401 C412 1.492 . S
C402 C401 1.396 . S
C402 C403 1.397 . S
C402 C418 1.509 . S
C403 C402 1.397 . S
C403 C404 1.412 . S
C403 C424 1.485 . S
C404 C403 1.412 . S
C404 C405 1.388 . S
C404 C430 1.490 . S
C405 C400 1.397 . S
C405 C404 1.388 . S
C405 C436 1.519 . S
C406 C400 1.492 . S
C406 C407 1.363 . S
C406 C411 1.390 . S
C407 H372 0.930 . S
C407 C406 1.363 . S
C407 C408 1.372 . S
C408 H373 0.930 . S
C408 C407 1.372 . S
C408 C409 1.383 . S
C409 C408 1.383 . S
C409 C410 1.395 . S
C410 H374 0.930 . S
C410 C409 1.395 . S
C410 C411 1.362 . S
C411 H375 0.930 . S
C411 C406 1.390 . S
C411 C410 1.362 . S
C412 C401 1.492 . S
C412 C413 1.377 . S
C412 C417 1.397 . S
C413 H376 0.931 . S
C413 C412 1.377 . S
C413 C414 1.376 . S
C414 H377 0.930 . S
C414 C413 1.376 . S
C414 C415 1.376 . S
C415 C414 1.376 . S
C415 C416 1.378 . S
C415 C442 1.486 . S
C416 H378 0.930 . S
C416 C415 1.378 . S
C416 C417 1.376 . S
C417 H379 0.929 . S
C417 C412 1.397 . S
C417 C416 1.376 . S
C418 C402 1.509 . S
C418 C419 1.391 . S
C418 C423 1.386 . S
C419 H380 0.930 . S
C419 C418 1.391 . S
C419 C420 1.375 . S
C420 H381 0.931 . S
C420 C419 1.375 . S
C420 C421 1.375 . S
C421 C420 1.375 . S
C421 C422 1.361 . S
C422 H382 0.930 . S
C422 C421 1.361 . S
C422 C423 1.399 . S
C423 H383 0.929 . S
C423 C418 1.386 . S
C423 C422 1.399 . S
C424 C403 1.485 . S
C424 C425 1.394 . S
C424 C429 1.360 . S
C425 H384 0.931 . S
C425 C424 1.394 . S
C425 C426 1.372 . S
C426 H385 0.930 . S
C426 C425 1.372 . S
C426 C427 1.397 . S
C427 C426 1.397 . S
C427 C428 1.390 . S
C427 C443 1.476 . S
C428 H386 0.930 . S
C428 C427 1.390 . S
C428 C429 1.366 . S
C429 H387 0.932 . S
C429 C424 1.360 . S
C429 C428 1.366 . S
C430 C404 1.490 . S
C430 C431 1.380 . S
C430 C435 1.386 . S
C431 H388 0.930 . S
C431 C430 1.380 . S
C431 C432 1.381 . S
C432 H389 0.929 . S
C432 C431 1.381 . S
C432 C433 1.371 . S
C433 C432 1.371 . S
C433 C434 1.380 . S
C434 H390 0.931 . S
C434 C433 1.380 . S
C434 C435 1.387 . S
C435 H391 0.930 . S
C435 C430 1.386 . S
C435 C434 1.387 . S
C436 C405 1.519 . S
C436 C437 1.377 . S
C436 C441 1.361 . S
C437 H392 0.929 . S
C437 C436 1.377 . S
C437 C438 1.386 . S
C438 H393 0.931 . S
C438 C437 1.386 . S
C438 C439 1.363 . S
C439 C438 1.363 . S
C439 C440 1.385 . S
C440 H394 0.930 . S
C440 C439 1.385 . S
C440 C441 1.396 . S
C441 H395 0.929 . S
C441 C436 1.361 . S
C441 C440 1.396 . S
C442 O396 1.300 . S
C442 O397 1.209 . S
C442 C415 1.486 . S
C443 O398 1.199 . S
C443 O399 1.297 . S
C443 C427 1.476 . S
C444 O445 1.160 . S
C444 O451 1.185 . S
O445 C444 1.160 . S
O446 Zn447 1.899 . S
O446 C454 1.284 . S
Zn447 O446 1.899 . S
Zn447 O448 2.032 . S
Zn447 O451 2.086 . S
Zn447 O456 1.977 . S
O448 Zn447 2.032 . S
O448 C452 1.278 . S
C449 O450 1.203 . S
C449 O456 1.267 . S
O450 C449 1.203 . S
O451 C444 1.185 . S
O451 Zn447 2.086 . S
C452 O448 1.278 . S
C452 O453 1.211 . S
O453 C452 1.211 . S
C454 O446 1.284 . S
C454 O455 1.273 . S
O455 C454 1.273 . S
O456 Zn447 1.977 . S
O456 C449 1.267 . S
C457 O458 1.160 . S
C457 O464 1.185 . S
O458 C457 1.160 . S
O459 Zn460 1.899 . S
O459 C467 1.284 . S
Zn460 O459 1.899 . S
Zn460 O461 2.032 . S
Zn460 O464 2.086 . S
Zn460 O469 1.977 . S
O461 Zn460 2.032 . S
O461 C465 1.278 . S
C462 O463 1.203 . S
C462 O469 1.267 . S
O463 C462 1.203 . S
O464 C457 1.185 . S
O464 Zn460 2.086 . S
C465 O461 1.278 . S
C465 O466 1.211 . S
O466 C465 1.211 . S
C467 O459 1.284 . S
C467 O468 1.273 . S
O468 C467 1.273 . S
O469 Zn460 1.977 . S
O469 C462 1.267 . S
C470 O471 1.160 . S
C470 O477 1.185 . S
O471 C470 1.160 . S
O472 Zn473 1.899 . S
O472 C480 1.284 . S
Zn473 O472 1.899 . S
Zn473 O474 2.032 . S
Zn473 O477 2.086 . S
Zn473 O482 1.977 . S
O474 Zn473 2.032 . S
O474 C478 1.278 . S
C475 O476 1.203 . S
C475 O482 1.267 . S
O476 C475 1.203 . S
O477 C470 1.185 . S
O477 Zn473 2.086 . S
C478 O474 1.278 . S
C478 O479 1.211 . S
O479 C478 1.211 . S
C480 O472 1.284 . S
C480 O481 1.273 . S
O481 C480 1.273 . S
O482 Zn473 1.977 . S
O482 C475 1.267 . S
C483 O484 1.160 . S
C483 O490 1.185 . S
O484 C483 1.160 . S
O485 Zn486 1.899 . S
O485 C493 1.284 . S
Zn486 O485 1.899 . S
Zn486 O487 2.032 . S
Zn486 O490 2.086 . S
Zn486 O495 1.977 . S
O487 Zn486 2.032 . S
O487 C491 1.278 . S
C488 O489 1.203 . S
C488 O495 1.267 . S
O489 C488 1.203 . S
O490 C483 1.185 . S
O490 Zn486 2.086 . S
C491 O487 1.278 . S
C491 O492 1.211 . S
O492 C491 1.211 . S
C493 O485 1.284 . S
C493 O494 1.273 . S
O494 C493 1.273 . S
O495 Zn486 1.977 . S
O495 C488 1.267 . S
C496 O497 1.160 . S
C496 O503 1.185 . S
O497 C496 1.160 . S
O498 Zn499 1.899 . S
O498 C506 1.284 . S
Zn499 O498 1.899 . S
Zn499 O500 2.032 . S
Zn499 O503 2.086 . S
Zn499 O508 1.977 . S
O500 Zn499 2.032 . S
O500 C504 1.278 . S
C501 O502 1.203 . S
C501 O508 1.267 . S
O502 C501 1.203 . S
O503 C496 1.185 . S
O503 Zn499 2.086 . S
C504 O500 1.278 . S
C504 O505 1.211 . S
O505 C504 1.211 . S
C506 O498 1.284 . S
C506 O507 1.273 . S
O507 C506 1.273 . S
O508 Zn499 1.977 . S
O508 C501 1.267 . S
C509 O510 1.160 . S
C509 O516 1.185 . S
O510 C509 1.160 . S
O511 Zn512 1.899 . S
O511 C519 1.284 . S
Zn512 O511 1.899 . S
Zn512 O513 2.032 . S
Zn512 O516 2.086 . S
Zn512 O521 1.977 . S
O513 Zn512 2.032 . S
O513 C517 1.278 . S
C514 O515 1.203 . S
C514 O521 1.267 . S
O515 C514 1.203 . S
O516 C509 1.185 . S
O516 Zn512 2.086 . S
C517 O513 1.278 . S
C517 O518 1.211 . S
O518 C517 1.211 . S
C519 O511 1.284 . S
C519 O520 1.273 . S
O520 C519 1.273 . S
O521 Zn512 1.977 . S
O521 C514 1.267 . S
H522 C530 0.929 . S
H523 C532 0.930 . S
H524 C534 0.930 . S
H525 C537 0.929 . S
H526 C540 0.930 . S
H527 C542 0.960 . S
H528 C542 0.960 . S
H529 C542 0.960 . S
C530 H522 0.929 . S
C530 C531 1.377 . S
C530 C532 1.384 . S
C531 C530 1.377 . S
C531 C537 1.390 . S
C532 H523 0.930 . S
C532 C530 1.384 . S
C532 C533 1.372 . S
C533 C532 1.372 . S
C533 C534 1.400 . S
C533 C538 1.490 . S
C534 H524 0.930 . S
C534 C533 1.400 . S
C534 C537 1.386 . S
H535 C551 0.930 . S
H536 C552 0.931 . S
C537 H525 0.929 . S
C537 C531 1.390 . S
C537 C534 1.386 . S
C538 C533 1.490 . S
C538 C540 1.395 . S
C538 C541 1.403 . S
H539 C545 0.930 . S
C540 H526 0.930 . S
C540 C538 1.395 . S
C540 C543 1.403 . S
C541 C538 1.403 . S
C541 C542 1.524 . S
C541 C545 1.400 . S
C542 H527 0.960 . S
C542 H528 0.960 . S
C542 H529 0.960 . S
C542 C541 1.524 . S
C543 C540 1.403 . S
C543 C544 1.392 . S
C543 C547 1.495 . S
C544 C543 1.392 . S
C544 C545 1.385 . S
C544 C546 1.478 . S
C545 H539 0.930 . S
C545 C541 1.400 . S
C545 C544 1.385 . S
C546 C544 1.478 . S
C546 C548 1.381 . S
C546 C552 1.383 . S
C547 C543 1.495 . S
C547 H553 0.959 . S
C547 H554 0.961 . S
C547 H555 0.960 . S
C548 C546 1.381 . S
C548 C549 1.394 . S
C548 H556 0.930 . S
C549 C548 1.394 . S
C549 C550 1.383 . S
C549 H557 0.929 . S
C550 C549 1.383 . S
C550 C551 1.377 . S
C551 H535 0.930 . S
C551 C550 1.377 . S
C551 C552 1.379 . S
C552 H536 0.931 . S
C552 C546 1.383 . S
C552 C551 1.379 . S
H553 C547 0.959 . S
H554 C547 0.961 . S
H555 C547 0.960 . S
H556 C548 0.930 . S
H557 C549 0.929 . S
H558 C566 0.929 . S
H559 C568 0.930 . S
H560 C570 0.930 . S
H561 C573 0.929 . S
H562 C576 0.930 . S
H563 C578 0.960 . S
H564 C578 0.960 . S
H565 C578 0.960 . S
C566 H558 0.929 . S
C566 C567 1.377 . S
C566 C568 1.384 . S
C567 C566 1.377 . S
C567 C573 1.390 . S
C568 H559 0.930 . S
C568 C566 1.384 . S
C568 C569 1.372 . S
C569 C568 1.372 . S
C569 C570 1.400 . S
C569 C574 1.490 . S
C570 H560 0.930 . S
C570 C569 1.400 . S
C570 C573 1.386 . S
H571 C587 0.930 . S
H572 C588 0.931 . S
C573 H561 0.929 . S
C573 C567 1.390 . S
C573 C570 1.386 . S
C574 C569 1.490 . S
C574 C576 1.395 . S
C574 C577 1.403 . S
H575 C581 0.930 . S
C576 H562 0.930 . S
C576 C574 1.395 . S
C576 C579 1.403 . S
C577 C574 1.403 . S
C577 C578 1.524 . S
C577 C581 1.400 . S
C578 H563 0.960 . S
C578 H564 0.960 . S
C578 H565 0.960 . S
C578 C577 1.524 . S
C579 C576 1.403 . S
C579 C580 1.392 . S
C579 C583 1.495 . S
C580 C579 1.392 . S
C580 C581 1.385 . S
C580 C582 1.478 . S
C581 H575 0.930 . S
C581 C577 1.400 . S
C581 C580 1.385 . S
C582 C580 1.478 . S
C582 C584 1.381 . S
C582 C588 1.383 . S
C583 C579 1.495 . S
C583 H589 0.959 . S
C583 H590 0.961 . S
C583 H591 0.960 . S
C584 C582 1.381 . S
C584 C585 1.394 . S
C584 H592 0.930 . S
C585 C584 1.394 . S
C585 C586 1.383 . S
C585 H593 0.929 . S
C586 C585 1.383 . S
C586 C587 1.377 . S
C587 H571 0.930 . S
C587 C586 1.377 . S
C587 C588 1.379 . S
C588 H572 0.931 . S
C588 C582 1.383 . S
C588 C587 1.379 . S
H589 C583 0.959 . S
H590 C583 0.961 . S
H591 C583 0.960 . S
H592 C584 0.930 . S
H593 C585 0.929 . S
H594 C602 0.929 . S
H595 C604 0.930 . S
H596 C606 0.930 . S
H597 C609 0.929 . S
H598 C612 0.930 . S
H599 C614 0.960 . S
H600 C614 0.960 . S
H601 C614 0.960 . S
C602 H594 0.929 . S
C602 C603 1.377 . S
C602 C604 1.384 . S
C603 C602 1.377 . S
C603 C609 1.390 . S
C604 H595 0.930 . S
C604 C602 1.384 . S
C604 C605 1.372 . S
C605 C604 1.372 . S
C605 C606 1.400 . S
C605 C610 1.490 . S
C606 H596 0.930 . S
C606 C605 1.400 . S
C606 C609 1.386 . S
H607 C623 0.930 . S
H608 C624 0.931 . S
C609 H597 0.929 . S
C609 C603 1.390 . S
C609 C606 1.386 . S
C610 C605 1.490 . S
C610 C612 1.395 . S
C610 C613 1.403 . S
H611 C617 0.930 . S
C612 H598 0.930 . S
C612 C610 1.395 . S
C612 C615 1.403 . S
C613 C610 1.403 . S
C613 C614 1.524 . S
C613 C617 1.400 . S
C614 H599 0.960 . S
C614 H600 0.960 . S
C614 H601 0.960 . S
C614 C613 1.524 . S
C615 C612 1.403 . S
C615 C616 1.392 . S
C615 C619 1.495 . S
C616 C615 1.392 . S
C616 C617 1.385 . S
C616 C618 1.478 . S
C617 H611 0.930 . S
C617 C613 1.400 . S
C617 C616 1.385 . S
C618 C616 1.478 . S
C618 C620 1.381 . S
C618 C624 1.383 . S
C619 C615 1.495 . S
C619 H625 0.959 . S
C619 H626 0.961 . S
C619 H627 0.960 . S
C620 C618 1.381 . S
C620 C621 1.394 . S
C620 H628 0.930 . S
C621 C620 1.394 . S
C621 C622 1.383 . S
C621 H629 0.929 . S
C622 C621 1.383 . S
C622 C623 1.377 . S
C623 H607 0.930 . S
C623 C622 1.377 . S
C623 C624 1.379 . S
C624 H608 0.931 . S
C624 C618 1.383 . S
C624 C623 1.379 . S
H625 C619 0.959 . S
H626 C619 0.961 . S
H627 C619 0.960 . S
H628 C620 0.930 . S
H629 C621 0.929 . S
H630 C638 0.929 . S
H631 C640 0.930 . S
H632 C642 0.930 . S
H633 C645 0.929 . S
H634 C648 0.930 . S
H635 C650 0.960 . S
H636 C650 0.960 . S
H637 C650 0.960 . S
C638 H630 0.929 . S
C638 C639 1.377 . S
C638 C640 1.384 . S
C639 C638 1.377 . S
C639 C645 1.390 . S
C640 H631 0.930 . S
C640 C638 1.384 . S
C640 C641 1.372 . S
C641 C640 1.372 . S
C641 C642 1.400 . S
C641 C646 1.490 . S
C642 H632 0.930 . S
C642 C641 1.400 . S
C642 C645 1.386 . S
H643 C659 0.930 . S
H644 C660 0.931 . S
C645 H633 0.929 . S
C645 C639 1.390 . S
C645 C642 1.386 . S
C646 C641 1.490 . S
C646 C648 1.395 . S
C646 C649 1.403 . S
H647 C653 0.930 . S
C648 H634 0.930 . S
C648 C646 1.395 . S
C648 C651 1.403 . S
C649 C646 1.403 . S
C649 C650 1.524 . S
C649 C653 1.400 . S
C650 H635 0.960 . S
C650 H636 0.960 . S
C650 H637 0.960 . S
C650 C649 1.524 . S
C651 C648 1.403 . S
C651 C652 1.392 . S
C651 C655 1.495 . S
C652 C651 1.392 . S
C652 C653 1.385 . S
C652 C654 1.478 . S
C653 H647 0.930 . S
C653 C649 1.400 . S
C653 C652 1.385 . S
C654 C652 1.478 . S
C654 C656 1.381 . S
C654 C660 1.383 . S
C655 C651 1.495 . S
C655 H661 0.959 . S
C655 H662 0.961 . S
C655 H663 0.960 . S
C656 C654 1.381 . S
C656 C657 1.394 . S
C656 H664 0.930 . S
C657 C656 1.394 . S
C657 C658 1.383 . S
C657 H665 0.929 . S
C658 C657 1.383 . S
C658 C659 1.377 . S
C659 H643 0.930 . S
C659 C658 1.377 . S
C659 C660 1.379 . S
C660 H644 0.931 . S
C660 C654 1.383 . S
C660 C659 1.379 . S
H661 C655 0.959 . S
H662 C655 0.961 . S
H663 C655 0.960 . S
H664 C656 0.930 . S
H665 C657 0.929 . S
H666 C674 0.929 . S
H667 C676 0.930 . S
H668 C678 0.930 . S
H669 C681 0.929 . S
H670 C684 0.930 . S
H671 C686 0.960 . S
H672 C686 0.960 . S
H673 C686 0.960 . S
C674 H666 0.929 . S
C674 C675 1.377 . S
C674 C676 1.384 . S
C675 C674 1.377 . S
C675 C681 1.390 . S
C676 H667 0.930 . S
C676 C674 1.384 . S
C676 C677 1.372 . S
C677 C676 1.372 . S
C677 C678 1.400 . S
C677 C682 1.490 . S
C678 H668 0.930 . S
C678 C677 1.400 . S
C678 C681 1.386 . S
H679 C695 0.930 . S
H680 C696 0.931 . S
C681 H669 0.929 . S
C681 C675 1.390 . S
C681 C678 1.386 . S
C682 C677 1.490 . S
C682 C684 1.395 . S
C682 C685 1.403 . S
H683 C689 0.930 . S
C684 H670 0.930 . S
C684 C682 1.395 . S
C684 C687 1.403 . S
C685 C682 1.403 . S
C685 C686 1.524 . S
C685 C689 1.400 . S
C686 H671 0.960 . S
C686 H672 0.960 . S
C686 H673 0.960 . S
C686 C685 1.524 . S
C687 C684 1.403 . S
C687 C688 1.392 . S
C687 C691 1.495 . S
C688 C687 1.392 . S
C688 C689 1.385 . S
C688 C690 1.478 . S
C689 H683 0.930 . S
C689 C685 1.400 . S
C689 C688 1.385 . S
C690 C688 1.478 . S
C690 C692 1.381 . S
C690 C696 1.383 . S
C691 C687 1.495 . S
C691 H697 0.959 . S
C691 H698 0.961 . S
C691 H699 0.960 . S
C692 C690 1.381 . S
C692 C693 1.394 . S
C692 H700 0.930 . S
C693 C692 1.394 . S
C693 C694 1.383 . S
C693 H701 0.929 . S
C694 C693 1.383 . S
C694 C695 1.377 . S
C695 H679 0.930 . S
C695 C694 1.377 . S
C695 C696 1.379 . S
C696 H680 0.931 . S
C696 C690 1.383 . S
C696 C695 1.379 . S
H697 C691 0.959 . S
H698 C691 0.961 . S
H699 C691 0.960 . S
H700 C692 0.930 . S
H701 C693 0.929 . S
H702 C710 0.929 . S
H703 C712 0.930 . S
H704 C714 0.930 . S
H705 C717 0.929 . S
H706 C720 0.930 . S
H707 C722 0.960 . S
H708 C722 0.960 . S
H709 C722 0.960 . S
C710 H702 0.929 . S
C710 C711 1.377 . S
C710 C712 1.384 . S
C711 C710 1.377 . S
C711 C717 1.390 . S
C712 H703 0.930 . S
C712 C710 1.384 . S
C712 C713 1.372 . S
C713 C712 1.372 . S
C713 C714 1.400 . S
C713 C718 1.490 . S
C714 H704 0.930 . S
C714 C713 1.400 . S
C714 C717 1.386 . S
H715 C731 0.930 . S
H716 C732 0.931 . S
C717 H705 0.929 . S
C717 C711 1.390 . S
C717 C714 1.386 . S
C718 C713 1.490 . S
C718 C720 1.395 . S
C718 C721 1.403 . S
H719 C725 0.930 . S
C720 H706 0.930 . S
C720 C718 1.395 . S
C720 C723 1.403 . S
C721 C718 1.403 . S
C721 C722 1.524 . S
C721 C725 1.400 . S
C722 H707 0.960 . S
C722 H708 0.960 . S
C722 H709 0.960 . S
C722 C721 1.524 . S
C723 C720 1.403 . S
C723 C724 1.392 . S
C723 C727 1.495 . S
C724 C723 1.392 . S
C724 C725 1.385 . S
C724 C726 1.478 . S
C725 H719 0.930 . S
C725 C721 1.400 . S
C725 C724 1.385 . S
C726 C724 1.478 . S
C726 C728 1.381 . S
C726 C732 1.383 . S
C727 C723 1.495 . S
C727 H733 0.959 . S
C727 H734 0.961 . S
C727 H735 0.960 . S
C728 C726 1.381 . S
C728 C729 1.394 . S
C728 H736 0.930 . S
C729 C728 1.394 . S
C729 C730 1.383 . S
C729 H737 0.929 . S
C730 C729 1.383 . S
C730 C731 1.377 . S
C731 H715 0.930 . S
C731 C730 1.377 . S
C731 C732 1.379 . S
C732 H716 0.931 . S
C732 C726 1.383 . S
C732 C731 1.379 . S
H733 C727 0.959 . S
H734 C727 0.961 . S
H735 C727 0.960 . S
H736 C728 0.930 . S
H737 C729 0.929 . S
H738 C746 0.929 . S
H739 C748 0.930 . S
H740 C750 0.930 . S
H741 C753 0.929 . S
H742 C756 0.930 . S
H743 C758 0.960 . S
H744 C758 0.960 . S
H745 C758 0.960 . S
C746 H738 0.929 . S
C746 C747 1.377 . S
C746 C748 1.384 . S
C747 C746 1.377 . S
C747 C753 1.390 . S
C748 H739 0.930 . S
C748 C746 1.384 . S
C748 C749 1.372 . S
C749 C748 1.372 . S
C749 C750 1.400 . S
C749 C754 1.490 . S
C750 H740 0.930 . S
C750 C749 1.400 . S
C750 C753 1.386 . S
H751 C767 0.930 . S
H752 C768 0.931 . S
C753 H741 0.929 . S
C753 C747 1.390 . S
C753 C750 1.386 . S
C754 C749 1.490 . S
C754 C756 1.395 . S
C754 C757 1.403 . S
H755 C761 0.930 . S
C756 H742 0.930 . S
C756 C754 1.395 . S
C756 C759 1.403 . S
C757 C754 1.403 . S
C757 C758 1.524 . S
C757 C761 1.400 . S
C758 H743 0.960 . S
C758 H744 0.960 . S
C758 H745 0.960 . S
C758 C757 1.524 . S
C759 C756 1.403 . S
C759 C760 1.392 . S
C759 C763 1.495 . S
C760 C759 1.392 . S
C760 C761 1.385 . S
C760 C762 1.478 . S
C761 H755 0.930 . S
C761 C757 1.400 . S
C761 C760 1.385 . S
C762 C760 1.478 . S
C762 C764 1.381 . S
C762 C768 1.383 . S
C763 C759 1.495 . S
C763 H769 0.959 . S
C763 H770 0.961 . S
C763 H771 0.960 . S
C764 C762 1.381 . S
C764 C765 1.394 . S
C764 H772 0.930 . S
C765 C764 1.394 . S
C765 C766 1.383 . S
C765 H773 0.929 . S
C766 C765 1.383 . S
C766 C767 1.377 . S
C767 H751 0.930 . S
C767 C766 1.377 . S
C767 C768 1.379 . S
C768 H752 0.931 . S
C768 C762 1.383 . S
C768 C767 1.379 . S
H769 C763 0.959 . S
H770 C763 0.961 . S
H771 C763 0.960 . S
H772 C764 0.930 . S
H773 C765 0.929 . S
H774 C782 0.929 . S
H775 C784 0.930 . S
H776 C786 0.930 . S
H777 C789 0.929 . S
H778 C792 0.930 . S
H779 C794 0.960 . S
H780 C794 0.960 . S
H781 C794 0.960 . S
C782 H774 0.929 . S
C782 C783 1.377 . S
C782 C784 1.384 . S
C783 C782 1.377 . S
C783 C789 1.390 . S
C784 H775 0.930 . S
C784 C782 1.384 . S
C784 C785 1.372 . S
C785 C784 1.372 . S
C785 C786 1.400 . S
C785 C790 1.490 . S
C786 H776 0.930 . S
C786 C785 1.400 . S
C786 C789 1.386 . S
H787 C803 0.930 . S
H788 C804 0.931 . S
C789 H777 0.929 . S
C789 C783 1.390 . S
C789 C786 1.386 . S
C790 C785 1.490 . S
C790 C792 1.395 . S
C790 C793 1.403 . S
H791 C797 0.930 . S
C792 H778 0.930 . S
C792 C790 1.395 . S
C792 C795 1.403 . S
C793 C790 1.403 . S
C793 C794 1.524 . S
C793 C797 1.400 . S
C794 H779 0.960 . S
C794 H780 0.960 . S
C794 H781 0.960 . S
C794 C793 1.524 . S
C795 C792 1.403 . S
C795 C796 1.392 . S
C795 C799 1.495 . S
C796 C795 1.392 . S
C796 C797 1.385 . S
C796 C798 1.478 . S
C797 H791 0.930 . S
C797 C793 1.400 . S
C797 C796 1.385 . S
C798 C796 1.478 . S
C798 C800 1.381 . S
C798 C804 1.383 . S
C799 C795 1.495 . S
C799 H805 0.959 . S
C799 H806 0.961 . S
C799 H807 0.960 . S
C800 C798 1.381 . S
C800 C801 1.394 . S
C800 H808 0.930 . S
C801 C800 1.394 . S
C801 C802 1.383 . S
C801 H809 0.929 . S
C802 C801 1.383 . S
C802 C803 1.377 . S
C803 H787 0.930 . S
C803 C802 1.377 . S
C803 C804 1.379 . S
C804 H788 0.931 . S
C804 C798 1.383 . S
C804 C803 1.379 . S
H805 C799 0.959 . S
H806 C799 0.961 . S
H807 C799 0.960 . S
H808 C800 0.930 . S
H809 C801 0.929 . S
H810 C818 0.929 . S
H811 C820 0.930 . S
H812 C822 0.930 . S
H813 C825 0.929 . S
H814 C828 0.930 . S
H815 C830 0.960 . S
H816 C830 0.960 . S
H817 C830 0.960 . S
C818 H810 0.929 . S
C818 C819 1.377 . S
C818 C820 1.384 . S
C819 C818 1.377 . S
C819 C825 1.390 . S
C820 H811 0.930 . S
C820 C818 1.384 . S
C820 C821 1.372 . S
C821 C820 1.372 . S
C821 C822 1.400 . S
C821 C826 1.490 . S
C822 H812 0.930 . S
C822 C821 1.400 . S
C822 C825 1.386 . S
H823 C839 0.930 . S
H824 C840 0.931 . S
C825 H813 0.929 . S
C825 C819 1.390 . S
C825 C822 1.386 . S
C826 C821 1.490 . S
C826 C828 1.395 . S
C826 C829 1.403 . S
H827 C833 0.930 . S
C828 H814 0.930 . S
C828 C826 1.395 . S
C828 C831 1.403 . S
C829 C826 1.403 . S
C829 C830 1.524 . S
C829 C833 1.400 . S
C830 H815 0.960 . S
C830 H816 0.960 . S
C830 H817 0.960 . S
C830 C829 1.524 . S
C831 C828 1.403 . S
C831 C832 1.392 . S
C831 C835 1.495 . S
C832 C831 1.392 . S
C832 C833 1.385 . S
C832 C834 1.478 . S
C833 H827 0.930 . S
C833 C829 1.400 . S
C833 C832 1.385 . S
C834 C832 1.478 . S
C834 C836 1.381 . S
C834 C840 1.383 . S
C835 C831 1.495 . S
C835 H841 0.959 . S
C835 H842 0.961 . S
C835 H843 0.960 . S
C836 C834 1.381 . S
C836 C837 1.394 . S
C836 H844 0.930 . S
C837 C836 1.394 . S
C837 C838 1.383 . S
C837 H845 0.929 . S
C838 C837 1.383 . S
C838 C839 1.377 . S
C839 H823 0.930 . S
C839 C838 1.377 . S
C839 C840 1.379 . S
C840 H824 0.931 . S
C840 C834 1.383 . S
C840 C839 1.379 . S
H841 C835 0.959 . S
H842 C835 0.961 . S
H843 C835 0.960 . S
H844 C836 0.930 . S
H845 C837 0.929 . S
H846 C854 0.929 . S
H847 C856 0.930 . S
H848 C858 0.930 . S
H849 C861 0.929 1_556 S
H850 C864 0.930 . S
H851 C866 0.960 . S
H852 C866 0.960 . S
H853 C866 0.960 1_556 S
C854 H846 0.929 . S
C854 C855 1.377 . S
C854 C856 1.384 . S
C855 C854 1.377 . S
C855 C861 1.390 . S
C856 H847 0.930 . S
C856 C854 1.384 . S
C856 C857 1.372 . S
C857 C856 1.372 . S
C857 C858 1.400 . S
C857 C862 1.490 . S
C858 H848 0.930 . S
C858 C857 1.400 . S
C858 C861 1.386 . S
H859 C875 0.930 . S
H860 C876 0.931 . S
C861 H849 0.929 1_554 S
C861 C855 1.390 . S
C861 C858 1.386 . S
C862 C857 1.490 . S
C862 C864 1.395 . S
C862 C865 1.403 . S
H863 C869 0.930 . S
C864 H850 0.930 . S
C864 C862 1.395 . S
C864 C867 1.403 . S
C865 C862 1.403 . S
C865 C866 1.524 . S
C865 C869 1.400 . S
C866 H851 0.960 . S
C866 H852 0.960 . S
C866 H853 0.960 1_554 S
C866 C865 1.524 . S
C867 C864 1.403 . S
C867 C868 1.392 . S
C867 C871 1.495 . S
C868 C867 1.392 . S
C868 C869 1.385 . S
C868 C870 1.478 . S
C869 H863 0.930 . S
C869 C865 1.400 . S
C869 C868 1.385 . S
C870 C868 1.478 . S
C870 C872 1.381 . S
C870 C876 1.383 . S
C871 C867 1.495 . S
C871 H877 0.959 . S
C871 H878 0.961 . S
C871 H879 0.960 . S
C872 C870 1.381 . S
C872 C873 1.394 . S
C872 H880 0.930 . S
C873 C872 1.394 . S
C873 C874 1.383 . S
C873 H881 0.929 . S
C874 C873 1.383 . S
C874 C875 1.377 . S
C875 H859 0.930 . S
C875 C874 1.377 . S
C875 C876 1.379 . S
C876 H860 0.931 . S
C876 C870 1.383 . S
C876 C875 1.379 . S
H877 C871 0.959 . S
H878 C871 0.961 . S
H879 C871 0.960 . S
H880 C872 0.930 . S
H881 C873 0.929 . S
H882 C890 0.929 . S
H883 C892 0.930 . S
H884 C894 0.930 . S
H885 C897 0.929 . S
H886 C900 0.930 . S
H887 C902 0.960 . S
H888 C902 0.960 . S
H889 C902 0.960 . S
C890 H882 0.929 . S
C890 C891 1.377 . S
C890 C892 1.384 . S
C891 C890 1.377 . S
C891 C897 1.390 . S
C892 H883 0.930 . S
C892 C890 1.384 . S
C892 C893 1.372 . S
C893 C892 1.372 . S
C893 C894 1.400 . S
C893 C898 1.490 . S
C894 H884 0.930 . S
C894 C893 1.400 . S
C894 C897 1.386 . S
H895 C911 0.930 . S
H896 C912 0.931 . S
C897 H885 0.929 . S
C897 C891 1.390 . S
C897 C894 1.386 . S
C898 C893 1.490 . S
C898 C900 1.395 . S
C898 C901 1.403 . S
H899 C905 0.930 . S
C900 H886 0.930 . S
C900 C898 1.395 . S
C900 C903 1.403 . S
C901 C898 1.403 . S
C901 C902 1.524 . S
C901 C905 1.400 . S
C902 H887 0.960 . S
C902 H888 0.960 . S
C902 H889 0.960 . S
C902 C901 1.524 . S
C903 C900 1.403 . S
C903 C904 1.392 . S
C903 C907 1.495 . S
C904 C903 1.392 . S
C904 C905 1.385 . S
C904 C906 1.478 . S
C905 H899 0.930 . S
C905 C901 1.400 . S
C905 C904 1.385 . S
C906 C904 1.478 . S
C906 C908 1.381 . S
C906 C912 1.383 . S
C907 C903 1.495 . S
C907 H913 0.959 . S
C907 H914 0.961 . S
C907 H915 0.960 . S
C908 C906 1.381 . S
C908 C909 1.394 . S
C908 H916 0.930 . S
C909 C908 1.394 . S
C909 C910 1.383 . S
C909 H917 0.929 . S
C910 C909 1.383 . S
C910 C911 1.377 . S
C911 H895 0.930 . S
C911 C910 1.377 . S
C911 C912 1.379 . S
C912 H896 0.931 . S
C912 C906 1.383 . S
C912 C911 1.379 . S
H913 C907 0.959 . S
H914 C907 0.961 . S
H915 C907 0.960 . S
H916 C908 0.930 . S
H917 C909 0.929 . S
H918 C926 0.929 . S
H919 C928 0.930 . S
H920 C930 0.930 . S
H921 C933 0.929 . S
H922 C936 0.930 . S
H923 C938 0.960 . S
H924 C938 0.960 . S
H925 C938 0.960 . S
C926 H918 0.929 . S
C926 C927 1.377 . S
C926 C928 1.384 . S
C927 C926 1.377 . S
C927 C933 1.390 . S
C928 H919 0.930 . S
C928 C926 1.384 . S
C928 C929 1.372 . S
C929 C928 1.372 . S
C929 C930 1.400 . S
C929 C934 1.490 . S
C930 H920 0.930 . S
C930 C929 1.400 . S
C930 C933 1.386 . S
H931 C947 0.930 . S
H932 C948 0.931 . S
C933 H921 0.929 . S
C933 C927 1.390 . S
C933 C930 1.386 . S
C934 C929 1.490 . S
C934 C936 1.395 . S
C934 C937 1.403 . S
H935 C941 0.930 . S
C936 H922 0.930 . S
C936 C934 1.395 . S
C936 C939 1.403 . S
C937 C934 1.403 . S
C937 C938 1.524 . S
C937 C941 1.400 . S
C938 H923 0.960 . S
C938 H924 0.960 . S
C938 H925 0.960 . S
C938 C937 1.524 . S
C939 C936 1.403 . S
C939 C940 1.392 . S
C939 C943 1.495 . S
C940 C939 1.392 . S
C940 C941 1.385 . S
C940 C942 1.478 . S
C941 H935 0.930 . S
C941 C937 1.400 . S
C941 C940 1.385 . S
C942 C940 1.478 . S
C942 C944 1.381 . S
C942 C948 1.383 . S
C943 C939 1.495 . S
C943 H949 0.959 . S
C943 H950 0.961 . S
C943 H951 0.960 . S
C944 C942 1.381 . S
C944 C945 1.394 . S
C944 H952 0.930 . S
C945 C944 1.394 . S
C945 C946 1.383 . S
C945 H953 0.929 . S
C946 C945 1.383 . S
C946 C947 1.377 . S
C947 H931 0.930 . S
C947 C946 1.377 . S
C947 C948 1.379 . S
C948 H932 0.931 . S
C948 C942 1.383 . S
C948 C947 1.379 . S
H949 C943 0.959 . S
H950 C943 0.961 . S
H951 C943 0.960 . S
H952 C944 0.930 . S
H953 C945 0.929 . S
H954 C962 0.929 . S
H955 C964 0.930 . S
H956 C966 0.930 . S
H957 C969 0.929 . S
H958 C972 0.930 . S
H959 C974 0.960 . S
H960 C974 0.960 . S
H961 C974 0.960 . S
C962 H954 0.929 . S
C962 C963 1.377 . S
C962 C964 1.384 . S
C963 C962 1.377 . S
C963 C969 1.390 . S
C964 H955 0.930 . S
C964 C962 1.384 . S
C964 C965 1.372 . S
C965 C964 1.372 . S
C965 C966 1.400 . S
C965 C970 1.490 . S
C966 H956 0.930 . S
C966 C965 1.400 . S
C966 C969 1.386 . S
H967 C983 0.930 . S
H968 C984 0.931 . S
C969 H957 0.929 . S
C969 C963 1.390 . S
C969 C966 1.386 . S
C970 C965 1.490 . S
C970 C972 1.395 . S
C970 C973 1.403 . S
H971 C977 0.930 . S
C972 H958 0.930 . S
C972 C970 1.395 . S
C972 C975 1.403 . S
C973 C970 1.403 . S
C973 C974 1.524 . S
C973 C977 1.400 . S
C974 H959 0.960 . S
C974 H960 0.960 . S
C974 H961 0.960 . S
C974 C973 1.524 . S
C975 C972 1.403 . S
C975 C976 1.392 . S
C975 C979 1.495 . S
C976 C975 1.392 . S
C976 C977 1.385 . S
C976 C978 1.478 . S
C977 H971 0.930 . S
C977 C973 1.400 . S
C977 C976 1.385 . S
C978 C976 1.478 . S
C978 C980 1.381 . S
C978 C984 1.383 . S
C979 C975 1.495 . S
C979 H985 0.959 . S
C979 H986 0.961 . S
C979 H987 0.960 . S
C980 C978 1.381 . S
C980 C981 1.394 . S
C980 H988 0.930 . S
C981 C980 1.394 . S
C981 C982 1.383 . S
C981 H989 0.929 . S
C982 C981 1.383 . S
C982 C983 1.377 . S
C983 H967 0.930 . S
C983 C982 1.377 . S
C983 C984 1.379 . S
C984 H968 0.931 . S
C984 C978 1.383 . S
C984 C983 1.379 . S
H985 C979 0.959 . S
H986 C979 0.961 . S
H987 C979 0.960 . S
H988 C980 0.930 . S
H989 C981 0.929 . S
H990 C998 0.929 . S
H991 C1000 0.930 . S
H992 C1002 0.930 . S
H993 C1005 0.929 . S
H994 C1008 0.930 . S
H995 C1010 0.960 . S
H996 C1010 0.960 . S
H997 C1010 0.960 . S
C998 H990 0.929 . S
C998 C999 1.377 . S
C998 C1000 1.384 . S
C999 C998 1.377 . S
C999 C1005 1.390 . S
C1000 H991 0.930 . S
C1000 C998 1.384 . S
C1000 C1001 1.372 . S
C1001 C1000 1.372 . S
C1001 C1002 1.400 . S
C1001 C1006 1.490 . S
C1002 H992 0.930 . S
C1002 C1001 1.400 . S
C1002 C1005 1.386 . S
H1003 C1019 0.930 . S
H1004 C1020 0.931 . S
C1005 H993 0.929 . S
C1005 C999 1.390 . S
C1005 C1002 1.386 . S
C1006 C1001 1.490 . S
C1006 C1008 1.395 . S
C1006 C1009 1.403 . S
H1007 C1013 0.930 . S
C1008 H994 0.930 . S
C1008 C1006 1.395 . S
C1008 C1011 1.403 . S
C1009 C1006 1.403 . S
C1009 C1010 1.524 . S
C1009 C1013 1.400 . S
C1010 H995 0.960 . S
C1010 H996 0.960 . S
C1010 H997 0.960 . S
C1010 C1009 1.524 . S
C1011 C1008 1.403 . S
C1011 C1012 1.392 . S
C1011 C1015 1.495 . S
C1012 C1011 1.392 . S
C1012 C1013 1.385 . S
C1012 C1014 1.478 . S
C1013 H1007 0.930 . S
C1013 C1009 1.400 . S
C1013 C1012 1.385 . S
C1014 C1012 1.478 . S
C1014 C1016 1.381 . S
C1014 C1020 1.383 . S
C1015 C1011 1.495 . S
C1015 H1021 0.959 . S
C1015 H1022 0.961 . S
C1015 H1023 0.960 . S
C1016 C1014 1.381 . S
C1016 C1017 1.394 . S
C1016 H1024 0.930 . S
C1017 C1016 1.394 . S
C1017 C1018 1.383 . S
C1017 H1025 0.929 . S
C1018 C1017 1.383 . S
C1018 C1019 1.377 . S
C1019 H1003 0.930 . S
C1019 C1018 1.377 . S
C1019 C1020 1.379 . S
C1020 H1004 0.931 . S
C1020 C1014 1.383 . S
C1020 C1019 1.379 . S
H1021 C1015 0.959 . S
H1022 C1015 0.961 . S
H1023 C1015 0.960 . S
H1024 C1016 0.930 . S
H1025 C1017 0.929 . S
H1026 C1034 0.929 . S
H1027 C1036 0.930 . S
H1028 C1038 0.930 . S
H1029 C1041 0.929 . S
H1030 C1044 0.930 . S
H1031 C1046 0.960 . S
H1032 C1046 0.960 . S
H1033 C1046 0.960 . S
C1034 H1026 0.929 . S
C1034 C1035 1.377 . S
C1034 C1036 1.384 . S
C1035 C1034 1.377 . S
C1035 C1041 1.390 . S
C1036 H1027 0.930 . S
C1036 C1034 1.384 . S
C1036 C1037 1.372 . S
C1037 C1036 1.372 . S
C1037 C1038 1.400 . S
C1037 C1042 1.490 . S
C1038 H1028 0.930 . S
C1038 C1037 1.400 . S
C1038 C1041 1.386 . S
H1039 C1055 0.930 . S
H1040 C1056 0.931 . S
C1041 H1029 0.929 . S
C1041 C1035 1.390 . S
C1041 C1038 1.386 . S
C1042 C1037 1.490 . S
C1042 C1044 1.395 . S
C1042 C1045 1.403 . S
H1043 C1049 0.930 . S
C1044 H1030 0.930 . S
C1044 C1042 1.395 . S
C1044 C1047 1.403 . S
C1045 C1042 1.403 . S
C1045 C1046 1.524 . S
C1045 C1049 1.400 . S
C1046 H1031 0.960 . S
C1046 H1032 0.960 . S
C1046 H1033 0.960 . S
C1046 C1045 1.524 . S
C1047 C1044 1.403 . S
C1047 C1048 1.392 . S
C1047 C1051 1.495 . S
C1048 C1047 1.392 . S
C1048 C1049 1.385 . S
C1048 C1050 1.478 . S
C1049 H1043 0.930 . S
C1049 C1045 1.400 . S
C1049 C1048 1.385 . S
C1050 C1048 1.478 . S
C1050 C1052 1.381 . S
C1050 C1056 1.383 . S
C1051 C1047 1.495 . S
C1051 H1057 0.959 . S
C1051 H1058 0.961 . S
C1051 H1059 0.960 . S
C1052 C1050 1.381 . S
C1052 C1053 1.394 . S
C1052 H1060 0.930 . S
C1053 C1052 1.394 . S
C1053 C1054 1.383 . S
C1053 H1061 0.929 . S
C1054 C1053 1.383 . S
C1054 C1055 1.377 . S
C1055 H1039 0.930 . S
C1055 C1054 1.377 . S
C1055 C1056 1.379 . S
C1056 H1040 0.931 . S
C1056 C1050 1.383 . S
C1056 C1055 1.379 . S
H1057 C1051 0.959 . S
H1058 C1051 0.961 . S
H1059 C1051 0.960 . S
H1060 C1052 0.930 . S
H1061 C1053 0.929 . S
H1062 C1070 0.929 . S
H1063 C1072 0.930 . S
H1064 C1074 0.930 . S
H1065 C1077 0.929 . S
H1066 C1080 0.930 . S
H1067 C1082 0.960 . S
H1068 C1082 0.960 . S
H1069 C1082 0.960 . S
C1070 H1062 0.929 . S
C1070 C1071 1.377 . S
C1070 C1072 1.384 . S
C1071 C1070 1.377 . S
C1071 C1077 1.390 . S
C1072 H1063 0.930 . S
C1072 C1070 1.384 . S
C1072 C1073 1.372 . S
C1073 C1072 1.372 . S
C1073 C1074 1.400 . S
C1073 C1078 1.490 . S
C1074 H1064 0.930 . S
C1074 C1073 1.400 . S
C1074 C1077 1.386 . S
H1075 C1091 0.930 . S
H1076 C1092 0.931 . S
C1077 H1065 0.929 . S
C1077 C1071 1.390 . S
C1077 C1074 1.386 . S
C1078 C1073 1.490 . S
C1078 C1080 1.395 . S
C1078 C1081 1.403 . S
H1079 C1085 0.930 . S
C1080 H1066 0.930 . S
C1080 C1078 1.395 . S
C1080 C1083 1.403 . S
C1081 C1078 1.403 . S
C1081 C1082 1.524 . S
C1081 C1085 1.400 . S
C1082 H1067 0.960 . S
C1082 H1068 0.960 . S
C1082 H1069 0.960 . S
C1082 C1081 1.524 . S
C1083 C1080 1.403 . S
C1083 C1084 1.392 . S
C1083 C1087 1.495 . S
C1084 C1083 1.392 . S
C1084 C1085 1.385 . S
C1084 C1086 1.478 . S
C1085 H1079 0.930 . S
C1085 C1081 1.400 . S
C1085 C1084 1.385 . S
C1086 C1084 1.478 . S
C1086 C1088 1.397 . S
C1086 C1092 1.383 . S
C1087 C1083 1.495 . S
C1087 H1093 0.959 . S
C1087 H1094 0.961 . S
C1087 H1095 0.960 . S
C1088 C1086 1.397 . S
C1088 C1089 1.373 1_556 S
C1088 H1096 0.935 . S
C1089 C1088 1.373 1_554 S
C1089 C1090 1.383 . S
C1089 H1097 0.929 . S
C1090 C1089 1.383 . S
C1090 C1091 1.377 . S
C1091 H1075 0.930 . S
C1091 C1090 1.377 . S
C1091 C1092 1.379 1_554 S
C1092 H1076 0.931 . S
C1092 C1086 1.383 . S
C1092 C1091 1.379 1_556 S
H1093 C1087 0.959 . S
H1094 C1087 0.961 . S
H1095 C1087 0.960 . S
H1096 C1088 0.935 . S
H1097 C1089 0.929 . S
H1098 C1106 0.929 . S
H1099 C1108 0.930 . S
H1100 C1110 0.930 . S
H1101 C1113 0.929 . S
H1102 C1116 0.930 . S
H1103 C1118 0.960 . S
H1104 C1118 0.960 . S
H1105 C1118 0.960 . S
C1106 H1098 0.929 . S
C1106 C1107 1.377 . S
C1106 C1108 1.384 . S
C1107 C1106 1.377 . S
C1107 C1113 1.390 . S
C1108 H1099 0.930 . S
C1108 C1106 1.384 . S
C1108 C1109 1.372 . S
C1109 C1108 1.372 . S
C1109 C1110 1.400 . S
C1109 C1114 1.490 . S
C1110 H1100 0.930 . S
C1110 C1109 1.400 . S
C1110 C1113 1.386 . S
H1111 C1127 0.930 . S
H1112 C1128 0.931 . S
C1113 H1101 0.929 . S
C1113 C1107 1.390 . S
C1113 C1110 1.386 . S
C1114 C1109 1.490 . S
C1114 C1116 1.395 . S
C1114 C1117 1.403 . S
H1115 C1121 0.930 . S
C1116 H1102 0.930 . S
C1116 C1114 1.395 . S
C1116 C1119 1.403 . S
C1117 C1114 1.403 . S
C1117 C1118 1.524 . S
C1117 C1121 1.400 . S
C1118 H1103 0.960 . S
C1118 H1104 0.960 . S
C1118 H1105 0.960 . S
C1118 C1117 1.524 . S
C1119 C1116 1.403 . S
C1119 C1120 1.392 . S
C1119 C1123 1.495 . S
C1120 C1119 1.392 . S
C1120 C1121 1.385 . S
C1120 C1122 1.478 . S
C1121 H1115 0.930 . S
C1121 C1117 1.400 . S
C1121 C1120 1.385 . S
C1122 C1120 1.478 . S
C1122 C1124 1.381 . S
C1122 C1128 1.383 . S
C1123 C1119 1.495 . S
C1123 H1129 0.959 . S
C1123 H1130 0.961 . S
C1123 H1131 0.960 . S
C1124 C1122 1.381 . S
C1124 C1125 1.394 . S
C1124 H1132 0.930 . S
C1125 C1124 1.394 . S
C1125 C1126 1.383 . S
C1125 H1133 0.929 . S
C1126 C1125 1.383 . S
C1126 C1127 1.377 . S
C1127 H1111 0.930 . S
C1127 C1126 1.377 . S
C1127 C1128 1.379 . S
C1128 H1112 0.931 . S
C1128 C1122 1.383 . S
C1128 C1127 1.379 . S
H1129 C1123 0.959 . S
H1130 C1123 0.961 . S
H1131 C1123 0.960 . S
H1132 C1124 0.930 . S
H1133 C1125 0.929 . S
H1134 C1142 0.929 . S
H1135 C1144 0.930 . S
H1136 C1146 0.930 . S
H1137 C1149 0.929 . S
H1138 C1152 0.930 . S
H1139 C1154 0.960 . S
H1140 C1154 0.960 . S
H1141 C1154 0.960 . S
C1142 H1134 0.929 . S
C1142 C1143 1.377 . S
C1142 C1144 1.384 . S
C1143 C1142 1.377 . S
C1143 C1149 1.390 . S
C1144 H1135 0.930 . S
C1144 C1142 1.384 . S
C1144 C1145 1.372 . S
C1145 C1144 1.372 . S
C1145 C1146 1.400 . S
C1145 C1150 1.490 . S
C1146 H1136 0.930 . S
C1146 C1145 1.400 . S
C1146 C1149 1.386 . S
H1147 C1163 0.930 . S
H1148 C1164 0.931 . S
C1149 H1137 0.929 . S
C1149 C1143 1.390 . S
C1149 C1146 1.386 . S
C1150 C1145 1.490 . S
C1150 C1152 1.395 . S
C1150 C1153 1.403 . S
H1151 C1157 0.930 . S
C1152 H1138 0.930 . S
C1152 C1150 1.395 . S
C1152 C1155 1.403 . S
C1153 C1150 1.403 . S
C1153 C1154 1.524 . S
C1153 C1157 1.400 . S
C1154 H1139 0.960 . S
C1154 H1140 0.960 . S
C1154 H1141 0.960 . S
C1154 C1153 1.524 . S
C1155 C1152 1.403 . S
C1155 C1156 1.392 . S
C1155 C1159 1.495 . S
C1156 C1155 1.392 . S
C1156 C1157 1.385 . S
C1156 C1158 1.478 . S
C1157 H1151 0.930 . S
C1157 C1153 1.400 . S
C1157 C1156 1.385 . S
C1158 C1156 1.478 . S
C1158 C1160 1.381 . S
C1158 C1164 1.383 . S
C1159 C1155 1.495 . S
C1159 H1165 0.959 . S
C1159 H1166 0.961 . S
C1159 H1167 0.960 . S
C1160 C1158 1.381 . S
C1160 C1161 1.394 . S
C1160 H1168 0.930 . S
C1161 C1160 1.394 . S
C1161 C1162 1.383 . S
C1161 H1169 0.929 . S
C1162 C1161 1.383 . S
C1162 C1163 1.377 . S
C1163 H1147 0.930 . S
C1163 C1162 1.377 . S
C1163 C1164 1.379 . S
C1164 H1148 0.931 . S
C1164 C1158 1.383 . S
C1164 C1163 1.379 . S
H1165 C1159 0.959 . S
H1166 C1159 0.961 . S
H1167 C1159 0.960 . S
H1168 C1160 0.930 . S
H1169 C1161 0.929 . S
H1170 C1178 0.929 . S
H1171 C1180 0.930 . S
H1172 C1182 0.930 . S
H1173 C1185 0.929 . S
H1174 C1188 0.930 . S
H1175 C1190 0.960 . S
H1176 C1190 0.960 . S
H1177 C1190 0.960 . S
C1178 H1170 0.929 . S
C1178 C1179 1.377 . S
C1178 C1180 1.384 . S
C1179 C1178 1.377 . S
C1179 C1185 1.390 . S
C1180 H1171 0.930 . S
C1180 C1178 1.384 . S
C1180 C1181 1.372 . S
C1181 C1180 1.372 . S
C1181 C1182 1.400 . S
C1181 C1186 1.490 . S
C1182 H1172 0.930 . S
C1182 C1181 1.400 . S
C1182 C1185 1.386 . S
H1183 C1199 0.930 . S
H1184 C1200 0.931 . S
C1185 H1173 0.929 . S
C1185 C1179 1.390 . S
C1185 C1182 1.386 . S
C1186 C1181 1.490 . S
C1186 C1188 1.395 . S
C1186 C1189 1.403 . S
H1187 C1193 0.930 . S
C1188 H1174 0.930 . S
C1188 C1186 1.395 . S
C1188 C1191 1.403 . S
C1189 C1186 1.403 . S
C1189 C1190 1.524 . S
C1189 C1193 1.400 . S
C1190 H1175 0.960 . S
C1190 H1176 0.960 . S
C1190 H1177 0.960 . S
C1190 C1189 1.524 . S
C1191 C1188 1.403 . S
C1191 C1192 1.392 . S
C1191 C1195 1.495 . S
C1192 C1191 1.392 . S
C1192 C1193 1.385 . S
C1192 C1194 1.478 . S
C1193 H1187 0.930 . S
C1193 C1189 1.400 . S
C1193 C1192 1.385 . S
C1194 C1192 1.478 . S
C1194 C1196 1.381 . S
C1194 C1200 1.383 . S
C1195 C1191 1.495 . S
C1195 H1201 0.959 . S
C1195 H1202 0.961 . S
C1195 H1203 0.960 . S
C1196 C1194 1.381 . S
C1196 C1197 1.394 . S
C1196 H1204 0.930 . S
C1197 C1196 1.394 . S
C1197 C1198 1.383 . S
C1197 H1205 0.929 . S
C1198 C1197 1.383 . S
C1198 C1199 1.377 . S
C1199 H1183 0.930 . S
C1199 C1198 1.377 . S
C1199 C1200 1.379 . S
C1200 H1184 0.931 . S
C1200 C1194 1.383 . S
C1200 C1199 1.379 . S
H1201 C1195 0.959 . S
H1202 C1195 0.961 . S
H1203 C1195 0.960 . S
H1204 C1196 0.930 . S
H1205 C1197 0.929 . S
H1206 C1214 0.929 . S
H1207 C1216 0.930 . S
H1208 C1218 0.930 . S
H1209 C1221 0.929 . S
H1210 C1224 0.930 . S
H1211 C1226 0.960 . S
H1212 C1226 0.960 . S
H1213 C1226 0.960 . S
C1214 H1206 0.929 . S
C1214 C1215 1.377 . S
C1214 C1216 1.384 . S
C1215 C1214 1.377 . S
C1215 C1221 1.390 . S
C1216 H1207 0.930 . S
C1216 C1214 1.384 . S
C1216 C1217 1.372 . S
C1217 C1216 1.372 . S
C1217 C1218 1.400 . S
C1217 C1222 1.490 . S
C1218 H1208 0.930 . S
C1218 C1217 1.400 . S
C1218 C1221 1.386 . S
H1219 C1235 0.930 . S
H1220 C1236 0.931 . S
C1221 H1209 0.929 . S
C1221 C1215 1.390 . S
C1221 C1218 1.386 . S
C1222 C1217 1.490 . S
C1222 C1224 1.395 . S
C1222 C1225 1.403 . S
H1223 C1229 0.930 . S
C1224 H1210 0.930 . S
C1224 C1222 1.395 . S
C1224 C1227 1.403 . S
C1225 C1222 1.403 . S
C1225 C1226 1.524 . S
C1225 C1229 1.400 . S
C1226 H1211 0.960 . S
C1226 H1212 0.960 . S
C1226 H1213 0.960 . S
C1226 C1225 1.524 . S
C1227 C1224 1.403 . S
C1227 C1228 1.392 . S
C1227 C1231 1.495 . S
C1228 C1227 1.392 . S
C1228 C1229 1.385 . S
C1228 C1230 1.478 . S
C1229 H1223 0.930 . S
C1229 C1225 1.400 . S
C1229 C1228 1.385 . S
C1230 C1228 1.478 . S
C1230 C1232 1.381 . S
C1230 C1236 1.383 . S
C1231 C1227 1.495 . S
C1231 H1237 0.959 . S
C1231 H1238 0.961 . S
C1231 H1239 0.960 . S
C1232 C1230 1.381 . S
C1232 C1233 1.394 . S
C1232 H1240 0.930 . S
C1233 C1232 1.394 . S
C1233 C1234 1.383 . S
C1233 H1241 0.929 . S
C1234 C1233 1.383 . S
C1234 C1235 1.377 . S
C1235 H1219 0.930 . S
C1235 C1234 1.377 . S
C1235 C1236 1.379 . S
C1236 H1220 0.931 . S
C1236 C1230 1.383 . S
C1236 C1235 1.379 . S
H1237 C1231 0.959 . S
H1238 C1231 0.961 . S
H1239 C1231 0.960 . S
H1240 C1232 0.930 . S
H1241 C1233 0.929 . S
H1242 C1250 0.929 . S
H1243 C1252 0.930 . S
H1244 C1254 0.930 . S
H1245 C1257 0.929 . S
H1246 C1260 0.930 . S
H1247 C1262 0.960 . S
H1248 C1262 0.960 . S
H1249 C1262 0.960 . S
C1250 H1242 0.929 . S
C1250 C1251 1.377 . S
C1250 C1252 1.384 . S
C1251 C1250 1.377 . S
C1251 C1257 1.390 . S
C1252 H1243 0.930 . S
C1252 C1250 1.384 . S
C1252 C1253 1.372 . S
C1253 C1252 1.372 . S
C1253 C1254 1.400 . S
C1253 C1258 1.490 . S
C1254 H1244 0.930 . S
C1254 C1253 1.400 . S
C1254 C1257 1.386 . S
H1255 C1271 0.930 . S
H1256 C1272 0.931 . S
C1257 H1245 0.929 . S
C1257 C1251 1.390 . S
C1257 C1254 1.386 . S
C1258 C1253 1.490 . S
C1258 C1260 1.395 . S
C1258 C1261 1.403 . S
H1259 C1265 0.930 . S
C1260 H1246 0.930 . S
C1260 C1258 1.395 . S
C1260 C1263 1.403 . S
C1261 C1258 1.403 . S
C1261 C1262 1.524 . S
C1261 C1265 1.400 . S
C1262 H1247 0.960 . S
C1262 H1248 0.960 . S
C1262 H1249 0.960 . S
C1262 C1261 1.524 . S
C1263 C1260 1.403 . S
C1263 C1264 1.392 . S
C1263 C1267 1.495 . S
C1264 C1263 1.392 . S
C1264 C1265 1.385 . S
C1264 C1266 1.478 . S
C1265 H1259 0.930 . S
C1265 C1261 1.400 . S
C1265 C1264 1.385 . S
C1266 C1264 1.478 . S
C1266 C1268 1.381 . S
C1266 C1272 1.383 . S
C1267 C1263 1.495 . S
C1267 H1273 0.959 . S
C1267 H1274 0.961 . S
C1267 H1275 0.960 . S
C1268 C1266 1.381 . S
C1268 C1269 1.394 . S
C1268 H1276 0.930 . S
C1269 C1268 1.394 . S
C1269 C1270 1.383 . S
C1269 H1277 0.929 . S
C1270 C1269 1.383 . S
C1270 C1271 1.377 . S
C1271 H1255 0.930 . S
C1271 C1270 1.377 . S
C1271 C1272 1.379 . S
C1272 H1256 0.931 . S
C1272 C1266 1.383 . S
C1272 C1271 1.379 . S
H1273 C1267 0.959 . S
H1274 C1267 0.961 . S
H1275 C1267 0.960 . S
H1276 C1268 0.930 . S
H1277 C1269 0.929 . S
H1278 C1286 0.929 . S
H1279 C1288 0.930 . S
H1280 C1290 0.930 . S
H1281 C1293 0.929 . S
H1282 C1296 0.930 . S
H1283 C1298 0.960 . S
H1284 C1298 0.960 . S
H1285 C1298 0.960 . S
C1286 H1278 0.929 . S
C1286 C1287 1.377 . S
C1286 C1288 1.384 . S
C1287 C1286 1.377 . S
C1287 C1293 1.390 . S
C1288 H1279 0.930 . S
C1288 C1286 1.384 . S
C1288 C1289 1.372 . S
C1289 C1288 1.372 . S
C1289 C1290 1.400 . S
C1289 C1294 1.490 . S
C1290 H1280 0.930 . S
C1290 C1289 1.400 . S
C1290 C1293 1.386 . S
H1291 C1307 0.930 . S
H1292 C1308 0.931 . S
C1293 H1281 0.929 . S
C1293 C1287 1.390 . S
C1293 C1290 1.386 . S
C1294 C1289 1.490 . S
C1294 C1296 1.395 . S
C1294 C1297 1.403 . S
H1295 C1301 0.930 . S
C1296 H1282 0.930 . S
C1296 C1294 1.395 . S
C1296 C1299 1.403 . S
C1297 C1294 1.403 . S
C1297 C1298 1.524 . S
C1297 C1301 1.400 . S
C1298 H1283 0.960 . S
C1298 H1284 0.960 . S
C1298 H1285 0.960 . S
C1298 C1297 1.524 . S
C1299 C1296 1.403 . S
C1299 C1300 1.392 . S
C1299 C1303 1.495 . S
C1300 C1299 1.392 . S
C1300 C1301 1.385 . S
C1300 C1302 1.478 . S
C1301 H1295 0.930 . S
C1301 C1297 1.400 . S
C1301 C1300 1.385 . S
C1302 C1300 1.478 . S
C1302 C1304 1.381 . S
C1302 C1308 1.383 . S
C1303 C1299 1.495 . S
C1303 H1309 0.959 . S
C1303 H1310 0.961 . S
C1303 H1311 0.960 . S
C1304 C1302 1.381 . S
C1304 C1305 1.394 . S
C1304 H1312 0.930 . S
C1305 C1304 1.394 . S
C1305 C1306 1.383 . S
C1305 H1313 0.929 . S
C1306 C1305 1.383 . S
C1306 C1307 1.377 . S
C1307 H1291 0.930 . S
C1307 C1306 1.377 . S
C1307 C1308 1.379 . S
C1308 H1292 0.931 . S
C1308 C1302 1.383 . S
C1308 C1307 1.379 . S
H1309 C1303 0.959 . S
H1310 C1303 0.961 . S
H1311 C1303 0.960 . S
H1312 C1304 0.930 . S
H1313 C1305 0.929 . S
H1314 C1322 0.929 . S
H1315 C1324 0.930 . S
H1316 C1326 0.930 . S
H1317 C1329 0.929 . S
H1318 C1332 0.930 . S
H1319 C1334 0.960 . S
H1320 C1334 0.960 . S
H1321 C1334 0.960 . S
C1322 H1314 0.929 . S
C1322 C1323 1.377 . S
C1322 C1324 1.384 . S
C1323 C1322 1.377 . S
C1323 C1329 1.390 . S
C1324 H1315 0.930 . S
C1324 C1322 1.384 . S
C1324 C1325 1.372 . S
C1325 C1324 1.372 . S
C1325 C1326 1.400 . S
C1325 C1330 1.490 . S
C1326 H1316 0.930 . S
C1326 C1325 1.400 . S
C1326 C1329 1.386 . S
H1327 C1343 0.930 . S
H1328 C1344 0.931 . S
C1329 H1317 0.929 . S
C1329 C1323 1.390 . S
C1329 C1326 1.386 . S
C1330 C1325 1.490 . S
C1330 C1332 1.395 . S
C1330 C1333 1.403 . S
H1331 C1337 0.930 . S
C1332 H1318 0.930 . S
C1332 C1330 1.395 . S
C1332 C1335 1.403 . S
C1333 C1330 1.403 . S
C1333 C1334 1.524 . S
C1333 C1337 1.400 1_554 S
C1334 H1319 0.960 . S
C1334 H1320 0.960 . S
C1334 H1321 0.960 . S
C1334 C1333 1.524 . S
C1335 C1332 1.403 . S
C1335 C1336 1.392 1_554 S
C1335 C1339 1.495 . S
C1336 C1335 1.392 1_556 S
C1336 C1337 1.385 . S
C1336 C1338 1.478 . S
C1337 H1331 0.930 . S
C1337 C1333 1.400 1_556 S
C1337 C1336 1.385 . S
C1338 C1336 1.478 . S
C1338 C1340 1.381 . S
C1338 C1344 1.383 . S
C1339 C1335 1.495 . S
C1339 H1345 0.959 . S
C1339 H1346 0.961 1_554 S
C1339 H1347 0.960 1_554 S
C1340 C1338 1.381 . S
C1340 C1341 1.394 . S
C1340 H1348 0.930 . S
C1341 C1340 1.394 . S
C1341 C1342 1.383 . S
C1341 H1349 0.929 . S
C1342 C1341 1.383 . S
C1342 C1343 1.377 . S
C1343 H1327 0.930 . S
C1343 C1342 1.377 . S
C1343 C1344 1.379 . S
C1344 H1328 0.931 . S
C1344 C1338 1.383 . S
C1344 C1343 1.379 . S
H1345 C1339 0.959 . S
H1346 C1339 0.961 1_556 S
H1347 C1339 0.960 1_556 S
H1348 C1340 0.930 . S
H1349 C1341 0.929 . S
H1350 C1358 0.929 . S
H1351 C1360 0.930 . S
H1352 C1362 0.930 . S
H1353 C1365 0.929 . S
H1354 C1368 0.930 . S
H1355 C1370 0.960 . S
H1356 C1370 0.960 . S
H1357 C1370 0.960 . S
C1358 H1350 0.929 . S
C1358 C1359 1.377 . S
C1358 C1360 1.384 . S
C1359 C1358 1.377 . S
C1359 C1365 1.390 . S
C1360 H1351 0.930 . S
C1360 C1358 1.384 . S
C1360 C1361 1.372 . S
C1361 C1360 1.372 . S
C1361 C1362 1.400 . S
C1361 C1366 1.490 . S
C1362 H1352 0.930 . S
C1362 C1361 1.400 . S
C1362 C1365 1.386 . S
H1363 C1379 0.930 . S
H1364 C1380 0.931 . S
C1365 H1353 0.929 . S
C1365 C1359 1.390 . S
C1365 C1362 1.386 . S
C1366 C1361 1.490 . S
C1366 C1368 1.395 . S
C1366 C1369 1.403 . S
H1367 C1373 0.930 . S
C1368 H1354 0.930 . S
C1368 C1366 1.395 . S
C1368 C1371 1.403 . S
C1369 C1366 1.403 . S
C1369 C1370 1.524 . S
C1369 C1373 1.400 . S
C1370 H1355 0.960 . S
C1370 H1356 0.960 . S
C1370 H1357 0.960 . S
C1370 C1369 1.524 . S
C1371 C1368 1.403 . S
C1371 C1372 1.392 . S
C1371 C1375 1.495 . S
C1372 C1371 1.392 . S
C1372 C1373 1.385 . S
C1372 C1374 1.478 . S
C1373 H1367 0.930 . S
C1373 C1369 1.400 . S
C1373 C1372 1.385 . S
C1374 C1372 1.478 . S
C1374 C1376 1.381 . S
C1374 C1380 1.383 . S
C1375 C1371 1.495 . S
C1375 H1381 0.959 . S
C1375 H1382 0.961 . S
C1375 H1383 0.960 . S
C1376 C1374 1.381 . S
C1376 C1377 1.394 . S
C1376 H1384 0.930 . S
C1377 C1376 1.394 . S
C1377 C1378 1.383 . S
C1377 H1385 0.929 . S
C1378 C1377 1.383 . S
C1378 C1379 1.377 . S
C1379 H1363 0.930 . S
C1379 C1378 1.377 . S
C1379 C1380 1.379 . S
C1380 H1364 0.931 . S
C1380 C1374 1.383 . S
C1380 C1379 1.379 . S
H1381 C1375 0.959 . S
H1382 C1375 0.961 . S
H1383 C1375 0.960 . S
H1384 C1376 0.930 . S
H1385 C1377 0.929 . S
C550 C519 1.260 . S
C531 C51 1.242 . S
C567 C125 1.392 . S
C586 C444 1.331 . S
C603 C217 2.722 . S
C622 C467 2.744 . S
C639 C291 1.410 . S
C658 C480 1.405 . S
C694 C483 0.777 . S
C675 C347 0.723 . S
C711 C421 0.614 . S
C730 C496 0.584 . S
C747 C143 2.286 . S
C766 C457 2.204 . S
C783 C199 1.483 . S
C802 C470 1.436 . S
C819 C273 0.239 . S
C838 C493 0.190 . S
C874 C506 1.641 . S
C855 C365 1.620 . S
C910 C509 1.743 . S
C891 C439 1.828 . S
C946 C454 2.509 . S
C927 C69 2.492 . S
C963 C63 1.286 . S
C982 C465 1.342 . S
C999 C137 1.401 . S
C1018 C478 1.432 . S
C1054 C488 1.190 . S
C1035 C187 1.203 . S
C1071 C261 1.382 . S
C1090 C501 1.370 . S
C1126 C517 1.410 . S
C1107 C359 1.335 . S
C1162 C449 0.894 . S
C1143 C433 0.910 . S
C1198 C514 1.465 . S
C1179 C113 1.552 . S
C1215 C211 1.246 . S
C1234 C452 1.309 . S
C1270 C462 1.412 . S
C1251 C285 1.385 . S
C1287 C335 1.264 . S
C1306 C475 1.289 . S
C1323 C409 1.171 . S
C1342 C491 1.198 . S
C1359 C39 1.597 . S
C1378 C504 1.632 . S
