# Generated by pormake.
# Topology nom, (4,4)-cn, num edge types: 1
# Building blocks:
#     Node 0, Type 0, BuildingBlock: GIZVER_clean_linker_0, # of connection points: 4
#     Node 1, Type 0, BuildingBlock: GIZVER_clean_linker_0, # of connection points: 4
#     Node 2, Type 0, BuildingBlock: GIZVER_clean_linker_0, # of connection points: 4
#     Node 3, Type 0, BuildingBlock: GIZVER_clean_linker_0, # of connection points: 4
#     Node 4, Type 0, BuildingBlock: GIZVER_clean_linker_0, # of connection points: 4
#     Node 5, Type 0, BuildingBlock: GIZVER_clean_linker_0, # of connection points: 4
#     Node 6, Type 1, BuildingBlock: NAHDIM_clean_sbu_0, # of connection points: 4
#     Node 7, Type 1, BuildingBlock: NAHDIM_clean_sbu_0, # of connection points: 4
#     Node 8, Type 1, BuildingBlock: NAHDIM_clean_sbu_0, # of connection points: 4
#     Node 9, Type 1, BuildingBlock: NAHDIM_clean_sbu_0, # of connection points: 4
#     Node 10, Type 1, BuildingBlock: NAHDIM_clean_sbu_0, # of connection points: 4
#     Node 11, Type 1, BuildingBlock: NAHDIM_clean_sbu_0, # of connection points: 4
#     Edge 12, Type (0, 1), BuildingBlock: ZUJKAS_clean_linker_0, # of connection points: 2
#     Edge 13, Type (0, 1), BuildingBlock: ZUJKAS_clean_linker_0, # of connection points: 2
#     Edge 14, Type (0, 1), BuildingBlock: ZUJKAS_clean_linker_0, # of connection points: 2
#     Edge 15, Type (0, 1), BuildingBlock: ZUJKAS_clean_linker_0, # of connection points: 2
#     Edge 16, Type (0, 1), BuildingBlock: ZUJKAS_clean_linker_0, # of connection points: 2
#     Edge 17, Type (0, 1), BuildingBlock: ZUJKAS_clean_linker_0, # of connection points: 2
#     Edge 18, Type (0, 1), BuildingBlock: ZUJKAS_clean_linker_0, # of connection points: 2
#     Edge 19, Type (0, 1), BuildingBlock: ZUJKAS_clean_linker_0, # of connection points: 2
#     Edge 20, Type (0, 1), BuildingBlock: ZUJKAS_clean_linker_0, # of connection points: 2
#     Edge 21, Type (0, 1), BuildingBlock: ZUJKAS_clean_linker_0, # of connection points: 2
#     Edge 22, Type (0, 1), BuildingBlock: ZUJKAS_clean_linker_0, # of connection points: 2
#     Edge 23, Type (0, 1), BuildingBlock: ZUJKAS_clean_linker_0, # of connection points: 2
#     Edge 24, Type (0, 1), BuildingBlock: ZUJKAS_clean_linker_0, # of connection points: 2
#     Edge 25, Type (0, 1), BuildingBlock: ZUJKAS_clean_linker_0, # of connection points: 2
#     Edge 26, Type (0, 1), BuildingBlock: ZUJKAS_clean_linker_0, # of connection points: 2
#     Edge 27, Type (0, 1), BuildingBlock: ZUJKAS_clean_linker_0, # of connection points: 2
#     Edge 28, Type (0, 1), BuildingBlock: ZUJKAS_clean_linker_0, # of connection points: 2
#     Edge 29, Type (0, 1), BuildingBlock: ZUJKAS_clean_linker_0, # of connection points: 2
#     Edge 30, Type (0, 1), BuildingBlock: ZUJKAS_clean_linker_0, # of connection points: 2
#     Edge 31, Type (0, 1), BuildingBlock: ZUJKAS_clean_linker_0, # of connection points: 2
#     Edge 32, Type (0, 1), BuildingBlock: ZUJKAS_clean_linker_0, # of connection points: 2
#     Edge 33, Type (0, 1), BuildingBlock: ZUJKAS_clean_linker_0, # of connection points: 2
#     Edge 34, Type (0, 1), BuildingBlock: ZUJKAS_clean_linker_0, # of connection points: 2
#     Edge 35, Type (0, 1), BuildingBlock: ZUJKAS_clean_linker_0, # of connection points: 2
# Relax obj value: 0.022
# Max RMSD: 0.124
# Mean RMSD: 0.093
data_MOF--net-nom--node1-NAHDIM_clean_sbu_0--node2-GIZVER_clean_linker_0--edge1-ZUJKAS_clean_linker_0
_symmetry_space_group_name_H-M    P1
_symmetry_Int_Tables_number       1
_symmetry_cell_setting            triclinic
loop_
_symmetry_equiv_pos_as_xyz
'x, y, z'
_cell_length_a     59.18695
_cell_length_b     60.835699
_cell_length_c     59.329327
_cell_angle_alpha  89.922339
_cell_angle_beta   90.637738
_cell_angle_gamma 120.92015
loop_
_atom_site_label
_atom_site_type_symbol
_atom_site_fract_x
_atom_site_fract_y
_atom_site_fract_z
_atom_type_partial_charge
H0 H 0.9745 0.55116 0.35112 0.0
H1 H 0.99072 0.5548 0.28018 0.0
H2 H 0.91689 0.49483 0.30561 0.0
H3 H 0.00974 0.59018 0.33512 0.0
H4 H 0.01348 0.5933 0.3053 0.0
H5 H 0.02454 0.56075 0.35499 0.0
H6 H 0.10109 0.58002 0.33189 0.0
H7 H 0.05224 0.5973 0.29061 0.0
C8 C 0.96881 0.54294 0.33434 0.0
C9 C 0.94386 0.52101 0.3307 0.0
C10 C 0.986 0.555 0.31621 0.0
C11 C 0.97807 0.54488 0.2943 0.0
C12 C 0.95299 0.5233 0.29041 0.0
C13 C 0.93644 0.51118 0.30874 0.0
C14 C 0.01104 0.58053 0.31969 0.0
C15 C 0.03498 0.57789 0.32194 0.0
C16 C 0.03921 0.56786 0.34187 0.0
C17 C 0.0629 0.56822 0.34538 0.0
C18 C 0.08231 0.57868 0.32881 0.0
C19 C 0.07881 0.58948 0.30919 0.0
C20 C 0.05479 0.5884 0.3055 0.0
H21 H 0.43547 0.97647 0.51371 0.0
H22 H 0.45626 0.99879 0.44459 0.0
H23 H 0.44316 0.92625 0.46783 0.0
H24 H 0.43388 0.01251 0.49914 0.0
H25 H 0.43443 0.01684 0.46933 0.0
H26 H 0.47851 0.02867 0.51981 0.0
H27 H 0.5398 0.1009 0.49438 0.0
H28 H 0.47125 0.05354 0.45349 0.0
C29 C 0.44035 0.97271 0.49716 0.0
C30 C 0.43954 0.94958 0.49303 0.0
C31 C 0.44664 0.99067 0.47977 0.0
C32 C 0.4521 0.98529 0.45813 0.0
C33 C 0.45125 0.96219 0.45377 0.0
C34 C 0.44529 0.94471 0.47139 0.0
C35 C 0.44522 0.01443 0.48368 0.0
C36 C 0.47235 0.03794 0.48602 0.0
C37 C 0.48678 0.0424 0.5062 0.0
C38 C 0.51128 0.06499 0.50923 0.0
C39 C 0.52151 0.08287 0.49169 0.0
C40 C 0.50716 0.07903 0.47165 0.0
C41 C 0.48263 0.05641 0.4688 0.0
H42 H 0.43702 0.47747 0.61199 0.0
H43 H 0.46074 0.47805 0.68101 0.0
H44 H 0.44835 0.53767 0.65709 0.0
H45 H 0.43657 0.44063 0.62647 0.0
H46 H 0.43639 0.43707 0.65634 0.0
H47 H 0.48172 0.4675 0.60717 0.0
H48 H 0.54073 0.45429 0.63578 0.0
H49 H 0.47241 0.43676 0.67416 0.0
C50 C 0.44293 0.48679 0.62833 0.0
C51 C 0.44252 0.50938 0.6322 0.0
C52 C 0.44991 0.47558 0.6458 0.0
C53 C 0.45643 0.48714 0.66726 0.0
C54 C 0.45643 0.50987 0.6712 0.0
C55 C 0.44987 0.52099 0.65356 0.0
C56 C 0.44775 0.45 0.64224 0.0
C57 C 0.47453 0.45271 0.64109 0.0
C58 C 0.48936 0.46184 0.6213 0.0
C59 C 0.51345 0.46273 0.61937 0.0
C60 C 0.52283 0.45487 0.63762 0.0
C61 C 0.50815 0.44533 0.65736 0.0
C62 C 0.48406 0.44448 0.65909 0.0
H63 H 0.96163 0.4223 0.78903 0.0
H64 H 0.99421 0.45537 0.85427 0.0
H65 H 0.91649 0.43807 0.83536 0.0
H66 H 1.00223 0.42643 0.80058 0.0
H67 H 0.00789 0.4276 0.83024 0.0
H68 H 0.02179 0.46789 0.77859 0.0
H69 H 0.09611 0.52764 0.80481 0.0
H70 H 0.04409 0.46495 0.8474 0.0
C71 C 0.96026 0.43038 0.80487 0.0
C72 C 0.93669 0.42929 0.81032 0.0
C73 C 0.98132 0.4401 0.82058 0.0
C74 C 0.97862 0.449 0.84171 0.0
C75 C 0.95541 0.44872 0.84694 0.0
C76 C 0.93485 0.43927 0.83102 0.0
C77 C 0.00518 0.43801 0.81602 0.0
C78 C 0.02978 0.464 0.81352 0.0
C79 C 0.03545 0.4766 0.79265 0.0
C80 C 0.05921 0.49981 0.78961 0.0
C81 C 0.07714 0.51052 0.80766 0.0
C82 C 0.07209 0.49807 0.82854 0.0
C83 C 0.04812 0.47492 0.83145 0.0
H84 H 0.58318 0.05004 0.01482 0.0
H85 H 0.55319 0.02542 0.94736 0.0
H86 H 0.56372 0.096 0.97327 0.0
H87 H 0.58693 0.01652 -0.00239 0.0
H88 H 0.58226 0.0119 0.96791 0.0
H89 H 0.54932 0.99187 0.02355 0.0
H90 H 0.48887 0.91872 -0.00202 0.0
H91 H 0.54225 0.97637 0.95214 0.0
C92 C 0.57503 0.05267 -0.00069 0.0
C93 C 0.57342 0.07478 0.99648 0.0
C94 C 0.56741 0.03459 0.98173 0.0
C95 C 0.55803 0.03874 0.96124 0.0
C96 C 0.55627 0.06072 0.95822 0.0
C97 C 0.56354 0.07829 0.97605 0.0
C98 C 0.57272 0.01288 0.98363 0.0
C99 C 0.54782 0.98741 0.98734 0.0
C100 C 0.53883 0.97933 0.0094 0.0
C101 C 0.51779 0.95439 0.01331 0.0
C102 C 0.50484 0.93812 0.9949 0.0
C103 C 0.51345 0.94575 0.9728 0.0
C104 C 0.53496 0.97054 0.96908 0.0
H105 H 0.5838 0.54839 0.11467 0.0
H106 H 0.56892 0.55012 0.1854 0.0
H107 H 0.57376 0.48739 0.1579 0.0
H108 H 0.59271 0.58796 0.13235 0.0
H109 H 0.59035 0.58978 0.16211 0.0
H110 H 0.55253 0.5717 0.1077 0.0
H111 H 0.49393 0.58598 0.13393 0.0
H112 H 0.55147 0.58598 0.17875 0.0
C113 C 0.57914 0.53928 0.13105 0.0
C114 C 0.57829 0.51596 0.13396 0.0
C115 C 0.57522 0.55148 0.14949 0.0
C116 C 0.57058 0.54016 0.17096 0.0
C117 C 0.57038 0.51718 0.1741 0.0
C118 C 0.57343 0.5049 0.15542 0.0
C119 C 0.57973 0.57813 0.14694 0.0
C120 C 0.55426 0.57787 0.14373 0.0
C121 C 0.54325 0.57488 0.12197 0.0
C122 C 0.52165 0.57809 0.1184 0.0
C123 C 0.51027 0.58297 0.13684 0.0
C124 C 0.52075 0.58577 0.15867 0.0
C125 C 0.54276 0.58311 0.16205 0.0
C126 C 0.62256 0.33489 0.39385 0.0
O127 O 0.647 0.34787 0.38689 0.0
O128 O 0.66902 0.40117 0.3957 0.0
Zn129 Zn 0.62965 0.38571 0.39815 0.0
O130 O 0.62109 0.39857 0.42617 0.0
C131 C 0.59655 0.39851 0.37152 0.0
O132 O 0.58176 0.39079 0.38953 0.0
O133 O 0.61106 0.34694 0.3992 0.0
C134 C 0.62843 0.42211 0.42834 0.0
O135 O 0.64254 0.43821 0.41239 0.0
C136 C 0.68509 0.40877 0.41231 0.0
O137 O 0.67613 0.40669 0.43285 0.0
O138 O 0.61737 0.39728 0.37121 0.0
C139 C 0.3078 0.69271 0.56248 0.0
O140 O 0.31902 0.68021 0.55529 0.0
O141 O 0.2867 0.62663 0.57185 0.0
Zn142 Zn 0.26284 0.64133 0.56928 0.0
O143 O 0.24036 0.62941 0.54093 0.0
C144 C 0.22969 0.60755 0.60437 0.0
O145 O 0.2385 0.59306 0.59686 0.0
O146 O 0.28421 0.68011 0.56939 0.0
C147 C 0.22385 0.60587 0.53697 0.0
O148 O 0.22237 0.5885 0.55103 0.0
C149 C 0.29283 0.61726 0.55551 0.0
O150 O 0.28367 0.61711 0.5352 0.0
O151 O 0.23799 0.62943 0.5956 0.0
C152 C 0.60663 0.29281 0.74374 0.0
O153 O 0.62009 0.29611 0.76247 0.0
O154 O 0.65936 0.27624 0.73927 0.0
Zn155 Zn 0.62004 0.25387 0.73449 0.0
O156 O 0.61135 0.23065 0.70744 0.0
C157 C 0.61123 0.21479 0.76525 0.0
O158 O 0.62874 0.21455 0.75201 0.0
O159 O 0.60401 0.27589 0.72966 0.0
C160 C 0.62688 0.22452 0.69867 0.0
O161 O 0.65093 0.23445 0.7068 0.0
C162 C 0.67481 0.2914 0.72437 0.0
O163 O 0.66504 0.29281 0.70479 0.0
O164 O 0.60416 0.23099 0.76153 0.0
C165 C 0.39495 0.69151 0.90059 0.0
O166 O 0.37156 0.67706 0.90939 0.0
O167 O 0.35079 0.62456 0.89048 0.0
Zn168 Zn 0.39057 0.64238 0.89263 0.0
O169 O 0.40281 0.6326 0.92087 0.0
C170 C 0.39 0.60994 0.85684 0.0
O171 O 0.36595 0.59463 0.86403 0.0
O172 O 0.40675 0.68091 0.89229 0.0
C173 C 0.39907 0.61019 0.92334 0.0
O174 O 0.38554 0.59269 0.9079 0.0
C175 C 0.33514 0.61382 0.90679 0.0
O176 O 0.3448 0.61418 0.92692 0.0
O177 O 0.40406 0.63182 0.86608 0.0
C178 C 0.71507 0.39989 0.05341 0.0
O179 O 0.70939 0.3838 0.03657 0.0
O180 O 0.72828 0.34703 0.065 0.0
Zn181 Zn 0.75364 0.38541 0.0655 0.0
O182 O 0.77874 0.39675 0.0922 0.0
C183 C 0.79391 0.39065 0.03639 0.0
O184 O 0.79623 0.37733 0.05274 0.0
O185 O 0.73317 0.40356 0.06736 0.0
C186 C 0.79906 0.41907 0.09092 0.0
O187 O 0.80194 0.43305 0.07307 0.0
C188 C 0.7335 0.33084 0.07335 0.0
O189 O 0.75636 0.33906 0.08342 0.0
O190 O 0.77585 0.39606 0.03748 0.0
C191 C 0.39857 0.71694 0.2303 0.0
O192 O 0.37495 0.70679 0.22117 0.0
O193 O 0.35112 0.73533 0.23704 0.0
Zn194 Zn 0.39067 0.75944 0.23728 0.0
O195 O 0.40285 0.78239 0.20995 0.0
C196 C 0.39243 0.79847 0.26438 0.0
O197 O 0.37747 0.79786 0.24757 0.0
O198 O 0.40938 0.73942 0.23859 0.0
C199 C 0.42523 0.8029 0.21152 0.0
O200 O 0.43931 0.80728 0.23006 0.0
C201 C 0.33525 0.73735 0.22379 0.0
O202 O 0.34461 0.75583 0.20884 0.0
O203 O 0.40047 0.78269 0.26438 0.0
H204 H 0.1272 0.62748 0.32233 0.0
H205 H 0.16632 0.65169 0.29939 0.0
H206 H 0.12185 0.61096 0.24 0.0
H207 H 0.08219 0.58634 0.26317 0.0
H208 H 0.17183 0.61305 0.24706 0.0
H209 H 0.18281 0.70886 0.25297 0.0
H210 H 0.17718 0.69332 0.2798 0.0
H211 H 0.15202 0.67957 0.25822 0.0
C212 C 0.12569 0.62371 0.30436 0.0
C213 C 0.10175 0.60491 0.29451 0.0
C214 C 0.14799 0.63772 0.29125 0.0
C215 C 0.1469 0.63332 0.26798 0.0
C216 C 0.12298 0.61473 0.25794 0.0
H217 H 0.29556 0.73829 0.20036 0.0
H218 H 0.24805 0.7112 0.20619 0.0
C219 C 0.10042 0.60077 0.27111 0.0
C220 C 0.17141 0.6474 0.25482 0.0
H221 H 0.22223 0.70808 0.24496 0.0
C222 C 0.18265 0.6338 0.24611 0.0
C223 C 0.18534 0.67443 0.25336 0.0
C224 C 0.17361 0.68991 0.26139 0.0
C225 C 0.20827 0.64667 0.23741 0.0
C226 C 0.22305 0.67379 0.23775 0.0
C227 C 0.21105 0.6873 0.24495 0.0
C228 C 0.25158 0.68854 0.23259 0.0
C229 C 0.21948 0.6311 0.22845 0.0
C230 C 0.26936 0.68484 0.24551 0.0
C231 C 0.29647 0.70028 0.24227 0.0
C232 C 0.30643 0.71992 0.22613 0.0
C233 C 0.28857 0.72333 0.21292 0.0
C234 C 0.2614 0.70786 0.21621 0.0
H235 H 0.20361 0.612 0.22237 0.0
H236 H 0.2333 0.64112 0.21444 0.0
H237 H 0.23037 0.62798 0.24221 0.0
H238 H 0.2623 0.67049 0.25864 0.0
H239 H 0.30964 0.69715 0.25278 0.0
H240 H 0.55551 0.10577 0.45229 0.0
H241 H 0.5742 0.14694 0.43282 0.0
H242 H 0.49941 0.14288 0.43662 0.0
H243 H 0.48047 0.10134 0.45551 0.0
H244 H 0.52532 0.16535 0.39712 0.0
H245 H 0.59211 0.20901 0.47113 0.0
H246 H 0.59561 0.18473 0.45733 0.0
H247 H 0.56517 0.17624 0.47092 0.0
C248 C 0.54293 0.11339 0.44841 0.0
C249 C 0.51662 0.1005 0.45548 0.0
C250 C 0.55365 0.13698 0.43748 0.0
C251 C 0.5384 0.14833 0.43388 0.0
C252 C 0.51158 0.13457 0.43938 0.0
H253 H 0.57103 0.30151 0.40476 0.0
H254 H 0.55005 0.25549 0.41206 0.0
C255 C 0.50074 0.11079 0.45007 0.0
C256 C 0.55088 0.17531 0.42622 0.0
H257 H 0.59837 0.23647 0.4406 0.0
C258 C 0.5413 0.1809 0.4066 0.0
C259 C 0.57154 0.19565 0.43878 0.0
C260 C 0.58156 0.19121 0.46082 0.0
C261 C 0.55213 0.20625 0.39904 0.0
C262 C 0.57294 0.22644 0.41148 0.0
C263 C 0.58255 0.22087 0.43102 0.0
C264 C 0.5848 0.25365 0.40494 0.0
C265 C 0.54149 0.21134 0.37773 0.0
C266 C 0.61129 0.26782 0.39858 0.0
C267 C 0.62332 0.29407 0.39437 0.0
C268 C 0.60918 0.30673 0.39675 0.0
C269 C 0.58248 0.29236 0.40278 0.0
C270 C 0.57041 0.26604 0.40682 0.0
H271 H 0.52904 0.19353 0.36781 0.0
H272 H 0.52929 0.21971 0.38216 0.0
H273 H 0.55785 0.22536 0.36701 0.0
H274 H 0.62276 0.25861 0.39721 0.0
H275 H 0.64391 0.30454 0.3898 0.0
H276 H 0.46045 0.55926 0.62075 0.0
H277 H 0.43548 0.57565 0.60136 0.0
H278 H 0.37353 0.49834 0.58617 0.0
H279 H 0.3979 0.48175 0.60635 0.0
H280 H 0.41221 0.57135 0.55925 0.0
H281 H 0.33733 0.52529 0.62631 0.0
H282 H 0.36893 0.52764 0.6279 0.0
H283 H 0.34314 0.50372 0.61023 0.0
C284 C 0.4417 0.54575 0.61295 0.0
C285 C 0.43095 0.5192 0.61547 0.0
C286 C 0.4275 0.55515 0.60179 0.0
C287 C 0.40235 0.5382 0.59284 0.0
C288 C 0.39267 0.51174 0.5934 0.0
H289 H 0.30577 0.59129 0.52555 0.0
H290 H 0.33232 0.57166 0.53285 0.0
C291 C 0.4068 0.50229 0.6047 0.0
C292 C 0.38537 0.54821 0.58523 0.0
H293 H 0.32944 0.54827 0.59865 0.0
C294 C 0.39399 0.56618 0.5677 0.0
C295 C 0.36186 0.54178 0.59661 0.0
C296 C 0.35231 0.52374 0.61644 0.0
C297 C 0.37981 0.57803 0.56136 0.0
C298 C 0.35621 0.57141 0.57264 0.0
C299 C 0.34746 0.55322 0.58995 0.0
C300 C 0.34086 0.584 0.56769 0.0
C301 C 0.39074 0.5982 0.54324 0.0
C302 C 0.33643 0.59707 0.58494 0.0
C303 C 0.32105 0.60805 0.58091 0.0
C304 C 0.30973 0.60618 0.55951 0.0
C305 C 0.31433 0.59322 0.54219 0.0
C306 C 0.32964 0.58211 0.54628 0.0
H307 H 0.41189 0.60539 0.54014 0.0
H308 H 0.37969 0.58982 0.52726 0.0
H309 H 0.38853 0.61469 0.54783 0.0
H310 H 0.34483 0.59871 0.60161 0.0
H311 H 0.31795 0.6179 0.59463 0.0
H312 H 0.93007 0.43513 0.76507 0.0
H313 H 0.88803 0.41445 0.74366 0.0
H314 H 0.84752 0.37101 0.80255 0.0
H315 H 0.88896 0.39127 0.82374 0.0
H316 H 0.8457 0.35681 0.73827 0.0
H317 H 0.8136 0.41546 0.78392 0.0
H318 H 0.84781 0.42479 0.78159 0.0
H319 H 0.82709 0.40098 0.80172 0.0
C320 C 0.91219 0.42088 0.77322 0.0
C321 C 0.9126 0.41509 0.79612 0.0
C322 C 0.88828 0.40917 0.76106 0.0
C323 C 0.8647 0.39158 0.77171 0.0
C324 C 0.86545 0.38484 0.79416 0.0
H325 H 0.70053 0.29537 0.76401 0.0
H326 H 0.74773 0.32144 0.77201 0.0
C327 C 0.88911 0.39645 0.80623 0.0
C328 C 0.83882 0.38084 0.76021 0.0
H329 H 0.77979 0.37749 0.7657 0.0
C330 C 0.8314 0.36167 0.7438 0.0
C331 C 0.82029 0.3873 0.76754 0.0
C332 C 0.82759 0.40842 0.78452 0.0
C333 C 0.80531 0.34765 0.73556 0.0
C334 C 0.78645 0.35316 0.74392 0.0
C335 C 0.79429 0.37323 0.75943 0.0
C336 C 0.75804 0.33698 0.73837 0.0
C337 C 0.79767 0.32611 0.71898 0.0
C338 C 0.74823 0.33721 0.7168 0.0
C339 C 0.72115 0.32237 0.71217 0.0
C340 C 0.7035 0.30706 0.72905 0.0
C341 C 0.71353 0.30688 0.75061 0.0
C342 C 0.7405 0.32178 0.75522 0.0
H343 H 0.81399 0.32251 0.71601 0.0
H344 H 0.78032 0.30821 0.72517 0.0
H345 H 0.79202 0.33096 0.70264 0.0
H346 H 0.76146 0.34907 0.70366 0.0
H347 H 0.71407 0.32295 0.6954 0.0
H348 H 0.53975 0.93408 0.94203 0.0
H349 H 0.52142 0.89475 0.9195 0.0
H350 H 0.44336 0.87265 0.94155 0.0
H351 H 0.46148 0.91218 0.96346 0.0
H352 H 0.49778 0.84931 0.9405 0.0
H353 H 0.42816 0.84821 0.87712 0.0
H354 H 0.45282 0.87732 0.89098 0.0
H355 H 0.42207 0.85612 0.9046 0.0
C356 C 0.51857 0.92139 0.94124 0.0
C357 C 0.50204 0.92613 0.95458 0.0
C358 C 0.50813 0.89881 0.9285 0.0
C359 C 0.48098 0.88073 0.92874 0.0
C360 C 0.46427 0.88644 0.94068 0.0
H361 H 0.37546 0.71999 0.91795 0.0
H362 H 0.39785 0.7666 0.92147 0.0
C363 C 0.47468 0.90898 0.95337 0.0
C364 C 0.47066 0.85439 0.91984 0.0
H365 H 0.42057 0.80672 0.88867 0.0
C366 C 0.48128 0.84017 0.92876 0.0
C367 C 0.44898 0.84238 0.90467 0.0
C368 C 0.43753 0.85691 0.89363 0.0
C369 C 0.46999 0.81399 0.9239 0.0
C370 C 0.44769 0.80175 0.90942 0.0
C371 C 0.43762 0.81614 0.89982 0.0
C372 C 0.43359 0.77369 0.90536 0.0
C373 C 0.48117 0.79935 0.93527 0.0
C374 C 0.44606 0.76224 0.89471 0.0
C375 C 0.43336 0.73555 0.89276 0.0
C376 C 0.40788 0.71984 0.90134 0.0
C377 C 0.39512 0.73147 0.91127 0.0
C378 C 0.40784 0.75813 0.91323 0.0
H379 H 0.49495 0.81044 0.9493 0.0
H380 H 0.46516 0.7809 0.94202 0.0
H381 H 0.49215 0.79501 0.92275 0.0
H382 H 0.46579 0.77393 0.88823 0.0
H383 H 0.44367 0.72724 0.88485 0.0
H384 H 0.62329 0.53973 0.10953 0.0
H385 H 0.64227 0.51888 0.08818 0.0
H386 H 0.57112 0.44569 0.09714 0.0
H387 H 0.55236 0.46648 0.11899 0.0
H388 H 0.61277 0.44522 0.11312 0.0
H389 H 0.63599 0.48645 0.02748 0.0
H390 H 0.64869 0.51081 0.0489 0.0
H391 H 0.61364 0.48969 0.04574 0.0
C392 C 0.61131 0.51936 0.10614 0.0
C393 C 0.58638 0.50469 0.11591 0.0
C394 C 0.62217 0.50743 0.09389 0.0
C395 C 0.6081 0.48069 0.09093 0.0
C396 C 0.58234 0.46633 0.09918 0.0
H397 H 0.6733 0.39455 0.0283 0.0
H398 H 0.64634 0.41364 0.03581 0.0
C399 C 0.5716 0.47821 0.11159 0.0
C400 C 0.62164 0.46741 0.08267 0.0
H401 H 0.65994 0.46641 0.04045 0.0
C402 C 0.62273 0.44961 0.09705 0.0
C403 C 0.63457 0.47299 0.06168 0.0
C404 C 0.63296 0.49084 0.04497 0.0
C405 C 0.63709 0.43795 0.09144 0.0
C406 C 0.65124 0.44462 0.07108 0.0
C407 C 0.64937 0.46162 0.05621 0.0
C408 C 0.66861 0.43456 0.06544 0.0
C409 C 0.6371 0.41866 0.10747 0.0
C410 C 0.69039 0.44049 0.0793 0.0
C411 C 0.70575 0.42961 0.07512 0.0
C412 C 0.69972 0.41264 0.0569 0.0
C413 C 0.67841 0.40743 0.04254 0.0
C414 C 0.66302 0.41836 0.04676 0.0
H415 H 0.61999 0.41062 0.11895 0.0
H416 H 0.63669 0.40264 0.09814 0.0
H417 H 0.65532 0.42821 0.11798 0.0
H418 H 0.69529 0.45329 0.0936 0.0
H419 H 0.72214 0.43423 0.08641 0.0
H420 H 0.39587 0.93163 0.51927 0.0
H421 H 0.37421 0.89138 0.54032 0.0
H422 H 0.43808 0.87935 0.52469 0.0
H423 H 0.46011 0.91982 0.50429 0.0
H424 H 0.3574 0.84641 0.519 0.0
H425 H 0.42385 0.85493 0.58898 0.0
H426 H 0.42723 0.88254 0.57442 0.0
H427 H 0.44082 0.86457 0.56268 0.0
C428 C 0.40579 0.92092 0.52112 0.0
C429 C 0.42964 0.92881 0.51006 0.0
C430 C 0.39331 0.89782 0.53302 0.0
C431 C 0.40456 0.88237 0.53422 0.0
C432 C 0.42922 0.89111 0.52443 0.0
H433 H 0.35796 0.72524 0.548 0.0
H434 H 0.38034 0.77178 0.54401 0.0
C435 C 0.44169 0.91416 0.51258 0.0
C436 C 0.38902 0.85563 0.54257 0.0
H437 H 0.39252 0.81185 0.57627 0.0
C438 C 0.36481 0.83897 0.53187 0.0
C439 C 0.39879 0.84588 0.55923 0.0
C440 C 0.42398 0.863 0.57214 0.0
C441 C 0.35076 0.81264 0.53655 0.0
C442 C 0.36099 0.80274 0.55263 0.0
C443 C 0.38476 0.81949 0.56389 0.0
C444 C 0.34802 0.77484 0.5569 0.0
C445 C 0.32572 0.79544 0.52343 0.0
C446 C 0.32262 0.7612 0.56592 0.0
C447 C 0.30971 0.73455 0.56815 0.0
C448 C 0.32203 0.72108 0.56148 0.0
C449 C 0.34784 0.73496 0.55318 0.0
C450 C 0.36071 0.76159 0.55096 0.0
H451 H 0.32336 0.80529 0.5086 0.0
H452 H 0.32537 0.77796 0.51749 0.0
H453 H 0.30857 0.78935 0.53454 0.0
H454 H 0.31263 0.77113 0.57091 0.0
H455 H 0.28992 0.7245 0.57477 0.0
H456 H 0.47921 0.39777 0.67578 0.0
H457 H 0.49601 0.37451 0.69693 0.0
H458 H 0.57361 0.4422 0.69821 0.0
H459 H 0.55693 0.46538 0.67668 0.0
H460 H 0.57412 0.40224 0.68045 0.0
H461 H 0.51952 0.37193 0.76055 0.0
H462 H 0.49803 0.3634 0.73643 0.0
H463 H 0.52041 0.39667 0.74304 0.0
C464 C 0.49963 0.40794 0.68128 0.0
C465 C 0.51679 0.43336 0.67457 0.0
C466 C 0.50923 0.39462 0.69341 0.0
C467 C 0.53607 0.40662 0.6993 0.0
C468 C 0.55284 0.43254 0.69387 0.0
H469 H 0.60972 0.33176 0.76941 0.0
H470 H 0.59292 0.36003 0.75984 0.0
C471 C 0.5433 0.44578 0.6816 0.0
C472 C 0.54729 0.39135 0.7082 0.0
H473 H 0.5408 0.34905 0.74924 0.0
C474 C 0.56702 0.39088 0.69566 0.0
C475 C 0.53819 0.37661 0.72811 0.0
C476 C 0.51806 0.37734 0.74294 0.0
C477 C 0.57733 0.37554 0.70205 0.0
C478 C 0.56728 0.35981 0.72128 0.0
C479 C 0.54821 0.36088 0.73432 0.0
C480 C 0.57612 0.34183 0.72773 0.0
C481 C 0.59892 0.37632 0.68812 0.0
C482 C 0.57175 0.32191 0.71305 0.0
C483 C 0.58135 0.3058 0.7184 0.0
C484 C 0.59541 0.30919 0.73864 0.0
C485 C 0.59909 0.3287 0.75364 0.0
C486 C 0.58945 0.34484 0.74824 0.0
H487 H 0.6092 0.39407 0.67789 0.0
H488 H 0.61367 0.37517 0.69899 0.0
H489 H 0.59019 0.35971 0.67638 0.0
H490 H 0.5611 0.31899 0.69731 0.0
H491 H 0.57796 0.29086 0.70654 0.0
H492 H 0.0881 0.47043 0.85337 0.0
H493 H 0.12914 0.48716 0.87499 0.0
H494 H 0.14704 0.56434 0.86259 0.0
H495 H 0.10557 0.54773 0.84183 0.0
H496 H 0.17555 0.51471 0.85555 0.0
H497 H 0.17193 0.57109 0.92679 0.0
H498 H 0.14277 0.54833 0.91122 0.0
H499 H 0.16367 0.58032 0.9007 0.0
C500 C 0.10022 0.49092 0.85604 0.0
C501 C 0.09362 0.50776 0.84576 0.0
C502 C 0.12382 0.50048 0.86826 0.0
C503 C 0.1412 0.52702 0.87052 0.0
C504 C 0.13382 0.5438 0.86149 0.0
H505 H 0.30909 0.61072 0.86751 0.0
H506 H 0.26161 0.58832 0.86079 0.0
C507 C 0.11019 0.53427 0.8494 0.0
C508 C 0.16844 0.53721 0.8793 0.0
H509 H 0.21549 0.58233 0.9145 0.0
C510 C 0.18411 0.52917 0.86873 0.0
C511 C 0.17965 0.55593 0.89662 0.0
C512 C 0.16352 0.56421 0.90964 0.0
C513 C 0.21089 0.54015 0.87422 0.0
C514 C 0.22253 0.56012 0.8904 0.0
C515 C 0.20663 0.5673 0.90182 0.0
C516 C 0.25133 0.57439 0.89493 0.0
C517 C 0.22654 0.53039 0.86246 0.0
C518 C 0.26135 0.5747 0.91655 0.0
C519 C 0.28859 0.58767 0.92051 0.0
C520 C 0.30627 0.60066 0.90292 0.0
C521 C 0.29609 0.60075 0.88141 0.0
C522 C 0.26892 0.58784 0.87749 0.0
H523 H 0.2136 0.51055 0.856 0.0
H524 H 0.23675 0.54287 0.84785 0.0
H525 H 0.24162 0.53064 0.87394 0.0
H526 H 0.24809 0.56458 0.93027 0.0
H527 H 0.29576 0.5873 0.9373 0.0
H528 H 0.55344 0.10373 0.01173 0.0
H529 H 0.57789 0.14527 0.03098 0.0
H530 H 0.64548 0.13655 0.03733 0.0
H531 H 0.62132 0.09514 0.0178 0.0
H532 H 0.63204 0.16145 0.07705 0.0
H533 H 0.64093 0.20325 0.9917 0.0
H534 H 0.6085 0.17896 0.00039 0.0
H535 H 0.63312 0.17066 0.99575 0.0
C536 C 0.5733 0.11038 0.0177 0.0
C537 C 0.58554 0.09628 0.01303 0.0
C538 C 0.58721 0.13407 0.02871 0.0
C539 C 0.61354 0.14403 0.0353 0.0
C540 C 0.62513 0.12911 0.03237 0.0
H541 H 0.74143 0.29122 0.08281 0.0
H542 H 0.71129 0.24558 0.07554 0.0
C543 C 0.61124 0.10539 0.02131 0.0
C544 C 0.62986 0.17113 0.04253 0.0
H545 H 0.65973 0.23205 0.02204 0.0
C546 C 0.6381 0.17696 0.06511 0.0
C547 C 0.63767 0.19121 0.02685 0.0
C548 C 0.62981 0.18588 0.00226 0.0
C549 C 0.65378 0.20252 0.07248 0.0
C550 C 0.66187 0.22265 0.05671 0.0
C551 C 0.65347 0.21667 0.03415 0.0
C552 C 0.67945 0.25008 0.0629 0.0
C553 C 0.66107 0.20772 0.09715 0.0
C554 C 0.67182 0.26794 0.05788 0.0
C555 C 0.68917 0.2941 0.06168 0.0
C556 C 0.71455 0.30298 0.07061 0.0
C557 C 0.72197 0.28502 0.07606 0.0
C558 C 0.70466 0.25886 0.07208 0.0
H559 H 0.64705 0.1914 0.10778 0.0
H560 H 0.68095 0.21048 0.09987 0.0
H561 H 0.66151 0.2253 0.1029 0.0
H562 H 0.65253 0.26165 0.05067 0.0
H563 H 0.68279 0.30739 0.05734 0.0
H564 H 0.54869 0.62587 0.18777 0.0
H565 H 0.53123 0.64727 0.21051 0.0
H566 H 0.4521 0.58873 0.19174 0.0
H567 H 0.4694 0.56698 0.16963 0.0
H568 H 0.5048 0.66695 0.19035 0.0
H569 H 0.44158 0.6005 0.25645 0.0
H570 H 0.46566 0.59623 0.2418 0.0
H571 H 0.43362 0.58507 0.22939 0.0
C572 C 0.52756 0.61699 0.18932 0.0
C573 C 0.5104 0.59482 0.17686 0.0
C574 C 0.51759 0.62934 0.20218 0.0
C575 C 0.49033 0.61958 0.20295 0.0
C576 C 0.47315 0.59641 0.19183 0.0
H577 H 0.38069 0.66867 0.21407 0.0
H578 H 0.40504 0.64636 0.21101 0.0
C579 C 0.48308 0.58408 0.17903 0.0
C580 C 0.47999 0.6354 0.21207 0.0
H581 H 0.43113 0.63248 0.24442 0.0
C582 C 0.48913 0.65968 0.2026 0.0
C583 C 0.45942 0.62585 0.22793 0.0
C584 C 0.4497 0.60058 0.23963 0.0
C585 C 0.47726 0.67398 0.20751 0.0
C586 C 0.45589 0.6639 0.22257 0.0
C587 C 0.44746 0.64013 0.23281 0.0
C588 C 0.44079 0.67684 0.2264 0.0
C589 C 0.4867 0.69911 0.19556 0.0
C590 C 0.45267 0.70119 0.23648 0.0
C591 C 0.43882 0.71409 0.23819 0.0
C592 C 0.41281 0.70279 0.22989 0.0
C593 C 0.40072 0.67801 0.22051 0.0
C594 C 0.41457 0.66516 0.21883 0.0
H595 H 0.50009 0.70188 0.18145 0.0
H596 H 0.46976 0.70023 0.18878 0.0
H597 H 0.49758 0.71512 0.20771 0.0
H598 H 0.47279 0.71039 0.2427 0.0
H599 H 0.44866 0.73307 0.24565 0.0
H600 H 0.90954 0.47054 0.34026 0.0
H601 H 0.86892 0.45335 0.36168 0.0
H602 H 0.89178 0.52969 0.38348 0.0
H603 H 0.93194 0.54717 0.36125 0.0
H604 H 0.8526 0.45421 0.40515 0.0
H605 H 0.82558 0.5081 0.34578 0.0
H606 H 0.85405 0.50516 0.34175 0.0
H607 H 0.85502 0.52748 0.36214 0.0
C608 C 0.90616 0.48364 0.34996 0.0
C609 C 0.92368 0.51026 0.34866 0.0
C610 C 0.88299 0.47377 0.36229 0.0
C611 C 0.87699 0.49031 0.37365 0.0
C612 C 0.89576 0.51665 0.37438 0.0
H613 H 0.72568 0.43144 0.4432 0.0
H614 H 0.77294 0.45177 0.43603 0.0
C615 C 0.91889 0.52658 0.36189 0.0
C616 C 0.84994 0.48023 0.38219 0.0
H617 H 0.79413 0.48239 0.37249 0.0
C618 C 0.83985 0.46052 0.39823 0.0
C619 C 0.83321 0.48819 0.37277 0.0
C620 C 0.84234 0.50822 0.35452 0.0
C621 C 0.81337 0.44832 0.40486 0.0
C622 C 0.79672 0.45633 0.39543 0.0
C623 C 0.80698 0.47637 0.37976 0.0
C624 C 0.76814 0.44321 0.4003 0.0
C625 C 0.80317 0.42626 0.42116 0.0
C626 C 0.74977 0.43199 0.38256 0.0
C627 C 0.72284 0.42063 0.38654 0.0
C628 C 0.71366 0.42025 0.40837 0.0
C629 C 0.73208 0.4313 0.4262 0.0
C630 C 0.7591 0.4428 0.42217 0.0
H631 H 0.81679 0.41887 0.42294 0.0
H632 H 0.80099 0.43282 0.438 0.0
H633 H 0.78354 0.41029 0.41563 0.0
H634 H 0.7563 0.43213 0.36555 0.0
H635 H 0.70924 0.41225 0.37243 0.0
H636 H 0.05969 0.58571 0.38673 0.0
H637 H 0.08253 0.5851 0.42118 0.0
H638 H 0.10537 0.53644 0.38825 0.0
H639 H 0.08288 0.53731 0.35363 0.0
H640 H 0.08369 0.54849 0.45029 0.0
H641 H 0.17543 0.60338 0.4009 0.0
H642 H 0.14391 0.59732 0.3907 0.0
H643 H 0.15188 0.57255 0.38936 0.0
C644 C 0.06877 0.57414 0.38711 0.0
C645 C 0.06977 0.56175 0.3675 0.0
C646 C 0.08192 0.57391 0.40675 0.0
C647 C 0.09615 0.56124 0.40704 0.0
C648 C 0.09495 0.54676 0.38819 0.0
H649 H 0.1863 0.55736 0.52371 0.0
H650 H 0.1547 0.54499 0.49243 0.0
C651 C 0.08199 0.54714 0.3685 0.0
C652 C 0.11466 0.56574 0.42592 0.0
H653 H 0.18024 0.59405 0.43853 0.0
C654 C 0.10479 0.55829 0.44776 0.0
C655 C 0.14221 0.57899 0.42257 0.0
C656 C 0.1541 0.58876 0.39968 0.0
C657 C 0.12179 0.56372 0.46638 0.0
C658 C 0.14932 0.57664 0.46293 0.0
C659 C 0.15912 0.58399 0.44108 0.0
C660 C 0.16848 0.58388 0.48183 0.0
C661 C 0.11023 0.55636 0.48963 0.0
C662 C 0.18724 0.60979 0.4858 0.0
C663 C 0.20549 0.61692 0.50349 0.0
C664 C 0.20538 0.59824 0.51754 0.0
C665 C 0.18684 0.57224 0.51328 0.0
C666 C 0.16861 0.56513 0.49552 0.0
H667 H 0.08961 0.55212 0.48996 0.0
H668 H 0.11022 0.5389 0.49509 0.0
H669 H 0.12216 0.57186 0.502 0.0
H670 H 0.18758 0.62456 0.47532 0.0
H671 H 0.21949 0.6371 0.50628 0.0
H672 H 0.56337 0.08394 0.51881 0.0
H673 H 0.58673 0.105 0.55386 0.0
H674 H 0.51282 0.08516 0.5844 0.0
H675 H 0.48947 0.06367 0.54968 0.0
H676 H 0.58765 0.14615 0.56919 0.0
H677 H 0.54878 0.07356 0.63657 0.0
H678 H 0.54391 0.06492 0.60706 0.0
H679 H 0.52254 0.07339 0.62106 0.0
C680 C 0.5521 0.08338 0.53329 0.0
C681 C 0.52463 0.07217 0.53157 0.0
C682 C 0.56543 0.09543 0.55327 0.0
C683 C 0.55155 0.09654 0.57185 0.0
C684 C 0.52394 0.08402 0.57055 0.0
H685 H 0.57675 0.19593 0.68185 0.0
H686 H 0.56097 0.16401 0.65158 0.0
C687 C 0.51058 0.07175 0.55065 0.0
C688 C 0.56593 0.11383 0.59115 0.0
H689 H 0.56774 0.11775 0.64863 0.0
C690 C 0.58372 0.13981 0.58656 0.0
C691 C 0.56075 0.1056 0.61382 0.0
C692 C 0.54315 0.07778 0.6199 0.0
C693 C 0.59544 0.15794 0.60396 0.0
C694 C 0.58928 0.14988 0.62653 0.0
C695 C 0.57226 0.12383 0.63124 0.0
C696 C 0.59905 0.16854 0.64534 0.0
C697 C 0.6134 0.18581 0.59813 0.0
C698 C 0.62569 0.18153 0.65183 0.0
C699 C 0.63482 0.1998 0.66916 0.0
C700 C 0.61743 0.2054 0.68018 0.0
C701 C 0.5907 0.19219 0.67364 0.0
C702 C 0.5816 0.17385 0.65644 0.0
H703 H 0.61365 0.1893 0.57972 0.0
H704 H 0.60715 0.19783 0.60702 0.0
H705 H 0.63377 0.1921 0.60381 0.0
H706 H 0.6394 0.17756 0.64347 0.0
H707 H 0.65549 0.20957 0.67384 0.0
H708 H 0.42832 0.48471 0.7082 0.0
H709 H 0.42431 0.5043 0.74278 0.0
H710 H 0.48637 0.57834 0.72052 0.0
H711 H 0.48978 0.55887 0.68555 0.0
H712 H 0.45532 0.53399 0.77806 0.0
H713 H 0.42436 0.58885 0.72401 0.0
H714 H 0.42865 0.56365 0.713 0.0
H715 H 0.45681 0.59498 0.71835 0.0
C716 C 0.44164 0.50502 0.71103 0.0
C717 C 0.45922 0.52036 0.69422 0.0
C718 C 0.43925 0.51623 0.73072 0.0
C719 C 0.45452 0.54289 0.73391 0.0
C720 C 0.47388 0.55784 0.7181 0.0
H721 H 0.43648 0.63816 0.83438 0.0
H722 H 0.45476 0.62298 0.80557 0.0
C723 C 0.47601 0.54671 0.69827 0.0
C724 C 0.44834 0.55511 0.75255 0.0
H725 H 0.42597 0.59584 0.76315 0.0
C726 C 0.44907 0.54763 0.77482 0.0
C727 C 0.43992 0.57275 0.74826 0.0
C728 C 0.43711 0.58039 0.72462 0.0
C729 C 0.44149 0.55724 0.79288 0.0
C730 C 0.43293 0.57466 0.7885 0.0
C731 C 0.43275 0.5826 0.76637 0.0
C732 C 0.42247 0.58369 0.80646 0.0
C733 C 0.44248 0.54861 0.81652 0.0
C734 C 0.39811 0.56665 0.81615 0.0
C735 C 0.38747 0.57528 0.83236 0.0
C736 C 0.40109 0.6011 0.83924 0.0
C737 C 0.42554 0.61814 0.82947 0.0
C738 C 0.43604 0.60952 0.81308 0.0
H739 H 0.45455 0.53944 0.81764 0.0
H740 H 0.45066 0.56507 0.82845 0.0
H741 H 0.42219 0.53446 0.82193 0.0
H742 H 0.38718 0.54672 0.81097 0.0
H743 H 0.36864 0.56164 0.83957 0.0
H744 H 0.96003 0.42835 0.88636 0.0
H745 H 0.93807 0.42645 0.9217 0.0
H746 H 0.91567 0.47836 0.89445 0.0
H747 H 0.93743 0.48018 0.85903 0.0
H748 H 0.93686 0.46288 0.95425 0.0
H749 H 0.84582 0.40783 0.90193 0.0
H750 H 0.8777 0.41489 0.8924 0.0
H751 H 0.86929 0.43936 0.89203 0.0
C752 C 0.95139 0.44019 0.88827 0.0
C753 C 0.95017 0.45423 0.86996 0.0
C754 C 0.93873 0.43898 0.9084 0.0
C755 C 0.92481 0.45184 0.91043 0.0
C756 C 0.92601 0.46803 0.89304 0.0
H757 H 0.79788 0.42246 0.00192 0.0
H758 H 0.83102 0.43996 0.97228 0.0
C759 C 0.93853 0.46915 0.8729 0.0
C760 C 0.90609 0.44541 0.9291 0.0
H761 H 0.84029 0.41336 0.94021 0.0
C762 C 0.91575 0.45219 0.95124 0.0
C763 C 0.87857 0.43136 0.92503 0.0
C764 C 0.8671 0.42271 0.90161 0.0
C765 C 0.8985 0.44534 0.9695 0.0
C766 C 0.87097 0.4309 0.96545 0.0
C767 C 0.86139 0.42449 0.94325 0.0
C768 C 0.85164 0.42121 0.98397 0.0
C769 C 0.90991 0.45379 0.99293 0.0
C770 C 0.85198 0.40451 0.00011 0.0
C771 C 0.83309 0.39446 0.01701 0.0
C772 C 0.81332 0.40073 0.01799 0.0
C773 C 0.81282 0.41723 0.00163 0.0
C774 C 0.83179 0.42732 0.98474 0.0
H775 H 0.93021 0.47073 0.9925 0.0
H776 H 0.89748 0.4586 0.00325 0.0
H777 H 0.91087 0.43799 0.00133 0.0
H778 H 0.86665 0.39895 -0.00053 0.0
H779 H 0.83398 0.38172 0.02928 0.0
H780 H 0.50894 0.97539 0.05083 0.0
H781 H 0.49596 0.95596 0.0885 0.0
H782 H 0.49844 0.89018 0.065 0.0
H783 H 0.51177 0.90949 0.02791 0.0
H784 H 0.45075 0.908 0.09931 0.0
H785 H 0.54242 0.91008 0.12315 0.0
H786 H 0.54106 0.92947 0.10071 0.0
H787 H 0.53061 0.89638 0.09569 0.0
C788 C 0.50698 0.95694 0.05389 0.0
C789 C 0.51112 0.94384 0.03644 0.0
C790 C 0.4995 0.94584 0.07531 0.0
C791 C 0.49655 0.92177 0.07956 0.0
C792 C 0.50102 0.90894 0.06219 0.0
H793 H 0.40427 0.79823 0.16913 0.0
H794 H 0.42162 0.82984 0.13882 0.0
C795 C 0.50835 0.91988 0.04093 0.0
C796 C 0.48766 0.90911 0.10171 0.0
H797 H 0.50315 0.87918 0.14236 0.0
C798 C 0.46235 0.90207 0.10899 0.0
C799 C 0.50295 0.90169 0.11445 0.0
C800 C 0.53088 0.91003 0.10823 0.0
C801 C 0.45136 0.88655 0.12804 0.0
C802 C 0.46593 0.87749 0.13977 0.0
C803 C 0.4918 0.88578 0.13319 0.0
C804 C 0.45458 0.8588 0.15847 0.0
C805 C 0.42422 0.87988 0.13529 0.0
C806 C 0.4677 0.86427 0.17938 0.0
C807 C 0.45809 0.8461 0.19658 0.0
C808 C 0.43514 0.82204 0.19321 0.0
C809 C 0.42192 0.81662 0.17229 0.0
C810 C 0.43167 0.83477 0.15502 0.0
H811 H 0.41955 0.89451 0.12955 0.0
H812 H 0.40941 0.86126 0.12761 0.0
H813 H 0.4223 0.87815 0.1539 0.0
H814 H 0.48549 0.88261 0.18238 0.0
H815 H 0.46871 0.85094 0.21251 0.0
H816 H 0.53658 0.50814 0.20915 0.0
H817 H 0.53698 0.49034 0.24646 0.0
H818 H 0.60524 0.48692 0.22751 0.0
H819 H 0.60506 0.50465 0.1907 0.0
H820 H 0.53466 0.44136 0.25443 0.0
H821 H 0.62559 0.5247 0.28926 0.0
H822 H 0.60706 0.52741 0.26612 0.0
H823 H 0.62935 0.51613 0.26119 0.0
C824 C 0.55174 0.50376 0.21313 0.0
C825 C 0.57063 0.50753 0.19702 0.0
C826 C 0.55191 0.49357 0.23433 0.0
C827 C 0.5713 0.48757 0.23975 0.0
C828 C 0.59032 0.49171 0.22376 0.0
H829 H 0.62364 0.41727 0.33235 0.0
H830 H 0.61456 0.43877 0.30187 0.0
C831 C 0.59004 0.50163 0.20267 0.0
C832 C 0.57149 0.47594 0.26163 0.0
H833 H 0.61195 0.48396 0.30624 0.0
C834 C 0.55123 0.45079 0.26608 0.0
C835 C 0.59318 0.48834 0.27669 0.0
C836 C 0.61493 0.51573 0.27323 0.0
C837 C 0.55294 0.43713 0.2845 0.0
C838 C 0.57533 0.44914 0.29891 0.0
C839 C 0.59491 0.47473 0.29505 0.0
C840 C 0.57978 0.43511 0.31718 0.0
C841 C 0.53154 0.40955 0.28771 0.0
C842 C 0.56317 0.42585 0.33588 0.0
C843 C 0.56828 0.41347 0.35336 0.0
C844 C 0.59017 0.41025 0.35247 0.0
C845 C 0.6066 0.41937 0.33358 0.0
C846 C 0.60148 0.43172 0.31616 0.0
H847 H 0.51806 0.40179 0.27286 0.0
H848 H 0.54022 0.39739 0.29086 0.0
H849 H 0.51972 0.40812 0.30262 0.0
H850 H 0.54655 0.42862 0.33715 0.0
H851 H 0.55531 0.4068 0.36772 0.0
H852 H 0.42816 0.96695 0.41534 0.0
H853 H 0.42275 0.94516 0.3793 0.0
H854 H 0.4714 0.91634 0.40399 0.0
H855 H 0.47772 0.93886 0.43974 0.0
H856 H 0.47823 0.92851 0.35789 0.0
H857 H 0.37255 0.86733 0.37992 0.0
H858 H 0.38433 0.901 0.37836 0.0
H859 H 0.39707 0.88923 0.3998 0.0
C860 C 0.43846 0.95673 0.41283 0.0
C861 C 0.45304 0.95429 0.4305 0.0
C862 C 0.43509 0.94403 0.39232 0.0
C863 C 0.44607 0.92857 0.38926 0.0
C864 C 0.46252 0.92795 0.40611 0.0
H865 H 0.42659 0.80791 0.29966 0.0
H866 H 0.44078 0.84103 0.32881 0.0
C867 C 0.46602 0.94073 0.42655 0.0
C868 C 0.43839 0.91104 0.36962 0.0
H869 H 0.38567 0.85855 0.34546 0.0
C870 C 0.45799 0.91329 0.35507 0.0
C871 C 0.41198 0.89102 0.36617 0.0
C872 C 0.39026 0.88675 0.38197 0.0
C873 C 0.45183 0.89612 0.337 0.0
C874 C 0.42546 0.87606 0.33367 0.0
C875 C 0.40585 0.87402 0.34806 0.0
C876 C 0.41771 0.85663 0.31562 0.0
C877 C 0.4735 0.89966 0.32154 0.0
C878 C 0.39959 0.85408 0.29887 0.0
C879 C 0.39134 0.83511 0.2823 0.0
C880 C 0.40087 0.81818 0.28227 0.0
C881 C 0.41889 0.82066 0.29919 0.0
C882 C 0.4272 0.83971 0.31574 0.0
H883 H 0.49106 0.91928 0.32292 0.0
H884 H 0.47965 0.8858 0.32617 0.0
H885 H 0.46655 0.89599 0.30372 0.0
H886 H 0.39187 0.86682 0.29862 0.0
H887 H 0.37743 0.83373 0.26953 0.0
H888 H 0.56618 0.49372 0.61194 0.0
H889 H 0.58988 0.49554 0.57777 0.0
H890 H 0.51596 0.44512 0.54393 0.0
H891 H 0.49224 0.44352 0.57789 0.0
H892 H 0.58846 0.45406 0.56117 0.0
H893 H 0.55581 0.49548 0.49444 0.0
H894 H 0.55089 0.49841 0.52402 0.0
H895 H 0.52845 0.46965 0.50867 0.0
C896 C 0.555 0.48362 0.59698 0.0
C897 C 0.52738 0.46846 0.59757 0.0
C898 C 0.56854 0.48466 0.57749 0.0
C899 C 0.55472 0.4706 0.55822 0.0
C900 C 0.52706 0.45661 0.55838 0.0
H901 H 0.59707 0.39327 0.46295 0.0
H902 H 0.58166 0.40756 0.49453 0.0
C903 C 0.51349 0.45569 0.57783 0.0
C904 C 0.56908 0.46772 0.53919 0.0
H905 H 0.57378 0.46991 0.48183 0.0
C906 C 0.58556 0.45793 0.54385 0.0
C907 C 0.56554 0.47297 0.51662 0.0
C908 C 0.54942 0.48496 0.51065 0.0
C909 C 0.59766 0.4522 0.52651 0.0
C910 C 0.59271 0.45586 0.50386 0.0
C911 C 0.57725 0.46677 0.49921 0.0
C912 C 0.6025 0.44747 0.48479 0.0
C913 C 0.61548 0.44212 0.53264 0.0
C914 C 0.6189 0.46507 0.46854 0.0
C915 C 0.62764 0.45693 0.45033 0.0
C916 C 0.61999 0.43098 0.448 0.0
C917 C 0.60351 0.41341 0.46431 0.0
C918 C 0.59477 0.42157 0.48245 0.0
H919 H 0.62354 0.44782 0.55005 0.0
H920 H 0.60403 0.42087 0.53184 0.0
H921 H 0.63216 0.44915 0.52078 0.0
H922 H 0.62497 0.48513 0.46998 0.0
H923 H 0.64024 0.47094 0.43802 0.0
H924 H 0.06116 0.47627 0.7514 0.0
H925 H 0.08559 0.49725 0.71723 0.0
H926 H 0.10117 0.57019 0.74275 0.0
H927 H 0.07747 0.54933 0.77732 0.0
H928 H 0.08509 0.52765 0.6835 0.0
H929 H 0.17457 0.58198 0.73752 0.0
H930 H 0.14397 0.55623 0.74827 0.0
H931 H 0.1484 0.58752 0.74417 0.0
C932 C 0.06915 0.49666 0.74941 0.0
C933 C 0.06766 0.51126 0.767 0.0
C934 C 0.08321 0.50865 0.72994 0.0
C935 C 0.09583 0.53538 0.72775 0.0
C936 C 0.09223 0.54964 0.7444 0.0
H937 H 0.21191 0.63434 0.62787 0.0
H938 H 0.1779 0.6179 0.65686 0.0
C939 C 0.07851 0.53772 0.76401 0.0
C940 C 0.11462 0.54836 0.70915 0.0
H941 H 0.17973 0.5901 0.69856 0.0
C942 C 0.10574 0.54142 0.68679 0.0
C943 C 0.14166 0.56617 0.71348 0.0
C944 C 0.15283 0.57327 0.73714 0.0
C945 C 0.12321 0.55171 0.66867 0.0
C946 C 0.15016 0.5693 0.67309 0.0
C947 C 0.15896 0.57671 0.69533 0.0
C948 C 0.1699 0.57904 0.65499 0.0
C949 C 0.11288 0.5436 0.64493 0.0
C950 C 0.17682 0.56265 0.64468 0.0
C951 C 0.19641 0.57199 0.62836 0.0
C952 C 0.20934 0.5979 0.622 0.0
C953 C 0.20229 0.61428 0.63237 0.0
C954 C 0.18285 0.60495 0.64888 0.0
H955 H 0.09106 0.5339 0.64401 0.0
H956 H 0.1215 0.56042 0.63355 0.0
H957 H 0.11873 0.53007 0.63869 0.0
H958 H 0.16726 0.54267 0.64945 0.0
H959 H 0.20131 0.55886 0.62067 0.0
H960 H 0.57772 0.05949 0.91814 0.0
H961 H 0.57774 0.08101 0.88329 0.0
H962 H 0.52399 0.10061 0.91261 0.0
H963 H 0.52399 0.07919 0.94763 0.0
H964 H 0.53929 0.07896 0.85231 0.0
H965 H 0.59109 0.17033 0.90107 0.0
H966 H 0.58639 0.14065 0.91211 0.0
H967 H 0.55951 0.1464 0.91155 0.0
C968 C 0.56521 0.06763 0.91692 0.0
C969 C 0.55105 0.06789 0.93568 0.0
C970 C 0.56536 0.08005 0.89704 0.0
C971 C 0.55134 0.09289 0.8956 0.0
C972 C 0.53537 0.09126 0.91358 0.0
H973 H 0.5751 0.21003 0.7965 0.0
H974 H 0.55662 0.17892 0.82726 0.0
C975 C 0.5353 0.07894 0.9335 0.0
C976 C 0.5557 0.11004 0.87629 0.0
H977 H 0.58453 0.17327 0.86239 0.0
C978 C 0.54895 0.09956 0.85449 0.0
C979 C 0.56835 0.13693 0.87923 0.0
C980 C 0.57699 0.14937 0.9022 0.0
C981 C 0.55485 0.11531 0.83549 0.0
C982 C 0.56825 0.14222 0.8384 0.0
C983 C 0.5742 0.15263 0.86023 0.0
C984 C 0.5781 0.16007 0.81905 0.0
C985 C 0.5468 0.103 0.81246 0.0
C986 C 0.59655 0.15999 0.80448 0.0
C987 C 0.60718 0.17772 0.78701 0.0
C988 C 0.59972 0.19605 0.78383 0.0
C989 C 0.58124 0.19614 0.79848 0.0
C990 C 0.57062 0.17836 0.81601 0.0
H991 H 0.53003 0.08294 0.81346 0.0
H992 H 0.54117 0.11397 0.80109 0.0
H993 H 0.56363 0.10258 0.80489 0.0
H994 H 0.60313 0.14649 0.80687 0.0
H995 H 0.62142 0.17714 0.7761 0.0
H996 H 0.51668 0.61653 0.10103 0.0
H997 H 0.49765 0.61775 0.06467 0.0
H998 H 0.4869 0.54413 0.04725 0.0
H999 H 0.50601 0.54276 0.08403 0.0
H1000 H 0.51324 0.61304 0.01918 0.0
H1001 H 0.41183 0.53591 0.04198 0.0
H1002 H 0.43728 0.5529 0.06304 0.0
H1003 H 0.43825 0.52958 0.04528 0.0
C1004 C 0.51035 0.60063 0.08942 0.0
C1005 C 0.51246 0.57938 0.09538 0.0
C1006 C 0.49961 0.60141 0.06865 0.0
C1007 C 0.4906 0.58091 0.05344 0.0
C1008 C 0.4935 0.56 0.05893 0.0
H1009 H 0.39795 0.5654 0.93163 0.0
H1010 H 0.42091 0.55678 0.96172 0.0
C1011 C 0.50451 0.55929 0.07979 0.0
C1012 C 0.47742 0.58154 0.03232 0.0
H1013 H 0.41662 0.55758 0.00798 0.0
C1014 C 0.49217 0.6007 0.01654 0.0
C1015 C 0.44996 0.56538 0.02897 0.0
C1016 C 0.43322 0.54482 0.04569 0.0
C1017 C 0.48007 0.60459 -0.00226 0.0
C1018 C 0.4524 0.5893 0.99498 0.0
C1019 C 0.4378 0.5694 0.01024 0.0
C1020 C 0.43816 0.59439 0.97695 0.0
C1021 C 0.49702 0.62518 0.9811 0.0
C1022 C 0.4397 0.61818 0.97587 0.0
C1023 C 0.42663 0.6232 0.95871 0.0
C1024 C 0.41156 0.60441 0.94238 0.0
C1025 C 0.40944 0.58032 0.94389 0.0
C1026 C 0.42257 0.57535 0.96106 0.0
H1027 H 0.51769 0.62953 0.98169 0.0
H1028 H 0.48925 0.61946 0.96363 0.0
H1029 H 0.49722 0.64303 0.98538 0.0
H1030 H 0.45106 0.63292 0.98833 0.0
H1031 H 0.42854 0.64188 0.95813 0.0
H1032 H 0.97627 0.51449 0.25436 0.0
H1033 H 0.95694 0.49911 0.2165 0.0
H1034 H 0.88658 0.49792 0.23683 0.0
H1035 H 0.90576 0.51362 0.27409 0.0
H1036 H 0.90911 0.45294 0.20542 0.0
H1037 H 0.9058 0.5381 0.17782 0.0
H1038 H 0.92612 0.53904 0.20117 0.0
H1039 H 0.89165 0.52731 0.20512 0.0
C1040 C 0.95681 0.51118 0.25057 0.0
C1041 C 0.94242 0.51502 0.26719 0.0
C1042 C 0.94578 0.50233 0.22904 0.0
C1043 C 0.92046 0.49767 0.22384 0.0
C1044 C 0.9063 0.50178 0.24038 0.0
H1045 H 0.79605 0.39967 0.13325 0.0
H1046 H 0.82877 0.41865 0.16375 0.0
C1047 C 0.91719 0.51048 0.26175 0.0
C1048 C 0.90795 0.48754 0.20152 0.0
H1049 H 0.87579 0.49841 0.15895 0.0
C1050 C 0.90221 0.46302 0.19499 0.0
C1051 C 0.8993 0.50088 0.1878 0.0
C1052 C 0.90627 0.52791 0.1932 0.0
C1053 C 0.88673 0.45089 0.17572 0.0
C1054 C 0.87635 0.46347 0.16299 0.0
C1055 C 0.8834 0.48858 0.16886 0.0
C1056 C 0.85738 0.4508 0.14404 0.0
C1057 C 0.8815 0.42467 0.16933 0.0
C1058 C 0.86231 0.46277 0.12296 0.0
C1059 C 0.84346 0.45222 0.10566 0.0
C1060 C 0.81928 0.42943 0.10908 0.0
C1061 C 0.81454 0.41717 0.13006 0.0
C1062 C 0.83334 0.42788 0.14745 0.0
H1063 H 0.89735 0.42158 0.17576 0.0
H1064 H 0.86273 0.40989 0.17696 0.0
H1065 H 0.87983 0.42187 0.15076 0.0
H1066 H 0.88064 0.48051 0.11997 0.0
H1067 H 0.8478 0.46208 0.08966 0.0
loop_
_geom_bond_atom_site_label_1
_geom_bond_atom_site_label_2
_geom_bond_distance
_geom_bond_site_symmetry_2
_ccdc_geom_bond_type
H0 C8 0.930 . S
H1 C11 0.930 . S
H2 C13 0.930 . S
H3 C14 0.970 . S
H4 C14 0.970 . S
H5 C16 0.930 . S
H6 C18 0.930 . S
H7 C20 0.930 . S
C8 H0 0.930 . S
C8 C9 1.382 . S
C8 C10 1.426 . S
C9 C8 1.382 . S
C9 C13 1.389 . S
C10 C8 1.426 . S
C10 C11 1.375 . S
C10 C14 1.532 1_655 S
C11 H1 0.930 . S
C11 C10 1.375 . S
C11 C12 1.416 . S
C12 C11 1.416 . S
C12 C13 1.371 . S
C13 H2 0.930 . S
C13 C9 1.389 . S
C13 C12 1.371 . S
C14 H3 0.970 . S
C14 H4 0.970 . S
C14 C10 1.532 1_455 S
C14 C15 1.499 . S
C15 C14 1.499 . S
C15 C16 1.370 . S
C15 C20 1.415 . S
C16 H5 0.930 . S
C16 C15 1.370 . S
C16 C17 1.407 . S
C17 C16 1.407 . S
C17 C18 1.365 . S
C18 H6 0.930 . S
C18 C17 1.365 . S
C18 C19 1.393 . S
C19 C18 1.393 . S
C19 C20 1.387 . S
C20 H7 0.930 . S
C20 C15 1.415 . S
C20 C19 1.387 . S
H21 C29 0.930 . S
H22 C32 0.930 . S
H23 C34 0.930 . S
H24 C35 0.970 . S
H25 C35 0.970 . S
H26 C37 0.930 . S
H27 C39 0.930 . S
H28 C41 0.930 . S
C29 H21 0.930 . S
C29 C30 1.382 . S
C29 C31 1.426 . S
C30 C29 1.382 . S
C30 C34 1.389 . S
C31 C29 1.426 . S
C31 C32 1.375 . S
C31 C35 1.532 1_565 S
C32 H22 0.930 . S
C32 C31 1.375 . S
C32 C33 1.416 . S
C33 C32 1.416 . S
C33 C34 1.371 . S
C34 H23 0.930 . S
C34 C30 1.389 . S
C34 C33 1.371 . S
C35 H24 0.970 . S
C35 H25 0.970 . S
C35 C31 1.532 1_545 S
C35 C36 1.499 . S
C36 C35 1.499 . S
C36 C37 1.370 . S
C36 C41 1.415 . S
C37 H26 0.930 . S
C37 C36 1.370 . S
C37 C38 1.407 . S
C38 C37 1.407 . S
C38 C39 1.365 . S
C39 H27 0.930 . S
C39 C38 1.365 . S
C39 C40 1.393 . S
C40 C39 1.393 . S
C40 C41 1.387 . S
C41 H28 0.930 . S
C41 C36 1.415 . S
C41 C40 1.387 . S
H42 C50 0.930 . S
H43 C53 0.930 . S
H44 C55 0.930 . S
H45 C56 0.970 . S
H46 C56 0.970 . S
H47 C58 0.930 . S
H48 C60 0.930 . S
H49 C62 0.930 . S
C50 H42 0.930 . S
C50 C51 1.382 . S
C50 C52 1.426 . S
C51 C50 1.382 . S
C51 C55 1.389 . S
C52 C50 1.426 . S
C52 C53 1.375 . S
C52 C56 1.532 . S
C53 H43 0.930 . S
C53 C52 1.375 . S
C53 C54 1.416 . S
C54 C53 1.416 . S
C54 C55 1.371 . S
C55 H44 0.930 . S
C55 C51 1.389 . S
C55 C54 1.371 . S
C56 H45 0.970 . S
C56 H46 0.970 . S
C56 C52 1.532 . S
C56 C57 1.499 . S
C57 C56 1.499 . S
C57 C58 1.370 . S
C57 C62 1.415 . S
C58 H47 0.930 . S
C58 C57 1.370 . S
C58 C59 1.407 . S
C59 C58 1.407 . S
C59 C60 1.365 . S
C60 H48 0.930 . S
C60 C59 1.365 . S
C60 C61 1.393 . S
C61 C60 1.393 . S
C61 C62 1.387 . S
C62 H49 0.930 . S
C62 C57 1.415 . S
C62 C61 1.387 . S
H63 C71 0.930 . S
H64 C74 0.930 . S
H65 C76 0.930 . S
H66 C77 0.967 . S
H67 C77 0.970 . S
H68 C79 0.930 . S
H69 C81 0.930 . S
H70 C83 0.930 . S
C71 H63 0.930 . S
C71 C72 1.382 . S
C71 C73 1.426 . S
C72 C71 1.382 . S
C72 C76 1.389 . S
C73 C71 1.426 . S
C73 C74 1.375 . S
C73 C77 1.532 1_655 S
C74 H64 0.930 . S
C74 C73 1.375 . S
C74 C75 1.416 . S
C75 C74 1.416 . S
C75 C76 1.371 . S
C76 H65 0.930 . S
C76 C72 1.389 . S
C76 C75 1.371 . S
C77 H66 0.967 . S
C77 H67 0.970 . S
C77 C73 1.532 1_455 S
C77 C78 1.499 . S
C78 C77 1.499 . S
C78 C79 1.370 . S
C78 C83 1.415 . S
C79 H68 0.930 . S
C79 C78 1.370 . S
C79 C80 1.407 . S
C80 C79 1.407 . S
C80 C81 1.365 . S
C81 H69 0.930 . S
C81 C80 1.365 . S
C81 C82 1.393 . S
C82 C81 1.393 . S
C82 C83 1.387 . S
C83 H70 0.930 . S
C83 C78 1.415 . S
C83 C82 1.387 . S
H84 C92 0.930 . S
H85 C95 0.930 . S
H86 C97 0.930 . S
H87 C98 0.970 1_554 S
H88 C98 0.970 . S
H89 C100 0.930 . S
H90 C102 0.930 . S
H91 C104 0.930 . S
C92 H84 0.930 . S
C92 C93 1.382 1_554 S
C92 C94 1.426 1_554 S
C93 C92 1.382 1_556 S
C93 C97 1.389 . S
C94 C92 1.426 1_556 S
C94 C95 1.375 . S
C94 C98 1.532 . S
C95 H85 0.930 . S
C95 C94 1.375 . S
C95 C96 1.416 . S
C96 C95 1.416 . S
C96 C97 1.371 . S
C97 H86 0.930 . S
C97 C93 1.389 . S
C97 C96 1.371 . S
C98 H87 0.970 1_556 S
C98 H88 0.970 . S
C98 C94 1.532 . S
C98 C99 1.499 1_545 S
C99 C98 1.499 1_565 S
C99 C100 1.370 1_556 S
C99 C104 1.415 . S
C100 H89 0.930 . S
C100 C99 1.370 1_554 S
C100 C101 1.407 . S
C101 C100 1.407 . S
C101 C102 1.365 . S
C102 H90 0.930 . S
C102 C101 1.365 . S
C102 C103 1.393 1_554 S
C103 C102 1.393 1_556 S
C103 C104 1.387 . S
C104 H91 0.930 . S
C104 C99 1.415 . S
C104 C103 1.387 . S
H105 C113 0.930 . S
H106 C116 0.930 . S
H107 C118 0.930 . S
H108 C119 0.970 . S
H109 C119 0.970 . S
H110 C121 0.930 . S
H111 C123 0.930 . S
H112 C125 0.930 . S
C113 H105 0.930 . S
C113 C114 1.382 . S
C113 C115 1.426 . S
C114 C113 1.382 . S
C114 C118 1.389 . S
C115 C113 1.426 . S
C115 C116 1.375 . S
C115 C119 1.532 . S
C116 H106 0.930 . S
C116 C115 1.375 . S
C116 C117 1.416 . S
C117 C116 1.416 . S
C117 C118 1.371 . S
C118 H107 0.930 . S
C118 C114 1.389 . S
C118 C117 1.371 . S
C119 H108 0.970 . S
C119 H109 0.970 . S
C119 C115 1.532 . S
C119 C120 1.499 . S
C120 C119 1.499 . S
C120 C121 1.370 . S
C120 C125 1.415 . S
C121 H110 0.930 . S
C121 C120 1.370 . S
C121 C122 1.407 . S
C122 C121 1.407 . S
C122 C123 1.365 . S
C123 H111 0.930 . S
C123 C122 1.365 . S
C123 C124 1.393 . S
C124 C123 1.393 . S
C124 C125 1.387 . S
C125 H112 0.930 . S
C125 C120 1.415 . S
C125 C124 1.387 . S
C126 O127 1.160 . S
C126 O133 1.185 . S
O127 C126 1.160 . S
O128 Zn129 1.899 . S
O128 C136 1.284 . S
Zn129 O128 1.899 . S
Zn129 O130 2.032 . S
Zn129 O133 2.086 . S
Zn129 O138 1.977 . S
O130 Zn129 2.032 . S
O130 C134 1.278 . S
C131 O132 1.203 . S
C131 O138 1.267 . S
O132 C131 1.203 . S
O133 C126 1.185 . S
O133 Zn129 2.086 . S
C134 O130 1.278 . S
C134 O135 1.211 . S
O135 C134 1.211 . S
C136 O128 1.284 . S
C136 O137 1.273 . S
O137 C136 1.273 . S
O138 Zn129 1.977 . S
O138 C131 1.267 . S
C139 O140 1.160 . S
C139 O146 1.185 . S
O140 C139 1.160 . S
O141 Zn142 1.899 . S
O141 C149 1.284 . S
Zn142 O141 1.899 . S
Zn142 O143 2.032 . S
Zn142 O146 2.086 . S
Zn142 O151 1.977 . S
O143 Zn142 2.032 . S
O143 C147 1.278 . S
C144 O145 1.203 . S
C144 O151 1.267 . S
O145 C144 1.203 . S
O146 C139 1.185 . S
O146 Zn142 2.086 . S
C147 O143 1.278 . S
C147 O148 1.211 . S
O148 C147 1.211 . S
C149 O141 1.284 . S
C149 O150 1.273 . S
O150 C149 1.273 . S
O151 Zn142 1.977 . S
O151 C144 1.267 . S
C152 O153 1.160 . S
C152 O159 1.185 . S
O153 C152 1.160 . S
O154 Zn155 1.899 . S
O154 C162 1.284 . S
Zn155 O154 1.899 . S
Zn155 O156 2.032 . S
Zn155 O159 2.086 . S
Zn155 O164 1.977 . S
O156 Zn155 2.032 . S
O156 C160 1.278 . S
C157 O158 1.203 . S
C157 O164 1.267 . S
O158 C157 1.203 . S
O159 C152 1.185 . S
O159 Zn155 2.086 . S
C160 O156 1.278 . S
C160 O161 1.211 . S
O161 C160 1.211 . S
C162 O154 1.284 . S
C162 O163 1.273 . S
O163 C162 1.273 . S
O164 Zn155 1.977 . S
O164 C157 1.267 . S
C165 O166 1.160 . S
C165 O172 1.185 . S
O166 C165 1.160 . S
O167 Zn168 1.899 . S
O167 C175 1.284 . S
Zn168 O167 1.899 . S
Zn168 O169 2.032 . S
Zn168 O172 2.086 . S
Zn168 O177 1.977 . S
O169 Zn168 2.032 . S
O169 C173 1.278 . S
C170 O171 1.203 . S
C170 O177 1.267 . S
O171 C170 1.203 . S
O172 C165 1.185 . S
O172 Zn168 2.086 . S
C173 O169 1.278 . S
C173 O174 1.211 . S
O174 C173 1.211 . S
C175 O167 1.284 . S
C175 O176 1.273 . S
O176 C175 1.273 . S
O177 Zn168 1.977 . S
O177 C170 1.267 . S
C178 O179 1.160 . S
C178 O185 1.185 . S
O179 C178 1.160 . S
O180 Zn181 1.899 . S
O180 C188 1.284 . S
Zn181 O180 1.899 . S
Zn181 O182 2.032 . S
Zn181 O185 2.086 . S
Zn181 O190 1.977 . S
O182 Zn181 2.032 . S
O182 C186 1.278 . S
C183 O184 1.203 . S
C183 O190 1.267 . S
O184 C183 1.203 . S
O185 C178 1.185 . S
O185 Zn181 2.086 . S
C186 O182 1.278 . S
C186 O187 1.211 . S
O187 C186 1.211 . S
C188 O180 1.284 . S
C188 O189 1.273 . S
O189 C188 1.273 . S
O190 Zn181 1.977 . S
O190 C183 1.267 . S
C191 O192 1.160 . S
C191 O198 1.185 . S
O192 C191 1.160 . S
O193 Zn194 1.899 . S
O193 C201 1.284 . S
Zn194 O193 1.899 . S
Zn194 O195 2.032 . S
Zn194 O198 2.086 . S
Zn194 O203 1.977 . S
O195 Zn194 2.032 . S
O195 C199 1.278 . S
C196 O197 1.203 . S
C196 O203 1.267 . S
O197 C196 1.203 . S
O198 C191 1.185 . S
O198 Zn194 2.086 . S
C199 O195 1.278 . S
C199 O200 1.211 . S
O200 C199 1.211 . S
C201 O193 1.284 . S
C201 O202 1.273 . S
O202 C201 1.273 . S
O203 Zn194 1.977 . S
O203 C196 1.267 . S
H204 C212 0.929 . S
H205 C214 0.930 . S
H206 C216 0.930 . S
H207 C219 0.929 . S
H208 C222 0.930 . S
H209 C224 0.960 . S
H210 C224 0.960 . S
H211 C224 0.960 . S
C212 H204 0.929 . S
C212 C213 1.377 . S
C212 C214 1.384 . S
C213 C212 1.377 . S
C213 C219 1.390 . S
C214 H205 0.930 . S
C214 C212 1.384 . S
C214 C215 1.372 . S
C215 C214 1.372 . S
C215 C216 1.400 . S
C215 C220 1.490 . S
C216 H206 0.930 . S
C216 C215 1.400 . S
C216 C219 1.386 . S
H217 C233 0.930 . S
H218 C234 0.931 . S
C219 H207 0.929 . S
C219 C213 1.390 . S
C219 C216 1.386 . S
C220 C215 1.490 . S
C220 C222 1.395 . S
C220 C223 1.403 . S
H221 C227 0.930 . S
C222 H208 0.930 . S
C222 C220 1.395 . S
C222 C225 1.403 . S
C223 C220 1.403 . S
C223 C224 1.524 . S
C223 C227 1.400 . S
C224 H209 0.960 . S
C224 H210 0.960 . S
C224 H211 0.960 . S
C224 C223 1.524 . S
C225 C222 1.403 . S
C225 C226 1.392 . S
C225 C229 1.495 . S
C226 C225 1.392 . S
C226 C227 1.385 . S
C226 C228 1.478 . S
C227 H221 0.930 . S
C227 C223 1.400 . S
C227 C226 1.385 . S
C228 C226 1.478 . S
C228 C230 1.381 . S
C228 C234 1.383 . S
C229 C225 1.495 . S
C229 H235 0.959 . S
C229 H236 0.961 . S
C229 H237 0.960 . S
C230 C228 1.381 . S
C230 C231 1.394 . S
C230 H238 0.930 . S
C231 C230 1.394 . S
C231 C232 1.383 . S
C231 H239 0.929 . S
C232 C231 1.383 . S
C232 C233 1.377 . S
C233 H217 0.930 . S
C233 C232 1.377 . S
C233 C234 1.379 . S
C234 H218 0.931 . S
C234 C228 1.383 . S
C234 C233 1.379 . S
H235 C229 0.959 . S
H236 C229 0.961 . S
H237 C229 0.960 . S
H238 C230 0.930 . S
H239 C231 0.929 . S
H240 C248 0.929 . S
H241 C250 0.930 . S
H242 C252 0.930 . S
H243 C255 0.929 . S
H244 C258 0.930 . S
H245 C260 0.960 . S
H246 C260 0.960 . S
H247 C260 0.960 . S
C248 H240 0.929 . S
C248 C249 1.377 . S
C248 C250 1.384 . S
C249 C248 1.377 . S
C249 C255 1.390 . S
C250 H241 0.930 . S
C250 C248 1.384 . S
C250 C251 1.372 . S
C251 C250 1.372 . S
C251 C252 1.400 . S
C251 C256 1.490 . S
C252 H242 0.930 . S
C252 C251 1.400 . S
C252 C255 1.386 . S
H253 C269 0.930 . S
H254 C270 0.931 . S
C255 H243 0.929 . S
C255 C249 1.390 . S
C255 C252 1.386 . S
C256 C251 1.490 . S
C256 C258 1.395 . S
C256 C259 1.403 . S
H257 C263 0.930 . S
C258 H244 0.930 . S
C258 C256 1.395 . S
C258 C261 1.403 . S
C259 C256 1.403 . S
C259 C260 1.524 . S
C259 C263 1.400 . S
C260 H245 0.960 . S
C260 H246 0.960 . S
C260 H247 0.960 . S
C260 C259 1.524 . S
C261 C258 1.403 . S
C261 C262 1.392 . S
C261 C265 1.495 . S
C262 C261 1.392 . S
C262 C263 1.385 . S
C262 C264 1.478 . S
C263 H257 0.930 . S
C263 C259 1.400 . S
C263 C262 1.385 . S
C264 C262 1.478 . S
C264 C266 1.381 . S
C264 C270 1.383 . S
C265 C261 1.495 . S
C265 H271 0.959 . S
C265 H272 0.961 . S
C265 H273 0.960 . S
C266 C264 1.381 . S
C266 C267 1.394 . S
C266 H274 0.930 . S
C267 C266 1.394 . S
C267 C268 1.383 . S
C267 H275 0.929 . S
C268 C267 1.383 . S
C268 C269 1.377 . S
C269 H253 0.930 . S
C269 C268 1.377 . S
C269 C270 1.379 . S
C270 H254 0.931 . S
C270 C264 1.383 . S
C270 C269 1.379 . S
H271 C265 0.959 . S
H272 C265 0.961 . S
H273 C265 0.960 . S
H274 C266 0.930 . S
H275 C267 0.929 . S
H276 C284 0.929 . S
H277 C286 0.930 . S
H278 C288 0.930 . S
H279 C291 0.929 . S
H280 C294 0.930 . S
H281 C296 0.960 . S
H282 C296 0.960 . S
H283 C296 0.960 . S
C284 H276 0.929 . S
C284 C285 1.377 . S
C284 C286 1.384 . S
C285 C284 1.377 . S
C285 C291 1.390 . S
C286 H277 0.930 . S
C286 C284 1.384 . S
C286 C287 1.372 . S
C287 C286 1.372 . S
C287 C288 1.400 . S
C287 C292 1.490 . S
C288 H278 0.930 . S
C288 C287 1.400 . S
C288 C291 1.386 . S
H289 C305 0.930 . S
H290 C306 0.931 . S
C291 H279 0.929 . S
C291 C285 1.390 . S
C291 C288 1.386 . S
C292 C287 1.490 . S
C292 C294 1.395 . S
C292 C295 1.403 . S
H293 C299 0.930 . S
C294 H280 0.930 . S
C294 C292 1.395 . S
C294 C297 1.403 . S
C295 C292 1.403 . S
C295 C296 1.524 . S
C295 C299 1.400 . S
C296 H281 0.960 . S
C296 H282 0.960 . S
C296 H283 0.960 . S
C296 C295 1.524 . S
C297 C294 1.403 . S
C297 C298 1.392 . S
C297 C301 1.495 . S
C298 C297 1.392 . S
C298 C299 1.385 . S
C298 C300 1.478 . S
C299 H293 0.930 . S
C299 C295 1.400 . S
C299 C298 1.385 . S
C300 C298 1.478 . S
C300 C302 1.381 . S
C300 C306 1.383 . S
C301 C297 1.495 . S
C301 H307 0.959 . S
C301 H308 0.961 . S
C301 H309 0.960 . S
C302 C300 1.381 . S
C302 C303 1.394 . S
C302 H310 0.930 . S
C303 C302 1.394 . S
C303 C304 1.383 . S
C303 H311 0.929 . S
C304 C303 1.383 . S
C304 C305 1.377 . S
C305 H289 0.930 . S
C305 C304 1.377 . S
C305 C306 1.379 . S
C306 H290 0.931 . S
C306 C300 1.383 . S
C306 C305 1.379 . S
H307 C301 0.959 . S
H308 C301 0.961 . S
H309 C301 0.960 . S
H310 C302 0.930 . S
H311 C303 0.929 . S
H312 C320 0.929 . S
H313 C322 0.930 . S
H314 C324 0.930 . S
H315 C327 0.929 . S
H316 C330 0.930 . S
H317 C332 0.960 . S
H318 C332 0.960 . S
H319 C332 0.960 . S
C320 H312 0.929 . S
C320 C321 1.377 . S
C320 C322 1.384 . S
C321 C320 1.377 . S
C321 C327 1.390 . S
C322 H313 0.930 . S
C322 C320 1.384 . S
C322 C323 1.372 . S
C323 C322 1.372 . S
C323 C324 1.400 . S
C323 C328 1.490 . S
C324 H314 0.930 . S
C324 C323 1.400 . S
C324 C327 1.386 . S
H325 C341 0.930 . S
H326 C342 0.931 . S
C327 H315 0.929 . S
C327 C321 1.390 . S
C327 C324 1.386 . S
C328 C323 1.490 . S
C328 C330 1.395 . S
C328 C331 1.403 . S
H329 C335 0.930 . S
C330 H316 0.930 . S
C330 C328 1.395 . S
C330 C333 1.403 . S
C331 C328 1.403 . S
C331 C332 1.524 . S
C331 C335 1.400 . S
C332 H317 0.960 . S
C332 H318 0.960 . S
C332 H319 0.960 . S
C332 C331 1.524 . S
C333 C330 1.403 . S
C333 C334 1.392 . S
C333 C337 1.495 . S
C334 C333 1.392 . S
C334 C335 1.385 . S
C334 C336 1.478 . S
C335 H329 0.930 . S
C335 C331 1.400 . S
C335 C334 1.385 . S
C336 C334 1.478 . S
C336 C338 1.381 . S
C336 C342 1.383 . S
C337 C333 1.495 . S
C337 H343 0.959 . S
C337 H344 0.961 . S
C337 H345 0.960 . S
C338 C336 1.381 . S
C338 C339 1.394 . S
C338 H346 0.930 . S
C339 C338 1.394 . S
C339 C340 1.383 . S
C339 H347 0.929 . S
C340 C339 1.383 . S
C340 C341 1.377 . S
C341 H325 0.930 . S
C341 C340 1.377 . S
C341 C342 1.379 . S
C342 H326 0.931 . S
C342 C336 1.383 . S
C342 C341 1.379 . S
H343 C337 0.959 . S
H344 C337 0.961 . S
H345 C337 0.960 . S
H346 C338 0.930 . S
H347 C339 0.929 . S
H348 C356 0.929 . S
H349 C358 0.930 . S
H350 C360 0.930 . S
H351 C363 0.929 . S
H352 C366 0.930 . S
H353 C368 0.960 . S
H354 C368 0.960 . S
H355 C368 0.960 . S
C356 H348 0.929 . S
C356 C357 1.377 . S
C356 C358 1.384 . S
C357 C356 1.377 . S
C357 C363 1.390 . S
C358 H349 0.930 . S
C358 C356 1.384 . S
C358 C359 1.372 . S
C359 C358 1.372 . S
C359 C360 1.400 . S
C359 C364 1.490 . S
C360 H350 0.930 . S
C360 C359 1.400 . S
C360 C363 1.386 . S
H361 C377 0.930 . S
H362 C378 0.931 . S
C363 H351 0.929 . S
C363 C357 1.390 . S
C363 C360 1.386 . S
C364 C359 1.490 . S
C364 C366 1.395 . S
C364 C367 1.403 . S
H365 C371 0.930 . S
C366 H352 0.930 . S
C366 C364 1.395 . S
C366 C369 1.403 . S
C367 C364 1.403 . S
C367 C368 1.524 . S
C367 C371 1.400 . S
C368 H353 0.960 . S
C368 H354 0.960 . S
C368 H355 0.960 . S
C368 C367 1.524 . S
C369 C366 1.403 . S
C369 C370 1.392 . S
C369 C373 1.495 . S
C370 C369 1.392 . S
C370 C371 1.385 . S
C370 C372 1.478 . S
C371 H365 0.930 . S
C371 C367 1.400 . S
C371 C370 1.385 . S
C372 C370 1.478 . S
C372 C374 1.381 . S
C372 C378 1.383 . S
C373 C369 1.495 . S
C373 H379 0.959 . S
C373 H380 0.961 . S
C373 H381 0.960 . S
C374 C372 1.381 . S
C374 C375 1.394 . S
C374 H382 0.930 . S
C375 C374 1.394 . S
C375 C376 1.383 . S
C375 H383 0.929 . S
C376 C375 1.383 . S
C376 C377 1.377 . S
C377 H361 0.930 . S
C377 C376 1.377 . S
C377 C378 1.379 . S
C378 H362 0.931 . S
C378 C372 1.383 . S
C378 C377 1.379 . S
H379 C373 0.959 . S
H380 C373 0.961 . S
H381 C373 0.960 . S
H382 C374 0.930 . S
H383 C375 0.929 . S
H384 C392 0.929 . S
H385 C394 0.930 . S
H386 C396 0.930 . S
H387 C399 0.929 . S
H388 C402 0.930 . S
H389 C404 0.960 . S
H390 C404 0.960 . S
H391 C404 0.960 . S
C392 H384 0.929 . S
C392 C393 1.377 . S
C392 C394 1.384 . S
C393 C392 1.377 . S
C393 C399 1.390 . S
C394 H385 0.930 . S
C394 C392 1.384 . S
C394 C395 1.372 . S
C395 C394 1.372 . S
C395 C396 1.400 . S
C395 C400 1.490 . S
C396 H386 0.930 . S
C396 C395 1.400 . S
C396 C399 1.386 . S
H397 C413 0.930 . S
H398 C414 0.931 . S
C399 H387 0.929 . S
C399 C393 1.390 . S
C399 C396 1.386 . S
C400 C395 1.490 . S
C400 C402 1.395 . S
C400 C403 1.403 . S
H401 C407 0.930 . S
C402 H388 0.930 . S
C402 C400 1.395 . S
C402 C405 1.403 . S
C403 C400 1.403 . S
C403 C404 1.524 . S
C403 C407 1.400 . S
C404 H389 0.960 . S
C404 H390 0.960 . S
C404 H391 0.960 . S
C404 C403 1.524 . S
C405 C402 1.403 . S
C405 C406 1.392 . S
C405 C409 1.495 . S
C406 C405 1.392 . S
C406 C407 1.385 . S
C406 C408 1.478 . S
C407 H401 0.930 . S
C407 C403 1.400 . S
C407 C406 1.385 . S
C408 C406 1.478 . S
C408 C410 1.381 . S
C408 C414 1.383 . S
C409 C405 1.495 . S
C409 H415 0.959 . S
C409 H416 0.961 . S
C409 H417 0.960 . S
C410 C408 1.381 . S
C410 C411 1.394 . S
C410 H418 0.930 . S
C411 C410 1.394 . S
C411 C412 1.383 . S
C411 H419 0.929 . S
C412 C411 1.383 . S
C412 C413 1.377 . S
C413 H397 0.930 . S
C413 C412 1.377 . S
C413 C414 1.379 . S
C414 H398 0.931 . S
C414 C408 1.383 . S
C414 C413 1.379 . S
H415 C409 0.959 . S
H416 C409 0.961 . S
H417 C409 0.960 . S
H418 C410 0.930 . S
H419 C411 0.929 . S
H420 C428 0.929 . S
H421 C430 0.930 . S
H422 C432 0.930 . S
H423 C435 0.929 . S
H424 C438 0.930 . S
H425 C440 0.960 . S
H426 C440 0.960 . S
H427 C440 0.960 . S
C428 H420 0.929 . S
C428 C429 1.377 . S
C428 C430 1.384 . S
C429 C428 1.377 . S
C429 C435 1.390 . S
C430 H421 0.930 . S
C430 C428 1.384 . S
C430 C431 1.372 . S
C431 C430 1.372 . S
C431 C432 1.400 . S
C431 C436 1.490 . S
C432 H422 0.930 . S
C432 C431 1.400 . S
C432 C435 1.386 . S
H433 C449 0.930 . S
H434 C450 0.931 . S
C435 H423 0.929 . S
C435 C429 1.390 . S
C435 C432 1.386 . S
C436 C431 1.490 . S
C436 C438 1.395 . S
C436 C439 1.403 . S
H437 C443 0.930 . S
C438 H424 0.930 . S
C438 C436 1.395 . S
C438 C441 1.403 . S
C439 C436 1.403 . S
C439 C440 1.524 . S
C439 C443 1.400 . S
C440 H425 0.960 . S
C440 H426 0.960 . S
C440 H427 0.960 . S
C440 C439 1.524 . S
C441 C438 1.403 . S
C441 C442 1.392 . S
C441 C445 1.495 . S
C442 C441 1.392 . S
C442 C443 1.385 . S
C442 C444 1.478 . S
C443 H437 0.930 . S
C443 C439 1.400 . S
C443 C442 1.385 . S
C444 C442 1.478 . S
C444 C446 1.381 . S
C444 C450 1.383 . S
C445 C441 1.495 . S
C445 H451 0.959 . S
C445 H452 0.961 . S
C445 H453 0.960 . S
C446 C444 1.381 . S
C446 C447 1.394 . S
C446 H454 0.930 . S
C447 C446 1.394 . S
C447 C448 1.383 . S
C447 H455 0.929 . S
C448 C447 1.383 . S
C448 C449 1.377 . S
C449 H433 0.930 . S
C449 C448 1.377 . S
C449 C450 1.379 . S
C450 H434 0.931 . S
C450 C444 1.383 . S
C450 C449 1.379 . S
H451 C445 0.959 . S
H452 C445 0.961 . S
H453 C445 0.960 . S
H454 C446 0.930 . S
H455 C447 0.929 . S
H456 C464 0.929 . S
H457 C466 0.930 . S
H458 C468 0.930 . S
H459 C471 0.929 . S
H460 C474 0.930 . S
H461 C476 0.960 . S
H462 C476 0.960 . S
H463 C476 0.960 . S
C464 H456 0.929 . S
C464 C465 1.377 . S
C464 C466 1.384 . S
C465 C464 1.377 . S
C465 C471 1.390 . S
C466 H457 0.930 . S
C466 C464 1.384 . S
C466 C467 1.372 . S
C467 C466 1.372 . S
C467 C468 1.400 . S
C467 C472 1.490 . S
C468 H458 0.930 . S
C468 C467 1.400 . S
C468 C471 1.386 . S
H469 C485 0.930 . S
H470 C486 0.931 . S
C471 H459 0.929 . S
C471 C465 1.390 . S
C471 C468 1.386 . S
C472 C467 1.490 . S
C472 C474 1.395 . S
C472 C475 1.403 . S
H473 C479 0.930 . S
C474 H460 0.930 . S
C474 C472 1.395 . S
C474 C477 1.403 . S
C475 C472 1.403 . S
C475 C476 1.524 . S
C475 C479 1.400 . S
C476 H461 0.960 . S
C476 H462 0.960 . S
C476 H463 0.960 . S
C476 C475 1.524 . S
C477 C474 1.403 . S
C477 C478 1.392 . S
C477 C481 1.495 . S
C478 C477 1.392 . S
C478 C479 1.385 . S
C478 C480 1.478 . S
C479 H473 0.930 . S
C479 C475 1.400 . S
C479 C478 1.385 . S
C480 C478 1.478 . S
C480 C482 1.381 . S
C480 C486 1.383 . S
C481 C477 1.495 . S
C481 H487 0.959 . S
C481 H488 0.961 . S
C481 H489 0.960 . S
C482 C480 1.381 . S
C482 C483 1.394 . S
C482 H490 0.930 . S
C483 C482 1.394 . S
C483 C484 1.383 . S
C483 H491 0.929 . S
C484 C483 1.383 . S
C484 C485 1.377 . S
C485 H469 0.930 . S
C485 C484 1.377 . S
C485 C486 1.379 . S
C486 H470 0.931 . S
C486 C480 1.383 . S
C486 C485 1.379 . S
H487 C481 0.959 . S
H488 C481 0.961 . S
H489 C481 0.960 . S
H490 C482 0.930 . S
H491 C483 0.929 . S
H492 C500 0.929 . S
H493 C502 0.930 . S
H494 C504 0.930 . S
H495 C507 0.929 . S
H496 C510 0.930 . S
H497 C512 0.960 . S
H498 C512 0.960 . S
H499 C512 0.960 . S
C500 H492 0.929 . S
C500 C501 1.377 . S
C500 C502 1.384 . S
C501 C500 1.377 . S
C501 C507 1.390 . S
C502 H493 0.930 . S
C502 C500 1.384 . S
C502 C503 1.372 . S
C503 C502 1.372 . S
C503 C504 1.400 . S
C503 C508 1.490 . S
C504 H494 0.930 . S
C504 C503 1.400 . S
C504 C507 1.386 . S
H505 C521 0.930 . S
H506 C522 0.931 . S
C507 H495 0.929 . S
C507 C501 1.390 . S
C507 C504 1.386 . S
C508 C503 1.490 . S
C508 C510 1.395 . S
C508 C511 1.403 . S
H509 C515 0.930 . S
C510 H496 0.930 . S
C510 C508 1.395 . S
C510 C513 1.403 . S
C511 C508 1.403 . S
C511 C512 1.524 . S
C511 C515 1.400 . S
C512 H497 0.960 . S
C512 H498 0.960 . S
C512 H499 0.960 . S
C512 C511 1.524 . S
C513 C510 1.403 . S
C513 C514 1.392 . S
C513 C517 1.495 . S
C514 C513 1.392 . S
C514 C515 1.385 . S
C514 C516 1.478 . S
C515 H509 0.930 . S
C515 C511 1.400 . S
C515 C514 1.385 . S
C516 C514 1.478 . S
C516 C518 1.381 . S
C516 C522 1.383 . S
C517 C513 1.495 . S
C517 H523 0.959 . S
C517 H524 0.961 . S
C517 H525 0.960 . S
C518 C516 1.381 . S
C518 C519 1.394 . S
C518 H526 0.930 . S
C519 C518 1.394 . S
C519 C520 1.383 . S
C519 H527 0.929 . S
C520 C519 1.383 . S
C520 C521 1.377 . S
C521 H505 0.930 . S
C521 C520 1.377 . S
C521 C522 1.379 . S
C522 H506 0.931 . S
C522 C516 1.383 . S
C522 C521 1.379 . S
H523 C517 0.959 . S
H524 C517 0.961 . S
H525 C517 0.960 . S
H526 C518 0.930 . S
H527 C519 0.929 . S
H528 C536 0.929 . S
H529 C538 0.930 . S
H530 C540 0.930 1_556 S
H531 C543 0.929 . S
H532 C546 0.930 . S
H533 C548 0.960 . S
H534 C548 0.960 . S
H535 C548 0.960 . S
C536 H528 0.929 . S
C536 C537 1.377 . S
C536 C538 1.384 . S
C537 C536 1.377 . S
C537 C543 1.390 1_554 S
C538 H529 0.930 . S
C538 C536 1.384 . S
C538 C539 1.372 . S
C539 C538 1.372 . S
C539 C540 1.400 . S
C539 C544 1.490 . S
C540 H530 0.930 1_554 S
C540 C539 1.400 . S
C540 C543 1.386 1_554 S
H541 C557 0.930 . S
H542 C558 0.931 . S
C543 H531 0.929 . S
C543 C537 1.390 1_556 S
C543 C540 1.386 1_556 S
C544 C539 1.490 . S
C544 C546 1.395 . S
C544 C547 1.403 . S
H545 C551 0.930 . S
C546 H532 0.930 . S
C546 C544 1.395 . S
C546 C549 1.403 . S
C547 C544 1.403 . S
C547 C548 1.524 1_554 S
C547 C551 1.400 . S
C548 H533 0.960 . S
C548 H534 0.960 . S
C548 H535 0.960 . S
C548 C547 1.524 1_556 S
C549 C546 1.403 . S
C549 C550 1.392 . S
C549 C553 1.495 . S
C550 C549 1.392 . S
C550 C551 1.385 . S
C550 C552 1.478 . S
C551 H545 0.930 . S
C551 C547 1.400 . S
C551 C550 1.385 . S
C552 C550 1.478 . S
C552 C554 1.381 . S
C552 C558 1.383 . S
C553 C549 1.495 . S
C553 H559 0.959 . S
C553 H560 0.961 . S
C553 H561 0.960 . S
C554 C552 1.381 . S
C554 C555 1.394 . S
C554 H562 0.930 . S
C555 C554 1.394 . S
C555 C556 1.383 . S
C555 H563 0.929 . S
C556 C555 1.383 . S
C556 C557 1.377 . S
C557 H541 0.930 . S
C557 C556 1.377 . S
C557 C558 1.379 . S
C558 H542 0.931 . S
C558 C552 1.383 . S
C558 C557 1.379 . S
H559 C553 0.959 . S
H560 C553 0.961 . S
H561 C553 0.960 . S
H562 C554 0.930 . S
H563 C555 0.929 . S
H564 C572 0.929 . S
H565 C574 0.930 . S
H566 C576 0.930 . S
H567 C579 0.929 . S
H568 C582 0.930 . S
H569 C584 0.960 . S
H570 C584 0.960 . S
H571 C584 0.960 . S
C572 H564 0.929 . S
C572 C573 1.377 . S
C572 C574 1.384 . S
C573 C572 1.377 . S
C573 C579 1.390 . S
C574 H565 0.930 . S
C574 C572 1.384 . S
C574 C575 1.372 . S
C575 C574 1.372 . S
C575 C576 1.400 . S
C575 C580 1.490 . S
C576 H566 0.930 . S
C576 C575 1.400 . S
C576 C579 1.386 . S
H577 C593 0.930 . S
H578 C594 0.931 . S
C579 H567 0.929 . S
C579 C573 1.390 . S
C579 C576 1.386 . S
C580 C575 1.490 . S
C580 C582 1.395 . S
C580 C583 1.403 . S
H581 C587 0.930 . S
C582 H568 0.930 . S
C582 C580 1.395 . S
C582 C585 1.403 . S
C583 C580 1.403 . S
C583 C584 1.524 . S
C583 C587 1.400 . S
C584 H569 0.960 . S
C584 H570 0.960 . S
C584 H571 0.960 . S
C584 C583 1.524 . S
C585 C582 1.403 . S
C585 C586 1.392 . S
C585 C589 1.495 . S
C586 C585 1.392 . S
C586 C587 1.385 . S
C586 C588 1.478 . S
C587 H581 0.930 . S
C587 C583 1.400 . S
C587 C586 1.385 . S
C588 C586 1.478 . S
C588 C590 1.381 . S
C588 C594 1.383 . S
C589 C585 1.495 . S
C589 H595 0.959 . S
C589 H596 0.961 . S
C589 H597 0.960 . S
C590 C588 1.381 . S
C590 C591 1.394 . S
C590 H598 0.930 . S
C591 C590 1.394 . S
C591 C592 1.383 . S
C591 H599 0.929 . S
C592 C591 1.383 . S
C592 C593 1.377 . S
C593 H577 0.930 . S
C593 C592 1.377 . S
C593 C594 1.379 . S
C594 H578 0.931 . S
C594 C588 1.383 . S
C594 C593 1.379 . S
H595 C589 0.959 . S
H596 C589 0.961 . S
H597 C589 0.960 . S
H598 C590 0.930 . S
H599 C591 0.929 . S
H600 C608 0.929 . S
H601 C610 0.930 . S
H602 C612 0.930 . S
H603 C615 0.929 . S
H604 C618 0.930 . S
H605 C620 0.960 . S
H606 C620 0.960 . S
H607 C620 0.960 . S
C608 H600 0.929 . S
C608 C609 1.377 . S
C608 C610 1.384 . S
C609 C608 1.377 . S
C609 C615 1.390 . S
C610 H601 0.930 . S
C610 C608 1.384 . S
C610 C611 1.372 . S
C611 C610 1.372 . S
C611 C612 1.400 . S
C611 C616 1.490 . S
C612 H602 0.930 . S
C612 C611 1.400 . S
C612 C615 1.386 . S
H613 C629 0.930 . S
H614 C630 0.931 . S
C615 H603 0.929 . S
C615 C609 1.390 . S
C615 C612 1.386 . S
C616 C611 1.490 . S
C616 C618 1.395 . S
C616 C619 1.403 . S
H617 C623 0.930 . S
C618 H604 0.930 . S
C618 C616 1.395 . S
C618 C621 1.403 . S
C619 C616 1.403 . S
C619 C620 1.524 . S
C619 C623 1.400 . S
C620 H605 0.960 . S
C620 H606 0.960 . S
C620 H607 0.960 . S
C620 C619 1.524 . S
C621 C618 1.403 . S
C621 C622 1.392 . S
C621 C625 1.495 . S
C622 C621 1.392 . S
C622 C623 1.385 . S
C622 C624 1.478 . S
C623 H617 0.930 . S
C623 C619 1.400 . S
C623 C622 1.385 . S
C624 C622 1.478 . S
C624 C626 1.381 . S
C624 C630 1.383 . S
C625 C621 1.495 . S
C625 H631 0.959 . S
C625 H632 0.961 . S
C625 H633 0.960 . S
C626 C624 1.381 . S
C626 C627 1.394 . S
C626 H634 0.930 . S
C627 C626 1.394 . S
C627 C628 1.383 . S
C627 H635 0.929 . S
C628 C627 1.383 . S
C628 C629 1.377 . S
C629 H613 0.930 . S
C629 C628 1.377 . S
C629 C630 1.379 . S
C630 H614 0.931 . S
C630 C624 1.383 . S
C630 C629 1.379 . S
H631 C625 0.959 . S
H632 C625 0.961 . S
H633 C625 0.960 . S
H634 C626 0.930 . S
H635 C627 0.929 . S
H636 C644 0.929 . S
H637 C646 0.930 . S
H638 C648 0.930 . S
H639 C651 0.929 . S
H640 C654 0.930 . S
H641 C656 0.960 . S
H642 C656 0.960 . S
H643 C656 0.960 . S
C644 H636 0.929 . S
C644 C645 1.377 . S
C644 C646 1.384 . S
C645 C644 1.377 . S
C645 C651 1.390 . S
C646 H637 0.930 . S
C646 C644 1.384 . S
C646 C647 1.372 . S
C647 C646 1.372 . S
C647 C648 1.400 . S
C647 C652 1.490 . S
C648 H638 0.930 . S
C648 C647 1.400 . S
C648 C651 1.386 . S
H649 C665 0.930 . S
H650 C666 0.931 . S
C651 H639 0.929 . S
C651 C645 1.390 . S
C651 C648 1.386 . S
C652 C647 1.490 . S
C652 C654 1.395 . S
C652 C655 1.403 . S
H653 C659 0.930 . S
C654 H640 0.930 . S
C654 C652 1.395 . S
C654 C657 1.403 . S
C655 C652 1.403 . S
C655 C656 1.524 . S
C655 C659 1.400 . S
C656 H641 0.960 . S
C656 H642 0.960 . S
C656 H643 0.960 . S
C656 C655 1.524 . S
C657 C654 1.403 . S
C657 C658 1.392 . S
C657 C661 1.495 . S
C658 C657 1.392 . S
C658 C659 1.385 . S
C658 C660 1.478 . S
C659 H653 0.930 . S
C659 C655 1.400 . S
C659 C658 1.385 . S
C660 C658 1.478 . S
C660 C662 1.381 . S
C660 C666 1.383 . S
C661 C657 1.495 . S
C661 H667 0.959 . S
C661 H668 0.961 . S
C661 H669 0.960 . S
C662 C660 1.381 . S
C662 C663 1.394 . S
C662 H670 0.930 . S
C663 C662 1.394 . S
C663 C664 1.383 . S
C663 H671 0.929 . S
C664 C663 1.383 . S
C664 C665 1.377 . S
C665 H649 0.930 . S
C665 C664 1.377 . S
C665 C666 1.379 . S
C666 H650 0.931 . S
C666 C660 1.383 . S
C666 C665 1.379 . S
H667 C661 0.959 . S
H668 C661 0.961 . S
H669 C661 0.960 . S
H670 C662 0.930 . S
H671 C663 0.929 . S
H672 C680 0.929 . S
H673 C682 0.930 . S
H674 C684 0.930 . S
H675 C687 0.929 . S
H676 C690 0.930 . S
H677 C692 0.960 . S
H678 C692 0.960 . S
H679 C692 0.960 . S
C680 H672 0.929 . S
C680 C681 1.377 . S
C680 C682 1.384 . S
C681 C680 1.377 . S
C681 C687 1.390 . S
C682 H673 0.930 . S
C682 C680 1.384 . S
C682 C683 1.372 . S
C683 C682 1.372 . S
C683 C684 1.400 . S
C683 C688 1.490 . S
C684 H674 0.930 . S
C684 C683 1.400 . S
C684 C687 1.386 . S
H685 C701 0.930 . S
H686 C702 0.931 . S
C687 H675 0.929 . S
C687 C681 1.390 . S
C687 C684 1.386 . S
C688 C683 1.490 . S
C688 C690 1.395 . S
C688 C691 1.403 . S
H689 C695 0.930 . S
C690 H676 0.930 . S
C690 C688 1.395 . S
C690 C693 1.403 . S
C691 C688 1.403 . S
C691 C692 1.524 . S
C691 C695 1.400 . S
C692 H677 0.960 . S
C692 H678 0.960 . S
C692 H679 0.960 . S
C692 C691 1.524 . S
C693 C690 1.403 . S
C693 C694 1.392 . S
C693 C697 1.495 . S
C694 C693 1.392 . S
C694 C695 1.385 . S
C694 C696 1.478 . S
C695 H689 0.930 . S
C695 C691 1.400 . S
C695 C694 1.385 . S
C696 C694 1.478 . S
C696 C698 1.381 . S
C696 C702 1.383 . S
C697 C693 1.495 . S
C697 H703 0.959 . S
C697 H704 0.961 . S
C697 H705 0.960 . S
C698 C696 1.381 . S
C698 C699 1.394 . S
C698 H706 0.930 . S
C699 C698 1.394 . S
C699 C700 1.383 . S
C699 H707 0.929 . S
C700 C699 1.383 . S
C700 C701 1.377 . S
C701 H685 0.930 . S
C701 C700 1.377 . S
C701 C702 1.379 . S
C702 H686 0.931 . S
C702 C696 1.383 . S
C702 C701 1.379 . S
H703 C697 0.959 . S
H704 C697 0.961 . S
H705 C697 0.960 . S
H706 C698 0.930 . S
H707 C699 0.929 . S
H708 C716 0.929 . S
H709 C718 0.930 . S
H710 C720 0.930 . S
H711 C723 0.929 . S
H712 C726 0.930 . S
H713 C728 0.960 . S
H714 C728 0.960 . S
H715 C728 0.960 . S
C716 H708 0.929 . S
C716 C717 1.377 . S
C716 C718 1.384 . S
C717 C716 1.377 . S
C717 C723 1.390 . S
C718 H709 0.930 . S
C718 C716 1.384 . S
C718 C719 1.372 . S
C719 C718 1.372 . S
C719 C720 1.400 . S
C719 C724 1.490 . S
C720 H710 0.930 . S
C720 C719 1.400 . S
C720 C723 1.386 . S
H721 C737 0.930 . S
H722 C738 0.931 . S
C723 H711 0.929 . S
C723 C717 1.390 . S
C723 C720 1.386 . S
C724 C719 1.490 . S
C724 C726 1.395 . S
C724 C727 1.403 . S
H725 C731 0.930 . S
C726 H712 0.930 . S
C726 C724 1.395 . S
C726 C729 1.403 . S
C727 C724 1.403 . S
C727 C728 1.524 . S
C727 C731 1.400 . S
C728 H713 0.960 . S
C728 H714 0.960 . S
C728 H715 0.960 . S
C728 C727 1.524 . S
C729 C726 1.403 . S
C729 C730 1.392 . S
C729 C733 1.495 . S
C730 C729 1.392 . S
C730 C731 1.385 . S
C730 C732 1.478 . S
C731 H725 0.930 . S
C731 C727 1.400 . S
C731 C730 1.385 . S
C732 C730 1.478 . S
C732 C734 1.381 . S
C732 C738 1.383 . S
C733 C729 1.495 . S
C733 H739 0.959 . S
C733 H740 0.961 . S
C733 H741 0.960 . S
C734 C732 1.381 . S
C734 C735 1.394 . S
C734 H742 0.930 . S
C735 C734 1.394 . S
C735 C736 1.383 . S
C735 H743 0.929 . S
C736 C735 1.383 . S
C736 C737 1.377 . S
C737 H721 0.930 . S
C737 C736 1.377 . S
C737 C738 1.379 . S
C738 H722 0.931 . S
C738 C732 1.383 . S
C738 C737 1.379 . S
H739 C733 0.959 . S
H740 C733 0.961 . S
H741 C733 0.960 . S
H742 C734 0.930 . S
H743 C735 0.929 . S
H744 C752 0.929 . S
H745 C754 0.930 . S
H746 C756 0.930 . S
H747 C759 0.929 . S
H748 C762 0.930 . S
H749 C764 0.960 . S
H750 C764 0.960 . S
H751 C764 0.960 . S
C752 H744 0.929 . S
C752 C753 1.377 . S
C752 C754 1.384 . S
C753 C752 1.377 . S
C753 C759 1.390 . S
C754 H745 0.930 . S
C754 C752 1.384 . S
C754 C755 1.372 . S
C755 C754 1.372 . S
C755 C756 1.400 . S
C755 C760 1.490 . S
C756 H746 0.930 . S
C756 C755 1.400 . S
C756 C759 1.386 . S
H757 C773 0.930 . S
H758 C774 0.931 . S
C759 H747 0.929 . S
C759 C753 1.390 . S
C759 C756 1.386 . S
C760 C755 1.490 . S
C760 C762 1.395 . S
C760 C763 1.403 . S
H761 C767 0.930 . S
C762 H748 0.930 . S
C762 C760 1.395 . S
C762 C765 1.403 . S
C763 C760 1.403 . S
C763 C764 1.524 . S
C763 C767 1.400 . S
C764 H749 0.960 . S
C764 H750 0.960 . S
C764 H751 0.960 . S
C764 C763 1.524 . S
C765 C762 1.403 . S
C765 C766 1.392 . S
C765 C769 1.495 . S
C766 C765 1.392 . S
C766 C767 1.385 . S
C766 C768 1.478 . S
C767 H761 0.930 . S
C767 C763 1.400 . S
C767 C766 1.385 . S
C768 C766 1.478 . S
C768 C770 1.381 . S
C768 C774 1.383 . S
C769 C765 1.495 . S
C769 H775 0.959 . S
C769 H776 0.983 . S
C769 H777 0.960 . S
C770 C768 1.381 . S
C770 C771 1.394 1_556 S
C770 H778 0.930 . S
C771 C770 1.394 1_554 S
C771 C772 1.383 . S
C771 H779 0.929 . S
C772 C771 1.383 . S
C772 C773 1.377 . S
C773 H757 0.930 . S
C773 C772 1.377 . S
C773 C774 1.379 1_554 S
C774 H758 0.931 . S
C774 C768 1.383 . S
C774 C773 1.379 1_556 S
H775 C769 0.959 . S
H776 C769 0.983 . S
H777 C769 0.960 . S
H778 C770 0.930 . S
H779 C771 0.929 . S
H780 C788 0.929 . S
H781 C790 0.930 . S
H782 C792 0.930 . S
H783 C795 0.929 . S
H784 C798 0.930 . S
H785 C800 0.960 . S
H786 C800 0.960 . S
H787 C800 0.960 . S
C788 H780 0.929 . S
C788 C789 1.377 . S
C788 C790 1.384 . S
C789 C788 1.377 . S
C789 C795 1.390 . S
C790 H781 0.930 . S
C790 C788 1.384 . S
C790 C791 1.372 . S
C791 C790 1.372 . S
C791 C792 1.400 . S
C791 C796 1.490 . S
C792 H782 0.930 . S
C792 C791 1.400 . S
C792 C795 1.386 . S
H793 C809 0.930 . S
H794 C810 0.931 . S
C795 H783 0.929 . S
C795 C789 1.390 . S
C795 C792 1.386 . S
C796 C791 1.490 . S
C796 C798 1.395 . S
C796 C799 1.403 . S
H797 C803 0.930 . S
C798 H784 0.930 . S
C798 C796 1.395 . S
C798 C801 1.403 . S
C799 C796 1.403 . S
C799 C800 1.524 . S
C799 C803 1.400 . S
C800 H785 0.960 . S
C800 H786 0.960 . S
C800 H787 0.960 . S
C800 C799 1.524 . S
C801 C798 1.403 . S
C801 C802 1.392 . S
C801 C805 1.495 . S
C802 C801 1.392 . S
C802 C803 1.385 . S
C802 C804 1.478 . S
C803 H797 0.930 . S
C803 C799 1.400 . S
C803 C802 1.385 . S
C804 C802 1.478 . S
C804 C806 1.381 . S
C804 C810 1.383 . S
C805 C801 1.495 . S
C805 H811 0.959 . S
C805 H812 0.961 . S
C805 H813 0.960 . S
C806 C804 1.381 . S
C806 C807 1.394 . S
C806 H814 0.930 . S
C807 C806 1.394 . S
C807 C808 1.383 . S
C807 H815 0.929 . S
C808 C807 1.383 . S
C808 C809 1.377 . S
C809 H793 0.930 . S
C809 C808 1.377 . S
C809 C810 1.379 . S
C810 H794 0.931 . S
C810 C804 1.383 . S
C810 C809 1.379 . S
H811 C805 0.959 . S
H812 C805 0.961 . S
H813 C805 0.960 . S
H814 C806 0.930 . S
H815 C807 0.929 . S
H816 C824 0.929 . S
H817 C826 0.930 . S
H818 C828 0.930 . S
H819 C831 0.929 . S
H820 C834 0.930 . S
H821 C836 0.960 . S
H822 C836 0.960 . S
H823 C836 0.960 . S
C824 H816 0.929 . S
C824 C825 1.377 . S
C824 C826 1.384 . S
C825 C824 1.377 . S
C825 C831 1.390 . S
C826 H817 0.930 . S
C826 C824 1.384 . S
C826 C827 1.372 . S
C827 C826 1.372 . S
C827 C828 1.400 . S
C827 C832 1.490 . S
C828 H818 0.930 . S
C828 C827 1.400 . S
C828 C831 1.386 . S
H829 C845 0.930 . S
H830 C846 0.931 . S
C831 H819 0.929 . S
C831 C825 1.390 . S
C831 C828 1.386 . S
C832 C827 1.490 . S
C832 C834 1.395 . S
C832 C835 1.403 . S
H833 C839 0.930 . S
C834 H820 0.930 . S
C834 C832 1.395 . S
C834 C837 1.403 . S
C835 C832 1.403 . S
C835 C836 1.524 . S
C835 C839 1.400 . S
C836 H821 0.960 . S
C836 H822 0.960 . S
C836 H823 0.960 . S
C836 C835 1.524 . S
C837 C834 1.403 . S
C837 C838 1.392 . S
C837 C841 1.495 . S
C838 C837 1.392 . S
C838 C839 1.385 . S
C838 C840 1.478 . S
C839 H833 0.930 . S
C839 C835 1.400 . S
C839 C838 1.385 . S
C840 C838 1.478 . S
C840 C842 1.381 . S
C840 C846 1.383 . S
C841 C837 1.495 . S
C841 H847 0.959 . S
C841 H848 0.961 . S
C841 H849 0.960 . S
C842 C840 1.381 . S
C842 C843 1.394 . S
C842 H850 0.930 . S
C843 C842 1.394 . S
C843 C844 1.383 . S
C843 H851 0.929 . S
C844 C843 1.383 . S
C844 C845 1.377 . S
C845 H829 0.930 . S
C845 C844 1.377 . S
C845 C846 1.379 . S
C846 H830 0.931 . S
C846 C840 1.383 . S
C846 C845 1.379 . S
H847 C841 0.959 . S
H848 C841 0.961 . S
H849 C841 0.960 . S
H850 C842 0.930 . S
H851 C843 0.929 . S
H852 C860 0.929 . S
H853 C862 0.930 . S
H854 C864 0.930 . S
H855 C867 0.929 . S
H856 C870 0.930 . S
H857 C872 0.960 . S
H858 C872 0.960 . S
H859 C872 0.960 . S
C860 H852 0.929 . S
C860 C861 1.377 . S
C860 C862 1.384 . S
C861 C860 1.377 . S
C861 C867 1.390 . S
C862 H853 0.930 . S
C862 C860 1.384 . S
C862 C863 1.372 . S
C863 C862 1.372 . S
C863 C864 1.400 . S
C863 C868 1.490 . S
C864 H854 0.930 . S
C864 C863 1.400 . S
C864 C867 1.386 . S
H865 C881 0.930 . S
H866 C882 0.931 . S
C867 H855 0.929 . S
C867 C861 1.390 . S
C867 C864 1.386 . S
C868 C863 1.490 . S
C868 C870 1.395 . S
C868 C871 1.403 . S
H869 C875 0.930 . S
C870 H856 0.930 . S
C870 C868 1.395 . S
C870 C873 1.403 . S
C871 C868 1.403 . S
C871 C872 1.524 . S
C871 C875 1.400 . S
C872 H857 0.960 . S
C872 H858 0.960 . S
C872 H859 0.960 . S
C872 C871 1.524 . S
C873 C870 1.403 . S
C873 C874 1.392 . S
C873 C877 1.495 . S
C874 C873 1.392 . S
C874 C875 1.385 . S
C874 C876 1.478 . S
C875 H869 0.930 . S
C875 C871 1.400 . S
C875 C874 1.385 . S
C876 C874 1.478 . S
C876 C878 1.381 . S
C876 C882 1.383 . S
C877 C873 1.495 . S
C877 H883 0.959 . S
C877 H884 0.961 . S
C877 H885 0.960 . S
C878 C876 1.381 . S
C878 C879 1.394 . S
C878 H886 0.930 . S
C879 C878 1.394 . S
C879 C880 1.383 . S
C879 H887 0.929 . S
C880 C879 1.383 . S
C880 C881 1.377 . S
C881 H865 0.930 . S
C881 C880 1.377 . S
C881 C882 1.379 . S
C882 H866 0.931 . S
C882 C876 1.383 . S
C882 C881 1.379 . S
H883 C877 0.959 . S
H884 C877 0.961 . S
H885 C877 0.960 . S
H886 C878 0.930 . S
H887 C879 0.929 . S
H888 C896 0.929 . S
H889 C898 0.930 . S
H890 C900 0.930 . S
H891 C903 0.929 . S
H892 C906 0.930 . S
H893 C908 0.960 . S
H894 C908 0.960 . S
H895 C908 0.960 . S
C896 H888 0.929 . S
C896 C897 1.377 . S
C896 C898 1.384 . S
C897 C896 1.377 . S
C897 C903 1.390 . S
C898 H889 0.930 . S
C898 C896 1.384 . S
C898 C899 1.372 . S
C899 C898 1.372 . S
C899 C900 1.400 . S
C899 C904 1.490 . S
C900 H890 0.930 . S
C900 C899 1.400 . S
C900 C903 1.386 . S
H901 C917 0.930 . S
H902 C918 0.931 . S
C903 H891 0.929 . S
C903 C897 1.390 . S
C903 C900 1.386 . S
C904 C899 1.490 . S
C904 C906 1.395 . S
C904 C907 1.403 . S
H905 C911 0.930 . S
C906 H892 0.930 . S
C906 C904 1.395 . S
C906 C909 1.403 . S
C907 C904 1.403 . S
C907 C908 1.524 . S
C907 C911 1.400 . S
C908 H893 0.960 . S
C908 H894 0.960 . S
C908 H895 0.960 . S
C908 C907 1.524 . S
C909 C906 1.403 . S
C909 C910 1.392 . S
C909 C913 1.495 . S
C910 C909 1.392 . S
C910 C911 1.385 . S
C910 C912 1.478 . S
C911 H905 0.930 . S
C911 C907 1.400 . S
C911 C910 1.385 . S
C912 C910 1.478 . S
C912 C914 1.381 . S
C912 C918 1.383 . S
C913 C909 1.495 . S
C913 H919 0.959 . S
C913 H920 0.961 . S
C913 H921 0.960 . S
C914 C912 1.381 . S
C914 C915 1.394 . S
C914 H922 0.930 . S
C915 C914 1.394 . S
C915 C916 1.383 . S
C915 H923 0.929 . S
C916 C915 1.383 . S
C916 C917 1.377 . S
C917 H901 0.930 . S
C917 C916 1.377 . S
C917 C918 1.379 . S
C918 H902 0.931 . S
C918 C912 1.383 . S
C918 C917 1.379 . S
H919 C913 0.959 . S
H920 C913 0.961 . S
H921 C913 0.960 . S
H922 C914 0.930 . S
H923 C915 0.929 . S
H924 C932 0.929 . S
H925 C934 0.930 . S
H926 C936 0.930 . S
H927 C939 0.929 . S
H928 C942 0.930 . S
H929 C944 0.960 . S
H930 C944 0.960 . S
H931 C944 0.960 . S
C932 H924 0.929 . S
C932 C933 1.377 . S
C932 C934 1.384 . S
C933 C932 1.377 . S
C933 C939 1.390 . S
C934 H925 0.930 . S
C934 C932 1.384 . S
C934 C935 1.372 . S
C935 C934 1.372 . S
C935 C936 1.400 . S
C935 C940 1.490 . S
C936 H926 0.930 . S
C936 C935 1.400 . S
C936 C939 1.386 . S
H937 C953 0.930 . S
H938 C954 0.931 . S
C939 H927 0.929 . S
C939 C933 1.390 . S
C939 C936 1.386 . S
C940 C935 1.490 . S
C940 C942 1.395 . S
C940 C943 1.403 . S
H941 C947 0.930 . S
C942 H928 0.930 . S
C942 C940 1.395 . S
C942 C945 1.403 . S
C943 C940 1.403 . S
C943 C944 1.524 . S
C943 C947 1.400 . S
C944 H929 0.960 . S
C944 H930 0.960 . S
C944 H931 0.960 . S
C944 C943 1.524 . S
C945 C942 1.403 . S
C945 C946 1.392 . S
C945 C949 1.495 . S
C946 C945 1.392 . S
C946 C947 1.385 . S
C946 C948 1.478 . S
C947 H941 0.930 . S
C947 C943 1.400 . S
C947 C946 1.385 . S
C948 C946 1.478 . S
C948 C950 1.381 . S
C948 C954 1.383 . S
C949 C945 1.495 . S
C949 H955 0.959 . S
C949 H956 0.961 . S
C949 H957 0.960 . S
C950 C948 1.381 . S
C950 C951 1.394 . S
C950 H958 0.930 . S
C951 C950 1.394 . S
C951 C952 1.383 . S
C951 H959 0.929 . S
C952 C951 1.383 . S
C952 C953 1.377 . S
C953 H937 0.930 . S
C953 C952 1.377 . S
C953 C954 1.379 . S
C954 H938 0.931 . S
C954 C948 1.383 . S
C954 C953 1.379 . S
H955 C949 0.959 . S
H956 C949 0.961 . S
H957 C949 0.960 . S
H958 C950 0.930 . S
H959 C951 0.929 . S
H960 C968 0.929 . S
H961 C970 0.930 . S
H962 C972 0.930 . S
H963 C975 0.929 . S
H964 C978 0.930 . S
H965 C980 0.960 . S
H966 C980 0.960 . S
H967 C980 0.960 . S
C968 H960 0.929 . S
C968 C969 1.377 . S
C968 C970 1.384 . S
C969 C968 1.377 . S
C969 C975 1.390 . S
C970 H961 0.930 . S
C970 C968 1.384 . S
C970 C971 1.372 . S
C971 C970 1.372 . S
C971 C972 1.400 . S
C971 C976 1.490 . S
C972 H962 0.930 . S
C972 C971 1.400 . S
C972 C975 1.386 . S
H973 C989 0.930 . S
H974 C990 0.931 . S
C975 H963 0.929 . S
C975 C969 1.390 . S
C975 C972 1.386 . S
C976 C971 1.490 . S
C976 C978 1.395 . S
C976 C979 1.403 . S
H977 C983 0.930 . S
C978 H964 0.930 . S
C978 C976 1.395 . S
C978 C981 1.403 . S
C979 C976 1.403 . S
C979 C980 1.524 . S
C979 C983 1.400 . S
C980 H965 0.960 . S
C980 H966 0.960 . S
C980 H967 0.960 . S
C980 C979 1.524 . S
C981 C978 1.403 . S
C981 C982 1.392 . S
C981 C985 1.495 . S
C982 C981 1.392 . S
C982 C983 1.385 . S
C982 C984 1.478 . S
C983 H977 0.930 . S
C983 C979 1.400 . S
C983 C982 1.385 . S
C984 C982 1.478 . S
C984 C986 1.381 . S
C984 C990 1.383 . S
C985 C981 1.495 . S
C985 H991 0.959 . S
C985 H992 0.961 . S
C985 H993 0.960 . S
C986 C984 1.381 . S
C986 C987 1.394 . S
C986 H994 0.930 . S
C987 C986 1.394 . S
C987 C988 1.383 . S
C987 H995 0.929 . S
C988 C987 1.383 . S
C988 C989 1.377 . S
C989 H973 0.930 . S
C989 C988 1.377 . S
C989 C990 1.379 . S
C990 H974 0.931 . S
C990 C984 1.383 . S
C990 C989 1.379 . S
H991 C985 0.959 . S
H992 C985 0.961 . S
H993 C985 0.960 . S
H994 C986 0.930 . S
H995 C987 0.929 . S
H996 C1004 0.929 . S
H997 C1006 0.930 . S
H998 C1008 0.930 . S
H999 C1011 0.929 . S
H1000 C1014 0.930 . S
H1001 C1016 0.960 . S
H1002 C1016 0.960 . S
H1003 C1016 0.960 . S
C1004 H996 0.929 . S
C1004 C1005 1.377 . S
C1004 C1006 1.384 . S
C1005 C1004 1.377 . S
C1005 C1011 1.390 . S
C1006 H997 0.930 . S
C1006 C1004 1.384 . S
C1006 C1007 1.372 . S
C1007 C1006 1.372 . S
C1007 C1008 1.400 . S
C1007 C1012 1.490 . S
C1008 H998 0.930 . S
C1008 C1007 1.400 . S
C1008 C1011 1.386 . S
H1009 C1025 0.930 . S
H1010 C1026 0.931 . S
C1011 H999 0.929 . S
C1011 C1005 1.390 . S
C1011 C1008 1.386 . S
C1012 C1007 1.490 . S
C1012 C1014 1.395 . S
C1012 C1015 1.403 . S
H1013 C1019 0.930 . S
C1014 H1000 0.930 . S
C1014 C1012 1.395 . S
C1014 C1017 1.403 . S
C1015 C1012 1.403 . S
C1015 C1016 1.524 . S
C1015 C1019 1.400 . S
C1016 H1001 0.960 . S
C1016 H1002 0.960 . S
C1016 H1003 0.960 . S
C1016 C1015 1.524 . S
C1017 C1014 1.403 . S
C1017 C1018 1.392 . S
C1017 C1021 1.495 . S
C1018 C1017 1.392 . S
C1018 C1019 1.385 . S
C1018 C1020 1.478 1_554 S
C1019 H1013 0.930 . S
C1019 C1015 1.400 . S
C1019 C1018 1.385 . S
C1020 C1018 1.478 1_556 S
C1020 C1022 1.381 . S
C1020 C1026 1.383 . S
C1021 C1017 1.495 . S
C1021 H1027 0.959 . S
C1021 H1028 0.961 1_554 S
C1021 H1029 0.960 . S
C1022 C1020 1.381 . S
C1022 C1023 1.394 . S
C1022 H1030 0.930 1_556 S
C1023 C1022 1.394 . S
C1023 C1024 1.383 . S
C1023 H1031 0.929 . S
C1024 C1023 1.383 . S
C1024 C1025 1.377 . S
C1025 H1009 0.930 . S
C1025 C1024 1.377 . S
C1025 C1026 1.379 . S
C1026 H1010 0.931 . S
C1026 C1020 1.383 . S
C1026 C1025 1.379 . S
H1027 C1021 0.959 . S
H1028 C1021 0.961 1_556 S
H1029 C1021 0.960 . S
H1030 C1022 0.930 1_554 S
H1031 C1023 0.929 . S
H1032 C1040 0.929 . S
H1033 C1042 0.930 . S
H1034 C1044 0.930 . S
H1035 C1047 0.929 . S
H1036 C1050 0.930 . S
H1037 C1052 0.960 . S
H1038 C1052 0.960 . S
H1039 C1052 0.960 . S
C1040 H1032 0.929 . S
C1040 C1041 1.377 . S
C1040 C1042 1.384 . S
C1041 C1040 1.377 . S
C1041 C1047 1.390 . S
C1042 H1033 0.930 . S
C1042 C1040 1.384 . S
C1042 C1043 1.372 . S
C1043 C1042 1.372 . S
C1043 C1044 1.400 . S
C1043 C1048 1.490 . S
C1044 H1034 0.930 . S
C1044 C1043 1.400 . S
C1044 C1047 1.386 . S
H1045 C1061 0.930 . S
H1046 C1062 0.931 . S
C1047 H1035 0.929 . S
C1047 C1041 1.390 . S
C1047 C1044 1.386 . S
C1048 C1043 1.490 . S
C1048 C1050 1.395 . S
C1048 C1051 1.403 . S
H1049 C1055 0.930 . S
C1050 H1036 0.930 . S
C1050 C1048 1.395 . S
C1050 C1053 1.403 . S
C1051 C1048 1.403 . S
C1051 C1052 1.524 . S
C1051 C1055 1.400 . S
C1052 H1037 0.960 . S
C1052 H1038 0.960 . S
C1052 H1039 0.960 . S
C1052 C1051 1.524 . S
C1053 C1050 1.403 . S
C1053 C1054 1.392 . S
C1053 C1057 1.495 . S
C1054 C1053 1.392 . S
C1054 C1055 1.385 . S
C1054 C1056 1.478 . S
C1055 H1049 0.930 . S
C1055 C1051 1.400 . S
C1055 C1054 1.385 . S
C1056 C1054 1.478 . S
C1056 C1058 1.381 . S
C1056 C1062 1.383 . S
C1057 C1053 1.495 . S
C1057 H1063 0.959 . S
C1057 H1064 0.961 . S
C1057 H1065 0.960 . S
C1058 C1056 1.381 . S
C1058 C1059 1.394 . S
C1058 H1066 0.930 . S
C1059 C1058 1.394 . S
C1059 C1060 1.383 . S
C1059 H1067 0.929 . S
C1060 C1059 1.383 . S
C1060 C1061 1.377 . S
C1061 H1045 0.930 . S
C1061 C1060 1.377 . S
C1061 C1062 1.379 . S
C1062 H1046 0.931 . S
C1062 C1056 1.383 . S
C1062 C1061 1.379 . S
H1063 C1057 0.959 . S
H1064 C1057 0.961 . S
H1065 C1057 0.960 . S
H1066 C1058 0.930 . S
H1067 C1059 0.929 . S
C232 C201 1.561 . S
C213 C19 1.467 . S
C249 C40 1.453 . S
C268 C126 1.492 . S
C285 C51 1.470 . S
C304 C149 1.580 . S
C321 C72 1.389 . S
C340 C162 1.462 . S
C376 C165 1.531 . S
C357 C103 1.483 . S
C393 C114 1.377 . S
C412 C178 1.429 . S
C429 C30 1.395 . S
C448 C139 1.469 . S
C465 C61 1.480 . S
C484 C152 1.516 . S
C501 C82 1.397 . S
C520 C175 1.466 . S
C556 C188 1.570 . S
C537 C93 1.467 1_554 S
C592 C191 1.493 . S
C573 C124 1.451 . S
C628 C136 1.559 . S
C609 C9 1.461 . S
C645 C17 1.419 . S
C664 C147 1.434 . S
C681 C38 1.410 . S
C700 C160 1.469 . S
C736 C170 1.452 . S
C717 C54 1.416 . S
C753 C75 1.402 . S
C772 C183 1.440 . S
C808 C199 1.468 . S
C789 C101 1.439 . S
C844 C131 1.458 . S
C825 C117 1.387 . S
C880 C196 1.448 . S
C861 C33 1.383 . S
C897 C59 1.447 . S
C916 C134 1.506 . S
C952 C144 1.447 . S
C933 C80 1.408 . S
C969 C96 1.417 . S
C988 C157 1.468 . S
C1005 C122 1.398 . S
C1024 C173 1.439 . S
C1041 C12 1.417 . S
C1060 C186 1.445 . S
