# Generated by pormake.
# Topology pyr, (3,6)-cn, num edge types: 1
# Building blocks:
#     Node 0, Type 0, BuildingBlock: BELTOD_clean_linker_0, # of connection points: 3
#     Node 1, Type 0, BuildingBlock: BELTOD_clean_linker_0, # of connection points: 3
#     Node 2, Type 0, BuildingBlock: BELTOD_clean_linker_0, # of connection points: 3
#     Node 3, Type 0, BuildingBlock: BELTOD_clean_linker_0, # of connection points: 3
#     Node 4, Type 0, BuildingBlock: BELTOD_clean_linker_0, # of connection points: 3
#     Node 5, Type 0, BuildingBlock: BELTOD_clean_linker_0, # of connection points: 3
#     Node 6, Type 0, BuildingBlock: BELTOD_clean_linker_0, # of connection points: 3
#     Node 7, Type 0, BuildingBlock: BELTOD_clean_linker_0, # of connection points: 3
#     Node 8, Type 1, BuildingBlock: FUNLAD_clean_sbu_0, # of connection points: 6
#     Node 9, Type 1, BuildingBlock: FUNLAD_clean_sbu_0, # of connection points: 6
#     Node 10, Type 1, BuildingBlock: FUNLAD_clean_sbu_0, # of connection points: 6
#     Node 11, Type 1, BuildingBlock: FUNLAD_clean_sbu_0, # of connection points: 6
#     Edge 12, Type (0, 1), BuildingBlock: EZIPEK_clean_linker_0, # of connection points: 2
#     Edge 13, Type (0, 1), BuildingBlock: EZIPEK_clean_linker_0, # of connection points: 2
#     Edge 14, Type (0, 1), BuildingBlock: EZIPEK_clean_linker_0, # of connection points: 2
#     Edge 15, Type (0, 1), BuildingBlock: EZIPEK_clean_linker_0, # of connection points: 2
#     Edge 16, Type (0, 1), BuildingBlock: EZIPEK_clean_linker_0, # of connection points: 2
#     Edge 17, Type (0, 1), BuildingBlock: EZIPEK_clean_linker_0, # of connection points: 2
#     Edge 18, Type (0, 1), BuildingBlock: EZIPEK_clean_linker_0, # of connection points: 2
#     Edge 19, Type (0, 1), BuildingBlock: EZIPEK_clean_linker_0, # of connection points: 2
#     Edge 20, Type (0, 1), BuildingBlock: EZIPEK_clean_linker_0, # of connection points: 2
#     Edge 21, Type (0, 1), BuildingBlock: EZIPEK_clean_linker_0, # of connection points: 2
#     Edge 22, Type (0, 1), BuildingBlock: EZIPEK_clean_linker_0, # of connection points: 2
#     Edge 23, Type (0, 1), BuildingBlock: EZIPEK_clean_linker_0, # of connection points: 2
#     Edge 24, Type (0, 1), BuildingBlock: EZIPEK_clean_linker_0, # of connection points: 2
#     Edge 25, Type (0, 1), BuildingBlock: EZIPEK_clean_linker_0, # of connection points: 2
#     Edge 26, Type (0, 1), BuildingBlock: EZIPEK_clean_linker_0, # of connection points: 2
#     Edge 27, Type (0, 1), BuildingBlock: EZIPEK_clean_linker_0, # of connection points: 2
#     Edge 28, Type (0, 1), BuildingBlock: EZIPEK_clean_linker_0, # of connection points: 2
#     Edge 29, Type (0, 1), BuildingBlock: EZIPEK_clean_linker_0, # of connection points: 2
#     Edge 30, Type (0, 1), BuildingBlock: EZIPEK_clean_linker_0, # of connection points: 2
#     Edge 31, Type (0, 1), BuildingBlock: EZIPEK_clean_linker_0, # of connection points: 2
#     Edge 32, Type (0, 1), BuildingBlock: EZIPEK_clean_linker_0, # of connection points: 2
#     Edge 33, Type (0, 1), BuildingBlock: EZIPEK_clean_linker_0, # of connection points: 2
#     Edge 34, Type (0, 1), BuildingBlock: EZIPEK_clean_linker_0, # of connection points: 2
#     Edge 35, Type (0, 1), BuildingBlock: EZIPEK_clean_linker_0, # of connection points: 2
# Relax obj value: 0.104
# Max RMSD: 0.080
# Mean RMSD: 0.042
data_MOF--net-pry--node1-FUNLAD_clean_sbu_0--node2-BELTOD_clean_linker_0--edge1-EZIPEK_clean_linker_0
_symmetry_space_group_name_H-M    P1
_symmetry_Int_Tables_number       1
_symmetry_cell_setting            triclinic
loop_
_symmetry_equiv_pos_as_xyz
'x, y, z'
_cell_length_a     31.167896
_cell_length_b     33.782034
_cell_length_c     33.51546
_cell_angle_alpha  90.159938
_cell_angle_beta   90.280764
_cell_angle_gamma 82.510697
loop_
_atom_site_label
_atom_site_type_symbol
_atom_site_fract_x
_atom_site_fract_y
_atom_site_fract_z
_atom_type_partial_charge
P0 P 0.16596 0.19946 0.22146 0.0
H1 H 0.25486 0.20764 0.19928 0.0
H2 H 0.3097 0.16639 0.1599 0.0
H3 H 0.21867 0.08385 0.13459 0.0
H4 H 0.16338 0.12525 0.17452 0.0
H5 H 0.12256 0.27924 0.24099 0.0
H6 H 0.0934 0.33644 0.19961 0.0
H7 H 0.11341 0.2633 0.09412 0.0
H8 H 0.14284 0.20601 0.13546 0.0
H9 H 0.18744 0.12071 0.25793 0.0
H10 H 0.07916 0.21415 0.2584 0.0
O11 O 0.19455 0.22344 0.25362 0.0
H12 H 0.15387 0.08621 0.31125 0.0
H13 H 0.04564 0.17957 0.31231 0.0
C14 C 0.20524 0.16908 0.19068 0.0
C15 C 0.24651 0.18065 0.18546 0.0
C16 C 0.27783 0.15721 0.16284 0.0
C17 C 0.26836 0.12198 0.14451 0.0
C18 C 0.22665 0.11089 0.14861 0.0
C19 C 0.19522 0.1344 0.17145 0.0
C20 C 0.13521 0.2382 0.19149 0.0
C21 C 0.11995 0.27515 0.20905 0.0
C22 C 0.10347 0.30792 0.18541 0.0
C23 C 0.10167 0.3044 0.14367 0.0
C24 C 0.11473 0.26685 0.12621 0.0
C25 C 0.13138 0.23405 0.14991 0.0
C26 C 0.1353 0.16954 0.25294 0.0
C27 C 0.15572 0.13319 0.26839 0.0
C28 C 0.13674 0.11357 0.2992 0.0
C29 C 0.09711 0.13012 0.31581 0.0
C30 C 0.07601 0.16599 0.29977 0.0
C31 C 0.09506 0.18562 0.26878 0.0
P32 P 0.38128 0.88875 0.67658 0.0
H33 H 0.45804 0.87048 0.72702 0.0
H34 H 0.47598 0.89297 0.79415 0.0
H35 H 0.34393 0.94673 0.80956 0.0
H36 H 0.32548 0.92251 0.74368 0.0
H37 H 0.43805 0.8599 0.61031 0.0
H38 H 0.45905 0.79405 0.5807 0.0
H39 H 0.38377 0.7413 0.66867 0.0
H40 H 0.36304 0.80774 0.6991 0.0
H41 H 0.32883 0.96653 0.68305 0.0
H42 H 0.31343 0.85139 0.63301 0.0
O43 O 0.41189 0.91946 0.65487 0.0
H44 H 0.2568 0.99338 0.65824 0.0
H45 H 0.24218 0.8788 0.60672 0.0
C46 C 0.39045 0.89487 0.72981 0.0
C47 C 0.43256 0.88593 0.74529 0.0
C48 C 0.44291 0.89911 0.78352 0.0
C49 C 0.4115 0.92219 0.80682 0.0
C50 C 0.36886 0.9293 0.79216 0.0
C51 C 0.35837 0.91548 0.75425 0.0
C52 C 0.39934 0.83891 0.65744 0.0
C53 C 0.42638 0.83431 0.62383 0.0
C54 C 0.43831 0.79665 0.60668 0.0
C55 C 0.42301 0.76272 0.62237 0.0
C56 C 0.396 0.76709 0.65609 0.0
C57 C 0.38435 0.80491 0.67355 0.0
C58 C 0.32636 0.90664 0.66087 0.0
C59 C 0.30979 0.94684 0.66724 0.0
C60 C 0.2688 0.96227 0.65285 0.0
C61 C 0.24401 0.93814 0.6306 0.0
C62 C 0.26061 0.89793 0.62398 0.0
C63 C 0.30135 0.88226 0.63914 0.0
P64 P 0.67903 0.39509 0.93688 0.0
H65 H 0.7104 0.39787 0.0188 0.0
H66 H 0.76822 0.43271 0.04581 0.0
H67 H 0.76286 0.50594 0.94034 0.0
H68 H 0.70434 0.47206 0.91381 0.0
H69 H 0.67825 0.30961 0.93731 0.0
H70 H 0.6251 0.26933 0.96229 0.0
H71 H 0.56028 0.37142 0.02517 0.0
H72 H 0.61526 0.41194 1.00127 0.0
H73 H 0.69602 0.42462 0.8578 0.0
H74 H 0.58337 0.40727 0.92705 0.0
O75 O 0.7204 0.36623 0.91588 0.0
H76 H 0.64929 0.44167 0.7997 0.0
H77 H 0.5376 0.42218 0.86875 0.0
C78 C 0.70298 0.43233 0.96426 0.0
C79 C 0.71977 0.42297 1.00249 0.0
C80 C 0.75291 0.44273 0.01789 0.0
C81 C 0.77007 0.47137 0.9947 0.0
C82 C 0.74996 0.48387 0.95857 0.0
C83 C 0.7165 0.46444 0.94344 0.0
C84 C 0.65063 0.36373 0.96746 0.0
C85 C 0.65395 0.32311 0.95792 0.0
C86 C 0.62343 0.30015 0.97194 0.0
C87 C 0.58869 0.31765 0.99506 0.0
C88 C 0.58707 0.35753 1.00741 0.0
C89 C 0.61849 0.38043 0.99404 0.0
C90 C 0.64354 0.41449 0.89695 0.0
C91 C 0.66138 0.42509 0.86084 0.0
C92 C 0.63482 0.43458 0.82769 0.0
C93 C 0.59013 0.433 0.8301 0.0
C94 C 0.57202 0.42365 0.86646 0.0
C95 C 0.59847 0.41501 0.89982 0.0
P96 P 0.85485 0.60309 0.42963 0.0
H97 H 0.83914 0.67942 0.38926 0.0
H98 H 0.86875 0.74231 0.39869 0.0
H99 H 0.93905 0.69397 0.50248 0.0
H100 H 0.90887 0.63078 0.49349 0.0
H101 H 0.8565 0.55789 0.35562 0.0
H102 H 0.91302 0.54883 0.30523 0.0
H103 H 0.00589 0.58147 0.39099 0.0
H104 H 0.9494 0.58966 0.44205 0.0
H105 H 0.83289 0.62558 0.51287 0.0
H106 H 0.83111 0.52383 0.43502 0.0
O107 O 0.81214 0.61161 0.39911 0.0
H108 H 0.77366 0.6048 0.55113 0.0
H109 H 0.7698 0.50468 0.47175 0.0
C110 C 0.87094 0.65083 0.44134 0.0
C111 C 0.86002 0.6825 0.41467 0.0
C112 C 0.87715 0.71821 0.41973 0.0
C113 C 0.90594 0.72235 0.45114 0.0
C114 C 0.91673 0.69097 0.47811 0.0
C115 C 0.89928 0.65525 0.47319 0.0
C116 C 0.89838 0.57623 0.40198 0.0
C117 C 0.8893 0.5614 0.36428 0.0
C118 C 0.92155 0.55624 0.33549 0.0
C119 C 0.96302 0.56569 0.34436 0.0
C120 C 0.9738 0.57453 0.38372 0.0
C121 C 0.94144 0.57939 0.4127 0.0
C122 C 0.83613 0.57646 0.47069 0.0
C123 C 0.82186 0.59743 0.5054 0.0
C124 C 0.78766 0.58572 0.52724 0.0
C125 C 0.76648 0.55423 0.51315 0.0
C126 C 0.7854 0.52949 0.48262 0.0
C127 C 0.82059 0.54037 0.46175 0.0
P128 P 0.8814 0.8834 0.87228 0.0
H129 H 0.84795 0.89346 0.95321 0.0
H130 H 0.77672 0.9184 0.98084 0.0
H131 H 0.72456 0.9342 0.86176 0.0
H132 H 0.79588 0.90859 0.834 0.0
H133 H 0.9643 0.8329 0.86087 0.0
H134 H 0.99318 0.76617 0.88554 0.0
H135 H 0.86815 0.75235 0.93386 0.0
H136 H 0.83902 0.81843 0.90847 0.0
H137 H 0.86908 0.96228 0.83634 0.0
H138 H 0.90948 0.84198 0.796 0.0
O139 O 0.91438 0.908 0.89942 0.0
H140 H 0.88604 0.98795 0.77064 0.0
H141 H 0.92653 0.86785 0.72999 0.0
C142 C 0.82748 0.89942 0.89151 0.0
C143 C 0.8212 0.90207 0.93296 0.0
C144 C 0.78056 0.91635 0.94876 0.0
C145 C 0.74529 0.92845 0.92343 0.0
C146 C 0.75132 0.92517 0.88188 0.0
C147 C 0.79204 0.91056 0.86605 0.0
C148 C 0.89931 0.83085 0.88232 0.0
C149 C 0.94273 0.81513 0.87581 0.0
C150 C 0.95935 0.77715 0.89021 0.0
C151 C 0.93301 0.75424 0.91196 0.0
C152 C 0.8892 0.7694 0.91733 0.0
C153 C 0.87252 0.80724 0.90262 0.0
C154 C 0.88784 0.90015 0.82129 0.0
C155 C 0.88091 0.94129 0.81317 0.0
C156 C 0.89068 0.95601 0.77567 0.0
C157 C 0.90759 0.92991 0.74531 0.0
C158 C 0.91338 0.88857 0.7529 0.0
C159 C 0.90363 0.8738 0.79062 0.0
P160 P 0.65709 0.19804 0.33189 0.0
H161 H 0.68215 0.23956 0.40309 0.0
H162 H 0.64826 0.29749 0.4403 0.0
H163 H 0.53473 0.30197 0.36574 0.0
H164 H 0.56837 0.24267 0.32893 0.0
H165 H 0.74088 0.15514 0.31001 0.0
H166 H 0.79908 0.11697 0.34865 0.0
H167 H 0.71879 0.12858 0.45349 0.0
H168 H 0.65988 0.16603 0.41443 0.0
H169 H 0.6128 0.21824 0.25614 0.0
H170 H 0.63476 0.11526 0.33283 0.0
O171 O 0.68581 0.2242 0.3023 0.0
H172 H 0.58329 0.17767 0.20448 0.0
H173 H 0.60471 0.0747 0.28113 0.0
C174 C 0.62728 0.23543 0.36405 0.0
C175 C 0.64925 0.25172 0.3956 0.0
C176 C 0.63006 0.28521 0.41671 0.0
C177 C 0.58879 0.3041 0.40612 0.0
C178 C 0.56639 0.28768 0.37483 0.0
C179 C 0.58554 0.2537 0.35391 0.0
C180 C 0.69654 0.16458 0.35963 0.0
C181 C 0.73545 0.14907 0.34116 0.0
C182 C 0.76864 0.12717 0.36315 0.0
C183 C 0.76348 0.12034 0.40406 0.0
C184 C 0.72352 0.13368 0.42202 0.0
C185 C 0.69004 0.15524 0.39979 0.0
C186 C 0.62619 0.16993 0.29845 0.0
C187 C 0.61053 0.18712 0.26224 0.0
C188 C 0.59395 0.16388 0.23258 0.0
C189 C 0.59241 0.12292 0.23856 0.0
C190 C 0.60601 0.1061 0.27562 0.0
C191 C 0.62287 0.12938 0.30526 0.0
P192 P 0.44109 0.56055 0.04097 0.0
H193 H 0.38776 0.53797 0.97472 0.0
H194 H 0.30965 0.53374 0.96847 0.0
H195 H 0.29139 0.57193 0.09075 0.0
H196 H 0.36846 0.57582 0.09726 0.0
H197 H 0.52298 0.58831 0.02313 0.0
H198 H 0.54246 0.65637 0.02298 0.0
H199 H 0.40722 0.70386 0.02168 0.0
H200 H 0.38764 0.63613 0.02149 0.0
H201 H 0.48229 0.49852 0.09559 0.0
H202 H 0.43166 0.62365 0.10094 0.0
O203 O 0.47007 0.5227 0.01726 0.0
H204 H 0.49932 0.50002 0.16745 0.0
H205 H 0.44838 0.62494 0.17188 0.0
C206 C 0.3842 0.55653 0.03658 0.0
C207 C 0.36695 0.54519 1.00021 0.0
C208 C 0.32256 0.54296 0.99657 0.0
C209 C 0.29507 0.55252 0.02923 0.0
C210 C 0.31224 0.56444 0.06532 0.0
C211 C 0.35643 0.5665 0.06896 0.0
C212 C 0.45392 0.60716 0.022 0.0
C213 C 0.49755 0.6133 0.0207 0.0
C214 C 0.50869 0.65202 0.02102 0.0
C215 C 0.47617 0.68478 0.02279 0.0
C216 C 0.4326 0.67872 0.02033 0.0
C217 C 0.42149 0.64004 0.01985 0.0
C218 C 0.45633 0.56107 0.09279 0.0
C219 C 0.47534 0.52628 0.11195 0.0
C220 C 0.48502 0.52712 0.15276 0.0
C221 C 0.47516 0.56267 0.17463 0.0
C222 C 0.45646 0.59739 0.15533 0.0
C223 C 0.44715 0.59659 0.11477 0.0
P224 P 0.20326 0.35334 0.59425 0.0
H225 H 0.17475 0.28077 0.56282 0.0
H226 H 0.10241 0.26104 0.5577 0.0
H227 H 0.04591 0.38237 0.58053 0.0
H228 H 0.11868 0.40238 0.58584 0.0
H229 H 0.29267 0.36504 0.59037 0.0
H230 H 0.3305 0.41373 0.55598 0.0
H231 H 0.21137 0.46315 0.49857 0.0
H232 H 0.17315 0.41377 0.53294 0.0
H233 H 0.19478 0.31955 0.67295 0.0
H234 H 0.18215 0.43662 0.6195 0.0
O235 O 0.23606 0.31064 0.60073 0.0
H236 H 0.16448 0.34908 0.73528 0.0
H237 H 0.15088 0.46591 0.68149 0.0
C238 C 0.15208 0.34284 0.57534 0.0
C239 C 0.14701 0.30349 0.56544 0.0
C240 C 0.10575 0.29223 0.56262 0.0
C241 C 0.06918 0.3202 0.56962 0.0
C242 C 0.07395 0.36045 0.57543 0.0
C243 C 0.11543 0.37174 0.57834 0.0
C244 C 0.23038 0.3855 0.56374 0.0
C245 C 0.27476 0.38569 0.56976 0.0
C246 C 0.29626 0.41348 0.55031 0.0
C247 C 0.27355 0.44175 0.5249 0.0
C248 C 0.22921 0.44127 0.51803 0.0
C249 C 0.20759 0.41316 0.53755 0.0
C250 C 0.19155 0.376 0.64199 0.0
C251 C 0.18668 0.35165 0.67499 0.0
C252 C 0.16909 0.36837 0.71032 0.0
C253 C 0.15547 0.40954 0.71269 0.0
C254 C 0.16147 0.4341 0.68008 0.0
C255 C 0.17957 0.4174 0.64492 0.0
C256 C 0.03304 0.05599 0.45781 0.0
N257 N 0.99411 0.11257 0.56594 0.0
C258 C 0.02991 0.13108 0.56127 0.0
C259 C 0.02776 0.17183 0.56817 0.0
C260 C 0.98842 0.19358 0.57971 0.0
C261 C 0.95249 0.17369 0.5865 0.0
C262 C 0.95616 0.13261 0.57948 0.0
Zn263 Zn 0.99588 0.05702 0.54292 0.0
C264 C 0.91613 0.05227 0.49354 0.0
N265 N 0.99803 0.94388 0.48872 0.0
C266 C 0.9795 0.93884 0.45253 0.0
C267 C 0.01058 0.91243 0.51325 0.0
C268 C 1.00129 0.87451 0.50323 0.0
C269 C 0.97906 0.86925 0.46771 0.0
C270 C 0.96962 0.90127 0.44127 0.0
Zn271 Zn 0.99814 0.99914 0.51194 0.0
O272 O 0.02486 0.07733 0.48894 0.0
C273 C 0.07854 1.00434 0.56066 0.0
O274 O 0.02594 0.01974 0.45843 0.0
H275 H 0.025 0.91718 0.54196 0.0
H276 H 0.05948 0.11465 0.55 0.0
H277 H 0.96975 0.96437 0.43363 0.0
O278 O 0.0585 0.03859 0.56909 0.0
O279 O 0.06132 0.98188 0.53653 0.0
H280 H 0.92809 0.11718 0.58276 0.0
O281 O 0.97016 0.9786 0.56635 0.0
O282 O 0.96708 0.03684 0.59583 0.0
O283 O 0.93499 0.01728 0.48666 0.0
O284 O 0.93391 0.07472 0.51714 0.0
C285 C 0.96108 1.00033 0.59703 0.0
H286 H 0.05601 0.18666 0.56281 0.0
H287 H 0.92179 0.18995 0.59548 0.0
H288 H 0.00868 0.85016 0.52416 0.0
H289 H 0.95217 0.89779 0.41372 0.0
C290 C 0.57991 0.99036 0.99587 0.0
N291 N 0.5014 0.10222 0.99594 0.0
C292 C 0.5408 0.11528 0.99841 0.0
C293 C 0.54418 0.15579 0.99665 0.0
C294 C 0.50666 0.18323 0.99327 0.0
C295 C 0.46647 0.16929 0.989 0.0
C296 C 0.46463 0.12816 0.98985 0.0
Zn297 Zn 0.49877 0.04523 0.01447 0.0
C298 C 0.46285 0.99303 0.95648 0.0
N299 N 0.49562 0.92909 0.06075 0.0
C300 C 0.53212 0.90521 0.07234 0.0
C301 C 0.45843 0.9137 0.05201 0.0
C302 C 0.45792 0.87262 0.0515 0.0
C303 C 0.496 0.84736 0.06007 0.0
C304 C 0.53304 0.86372 0.07217 0.0
Zn305 Zn 0.49819 0.986 0.04235 0.0
O306 O 0.56092 0.02517 0.98826 0.0
C307 C 0.53441 0.03903 0.09993 0.0
O308 O 0.56173 0.96792 0.01896 0.0
H309 H 0.43004 0.93307 0.04213 0.0
H310 H 0.56948 0.09465 1.0046 0.0
H311 H 0.5614 0.91809 0.07877 0.0
O312 O 0.52847 0.06096 0.06914 0.0
O313 O 0.52488 1.00346 0.09845 0.0
H314 H 0.43357 0.11726 0.98818 0.0
O315 O 0.43453 1.00443 0.06576 0.0
O316 O 0.43708 0.06394 0.04094 0.0
O317 O 0.47194 0.96963 0.98586 0.0
O318 O 0.46882 0.02947 0.95999 0.0
C319 C 0.41745 0.04045 0.06152 0.0
H320 H 0.57563 0.16582 1.00023 0.0
H321 H 0.43695 0.18995 0.9865 0.0
H322 H 0.42894 0.8606 0.04201 0.0
H323 H 0.56288 0.84466 0.07889 0.0
C324 C 0.52551 0.45531 0.48443 0.0
N325 N 0.50027 0.49819 0.60132 0.0
C326 C 0.48329 0.4646 0.61192 0.0
C327 C 0.48846 0.45014 0.65098 0.0
C328 C 0.51213 0.47016 0.67847 0.0
C329 C 0.52756 0.50548 0.66712 0.0
C330 C 0.52097 0.51919 0.62835 0.0
Zn331 Zn 0.49994 0.51855 0.54444 0.0
C332 C 0.58518 0.54179 0.52372 0.0
N333 N 0.50128 0.56516 0.42713 0.0
C334 C 0.53539 0.54907 0.40453 0.0
C335 C 0.46642 0.58772 0.41052 0.0
C336 C 0.46367 0.59236 0.36916 0.0
C337 C 0.49705 0.57342 0.34523 0.0
C338 C 0.5339 0.55283 0.36321 0.0
Zn339 Zn 0.4996 0.5457 0.48431 0.0
O340 O 0.52052 0.45913 0.52199 0.0
C341 C 0.41523 0.52043 0.50442 0.0
O342 O 0.51844 0.48612 0.46252 0.0
H343 H 0.43962 0.59998 0.42908 0.0
H344 H 0.46684 0.44852 0.58988 0.0
H345 H 0.5626 0.53094 0.41825 0.0
O346 O 0.43522 0.50971 0.53651 0.0
O347 O 0.434 0.53754 0.47713 0.0
H348 H 0.53377 0.54605 0.61953 0.0
O349 O 0.48075 0.60523 0.50686 0.0
O350 O 0.47934 0.57797 0.56613 0.0
O351 O 0.56512 0.55296 0.49184 0.0
O352 O 0.56529 0.52704 0.55169 0.0
C353 C 0.47413 0.60896 0.54426 0.0
H354 H 0.47591 0.42288 0.6592 0.0
H355 H 0.54564 0.52172 0.68782 0.0
H356 H 0.43479 0.6084 0.35583 0.0
H357 H 0.56004 0.53786 0.34534 0.0
C358 C 1.00197 0.60205 0.98598 0.0
N359 N 0.0126 0.56207 0.1059 0.0
C360 C 0.03546 0.5907 0.12054 0.0
C361 C 0.03632 0.59817 0.16156 0.0
C362 C 0.0125 0.57659 0.18705 0.0
C363 C 0.98766 0.54876 0.17099 0.0
C364 C 0.98847 0.54164 0.13019 0.0
Zn365 Zn 0.02185 0.54072 0.04953 0.0
C366 C 0.94286 0.51204 0.01507 0.0
N367 N 0.04542 0.48953 0.93474 0.0
C368 C 0.02181 0.50376 0.90235 0.0
C369 C 0.08124 0.46211 0.93092 0.0
C370 C 0.09544 0.44887 0.89337 0.0
C371 C 0.07286 0.46436 0.85953 0.0
C372 C 0.03524 0.4916 0.86402 0.0
Zn373 Zn 0.03283 0.5129 0.98992 0.0
O374 O 1.00181 0.59843 0.02382 0.0
C375 C 0.11221 0.54069 0.02353 0.0
O376 O 0.01484 0.57156 0.96464 0.0
H377 H 0.09996 0.4517 0.95691 0.0
H378 H 0.05466 0.6064 0.10073 0.0
H379 H 0.99352 0.52562 0.90614 0.0
O380 O 0.08706 0.55231 0.05203 0.0
O381 O 0.09795 0.52334 0.99368 0.0
H382 H 0.9716 0.5182 0.11833 0.0
O383 O 0.04962 0.45449 0.01646 0.0
O384 O 0.04146 0.48288 0.07516 0.0
O385 O 0.96822 0.50239 0.9861 0.0
O386 O 0.95666 0.5284 0.04592 0.0
C387 C 0.05093 0.45157 0.05429 0.0
H388 H 0.05586 0.61979 0.17335 0.0
H389 H 0.96911 0.53158 0.19012 0.0
H390 H 0.12473 0.42793 0.89062 0.0
H391 H 0.01734 0.50408 0.83821 0.0
C392 C 0.04394 0.08964 0.34897 0.0
C393 C 0.07984 0.11146 0.35206 0.0
C394 C 0.08799 0.09266 0.42291 0.0
C395 C 0.04976 0.07393 0.42089 0.0
N396 N 0.98688 0.06088 0.38317 0.0
N397 N 0.13104 0.13998 0.3939 0.0
C398 C 0.02655 0.07401 0.38416 0.0
C399 C 0.10038 0.11477 0.38964 0.0
N400 N 0.02709 0.08294 0.31222 0.0
N401 N 0.11374 0.08773 0.45606 0.0
H402 H 0.14096 0.15676 0.3704 0.0
H403 H 0.14372 0.14707 0.42143 0.0
H404 H 0.10652 0.07048 0.48017 0.0
H405 H 0.14425 0.09706 0.45793 0.0
H406 H 0.0042 0.06355 0.30738 0.0
H407 H 0.03855 0.09432 0.286 0.0
H408 H 0.96627 0.06437 0.35853 0.0
H409 H 0.97269 0.04969 0.40811 0.0
C410 C 0.45366 0.96949 0.8449 0.0
C411 C 0.42381 0.94104 0.84525 0.0
C412 C 0.41406 0.95243 0.91747 0.0
C413 C 0.44804 0.97675 0.91783 0.0
N414 N 0.50714 1.00022 0.88225 0.0
N415 N 0.38144 0.90011 0.8837 0.0
C416 C 0.46972 0.98315 0.88163 0.0
C417 C 0.40558 0.93103 0.88209 0.0
N418 N 0.46573 0.98461 0.80951 0.0
N419 N 0.38873 0.95085 0.95044 0.0
H420 H 0.37526 0.88323 0.85872 0.0
H421 H 0.37112 0.88879 0.91037 0.0
H422 H 0.39273 0.96728 0.97629 0.0
H423 H 0.36098 0.93667 0.95067 0.0
H424 H 0.48396 1.00832 0.80784 0.0
H425 H 0.45383 0.97646 0.78197 0.0
H426 H 0.5265 1.00163 0.85717 0.0
H427 H 0.52147 1.00898 0.90843 0.0
C428 C 0.57128 0.41011 0.76217 0.0
C429 C 0.56314 0.43826 0.79355 0.0
C430 C 0.50846 0.47752 0.75233 0.0
C431 C 0.52345 0.45419 0.71879 0.0
N432 N 0.57239 0.39972 0.69089 0.0
N433 N 0.52562 0.50054 0.81823 0.0
C434 C 0.55523 0.42039 0.72346 0.0
C435 C 0.53161 0.47221 0.78888 0.0
N436 N 0.59422 0.37353 0.76948 0.0
N437 N 0.47236 0.50497 0.7489 0.0
H438 H 0.54245 0.49811 0.84524 0.0
H439 H 0.50645 0.52795 0.81455 0.0
H440 H 0.45472 0.50908 0.72234 0.0
H441 H 0.45764 0.52057 0.77312 0.0
H442 H 0.59767 0.3505 0.74853 0.0
H443 H 0.60594 0.36485 0.79779 0.0
H444 H 0.59929 0.37796 0.69253 0.0
H445 H 0.56211 0.40626 0.66176 0.0
C446 C 0.9805 0.61133 0.29102 0.0
C447 C 0.99069 0.57419 0.31069 0.0
C448 C 0.03333 0.54779 0.25356 0.0
C449 C 0.01414 0.58091 0.2309 0.0
N450 N 0.97084 0.64546 0.22756 0.0
N451 N 0.02979 0.50813 0.31354 0.0
C452 C 0.98914 0.61368 0.24969 0.0
C453 C 0.01894 0.54296 0.29314 0.0
N454 N 0.9613 0.64375 0.31171 0.0
N455 N 0.06444 0.52081 0.23662 0.0
H456 H 0.02078 0.50479 0.34317 0.0
H457 H 0.04626 0.48239 0.30089 0.0
H458 H 0.07539 0.52421 0.20758 0.0
H459 H 0.08191 0.49735 0.25218 0.0
H460 H 0.9563 0.6725 0.29998 0.0
H461 H 0.95408 0.64255 0.34201 0.0
H462 H 0.94782 0.66782 0.23866 0.0
H463 H 0.97693 0.64849 0.19726 0.0
C464 C 0.33429 0.07046 0.14379 0.0
C465 C 0.30308 0.09642 0.12224 0.0
C466 C 0.34186 0.07744 0.05993 0.0
C467 C 0.37631 0.05617 0.0822 0.0
N468 N 0.40744 0.03623 0.14655 0.0
N469 N 0.27812 0.12717 0.06016 0.0
C470 C 0.3729 0.0532 0.12443 0.0
C471 C 0.30698 0.10043 0.08032 0.0
N472 N 0.32686 0.06212 0.18285 0.0
N473 N 0.34187 0.07464 0.01922 0.0
H474 H 0.25151 0.14358 0.07387 0.0
H475 H 0.28206 0.13505 0.03051 0.0
H476 H 0.36623 0.0572 1.00344 0.0
H477 H 0.31584 0.08626 1.00136 0.0
H478 H 0.34593 0.04009 0.19903 0.0
H479 H 0.29927 0.07466 0.19811 0.0
H480 H 0.40872 0.03787 0.17756 0.0
H481 H 0.43661 0.02352 0.1342 0.0
C482 C 0.16244 0.94183 0.62638 0.0
C483 C 0.20125 0.95547 0.61334 0.0
C484 C 0.15844 1.00633 0.57207 0.0
C485 C 0.12032 0.9892 0.58076 0.0
N486 N 0.08629 0.93826 0.61418 0.0
N487 N 0.2366 0.99566 0.56759 0.0
C488 C 0.12247 0.95608 0.60718 0.0
C489 C 0.19936 0.98641 0.58452 0.0
N490 N 0.1634 0.91668 0.65836 0.0
N491 N 0.15572 0.04192 0.55244 0.0
H492 H 0.26715 0.98098 0.57486 0.0
H493 H 0.23688 1.01499 0.54345 0.0
H494 H 0.12637 0.05786 0.54377 0.0
H495 H 0.18203 0.05763 0.54864 0.0
H496 H 0.13569 0.90908 0.67203 0.0
H497 H 0.1918 0.90629 0.67373 0.0
H498 H 0.08698 0.91114 0.62904 0.0
H499 H 0.05574 0.94938 0.60326 0.0
C500 C 0.85028 0.45245 0.99682 0.0
C501 C 0.81392 0.48167 1.00348 0.0
C502 C 0.86217 0.53187 0.01716 0.0
C503 C 0.89828 0.50174 0.01358 0.0
N504 N 0.92608 0.43167 1.01005 0.0
N505 N 0.78452 0.5472 0.02634 0.0
C506 C 0.89213 0.4615 1.00651 0.0
C507 C 0.81965 0.52083 0.01572 0.0
N508 N 0.84523 0.41672 0.97927 0.0
N509 N 0.86837 0.57111 0.01982 0.0
H510 H 0.753 0.53993 0.02529 0.0
H511 H 0.7869 0.57489 0.03928 0.0
H512 H 0.89895 0.58048 0.02033 0.0
H513 H 0.84327 0.59463 0.01814 0.0
H514 H 0.8712 0.39639 0.96971 0.0
H515 H 0.81533 0.40884 0.97057 0.0
H516 H 0.92233 0.40147 1.00951 0.0
H517 H 0.95735 0.43688 0.01762 0.0
C518 C 0.70696 0.51869 0.53993 0.0
C519 C 0.72025 0.55317 0.52245 0.0
C520 C 0.64481 0.58336 0.51755 0.0
C521 C 0.6314 0.54635 0.52788 0.0
N522 N 0.65035 0.47629 0.54379 0.0
N523 N 0.70042 0.61496 0.48594 0.0
C524 C 0.66253 0.51332 0.53827 0.0
C525 C 0.68889 0.58487 0.50919 0.0
N526 N 0.73679 0.4911 0.55784 0.0
N527 N 0.61553 0.61716 0.51586 0.0
H528 H 0.73186 0.61633 0.47622 0.0
H529 H 0.67778 0.63626 0.47246 0.0
H530 H 0.58289 0.61738 0.52275 0.0
H531 H 0.62462 0.64552 0.51197 0.0
H532 H 0.7284 0.46715 0.57427 0.0
H533 H 0.76959 0.49442 0.55941 0.0
H534 H 0.67247 0.4506 0.54715 0.0
H535 H 0.61848 0.47036 0.54127 0.0
C536 C 0.11931 0.35826 0.0962 0.0
C537 C 0.08799 0.34059 0.11838 0.0
C538 C 0.03225 0.39567 0.09844 0.0
C539 C 0.06306 0.41212 0.07443 0.0
N540 N 0.13437 0.40562 0.04542 0.0
N541 N 0.01327 0.33829 0.13483 0.0
C542 C 0.10602 0.39214 0.07155 0.0
C543 C 0.04404 0.35818 0.11785 0.0
N544 N 0.16222 0.34399 0.10035 0.0
N545 N 0.9917 0.41605 0.10305 0.0
H546 H 0.02071 0.31082 0.14907 0.0
H547 H 0.98015 0.34712 0.13189 0.0
H548 H 0.98076 0.44217 0.08756 0.0
H549 H 0.96959 0.40843 0.12395 0.0
H550 H 0.1871 0.3583 0.08892 0.0
H551 H 0.1734 0.31952 0.11818 0.0
H552 H 0.16432 0.38979 0.03844 0.0
H553 H 0.12691 0.43139 0.02841 0.0
C554 C 0.54942 0.27218 0.03601 0.0
C555 C 0.552 0.29467 1.00083 0.0
C556 C 0.50931 0.25107 0.96384 0.0
C557 C 0.51067 0.22616 0.99784 0.0
N558 N 0.51739 0.21932 0.0691 0.0
N559 N 0.52217 0.31507 0.93675 0.0
C560 C 0.52542 0.23927 0.0351 0.0
C561 C 0.52711 0.28752 0.96673 0.0
N562 N 0.57228 0.28062 0.06913 0.0
N563 N 0.49425 0.23851 0.92826 0.0
H564 H 0.53543 0.34186 0.93854 0.0
H565 H 0.50188 0.31317 0.91223 0.0
H566 H 0.4804 0.21218 0.9253 0.0
H567 H 0.49729 0.25314 0.90132 0.0
H568 H 0.57597 0.26246 0.09428 0.0
H569 H 0.58903 0.30538 0.07072 0.0
H570 H 0.52467 0.22882 0.09763 0.0
H571 H 0.4997 0.19511 0.06872 0.0
C572 C 0.90307 0.79135 0.47824 0.0
C573 C 0.92505 0.75979 0.45534 0.0
C574 C 0.98319 0.79973 0.44066 0.0
C575 C 0.95992 0.83204 0.46164 0.0
N576 N 0.89539 0.86154 0.4957 0.0
N577 N 0.98263 0.73433 0.41066 0.0
C578 C 0.91912 0.8287 0.47907 0.0
C579 C 0.96421 0.76407 0.43533 0.0
N580 N 0.86743 0.78521 0.49991 0.0
N581 N 0.02379 0.80293 0.4268 0.0
H582 H 0.97037 0.70723 0.40707 0.0
H583 H 0.00843 0.73728 0.39179 0.0
H584 H 0.03799 0.82916 0.42915 0.0
H585 H 0.04451 0.77909 0.41517 0.0
H586 H 0.85286 0.80539 0.52084 0.0
H587 H 0.854 0.7585 0.49916 0.0
H588 H 0.86342 0.86226 0.50478 0.0
H589 H 0.90643 0.88931 0.49785 0.0
C590 C 0.41133 0.71159 0.56937 0.0
C591 C 0.43523 0.72284 0.60285 0.0
C592 C 0.48728 0.66203 0.59442 0.0
C593 C 0.46145 0.64907 0.56305 0.0
N594 N 0.39562 0.659 0.52413 0.0
N595 N 0.49276 0.70668 0.65063 0.0
C596 C 0.42269 0.6733 0.55128 0.0
C597 C 0.47222 0.69734 0.6164 0.0
N598 N 0.37805 0.73784 0.55445 0.0
N599 N 0.52734 0.64162 0.60193 0.0
H600 H 0.48363 0.73285 0.66676 0.0
H601 H 0.51666 0.68719 0.66478 0.0
H602 H 0.54008 0.6163 0.58596 0.0
H603 H 0.54973 0.65176 0.62133 0.0
H604 H 0.36275 0.73375 0.52735 0.0
H605 H 0.36744 0.76522 0.56793 0.0
H606 H 0.36455 0.67292 0.51782 0.0
H607 H 0.40275 0.63147 0.50992 0.0
C608 C 0.96296 0.9597 0.7041 0.0
C609 C 0.92164 0.94643 0.70659 0.0
C610 C 0.90708 0.96606 0.63641 0.0
C611 C 0.947 0.98224 0.63491 0.0
N612 N 0.01173 0.99741 0.66845 0.0
N613 N 0.85237 0.94024 0.67695 0.0
C614 C 0.97449 0.97999 0.66916 0.0
C615 C 0.89323 0.95035 0.67313 0.0
N616 N 0.99186 0.95163 0.73479 0.0
N617 N 0.88236 0.96567 0.60264 0.0
H618 H 0.84163 0.92777 0.70292 0.0
H619 H 0.82815 0.94642 0.65555 0.0
H620 H 0.88982 0.9792 0.57611 0.0
H621 H 0.85574 0.95016 0.60008 0.0
H622 H 0.02424 0.95601 0.73327 0.0
H623 H 0.98445 0.93742 0.76099 0.0
H624 H 0.03025 1.00148 0.69368 0.0
H625 H 0.02328 1.00996 0.64295 0.0
C626 C 0.53273 0.10443 0.1937 0.0
C627 C 0.57685 0.09799 0.20557 0.0
C628 C 0.59113 0.04689 0.15271 0.0
C629 C 0.54832 0.05696 0.138 0.0
N630 N 0.47951 0.09897 0.14176 0.0
N631 N 0.6496 0.06643 0.19346 0.0
C632 C 0.51945 0.08674 0.15778 0.0
C633 C 0.60644 0.06979 0.18452 0.0
N634 N 0.50317 0.12662 0.21748 0.0
N635 N 0.61733 0.0157 0.136 0.0
H636 H 0.66214 0.08276 0.21616 0.0
H637 H 0.67346 0.04988 0.17648 0.0
H638 H 0.6078 0.99946 0.11173 0.0
H639 H 0.6472 1.004 0.14792 0.0
H640 H 0.46988 0.12894 0.21287 0.0
H641 H 0.51164 0.13967 0.24415 0.0
H642 H 0.45917 0.12384 0.15188 0.0
H643 H 0.46766 0.08596 0.11648 0.0
C644 C 0.51453 0.5855 0.23401 0.0
C645 C 0.48233 0.56369 0.21827 0.0
C646 C 0.46275 0.54544 0.28567 0.0
C647 C 0.4915 0.57087 0.30148 0.0
N648 N 0.54063 0.61938 0.29136 0.0
N649 N 0.42034 0.52895 0.22885 0.0
C650 C 0.51633 0.59211 0.27582 0.0
C651 C 0.45493 0.54525 0.24401 0.0
N652 N 0.54403 0.59894 0.20906 0.0
N653 N 0.44404 0.52043 0.31028 0.0
H654 H 0.41319 0.52834 0.19845 0.0
H655 H 0.39653 0.51921 0.24667 0.0
H656 H 0.4491 0.51931 0.34107 0.0
H657 H 0.42669 0.49816 0.29977 0.0
H658 H 0.57088 0.61154 0.2191 0.0
H659 H 0.54384 0.59429 0.17827 0.0
H660 H 0.55586 0.63883 0.27394 0.0
H661 H 0.54263 0.62493 0.32191 0.0
C662 C 0.15293 0.4514 0.77472 0.0
C663 C 0.13254 0.42648 0.74861 0.0
C664 C 0.07153 0.42748 0.7945 0.0
C665 C 0.09099 0.45394 0.81962 0.0
N666 N 0.14435 0.49883 0.82929 0.0
N667 N 0.0683 0.39852 0.72853 0.0
C668 C 0.1299 0.46838 0.8083 0.0
C669 C 0.09048 0.41688 0.75692 0.0
N670 N 0.1949 0.45743 0.76843 0.0
N671 N 0.03608 0.41119 0.80719 0.0
H672 H 0.08095 0.39076 0.70039 0.0
H673 H 0.03594 0.39434 0.73142 0.0
H674 H 0.02107 0.41846 0.83446 0.0
H675 H 0.02354 0.38824 0.7921 0.0
H676 H 0.21292 0.47169 0.78894 0.0
H677 H 0.21305 0.44527 0.74425 0.0
H678 H 0.17016 0.51326 0.82011 0.0
H679 H 0.12794 0.51233 0.85387 0.0
C680 C 0.66677 0.92268 0.93859 0.0
C681 C 0.70232 0.94501 0.9407 0.0
C682 C 0.65857 0.99576 0.98159 0.0
C683 C 0.62198 0.97517 0.97651 0.0
N684 N 0.58903 0.92344 0.94278 0.0
N685 N 0.7294 1.00666 0.95759 0.0
C686 C 0.62547 0.93981 0.95295 0.0
C687 C 0.6974 0.98272 0.96028 0.0
N688 N 0.67274 0.8845 0.92414 0.0
N689 N 0.65697 0.02669 1.00816 0.0
H690 H 0.75806 0.99837 0.94199 0.0
H691 H 0.72587 0.03611 0.9676 0.0
H692 H 0.62958 0.03653 0.025 0.0
H693 H 0.68397 0.04009 0.01632 0.0
H694 H 0.64933 0.86522 0.92599 0.0
H695 H 0.70242 0.87081 0.91348 0.0
H696 H 0.58898 0.90022 0.92228 0.0
H697 H 0.55806 0.93557 0.95167 0.0
C698 C 0.83666 0.12489 0.43403 0.0
C699 C 0.80148 0.1027 0.42844 0.0
C700 C 0.83949 0.04837 0.46909 0.0
C701 C 0.87654 0.06886 0.47079 0.0
N702 N 0.91347 0.12228 0.44542 0.0
N703 N 0.77175 0.04073 0.43556 0.0
C704 C 0.87597 0.10597 0.4507 0.0
C705 C 0.80351 0.06366 0.44459 0.0
N706 N 0.83225 0.16451 0.42434 0.0
N707 N 0.8379 1.0152 0.49199 0.0
H708 H 0.74495 0.05101 0.41793 0.0
H709 H 0.77372 1.01059 0.4428 0.0
H710 H 0.86322 1.00345 0.51063 0.0
H711 H 0.81011 1.00143 0.49522 0.0
H712 H 0.85533 0.18306 0.43174 0.0
H713 H 0.80374 0.17982 0.41266 0.0
H714 H 0.91543 0.14706 0.4274 0.0
H715 H 0.94363 0.10863 0.45503 0.0
C716 C 0.21993 0.57901 1.00634 0.0
C717 C 0.24823 0.54916 0.02645 0.0
C718 C 0.18648 0.51709 0.04874 0.0
C719 C 0.1586 0.54491 0.02588 0.0
N720 N 0.14816 0.59948 0.97916 0.0
N721 N 0.25991 0.48607 0.0609 0.0
C722 C 0.17517 0.57501 1.00345 0.0
C723 C 0.2319 0.51714 0.04606 0.0
N724 N 0.23561 0.61187 0.99137 0.0
N725 N 0.16954 0.49095 0.07339 0.0
H726 H 0.29347 0.48493 0.05925 0.0
H727 H 0.25012 0.45979 0.07164 0.0
H728 H 0.13643 0.48943 0.0756 0.0
H729 H 0.18788 0.47286 0.09397 0.0
H730 H 0.21598 0.63676 0.98031 0.0
H731 H 0.26827 0.61568 0.99268 0.0
H732 H 0.15899 0.61898 0.95864 0.0
H733 H 0.11486 0.59854 0.97766 0.0
C734 C 0.3021 0.50676 0.53157 0.0
C735 C 0.2973 0.47275 0.50802 0.0
C736 C 0.3638 0.47923 0.47205 0.0
C737 C 0.37108 0.51052 0.4986 0.0
N738 N 0.34291 0.56204 0.54459 0.0
N739 N 0.31379 0.43474 0.4483 0.0
C740 C 0.33843 0.52719 0.52516 0.0
C741 C 0.32473 0.46215 0.47526 0.0
N742 N 0.27358 0.51753 0.56173 0.0
N743 N 0.39551 0.46373 0.44624 0.0
H744 H 0.28521 0.4219 0.4508 0.0
H745 H 0.33058 0.42759 0.42193 0.0
H746 H 0.42438 0.47574 0.4426 0.0
H747 H 0.39429 0.43774 0.42976 0.0
H748 H 0.2779 0.53897 0.58322 0.0
H749 H 0.24579 0.50386 0.5659 0.0
H750 H 0.31894 0.57759 0.5622 0.0
H751 H 0.36967 0.57714 0.54032 0.0
C752 C 0.93809 0.67883 0.9166 0.0
C753 C 0.95153 0.71508 0.93038 0.0
C754 C 1.00179 0.67669 0.97751 0.0
C755 C 0.98496 0.64101 0.96666 0.0
N756 N 0.93003 0.61009 0.93164 0.0
N757 N 0.99042 0.74908 0.97945 0.0
C758 C 0.95123 0.64259 0.93767 0.0
C759 C 0.98185 0.71415 0.96237 0.0
N760 N 0.91365 0.67874 0.88264 0.0
N761 N 0.0379 0.67476 1.00109 0.0
H762 H 0.97611 0.77705 0.96977 0.0
H763 H 0.00852 0.75021 1.00554 0.0
H764 H 0.05391 0.64799 1.01218 0.0
H765 H 0.05438 0.69916 1.00649 0.0
H766 H 0.90677 0.65265 0.86875 0.0
H767 H 0.90371 0.70451 0.8662 0.0
H768 H 0.90225 0.61089 0.91409 0.0
H769 H 0.93729 0.58345 0.94735 0.0
C770 C 0.4957 0.75129 1.00184 0.0
C771 C 0.48715 0.72494 0.03272 0.0
C772 C 0.48884 0.77792 0.08263 0.0
C773 C 0.4977 0.80418 0.05178 0.0
N774 N 0.51827 0.81492 0.98377 0.0
N775 N 0.48409 0.70978 0.10292 0.0
C776 C 0.504 0.79047 1.01188 0.0
C777 C 0.48651 0.73721 0.07333 0.0
N778 N 0.49432 0.73924 0.96292 0.0
N779 N 0.48098 0.79233 0.12043 0.0
H780 H 0.48164 0.67979 0.09724 0.0
H781 H 0.48791 0.71584 0.1331 0.0
H782 H 0.48391 0.82171 0.1285 0.0
H783 H 0.46916 0.77601 0.14327 0.0
H784 H 0.49519 0.75835 0.93872 0.0
H785 H 0.48968 0.71029 0.95467 0.0
H786 H 0.52757 0.80557 0.95512 0.0
H787 H 0.52423 0.84399 0.99002 0.0
C788 C 0.00605 0.29204 0.5415 0.0
C789 C 0.0274 0.30495 0.57544 0.0
C790 C 0.99948 0.25507 0.61695 0.0
C791 C 0.98574 0.23745 0.58164 0.0
N792 N 0.96124 0.24475 0.51377 0.0
N793 N 0.0317 0.30997 0.64683 0.0
C794 C 0.98328 0.2585 0.5451 0.0
C795 C 0.0189 0.29065 0.61388 0.0
N796 N 0.01076 0.3101 0.50568 0.0
N797 N 0.99699 0.23586 0.6525 0.0
H798 H 0.04627 0.33598 0.64467 0.0
H799 H 0.02501 0.30236 0.67599 0.0
H800 H 0.9816 0.21033 0.65499 0.0
H801 H 0.01041 0.24455 0.67908 0.0
H802 H 0.99959 0.30023 0.4786 0.0
H803 H 0.0266 0.33541 0.50347 0.0
H804 H 0.95671 0.25915 0.48639 0.0
H805 H 0.94474 0.21992 0.5165 0.0
C806 C 0.53549 0.34505 0.45232 0.0
C807 C 0.57118 0.34287 0.42577 0.0
C808 C 0.58002 0.41238 0.44243 0.0
C809 C 0.54182 0.41588 0.46585 0.0
N810 N 0.47897 0.38734 0.48775 0.0
N811 N 0.62164 0.37728 0.38931 0.0
C812 C 0.51841 0.38265 0.46945 0.0
C813 C 0.59176 0.3774 0.41905 0.0
N814 N 0.5187 0.31101 0.46218 0.0
N815 N 0.60625 0.44181 0.44377 0.0
H816 H 0.63061 0.3526 0.371 0.0
H817 H 0.63431 0.40283 0.38021 0.0
H818 H 0.59966 0.46734 0.46142 0.0
H819 H 0.63675 0.43903 0.4307 0.0
H820 H 0.49588 0.30984 0.4846 0.0
H821 H 0.53017 0.28313 0.45018 0.0
H822 H 0.45818 0.36558 0.48744 0.0
H823 H 0.4653 0.4143 0.50036 0.0
loop_
_geom_bond_atom_site_label_1
_geom_bond_atom_site_label_2
_geom_bond_distance
_geom_bond_site_symmetry_2
_ccdc_geom_bond_type
P0 O11 1.490 . S
P0 C14 1.812 . S
P0 C20 1.803 . S
P0 C26 1.819 . S
H1 C15 0.941 . S
H2 C16 0.939 . S
H3 C18 0.940 . S
H4 C19 0.940 . S
H5 C21 0.939 . S
H6 C22 0.942 . S
H7 C24 0.940 . S
H8 C25 0.939 . S
H9 C27 0.941 . S
H10 C31 0.939 . S
O11 P0 1.490 . S
H12 C28 0.939 . S
H13 C30 0.940 . S
C14 P0 1.812 . S
C14 C15 1.389 . S
C14 C19 1.391 . S
C15 H1 0.941 . S
C15 C14 1.389 . S
C15 C16 1.397 . S
C16 H2 0.939 . S
C16 C15 1.397 . S
C16 C17 1.378 . S
C17 C16 1.378 . S
C17 C18 1.378 . S
C18 H3 0.940 . S
C18 C17 1.378 . S
C18 C19 1.396 . S
C19 H4 0.940 . S
C19 C14 1.391 . S
C19 C18 1.396 . S
C20 P0 1.803 . S
C20 C21 1.378 . S
C20 C25 1.400 . S
C21 H5 0.939 . S
C21 C20 1.378 . S
C21 C22 1.361 . S
C22 H6 0.942 . S
C22 C21 1.361 . S
C22 C23 1.369 . S
C23 C22 1.369 . S
C23 C24 1.404 . S
C24 H7 0.940 . S
C24 C23 1.404 . S
C24 C25 1.389 . S
C25 H8 0.939 . S
C25 C20 1.400 . S
C25 C24 1.389 . S
C26 P0 1.819 . S
C26 C27 1.391 . S
C26 C31 1.391 . S
C27 H9 0.941 . S
C27 C26 1.391 . S
C27 C28 1.396 . S
C28 H12 0.939 . S
C28 C27 1.396 . S
C28 C29 1.397 . S
C29 C28 1.397 . S
C29 C30 1.385 . S
C30 H13 0.940 . S
C30 C29 1.385 . S
C30 C31 1.388 . S
C31 H10 0.939 . S
C31 C26 1.391 . S
C31 C30 1.388 . S
P32 O43 1.490 . S
P32 C46 1.812 . S
P32 C52 1.803 . S
P32 C58 1.819 . S
H33 C47 0.941 . S
H34 C48 0.939 . S
H35 C50 0.940 . S
H36 C51 0.940 . S
H37 C53 0.939 . S
H38 C54 0.942 . S
H39 C56 0.940 . S
H40 C57 0.939 . S
H41 C59 0.941 . S
H42 C63 0.939 . S
O43 P32 1.490 . S
H44 C60 0.939 . S
H45 C62 0.940 . S
C46 P32 1.812 . S
C46 C47 1.389 . S
C46 C51 1.391 . S
C47 H33 0.941 . S
C47 C46 1.389 . S
C47 C48 1.397 . S
C48 H34 0.939 . S
C48 C47 1.397 . S
C48 C49 1.378 . S
C49 C48 1.378 . S
C49 C50 1.378 . S
C50 H35 0.940 . S
C50 C49 1.378 . S
C50 C51 1.396 . S
C51 H36 0.940 . S
C51 C46 1.391 . S
C51 C50 1.396 . S
C52 P32 1.803 . S
C52 C53 1.378 . S
C52 C57 1.400 . S
C53 H37 0.939 . S
C53 C52 1.378 . S
C53 C54 1.361 . S
C54 H38 0.942 . S
C54 C53 1.361 . S
C54 C55 1.369 . S
C55 C54 1.369 . S
C55 C56 1.404 . S
C56 H39 0.940 . S
C56 C55 1.404 . S
C56 C57 1.389 . S
C57 H40 0.939 . S
C57 C52 1.400 . S
C57 C56 1.389 . S
C58 P32 1.819 . S
C58 C59 1.391 . S
C58 C63 1.391 . S
C59 H41 0.941 . S
C59 C58 1.391 . S
C59 C60 1.396 . S
C60 H44 0.939 . S
C60 C59 1.396 . S
C60 C61 1.397 . S
C61 C60 1.397 . S
C61 C62 1.385 . S
C62 H45 0.940 . S
C62 C61 1.385 . S
C62 C63 1.388 . S
C63 H42 0.939 . S
C63 C58 1.391 . S
C63 C62 1.388 . S
P64 O75 1.490 . S
P64 C78 1.812 . S
P64 C84 1.803 . S
P64 C90 1.819 . S
H65 C79 0.941 . S
H66 C80 0.939 . S
H67 C82 0.940 . S
H68 C83 0.940 . S
H69 C85 0.939 . S
H70 C86 0.942 . S
H71 C88 0.940 . S
H72 C89 0.939 . S
H73 C91 0.941 . S
H74 C95 0.939 . S
O75 P64 1.490 . S
H76 C92 0.939 . S
H77 C94 0.940 . S
C78 P64 1.812 . S
C78 C79 1.389 . S
C78 C83 1.391 . S
C79 H65 0.941 . S
C79 C78 1.389 . S
C79 C80 1.397 . S
C80 H66 0.939 . S
C80 C79 1.397 . S
C80 C81 1.378 . S
C81 C80 1.378 . S
C81 C82 1.378 . S
C82 H67 0.940 . S
C82 C81 1.378 . S
C82 C83 1.396 . S
C83 H68 0.940 . S
C83 C78 1.391 . S
C83 C82 1.396 . S
C84 P64 1.803 . S
C84 C85 1.378 . S
C84 C89 1.400 . S
C85 H69 0.939 . S
C85 C84 1.378 . S
C85 C86 1.361 . S
C86 H70 0.942 . S
C86 C85 1.361 . S
C86 C87 1.369 . S
C87 C86 1.369 . S
C87 C88 1.404 . S
C88 H71 0.940 . S
C88 C87 1.404 . S
C88 C89 1.389 . S
C89 H72 0.939 . S
C89 C84 1.400 . S
C89 C88 1.389 . S
C90 P64 1.819 . S
C90 C91 1.391 . S
C90 C95 1.391 . S
C91 H73 0.941 . S
C91 C90 1.391 . S
C91 C92 1.396 . S
C92 H76 0.939 . S
C92 C91 1.396 . S
C92 C93 1.397 . S
C93 C92 1.397 . S
C93 C94 1.385 . S
C94 H77 0.940 . S
C94 C93 1.385 . S
C94 C95 1.388 . S
C95 H74 0.939 . S
C95 C90 1.391 . S
C95 C94 1.388 . S
P96 O107 1.490 . S
P96 C110 1.812 . S
P96 C116 1.803 . S
P96 C122 1.819 . S
H97 C111 0.941 . S
H98 C112 0.939 . S
H99 C114 0.940 . S
H100 C115 0.940 . S
H101 C117 0.939 . S
H102 C118 0.942 . S
H103 C120 0.940 . S
H104 C121 0.939 . S
H105 C123 0.941 . S
H106 C127 0.939 . S
O107 P96 1.490 . S
H108 C124 0.939 . S
H109 C126 0.940 . S
C110 P96 1.812 . S
C110 C111 1.389 . S
C110 C115 1.391 . S
C111 H97 0.941 . S
C111 C110 1.389 . S
C111 C112 1.397 . S
C112 H98 0.939 . S
C112 C111 1.397 . S
C112 C113 1.378 . S
C113 C112 1.378 . S
C113 C114 1.378 . S
C114 H99 0.940 . S
C114 C113 1.378 . S
C114 C115 1.396 . S
C115 H100 0.940 . S
C115 C110 1.391 . S
C115 C114 1.396 . S
C116 P96 1.803 . S
C116 C117 1.378 . S
C116 C121 1.400 . S
C117 H101 0.939 . S
C117 C116 1.378 . S
C117 C118 1.361 . S
C118 H102 0.942 . S
C118 C117 1.361 . S
C118 C119 1.369 . S
C119 C118 1.369 . S
C119 C120 1.404 . S
C120 H103 0.940 . S
C120 C119 1.404 . S
C120 C121 1.389 . S
C121 H104 0.939 . S
C121 C116 1.400 . S
C121 C120 1.389 . S
C122 P96 1.819 . S
C122 C123 1.391 . S
C122 C127 1.391 . S
C123 H105 0.941 . S
C123 C122 1.391 . S
C123 C124 1.396 . S
C124 H108 0.939 . S
C124 C123 1.396 . S
C124 C125 1.397 . S
C125 C124 1.397 . S
C125 C126 1.385 . S
C126 H109 0.940 . S
C126 C125 1.385 . S
C126 C127 1.388 . S
C127 H106 0.939 . S
C127 C122 1.391 . S
C127 C126 1.388 . S
P128 O139 1.490 . S
P128 C142 1.812 . S
P128 C148 1.803 . S
P128 C154 1.819 . S
H129 C143 0.941 . S
H130 C144 0.939 . S
H131 C146 0.940 . S
H132 C147 0.940 . S
H133 C149 0.939 . S
H134 C150 0.942 1_455 S
H135 C152 0.940 . S
H136 C153 0.939 . S
H137 C155 0.941 . S
H138 C159 0.939 . S
O139 P128 1.490 . S
H140 C156 0.939 . S
H141 C158 0.940 . S
C142 P128 1.812 . S
C142 C143 1.389 . S
C142 C147 1.391 . S
C143 H129 0.941 . S
C143 C142 1.389 . S
C143 C144 1.397 . S
C144 H130 0.939 . S
C144 C143 1.397 . S
C144 C145 1.378 . S
C145 C144 1.378 . S
C145 C146 1.378 . S
C146 H131 0.940 . S
C146 C145 1.378 . S
C146 C147 1.396 . S
C147 H132 0.940 . S
C147 C142 1.391 . S
C147 C146 1.396 . S
C148 P128 1.803 . S
C148 C149 1.378 . S
C148 C153 1.400 . S
C149 H133 0.939 . S
C149 C148 1.378 . S
C149 C150 1.361 . S
C150 H134 0.942 1_655 S
C150 C149 1.361 . S
C150 C151 1.369 . S
C151 C150 1.369 . S
C151 C152 1.404 . S
C152 H135 0.940 . S
C152 C151 1.404 . S
C152 C153 1.389 . S
C153 H136 0.939 . S
C153 C148 1.400 . S
C153 C152 1.389 . S
C154 P128 1.819 . S
C154 C155 1.391 . S
C154 C159 1.391 . S
C155 H137 0.941 . S
C155 C154 1.391 . S
C155 C156 1.396 . S
C156 H140 0.939 . S
C156 C155 1.396 . S
C156 C157 1.397 . S
C157 C156 1.397 . S
C157 C158 1.385 . S
C158 H141 0.940 . S
C158 C157 1.385 . S
C158 C159 1.388 . S
C159 H138 0.939 . S
C159 C154 1.391 . S
C159 C158 1.388 . S
P160 O171 1.490 . S
P160 C174 1.812 . S
P160 C180 1.803 . S
P160 C186 1.819 . S
H161 C175 0.941 . S
H162 C176 0.939 . S
H163 C178 0.940 . S
H164 C179 0.940 . S
H165 C181 0.939 . S
H166 C182 0.942 . S
H167 C184 0.940 . S
H168 C185 0.939 . S
H169 C187 0.941 . S
H170 C191 0.939 . S
O171 P160 1.490 . S
H172 C188 0.939 . S
H173 C190 0.940 . S
C174 P160 1.812 . S
C174 C175 1.389 . S
C174 C179 1.391 . S
C175 H161 0.941 . S
C175 C174 1.389 . S
C175 C176 1.397 . S
C176 H162 0.939 . S
C176 C175 1.397 . S
C176 C177 1.378 . S
C177 C176 1.378 . S
C177 C178 1.378 . S
C178 H163 0.940 . S
C178 C177 1.378 . S
C178 C179 1.396 . S
C179 H164 0.940 . S
C179 C174 1.391 . S
C179 C178 1.396 . S
C180 P160 1.803 . S
C180 C181 1.378 . S
C180 C185 1.400 . S
C181 H165 0.939 . S
C181 C180 1.378 . S
C181 C182 1.361 . S
C182 H166 0.942 . S
C182 C181 1.361 . S
C182 C183 1.369 . S
C183 C182 1.369 . S
C183 C184 1.404 . S
C184 H167 0.940 . S
C184 C183 1.404 . S
C184 C185 1.389 . S
C185 H168 0.939 . S
C185 C180 1.400 . S
C185 C184 1.389 . S
C186 P160 1.819 . S
C186 C187 1.391 . S
C186 C191 1.391 . S
C187 H169 0.941 . S
C187 C186 1.391 . S
C187 C188 1.396 . S
C188 H172 0.939 . S
C188 C187 1.396 . S
C188 C189 1.397 . S
C189 C188 1.397 . S
C189 C190 1.385 . S
C190 H173 0.940 . S
C190 C189 1.385 . S
C190 C191 1.388 . S
C191 H170 0.939 . S
C191 C186 1.391 . S
C191 C190 1.388 . S
P192 O203 1.490 . S
P192 C206 1.812 . S
P192 C212 1.803 . S
P192 C218 1.819 . S
H193 C207 0.941 . S
H194 C208 0.939 1_556 S
H195 C210 0.940 . S
H196 C211 0.940 . S
H197 C213 0.939 . S
H198 C214 0.942 . S
H199 C216 0.940 . S
H200 C217 0.939 . S
H201 C219 0.941 . S
H202 C223 0.939 . S
O203 P192 1.490 . S
H204 C220 0.939 . S
H205 C222 0.940 . S
C206 P192 1.812 . S
C206 C207 1.389 . S
C206 C211 1.391 . S
C207 H193 0.941 . S
C207 C206 1.389 . S
C207 C208 1.397 . S
C208 H194 0.939 1_554 S
C208 C207 1.397 . S
C208 C209 1.378 . S
C209 C208 1.378 . S
C209 C210 1.378 . S
C210 H195 0.940 . S
C210 C209 1.378 . S
C210 C211 1.396 . S
C211 H196 0.940 . S
C211 C206 1.391 . S
C211 C210 1.396 . S
C212 P192 1.803 . S
C212 C213 1.378 . S
C212 C217 1.400 . S
C213 H197 0.939 . S
C213 C212 1.378 . S
C213 C214 1.361 . S
C214 H198 0.942 . S
C214 C213 1.361 . S
C214 C215 1.369 . S
C215 C214 1.369 . S
C215 C216 1.404 . S
C216 H199 0.940 . S
C216 C215 1.404 . S
C216 C217 1.389 . S
C217 H200 0.939 . S
C217 C212 1.400 . S
C217 C216 1.389 . S
C218 P192 1.819 . S
C218 C219 1.391 . S
C218 C223 1.391 . S
C219 H201 0.941 . S
C219 C218 1.391 . S
C219 C220 1.396 . S
C220 H204 0.939 . S
C220 C219 1.396 . S
C220 C221 1.397 . S
C221 C220 1.397 . S
C221 C222 1.385 . S
C222 H205 0.940 . S
C222 C221 1.385 . S
C222 C223 1.388 . S
C223 H202 0.939 . S
C223 C218 1.391 . S
C223 C222 1.388 . S
P224 O235 1.490 . S
P224 C238 1.812 . S
P224 C244 1.803 . S
P224 C250 1.819 . S
H225 C239 0.941 . S
H226 C240 0.939 . S
H227 C242 0.940 . S
H228 C243 0.940 . S
H229 C245 0.939 . S
H230 C246 0.942 . S
H231 C248 0.940 . S
H232 C249 0.939 . S
H233 C251 0.941 . S
H234 C255 0.939 . S
O235 P224 1.490 . S
H236 C252 0.939 . S
H237 C254 0.940 . S
C238 P224 1.812 . S
C238 C239 1.389 . S
C238 C243 1.391 . S
C239 H225 0.941 . S
C239 C238 1.389 . S
C239 C240 1.397 . S
C240 H226 0.939 . S
C240 C239 1.397 . S
C240 C241 1.378 . S
C241 C240 1.378 . S
C241 C242 1.378 . S
C242 H227 0.940 . S
C242 C241 1.378 . S
C242 C243 1.396 . S
C243 H228 0.940 . S
C243 C238 1.391 . S
C243 C242 1.396 . S
C244 P224 1.803 . S
C244 C245 1.378 . S
C244 C249 1.400 . S
C245 H229 0.939 . S
C245 C244 1.378 . S
C245 C246 1.361 . S
C246 H230 0.942 . S
C246 C245 1.361 . S
C246 C247 1.369 . S
C247 C246 1.369 . S
C247 C248 1.404 . S
C248 H231 0.940 . S
C248 C247 1.404 . S
C248 C249 1.389 . S
C249 H232 0.939 . S
C249 C244 1.400 . S
C249 C248 1.389 . S
C250 P224 1.819 . S
C250 C251 1.391 . S
C250 C255 1.391 . S
C251 H233 0.941 . S
C251 C250 1.391 . S
C251 C252 1.396 . S
C252 H236 0.939 . S
C252 C251 1.396 . S
C252 C253 1.397 . S
C253 C252 1.397 . S
C253 C254 1.385 . S
C254 H237 0.940 . S
C254 C253 1.385 . S
C254 C255 1.388 . S
C255 H234 0.939 . S
C255 C250 1.391 . S
C255 C254 1.388 . S
C256 O272 1.251 . S
C256 O274 1.254 1_545 S
N257 C258 1.333 . S
N257 C262 1.307 . S
N257 Zn263 2.020 . S
C258 N257 1.333 . S
C258 C259 1.379 . S
C258 H276 0.952 . S
C259 C258 1.379 . S
C259 C260 1.390 . S
C259 H286 0.949 . S
C260 C259 1.390 . S
C260 C261 1.357 . S
C261 C260 1.357 . S
C261 C262 1.370 . S
C261 H287 0.950 . S
C262 N257 1.307 . S
C262 C261 1.370 . S
C262 H280 0.948 1_455 S
Zn263 N257 2.020 . S
Zn263 O272 2.039 . S
Zn263 O278 2.034 . S
Zn263 O282 2.025 1_455 S
Zn263 O284 2.024 1_455 S
C264 O283 1.246 1_545 S
C264 O284 1.249 . S
N265 C266 1.306 . S
N265 C267 1.333 . S
N265 Zn271 2.020 . S
C266 N265 1.306 . S
C266 C270 1.369 . S
C266 H277 0.951 1_655 S
C267 N265 1.333 . S
C267 C268 1.379 . S
C267 H275 0.952 . S
C268 C267 1.379 . S
C268 C269 1.390 . S
C268 H288 0.949 . S
C269 C268 1.390 . S
C269 C270 1.357 . S
C270 C266 1.369 . S
C270 C269 1.357 . S
C270 H289 0.950 1_655 S
Zn271 N265 2.020 . S
Zn271 O274 2.025 1_655 S
Zn271 O279 2.024 1_655 S
Zn271 O281 2.039 . S
Zn271 O283 2.034 . S
O272 C256 1.251 . S
O272 Zn263 2.039 . S
C273 O278 1.246 1_565 S
C273 O279 1.249 . S
O274 C256 1.254 1_565 S
O274 Zn271 2.025 1_455 S
H275 C267 0.952 . S
H276 C258 0.952 . S
H277 C266 0.951 1_455 S
O278 Zn263 2.034 . S
O278 C273 1.246 1_545 S
O279 Zn271 2.024 1_455 S
O279 C273 1.249 . S
H280 C262 0.948 1_655 S
O281 Zn271 2.039 . S
O281 C285 1.251 . S
O282 Zn263 2.025 1_655 S
O282 C285 1.254 1_545 S
O283 C264 1.246 1_565 S
O283 Zn271 2.034 . S
O284 Zn263 2.024 1_655 S
O284 C264 1.249 . S
C285 O281 1.251 . S
C285 O282 1.254 1_565 S
H286 C259 0.949 . S
H287 C261 0.950 . S
H288 C268 0.949 . S
H289 C270 0.950 1_455 S
C290 O306 1.251 1_565 S
C290 O308 1.254 1_556 S
N291 C292 1.333 . S
N291 C296 1.307 . S
N291 Zn297 2.020 . S
C292 N291 1.333 . S
C292 C293 1.379 . S
C292 H310 0.952 . S
C293 C292 1.379 . S
C293 C294 1.390 . S
C293 H320 0.949 . S
C294 C293 1.390 . S
C294 C295 1.357 . S
C295 C294 1.357 . S
C295 C296 1.370 . S
C295 H321 0.950 . S
C296 N291 1.307 . S
C296 C295 1.370 . S
C296 H314 0.948 . S
Zn297 N291 2.020 . S
Zn297 O306 2.039 . S
Zn297 O312 2.034 1_556 S
Zn297 O316 2.025 1_556 S
Zn297 O318 2.024 . S
C298 O317 1.246 . S
C298 O318 1.249 1_565 S
N299 C300 1.307 . S
N299 C301 1.333 . S
N299 Zn305 2.020 . S
C300 N299 1.307 . S
C300 C304 1.370 . S
C300 H311 0.948 . S
C301 N299 1.333 . S
C301 C302 1.379 . S
C301 H309 0.952 . S
C302 C301 1.379 . S
C302 C303 1.390 . S
C302 H322 0.949 . S
C303 C302 1.390 . S
C303 C304 1.357 . S
C304 C300 1.370 . S
C304 C303 1.357 . S
C304 H323 0.950 . S
Zn305 N299 2.020 . S
Zn305 O308 2.025 . S
Zn305 O313 2.024 . S
Zn305 O315 2.039 . S
Zn305 O317 2.034 1_554 S
O306 C290 1.251 1_545 S
O306 Zn297 2.039 . S
C307 O312 1.246 . S
C307 O313 1.249 1_545 S
O308 C290 1.254 1_554 S
O308 Zn305 2.025 . S
H309 C301 0.952 . S
H310 C292 0.952 . S
H311 C300 0.948 . S
O312 Zn297 2.034 1_554 S
O312 C307 1.246 . S
O313 Zn305 2.024 . S
O313 C307 1.249 1_565 S
H314 C296 0.948 . S
O315 Zn305 2.039 . S
O315 C319 1.251 1_565 S
O316 Zn297 2.025 1_554 S
O316 C319 1.254 . S
O317 C298 1.246 . S
O317 Zn305 2.034 1_556 S
O318 Zn297 2.024 . S
O318 C298 1.249 1_545 S
C319 O315 1.251 1_545 S
C319 O316 1.254 . S
H320 C293 0.949 . S
H321 C295 0.950 . S
H322 C302 0.949 . S
H323 C304 0.950 . S
C324 O340 1.251 . S
C324 O342 1.254 . S
N325 C326 1.333 . S
N325 C330 1.307 . S
N325 Zn331 2.020 . S
C326 N325 1.333 . S
C326 C327 1.379 . S
C326 H344 0.952 . S
C327 C326 1.379 . S
C327 C328 1.390 . S
C327 H354 0.949 . S
C328 C327 1.390 . S
C328 C329 1.357 . S
C329 C328 1.357 . S
C329 C330 1.370 . S
C329 H355 0.950 . S
C330 N325 1.307 . S
C330 C329 1.370 . S
C330 H348 0.948 . S
Zn331 N325 2.020 . S
Zn331 O340 2.039 . S
Zn331 O346 2.034 . S
Zn331 O350 2.025 . S
Zn331 O352 2.024 . S
C332 O351 1.246 . S
C332 O352 1.249 . S
N333 C334 1.307 . S
N333 C335 1.333 . S
N333 Zn339 2.020 . S
C334 N333 1.307 . S
C334 C338 1.370 . S
C334 H345 0.948 . S
C335 N333 1.333 . S
C335 C336 1.379 . S
C335 H343 0.952 . S
C336 C335 1.379 . S
C336 C337 1.390 . S
C336 H356 0.949 . S
C337 C336 1.390 . S
C337 C338 1.357 . S
C338 C334 1.370 . S
C338 C337 1.357 . S
C338 H357 0.950 . S
Zn339 N333 2.020 . S
Zn339 O342 2.025 . S
Zn339 O347 2.024 . S
Zn339 O349 2.039 . S
Zn339 O351 2.034 . S
O340 C324 1.251 . S
O340 Zn331 2.039 . S
C341 O346 1.246 . S
C341 O347 1.249 . S
O342 C324 1.254 . S
O342 Zn339 2.025 . S
H343 C335 0.952 . S
H344 C326 0.952 . S
H345 C334 0.948 . S
O346 Zn331 2.034 . S
O346 C341 1.246 . S
O347 Zn339 2.024 . S
O347 C341 1.249 . S
H348 C330 0.948 . S
O349 Zn339 2.039 . S
O349 C353 1.251 . S
O350 Zn331 2.025 . S
O350 C353 1.254 . S
O351 C332 1.246 . S
O351 Zn339 2.034 . S
O352 Zn331 2.024 . S
O352 C332 1.249 . S
C353 O349 1.251 . S
C353 O350 1.254 . S
H354 C327 0.949 . S
H355 C329 0.950 . S
H356 C336 0.949 . S
H357 C338 0.950 . S
C358 O374 1.251 1_556 S
C358 O376 1.254 . S
N359 C360 1.333 . S
N359 C364 1.307 . S
N359 Zn365 2.020 . S
C360 N359 1.333 . S
C360 C361 1.379 . S
C360 H378 0.952 . S
C361 C360 1.379 . S
C361 C362 1.390 . S
C361 H388 0.949 . S
C362 C361 1.390 . S
C362 C363 1.357 . S
C363 C362 1.357 . S
C363 C364 1.370 . S
C363 H389 0.950 . S
C364 N359 1.307 . S
C364 C363 1.370 . S
C364 H382 0.948 . S
Zn365 N359 2.020 . S
Zn365 O374 2.039 . S
Zn365 O380 2.034 1_655 S
Zn365 O384 2.025 1_655 S
Zn365 O386 2.024 . S
C366 O385 1.246 . S
C366 O386 1.249 1_556 S
N367 C368 1.307 . S
N367 C369 1.333 . S
N367 Zn373 2.020 . S
C368 N367 1.307 . S
C368 C372 1.370 . S
C368 H379 0.948 . S
C369 N367 1.333 . S
C369 C370 1.379 . S
C369 H377 0.952 . S
C370 C369 1.379 . S
C370 C371 1.390 . S
C370 H390 0.949 . S
C371 C370 1.390 . S
C371 C372 1.357 . S
C372 C368 1.370 . S
C372 C371 1.357 . S
C372 H391 0.950 . S
Zn373 N367 2.020 . S
Zn373 O376 2.025 1_455 S
Zn373 O381 2.024 . S
Zn373 O383 2.039 . S
Zn373 O385 2.034 1_455 S
O374 C358 1.251 1_554 S
O374 Zn365 2.039 . S
C375 O380 1.246 . S
C375 O381 1.249 1_554 S
O376 C358 1.254 . S
O376 Zn373 2.025 1_655 S
H377 C369 0.952 . S
H378 C360 0.952 . S
H379 C368 0.948 . S
O380 Zn365 2.034 1_455 S
O380 C375 1.246 . S
O381 Zn373 2.024 . S
O381 C375 1.249 1_556 S
H382 C364 0.948 . S
O383 Zn373 2.039 . S
O383 C387 1.251 1_556 S
O384 Zn365 2.025 1_455 S
O384 C387 1.254 . S
O385 C366 1.246 . S
O385 Zn373 2.034 1_655 S
O386 Zn365 2.024 . S
O386 C366 1.249 1_554 S
C387 O383 1.251 1_554 S
C387 O384 1.254 . S
H388 C361 0.949 . S
H389 C363 0.950 . S
H390 C370 0.949 . S
H391 C372 0.950 . S
C392 C393 1.363 . S
C392 C398 1.379 . S
C392 N400 1.356 . S
C393 C392 1.363 . S
C393 C399 1.363 . S
C394 C395 1.363 . S
C394 C399 1.379 . S
C394 N401 1.356 . S
C395 C394 1.363 . S
C395 C398 1.363 . S
N396 C398 1.356 1_565 S
N396 H408 0.984 . S
N396 H409 0.985 . S
N397 C399 1.356 . S
N397 H402 0.984 . S
N397 H403 0.985 . S
C398 C392 1.379 . S
C398 C395 1.363 . S
C398 N396 1.356 1_545 S
C399 C393 1.363 . S
C399 C394 1.379 . S
C399 N397 1.356 . S
N400 C392 1.356 . S
N400 H406 0.984 1_545 S
N400 H407 0.984 . S
N401 C394 1.356 . S
N401 H404 0.984 . S
N401 H405 0.985 . S
H402 N397 0.984 . S
H403 N397 0.985 . S
H404 N401 0.984 . S
H405 N401 0.985 . S
H406 N400 0.984 1_565 S
H407 N400 0.984 . S
H408 N396 0.984 . S
H409 N396 0.985 . S
C410 C411 1.363 . S
C410 C416 1.379 . S
C410 N418 1.356 1_565 S
C411 C410 1.363 . S
C411 C417 1.363 . S
C412 C413 1.363 . S
C412 C417 1.379 . S
C412 N419 1.356 . S
C413 C412 1.363 . S
C413 C416 1.363 . S
N414 C416 1.356 1_545 S
N414 H426 0.984 . S
N414 H427 0.985 . S
N415 C417 1.356 . S
N415 H420 0.984 . S
N415 H421 0.985 . S
C416 C410 1.379 . S
C416 C413 1.363 . S
C416 N414 1.356 1_565 S
C417 C411 1.363 . S
C417 C412 1.379 . S
C417 N415 1.356 . S
N418 C410 1.356 1_545 S
N418 H424 0.984 . S
N418 H425 0.984 1_545 S
N419 C412 1.356 . S
N419 H422 0.984 . S
N419 H423 0.985 . S
H420 N415 0.984 . S
H421 N415 0.985 . S
H422 N419 0.984 . S
H423 N419 0.985 . S
H424 N418 0.984 . S
H425 N418 0.984 1_565 S
H426 N414 0.984 . S
H427 N414 0.985 . S
C428 C429 1.363 . S
C428 C434 1.379 . S
C428 N436 1.356 . S
C429 C428 1.363 . S
C429 C435 1.363 . S
C430 C431 1.363 . S
C430 C435 1.379 . S
C430 N437 1.356 . S
C431 C430 1.363 . S
C431 C434 1.363 . S
N432 C434 1.356 . S
N432 H444 0.984 . S
N432 H445 0.985 . S
N433 C435 1.356 . S
N433 H438 0.984 . S
N433 H439 0.985 . S
C434 C428 1.379 . S
C434 C431 1.363 . S
C434 N432 1.356 . S
C435 C429 1.363 . S
C435 C430 1.379 . S
C435 N433 1.356 . S
N436 C428 1.356 . S
N436 H442 0.984 . S
N436 H443 0.984 . S
N437 C430 1.356 . S
N437 H440 0.984 . S
N437 H441 0.985 . S
H438 N433 0.984 . S
H439 N433 0.985 . S
H440 N437 0.984 . S
H441 N437 0.985 . S
H442 N436 0.984 . S
H443 N436 0.984 . S
H444 N432 0.984 . S
H445 N432 0.985 . S
C446 C447 1.363 . S
C446 C452 1.379 . S
C446 N454 1.356 . S
C447 C446 1.363 . S
C447 C453 1.363 . S
C448 C449 1.363 . S
C448 C453 1.379 . S
C448 N455 1.356 . S
C449 C448 1.363 . S
C449 C452 1.363 . S
N450 C452 1.356 . S
N450 H462 0.984 . S
N450 H463 0.985 . S
N451 C453 1.356 . S
N451 H456 0.984 . S
N451 H457 0.985 . S
C452 C446 1.379 . S
C452 C449 1.363 . S
C452 N450 1.356 . S
C453 C447 1.363 . S
C453 C448 1.379 . S
C453 N451 1.356 . S
N454 C446 1.356 . S
N454 H460 0.984 . S
N454 H461 0.984 . S
N455 C448 1.356 . S
N455 H458 0.984 . S
N455 H459 0.985 1_655 S
H456 N451 0.984 . S
H457 N451 0.985 . S
H458 N455 0.984 . S
H459 N455 0.985 1_455 S
H460 N454 0.984 . S
H461 N454 0.984 . S
H462 N450 0.984 . S
H463 N450 0.985 . S
C464 C465 1.363 . S
C464 C470 1.379 . S
C464 N472 1.356 . S
C465 C464 1.363 . S
C465 C471 1.363 . S
C466 C467 1.363 . S
C466 C471 1.379 . S
C466 N473 1.356 1_554 S
C467 C466 1.363 . S
C467 C470 1.363 . S
N468 C470 1.356 . S
N468 H480 0.984 1_545 S
N468 H481 0.985 . S
N469 C471 1.356 . S
N469 H474 0.984 . S
N469 H475 0.985 . S
C470 C464 1.379 . S
C470 C467 1.363 . S
C470 N468 1.356 . S
C471 C465 1.363 . S
C471 C466 1.379 . S
C471 N469 1.356 . S
N472 C464 1.356 . S
N472 H478 0.984 . S
N472 H479 0.984 . S
N473 C466 1.356 1_556 S
N473 H476 0.984 . S
N473 H477 0.985 . S
H474 N469 0.984 . S
H475 N469 0.985 . S
H476 N473 0.984 . S
H477 N473 0.985 . S
H478 N472 0.984 . S
H479 N472 0.984 . S
H480 N468 0.984 1_565 S
H481 N468 0.985 . S
C482 C483 1.363 . S
C482 C488 1.379 . S
C482 N490 1.356 . S
C483 C482 1.363 . S
C483 C489 1.363 . S
C484 C485 1.363 . S
C484 C489 1.379 . S
C484 N491 1.356 . S
C485 C484 1.363 . S
C485 C488 1.363 . S
N486 C488 1.356 . S
N486 H498 0.984 . S
N486 H499 0.985 . S
N487 C489 1.356 . S
N487 H492 0.984 . S
N487 H493 0.985 . S
C488 C482 1.379 . S
C488 C485 1.363 . S
C488 N486 1.356 . S
C489 C483 1.363 . S
C489 C484 1.379 . S
C489 N487 1.356 . S
N490 C482 1.356 . S
N490 H496 0.984 . S
N490 H497 0.984 . S
N491 C484 1.356 . S
N491 H494 0.984 . S
N491 H495 0.985 . S
H492 N487 0.984 . S
H493 N487 0.985 . S
H494 N491 0.984 . S
H495 N491 0.985 . S
H496 N490 0.984 . S
H497 N490 0.984 . S
H498 N486 0.984 . S
H499 N486 0.985 . S
C500 C501 1.363 . S
C500 C506 1.379 . S
C500 N508 1.356 . S
C501 C500 1.363 . S
C501 C507 1.363 . S
C502 C503 1.363 . S
C502 C507 1.379 . S
C502 N509 1.356 1_556 S
C503 C502 1.363 . S
C503 C506 1.363 . S
N504 C506 1.356 . S
N504 H516 0.984 . S
N504 H517 0.985 . S
N505 C507 1.356 1_554 S
N505 H510 0.979 1_554 S
N505 H511 0.985 . S
C506 C500 1.379 . S
C506 C503 1.363 . S
C506 N504 1.356 . S
C507 C501 1.363 . S
C507 C502 1.379 . S
C507 N505 1.356 1_556 S
N508 C500 1.356 . S
N508 H514 0.984 . S
N508 H515 0.984 . S
N509 C502 1.356 1_554 S
N509 H512 0.984 . S
N509 H513 0.985 . S
H510 N505 0.979 1_556 S
H511 N505 0.985 . S
H512 N509 0.984 . S
H513 N509 0.985 . S
H514 N508 0.984 . S
H515 N508 0.984 . S
H516 N504 0.984 . S
H517 N504 0.985 . S
C518 C519 1.363 . S
C518 C524 1.379 . S
C518 N526 1.356 . S
C519 C518 1.363 . S
C519 C525 1.363 . S
C520 C521 1.363 . S
C520 C525 1.379 . S
C520 N527 1.356 . S
C521 C520 1.363 . S
C521 C524 1.363 . S
N522 C524 1.356 . S
N522 H534 0.984 . S
N522 H535 0.985 . S
N523 C525 1.356 . S
N523 H528 0.984 . S
N523 H529 0.985 . S
C524 C518 1.379 . S
C524 C521 1.363 . S
C524 N522 1.356 . S
C525 C519 1.363 . S
C525 C520 1.379 . S
C525 N523 1.356 . S
N526 C518 1.356 . S
N526 H532 0.984 . S
N526 H533 0.984 . S
N527 C520 1.356 . S
N527 H530 0.984 . S
N527 H531 0.985 . S
H528 N523 0.984 . S
H529 N523 0.985 . S
H530 N527 0.984 . S
H531 N527 0.985 . S
H532 N526 0.984 . S
H533 N526 0.984 . S
H534 N522 0.984 . S
H535 N522 0.985 . S
C536 C537 1.363 . S
C536 C542 1.379 . S
C536 N544 1.356 . S
C537 C536 1.363 . S
C537 C543 1.363 . S
C538 C539 1.363 . S
C538 C543 1.379 . S
C538 N545 1.356 1_455 S
C539 C538 1.363 . S
C539 C542 1.363 . S
N540 C542 1.356 . S
N540 H552 0.984 1_554 S
N540 H553 0.985 . S
N541 C543 1.356 1_655 S
N541 H546 0.984 1_655 S
N541 H547 0.985 . S
C542 C536 1.379 . S
C542 C539 1.363 . S
C542 N540 1.356 . S
C543 C537 1.363 . S
C543 C538 1.379 . S
C543 N541 1.356 1_455 S
N544 C536 1.356 . S
N544 H550 0.984 . S
N544 H551 0.984 . S
N545 C538 1.356 1_655 S
N545 H548 0.984 . S
N545 H549 0.985 . S
H546 N541 0.984 1_455 S
H547 N541 0.985 . S
H548 N545 0.984 . S
H549 N545 0.985 . S
H550 N544 0.984 . S
H551 N544 0.984 . S
H552 N540 0.984 1_556 S
H553 N540 0.985 . S
C554 C555 1.363 . S
C554 C560 1.379 . S
C554 N562 1.356 1_556 S
C555 C554 1.363 . S
C555 C561 1.363 . S
C556 C557 1.363 . S
C556 C561 1.379 . S
C556 N563 1.356 . S
C557 C556 1.363 . S
C557 C560 1.363 . S
N558 C560 1.356 1_554 S
N558 H570 0.984 . S
N558 H571 0.985 1_554 S
N559 C561 1.356 . S
N559 H564 0.984 . S
N559 H565 0.985 . S
C560 C554 1.379 . S
C560 C557 1.363 . S
C560 N558 1.356 1_556 S
C561 C555 1.363 . S
C561 C556 1.379 . S
C561 N559 1.356 . S
N562 C554 1.356 1_554 S
N562 H568 0.984 . S
N562 H569 0.984 . S
N563 C556 1.356 . S
N563 H566 0.984 . S
N563 H567 0.985 . S
H564 N559 0.984 . S
H565 N559 0.985 . S
H566 N563 0.984 . S
H567 N563 0.985 . S
H568 N562 0.984 . S
H569 N562 0.984 . S
H570 N558 0.984 . S
H571 N558 0.985 1_556 S
C572 C573 1.363 . S
C572 C578 1.379 . S
C572 N580 1.356 . S
C573 C572 1.363 . S
C573 C579 1.363 . S
C574 C575 1.363 . S
C574 C579 1.379 . S
C574 N581 1.356 . S
C575 C574 1.363 . S
C575 C578 1.363 . S
N576 C578 1.356 . S
N576 H588 0.984 . S
N576 H589 0.985 . S
N577 C579 1.356 . S
N577 H582 0.984 . S
N577 H583 0.985 . S
C578 C572 1.379 . S
C578 C575 1.363 . S
C578 N576 1.356 . S
C579 C573 1.363 . S
C579 C574 1.379 . S
C579 N577 1.356 . S
N580 C572 1.356 . S
N580 H586 0.984 . S
N580 H587 0.984 . S
N581 C574 1.356 . S
N581 H584 0.986 . S
N581 H585 0.985 1_655 S
H582 N577 0.984 . S
H583 N577 0.985 . S
H584 N581 0.986 . S
H585 N581 0.985 1_455 S
H586 N580 0.984 . S
H587 N580 0.984 . S
H588 N576 0.984 . S
H589 N576 0.985 . S
C590 C591 1.363 . S
C590 C596 1.379 . S
C590 N598 1.356 . S
C591 C590 1.363 . S
C591 C597 1.363 . S
C592 C593 1.363 . S
C592 C597 1.379 . S
C592 N599 1.356 . S
C593 C592 1.363 . S
C593 C596 1.363 . S
N594 C596 1.356 . S
N594 H606 0.984 . S
N594 H607 0.985 . S
N595 C597 1.356 . S
N595 H600 0.984 . S
N595 H601 0.985 . S
C596 C590 1.379 . S
C596 C593 1.363 . S
C596 N594 1.356 . S
C597 C591 1.363 . S
C597 C592 1.379 . S
C597 N595 1.356 . S
N598 C590 1.356 . S
N598 H604 0.984 . S
N598 H605 0.984 . S
N599 C592 1.356 . S
N599 H602 0.984 . S
N599 H603 0.985 . S
H600 N595 0.984 . S
H601 N595 0.985 . S
H602 N599 0.984 . S
H603 N599 0.985 . S
H604 N598 0.984 . S
H605 N598 0.984 . S
H606 N594 0.984 . S
H607 N594 0.985 . S
C608 C609 1.363 . S
C608 C614 1.384 . S
C608 N616 1.356 1_655 S
C609 C608 1.363 . S
C609 C615 1.363 . S
C610 C611 1.363 . S
C610 C615 1.379 . S
C610 N617 1.356 . S
C611 C610 1.363 . S
C611 C614 1.382 . S
N612 C614 1.335 1_455 S
N612 H624 0.984 . S
N612 H625 0.985 . S
N613 C615 1.356 . S
N613 H618 0.984 . S
N613 H619 0.985 . S
C614 C608 1.384 . S
C614 C611 1.382 . S
C614 N612 1.335 1_655 S
C615 C609 1.363 . S
C615 C610 1.379 . S
C615 N613 1.356 . S
N616 C608 1.356 1_455 S
N616 H622 0.984 . S
N616 H623 0.983 1_455 S
N617 C610 1.356 . S
N617 H620 0.984 . S
N617 H621 0.985 . S
H618 N613 0.984 . S
H619 N613 0.985 . S
H620 N617 0.984 . S
H621 N617 0.985 . S
H622 N616 0.984 . S
H623 N616 0.983 1_655 S
H624 N612 0.984 . S
H625 N612 0.985 . S
C626 C627 1.363 . S
C626 C632 1.379 . S
C626 N634 1.356 . S
C627 C626 1.363 . S
C627 C633 1.363 . S
C628 C629 1.363 . S
C628 C633 1.379 . S
C628 N635 1.356 1_545 S
C629 C628 1.363 . S
C629 C632 1.363 . S
N630 C632 1.356 . S
N630 H642 0.984 . S
N630 H643 0.985 . S
N631 C633 1.356 . S
N631 H636 0.984 . S
N631 H637 0.982 . S
C632 C626 1.379 . S
C632 C629 1.363 . S
C632 N630 1.356 . S
C633 C627 1.363 . S
C633 C628 1.379 . S
C633 N631 1.356 . S
N634 C626 1.356 . S
N634 H640 0.984 . S
N634 H641 0.984 . S
N635 C628 1.356 1_565 S
N635 H638 0.984 . S
N635 H639 0.985 . S
H636 N631 0.984 . S
H637 N631 0.982 . S
H638 N635 0.984 . S
H639 N635 0.985 . S
H640 N634 0.984 . S
H641 N634 0.984 . S
H642 N630 0.984 . S
H643 N630 0.985 . S
C644 C645 1.363 . S
C644 C650 1.379 . S
C644 N652 1.356 . S
C645 C644 1.363 . S
C645 C651 1.363 . S
C646 C647 1.363 . S
C646 C651 1.379 . S
C646 N653 1.356 . S
C647 C646 1.363 . S
C647 C650 1.363 . S
N648 C650 1.356 . S
N648 H660 0.984 . S
N648 H661 0.985 . S
N649 C651 1.356 . S
N649 H654 0.984 . S
N649 H655 0.985 . S
C650 C644 1.379 . S
C650 C647 1.363 . S
C650 N648 1.356 . S
C651 C645 1.363 . S
C651 C646 1.379 . S
C651 N649 1.356 . S
N652 C644 1.356 . S
N652 H658 0.984 . S
N652 H659 0.984 . S
N653 C646 1.356 . S
N653 H656 0.984 . S
N653 H657 0.985 . S
H654 N649 0.984 . S
H655 N649 0.985 . S
H656 N653 0.984 . S
H657 N653 0.985 . S
H658 N652 0.984 . S
H659 N652 0.984 . S
H660 N648 0.984 . S
H661 N648 0.985 . S
C662 C663 1.363 . S
C662 C668 1.379 . S
C662 N670 1.356 . S
C663 C662 1.363 . S
C663 C669 1.363 . S
C664 C665 1.363 . S
C664 C669 1.379 . S
C664 N671 1.356 . S
C665 C664 1.363 . S
C665 C668 1.363 . S
N666 C668 1.356 . S
N666 H678 0.984 . S
N666 H679 0.985 . S
N667 C669 1.356 . S
N667 H672 0.984 . S
N667 H673 0.985 . S
C668 C662 1.379 . S
C668 C665 1.363 . S
C668 N666 1.356 . S
C669 C663 1.363 . S
C669 C664 1.379 . S
C669 N667 1.356 . S
N670 C662 1.356 . S
N670 H676 0.984 . S
N670 H677 0.984 . S
N671 C664 1.356 . S
N671 H674 0.984 . S
N671 H675 0.985 . S
H672 N667 0.984 . S
H673 N667 0.985 . S
H674 N671 0.984 . S
H675 N671 0.985 . S
H676 N670 0.984 . S
H677 N670 0.984 . S
H678 N666 0.984 . S
H679 N666 0.985 . S
C680 C681 1.363 . S
C680 C686 1.379 . S
C680 N688 1.356 . S
C681 C680 1.363 . S
C681 C687 1.363 . S
C682 C683 1.363 . S
C682 C687 1.379 . S
C682 N689 1.356 1_565 S
C683 C682 1.363 . S
C683 C686 1.363 . S
N684 C686 1.356 . S
N684 H696 0.984 . S
N684 H697 0.985 . S
N685 C687 1.356 1_545 S
N685 H690 0.984 1_545 S
N685 H691 0.985 . S
C686 C680 1.379 . S
C686 C683 1.363 . S
C686 N684 1.356 . S
C687 C681 1.363 . S
C687 C682 1.379 . S
C687 N685 1.356 1_565 S
N688 C680 1.356 . S
N688 H694 0.984 . S
N688 H695 0.984 . S
N689 C682 1.356 1_545 S
N689 H692 0.984 . S
N689 H693 0.985 . S
H690 N685 0.984 1_565 S
H691 N685 0.985 . S
H692 N689 0.984 . S
H693 N689 0.985 . S
H694 N688 0.984 . S
H695 N688 0.984 . S
H696 N684 0.984 . S
H697 N684 0.985 . S
C698 C699 1.363 . S
C698 C704 1.379 . S
C698 N706 1.356 . S
C699 C698 1.363 . S
C699 C705 1.363 . S
C700 C701 1.363 . S
C700 C705 1.379 . S
C700 N707 1.356 1_545 S
C701 C700 1.363 . S
C701 C704 1.363 . S
N702 C704 1.356 . S
N702 H714 0.984 . S
N702 H715 0.985 . S
N703 C705 1.356 1_565 S
N703 H708 0.984 1_565 S
N703 H709 0.985 . S
C704 C698 1.379 . S
C704 C701 1.363 . S
C704 N702 1.356 . S
C705 C699 1.363 . S
C705 C700 1.379 . S
C705 N703 1.356 1_545 S
N706 C698 1.356 . S
N706 H712 0.984 . S
N706 H713 0.984 . S
N707 C700 1.356 1_565 S
N707 H710 0.984 . S
N707 H711 0.985 . S
H708 N703 0.984 1_545 S
H709 N703 0.985 . S
H710 N707 0.984 . S
H711 N707 0.985 . S
H712 N706 0.984 . S
H713 N706 0.984 . S
H714 N702 0.984 . S
H715 N702 0.985 . S
C716 C717 1.363 . S
C716 C722 1.379 . S
C716 N724 1.356 . S
C717 C716 1.363 . S
C717 C723 1.363 . S
C718 C719 1.363 . S
C718 C723 1.379 . S
C718 N725 1.356 . S
C719 C718 1.363 . S
C719 C722 1.363 . S
N720 C722 1.356 . S
N720 H732 0.984 . S
N720 H733 0.985 . S
N721 C723 1.356 . S
N721 H726 0.984 . S
N721 H727 0.985 . S
C722 C716 1.379 . S
C722 C719 1.363 . S
C722 N720 1.356 . S
C723 C717 1.363 . S
C723 C718 1.379 . S
C723 N721 1.356 . S
N724 C716 1.356 . S
N724 H730 0.984 . S
N724 H731 0.984 . S
N725 C718 1.356 . S
N725 H728 0.984 . S
N725 H729 0.985 . S
H726 N721 0.984 . S
H727 N721 0.985 . S
H728 N725 0.984 . S
H729 N725 0.985 . S
H730 N724 0.984 . S
H731 N724 0.984 . S
H732 N720 0.984 . S
H733 N720 0.985 . S
C734 C735 1.363 . S
C734 C740 1.379 . S
C734 N742 1.356 . S
C735 C734 1.363 . S
C735 C741 1.363 . S
C736 C737 1.363 . S
C736 C741 1.379 . S
C736 N743 1.356 . S
C737 C736 1.363 . S
C737 C740 1.363 . S
N738 C740 1.356 . S
N738 H750 0.984 . S
N738 H751 0.985 . S
N739 C741 1.356 . S
N739 H744 0.984 . S
N739 H745 0.985 . S
C740 C734 1.379 . S
C740 C737 1.363 . S
C740 N738 1.356 . S
C741 C735 1.363 . S
C741 C736 1.379 . S
C741 N739 1.356 . S
N742 C734 1.356 . S
N742 H748 0.984 . S
N742 H749 0.984 . S
N743 C736 1.356 . S
N743 H746 0.984 . S
N743 H747 0.985 . S
H744 N739 0.984 . S
H745 N739 0.985 . S
H746 N743 0.984 . S
H747 N743 0.985 . S
H748 N742 0.984 . S
H749 N742 0.984 . S
H750 N738 0.984 . S
H751 N738 0.985 . S
C752 C753 1.363 . S
C752 C758 1.379 . S
C752 N760 1.356 . S
C753 C752 1.363 . S
C753 C759 1.363 . S
C754 C755 1.363 . S
C754 C759 1.379 . S
C754 N761 1.356 1_656 S
C755 C754 1.363 . S
C755 C758 1.363 . S
N756 C758 1.356 . S
N756 H768 0.984 . S
N756 H769 0.985 . S
N757 C759 1.356 . S
N757 H762 0.984 . S
N757 H763 0.985 1_656 S
C758 C752 1.379 . S
C758 C755 1.363 . S
C758 N756 1.356 . S
C759 C753 1.363 . S
C759 C754 1.379 . S
C759 N757 1.356 . S
N760 C752 1.356 . S
N760 H766 0.984 . S
N760 H767 0.984 . S
N761 C754 1.356 1_454 S
N761 H764 0.984 . S
N761 H765 0.985 . S
H762 N757 0.984 . S
H763 N757 0.985 1_454 S
H764 N761 0.984 . S
H765 N761 0.985 . S
H766 N760 0.984 . S
H767 N760 0.984 . S
H768 N756 0.984 . S
H769 N756 0.985 . S
C770 C771 1.363 . S
C770 C776 1.379 . S
C770 N778 1.356 1_554 S
C771 C770 1.363 . S
C771 C777 1.363 . S
C772 C773 1.363 . S
C772 C777 1.379 . S
C772 N779 1.356 . S
C773 C772 1.363 . S
C773 C776 1.363 . S
N774 C776 1.356 . S
N774 H786 0.984 1_554 S
N774 H787 0.985 . S
N775 C777 1.356 . S
N775 H780 0.984 . S
N775 H781 0.985 . S
C776 C770 1.379 . S
C776 C773 1.363 . S
C776 N774 1.356 . S
C777 C771 1.363 . S
C777 C772 1.379 . S
C777 N775 1.356 . S
N778 C770 1.356 1_556 S
N778 H784 0.984 . S
N778 H785 0.984 . S
N779 C772 1.356 . S
N779 H782 0.984 . S
N779 H783 0.985 . S
H780 N775 0.984 . S
H781 N775 0.985 . S
H782 N779 0.984 . S
H783 N779 0.985 . S
H784 N778 0.984 . S
H785 N778 0.984 . S
H786 N774 0.984 1_556 S
H787 N774 0.985 . S
C788 C789 1.363 . S
C788 C794 1.379 . S
C788 N796 1.356 . S
C789 C788 1.363 . S
C789 C795 1.363 . S
C790 C791 1.363 . S
C790 C795 1.379 . S
C790 N797 1.356 . S
C791 C790 1.363 . S
C791 C794 1.363 . S
N792 C794 1.356 . S
N792 H804 0.984 . S
N792 H805 0.985 . S
N793 C795 1.356 . S
N793 H798 0.984 . S
N793 H799 0.985 . S
C794 C788 1.379 . S
C794 C791 1.363 . S
C794 N792 1.356 . S
C795 C789 1.363 . S
C795 C790 1.379 . S
C795 N793 1.356 . S
N796 C788 1.356 . S
N796 H802 0.984 . S
N796 H803 0.984 . S
N797 C790 1.356 . S
N797 H800 0.984 . S
N797 H801 0.985 . S
H798 N793 0.984 . S
H799 N793 0.985 . S
H800 N797 0.984 . S
H801 N797 0.985 . S
H802 N796 0.984 . S
H803 N796 0.984 . S
H804 N792 0.984 . S
H805 N792 0.985 . S
C806 C807 1.363 . S
C806 C812 1.379 . S
C806 N814 1.356 . S
C807 C806 1.363 . S
C807 C813 1.363 . S
C808 C809 1.363 . S
C808 C813 1.379 . S
C808 N815 1.356 . S
C809 C808 1.363 . S
C809 C812 1.363 . S
N810 C812 1.356 . S
N810 H822 0.984 . S
N810 H823 0.985 . S
N811 C813 1.356 . S
N811 H816 0.984 . S
N811 H817 0.985 . S
C812 C806 1.379 . S
C812 C809 1.363 . S
C812 N810 1.356 . S
C813 C807 1.363 . S
C813 C808 1.379 . S
C813 N811 1.356 . S
N814 C806 1.356 . S
N814 H820 0.984 . S
N814 H821 0.984 . S
N815 C808 1.356 . S
N815 H818 0.984 . S
N815 H819 0.985 . S
H816 N811 0.984 . S
H817 N811 0.985 . S
H818 N815 0.984 . S
H819 N815 0.985 . S
H820 N814 0.984 . S
H821 N814 0.984 . S
H822 N810 0.984 . S
H823 N810 0.985 . S
C393 C29 2.259 . S
C395 C256 2.376 . S
C411 C49 2.269 . S
C413 C298 2.271 . S
C431 C328 1.091 . S
C429 C93 0.999 . S
C447 C119 1.008 . S
C449 C362 1.097 . S
C467 C319 1.859 . S
C465 C17 1.745 . S
C485 C273 1.886 . S
C483 C61 1.892 . S
C503 C366 1.365 . S
C501 C81 1.241 . S
C521 C332 1.470 . S
C519 C125 1.313 . S
C537 C23 2.086 . S
C539 C387 2.200 . S
C557 C294 1.193 . S
C555 C87 1.115 . S
C573 C113 1.147 . S
C575 C269 1.271 . S
C591 C55 2.194 . S
C593 C353 2.184 . S
C611 C285 2.319 . S
C609 C157 2.316 . S
C627 C189 2.194 . S
C629 C307 2.320 . S
C645 C221 1.100 . S
C647 C337 1.080 . S
C663 C253 1.038 . S
C665 C371 1.128 . S
C681 C145 1.889 . S
C683 C290 1.894 . S
C701 C264 1.823 . S
C699 C183 1.712 . S
C719 C375 1.399 . S
C717 C209 1.406 . S
C737 C341 1.418 . S
C735 C247 1.281 . S
C753 C151 2.220 . S
C755 C358 2.216 . S
C773 C303 1.215 . S
C771 C215 1.244 . S
C791 C260 1.243 . S
C789 C241 1.149 . S
C807 C177 2.117 . S
C809 C324 2.230 . S
