# Generated by pormake.
# Topology bwt, (3,3)-cn, num edge types: 1
# Building blocks:
#     Node 0, Type 0, BuildingBlock: OLANEW_clean_sbu_2, # of connection points: 3
#     Node 1, Type 0, BuildingBlock: OLANEW_clean_sbu_2, # of connection points: 3
#     Node 2, Type 0, BuildingBlock: OLANEW_clean_sbu_2, # of connection points: 3
#     Node 3, Type 0, BuildingBlock: OLANEW_clean_sbu_2, # of connection points: 3
#     Node 4, Type 0, BuildingBlock: OLANEW_clean_sbu_2, # of connection points: 3
#     Node 5, Type 0, BuildingBlock: OLANEW_clean_sbu_2, # of connection points: 3
#     Node 6, Type 0, BuildingBlock: OLANEW_clean_sbu_2, # of connection points: 3
#     Node 7, Type 0, BuildingBlock: OLANEW_clean_sbu_2, # of connection points: 3
#     Node 8, Type 0, BuildingBlock: OLANEW_clean_sbu_2, # of connection points: 3
#     Node 9, Type 0, BuildingBlock: OLANEW_clean_sbu_2, # of connection points: 3
#     Node 10, Type 0, BuildingBlock: OLANEW_clean_sbu_2, # of connection points: 3
#     Node 11, Type 0, BuildingBlock: OLANEW_clean_sbu_2, # of connection points: 3
#     Node 12, Type 0, BuildingBlock: OLANEW_clean_sbu_2, # of connection points: 3
#     Node 13, Type 0, BuildingBlock: OLANEW_clean_sbu_2, # of connection points: 3
#     Node 14, Type 0, BuildingBlock: OLANEW_clean_sbu_2, # of connection points: 3
#     Node 15, Type 0, BuildingBlock: OLANEW_clean_sbu_2, # of connection points: 3
#     Node 16, Type 0, BuildingBlock: OLANEW_clean_sbu_2, # of connection points: 3
#     Node 17, Type 0, BuildingBlock: OLANEW_clean_sbu_2, # of connection points: 3
#     Node 18, Type 0, BuildingBlock: OLANEW_clean_sbu_2, # of connection points: 3
#     Node 19, Type 0, BuildingBlock: OLANEW_clean_sbu_2, # of connection points: 3
#     Node 20, Type 0, BuildingBlock: OLANEW_clean_sbu_2, # of connection points: 3
#     Node 21, Type 0, BuildingBlock: OLANEW_clean_sbu_2, # of connection points: 3
#     Node 22, Type 0, BuildingBlock: OLANEW_clean_sbu_2, # of connection points: 3
#     Node 23, Type 0, BuildingBlock: OLANEW_clean_sbu_2, # of connection points: 3
#     Node 24, Type 1, BuildingBlock: ESEHIV_clean_linker_0, # of connection points: 3
#     Node 25, Type 1, BuildingBlock: ESEHIV_clean_linker_0, # of connection points: 3
#     Node 26, Type 1, BuildingBlock: ESEHIV_clean_linker_0, # of connection points: 3
#     Node 27, Type 1, BuildingBlock: ESEHIV_clean_linker_0, # of connection points: 3
#     Node 28, Type 1, BuildingBlock: ESEHIV_clean_linker_0, # of connection points: 3
#     Node 29, Type 1, BuildingBlock: ESEHIV_clean_linker_0, # of connection points: 3
#     Node 30, Type 1, BuildingBlock: ESEHIV_clean_linker_0, # of connection points: 3
#     Node 31, Type 1, BuildingBlock: ESEHIV_clean_linker_0, # of connection points: 3
#     Node 32, Type 1, BuildingBlock: ESEHIV_clean_linker_0, # of connection points: 3
#     Node 33, Type 1, BuildingBlock: ESEHIV_clean_linker_0, # of connection points: 3
#     Node 34, Type 1, BuildingBlock: ESEHIV_clean_linker_0, # of connection points: 3
#     Node 35, Type 1, BuildingBlock: ESEHIV_clean_linker_0, # of connection points: 3
#     Node 36, Type 1, BuildingBlock: ESEHIV_clean_linker_0, # of connection points: 3
#     Node 37, Type 1, BuildingBlock: ESEHIV_clean_linker_0, # of connection points: 3
#     Node 38, Type 1, BuildingBlock: ESEHIV_clean_linker_0, # of connection points: 3
#     Node 39, Type 1, BuildingBlock: ESEHIV_clean_linker_0, # of connection points: 3
#     Node 40, Type 1, BuildingBlock: ESEHIV_clean_linker_0, # of connection points: 3
#     Node 41, Type 1, BuildingBlock: ESEHIV_clean_linker_0, # of connection points: 3
#     Node 42, Type 1, BuildingBlock: ESEHIV_clean_linker_0, # of connection points: 3
#     Node 43, Type 1, BuildingBlock: ESEHIV_clean_linker_0, # of connection points: 3
#     Node 44, Type 1, BuildingBlock: ESEHIV_clean_linker_0, # of connection points: 3
#     Node 45, Type 1, BuildingBlock: ESEHIV_clean_linker_0, # of connection points: 3
#     Node 46, Type 1, BuildingBlock: ESEHIV_clean_linker_0, # of connection points: 3
#     Node 47, Type 1, BuildingBlock: ESEHIV_clean_linker_0, # of connection points: 3
#     Edge 48, Type (0, 1), BuildingBlock: AJUNOK_clean_linker_0, # of connection points: 2
#     Edge 49, Type (0, 1), BuildingBlock: AJUNOK_clean_linker_0, # of connection points: 2
#     Edge 50, Type (0, 1), BuildingBlock: AJUNOK_clean_linker_0, # of connection points: 2
#     Edge 51, Type (0, 1), BuildingBlock: AJUNOK_clean_linker_0, # of connection points: 2
#     Edge 52, Type (0, 1), BuildingBlock: AJUNOK_clean_linker_0, # of connection points: 2
#     Edge 53, Type (0, 1), BuildingBlock: AJUNOK_clean_linker_0, # of connection points: 2
#     Edge 54, Type (0, 1), BuildingBlock: AJUNOK_clean_linker_0, # of connection points: 2
#     Edge 55, Type (0, 1), BuildingBlock: AJUNOK_clean_linker_0, # of connection points: 2
#     Edge 56, Type (0, 1), BuildingBlock: AJUNOK_clean_linker_0, # of connection points: 2
#     Edge 57, Type (0, 1), BuildingBlock: AJUNOK_clean_linker_0, # of connection points: 2
#     Edge 58, Type (0, 1), BuildingBlock: AJUNOK_clean_linker_0, # of connection points: 2
#     Edge 59, Type (0, 1), BuildingBlock: AJUNOK_clean_linker_0, # of connection points: 2
#     Edge 60, Type (0, 1), BuildingBlock: AJUNOK_clean_linker_0, # of connection points: 2
#     Edge 61, Type (0, 1), BuildingBlock: AJUNOK_clean_linker_0, # of connection points: 2
#     Edge 62, Type (0, 1), BuildingBlock: AJUNOK_clean_linker_0, # of connection points: 2
#     Edge 63, Type (0, 1), BuildingBlock: AJUNOK_clean_linker_0, # of connection points: 2
#     Edge 64, Type (0, 1), BuildingBlock: AJUNOK_clean_linker_0, # of connection points: 2
#     Edge 65, Type (0, 1), BuildingBlock: AJUNOK_clean_linker_0, # of connection points: 2
#     Edge 66, Type (0, 1), BuildingBlock: AJUNOK_clean_linker_0, # of connection points: 2
#     Edge 67, Type (0, 1), BuildingBlock: AJUNOK_clean_linker_0, # of connection points: 2
#     Edge 68, Type (0, 1), BuildingBlock: AJUNOK_clean_linker_0, # of connection points: 2
#     Edge 69, Type (0, 1), BuildingBlock: AJUNOK_clean_linker_0, # of connection points: 2
#     Edge 70, Type (0, 1), BuildingBlock: AJUNOK_clean_linker_0, # of connection points: 2
#     Edge 71, Type (0, 1), BuildingBlock: AJUNOK_clean_linker_0, # of connection points: 2
#     Edge 72, Type (0, 1), BuildingBlock: AJUNOK_clean_linker_0, # of connection points: 2
#     Edge 73, Type (0, 1), BuildingBlock: AJUNOK_clean_linker_0, # of connection points: 2
#     Edge 74, Type (0, 1), BuildingBlock: AJUNOK_clean_linker_0, # of connection points: 2
#     Edge 75, Type (0, 1), BuildingBlock: AJUNOK_clean_linker_0, # of connection points: 2
#     Edge 76, Type (0, 1), BuildingBlock: AJUNOK_clean_linker_0, # of connection points: 2
#     Edge 77, Type (0, 1), BuildingBlock: AJUNOK_clean_linker_0, # of connection points: 2
#     Edge 78, Type (0, 1), BuildingBlock: AJUNOK_clean_linker_0, # of connection points: 2
#     Edge 79, Type (0, 1), BuildingBlock: AJUNOK_clean_linker_0, # of connection points: 2
#     Edge 80, Type (0, 1), BuildingBlock: AJUNOK_clean_linker_0, # of connection points: 2
#     Edge 81, Type (0, 1), BuildingBlock: AJUNOK_clean_linker_0, # of connection points: 2
#     Edge 82, Type (0, 1), BuildingBlock: AJUNOK_clean_linker_0, # of connection points: 2
#     Edge 83, Type (0, 1), BuildingBlock: AJUNOK_clean_linker_0, # of connection points: 2
#     Edge 84, Type (0, 1), BuildingBlock: AJUNOK_clean_linker_0, # of connection points: 2
#     Edge 85, Type (0, 1), BuildingBlock: AJUNOK_clean_linker_0, # of connection points: 2
#     Edge 86, Type (0, 1), BuildingBlock: AJUNOK_clean_linker_0, # of connection points: 2
#     Edge 87, Type (0, 1), BuildingBlock: AJUNOK_clean_linker_0, # of connection points: 2
#     Edge 88, Type (0, 1), BuildingBlock: AJUNOK_clean_linker_0, # of connection points: 2
#     Edge 89, Type (0, 1), BuildingBlock: AJUNOK_clean_linker_0, # of connection points: 2
#     Edge 90, Type (0, 1), BuildingBlock: AJUNOK_clean_linker_0, # of connection points: 2
#     Edge 91, Type (0, 1), BuildingBlock: AJUNOK_clean_linker_0, # of connection points: 2
#     Edge 92, Type (0, 1), BuildingBlock: AJUNOK_clean_linker_0, # of connection points: 2
#     Edge 93, Type (0, 1), BuildingBlock: AJUNOK_clean_linker_0, # of connection points: 2
#     Edge 94, Type (0, 1), BuildingBlock: AJUNOK_clean_linker_0, # of connection points: 2
#     Edge 95, Type (0, 1), BuildingBlock: AJUNOK_clean_linker_0, # of connection points: 2
#     Edge 96, Type (0, 1), BuildingBlock: AJUNOK_clean_linker_0, # of connection points: 2
#     Edge 97, Type (0, 1), BuildingBlock: AJUNOK_clean_linker_0, # of connection points: 2
#     Edge 98, Type (0, 1), BuildingBlock: AJUNOK_clean_linker_0, # of connection points: 2
#     Edge 99, Type (0, 1), BuildingBlock: AJUNOK_clean_linker_0, # of connection points: 2
#     Edge 100, Type (0, 1), BuildingBlock: AJUNOK_clean_linker_0, # of connection points: 2
#     Edge 101, Type (0, 1), BuildingBlock: AJUNOK_clean_linker_0, # of connection points: 2
#     Edge 102, Type (0, 1), BuildingBlock: AJUNOK_clean_linker_0, # of connection points: 2
#     Edge 103, Type (0, 1), BuildingBlock: AJUNOK_clean_linker_0, # of connection points: 2
#     Edge 104, Type (0, 1), BuildingBlock: AJUNOK_clean_linker_0, # of connection points: 2
#     Edge 105, Type (0, 1), BuildingBlock: AJUNOK_clean_linker_0, # of connection points: 2
#     Edge 106, Type (0, 1), BuildingBlock: AJUNOK_clean_linker_0, # of connection points: 2
#     Edge 107, Type (0, 1), BuildingBlock: AJUNOK_clean_linker_0, # of connection points: 2
#     Edge 108, Type (0, 1), BuildingBlock: AJUNOK_clean_linker_0, # of connection points: 2
#     Edge 109, Type (0, 1), BuildingBlock: AJUNOK_clean_linker_0, # of connection points: 2
#     Edge 110, Type (0, 1), BuildingBlock: AJUNOK_clean_linker_0, # of connection points: 2
#     Edge 111, Type (0, 1), BuildingBlock: AJUNOK_clean_linker_0, # of connection points: 2
#     Edge 112, Type (0, 1), BuildingBlock: AJUNOK_clean_linker_0, # of connection points: 2
#     Edge 113, Type (0, 1), BuildingBlock: AJUNOK_clean_linker_0, # of connection points: 2
#     Edge 114, Type (0, 1), BuildingBlock: AJUNOK_clean_linker_0, # of connection points: 2
#     Edge 115, Type (0, 1), BuildingBlock: AJUNOK_clean_linker_0, # of connection points: 2
#     Edge 116, Type (0, 1), BuildingBlock: AJUNOK_clean_linker_0, # of connection points: 2
#     Edge 117, Type (0, 1), BuildingBlock: AJUNOK_clean_linker_0, # of connection points: 2
#     Edge 118, Type (0, 1), BuildingBlock: AJUNOK_clean_linker_0, # of connection points: 2
#     Edge 119, Type (0, 1), BuildingBlock: AJUNOK_clean_linker_0, # of connection points: 2
# Relax obj value: 0.132
# Max RMSD: 0.138
# Mean RMSD: 0.097
data_MOF--net-bwt--node1-OLANEW_clean_sbu_2--node2-ESEHIV_clean_linker_0--edge1-AJUNOK_clean_linker_0
_symmetry_space_group_name_H-M    P1
_symmetry_Int_Tables_number       1
_symmetry_cell_setting            triclinic
loop_
_symmetry_equiv_pos_as_xyz
'x, y, z'
_cell_length_a     40.44837
_cell_length_b     40.426205
_cell_length_c     40.460471
_cell_angle_alpha  93.751903
_cell_angle_beta   93.773548
_cell_angle_gamma 93.749087
loop_
_atom_site_label
_atom_site_type_symbol
_atom_site_fract_x
_atom_site_fract_y
_atom_site_fract_z
_atom_type_partial_charge
O0 O 0.28909 0.63119 0.32255 0.0
Cd1 Cd 0.29334 0.63037 0.26262 0.0
O2 O 0.32258 0.5906 0.32442 0.0
Cd3 Cd 0.34411 0.58955 0.27665 0.0
O4 O 0.39405 0.57198 0.27504 0.0
C5 C 0.40675 0.56511 0.3032 0.0
O6 O 0.38918 0.56883 0.32917 0.0
C7 C 0.30326 0.60954 0.3387 0.0
C8 C 0.2425 0.58446 0.23716 0.0
O9 O 0.27149 0.57543 0.2455 0.0
O10 O 0.23809 0.61561 0.23878 0.0
O11 O 0.21488 0.36022 0.76341 0.0
Cd12 Cd 0.21768 0.33895 0.70576 0.0
O13 O 0.19035 0.40454 0.74887 0.0
Cd14 Cd 0.17612 0.38711 0.69746 0.0
O15 O 0.1278 0.39038 0.67113 0.0
C16 C 0.1036 0.37654 0.68477 0.0
O17 O 0.11027 0.35884 0.71018 0.0
C18 C 0.20385 0.38821 0.77124 0.0
C19 C 0.27173 0.37339 0.68108 0.0
O20 O 0.24234 0.38327 0.67735 0.0
O21 O 0.27534 0.34639 0.69542 0.0
O22 O 0.72977 0.92973 0.61467 0.0
Cd23 Cd 0.74646 0.92874 0.67375 0.0
O24 O 0.75731 0.97774 0.60995 0.0
Cd25 Cd 0.78474 0.98126 0.65837 0.0
O26 O 0.83401 0.99786 0.6808 0.0
C27 C 0.85672 0.99588 0.66065 0.0
O28 O 0.84856 0.98306 0.63028 0.0
C29 C 0.73751 0.95383 0.59739 0.0
C30 C 0.70135 0.96397 0.70831 0.0
O31 O 0.72998 0.97764 0.70363 0.0
O32 O 0.69467 0.93352 0.69786 0.0
O33 O 0.77011 0.01623 0.30279 0.0
Cd34 Cd 0.78354 0.0018 0.35932 0.0
O35 O 0.72164 0.98999 0.30655 0.0
Cd36 Cd 0.67038 0.97324 0.29019 0.0
O37 O 0.61932 0.95923 0.27148 0.0
C38 C 0.59618 0.97008 0.28796 0.0
O39 O 0.60414 0.98878 0.3155 0.0
C40 C 0.74182 0.00571 0.28936 0.0
C41 C 0.8425 0.97038 0.36202 0.0
O42 O 0.81466 0.95399 0.35379 0.0
O43 O 0.84236 0.00166 0.36954 0.0
O44 O 0.32125 0.3306 0.62074 0.0
Cd45 Cd 0.26129 0.31911 0.6225 0.0
O46 O 0.31668 0.34945 0.57098 0.0
Cd47 Cd 0.26356 0.35644 0.56935 0.0
O48 O 0.25094 0.40659 0.55859 0.0
C49 C 0.27625 0.42686 0.5652 0.0
O50 O 0.30335 0.41542 0.5783 0.0
C51 C 0.33467 0.34159 0.59576 0.0
C52 C 0.24292 0.25706 0.59002 0.0
O53 O 0.23952 0.28373 0.57504 0.0
O54 O 0.25439 0.25981 0.62043 0.0
O55 O 0.28425 0.78608 0.06853 0.0
Cd56 Cd 0.34173 0.80545 0.06213 0.0
O57 O 0.29763 0.73703 0.04978 0.0
Cd58 Cd 0.28517 0.68591 0.02975 0.0
O59 O 0.27323 0.63397 0.01273 0.0
C60 C 0.24674 0.6249 0.99489 0.0
O61 O 0.22627 0.64744 0.98677 0.0
C62 C 0.2758 0.7558 0.05986 0.0
C63 C 0.34199 0.85493 0.01743 0.0
O64 O 0.33928 0.82415 0.0072 0.0
O65 O 0.34515 0.86238 0.04881 0.0
O66 O 0.78479 0.22342 0.36008 0.0
Cd67 Cd 0.72924 0.22908 0.33455 0.0
O68 O 0.79482 0.17925 0.32872 0.0
Cd69 Cd 0.74278 0.16532 0.31284 0.0
O70 O 0.71685 0.12023 0.32831 0.0
C71 C 0.73744 0.10293 0.34333 0.0
O72 O 0.76903 0.11324 0.34532 0.0
C73 C 0.80477 0.20229 0.35071 0.0
C74 C 0.70113 0.28123 0.3688 0.0
O75 O 0.69518 0.25098 0.37562 0.0
O76 O 0.71984 0.28684 0.34515 0.0
O77 O 0.70698 0.76061 0.95484 0.0
Cd78 Cd 0.76774 0.76488 0.95868 0.0
O79 O 0.7082 0.79555 0.99892 0.0
Cd80 Cd 0.7604 0.8132 0.00229 0.0
O81 O 0.77019 0.86449 0.02214 0.0
C82 C 0.74742 0.88276 0.01279 0.0
O83 O 0.72402 0.86979 0.99079 0.0
C84 C 0.69181 0.77611 0.97692 0.0
C85 C 0.78966 0.72045 0.00383 0.0
O86 O 0.78262 0.74977 0.01362 0.0
O87 O 0.78737 0.71246 0.97254 0.0
O88 O 0.59494 0.31974 0.24711 0.0
Cd89 Cd 0.60648 0.26227 0.23234 0.0
O90 O 0.591 0.30896 0.29927 0.0
Cd91 Cd 0.58198 0.32202 0.35146 0.0
O92 O 0.57041 0.32679 0.40378 0.0
C93 C 0.56706 0.3546 0.41939 0.0
O94 O 0.57082 0.3819 0.40373 0.0
C95 C 0.59039 0.32958 0.27681 0.0
C96 C 0.5713 0.24042 0.17264 0.0
O97 O 0.55945 0.23503 0.20056 0.0
O98 O 0.6002 0.2555 0.17304 0.0
O99 O 0.05061 0.25883 0.77396 0.0
Cd100 Cd 0.0513 0.31882 0.78658 0.0
O101 O 0.03795 0.27176 0.72332 0.0
Cd102 Cd 0.02614 0.26195 0.67002 0.0
O103 O 0.00847 0.24937 0.61847 0.0
C104 C 0.0129 0.22094 0.60485 0.0
O105 O 0.02843 0.19967 0.62233 0.0
C106 C 0.04224 0.24963 0.74381 0.0
C107 C 0.00964 0.33208 0.83708 0.0
O108 O 0.99769 0.32519 0.80715 0.0
O109 O 0.04121 0.33313 0.84306 0.0
O110 O 0.30663 0.78757 0.25084 0.0
Cd111 Cd 0.27892 0.73312 0.25621 0.0
O112 O 0.3299 0.76682 0.20737 0.0
Cd113 Cd 0.36602 0.77035 0.16982 0.0
O114 O 0.39837 0.7764 0.12942 0.0
C115 C 0.4253 0.76197 0.1286 0.0
O116 O 0.4336 0.74324 0.15274 0.0
C117 C 0.32626 0.79122 0.22793 0.0
C118 C 0.31941 0.70116 0.30043 0.0
O119 O 0.32257 0.69791 0.2691 0.0
O120 O 0.29629 0.71863 0.3106 0.0
O121 O 0.94974 0.64089 0.74472 0.0
Cd122 Cd 0.95785 0.69846 0.76786 0.0
O123 O 0.99512 0.62809 0.77252 0.0
Cd124 Cd 0.00552 0.67419 0.80352 0.0
O125 O 0.02593 0.69209 0.8532 0.0
C126 C 0.02703 0.66953 0.87362 0.0
O127 O 0.01532 0.63925 0.86329 0.0
C128 C 0.97062 0.61976 0.7517 0.0
C129 C 0.99376 0.73623 0.72532 0.0
O130 O 0.00852 0.72069 0.74797 0.0
O131 O 0.96193 0.73427 0.72313 0.0
O132 O 0.69458 0.33584 0.64524 0.0
Cd133 Cd 0.7291 0.32373 0.69377 0.0
O134 O 0.6732 0.37729 0.67224 0.0
Cd135 Cd 0.63843 0.41622 0.67203 0.0
O136 O 0.5935 0.44289 0.66915 0.0
C137 C 0.57366 0.44027 0.64327 0.0
O138 O 0.58131 0.4221 0.6171 0.0
C139 C 0.67607 0.36002 0.64535 0.0
C140 C 0.79024 0.3584 0.68924 0.0
O141 O 0.78373 0.32939 0.67466 0.0
O142 O 0.76827 0.37053 0.70702 0.0
O143 O 0.79587 0.63261 0.29889 0.0
Cd144 Cd 0.78189 0.64327 0.35611 0.0
O145 O 0.84448 0.61219 0.30793 0.0
Cd146 Cd 0.88693 0.58556 0.29228 0.0
O147 O 0.9298 0.55679 0.28294 0.0
C148 C 0.94631 0.56087 0.25768 0.0
O149 O 0.9371 0.58273 0.23687 0.0
C150 C 0.82094 0.61935 0.28784 0.0
C151 C 0.72001 0.60908 0.35857 0.0
O152 O 0.72232 0.63922 0.35047 0.0
O153 O 0.7469 0.59578 0.36707 0.0
O154 O 0.26876 0.13251 0.31016 0.0
Cd155 Cd 0.27907 0.13719 0.25185 0.0
O156 O 0.22283 0.10104 0.29738 0.0
Cd157 Cd 0.18179 0.0678 0.31065 0.0
O158 O 0.14175 0.03228 0.32167 0.0
C159 C 0.13422 0.00677 0.30189 0.0
O160 O 0.151 0.00257 0.2754 0.0
C161 C 0.24418 0.115 0.31919 0.0
C162 C 0.32299 0.08916 0.23712 0.0
O163 O 0.33343 0.11804 0.25002 0.0
O164 O 0.29178 0.08342 0.22958 0.0
O165 O 0.24316 0.94455 0.72093 0.0
Cd166 Cd 0.2225 0.9458 0.66301 0.0
O167 O 0.28822 0.97574 0.71353 0.0
Cd168 Cd 0.33262 0.00569 0.73413 0.0
O169 O 0.3822 0.02432 0.75412 0.0
C170 C 0.4059 0.00977 0.74184 0.0
O171 O 0.39878 0.98562 0.71859 0.0
C172 C 0.27028 0.9598 0.73258 0.0
C173 C 0.16605 0.98178 0.6628 0.0
O174 O 0.16431 0.95048 0.66641 0.0
O175 O 0.19445 0.99601 0.65814 0.0
O176 O 0.60688 0.69715 0.32779 0.0
Cd177 Cd 0.65554 0.72551 0.30649 0.0
O178 O 0.63567 0.67145 0.36516 0.0
Cd179 Cd 0.63562 0.63516 0.40303 0.0
O180 O 0.63508 0.59045 0.43069 0.0
C181 C 0.61155 0.56792 0.42513 0.0
O182 O 0.58705 0.57244 0.40329 0.0
C183 C 0.60794 0.67778 0.35129 0.0
C184 C 0.66582 0.79094 0.33417 0.0
O185 O 0.64683 0.78396 0.30768 0.0
O186 O 0.68001 0.76703 0.34725 0.0
O187 O 0.73107 0.25035 0.98327 0.0
Cd188 Cd 0.67558 0.23518 0.00018 0.0
O189 O 0.72741 0.30052 0.00598 0.0
Cd190 Cd 0.74883 0.34943 0.02543 0.0
O191 O 0.76838 0.39871 0.04535 0.0
C192 C 0.75219 0.42354 0.03844 0.0
O193 O 0.72454 0.41845 0.01936 0.0
C194 C 0.74432 0.27934 0.99136 0.0
C195 C 0.68045 0.18 0.03762 0.0
O196 O 0.67152 0.17667 0.00652 0.0
O197 O 0.68594 0.20953 0.05125 0.0
O198 O 0.27333 0.81748 0.66463 0.0
Cd199 Cd 0.32868 0.79691 0.66908 0.0
O200 O 0.28656 0.8453 0.62198 0.0
Cd201 Cd 0.27093 0.87625 0.58231 0.0
O202 O 0.25786 0.91984 0.55644 0.0
C203 C 0.26674 0.94785 0.57162 0.0
O204 O 0.28246 0.94842 0.60115 0.0
C205 C 0.26495 0.83507 0.64103 0.0
C206 C 0.3228 0.73777 0.62892 0.0
O207 O 0.31614 0.73832 0.65947 0.0
O208 O 0.33407 0.7649 0.61775 0.0
O209 O 0.29243 0.25917 0.09627 0.0
Cd210 Cd 0.24047 0.28125 0.11146 0.0
O211 O 0.26868 0.24451 0.0466 0.0
Cd212 Cd 0.27202 0.21689 0.99898 0.0
O213 O 0.28039 0.17088 0.97066 0.0
C214 C 0.27355 0.14456 0.98512 0.0
O215 O 0.26198 0.14736 0.01469 0.0
C216 C 0.29424 0.2468 0.06682 0.0
C217 C 0.22629 0.32988 0.06807 0.0
O218 O 0.24462 0.3369 0.09499 0.0
O219 O 0.21383 0.29995 0.06215 0.0
O220 O 0.37703 0.66635 0.74484 0.0
Cd221 Cd 0.36886 0.72212 0.76772 0.0
O222 O 0.37189 0.68141 0.69366 0.0
Cd223 Cd 0.37621 0.66834 0.64103 0.0
O224 O 0.38819 0.64992 0.59179 0.0
C225 C 0.41701 0.65712 0.58251 0.0
O226 O 0.43851 0.67534 0.60299 0.0
C227 C 0.37668 0.65915 0.71384 0.0
C228 C 0.40804 0.73261 0.82699 0.0
O229 O 0.37845 0.719 0.82612 0.0
O230 O 0.41875 0.74232 0.79986 0.0
O231 O 0.98774 0.70813 0.26966 0.0
Cd232 Cd 0.98757 0.65116 0.24545 0.0
O233 O 0.00454 0.69675 0.32017 0.0
Cd234 Cd 0.01679 0.71199 0.37261 0.0
O235 O 0.03691 0.73379 0.42107 0.0
C236 C 0.02568 0.75941 0.43499 0.0
O237 O 0.00044 0.77282 0.42023 0.0
C238 C 0.99656 0.71784 0.29962 0.0
C239 C 0.01656 0.65516 0.18509 0.0
O240 O 0.98533 0.65768 0.18706 0.0
O241 O 0.03388 0.64926 0.21147 0.0
O242 O 0.65675 0.24991 0.78309 0.0
Cd243 Cd 0.67135 0.30797 0.77463 0.0
O244 O 0.60844 0.26487 0.79817 0.0
Cd245 Cd 0.56035 0.25161 0.81721 0.0
O246 O 0.52542 0.23842 0.85386 0.0
C247 C 0.52867 0.21182 0.86851 0.0
O248 O 0.55162 0.19224 0.85941 0.0
C249 C 0.62768 0.24214 0.7914 0.0
C250 C 0.628 0.3235 0.72263 0.0
O251 O 0.65477 0.30943 0.71719 0.0
O252 O 0.62232 0.33177 0.75274 0.0
O253 O 0.13646 0.2949 0.2687 0.0
Cd254 Cd 0.14947 0.2382 0.2789 0.0
O255 O 0.10301 0.27629 0.22595 0.0
Cd256 Cd 0.07098 0.27819 0.18069 0.0
O257 O 0.03382 0.28126 0.13987 0.0
C258 C 0.03294 0.30767 0.1246 0.0
O259 O 0.05511 0.3324 0.13355 0.0
C260 C 0.11577 0.30067 0.24512 0.0
C261 C 0.10445 0.2147 0.32224 0.0
O262 O 0.13176 0.23081 0.33308 0.0
O263 O 0.09895 0.20871 0.29079 0.0
H264 H 0.29542 0.64954 0.49235 0.0
H265 H 0.2704 0.54445 0.47393 0.0
H266 H 0.28735 0.58666 0.57366 0.0
C267 C 0.28986 0.62538 0.50156 0.0
C268 C 0.29041 0.62203 0.53602 0.0
C269 C 0.28341 0.5974 0.47894 0.0
C270 C 0.27581 0.56619 0.49105 0.0
C271 C 0.27778 0.56232 0.52517 0.0
C272 C 0.28502 0.59018 0.54743 0.0
H273 H 0.21121 0.38953 0.92776 0.0
H274 H 0.22068 0.49063 0.90061 0.0
H275 H 0.2221 0.47 0.00353 0.0
C276 C 0.21358 0.41594 0.93486 0.0
C277 C 0.21626 0.42699 0.96863 0.0
C278 C 0.21442 0.43872 0.91011 0.0
C279 C 0.21859 0.47292 0.91948 0.0
C280 C 0.2214 0.48434 0.95314 0.0
C281 C 0.22014 0.46124 0.97752 0.0
H282 H 0.68633 0.90062 0.45024 0.0
H283 H 0.70205 0.00692 0.45568 0.0
H284 H 0.68903 0.95213 0.36052 0.0
C285 C 0.68779 0.92368 0.43802 0.0
C286 C 0.68486 0.92278 0.4031 0.0
C287 C 0.6944 0.95386 0.45717 0.0
C288 C 0.69708 0.98346 0.44105 0.0
C289 C 0.69582 0.98305 0.40629 0.0
C290 C 0.68901 0.95268 0.38734 0.0
H291 H 0.70371 0.07541 0.15313 0.0
H292 H 0.73836 0.97772 0.1362 0.0
H293 H 0.71951 0.03712 0.05396 0.0
C294 C 0.71137 0.05585 0.1363 0.0
C295 C 0.71078 0.0601 0.10202 0.0
C296 C 0.72117 0.02609 0.14891 0.0
C297 C 0.7303 0.00057 0.12678 0.0
C298 C 0.7287 0.00398 0.09248 0.0
C299 C 0.71954 0.03399 0.08037 0.0
H300 H 0.49097 0.34716 0.64151 0.0
H301 H 0.47431 0.35791 0.53644 0.0
H302 H 0.57246 0.34626 0.5786 0.0
C303 C 0.50029 0.34909 0.61714 0.0
C304 C 0.53418 0.34609 0.61318 0.0
C305 C 0.47827 0.35333 0.5896 0.0
C306 C 0.49095 0.35575 0.55818 0.0
C307 C 0.52493 0.35363 0.55419 0.0
C308 C 0.54633 0.34841 0.58167 0.0
H309 H 0.13132 0.70031 0.09772 0.0
H310 H 0.13574 0.70989 0.99294 0.0
H311 H 0.04566 0.67048 0.03097 0.0
C312 C 0.11947 0.69705 0.07279 0.0
C313 C 0.08612 0.68459 0.06776 0.0
C314 C 0.13743 0.7062 0.04591 0.0
C315 C 0.12176 0.70323 0.01378 0.0
C316 C 0.08858 0.69057 0.00826 0.0
C317 C 0.07108 0.68087 0.03529 0.0
H318 H 0.96065 0.19796 0.36795 0.0
H319 H 0.9228 0.20027 0.46488 0.0
H320 H 0.02745 0.19463 0.45464 0.0
C321 C 0.96481 0.19667 0.39456 0.0
C322 C 0.99722 0.19506 0.40879 0.0
C323 C 0.93782 0.19848 0.41453 0.0
C324 C 0.94347 0.19885 0.44922 0.0
C325 C 0.97576 0.19722 0.46377 0.0
C326 C 0.00242 0.19512 0.44341 0.0
H327 H 0.53942 0.7509 0.92572 0.0
H328 H 0.54787 0.76586 0.03244 0.0
H329 H 0.4516 0.75357 0.98008 0.0
C330 C 0.52788 0.75323 0.94912 0.0
C331 C 0.49308 0.75068 0.94935 0.0
C332 C 0.54784 0.75925 0.97894 0.0
C333 C 0.5327 0.76187 0.00923 0.0
C334 C 0.49802 0.76005 0.00966 0.0
C335 C 0.47842 0.75467 0.9797 0.0
H336 H 0.6266 0.48373 0.31475 0.0
H337 H 0.52058 0.46569 0.29893 0.0
H338 H 0.563 0.56285 0.33396 0.0
C339 C 0.60188 0.49222 0.31638 0.0
C340 C 0.59824 0.52543 0.32716 0.0
C341 C 0.57408 0.46999 0.30741 0.0
C342 C 0.54238 0.48228 0.30616 0.0
C343 C 0.53846 0.51584 0.31508 0.0
C344 C 0.56629 0.53716 0.32624 0.0
H345 H 0.07833 0.10403 0.6972 0.0
H346 H 0.97292 0.10379 0.70645 0.0
H347 H 0.01559 0.01467 0.67183 0.0
C348 C 0.05389 0.0911 0.6946 0.0
C349 C 0.05045 0.05716 0.68387 0.0
C350 C 0.02597 0.10845 0.70215 0.0
C351 C 0.99455 0.09105 0.69993 0.0
C352 C 0.99062 0.05736 0.68875 0.0
C353 C 0.01863 0.04067 0.68065 0.0
H354 H 0.36113 0.94262 0.22021 0.0
H355 H 0.45217 0.89667 0.24127 0.0
H356 H 0.45309 0.00288 0.23837 0.0
C357 C 0.38793 0.94487 0.22473 0.0
C358 C 0.4049 0.97645 0.22923 0.0
C359 C 0.40499 0.9161 0.22843 0.0
C360 C 0.43933 0.91883 0.23676 0.0
C361 C 0.45679 0.95018 0.24052 0.0
C362 C 0.43953 0.97872 0.23588 0.0
H363 H 0.89923 0.48133 0.69475 0.0
H364 H 0.00429 0.47956 0.68555 0.0
H365 H 0.94137 0.38997 0.66449 0.0
C366 C 0.92043 0.46795 0.68798 0.0
C367 C 0.91617 0.43381 0.67815 0.0
C368 C 0.9522 0.48448 0.69098 0.0
C369 C 0.97967 0.46696 0.68275 0.0
C370 C 0.97601 0.43282 0.67349 0.0
C371 C 0.94413 0.41652 0.67077 0.0
H372 H 0.66183 0.35271 0.49569 0.0
H373 H 0.61938 0.44479 0.52303 0.0
H374 H 0.64303 0.42182 0.42253 0.0
C375 C 0.6512 0.37547 0.48907 0.0
C376 C 0.65156 0.38361 0.45612 0.0
C377 C 0.63911 0.39685 0.5135 0.0
C378 C 0.62851 0.42775 0.50452 0.0
C379 C 0.63038 0.43707 0.47173 0.0
C380 C 0.64151 0.41465 0.44762 0.0
H381 H 0.82716 0.64299 0.13779 0.0
H382 H 0.80532 0.53842 0.1452 0.0
H383 H 0.7964 0.57946 0.05001 0.0
C384 C 0.82029 0.61851 0.12583 0.0
C385 C 0.81214 0.61467 0.09139 0.0
C386 C 0.81751 0.59113 0.1453 0.0
C387 C 0.80825 0.55944 0.13005 0.0
C388 C 0.80075 0.55508 0.09565 0.0
C389 C 0.80301 0.58272 0.07648 0.0
H390 H 0.2284 0.15295 0.46743 0.0
H391 H 0.2429 0.0487 0.45988 0.0
H392 H 0.23135 0.09846 0.55539 0.0
C393 C 0.22952 0.12972 0.47927 0.0
C394 C 0.229 0.12936 0.51394 0.0
C395 C 0.23381 0.10061 0.45975 0.0
C396 C 0.23825 0.07086 0.47495 0.0
C397 C 0.23794 0.06999 0.50959 0.0
C398 C 0.23234 0.09913 0.52873 0.0
H399 H 0.31962 0.93002 0.88226 0.0
H400 H 0.28716 0.0285 0.87441 0.0
H401 H 0.31556 0.99537 0.97019 0.0
C402 C 0.31498 0.95399 0.89399 0.0
C403 C 0.3197 0.95974 0.92871 0.0
C404 C 0.30309 0.97865 0.87438 0.0
C405 C 0.29659 0.00952 0.88952 0.0
C406 C 0.3013 0.01579 0.92403 0.0
C407 C 0.31277 0.99079 0.94345 0.0
H408 H 0.45562 0.65971 0.35421 0.0
H409 H 0.49534 0.6311 0.4484 0.0
H410 H 0.39049 0.63927 0.4311 0.0
C411 C 0.45172 0.65069 0.37836 0.0
C412 C 0.41951 0.64923 0.38953 0.0
C413 C 0.47923 0.64314 0.39886 0.0
C414 C 0.47431 0.63563 0.43171 0.0
C415 C 0.44251 0.63529 0.44377 0.0
C416 C 0.41508 0.64028 0.422 0.0
H417 H 0.88286 0.32448 0.93025 0.0
H418 H 0.89391 0.30705 0.03402 0.0
H419 H 0.98007 0.33094 0.98162 0.0
C420 C 0.89864 0.32365 0.95285 0.0
C421 C 0.93323 0.33022 0.95253 0.0
C422 C 0.88451 0.31464 0.98206 0.0
C423 C 0.9049 0.31338 0.01132 0.0
C424 C 0.93934 0.31984 0.01134 0.0
C425 C 0.95327 0.32794 0.9819 0.0
H426 H 0.114 0.81295 0.65993 0.0
H427 H 0.12358 0.82992 0.55682 0.0
H428 H 0.0332 0.78407 0.58772 0.0
C429 C 0.10337 0.81291 0.63467 0.0
C430 C 0.07047 0.7998 0.62722 0.0
C431 C 0.12303 0.82388 0.60952 0.0
C432 C 0.10896 0.82167 0.57662 0.0
C433 C 0.07695 0.80666 0.56855 0.0
C434 C 0.05755 0.79658 0.59402 0.0
H435 H 0.44224 0.22161 0.08355 0.0
H436 H 0.417 0.20393 0.97855 0.0
H437 H 0.51837 0.20217 0.01725 0.0
C438 C 0.44939 0.21512 0.05871 0.0
C439 C 0.48295 0.21126 0.05374 0.0
C440 C 0.42527 0.2126 0.0319 0.0
C441 C 0.43521 0.20602 0.99957 0.0
C442 C 0.46881 0.20255 0.99412 0.0
C443 C 0.49242 0.20461 0.02137 0.0
H444 H 0.35234 0.50522 0.67507 0.0
H445 H 0.45307 0.53655 0.65941 0.0
H446 H 0.41899 0.4337 0.64052 0.0
C447 C 0.37624 0.4994 0.66647 0.0
C448 C 0.38204 0.46629 0.65703 0.0
C449 C 0.40141 0.52496 0.66665 0.0
C450 C 0.43324 0.51705 0.65854 0.0
C451 C 0.43995 0.48403 0.6502 0.0
C452 C 0.41393 0.45899 0.64797 0.0
H453 H 0.94704 0.85815 0.34837 0.0
H454 H 0.04721 0.86992 0.31903 0.0
H455 H 0.99327 0.95588 0.34019 0.0
C456 C 0.96845 0.87411 0.34333 0.0
C457 C 0.9668 0.90876 0.34618 0.0
C458 C 0.99726 0.85982 0.3334 0.0
C459 C 0.02499 0.88065 0.3271 0.0
C460 C 0.02387 0.91536 0.33015 0.0
C461 C 0.99467 0.92917 0.33953 0.0
H462 H 0.63566 0.08985 0.76725 0.0
H463 H 0.53438 0.10513 0.78682 0.0
H464 H 0.56317 0.00671 0.76223 0.0
C465 C 0.61069 0.07977 0.77055 0.0
C466 C 0.60245 0.04562 0.76358 0.0
C467 C 0.58642 0.1014 0.77953 0.0
C468 C 0.55347 0.08848 0.78122 0.0
C469 C 0.54473 0.05449 0.77384 0.0
C470 C 0.56971 0.03311 0.76677 0.0
H471 H 0.14518 0.44901 0.21141 0.0
H472 H 0.04439 0.4411 0.24017 0.0
H473 H 0.09358 0.53683 0.23068 0.0
C474 C 0.12296 0.46041 0.2185 0.0
C475 C 0.12329 0.49517 0.22179 0.0
C476 C 0.09523 0.4403 0.22635 0.0
C477 C 0.06602 0.45573 0.23367 0.0
C478 C 0.06484 0.49047 0.23352 0.0
C479 C 0.09376 0.50997 0.2282 0.0
C480 C 0.18562 0.56772 0.2107 0.0
C481 C 0.21407 0.55962 0.22954 0.0
C482 C 0.15679 0.54613 0.20696 0.0
C483 C 0.1552 0.51588 0.22238 0.0
H484 H 0.1854 0.59122 0.19928 0.0
H485 H 0.13535 0.55353 0.19252 0.0
S486 S 0.22275 0.4839 0.27561 0.0
N487 N 0.23899 0.51929 0.26369 0.0
N488 N 0.1846 0.47954 0.25806 0.0
C489 C 0.18375 0.50737 0.24095 0.0
C490 C 0.21322 0.52902 0.24418 0.0
C491 C 0.29544 0.42355 0.65575 0.0
C492 C 0.30071 0.39402 0.67123 0.0
C493 C 0.32197 0.44587 0.64995 0.0
C494 C 0.35505 0.43968 0.65919 0.0
H495 H 0.2705 0.43009 0.64883 0.0
H496 H 0.31631 0.46865 0.63882 0.0
S497 S 0.38255 0.36491 0.69902 0.0
N498 N 0.34172 0.35881 0.69425 0.0
N499 N 0.3916 0.40101 0.68378 0.0
C500 C 0.36084 0.40952 0.67347 0.0
C501 C 0.3337 0.3867 0.67941 0.0
C502 C 0.68437 0.00684 0.75011 0.0
C503 C 0.67583 0.98342 0.7232 0.0
C504 C 0.6604 0.02635 0.76356 0.0
C505 C 0.62723 0.02361 0.75006 0.0
H506 H 0.70969 0.00995 0.76096 0.0
H507 H 0.66793 0.04376 0.78461 0.0
S508 S 0.59355 0.96838 0.67682 0.0
N509 N 0.63267 0.95948 0.6825 0.0
N510 N 0.58808 0.99733 0.70625 0.0
C511 C 0.61873 0.00069 0.72255 0.0
C512 C 0.64292 0.98031 0.7095 0.0
C513 C 0.87525 0.92468 0.3402 0.0
C514 C 0.874 0.95389 0.36081 0.0
C515 C 0.9052 0.90991 0.33627 0.0
C516 C 0.93505 0.9235 0.35313 0.0
H517 H 0.85312 0.91371 0.32604 0.0
H518 H 0.9051 0.88824 0.31901 0.0
S519 S 0.94437 0.99743 0.41328 0.0
N520 N 0.90468 0.99462 0.40016 0.0
N521 N 0.9609 0.96616 0.39362 0.0
C522 C 0.93389 0.95191 0.37497 0.0
C523 C 0.90341 0.96724 0.37862 0.0
C524 C 0.25476 0.19753 0.58156 0.0
C525 C 0.23617 0.22398 0.57214 0.0
C526 C 0.25147 0.16678 0.56318 0.0
C527 C 0.22902 0.16104 0.53494 0.0
H528 H 0.27307 0.20098 0.6025 0.0
H529 H 0.26765 0.14782 0.57049 0.0
S530 S 0.17094 0.22081 0.50293 0.0
N531 N 0.19253 0.24177 0.53452 0.0
N532 N 0.18524 0.18344 0.50072 0.0
C533 C 0.20895 0.18678 0.52635 0.0
C534 C 0.21277 0.21835 0.54476 0.0
C535 C 0.31853 0.87512 0.96456 0.0
C536 C 0.33951 0.88105 0.99372 0.0
C537 C 0.31307 0.90043 0.9432 0.0
C538 C 0.32887 0.9325 0.94988 0.0
H539 H 0.3051 0.85113 0.95889 0.0
H540 H 0.29533 0.8951 0.92198 0.0
S541 S 0.39031 0.959 0.02045 0.0
N542 N 0.37845 0.9202 0.02681 0.0
N543 N 0.3695 0.96744 0.98587 0.0
C544 C 0.35144 0.93811 0.97804 0.0
C545 C 0.35644 0.91249 0.00014 0.0
C546 C 0.66055 0.30168 0.40784 0.0
C547 C 0.68751 0.30869 0.38857 0.0
C548 C 0.64862 0.32637 0.42882 0.0
C549 C 0.66304 0.35911 0.43131 0.0
H550 H 0.64879 0.27676 0.40712 0.0
H551 H 0.62829 0.31963 0.44375 0.0
S552 S 0.73476 0.39046 0.38711 0.0
N553 N 0.72846 0.35096 0.37353 0.0
N554 N 0.70625 0.3972 0.41369 0.0
C555 C 0.68989 0.36663 0.4122 0.0
C556 C 0.70197 0.34151 0.39053 0.0
C557 C 0.81615 0.66856 0.01805 0.0
C558 C 0.79835 0.69583 0.02791 0.0
C559 C 0.82193 0.64324 0.03935 0.0
C560 C 0.80976 0.64398 0.07118 0.0
H561 H 0.82529 0.66647 0.99347 0.0
H562 H 0.83541 0.6225 0.03052 0.0
S563 S 0.76102 0.70973 0.1086 0.0
N564 N 0.76893 0.72238 0.07179 0.0
N565 N 0.77868 0.67425 0.11131 0.0
C566 C 0.79244 0.67148 0.08157 0.0
C567 C 0.78699 0.69751 0.06006 0.0
C568 C 0.52297 0.2087 0.14092 0.0
C569 C 0.55133 0.23081 0.14103 0.0
C570 C 0.50179 0.20152 0.11221 0.0
C571 C 0.50797 0.21631 0.08251 0.0
H572 H 0.5167 0.19723 0.16335 0.0
H573 H 0.47999 0.1847 0.11346 0.0
S574 S 0.5791 0.27566 0.06942 0.0
N575 N 0.58504 0.26674 0.10851 0.0
N576 N 0.54467 0.25391 0.05482 0.0
C577 C 0.53671 0.2378 0.08197 0.0
C578 C 0.5585 0.24489 0.11116 0.0
C579 C 0.95833 0.31528 0.86438 0.0
C580 C 0.98758 0.33607 0.86443 0.0
C581 C 0.93965 0.31488 0.89236 0.0
C582 C 0.94928 0.33572 0.92111 0.0
H583 H 0.9509 0.29778 0.84336 0.0
H584 H 0.91866 0.29679 0.89207 0.0
S585 S 0.0202 0.39955 0.93079 0.0
N586 N 0.02312 0.38078 0.8937 0.0
N587 N 0.98711 0.38142 0.94567 0.0
C588 C 0.97693 0.35865 0.92021 0.0
C589 C 0.99634 0.35846 0.89205 0.0
C590 C 0.36578 0.66464 0.31206 0.0
C591 C 0.34269 0.68618 0.3241 0.0
C592 C 0.38952 0.65184 0.33354 0.0
C593 C 0.39144 0.66018 0.36799 0.0
H594 H 0.36584 0.65783 0.28573 0.0
H595 H 0.407 0.63577 0.32289 0.0
S596 S 0.33609 0.71523 0.41227 0.0
N597 N 0.32224 0.71428 0.37293 0.0
N598 N 0.36776 0.69152 0.41311 0.0
C599 C 0.36796 0.68116 0.38048 0.0
C600 C 0.34344 0.69385 0.3586 0.0
C601 C 0.04687 0.74919 0.69904 0.0
C602 C 0.01307 0.75458 0.70155 0.0
C603 C 0.06536 0.76442 0.67544 0.0
C604 C 0.05088 0.78587 0.65353 0.0
H605 H 0.05904 0.73236 0.71484 0.0
H606 H 0.09097 0.75856 0.67374 0.0
S607 S 0.96421 0.81087 0.65184 0.0
N608 N 0.96637 0.7845 0.68127 0.0
N609 N 0.00142 0.81357 0.63731 0.0
C610 C 0.01742 0.79235 0.65643 0.0
C611 C 0.99848 0.77665 0.68034 0.0
C612 C 0.83429 0.40246 0.70987 0.0
C613 C 0.82203 0.37758 0.68542 0.0
C614 C 0.86442 0.42084 0.70701 0.0
C615 C 0.88325 0.41541 0.67934 0.0
H616 H 0.82084 0.40736 0.73175 0.0
H617 H 0.87337 0.43893 0.72707 0.0
S618 S 0.86035 0.35542 0.6068 0.0
N619 N 0.8301 0.34963 0.63175 0.0
N620 N 0.88622 0.38495 0.62589 0.0
C621 C 0.87077 0.39125 0.65424 0.0
C622 C 0.84031 0.37217 0.65738 0.0
C623 C 0.66108 0.60015 0.33512 0.0
C624 C 0.68766 0.58922 0.35486 0.0
C625 C 0.6318 0.5799 0.32723 0.0
C626 C 0.62804 0.5478 0.33857 0.0
H627 H 0.66338 0.624 0.32445 0.0
H628 H 0.61258 0.58893 0.31094 0.0
S629 S 0.68819 0.50924 0.39504 0.0
N630 N 0.70681 0.54558 0.38852 0.0
N631 N 0.65199 0.50741 0.37344 0.0
C632 C 0.65374 0.53723 0.35972 0.0
C633 C 0.68345 0.55795 0.36794 0.0
C634 C 0.33941 0.03674 0.20828 0.0
C635 C 0.34589 0.06236 0.23353 0.0
C636 C 0.35931 0.00962 0.20631 0.0
C637 C 0.38603 0.00685 0.22988 0.0
H638 H 0.31867 0.03752 0.19006 0.0
H639 H 0.35343 0.99044 0.18643 0.0
S640 S 0.41171 0.06646 0.30226 0.0
N641 N 0.3804 0.08314 0.28289 0.0
N642 N 0.41678 0.03159 0.28022 0.0
C643 C 0.39268 0.03242 0.25528 0.0
C644 C 0.37285 0.0603 0.25686 0.0
C645 C 0.11028 0.98857 0.68406 0.0
C646 C 0.13644 0.00109 0.66618 0.0
C647 C 0.08275 0.0069 0.68956 0.0
C648 C 0.07997 0.03835 0.67704 0.0
H649 H 0.11141 0.96472 0.69468 0.0
H650 H 0.06372 0.99653 0.70428 0.0
S651 S 0.14026 0.08097 0.62586 0.0
N652 N 0.15721 0.0462 0.63456 0.0
N653 N 0.1048 0.08024 0.64393 0.0
C654 C 0.10556 0.05083 0.65834 0.0
C655 C 0.13389 0.03229 0.6531 0.0
C656 C 0.6952 0.83246 0.37636 0.0
C657 C 0.67104 0.82539 0.34975 0.0
C658 C 0.69989 0.86412 0.3928 0.0
C659 C 0.6805 0.89012 0.38355 0.0
H660 H 0.7106 0.81332 0.38481 0.0
H661 H 0.71888 0.86821 0.41309 0.0
S662 S 0.61431 0.88517 0.3151 0.0
N663 N 0.62798 0.84752 0.31428 0.0
N664 N 0.63656 0.90698 0.3457 0.0
C665 C 0.65673 0.88375 0.35655 0.0
C666 C 0.65201 0.85142 0.3396 0.0
C667 C 0.67188 0.11905 0.04391 0.0
C668 C 0.68589 0.15045 0.05659 0.0
C669 C 0.6791 0.0902 0.05951 0.0
C670 C 0.7009 0.09149 0.08823 0.0
H671 H 0.65554 0.11663 0.02144 0.0
H672 H 0.66791 0.06656 0.04862 0.0
S673 S 0.74409 0.16755 0.13155 0.0
N674 N 0.72203 0.18124 0.10013 0.0
N675 N 0.73626 0.12683 0.1289 0.0
C676 C 0.71446 0.12279 0.10168 0.0
C677 C 0.70683 0.15229 0.08597 0.0
C678 C 0.33226 0.70285 0.57742 0.0
C679 C 0.31545 0.70732 0.60655 0.0
C680 C 0.32415 0.67522 0.55483 0.0
C681 C 0.29848 0.65132 0.5602 0.0
H682 H 0.35201 0.72071 0.57211 0.0
H683 H 0.33839 0.67243 0.53318 0.0
S684 S 0.24522 0.65299 0.63159 0.0
N685 N 0.27149 0.686 0.63923 0.0
N686 N 0.25511 0.63512 0.59608 0.0
C687 C 0.2812 0.65582 0.58908 0.0
C688 C 0.28996 0.68352 0.61241 0.0
C689 C 0.24371 0.38361 0.04513 0.0
C690 C 0.22146 0.35522 0.04369 0.0
C691 C 0.24149 0.40685 0.02106 0.0
C692 C 0.21677 0.40279 0.99471 0.0
H693 H 0.26367 0.38752 0.06449 0.0
H694 H 0.25985 0.42775 0.02264 0.0
S695 S 0.15016 0.3347 0.98159 0.0
N696 N 0.17255 0.32544 0.0149 0.0
N697 N 0.16791 0.36965 0.97008 0.0
C698 C 0.19362 0.37514 0.99359 0.0
C699 C 0.19605 0.35127 0.01798 0.0
C700 C 0.45724 0.75967 0.86149 0.0
C701 C 0.42949 0.73652 0.85826 0.0
C702 C 0.47795 0.76382 0.89084 0.0
C703 C 0.47182 0.74477 0.91794 0.0
H704 H 0.46278 0.77509 0.84137 0.0
H705 H 0.49855 0.78251 0.89254 0.0
S706 S 0.40438 0.67847 0.92099 0.0
N707 N 0.39806 0.693 0.88408 0.0
N708 N 0.43748 0.70024 0.93885 0.0
C709 C 0.44469 0.72091 0.91472 0.0
C710 C 0.42341 0.71692 0.885 0.0
C711 C 0.06465 0.65024 0.14962 0.0
C712 C 0.03263 0.66079 0.15385 0.0
C713 C 0.08148 0.65749 0.12147 0.0
C714 C 0.06707 0.67581 0.09655 0.0
H715 H 0.07698 0.63645 0.16832 0.0
H716 H 0.10606 0.64878 0.11928 0.0
S717 S 0.98421 0.71029 0.09626 0.0
N718 N 0.98721 0.6907 0.13074 0.0
N719 N 0.0192 0.70508 0.07839 0.0
C720 C 0.03498 0.68635 0.10037 0.0
C721 C 0.01769 0.67866 0.12886 0.0
C722 C 0.58459 0.35656 0.69615 0.0
C723 C 0.6037 0.32872 0.69497 0.0
C724 C 0.56143 0.36169 0.66992 0.0
C725 C 0.55694 0.33932 0.64166 0.0
H726 H 0.58783 0.37468 0.71725 0.0
H727 H 0.54722 0.38345 0.67157 0.0
S728 S 0.59527 0.259 0.63005 0.0
N729 N 0.61305 0.27618 0.66551 0.0
N730 N 0.56954 0.28594 0.61633 0.0
C731 C 0.57459 0.31058 0.64101 0.0
C732 C 0.59808 0.30531 0.66761 0.0
C733 C 0.07937 0.22372 0.37641 0.0
C734 C 0.0788 0.20604 0.34524 0.0
C735 C 0.05337 0.21922 0.39718 0.0
C736 C 0.02594 0.19659 0.38777 0.0
H737 H 0.09935 0.24227 0.38432 0.0
H738 H 0.0542 0.2346 0.42021 0.0
S739 S 0.01483 0.14062 0.31087 0.0
N740 N 0.05 0.16282 0.30724 0.0
N741 N 0.00149 0.1537 0.34683 0.0
C742 C 0.02592 0.17741 0.35748 0.0
C743 C 0.05227 0.18226 0.33612 0.0
C744 C 0.27919 0.62853 0.39194 0.0
C745 C 0.29813 0.60619 0.37436 0.0
C746 C 0.27437 0.62558 0.42572 0.0
C747 C 0.28803 0.60005 0.44305 0.0
H748 H 0.26814 0.64852 0.37962 0.0
H749 H 0.2596 0.64325 0.43829 0.0
S750 S 0.3412 0.53627 0.40917 0.0
N751 N 0.33169 0.55837 0.37752 0.0
N752 N 0.32244 0.55293 0.44046 0.0
C753 C 0.30727 0.57781 0.42585 0.0
C754 C 0.31237 0.5809 0.3917 0.0
C755 C 0.22809 0.38857 0.82992 0.0
C756 C 0.20632 0.40175 0.8064 0.0
C757 C 0.23072 0.4008 0.86329 0.0
C758 C 0.21159 0.42659 0.87451 0.0
H759 H 0.24343 0.36878 0.8225 0.0
H760 H 0.24807 0.39012 0.88042 0.0
S761 S 0.14933 0.46833 0.82364 0.0
N762 N 0.16443 0.44146 0.79712 0.0
N763 N 0.16913 0.46393 0.8599 0.0
C764 C 0.18953 0.43981 0.85141 0.0
C765 C 0.18694 0.42751 0.81739 0.0
C766 C 0.7424 0.97326 0.54063 0.0
C767 C 0.72485 0.95384 0.56217 0.0
C768 C 0.73198 0.97334 0.50702 0.0
C769 C 0.7033 0.95433 0.49347 0.0
H770 H 0.76489 0.98806 0.54959 0.0
H771 H 0.74708 0.98791 0.49135 0.0
S772 S 0.64696 0.90116 0.53973 0.0
N773 N 0.67655 0.91604 0.56788 0.0
N774 N 0.65646 0.91688 0.50461 0.0
C775 C 0.68505 0.9353 0.51481 0.0
C776 C 0.6959 0.93492 0.54915 0.0
C777 C 0.74409 0.04158 0.24152 0.0
C778 C 0.73324 0.01148 0.25421 0.0
C779 C 0.73888 0.04666 0.20765 0.0
C780 C 0.72279 0.02173 0.1852 0.0
H781 H 0.75722 0.06117 0.25781 0.0
H782 H 0.74862 0.06982 0.19881 0.0
S783 S 0.6892 0.93856 0.20604 0.0
N784 N 0.70631 0.95616 0.24158 0.0
N785 N 0.69439 0.96649 0.17851 0.0
C786 C 0.71089 0.9919 0.19783 0.0
C787 C 0.71665 0.98657 0.23219 0.0
C788 C 0.39167 0.3254 0.61295 0.0
C789 C 0.37126 0.34622 0.59562 0.0
C790 C 0.4263 0.3284 0.61155 0.0
C791 C 0.44182 0.35261 0.59308 0.0
H792 H 0.38077 0.306 0.62691 0.0
H793 H 0.44089 0.31091 0.6242 0.0
S794 S 0.3997 0.41666 0.54764 0.0
N795 N 0.36922 0.39405 0.56224 0.0
N796 N 0.43415 0.39994 0.55995 0.0
C797 C 0.42172 0.37461 0.57699 0.0
C798 C 0.38651 0.37139 0.57821 0.0
C799 C 0.2162 0.76212 0.04382 0.0
C800 C 0.24058 0.74347 0.05858 0.0
C801 C 0.18283 0.74993 0.03991 0.0
C802 C 0.17265 0.71897 0.05122 0.0
H803 H 0.22312 0.78589 0.03439 0.0
H804 H 0.16484 0.76477 0.02791 0.0
S805 S 0.22656 0.66159 0.09345 0.0
N806 N 0.25214 0.69339 0.08606 0.0
N807 N 0.18937 0.67035 0.07857 0.0
C808 C 0.19666 0.7005 0.06682 0.0
C809 C 0.23067 0.71279 0.07053 0.0
C810 C 0.8603 0.1785 0.35683 0.0
C811 C 0.83902 0.203 0.36672 0.0
C812 C 0.89208 0.17727 0.37247 0.0
C813 C 0.90388 0.20034 0.39877 0.0
H814 H 0.85233 0.15982 0.337 0.0
H815 H 0.90743 0.15782 0.36415 0.0
S816 S 0.85915 0.27042 0.43338 0.0
N817 N 0.83277 0.25163 0.40412 0.0
N818 N 0.89265 0.2492 0.43328 0.0
C819 C 0.88321 0.2252 0.40876 0.0
C820 C 0.85081 0.22659 0.39276 0.0
C821 C 0.63692 0.74479 0.96006 0.0
C822 C 0.65508 0.77232 0.97716 0.0
C823 C 0.60223 0.74066 0.96068 0.0
C824 C 0.58448 0.76391 0.97839 0.0
H825 H 0.64961 0.72607 0.94644 0.0
H826 H 0.58923 0.7189 0.94754 0.0
S827 S 0.61964 0.84201 0.02441 0.0
N828 N 0.65217 0.82433 0.01058 0.0
N829 N 0.58718 0.81654 0.01137 0.0
C830 C 0.60218 0.79189 0.99491 0.0
C831 C 0.6374 0.7961 0.99438 0.0
C832 C 0.5636 0.38215 0.26566 0.0
C833 C 0.58584 0.36493 0.28512 0.0
C834 C 0.55969 0.41605 0.27308 0.0
C835 C 0.5782 0.43393 0.3 0.0
H836 H 0.54906 0.36931 0.24466 0.0
H837 H 0.54246 0.42841 0.25729 0.0
S838 S 0.64188 0.40025 0.35611 0.0
N839 N 0.62833 0.3683 0.33037 0.0
N840 N 0.62012 0.43146 0.34561 0.0
C841 C 0.60074 0.41676 0.31934 0.0
C842 C 0.60477 0.38241 0.31159 0.0
C843 C 0.05963 0.19156 0.74544 0.0
C844 C 0.03754 0.21391 0.73299 0.0
C845 C 0.0558 0.15759 0.73527 0.0
C846 C 0.02966 0.14469 0.71233 0.0
H847 H 0.08019 0.20043 0.76298 0.0
H848 H 0.07325 0.14127 0.74579 0.0
S849 S 0.96364 0.19285 0.67437 0.0
N850 N 0.98697 0.22051 0.69896 0.0
N851 N 0.98115 0.15737 0.67771 0.0
C852 C 0.00722 0.16692 0.69996 0.0
C853 C 0.01082 0.20134 0.71081 0.0
C854 C 0.36376 0.83703 0.25627 0.0
C855 C 0.34647 0.82275 0.22698 0.0
C856 C 0.38354 0.8668 0.25625 0.0
C857 C 0.3861 0.88351 0.22707 0.0
H858 H 0.36221 0.82495 0.2793 0.0
H859 H 0.39637 0.87719 0.27933 0.0
S860 S 0.34504 0.85701 0.14416 0.0
N861 N 0.33276 0.82771 0.16818 0.0
N862 N 0.3697 0.88403 0.1683 0.0
C863 C 0.36882 0.86965 0.19768 0.0
C864 C 0.34905 0.8391 0.19758 0.0
C865 C 0.94309 0.57691 0.70901 0.0
C866 C 0.96632 0.58523 0.73628 0.0
C867 C 0.93861 0.54433 0.69432 0.0
C868 C 0.95727 0.51894 0.70632 0.0
H869 H 0.92831 0.59571 0.69881 0.0
H870 H 0.92062 0.539 0.6733 0.0
S871 S 0.01931 0.52672 0.77862 0.0
N872 N 0.00709 0.56461 0.77554 0.0
N873 N 0.99826 0.50364 0.74818 0.0
C874 C 0.98013 0.52672 0.73383 0.0
C875 C 0.98478 0.55978 0.74872 0.0
C876 C 0.66253 0.40295 0.60612 0.0
C877 C 0.66041 0.36949 0.61375 0.0
C878 C 0.65332 0.41202 0.57414 0.0
C879 C 0.64137 0.38793 0.5487 0.0
H880 H 0.67358 0.42206 0.62427 0.0
H881 H 0.65778 0.43779 0.56888 0.0
S882 S 0.62669 0.29738 0.55771 0.0
N883 N 0.64337 0.31255 0.59436 0.0
N884 N 0.62361 0.32959 0.53499 0.0
C885 C 0.63668 0.35466 0.55697 0.0
C886 C 0.64694 0.34542 0.58924 0.0
C887 C 0.84949 0.61601 0.23456 0.0
C888 C 0.82085 0.61029 0.2519 0.0
C889 C 0.84856 0.60951 0.19992 0.0
C890 C 0.81918 0.59643 0.18187 0.0
H891 H 0.87238 0.62654 0.24764 0.0
H892 H 0.87081 0.61487 0.18716 0.0
S893 S 0.73796 0.57617 0.21577 0.0
N894 N 0.76261 0.59031 0.24848 0.0
N895 N 0.7611 0.57772 0.18371 0.0
C896 C 0.79069 0.59002 0.19904 0.0
C897 C 0.79147 0.59707 0.234 0.0
C898 C 0.21107 0.11291 0.36918 0.0
C899 C 0.2415 0.10988 0.3547 0.0
C900 C 0.20861 0.1095 0.40325 0.0
C901 C 0.23631 0.10219 0.42364 0.0
H902 H 0.1893 0.11884 0.35427 0.0
H903 H 0.185 0.11276 0.41378 0.0
S904 S 0.32113 0.09077 0.3976 0.0
N905 N 0.29967 0.09878 0.36322 0.0
N906 N 0.29475 0.09156 0.42708 0.0
C907 C 0.26662 0.09846 0.40936 0.0
C908 C 0.2693 0.10256 0.3749 0.0
C909 C 0.25498 0.97114 0.79041 0.0
C910 C 0.27894 0.96191 0.76862 0.0
C911 C 0.26305 0.97623 0.82462 0.0
C912 C 0.29519 0.97172 0.83826 0.0
H913 H 0.23009 0.97544 0.78084 0.0
H914 H 0.24402 0.98391 0.84055 0.0
S915 S 0.36601 0.94483 0.792 0.0
N916 N 0.33543 0.94631 0.76308 0.0
N917 N 0.35068 0.95601 0.82759 0.0
C918 C 0.31906 0.96133 0.81686 0.0
C919 C 0.31091 0.95642 0.78195 0.0
C920 C 0.57063 0.67135 0.39704 0.0
C921 C 0.57682 0.66437 0.36369 0.0
C922 C 0.53941 0.66324 0.40852 0.0
C923 C 0.5134 0.64726 0.38716 0.0
H924 H 0.58952 0.68475 0.41397 0.0
H925 H 0.53528 0.67109 0.43393 0.0
S926 S 0.51953 0.61883 0.29867 0.0
N927 N 0.55619 0.638 0.31013 0.0
N928 N 0.49784 0.62112 0.33182 0.0
C929 C 0.52028 0.63814 0.35419 0.0
C930 C 0.5519 0.6471 0.34241 0.0
C931 C 0.7908 0.31866 0.97681 0.0
C932 C 0.77979 0.28724 0.98655 0.0
C933 C 0.82474 0.32717 0.97434 0.0
C934 C 0.84867 0.30463 0.98196 0.0
H935 H 0.7731 0.33681 0.97112 0.0
H936 H 0.83238 0.35176 0.9673 0.0
S937 S 0.83269 0.21879 0.00696 0.0
N938 N 0.79547 0.23312 0.00241 0.0
N939 N 0.85914 0.24924 0.99805 0.0
C940 C 0.83792 0.27291 0.99085 0.0
C941 C 0.80348 0.26414 0.99299 0.0
C942 C 0.21601 0.82359 0.6014 0.0
C943 C 0.22954 0.83813 0.63212 0.0
C944 C 0.18169 0.82037 0.59392 0.0
C945 C 0.15945 0.83239 0.61655 0.0
H946 H 0.23198 0.81275 0.58376 0.0
H947 H 0.17266 0.80671 0.57084 0.0
S948 S 0.18359 0.87746 0.69853 0.0
N949 N 0.21916 0.86705 0.68439 0.0
N950 N 0.15444 0.8635 0.66952 0.0
C951 C 0.17309 0.84921 0.64656 0.0
C952 C 0.20817 0.85147 0.65455 0.0
C953 C 0.3444 0.21466 0.07475 0.0
C954 C 0.32606 0.23594 0.05592 0.0
C955 C 0.37577 0.20597 0.06581 0.0
C956 C 0.39027 0.21892 0.03817 0.0
H957 H 0.33451 0.20481 0.09663 0.0
H958 H 0.38905 0.18945 0.08108 0.0
S959 S 0.35239 0.27718 0.98189 0.0
N960 N 0.32418 0.27 0.00872 0.0
N961 N 0.38371 0.25498 0.99261 0.0
C962 C 0.37185 0.24011 0.01903 0.0
C963 C 0.33965 0.24839 0.02781 0.0
C964 C 0.41047 0.60978 0.71397 0.0
C965 C 0.38266 0.62521 0.7014 0.0
C966 C 0.41671 0.57757 0.70214 0.0
C967 C 0.39501 0.55955 0.67774 0.0
H968 H 0.42766 0.62282 0.73285 0.0
H969 H 0.43833 0.56646 0.71261 0.0
S970 S 0.31761 0.58855 0.63867 0.0
N971 N 0.33257 0.62002 0.66454 0.0
N972 N 0.34419 0.55948 0.64209 0.0
C973 C 0.36686 0.57472 0.66536 0.0
C974 C 0.36072 0.60757 0.67724 0.0
C975 C 0.97039 0.7718 0.29928 0.0
C976 C 0.99689 0.75352 0.31012 0.0
C977 C 0.97046 0.80597 0.30761 0.0
C978 C 0.99719 0.82321 0.32691 0.0
H979 H 0.94946 0.75961 0.2841 0.0
H980 H 0.94975 0.81913 0.29816 0.0
S981 S 0.07322 0.78685 0.36043 0.0
N982 N 0.05131 0.75528 0.33978 0.0
N983 N 0.05076 0.81927 0.35687 0.0
C984 C 0.02383 0.80515 0.33802 0.0
C985 C 0.02384 0.77035 0.3293 0.0
C986 C 0.63486 0.18381 0.80596 0.0
C987 C 0.61559 0.20695 0.79073 0.0
C988 C 0.6247 0.14983 0.80311 0.0
C989 C 0.59526 0.13778 0.78436 0.0
H990 H 0.658 0.19203 0.82001 0.0
H991 H 0.64022 0.13279 0.81533 0.0
S992 S 0.53788 0.18852 0.7371 0.0
N993 N 0.56668 0.21578 0.75525 0.0
N994 N 0.54807 0.15194 0.74877 0.0
C995 C 0.57596 0.16087 0.76881 0.0
C996 C 0.58605 0.19544 0.77222 0.0
C997 C 0.13432 0.36063 0.24805 0.0
C998 C 0.10896 0.33557 0.23955 0.0
C999 C 0.1293 0.39399 0.24385 0.0
C1000 C 0.09885 0.40405 0.23022 0.0
H1001 H 0.15843 0.35447 0.2582 0.0
H1002 H 0.14963 0.41207 0.25192 0.0
S1003 S 0.02291 0.34826 0.20752 0.0
N1004 N 0.05078 0.32333 0.22103 0.0
N1005 N 0.04223 0.38567 0.2095 0.0
C1006 C 0.07293 0.37918 0.22205 0.0
C1007 C 0.07781 0.34509 0.22744 0.0
C1008 C 0.45637 0.54199 0.27861 0.0
C1009 C 0.44052 0.55292 0.30689 0.0
C1010 C 0.488 0.52974 0.28151 0.0
C1011 C 0.5051 0.52857 0.31271 0.0
H1012 H 0.44416 0.54255 0.25403 0.0
H1013 H 0.49933 0.52142 0.25919 0.0
S1014 S 0.47526 0.55402 0.39441 0.0
N1015 N 0.44472 0.5614 0.36734 0.0
N1016 N 0.50447 0.53902 0.37231 0.0
C1017 C 0.48987 0.53952 0.34113 0.0
C1018 C 0.45747 0.5515 0.33834 0.0
C1019 C 0.06347 0.41174 0.656 0.0
C1020 C 0.06917 0.3859 0.67697 0.0
C1021 C 0.03258 0.42557 0.65339 0.0
C1022 C 0.00614 0.4139 0.67137 0.0
H1023 H 0.08346 0.42264 0.64282 0.0
H1024 H 0.02975 0.44645 0.63821 0.0
S1025 S 0.00681 0.34446 0.72685 0.0
N1026 N 0.04455 0.34716 0.71358 0.0
N1027 N 0.98686 0.37359 0.70903 0.0
C1028 C 0.01079 0.3867 0.69068 0.0
C1029 C 0.0422 0.37259 0.69337 0.0
C1030 C 0.91504 0.00819 0.64597 0.0
C1031 C 0.89122 0.00986 0.66981 0.0
C1032 C 0.94723 0.02297 0.65266 0.0
C1033 C 0.957 0.04009 0.68345 0.0
H1034 H 0.9087 0.99587 0.62159 0.0
H1035 H 0.96436 0.02175 0.6332 0.0
S1036 S 0.90536 0.04963 0.75542 0.0
N1037 N 0.88042 0.02867 0.72627 0.0
N1038 N 0.9412 0.05624 0.7388 0.0
C1039 C 0.93389 0.04123 0.70791 0.0
C1040 C 0.90099 0.02612 0.70113 0.0
C1041 C 0.53631 0.98054 0.29133 0.0
C1042 C 0.56082 0.9633 0.27576 0.0
C1043 C 0.50286 0.97595 0.27977 0.0
C1044 C 0.49244 0.95375 0.25229 0.0
H1045 H 0.54296 0.99814 0.31243 0.0
H1046 H 0.48493 0.98987 0.29255 0.0
S1047 S 0.54621 0.90176 0.20306 0.0
N1048 N 0.57205 0.92244 0.23164 0.0
N1049 N 0.50896 0.91396 0.20998 0.0
C1050 C 0.51643 0.93586 0.23677 0.0
C1051 C 0.55065 0.94064 0.24843 0.0
C1052 C 0.2478 0.47424 0.54125 0.0
C1053 C 0.27635 0.46201 0.55664 0.0
C1054 C 0.24811 0.50695 0.53146 0.0
C1055 C 0.27676 0.52865 0.53735 0.0
H1056 H 0.2252 0.45831 0.53619 0.0
H1057 H 0.22591 0.5153 0.51909 0.0
S1058 S 0.35833 0.50911 0.57554 0.0
N1059 N 0.33457 0.47442 0.57601 0.0
N1060 N 0.33432 0.53597 0.55895 0.0
C1061 C 0.30524 0.51703 0.55304 0.0
C1062 C 0.30526 0.48368 0.56236 0.0
C1063 C 0.25977 0.56533 0.99602 0.0
C1064 C 0.23937 0.5893 0.98363 0.0
C1065 C 0.25368 0.53155 0.98606 0.0
C1066 C 0.22709 0.52032 0.96311 0.0
H1067 H 0.28067 0.57261 0.0137 0.0
H1068 H 0.27015 0.51407 0.99618 0.0
S1069 S 0.16578 0.57233 0.92348 0.0
N1070 N 0.19105 0.59906 0.94725 0.0
N1071 N 0.17977 0.53541 0.92862 0.0
C1072 C 0.20645 0.54382 0.95045 0.0
C1073 C 0.21249 0.5783 0.96073 0.0
C1074 C 0.69611 0.05477 0.34955 0.0
C1075 C 0.72653 0.07271 0.35968 0.0
C1076 C 0.68618 0.02559 0.3645 0.0
C1077 C 0.70609 0.01379 0.3904 0.0
H1078 H 0.68015 0.06297 0.3296 0.0
H1079 H 0.66278 0.01227 0.35587 0.0
S1080 S 0.78778 0.05163 0.42623 0.0
N1081 N 0.77625 0.07645 0.39747 0.0
N1082 N 0.75764 0.02198 0.42525 0.0
C1083 C 0.73633 0.03168 0.40089 0.0
C1084 C 0.74656 0.06101 0.38558 0.0
C1085 C 0.76783 0.92825 0.05579 0.0
C1086 C 0.74439 0.91596 0.02989 0.0
C1087 C 0.76322 0.95738 0.07521 0.0
C1088 C 0.73508 0.97541 0.06939 0.0
H1089 H 0.78945 0.91477 0.06185 0.0
H1090 H 0.7815 0.9655 0.09537 0.0
S1091 S 0.66695 0.95491 0.00388 0.0
N1092 N 0.69262 0.92523 0.99859 0.0
N1093 N 0.68387 0.97952 0.03548 0.0
C1094 C 0.71207 0.96415 0.04287 0.0
C1095 C 0.71675 0.93456 0.02303 0.0
C1096 C 0.55862 0.3268 0.47216 0.0
C1097 C 0.55808 0.35576 0.45455 0.0
C1098 C 0.54862 0.32652 0.5047 0.0
C1099 C 0.53764 0.35514 0.52084 0.0
H1100 H 0.56648 0.30395 0.46065 0.0
H1101 H 0.54889 0.30359 0.51713 0.0
S1102 S 0.53302 0.43781 0.4872 0.0
N1103 N 0.54662 0.41427 0.45678 0.0
N1104 N 0.52804 0.41345 0.51797 0.0
C1105 C 0.53767 0.38442 0.5041 0.0
C1106 C 0.54791 0.38483 0.47099 0.0
C1107 C 0.9815 0.23419 0.55254 0.0
C1108 C 0.00153 0.21259 0.56948 0.0
C1109 C 0.97201 0.22819 0.51864 0.0
C1110 C 0.9824 0.20051 0.50032 0.0
H1111 H 0.97348 0.2563 0.56539 0.0
H1112 H 0.95748 0.24603 0.50642 0.0
S1113 S 0.03268 0.13483 0.53296 0.0
N1114 N 0.02967 0.16113 0.56543 0.0
N1115 N 0.01187 0.15013 0.50164 0.0
C1116 C 0.00141 0.17808 0.51701 0.0
C1117 C 0.01093 0.18402 0.55161 0.0
C1118 C 0.47062 0.74185 0.09478 0.0
C1119 C 0.44573 0.76416 0.09959 0.0
C1120 C 0.48838 0.74147 0.06616 0.0
C1121 C 0.48183 0.76333 0.04133 0.0
H1122 H 0.47582 0.72384 0.11276 0.0
H1123 H 0.50651 0.72316 0.06287 0.0
S1124 S 0.42276 0.82957 0.04367 0.0
N1125 N 0.41794 0.8109 0.0783 0.0
N1126 N 0.45134 0.80991 0.02456 0.0
C1127 C 0.45822 0.78675 0.04643 0.0
C1128 C 0.44018 0.78725 0.07555 0.0
C1129 C 0.04165 0.65064 0.92999 0.0
C1130 C 0.04211 0.67634 0.90807 0.0
C1131 C 0.05644 0.6556 0.96235 0.0
C1132 C 0.07243 0.6864 0.97412 0.0
H1133 H 0.02997 0.62628 0.92212 0.0
H1134 H 0.05582 0.63495 0.97812 0.0
S1135 S 0.0795 0.76236 0.92767 0.0
N1136 N 0.05922 0.73422 0.90106 0.0
N1137 N 0.0869 0.74342 0.96206 0.0
C1138 C 0.0728 0.71249 0.95278 0.0
C1139 C 0.05762 0.70751 0.91977 0.0
C1140 C 0.51584 0.44496 0.61833 0.0
C1141 C 0.54054 0.45399 0.64414 0.0
C1142 C 0.48351 0.45535 0.62001 0.0
C1143 C 0.47473 0.4752 0.64742 0.0
H1144 H 0.5212 0.42915 0.59696 0.0
H1145 H 0.46519 0.44776 0.59984 0.0
S1146 S 0.52995 0.50612 0.72135 0.0
N1147 N 0.55389 0.48477 0.69768 0.0
N1148 N 0.49311 0.50357 0.70091 0.0
C1149 C 0.49924 0.48489 0.67308 0.0
C1150 C 0.53212 0.47445 0.67142 0.0
C1151 C 0.99438 0.54762 0.22433 0.0
C1152 C 0.97589 0.54178 0.25193 0.0
C1153 C 0.02278 0.53065 0.2185 0.0
C1154 C 0.03388 0.50702 0.23993 0.0
H1155 H 0.98707 0.56565 0.20708 0.0
H1156 H 0.0362 0.53606 0.19695 0.0
S1157 S 0.99519 0.48288 0.31619 0.0
N1158 N 0.97114 0.5106 0.30117 0.0
N1159 N 0.02477 0.47911 0.29025 0.0
C1160 C 0.01572 0.50078 0.26757 0.0
C1161 C 0.98673 0.51808 0.27358 0.0
C1162 C 0.09072 0.98634 0.33839 0.0
C1163 C 0.1067 0.98249 0.30861 0.0
C1164 C 0.06425 0.96433 0.34524 0.0
C1165 C 0.05272 0.93752 0.32266 0.0
H1166 H 0.0986 0.0066 0.35664 0.0
H1167 H 0.05272 0.96831 0.36847 0.0
S1168 S 0.08495 0.91672 0.24069 0.0
N1169 N 0.10852 0.94974 0.25609 0.0
N1170 N 0.05851 0.90869 0.26898 0.0
C1171 C 0.06837 0.93324 0.29283 0.0
C1172 C 0.09539 0.95565 0.2858 0.0
C1173 C 0.46586 0.01123 0.73124 0.0
C1174 C 0.44101 0.02062 0.75193 0.0
C1175 C 0.49918 0.02183 0.73905 0.0
C1176 C 0.50927 0.04196 0.76813 0.0
H1177 H 0.45953 0.99616 0.70828 0.0
H1178 H 0.5171 0.01484 0.72155 0.0
S1179 S 0.45435 0.07128 0.83222 0.0
N1180 N 0.42887 0.05005 0.80369 0.0
N1181 N 0.49191 0.06937 0.81876 0.0
C1182 C 0.48484 0.05092 0.78957 0.0
C1183 C 0.45066 0.04034 0.78142 0.0
C1184 C 0.59613 0.50685 0.42418 0.0
C1185 C 0.61382 0.53541 0.43989 0.0
C1186 C 0.60104 0.47517 0.43503 0.0
C1187 C 0.6229 0.47094 0.4627 0.0
H1188 H 0.5796 0.50871 0.4023 0.0
H1189 H 0.58813 0.45376 0.42123 0.0
S1190 S 0.67367 0.53764 0.51375 0.0
N1191 N 0.65324 0.55737 0.48529 0.0
N1192 N 0.66164 0.4979 0.50613 0.0
C1193 C 0.63966 0.49933 0.47946 0.0
C1194 C 0.63527 0.53153 0.468 0.0
C1195 C 0.79435 0.46236 0.07199 0.0
C1196 C 0.76419 0.45749 0.05219 0.0
C1197 C 0.80607 0.49398 0.08582 0.0
C1198 C 0.78824 0.52199 0.08021 0.0
H1199 H 0.80907 0.44159 0.07701 0.0
H1200 H 0.82937 0.49658 0.10089 0.0
S1201 S 0.70737 0.52296 0.03155 0.0
N1202 N 0.71641 0.48369 0.0284 0.0
N1203 N 0.73848 0.54295 0.05466 0.0
C1204 C 0.75806 0.51761 0.06064 0.0
C1205 C 0.74603 0.48542 0.04658 0.0
C1206 C 0.23653 0.97895 0.5287 0.0
C1207 C 0.25967 0.97927 0.55633 0.0
C1208 C 0.22948 0.00834 0.51382 0.0
C1209 C 0.24534 0.03916 0.52595 0.0
H1210 H 0.22354 0.95586 0.51856 0.0
H1211 H 0.21127 0.00695 0.49282 0.0
S1212 S 0.30972 0.05335 0.59608 0.0
N1213 N 0.29935 0.01308 0.59439 0.0
N1214 N 0.28661 0.06799 0.56599 0.0
C1215 C 0.26887 0.03978 0.55323 0.0
C1216 C 0.27589 0.00995 0.56851 0.0
C1217 C 0.2993 0.10901 0.94219 0.0
C1218 C 0.27958 0.11146 0.96953 0.0
C1219 C 0.30614 0.07801 0.92761 0.0
C1220 C 0.29348 0.04828 0.93976 0.0
H1221 H 0.30996 0.13118 0.93219 0.0
H1222 H 0.32184 0.07729 0.90692 0.0
S1223 S 0.23832 0.04084 0.00898 0.0
N1224 N 0.24617 0.08124 0.00715 0.0
N1225 N 0.25868 0.02312 0.97934 0.0
C1226 C 0.27321 0.05031 0.96662 0.0
C1227 C 0.26633 0.08185 0.98158 0.0
C1228 C 0.45223 0.66488 0.5348 0.0
C1229 C 0.42532 0.64786 0.54815 0.0
C1230 C 0.45868 0.65917 0.50141 0.0
C1231 C 0.43862 0.63604 0.48006 0.0
H1232 H 0.46769 0.68381 0.54983 0.0
H1233 H 0.47856 0.67424 0.49187 0.0
S1234 S 0.36873 0.58103 0.50412 0.0
N1235 N 0.38078 0.60424 0.53839 0.0
N1236 N 0.39326 0.59325 0.47557 0.0
C1237 C 0.4129 0.61741 0.49355 0.0
C1238 C 0.40618 0.62336 0.52758 0.0
C1239 C 0.02168 0.79354 0.48842 0.0
C1240 C 0.04015 0.77323 0.46804 0.0
C1241 C 0.03399 0.80502 0.52068 0.0
C1242 C 0.06545 0.79713 0.53344 0.0
H1243 H 0.99712 0.79987 0.47979 0.0
H1244 H 0.01865 0.81985 0.53589 0.0
S1245 S 0.1243 0.74601 0.48984 0.0
N1246 N 0.09207 0.74672 0.46273 0.0
N1247 N 0.11503 0.76826 0.5232 0.0
C1248 C 0.08453 0.77762 0.51304 0.0
C1249 C 0.07193 0.76568 0.48039 0.0
C1250 C 0.4866 0.22786 0.90828 0.0
C1251 C 0.50999 0.20559 0.8982 0.0
C1252 C 0.47191 0.22544 0.93853 0.0
C1253 C 0.48011 0.20076 0.95994 0.0
H1254 H 0.48042 0.24815 0.89333 0.0
H1255 H 0.45529 0.2441 0.94596 0.0
S1256 S 0.53621 0.13357 0.94356 0.0
N1257 N 0.53794 0.15583 0.91084 0.0
N1258 N 0.51033 0.15162 0.96775 0.0
C1259 C 0.50187 0.17717 0.94942 0.0
C1260 C 0.51675 0.17946 0.91852 0.0
C1261 C 0.00839 0.3394 0.07913 0.0
C1262 C 0.00769 0.31052 0.0968 0.0
C1263 C 0.98575 0.34244 0.05199 0.0
C1264 C 0.96138 0.31685 0.04157 0.0
H1265 H 0.02683 0.35975 0.08597 0.0
H1266 H 0.98746 0.36496 0.03888 0.0
S1267 S 0.9484 0.23626 0.07924 0.0
N1268 N 0.97996 0.2559 0.10201 0.0
N1269 N 0.93767 0.26173 0.05076 0.0
C1270 C 0.95993 0.28807 0.05921 0.0
C1271 C 0.98304 0.28486 0.08685 0.0
loop_
_geom_bond_atom_site_label_1
_geom_bond_atom_site_label_2
_geom_bond_distance
_geom_bond_site_symmetry_2
_ccdc_geom_bond_type
O0 Cd1 2.300 . S
O0 C7 1.275 . S
Cd1 O0 2.300 . S
Cd1 O9 2.381 . S
Cd1 O10 2.378 . S
O2 Cd3 2.385 . S
O2 C7 1.255 . S
Cd3 O2 2.385 . S
Cd3 O4 2.317 . S
O4 Cd3 2.317 . S
O4 C5 1.232 . S
C5 O4 1.232 . S
C5 O6 1.218 . S
O6 C5 1.218 . S
C7 O0 1.275 . S
C7 O2 1.255 . S
C8 O9 1.258 . S
C8 O10 1.256 . S
O9 Cd1 2.381 . S
O9 C8 1.258 . S
O10 Cd1 2.378 . S
O10 C8 1.256 . S
O11 Cd12 2.300 . S
O11 C18 1.275 . S
Cd12 O11 2.300 . S
Cd12 O20 2.381 . S
Cd12 O21 2.378 . S
O13 Cd14 2.385 . S
O13 C18 1.255 . S
Cd14 O13 2.385 . S
Cd14 O15 2.317 . S
O15 Cd14 2.317 . S
O15 C16 1.232 . S
C16 O15 1.232 . S
C16 O17 1.218 . S
O17 C16 1.218 . S
C18 O11 1.275 . S
C18 O13 1.255 . S
C19 O20 1.258 . S
C19 O21 1.256 . S
O20 Cd12 2.381 . S
O20 C19 1.258 . S
O21 Cd12 2.378 . S
O21 C19 1.256 . S
O22 Cd23 2.300 . S
O22 C29 1.275 . S
Cd23 O22 2.300 . S
Cd23 O31 2.381 1_565 S
Cd23 O32 2.378 . S
O24 Cd25 2.385 . S
O24 C29 1.255 . S
Cd25 O24 2.385 . S
Cd25 O26 2.317 . S
O26 Cd25 2.317 . S
O26 C27 1.232 . S
C27 O26 1.232 . S
C27 O28 1.218 . S
O28 C27 1.218 . S
C29 O22 1.275 . S
C29 O24 1.255 . S
C30 O31 1.258 . S
C30 O32 1.256 1_545 S
O31 Cd23 2.381 1_545 S
O31 C30 1.258 . S
O32 Cd23 2.378 . S
O32 C30 1.256 1_565 S
O33 Cd34 2.300 . S
O33 C40 1.275 . S
Cd34 O33 2.300 . S
Cd34 O42 2.381 1_545 S
Cd34 O43 2.378 . S
O35 Cd36 2.385 . S
O35 C40 1.255 . S
Cd36 O35 2.385 . S
Cd36 O37 2.317 . S
O37 Cd36 2.317 . S
O37 C38 1.232 . S
C38 O37 1.232 . S
C38 O39 1.218 . S
O39 C38 1.218 . S
C40 O33 1.275 . S
C40 O35 1.255 . S
C41 O42 1.258 . S
C41 O43 1.256 1_565 S
O42 Cd34 2.381 1_565 S
O42 C41 1.258 . S
O43 Cd34 2.378 . S
O43 C41 1.256 1_545 S
O44 Cd45 2.300 . S
O44 C51 1.275 . S
Cd45 O44 2.300 . S
Cd45 O53 2.381 . S
Cd45 O54 2.378 . S
O46 Cd47 2.385 . S
O46 C51 1.255 . S
Cd47 O46 2.385 . S
Cd47 O48 2.317 . S
O48 Cd47 2.317 . S
O48 C49 1.232 . S
C49 O48 1.232 . S
C49 O50 1.218 . S
O50 C49 1.218 . S
C51 O44 1.275 . S
C51 O46 1.255 . S
C52 O53 1.258 . S
C52 O54 1.256 . S
O53 Cd45 2.381 . S
O53 C52 1.258 . S
O54 Cd45 2.378 . S
O54 C52 1.256 . S
O55 Cd56 2.300 . S
O55 C62 1.275 . S
Cd56 O55 2.300 . S
Cd56 O64 2.381 1_554 S
Cd56 O65 2.378 . S
O57 Cd58 2.385 . S
O57 C62 1.255 . S
Cd58 O57 2.385 . S
Cd58 O59 2.317 . S
O59 Cd58 2.317 . S
O59 C60 1.232 . S
C60 O59 1.232 . S
C60 O61 1.218 . S
O61 C60 1.218 . S
C62 O55 1.275 . S
C62 O57 1.255 . S
C63 O64 1.258 . S
C63 O65 1.256 1_556 S
O64 Cd56 2.381 1_556 S
O64 C63 1.258 . S
O65 Cd56 2.378 . S
O65 C63 1.256 1_554 S
O66 Cd67 2.300 . S
O66 C73 1.275 . S
Cd67 O66 2.300 . S
Cd67 O75 2.381 . S
Cd67 O76 2.378 . S
O68 Cd69 2.385 . S
O68 C73 1.255 . S
Cd69 O68 2.385 . S
Cd69 O70 2.317 . S
O70 Cd69 2.317 . S
O70 C71 1.232 . S
C71 O70 1.232 . S
C71 O72 1.218 . S
O72 C71 1.218 . S
C73 O66 1.275 . S
C73 O68 1.255 . S
C74 O75 1.258 . S
C74 O76 1.256 . S
O75 Cd67 2.381 . S
O75 C74 1.258 . S
O76 Cd67 2.378 . S
O76 C74 1.256 . S
O77 Cd78 2.300 . S
O77 C84 1.275 . S
Cd78 O77 2.300 . S
Cd78 O86 2.381 1_556 S
Cd78 O87 2.378 . S
O79 Cd80 2.385 . S
O79 C84 1.255 . S
Cd80 O79 2.385 . S
Cd80 O81 2.317 . S
O81 Cd80 2.317 . S
O81 C82 1.232 . S
C82 O81 1.232 . S
C82 O83 1.218 . S
O83 C82 1.218 . S
C84 O77 1.275 . S
C84 O79 1.255 . S
C85 O86 1.258 . S
C85 O87 1.256 1_554 S
O86 Cd78 2.381 1_554 S
O86 C85 1.258 . S
O87 Cd78 2.378 . S
O87 C85 1.256 1_556 S
O88 Cd89 2.300 . S
O88 C95 1.275 . S
Cd89 O88 2.300 . S
Cd89 O97 2.381 . S
Cd89 O98 2.378 . S
O90 Cd91 2.385 . S
O90 C95 1.255 . S
Cd91 O90 2.385 . S
Cd91 O92 2.317 . S
O92 Cd91 2.317 . S
O92 C93 1.232 . S
C93 O92 1.232 . S
C93 O94 1.218 . S
O94 C93 1.218 . S
C95 O88 1.275 . S
C95 O90 1.255 . S
C96 O97 1.258 . S
C96 O98 1.256 . S
O97 Cd89 2.381 . S
O97 C96 1.258 . S
O98 Cd89 2.378 . S
O98 C96 1.256 . S
O99 Cd100 2.300 . S
O99 C106 1.275 . S
Cd100 O99 2.300 . S
Cd100 O108 2.381 1_455 S
Cd100 O109 2.378 . S
O101 Cd102 2.385 . S
O101 C106 1.255 . S
Cd102 O101 2.385 . S
Cd102 O103 2.317 . S
O103 Cd102 2.317 . S
O103 C104 1.232 . S
C104 O103 1.232 . S
C104 O105 1.218 . S
O105 C104 1.218 . S
C106 O99 1.275 . S
C106 O101 1.255 . S
C107 O108 1.258 . S
C107 O109 1.256 1_655 S
O108 Cd100 2.381 1_655 S
O108 C107 1.258 . S
O109 Cd100 2.378 . S
O109 C107 1.256 1_455 S
O110 Cd111 2.300 . S
O110 C117 1.275 . S
Cd111 O110 2.300 . S
Cd111 O119 2.381 . S
Cd111 O120 2.378 . S
O112 Cd113 2.385 . S
O112 C117 1.255 . S
Cd113 O112 2.385 . S
Cd113 O114 2.317 . S
O114 Cd113 2.317 . S
O114 C115 1.232 . S
C115 O114 1.232 . S
C115 O116 1.218 . S
O116 C115 1.218 . S
C117 O110 1.275 . S
C117 O112 1.255 . S
C118 O119 1.258 . S
C118 O120 1.256 . S
O119 Cd111 2.381 . S
O119 C118 1.258 . S
O120 Cd111 2.378 . S
O120 C118 1.256 . S
O121 Cd122 2.300 . S
O121 C128 1.275 . S
Cd122 O121 2.300 . S
Cd122 O130 2.381 1_655 S
Cd122 O131 2.378 . S
O123 Cd124 2.385 . S
O123 C128 1.255 . S
Cd124 O123 2.385 . S
Cd124 O125 2.317 . S
O125 Cd124 2.317 . S
O125 C126 1.232 . S
C126 O125 1.232 . S
C126 O127 1.218 . S
O127 C126 1.218 . S
C128 O121 1.275 . S
C128 O123 1.255 . S
C129 O130 1.258 . S
C129 O131 1.256 1_455 S
O130 Cd122 2.381 1_455 S
O130 C129 1.258 . S
O131 Cd122 2.378 . S
O131 C129 1.256 1_655 S
O132 Cd133 2.300 . S
O132 C139 1.275 . S
Cd133 O132 2.300 . S
Cd133 O141 2.381 . S
Cd133 O142 2.378 . S
O134 Cd135 2.385 . S
O134 C139 1.255 . S
Cd135 O134 2.385 . S
Cd135 O136 2.317 . S
O136 Cd135 2.317 . S
O136 C137 1.232 . S
C137 O136 1.232 . S
C137 O138 1.218 . S
O138 C137 1.218 . S
C139 O132 1.275 . S
C139 O134 1.255 . S
C140 O141 1.258 . S
C140 O142 1.256 . S
O141 Cd133 2.381 . S
O141 C140 1.258 . S
O142 Cd133 2.378 . S
O142 C140 1.256 . S
O143 Cd144 2.300 . S
O143 C150 1.275 . S
Cd144 O143 2.300 . S
Cd144 O152 2.381 . S
Cd144 O153 2.378 . S
O145 Cd146 2.385 . S
O145 C150 1.255 . S
Cd146 O145 2.385 . S
Cd146 O147 2.317 . S
O147 Cd146 2.317 . S
O147 C148 1.232 . S
C148 O147 1.232 . S
C148 O149 1.218 . S
O149 C148 1.218 . S
C150 O143 1.275 . S
C150 O145 1.255 . S
C151 O152 1.258 . S
C151 O153 1.256 . S
O152 Cd144 2.381 . S
O152 C151 1.258 . S
O153 Cd144 2.378 . S
O153 C151 1.256 . S
O154 Cd155 2.300 1_545 S
O154 C161 1.275 . S
Cd155 O154 2.300 1_565 S
Cd155 O163 2.381 1_565 S
Cd155 O164 2.378 . S
O156 Cd157 2.385 . S
O156 C161 1.255 1_565 S
Cd157 O156 2.385 . S
Cd157 O158 2.317 . S
O158 Cd157 2.317 . S
O158 C159 1.232 . S
C159 O158 1.232 . S
C159 O160 1.218 . S
O160 C159 1.218 . S
C161 O154 1.275 . S
C161 O156 1.255 1_545 S
C162 O163 1.258 1_565 S
C162 O164 1.256 . S
O163 Cd155 2.381 1_545 S
O163 C162 1.258 1_545 S
O164 Cd155 2.378 . S
O164 C162 1.256 . S
O165 Cd166 2.300 1_565 S
O165 C172 1.275 . S
Cd166 O165 2.300 1_545 S
Cd166 O174 2.381 1_545 S
Cd166 O175 2.378 . S
O167 Cd168 2.385 . S
O167 C172 1.255 1_545 S
Cd168 O167 2.385 . S
Cd168 O169 2.317 . S
O169 Cd168 2.317 . S
O169 C170 1.232 . S
C170 O169 1.232 . S
C170 O171 1.218 . S
O171 C170 1.218 . S
C172 O165 1.275 . S
C172 O167 1.255 1_565 S
C173 O174 1.258 1_545 S
C173 O175 1.256 . S
O174 Cd166 2.381 1_565 S
O174 C173 1.258 1_565 S
O175 Cd166 2.378 . S
O175 C173 1.256 . S
O176 Cd177 2.300 . S
O176 C183 1.275 . S
Cd177 O176 2.300 . S
Cd177 O185 2.381 . S
Cd177 O186 2.378 . S
O178 Cd179 2.385 . S
O178 C183 1.255 . S
Cd179 O178 2.385 . S
Cd179 O180 2.317 . S
O180 Cd179 2.317 . S
O180 C181 1.232 . S
C181 O180 1.232 . S
C181 O182 1.218 . S
O182 C181 1.218 . S
C183 O176 1.275 . S
C183 O178 1.255 . S
C184 O185 1.258 . S
C184 O186 1.256 . S
O185 Cd177 2.381 . S
O185 C184 1.258 . S
O186 Cd177 2.378 . S
O186 C184 1.256 . S
O187 Cd188 2.300 1_556 S
O187 C194 1.275 . S
Cd188 O187 2.300 1_554 S
Cd188 O196 2.381 1_554 S
Cd188 O197 2.378 . S
O189 Cd190 2.385 . S
O189 C194 1.255 1_554 S
Cd190 O189 2.385 . S
Cd190 O191 2.317 . S
O191 Cd190 2.317 . S
O191 C192 1.232 . S
C192 O191 1.232 . S
C192 O193 1.218 . S
O193 C192 1.218 . S
C194 O187 1.275 . S
C194 O189 1.255 1_556 S
C195 O196 1.258 1_554 S
C195 O197 1.256 . S
O196 Cd188 2.381 1_556 S
O196 C195 1.258 1_556 S
O197 Cd188 2.378 . S
O197 C195 1.256 . S
O198 Cd199 2.300 . S
O198 C205 1.275 . S
Cd199 O198 2.300 . S
Cd199 O207 2.381 . S
Cd199 O208 2.378 . S
O200 Cd201 2.385 . S
O200 C205 1.255 . S
Cd201 O200 2.385 . S
Cd201 O202 2.317 . S
O202 Cd201 2.317 . S
O202 C203 1.232 . S
C203 O202 1.232 . S
C203 O204 1.218 . S
O204 C203 1.218 . S
C205 O198 1.275 . S
C205 O200 1.255 . S
C206 O207 1.258 . S
C206 O208 1.256 . S
O207 Cd199 2.381 . S
O207 C206 1.258 . S
O208 Cd199 2.378 . S
O208 C206 1.256 . S
O209 Cd210 2.300 1_554 S
O209 C216 1.275 . S
Cd210 O209 2.300 1_556 S
Cd210 O218 2.381 1_556 S
Cd210 O219 2.378 . S
O211 Cd212 2.385 . S
O211 C216 1.255 1_556 S
Cd212 O211 2.385 . S
Cd212 O213 2.317 . S
O213 Cd212 2.317 . S
O213 C214 1.232 . S
C214 O213 1.232 . S
C214 O215 1.218 . S
O215 C214 1.218 . S
C216 O209 1.275 . S
C216 O211 1.255 1_554 S
C217 O218 1.258 1_556 S
C217 O219 1.256 . S
O218 Cd210 2.381 1_554 S
O218 C217 1.258 1_554 S
O219 Cd210 2.378 . S
O219 C217 1.256 . S
O220 Cd221 2.300 . S
O220 C227 1.275 . S
Cd221 O220 2.300 . S
Cd221 O229 2.381 . S
Cd221 O230 2.378 . S
O222 Cd223 2.385 . S
O222 C227 1.255 . S
Cd223 O222 2.385 . S
Cd223 O224 2.317 . S
O224 Cd223 2.317 . S
O224 C225 1.232 . S
C225 O224 1.232 . S
C225 O226 1.218 . S
O226 C225 1.218 . S
C227 O220 1.275 . S
C227 O222 1.255 . S
C228 O229 1.258 . S
C228 O230 1.256 . S
O229 Cd221 2.381 . S
O229 C228 1.258 . S
O230 Cd221 2.378 . S
O230 C228 1.256 . S
O231 Cd232 2.300 1_655 S
O231 C238 1.275 . S
Cd232 O231 2.300 1_455 S
Cd232 O240 2.381 1_455 S
Cd232 O241 2.378 . S
O233 Cd234 2.385 . S
O233 C238 1.255 1_455 S
Cd234 O233 2.385 . S
Cd234 O235 2.317 . S
O235 Cd234 2.317 . S
O235 C236 1.232 . S
C236 O235 1.232 . S
C236 O237 1.218 . S
O237 C236 1.218 . S
C238 O231 1.275 . S
C238 O233 1.255 1_655 S
C239 O240 1.258 1_455 S
C239 O241 1.256 . S
O240 Cd232 2.381 1_655 S
O240 C239 1.258 1_655 S
O241 Cd232 2.378 . S
O241 C239 1.256 . S
O242 Cd243 2.300 . S
O242 C249 1.275 . S
Cd243 O242 2.300 . S
Cd243 O251 2.381 . S
Cd243 O252 2.378 . S
O244 Cd245 2.385 . S
O244 C249 1.255 . S
Cd245 O244 2.385 . S
Cd245 O246 2.317 . S
O246 Cd245 2.317 . S
O246 C247 1.232 . S
C247 O246 1.232 . S
C247 O248 1.218 . S
O248 C247 1.218 . S
C249 O242 1.275 . S
C249 O244 1.255 . S
C250 O251 1.258 . S
C250 O252 1.256 . S
O251 Cd243 2.381 . S
O251 C250 1.258 . S
O252 Cd243 2.378 . S
O252 C250 1.256 . S
O253 Cd254 2.300 1_455 S
O253 C260 1.275 . S
Cd254 O253 2.300 1_655 S
Cd254 O262 2.381 1_655 S
Cd254 O263 2.378 . S
O255 Cd256 2.385 . S
O255 C260 1.255 1_655 S
Cd256 O255 2.385 . S
Cd256 O257 2.317 . S
O257 Cd256 2.317 . S
O257 C258 1.232 . S
C258 O257 1.232 . S
C258 O259 1.218 . S
O259 C258 1.218 . S
C260 O253 1.275 . S
C260 O255 1.255 1_455 S
C261 O262 1.258 1_655 S
C261 O263 1.256 . S
O262 Cd254 2.381 1_455 S
O262 C261 1.258 1_455 S
O263 Cd254 2.378 . S
O263 C261 1.256 . S
H264 C267 0.931 . S
H265 C270 0.928 . S
H266 C272 0.930 . S
C267 H264 0.931 . S
C267 C268 1.413 . S
C267 C269 1.360 . S
C268 C267 1.413 . S
C268 C272 1.429 . S
C269 C267 1.360 . S
C269 C270 1.372 . S
C270 H265 0.928 . S
C270 C269 1.372 . S
C270 C271 1.404 . S
C271 C270 1.404 . S
C271 C272 1.391 . S
C272 H266 0.930 . S
C272 C268 1.429 . S
C272 C271 1.391 . S
H273 C276 0.931 . S
H274 C279 0.928 . S
H275 C281 0.930 . S
C276 H273 0.931 . S
C276 C277 1.413 . S
C276 C278 1.360 . S
C277 C276 1.413 . S
C277 C281 1.429 . S
C278 C276 1.360 . S
C278 C279 1.372 . S
C279 H274 0.928 . S
C279 C278 1.372 . S
C279 C280 1.404 . S
C280 C279 1.404 . S
C280 C281 1.391 . S
C281 H275 0.930 . S
C281 C277 1.429 . S
C281 C280 1.391 . S
H282 C285 0.931 . S
H283 C288 0.928 . S
H284 C290 0.930 . S
C285 H282 0.931 . S
C285 C286 1.413 . S
C285 C287 1.360 1_565 S
C286 C285 1.413 . S
C286 C290 1.429 . S
C287 C285 1.360 1_545 S
C287 C288 1.372 . S
C288 H283 0.928 . S
C288 C287 1.372 . S
C288 C289 1.404 . S
C289 C288 1.404 . S
C289 C290 1.391 1_545 S
C290 H284 0.930 . S
C290 C286 1.429 . S
C290 C289 1.391 1_565 S
H291 C294 0.931 . S
H292 C297 0.928 . S
H293 C299 0.930 . S
C294 H291 0.931 . S
C294 C295 1.413 . S
C294 C296 1.378 . S
C295 C294 1.413 . S
C295 C299 1.429 1_545 S
C296 C294 1.378 . S
C296 C297 1.354 1_545 S
C297 H292 0.928 . S
C297 C296 1.354 1_565 S
C297 C298 1.404 . S
C298 C297 1.404 . S
C298 C299 1.391 . S
C299 H293 0.930 . S
C299 C295 1.429 1_565 S
C299 C298 1.391 . S
H300 C303 0.931 . S
H301 C306 0.928 . S
H302 C308 0.930 . S
C303 H300 0.931 . S
C303 C304 1.413 . S
C303 C305 1.360 . S
C304 C303 1.413 . S
C304 C308 1.429 . S
C305 C303 1.360 . S
C305 C306 1.372 . S
C306 H301 0.928 . S
C306 C305 1.372 . S
C306 C307 1.404 . S
C307 C306 1.404 . S
C307 C308 1.391 . S
C308 H302 0.930 . S
C308 C304 1.429 . S
C308 C307 1.391 . S
H309 C312 0.931 . S
H310 C315 0.928 . S
H311 C317 0.930 . S
C312 H309 0.931 . S
C312 C313 1.413 . S
C312 C314 1.378 . S
C313 C312 1.413 . S
C313 C317 1.429 1_554 S
C314 C312 1.378 . S
C314 C315 1.354 1_554 S
C315 H310 0.928 . S
C315 C314 1.354 1_556 S
C315 C316 1.404 . S
C316 C315 1.404 . S
C316 C317 1.391 . S
C317 H311 0.930 . S
C317 C313 1.429 1_556 S
C317 C316 1.391 . S
H318 C321 0.931 . S
H319 C324 0.928 . S
H320 C326 0.930 . S
C321 H318 0.931 . S
C321 C322 1.413 . S
C321 C323 1.360 . S
C322 C321 1.413 . S
C322 C326 1.429 . S
C323 C321 1.360 . S
C323 C324 1.372 . S
C324 H319 0.928 . S
C324 C323 1.372 . S
C324 C325 1.404 . S
C325 C324 1.404 . S
C325 C326 1.391 . S
C326 H320 0.930 . S
C326 C322 1.429 . S
C326 C325 1.391 . S
H327 C330 0.931 . S
H328 C333 0.928 . S
H329 C335 0.930 . S
C330 H327 0.931 . S
C330 C331 1.413 . S
C330 C332 1.360 1_556 S
C331 C330 1.413 . S
C331 C335 1.429 . S
C332 C330 1.360 1_554 S
C332 C333 1.372 . S
C333 H328 0.928 . S
C333 C332 1.372 . S
C333 C334 1.404 . S
C334 C333 1.404 . S
C334 C335 1.391 1_554 S
C335 H329 0.930 . S
C335 C331 1.429 . S
C335 C334 1.391 1_556 S
H336 C339 0.931 . S
H337 C342 0.928 . S
H338 C344 0.930 . S
C339 H336 0.931 . S
C339 C340 1.413 . S
C339 C341 1.360 . S
C340 C339 1.413 . S
C340 C344 1.429 . S
C341 C339 1.360 . S
C341 C342 1.372 . S
C342 H337 0.928 . S
C342 C341 1.372 . S
C342 C343 1.404 . S
C343 C342 1.404 . S
C343 C344 1.391 . S
C344 H338 0.930 . S
C344 C340 1.429 . S
C344 C343 1.391 . S
H345 C348 0.931 . S
H346 C351 0.928 . S
H347 C353 0.930 . S
C348 H345 0.931 . S
C348 C349 1.413 . S
C348 C350 1.378 . S
C349 C348 1.413 . S
C349 C353 1.429 1_455 S
C350 C348 1.378 . S
C350 C351 1.354 1_455 S
C351 H346 0.928 . S
C351 C350 1.354 1_655 S
C351 C352 1.404 . S
C352 C351 1.404 . S
C352 C353 1.391 . S
C353 H347 0.930 . S
C353 C349 1.429 1_655 S
C353 C352 1.391 . S
H354 C357 0.931 . S
H355 C360 0.928 . S
H356 C362 0.930 . S
C357 H354 0.931 . S
C357 C358 1.413 . S
C357 C359 1.360 . S
C358 C357 1.413 . S
C358 C362 1.429 . S
C359 C357 1.360 . S
C359 C360 1.372 . S
C360 H355 0.928 . S
C360 C359 1.372 . S
C360 C361 1.404 . S
C361 C360 1.404 . S
C361 C362 1.391 . S
C362 H356 0.930 . S
C362 C358 1.429 . S
C362 C361 1.391 . S
H363 C366 0.931 . S
H364 C369 0.928 . S
H365 C371 0.930 . S
C366 H363 0.931 . S
C366 C367 1.413 . S
C366 C368 1.360 1_655 S
C367 C366 1.413 . S
C367 C371 1.429 . S
C368 C366 1.360 1_455 S
C368 C369 1.372 . S
C369 H364 0.928 . S
C369 C368 1.372 . S
C369 C370 1.404 . S
C370 C369 1.404 . S
C370 C371 1.391 1_455 S
C371 H365 0.930 . S
C371 C367 1.429 . S
C371 C370 1.391 1_655 S
H372 C375 0.931 . S
H373 C378 0.928 . S
H374 C380 0.930 . S
C375 H372 0.931 . S
C375 C376 1.413 . S
C375 C377 1.360 . S
C376 C375 1.413 . S
C376 C380 1.429 . S
C377 C375 1.360 . S
C377 C378 1.372 . S
C378 H373 0.928 . S
C378 C377 1.372 . S
C378 C379 1.404 . S
C379 C378 1.404 . S
C379 C380 1.391 . S
C380 H374 0.930 . S
C380 C376 1.429 . S
C380 C379 1.391 . S
H381 C384 0.931 . S
H382 C387 0.928 . S
H383 C389 0.930 . S
C384 H381 0.931 . S
C384 C385 1.413 . S
C384 C386 1.360 . S
C385 C384 1.413 . S
C385 C389 1.429 . S
C386 C384 1.360 . S
C386 C387 1.372 . S
C387 H382 0.928 . S
C387 C386 1.372 . S
C387 C388 1.404 . S
C388 C387 1.404 . S
C388 C389 1.391 . S
C389 H383 0.930 . S
C389 C385 1.429 . S
C389 C388 1.391 . S
H390 C393 0.931 . S
H391 C396 0.928 . S
H392 C398 0.930 . S
C393 H390 0.931 . S
C393 C394 1.413 . S
C393 C395 1.360 1_545 S
C394 C393 1.413 . S
C394 C398 1.429 . S
C395 C393 1.360 1_565 S
C395 C396 1.372 . S
C396 H391 0.928 . S
C396 C395 1.372 . S
C396 C397 1.404 . S
C397 C396 1.404 . S
C397 C398 1.391 1_565 S
C398 H392 0.930 . S
C398 C394 1.429 . S
C398 C397 1.391 1_545 S
H399 C402 0.931 . S
H400 C405 0.928 . S
H401 C407 0.930 . S
C402 H399 0.931 . S
C402 C403 1.413 . S
C402 C404 1.376 . S
C403 C402 1.413 . S
C403 C407 1.429 1_565 S
C404 C402 1.376 . S
C404 C405 1.357 1_565 S
C405 H400 0.928 . S
C405 C404 1.357 1_545 S
C405 C406 1.404 . S
C406 C405 1.404 . S
C406 C407 1.391 . S
C407 H401 0.930 . S
C407 C403 1.429 1_545 S
C407 C406 1.391 . S
H408 C411 0.931 . S
H409 C414 0.928 . S
H410 C416 0.930 . S
C411 H408 0.931 . S
C411 C412 1.413 . S
C411 C413 1.360 . S
C412 C411 1.413 . S
C412 C416 1.429 . S
C413 C411 1.360 . S
C413 C414 1.372 . S
C414 H409 0.928 . S
C414 C413 1.372 . S
C414 C415 1.404 . S
C415 C414 1.404 . S
C415 C416 1.391 . S
C416 H410 0.930 . S
C416 C412 1.429 . S
C416 C415 1.391 . S
H417 C420 0.931 . S
H418 C423 0.928 . S
H419 C425 0.930 . S
C420 H417 0.931 . S
C420 C421 1.413 . S
C420 C422 1.376 . S
C421 C420 1.413 . S
C421 C425 1.429 1_556 S
C422 C420 1.376 . S
C422 C423 1.357 1_556 S
C423 H418 0.928 . S
C423 C422 1.357 1_554 S
C423 C424 1.404 . S
C424 C423 1.404 . S
C424 C425 1.391 . S
C425 H419 0.930 . S
C425 C421 1.429 1_554 S
C425 C424 1.391 . S
H426 C429 0.931 . S
H427 C432 0.928 . S
H428 C434 0.930 . S
C429 H426 0.931 . S
C429 C430 1.413 . S
C429 C431 1.360 . S
C430 C429 1.413 . S
C430 C434 1.429 . S
C431 C429 1.360 . S
C431 C432 1.372 . S
C432 H427 0.928 . S
C432 C431 1.372 . S
C432 C433 1.404 . S
C433 C432 1.404 . S
C433 C434 1.391 . S
C434 H428 0.930 . S
C434 C430 1.429 . S
C434 C433 1.391 . S
H435 C438 0.931 . S
H436 C441 0.928 . S
H437 C443 0.930 . S
C438 H435 0.931 . S
C438 C439 1.413 . S
C438 C440 1.360 1_554 S
C439 C438 1.413 . S
C439 C443 1.429 . S
C440 C438 1.360 1_556 S
C440 C441 1.372 . S
C441 H436 0.928 . S
C441 C440 1.372 . S
C441 C442 1.404 . S
C442 C441 1.404 . S
C442 C443 1.391 1_556 S
C443 H437 0.930 . S
C443 C439 1.429 . S
C443 C442 1.391 1_554 S
H444 C447 0.931 . S
H445 C450 0.928 . S
H446 C452 0.930 . S
C447 H444 0.931 . S
C447 C448 1.413 . S
C447 C449 1.360 . S
C448 C447 1.413 . S
C448 C452 1.429 . S
C449 C447 1.360 . S
C449 C450 1.372 . S
C450 H445 0.928 . S
C450 C449 1.372 . S
C450 C451 1.404 . S
C451 C450 1.404 . S
C451 C452 1.391 . S
C452 H446 0.930 . S
C452 C448 1.429 . S
C452 C451 1.391 . S
H453 C456 0.931 . S
H454 C459 0.928 . S
H455 C461 0.930 . S
C456 H453 0.931 . S
C456 C457 1.413 . S
C456 C458 1.376 . S
C457 C456 1.413 . S
C457 C461 1.429 1_655 S
C458 C456 1.376 . S
C458 C459 1.357 1_655 S
C459 H454 0.928 . S
C459 C458 1.357 1_455 S
C459 C460 1.404 . S
C460 C459 1.404 . S
C460 C461 1.391 . S
C461 H455 0.930 . S
C461 C457 1.429 1_455 S
C461 C460 1.391 . S
H462 C465 0.931 . S
H463 C468 0.928 . S
H464 C470 0.930 . S
C465 H462 0.931 . S
C465 C466 1.413 . S
C465 C467 1.360 . S
C466 C465 1.413 . S
C466 C470 1.429 . S
C467 C465 1.360 . S
C467 C468 1.372 . S
C468 H463 0.928 . S
C468 C467 1.372 . S
C468 C469 1.404 . S
C469 C468 1.404 . S
C469 C470 1.391 . S
C470 H464 0.930 . S
C470 C466 1.429 . S
C470 C469 1.391 . S
H471 C474 0.931 . S
H472 C477 0.928 . S
H473 C479 0.930 . S
C474 H471 0.931 . S
C474 C475 1.413 . S
C474 C476 1.360 1_455 S
C475 C474 1.413 . S
C475 C479 1.429 . S
C476 C474 1.360 1_655 S
C476 C477 1.372 . S
C477 H472 0.928 . S
C477 C476 1.372 . S
C477 C478 1.404 . S
C478 C477 1.404 . S
C478 C479 1.391 1_655 S
C479 H473 0.930 . S
C479 C475 1.429 . S
C479 C478 1.391 1_455 S
C480 C481 1.369 . S
C480 C482 1.419 . S
C480 H484 0.930 . S
C481 C480 1.369 . S
C481 C490 1.429 . S
C482 C480 1.419 . S
C482 C483 1.363 . S
C482 H485 0.929 . S
C483 C482 1.363 . S
C483 C489 1.428 . S
H484 C480 0.930 . S
H485 C482 0.929 . S
S486 N487 1.613 . S
S486 N488 1.610 . S
N487 S486 1.613 . S
N487 C490 1.350 . S
N488 S486 1.610 . S
N488 C489 1.351 . S
C489 C483 1.428 . S
C489 N488 1.351 . S
C489 C490 1.434 . S
C490 C481 1.429 . S
C490 N487 1.350 . S
C490 C489 1.434 . S
C491 C492 1.369 . S
C491 C493 1.419 . S
C491 H495 0.930 . S
C492 C491 1.369 . S
C492 C501 1.429 . S
C493 C491 1.419 . S
C493 C494 1.363 . S
C493 H496 0.929 . S
C494 C493 1.363 . S
C494 C500 1.428 . S
H495 C491 0.930 . S
H496 C493 0.929 . S
S497 N498 1.613 . S
S497 N499 1.610 . S
N498 S497 1.613 . S
N498 C501 1.350 . S
N499 S497 1.610 . S
N499 C500 1.351 . S
C500 C494 1.428 . S
C500 N499 1.351 . S
C500 C501 1.434 . S
C501 C492 1.429 . S
C501 N498 1.350 . S
C501 C500 1.434 . S
C502 C503 1.369 . S
C502 C504 1.419 . S
C502 H506 0.930 . S
C503 C502 1.369 . S
C503 C512 1.429 1_545 S
C504 C502 1.419 . S
C504 C505 1.363 . S
C504 H507 0.929 . S
C505 C504 1.363 . S
C505 C511 1.428 . S
H506 C502 0.930 . S
H507 C504 0.929 . S
S508 N509 1.613 . S
S508 N510 1.610 . S
N509 S508 1.613 . S
N509 C512 1.350 . S
N510 S508 1.610 . S
N510 C511 1.351 1_565 S
C511 C505 1.428 . S
C511 N510 1.351 1_545 S
C511 C512 1.434 1_545 S
C512 C503 1.429 1_565 S
C512 N509 1.350 . S
C512 C511 1.434 1_565 S
C513 C514 1.369 . S
C513 C515 1.419 . S
C513 H517 0.930 . S
C514 C513 1.369 . S
C514 C523 1.429 1_565 S
C515 C513 1.419 . S
C515 C516 1.363 . S
C515 H518 0.929 . S
C516 C515 1.363 . S
C516 C522 1.428 . S
H517 C513 0.930 . S
H518 C515 0.929 . S
S519 N520 1.613 . S
S519 N521 1.610 . S
N520 S519 1.613 . S
N520 C523 1.350 . S
N521 S519 1.610 . S
N521 C522 1.351 1_545 S
C522 C516 1.428 . S
C522 N521 1.351 1_565 S
C522 C523 1.434 1_565 S
C523 C514 1.429 1_545 S
C523 N520 1.350 . S
C523 C522 1.434 1_545 S
C524 C525 1.369 . S
C524 C526 1.419 . S
C524 H528 0.930 . S
C525 C524 1.369 . S
C525 C534 1.429 . S
C526 C524 1.419 . S
C526 C527 1.363 . S
C526 H529 0.929 . S
C527 C526 1.363 . S
C527 C533 1.428 . S
H528 C524 0.930 . S
H529 C526 0.929 . S
S530 N531 1.613 . S
S530 N532 1.610 . S
N531 S530 1.613 . S
N531 C534 1.350 . S
N532 S530 1.610 . S
N532 C533 1.351 . S
C533 C527 1.428 . S
C533 N532 1.351 . S
C533 C534 1.434 . S
C534 C525 1.429 . S
C534 N531 1.350 . S
C534 C533 1.434 . S
C535 C536 1.369 . S
C535 C537 1.419 . S
C535 H539 0.930 . S
C536 C535 1.369 . S
C536 C545 1.429 . S
C537 C535 1.419 . S
C537 C538 1.363 . S
C537 H540 0.929 . S
C538 C537 1.363 . S
C538 C544 1.428 . S
H539 C535 0.930 . S
H540 C537 0.929 . S
S541 N542 1.613 . S
S541 N543 1.610 . S
N542 S541 1.613 . S
N542 C545 1.350 . S
N543 S541 1.610 . S
N543 C544 1.351 . S
C544 C538 1.428 . S
C544 N543 1.351 . S
C544 C545 1.434 . S
C545 C536 1.429 . S
C545 N542 1.350 . S
C545 C544 1.434 . S
C546 C547 1.369 . S
C546 C548 1.419 . S
C546 H550 0.930 . S
C547 C546 1.369 . S
C547 C556 1.429 . S
C548 C546 1.419 . S
C548 C549 1.363 . S
C548 H551 0.929 . S
C549 C548 1.363 . S
C549 C555 1.428 . S
H550 C546 0.930 . S
H551 C548 0.929 . S
S552 N553 1.613 . S
S552 N554 1.610 . S
N553 S552 1.613 . S
N553 C556 1.350 . S
N554 S552 1.610 . S
N554 C555 1.351 . S
C555 C549 1.428 . S
C555 N554 1.351 . S
C555 C556 1.434 . S
C556 C547 1.429 . S
C556 N553 1.350 . S
C556 C555 1.434 . S
C557 C558 1.369 . S
C557 C559 1.419 . S
C557 H561 0.930 1_554 S
C558 C557 1.369 . S
C558 C567 1.429 . S
C559 C557 1.419 . S
C559 C560 1.363 . S
C559 H562 0.929 . S
C560 C559 1.363 . S
C560 C566 1.428 . S
H561 C557 0.930 1_556 S
H562 C559 0.929 . S
S563 N564 1.613 . S
S563 N565 1.610 . S
N564 S563 1.613 . S
N564 C567 1.350 . S
N565 S563 1.610 . S
N565 C566 1.351 . S
C566 C560 1.428 . S
C566 N565 1.351 . S
C566 C567 1.434 . S
C567 C558 1.429 . S
C567 N564 1.350 . S
C567 C566 1.434 . S
C568 C569 1.369 . S
C568 C570 1.419 . S
C568 H572 0.930 . S
C569 C568 1.369 . S
C569 C578 1.429 . S
C570 C568 1.419 . S
C570 C571 1.363 . S
C570 H573 0.929 . S
C571 C570 1.363 . S
C571 C577 1.428 . S
H572 C568 0.930 . S
H573 C570 0.929 . S
S574 N575 1.613 . S
S574 N576 1.610 . S
N575 S574 1.613 . S
N575 C578 1.350 . S
N576 S574 1.610 . S
N576 C577 1.351 . S
C577 C571 1.428 . S
C577 N576 1.351 . S
C577 C578 1.434 . S
C578 C569 1.429 . S
C578 N575 1.350 . S
C578 C577 1.434 . S
C579 C580 1.369 . S
C579 C581 1.419 . S
C579 H583 0.930 . S
C580 C579 1.369 . S
C580 C589 1.417 1_655 S
C581 C579 1.419 . S
C581 C582 1.363 . S
C581 H584 0.929 . S
C582 C581 1.363 . S
C582 C588 1.428 . S
H583 C579 0.930 . S
H584 C581 0.929 . S
S585 N586 1.613 . S
S585 N587 1.610 . S
N586 S585 1.613 . S
N586 C589 1.370 . S
N587 S585 1.610 . S
N587 C588 1.351 1_455 S
C588 C582 1.428 . S
C588 N587 1.351 1_655 S
C588 C589 1.426 1_655 S
C589 C580 1.417 1_455 S
C589 N586 1.370 . S
C589 C588 1.426 1_455 S
C590 C591 1.369 . S
C590 C592 1.419 . S
C590 H594 0.930 . S
C591 C590 1.369 . S
C591 C600 1.429 . S
C592 C590 1.419 . S
C592 C593 1.363 . S
C592 H595 0.929 . S
C593 C592 1.363 . S
C593 C599 1.428 . S
H594 C590 0.930 . S
H595 C592 0.929 . S
S596 N597 1.613 . S
S596 N598 1.610 . S
N597 S596 1.613 . S
N597 C600 1.350 . S
N598 S596 1.610 . S
N598 C599 1.351 . S
C599 C593 1.428 . S
C599 N598 1.351 . S
C599 C600 1.434 . S
C600 C591 1.429 . S
C600 N597 1.350 . S
C600 C599 1.434 . S
C601 C602 1.369 . S
C601 C603 1.419 . S
C601 H605 0.930 . S
C602 C601 1.369 . S
C602 C611 1.429 . S
C603 C601 1.419 . S
C603 C604 1.363 . S
C603 H606 0.929 . S
C604 C603 1.363 . S
C604 C610 1.428 . S
H605 C601 0.930 . S
H606 C603 0.929 . S
S607 N608 1.613 . S
S607 N609 1.610 1_655 S
N608 S607 1.613 . S
N608 C611 1.350 1_655 S
N609 S607 1.610 1_455 S
N609 C610 1.351 . S
C610 C604 1.428 . S
C610 N609 1.351 . S
C610 C611 1.434 . S
C611 C602 1.429 . S
C611 N608 1.350 1_455 S
C611 C610 1.434 . S
C612 C613 1.369 . S
C612 C614 1.419 . S
C612 H616 0.930 . S
C613 C612 1.369 . S
C613 C622 1.429 . S
C614 C612 1.419 . S
C614 C615 1.363 . S
C614 H617 0.929 . S
C615 C614 1.363 . S
C615 C621 1.428 . S
H616 C612 0.930 . S
H617 C614 0.929 . S
S618 N619 1.613 . S
S618 N620 1.610 . S
N619 S618 1.613 . S
N619 C622 1.350 . S
N620 S618 1.610 . S
N620 C621 1.351 . S
C621 C615 1.428 . S
C621 N620 1.351 . S
C621 C622 1.434 . S
C622 C613 1.429 . S
C622 N619 1.350 . S
C622 C621 1.434 . S
C623 C624 1.369 . S
C623 C625 1.419 . S
C623 H627 0.930 . S
C624 C623 1.369 . S
C624 C633 1.429 . S
C625 C623 1.419 . S
C625 C626 1.363 . S
C625 H628 0.929 . S
C626 C625 1.363 . S
C626 C632 1.428 . S
H627 C623 0.930 . S
H628 C625 0.929 . S
S629 N630 1.613 . S
S629 N631 1.610 . S
N630 S629 1.613 . S
N630 C633 1.350 . S
N631 S629 1.610 . S
N631 C632 1.351 . S
C632 C626 1.428 . S
C632 N631 1.351 . S
C632 C633 1.434 . S
C633 C624 1.429 . S
C633 N630 1.350 . S
C633 C632 1.434 . S
C634 C635 1.369 . S
C634 C636 1.419 . S
C634 H638 0.930 . S
C635 C634 1.369 . S
C635 C644 1.429 . S
C636 C634 1.419 . S
C636 C637 1.363 . S
C636 H639 0.929 . S
C637 C636 1.363 . S
C637 C643 1.428 . S
H638 C634 0.930 . S
H639 C636 0.929 . S
S640 N641 1.613 . S
S640 N642 1.610 1_545 S
N641 S640 1.613 . S
N641 C644 1.350 1_545 S
N642 S640 1.610 1_565 S
N642 C643 1.351 . S
C643 C637 1.428 . S
C643 N642 1.351 . S
C643 C644 1.434 . S
C644 C635 1.429 . S
C644 N641 1.350 1_565 S
C644 C643 1.434 . S
C645 C646 1.369 . S
C645 C647 1.419 . S
C645 H649 0.930 1_545 S
C646 C645 1.369 . S
C646 C655 1.429 . S
C647 C645 1.419 . S
C647 C648 1.363 . S
C647 H650 0.929 1_545 S
C648 C647 1.363 . S
C648 C654 1.428 . S
H649 C645 0.930 1_565 S
H650 C647 0.929 1_565 S
S651 N652 1.613 . S
S651 N653 1.610 . S
N652 S651 1.613 . S
N652 C655 1.350 . S
N653 S651 1.610 . S
N653 C654 1.351 . S
C654 C648 1.428 . S
C654 N653 1.351 . S
C654 C655 1.434 . S
C655 C646 1.429 . S
C655 N652 1.350 . S
C655 C654 1.434 . S
C656 C657 1.369 . S
C656 C658 1.419 . S
C656 H660 0.930 . S
C657 C656 1.369 . S
C657 C666 1.429 . S
C658 C656 1.419 . S
C658 C659 1.363 . S
C658 H661 0.929 . S
C659 C658 1.363 . S
C659 C665 1.428 . S
H660 C656 0.930 . S
H661 C658 0.929 . S
S662 N663 1.613 . S
S662 N664 1.610 . S
N663 S662 1.613 . S
N663 C666 1.350 . S
N664 S662 1.610 . S
N664 C665 1.351 . S
C665 C659 1.428 . S
C665 N664 1.351 . S
C665 C666 1.434 . S
C666 C657 1.429 . S
C666 N663 1.350 . S
C666 C665 1.434 . S
C667 C668 1.369 . S
C667 C669 1.419 . S
C667 H671 0.930 1_554 S
C668 C667 1.369 . S
C668 C677 1.429 . S
C669 C667 1.419 . S
C669 C670 1.363 . S
C669 H672 0.929 1_554 S
C670 C669 1.363 . S
C670 C676 1.428 . S
H671 C667 0.930 1_556 S
H672 C669 0.929 1_556 S
S673 N674 1.613 . S
S673 N675 1.610 . S
N674 S673 1.613 . S
N674 C677 1.350 . S
N675 S673 1.610 . S
N675 C676 1.351 . S
C676 C670 1.428 . S
C676 N675 1.351 . S
C676 C677 1.434 . S
C677 C668 1.429 . S
C677 N674 1.350 . S
C677 C676 1.434 . S
C678 C679 1.369 . S
C678 C680 1.419 . S
C678 H682 0.930 . S
C679 C678 1.369 . S
C679 C688 1.429 . S
C680 C678 1.419 . S
C680 C681 1.363 . S
C680 H683 0.929 . S
C681 C680 1.363 . S
C681 C687 1.428 . S
H682 C678 0.930 . S
H683 C680 0.929 . S
S684 N685 1.613 . S
S684 N686 1.610 . S
N685 S684 1.613 . S
N685 C688 1.350 . S
N686 S684 1.610 . S
N686 C687 1.351 . S
C687 C681 1.428 . S
C687 N686 1.351 . S
C687 C688 1.434 . S
C688 C679 1.429 . S
C688 N685 1.350 . S
C688 C687 1.434 . S
C689 C690 1.369 . S
C689 C691 1.419 . S
C689 H693 0.930 . S
C690 C689 1.369 . S
C690 C699 1.429 . S
C691 C689 1.419 . S
C691 C692 1.363 . S
C691 H694 0.929 . S
C692 C691 1.363 . S
C692 C698 1.428 . S
H693 C689 0.930 . S
H694 C691 0.929 . S
S695 N696 1.613 . S
S695 N697 1.610 . S
N696 S695 1.613 . S
N696 C699 1.350 . S
N697 S695 1.610 . S
N697 C698 1.351 . S
C698 C692 1.428 . S
C698 N697 1.351 . S
C698 C699 1.434 . S
C699 C690 1.429 . S
C699 N696 1.350 . S
C699 C698 1.434 . S
C700 C701 1.369 . S
C700 C702 1.419 . S
C700 H704 0.930 . S
C701 C700 1.369 . S
C701 C710 1.429 . S
C702 C700 1.419 . S
C702 C703 1.363 . S
C702 H705 0.929 . S
C703 C702 1.363 . S
C703 C709 1.428 . S
H704 C700 0.930 . S
H705 C702 0.929 . S
S706 N707 1.613 . S
S706 N708 1.610 . S
N707 S706 1.613 . S
N707 C710 1.350 . S
N708 S706 1.610 . S
N708 C709 1.351 . S
C709 C703 1.428 . S
C709 N708 1.351 . S
C709 C710 1.434 . S
C710 C701 1.429 . S
C710 N707 1.350 . S
C710 C709 1.434 . S
C711 C712 1.369 . S
C711 C713 1.419 . S
C711 H715 0.930 . S
C712 C711 1.369 . S
C712 C721 1.429 . S
C713 C711 1.419 . S
C713 C714 1.363 . S
C713 H716 0.929 . S
C714 C713 1.363 . S
C714 C720 1.428 . S
H715 C711 0.930 . S
H716 C713 0.929 . S
S717 N718 1.613 . S
S717 N719 1.636 . S
N718 S717 1.613 . S
N718 C721 1.350 1_655 S
N719 S717 1.636 . S
N719 C720 1.333 1_655 S
C720 C714 1.428 . S
C720 N719 1.333 1_455 S
C720 C721 1.434 . S
C721 C712 1.429 . S
C721 N718 1.350 1_455 S
C721 C720 1.434 . S
C722 C723 1.369 . S
C722 C724 1.419 . S
C722 H726 0.930 . S
C723 C722 1.369 . S
C723 C732 1.429 . S
C724 C722 1.419 . S
C724 C725 1.363 . S
C724 H727 0.929 . S
C725 C724 1.363 . S
C725 C731 1.428 . S
H726 C722 0.930 . S
H727 C724 0.929 . S
S728 N729 1.613 . S
S728 N730 1.610 . S
N729 S728 1.613 . S
N729 C732 1.350 . S
N730 S728 1.610 . S
N730 C731 1.351 . S
C731 C725 1.428 . S
C731 N730 1.351 . S
C731 C732 1.434 . S
C732 C723 1.429 . S
C732 N729 1.350 . S
C732 C731 1.434 . S
C733 C734 1.369 . S
C733 C735 1.419 . S
C733 H737 0.930 . S
C734 C733 1.369 . S
C734 C743 1.429 . S
C735 C733 1.419 . S
C735 C736 1.363 . S
C735 H738 0.929 . S
C736 C735 1.363 . S
C736 C742 1.428 . S
H737 C733 0.930 . S
H738 C735 0.929 . S
S739 N740 1.613 . S
S739 N741 1.610 . S
N740 S739 1.613 . S
N740 C743 1.350 . S
N741 S739 1.610 . S
N741 C742 1.351 . S
C742 C736 1.428 . S
C742 N741 1.351 . S
C742 C743 1.434 . S
C743 C734 1.429 . S
C743 N740 1.350 . S
C743 C742 1.434 . S
C744 C745 1.369 . S
C744 C746 1.419 . S
C744 H748 0.930 . S
C745 C744 1.369 . S
C745 C754 1.429 . S
C746 C744 1.419 . S
C746 C747 1.363 . S
C746 H749 0.929 . S
C747 C746 1.363 . S
C747 C753 1.428 . S
H748 C744 0.930 . S
H749 C746 0.929 . S
S750 N751 1.613 . S
S750 N752 1.610 . S
N751 S750 1.613 . S
N751 C754 1.350 . S
N752 S750 1.610 . S
N752 C753 1.351 . S
C753 C747 1.428 . S
C753 N752 1.351 . S
C753 C754 1.434 . S
C754 C745 1.429 . S
C754 N751 1.350 . S
C754 C753 1.434 . S
C755 C756 1.369 . S
C755 C757 1.419 . S
C755 H759 0.930 . S
C756 C755 1.369 . S
C756 C765 1.429 . S
C757 C755 1.419 . S
C757 C758 1.363 . S
C757 H760 0.929 . S
C758 C757 1.363 . S
C758 C764 1.428 . S
H759 C755 0.930 . S
H760 C757 0.929 . S
S761 N762 1.613 . S
S761 N763 1.610 . S
N762 S761 1.613 . S
N762 C765 1.350 . S
N763 S761 1.610 . S
N763 C764 1.351 . S
C764 C758 1.428 . S
C764 N763 1.351 . S
C764 C765 1.434 . S
C765 C756 1.429 . S
C765 N762 1.350 . S
C765 C764 1.434 . S
C766 C767 1.369 1_545 S
C766 C768 1.419 . S
C766 H770 0.930 . S
C767 C766 1.369 1_565 S
C767 C776 1.429 . S
C768 C766 1.419 . S
C768 C769 1.377 . S
C768 H771 0.929 . S
C769 C768 1.377 . S
C769 C775 1.403 1_545 S
H770 C766 0.930 . S
H771 C768 0.929 . S
S772 N773 1.613 . S
S772 N774 1.610 . S
N773 S772 1.613 . S
N773 C776 1.350 . S
N774 S772 1.610 . S
N774 C775 1.351 . S
C775 C769 1.403 1_565 S
C775 N774 1.351 . S
C775 C776 1.434 . S
C776 C767 1.429 . S
C776 N773 1.350 . S
C776 C775 1.434 . S
C777 C778 1.369 . S
C777 C779 1.419 . S
C777 H781 0.930 . S
C778 C777 1.369 . S
C778 C787 1.449 . S
C779 C777 1.419 . S
C779 C780 1.363 . S
C779 H782 0.929 . S
C780 C779 1.363 . S
C780 C786 1.428 1_545 S
H781 C777 0.930 . S
H782 C779 0.929 . S
S783 N784 1.613 . S
S783 N785 1.610 . S
N784 S783 1.613 . S
N784 C787 1.334 1_565 S
N785 S783 1.610 . S
N785 C786 1.351 . S
C786 C780 1.428 1_565 S
C786 N785 1.351 . S
C786 C787 1.428 1_565 S
C787 C778 1.449 . S
C787 N784 1.334 1_545 S
C787 C786 1.428 1_545 S
C788 C789 1.369 . S
C788 C790 1.419 . S
C788 H792 0.930 . S
C789 C788 1.369 . S
C789 C798 1.429 . S
C790 C788 1.419 . S
C790 C791 1.363 . S
C790 H793 0.929 . S
C791 C790 1.363 . S
C791 C797 1.428 . S
H792 C788 0.930 . S
H793 C790 0.929 . S
S794 N795 1.613 . S
S794 N796 1.610 . S
N795 S794 1.613 . S
N795 C798 1.350 . S
N796 S794 1.610 . S
N796 C797 1.351 . S
C797 C791 1.428 . S
C797 N796 1.351 . S
C797 C798 1.434 . S
C798 C789 1.429 . S
C798 N795 1.350 . S
C798 C797 1.434 . S
C799 C800 1.369 1_556 S
C799 C801 1.419 . S
C799 H803 0.930 . S
C800 C799 1.369 1_554 S
C800 C809 1.429 . S
C801 C799 1.419 . S
C801 C802 1.363 1_556 S
C801 H804 0.929 . S
C802 C801 1.363 1_554 S
C802 C808 1.428 . S
H803 C799 0.930 . S
H804 C801 0.929 . S
S805 N806 1.613 . S
S805 N807 1.610 . S
N806 S805 1.613 . S
N806 C809 1.350 . S
N807 S805 1.610 . S
N807 C808 1.351 . S
C808 C802 1.428 . S
C808 N807 1.351 . S
C808 C809 1.434 . S
C809 C800 1.429 . S
C809 N806 1.350 . S
C809 C808 1.434 . S
C810 C811 1.369 . S
C810 C812 1.419 . S
C810 H814 0.930 . S
C811 C810 1.369 . S
C811 C820 1.429 . S
C812 C810 1.419 . S
C812 C813 1.363 . S
C812 H815 0.929 . S
C813 C812 1.363 . S
C813 C819 1.428 . S
H814 C810 0.930 . S
H815 C812 0.929 . S
S816 N817 1.613 . S
S816 N818 1.610 . S
N817 S816 1.613 . S
N817 C820 1.350 . S
N818 S816 1.610 . S
N818 C819 1.351 . S
C819 C813 1.428 . S
C819 N818 1.351 . S
C819 C820 1.434 . S
C820 C811 1.429 . S
C820 N817 1.350 . S
C820 C819 1.434 . S
C821 C822 1.369 . S
C821 C823 1.419 . S
C821 H825 0.930 . S
C822 C821 1.369 . S
C822 C831 1.429 1_556 S
C823 C821 1.419 . S
C823 C824 1.363 1_556 S
C823 H826 0.929 . S
C824 C823 1.363 1_554 S
C824 C830 1.428 . S
H825 C821 0.930 . S
H826 C823 0.929 . S
S827 N828 1.613 . S
S827 N829 1.610 . S
N828 S827 1.613 . S
N828 C831 1.350 . S
N829 S827 1.610 . S
N829 C830 1.351 . S
C830 C824 1.428 . S
C830 N829 1.351 . S
C830 C831 1.434 . S
C831 C822 1.429 1_554 S
C831 N828 1.350 . S
C831 C830 1.434 . S
C832 C833 1.369 . S
C832 C834 1.419 . S
C832 H836 0.930 . S
C833 C832 1.369 . S
C833 C842 1.429 . S
C834 C832 1.419 . S
C834 C835 1.363 . S
C834 H837 0.929 . S
C835 C834 1.363 . S
C835 C841 1.428 . S
H836 C832 0.930 . S
H837 C834 0.929 . S
S838 N839 1.613 . S
S838 N840 1.610 . S
N839 S838 1.613 . S
N839 C842 1.350 . S
N840 S838 1.610 . S
N840 C841 1.351 . S
C841 C835 1.428 . S
C841 N840 1.351 . S
C841 C842 1.434 . S
C842 C833 1.429 . S
C842 N839 1.350 . S
C842 C841 1.434 . S
C843 C844 1.369 . S
C843 C845 1.419 . S
C843 H847 0.930 . S
C844 C843 1.369 . S
C844 C853 1.429 . S
C845 C843 1.419 . S
C845 C846 1.363 . S
C845 H848 0.929 . S
C846 C845 1.363 . S
C846 C852 1.428 . S
H847 C843 0.930 . S
H848 C845 0.929 . S
S849 N850 1.613 1_655 S
S849 N851 1.610 . S
N850 S849 1.613 1_455 S
N850 C853 1.350 . S
N851 S849 1.610 . S
N851 C852 1.351 1_655 S
C852 C846 1.428 . S
C852 N851 1.351 1_455 S
C852 C853 1.434 . S
C853 C844 1.429 . S
C853 N850 1.350 . S
C853 C852 1.434 . S
C854 C855 1.369 . S
C854 C856 1.419 . S
C854 H858 0.930 . S
C855 C854 1.369 . S
C855 C864 1.429 . S
C856 C854 1.419 . S
C856 C857 1.363 . S
C856 H859 0.929 . S
C857 C856 1.363 . S
C857 C863 1.428 . S
H858 C854 0.930 . S
H859 C856 0.929 . S
S860 N861 1.613 . S
S860 N862 1.610 . S
N861 S860 1.613 . S
N861 C864 1.350 . S
N862 S860 1.610 . S
N862 C863 1.351 . S
C863 C857 1.428 . S
C863 N862 1.351 . S
C863 C864 1.434 . S
C864 C855 1.429 . S
C864 N861 1.350 . S
C864 C863 1.434 . S
C865 C866 1.369 . S
C865 C867 1.419 . S
C865 H869 0.930 . S
C866 C865 1.369 . S
C866 C875 1.429 . S
C867 C865 1.419 . S
C867 C868 1.363 1_655 S
C867 H870 0.929 . S
C868 C867 1.363 1_455 S
C868 C874 1.428 . S
H869 C865 0.930 . S
H870 C867 0.929 . S
S871 N872 1.613 1_455 S
S871 N873 1.610 . S
N872 S871 1.613 1_655 S
N872 C875 1.350 . S
N873 S871 1.610 . S
N873 C874 1.351 . S
C874 C868 1.428 . S
C874 N873 1.351 . S
C874 C875 1.434 1_455 S
C875 C866 1.429 . S
C875 N872 1.350 . S
C875 C874 1.434 1_655 S
C876 C877 1.369 . S
C876 C878 1.419 . S
C876 H880 0.930 . S
C877 C876 1.369 . S
C877 C886 1.429 . S
C878 C876 1.419 . S
C878 C879 1.363 . S
C878 H881 0.929 . S
C879 C878 1.363 . S
C879 C885 1.428 . S
H880 C876 0.930 . S
H881 C878 0.929 . S
S882 N883 1.613 . S
S882 N884 1.610 . S
N883 S882 1.613 . S
N883 C886 1.350 . S
N884 S882 1.610 . S
N884 C885 1.351 . S
C885 C879 1.428 . S
C885 N884 1.351 . S
C885 C886 1.434 . S
C886 C877 1.429 . S
C886 N883 1.350 . S
C886 C885 1.434 . S
C887 C888 1.369 . S
C887 C889 1.419 . S
C887 H891 0.930 . S
C888 C887 1.369 . S
C888 C897 1.429 . S
C889 C887 1.419 . S
C889 C890 1.363 . S
C889 H892 0.929 . S
C890 C889 1.363 . S
C890 C896 1.428 . S
H891 C887 0.930 . S
H892 C889 0.929 . S
S893 N894 1.613 . S
S893 N895 1.610 . S
N894 S893 1.613 . S
N894 C897 1.350 . S
N895 S893 1.610 . S
N895 C896 1.351 . S
C896 C890 1.428 . S
C896 N895 1.351 . S
C896 C897 1.434 . S
C897 C888 1.429 . S
C897 N894 1.350 . S
C897 C896 1.434 . S
C898 C899 1.369 . S
C898 C900 1.419 . S
C898 H902 0.930 . S
C899 C898 1.369 . S
C899 C908 1.429 1_545 S
C900 C898 1.419 . S
C900 C901 1.363 1_545 S
C900 H903 0.929 . S
C901 C900 1.363 1_565 S
C901 C907 1.428 . S
H902 C898 0.930 . S
H903 C900 0.929 . S
S904 N905 1.613 . S
S904 N906 1.610 . S
N905 S904 1.613 . S
N905 C908 1.350 . S
N906 S904 1.610 . S
N906 C907 1.351 . S
C907 C901 1.428 . S
C907 N906 1.351 . S
C907 C908 1.434 . S
C908 C899 1.429 1_565 S
C908 N905 1.350 . S
C908 C907 1.434 . S
C909 C910 1.369 . S
C909 C911 1.419 1_565 S
C909 H913 0.930 . S
C910 C909 1.369 . S
C910 C919 1.429 . S
C911 C909 1.419 1_545 S
C911 C912 1.363 1_545 S
C911 H914 0.929 . S
C912 C911 1.363 1_565 S
C912 C918 1.428 . S
H913 C909 0.930 . S
H914 C911 0.929 . S
S915 N916 1.613 . S
S915 N917 1.610 . S
N916 S915 1.613 . S
N916 C919 1.350 . S
N917 S915 1.610 . S
N917 C918 1.351 . S
C918 C912 1.428 . S
C918 N917 1.351 . S
C918 C919 1.434 . S
C919 C910 1.429 . S
C919 N916 1.350 . S
C919 C918 1.434 . S
C920 C921 1.369 . S
C920 C922 1.419 . S
C920 H924 0.930 . S
C921 C920 1.369 . S
C921 C930 1.429 . S
C922 C920 1.419 . S
C922 C923 1.363 . S
C922 H925 0.929 . S
C923 C922 1.363 . S
C923 C929 1.428 . S
H924 C920 0.930 . S
H925 C922 0.929 . S
S926 N927 1.613 . S
S926 N928 1.610 . S
N927 S926 1.613 . S
N927 C930 1.350 . S
N928 S926 1.610 . S
N928 C929 1.351 . S
C929 C923 1.428 . S
C929 N928 1.351 . S
C929 C930 1.434 . S
C930 C921 1.429 . S
C930 N927 1.350 . S
C930 C929 1.434 . S
C931 C932 1.369 1_554 S
C931 C933 1.419 . S
C931 H935 0.930 . S
C932 C931 1.369 1_556 S
C932 C941 1.429 . S
C933 C931 1.419 . S
C933 C934 1.363 1_554 S
C933 H936 0.929 . S
C934 C933 1.363 1_556 S
C934 C940 1.428 . S
H935 C931 0.930 . S
H936 C933 0.929 . S
S937 N938 1.613 . S
S937 N939 1.610 . S
N938 S937 1.613 . S
N938 C941 1.350 . S
N939 S937 1.610 . S
N939 C940 1.351 . S
C940 C934 1.428 . S
C940 N939 1.351 . S
C940 C941 1.434 . S
C941 C932 1.429 . S
C941 N938 1.350 . S
C941 C940 1.434 . S
C942 C943 1.369 . S
C942 C944 1.419 . S
C942 H946 0.930 . S
C943 C942 1.369 . S
C943 C952 1.429 . S
C944 C942 1.419 . S
C944 C945 1.363 . S
C944 H947 0.929 . S
C945 C944 1.363 . S
C945 C951 1.428 . S
H946 C942 0.930 . S
H947 C944 0.929 . S
S948 N949 1.613 . S
S948 N950 1.610 . S
N949 S948 1.613 . S
N949 C952 1.350 . S
N950 S948 1.610 . S
N950 C951 1.351 . S
C951 C945 1.428 . S
C951 N950 1.351 . S
C951 C952 1.434 . S
C952 C943 1.429 . S
C952 N949 1.350 . S
C952 C951 1.434 . S
C953 C954 1.369 . S
C953 C955 1.419 . S
C953 H957 0.930 . S
C954 C953 1.369 . S
C954 C963 1.429 1_554 S
C955 C953 1.419 . S
C955 C956 1.363 1_554 S
C955 H958 0.929 . S
C956 C955 1.363 1_556 S
C956 C962 1.428 . S
H957 C953 0.930 . S
H958 C955 0.929 . S
S959 N960 1.613 . S
S959 N961 1.610 . S
N960 S959 1.613 . S
N960 C963 1.350 . S
N961 S959 1.610 . S
N961 C962 1.351 . S
C962 C956 1.428 . S
C962 N961 1.351 . S
C962 C963 1.434 . S
C963 C954 1.429 1_556 S
C963 N960 1.350 . S
C963 C962 1.434 . S
C964 C965 1.369 . S
C964 C966 1.419 . S
C964 H968 0.930 . S
C965 C964 1.369 . S
C965 C974 1.429 . S
C966 C964 1.419 . S
C966 C967 1.363 . S
C966 H969 0.929 . S
C967 C966 1.363 . S
C967 C973 1.428 . S
H968 C964 0.930 . S
H969 C966 0.929 . S
S970 N971 1.613 . S
S970 N972 1.610 . S
N971 S970 1.613 . S
N971 C974 1.350 . S
N972 S970 1.610 . S
N972 C973 1.351 . S
C973 C967 1.428 . S
C973 N972 1.351 . S
C973 C974 1.434 . S
C974 C965 1.429 . S
C974 N971 1.350 . S
C974 C973 1.434 . S
C975 C976 1.369 . S
C975 C977 1.419 . S
C975 H979 0.930 . S
C976 C975 1.369 . S
C976 C985 1.429 1_655 S
C977 C975 1.419 . S
C977 C978 1.363 . S
C977 H980 0.929 . S
C978 C977 1.363 . S
C978 C984 1.428 1_655 S
H979 C975 0.930 . S
H980 C977 0.929 . S
S981 N982 1.613 . S
S981 N983 1.610 . S
N982 S981 1.613 . S
N982 C985 1.350 . S
N983 S981 1.610 . S
N983 C984 1.351 . S
C984 C978 1.428 1_455 S
C984 N983 1.351 . S
C984 C985 1.434 . S
C985 C976 1.429 1_455 S
C985 N982 1.350 . S
C985 C984 1.434 . S
C986 C987 1.369 . S
C986 C988 1.419 . S
C986 H990 0.930 . S
C987 C986 1.369 . S
C987 C996 1.429 . S
C988 C986 1.419 . S
C988 C989 1.363 . S
C988 H991 0.929 . S
C989 C988 1.363 . S
C989 C995 1.428 . S
H990 C986 0.930 . S
H991 C988 0.929 . S
S992 N993 1.613 . S
S992 N994 1.610 . S
N993 S992 1.613 . S
N993 C996 1.350 . S
N994 S992 1.610 . S
N994 C995 1.351 . S
C995 C989 1.428 . S
C995 N994 1.351 . S
C995 C996 1.434 . S
C996 C987 1.429 . S
C996 N993 1.350 . S
C996 C995 1.434 . S
C997 C998 1.369 . S
C997 C999 1.419 . S
C997 H1001 0.930 . S
C998 C997 1.369 . S
C998 C1007 1.429 1_455 S
C999 C997 1.419 . S
C999 C1000 1.363 1_455 S
C999 H1002 0.929 . S
C1000 C999 1.363 1_655 S
C1000 C1006 1.428 . S
H1001 C997 0.930 . S
H1002 C999 0.929 . S
S1003 N1004 1.613 . S
S1003 N1005 1.610 . S
N1004 S1003 1.613 . S
N1004 C1007 1.350 . S
N1005 S1003 1.610 . S
N1005 C1006 1.351 . S
C1006 C1000 1.428 . S
C1006 N1005 1.351 . S
C1006 C1007 1.434 . S
C1007 C998 1.429 1_655 S
C1007 N1004 1.350 . S
C1007 C1006 1.434 . S
C1008 C1009 1.369 . S
C1008 C1010 1.419 . S
C1008 H1012 0.930 . S
C1009 C1008 1.369 . S
C1009 C1018 1.429 . S
C1010 C1008 1.419 . S
C1010 C1011 1.363 . S
C1010 H1013 0.929 . S
C1011 C1010 1.363 . S
C1011 C1017 1.428 . S
H1012 C1008 0.930 . S
H1013 C1010 0.929 . S
S1014 N1015 1.613 . S
S1014 N1016 1.610 . S
N1015 S1014 1.613 . S
N1015 C1018 1.350 . S
N1016 S1014 1.610 . S
N1016 C1017 1.351 . S
C1017 C1011 1.428 . S
C1017 N1016 1.351 . S
C1017 C1018 1.434 . S
C1018 C1009 1.429 . S
C1018 N1015 1.350 . S
C1018 C1017 1.434 . S
C1019 C1020 1.369 . S
C1019 C1021 1.419 . S
C1019 H1023 0.930 . S
C1020 C1019 1.369 . S
C1020 C1029 1.429 . S
C1021 C1019 1.419 . S
C1021 C1022 1.363 . S
C1021 H1024 0.929 . S
C1022 C1021 1.363 . S
C1022 C1028 1.428 . S
H1023 C1019 0.930 . S
H1024 C1021 0.929 . S
S1025 N1026 1.613 . S
S1025 N1027 1.610 . S
N1026 S1025 1.613 . S
N1026 C1029 1.350 . S
N1027 S1025 1.610 . S
N1027 C1028 1.351 . S
C1028 C1022 1.428 . S
C1028 N1027 1.351 . S
C1028 C1029 1.434 . S
C1029 C1020 1.429 . S
C1029 N1026 1.350 . S
C1029 C1028 1.434 . S
C1030 C1031 1.369 . S
C1030 C1032 1.419 . S
C1030 H1034 0.930 1_545 S
C1031 C1030 1.369 . S
C1031 C1040 1.429 . S
C1032 C1030 1.419 . S
C1032 C1033 1.363 . S
C1032 H1035 0.929 . S
C1033 C1032 1.363 . S
C1033 C1039 1.428 . S
H1034 C1030 0.930 1_565 S
H1035 C1032 0.929 . S
S1036 N1037 1.613 . S
S1036 N1038 1.610 . S
N1037 S1036 1.613 . S
N1037 C1040 1.350 . S
N1038 S1036 1.610 . S
N1038 C1039 1.351 . S
C1039 C1033 1.428 . S
C1039 N1038 1.351 . S
C1039 C1040 1.434 . S
C1040 C1031 1.429 . S
C1040 N1037 1.350 . S
C1040 C1039 1.434 . S
C1041 C1042 1.369 . S
C1041 C1043 1.419 . S
C1041 H1045 0.930 . S
C1042 C1041 1.369 . S
C1042 C1051 1.429 . S
C1043 C1041 1.419 . S
C1043 C1044 1.363 . S
C1043 H1046 0.929 . S
C1044 C1043 1.363 . S
C1044 C1050 1.428 . S
H1045 C1041 0.930 . S
H1046 C1043 0.929 . S
S1047 N1048 1.613 . S
S1047 N1049 1.610 . S
N1048 S1047 1.613 . S
N1048 C1051 1.350 . S
N1049 S1047 1.610 . S
N1049 C1050 1.351 . S
C1050 C1044 1.428 . S
C1050 N1049 1.351 . S
C1050 C1051 1.434 . S
C1051 C1042 1.429 . S
C1051 N1048 1.350 . S
C1051 C1050 1.434 . S
C1052 C1053 1.369 . S
C1052 C1054 1.419 . S
C1052 H1056 0.930 . S
C1053 C1052 1.369 . S
C1053 C1062 1.429 . S
C1054 C1052 1.419 . S
C1054 C1055 1.363 . S
C1054 H1057 0.929 . S
C1055 C1054 1.363 . S
C1055 C1061 1.428 . S
H1056 C1052 0.930 . S
H1057 C1054 0.929 . S
S1058 N1059 1.613 . S
S1058 N1060 1.610 . S
N1059 S1058 1.613 . S
N1059 C1062 1.350 . S
N1060 S1058 1.610 . S
N1060 C1061 1.351 . S
C1061 C1055 1.428 . S
C1061 N1060 1.351 . S
C1061 C1062 1.434 . S
C1062 C1053 1.429 . S
C1062 N1059 1.350 . S
C1062 C1061 1.434 . S
C1063 C1064 1.369 . S
C1063 C1065 1.419 . S
C1063 H1067 0.930 . S
C1064 C1063 1.369 . S
C1064 C1073 1.429 . S
C1065 C1063 1.419 . S
C1065 C1066 1.363 . S
C1065 H1068 0.929 . S
C1066 C1065 1.363 . S
C1066 C1072 1.428 . S
H1067 C1063 0.930 . S
H1068 C1065 0.929 . S
S1069 N1070 1.613 . S
S1069 N1071 1.610 . S
N1070 S1069 1.613 . S
N1070 C1073 1.350 . S
N1071 S1069 1.610 . S
N1071 C1072 1.351 . S
C1072 C1066 1.428 . S
C1072 N1071 1.351 . S
C1072 C1073 1.434 . S
C1073 C1064 1.429 . S
C1073 N1070 1.350 . S
C1073 C1072 1.434 . S
C1074 C1075 1.369 . S
C1074 C1076 1.419 . S
C1074 H1078 0.930 . S
C1075 C1074 1.369 . S
C1075 C1084 1.429 . S
C1076 C1074 1.419 . S
C1076 C1077 1.363 . S
C1076 H1079 0.929 . S
C1077 C1076 1.363 . S
C1077 C1083 1.428 . S
H1078 C1074 0.930 . S
H1079 C1076 0.929 . S
S1080 N1081 1.613 . S
S1080 N1082 1.610 . S
N1081 S1080 1.613 . S
N1081 C1084 1.350 . S
N1082 S1080 1.610 . S
N1082 C1083 1.351 . S
C1083 C1077 1.428 . S
C1083 N1082 1.351 . S
C1083 C1084 1.434 . S
C1084 C1075 1.429 . S
C1084 N1081 1.350 . S
C1084 C1083 1.434 . S
C1085 C1086 1.369 . S
C1085 C1087 1.419 . S
C1085 H1089 0.930 . S
C1086 C1085 1.369 . S
C1086 C1095 1.429 1_554 S
C1087 C1085 1.419 . S
C1087 C1088 1.363 . S
C1087 H1090 0.929 . S
C1088 C1087 1.363 . S
C1088 C1094 1.428 . S
H1089 C1085 0.930 . S
H1090 C1087 0.929 . S
S1091 N1092 1.613 . S
S1091 N1093 1.610 . S
N1092 S1091 1.613 . S
N1092 C1095 1.350 . S
N1093 S1091 1.610 . S
N1093 C1094 1.351 1_556 S
C1094 C1088 1.428 . S
C1094 N1093 1.351 1_554 S
C1094 C1095 1.434 1_554 S
C1095 C1086 1.429 1_556 S
C1095 N1092 1.350 . S
C1095 C1094 1.434 1_556 S
C1096 C1097 1.369 . S
C1096 C1098 1.419 . S
C1096 H1100 0.930 . S
C1097 C1096 1.369 . S
C1097 C1106 1.429 . S
C1098 C1096 1.419 . S
C1098 C1099 1.363 . S
C1098 H1101 0.929 . S
C1099 C1098 1.363 . S
C1099 C1105 1.428 . S
H1100 C1096 0.930 . S
H1101 C1098 0.929 . S
S1102 N1103 1.613 . S
S1102 N1104 1.610 . S
N1103 S1102 1.613 . S
N1103 C1106 1.350 . S
N1104 S1102 1.610 . S
N1104 C1105 1.351 . S
C1105 C1099 1.428 . S
C1105 N1104 1.351 . S
C1105 C1106 1.434 . S
C1106 C1097 1.429 . S
C1106 N1103 1.350 . S
C1106 C1105 1.434 . S
C1107 C1108 1.369 . S
C1107 C1109 1.419 . S
C1107 H1111 0.930 . S
C1108 C1107 1.369 . S
C1108 C1117 1.429 . S
C1109 C1107 1.419 . S
C1109 C1110 1.363 . S
C1109 H1112 0.929 . S
C1110 C1109 1.363 . S
C1110 C1116 1.428 . S
H1111 C1107 0.930 . S
H1112 C1109 0.929 . S
S1113 N1114 1.613 . S
S1113 N1115 1.610 1_455 S
N1114 S1113 1.613 . S
N1114 C1117 1.350 1_455 S
N1115 S1113 1.610 1_655 S
N1115 C1116 1.351 . S
C1116 C1110 1.428 . S
C1116 N1115 1.351 . S
C1116 C1117 1.434 . S
C1117 C1108 1.429 . S
C1117 N1114 1.350 1_655 S
C1117 C1116 1.434 . S
C1118 C1119 1.369 . S
C1118 C1120 1.419 . S
C1118 H1122 0.930 . S
C1119 C1118 1.369 . S
C1119 C1128 1.429 . S
C1120 C1118 1.419 . S
C1120 C1121 1.363 . S
C1120 H1123 0.929 . S
C1121 C1120 1.363 . S
C1121 C1127 1.428 . S
H1122 C1118 0.930 . S
H1123 C1120 0.929 . S
S1124 N1125 1.613 . S
S1124 N1126 1.610 . S
N1125 S1124 1.613 . S
N1125 C1128 1.350 . S
N1126 S1124 1.610 . S
N1126 C1127 1.351 . S
C1127 C1121 1.428 . S
C1127 N1126 1.351 . S
C1127 C1128 1.434 . S
C1128 C1119 1.429 . S
C1128 N1125 1.350 . S
C1128 C1127 1.434 . S
C1129 C1130 1.369 . S
C1129 C1131 1.419 . S
C1129 H1133 0.930 1_455 S
C1130 C1129 1.369 . S
C1130 C1139 1.429 . S
C1131 C1129 1.419 . S
C1131 C1132 1.363 . S
C1131 H1134 0.929 . S
C1132 C1131 1.363 . S
C1132 C1138 1.428 . S
H1133 C1129 0.930 1_655 S
H1134 C1131 0.929 . S
S1135 N1136 1.613 . S
S1135 N1137 1.610 . S
N1136 S1135 1.613 . S
N1136 C1139 1.350 . S
N1137 S1135 1.610 . S
N1137 C1138 1.351 . S
C1138 C1132 1.428 . S
C1138 N1137 1.351 . S
C1138 C1139 1.434 . S
C1139 C1130 1.429 . S
C1139 N1136 1.350 . S
C1139 C1138 1.434 . S
C1140 C1141 1.369 . S
C1140 C1142 1.419 . S
C1140 H1144 0.930 . S
C1141 C1140 1.369 . S
C1141 C1150 1.429 . S
C1142 C1140 1.419 . S
C1142 C1143 1.363 . S
C1142 H1145 0.929 . S
C1143 C1142 1.363 . S
C1143 C1149 1.428 . S
H1144 C1140 0.930 . S
H1145 C1142 0.929 . S
S1146 N1147 1.613 . S
S1146 N1148 1.610 . S
N1147 S1146 1.613 . S
N1147 C1150 1.350 . S
N1148 S1146 1.610 . S
N1148 C1149 1.351 . S
C1149 C1143 1.428 . S
C1149 N1148 1.351 . S
C1149 C1150 1.434 . S
C1150 C1141 1.429 . S
C1150 N1147 1.350 . S
C1150 C1149 1.434 . S
C1151 C1152 1.369 . S
C1151 C1153 1.419 . S
C1151 H1155 0.930 . S
C1152 C1151 1.369 . S
C1152 C1161 1.429 . S
C1153 C1151 1.419 . S
C1153 C1154 1.363 . S
C1153 H1156 0.929 . S
C1154 C1153 1.363 . S
C1154 C1160 1.428 . S
H1155 C1151 0.930 . S
H1156 C1153 0.929 . S
S1157 N1158 1.613 . S
S1157 N1159 1.610 . S
N1158 S1157 1.613 . S
N1158 C1161 1.350 . S
N1159 S1157 1.610 . S
N1159 C1160 1.351 . S
C1160 C1154 1.428 . S
C1160 N1159 1.351 . S
C1160 C1161 1.434 . S
C1161 C1152 1.429 . S
C1161 N1158 1.350 . S
C1161 C1160 1.434 . S
C1162 C1163 1.369 . S
C1162 C1164 1.419 . S
C1162 H1166 0.930 . S
C1163 C1162 1.369 . S
C1163 C1172 1.429 . S
C1164 C1162 1.419 . S
C1164 C1165 1.363 . S
C1164 H1167 0.929 . S
C1165 C1164 1.363 . S
C1165 C1171 1.428 . S
H1166 C1162 0.930 . S
H1167 C1164 0.929 . S
S1168 N1169 1.613 . S
S1168 N1170 1.610 . S
N1169 S1168 1.613 . S
N1169 C1172 1.350 . S
N1170 S1168 1.610 . S
N1170 C1171 1.351 . S
C1171 C1165 1.428 . S
C1171 N1170 1.351 . S
C1171 C1172 1.434 . S
C1172 C1163 1.429 . S
C1172 N1169 1.350 . S
C1172 C1171 1.434 . S
C1173 C1174 1.369 . S
C1173 C1175 1.419 . S
C1173 H1177 0.930 . S
C1174 C1173 1.369 . S
C1174 C1183 1.429 . S
C1175 C1173 1.419 . S
C1175 C1176 1.363 . S
C1175 H1178 0.929 . S
C1176 C1175 1.363 . S
C1176 C1182 1.428 . S
H1177 C1173 0.930 . S
H1178 C1175 0.929 . S
S1179 N1180 1.613 . S
S1179 N1181 1.610 . S
N1180 S1179 1.613 . S
N1180 C1183 1.350 . S
N1181 S1179 1.610 . S
N1181 C1182 1.351 . S
C1182 C1176 1.428 . S
C1182 N1181 1.351 . S
C1182 C1183 1.434 . S
C1183 C1174 1.429 . S
C1183 N1180 1.350 . S
C1183 C1182 1.434 . S
C1184 C1185 1.369 . S
C1184 C1186 1.419 . S
C1184 H1188 0.930 . S
C1185 C1184 1.369 . S
C1185 C1194 1.429 . S
C1186 C1184 1.419 . S
C1186 C1187 1.363 . S
C1186 H1189 0.929 . S
C1187 C1186 1.363 . S
C1187 C1193 1.428 . S
H1188 C1184 0.930 . S
H1189 C1186 0.929 . S
S1190 N1191 1.613 . S
S1190 N1192 1.610 . S
N1191 S1190 1.613 . S
N1191 C1194 1.350 . S
N1192 S1190 1.610 . S
N1192 C1193 1.351 . S
C1193 C1187 1.428 . S
C1193 N1192 1.351 . S
C1193 C1194 1.434 . S
C1194 C1185 1.429 . S
C1194 N1191 1.350 . S
C1194 C1193 1.434 . S
C1195 C1196 1.369 . S
C1195 C1197 1.419 . S
C1195 H1199 0.930 . S
C1196 C1195 1.369 . S
C1196 C1205 1.429 . S
C1197 C1195 1.419 . S
C1197 C1198 1.363 . S
C1197 H1200 0.929 . S
C1198 C1197 1.363 . S
C1198 C1204 1.428 . S
H1199 C1195 0.930 . S
H1200 C1197 0.929 . S
S1201 N1202 1.613 . S
S1201 N1203 1.610 1_556 S
N1202 S1201 1.613 . S
N1202 C1205 1.350 1_556 S
N1203 S1201 1.610 1_554 S
N1203 C1204 1.351 . S
C1204 C1198 1.428 . S
C1204 N1203 1.351 . S
C1204 C1205 1.434 . S
C1205 C1196 1.429 . S
C1205 N1202 1.350 1_554 S
C1205 C1204 1.434 . S
C1206 C1207 1.369 . S
C1206 C1208 1.419 . S
C1206 H1210 0.930 . S
C1207 C1206 1.369 . S
C1207 C1216 1.429 . S
C1208 C1206 1.419 . S
C1208 C1209 1.363 . S
C1208 H1211 0.929 . S
C1209 C1208 1.363 . S
C1209 C1215 1.428 . S
H1210 C1206 0.930 . S
H1211 C1208 0.929 . S
S1212 N1213 1.613 . S
S1212 N1214 1.610 . S
N1213 S1212 1.613 . S
N1213 C1216 1.350 . S
N1214 S1212 1.610 . S
N1214 C1215 1.351 . S
C1215 C1209 1.428 . S
C1215 N1214 1.351 . S
C1215 C1216 1.434 . S
C1216 C1207 1.429 . S
C1216 N1213 1.350 . S
C1216 C1215 1.434 . S
C1217 C1218 1.369 . S
C1217 C1219 1.419 . S
C1217 H1221 0.930 . S
C1218 C1217 1.369 . S
C1218 C1227 1.429 . S
C1219 C1217 1.419 . S
C1219 C1220 1.363 . S
C1219 H1222 0.929 . S
C1220 C1219 1.363 . S
C1220 C1226 1.428 . S
H1221 C1217 0.930 . S
H1222 C1219 0.929 . S
S1223 N1224 1.613 . S
S1223 N1225 1.610 1_554 S
N1224 S1223 1.613 . S
N1224 C1227 1.350 1_554 S
N1225 S1223 1.610 1_556 S
N1225 C1226 1.351 . S
C1226 C1220 1.428 . S
C1226 N1225 1.351 . S
C1226 C1227 1.434 . S
C1227 C1218 1.429 . S
C1227 N1224 1.350 1_556 S
C1227 C1226 1.434 . S
C1228 C1229 1.369 . S
C1228 C1230 1.419 . S
C1228 H1232 0.930 . S
C1229 C1228 1.369 . S
C1229 C1238 1.429 . S
C1230 C1228 1.419 . S
C1230 C1231 1.363 . S
C1230 H1233 0.929 . S
C1231 C1230 1.363 . S
C1231 C1237 1.428 . S
H1232 C1228 0.930 . S
H1233 C1230 0.929 . S
S1234 N1235 1.613 . S
S1234 N1236 1.610 . S
N1235 S1234 1.613 . S
N1235 C1238 1.350 . S
N1236 S1234 1.610 . S
N1236 C1237 1.351 . S
C1237 C1231 1.428 . S
C1237 N1236 1.351 . S
C1237 C1238 1.434 . S
C1238 C1229 1.429 . S
C1238 N1235 1.350 . S
C1238 C1237 1.434 . S
C1239 C1240 1.369 . S
C1239 C1241 1.419 . S
C1239 H1243 0.930 1_455 S
C1240 C1239 1.369 . S
C1240 C1249 1.429 . S
C1241 C1239 1.419 . S
C1241 C1242 1.363 . S
C1241 H1244 0.929 . S
C1242 C1241 1.363 . S
C1242 C1248 1.428 . S
H1243 C1239 0.930 1_655 S
H1244 C1241 0.929 . S
S1245 N1246 1.613 . S
S1245 N1247 1.610 . S
N1246 S1245 1.613 . S
N1246 C1249 1.350 . S
N1247 S1245 1.610 . S
N1247 C1248 1.351 . S
C1248 C1242 1.428 . S
C1248 N1247 1.351 . S
C1248 C1249 1.434 . S
C1249 C1240 1.429 . S
C1249 N1246 1.350 . S
C1249 C1248 1.434 . S
C1250 C1251 1.369 . S
C1250 C1252 1.419 . S
C1250 H1254 0.930 . S
C1251 C1250 1.369 . S
C1251 C1260 1.429 . S
C1252 C1250 1.419 . S
C1252 C1253 1.363 . S
C1252 H1255 0.929 . S
C1253 C1252 1.363 . S
C1253 C1259 1.428 . S
H1254 C1250 0.930 . S
H1255 C1252 0.929 . S
S1256 N1257 1.613 . S
S1256 N1258 1.610 . S
N1257 S1256 1.613 . S
N1257 C1260 1.350 . S
N1258 S1256 1.610 . S
N1258 C1259 1.351 . S
C1259 C1253 1.428 . S
C1259 N1258 1.351 . S
C1259 C1260 1.434 . S
C1260 C1251 1.429 . S
C1260 N1257 1.350 . S
C1260 C1259 1.434 . S
C1261 C1262 1.369 . S
C1261 C1263 1.419 . S
C1261 H1265 0.930 1_655 S
C1262 C1261 1.369 . S
C1262 C1271 1.429 . S
C1263 C1261 1.419 . S
C1263 C1264 1.363 . S
C1263 H1266 0.929 . S
C1264 C1263 1.363 . S
C1264 C1270 1.428 . S
H1265 C1261 0.930 1_455 S
H1266 C1263 0.929 . S
S1267 N1268 1.613 . S
S1267 N1269 1.610 . S
N1268 S1267 1.613 . S
N1268 C1271 1.350 . S
N1269 S1267 1.610 . S
N1269 C1270 1.351 . S
C1270 C1264 1.428 . S
C1270 N1269 1.351 . S
C1270 C1271 1.434 . S
C1271 C1262 1.429 . S
C1271 N1268 1.350 . S
C1271 C1270 1.434 . S
C483 C475 1.799 . S
C481 C8 1.761 . S
C494 C448 1.689 . S
C492 C19 1.602 . S
C505 C466 1.534 . S
C503 C30 1.498 . S
C516 C457 1.913 . S
C514 C41 1.858 . S
C527 C394 1.799 . S
C525 C52 1.762 . S
C536 C63 1.859 . S
C538 C403 1.914 . S
C549 C376 1.688 . S
C547 C74 1.600 . S
C558 C85 1.502 . S
C560 C385 1.529 . S
C571 C439 1.800 . S
C569 C96 1.756 . S
C580 C107 1.856 . S
C582 C421 1.915 . S
C591 C118 1.600 . S
C593 C412 1.689 . S
C604 C430 1.532 . S
C602 C129 1.503 . S
C615 C367 1.801 . S
C613 C140 1.698 . S
C624 C151 1.507 . S
C626 C340 1.689 . S
C637 C358 1.534 . S
C635 C162 1.434 . S
C646 C173 1.767 . S
C648 C349 1.916 . S
C659 C286 1.802 . S
C657 C184 1.704 . S
C670 C295 1.914 . S
C668 C195 1.768 . S
C679 C206 1.517 . S
C681 C268 1.690 . S
C690 C217 1.438 . S
C692 C277 1.530 . S
C701 C228 1.695 . S
C703 C331 1.805 . S
C712 C239 1.771 . S
C714 C313 1.917 . S
C725 C304 1.690 . S
C723 C250 1.506 . S
C734 C261 1.437 . S
C736 C322 1.529 . S
C747 C269 1.334 . S
C745 C7 1.356 . S
C758 C278 1.355 . S
C756 C18 1.374 . S
C767 C29 1.357 . S
C769 C287 1.340 . S
C778 C40 1.246 . S
C780 C296 1.249 . S
C791 C305 1.334 . S
C789 C51 1.356 . S
C800 C62 1.250 . S
C802 C314 1.248 . S
C813 C323 1.348 . S
C811 C73 1.376 . S
C824 C332 1.341 . S
C822 C84 1.354 . S
C835 C341 1.328 . S
C833 C95 1.358 . S
C844 C106 1.247 . S
C846 C350 1.250 . S
C855 C117 1.381 . S
C857 C359 1.349 . S
C866 C128 1.356 . S
C868 C368 1.341 . S
C877 C139 1.240 . S
C879 C377 1.330 . S
C888 C150 1.188 . S
C890 C386 1.359 . S
C899 C161 1.209 . S
C901 C395 1.344 . S
C910 C172 1.129 . S
C912 C404 1.251 . S
C921 C183 1.241 . S
C923 C413 1.331 . S
C934 C422 1.248 . S
C932 C194 1.124 . S
C945 C431 1.352 . S
C943 C205 1.206 . S
C956 C440 1.345 . S
C954 C216 1.211 . S
C967 C449 1.335 . S
C965 C227 1.238 . S
C976 C238 1.114 . S
C978 C458 1.253 . S
C987 C249 1.188 . S
C989 C467 1.357 . S
C998 C260 1.211 . S
C1000 C476 1.345 . S
C1009 C5 1.542 . S
C1011 C343 1.758 . S
C1022 C370 1.733 . S
C1020 C16 1.564 . S
C1031 C27 1.381 1_545 S
C1033 C352 1.483 . S
C1044 C361 1.955 . S
C1042 C38 1.782 1_565 S
C1053 C49 1.541 . S
C1055 C271 1.757 . S
C1064 C60 1.782 1_556 S
C1066 C280 1.954 . S
C1075 C71 1.567 . S
C1077 C289 1.729 . S
C1086 C82 1.367 1_554 S
C1088 C298 1.487 . S
C1099 C307 1.757 . S
C1097 C93 1.547 . S
C1110 C325 1.954 . S
C1108 C104 1.779 1_655 S
C1119 C115 1.564 . S
C1121 C334 1.732 . S
C1130 C126 1.381 1_455 S
C1132 C316 1.482 . S
C1143 C451 1.761 . S
C1141 C137 1.253 . S
C1154 C478 1.738 . S
C1152 C148 1.097 . S
C1163 C159 1.046 . S
C1165 C460 1.490 . S
C1176 C469 1.963 . S
C1174 C170 1.329 . S
C1185 C181 1.253 . S
C1187 C379 1.761 . S
C1196 C192 1.346 . S
C1198 C388 1.960 . S
C1207 C203 1.112 . S
C1209 C397 1.737 . S
C1220 C406 1.497 . S
C1218 C214 1.044 . S
C1231 C415 1.765 . S
C1229 C225 1.239 . S
C1242 C433 1.960 . S
C1240 C236 1.341 . S
C1251 C247 1.094 . S
C1253 C442 1.740 . S
C1264 C424 1.494 . S
C1262 C258 1.039 . S
