# Generated by pormake.
# Topology eea, (3,6)-cn, num edge types: 1
# Building blocks:
#     Node 0, Type 0, BuildingBlock: BELTOD_clean_linker_0, # of connection points: 3
#     Node 1, Type 0, BuildingBlock: BELTOD_clean_linker_0, # of connection points: 3
#     Node 2, Type 0, BuildingBlock: BELTOD_clean_linker_0, # of connection points: 3
#     Node 3, Type 0, BuildingBlock: BELTOD_clean_linker_0, # of connection points: 3
#     Node 4, Type 0, BuildingBlock: BELTOD_clean_linker_0, # of connection points: 3
#     Node 5, Type 0, BuildingBlock: BELTOD_clean_linker_0, # of connection points: 3
#     Node 6, Type 0, BuildingBlock: BELTOD_clean_linker_0, # of connection points: 3
#     Node 7, Type 0, BuildingBlock: BELTOD_clean_linker_0, # of connection points: 3
#     Node 8, Type 0, BuildingBlock: BELTOD_clean_linker_0, # of connection points: 3
#     Node 9, Type 0, BuildingBlock: BELTOD_clean_linker_0, # of connection points: 3
#     Node 10, Type 0, BuildingBlock: BELTOD_clean_linker_0, # of connection points: 3
#     Node 11, Type 0, BuildingBlock: BELTOD_clean_linker_0, # of connection points: 3
#     Node 12, Type 0, BuildingBlock: BELTOD_clean_linker_0, # of connection points: 3
#     Node 13, Type 0, BuildingBlock: BELTOD_clean_linker_0, # of connection points: 3
#     Node 14, Type 0, BuildingBlock: BELTOD_clean_linker_0, # of connection points: 3
#     Node 15, Type 0, BuildingBlock: BELTOD_clean_linker_0, # of connection points: 3
#     Node 16, Type 0, BuildingBlock: BELTOD_clean_linker_0, # of connection points: 3
#     Node 17, Type 0, BuildingBlock: BELTOD_clean_linker_0, # of connection points: 3
#     Node 18, Type 1, BuildingBlock: CUKXOW_clean_sbu_0, # of connection points: 6
#     Node 19, Type 1, BuildingBlock: CUKXOW_clean_sbu_0, # of connection points: 6
#     Node 20, Type 1, BuildingBlock: CUKXOW_clean_sbu_0, # of connection points: 6
#     Node 21, Type 1, BuildingBlock: CUKXOW_clean_sbu_0, # of connection points: 6
#     Node 22, Type 1, BuildingBlock: CUKXOW_clean_sbu_0, # of connection points: 6
#     Node 23, Type 1, BuildingBlock: CUKXOW_clean_sbu_0, # of connection points: 6
#     Node 24, Type 1, BuildingBlock: CUKXOW_clean_sbu_0, # of connection points: 6
#     Node 25, Type 1, BuildingBlock: CUKXOW_clean_sbu_0, # of connection points: 6
#     Node 26, Type 1, BuildingBlock: CUKXOW_clean_sbu_0, # of connection points: 6
#     Edge 27, Type (0, 1), BuildingBlock: EZIPEK_clean_linker_0, # of connection points: 2
#     Edge 28, Type (0, 1), BuildingBlock: EZIPEK_clean_linker_0, # of connection points: 2
#     Edge 29, Type (0, 1), BuildingBlock: EZIPEK_clean_linker_0, # of connection points: 2
#     Edge 30, Type (0, 1), BuildingBlock: EZIPEK_clean_linker_0, # of connection points: 2
#     Edge 31, Type (0, 1), BuildingBlock: EZIPEK_clean_linker_0, # of connection points: 2
#     Edge 32, Type (0, 1), BuildingBlock: EZIPEK_clean_linker_0, # of connection points: 2
#     Edge 33, Type (0, 1), BuildingBlock: EZIPEK_clean_linker_0, # of connection points: 2
#     Edge 34, Type (0, 1), BuildingBlock: EZIPEK_clean_linker_0, # of connection points: 2
#     Edge 35, Type (0, 1), BuildingBlock: EZIPEK_clean_linker_0, # of connection points: 2
#     Edge 36, Type (0, 1), BuildingBlock: EZIPEK_clean_linker_0, # of connection points: 2
#     Edge 37, Type (0, 1), BuildingBlock: EZIPEK_clean_linker_0, # of connection points: 2
#     Edge 38, Type (0, 1), BuildingBlock: EZIPEK_clean_linker_0, # of connection points: 2
#     Edge 39, Type (0, 1), BuildingBlock: EZIPEK_clean_linker_0, # of connection points: 2
#     Edge 40, Type (0, 1), BuildingBlock: EZIPEK_clean_linker_0, # of connection points: 2
#     Edge 41, Type (0, 1), BuildingBlock: EZIPEK_clean_linker_0, # of connection points: 2
#     Edge 42, Type (0, 1), BuildingBlock: EZIPEK_clean_linker_0, # of connection points: 2
#     Edge 43, Type (0, 1), BuildingBlock: EZIPEK_clean_linker_0, # of connection points: 2
#     Edge 44, Type (0, 1), BuildingBlock: EZIPEK_clean_linker_0, # of connection points: 2
#     Edge 45, Type (0, 1), BuildingBlock: EZIPEK_clean_linker_0, # of connection points: 2
#     Edge 46, Type (0, 1), BuildingBlock: EZIPEK_clean_linker_0, # of connection points: 2
#     Edge 47, Type (0, 1), BuildingBlock: EZIPEK_clean_linker_0, # of connection points: 2
#     Edge 48, Type (0, 1), BuildingBlock: EZIPEK_clean_linker_0, # of connection points: 2
#     Edge 49, Type (0, 1), BuildingBlock: EZIPEK_clean_linker_0, # of connection points: 2
#     Edge 50, Type (0, 1), BuildingBlock: EZIPEK_clean_linker_0, # of connection points: 2
#     Edge 51, Type (0, 1), BuildingBlock: EZIPEK_clean_linker_0, # of connection points: 2
#     Edge 52, Type (0, 1), BuildingBlock: EZIPEK_clean_linker_0, # of connection points: 2
#     Edge 53, Type (0, 1), BuildingBlock: EZIPEK_clean_linker_0, # of connection points: 2
#     Edge 54, Type (0, 1), BuildingBlock: EZIPEK_clean_linker_0, # of connection points: 2
#     Edge 55, Type (0, 1), BuildingBlock: EZIPEK_clean_linker_0, # of connection points: 2
#     Edge 56, Type (0, 1), BuildingBlock: EZIPEK_clean_linker_0, # of connection points: 2
#     Edge 57, Type (0, 1), BuildingBlock: EZIPEK_clean_linker_0, # of connection points: 2
#     Edge 58, Type (0, 1), BuildingBlock: EZIPEK_clean_linker_0, # of connection points: 2
#     Edge 59, Type (0, 1), BuildingBlock: EZIPEK_clean_linker_0, # of connection points: 2
#     Edge 60, Type (0, 1), BuildingBlock: EZIPEK_clean_linker_0, # of connection points: 2
#     Edge 61, Type (0, 1), BuildingBlock: EZIPEK_clean_linker_0, # of connection points: 2
#     Edge 62, Type (0, 1), BuildingBlock: EZIPEK_clean_linker_0, # of connection points: 2
#     Edge 63, Type (0, 1), BuildingBlock: EZIPEK_clean_linker_0, # of connection points: 2
#     Edge 64, Type (0, 1), BuildingBlock: EZIPEK_clean_linker_0, # of connection points: 2
#     Edge 65, Type (0, 1), BuildingBlock: EZIPEK_clean_linker_0, # of connection points: 2
#     Edge 66, Type (0, 1), BuildingBlock: EZIPEK_clean_linker_0, # of connection points: 2
#     Edge 67, Type (0, 1), BuildingBlock: EZIPEK_clean_linker_0, # of connection points: 2
#     Edge 68, Type (0, 1), BuildingBlock: EZIPEK_clean_linker_0, # of connection points: 2
#     Edge 69, Type (0, 1), BuildingBlock: EZIPEK_clean_linker_0, # of connection points: 2
#     Edge 70, Type (0, 1), BuildingBlock: EZIPEK_clean_linker_0, # of connection points: 2
#     Edge 71, Type (0, 1), BuildingBlock: EZIPEK_clean_linker_0, # of connection points: 2
#     Edge 72, Type (0, 1), BuildingBlock: EZIPEK_clean_linker_0, # of connection points: 2
#     Edge 73, Type (0, 1), BuildingBlock: EZIPEK_clean_linker_0, # of connection points: 2
#     Edge 74, Type (0, 1), BuildingBlock: EZIPEK_clean_linker_0, # of connection points: 2
#     Edge 75, Type (0, 1), BuildingBlock: EZIPEK_clean_linker_0, # of connection points: 2
#     Edge 76, Type (0, 1), BuildingBlock: EZIPEK_clean_linker_0, # of connection points: 2
#     Edge 77, Type (0, 1), BuildingBlock: EZIPEK_clean_linker_0, # of connection points: 2
#     Edge 78, Type (0, 1), BuildingBlock: EZIPEK_clean_linker_0, # of connection points: 2
#     Edge 79, Type (0, 1), BuildingBlock: EZIPEK_clean_linker_0, # of connection points: 2
#     Edge 80, Type (0, 1), BuildingBlock: EZIPEK_clean_linker_0, # of connection points: 2
# Relax obj value: 0.016
# Max RMSD: 0.121
# Mean RMSD: 0.055
data_MOF--net-eea--node1-CUKXOW_clean_sbu_0--node2-BELTOD_clean_linker_0--edge1-EZIPEK_clean_linker_0
_symmetry_space_group_name_H-M    P1
_symmetry_Int_Tables_number       1
_symmetry_cell_setting            triclinic
loop_
_symmetry_equiv_pos_as_xyz
'x, y, z'
_cell_length_a     49.211369
_cell_length_b     45.84191
_cell_length_c     50.235059
_cell_angle_alpha  93.909739
_cell_angle_beta   93.356385
_cell_angle_gamma 120.01254
loop_
_atom_site_label
_atom_site_type_symbol
_atom_site_fract_x
_atom_site_fract_y
_atom_site_fract_z
_atom_type_partial_charge
P0 P 0.29745 0.16577 0.42822 0.0
H1 H 0.29169 0.13289 0.3748 0.0
H2 H 0.26519 0.0731 0.35583 0.0
H3 H 0.23059 0.04241 0.43191 0.0
H4 H 0.25664 0.10215 0.45082 0.0
H5 H 0.31625 0.23626 0.42416 0.0
H6 H 0.2877 0.26359 0.4072 0.0
H7 H 0.20201 0.16634 0.39238 0.0
H8 H 0.23036 0.13894 0.40963 0.0
H9 H 0.32961 0.14099 0.46176 0.0
H10 H 0.28472 0.20042 0.47376 0.0
O11 O 0.33201 0.18499 0.41547 0.0
H12 H 0.34171 0.14565 0.51045 0.0
H13 H 0.29726 0.2054 0.52262 0.0
C14 C 0.27685 0.12186 0.4144 0.0
C15 C 0.27834 0.11331 0.38739 0.0
C16 C 0.26309 0.07933 0.37652 0.0
C17 C 0.24608 0.05352 0.39254 0.0
C18 C 0.24367 0.06208 0.41931 0.0
C19 C 0.25875 0.0961 0.43012 0.0
C20 C 0.27554 0.18559 0.4178 0.0
C21 C 0.2913 0.22083 0.41739 0.0
C22 C 0.27509 0.23638 0.40772 0.0
C23 C 0.24293 0.21684 0.39834 0.0
C24 C 0.22691 0.18168 0.39937 0.0
C25 C 0.24311 0.16614 0.40921 0.0
C26 C 0.306 0.17002 0.46415 0.0
C27 C 0.32247 0.15513 0.47485 0.0
C28 C 0.32951 0.15793 0.50256 0.0
C29 C 0.32051 0.17601 0.52001 0.0
C30 C 0.30455 0.19155 0.50938 0.0
C31 C 0.29728 0.18852 0.48154 0.0
P32 P 0.89512 0.11319 0.45842 0.0
H33 H 0.8879 0.06321 0.41587 0.0
H34 H 0.84144 0.01525 0.3897 0.0
H35 H 0.78141 0.04622 0.42624 0.0
H36 H 0.82793 0.09429 0.45257 0.0
H37 H 0.96331 0.1559 0.46682 0.0
H38 H 0.00213 0.19483 0.43917 0.0
H39 H 0.92687 0.18017 0.38131 0.0
H40 H 0.8878 0.14084 0.40899 0.0
H41 H 0.87077 0.08622 0.5076 0.0
H42 H 0.89423 0.17687 0.47041 0.0
O43 O 0.91278 0.09333 0.47096 0.0
H44 H 0.85532 0.10776 0.54615 0.0
H45 H 0.8785 0.19853 0.50934 0.0
C46 C 0.86124 0.08181 0.43649 0.0
C47 C 0.86481 0.06005 0.41793 0.0
C48 C 0.83842 0.03289 0.40289 0.0
C49 C 0.80816 0.02735 0.4061 0.0
C50 C 0.80468 0.05035 0.42345 0.0
C51 C 0.83117 0.07754 0.43859 0.0
C52 C 0.9228 0.1451 0.43968 0.0
C53 C 0.9551 0.16116 0.44828 0.0
C54 C 0.97721 0.18326 0.43252 0.0
C55 C 0.96728 0.18979 0.40804 0.0
C56 C 0.93487 0.17498 0.39999 0.0
C57 C 0.9127 0.1527 0.41579 0.0
C58 C 0.88419 0.13023 0.48643 0.0
C59 C 0.87285 0.11091 0.50786 0.0
C60 C 0.86406 0.12319 0.52988 0.0
C61 C 0.86624 0.15494 0.53081 0.0
C62 C 0.87707 0.17416 0.50912 0.0
C63 C 0.88598 0.16182 0.48698 0.0
P64 P 0.85391 0.6829 0.42154 0.0
H65 H 0.7907 0.6578 0.39463 0.0
H66 H 0.76276 0.68638 0.37927 0.0
H67 H 0.8447 0.78344 0.40752 0.0
H68 H 0.87256 0.75486 0.42331 0.0
H69 H 0.8848 0.67752 0.37535 0.0
H70 H 0.93919 0.70942 0.36404 0.0
H71 H 0.9668 0.77223 0.43973 0.0
H72 H 0.91205 0.74027 0.4511 0.0
H73 H 0.80299 0.67287 0.45391 0.0
H74 H 0.89249 0.677 0.46558 0.0
O75 O 0.8369 0.64428 0.40464 0.0
H76 H 0.79466 0.66222 0.50071 0.0
H77 H 0.88429 0.66697 0.51269 0.0
C78 C 0.83393 0.70422 0.40964 0.0
C79 C 0.80278 0.68522 0.39739 0.0
C80 C 0.78681 0.70147 0.3887 0.0
C81 C 0.80175 0.73698 0.39217 0.0
C82 C 0.83286 0.75602 0.4046 0.0
C83 C 0.84875 0.73971 0.41349 0.0
C84 C 0.89453 0.70593 0.41437 0.0
C85 C 0.90252 0.69791 0.38968 0.0
C86 C 0.9335 0.71619 0.38314 0.0
C87 C 0.95697 0.74306 0.40108 0.0
C88 C 0.94899 0.75148 0.42568 0.0
C89 C 0.91787 0.73314 0.43221 0.0
C90 C 0.84896 0.67706 0.45647 0.0
C91 C 0.82103 0.67188 0.46654 0.0
C92 C 0.81603 0.66538 0.49314 0.0
C93 C 0.83881 0.66372 0.51003 0.0
C94 C 0.86642 0.66808 0.49986 0.0
C95 C 0.87127 0.67427 0.47313 0.0
P96 P 0.16257 0.31943 0.59097 0.0
H97 H 0.13798 0.3246 0.64132 0.0
H98 H 0.08459 0.29749 0.65538 0.0
H99 H 0.04684 0.24162 0.57682 0.0
H100 H 0.10044 0.2686 0.56273 0.0
H101 H 0.22568 0.33822 0.61449 0.0
H102 H 0.2496 0.30475 0.6274 0.0
H103 H 0.16306 0.21261 0.59787 0.0
H104 H 0.13904 0.24614 0.58478 0.0
H105 H 0.12659 0.33877 0.55531 0.0
H106 H 0.20251 0.31778 0.55028 0.0
O107 O 0.18334 0.35756 0.60867 0.0
H108 H 0.12948 0.35077 0.50832 0.0
H109 H 0.20561 0.33025 0.50342 0.0
C110 C 0.12306 0.29926 0.60078 0.0
C111 C 0.11826 0.30667 0.62704 0.0
C112 C 0.08787 0.29115 0.63511 0.0
C113 C 0.06185 0.26775 0.61709 0.0
C114 C 0.06667 0.25975 0.59095 0.0
C115 C 0.09716 0.27524 0.5829 0.0
C116 C 0.18038 0.29462 0.59918 0.0
C117 C 0.2118 0.31084 0.61074 0.0
C118 C 0.22549 0.29181 0.61802 0.0
C119 C 0.20802 0.25628 0.61366 0.0
C120 C 0.17685 0.24002 0.6014 0.0
C121 C 0.16316 0.25913 0.59406 0.0
C122 C 0.16359 0.32625 0.55603 0.0
C123 C 0.14363 0.3364 0.54406 0.0
C124 C 0.14548 0.3436 0.5174 0.0
C125 C 0.16776 0.3414 0.50252 0.0
C126 C 0.18829 0.33208 0.51466 0.0
C127 C 0.18627 0.32466 0.54128 0.0
P128 P 0.79034 0.89339 0.56493 0.0
H129 H 0.83388 0.94314 0.60799 0.0
H130 H 0.83586 0.99225 0.63273 0.0
H131 H 0.74451 0.96362 0.59309 0.0
H132 H 0.74249 0.91434 0.56817 0.0
H133 H 0.80296 0.83926 0.55132 0.0
H134 H 0.80672 0.79797 0.57756 0.0
H135 H 0.77848 0.83422 0.64597 0.0
H136 H 0.77459 0.87557 0.61971 0.0
H137 H 0.79088 0.91637 0.51246 0.0
H138 H 0.72589 0.83389 0.55385 0.0
O139 O 0.82581 0.91234 0.55368 0.0
H140 H 0.75289 0.89386 0.47231 0.0
H141 H 0.68738 0.81141 0.51338 0.0
C142 C 0.78832 0.9255 0.58597 0.0
C143 C 0.81399 0.94702 0.60497 0.0
C144 C 0.81504 0.97485 0.61921 0.0
C145 C 0.79032 0.98141 0.61473 0.0
C146 C 0.76366 0.9587 0.59693 0.0
C147 C 0.76266 0.9308 0.58259 0.0
C148 C 0.78876 0.8606 0.58361 0.0
C149 C 0.79731 0.83816 0.57188 0.0
C150 C 0.79961 0.81479 0.58684 0.0
C151 C 0.79336 0.81354 0.61375 0.0
C152 C 0.78376 0.83521 0.6253 0.0
C153 C 0.78146 0.85866 0.61028 0.0
C154 C 0.76142 0.87645 0.53593 0.0
C155 C 0.76849 0.89331 0.51286 0.0
C156 C 0.74683 0.88047 0.48993 0.0
C157 C 0.71755 0.85071 0.48973 0.0
C158 C 0.71006 0.83416 0.51305 0.0
C159 C 0.73193 0.84699 0.53607 0.0
P160 P 0.15241 0.83438 0.58816 0.0
H161 H 0.18769 0.86723 0.64055 0.0
H162 H 0.21893 0.927 0.65961 0.0
H163 H 0.19598 0.95725 0.58616 0.0
H164 H 0.16425 0.89749 0.56724 0.0
H165 H 0.11686 0.78654 0.62571 0.0
H166 H 0.06385 0.76583 0.63945 0.0
H167 H 0.04842 0.82615 0.585 0.0
H168 H 0.10173 0.84707 0.57119 0.0
H169 H 0.20415 0.86737 0.5555 0.0
H170 H 0.10525 0.79123 0.54237 0.0
O171 O 0.16839 0.81348 0.60179 0.0
H172 H 0.20769 0.86299 0.50708 0.0
H173 H 0.10891 0.78688 0.49373 0.0
C174 C 0.17458 0.87811 0.60219 0.0
C175 C 0.18935 0.8867 0.62855 0.0
C176 C 0.20692 0.92065 0.63949 0.0
C177 C 0.20977 0.94633 0.62418 0.0
C178 C 0.19404 0.93767 0.59817 0.0
C179 C 0.17622 0.90368 0.58735 0.0
C180 C 0.1129 0.8178 0.59706 0.0
C181 C 0.10208 0.79517 0.61654 0.0
C182 C 0.07197 0.78352 0.62451 0.0
C183 C 0.0524 0.79451 0.6132 0.0
C184 C 0.0633 0.81744 0.59389 0.0
C185 C 0.09351 0.82916 0.58595 0.0
C186 C 0.15424 0.83044 0.55245 0.0
C187 C 0.18319 0.84982 0.54221 0.0
C188 C 0.18528 0.84716 0.51466 0.0
C189 C 0.15857 0.82463 0.49695 0.0
C190 C 0.12975 0.80436 0.50717 0.0
C191 C 0.12765 0.80711 0.53485 0.0
P192 P 0.97081 0.50708 0.75884 0.0
H193 H 0.96969 0.47413 0.70673 0.0
H194 H 0.94521 0.41427 0.6884 0.0
H195 H 0.90685 0.38368 0.76329 0.0
H196 H 0.9308 0.44341 0.78151 0.0
H197 H 0.98502 0.57586 0.75252 0.0
H198 H 0.9536 0.59866 0.7328 0.0
H199 H 0.8726 0.49771 0.71799 0.0
H200 H 0.90369 0.47491 0.73805 0.0
H201 H 0.0044 0.4859 0.79441 0.0
H202 H 0.95297 0.5389 0.8027 0.0
O203 O 0.00587 0.52821 0.74715 0.0
H204 H 0.0134 0.48995 0.84337 0.0
H205 H 0.96248 0.54339 0.85192 0.0
C206 C 0.95285 0.46314 0.74571 0.0
C207 C 0.95608 0.45455 0.71923 0.0
C208 C 0.94198 0.42054 0.70871 0.0
C209 C 0.9244 0.39478 0.72459 0.0
C210 C 0.92044 0.40334 0.75084 0.0
C211 C 0.93434 0.43736 0.76127 0.0
C212 C 0.94682 0.52372 0.74648 0.0
C213 C 0.96047 0.55866 0.74518 0.0
C214 C 0.94265 0.57162 0.73387 0.0
C215 C 0.91096 0.54976 0.72378 0.0
C216 C 0.8971 0.51486 0.72554 0.0
C217 C 0.91487 0.50194 0.73703 0.0
C218 C 0.97779 0.51178 0.79493 0.0
C219 C 0.99522 0.49859 0.80677 0.0
C220 C 1.00046 0.50099 0.83464 0.0
C221 C 0.98865 0.517 0.85116 0.0
C222 C 0.97186 0.53106 0.83941 0.0
C223 C 0.96635 0.52836 0.81138 0.0
P224 P 0.56526 0.43984 0.7943 0.0
H225 H 0.55498 0.38252 0.7578 0.0
H226 H 0.50768 0.33601 0.73144 0.0
H227 H 0.45434 0.38333 0.75401 0.0
H228 H 0.50174 0.42994 0.78067 0.0
H229 H 0.63245 0.48605 0.80764 0.0
H230 H 0.6737 0.52558 0.7819 0.0
H231 H 0.60302 0.50589 0.71728 0.0
H232 H 0.56161 0.46605 0.74296 0.0
H233 H 0.54507 0.41454 0.84511 0.0
H234 H 0.55724 0.49925 0.80403 0.0
O235 O 0.58248 0.41957 0.80689 0.0
H236 H 0.52651 0.43396 0.88268 0.0
H237 H 0.53809 0.51858 0.84183 0.0
C238 C 0.53161 0.40912 0.77173 0.0
C239 C 0.53326 0.38319 0.75682 0.0
C240 C 0.50639 0.35682 0.74165 0.0
C241 C 0.47764 0.35631 0.7409 0.0
C242 C 0.47643 0.38346 0.75432 0.0
C243 C 0.50337 0.40983 0.76966 0.0
C244 C 0.59412 0.4728 0.77701 0.0
C245 C 0.62575 0.49053 0.78808 0.0
C246 C 0.64924 0.513 0.77345 0.0
C247 C 0.6413 0.51828 0.74769 0.0
C248 C 0.60947 0.50193 0.73713 0.0
C249 C 0.58594 0.47926 0.75176 0.0
C250 C 0.55313 0.45586 0.82207 0.0
C251 C 0.54409 0.43755 0.84431 0.0
C252 C 0.53342 0.44855 0.86572 0.0
C253 C 0.53124 0.47785 0.86512 0.0
C254 C 0.53999 0.49612 0.84274 0.0
C255 C 0.55088 0.48514 0.82127 0.0
P256 P 0.53848 0.0325 0.7702 0.0
H257 H 0.47122 0.00486 0.7569 0.0
H258 H 0.43994 0.02945 0.74057 0.0
H259 H 0.52455 0.12737 0.74546 0.0
H260 H 0.55596 0.10287 0.76163 0.0
H261 H 0.57076 0.0227 0.72668 0.0
H262 H 0.62438 0.05562 0.71432 0.0
H263 H 0.64855 0.12897 0.78312 0.0
H264 H 0.59469 0.09511 0.79614 0.0
H265 H 0.5313 0.0687 0.81766 0.0
H266 H 0.53949 0.98028 0.79935 0.0
O267 O 0.52159 0.99444 0.75233 0.0
H268 H 0.52115 0.05409 0.86373 0.0
H269 H 0.52895 0.9655 0.84509 0.0
C270 C 0.51598 0.05185 0.76002 0.0
C271 C 0.48309 0.03164 0.75452 0.0
C272 C 0.46524 0.04561 0.74528 0.0
C273 C 0.48004 0.08011 0.7417 0.0
C274 C 0.51282 0.10065 0.74804 0.0
C275 C 0.5307 0.08661 0.75721 0.0
C276 C 0.5788 0.05624 0.76252 0.0
C277 C 0.58759 0.04553 0.73944 0.0
C278 C 0.6182 0.06437 0.7323 0.0
C279 C 0.64049 0.09465 0.74784 0.0
C280 C 0.63176 0.10553 0.77098 0.0
C281 C 0.60112 0.08626 0.77839 0.0
C282 C 0.53562 0.02524 0.805 0.0
C283 C 0.53123 0.04639 0.82359 0.0
C284 C 0.52543 0.03808 0.84981 0.0
C285 C 0.52398 0.00852 0.85767 0.0
C286 C 0.52981 0.98829 0.83937 0.0
C287 C 0.5358 0.99673 0.81329 0.0
P288 P 0.81527 0.64486 0.91535 0.0
H289 H 0.78909 0.66173 0.9604 0.0
H290 H 0.7373 0.63343 0.97703 0.0
H291 H 0.70357 0.553 0.91213 0.0
H292 H 0.7558 0.58096 0.89563 0.0
H293 H 0.87674 0.66824 0.94539 0.0
H294 H 0.90387 0.63868 0.96009 0.0
H295 H 0.82628 0.54397 0.92153 0.0
H296 H 0.79927 0.57361 0.90631 0.0
H297 H 0.76724 0.6242 0.86776 0.0
H298 H 0.86862 0.6785 0.88535 0.0
O299 O 0.83488 0.68411 0.93132 0.0
H300 H 0.77296 0.63203 0.82019 0.0
H301 H 0.87422 0.68833 0.83824 0.0
C302 C 0.77622 0.62404 0.92626 0.0
C303 C 0.77063 0.63817 0.94949 0.0
C304 C 0.74112 0.62198 0.95912 0.0
C305 C 0.71665 0.59128 0.94572 0.0
C306 C 0.72219 0.57678 0.92265 0.0
C307 C 0.75193 0.59287 0.91318 0.0
C308 C 0.8356 0.62305 0.92521 0.0
C309 C 0.86546 0.64114 0.94002 0.0
C310 C 0.88102 0.62433 0.94837 0.0
C311 C 0.86697 0.58916 0.94201 0.0
C312 C 0.83742 0.57112 0.92669 0.0
C313 C 0.82195 0.58802 0.91816 0.0
C314 C 0.81758 0.64992 0.8801 0.0
C315 C 0.79068 0.63752 0.86154 0.0
C316 C 0.79389 0.64246 0.83439 0.0
C317 C 0.82401 0.66093 0.8257 0.0
C318 C 0.85076 0.67409 0.8445 0.0
C319 C 0.84756 0.66833 0.87134 0.0
P320 P 0.44594 0.20985 0.90443 0.0
H321 H 0.47768 0.24743 0.95637 0.0
H322 H 0.48141 0.29783 0.98058 0.0
H323 H 0.41186 0.2932 0.92145 0.0
H324 H 0.40778 0.24261 0.89734 0.0
H325 H 0.46311 0.15887 0.89274 0.0
H326 H 0.46542 0.11706 0.91928 0.0
H327 H 0.42291 0.14346 0.98212 0.0
H328 H 0.42018 0.18513 0.95539 0.0
H329 H 0.45242 0.2344 0.85203 0.0
H330 H 0.38096 0.15277 0.89004 0.0
O331 O 0.48267 0.22949 0.89576 0.0
H332 H 0.41697 0.215 0.81031 0.0
H333 H 0.34519 0.13339 0.84802 0.0
C334 C 0.44236 0.24115 0.92515 0.0
C335 C 0.4624 0.25652 0.94911 0.0
C336 C 0.46448 0.28516 0.96297 0.0
C337 C 0.44674 0.29897 0.95285 0.0
C338 C 0.42538 0.28254 0.9297 0.0
C339 C 0.42321 0.25377 0.91589 0.0
C340 C 0.4421 0.17552 0.92234 0.0
C341 C 0.45384 0.15534 0.91204 0.0
C342 C 0.45518 0.13156 0.92714 0.0
C343 C 0.4447 0.12761 0.95271 0.0
C344 C 0.4313 0.14644 0.96247 0.0
C345 C 0.42985 0.17022 0.94725 0.0
C346 C 0.4195 0.1946 0.87392 0.0
C347 C 0.4292 0.21212 0.85133 0.0
C348 C 0.409 0.20114 0.82756 0.0
C349 C 0.37867 0.17262 0.82608 0.0
C350 C 0.36868 0.15525 0.84878 0.0
C351 C 0.38901 0.16628 0.87266 0.0
P352 P 0.81399 0.1719 0.92059 0.0
H353 H 0.84159 0.20582 0.9746 0.0
H354 H 0.87289 0.26592 0.99277 0.0
H355 H 0.86243 0.29485 0.91464 0.0
H356 H 0.83082 0.2348 0.89649 0.0
H357 H 0.7706 0.10629 0.93766 0.0
H358 H 0.71667 0.07986 0.94697 0.0
H359 H 0.71424 0.16944 0.92838 0.0
H360 H 0.76829 0.19519 0.91904 0.0
H361 H 0.8696 0.19781 0.892 0.0
H362 H 0.76878 0.13583 0.8719 0.0
O363 O 0.83051 0.15291 0.93651 0.0
H364 H 0.87722 0.1937 0.84436 0.0
H365 H 0.77656 0.13155 0.82417 0.0
C366 C 0.83462 0.21593 0.93408 0.0
C367 C 0.84584 0.22507 0.96142 0.0
C368 C 0.86351 0.25925 0.97181 0.0
C369 C 0.86999 0.28465 0.95498 0.0
C370 C 0.85765 0.27551 0.92787 0.0
C371 C 0.83983 0.24131 0.91752 0.0
C372 C 0.77319 0.15225 0.92673 0.0
C373 C 0.75791 0.11963 0.93455 0.0
C374 C 0.72617 0.10396 0.93903 0.0
C375 C 0.7079 0.1195 0.93427 0.0
C376 C 0.72472 0.1537 0.92862 0.0
C377 C 0.75656 0.16939 0.92411 0.0
C378 C 0.81867 0.16755 0.88546 0.0
C379 C 0.84914 0.1832 0.87737 0.0
C380 C 0.85351 0.18071 0.85028 0.0
C381 C 0.82746 0.1622 0.83087 0.0
C382 C 0.79692 0.14578 0.83894 0.0
C383 C 0.79254 0.14843 0.86613 0.0
P384 P 0.63893 0.82797 0.08716 0.0
H385 H 0.63449 0.7924 0.03539 0.0
H386 H 0.60511 0.73211 0.01762 0.0
H387 H 0.56202 0.70706 0.09133 0.0
H388 H 0.5909 0.76737 0.10895 0.0
H389 H 0.65482 0.87711 0.04819 0.0
H390 H 0.62797 0.90544 0.03015 0.0
H391 H 0.55254 0.85334 0.07933 0.0
H392 H 0.57927 0.82434 0.09717 0.0
H393 H 0.66135 0.79607 0.12354 0.0
H394 H 0.63245 0.87073 0.13036 0.0
O395 O 0.6743 0.84405 0.07586 0.0
H396 H 0.67092 0.80147 0.17266 0.0
H397 H 0.64154 0.87563 0.17945 0.0
C398 C 0.61561 0.7841 0.07378 0.0
C399 C 0.61856 0.77397 0.04765 0.0
C400 C 0.60167 0.73974 0.03744 0.0
C401 C 0.58157 0.71535 0.05325 0.0
C402 C 0.57747 0.72565 0.07891 0.0
C403 C 0.59416 0.75994 0.08902 0.0
C404 C 0.61935 0.84925 0.07449 0.0
C405 C 0.63256 0.87174 0.05519 0.0
C406 C 0.61717 0.88773 0.04474 0.0
C407 C 0.58834 0.88145 0.05344 0.0
C408 C 0.57476 0.85841 0.07237 0.0
C409 C 0.59007 0.84215 0.08266 0.0
C410 C 0.64541 0.83232 0.1233 0.0
C411 C 0.6569 0.81345 0.13558 0.0
C412 C 0.66251 0.81662 0.16352 0.0
C413 C 0.65682 0.83885 0.17956 0.0
C414 C 0.64595 0.85828 0.16731 0.0
C415 C 0.64051 0.85524 0.13932 0.0
P416 P 0.2242 0.78096 0.12933 0.0
H417 H 0.21691 0.72633 0.09147 0.0
H418 H 0.17089 0.67851 0.06477 0.0
H419 H 0.11251 0.71848 0.08992 0.0
H420 H 0.15854 0.76631 0.11694 0.0
H421 H 0.28864 0.83319 0.14752 0.0
H422 H 0.33343 0.86977 0.12343 0.0
H423 H 0.2721 0.83423 0.04926 0.0
H424 H 0.22721 0.7975 0.07328 0.0
H425 H 0.21358 0.76732 0.18469 0.0
H426 H 0.20812 0.835 0.13186 0.0
O427 O 0.24017 0.76052 0.1438 0.0
H428 H 0.19638 0.79091 0.22057 0.0
H429 H 0.18992 0.8582 0.16799 0.0
C430 C 0.19105 0.74951 0.10656 0.0
C431 C 0.19434 0.72514 0.09096 0.0
C432 C 0.16819 0.69799 0.07562 0.0
C433 C 0.13841 0.69504 0.07545 0.0
C434 C 0.1354 0.72052 0.08974 0.0
C435 C 0.16163 0.74766 0.10526 0.0
C436 C 0.2547 0.81252 0.11218 0.0
C437 C 0.28467 0.83376 0.12617 0.0
C438 C 0.31019 0.85451 0.11247 0.0
C439 C 0.30598 0.85443 0.08462 0.0
C440 C 0.27569 0.83451 0.07077 0.0
C441 C 0.25013 0.81361 0.0845 0.0
C442 C 0.21248 0.7997 0.15569 0.0
C443 C 0.20891 0.78743 0.18083 0.0
C444 C 0.19901 0.80081 0.20132 0.0
C445 C 0.19208 0.82638 0.19695 0.0
C446 C 0.19548 0.83869 0.17176 0.0
C447 C 0.20578 0.82547 0.15124 0.0
P448 P 0.19122 0.35617 0.09496 0.0
H449 H 0.12929 0.33063 0.06521 0.0
H450 H 0.10022 0.35844 0.05109 0.0
H451 H 0.17543 0.45406 0.09079 0.0
H452 H 0.20423 0.42594 0.10562 0.0
H453 H 0.24817 0.3549 0.11346 0.0
H454 H 0.30243 0.38444 0.10109 0.0
H455 H 0.27729 0.43821 0.04695 0.0
H456 H 0.22318 0.40866 0.05899 0.0
H457 H 0.13938 0.30529 0.12061 0.0
H458 H 0.23227 0.39109 0.14555 0.0
O459 O 0.17552 0.31878 0.07631 0.0
H460 H 0.1319 0.29459 0.16765 0.0
H461 H 0.22539 0.37944 0.19234 0.0
C462 C 0.16927 0.37645 0.08586 0.0
C463 C 0.13954 0.35754 0.07099 0.0
C464 C 0.12292 0.37335 0.06298 0.0
C465 C 0.13583 0.40832 0.0697 0.0
C466 C 0.16516 0.42708 0.08533 0.0
C467 C 0.18158 0.4111 0.09368 0.0
C468 C 0.23185 0.38058 0.08807 0.0
C469 C 0.25449 0.37366 0.09945 0.0
C470 C 0.28536 0.39038 0.09236 0.0
C471 C 0.29385 0.41384 0.07346 0.0
C472 C 0.27125 0.42063 0.06194 0.0
C473 C 0.2404 0.40387 0.06899 0.0
C474 C 0.18673 0.34836 0.12953 0.0
C475 C 0.15833 0.32147 0.13614 0.0
C476 C 0.15405 0.31533 0.16291 0.0
C477 C 0.17826 0.33589 0.18341 0.0
C478 C 0.20657 0.36303 0.17676 0.0
C479 C 0.21057 0.36955 0.15005 0.0
P480 P 0.4839 0.98276 0.25308 0.0
H481 H 0.45192 0.0039 0.29038 0.0
H482 H 0.39862 0.9757 0.30396 0.0
H483 H 0.37369 0.88762 0.24883 0.0
H484 H 0.42644 0.91701 0.23349 0.0
H485 H 0.54808 0.00787 0.27788 0.0
H486 H 0.57573 0.97955 0.29453 0.0
H487 H 0.49203 0.88229 0.27123 0.0
H488 H 0.46457 0.91024 0.2542 0.0
H489 H 0.43836 0.96601 0.20488 0.0
H490 H 0.53904 0.0124 0.22412 0.0
O491 O 0.50276 0.02204 0.269 0.0
H492 H 0.44612 0.97636 0.15787 0.0
H493 H 0.54679 0.02389 0.17743 0.0
C494 C 0.44353 0.9624 0.2612 0.0
C495 C 0.43501 0.97874 0.28081 0.0
C496 C 0.40456 0.96261 0.28868 0.0
C497 C 0.38224 0.92943 0.27762 0.0
C498 C 0.39058 0.91317 0.25772 0.0
C499 C 0.42081 0.9298 0.24923 0.0
C500 C 0.50388 0.96136 0.26524 0.0
C501 C 0.53551 0.98046 0.27644 0.0
C502 C 0.55135 0.96436 0.28595 0.0
C503 C 0.53578 0.92887 0.28434 0.0
C504 C 0.50432 0.90972 0.27285 0.0
C505 C 0.4886 0.92583 0.26317 0.0
C506 C 0.48812 0.98766 0.21796 0.0
C507 C 0.46206 0.97803 0.19907 0.0
C508 C 0.46647 0.9843 0.17227 0.0
C509 C 0.49704 0.00105 0.1642 0.0
C510 C 0.52302 0.01099 0.18323 0.0
C511 C 0.51857 0.0042 0.20981 0.0
P512 P 0.1159 0.55225 0.23123 0.0
H513 H 0.14695 0.58991 0.28329 0.0
H514 H 0.14895 0.63927 0.30773 0.0
H515 H 0.07766 0.63184 0.249 0.0
H516 H 0.07565 0.5826 0.22448 0.0
H517 H 0.14372 0.50999 0.22332 0.0
H518 H 0.14752 0.46922 0.25013 0.0
H519 H 0.08992 0.48138 0.30625 0.0
H520 H 0.08602 0.52235 0.27931 0.0
H521 H 0.12055 0.56829 0.17598 0.0
H522 H 0.04913 0.49815 0.22172 0.0
O523 O 0.15192 0.57375 0.22128 0.0
H524 H 0.08238 0.54649 0.13597 0.0
H525 H 0.01053 0.47645 0.18132 0.0
C526 C 0.11105 0.58246 0.25217 0.0
C527 C 0.131 0.5982 0.27613 0.0
C528 C 0.13211 0.62626 0.29011 0.0
C529 C 0.11336 0.639 0.28018 0.0
C530 C 0.09203 0.62206 0.25708 0.0
C531 C 0.09099 0.59403 0.24306 0.0
C532 C 0.11516 0.51964 0.24966 0.0
C533 C 0.13177 0.50382 0.24131 0.0
C534 C 0.13398 0.48065 0.25658 0.0
C535 C 0.11943 0.47283 0.28032 0.0
C536 C 0.1016 0.48751 0.28813 0.0
C537 C 0.09939 0.51078 0.27278 0.0
C538 C 0.08777 0.53446 0.20171 0.0
C539 C 0.09676 0.54794 0.17737 0.0
C540 C 0.07499 0.5356 0.15454 0.0
C541 C 0.04379 0.5098 0.15572 0.0
C542 C 0.03464 0.49618 0.18005 0.0
C543 C 0.05658 0.50853 0.20299 0.0
P544 P 0.48178 0.50393 0.25549 0.0
H545 H 0.52194 0.54103 0.30537 0.0
H546 H 0.55271 0.60167 0.32183 0.0
H547 H 0.52061 0.62528 0.24908 0.0
H548 H 0.49007 0.56463 0.23246 0.0
H549 H 0.43527 0.43606 0.26678 0.0
H550 H 0.38321 0.41289 0.28342 0.0
H551 H 0.38961 0.51008 0.28239 0.0
H552 H 0.44139 0.53323 0.26549 0.0
H553 H 0.53321 0.53274 0.22223 0.0
H554 H 0.43326 0.46038 0.21041 0.0
O555 O 0.49875 0.4846 0.27019 0.0
H556 H 0.53633 0.52492 0.17401 0.0
H557 H 0.43654 0.45235 0.16192 0.0
C558 C 0.50438 0.54847 0.26744 0.0
C559 C 0.52165 0.55923 0.29288 0.0
C560 C 0.53901 0.59372 0.30235 0.0
C561 C 0.53894 0.61783 0.28661 0.0
C562 C 0.52097 0.60699 0.26144 0.0
C563 C 0.50378 0.5725 0.25193 0.0
C564 C 0.44244 0.48648 0.2653 0.0
C565 C 0.42545 0.45237 0.27001 0.0
C566 C 0.39586 0.43918 0.27953 0.0
C567 C 0.38294 0.45998 0.28442 0.0
C568 C 0.39947 0.49384 0.27897 0.0
C569 C 0.42898 0.50696 0.2693 0.0
C570 C 0.48292 0.49773 0.21983 0.0
C571 C 0.51194 0.51521 0.20927 0.0
C572 C 0.51378 0.51058 0.18183 0.0
C573 C 0.48671 0.48798 0.16451 0.0
C574 C 0.45769 0.46976 0.17506 0.0
C575 C 0.45582 0.47457 0.20264 0.0
Tb576 Tb 0.53891 0.02892 0.00508 0.0
C577 C 0.53178 0.95863 0.0177 0.0
Tb578 Tb 0.47352 0.96882 0.01248 0.0
O579 O 0.54122 0.05435 0.04478 0.0
O580 O 0.51575 0.00183 0.03681 0.0
O581 O 0.54668 0.98572 0.00472 0.0
C582 C 0.4194 0.93114 0.03313 0.0
O583 O 0.50389 0.94958 0.02639 0.0
C584 C 0.49094 0.97094 0.96374 0.0
C585 C 0.48126 0.04042 0.99975 0.0
O586 O 0.44086 0.96186 0.04243 0.0
O587 O 0.42839 0.92145 0.01216 0.0
O588 O 0.47006 0.94316 0.97251 0.0
O589 O 0.49676 0.99526 0.98071 0.0
O590 O 0.46355 0.01038 0.00858 0.0
O591 O 0.51118 0.05226 0.99543 0.0
C592 C 0.59175 0.06557 0.98235 0.0
O593 O 0.56337 0.05021 0.97027 0.0
O594 O 0.59059 0.06071 0.00756 0.0
C595 C 0.52144 0.02607 0.05383 0.0
Tb596 Tb 0.97068 0.50244 0.00382 0.0
C597 C 0.0411 0.56331 0.02502 0.0
Tb598 Tb 0.02511 0.48814 0.00997 0.0
O599 O 0.95317 0.48179 0.04131 0.0
O600 O 1.00066 0.50296 0.03583 0.0
O601 O 0.01151 0.55406 0.01603 0.0
C602 C 0.06282 0.466 0.02841 0.0
O603 O 0.05098 0.54122 0.02629 0.0
C604 C 0.01374 0.50274 0.96212 0.0
C605 C 0.95534 0.42672 0.99299 0.0
O606 O 0.06737 0.48365 0.00827 0.0
O607 O 0.03713 0.46088 0.03804 0.0
O608 O 0.041 0.50744 0.97143 0.0
O609 O 0.99424 0.48675 0.97817 0.0
O610 O 0.98432 0.4366 0.0038 0.0
O611 O 0.94591 0.44866 0.98798 0.0
C612 C 0.93532 0.52636 0.98354 0.0
O613 O 0.92817 0.50664 1.00254 0.0
O614 O 0.96226 0.53242 0.97595 0.0
C615 C 0.9802 0.48608 0.05104 0.0
Tb616 Tb 0.47038 0.49598 0.0125 0.0
C617 C 0.48496 0.43635 0.99565 0.0
Tb618 Tb 0.54127 0.51171 0.00835 0.0
O619 O 0.45844 0.49513 0.96896 0.0
O620 O 0.50191 0.50488 0.98461 0.0
O621 O 0.46431 0.44522 0.0033 0.0
C622 C 0.59683 0.53214 0.99 0.0
O623 O 0.51559 0.45797 0.99543 0.0
C624 C 0.51855 0.49645 0.05504 0.0
C625 C 0.52741 0.57205 0.0196 0.0
O626 O 0.5696 0.51288 0.97612 0.0
O627 O 0.59293 0.54 0.0143 0.0
O628 O 0.54191 0.49305 0.04767 0.0
O629 O 0.51212 0.51108 0.03762 0.0
O630 O 0.54648 0.562 0.01017 0.0
O631 O 0.49769 0.55083 0.02427 0.0
C632 C 0.41734 0.47504 0.03528 0.0
O633 O 0.42693 0.49684 0.0177 0.0
O634 O 0.4377 0.46538 0.04015 0.0
C635 C 0.48606 0.50107 0.96287 0.0
Tb636 Tb 0.20397 0.36648 0.34374 0.0
C637 C 0.18874 0.29341 0.35724 0.0
Tb638 Tb 0.13516 0.31006 0.34195 0.0
O639 O 0.20534 0.38875 0.38426 0.0
O640 O 0.17363 0.33856 0.37217 0.0
O641 O 0.20966 0.32279 0.34948 0.0
C642 C 0.07534 0.27325 0.35362 0.0
O643 O 0.15898 0.28504 0.35943 0.0
C644 C 0.15987 0.3162 0.29548 0.0
C645 C 0.15057 0.38428 0.333 0.0
O646 O 0.09324 0.26125 0.34688 0.0
O647 O 0.09081 0.30569 0.35273 0.0
O648 O 0.13547 0.28876 0.30134 0.0
O649 O 0.16528 0.33892 0.3139 0.0
O650 O 0.1301 0.35483 0.341 0.0
O651 O 0.18022 0.39306 0.33019 0.0
C652 C 0.26131 0.39855 0.32654 0.0
O653 O 0.24955 0.41283 0.34158 0.0
O654 O 0.24097 0.36644 0.32171 0.0
C655 C 0.18013 0.36214 0.39037 0.0
Tb656 Tb 0.63769 0.83621 0.3386 0.0
C657 C 0.70944 0.89573 0.35678 0.0
Tb658 Tb 0.69094 0.82018 0.33996 0.0
O659 O 0.62299 0.81566 0.37667 0.0
O660 O 0.66947 0.83589 0.36846 0.0
O661 O 0.6796 0.88721 0.34982 0.0
C662 C 0.72832 0.79626 0.35529 0.0
O663 O 0.71884 0.87315 0.3562 0.0
C664 C 0.67782 0.83729 0.29382 0.0
C665 C 0.61979 0.75997 0.32532 0.0
O666 O 0.73154 0.81335 0.33494 0.0
O667 O 0.70414 0.79271 0.36684 0.0
O668 O 0.70521 0.8414 0.30202 0.0
O669 O 0.65886 0.82033 0.31002 0.0
O670 O 0.64972 0.7691 0.33199 0.0
O671 O 0.60978 0.78202 0.32456 0.0
C672 C 0.60298 0.86289 0.32202 0.0
O673 O 0.59782 0.8448 0.34198 0.0
O674 O 0.62741 0.86562 0.31134 0.0
C675 C 0.65038 0.81964 0.38484 0.0
Tb676 Tb 0.13727 0.83554 0.34465 0.0
C677 C 0.14895 0.77458 0.32522 0.0
Tb678 Tb 0.20466 0.85006 0.33812 0.0
O679 O 0.13446 0.85555 0.3068 0.0
O680 O 0.1628 0.83423 0.31272 0.0
O681 O 0.12923 0.78385 0.33455 0.0
C682 C 0.26057 0.87133 0.31937 0.0
O683 O 0.17886 0.7968 0.3226 0.0
C684 C 0.18621 0.83706 0.38636 0.0
C685 C 0.19362 0.91153 0.35396 0.0
O686 O 0.25055 0.85285 0.33899 0.0
O687 O 0.2391 0.87775 0.31039 0.0
O688 O 0.20834 0.83278 0.37737 0.0
O689 O 0.17909 0.85205 0.36977 0.0
O690 O 0.21215 0.90146 0.34347 0.0
O691 O 0.16422 0.88983 0.35896 0.0
C692 C 0.08211 0.81101 0.36537 0.0
O693 O 0.10675 0.81071 0.37571 0.0
O694 O 0.08869 0.82573 0.34349 0.0
C695 C 0.15618 0.85082 0.29724 0.0
Tb696 Tb 0.87199 0.69674 0.66848 0.0
C697 C 0.85327 0.62265 0.68277 0.0
Tb698 Tb 0.80149 0.64331 0.6713 0.0
O699 O 0.88489 0.70397 0.71188 0.0
O700 O 0.83856 0.68525 0.6959 0.0
O701 O 0.87588 0.65299 0.67776 0.0
C702 C 0.74839 0.60283 0.6921 0.0
O703 O 0.82298 0.6133 0.68076 0.0
C704 C 0.81914 0.65352 0.62255 0.0
C705 C 0.81751 0.71589 0.65947 0.0
O706 O 0.77262 0.62971 0.70477 0.0
O707 O 0.75391 0.59859 0.66755 0.0
O708 O 0.79013 0.64109 0.6281 0.0
O709 O 0.83556 0.65465 0.64335 0.0
O710 O 0.79643 0.68743 0.66838 0.0
O711 O 0.84715 0.72372 0.657 0.0
C712 C 0.92776 0.73204 0.64914 0.0
O713 O 0.91491 0.74502 0.66421 0.0
O714 O 0.90892 0.69953 0.64477 0.0
C715 C 0.85564 0.6892 0.71715 0.0
Tb716 Tb 0.30761 0.16395 0.67231 0.0
C717 C 0.37815 0.22548 0.69243 0.0
Tb718 Tb 0.36266 0.15045 0.67866 0.0
O719 O 0.29049 0.14373 0.70998 0.0
O720 O 0.33801 0.16532 0.70433 0.0
O721 O 0.34838 0.21582 0.68375 0.0
C722 C 0.40132 0.12979 0.69772 0.0
O723 O 0.38839 0.20375 0.69397 0.0
C724 C 0.35046 0.16416 0.63065 0.0
C725 C 0.29314 0.08848 0.66236 0.0
O726 O 0.40375 0.14398 0.67579 0.0
O727 O 0.37715 0.12716 0.70871 0.0
O728 O 0.37801 0.16954 0.6399 0.0
O729 O 0.33129 0.14823 0.64692 0.0
O730 O 0.32216 0.09881 0.6733 0.0
O731 O 0.28332 0.11003 0.65698 0.0
C732 C 0.27202 0.18771 0.65225 0.0
O733 O 0.26534 0.16857 0.67162 0.0
O734 O 0.29849 0.19309 0.64403 0.0
C735 C 0.31772 0.14855 0.71972 0.0
Tb736 Tb 0.81388 0.17713 0.68119 0.0
C737 C 0.82566 0.11634 0.661 0.0
Tb738 Tb 0.88373 0.19059 0.6752 0.0
O739 O 0.80148 0.17842 0.63819 0.0
O740 O 0.84473 0.18639 0.65255 0.0
O741 O 0.80583 0.12587 0.66973 0.0
C742 C 0.93923 0.21062 0.65667 0.0
O743 O 0.85648 0.1372 0.661 0.0
C744 C 0.86149 0.17369 0.72182 0.0
C745 C 0.87242 0.25225 0.68917 0.0
O746 O 0.91192 0.19087 0.64301 0.0
O747 O 0.93538 0.21895 0.68085 0.0
O748 O 0.8842 0.16975 0.71351 0.0
O749 O 0.85557 0.18979 0.70547 0.0
O750 O 0.89042 0.24161 0.67834 0.0
O751 O 0.84295 0.23145 0.69459 0.0
C752 C 0.76138 0.1582 0.70486 0.0
O753 O 0.77331 0.18253 0.68948 0.0
O754 O 0.77937 0.14502 0.70712 0.0
C755 C 0.82855 0.18352 0.63125 0.0
C756 C 0.34298 0.90664 0.06392 0.0
C757 C 0.33387 0.87337 0.06981 0.0
C758 C 0.38125 0.87815 0.05227 0.0
C759 C 0.38936 0.91061 0.04479 0.0
N760 N 0.37481 0.95293 0.03842 0.0
N761 N 0.34076 0.82481 0.06533 0.0
C762 C 0.36937 0.92414 0.04924 0.0
C763 C 0.3519 0.85829 0.06259 0.0
N764 N 0.32683 0.9218 0.07289 0.0
N765 N 0.40234 0.86705 0.05101 0.0
H766 H 0.31967 0.80959 0.07334 0.0
H767 H 0.35101 0.81138 0.05763 0.0
H768 H 0.42441 0.88105 0.04418 0.0
H769 H 0.39923 0.84535 0.05902 0.0
H770 H 0.33449 0.94736 0.07201 0.0
H771 H 0.30684 0.90937 0.08302 0.0
H772 H 0.35929 0.96215 0.03864 0.0
H773 H 0.39333 0.96595 0.02689 0.0
C774 C 0.10586 0.43902 0.07723 0.0
C775 C 0.11896 0.4253 0.05937 0.0
C776 C 0.09412 0.43689 0.021 0.0
C777 C 0.08334 0.4533 0.03888 0.0
N778 N 0.08603 0.47749 0.08392 0.0
N779 N 0.13206 0.41882 0.01463 0.0
C780 C 0.09123 0.45655 0.06701 0.0
C781 C 0.11513 0.42665 0.03135 0.0
N782 N 0.10632 0.4343 0.10379 0.0
N783 N 0.08296 0.4292 0.99439 0.0
H784 H 0.14812 0.41175 0.0215 0.0
H785 H 0.13255 0.42268 0.99442 0.0
H786 H 0.0664 0.4347 0.98601 0.0
H787 H 0.08761 0.41412 0.98115 0.0
H788 H 0.09407 0.44058 0.11707 0.0
H789 H 0.11654 0.42133 0.11205 0.0
H790 H 0.09414 0.48329 0.10429 0.0
H791 H 0.07661 0.49195 0.07721 0.0
C792 C 0.58448 0.66244 0.05129 0.0
C793 C 0.56759 0.67879 0.04414 0.0
C794 C 0.52609 0.62617 0.01823 0.0
C795 C 0.54133 0.60891 0.02771 0.0
N796 N 0.58265 0.60974 0.05721 0.0
N797 N 0.52082 0.6761 0.02363 0.0
C798 C 0.56996 0.6268 0.04521 0.0
C799 C 0.53789 0.66059 0.02845 0.0
N800 N 0.61472 0.68109 0.06354 0.0
N801 N 0.50136 0.61025 0.99848 0.0
H802 H 0.5292 0.70154 0.03019 0.0
H803 H 0.49752 0.66321 0.01489 0.0
H804 H 0.49275 0.58548 0.98984 0.0
H805 H 0.49131 0.62253 0.98884 0.0
H806 H 0.62966 0.6713 0.06606 0.0
H807 H 0.62595 0.70713 0.06927 0.0
H808 H 0.60102 0.621 0.07269 0.0
H809 H 0.57331 0.58368 0.05372 0.0
C810 C 0.924 0.33622 0.96061 0.0
C811 C 0.89183 0.32083 0.96524 0.0
C812 C 0.9024 0.37337 0.99123 0.0
C813 C 0.93373 0.39002 0.98391 0.0
N814 N 0.97288 0.38809 0.95777 0.0
N815 N 0.84906 0.32535 0.98198 0.0
C816 C 0.94423 0.37166 0.96767 0.0
C817 C 0.88062 0.3396 0.97968 0.0
N818 N 0.93548 0.31678 0.94996 0.0
N819 N 0.8939 0.38914 0.01029 0.0
H820 H 0.83255 0.30044 0.97425 0.0
H821 H 0.83897 0.33897 0.98965 0.0
H822 H 0.9095 0.41328 0.02007 0.0
H823 H 0.87244 0.37706 0.01841 0.0
H824 H 0.95945 0.32573 0.94921 0.0
H825 H 0.92134 0.29083 0.94399 0.0
H826 H 0.97977 0.37662 0.94317 0.0
H827 H 0.98885 0.41394 0.96204 0.0
C828 C 0.66656 0.59049 0.95411 0.0
C829 C 0.68513 0.57483 0.95591 0.0
C830 C 0.64412 0.52917 0.9779 0.0
C831 C 0.62735 0.54685 0.97862 0.0
N832 N 0.62435 0.59658 0.97105 0.0
N833 N 0.69402 0.5319 0.97278 0.0
C834 C 0.63909 0.5782 0.96779 0.0
C835 C 0.67452 0.54475 0.96859 0.0
N836 N 0.67463 0.6164 0.93855 0.0
N837 N 0.63082 0.49734 0.9858 0.0
H838 H 0.71649 0.54265 0.96637 0.0
H839 H 0.68901 0.51224 0.98445 0.0
H840 H 0.60899 0.48562 0.99346 0.0
H841 H 0.64024 0.48161 0.98296 0.0
H842 H 0.66025 0.62646 0.93416 0.0
H843 H 0.69436 0.62578 0.92791 0.0
H844 H 0.63372 0.62129 0.96618 0.0
H845 H 0.60388 0.58818 0.98063 0.0
C846 C 0.47745 0.11892 0.98794 0.0
C847 C 0.44986 0.10513 0.96959 0.0
C848 C 0.43921 0.04764 0.97432 0.0
C849 C 0.4671 0.06137 0.99265 0.0
N850 N 0.50726 0.10901 0.02257 0.0
N851 N 0.40015 0.05712 0.95096 0.0
C852 C 0.48439 0.09672 1.00131 0.0
C853 C 0.42924 0.06967 0.96479 0.0
N854 N 0.49784 0.15318 0.99163 0.0
N855 N 0.42343 0.01416 0.96433 0.0
H856 H 0.39246 0.07276 0.94351 0.0
H857 H 0.38264 0.03163 0.94914 0.0
H858 H 0.42921 0.99663 0.97054 0.0
H859 H 0.40575 0.00404 0.9483 0.0
H860 H 0.52028 0.16443 1.00203 0.0
H861 H 0.49319 0.1704 0.98281 0.0
H862 H 0.51847 0.13394 0.03158 0.0
H863 H 0.51291 0.09349 0.03293 0.0
C864 C 0.65701 0.06749 0.94472 0.0
C865 C 0.67294 0.10147 0.93858 0.0
C866 C 0.63066 0.10859 0.95541 0.0
C867 C 0.62014 0.07845 0.96787 0.0
N868 N 0.6223 0.02752 0.97312 0.0
N869 N 0.6572 0.13756 0.91838 0.0
C870 C 0.63299 0.05734 0.96216 0.0
C871 C 0.65506 0.11798 0.9383 0.0
N872 N 0.66112 0.04382 0.93049 0.0
N873 N 0.61773 0.12852 0.96007 0.0
H874 H 0.67002 0.13876 0.90223 0.0
H875 H 0.64269 0.14786 0.9157 0.0
H876 H 0.59956 0.12227 0.97227 0.0
H877 H 0.62681 0.1524 0.95342 0.0
H878 H 0.64775 0.01793 0.93213 0.0
H879 H 0.67493 0.04994 0.91447 0.0
H880 H 0.63327 0.01313 0.97148 0.0
H881 H 0.6039 0.01832 0.98523 0.0
C882 C 0.88525 0.56833 0.98015 0.0
C883 C 0.88295 0.57125 0.95229 0.0
C884 C 0.9107 0.53994 0.9446 0.0
C885 C 0.91646 0.54089 0.97279 0.0
N886 N 0.91458 0.56235 0.01757 0.0
N887 N 0.89747 0.56436 0.90825 0.0
C888 C 0.90505 0.55663 0.99067 0.0
C889 C 0.89676 0.55826 0.93454 0.0
N890 N 0.86801 0.57611 0.99654 0.0
N891 N 0.91732 0.52045 0.9274 0.0
H892 H 0.88747 0.57761 0.90012 0.0
H893 H 0.91028 0.5588 0.8951 0.0
H894 H 0.92644 0.50564 0.93391 0.0
H895 H 0.91082 0.5162 0.90677 0.0
H896 H 0.8662 0.57105 0.01647 0.0
H897 H 0.85307 0.58458 0.98956 0.0
H898 H 0.90962 0.57693 0.03104 0.0
H899 H 0.93024 0.55573 0.02616 0.0
C900 C 0.47622 0.3614 0.95055 0.0
C901 C 0.45486 0.33367 0.96356 0.0
C902 C 0.45357 0.37293 0.99857 0.0
C903 C 0.47315 0.40063 0.9844 0.0
N904 N 0.49678 0.41982 0.94339 0.0
N905 N 0.4192 0.31195 0.99736 0.0
C906 C 0.48267 0.39444 0.9594 0.0
C907 C 0.44224 0.33911 0.98678 0.0
N908 N 0.49124 0.3564 0.93016 0.0
N909 N 0.44713 0.37884 0.02381 0.0
H910 H 0.41093 0.28695 0.98946 0.0
H911 H 0.40657 0.31418 0.01251 0.0
H912 H 0.45525 0.40306 0.03338 0.0
H913 H 0.43596 0.35989 0.03625 0.0
H914 H 0.51002 0.37617 0.9223 0.0
H915 H 0.48692 0.33255 0.92255 0.0
H916 H 0.50034 0.41562 0.9236 0.0
H917 H 0.50204 0.44452 0.94868 0.0
C918 C 0.09905 0.65885 0.03569 0.0
C919 C 0.1101 0.66295 0.06318 0.0
C920 C 0.07395 0.60265 0.06616 0.0
C921 C 0.06262 0.59827 0.03857 0.0
N922 N 0.05969 0.6232 0.9985 0.0
N923 N 0.10357 0.64123 0.10613 0.0
C924 C 0.07355 0.62678 0.02382 0.0
C925 C 0.09603 0.63559 0.07888 0.0
N926 N 0.11373 0.68535 0.02077 0.0
N927 N 0.06424 0.57518 0.08019 0.0
H928 H 0.12033 0.66479 0.11617 0.0
H929 H 0.09141 0.6234 0.11916 0.0
H930 H 0.04648 0.55089 0.07261 0.0
H931 H 0.07491 0.57597 0.09894 0.0
H932 H 0.10954 0.6832 0.99999 0.0
H933 H 0.13161 0.7094 0.02913 0.0
H934 H 0.0644 0.64347 0.98765 0.0
H935 H 0.04157 0.60008 0.98894 0.0
C936 C 0.34931 0.46293 0.07481 0.0
C937 C 0.3258 0.42951 0.06415 0.0
C938 C 0.36304 0.42535 0.03592 0.0
C939 C 0.38587 0.45959 0.04521 0.0
N940 N 0.40062 0.51231 0.07144 0.0
N941 N 0.30826 0.3803 0.03215 0.0
C942 C 0.37892 0.47883 0.06402 0.0
C943 C 0.33216 0.41103 0.04412 0.0
N944 N 0.34355 0.47899 0.09579 0.0
N945 N 0.3709 0.40644 0.01931 0.0
H946 H 0.28543 0.36867 0.03786 0.0
H947 H 0.31025 0.36731 0.01526 0.0
H948 H 0.39241 0.41645 0.0112 0.0
H949 H 0.35686 0.38028 0.01468 0.0
H950 H 0.36061 0.5019 0.10643 0.0
H951 H 0.32201 0.4682 0.10391 0.0
H952 H 0.39593 0.52883 0.08278 0.0
H953 H 0.42306 0.5243 0.06491 0.0
C954 C 0.5459 0.88468 0.02537 0.0
C955 C 0.5736 0.90079 0.0438 0.0
C956 C 0.57762 0.95575 0.04009 0.0
C957 C 0.54762 0.93922 0.02449 0.0
N958 N 0.50277 0.88766 1.00231 0.0
N959 N 0.61226 0.95026 0.07291 0.0
C960 C 0.53156 0.90352 0.01725 0.0
C961 C 0.58849 0.93593 0.05226 0.0
N962 N 0.53406 0.85178 0.01484 0.0
N963 N 0.59627 0.99029 0.04318 0.0
H964 H 0.6207 0.93658 0.08274 0.0
H965 H 0.62138 0.97487 0.08212 0.0
H966 H 0.58976 0.00673 0.03571 0.0
H967 H 0.61977 0.00282 0.05144 0.0
H968 H 0.51599 0.83956 0.99918 0.0
H969 H 0.54395 0.8373 0.02037 0.0
H970 H 0.48797 0.86145 0.99942 0.0
H971 H 0.49305 0.90078 0.99348 0.0
C972 C 0.99788 0.19851 0.36794 0.0
C973 C 0.99134 0.21232 0.39115 0.0
C974 C 0.03885 0.26717 0.38918 0.0
C975 C 0.04489 0.25384 0.36518 0.0
N976 N 0.02517 0.20983 0.32796 0.0
N977 N 1.00014 0.26156 0.41922 0.0
C978 C 0.02282 0.2204 0.35338 0.0
C979 C 0.01001 0.2473 0.40013 0.0
N980 N 0.98125 0.16432 0.36044 0.0
N981 N 0.06128 0.29751 0.40286 0.0
H982 H 0.97908 0.2476 0.42767 0.0
H983 H 0.01111 0.28763 0.42456 0.0
H984 H 0.0833 0.31315 0.3967 0.0
H985 H 0.05922 0.30584 0.42205 0.0
H986 H 0.98747 0.15245 0.34558 0.0
H987 H 0.96263 0.14743 0.37041 0.0
H988 H 0.00807 0.18682 0.31741 0.0
H989 H 0.04243 0.2256 0.31631 0.0
C990 C 0.7746 0.77027 0.40144 0.0
C991 C 0.78464 0.75406 0.38265 0.0
C992 C 0.75673 0.76433 0.34573 0.0
C993 C 0.74894 0.78303 0.36435 0.0
N994 N 0.75728 0.81081 0.40918 0.0
N995 N 0.79123 0.74219 0.33673 0.0
C996 C 0.75981 0.78802 0.39203 0.0
C997 C 0.77756 0.75314 0.35471 0.0
N998 N 0.77813 0.76774 0.42822 0.0
N999 N 0.7429 0.75548 0.31983 0.0
H1000 H 0.80678 0.734 0.34256 0.0
H1001 H 0.78954 0.74429 0.31626 0.0
H1002 H 0.7266 0.76196 0.31253 0.0
H1003 H 0.74518 0.7388 0.30627 0.0
H1004 H 0.76806 0.77584 0.44248 0.0
H1005 H 0.7887 0.75483 0.43597 0.0
H1006 H 0.76761 0.81788 0.42899 0.0
H1007 H 0.74777 0.82539 0.40297 0.0
C1008 C 0.25093 0.00175 0.38664 0.0
C1009 C 0.23285 0.01746 0.38191 0.0
C1010 C 0.19126 0.96526 0.35557 0.0
C1011 C 0.20758 0.94828 0.36299 0.0
N1012 N 0.2512 0.94958 0.38944 0.0
N1013 N 0.18441 0.01375 0.36463 0.0
C1014 C 0.23705 0.96632 0.37943 0.0
C1015 C 0.20257 0.99907 0.36718 0.0
N1016 N 0.28167 0.02085 0.39764 0.0
N1017 N 0.16591 0.94975 0.33638 0.0
H1018 H 0.19229 0.03875 0.37228 0.0
H1019 H 0.16078 0.00045 0.35675 0.0
H1020 H 0.15769 0.92558 0.32661 0.0
H1021 H 0.15498 0.96204 0.3282 0.0
H1022 H 0.29725 0.01171 0.39843 0.0
H1023 H 0.29253 0.04674 0.40391 0.0
H1024 H 0.27037 0.96082 0.40419 0.0
H1025 H 0.24243 0.92371 0.38516 0.0
C1026 C 0.5502 0.66923 0.31742 0.0
C1027 C 0.55879 0.6546 0.29606 0.0
C1028 C 0.60414 0.71031 0.29143 0.0
C1029 C 0.59776 0.7241 0.31478 0.0
N1030 N 0.56707 0.71619 0.35212 0.0
N1031 N 0.59673 0.65992 0.26553 0.0
C1032 C 0.57131 0.70348 0.32832 0.0
C1033 C 0.58651 0.6748 0.28378 0.0
N1034 N 0.52154 0.65063 0.32681 0.0
N1035 N 0.62632 0.7313 0.27596 0.0
H1036 H 0.58465 0.63392 0.25946 0.0
H1037 H 0.61863 0.67289 0.25822 0.0
H1038 H 0.63942 0.75756 0.28057 0.0
H1039 H 0.62952 0.72306 0.25719 0.0
H1040 H 0.51252 0.66087 0.34041 0.0
H1041 H 0.50552 0.6255 0.31928 0.0
H1042 H 0.55027 0.70137 0.36445 0.0
H1043 H 0.58203 0.74115 0.36064 0.0
C1044 C 0.32264 0.90037 0.2704 0.0
C1045 C 0.35065 0.91162 0.2878 0.0
C1046 C 0.31973 0.89721 0.32633 0.0
C1047 C 0.2915 0.88337 0.30867 0.0
N1048 N 0.26616 0.8624 0.26333 0.0
N1049 N 0.37427 0.91126 0.33121 0.0
C1050 C 0.29293 0.88213 0.28051 0.0
C1051 C 0.34869 0.90703 0.31544 0.0
N1052 N 0.32422 0.90829 0.2446 0.0
N1053 N 0.31945 0.90288 0.35334 0.0
H1054 H 0.3956 0.91728 0.32376 0.0
H1055 H 0.37316 0.90514 0.35088 0.0
H1056 H 0.29917 0.89776 0.36226 0.0
H1057 H 0.34 0.91608 0.3666 0.0
H1058 H 0.30443 0.90344 0.23207 0.0
H1059 H 0.34548 0.92262 0.23657 0.0
H1060 H 0.26656 0.85799 0.24276 0.0
H1061 H 0.24408 0.84738 0.26991 0.0
C1062 C 0.10704 0.41426 0.28763 0.0
C1063 C 0.12341 0.4493 0.29682 0.0
C1064 C 0.15178 0.43961 0.33376 0.0
C1065 C 0.13877 0.40562 0.32224 0.0
N1066 N 0.10745 0.36167 0.2857 0.0
N1067 N 0.16315 0.49645 0.32737 0.0
C1068 C 0.11699 0.39302 0.29867 0.0
C1069 C 0.14607 0.46229 0.31975 0.0
N1070 N 0.08189 0.4013 0.26834 0.0
N1071 N 0.16927 0.44999 0.35825 0.0
H1072 H 0.15928 0.51381 0.3179 0.0
H1073 H 0.18253 0.50787 0.34191 0.0
H1074 H 0.1738 0.43385 0.3689 0.0
H1075 H 0.17688 0.47345 0.36903 0.0
H1076 H 0.067 0.37541 0.26274 0.0
H1077 H 0.07409 0.41628 0.25978 0.0
H1078 H 0.09478 0.35303 0.26674 0.0
H1079 H 0.11442 0.34526 0.29262 0.0
C1080 C 0.35051 0.44944 0.3233 0.0
C1081 C 0.35188 0.44608 0.2952 0.0
C1082 C 0.29423 0.41124 0.28762 0.0
C1083 C 0.29251 0.41586 0.31572 0.0
N1084 N 0.31878 0.4418 0.36023 0.0
N1085 N 0.32575 0.42931 0.25021 0.0
C1086 C 0.32059 0.43597 0.3335 0.0
C1087 C 0.32392 0.42856 0.27726 0.0
N1088 N 0.37787 0.46437 0.34026 0.0
N1089 N 0.2676 0.38994 0.27069 0.0
H1090 H 0.34711 0.44114 0.24184 0.0
H1091 H 0.30624 0.42072 0.23609 0.0
H1092 H 0.24503 0.37842 0.27664 0.0
H1093 H 0.2679 0.3819 0.25088 0.0
H1094 H 0.37868 0.46415 0.36099 0.0
H1095 H 0.40018 0.47528 0.3335 0.0
H1096 H 0.33783 0.45973 0.37355 0.0
H1097 H 0.29787 0.42984 0.36915 0.0
C1098 C 0.56086 0.89347 0.2756 0.0
C1099 C 0.5526 0.91161 0.29423 0.0
C1100 C 0.57886 0.8994 0.33127 0.0
C1101 C 0.58444 0.87855 0.31283 0.0
N1102 N 0.57413 0.84962 0.26825 0.0
N1103 N 0.54846 0.92672 0.34014 0.0
C1104 C 0.57364 0.87392 0.28518 0.0
C1105 C 0.56003 0.91306 0.3222 0.0
N1106 N 0.55736 0.89565 0.24873 0.0
N1107 N 0.59283 0.90768 0.35711 0.0
H1108 H 0.5346 0.93696 0.33428 0.0
H1109 H 0.55024 0.92517 0.3607 0.0
H1110 H 0.60745 0.89903 0.36447 0.0
H1111 H 0.59238 0.92572 0.37056 0.0
H1112 H 0.56617 0.88593 0.23447 0.0
H1113 H 0.54826 0.90988 0.24088 0.0
H1114 H 0.5638 0.84284 0.24844 0.0
H1115 H 0.58166 0.83354 0.27485 0.0
C1116 C 0.13834 0.70122 0.27732 0.0
C1117 C 0.12 0.67306 0.29129 0.0
C1118 C 0.11946 0.71106 0.32794 0.0
C1119 C 0.1364 0.73904 0.31315 0.0
N1120 N 0.15367 0.75869 0.27041 0.0
N1121 N 0.08835 0.64979 0.32742 0.0
C1122 C 0.14335 0.73348 0.28684 0.0
C1123 C 0.10904 0.67756 0.31587 0.0
N1124 N 0.15215 0.69756 0.25545 0.0
N1125 N 0.1146 0.71649 0.35387 0.0
H1126 H 0.08068 0.62505 0.31919 0.0
H1127 H 0.07687 0.65111 0.34382 0.0
H1128 H 0.12149 0.74043 0.36336 0.0
H1129 H 0.1057 0.6976 0.36666 0.0
H1130 H 0.16882 0.71804 0.24652 0.0
H1131 H 0.14928 0.67441 0.24763 0.0
H1132 H 0.15532 0.7547 0.25005 0.0
H1133 H 0.15726 0.78265 0.27625 0.0
C1134 C 0.76554 0.99178 0.36831 0.0
C1135 C 0.78024 0.99476 0.3943 0.0
C1136 C 0.74593 0.93398 0.39679 0.0
C1137 C 0.73201 0.93038 0.3702 0.0
N1138 N 0.72829 0.95492 0.33018 0.0
N1139 N 0.78087 0.97113 0.43558 0.0
C1140 C 0.74135 0.95917 0.35596 0.0
C1141 C 0.76937 0.96653 0.40919 0.0
N1142 N 0.77455 0.02036 0.3558 0.0
N1143 N 0.73743 0.90602 0.41 0.0
H1144 H 0.79882 0.99433 0.44525 0.0
H1145 H 0.77122 0.95275 0.44871 0.0
H1146 H 0.7183 0.8822 0.40322 0.0
H1147 H 0.75022 0.90582 0.42713 0.0
H1148 H 0.76365 0.02107 0.3377 0.0
H1149 H 0.79237 0.04434 0.36435 0.0
H1150 H 0.73563 0.97393 0.31755 0.0
H1151 H 0.71038 0.9316 0.32069 0.0
C1152 C 0.00232 0.79456 0.3853 0.0
C1153 C 0.98998 0.76184 0.39393 0.0
C1154 C 0.03705 0.76051 0.38219 0.0
C1155 C 0.05061 0.79437 0.37563 0.0
N1156 N 0.04879 0.84605 0.37623 0.0
N1157 N 0.99829 0.71671 0.40606 0.0
C1158 C 0.03398 0.81211 0.37864 0.0
C1159 C 0.00825 0.74581 0.39412 0.0
N1160 N 0.9835 0.80845 0.38263 0.0
N1161 N 0.0505 0.74152 0.37553 0.0
H1162 H 0.9773 0.70519 0.41499 0.0
H1163 H 0.01224 0.70586 0.40936 0.0
H1164 H 0.07064 0.75044 0.36548 0.0
H1165 H 0.03982 0.71569 0.37735 0.0
H1166 H 0.98997 0.83043 0.37353 0.0
H1167 H 0.96034 0.79658 0.38758 0.0
H1168 H 0.03896 0.86104 0.38092 0.0
H1169 H 0.07217 0.86001 0.37206 0.0
C1170 C 0.22488 0.23692 0.35944 0.0
C1171 C 0.22627 0.23356 0.3873 0.0
C1172 C 0.20375 0.26993 0.39544 0.0
C1173 C 0.20048 0.27168 0.36741 0.0
N1174 N 0.20411 0.25378 0.32223 0.0
N1175 N 0.21189 0.24124 0.43116 0.0
C1176 C 0.20993 0.25422 0.34923 0.0
C1177 C 0.21393 0.2482 0.40507 0.0
N1178 N 0.23873 0.22446 0.34292 0.0
N1179 N 0.19917 0.29077 0.41301 0.0
H1180 H 0.21977 0.22597 0.43905 0.0
H1181 H 0.19999 0.24815 0.44433 0.0
H1182 H 0.19345 0.30835 0.40669 0.0
H1183 H 0.20419 0.29321 0.43374 0.0
H1184 H 0.24182 0.2294 0.32307 0.0
H1185 H 0.24896 0.2107 0.34953 0.0
H1186 H 0.20722 0.23863 0.30779 0.0
H1187 H 0.19398 0.26696 0.3142 0.0
C1188 C 0.67825 0.57479 0.73257 0.0
C1189 C 0.66675 0.53949 0.73132 0.0
C1190 C 0.70873 0.5455 0.70419 0.0
C1191 C 0.71924 0.58053 0.70421 0.0
N1192 N 0.71044 0.62729 0.71365 0.0
N1193 N 0.66691 0.48991 0.71215 0.0
C1194 C 0.70299 0.59487 0.71708 0.0
C1195 C 0.68066 0.52442 0.71583 0.0
N1196 N 0.66601 0.58922 0.74906 0.0
N1197 N 0.72658 0.53273 0.69462 0.0
H1198 H 0.64679 0.47365 0.72093 0.0
H1199 H 0.67385 0.47725 0.69866 0.0
H1200 H 0.74768 0.54736 0.68646 0.0
H1201 H 0.72204 0.50834 0.6969 0.0
H1202 H 0.67587 0.61531 0.75338 0.0
H1203 H 0.64709 0.5751 0.75994 0.0
H1204 H 0.69743 0.63807 0.72028 0.0
H1205 H 0.7279 0.64251 0.70192 0.0
C1206 C 0.45137 0.11231 0.7476 0.0
C1207 C 0.46113 0.09431 0.73036 0.0
C1208 C 0.4302 0.09778 0.69192 0.0
C1209 C 0.42262 0.11832 0.70872 0.0
N1210 N 0.43132 0.15092 0.75148 0.0
N1211 N 0.46491 0.07524 0.68553 0.0
C1212 C 0.43462 0.12716 0.73631 0.0
C1213 C 0.45214 0.08875 0.70231 0.0
N1214 N 0.45744 0.11453 0.7748 0.0
N1215 N 0.41507 0.08512 0.66656 0.0
H1216 H 0.48076 0.06789 0.69242 0.0
H1217 H 0.46197 0.07409 0.66471 0.0
H1218 H 0.39788 0.08986 0.65842 0.0
H1219 H 0.4172 0.06711 0.65451 0.0
H1220 H 0.44771 0.12382 0.78846 0.0
H1221 H 0.47022 0.10459 0.78377 0.0
H1222 H 0.44215 0.16071 0.77098 0.0
H1223 H 0.42037 0.16348 0.74381 0.0
C1224 C 0.88136 0.33987 0.6996 0.0
C1225 C 0.91164 0.35873 0.71431 0.0
C1226 C 0.91627 0.30791 0.71305 0.0
C1227 C 0.88665 0.28927 0.69691 0.0
N1228 N 0.84484 0.28965 0.66958 0.0
N1229 N 0.96066 0.36296 0.73057 0.0
C1230 C 0.8702 0.30584 0.68874 0.0
C1231 C 0.92994 0.34342 0.7196 0.0
N1232 N 0.86308 0.35431 0.69637 0.0
N1233 N 0.93076 0.29167 0.72339 0.0
H1234 H 0.97131 0.38892 0.73644 0.0
H1235 H 0.97642 0.35407 0.73178 0.0
H1236 H 0.92227 0.26583 0.71932 0.0
H1237 H 0.95005 0.30334 0.73802 0.0
H1238 H 0.83943 0.3407 0.68853 0.0
H1239 H 0.87088 0.3795 0.70336 0.0
H1240 H 0.83379 0.30154 0.6609 0.0
H1241 H 0.83679 0.26528 0.66028 0.0
C1242 C 0.21948 0.00063 0.64925 0.0
C1243 C 0.23116 0.98246 0.63464 0.0
C1244 C 0.28309 0.0339 0.63708 0.0
C1245 C 0.27208 0.05173 0.65335 0.0
N1246 N 0.23194 0.05003 0.67971 0.0
N1247 N 0.27507 0.97962 0.61855 0.0
C1248 C 0.24079 0.03456 0.6607 0.0
C1249 C 0.26329 0.99845 0.62981 0.0
N1250 N 0.18794 0.98558 0.6519 0.0
N1251 N 0.31178 0.05087 0.62731 0.0
H1252 H 0.26113 0.95383 0.6119 0.0
H1253 H 0.29908 0.98888 0.61774 0.0
H1254 H 0.32754 0.07673 0.63181 0.0
H1255 H 0.319 0.03986 0.61263 0.0
H1256 H 0.17739 0.99869 0.65963 0.0
H1257 H 0.17183 0.96042 0.64453 0.0
H1258 H 0.21055 0.03764 0.68789 0.0
H1259 H 0.24721 0.07433 0.68937 0.0
C1260 C 0.01486 0.27207 0.62835 0.0
C1261 C 0.0295 0.25223 0.62568 0.0
C1262 C 0.98296 0.20365 0.64001 0.0
C1263 C 0.96993 0.22463 0.64544 0.0
N1264 N 0.97377 0.27928 0.64665 0.0
N1265 N 0.02956 0.20052 0.63163 0.0
C1266 C 0.986 0.25902 0.64018 0.0
C1267 C 0.01402 0.21827 0.63206 0.0
N1268 N 0.02805 0.30294 0.61868 0.0
N1269 N 0.96558 0.16973 0.64235 0.0
H1270 H 0.05222 0.21028 0.62577 0.0
H1271 H 0.02108 0.17712 0.63895 0.0
H1272 H 0.94327 0.15839 0.64913 0.0
H1273 H 0.97221 0.15237 0.63582 0.0
H1274 H 0.01697 0.31715 0.61735 0.0
H1275 H 0.04909 0.31323 0.60979 0.0
H1276 H 0.98611 0.30547 0.64642 0.0
H1277 H 0.95182 0.27026 0.65383 0.0
C1278 C 0.82377 0.7998 0.64774 0.0
C1279 C 0.79662 0.78896 0.62939 0.0
C1280 C 0.78096 0.7297 0.63253 0.0
C1281 C 0.80786 0.74036 0.65142 0.0
N1282 N 0.84915 0.78494 0.68276 0.0
N1283 N 0.74513 0.74441 0.61028 0.0
C1284 C 0.82751 0.77529 0.66083 0.0
C1285 C 0.77379 0.75413 0.62384 0.0
N1286 N 0.84662 0.8333 0.65185 0.0
N1287 N 0.76339 0.69677 0.62131 0.0
H1288 H 0.73921 0.76177 0.60355 0.0
H1289 H 0.72624 0.71956 0.6081 0.0
H1290 H 0.76733 0.67766 0.62666 0.0
H1291 H 0.74631 0.68882 0.60497 0.0
H1292 H 0.86857 0.84212 0.66255 0.0
H1293 H 0.84452 0.85209 0.64296 0.0
H1294 H 0.86217 0.80975 0.69202 0.0
H1295 H 0.85161 0.76751 0.69346 0.0
C1296 C 0.01582 0.79328 0.64637 0.0
C1297 C 0.0201 0.78104 0.62124 0.0
C1298 C 0.9632 0.74153 0.6125 0.0
C1299 C 0.95935 0.75053 0.63915 0.0
N1300 N 0.98373 0.78067 0.68325 0.0
N1301 N 0.99882 0.74043 0.5817 0.0
C1302 C 0.98605 0.77553 0.65655 0.0
C1303 C 0.99404 0.75439 0.60461 0.0
N1304 N 0.04021 0.82198 0.66048 0.0
N1305 N 0.93746 0.7216 0.59432 0.0
H1306 H 0.02098 0.74947 0.57491 0.0
H1307 H 0.98122 0.71819 0.57055 0.0
H1308 H 0.9144 0.71163 0.59894 0.0
H1309 H 0.9389 0.71757 0.57392 0.0
H1310 H 0.03756 0.83418 0.67755 0.0
H1311 H 0.06244 0.83539 0.65372 0.0
H1312 H 0.00321 0.79596 0.69723 0.0
H1313 H 0.96303 0.76702 0.69216 0.0
C1314 C 0.22593 0.23425 0.65105 0.0
C1315 C 0.2222 0.23631 0.62317 0.0
C1316 C 0.24648 0.20164 0.61422 0.0
C1317 C 0.25373 0.20325 0.64228 0.0
N1318 N 0.25573 0.22704 0.68735 0.0
N1319 N 0.23224 0.22571 0.57817 0.0
C1320 C 0.24471 0.22093 0.66075 0.0
C1321 C 0.23333 0.22096 0.60469 0.0
N1322 N 0.21114 0.24463 0.66829 0.0
N1323 N 0.25107 0.18069 0.59672 0.0
H1324 H 0.22239 0.2393 0.57041 0.0
H1325 H 0.24324 0.21846 0.56426 0.0
H1326 H 0.25977 0.1654 0.60294 0.0
H1327 H 0.24344 0.17595 0.57629 0.0
H1328 H 0.21022 0.24037 0.68841 0.0
H1329 H 0.19722 0.25463 0.66195 0.0
H1330 H 0.25268 0.24295 0.7011 0.0
H1331 H 0.27077 0.21924 0.69532 0.0
C1332 C 0.7859 0.01927 0.65096 0.0
C1333 C 0.79509 0.01484 0.62547 0.0
C1334 C 0.8204 0.07576 0.62203 0.0
C1335 C 0.81267 0.08089 0.64823 0.0
N1336 N 0.78942 0.05802 0.68838 0.0
N1337 N 0.81453 0.03672 0.58409 0.0
C1338 C 0.79522 0.05266 0.66273 0.0
C1339 C 0.81042 0.04248 0.61027 0.0
N1340 N 0.76778 0.99131 0.66355 0.0
N1341 N 0.83848 0.10289 0.60864 0.0
H1342 H 0.80857 0.01291 0.57487 0.0
H1343 H 0.82145 0.05485 0.57066 0.0
H1344 H 0.84378 0.12743 0.61466 0.0
H1345 H 0.8499 0.10157 0.59222 0.0
H1346 H 0.75761 0.99176 0.68103 0.0
H1347 H 0.76108 0.96679 0.65547 0.0
H1348 H 0.77987 0.03935 0.70125 0.0
H1349 H 0.79558 0.08182 0.69765 0.0
C1350 C 0.43338 0.29838 0.74547 0.0
C1351 C 0.44831 0.32497 0.72919 0.0
C1352 C 0.41112 0.28859 0.69026 0.0
C1353 C 0.39957 0.26058 0.70556 0.0
N1354 N 0.40016 0.23835 0.74781 0.0
N1355 N 0.45255 0.34631 0.68628 0.0
C1356 C 0.41065 0.26544 0.73326 0.0
C1357 C 0.43726 0.32047 0.70166 0.0
N1358 N 0.44083 0.30474 0.77272 0.0
N1359 N 0.39726 0.28466 0.66488 0.0
H1360 H 0.47096 0.37024 0.69431 0.0
H1361 H 0.44824 0.34368 0.66548 0.0
H1362 H 0.37846 0.26163 0.65584 0.0
H1363 H 0.40261 0.30467 0.65352 0.0
H1364 H 0.42825 0.28755 0.78604 0.0
H1365 H 0.45794 0.32838 0.78241 0.0
H1366 H 0.41047 0.23931 0.76678 0.0
H1367 H 0.38207 0.21415 0.74041 0.0
C1368 C 0.69957 0.11857 0.75354 0.0
C1369 C 0.67245 0.11522 0.73883 0.0
C1370 C 0.70354 0.1405 0.70172 0.0
C1371 C 0.73118 0.14588 0.71709 0.0
N1372 N 0.75667 0.14848 0.76046 0.0
N1373 N 0.65078 0.13163 0.70242 0.0
C1374 C 0.72955 0.13747 0.74389 0.0
C1375 C 0.6752 0.12909 0.71406 0.0
N1376 N 0.69664 0.10255 0.77606 0.0
N1377 N 0.70347 0.14388 0.67489 0.0
H1378 H 0.62983 0.12398 0.71112 0.0
H1379 H 0.65263 0.14454 0.6857 0.0
H1380 H 0.72298 0.15029 0.66441 0.0
H1381 H 0.68299 0.13673 0.66237 0.0
H1382 H 0.71512 0.10111 0.78584 0.0
H1383 H 0.67512 0.08825 0.78372 0.0
H1384 H 0.75692 0.14583 0.78089 0.0
H1385 H 0.77903 0.16366 0.7545 0.0
C1386 C 0.87061 0.56777 0.72643 0.0
C1387 C 0.89229 0.56371 0.71152 0.0
C1388 C 0.88333 0.59232 0.67537 0.0
C1389 C 0.86288 0.59813 0.69093 0.0
N1390 N 0.83062 0.58359 0.72808 0.0
N1391 N 0.91423 0.5647 0.66982 0.0
C1392 C 0.85418 0.58305 0.71528 0.0
C1393 C 0.89712 0.57379 0.68534 0.0
N1394 N 0.86711 0.55874 0.75198 0.0
N1395 N 0.88936 0.60448 0.65097 0.0
H1396 H 0.92442 0.55096 0.67655 0.0
H1397 H 0.91659 0.56845 0.64971 0.0
H1398 H 0.87666 0.6142 0.64149 0.0
H1399 H 0.90714 0.60547 0.64014 0.0
H1400 H 0.8542 0.564 0.76515 0.0
H1401 H 0.87873 0.54755 0.76092 0.0
H1402 H 0.8202 0.56877 0.74337 0.0
H1403 H 0.81991 0.59728 0.72287 0.0
C1404 C 0.51582 0.99126 0.12098 0.0
C1405 C 0.50221 0.00726 0.13567 0.0
C1406 C 0.49944 0.0347 0.09603 0.0
C1407 C 0.51644 0.0218 0.0826 0.0
N1408 N 0.54808 0.99528 0.08553 0.0
N1409 N 0.48601 0.04906 0.13874 0.0
C1410 C 0.52665 0.00212 0.09599 0.0
C1411 C 0.49536 0.03038 0.12365 0.0
N1412 N 0.51772 0.96505 0.13052 0.0
N1413 N 0.48615 0.0499 0.08222 0.0
H1414 H 0.48311 0.04691 0.15905 0.0
H1415 H 0.48383 0.06873 0.13172 0.0
H1416 H 0.48831 0.05294 0.06195 0.0
H1417 H 0.47075 0.05666 0.0902 0.0
H1418 H 0.52462 0.95037 0.11926 0.0
H1419 H 0.50928 0.95568 0.14847 0.0
H1420 H 0.55839 0.98345 0.09554 0.0
H1421 H 0.55846 0.00536 0.06845 0.0
C1422 C 0.01433 0.47004 0.11375 0.0
C1423 C 0.02074 0.49874 0.13145 0.0
C1424 C 0.99412 0.51526 0.0981 0.0
C1425 C 0.98877 0.48725 0.08002 0.0
N1426 N 0.98471 0.43279 0.07305 0.0
N1427 N 0.00991 0.54331 0.14371 0.0
C1428 C 0.99593 0.46289 0.08869 0.0
C1429 C 0.00819 0.51949 0.12468 0.0
N1430 N 0.02697 0.45057 0.12039 0.0
N1431 N 0.98775 0.53904 0.08936 0.0
H1432 H 0.02036 0.54715 0.16328 0.0
H1433 H 0.99862 0.55711 0.14091 0.0
H1434 H 0.97695 0.53667 0.07023 0.0
H1435 H 0.99501 0.56226 0.10039 0.0
H1436 H 0.02627 0.4317 0.1071 0.0
H1437 H 0.0399 0.45463 0.13885 0.0
H1438 H 0.98687 0.41269 0.07906 0.0
H1439 H 0.97053 0.42684 0.05495 0.0
C1440 C 0.48895 0.51104 0.12071 0.0
C1441 C 0.48906 0.48573 0.13515 0.0
C1442 C 0.50216 0.46328 0.0952 0.0
C1443 C 0.50738 0.49214 0.08238 0.0
N1444 N 0.51285 0.54794 0.08698 0.0
N1445 N 0.49753 0.43854 0.13716 0.0
C1446 C 0.50223 0.51702 0.096 0.0
C1447 C 0.496 0.4619 0.12263 0.0
N1448 N 0.4768 0.52997 0.13091 0.0
N1449 N 0.50217 0.43675 0.08104 0.0
H1450 H 0.4919 0.43603 0.1569 0.0
H1451 H 0.50613 0.42311 0.1302 0.0
H1452 H 0.50608 0.43648 0.06089 0.0
H1453 H 0.49537 0.4137 0.08852 0.0
H1454 H 0.47314 0.54638 0.11987 0.0
H1455 H 0.46738 0.52666 0.14929 0.0
H1456 H 0.51209 0.56786 0.09751 0.0
H1457 H 0.52658 0.55553 0.0712 0.0
C1458 C 0.96996 0.48896 0.89255 0.0
C1459 C 0.99269 0.51695 0.88072 0.0
C1460 C 0.02611 0.53886 0.9238 0.0
C1461 C 0.00575 0.50806 0.93434 0.0
N1462 N 0.96149 0.45054 0.92557 0.0
N1463 N 0.04339 0.56806 0.88417 0.0
C1464 C 0.97822 0.48239 0.91806 0.0
C1465 C 0.02102 0.5419 0.89614 0.0
N1466 N 0.94062 0.46813 0.87917 0.0
N1467 N 0.04976 0.5656 0.94035 0.0
H1468 H 0.03973 0.5719 0.86436 0.0
H1469 H 0.06612 0.58475 0.89335 0.0
H1470 H 0.05413 0.56459 0.96071 0.0
H1471 H 0.0632 0.58975 0.9345 0.0
H1472 H 0.92201 0.44955 0.88811 0.0
H1473 H 0.93399 0.47159 0.86007 0.0
H1474 H 0.94308 0.43013 0.91328 0.0
H1475 H 0.96859 0.44323 0.94241 0.0
C1476 C 0.48591 0.46751 0.891 0.0
C1477 C 0.51832 0.48795 0.88768 0.0
C1478 C 0.52584 0.52296 0.92956 0.0
C1479 C 0.49537 0.49854 0.93552 0.0
N1480 N 0.4472 0.44465 0.92254 0.0
N1481 N 0.57022 0.53399 0.90489 0.0
C1482 C 0.47523 0.47037 0.91619 0.0
C1483 C 0.5386 0.51559 0.90715 0.0
N1484 N 0.46536 0.44519 0.87008 0.0
N1485 N 0.54207 0.55373 0.9447 0.0
H1486 H 0.58046 0.52959 0.88864 0.0
H1487 H 0.58651 0.55192 0.9201 0.0
H1488 H 0.53231 0.56058 0.96007 0.0
H1489 H 0.56318 0.57367 0.93983 0.0
H1490 H 0.44097 0.43202 0.87047 0.0
H1491 H 0.4725 0.44247 0.85137 0.0
H1492 H 0.43367 0.42183 0.91027 0.0
H1493 H 0.43884 0.44421 0.94114 0.0
C1494 C 0.53703 0.99731 0.9037 0.0
C1495 C 0.51477 0.99754 0.88458 0.0
C1496 C 0.47501 0.97658 0.91663 0.0
C1497 C 0.49702 0.9751 0.93521 0.0
N1498 N 0.54459 0.9729 0.94268 0.0
N1499 N 0.46058 0.98031 0.87051 0.0
C1500 C 0.52679 0.98219 0.92764 0.0
C1501 C 0.48313 0.98516 0.89037 0.0
N1502 N 0.56812 0.01235 0.89937 0.0
N1503 N 0.44649 0.97017 0.92416 0.0
H1504 H 0.46546 0.9859 0.85097 0.0
H1505 H 0.43656 0.96806 0.8727 0.0
H1506 H 0.43872 0.96102 0.9423 0.0
H1507 H 0.43115 0.97526 0.91296 0.0
H1508 H 0.58582 0.01585 0.91387 0.0
H1509 H 0.57661 0.02414 0.88222 0.0
H1510 H 0.56559 0.97517 0.93717 0.0
H1511 H 0.53594 0.95857 0.95862 0.0
C1512 C 0.18419 0.38055 0.46628 0.0
C1513 C 0.16838 0.34712 0.47373 0.0
C1514 C 0.15172 0.32422 0.42642 0.0
C1515 C 0.17095 0.35722 0.41863 0.0
N1516 N 0.19292 0.41705 0.43108 0.0
N1517 N 0.13861 0.2867 0.46123 0.0
C1518 C 0.18368 0.38559 0.43858 0.0
C1519 C 0.15245 0.31886 0.45388 0.0
N1520 N 0.20079 0.40742 0.48566 0.0
N1521 N 0.13082 0.2984 0.40782 0.0
H1522 H 0.13694 0.28151 0.48115 0.0
H1523 H 0.13076 0.26516 0.44766 0.0
H1524 H 0.12682 0.30269 0.38847 0.0
H1525 H 0.11417 0.27443 0.41229 0.0
H1526 H 0.21599 0.43206 0.48152 0.0
H1527 H 0.20123 0.40471 0.50611 0.0
H1528 H 0.20003 0.43846 0.44457 0.0
H1529 H 0.18939 0.42091 0.41128 0.0
C1530 C 0.6805 0.85721 0.45771 0.0
C1531 C 0.69468 0.83818 0.4651 0.0
C1532 C 0.67029 0.80056 0.42297 0.0
C1533 C 0.66122 0.82325 0.4137 0.0
N1534 N 0.6595 0.87492 0.42153 0.0
N1535 N 0.70462 0.79245 0.45442 0.0
C1536 C 0.66627 0.85175 0.43103 0.0
C1537 C 0.68966 0.8097 0.4478 0.0
N1538 N 0.68056 0.88044 0.47632 0.0
N1539 N 0.66005 0.77014 0.40813 0.0
H1540 H 0.71887 0.7983 0.47243 0.0
H1541 H 0.70465 0.77386 0.44133 0.0
H1542 H 0.64555 0.76282 0.39004 0.0
H1543 H 0.66349 0.7511 0.41481 0.0
H1544 H 0.66795 0.89277 0.47296 0.0
H1545 H 0.69073 0.88494 0.49609 0.0
H1546 H 0.66657 0.89835 0.43214 0.0
H1547 H 0.64899 0.87211 0.40219 0.0
C1548 C 0.16594 0.80011 0.45329 0.0
C1549 C 0.16087 0.82441 0.4676 0.0
C1550 C 0.1736 0.85767 0.42953 0.0
C1551 C 0.17664 0.83233 0.41417 0.0
N1552 N 0.1689 0.77574 0.40998 0.0
N1553 N 0.15147 0.87109 0.46697 0.0
C1554 C 0.17079 0.80241 0.42563 0.0
C1555 C 0.1617 0.85129 0.4548 0.0
N1556 N 0.16705 0.77546 0.46632 0.0
N1557 N 0.18475 0.88909 0.42139 0.0
H1558 H 0.14291 0.86736 0.48571 0.0
H1559 H 0.14851 0.88887 0.45728 0.0
H1560 H 0.19711 0.89642 0.4048 0.0
H1561 H 0.18572 0.90933 0.43308 0.0
H1562 H 0.17437 0.75949 0.45787 0.0
H1563 H 0.16264 0.77245 0.4863 0.0
H1564 H 0.16143 0.75207 0.41654 0.0
H1565 H 0.17191 0.77612 0.38962 0.0
C1566 C 0.63626 0.81658 0.22264 0.0
C1567 C 0.661 0.84073 0.2093 0.0
C1568 C 0.69335 0.86773 0.25254 0.0
C1569 C 0.66948 0.84201 0.26575 0.0
N1570 N 0.61367 0.80171 0.26436 0.0
N1571 N 0.71371 0.88829 0.21054 0.0
C1572 C 0.63958 0.81909 0.25114 0.0
C1573 C 0.68961 0.86633 0.22402 0.0
N1574 N 0.60968 0.79076 0.208 0.0
N1575 N 0.71868 0.89468 0.26755 0.0
H1576 H 0.71152 0.8884 0.18977 0.0
H1577 H 0.73651 0.905 0.21949 0.0
H1578 H 0.72098 0.89757 0.28846 0.0
H1579 H 0.73569 0.91593 0.25968 0.0
H1580 H 0.59283 0.76961 0.21613 0.0
H1581 H 0.60545 0.78904 0.1872 0.0
H1582 H 0.59095 0.78568 0.25494 0.0
H1583 H 0.61364 0.80811 0.28449 0.0
C1584 C 0.14828 0.81676 0.22453 0.0
C1585 C 0.17966 0.83838 0.2188 0.0
C1586 C 0.18972 0.87537 0.26024 0.0
C1587 C 0.16103 0.85007 0.26842 0.0
N1588 N 0.1115 0.79757 0.25824 0.0
N1589 N 0.23004 0.88961 0.22978 0.0
C1590 C 0.13947 0.82141 0.25024 0.0
C1591 C 0.20017 0.86851 0.23601 0.0
N1592 N 0.12712 0.79173 0.20532 0.0
N1593 N 0.20669 0.90591 0.27568 0.0
H1594 H 0.23809 0.88568 0.21189 0.0
H1595 H 0.2474 0.90996 0.24281 0.0
H1596 H 0.19879 0.91149 0.29308 0.0
H1597 H 0.22677 0.92657 0.27013 0.0
H1598 H 0.10315 0.7768 0.20719 0.0
H1599 H 0.13311 0.78789 0.18633 0.0
H1600 H 0.09657 0.77399 0.24742 0.0
H1601 H 0.10388 0.8006 0.27662 0.0
C1602 C 0.17494 0.35569 0.23014 0.0
C1603 C 0.17378 0.33002 0.21204 0.0
C1604 C 0.16576 0.29505 0.24911 0.0
C1605 C 0.16937 0.32215 0.26751 0.0
N1606 N 0.19318 0.38314 0.27501 0.0
N1607 N 0.17498 0.27809 0.20523 0.0
C1608 C 0.1784 0.35394 0.25798 0.0
C1609 C 0.17104 0.30036 0.22174 0.0
N1610 N 0.17273 0.38185 0.2209 0.0
N1611 N 0.158 0.26448 0.25773 0.0
H1612 H 0.17941 0.28142 0.1853 0.0
H1613 H 0.17664 0.25795 0.21187 0.0
H1614 H 0.15803 0.26068 0.27792 0.0
H1615 H 0.15074 0.2426 0.24472 0.0
H1616 H 0.17073 0.39952 0.23359 0.0
H1617 H 0.16948 0.38373 0.20051 0.0
H1618 H 0.20109 0.40702 0.26867 0.0
H1619 H 0.2037 0.38397 0.29376 0.0
C1620 C 0.81884 0.68517 0.78303 0.0
C1621 C 0.82828 0.6651 0.79677 0.0
C1622 C 0.85663 0.66231 0.75913 0.0
C1623 C 0.84511 0.67997 0.74417 0.0
N1624 N 0.81213 0.70524 0.74117 0.0
N1625 N 0.84862 0.62705 0.79498 0.0
C1626 C 0.82484 0.69001 0.75574 0.0
C1627 C 0.84486 0.6514 0.78387 0.0
N1628 N 0.80611 0.70155 0.79656 0.0
N1629 N 0.87922 0.65618 0.75021 0.0
H1630 H 0.83916 0.61733 0.81255 0.0
H1631 H 0.85822 0.61401 0.7854 0.0
H1632 H 0.88732 0.66091 0.73149 0.0
H1633 H 0.8914 0.64789 0.76225 0.0
H1634 H 0.80217 0.71971 0.78868 0.0
H1635 H 0.80187 0.69921 0.8166 0.0
H1636 H 0.79387 0.70858 0.74716 0.0
H1637 H 0.8186 0.71319 0.72247 0.0
C1638 C 0.35319 0.13458 0.78266 0.0
C1639 C 0.35736 0.16203 0.80073 0.0
C1640 C 0.33038 0.17749 0.76683 0.0
C1641 C 0.32642 0.15012 0.74873 0.0
N1642 N 0.3247 0.0968 0.74202 0.0
N1643 N 0.3432 0.20407 0.8128 0.0
C1644 C 0.33483 0.12675 0.75752 0.0
C1645 C 0.34361 0.1816 0.7937 0.0
N1646 N 0.36797 0.11704 0.78893 0.0
N1647 N 0.32339 0.20078 0.75795 0.0
H1648 H 0.35284 0.20772 0.83264 0.0
H1649 H 0.33087 0.21673 0.80966 0.0
H1650 H 0.31335 0.1986 0.73854 0.0
H1651 H 0.32962 0.22357 0.7692 0.0
H1652 H 0.36887 0.09952 0.77521 0.0
H1653 H 0.38131 0.12175 0.80728 0.0
H1654 H 0.3278 0.07737 0.74829 0.0
H1655 H 0.31038 0.09017 0.72392 0.0
C1656 C 0.83803 0.19157 0.7895 0.0
C1657 C 0.83257 0.16269 0.802 0.0
C1658 C 0.84251 0.13893 0.76085 0.0
C1659 C 0.85169 0.16977 0.74956 0.0
N1660 N 0.866 0.22872 0.75689 0.0
N1661 N 0.83217 0.10991 0.80102 0.0
C1662 C 0.85129 0.19691 0.76477 0.0
C1663 C 0.8354 0.13654 0.78804 0.0
N1664 N 0.83054 0.21404 0.80128 0.0
N1665 N 0.83978 0.11167 0.74544 0.0
H1666 H 0.82594 0.10687 0.82057 0.0
H1667 H 0.83755 0.09204 0.79311 0.0
H1668 H 0.84525 0.11254 0.72567 0.0
H1669 H 0.82981 0.08746 0.75149 0.0
H1670 H 0.83075 0.23353 0.79158 0.0
H1671 H 0.82109 0.2112 0.81963 0.0
H1672 H 0.86892 0.24999 0.76852 0.0
H1673 H 0.87905 0.2348 0.74059 0.0
C1674 C 0.35531 0.20147 0.56392 0.0
C1675 C 0.32629 0.17642 0.54946 0.0
C1676 C 0.31372 0.14278 0.58729 0.0
C1677 C 0.34178 0.16872 0.60279 0.0
N1678 N 0.38588 0.22619 0.60735 0.0
N1679 N 0.27432 0.12805 0.54978 0.0
C1680 C 0.36163 0.19913 0.59154 0.0
C1681 C 0.30424 0.14888 0.56209 0.0
N1682 N 0.37712 0.22705 0.55111 0.0
N1683 N 0.29759 0.11108 0.59517 0.0
H1684 H 0.26673 0.1313 0.53096 0.0
H1685 H 0.25628 0.10976 0.55941 0.0
H1686 H 0.30577 0.10402 0.61154 0.0
H1687 H 0.27867 0.09052 0.58342 0.0
H1688 H 0.40019 0.24375 0.55958 0.0
H1689 H 0.37267 0.2303 0.53129 0.0
H1690 H 0.39901 0.25009 0.60097 0.0
H1691 H 0.3911 0.22575 0.62766 0.0
C1692 C 0.87821 0.19295 0.57395 0.0
C1693 C 0.85583 0.16684 0.55431 0.0
C1694 C 0.81441 0.15285 0.58415 0.0
C1695 C 0.8365 0.18004 0.60347 0.0
N1696 N 0.88642 0.23219 0.61254 0.0
N1697 N 0.80132 0.12883 0.53756 0.0
C1698 C 0.86752 0.20205 0.59705 0.0
C1699 C 0.82345 0.14926 0.55835 0.0
N1700 N 0.90971 0.20813 0.5712 0.0
N1701 N 0.78599 0.12842 0.59097 0.0
H1702 H 0.8072 0.12566 0.51838 0.0
H1703 H 0.77714 0.11794 0.53869 0.0
H1704 H 0.77877 0.12798 0.61004 0.0
H1705 H 0.7709 0.10622 0.57842 0.0
H1706 H 0.92714 0.22449 0.58645 0.0
H1707 H 0.9185 0.20233 0.55451 0.0
H1708 H 0.90847 0.25042 0.60773 0.0
H1709 H 0.87831 0.24056 0.62834 0.0
C1710 C 0.82021 0.628 0.54847 0.0
C1711 C 0.83496 0.6604 0.53901 0.0
C1712 C 0.8462 0.68748 0.58505 0.0
C1713 C 0.82818 0.65537 0.59446 0.0
N1714 N 0.79719 0.59455 0.58515 0.0
N1715 N 0.8583 0.72102 0.54765 0.0
C1716 C 0.81494 0.62542 0.57612 0.0
C1717 C 0.8467 0.69013 0.55712 0.0
N1718 N 0.81169 0.59984 0.53107 0.0
N1719 N 0.8645 0.71532 0.60291 0.0
H1720 H 0.86039 0.72434 0.52738 0.0
H1721 H 0.86353 0.74304 0.55959 0.0
H1722 H 0.86921 0.71245 0.62253 0.0
H1723 H 0.87947 0.73947 0.59769 0.0
H1724 H 0.80379 0.57581 0.537 0.0
H1725 H 0.81444 0.60087 0.51066 0.0
H1726 H 0.78369 0.57203 0.57256 0.0
H1727 H 0.79504 0.59161 0.60547 0.0
loop_
_geom_bond_atom_site_label_1
_geom_bond_atom_site_label_2
_geom_bond_distance
_geom_bond_site_symmetry_2
_ccdc_geom_bond_type
P0 O11 1.490 . S
P0 C14 1.812 . S
P0 C20 1.803 . S
P0 C26 1.819 . S
H1 C15 0.941 . S
H2 C16 0.939 . S
H3 C18 0.940 . S
H4 C19 0.940 . S
H5 C21 0.939 . S
H6 C22 0.942 . S
H7 C24 0.940 . S
H8 C25 0.939 . S
H9 C27 0.941 . S
H10 C31 0.939 . S
O11 P0 1.490 . S
H12 C28 0.939 . S
H13 C30 0.940 . S
C14 P0 1.812 . S
C14 C15 1.389 . S
C14 C19 1.391 . S
C15 H1 0.941 . S
C15 C14 1.389 . S
C15 C16 1.397 . S
C16 H2 0.939 . S
C16 C15 1.397 . S
C16 C17 1.378 . S
C17 C16 1.378 . S
C17 C18 1.378 . S
C18 H3 0.940 . S
C18 C17 1.378 . S
C18 C19 1.396 . S
C19 H4 0.940 . S
C19 C14 1.391 . S
C19 C18 1.396 . S
C20 P0 1.803 . S
C20 C21 1.378 . S
C20 C25 1.400 . S
C21 H5 0.939 . S
C21 C20 1.378 . S
C21 C22 1.361 . S
C22 H6 0.942 . S
C22 C21 1.361 . S
C22 C23 1.369 . S
C23 C22 1.369 . S
C23 C24 1.404 . S
C24 H7 0.940 . S
C24 C23 1.404 . S
C24 C25 1.389 . S
C25 H8 0.939 . S
C25 C20 1.400 . S
C25 C24 1.389 . S
C26 P0 1.819 . S
C26 C27 1.391 . S
C26 C31 1.391 . S
C27 H9 0.941 . S
C27 C26 1.391 . S
C27 C28 1.396 . S
C28 H12 0.939 . S
C28 C27 1.396 . S
C28 C29 1.397 . S
C29 C28 1.397 . S
C29 C30 1.385 . S
C30 H13 0.940 . S
C30 C29 1.385 . S
C30 C31 1.388 . S
C31 H10 0.939 . S
C31 C26 1.391 . S
C31 C30 1.388 . S
P32 O43 1.490 . S
P32 C46 1.812 . S
P32 C52 1.803 . S
P32 C58 1.819 . S
H33 C47 0.941 . S
H34 C48 0.939 . S
H35 C50 0.940 . S
H36 C51 0.940 . S
H37 C53 0.939 . S
H38 C54 0.942 . S
H39 C56 0.940 . S
H40 C57 0.939 . S
H41 C59 0.941 . S
H42 C63 0.939 . S
O43 P32 1.490 . S
H44 C60 0.939 . S
H45 C62 0.940 . S
C46 P32 1.812 . S
C46 C47 1.389 . S
C46 C51 1.391 . S
C47 H33 0.941 . S
C47 C46 1.389 . S
C47 C48 1.397 . S
C48 H34 0.939 . S
C48 C47 1.397 . S
C48 C49 1.378 . S
C49 C48 1.378 . S
C49 C50 1.378 . S
C50 H35 0.940 . S
C50 C49 1.378 . S
C50 C51 1.396 . S
C51 H36 0.940 . S
C51 C46 1.391 . S
C51 C50 1.396 . S
C52 P32 1.803 . S
C52 C53 1.378 . S
C52 C57 1.400 . S
C53 H37 0.939 . S
C53 C52 1.378 . S
C53 C54 1.361 . S
C54 H38 0.942 . S
C54 C53 1.361 . S
C54 C55 1.369 . S
C55 C54 1.369 . S
C55 C56 1.404 . S
C56 H39 0.940 . S
C56 C55 1.404 . S
C56 C57 1.389 . S
C57 H40 0.939 . S
C57 C52 1.400 . S
C57 C56 1.389 . S
C58 P32 1.819 . S
C58 C59 1.391 . S
C58 C63 1.391 . S
C59 H41 0.941 . S
C59 C58 1.391 . S
C59 C60 1.396 . S
C60 H44 0.939 . S
C60 C59 1.396 . S
C60 C61 1.397 . S
C61 C60 1.397 . S
C61 C62 1.385 . S
C62 H45 0.940 . S
C62 C61 1.385 . S
C62 C63 1.388 . S
C63 H42 0.939 . S
C63 C58 1.391 . S
C63 C62 1.388 . S
P64 O75 1.490 . S
P64 C78 1.812 . S
P64 C84 1.803 . S
P64 C90 1.819 . S
H65 C79 0.941 . S
H66 C80 0.939 . S
H67 C82 0.940 . S
H68 C83 0.940 . S
H69 C85 0.939 . S
H70 C86 0.942 . S
H71 C88 0.940 . S
H72 C89 0.939 . S
H73 C91 0.941 . S
H74 C95 0.939 . S
O75 P64 1.490 . S
H76 C92 0.939 . S
H77 C94 0.940 . S
C78 P64 1.812 . S
C78 C79 1.389 . S
C78 C83 1.391 . S
C79 H65 0.941 . S
C79 C78 1.389 . S
C79 C80 1.397 . S
C80 H66 0.939 . S
C80 C79 1.397 . S
C80 C81 1.378 . S
C81 C80 1.378 . S
C81 C82 1.378 . S
C82 H67 0.940 . S
C82 C81 1.378 . S
C82 C83 1.396 . S
C83 H68 0.940 . S
C83 C78 1.391 . S
C83 C82 1.396 . S
C84 P64 1.803 . S
C84 C85 1.378 . S
C84 C89 1.400 . S
C85 H69 0.939 . S
C85 C84 1.378 . S
C85 C86 1.361 . S
C86 H70 0.942 . S
C86 C85 1.361 . S
C86 C87 1.369 . S
C87 C86 1.369 . S
C87 C88 1.404 . S
C88 H71 0.940 . S
C88 C87 1.404 . S
C88 C89 1.389 . S
C89 H72 0.939 . S
C89 C84 1.400 . S
C89 C88 1.389 . S
C90 P64 1.819 . S
C90 C91 1.391 . S
C90 C95 1.391 . S
C91 H73 0.941 . S
C91 C90 1.391 . S
C91 C92 1.396 . S
C92 H76 0.939 . S
C92 C91 1.396 . S
C92 C93 1.397 . S
C93 C92 1.397 . S
C93 C94 1.385 . S
C94 H77 0.940 . S
C94 C93 1.385 . S
C94 C95 1.388 . S
C95 H74 0.939 . S
C95 C90 1.391 . S
C95 C94 1.388 . S
P96 O107 1.490 . S
P96 C110 1.812 . S
P96 C116 1.803 . S
P96 C122 1.819 . S
H97 C111 0.941 . S
H98 C112 0.939 . S
H99 C114 0.940 . S
H100 C115 0.940 . S
H101 C117 0.939 . S
H102 C118 0.942 . S
H103 C120 0.940 . S
H104 C121 0.939 . S
H105 C123 0.941 . S
H106 C127 0.939 . S
O107 P96 1.490 . S
H108 C124 0.939 . S
H109 C126 0.940 . S
C110 P96 1.812 . S
C110 C111 1.389 . S
C110 C115 1.391 . S
C111 H97 0.941 . S
C111 C110 1.389 . S
C111 C112 1.397 . S
C112 H98 0.939 . S
C112 C111 1.397 . S
C112 C113 1.378 . S
C113 C112 1.378 . S
C113 C114 1.378 . S
C114 H99 0.940 . S
C114 C113 1.378 . S
C114 C115 1.396 . S
C115 H100 0.940 . S
C115 C110 1.391 . S
C115 C114 1.396 . S
C116 P96 1.803 . S
C116 C117 1.378 . S
C116 C121 1.400 . S
C117 H101 0.939 . S
C117 C116 1.378 . S
C117 C118 1.361 . S
C118 H102 0.942 . S
C118 C117 1.361 . S
C118 C119 1.369 . S
C119 C118 1.369 . S
C119 C120 1.404 . S
C120 H103 0.940 . S
C120 C119 1.404 . S
C120 C121 1.389 . S
C121 H104 0.939 . S
C121 C116 1.400 . S
C121 C120 1.389 . S
C122 P96 1.819 . S
C122 C123 1.391 . S
C122 C127 1.391 . S
C123 H105 0.941 . S
C123 C122 1.391 . S
C123 C124 1.396 . S
C124 H108 0.939 . S
C124 C123 1.396 . S
C124 C125 1.397 . S
C125 C124 1.397 . S
C125 C126 1.385 . S
C126 H109 0.940 . S
C126 C125 1.385 . S
C126 C127 1.388 . S
C127 H106 0.939 . S
C127 C122 1.391 . S
C127 C126 1.388 . S
P128 O139 1.490 . S
P128 C142 1.812 . S
P128 C148 1.803 . S
P128 C154 1.819 . S
H129 C143 0.941 . S
H130 C144 0.939 . S
H131 C146 0.940 . S
H132 C147 0.940 . S
H133 C149 0.939 . S
H134 C150 0.942 . S
H135 C152 0.940 . S
H136 C153 0.939 . S
H137 C155 0.941 . S
H138 C159 0.939 . S
O139 P128 1.490 . S
H140 C156 0.939 . S
H141 C158 0.940 . S
C142 P128 1.812 . S
C142 C143 1.389 . S
C142 C147 1.391 . S
C143 H129 0.941 . S
C143 C142 1.389 . S
C143 C144 1.397 . S
C144 H130 0.939 . S
C144 C143 1.397 . S
C144 C145 1.378 . S
C145 C144 1.378 . S
C145 C146 1.378 . S
C146 H131 0.940 . S
C146 C145 1.378 . S
C146 C147 1.396 . S
C147 H132 0.940 . S
C147 C142 1.391 . S
C147 C146 1.396 . S
C148 P128 1.803 . S
C148 C149 1.378 . S
C148 C153 1.400 . S
C149 H133 0.939 . S
C149 C148 1.378 . S
C149 C150 1.361 . S
C150 H134 0.942 . S
C150 C149 1.361 . S
C150 C151 1.369 . S
C151 C150 1.369 . S
C151 C152 1.404 . S
C152 H135 0.940 . S
C152 C151 1.404 . S
C152 C153 1.389 . S
C153 H136 0.939 . S
C153 C148 1.400 . S
C153 C152 1.389 . S
C154 P128 1.819 . S
C154 C155 1.391 . S
C154 C159 1.391 . S
C155 H137 0.941 . S
C155 C154 1.391 . S
C155 C156 1.396 . S
C156 H140 0.939 . S
C156 C155 1.396 . S
C156 C157 1.397 . S
C157 C156 1.397 . S
C157 C158 1.385 . S
C158 H141 0.940 . S
C158 C157 1.385 . S
C158 C159 1.388 . S
C159 H138 0.939 . S
C159 C154 1.391 . S
C159 C158 1.388 . S
P160 O171 1.490 . S
P160 C174 1.812 . S
P160 C180 1.803 . S
P160 C186 1.819 . S
H161 C175 0.941 . S
H162 C176 0.939 . S
H163 C178 0.940 . S
H164 C179 0.940 . S
H165 C181 0.939 . S
H166 C182 0.942 . S
H167 C184 0.940 . S
H168 C185 0.939 . S
H169 C187 0.941 . S
H170 C191 0.939 . S
O171 P160 1.490 . S
H172 C188 0.939 . S
H173 C190 0.940 . S
C174 P160 1.812 . S
C174 C175 1.389 . S
C174 C179 1.391 . S
C175 H161 0.941 . S
C175 C174 1.389 . S
C175 C176 1.397 . S
C176 H162 0.939 . S
C176 C175 1.397 . S
C176 C177 1.378 . S
C177 C176 1.378 . S
C177 C178 1.378 . S
C178 H163 0.940 . S
C178 C177 1.378 . S
C178 C179 1.396 . S
C179 H164 0.940 . S
C179 C174 1.391 . S
C179 C178 1.396 . S
C180 P160 1.803 . S
C180 C181 1.378 . S
C180 C185 1.400 . S
C181 H165 0.939 . S
C181 C180 1.378 . S
C181 C182 1.361 . S
C182 H166 0.942 . S
C182 C181 1.361 . S
C182 C183 1.369 . S
C183 C182 1.369 . S
C183 C184 1.404 . S
C184 H167 0.940 . S
C184 C183 1.404 . S
C184 C185 1.389 . S
C185 H168 0.939 . S
C185 C180 1.400 . S
C185 C184 1.389 . S
C186 P160 1.819 . S
C186 C187 1.391 . S
C186 C191 1.391 . S
C187 H169 0.941 . S
C187 C186 1.391 . S
C187 C188 1.396 . S
C188 H172 0.939 . S
C188 C187 1.396 . S
C188 C189 1.397 . S
C189 C188 1.397 . S
C189 C190 1.385 . S
C190 H173 0.940 . S
C190 C189 1.385 . S
C190 C191 1.388 . S
C191 H170 0.939 . S
C191 C186 1.391 . S
C191 C190 1.388 . S
P192 O203 1.490 1_655 S
P192 C206 1.812 . S
P192 C212 1.803 . S
P192 C218 1.819 . S
H193 C207 0.941 . S
H194 C208 0.939 . S
H195 C210 0.940 . S
H196 C211 0.940 . S
H197 C213 0.939 . S
H198 C214 0.942 . S
H199 C216 0.940 . S
H200 C217 0.939 . S
H201 C219 0.941 1_455 S
H202 C223 0.939 . S
O203 P192 1.490 1_455 S
H204 C220 0.939 1_455 S
H205 C222 0.940 . S
C206 P192 1.812 . S
C206 C207 1.389 . S
C206 C211 1.391 . S
C207 H193 0.941 . S
C207 C206 1.389 . S
C207 C208 1.397 . S
C208 H194 0.939 . S
C208 C207 1.397 . S
C208 C209 1.378 . S
C209 C208 1.378 . S
C209 C210 1.378 . S
C210 H195 0.940 . S
C210 C209 1.378 . S
C210 C211 1.396 . S
C211 H196 0.940 . S
C211 C206 1.391 . S
C211 C210 1.396 . S
C212 P192 1.803 . S
C212 C213 1.378 . S
C212 C217 1.400 . S
C213 H197 0.939 . S
C213 C212 1.378 . S
C213 C214 1.361 . S
C214 H198 0.942 . S
C214 C213 1.361 . S
C214 C215 1.369 . S
C215 C214 1.369 . S
C215 C216 1.404 . S
C216 H199 0.940 . S
C216 C215 1.404 . S
C216 C217 1.389 . S
C217 H200 0.939 . S
C217 C212 1.400 . S
C217 C216 1.389 . S
C218 P192 1.819 . S
C218 C219 1.391 . S
C218 C223 1.391 . S
C219 H201 0.941 1_655 S
C219 C218 1.391 . S
C219 C220 1.396 . S
C220 H204 0.939 1_655 S
C220 C219 1.396 . S
C220 C221 1.397 . S
C221 C220 1.397 . S
C221 C222 1.385 . S
C222 H205 0.940 . S
C222 C221 1.385 . S
C222 C223 1.388 . S
C223 H202 0.939 . S
C223 C218 1.391 . S
C223 C222 1.388 . S
P224 O235 1.490 . S
P224 C238 1.812 . S
P224 C244 1.803 . S
P224 C250 1.819 . S
H225 C239 0.941 . S
H226 C240 0.939 . S
H227 C242 0.940 . S
H228 C243 0.940 . S
H229 C245 0.939 . S
H230 C246 0.942 . S
H231 C248 0.940 . S
H232 C249 0.939 . S
H233 C251 0.941 . S
H234 C255 0.939 . S
O235 P224 1.490 . S
H236 C252 0.939 . S
H237 C254 0.940 . S
C238 P224 1.812 . S
C238 C239 1.389 . S
C238 C243 1.391 . S
C239 H225 0.941 . S
C239 C238 1.389 . S
C239 C240 1.397 . S
C240 H226 0.939 . S
C240 C239 1.397 . S
C240 C241 1.378 . S
C241 C240 1.378 . S
C241 C242 1.378 . S
C242 H227 0.940 . S
C242 C241 1.378 . S
C242 C243 1.396 . S
C243 H228 0.940 . S
C243 C238 1.391 . S
C243 C242 1.396 . S
C244 P224 1.803 . S
C244 C245 1.378 . S
C244 C249 1.400 . S
C245 H229 0.939 . S
C245 C244 1.378 . S
C245 C246 1.361 . S
C246 H230 0.942 . S
C246 C245 1.361 . S
C246 C247 1.369 . S
C247 C246 1.369 . S
C247 C248 1.404 . S
C248 H231 0.940 . S
C248 C247 1.404 . S
C248 C249 1.389 . S
C249 H232 0.939 . S
C249 C244 1.400 . S
C249 C248 1.389 . S
C250 P224 1.819 . S
C250 C251 1.391 . S
C250 C255 1.391 . S
C251 H233 0.941 . S
C251 C250 1.391 . S
C251 C252 1.396 . S
C252 H236 0.939 . S
C252 C251 1.396 . S
C252 C253 1.397 . S
C253 C252 1.397 . S
C253 C254 1.385 . S
C254 H237 0.940 . S
C254 C253 1.385 . S
C254 C255 1.388 . S
C255 H234 0.939 . S
C255 C250 1.391 . S
C255 C254 1.388 . S
P256 O267 1.490 1_545 S
P256 C270 1.812 . S
P256 C276 1.803 . S
P256 C282 1.819 . S
H257 C271 0.941 . S
H258 C272 0.939 . S
H259 C274 0.940 . S
H260 C275 0.940 . S
H261 C277 0.939 . S
H262 C278 0.942 . S
H263 C280 0.940 . S
H264 C281 0.939 . S
H265 C283 0.941 1_565 S
H266 C287 0.939 . S
O267 P256 1.490 1_565 S
H268 C284 0.939 1_565 S
H269 C286 0.940 . S
C270 P256 1.812 . S
C270 C271 1.389 . S
C270 C275 1.391 . S
C271 H257 0.941 . S
C271 C270 1.389 . S
C271 C272 1.397 . S
C272 H258 0.939 . S
C272 C271 1.397 . S
C272 C273 1.378 . S
C273 C272 1.378 . S
C273 C274 1.378 . S
C274 H259 0.940 . S
C274 C273 1.378 . S
C274 C275 1.396 . S
C275 H260 0.940 . S
C275 C270 1.391 . S
C275 C274 1.396 . S
C276 P256 1.803 . S
C276 C277 1.378 . S
C276 C281 1.400 . S
C277 H261 0.939 . S
C277 C276 1.378 . S
C277 C278 1.361 . S
C278 H262 0.942 . S
C278 C277 1.361 . S
C278 C279 1.369 . S
C279 C278 1.369 . S
C279 C280 1.404 . S
C280 H263 0.940 . S
C280 C279 1.404 . S
C280 C281 1.389 . S
C281 H264 0.939 . S
C281 C276 1.400 . S
C281 C280 1.389 . S
C282 P256 1.819 . S
C282 C283 1.391 . S
C282 C287 1.391 . S
C283 H265 0.941 1_545 S
C283 C282 1.391 . S
C283 C284 1.396 . S
C284 H268 0.939 1_545 S
C284 C283 1.396 . S
C284 C285 1.397 . S
C285 C284 1.397 . S
C285 C286 1.385 . S
C286 H269 0.940 . S
C286 C285 1.385 . S
C286 C287 1.388 . S
C287 H266 0.939 . S
C287 C282 1.391 . S
C287 C286 1.388 . S
P288 O299 1.490 . S
P288 C302 1.812 . S
P288 C308 1.803 . S
P288 C314 1.819 . S
H289 C303 0.941 . S
H290 C304 0.939 . S
H291 C306 0.940 . S
H292 C307 0.940 . S
H293 C309 0.939 . S
H294 C310 0.942 . S
H295 C312 0.940 . S
H296 C313 0.939 . S
H297 C315 0.941 . S
H298 C319 0.939 . S
O299 P288 1.490 . S
H300 C316 0.939 . S
H301 C318 0.940 . S
C302 P288 1.812 . S
C302 C303 1.389 . S
C302 C307 1.391 . S
C303 H289 0.941 . S
C303 C302 1.389 . S
C303 C304 1.397 . S
C304 H290 0.939 . S
C304 C303 1.397 . S
C304 C305 1.378 . S
C305 C304 1.378 . S
C305 C306 1.378 . S
C306 H291 0.940 . S
C306 C305 1.378 . S
C306 C307 1.396 . S
C307 H292 0.940 . S
C307 C302 1.391 . S
C307 C306 1.396 . S
C308 P288 1.803 . S
C308 C309 1.378 . S
C308 C313 1.400 . S
C309 H293 0.939 . S
C309 C308 1.378 . S
C309 C310 1.361 . S
C310 H294 0.942 . S
C310 C309 1.361 . S
C310 C311 1.369 . S
C311 C310 1.369 . S
C311 C312 1.404 . S
C312 H295 0.940 . S
C312 C311 1.404 . S
C312 C313 1.389 . S
C313 H296 0.939 . S
C313 C308 1.400 . S
C313 C312 1.389 . S
C314 P288 1.819 . S
C314 C315 1.391 . S
C314 C319 1.391 . S
C315 H297 0.941 . S
C315 C314 1.391 . S
C315 C316 1.396 . S
C316 H300 0.939 . S
C316 C315 1.396 . S
C316 C317 1.397 . S
C317 C316 1.397 . S
C317 C318 1.385 . S
C318 H301 0.940 . S
C318 C317 1.385 . S
C318 C319 1.388 . S
C319 H298 0.939 . S
C319 C314 1.391 . S
C319 C318 1.388 . S
P320 O331 1.490 . S
P320 C334 1.812 . S
P320 C340 1.803 . S
P320 C346 1.819 . S
H321 C335 0.941 . S
H322 C336 0.939 . S
H323 C338 0.940 . S
H324 C339 0.940 . S
H325 C341 0.939 . S
H326 C342 0.942 . S
H327 C344 0.940 . S
H328 C345 0.939 . S
H329 C347 0.941 . S
H330 C351 0.939 . S
O331 P320 1.490 . S
H332 C348 0.939 . S
H333 C350 0.940 . S
C334 P320 1.812 . S
C334 C335 1.389 . S
C334 C339 1.391 . S
C335 H321 0.941 . S
C335 C334 1.389 . S
C335 C336 1.397 . S
C336 H322 0.939 . S
C336 C335 1.397 . S
C336 C337 1.378 . S
C337 C336 1.378 . S
C337 C338 1.378 . S
C338 H323 0.940 . S
C338 C337 1.378 . S
C338 C339 1.396 . S
C339 H324 0.940 . S
C339 C334 1.391 . S
C339 C338 1.396 . S
C340 P320 1.803 . S
C340 C341 1.378 . S
C340 C345 1.400 . S
C341 H325 0.939 . S
C341 C340 1.378 . S
C341 C342 1.361 . S
C342 H326 0.942 . S
C342 C341 1.361 . S
C342 C343 1.369 . S
C343 C342 1.369 . S
C343 C344 1.404 . S
C344 H327 0.940 . S
C344 C343 1.404 . S
C344 C345 1.389 . S
C345 H328 0.939 . S
C345 C340 1.400 . S
C345 C344 1.389 . S
C346 P320 1.819 . S
C346 C347 1.391 . S
C346 C351 1.391 . S
C347 H329 0.941 . S
C347 C346 1.391 . S
C347 C348 1.396 . S
C348 H332 0.939 . S
C348 C347 1.396 . S
C348 C349 1.397 . S
C349 C348 1.397 . S
C349 C350 1.385 . S
C350 H333 0.940 . S
C350 C349 1.385 . S
C350 C351 1.388 . S
C351 H330 0.939 . S
C351 C346 1.391 . S
C351 C350 1.388 . S
P352 O363 1.490 . S
P352 C366 1.812 . S
P352 C372 1.803 . S
P352 C378 1.819 . S
H353 C367 0.941 . S
H354 C368 0.939 . S
H355 C370 0.940 . S
H356 C371 0.940 . S
H357 C373 0.939 . S
H358 C374 0.942 . S
H359 C376 0.940 . S
H360 C377 0.939 . S
H361 C379 0.941 . S
H362 C383 0.939 . S
O363 P352 1.490 . S
H364 C380 0.939 . S
H365 C382 0.940 . S
C366 P352 1.812 . S
C366 C367 1.389 . S
C366 C371 1.391 . S
C367 H353 0.941 . S
C367 C366 1.389 . S
C367 C368 1.397 . S
C368 H354 0.939 . S
C368 C367 1.397 . S
C368 C369 1.378 . S
C369 C368 1.378 . S
C369 C370 1.378 . S
C370 H355 0.940 . S
C370 C369 1.378 . S
C370 C371 1.396 . S
C371 H356 0.940 . S
C371 C366 1.391 . S
C371 C370 1.396 . S
C372 P352 1.803 . S
C372 C373 1.378 . S
C372 C377 1.400 . S
C373 H357 0.939 . S
C373 C372 1.378 . S
C373 C374 1.361 . S
C374 H358 0.942 . S
C374 C373 1.361 . S
C374 C375 1.369 . S
C375 C374 1.369 . S
C375 C376 1.404 . S
C376 H359 0.940 . S
C376 C375 1.404 . S
C376 C377 1.389 . S
C377 H360 0.939 . S
C377 C372 1.400 . S
C377 C376 1.389 . S
C378 P352 1.819 . S
C378 C379 1.391 . S
C378 C383 1.391 . S
C379 H361 0.941 . S
C379 C378 1.391 . S
C379 C380 1.396 . S
C380 H364 0.939 . S
C380 C379 1.396 . S
C380 C381 1.397 . S
C381 C380 1.397 . S
C381 C382 1.385 . S
C382 H365 0.940 . S
C382 C381 1.385 . S
C382 C383 1.388 . S
C383 H362 0.939 . S
C383 C378 1.391 . S
C383 C382 1.388 . S
P384 O395 1.490 . S
P384 C398 1.812 . S
P384 C404 1.803 . S
P384 C410 1.819 . S
H385 C399 0.941 . S
H386 C400 0.939 . S
H387 C402 0.940 . S
H388 C403 0.940 . S
H389 C405 0.939 . S
H390 C406 0.942 . S
H391 C408 0.940 . S
H392 C409 0.939 . S
H393 C411 0.941 . S
H394 C415 0.939 . S
O395 P384 1.490 . S
H396 C412 0.939 . S
H397 C414 0.940 . S
C398 P384 1.812 . S
C398 C399 1.389 . S
C398 C403 1.391 . S
C399 H385 0.941 . S
C399 C398 1.389 . S
C399 C400 1.397 . S
C400 H386 0.939 . S
C400 C399 1.397 . S
C400 C401 1.378 . S
C401 C400 1.378 . S
C401 C402 1.378 . S
C402 H387 0.940 . S
C402 C401 1.378 . S
C402 C403 1.396 . S
C403 H388 0.940 . S
C403 C398 1.391 . S
C403 C402 1.396 . S
C404 P384 1.803 . S
C404 C405 1.378 . S
C404 C409 1.400 . S
C405 H389 0.939 . S
C405 C404 1.378 . S
C405 C406 1.361 . S
C406 H390 0.942 . S
C406 C405 1.361 . S
C406 C407 1.369 . S
C407 C406 1.369 . S
C407 C408 1.404 . S
C408 H391 0.940 . S
C408 C407 1.404 . S
C408 C409 1.389 . S
C409 H392 0.939 . S
C409 C404 1.400 . S
C409 C408 1.389 . S
C410 P384 1.819 . S
C410 C411 1.391 . S
C410 C415 1.391 . S
C411 H393 0.941 . S
C411 C410 1.391 . S
C411 C412 1.396 . S
C412 H396 0.939 . S
C412 C411 1.396 . S
C412 C413 1.397 . S
C413 C412 1.397 . S
C413 C414 1.385 . S
C414 H397 0.940 . S
C414 C413 1.385 . S
C414 C415 1.388 . S
C415 H394 0.939 . S
C415 C410 1.391 . S
C415 C414 1.388 . S
P416 O427 1.490 . S
P416 C430 1.812 . S
P416 C436 1.803 . S
P416 C442 1.819 . S
H417 C431 0.941 . S
H418 C432 0.939 . S
H419 C434 0.940 . S
H420 C435 0.940 . S
H421 C437 0.939 . S
H422 C438 0.942 . S
H423 C440 0.940 . S
H424 C441 0.939 . S
H425 C443 0.941 . S
H426 C447 0.939 . S
O427 P416 1.490 . S
H428 C444 0.939 . S
H429 C446 0.940 . S
C430 P416 1.812 . S
C430 C431 1.389 . S
C430 C435 1.391 . S
C431 H417 0.941 . S
C431 C430 1.389 . S
C431 C432 1.397 . S
C432 H418 0.939 . S
C432 C431 1.397 . S
C432 C433 1.378 . S
C433 C432 1.378 . S
C433 C434 1.378 . S
C434 H419 0.940 . S
C434 C433 1.378 . S
C434 C435 1.396 . S
C435 H420 0.940 . S
C435 C430 1.391 . S
C435 C434 1.396 . S
C436 P416 1.803 . S
C436 C437 1.378 . S
C436 C441 1.400 . S
C437 H421 0.939 . S
C437 C436 1.378 . S
C437 C438 1.361 . S
C438 H422 0.942 . S
C438 C437 1.361 . S
C438 C439 1.369 . S
C439 C438 1.369 . S
C439 C440 1.404 . S
C440 H423 0.940 . S
C440 C439 1.404 . S
C440 C441 1.389 . S
C441 H424 0.939 . S
C441 C436 1.400 . S
C441 C440 1.389 . S
C442 P416 1.819 . S
C442 C443 1.391 . S
C442 C447 1.391 . S
C443 H425 0.941 . S
C443 C442 1.391 . S
C443 C444 1.396 . S
C444 H428 0.939 . S
C444 C443 1.396 . S
C444 C445 1.397 . S
C445 C444 1.397 . S
C445 C446 1.385 . S
C446 H429 0.940 . S
C446 C445 1.385 . S
C446 C447 1.388 . S
C447 H426 0.939 . S
C447 C442 1.391 . S
C447 C446 1.388 . S
P448 O459 1.490 . S
P448 C462 1.812 . S
P448 C468 1.803 . S
P448 C474 1.819 . S
H449 C463 0.941 . S
H450 C464 0.939 . S
H451 C466 0.940 . S
H452 C467 0.940 . S
H453 C469 0.939 . S
H454 C470 0.942 . S
H455 C472 0.940 . S
H456 C473 0.939 . S
H457 C475 0.941 . S
H458 C479 0.939 . S
O459 P448 1.490 . S
H460 C476 0.939 . S
H461 C478 0.940 . S
C462 P448 1.812 . S
C462 C463 1.389 . S
C462 C467 1.391 . S
C463 H449 0.941 . S
C463 C462 1.389 . S
C463 C464 1.397 . S
C464 H450 0.939 . S
C464 C463 1.397 . S
C464 C465 1.378 . S
C465 C464 1.378 . S
C465 C466 1.378 . S
C466 H451 0.940 . S
C466 C465 1.378 . S
C466 C467 1.396 . S
C467 H452 0.940 . S
C467 C462 1.391 . S
C467 C466 1.396 . S
C468 P448 1.803 . S
C468 C469 1.378 . S
C468 C473 1.400 . S
C469 H453 0.939 . S
C469 C468 1.378 . S
C469 C470 1.361 . S
C470 H454 0.942 . S
C470 C469 1.361 . S
C470 C471 1.369 . S
C471 C470 1.369 . S
C471 C472 1.404 . S
C472 H455 0.940 . S
C472 C471 1.404 . S
C472 C473 1.389 . S
C473 H456 0.939 . S
C473 C468 1.400 . S
C473 C472 1.389 . S
C474 P448 1.819 . S
C474 C475 1.391 . S
C474 C479 1.391 . S
C475 H457 0.941 . S
C475 C474 1.391 . S
C475 C476 1.396 . S
C476 H460 0.939 . S
C476 C475 1.396 . S
C476 C477 1.397 . S
C477 C476 1.397 . S
C477 C478 1.385 . S
C478 H461 0.940 . S
C478 C477 1.385 . S
C478 C479 1.388 . S
C479 H458 0.939 . S
C479 C474 1.391 . S
C479 C478 1.388 . S
P480 O491 1.490 1_565 S
P480 C494 1.812 . S
P480 C500 1.803 . S
P480 C506 1.819 . S
H481 C495 0.941 . S
H482 C496 0.939 . S
H483 C498 0.940 . S
H484 C499 0.940 . S
H485 C501 0.939 . S
H486 C502 0.942 . S
H487 C504 0.940 . S
H488 C505 0.939 . S
H489 C507 0.941 1_545 S
H490 C511 0.939 . S
O491 P480 1.490 1_545 S
H492 C508 0.939 1_545 S
H493 C510 0.940 . S
C494 P480 1.812 . S
C494 C495 1.389 . S
C494 C499 1.391 . S
C495 H481 0.941 . S
C495 C494 1.389 . S
C495 C496 1.397 . S
C496 H482 0.939 . S
C496 C495 1.397 . S
C496 C497 1.378 . S
C497 C496 1.378 . S
C497 C498 1.378 . S
C498 H483 0.940 . S
C498 C497 1.378 . S
C498 C499 1.396 . S
C499 H484 0.940 . S
C499 C494 1.391 . S
C499 C498 1.396 . S
C500 P480 1.803 . S
C500 C501 1.378 . S
C500 C505 1.400 . S
C501 H485 0.939 . S
C501 C500 1.378 . S
C501 C502 1.361 . S
C502 H486 0.942 . S
C502 C501 1.361 . S
C502 C503 1.369 . S
C503 C502 1.369 . S
C503 C504 1.404 . S
C504 H487 0.940 . S
C504 C503 1.404 . S
C504 C505 1.389 . S
C505 H488 0.939 . S
C505 C500 1.400 . S
C505 C504 1.389 . S
C506 P480 1.819 . S
C506 C507 1.391 . S
C506 C511 1.391 . S
C507 H489 0.941 1_565 S
C507 C506 1.391 . S
C507 C508 1.396 . S
C508 H492 0.939 1_565 S
C508 C507 1.396 . S
C508 C509 1.397 . S
C509 C508 1.397 . S
C509 C510 1.385 . S
C510 H493 0.940 . S
C510 C509 1.385 . S
C510 C511 1.388 . S
C511 H490 0.939 . S
C511 C506 1.391 . S
C511 C510 1.388 . S
P512 O523 1.490 . S
P512 C526 1.812 . S
P512 C532 1.803 . S
P512 C538 1.819 . S
H513 C527 0.941 . S
H514 C528 0.939 . S
H515 C530 0.940 . S
H516 C531 0.940 . S
H517 C533 0.939 . S
H518 C534 0.942 . S
H519 C536 0.940 . S
H520 C537 0.939 . S
H521 C539 0.941 . S
H522 C543 0.939 . S
O523 P512 1.490 . S
H524 C540 0.939 . S
H525 C542 0.940 . S
C526 P512 1.812 . S
C526 C527 1.389 . S
C526 C531 1.391 . S
C527 H513 0.941 . S
C527 C526 1.389 . S
C527 C528 1.397 . S
C528 H514 0.939 . S
C528 C527 1.397 . S
C528 C529 1.378 . S
C529 C528 1.378 . S
C529 C530 1.378 . S
C530 H515 0.940 . S
C530 C529 1.378 . S
C530 C531 1.396 . S
C531 H516 0.940 . S
C531 C526 1.391 . S
C531 C530 1.396 . S
C532 P512 1.803 . S
C532 C533 1.378 . S
C532 C537 1.400 . S
C533 H517 0.939 . S
C533 C532 1.378 . S
C533 C534 1.361 . S
C534 H518 0.942 . S
C534 C533 1.361 . S
C534 C535 1.369 . S
C535 C534 1.369 . S
C535 C536 1.404 . S
C536 H519 0.940 . S
C536 C535 1.404 . S
C536 C537 1.389 . S
C537 H520 0.939 . S
C537 C532 1.400 . S
C537 C536 1.389 . S
C538 P512 1.819 . S
C538 C539 1.391 . S
C538 C543 1.391 . S
C539 H521 0.941 . S
C539 C538 1.391 . S
C539 C540 1.396 . S
C540 H524 0.939 . S
C540 C539 1.396 . S
C540 C541 1.397 . S
C541 C540 1.397 . S
C541 C542 1.385 . S
C542 H525 0.940 . S
C542 C541 1.385 . S
C542 C543 1.388 . S
C543 H522 0.939 . S
C543 C538 1.391 . S
C543 C542 1.388 . S
P544 O555 1.490 . S
P544 C558 1.812 . S
P544 C564 1.803 . S
P544 C570 1.819 . S
H545 C559 0.941 . S
H546 C560 0.939 . S
H547 C562 0.940 . S
H548 C563 0.940 . S
H549 C565 0.939 . S
H550 C566 0.942 . S
H551 C568 0.940 . S
H552 C569 0.939 . S
H553 C571 0.941 . S
H554 C575 0.939 . S
O555 P544 1.490 . S
H556 C572 0.939 . S
H557 C574 0.940 . S
C558 P544 1.812 . S
C558 C559 1.389 . S
C558 C563 1.391 . S
C559 H545 0.941 . S
C559 C558 1.389 . S
C559 C560 1.397 . S
C560 H546 0.939 . S
C560 C559 1.397 . S
C560 C561 1.378 . S
C561 C560 1.378 . S
C561 C562 1.378 . S
C562 H547 0.940 . S
C562 C561 1.378 . S
C562 C563 1.396 . S
C563 H548 0.940 . S
C563 C558 1.391 . S
C563 C562 1.396 . S
C564 P544 1.803 . S
C564 C565 1.378 . S
C564 C569 1.400 . S
C565 H549 0.939 . S
C565 C564 1.378 . S
C565 C566 1.361 . S
C566 H550 0.942 . S
C566 C565 1.361 . S
C566 C567 1.369 . S
C567 C566 1.369 . S
C567 C568 1.404 . S
C568 H551 0.940 . S
C568 C567 1.404 . S
C568 C569 1.389 . S
C569 H552 0.939 . S
C569 C564 1.400 . S
C569 C568 1.389 . S
C570 P544 1.819 . S
C570 C571 1.391 . S
C570 C575 1.391 . S
C571 H553 0.941 . S
C571 C570 1.391 . S
C571 C572 1.396 . S
C572 H556 0.939 . S
C572 C571 1.396 . S
C572 C573 1.397 . S
C573 C572 1.397 . S
C573 C574 1.385 . S
C574 H557 0.940 . S
C574 C573 1.385 . S
C574 C575 1.388 . S
C575 H554 0.939 . S
C575 C570 1.391 . S
C575 C574 1.388 . S
Tb576 O579 2.453 . S
Tb576 O580 2.596 1_545 S
Tb576 O581 2.374 1_545 S
Tb576 O589 2.343 1_554 S
Tb576 O591 2.353 . S
Tb576 O593 2.427 1_554 S
Tb576 O594 2.513 1_554 S
C577 O581 1.251 . S
C577 O583 1.263 . S
Tb578 O580 2.343 1_556 S
Tb578 O583 2.353 1_556 S
Tb578 O586 2.427 1_556 S
Tb578 O587 2.513 1_556 S
Tb578 O588 2.453 . S
Tb578 O589 2.596 1_565 S
Tb578 O590 2.374 1_565 S
O579 Tb576 2.453 . S
O579 C595 1.245 . S
O580 Tb576 2.596 1_565 S
O580 Tb578 2.343 1_554 S
O580 C595 1.259 1_565 S
O581 Tb576 2.374 1_565 S
O581 C577 1.251 . S
C582 O586 1.275 . S
C582 O587 1.246 . S
O583 C577 1.263 . S
O583 Tb578 2.353 1_554 S
C584 O588 1.263 . S
C584 O589 1.256 1_565 S
C585 O590 1.250 . S
C585 O591 1.263 1_556 S
O586 Tb578 2.427 1_554 S
O586 C582 1.275 . S
O587 Tb578 2.513 1_554 S
O587 C582 1.246 . S
O588 Tb578 2.453 . S
O588 C584 1.263 . S
O589 Tb576 2.343 1_556 S
O589 Tb578 2.596 1_545 S
O589 C584 1.256 1_545 S
O590 Tb578 2.374 1_545 S
O590 C585 1.250 . S
O591 Tb576 2.353 . S
O591 C585 1.263 1_554 S
C592 O593 1.275 . S
C592 O594 1.246 . S
O593 Tb576 2.427 1_556 S
O593 C592 1.275 . S
O594 Tb576 2.513 1_556 S
O594 C592 1.246 . S
C595 O579 1.245 . S
C595 O580 1.259 1_545 S
Tb596 O599 2.453 . S
Tb596 O600 2.596 1_655 S
Tb596 O601 2.374 1_655 S
Tb596 O609 2.343 1_554 S
Tb596 O611 2.353 . S
Tb596 O613 2.427 1_554 S
Tb596 O614 2.513 1_554 S
C597 O601 1.251 . S
C597 O603 1.263 . S
Tb598 O600 2.343 1_556 S
Tb598 O603 2.353 1_556 S
Tb598 O606 2.427 1_556 S
Tb598 O607 2.513 1_556 S
Tb598 O608 2.453 . S
Tb598 O609 2.596 1_455 S
Tb598 O610 2.374 1_455 S
O599 Tb596 2.453 . S
O599 C615 1.245 1_655 S
O600 Tb596 2.596 1_455 S
O600 Tb598 2.343 1_554 S
O600 C615 1.259 . S
O601 Tb596 2.374 1_455 S
O601 C597 1.251 . S
C602 O606 1.275 . S
C602 O607 1.246 . S
O603 C597 1.263 . S
O603 Tb598 2.353 1_554 S
C604 O608 1.246 1_655 S
C604 O609 1.259 . S
C605 O610 1.250 . S
C605 O611 1.263 1_556 S
O606 Tb598 2.427 1_554 S
O606 C602 1.275 . S
O607 Tb598 2.513 1_554 S
O607 C602 1.246 . S
O608 Tb598 2.453 . S
O608 C604 1.246 1_455 S
O609 Tb596 2.343 1_556 S
O609 Tb598 2.596 1_655 S
O609 C604 1.259 . S
O610 Tb598 2.374 1_655 S
O610 C605 1.250 . S
O611 Tb596 2.353 . S
O611 C605 1.263 1_554 S
C612 O613 1.275 . S
C612 O614 1.246 . S
O613 Tb596 2.427 1_556 S
O613 C612 1.275 . S
O614 Tb596 2.513 1_556 S
O614 C612 1.246 . S
C615 O599 1.245 1_455 S
C615 O600 1.259 . S
Tb616 O619 2.453 . S
Tb616 O620 2.596 . S
Tb616 O621 2.374 . S
Tb616 O629 2.343 1_556 S
Tb616 O631 2.353 1_556 S
Tb616 O633 2.427 1_556 S
Tb616 O634 2.513 1_556 S
C617 O621 1.251 . S
C617 O623 1.263 1_556 S
Tb618 O620 2.343 1_554 S
Tb618 O623 2.353 . S
Tb618 O626 2.427 1_554 S
Tb618 O627 2.513 1_554 S
Tb618 O628 2.453 . S
Tb618 O629 2.596 . S
Tb618 O630 2.374 . S
O619 Tb616 2.453 . S
O619 C635 1.245 . S
O620 Tb616 2.596 . S
O620 Tb618 2.343 1_556 S
O620 C635 1.259 . S
O621 Tb616 2.374 . S
O621 C617 1.251 . S
C622 O626 1.275 . S
C622 O627 1.246 . S
O623 C617 1.263 1_554 S
O623 Tb618 2.353 . S
C624 O628 1.245 . S
C624 O629 1.259 . S
C625 O630 1.250 . S
C625 O631 1.263 . S
O626 Tb618 2.427 1_556 S
O626 C622 1.275 . S
O627 Tb618 2.513 1_556 S
O627 C622 1.246 . S
O628 Tb618 2.453 . S
O628 C624 1.245 . S
O629 Tb616 2.343 1_554 S
O629 Tb618 2.596 . S
O629 C624 1.259 . S
O630 Tb618 2.374 . S
O630 C625 1.250 . S
O631 Tb616 2.353 1_554 S
O631 C625 1.263 . S
C632 O633 1.275 . S
C632 O634 1.246 . S
O633 Tb616 2.427 1_554 S
O633 C632 1.275 . S
O634 Tb616 2.513 1_554 S
O634 C632 1.246 . S
C635 O619 1.245 . S
C635 O620 1.259 . S
Tb636 O639 2.453 . S
Tb636 O640 2.596 . S
Tb636 O641 2.374 . S
Tb636 O649 2.343 . S
Tb636 O651 2.353 . S
Tb636 O653 2.427 . S
Tb636 O654 2.513 . S
C637 O641 1.251 . S
C637 O643 1.263 . S
Tb638 O640 2.343 . S
Tb638 O643 2.353 . S
Tb638 O646 2.427 . S
Tb638 O647 2.513 . S
Tb638 O648 2.453 . S
Tb638 O649 2.596 . S
Tb638 O650 2.374 . S
O639 Tb636 2.453 . S
O639 C655 1.245 . S
O640 Tb636 2.596 . S
O640 Tb638 2.343 . S
O640 C655 1.259 . S
O641 Tb636 2.374 . S
O641 C637 1.251 . S
C642 O646 1.275 . S
C642 O647 1.246 . S
O643 C637 1.263 . S
O643 Tb638 2.353 . S
C644 O648 1.245 . S
C644 O649 1.259 . S
C645 O650 1.250 . S
C645 O651 1.263 . S
O646 Tb638 2.427 . S
O646 C642 1.275 . S
O647 Tb638 2.513 . S
O647 C642 1.246 . S
O648 Tb638 2.453 . S
O648 C644 1.245 . S
O649 Tb636 2.343 . S
O649 Tb638 2.596 . S
O649 C644 1.259 . S
O650 Tb638 2.374 . S
O650 C645 1.250 . S
O651 Tb636 2.353 . S
O651 C645 1.263 . S
C652 O653 1.275 . S
C652 O654 1.246 . S
O653 Tb636 2.427 . S
O653 C652 1.275 . S
O654 Tb636 2.513 . S
O654 C652 1.246 . S
C655 O639 1.245 . S
C655 O640 1.259 . S
Tb656 O659 2.453 . S
Tb656 O660 2.596 . S
Tb656 O661 2.374 . S
Tb656 O669 2.343 . S
Tb656 O671 2.353 . S
Tb656 O673 2.427 . S
Tb656 O674 2.513 . S
C657 O661 1.251 . S
C657 O663 1.263 . S
Tb658 O660 2.343 . S
Tb658 O663 2.353 . S
Tb658 O666 2.427 . S
Tb658 O667 2.513 . S
Tb658 O668 2.453 . S
Tb658 O669 2.596 . S
Tb658 O670 2.374 . S
O659 Tb656 2.453 . S
O659 C675 1.245 . S
O660 Tb656 2.596 . S
O660 Tb658 2.343 . S
O660 C675 1.259 . S
O661 Tb656 2.374 . S
O661 C657 1.251 . S
C662 O666 1.275 . S
C662 O667 1.246 . S
O663 C657 1.263 . S
O663 Tb658 2.353 . S
C664 O668 1.245 . S
C664 O669 1.259 . S
C665 O670 1.250 . S
C665 O671 1.263 . S
O666 Tb658 2.427 . S
O666 C662 1.275 . S
O667 Tb658 2.513 . S
O667 C662 1.246 . S
O668 Tb658 2.453 . S
O668 C664 1.245 . S
O669 Tb656 2.343 . S
O669 Tb658 2.596 . S
O669 C664 1.259 . S
O670 Tb658 2.374 . S
O670 C665 1.250 . S
O671 Tb656 2.353 . S
O671 C665 1.263 . S
C672 O673 1.275 . S
C672 O674 1.246 . S
O673 Tb656 2.427 . S
O673 C672 1.275 . S
O674 Tb656 2.513 . S
O674 C672 1.246 . S
C675 O659 1.245 . S
C675 O660 1.259 . S
Tb676 O679 2.453 . S
Tb676 O680 2.596 . S
Tb676 O681 2.374 . S
Tb676 O689 2.343 . S
Tb676 O691 2.353 . S
Tb676 O693 2.427 . S
Tb676 O694 2.513 . S
C677 O681 1.251 . S
C677 O683 1.263 . S
Tb678 O680 2.343 . S
Tb678 O683 2.353 . S
Tb678 O686 2.427 . S
Tb678 O687 2.513 . S
Tb678 O688 2.453 . S
Tb678 O689 2.596 . S
Tb678 O690 2.374 . S
O679 Tb676 2.453 . S
O679 C695 1.245 . S
O680 Tb676 2.596 . S
O680 Tb678 2.343 . S
O680 C695 1.259 . S
O681 Tb676 2.374 . S
O681 C677 1.251 . S
C682 O686 1.275 . S
C682 O687 1.246 . S
O683 C677 1.263 . S
O683 Tb678 2.353 . S
C684 O688 1.245 . S
C684 O689 1.259 . S
C685 O690 1.250 . S
C685 O691 1.263 . S
O686 Tb678 2.427 . S
O686 C682 1.275 . S
O687 Tb678 2.513 . S
O687 C682 1.246 . S
O688 Tb678 2.453 . S
O688 C684 1.245 . S
O689 Tb676 2.343 . S
O689 Tb678 2.596 . S
O689 C684 1.259 . S
O690 Tb678 2.374 . S
O690 C685 1.250 . S
O691 Tb676 2.353 . S
O691 C685 1.263 . S
C692 O693 1.275 . S
C692 O694 1.246 . S
O693 Tb676 2.427 . S
O693 C692 1.275 . S
O694 Tb676 2.513 . S
O694 C692 1.246 . S
C695 O679 1.245 . S
C695 O680 1.259 . S
Tb696 O699 2.453 . S
Tb696 O700 2.596 . S
Tb696 O701 2.374 . S
Tb696 O709 2.343 . S
Tb696 O711 2.353 . S
Tb696 O713 2.427 . S
Tb696 O714 2.513 . S
C697 O701 1.251 . S
C697 O703 1.263 . S
Tb698 O700 2.343 . S
Tb698 O703 2.353 . S
Tb698 O706 2.427 . S
Tb698 O707 2.513 . S
Tb698 O708 2.453 . S
Tb698 O709 2.596 . S
Tb698 O710 2.374 . S
O699 Tb696 2.453 . S
O699 C715 1.245 . S
O700 Tb696 2.596 . S
O700 Tb698 2.343 . S
O700 C715 1.259 . S
O701 Tb696 2.374 . S
O701 C697 1.251 . S
C702 O706 1.275 . S
C702 O707 1.246 . S
O703 C697 1.263 . S
O703 Tb698 2.353 . S
C704 O708 1.245 . S
C704 O709 1.259 . S
C705 O710 1.250 . S
C705 O711 1.263 . S
O706 Tb698 2.427 . S
O706 C702 1.275 . S
O707 Tb698 2.513 . S
O707 C702 1.246 . S
O708 Tb698 2.453 . S
O708 C704 1.245 . S
O709 Tb696 2.343 . S
O709 Tb698 2.596 . S
O709 C704 1.259 . S
O710 Tb698 2.374 . S
O710 C705 1.250 . S
O711 Tb696 2.353 . S
O711 C705 1.263 . S
C712 O713 1.275 . S
C712 O714 1.246 . S
O713 Tb696 2.427 . S
O713 C712 1.275 . S
O714 Tb696 2.513 . S
O714 C712 1.246 . S
C715 O699 1.245 . S
C715 O700 1.259 . S
Tb716 O719 2.453 . S
Tb716 O720 2.596 . S
Tb716 O721 2.374 . S
Tb716 O729 2.343 . S
Tb716 O731 2.353 . S
Tb716 O733 2.427 . S
Tb716 O734 2.513 . S
C717 O721 1.251 . S
C717 O723 1.263 . S
Tb718 O720 2.343 . S
Tb718 O723 2.353 . S
Tb718 O726 2.427 . S
Tb718 O727 2.513 . S
Tb718 O728 2.453 . S
Tb718 O729 2.596 . S
Tb718 O730 2.374 . S
O719 Tb716 2.453 . S
O719 C735 1.245 . S
O720 Tb716 2.596 . S
O720 Tb718 2.343 . S
O720 C735 1.259 . S
O721 Tb716 2.374 . S
O721 C717 1.251 . S
C722 O726 1.275 . S
C722 O727 1.246 . S
O723 C717 1.263 . S
O723 Tb718 2.353 . S
C724 O728 1.245 . S
C724 O729 1.259 . S
C725 O730 1.250 . S
C725 O731 1.263 . S
O726 Tb718 2.427 . S
O726 C722 1.275 . S
O727 Tb718 2.513 . S
O727 C722 1.246 . S
O728 Tb718 2.453 . S
O728 C724 1.245 . S
O729 Tb716 2.343 . S
O729 Tb718 2.596 . S
O729 C724 1.259 . S
O730 Tb718 2.374 . S
O730 C725 1.250 . S
O731 Tb716 2.353 . S
O731 C725 1.263 . S
C732 O733 1.275 . S
C732 O734 1.246 . S
O733 Tb716 2.427 . S
O733 C732 1.275 . S
O734 Tb716 2.513 . S
O734 C732 1.246 . S
C735 O719 1.245 . S
C735 O720 1.259 . S
Tb736 O739 2.453 . S
Tb736 O740 2.596 . S
Tb736 O741 2.374 . S
Tb736 O749 2.343 . S
Tb736 O751 2.353 . S
Tb736 O753 2.427 . S
Tb736 O754 2.513 . S
C737 O741 1.251 . S
C737 O743 1.263 . S
Tb738 O740 2.343 . S
Tb738 O743 2.353 . S
Tb738 O746 2.427 . S
Tb738 O747 2.513 . S
Tb738 O748 2.453 . S
Tb738 O749 2.596 . S
Tb738 O750 2.374 . S
O739 Tb736 2.453 . S
O739 C755 1.245 . S
O740 Tb736 2.596 . S
O740 Tb738 2.343 . S
O740 C755 1.259 . S
O741 Tb736 2.374 . S
O741 C737 1.251 . S
C742 O746 1.275 . S
C742 O747 1.246 . S
O743 C737 1.263 . S
O743 Tb738 2.353 . S
C744 O748 1.245 . S
C744 O749 1.259 . S
C745 O750 1.250 . S
C745 O751 1.263 . S
O746 Tb738 2.427 . S
O746 C742 1.275 . S
O747 Tb738 2.513 . S
O747 C742 1.246 . S
O748 Tb738 2.453 . S
O748 C744 1.245 . S
O749 Tb736 2.343 . S
O749 Tb738 2.596 . S
O749 C744 1.259 . S
O750 Tb738 2.374 . S
O750 C745 1.250 . S
O751 Tb736 2.353 . S
O751 C745 1.263 . S
C752 O753 1.275 . S
C752 O754 1.246 . S
O753 Tb736 2.427 . S
O753 C752 1.275 . S
O754 Tb736 2.513 . S
O754 C752 1.246 . S
C755 O739 1.245 . S
C755 O740 1.259 . S
C756 C757 1.363 . S
C756 C762 1.379 . S
C756 N764 1.356 . S
C757 C756 1.363 . S
C757 C763 1.363 . S
C758 C759 1.363 . S
C758 C763 1.379 . S
C758 N765 1.356 . S
C759 C758 1.363 . S
C759 C762 1.363 . S
N760 C762 1.356 . S
N760 H772 0.984 . S
N760 H773 0.985 . S
N761 C763 1.356 . S
N761 H766 0.984 . S
N761 H767 0.985 . S
C762 C756 1.379 . S
C762 C759 1.363 . S
C762 N760 1.356 . S
C763 C757 1.363 . S
C763 C758 1.379 . S
C763 N761 1.356 . S
N764 C756 1.356 . S
N764 H770 0.984 . S
N764 H771 0.984 . S
N765 C758 1.356 . S
N765 H768 0.984 . S
N765 H769 0.985 . S
H766 N761 0.984 . S
H767 N761 0.985 . S
H768 N765 0.984 . S
H769 N765 0.985 . S
H770 N764 0.984 . S
H771 N764 0.984 . S
H772 N760 0.984 . S
H773 N760 0.985 . S
C774 C775 1.363 . S
C774 C780 1.379 . S
C774 N782 1.356 . S
C775 C774 1.363 . S
C775 C781 1.363 . S
C776 C777 1.363 . S
C776 C781 1.379 . S
C776 N783 1.356 . S
C777 C776 1.363 . S
C777 C780 1.363 . S
N778 C780 1.356 . S
N778 H790 0.984 . S
N778 H791 0.985 . S
N779 C781 1.356 . S
N779 H784 0.984 . S
N779 H785 0.985 . S
C780 C774 1.379 . S
C780 C777 1.363 . S
C780 N778 1.356 . S
C781 C775 1.363 . S
C781 C776 1.379 . S
C781 N779 1.356 . S
N782 C774 1.356 . S
N782 H788 0.984 . S
N782 H789 0.984 . S
N783 C776 1.356 . S
N783 H786 0.984 . S
N783 H787 0.985 1_554 S
H784 N779 0.984 . S
H785 N779 0.985 . S
H786 N783 0.984 . S
H787 N783 0.985 1_556 S
H788 N782 0.984 . S
H789 N782 0.984 . S
H790 N778 0.984 . S
H791 N778 0.985 . S
C792 C793 1.363 . S
C792 C798 1.379 . S
C792 N800 1.356 . S
C793 C792 1.363 . S
C793 C799 1.363 . S
C794 C795 1.363 . S
C794 C799 1.379 . S
C794 N801 1.355 . S
C795 C794 1.363 . S
C795 C798 1.363 . S
N796 C798 1.356 . S
N796 H808 0.984 . S
N796 H809 0.985 . S
N797 C799 1.356 . S
N797 H802 0.984 . S
N797 H803 0.985 . S
C798 C792 1.379 . S
C798 C795 1.363 . S
C798 N796 1.356 . S
C799 C793 1.363 . S
C799 C794 1.379 . S
C799 N797 1.356 . S
N800 C792 1.356 . S
N800 H806 0.984 . S
N800 H807 0.984 . S
N801 C794 1.355 . S
N801 H804 0.985 1_554 S
N801 H805 0.986 1_554 S
H802 N797 0.984 . S
H803 N797 0.985 . S
H804 N801 0.985 1_556 S
H805 N801 0.986 1_556 S
H806 N800 0.984 . S
H807 N800 0.984 . S
H808 N796 0.984 . S
H809 N796 0.985 . S
C810 C811 1.363 . S
C810 C816 1.379 . S
C810 N818 1.356 . S
C811 C810 1.363 . S
C811 C817 1.363 . S
C812 C813 1.363 . S
C812 C817 1.379 . S
C812 N819 1.356 1_556 S
C813 C812 1.363 . S
C813 C816 1.363 . S
N814 C816 1.356 . S
N814 H826 0.984 . S
N814 H827 0.985 . S
N815 C817 1.356 . S
N815 H820 0.984 . S
N815 H821 0.985 1_556 S
C816 C810 1.379 . S
C816 C813 1.363 . S
C816 N814 1.356 . S
C817 C811 1.363 . S
C817 C812 1.379 . S
C817 N815 1.356 . S
N818 C810 1.356 . S
N818 H824 0.984 . S
N818 H825 0.984 . S
N819 C812 1.356 1_554 S
N819 H822 0.984 . S
N819 H823 0.985 . S
H820 N815 0.984 . S
H821 N815 0.985 1_554 S
H822 N819 0.984 . S
H823 N819 0.985 . S
H824 N818 0.984 . S
H825 N818 0.984 . S
H826 N814 0.984 . S
H827 N814 0.985 . S
C828 C829 1.363 . S
C828 C834 1.379 . S
C828 N836 1.356 . S
C829 C828 1.363 . S
C829 C835 1.363 . S
C830 C831 1.363 . S
C830 C835 1.379 . S
C830 N837 1.356 . S
C831 C830 1.363 . S
C831 C834 1.363 . S
N832 C834 1.356 . S
N832 H844 0.984 . S
N832 H845 0.985 . S
N833 C835 1.356 . S
N833 H838 0.984 . S
N833 H839 0.985 . S
C834 C828 1.379 . S
C834 C831 1.363 . S
C834 N832 1.356 . S
C835 C829 1.363 . S
C835 C830 1.379 . S
C835 N833 1.356 . S
N836 C828 1.356 . S
N836 H842 0.984 . S
N836 H843 0.984 . S
N837 C830 1.356 . S
N837 H840 0.984 . S
N837 H841 0.985 . S
H838 N833 0.984 . S
H839 N833 0.985 . S
H840 N837 0.984 . S
H841 N837 0.985 . S
H842 N836 0.984 . S
H843 N836 0.984 . S
H844 N832 0.984 . S
H845 N832 0.985 . S
C846 C847 1.363 . S
C846 C852 1.379 . S
C846 N854 1.356 . S
C847 C846 1.363 . S
C847 C853 1.363 . S
C848 C849 1.363 . S
C848 C853 1.379 . S
C848 N855 1.356 . S
C849 C848 1.363 . S
C849 C852 1.363 . S
N850 C852 1.356 1_554 S
N850 H862 0.984 . S
N850 H863 0.985 . S
N851 C853 1.356 . S
N851 H856 0.984 . S
N851 H857 0.985 . S
C852 C846 1.379 . S
C852 C849 1.363 . S
C852 N850 1.356 1_556 S
C853 C847 1.363 . S
C853 C848 1.379 . S
C853 N851 1.356 . S
N854 C846 1.356 . S
N854 H860 0.984 1_556 S
N854 H861 0.984 . S
N855 C848 1.356 . S
N855 H858 0.984 . S
N855 H859 0.985 . S
H856 N851 0.984 . S
H857 N851 0.985 . S
H858 N855 0.984 . S
H859 N855 0.985 . S
H860 N854 0.984 1_554 S
H861 N854 0.984 . S
H862 N850 0.984 . S
H863 N850 0.985 . S
C864 C865 1.363 . S
C864 C870 1.379 . S
C864 N872 1.356 . S
C865 C864 1.363 . S
C865 C871 1.363 . S
C866 C867 1.363 . S
C866 C871 1.379 . S
C866 N873 1.356 . S
C867 C866 1.363 . S
C867 C870 1.363 . S
N868 C870 1.356 . S
N868 H880 0.984 . S
N868 H881 0.985 . S
N869 C871 1.356 . S
N869 H874 0.984 . S
N869 H875 0.985 . S
C870 C864 1.379 . S
C870 C867 1.363 . S
C870 N868 1.356 . S
C871 C865 1.363 . S
C871 C866 1.379 . S
C871 N869 1.356 . S
N872 C864 1.356 . S
N872 H878 0.984 . S
N872 H879 0.984 . S
N873 C866 1.356 . S
N873 H876 0.984 . S
N873 H877 0.985 . S
H874 N869 0.984 . S
H875 N869 0.985 . S
H876 N873 0.984 . S
H877 N873 0.985 . S
H878 N872 0.984 . S
H879 N872 0.984 . S
H880 N868 0.984 . S
H881 N868 0.985 . S
C882 C883 1.363 . S
C882 C888 1.379 . S
C882 N890 1.356 . S
C883 C882 1.363 . S
C883 C889 1.363 . S
C884 C885 1.363 . S
C884 C889 1.379 . S
C884 N891 1.356 . S
C885 C884 1.363 . S
C885 C888 1.363 . S
N886 C888 1.324 1_554 S
N886 H898 1.017 . S
N886 H899 0.986 . S
N887 C889 1.356 . S
N887 H892 0.984 . S
N887 H893 0.985 . S
C888 C882 1.379 . S
C888 C885 1.363 . S
C888 N886 1.324 1_556 S
C889 C883 1.363 . S
C889 C884 1.379 . S
C889 N887 1.356 . S
N890 C882 1.356 . S
N890 H896 0.990 . S
N890 H897 0.984 . S
N891 C884 1.356 . S
N891 H894 0.984 . S
N891 H895 0.985 . S
H892 N887 0.984 . S
H893 N887 0.985 . S
H894 N891 0.984 . S
H895 N891 0.985 . S
H896 N890 0.990 . S
H897 N890 0.984 . S
H898 N886 1.017 . S
H899 N886 0.986 . S
C900 C901 1.363 . S
C900 C906 1.379 . S
C900 N908 1.356 . S
C901 C900 1.363 . S
C901 C907 1.363 . S
C902 C903 1.363 . S
C902 C907 1.379 . S
C902 N909 1.356 1_556 S
C903 C902 1.363 . S
C903 C906 1.363 . S
N904 C906 1.356 . S
N904 H916 0.984 . S
N904 H917 0.985 . S
N905 C907 1.356 . S
N905 H910 0.984 . S
N905 H911 0.985 1_556 S
C906 C900 1.379 . S
C906 C903 1.363 . S
C906 N904 1.356 . S
C907 C901 1.363 . S
C907 C902 1.379 . S
C907 N905 1.356 . S
N908 C900 1.356 . S
N908 H914 0.984 . S
N908 H915 0.984 . S
N909 C902 1.356 1_554 S
N909 H912 0.984 . S
N909 H913 0.985 . S
H910 N905 0.984 . S
H911 N905 0.985 1_554 S
H912 N909 0.984 . S
H913 N909 0.985 . S
H914 N908 0.984 . S
H915 N908 0.984 . S
H916 N904 0.984 . S
H917 N904 0.985 . S
C918 C919 1.363 . S
C918 C924 1.379 . S
C918 N926 1.356 . S
C919 C918 1.363 . S
C919 C925 1.363 . S
C920 C921 1.363 . S
C920 C925 1.379 . S
C920 N927 1.356 . S
C921 C920 1.363 . S
C921 C924 1.363 . S
N922 C924 1.356 1_556 S
N922 H934 0.984 . S
N922 H935 0.985 . S
N923 C925 1.356 . S
N923 H928 0.984 . S
N923 H929 0.985 . S
C924 C918 1.379 . S
C924 C921 1.363 . S
C924 N922 1.356 1_554 S
C925 C919 1.363 . S
C925 C920 1.379 . S
C925 N923 1.356 . S
N926 C918 1.356 . S
N926 H932 0.984 1_554 S
N926 H933 0.984 . S
N927 C920 1.356 . S
N927 H930 0.984 . S
N927 H931 0.985 . S
H928 N923 0.984 . S
H929 N923 0.985 . S
H930 N927 0.984 . S
H931 N927 0.985 . S
H932 N926 0.984 1_556 S
H933 N926 0.984 . S
H934 N922 0.984 . S
H935 N922 0.985 . S
C936 C937 1.363 . S
C936 C942 1.379 . S
C936 N944 1.356 . S
C937 C936 1.363 . S
C937 C943 1.363 . S
C938 C939 1.363 . S
C938 C943 1.379 . S
C938 N945 1.356 . S
C939 C938 1.363 . S
C939 C942 1.363 . S
N940 C942 1.356 . S
N940 H952 0.984 . S
N940 H953 0.985 . S
N941 C943 1.356 . S
N941 H946 0.984 . S
N941 H947 0.985 . S
C942 C936 1.379 . S
C942 C939 1.363 . S
C942 N940 1.356 . S
C943 C937 1.363 . S
C943 C938 1.379 . S
C943 N941 1.356 . S
N944 C936 1.356 . S
N944 H950 0.984 . S
N944 H951 0.984 . S
N945 C938 1.356 . S
N945 H948 0.984 . S
N945 H949 0.985 . S
H946 N941 0.984 . S
H947 N941 0.985 . S
H948 N945 0.984 . S
H949 N945 0.985 . S
H950 N944 0.984 . S
H951 N944 0.984 . S
H952 N940 0.984 . S
H953 N940 0.985 . S
C954 C955 1.363 . S
C954 C960 1.379 . S
C954 N962 1.356 . S
C955 C954 1.363 . S
C955 C961 1.363 . S
C956 C957 1.363 . S
C956 C961 1.379 . S
C956 N963 1.356 . S
C957 C956 1.363 . S
C957 C960 1.363 . S
N958 C960 1.356 1_556 S
N958 H970 0.984 . S
N958 H971 0.985 . S
N959 C961 1.356 . S
N959 H964 0.984 . S
N959 H965 0.985 . S
C960 C954 1.379 . S
C960 C957 1.363 . S
C960 N958 1.356 1_554 S
C961 C955 1.363 . S
C961 C956 1.379 . S
C961 N959 1.356 . S
N962 C954 1.356 . S
N962 H968 0.984 . S
N962 H969 0.984 . S
N963 C956 1.356 . S
N963 H966 0.984 . S
N963 H967 0.985 . S
H964 N959 0.984 . S
H965 N959 0.985 . S
H966 N963 0.984 . S
H967 N963 0.985 . S
H968 N962 0.984 . S
H969 N962 0.984 . S
H970 N958 0.984 . S
H971 N958 0.985 . S
C972 C973 1.363 . S
C972 C978 1.379 1_655 S
C972 N980 1.356 . S
C973 C972 1.363 . S
C973 C979 1.363 1_655 S
C974 C975 1.363 . S
C974 C979 1.379 . S
C974 N981 1.356 . S
C975 C974 1.363 . S
C975 C978 1.363 . S
N976 C978 1.356 . S
N976 H988 0.984 . S
N976 H989 0.985 . S
N977 C979 1.374 . S
N977 H982 0.965 1_455 S
N977 H983 0.986 . S
C978 C972 1.379 1_455 S
C978 C975 1.363 . S
C978 N976 1.356 . S
C979 C973 1.363 1_455 S
C979 C974 1.379 . S
C979 N977 1.374 . S
N980 C972 1.356 . S
N980 H986 0.984 . S
N980 H987 0.984 . S
N981 C974 1.356 . S
N981 H984 0.984 . S
N981 H985 0.985 . S
H982 N977 0.965 1_655 S
H983 N977 0.986 . S
H984 N981 0.984 . S
H985 N981 0.985 . S
H986 N980 0.984 . S
H987 N980 0.984 . S
H988 N976 0.984 . S
H989 N976 0.985 . S
C990 C991 1.363 . S
C990 C996 1.379 . S
C990 N998 1.356 . S
C991 C990 1.363 . S
C991 C997 1.363 . S
C992 C993 1.363 . S
C992 C997 1.379 . S
C992 N999 1.356 . S
C993 C992 1.363 . S
C993 C996 1.363 . S
N994 C996 1.356 . S
N994 H1006 0.984 . S
N994 H1007 0.985 . S
N995 C997 1.356 . S
N995 H1000 0.984 . S
N995 H1001 0.985 . S
C996 C990 1.379 . S
C996 C993 1.363 . S
C996 N994 1.356 . S
C997 C991 1.363 . S
C997 C992 1.379 . S
C997 N995 1.356 . S
N998 C990 1.356 . S
N998 H1004 0.984 . S
N998 H1005 0.984 . S
N999 C992 1.356 . S
N999 H1002 0.984 . S
N999 H1003 0.985 . S
H1000 N995 0.984 . S
H1001 N995 0.985 . S
H1002 N999 0.984 . S
H1003 N999 0.985 . S
H1004 N998 0.984 . S
H1005 N998 0.984 . S
H1006 N994 0.984 . S
H1007 N994 0.985 . S
C1008 C1009 1.363 1_565 S
C1008 C1014 1.379 . S
C1008 N1016 1.356 1_565 S
C1009 C1008 1.363 1_545 S
C1009 C1015 1.363 1_545 S
C1010 C1011 1.363 . S
C1010 C1015 1.379 . S
C1010 N1017 1.356 . S
C1011 C1010 1.363 . S
C1011 C1014 1.363 . S
N1012 C1014 1.356 . S
N1012 H1024 0.984 . S
N1012 H1025 0.985 . S
N1013 C1015 1.356 1_545 S
N1013 H1018 0.984 . S
N1013 H1019 0.985 . S
C1014 C1008 1.379 . S
C1014 C1011 1.363 . S
C1014 N1012 1.356 . S
C1015 C1009 1.363 1_565 S
C1015 C1010 1.379 . S
C1015 N1013 1.356 1_565 S
N1016 C1008 1.356 1_545 S
N1016 H1022 0.984 . S
N1016 H1023 0.984 . S
N1017 C1010 1.356 . S
N1017 H1020 0.984 . S
N1017 H1021 0.985 . S
H1018 N1013 0.984 . S
H1019 N1013 0.985 . S
H1020 N1017 0.984 . S
H1021 N1017 0.985 . S
H1022 N1016 0.984 . S
H1023 N1016 0.984 . S
H1024 N1012 0.984 . S
H1025 N1012 0.985 . S
C1026 C1027 1.363 . S
C1026 C1032 1.379 . S
C1026 N1034 1.356 . S
C1027 C1026 1.363 . S
C1027 C1033 1.363 . S
C1028 C1029 1.363 . S
C1028 C1033 1.379 . S
C1028 N1035 1.356 . S
C1029 C1028 1.363 . S
C1029 C1032 1.363 . S
N1030 C1032 1.356 . S
N1030 H1042 0.984 . S
N1030 H1043 0.985 . S
N1031 C1033 1.356 . S
N1031 H1036 0.984 . S
N1031 H1037 0.985 . S
C1032 C1026 1.379 . S
C1032 C1029 1.363 . S
C1032 N1030 1.356 . S
C1033 C1027 1.363 . S
C1033 C1028 1.379 . S
C1033 N1031 1.356 . S
N1034 C1026 1.356 . S
N1034 H1040 0.984 . S
N1034 H1041 0.984 . S
N1035 C1028 1.356 . S
N1035 H1038 0.984 . S
N1035 H1039 0.985 . S
H1036 N1031 0.984 . S
H1037 N1031 0.985 . S
H1038 N1035 0.984 . S
H1039 N1035 0.985 . S
H1040 N1034 0.984 . S
H1041 N1034 0.984 . S
H1042 N1030 0.984 . S
H1043 N1030 0.985 . S
C1044 C1045 1.363 . S
C1044 C1050 1.379 . S
C1044 N1052 1.356 . S
C1045 C1044 1.363 . S
C1045 C1051 1.363 . S
C1046 C1047 1.363 . S
C1046 C1051 1.379 . S
C1046 N1053 1.356 . S
C1047 C1046 1.363 . S
C1047 C1050 1.363 . S
N1048 C1050 1.356 . S
N1048 H1060 0.984 . S
N1048 H1061 0.985 . S
N1049 C1051 1.356 . S
N1049 H1054 0.984 . S
N1049 H1055 0.985 . S
C1050 C1044 1.379 . S
C1050 C1047 1.363 . S
C1050 N1048 1.356 . S
C1051 C1045 1.363 . S
C1051 C1046 1.379 . S
C1051 N1049 1.356 . S
N1052 C1044 1.356 . S
N1052 H1058 0.984 . S
N1052 H1059 0.984 . S
N1053 C1046 1.356 . S
N1053 H1056 0.984 . S
N1053 H1057 0.985 . S
H1054 N1049 0.984 . S
H1055 N1049 0.985 . S
H1056 N1053 0.984 . S
H1057 N1053 0.985 . S
H1058 N1052 0.984 . S
H1059 N1052 0.984 . S
H1060 N1048 0.984 . S
H1061 N1048 0.985 . S
C1062 C1063 1.363 . S
C1062 C1068 1.379 . S
C1062 N1070 1.356 . S
C1063 C1062 1.363 . S
C1063 C1069 1.363 . S
C1064 C1065 1.363 . S
C1064 C1069 1.379 . S
C1064 N1071 1.356 . S
C1065 C1064 1.363 . S
C1065 C1068 1.363 . S
N1066 C1068 1.356 . S
N1066 H1078 0.984 . S
N1066 H1079 0.985 . S
N1067 C1069 1.356 . S
N1067 H1072 0.984 . S
N1067 H1073 0.985 . S
C1068 C1062 1.379 . S
C1068 C1065 1.363 . S
C1068 N1066 1.356 . S
C1069 C1063 1.363 . S
C1069 C1064 1.379 . S
C1069 N1067 1.356 . S
N1070 C1062 1.356 . S
N1070 H1076 0.984 . S
N1070 H1077 0.984 . S
N1071 C1064 1.356 . S
N1071 H1074 0.984 . S
N1071 H1075 0.985 . S
H1072 N1067 0.984 . S
H1073 N1067 0.985 . S
H1074 N1071 0.984 . S
H1075 N1071 0.985 . S
H1076 N1070 0.984 . S
H1077 N1070 0.984 . S
H1078 N1066 0.984 . S
H1079 N1066 0.985 . S
C1080 C1081 1.363 . S
C1080 C1086 1.379 . S
C1080 N1088 1.356 . S
C1081 C1080 1.363 . S
C1081 C1087 1.363 . S
C1082 C1083 1.363 . S
C1082 C1087 1.379 . S
C1082 N1089 1.356 . S
C1083 C1082 1.363 . S
C1083 C1086 1.363 . S
N1084 C1086 1.356 . S
N1084 H1096 0.984 . S
N1084 H1097 0.985 . S
N1085 C1087 1.356 . S
N1085 H1090 0.984 . S
N1085 H1091 0.985 . S
C1086 C1080 1.379 . S
C1086 C1083 1.363 . S
C1086 N1084 1.356 . S
C1087 C1081 1.363 . S
C1087 C1082 1.379 . S
C1087 N1085 1.356 . S
N1088 C1080 1.356 . S
N1088 H1094 0.984 . S
N1088 H1095 0.984 . S
N1089 C1082 1.356 . S
N1089 H1092 0.984 . S
N1089 H1093 0.985 . S
H1090 N1085 0.984 . S
H1091 N1085 0.985 . S
H1092 N1089 0.984 . S
H1093 N1089 0.985 . S
H1094 N1088 0.984 . S
H1095 N1088 0.984 . S
H1096 N1084 0.984 . S
H1097 N1084 0.985 . S
C1098 C1099 1.363 . S
C1098 C1104 1.379 . S
C1098 N1106 1.356 . S
C1099 C1098 1.363 . S
C1099 C1105 1.363 . S
C1100 C1101 1.363 . S
C1100 C1105 1.379 . S
C1100 N1107 1.356 . S
C1101 C1100 1.363 . S
C1101 C1104 1.363 . S
N1102 C1104 1.356 . S
N1102 H1114 0.984 . S
N1102 H1115 0.985 . S
N1103 C1105 1.356 . S
N1103 H1108 0.984 . S
N1103 H1109 0.985 . S
C1104 C1098 1.379 . S
C1104 C1101 1.363 . S
C1104 N1102 1.356 . S
C1105 C1099 1.363 . S
C1105 C1100 1.379 . S
C1105 N1103 1.356 . S
N1106 C1098 1.356 . S
N1106 H1112 0.984 . S
N1106 H1113 0.984 . S
N1107 C1100 1.356 . S
N1107 H1110 0.984 . S
N1107 H1111 0.985 . S
H1108 N1103 0.984 . S
H1109 N1103 0.985 . S
H1110 N1107 0.984 . S
H1111 N1107 0.985 . S
H1112 N1106 0.984 . S
H1113 N1106 0.984 . S
H1114 N1102 0.984 . S
H1115 N1102 0.985 . S
C1116 C1117 1.363 . S
C1116 C1122 1.379 . S
C1116 N1124 1.356 . S
C1117 C1116 1.363 . S
C1117 C1123 1.363 . S
C1118 C1119 1.363 . S
C1118 C1123 1.379 . S
C1118 N1125 1.356 . S
C1119 C1118 1.363 . S
C1119 C1122 1.363 . S
N1120 C1122 1.356 . S
N1120 H1132 0.984 . S
N1120 H1133 0.985 . S
N1121 C1123 1.356 . S
N1121 H1126 0.984 . S
N1121 H1127 0.985 . S
C1122 C1116 1.379 . S
C1122 C1119 1.363 . S
C1122 N1120 1.356 . S
C1123 C1117 1.363 . S
C1123 C1118 1.379 . S
C1123 N1121 1.356 . S
N1124 C1116 1.356 . S
N1124 H1130 0.984 . S
N1124 H1131 0.984 . S
N1125 C1118 1.356 . S
N1125 H1128 0.984 . S
N1125 H1129 0.985 . S
H1126 N1121 0.984 . S
H1127 N1121 0.985 . S
H1128 N1125 0.984 . S
H1129 N1125 0.985 . S
H1130 N1124 0.984 . S
H1131 N1124 0.984 . S
H1132 N1120 0.984 . S
H1133 N1120 0.985 . S
C1134 C1135 1.363 1_565 S
C1134 C1140 1.379 . S
C1134 N1142 1.356 1_565 S
C1135 C1134 1.363 1_545 S
C1135 C1141 1.363 1_545 S
C1136 C1137 1.363 . S
C1136 C1141 1.379 . S
C1136 N1143 1.356 . S
C1137 C1136 1.363 . S
C1137 C1140 1.363 . S
N1138 C1140 1.356 . S
N1138 H1150 0.984 . S
N1138 H1151 0.985 . S
N1139 C1141 1.352 1_545 S
N1139 H1144 1.005 . S
N1139 H1145 0.969 1_545 S
C1140 C1134 1.379 . S
C1140 C1137 1.363 . S
C1140 N1138 1.356 . S
C1141 C1135 1.363 1_565 S
C1141 C1136 1.379 . S
C1141 N1139 1.352 1_565 S
N1142 C1134 1.356 1_545 S
N1142 H1148 0.984 . S
N1142 H1149 0.984 . S
N1143 C1136 1.356 . S
N1143 H1146 0.984 . S
N1143 H1147 0.985 . S
H1144 N1139 1.005 . S
H1145 N1139 0.969 1_565 S
H1146 N1143 0.984 . S
H1147 N1143 0.985 . S
H1148 N1142 0.984 . S
H1149 N1142 0.984 . S
H1150 N1138 0.984 . S
H1151 N1138 0.985 . S
C1152 C1153 1.366 1_455 S
C1152 C1158 1.379 . S
C1152 N1160 1.356 1_455 S
C1153 C1152 1.366 1_655 S
C1153 C1159 1.340 1_655 S
C1154 C1155 1.363 . S
C1154 C1159 1.379 . S
C1154 N1161 1.356 . S
C1155 C1154 1.363 . S
C1155 C1158 1.363 . S
N1156 C1158 1.356 . S
N1156 H1168 0.984 . S
N1156 H1169 0.985 . S
N1157 C1159 1.356 . S
N1157 H1162 0.984 1_455 S
N1157 H1163 0.985 . S
C1158 C1152 1.379 . S
C1158 C1155 1.363 . S
C1158 N1156 1.356 . S
C1159 C1153 1.340 1_455 S
C1159 C1154 1.379 . S
C1159 N1157 1.356 . S
N1160 C1152 1.356 1_655 S
N1160 H1166 0.984 . S
N1160 H1167 0.984 . S
N1161 C1154 1.356 . S
N1161 H1164 0.984 . S
N1161 H1165 0.985 . S
H1162 N1157 0.984 1_655 S
H1163 N1157 0.985 . S
H1164 N1161 0.984 . S
H1165 N1161 0.985 . S
H1166 N1160 0.984 . S
H1167 N1160 0.984 . S
H1168 N1156 0.984 . S
H1169 N1156 0.985 . S
C1170 C1171 1.363 . S
C1170 C1176 1.379 . S
C1170 N1178 1.356 . S
C1171 C1170 1.363 . S
C1171 C1177 1.363 . S
C1172 C1173 1.363 . S
C1172 C1177 1.379 . S
C1172 N1179 1.356 . S
C1173 C1172 1.363 . S
C1173 C1176 1.363 . S
N1174 C1176 1.356 . S
N1174 H1186 0.984 . S
N1174 H1187 0.985 . S
N1175 C1177 1.356 . S
N1175 H1180 0.984 . S
N1175 H1181 0.985 . S
C1176 C1170 1.379 . S
C1176 C1173 1.363 . S
C1176 N1174 1.356 . S
C1177 C1171 1.363 . S
C1177 C1172 1.379 . S
C1177 N1175 1.356 . S
N1178 C1170 1.356 . S
N1178 H1184 0.984 . S
N1178 H1185 0.984 . S
N1179 C1172 1.356 . S
N1179 H1182 0.984 . S
N1179 H1183 0.985 . S
H1180 N1175 0.984 . S
H1181 N1175 0.985 . S
H1182 N1179 0.984 . S
H1183 N1179 0.985 . S
H1184 N1178 0.984 . S
H1185 N1178 0.984 . S
H1186 N1174 0.984 . S
H1187 N1174 0.985 . S
C1188 C1189 1.363 . S
C1188 C1194 1.379 . S
C1188 N1196 1.356 . S
C1189 C1188 1.363 . S
C1189 C1195 1.363 . S
C1190 C1191 1.363 . S
C1190 C1195 1.379 . S
C1190 N1197 1.356 . S
C1191 C1190 1.363 . S
C1191 C1194 1.363 . S
N1192 C1194 1.356 . S
N1192 H1204 0.984 . S
N1192 H1205 0.985 . S
N1193 C1195 1.356 . S
N1193 H1198 0.984 . S
N1193 H1199 0.985 . S
C1194 C1188 1.379 . S
C1194 C1191 1.363 . S
C1194 N1192 1.356 . S
C1195 C1189 1.363 . S
C1195 C1190 1.379 . S
C1195 N1193 1.356 . S
N1196 C1188 1.356 . S
N1196 H1202 0.984 . S
N1196 H1203 0.984 . S
N1197 C1190 1.356 . S
N1197 H1200 0.984 . S
N1197 H1201 0.985 . S
H1198 N1193 0.984 . S
H1199 N1193 0.985 . S
H1200 N1197 0.984 . S
H1201 N1197 0.985 . S
H1202 N1196 0.984 . S
H1203 N1196 0.984 . S
H1204 N1192 0.984 . S
H1205 N1192 0.985 . S
C1206 C1207 1.363 . S
C1206 C1212 1.379 . S
C1206 N1214 1.356 . S
C1207 C1206 1.363 . S
C1207 C1213 1.363 . S
C1208 C1209 1.363 . S
C1208 C1213 1.379 . S
C1208 N1215 1.356 . S
C1209 C1208 1.363 . S
C1209 C1212 1.363 . S
N1210 C1212 1.356 . S
N1210 H1222 0.984 . S
N1210 H1223 0.985 . S
N1211 C1213 1.356 . S
N1211 H1216 0.984 . S
N1211 H1217 0.985 . S
C1212 C1206 1.379 . S
C1212 C1209 1.363 . S
C1212 N1210 1.356 . S
C1213 C1207 1.363 . S
C1213 C1208 1.379 . S
C1213 N1211 1.356 . S
N1214 C1206 1.356 . S
N1214 H1220 0.984 . S
N1214 H1221 0.984 . S
N1215 C1208 1.356 . S
N1215 H1218 0.984 . S
N1215 H1219 0.985 . S
H1216 N1211 0.984 . S
H1217 N1211 0.985 . S
H1218 N1215 0.984 . S
H1219 N1215 0.985 . S
H1220 N1214 0.984 . S
H1221 N1214 0.984 . S
H1222 N1210 0.984 . S
H1223 N1210 0.985 . S
C1224 C1225 1.363 . S
C1224 C1230 1.379 . S
C1224 N1232 1.356 . S
C1225 C1224 1.363 . S
C1225 C1231 1.363 . S
C1226 C1227 1.363 . S
C1226 C1231 1.379 . S
C1226 N1233 1.356 . S
C1227 C1226 1.363 . S
C1227 C1230 1.363 . S
N1228 C1230 1.356 . S
N1228 H1240 0.984 . S
N1228 H1241 0.985 . S
N1229 C1231 1.356 . S
N1229 H1234 0.984 . S
N1229 H1235 0.985 . S
C1230 C1224 1.379 . S
C1230 C1227 1.363 . S
C1230 N1228 1.356 . S
C1231 C1225 1.363 . S
C1231 C1226 1.379 . S
C1231 N1229 1.356 . S
N1232 C1224 1.356 . S
N1232 H1238 0.984 . S
N1232 H1239 0.984 . S
N1233 C1226 1.356 . S
N1233 H1236 0.984 . S
N1233 H1237 0.985 . S
H1234 N1229 0.984 . S
H1235 N1229 0.985 . S
H1236 N1233 0.984 . S
H1237 N1233 0.985 . S
H1238 N1232 0.984 . S
H1239 N1232 0.984 . S
H1240 N1228 0.984 . S
H1241 N1228 0.985 . S
C1242 C1243 1.363 1_545 S
C1242 C1248 1.379 . S
C1242 N1250 1.356 1_545 S
C1243 C1242 1.363 1_565 S
C1243 C1249 1.363 1_565 S
C1244 C1245 1.363 . S
C1244 C1249 1.379 . S
C1244 N1251 1.356 . S
C1245 C1244 1.363 . S
C1245 C1248 1.363 . S
N1246 C1248 1.356 . S
N1246 H1258 0.984 . S
N1246 H1259 0.985 . S
N1247 C1249 1.356 1_565 S
N1247 H1252 0.984 . S
N1247 H1253 0.985 . S
C1248 C1242 1.379 . S
C1248 C1245 1.363 . S
C1248 N1246 1.356 . S
C1249 C1243 1.363 1_545 S
C1249 C1244 1.379 . S
C1249 N1247 1.356 1_545 S
N1250 C1242 1.356 1_565 S
N1250 H1256 0.984 . S
N1250 H1257 0.984 . S
N1251 C1244 1.356 . S
N1251 H1254 0.984 . S
N1251 H1255 0.985 . S
H1252 N1247 0.984 . S
H1253 N1247 0.985 . S
H1254 N1251 0.984 . S
H1255 N1251 0.985 . S
H1256 N1250 0.984 . S
H1257 N1250 0.984 . S
H1258 N1246 0.984 . S
H1259 N1246 0.985 . S
C1260 C1261 1.363 1_655 S
C1260 C1266 1.379 . S
C1260 N1268 1.356 1_655 S
C1261 C1260 1.363 1_455 S
C1261 C1267 1.363 1_455 S
C1262 C1263 1.363 . S
C1262 C1267 1.379 . S
C1262 N1269 1.356 . S
C1263 C1262 1.363 . S
C1263 C1266 1.363 . S
N1264 C1266 1.356 . S
N1264 H1276 0.984 . S
N1264 H1277 0.985 . S
N1265 C1267 1.356 1_455 S
N1265 H1270 0.984 . S
N1265 H1271 0.985 . S
C1266 C1260 1.379 . S
C1266 C1263 1.363 . S
C1266 N1264 1.356 . S
C1267 C1261 1.363 1_655 S
C1267 C1262 1.379 . S
C1267 N1265 1.356 1_655 S
N1268 C1260 1.356 1_455 S
N1268 H1274 0.984 . S
N1268 H1275 0.984 . S
N1269 C1262 1.356 . S
N1269 H1272 0.984 . S
N1269 H1273 0.985 . S
H1270 N1265 0.984 . S
H1271 N1265 0.985 . S
H1272 N1269 0.984 . S
H1273 N1269 0.985 . S
H1274 N1268 0.984 . S
H1275 N1268 0.984 . S
H1276 N1264 0.984 . S
H1277 N1264 0.985 . S
C1278 C1279 1.363 . S
C1278 C1284 1.379 . S
C1278 N1286 1.356 . S
C1279 C1278 1.363 . S
C1279 C1285 1.363 . S
C1280 C1281 1.363 . S
C1280 C1285 1.379 . S
C1280 N1287 1.356 . S
C1281 C1280 1.363 . S
C1281 C1284 1.363 . S
N1282 C1284 1.356 . S
N1282 H1294 0.984 . S
N1282 H1295 0.985 . S
N1283 C1285 1.356 . S
N1283 H1288 0.984 . S
N1283 H1289 0.985 . S
C1284 C1278 1.379 . S
C1284 C1281 1.363 . S
C1284 N1282 1.356 . S
C1285 C1279 1.363 . S
C1285 C1280 1.379 . S
C1285 N1283 1.356 . S
N1286 C1278 1.356 . S
N1286 H1292 0.984 . S
N1286 H1293 0.984 . S
N1287 C1280 1.356 . S
N1287 H1290 0.984 . S
N1287 H1291 0.985 . S
H1288 N1283 0.984 . S
H1289 N1283 0.985 . S
H1290 N1287 0.984 . S
H1291 N1287 0.985 . S
H1292 N1286 0.984 . S
H1293 N1286 0.984 . S
H1294 N1282 0.984 . S
H1295 N1282 0.985 . S
C1296 C1297 1.363 . S
C1296 C1302 1.379 1_455 S
C1296 N1304 1.356 . S
C1297 C1296 1.363 . S
C1297 C1303 1.363 1_455 S
C1298 C1299 1.363 . S
C1298 C1303 1.379 . S
C1298 N1305 1.356 . S
C1299 C1298 1.363 . S
C1299 C1302 1.363 . S
N1300 C1302 1.356 . S
N1300 H1312 0.984 . S
N1300 H1313 0.985 . S
N1301 C1303 1.356 1_455 S
N1301 H1306 0.984 . S
N1301 H1307 0.985 1_455 S
C1302 C1296 1.379 1_655 S
C1302 C1299 1.363 . S
C1302 N1300 1.356 . S
C1303 C1297 1.363 1_655 S
C1303 C1298 1.379 . S
C1303 N1301 1.356 1_655 S
N1304 C1296 1.356 . S
N1304 H1310 0.984 . S
N1304 H1311 0.984 . S
N1305 C1298 1.356 . S
N1305 H1308 0.984 . S
N1305 H1309 0.985 . S
H1306 N1301 0.984 . S
H1307 N1301 0.985 1_655 S
H1308 N1305 0.984 . S
H1309 N1305 0.985 . S
H1310 N1304 0.984 . S
H1311 N1304 0.984 . S
H1312 N1300 0.984 . S
H1313 N1300 0.985 . S
C1314 C1315 1.363 . S
C1314 C1320 1.379 . S
C1314 N1322 1.356 . S
C1315 C1314 1.363 . S
C1315 C1321 1.363 . S
C1316 C1317 1.363 . S
C1316 C1321 1.379 . S
C1316 N1323 1.356 . S
C1317 C1316 1.363 . S
C1317 C1320 1.363 . S
N1318 C1320 1.356 . S
N1318 H1330 0.984 . S
N1318 H1331 0.985 . S
N1319 C1321 1.356 . S
N1319 H1324 0.984 . S
N1319 H1325 0.985 . S
C1320 C1314 1.379 . S
C1320 C1317 1.363 . S
C1320 N1318 1.356 . S
C1321 C1315 1.363 . S
C1321 C1316 1.379 . S
C1321 N1319 1.356 . S
N1322 C1314 1.356 . S
N1322 H1328 0.984 . S
N1322 H1329 0.984 . S
N1323 C1316 1.356 . S
N1323 H1326 0.984 . S
N1323 H1327 0.985 . S
H1324 N1319 0.984 . S
H1325 N1319 0.985 . S
H1326 N1323 0.984 . S
H1327 N1323 0.985 . S
H1328 N1322 0.984 . S
H1329 N1322 0.984 . S
H1330 N1318 0.984 . S
H1331 N1318 0.985 . S
C1332 C1333 1.363 1_545 S
C1332 C1338 1.379 . S
C1332 N1340 1.356 1_545 S
C1333 C1332 1.363 1_565 S
C1333 C1339 1.363 1_565 S
C1334 C1335 1.363 . S
C1334 C1339 1.379 . S
C1334 N1341 1.356 . S
C1335 C1334 1.363 . S
C1335 C1338 1.363 . S
N1336 C1338 1.356 . S
N1336 H1348 0.984 . S
N1336 H1349 0.985 . S
N1337 C1339 1.356 1_565 S
N1337 H1342 0.984 . S
N1337 H1343 0.985 1_565 S
C1338 C1332 1.379 . S
C1338 C1335 1.363 . S
C1338 N1336 1.356 . S
C1339 C1333 1.363 1_545 S
C1339 C1334 1.379 . S
C1339 N1337 1.356 1_545 S
N1340 C1332 1.356 1_565 S
N1340 H1346 0.984 . S
N1340 H1347 0.984 . S
N1341 C1334 1.356 . S
N1341 H1344 0.984 . S
N1341 H1345 0.985 . S
H1342 N1337 0.984 . S
H1343 N1337 0.985 1_545 S
H1344 N1341 0.984 . S
H1345 N1341 0.985 . S
H1346 N1340 0.984 . S
H1347 N1340 0.984 . S
H1348 N1336 0.984 . S
H1349 N1336 0.985 . S
C1350 C1351 1.363 . S
C1350 C1356 1.379 . S
C1350 N1358 1.356 . S
C1351 C1350 1.363 . S
C1351 C1357 1.363 . S
C1352 C1353 1.363 . S
C1352 C1357 1.379 . S
C1352 N1359 1.356 . S
C1353 C1352 1.363 . S
C1353 C1356 1.363 . S
N1354 C1356 1.356 . S
N1354 H1366 0.984 . S
N1354 H1367 0.985 . S
N1355 C1357 1.356 . S
N1355 H1360 0.984 . S
N1355 H1361 0.985 . S
C1356 C1350 1.379 . S
C1356 C1353 1.363 . S
C1356 N1354 1.356 . S
C1357 C1351 1.363 . S
C1357 C1352 1.379 . S
C1357 N1355 1.356 . S
N1358 C1350 1.356 . S
N1358 H1364 0.984 . S
N1358 H1365 0.984 . S
N1359 C1352 1.356 . S
N1359 H1362 0.984 . S
N1359 H1363 0.985 . S
H1360 N1355 0.984 . S
H1361 N1355 0.985 . S
H1362 N1359 0.984 . S
H1363 N1359 0.985 . S
H1364 N1358 0.984 . S
H1365 N1358 0.984 . S
H1366 N1354 0.984 . S
H1367 N1354 0.985 . S
C1368 C1369 1.363 . S
C1368 C1374 1.379 . S
C1368 N1376 1.356 . S
C1369 C1368 1.363 . S
C1369 C1375 1.363 . S
C1370 C1371 1.363 . S
C1370 C1375 1.379 . S
C1370 N1377 1.356 . S
C1371 C1370 1.363 . S
C1371 C1374 1.363 . S
N1372 C1374 1.356 . S
N1372 H1384 0.984 . S
N1372 H1385 0.985 . S
N1373 C1375 1.356 . S
N1373 H1378 0.984 . S
N1373 H1379 0.985 . S
C1374 C1368 1.379 . S
C1374 C1371 1.363 . S
C1374 N1372 1.356 . S
C1375 C1369 1.363 . S
C1375 C1370 1.379 . S
C1375 N1373 1.356 . S
N1376 C1368 1.356 . S
N1376 H1382 0.984 . S
N1376 H1383 0.984 . S
N1377 C1370 1.356 . S
N1377 H1380 0.984 . S
N1377 H1381 0.985 . S
H1378 N1373 0.984 . S
H1379 N1373 0.985 . S
H1380 N1377 0.984 . S
H1381 N1377 0.985 . S
H1382 N1376 0.984 . S
H1383 N1376 0.984 . S
H1384 N1372 0.984 . S
H1385 N1372 0.985 . S
C1386 C1387 1.363 . S
C1386 C1392 1.379 . S
C1386 N1394 1.356 . S
C1387 C1386 1.363 . S
C1387 C1393 1.363 . S
C1388 C1389 1.363 . S
C1388 C1393 1.379 . S
C1388 N1395 1.356 . S
C1389 C1388 1.363 . S
C1389 C1392 1.363 . S
N1390 C1392 1.356 . S
N1390 H1402 0.984 . S
N1390 H1403 0.985 . S
N1391 C1393 1.356 . S
N1391 H1396 0.984 . S
N1391 H1397 0.985 . S
C1392 C1386 1.379 . S
C1392 C1389 1.363 . S
C1392 N1390 1.356 . S
C1393 C1387 1.363 . S
C1393 C1388 1.379 . S
C1393 N1391 1.356 . S
N1394 C1386 1.356 . S
N1394 H1400 0.984 . S
N1394 H1401 0.984 . S
N1395 C1388 1.356 . S
N1395 H1398 0.984 . S
N1395 H1399 0.985 . S
H1396 N1391 0.984 . S
H1397 N1391 0.985 . S
H1398 N1395 0.984 . S
H1399 N1395 0.985 . S
H1400 N1394 0.984 . S
H1401 N1394 0.984 . S
H1402 N1390 0.984 . S
H1403 N1390 0.985 . S
C1404 C1405 1.363 . S
C1404 C1410 1.379 . S
C1404 N1412 1.356 . S
C1405 C1404 1.363 . S
C1405 C1411 1.363 1_565 S
C1406 C1407 1.363 1_545 S
C1406 C1411 1.379 . S
C1406 N1413 1.356 . S
C1407 C1406 1.363 1_565 S
C1407 C1410 1.363 . S
N1408 C1410 1.356 . S
N1408 H1420 0.984 . S
N1408 H1421 0.985 . S
N1409 C1411 1.356 . S
N1409 H1414 0.984 . S
N1409 H1415 0.985 . S
C1410 C1404 1.379 . S
C1410 C1407 1.363 . S
C1410 N1408 1.356 . S
C1411 C1405 1.363 1_545 S
C1411 C1406 1.379 . S
C1411 N1409 1.356 . S
N1412 C1404 1.356 . S
N1412 H1418 0.984 . S
N1412 H1419 0.984 . S
N1413 C1406 1.356 . S
N1413 H1416 0.984 . S
N1413 H1417 0.985 . S
H1414 N1409 0.984 . S
H1415 N1409 0.985 . S
H1416 N1413 0.984 . S
H1417 N1413 0.985 . S
H1418 N1412 0.984 . S
H1419 N1412 0.984 . S
H1420 N1408 0.984 . S
H1421 N1408 0.985 . S
C1422 C1423 1.363 . S
C1422 C1428 1.379 . S
C1422 N1430 1.356 . S
C1423 C1422 1.363 . S
C1423 C1429 1.363 . S
C1424 C1425 1.363 . S
C1424 C1429 1.379 . S
C1424 N1431 1.356 . S
C1425 C1424 1.363 . S
C1425 C1428 1.363 . S
N1426 C1428 1.356 . S
N1426 H1438 0.984 . S
N1426 H1439 0.985 . S
N1427 C1429 1.356 . S
N1427 H1432 0.984 . S
N1427 H1433 0.985 . S
C1428 C1422 1.379 . S
C1428 C1425 1.363 . S
C1428 N1426 1.356 . S
C1429 C1423 1.363 . S
C1429 C1424 1.379 . S
C1429 N1427 1.356 . S
N1430 C1422 1.356 . S
N1430 H1436 0.984 . S
N1430 H1437 0.984 . S
N1431 C1424 1.356 . S
N1431 H1434 0.984 . S
N1431 H1435 0.985 . S
H1432 N1427 0.984 . S
H1433 N1427 0.985 . S
H1434 N1431 0.984 . S
H1435 N1431 0.985 . S
H1436 N1430 0.984 . S
H1437 N1430 0.984 . S
H1438 N1426 0.984 . S
H1439 N1426 0.985 . S
C1440 C1441 1.363 . S
C1440 C1446 1.379 . S
C1440 N1448 1.356 . S
C1441 C1440 1.363 . S
C1441 C1447 1.363 . S
C1442 C1443 1.363 . S
C1442 C1447 1.379 . S
C1442 N1449 1.356 . S
C1443 C1442 1.363 . S
C1443 C1446 1.363 . S
N1444 C1446 1.356 . S
N1444 H1456 0.984 . S
N1444 H1457 0.985 . S
N1445 C1447 1.356 . S
N1445 H1450 0.984 . S
N1445 H1451 0.985 . S
C1446 C1440 1.379 . S
C1446 C1443 1.363 . S
C1446 N1444 1.356 . S
C1447 C1441 1.363 . S
C1447 C1442 1.379 . S
C1447 N1445 1.356 . S
N1448 C1440 1.356 . S
N1448 H1454 0.984 . S
N1448 H1455 0.984 . S
N1449 C1442 1.356 . S
N1449 H1452 0.984 . S
N1449 H1453 0.985 . S
H1450 N1445 0.984 . S
H1451 N1445 0.985 . S
H1452 N1449 0.984 . S
H1453 N1449 0.985 . S
H1454 N1448 0.984 . S
H1455 N1448 0.984 . S
H1456 N1444 0.984 . S
H1457 N1444 0.985 . S
C1458 C1459 1.363 . S
C1458 C1464 1.379 . S
C1458 N1466 1.356 . S
C1459 C1458 1.363 . S
C1459 C1465 1.363 1_655 S
C1460 C1461 1.363 1_455 S
C1460 C1465 1.379 . S
C1460 N1467 1.356 . S
C1461 C1460 1.363 1_655 S
C1461 C1464 1.363 . S
N1462 C1464 1.356 . S
N1462 H1474 0.984 . S
N1462 H1475 0.985 . S
N1463 C1465 1.356 . S
N1463 H1468 0.984 . S
N1463 H1469 0.985 . S
C1464 C1458 1.379 . S
C1464 C1461 1.363 . S
C1464 N1462 1.356 . S
C1465 C1459 1.363 1_455 S
C1465 C1460 1.379 . S
C1465 N1463 1.356 . S
N1466 C1458 1.356 . S
N1466 H1472 0.984 . S
N1466 H1473 0.984 . S
N1467 C1460 1.356 . S
N1467 H1470 0.984 . S
N1467 H1471 0.985 . S
H1468 N1463 0.984 . S
H1469 N1463 0.985 . S
H1470 N1467 0.984 . S
H1471 N1467 0.985 . S
H1472 N1466 0.984 . S
H1473 N1466 0.984 . S
H1474 N1462 0.984 . S
H1475 N1462 0.985 . S
C1476 C1477 1.363 . S
C1476 C1482 1.379 . S
C1476 N1484 1.356 . S
C1477 C1476 1.363 . S
C1477 C1483 1.363 . S
C1478 C1479 1.363 . S
C1478 C1483 1.379 . S
C1478 N1485 1.356 . S
C1479 C1478 1.363 . S
C1479 C1482 1.363 . S
N1480 C1482 1.356 . S
N1480 H1492 0.984 . S
N1480 H1493 0.985 . S
N1481 C1483 1.356 . S
N1481 H1486 0.984 . S
N1481 H1487 0.985 . S
C1482 C1476 1.379 . S
C1482 C1479 1.363 . S
C1482 N1480 1.356 . S
C1483 C1477 1.363 . S
C1483 C1478 1.379 . S
C1483 N1481 1.356 . S
N1484 C1476 1.356 . S
N1484 H1490 0.984 . S
N1484 H1491 0.984 . S
N1485 C1478 1.356 . S
N1485 H1488 0.984 . S
N1485 H1489 0.985 . S
H1486 N1481 0.984 . S
H1487 N1481 0.985 . S
H1488 N1485 0.984 . S
H1489 N1485 0.985 . S
H1490 N1484 0.984 . S
H1491 N1484 0.984 . S
H1492 N1480 0.984 . S
H1493 N1480 0.985 . S
C1494 C1495 1.363 . S
C1494 C1500 1.379 . S
C1494 N1502 1.356 . S
C1495 C1494 1.363 . S
C1495 C1501 1.363 . S
C1496 C1497 1.363 1_565 S
C1496 C1501 1.379 1_565 S
C1496 N1503 1.356 . S
C1497 C1496 1.363 1_545 S
C1497 C1500 1.363 . S
N1498 C1500 1.356 . S
N1498 H1510 0.984 . S
N1498 H1511 0.985 . S
N1499 C1501 1.356 1_565 S
N1499 H1504 0.980 1_565 S
N1499 H1505 0.985 . S
C1500 C1494 1.379 . S
C1500 C1497 1.363 . S
C1500 N1498 1.356 . S
C1501 C1495 1.363 . S
C1501 C1496 1.379 1_545 S
C1501 N1499 1.356 1_545 S
N1502 C1494 1.356 . S
N1502 H1508 0.984 . S
N1502 H1509 0.984 . S
N1503 C1496 1.356 . S
N1503 H1506 0.984 . S
N1503 H1507 0.985 . S
H1504 N1499 0.980 1_545 S
H1505 N1499 0.985 . S
H1506 N1503 0.984 . S
H1507 N1503 0.985 . S
H1508 N1502 0.984 . S
H1509 N1502 0.984 . S
H1510 N1498 0.984 . S
H1511 N1498 0.985 . S
C1512 C1513 1.363 . S
C1512 C1518 1.379 . S
C1512 N1520 1.356 . S
C1513 C1512 1.363 . S
C1513 C1519 1.363 . S
C1514 C1515 1.363 . S
C1514 C1519 1.379 . S
C1514 N1521 1.356 . S
C1515 C1514 1.363 . S
C1515 C1518 1.363 . S
N1516 C1518 1.356 . S
N1516 H1528 0.984 . S
N1516 H1529 0.985 . S
N1517 C1519 1.356 . S
N1517 H1522 0.984 . S
N1517 H1523 0.985 . S
C1518 C1512 1.379 . S
C1518 C1515 1.363 . S
C1518 N1516 1.356 . S
C1519 C1513 1.363 . S
C1519 C1514 1.379 . S
C1519 N1517 1.356 . S
N1520 C1512 1.356 . S
N1520 H1526 0.984 . S
N1520 H1527 0.984 . S
N1521 C1514 1.356 . S
N1521 H1524 0.984 . S
N1521 H1525 0.985 . S
H1522 N1517 0.984 . S
H1523 N1517 0.985 . S
H1524 N1521 0.984 . S
H1525 N1521 0.985 . S
H1526 N1520 0.984 . S
H1527 N1520 0.984 . S
H1528 N1516 0.984 . S
H1529 N1516 0.985 . S
C1530 C1531 1.363 . S
C1530 C1536 1.379 . S
C1530 N1538 1.356 . S
C1531 C1530 1.363 . S
C1531 C1537 1.363 . S
C1532 C1533 1.363 . S
C1532 C1537 1.379 . S
C1532 N1539 1.356 . S
C1533 C1532 1.363 . S
C1533 C1536 1.363 . S
N1534 C1536 1.356 . S
N1534 H1546 0.984 . S
N1534 H1547 0.985 . S
N1535 C1537 1.356 . S
N1535 H1540 0.984 . S
N1535 H1541 0.985 . S
C1536 C1530 1.379 . S
C1536 C1533 1.363 . S
C1536 N1534 1.356 . S
C1537 C1531 1.363 . S
C1537 C1532 1.379 . S
C1537 N1535 1.356 . S
N1538 C1530 1.356 . S
N1538 H1544 0.984 . S
N1538 H1545 0.984 . S
N1539 C1532 1.356 . S
N1539 H1542 0.984 . S
N1539 H1543 0.985 . S
H1540 N1535 0.984 . S
H1541 N1535 0.985 . S
H1542 N1539 0.984 . S
H1543 N1539 0.985 . S
H1544 N1538 0.984 . S
H1545 N1538 0.984 . S
H1546 N1534 0.984 . S
H1547 N1534 0.985 . S
C1548 C1549 1.363 . S
C1548 C1554 1.379 . S
C1548 N1556 1.356 . S
C1549 C1548 1.363 . S
C1549 C1555 1.363 . S
C1550 C1551 1.363 . S
C1550 C1555 1.379 . S
C1550 N1557 1.356 . S
C1551 C1550 1.363 . S
C1551 C1554 1.363 . S
N1552 C1554 1.356 . S
N1552 H1564 0.984 . S
N1552 H1565 0.985 . S
N1553 C1555 1.356 . S
N1553 H1558 0.984 . S
N1553 H1559 0.985 . S
C1554 C1548 1.379 . S
C1554 C1551 1.363 . S
C1554 N1552 1.356 . S
C1555 C1549 1.363 . S
C1555 C1550 1.379 . S
C1555 N1553 1.356 . S
N1556 C1548 1.356 . S
N1556 H1562 0.984 . S
N1556 H1563 0.984 . S
N1557 C1550 1.356 . S
N1557 H1560 0.984 . S
N1557 H1561 0.985 . S
H1558 N1553 0.984 . S
H1559 N1553 0.985 . S
H1560 N1557 0.984 . S
H1561 N1557 0.985 . S
H1562 N1556 0.984 . S
H1563 N1556 0.984 . S
H1564 N1552 0.984 . S
H1565 N1552 0.985 . S
C1566 C1567 1.363 . S
C1566 C1572 1.379 . S
C1566 N1574 1.356 . S
C1567 C1566 1.363 . S
C1567 C1573 1.363 . S
C1568 C1569 1.363 . S
C1568 C1573 1.379 . S
C1568 N1575 1.356 . S
C1569 C1568 1.363 . S
C1569 C1572 1.363 . S
N1570 C1572 1.356 . S
N1570 H1582 0.984 . S
N1570 H1583 0.985 . S
N1571 C1573 1.356 . S
N1571 H1576 0.984 . S
N1571 H1577 0.985 . S
C1572 C1566 1.379 . S
C1572 C1569 1.363 . S
C1572 N1570 1.356 . S
C1573 C1567 1.363 . S
C1573 C1568 1.379 . S
C1573 N1571 1.356 . S
N1574 C1566 1.356 . S
N1574 H1580 0.984 . S
N1574 H1581 0.984 . S
N1575 C1568 1.356 . S
N1575 H1578 0.984 . S
N1575 H1579 0.985 . S
H1576 N1571 0.984 . S
H1577 N1571 0.985 . S
H1578 N1575 0.984 . S
H1579 N1575 0.985 . S
H1580 N1574 0.984 . S
H1581 N1574 0.984 . S
H1582 N1570 0.984 . S
H1583 N1570 0.985 . S
C1584 C1585 1.363 . S
C1584 C1590 1.379 . S
C1584 N1592 1.356 . S
C1585 C1584 1.363 . S
C1585 C1591 1.363 . S
C1586 C1587 1.363 . S
C1586 C1591 1.379 . S
C1586 N1593 1.356 . S
C1587 C1586 1.363 . S
C1587 C1590 1.363 . S
N1588 C1590 1.356 . S
N1588 H1600 0.984 . S
N1588 H1601 0.985 . S
N1589 C1591 1.356 . S
N1589 H1594 0.984 . S
N1589 H1595 0.985 . S
C1590 C1584 1.379 . S
C1590 C1587 1.363 . S
C1590 N1588 1.356 . S
C1591 C1585 1.363 . S
C1591 C1586 1.379 . S
C1591 N1589 1.356 . S
N1592 C1584 1.356 . S
N1592 H1598 0.984 . S
N1592 H1599 0.984 . S
N1593 C1586 1.356 . S
N1593 H1596 0.984 . S
N1593 H1597 0.985 . S
H1594 N1589 0.984 . S
H1595 N1589 0.985 . S
H1596 N1593 0.984 . S
H1597 N1593 0.985 . S
H1598 N1592 0.984 . S
H1599 N1592 0.984 . S
H1600 N1588 0.984 . S
H1601 N1588 0.985 . S
C1602 C1603 1.363 . S
C1602 C1608 1.379 . S
C1602 N1610 1.356 . S
C1603 C1602 1.363 . S
C1603 C1609 1.363 . S
C1604 C1605 1.363 . S
C1604 C1609 1.379 . S
C1604 N1611 1.356 . S
C1605 C1604 1.363 . S
C1605 C1608 1.363 . S
N1606 C1608 1.356 . S
N1606 H1618 0.984 . S
N1606 H1619 0.985 . S
N1607 C1609 1.356 . S
N1607 H1612 0.984 . S
N1607 H1613 0.985 . S
C1608 C1602 1.379 . S
C1608 C1605 1.363 . S
C1608 N1606 1.356 . S
C1609 C1603 1.363 . S
C1609 C1604 1.379 . S
C1609 N1607 1.356 . S
N1610 C1602 1.356 . S
N1610 H1616 0.984 . S
N1610 H1617 0.984 . S
N1611 C1604 1.356 . S
N1611 H1614 0.984 . S
N1611 H1615 0.985 . S
H1612 N1607 0.984 . S
H1613 N1607 0.985 . S
H1614 N1611 0.984 . S
H1615 N1611 0.985 . S
H1616 N1610 0.984 . S
H1617 N1610 0.984 . S
H1618 N1606 0.984 . S
H1619 N1606 0.985 . S
C1620 C1621 1.363 . S
C1620 C1626 1.379 . S
C1620 N1628 1.356 . S
C1621 C1620 1.363 . S
C1621 C1627 1.363 . S
C1622 C1623 1.363 . S
C1622 C1627 1.379 . S
C1622 N1629 1.356 . S
C1623 C1622 1.363 . S
C1623 C1626 1.363 . S
N1624 C1626 1.356 . S
N1624 H1636 0.984 . S
N1624 H1637 0.985 . S
N1625 C1627 1.356 . S
N1625 H1630 0.984 . S
N1625 H1631 0.985 . S
C1626 C1620 1.379 . S
C1626 C1623 1.363 . S
C1626 N1624 1.356 . S
C1627 C1621 1.363 . S
C1627 C1622 1.379 . S
C1627 N1625 1.356 . S
N1628 C1620 1.356 . S
N1628 H1634 0.984 . S
N1628 H1635 0.984 . S
N1629 C1622 1.356 . S
N1629 H1632 0.984 . S
N1629 H1633 0.985 . S
H1630 N1625 0.984 . S
H1631 N1625 0.985 . S
H1632 N1629 0.984 . S
H1633 N1629 0.985 . S
H1634 N1628 0.984 . S
H1635 N1628 0.984 . S
H1636 N1624 0.984 . S
H1637 N1624 0.985 . S
C1638 C1639 1.363 . S
C1638 C1644 1.379 . S
C1638 N1646 1.356 . S
C1639 C1638 1.363 . S
C1639 C1645 1.363 . S
C1640 C1641 1.363 . S
C1640 C1645 1.379 . S
C1640 N1647 1.356 . S
C1641 C1640 1.363 . S
C1641 C1644 1.363 . S
N1642 C1644 1.356 . S
N1642 H1654 0.984 . S
N1642 H1655 0.985 . S
N1643 C1645 1.356 . S
N1643 H1648 0.984 . S
N1643 H1649 0.985 . S
C1644 C1638 1.379 . S
C1644 C1641 1.363 . S
C1644 N1642 1.356 . S
C1645 C1639 1.363 . S
C1645 C1640 1.379 . S
C1645 N1643 1.356 . S
N1646 C1638 1.356 . S
N1646 H1652 0.984 . S
N1646 H1653 0.984 . S
N1647 C1640 1.356 . S
N1647 H1650 0.984 . S
N1647 H1651 0.985 . S
H1648 N1643 0.984 . S
H1649 N1643 0.985 . S
H1650 N1647 0.984 . S
H1651 N1647 0.985 . S
H1652 N1646 0.984 . S
H1653 N1646 0.984 . S
H1654 N1642 0.984 . S
H1655 N1642 0.985 . S
C1656 C1657 1.363 . S
C1656 C1662 1.379 . S
C1656 N1664 1.356 . S
C1657 C1656 1.363 . S
C1657 C1663 1.363 . S
C1658 C1659 1.363 . S
C1658 C1663 1.379 . S
C1658 N1665 1.356 . S
C1659 C1658 1.363 . S
C1659 C1662 1.363 . S
N1660 C1662 1.356 . S
N1660 H1672 0.984 . S
N1660 H1673 0.985 . S
N1661 C1663 1.356 . S
N1661 H1666 0.984 . S
N1661 H1667 0.985 . S
C1662 C1656 1.379 . S
C1662 C1659 1.363 . S
C1662 N1660 1.356 . S
C1663 C1657 1.363 . S
C1663 C1658 1.379 . S
C1663 N1661 1.356 . S
N1664 C1656 1.356 . S
N1664 H1670 0.984 . S
N1664 H1671 0.984 . S
N1665 C1658 1.356 . S
N1665 H1668 0.984 . S
N1665 H1669 0.985 . S
H1666 N1661 0.984 . S
H1667 N1661 0.985 . S
H1668 N1665 0.984 . S
H1669 N1665 0.985 . S
H1670 N1664 0.984 . S
H1671 N1664 0.984 . S
H1672 N1660 0.984 . S
H1673 N1660 0.985 . S
C1674 C1675 1.363 . S
C1674 C1680 1.379 . S
C1674 N1682 1.356 . S
C1675 C1674 1.363 . S
C1675 C1681 1.363 . S
C1676 C1677 1.363 . S
C1676 C1681 1.379 . S
C1676 N1683 1.356 . S
C1677 C1676 1.363 . S
C1677 C1680 1.363 . S
N1678 C1680 1.356 . S
N1678 H1690 0.984 . S
N1678 H1691 0.985 . S
N1679 C1681 1.356 . S
N1679 H1684 0.984 . S
N1679 H1685 0.985 . S
C1680 C1674 1.379 . S
C1680 C1677 1.363 . S
C1680 N1678 1.356 . S
C1681 C1675 1.363 . S
C1681 C1676 1.379 . S
C1681 N1679 1.356 . S
N1682 C1674 1.356 . S
N1682 H1688 0.984 . S
N1682 H1689 0.984 . S
N1683 C1676 1.356 . S
N1683 H1686 0.984 . S
N1683 H1687 0.985 . S
H1684 N1679 0.984 . S
H1685 N1679 0.985 . S
H1686 N1683 0.984 . S
H1687 N1683 0.985 . S
H1688 N1682 0.984 . S
H1689 N1682 0.984 . S
H1690 N1678 0.984 . S
H1691 N1678 0.985 . S
C1692 C1693 1.363 . S
C1692 C1698 1.379 . S
C1692 N1700 1.356 . S
C1693 C1692 1.363 . S
C1693 C1699 1.363 . S
C1694 C1695 1.363 . S
C1694 C1699 1.379 . S
C1694 N1701 1.356 . S
C1695 C1694 1.363 . S
C1695 C1698 1.363 . S
N1696 C1698 1.356 . S
N1696 H1708 0.984 . S
N1696 H1709 0.985 . S
N1697 C1699 1.356 . S
N1697 H1702 0.984 . S
N1697 H1703 0.985 . S
C1698 C1692 1.379 . S
C1698 C1695 1.363 . S
C1698 N1696 1.356 . S
C1699 C1693 1.363 . S
C1699 C1694 1.379 . S
C1699 N1697 1.356 . S
N1700 C1692 1.356 . S
N1700 H1706 0.984 . S
N1700 H1707 0.984 . S
N1701 C1694 1.356 . S
N1701 H1704 0.984 . S
N1701 H1705 0.985 . S
H1702 N1697 0.984 . S
H1703 N1697 0.985 . S
H1704 N1701 0.984 . S
H1705 N1701 0.985 . S
H1706 N1700 0.984 . S
H1707 N1700 0.984 . S
H1708 N1696 0.984 . S
H1709 N1696 0.985 . S
C1710 C1711 1.363 . S
C1710 C1716 1.379 . S
C1710 N1718 1.356 . S
C1711 C1710 1.363 . S
C1711 C1717 1.363 . S
C1712 C1713 1.363 . S
C1712 C1717 1.379 . S
C1712 N1719 1.356 . S
C1713 C1712 1.363 . S
C1713 C1716 1.363 . S
N1714 C1716 1.356 . S
N1714 H1726 0.984 . S
N1714 H1727 0.985 . S
N1715 C1717 1.356 . S
N1715 H1720 0.984 . S
N1715 H1721 0.985 . S
C1716 C1710 1.379 . S
C1716 C1713 1.363 . S
C1716 N1714 1.356 . S
C1717 C1711 1.363 . S
C1717 C1712 1.379 . S
C1717 N1715 1.356 . S
N1718 C1710 1.356 . S
N1718 H1724 0.984 . S
N1718 H1725 0.984 . S
N1719 C1712 1.356 . S
N1719 H1722 0.984 . S
N1719 H1723 0.985 . S
H1720 N1715 0.984 . S
H1721 N1715 0.985 . S
H1722 N1719 0.984 . S
H1723 N1719 0.985 . S
H1724 N1718 0.984 . S
H1725 N1718 0.984 . S
H1726 N1714 0.984 . S
H1727 N1714 0.985 . S
C757 C439 1.463 . S
C759 C582 1.522 . S
C775 C465 1.534 . S
C777 C602 1.493 . S
C793 C401 1.566 . S
C795 C625 1.536 . S
C811 C369 1.494 . S
C813 C605 1.470 . S
C831 C622 1.490 . S
C829 C305 1.507 . S
C847 C343 1.413 . S
C849 C585 1.479 . S
C867 C592 1.548 . S
C865 C375 1.592 . S
C885 C612 1.470 . S
C883 C311 1.512 . S
C901 C337 1.478 . S
C903 C617 1.536 . S
C919 C433 1.415 . S
C921 C597 1.469 . S
C937 C471 1.486 . S
C939 C632 1.464 . S
C957 C577 1.507 . S
C955 C407 1.535 . S
C975 C642 1.522 . S
C973 C55 1.463 . S
C991 C81 1.534 . S
C993 C662 1.493 . S
C1009 C17 1.566 . S
C1011 C685 1.536 . S
C1027 C561 1.494 . S
C1029 C665 1.471 . S
C1045 C497 1.508 . S
C1047 C682 1.490 . S
C1063 C535 1.413 . S
C1065 C645 1.479 . S
C1081 C567 1.592 . S
C1083 C652 1.548 . S
C1099 C503 1.512 . S
C1101 C672 1.470 . S
C1119 C677 1.536 . S
C1117 C529 1.478 . S
C1135 C49 1.415 . S
C1137 C657 1.469 . S
C1155 C692 1.464 . S
C1153 C87 1.506 . S
C1171 C23 1.535 . S
C1173 C637 1.507 . S
C1191 C702 1.522 . S
C1189 C247 1.463 . S
C1207 C273 1.534 . S
C1209 C722 1.493 . S
C1227 C745 1.536 . S
C1225 C209 1.567 . S
C1245 C725 1.471 . S
C1243 C177 1.494 . S
C1263 C742 1.490 . S
C1261 C113 1.507 . S
C1279 C151 1.413 . S
C1281 C705 1.479 . S
C1297 C183 1.592 . S
C1299 C712 1.548 . S
C1315 C119 1.512 . S
C1317 C732 1.470 . S
C1335 C737 1.536 . S
C1333 C145 1.479 . S
C1351 C241 1.415 . S
C1353 C717 1.469 . S
C1369 C279 1.486 . S
C1371 C752 1.464 . S
C1387 C215 1.535 . S
C1389 C697 1.507 . S
C1405 C509 1.355 . S
C1407 C595 1.336 1_565 S
C1425 C615 1.541 . S
C1423 C541 1.526 . S
C1441 C573 1.516 . S
C1443 C624 1.459 . S
C1459 C221 1.645 . S
C1461 C604 1.567 . S
C1477 C253 1.410 . S
C1479 C635 1.432 . S
C1497 C584 1.315 1_545 S
C1495 C285 1.354 . S
C1513 C125 1.354 . S
C1515 C655 1.336 . S
C1531 C157 1.526 . S
C1533 C675 1.541 . S
C1549 C189 1.516 . S
C1551 C684 1.459 . S
C1567 C413 1.645 . S
C1569 C664 1.567 . S
C1587 C695 1.432 . S
C1585 C445 1.410 . S
C1603 C477 1.354 . S
C1605 C644 1.326 . S
C1621 C317 1.355 . S
C1623 C715 1.336 . S
C1639 C349 1.526 . S
C1641 C735 1.541 . S
C1659 C744 1.459 . S
C1657 C381 1.516 . S
C1675 C29 1.645 . S
C1677 C724 1.567 . S
C1693 C61 1.410 . S
C1695 C755 1.432 . S
C1711 C93 1.354 . S
C1713 C704 1.326 . S
