# Generated by pormake.
# Topology anh, (6,3)-cn, num edge types: 1
# Building blocks:
#     Node 0, Type 0, BuildingBlock: VOLQOD_clean_sbu_1, # of connection points: 6
#     Node 1, Type 0, BuildingBlock: VOLQOD_clean_sbu_1, # of connection points: 6
#     Node 2, Type 0, BuildingBlock: VOLQOD_clean_sbu_1, # of connection points: 6
#     Node 3, Type 1, BuildingBlock: INOVEN_clean_linker_0, # of connection points: 3
#     Node 4, Type 1, BuildingBlock: INOVEN_clean_linker_0, # of connection points: 3
#     Node 5, Type 1, BuildingBlock: INOVEN_clean_linker_0, # of connection points: 3
#     Node 6, Type 1, BuildingBlock: INOVEN_clean_linker_0, # of connection points: 3
#     Node 7, Type 1, BuildingBlock: INOVEN_clean_linker_0, # of connection points: 3
#     Node 8, Type 1, BuildingBlock: INOVEN_clean_linker_0, # of connection points: 3
#     Edge 9, Type (0, 1), BuildingBlock: FUNLAD_clean_linker_0, # of connection points: 2
#     Edge 10, Type (0, 1), BuildingBlock: FUNLAD_clean_linker_0, # of connection points: 2
#     Edge 11, Type (0, 1), BuildingBlock: FUNLAD_clean_linker_0, # of connection points: 2
#     Edge 12, Type (0, 1), BuildingBlock: FUNLAD_clean_linker_0, # of connection points: 2
#     Edge 13, Type (0, 1), BuildingBlock: FUNLAD_clean_linker_0, # of connection points: 2
#     Edge 14, Type (0, 1), BuildingBlock: FUNLAD_clean_linker_0, # of connection points: 2
#     Edge 15, Type (0, 1), BuildingBlock: FUNLAD_clean_linker_0, # of connection points: 2
#     Edge 16, Type (0, 1), BuildingBlock: FUNLAD_clean_linker_0, # of connection points: 2
#     Edge 17, Type (0, 1), BuildingBlock: FUNLAD_clean_linker_0, # of connection points: 2
#     Edge 18, Type (0, 1), BuildingBlock: FUNLAD_clean_linker_0, # of connection points: 2
#     Edge 19, Type (0, 1), BuildingBlock: FUNLAD_clean_linker_0, # of connection points: 2
#     Edge 20, Type (0, 1), BuildingBlock: FUNLAD_clean_linker_0, # of connection points: 2
#     Edge 21, Type (0, 1), BuildingBlock: FUNLAD_clean_linker_0, # of connection points: 2
#     Edge 22, Type (0, 1), BuildingBlock: FUNLAD_clean_linker_0, # of connection points: 2
#     Edge 23, Type (0, 1), BuildingBlock: FUNLAD_clean_linker_0, # of connection points: 2
#     Edge 24, Type (0, 1), BuildingBlock: FUNLAD_clean_linker_0, # of connection points: 2
#     Edge 25, Type (0, 1), BuildingBlock: FUNLAD_clean_linker_0, # of connection points: 2
#     Edge 26, Type (0, 1), BuildingBlock: FUNLAD_clean_linker_0, # of connection points: 2
# Relax obj value: 0.154
# Max RMSD: 0.215
# Mean RMSD: 0.135
data_MOF--net-anh--node1-VOLQOD_clean_sbu_1--node2-INOVEN_clean_linker_0--edge1-FUNLAD_clean_linker_0
_symmetry_space_group_name_H-M    P1
_symmetry_Int_Tables_number       1
_symmetry_cell_setting            triclinic
loop_
_symmetry_equiv_pos_as_xyz
'x, y, z'
_cell_length_a     34.020432
_cell_length_b     33.821453
_cell_length_c     65.73522
_cell_angle_alpha  92.475405
_cell_angle_beta   92.436646
_cell_angle_gamma 120.23422
loop_
_atom_site_label
_atom_site_type_symbol
_atom_site_fract_x
_atom_site_fract_y
_atom_site_fract_z
_atom_type_partial_charge
O0 O 0.03008 0.63338 0.21072 0.0
Zn1 Zn 0.0334 0.64489 0.18075 0.0
O2 O 0.04661 0.60228 0.1653 0.0
Zn3 Zn -0.00157 0.5659 0.14403 0.0
Zn4 Zn 0.05135 0.56064 0.18363 0.0
Zn5 Zn 0.10333 0.63692 0.15231 0.0
O6 O 0.02179 0.57135 0.11612 0.0
O7 O 0.09516 0.62351 0.12179 0.0
O8 O 0.97248 0.63634 0.17049 0.0
O9 O 0.95226 0.5855 0.14388 0.0
O10 O 0.96391 0.49919 0.14941 0.0
O11 O 0.00083 0.4953 0.17712 0.0
O12 O 0.11165 0.56346 0.18253 0.0
O13 O 0.08271 0.71098 0.17846 0.0
O14 O 0.14887 0.62009 0.16246 0.0
O15 O 0.12998 0.70448 0.15811 0.0
C16 C 0.03558 0.6052 0.22098 0.0
C17 C 0.06104 0.5961 0.10963 0.0
C18 C 0.96846 0.47615 0.16316 0.0
C19 C 0.94482 0.61195 0.15535 0.0
C20 C 0.14751 0.58995 0.17382 0.0
C21 C 0.11864 0.72902 0.16872 0.0
O22 O 0.0447 0.57657 0.21245 0.0
O23 O 0.50986 0.05915 0.44744 0.0
Zn24 Zn 0.50398 0.0568 0.47775 0.0
O25 O 0.54643 0.04079 0.49076 0.0
Zn26 Zn 0.58886 0.09011 0.51052 0.0
Zn27 Zn 0.58113 0.03103 0.47013 0.0
Zn28 Zn 0.51216 0.98536 0.50495 0.0
O29 O 0.58795 0.06813 0.53848 0.0
O30 O 0.52977 0.9965 0.53518 0.0
O31 O 0.51502 0.11787 0.48944 0.0
O32 O 0.57236 0.139 0.51284 0.0
O33 O 0.65278 0.12077 0.50184 0.0
O34 O 0.6474 0.08085 0.47315 0.0
O35 O 0.57723 0.96983 0.472 0.0
O36 O 0.4387 0.00927 0.48158 0.0
O37 O 0.52496 0.93685 0.49442 0.0
O38 O 0.44472 0.95997 0.50077 0.0
C39 C 0.53076 0.04705 0.4353 0.0
C40 C 0.5615 0.03056 0.54614 0.0
C41 C 0.67089 0.11394 0.48655 0.0
C42 C 0.54327 0.14624 0.50354 0.0
C43 C 0.55197 0.93552 0.48195 0.0
C44 C 0.42046 0.97291 0.49112 0.0
O45 O 0.55737 0.03345 0.44191 0.0
O46 O 0.52514 0.5014 0.78754 0.0
Zn47 Zn 0.50594 0.48041 0.81533 0.0
O48 O 0.55212 0.52535 0.83591 0.0
Zn49 Zn 0.52657 0.5561 0.85159 0.0
Zn50 Zn 0.60612 0.57166 0.82318 0.0
Zn51 Zn 0.56929 0.49228 0.85418 0.0
O52 O 0.52278 0.54159 0.8812 0.0
O53 O 0.5502 0.49445 0.88231 0.0
O54 O 0.44436 0.47537 0.818 0.0
O55 O 0.46316 0.53476 0.84022 0.0
O56 O 0.56187 0.62446 0.84991 0.0
O57 O 0.61706 0.63555 0.83001 0.0
O58 O 0.66326 0.57057 0.83264 0.0
O59 O 0.49971 0.4176 0.81626 0.0
O60 O 0.63652 0.51869 0.85565 0.0
O61 O 0.5425 0.42631 0.84436 0.0
C62 C 0.56122 0.53287 0.78057 0.0
C63 C 0.53268 0.51565 0.89097 0.0
C64 C 0.59666 0.65113 0.84063 0.0
C65 C 0.43424 0.50197 0.82781 0.0
C66 C 0.66945 0.54789 0.84615 0.0
C67 C 0.51629 0.4015 0.829 0.0
O68 O 0.59564 0.5613 0.79242 0.0
H69 H 0.5094 0.10417 0.19314 0.0
H70 H 0.43175 0.0561 0.24585 0.0
H71 H 0.57655 0.14799 0.25355 0.0
N72 N 0.59 0.15476 0.21336 0.0
N73 N 0.62696 0.17258 0.22397 0.0
C74 C 0.50763 0.10387 0.20956 0.0
C75 C 0.46551 0.07742 0.21795 0.0
C76 C 0.54776 0.12942 0.22227 0.0
C77 C 0.54561 0.12887 0.2436 0.0
C78 C 0.50386 0.10254 0.25217 0.0
C79 C 0.46396 0.07712 0.23927 0.0
H80 H 0.52194 0.51162 0.53481 0.0
H81 H 0.50564 0.45821 0.59398 0.0
H82 H 0.53357 0.59601 0.58818 0.0
N83 N 0.53525 0.59437 0.54813 0.0
N84 N 0.52769 0.58882 0.52918 0.0
C85 C 0.52041 0.51578 0.55114 0.0
C86 C 0.51316 0.47999 0.56332 0.0
C87 C 0.5277 0.55766 0.5601 0.0
C88 C 0.52778 0.56362 0.58132 0.0
C89 C 0.51913 0.52757 0.59358 0.0
C90 C 0.51173 0.48589 0.58448 0.0
H91 H 0.04892 0.56034 0.86689 0.0
H92 H 0.04724 0.62187 0.92543 0.0
H93 H 0.1287 0.55875 0.91896 0.0
N94 N 0.10735 0.53498 0.87855 0.0
N95 N 0.12553 0.51412 0.88587 0.0
C96 C 0.06088 0.57023 0.88285 0.0
C97 C 0.04387 0.59252 0.89511 0.0
C98 C 0.09133 0.55794 0.89132 0.0
C99 C 0.10536 0.56841 0.91226 0.0
C100 C 0.08971 0.5917 0.92459 0.0
C101 C 0.05976 0.60439 0.91582 0.0
H102 H 0.05172 0.59162 0.46763 0.0
H103 H 0.07197 0.65806 0.41134 0.0
H104 H 0.98777 0.5118 0.41094 0.0
N105 N -0.00256 0.50719 0.45146 0.0
N106 N 0.98268 0.4686 0.44243 0.0
C107 C 0.04476 0.59022 0.4513 0.0
C108 C 0.06556 0.6305 0.44084 0.0
C109 C 0.01696 0.54741 0.44061 0.0
C110 C 0.0093 0.54483 0.41928 0.0
C111 C 0.02906 0.58465 0.40864 0.0
C112 C 0.05636 0.62731 0.41957 0.0
H113 H 0.58667 0.06785 0.79377 0.0
H114 H 0.5791 0.11639 0.73506 0.0
H115 H 0.61034 0.00877 0.7398 0.0
N116 N 0.60514 0.00259 0.77886 0.0
N117 N 0.60091 -0.00136 0.79753 0.0
C118 C 0.5888 0.06625 0.77739 0.0
C119 C 0.58286 0.09691 0.76558 0.0
C120 C 0.59856 0.03428 0.76792 0.0
C121 C 0.60208 0.03302 0.74681 0.0
C122 C 0.59549 0.06272 0.73481 0.0
C123 C 0.58559 0.09425 0.74432 0.0
H124 H 0.51843 0.49304 0.13585 0.0
H125 H 0.5716 0.47586 0.08002 0.0
H126 H 0.44332 0.47165 0.07822 0.0
N127 N 0.44511 0.48935 0.11881 0.0
N128 N 0.4126 0.48933 0.10933 0.0
C129 C 0.51481 0.48627 0.11941 0.0
C130 C 0.54887 0.48338 0.1093 0.0
C131 C 0.47671 0.482 0.10833 0.0
C132 C 0.47247 0.47444 0.08693 0.0
C133 C 0.50647 0.47197 0.0766 0.0
C134 C 0.54426 0.47582 0.08793 0.0
C135 C 0.2268 0.61252 0.16585 0.0
C136 C 0.1869 0.58276 0.17511 0.0
C137 C 0.2607 0.60145 0.16353 0.0
C138 C 0.25527 0.56034 0.17038 0.0
C139 C 0.21766 0.53282 0.18138 0.0
C140 C 0.18351 0.54382 0.18367 0.0
C141 C 0.28599 0.54366 0.16426 0.0
C142 C 0.29838 0.54679 0.14496 0.0
C143 C 0.32602 0.52813 0.1368 0.0
C144 C 0.32197 0.51751 0.11566 0.0
C145 C 0.34963 0.50303 0.10696 0.0
C146 C 0.38221 0.49952 0.11914 0.0
H147 H 0.36251 0.53212 0.16548 0.0
C148 C 0.38594 0.5092 0.1404 0.0
C149 C 0.35791 0.52336 0.14919 0.0
H150 H 0.41113 0.50695 0.15012 0.0
H151 H 0.231 0.64332 0.15949 0.0
H152 H 0.29022 0.62404 0.15556 0.0
H153 H 0.21319 0.50126 0.187 0.0
H154 H 0.15343 0.52048 0.19112 0.0
H155 H 0.29423 0.52464 0.17483 0.0
H156 H 0.28544 0.56171 0.13413 0.0
H157 H 0.29774 0.52104 0.1058 0.0
H158 H 0.34663 0.49587 0.09057 0.0
C159 C 0.74399 0.18683 0.49703 0.0
C160 C 0.71878 0.14809 0.48321 0.0
C161 C 0.78616 0.22291 0.49233 0.0
C162 C 0.8043 0.22091 0.4737 0.0
C163 C 0.78031 0.18095 0.46049 0.0
C164 C 0.7381 0.14488 0.46519 0.0
C165 C 0.84455 0.26137 0.46627 0.0
C166 C 0.87419 0.29941 0.47814 0.0
C167 C 0.90735 0.34302 0.46961 0.0
C168 C 0.9214 0.38467 0.48103 0.0
C169 C 0.94774 0.42659 0.47255 0.0
C170 C 0.96065 0.42743 0.45248 0.0
H171 H 0.91459 0.31323 0.44096 0.0
C172 C 0.94895 0.38618 0.44151 0.0
C173 C 0.92291 0.3443 0.44999 0.0
H174 H 0.95918 0.38643 0.42611 0.0
H175 H 0.7302 0.19041 0.51109 0.0
H176 H 0.80275 0.25307 0.50289 0.0
H177 H 0.79335 0.17838 0.44604 0.0
H178 H 0.71974 0.11547 0.45422 0.0
H179 H 0.84733 0.26069 0.4499 0.0
H180 H 0.87158 0.30042 0.49451 0.0
H181 H 0.91032 0.38476 0.49624 0.0
H182 H 0.95652 0.45807 0.4814 0.0
C183 C 0.58446 0.71686 0.84958 0.0
C184 C 0.61075 0.7004 0.84057 0.0
C185 C 0.59359 0.76147 0.84702 0.0
C186 C 0.62959 0.79093 0.83545 0.0
C187 C 0.65738 0.77521 0.82746 0.0
C188 C 0.64811 0.73054 0.82995 0.0
C189 C 0.63677 0.83608 0.82952 0.0
C190 C 0.6126 0.85545 0.8358 0.0
C191 C 0.61409 0.89528 0.82623 0.0
C192 C 0.60037 0.92256 0.83704 0.0
C193 C 0.59731 0.95747 0.82767 0.0
C194 C 0.6073 0.96532 0.80728 0.0
H195 H 0.634 0.8828 0.79667 0.0
C196 C 0.62169 0.93851 0.79654 0.0
C197 C 0.62487 0.90386 0.80585 0.0
H198 H 0.62952 0.94352 0.78073 0.0
H199 H 0.55548 0.69465 0.85793 0.0
H200 H 0.57102 0.77154 0.85349 0.0
H201 H 0.68542 0.79697 0.81853 0.0
H202 H 0.66928 0.71918 0.82289 0.0
H203 H 0.66201 0.85309 0.81855 0.0
H204 H 0.58982 0.84139 0.8479 0.0
H205 H 0.59133 0.91638 0.85266 0.0
H206 H 0.58605 0.97765 0.83617 0.0
C207 C 0.87099 0.58359 0.13504 0.0
C208 C 0.90048 0.60973 0.15212 0.0
C209 C 0.82624 0.57435 0.13341 0.0
C210 C 0.80986 0.59103 0.14882 0.0
C211 C 0.84003 0.62011 0.16512 0.0
C212 C 0.88506 0.62918 0.16686 0.0
C213 C 0.76116 0.57755 0.14791 0.0
C214 C 0.72861 0.53407 0.14194 0.0
C215 C 0.68008 0.51892 0.13655 0.0
C216 C 0.65405 0.47786 0.12423 0.0
C217 C 0.61035 0.46502 0.1162 0.0
C218 C 0.59157 0.49275 0.12054 0.0
H219 H 0.67839 0.5763 0.15194 0.0
C220 C 0.61613 0.53211 0.13405 0.0
C221 C 0.66009 0.54517 0.14201 0.0
H222 H 0.60234 0.55408 0.13764 0.0
H223 H 0.8819 0.56877 0.12319 0.0
H224 H 0.80415 0.55335 0.12023 0.0
H225 H 0.82821 0.63404 0.17694 0.0
H226 H 0.90706 0.64973 0.18013 0.0
H227 H 0.75282 0.60389 0.1516 0.0
H228 H 0.73892 0.50877 0.1391 0.0
H229 H 0.66836 0.45667 0.11996 0.0
H230 H 0.59182 0.4342 0.10602 0.0
C231 C 0.34944 0.90316 0.50027 0.0
C232 C 0.37022 0.9428 0.48942 0.0
C233 C 0.30319 0.87074 0.49622 0.0
C234 C 0.27671 0.87736 0.48122 0.0
C235 C 0.29682 0.91837 0.47137 0.0
C236 C 0.34302 0.9509 0.47549 0.0
C237 C 0.23107 0.83961 0.47309 0.0
C238 C 0.20506 0.80178 0.48287 0.0
C239 C 0.1676 0.7595 0.47178 0.0
C240 C 0.12903 0.72944 0.48172 0.0
C241 C 0.09519 0.68788 0.47165 0.0
C242 C 0.09992 0.67531 0.45159 0.0
H243 H 0.2025 0.76831 0.44397 0.0
C244 C 0.13907 0.70534 0.44189 0.0
C245 C 0.17226 0.7469 0.45178 0.0
H246 H 0.14496 0.69626 0.42679 0.0
H247 H 0.36934 0.896 0.51121 0.0
H248 H 0.28938 0.83933 0.50393 0.0
H249 H 0.27728 0.92427 0.45969 0.0
H250 H 0.35785 0.98118 0.46693 0.0
H251 H 0.22008 0.84143 0.45755 0.0
H252 H 0.21261 0.80059 0.49897 0.0
H253 H 0.1251 0.73812 0.49727 0.0
H254 H 0.06546 0.66565 0.47957 0.0
C255 C 0.49566 0.33283 0.80519 0.0
C256 C 0.50922 0.35485 0.82496 0.0
C257 C 0.4966 0.29256 0.80064 0.0
C258 C 0.51082 0.27336 0.81582 0.0
C259 C 0.52088 0.29331 0.83588 0.0
C260 C 0.52054 0.33391 0.84039 0.0
C261 C 0.51831 0.23452 0.81081 0.0
C262 C 0.53715 0.23222 0.79354 0.0
C263 C 0.55053 0.19762 0.78841 0.0
C264 C 0.58433 0.20876 0.77464 0.0
C265 C 0.59618 0.17668 0.7681 0.0
C266 C 0.574 0.13222 0.77491 0.0
H267 H 0.50277 0.1437 0.80637 0.0
C268 C 0.5412 0.12131 0.78927 0.0
C269 C 0.52946 0.15373 0.79596 0.0
H270 H 0.52327 0.08719 0.79464 0.0
H271 H 0.48647 0.34786 0.79299 0.0
H272 H 0.48736 0.27715 0.78513 0.0
H273 H 0.5314 0.27886 0.84788 0.0
H274 H 0.53068 0.34974 0.85583 0.0
H275 H 0.51311 0.21082 0.82244 0.0
H276 H 0.54625 0.25913 0.7831 0.0
H277 H 0.60135 0.24235 0.76868 0.0
H278 H 0.62218 0.18645 0.75731 0.0
C279 C 0.51822 0.85145 0.48421 0.0
C280 C 0.55536 0.89381 0.47994 0.0
C281 C 0.52273 0.81281 0.48492 0.0
C282 C 0.56471 0.81587 0.48158 0.0
C283 C 0.6014 0.85783 0.47661 0.0
C284 C 0.5966 0.89642 0.47551 0.0
C285 C 0.57251 0.77783 0.48623 0.0
C286 C 0.53889 0.73365 0.48426 0.0
C287 C 0.54203 0.69736 0.49472 0.0
C288 C 0.51608 0.65163 0.48662 0.0
C289 C 0.51323 0.61611 0.49777 0.0
C290 C 0.53509 0.62571 0.51738 0.0
H291 H 0.58507 0.74181 0.52098 0.0
C292 C 0.56213 0.67153 0.5253 0.0
C293 C 0.56573 0.70706 0.51403 0.0
H294 H 0.5796 0.67984 0.54038 0.0
H295 H 0.48601 0.84849 0.48763 0.0
H296 H 0.49405 0.78136 0.48931 0.0
H297 H 0.6342 0.86112 0.47423 0.0
H298 H 0.62584 0.92877 0.47229 0.0
H299 H 0.60606 0.78683 0.49286 0.0
H300 H 0.50674 0.7241 0.47589 0.0
H301 H 0.49712 0.64332 0.47188 0.0
H302 H 0.49233 0.58091 0.49149 0.0
C303 C 0.75466 0.59013 0.84344 0.0
C304 C 0.71531 0.5543 0.85095 0.0
C305 C 0.79774 0.59591 0.8487 0.0
C306 C 0.802 0.56559 0.86144 0.0
C307 C 0.76248 0.52958 0.8686 0.0
C308 C 0.71984 0.524 0.86348 0.0
C309 C 0.84631 0.57038 0.86858 0.0
C310 C 0.8875 0.60041 0.86232 0.0
C311 C 0.92952 0.60258 0.87119 0.0
C312 C 0.9658 0.61231 0.85901 0.0
C313 C 0.00374 0.61037 0.86681 0.0
C314 C 0.00613 0.59901 0.88701 0.0
H315 H 0.90675 0.58786 0.90179 0.0
C316 C 0.97058 0.59136 0.89937 0.0
C317 C 0.93317 0.59373 0.89167 0.0
H318 H 0.9707 0.58199 0.91491 0.0
H319 H 0.75226 0.61407 0.83377 0.0
H320 H 0.82728 0.62443 0.843 0.0
H321 H 0.76453 0.50566 0.87844 0.0
H322 H 0.69036 0.49578 0.86946 0.0
H323 H 0.84456 0.54673 0.87968 0.0
H324 H 0.89063 0.62203 0.85006 0.0
H325 H 0.96414 0.61998 0.84327 0.0
H326 H 0.03088 0.61724 0.85698 0.0
C327 C 0.18205 0.80053 0.1563 0.0
C328 C 0.14984 0.77926 0.17074 0.0
C329 C 0.2157 0.84678 0.15946 0.0
C330 C 0.21851 0.87258 0.17744 0.0
C331 C 0.18433 0.85198 0.19116 0.0
C332 C 0.15025 0.80584 0.18784 0.0
C333 C 0.2579 0.91946 0.18333 0.0
C334 C 0.29833 0.93733 0.17486 0.0
C335 C 0.34096 0.97839 0.18397 0.0
C336 C 0.38296 0.98372 0.17881 0.0
C337 C 0.42379 0.01763 0.18908 0.0
C338 C 0.42346 0.04702 0.20472 0.0
H339 H 0.30983 0.00883 0.20239 0.0
C340 C 0.3819 0.04395 0.2089 0.0
C341 C 0.34105 0.01023 0.19854 0.0
H342 H 0.38088 0.06692 0.2206 0.0
H343 H 0.18192 0.78113 0.14272 0.0
H344 H 0.23976 0.86142 0.14794 0.0
H345 H 0.18513 0.87104 0.20501 0.0
H346 H 0.12569 0.79047 0.19918 0.0
H347 H 0.25485 0.9372 0.19677 0.0
H348 H 0.30231 0.9184 0.16218 0.0
H349 H 0.38409 0.96011 0.1675 0.0
H350 H 0.45531 0.01912 0.18556 0.0
C351 C 0.50918 0.19673 0.50054 0.0
C352 C 0.54254 0.18854 0.50938 0.0
C353 C 0.50835 0.23649 0.50649 0.0
C354 C 0.54093 0.26877 0.52145 0.0
C355 C 0.57472 0.2609 0.5299 0.0
C356 C 0.57546 0.22125 0.52402 0.0
C357 C 0.54135 0.31099 0.5289 0.0
C358 C 0.50543 0.3174 0.52689 0.0
C359 C 0.5069 0.35862 0.53648 0.0
C360 C 0.48184 0.37632 0.52708 0.0
C361 C 0.48353 0.41568 0.53578 0.0
C362 C 0.50979 0.43749 0.5542 0.0
H363 H 0.55062 0.36621 0.56327 0.0
C364 C 0.53385 0.41897 0.56385 0.0
C365 C 0.53224 0.37987 0.55517 0.0
H366 H 0.55458 0.43513 0.578 0.0
H367 H 0.48356 0.17238 0.48908 0.0
H368 H 0.48244 0.24173 0.49918 0.0
H369 H 0.60039 0.28527 0.54136 0.0
H370 H 0.60186 0.21627 0.53106 0.0
H371 H 0.5726 0.33749 0.53721 0.0
H372 H 0.47417 0.2923 0.51819 0.0
H373 H 0.46152 0.3601 0.51284 0.0
H374 H 0.46418 0.42892 0.52816 0.0
C375 C 0.34915 0.45155 0.8235 0.0
C376 C 0.38818 0.49552 0.82499 0.0
C377 C 0.30574 0.44661 0.8239 0.0
C378 C 0.30103 0.48565 0.82534 0.0
C379 C 0.33993 0.52928 0.82525 0.0
C380 C 0.38312 0.53422 0.82538 0.0
C381 C 0.25708 0.48298 0.82885 0.0
C382 C 0.22805 0.45397 0.84165 0.0
C383 C 0.19445 0.46283 0.85145 0.0
C384 C 0.17383 0.48471 0.84162 0.0
C385 C 0.14907 0.49999 0.85259 0.0
C386 C 0.14447 0.49345 0.87354 0.0
H387 H 0.20201 0.43634 0.87985 0.0
C388 C 0.16228 0.4689 0.88292 0.0
C389 C 0.18676 0.45336 0.87195 0.0
H390 H 0.15877 0.46341 0.89902 0.0
H391 H 0.35232 0.42123 0.82311 0.0
H392 H 0.27614 0.41248 0.82358 0.0
H393 H 0.33715 0.55984 0.82625 0.0
H394 H 0.41275 0.56848 0.82629 0.0
H395 H 0.25326 0.51131 0.8241 0.0
H396 H 0.2347 0.42858 0.848 0.0
H397 H 0.178 0.49135 0.82566 0.0
H398 H 0.1352 0.51847 0.84491 0.0
C399 C 0.93382 0.40292 0.18073 0.0
C400 C 0.93232 0.42768 0.16437 0.0
C401 C 0.89604 0.36046 0.184 0.0
C402 C 0.85586 0.34205 0.17104 0.0
C403 C 0.85582 0.36485 0.15372 0.0
C404 C 0.89356 0.40734 0.15044 0.0
C405 C 0.81255 0.30126 0.17588 0.0
C406 C 0.80175 0.29186 0.19527 0.0
C407 C 0.756 0.25701 0.20128 0.0
C408 C 0.75195 0.24561 0.22168 0.0
C409 C 0.70927 0.2169 0.22878 0.0
C410 C 0.66971 0.19903 0.21571 0.0
H411 H 0.71727 0.24661 0.17227 0.0
C412 C 0.67337 0.20927 0.19513 0.0
C413 C 0.71614 0.23811 0.18797 0.0
H414 H 0.64322 0.19601 0.18472 0.0
H415 H 0.96342 0.41715 0.19155 0.0
H416 H 0.89805 0.34285 0.19702 0.0
H417 H 0.82556 0.35106 0.14331 0.0
H418 H 0.89141 0.42518 0.13753 0.0
H419 H 0.78766 0.28162 0.16323 0.0
H420 H 0.82696 0.31253 0.2077 0.0
H421 H 0.78187 0.25976 0.23233 0.0
H422 H 0.70692 0.20931 0.24468 0.0
C423 C 0.10894 0.62253 0.07962 0.0
C424 C 0.06722 0.59244 0.0876 0.0
C425 C 0.1147 0.61887 0.05883 0.0
C426 C 0.07879 0.58496 0.04557 0.0
C427 C 0.03747 0.55446 0.0536 0.0
C428 C 0.03159 0.55831 0.07434 0.0
C429 C 0.08313 0.57983 0.02338 0.0
C430 C 0.11108 0.61492 0.01254 0.0
C431 C 0.11057 0.60985 0.98998 0.0
C432 C 0.11797 0.64685 0.97861 0.0
C433 C 0.11292 0.6416 0.95729 0.0
C434 C 0.10115 0.59942 0.94696 0.0
H435 H 0.09675 0.53964 0.98795 0.0
C436 C 0.09657 0.56327 0.95832 0.0
C437 C 0.10122 0.5684 0.97963 0.0
H438 H 0.08746 0.53036 0.95076 0.0
H439 H 0.13723 0.64899 0.08944 0.0
H440 H 0.14747 0.64219 0.0533 0.0
H441 H 0.00937 0.52783 0.04375 0.0
H442 H -0.00088 0.53432 0.07997 0.0
H443 H 0.05956 0.5467 0.01542 0.0
H444 H 0.13137 0.64924 0.01999 0.0
H445 H 0.1258 0.67931 0.98624 0.0
H446 H 0.11721 0.67021 0.94888 0.0
C447 C 0.50208 0.07168 0.40548 0.0
C448 C 0.52418 0.04906 0.41305 0.0
C449 C 0.49647 0.07413 0.38448 0.0
C450 C 0.51273 0.05384 0.37062 0.0
C451 C 0.53389 0.03044 0.37815 0.0
C452 C 0.53994 0.02839 0.39914 0.0
C453 C 0.50728 0.05552 0.34824 0.0
C454 C 0.50674 0.09065 0.33961 0.0
C455 C 0.50395 0.09309 0.31718 0.0
C456 C 0.52618 0.13611 0.30904 0.0
C457 C 0.52582 0.13932 0.28791 0.0
C458 C 0.50244 0.09955 0.27457 0.0
H459 H 0.46097 0.01971 0.30962 0.0
C460 C 0.47884 0.05659 0.28273 0.0
C461 C 0.47958 0.05334 0.30383 0.0
H462 H 0.46063 0.02535 0.27279 0.0
H463 H 0.4893 0.08774 0.41577 0.0
H464 H 0.47884 0.09133 0.37917 0.0
H465 H 0.54632 0.01416 0.36777 0.0
H466 H 0.55679 0.01039 0.40445 0.0
H467 H 0.50689 0.02842 0.33857 0.0
H468 H 0.51196 0.12016 0.34918 0.0
H469 H 0.54475 0.16724 0.31903 0.0
H470 H 0.54386 0.1729 0.282 0.0
C471 C 0.52508 0.50486 0.74508 0.0
C472 C 0.56207 0.53734 0.75827 0.0
C473 C 0.5243 0.50987 0.72416 0.0
C474 C 0.56036 0.54784 0.71589 0.0
C475 C 0.59799 0.57958 0.72894 0.0
C476 C 0.59881 0.57454 0.74995 0.0
C477 C 0.56037 0.55407 0.69366 0.0
C478 C 0.52166 0.53694 0.68145 0.0
C479 C 0.5208 0.53781 0.65892 0.0
C480 C 0.48317 0.50209 0.64723 0.0
C481 C 0.48217 0.49947 0.62598 0.0
C482 C 0.51847 0.53305 0.61597 0.0
H483 H 0.58535 0.60125 0.65743 0.0
C484 C 0.55516 0.57014 0.62756 0.0
C485 C 0.55644 0.57247 0.6489 0.0
H486 H 0.58349 0.5965 0.62014 0.0
H487 H 0.49647 0.47541 0.75089 0.0
H488 H 0.49561 0.48346 0.71455 0.0
H489 H 0.62655 0.60871 0.72292 0.0
H490 H 0.62794 0.6001 0.75966 0.0
H491 H 0.59326 0.57264 0.68725 0.0
H492 H 0.48885 0.51879 0.68796 0.0
H493 H 0.45506 0.47525 0.65458 0.0
H494 H 0.45327 0.47081 0.61734 0.0
C495 C 0.60582 0.06098 0.58009 0.0
C496 C 0.56693 0.02703 0.56832 0.0
C497 C 0.61004 0.05899 0.60119 0.0
C498 C 0.57498 0.02333 0.61107 0.0
C499 C 0.53688 0.98859 0.59918 0.0
C500 C 0.53285 0.99036 0.57805 0.0
C501 C 0.57646 0.02122 0.63364 0.0
C502 C 0.60267 0.05808 0.6468 0.0
C503 C 0.60162 0.05762 0.66941 0.0
C504 C 0.62108 0.09984 0.68103 0.0
C505 C 0.61966 0.10149 0.70221 0.0
C506 C 0.59868 0.06086 0.71235 0.0
H507 H 0.56771 0.98358 0.67147 0.0
C508 C 0.58026 0.01855 0.70083 0.0
C509 C 0.5819 0.01689 0.67962 0.0
H510 H 0.56377 0.98659 0.70816 0.0
H511 H 0.6331 0.08926 0.57302 0.0
H512 H 0.64092 0.08548 0.60955 0.0
H513 H 0.50958 0.96042 0.60631 0.0
H514 H 0.50253 0.9635 0.56942 0.0
H515 H 0.55255 0.98875 0.63942 0.0
H516 H 0.62391 0.09124 0.64089 0.0
H517 H 0.63704 0.13182 0.67367 0.0
H518 H 0.63509 0.13471 0.71066 0.0
C519 C 0.52877 0.47644 0.92283 0.0
C520 C 0.52303 0.50915 0.91269 0.0
C521 C 0.51967 0.46986 0.94328 0.0
C522 C 0.50516 0.49633 0.9542 0.0
C523 C 0.49856 0.52837 0.94396 0.0
C524 C 0.50748 0.53482 0.92343 0.0
C525 C 0.49626 0.49133 0.97614 0.0
C526 C 0.51549 0.47476 0.98899 0.0
C527 C 0.50924 0.47212 0.01122 0.0
C528 C 0.51997 0.44331 0.02192 0.0
C529 C 0.51776 0.4421 0.04307 0.0
C530 C 0.50491 0.46989 0.05399 0.0
H531 H 0.48862 0.52332 0.01473 0.0
C532 C 0.49348 0.49821 0.04328 0.0
C533 C 0.49576 0.49949 0.02215 0.0
H534 H 0.4845 0.52084 0.05133 0.0
H535 H 0.53997 0.45549 0.91493 0.0
H536 H 0.5235 0.44352 0.95027 0.0
H537 H 0.48699 0.54892 0.95194 0.0
H538 H 0.50242 0.5601 0.91604 0.0
H539 H 0.47421 0.50315 0.98184 0.0
H540 H 0.53768 0.46316 0.98324 0.0
H541 H 0.53065 0.42201 0.01392 0.0
H542 H 0.52657 0.4198 0.05091 0.0
C543 C 0.02821 0.56858 0.25389 0.0
C544 C 0.02997 0.60445 0.24319 0.0
C545 C 0.02232 0.56703 0.27476 0.0
C546 C 0.01878 0.60182 0.28556 0.0
C547 C 0.01972 0.63725 0.27481 0.0
C548 C 0.02532 0.63864 0.25384 0.0
C549 C 0.01344 0.60185 0.3079 0.0
C550 C 0.02759 0.5804 0.32053 0.0
C551 C 0.02398 0.58054 0.34298 0.0
C552 C 0.02925 0.548 0.35346 0.0
C553 C 0.02935 0.54842 0.37468 0.0
C554 C 0.02439 0.58163 0.38599 0.0
H555 H 0.01479 0.63961 0.34696 0.0
C556 C 0.01815 0.61369 0.37555 0.0
C557 C 0.01805 0.61328 0.35427 0.0
H558 H 0.01405 0.63958 0.38386 0.0
H559 H 0.03081 0.54118 0.24611 0.0
H560 H 0.01982 0.53801 0.28217 0.0
H561 H 0.01658 0.66422 0.28269 0.0
H562 H 0.02622 0.6666 0.24602 0.0
H563 H -0.00163 0.62109 0.31396 0.0
H564 H 0.04328 0.56189 0.31432 0.0
H565 H 0.03413 0.52254 0.34521 0.0
H566 H 0.03497 0.52371 0.38228 0.0
loop_
_geom_bond_atom_site_label_1
_geom_bond_atom_site_label_2
_geom_bond_distance
_geom_bond_site_symmetry_2
_ccdc_geom_bond_type
O0 Zn1 1.953 . S
O0 C16 1.225 . S
Zn1 O0 1.953 . S
Zn1 O2 1.949 . S
Zn1 O8 1.919 1_455 S
Zn1 O13 1.924 . S
O2 Zn1 1.949 . S
O2 Zn3 1.923 1_455 S
O2 Zn4 1.950 . S
O2 Zn5 1.945 . S
Zn3 O2 1.923 1_655 S
Zn3 O6 1.933 1_655 S
Zn3 O9 1.941 . S
Zn3 O10 1.965 . S
Zn4 O2 1.950 . S
Zn4 O11 1.938 . S
Zn4 O12 1.906 . S
Zn4 O22 1.953 . S
Zn5 O2 1.945 . S
Zn5 O7 1.932 . S
Zn5 O14 1.977 . S
Zn5 O15 1.910 . S
O6 Zn3 1.933 1_455 S
O6 C17 1.226 . S
O7 Zn5 1.932 . S
O7 C17 1.307 . S
O8 Zn1 1.919 1_655 S
O8 C19 1.253 . S
O9 Zn3 1.941 . S
O9 C19 1.283 . S
O10 Zn3 1.965 . S
O10 C18 1.303 . S
O11 Zn4 1.938 . S
O11 C18 1.247 1_455 S
O12 Zn4 1.906 . S
O12 C20 1.304 . S
O13 Zn1 1.924 . S
O13 C21 1.311 . S
O14 Zn5 1.977 . S
O14 C20 1.272 . S
O15 Zn5 1.910 . S
O15 C21 1.231 . S
C16 O0 1.225 . S
C16 O22 1.298 . S
C17 O6 1.226 . S
C17 O7 1.307 . S
C18 O10 1.303 . S
C18 O11 1.247 1_655 S
C19 O8 1.253 . S
C19 O9 1.283 . S
C20 O12 1.304 . S
C20 O14 1.272 . S
C21 O13 1.311 . S
C21 O15 1.231 . S
O22 Zn4 1.953 . S
O22 C16 1.298 . S
O23 Zn24 1.953 . S
O23 C39 1.225 . S
Zn24 O23 1.953 . S
Zn24 O25 1.949 . S
Zn24 O31 1.919 . S
Zn24 O36 1.924 . S
O25 Zn24 1.949 . S
O25 Zn26 1.923 . S
O25 Zn27 1.950 . S
O25 Zn28 1.945 . S
Zn26 O25 1.923 . S
Zn26 O29 1.933 . S
Zn26 O32 1.941 . S
Zn26 O33 1.965 . S
Zn27 O25 1.950 . S
Zn27 O34 1.938 . S
Zn27 O35 1.906 1_545 S
Zn27 O45 1.953 . S
Zn28 O25 1.945 . S
Zn28 O30 1.932 . S
Zn28 O37 1.977 1_545 S
Zn28 O38 1.910 1_545 S
O29 Zn26 1.933 . S
O29 C40 1.226 . S
O30 Zn28 1.932 . S
O30 C40 1.307 . S
O31 Zn24 1.919 . S
O31 C42 1.253 . S
O32 Zn26 1.941 . S
O32 C42 1.283 . S
O33 Zn26 1.965 . S
O33 C41 1.303 . S
O34 Zn27 1.938 . S
O34 C41 1.247 . S
O35 Zn27 1.906 1_565 S
O35 C43 1.304 . S
O36 Zn24 1.924 . S
O36 C44 1.311 1_545 S
O37 Zn28 1.977 1_565 S
O37 C43 1.272 . S
O38 Zn28 1.910 1_565 S
O38 C44 1.231 . S
C39 O23 1.225 . S
C39 O45 1.298 . S
C40 O29 1.226 . S
C40 O30 1.307 . S
C41 O33 1.303 . S
C41 O34 1.247 . S
C42 O31 1.253 . S
C42 O32 1.283 . S
C43 O35 1.304 . S
C43 O37 1.272 . S
C44 O36 1.311 1_565 S
C44 O38 1.231 . S
O45 Zn27 1.953 . S
O45 C39 1.298 . S
O46 Zn47 1.953 . S
O46 C62 1.225 . S
Zn47 O46 1.953 . S
Zn47 O48 1.949 . S
Zn47 O54 1.919 . S
Zn47 O59 1.924 . S
O48 Zn47 1.949 . S
O48 Zn49 1.923 . S
O48 Zn50 1.950 . S
O48 Zn51 1.945 . S
Zn49 O48 1.923 . S
Zn49 O52 1.933 . S
Zn49 O55 1.941 . S
Zn49 O56 1.965 . S
Zn50 O48 1.950 . S
Zn50 O57 1.938 . S
Zn50 O58 1.906 . S
Zn50 O68 1.953 . S
Zn51 O48 1.945 . S
Zn51 O53 1.932 . S
Zn51 O60 1.977 . S
Zn51 O61 1.910 . S
O52 Zn49 1.933 . S
O52 C63 1.226 . S
O53 Zn51 1.932 . S
O53 C63 1.307 . S
O54 Zn47 1.919 . S
O54 C65 1.253 . S
O55 Zn49 1.941 . S
O55 C65 1.283 . S
O56 Zn49 1.965 . S
O56 C64 1.303 . S
O57 Zn50 1.938 . S
O57 C64 1.247 . S
O58 Zn50 1.906 . S
O58 C66 1.304 . S
O59 Zn47 1.924 . S
O59 C67 1.311 . S
O60 Zn51 1.977 . S
O60 C66 1.272 . S
O61 Zn51 1.910 . S
O61 C67 1.231 . S
C62 O46 1.225 . S
C62 O68 1.298 . S
C63 O52 1.226 . S
C63 O53 1.307 . S
C64 O56 1.303 . S
C64 O57 1.247 . S
C65 O54 1.253 . S
C65 O55 1.283 . S
C66 O58 1.304 . S
C66 O60 1.272 . S
C67 O59 1.311 . S
C67 O61 1.231 . S
O68 Zn50 1.953 . S
O68 C62 1.298 . S
H69 C74 0.929 . S
H70 C79 0.931 . S
H71 C77 0.930 . S
N72 N73 1.234 . S
N72 C76 1.453 . S
N73 N72 1.234 . S
C74 H69 0.929 . S
C74 C75 1.373 . S
C74 C76 1.368 . S
C75 C74 1.373 . S
C75 C79 1.397 . S
C76 N72 1.453 . S
C76 C74 1.368 . S
C76 C77 1.373 . S
C77 H71 0.930 . S
C77 C76 1.373 . S
C77 C78 1.371 . S
C78 C77 1.371 . S
C78 C79 1.383 . S
C79 H70 0.931 . S
C79 C75 1.397 . S
C79 C78 1.383 . S
H80 C85 0.929 . S
H81 C90 0.931 . S
H82 C88 0.930 . S
N83 N84 1.234 . S
N83 C87 1.453 . S
N84 N83 1.234 . S
C85 H80 0.929 . S
C85 C86 1.373 . S
C85 C87 1.368 . S
C86 C85 1.373 . S
C86 C90 1.397 . S
C87 N83 1.453 . S
C87 C85 1.368 . S
C87 C88 1.373 . S
C88 H82 0.930 . S
C88 C87 1.373 . S
C88 C89 1.371 . S
C89 C88 1.371 . S
C89 C90 1.383 . S
C90 H81 0.931 . S
C90 C86 1.397 . S
C90 C89 1.383 . S
H91 C96 0.929 . S
H92 C101 0.931 . S
H93 C99 0.930 . S
N94 N95 1.234 . S
N94 C98 1.453 . S
N95 N94 1.234 . S
C96 H91 0.929 . S
C96 C97 1.373 . S
C96 C98 1.368 . S
C97 C96 1.373 . S
C97 C101 1.397 . S
C98 N94 1.453 . S
C98 C96 1.368 . S
C98 C99 1.373 . S
C99 H93 0.930 . S
C99 C98 1.373 . S
C99 C100 1.371 . S
C100 C99 1.371 . S
C100 C101 1.383 . S
C101 H92 0.931 . S
C101 C97 1.397 . S
C101 C100 1.383 . S
H102 C107 0.929 . S
H103 C112 0.931 . S
H104 C110 0.930 1_655 S
N105 N106 1.234 . S
N105 C109 1.453 1_655 S
N106 N105 1.234 . S
C107 H102 0.929 . S
C107 C108 1.373 . S
C107 C109 1.368 . S
C108 C107 1.373 . S
C108 C112 1.397 . S
C109 N105 1.453 1_455 S
C109 C107 1.368 . S
C109 C110 1.373 . S
C110 H104 0.930 1_455 S
C110 C109 1.373 . S
C110 C111 1.371 . S
C111 C110 1.371 . S
C111 C112 1.383 . S
C112 H103 0.931 . S
C112 C108 1.397 . S
C112 C111 1.383 . S
H113 C118 0.929 . S
H114 C123 0.931 . S
H115 C121 0.930 1_565 S
N116 N117 1.234 . S
N116 C120 1.453 1_565 S
N117 N116 1.234 . S
C118 H113 0.929 . S
C118 C119 1.373 . S
C118 C120 1.368 . S
C119 C118 1.373 . S
C119 C123 1.397 . S
C120 N116 1.453 1_545 S
C120 C118 1.368 . S
C120 C121 1.373 . S
C121 H115 0.930 1_545 S
C121 C120 1.373 . S
C121 C122 1.371 . S
C122 C121 1.371 . S
C122 C123 1.383 . S
C123 H114 0.931 . S
C123 C119 1.397 . S
C123 C122 1.383 . S
H124 C129 0.929 . S
H125 C134 0.931 . S
H126 C132 0.930 . S
N127 N128 1.234 . S
N127 C131 1.453 . S
N128 N127 1.234 . S
C129 H124 0.929 . S
C129 C130 1.373 . S
C129 C131 1.368 . S
C130 C129 1.373 . S
C130 C134 1.397 . S
C131 N127 1.453 . S
C131 C129 1.368 . S
C131 C132 1.373 . S
C132 H126 0.930 . S
C132 C131 1.373 . S
C132 C133 1.371 . S
C133 C132 1.371 . S
C133 C134 1.383 . S
C134 H125 0.931 . S
C134 C130 1.397 . S
C134 C133 1.383 . S
C135 C136 1.386 . S
C135 C137 1.383 . S
C135 H151 0.951 . S
C136 C135 1.386 . S
C136 C140 1.383 . S
C137 C135 1.383 . S
C137 C138 1.402 . S
C137 H152 0.951 . S
C138 C137 1.402 . S
C138 C139 1.375 . S
C138 C141 1.481 . S
C139 C138 1.375 . S
C139 C140 1.367 . S
C139 H153 0.951 . S
C140 C136 1.383 . S
C140 C139 1.367 . S
C140 H154 0.950 . S
C141 C138 1.481 . S
C141 C142 1.297 . S
C141 H155 0.950 . S
C142 C141 1.297 . S
C142 C143 1.479 . S
C142 H156 0.950 . S
C143 C142 1.479 . S
C143 C144 1.375 . S
C143 C149 1.404 . S
C144 C143 1.375 . S
C144 C145 1.369 . S
C144 H157 0.950 . S
C145 C144 1.369 . S
C145 C146 1.392 . S
C145 H158 0.951 . S
C146 C145 1.392 . S
C146 C148 1.384 . S
H147 C149 0.949 . S
C148 C146 1.384 . S
C148 C149 1.385 . S
C148 H150 0.950 . S
C149 C143 1.404 . S
C149 H147 0.949 . S
C149 C148 1.385 . S
H150 C148 0.950 . S
H151 C135 0.951 . S
H152 C137 0.951 . S
H153 C139 0.951 . S
H154 C140 0.950 . S
H155 C141 0.950 . S
H156 C142 0.950 . S
H157 C144 0.950 . S
H158 C145 0.951 . S
C159 C160 1.386 . S
C159 C161 1.383 . S
C159 H175 0.951 . S
C160 C159 1.386 . S
C160 C164 1.383 . S
C161 C159 1.383 . S
C161 C162 1.402 . S
C161 H176 0.951 . S
C162 C161 1.402 . S
C162 C163 1.375 . S
C162 C165 1.481 . S
C163 C162 1.375 . S
C163 C164 1.367 . S
C163 H177 0.951 . S
C164 C160 1.383 . S
C164 C163 1.367 . S
C164 H178 0.950 . S
C165 C162 1.481 . S
C165 C166 1.297 . S
C165 H179 0.950 . S
C166 C165 1.297 . S
C166 C167 1.479 . S
C166 H180 0.950 . S
C167 C166 1.479 . S
C167 C168 1.375 . S
C167 C173 1.404 . S
C168 C167 1.375 . S
C168 C169 1.369 . S
C168 H181 0.950 . S
C169 C168 1.369 . S
C169 C170 1.392 . S
C169 H182 0.951 . S
C170 C169 1.392 . S
C170 C172 1.384 . S
H171 C173 0.949 . S
C172 C170 1.384 . S
C172 C173 1.385 . S
C172 H174 0.950 . S
C173 C167 1.404 . S
C173 H171 0.949 . S
C173 C172 1.385 . S
H174 C172 0.950 . S
H175 C159 0.951 . S
H176 C161 0.951 . S
H177 C163 0.951 . S
H178 C164 0.950 . S
H179 C165 0.950 . S
H180 C166 0.950 . S
H181 C168 0.950 . S
H182 C169 0.951 . S
C183 C184 1.386 . S
C183 C185 1.383 . S
C183 H199 0.951 . S
C184 C183 1.386 . S
C184 C188 1.383 . S
C185 C183 1.383 . S
C185 C186 1.402 . S
C185 H200 0.951 . S
C186 C185 1.402 . S
C186 C187 1.375 . S
C186 C189 1.481 . S
C187 C186 1.375 . S
C187 C188 1.367 . S
C187 H201 0.951 . S
C188 C184 1.383 . S
C188 C187 1.367 . S
C188 H202 0.950 . S
C189 C186 1.481 . S
C189 C190 1.297 . S
C189 H203 0.950 . S
C190 C189 1.297 . S
C190 C191 1.479 . S
C190 H204 0.950 . S
C191 C190 1.479 . S
C191 C192 1.375 . S
C191 C197 1.404 . S
C192 C191 1.375 . S
C192 C193 1.369 . S
C192 H205 0.950 . S
C193 C192 1.369 . S
C193 C194 1.392 . S
C193 H206 0.951 . S
C194 C193 1.392 . S
C194 C196 1.384 . S
H195 C197 0.949 . S
C196 C194 1.384 . S
C196 C197 1.385 . S
C196 H198 0.950 . S
C197 C191 1.404 . S
C197 H195 0.949 . S
C197 C196 1.385 . S
H198 C196 0.950 . S
H199 C183 0.951 . S
H200 C185 0.951 . S
H201 C187 0.951 . S
H202 C188 0.950 . S
H203 C189 0.950 . S
H204 C190 0.950 . S
H205 C192 0.950 . S
H206 C193 0.951 . S
C207 C208 1.386 . S
C207 C209 1.383 . S
C207 H223 0.951 . S
C208 C207 1.386 . S
C208 C212 1.383 . S
C209 C207 1.383 . S
C209 C210 1.402 . S
C209 H224 0.951 . S
C210 C209 1.402 . S
C210 C211 1.375 . S
C210 C213 1.481 . S
C211 C210 1.375 . S
C211 C212 1.367 . S
C211 H225 0.951 . S
C212 C208 1.383 . S
C212 C211 1.367 . S
C212 H226 0.950 . S
C213 C210 1.481 . S
C213 C214 1.297 . S
C213 H227 0.950 . S
C214 C213 1.297 . S
C214 C215 1.479 . S
C214 H228 0.950 . S
C215 C214 1.479 . S
C215 C216 1.375 . S
C215 C221 1.404 . S
C216 C215 1.375 . S
C216 C217 1.369 . S
C216 H229 0.950 . S
C217 C216 1.369 . S
C217 C218 1.392 . S
C217 H230 0.951 . S
C218 C217 1.392 . S
C218 C220 1.384 . S
H219 C221 0.949 . S
C220 C218 1.384 . S
C220 C221 1.385 . S
C220 H222 0.950 . S
C221 C215 1.404 . S
C221 H219 0.949 . S
C221 C220 1.385 . S
H222 C220 0.950 . S
H223 C207 0.951 . S
H224 C209 0.951 . S
H225 C211 0.951 . S
H226 C212 0.950 . S
H227 C213 0.950 . S
H228 C214 0.950 . S
H229 C216 0.950 . S
H230 C217 0.951 . S
C231 C232 1.386 . S
C231 C233 1.383 . S
C231 H247 0.951 . S
C232 C231 1.386 . S
C232 C236 1.383 . S
C233 C231 1.383 . S
C233 C234 1.402 . S
C233 H248 0.951 . S
C234 C233 1.402 . S
C234 C235 1.375 . S
C234 C237 1.481 . S
C235 C234 1.375 . S
C235 C236 1.367 . S
C235 H249 0.951 . S
C236 C232 1.383 . S
C236 C235 1.367 . S
C236 H250 0.950 . S
C237 C234 1.481 . S
C237 C238 1.297 . S
C237 H251 0.950 . S
C238 C237 1.297 . S
C238 C239 1.479 . S
C238 H252 0.950 . S
C239 C238 1.479 . S
C239 C240 1.375 . S
C239 C245 1.404 . S
C240 C239 1.375 . S
C240 C241 1.369 . S
C240 H253 0.950 . S
C241 C240 1.369 . S
C241 C242 1.392 . S
C241 H254 0.951 . S
C242 C241 1.392 . S
C242 C244 1.384 . S
H243 C245 0.949 . S
C244 C242 1.384 . S
C244 C245 1.385 . S
C244 H246 0.950 . S
C245 C239 1.404 . S
C245 H243 0.949 . S
C245 C244 1.385 . S
H246 C244 0.950 . S
H247 C231 0.951 . S
H248 C233 0.951 . S
H249 C235 0.951 . S
H250 C236 0.950 . S
H251 C237 0.950 . S
H252 C238 0.950 . S
H253 C240 0.950 . S
H254 C241 0.951 . S
C255 C256 1.386 . S
C255 C257 1.383 . S
C255 H271 0.951 . S
C256 C255 1.386 . S
C256 C260 1.383 . S
C257 C255 1.383 . S
C257 C258 1.402 . S
C257 H272 0.951 . S
C258 C257 1.402 . S
C258 C259 1.375 . S
C258 C261 1.481 . S
C259 C258 1.375 . S
C259 C260 1.367 . S
C259 H273 0.951 . S
C260 C256 1.383 . S
C260 C259 1.367 . S
C260 H274 0.950 . S
C261 C258 1.481 . S
C261 C262 1.297 . S
C261 H275 0.950 . S
C262 C261 1.297 . S
C262 C263 1.479 . S
C262 H276 0.950 . S
C263 C262 1.479 . S
C263 C264 1.375 . S
C263 C269 1.404 . S
C264 C263 1.375 . S
C264 C265 1.369 . S
C264 H277 0.950 . S
C265 C264 1.369 . S
C265 C266 1.392 . S
C265 H278 0.951 . S
C266 C265 1.392 . S
C266 C268 1.384 . S
H267 C269 0.949 . S
C268 C266 1.384 . S
C268 C269 1.385 . S
C268 H270 0.950 . S
C269 C263 1.404 . S
C269 H267 0.949 . S
C269 C268 1.385 . S
H270 C268 0.950 . S
H271 C255 0.951 . S
H272 C257 0.951 . S
H273 C259 0.951 . S
H274 C260 0.950 . S
H275 C261 0.950 . S
H276 C262 0.950 . S
H277 C264 0.950 . S
H278 C265 0.951 . S
C279 C280 1.386 . S
C279 C281 1.383 . S
C279 H295 0.951 . S
C280 C279 1.386 . S
C280 C284 1.383 . S
C281 C279 1.383 . S
C281 C282 1.402 . S
C281 H296 0.951 . S
C282 C281 1.402 . S
C282 C283 1.375 . S
C282 C285 1.481 . S
C283 C282 1.375 . S
C283 C284 1.367 . S
C283 H297 0.951 . S
C284 C280 1.383 . S
C284 C283 1.367 . S
C284 H298 0.950 . S
C285 C282 1.481 . S
C285 C286 1.297 . S
C285 H299 0.950 . S
C286 C285 1.297 . S
C286 C287 1.479 . S
C286 H300 0.950 . S
C287 C286 1.479 . S
C287 C288 1.375 . S
C287 C293 1.404 . S
C288 C287 1.375 . S
C288 C289 1.369 . S
C288 H301 0.950 . S
C289 C288 1.369 . S
C289 C290 1.392 . S
C289 H302 0.951 . S
C290 C289 1.392 . S
C290 C292 1.384 . S
H291 C293 0.949 . S
C292 C290 1.384 . S
C292 C293 1.385 . S
C292 H294 0.950 . S
C293 C287 1.404 . S
C293 H291 0.949 . S
C293 C292 1.385 . S
H294 C292 0.950 . S
H295 C279 0.951 . S
H296 C281 0.951 . S
H297 C283 0.951 . S
H298 C284 0.950 . S
H299 C285 0.950 . S
H300 C286 0.950 . S
H301 C288 0.950 . S
H302 C289 0.951 . S
C303 C304 1.386 . S
C303 C305 1.383 . S
C303 H319 0.951 . S
C304 C303 1.386 . S
C304 C308 1.383 . S
C305 C303 1.383 . S
C305 C306 1.402 . S
C305 H320 0.951 . S
C306 C305 1.402 . S
C306 C307 1.375 . S
C306 C309 1.481 . S
C307 C306 1.375 . S
C307 C308 1.367 . S
C307 H321 0.951 . S
C308 C304 1.383 . S
C308 C307 1.367 . S
C308 H322 0.950 . S
C309 C306 1.481 . S
C309 C310 1.297 . S
C309 H323 0.950 . S
C310 C309 1.297 . S
C310 C311 1.479 . S
C310 H324 0.950 . S
C311 C310 1.479 . S
C311 C312 1.375 . S
C311 C317 1.404 . S
C312 C311 1.375 . S
C312 C313 1.369 . S
C312 H325 0.950 . S
C313 C312 1.369 . S
C313 C314 1.392 . S
C313 H326 0.951 1_655 S
C314 C313 1.392 . S
C314 C316 1.384 . S
H315 C317 0.949 . S
C316 C314 1.384 . S
C316 C317 1.385 . S
C316 H318 0.950 . S
C317 C311 1.404 . S
C317 H315 0.949 . S
C317 C316 1.385 . S
H318 C316 0.950 . S
H319 C303 0.951 . S
H320 C305 0.951 . S
H321 C307 0.951 . S
H322 C308 0.950 . S
H323 C309 0.950 . S
H324 C310 0.950 . S
H325 C312 0.950 . S
H326 C313 0.951 1_455 S
C327 C328 1.386 . S
C327 C329 1.383 . S
C327 H343 0.951 . S
C328 C327 1.386 . S
C328 C332 1.383 . S
C329 C327 1.383 . S
C329 C330 1.402 . S
C329 H344 0.951 . S
C330 C329 1.402 . S
C330 C331 1.375 . S
C330 C333 1.481 . S
C331 C330 1.375 . S
C331 C332 1.367 . S
C331 H345 0.951 . S
C332 C328 1.383 . S
C332 C331 1.367 . S
C332 H346 0.950 . S
C333 C330 1.481 . S
C333 C334 1.297 . S
C333 H347 0.950 . S
C334 C333 1.297 . S
C334 C335 1.479 . S
C334 H348 0.950 . S
C335 C334 1.479 . S
C335 C336 1.375 . S
C335 C341 1.404 . S
C336 C335 1.375 . S
C336 C337 1.369 . S
C336 H349 0.950 . S
C337 C336 1.369 . S
C337 C338 1.392 . S
C337 H350 0.951 . S
C338 C337 1.392 . S
C338 C340 1.384 . S
H339 C341 0.949 . S
C340 C338 1.384 . S
C340 C341 1.385 . S
C340 H342 0.950 . S
C341 C335 1.404 . S
C341 H339 0.949 . S
C341 C340 1.385 . S
H342 C340 0.950 . S
H343 C327 0.951 . S
H344 C329 0.951 . S
H345 C331 0.951 . S
H346 C332 0.950 . S
H347 C333 0.950 . S
H348 C334 0.950 . S
H349 C336 0.950 . S
H350 C337 0.951 . S
C351 C352 1.386 . S
C351 C353 1.383 . S
C351 H367 0.951 . S
C352 C351 1.386 . S
C352 C356 1.383 . S
C353 C351 1.383 . S
C353 C354 1.402 . S
C353 H368 0.951 . S
C354 C353 1.402 . S
C354 C355 1.375 . S
C354 C357 1.481 . S
C355 C354 1.375 . S
C355 C356 1.367 . S
C355 H369 0.951 . S
C356 C352 1.383 . S
C356 C355 1.367 . S
C356 H370 0.950 . S
C357 C354 1.481 . S
C357 C358 1.297 . S
C357 H371 0.950 . S
C358 C357 1.297 . S
C358 C359 1.479 . S
C358 H372 0.950 . S
C359 C358 1.479 . S
C359 C360 1.375 . S
C359 C365 1.404 . S
C360 C359 1.375 . S
C360 C361 1.369 . S
C360 H373 0.950 . S
C361 C360 1.369 . S
C361 C362 1.392 . S
C361 H374 0.951 . S
C362 C361 1.392 . S
C362 C364 1.384 . S
H363 C365 0.949 . S
C364 C362 1.384 . S
C364 C365 1.385 . S
C364 H366 0.950 . S
C365 C359 1.404 . S
C365 H363 0.949 . S
C365 C364 1.385 . S
H366 C364 0.950 . S
H367 C351 0.951 . S
H368 C353 0.951 . S
H369 C355 0.951 . S
H370 C356 0.950 . S
H371 C357 0.950 . S
H372 C358 0.950 . S
H373 C360 0.950 . S
H374 C361 0.951 . S
C375 C376 1.386 . S
C375 C377 1.383 . S
C375 H391 0.951 . S
C376 C375 1.386 . S
C376 C380 1.383 . S
C377 C375 1.383 . S
C377 C378 1.402 . S
C377 H392 0.951 . S
C378 C377 1.402 . S
C378 C379 1.375 . S
C378 C381 1.481 . S
C379 C378 1.375 . S
C379 C380 1.367 . S
C379 H393 0.951 . S
C380 C376 1.383 . S
C380 C379 1.367 . S
C380 H394 0.950 . S
C381 C378 1.481 . S
C381 C382 1.297 . S
C381 H395 0.950 . S
C382 C381 1.297 . S
C382 C383 1.479 . S
C382 H396 0.950 . S
C383 C382 1.479 . S
C383 C384 1.375 . S
C383 C389 1.404 . S
C384 C383 1.375 . S
C384 C385 1.369 . S
C384 H397 0.950 . S
C385 C384 1.369 . S
C385 C386 1.392 . S
C385 H398 0.951 . S
C386 C385 1.392 . S
C386 C388 1.384 . S
H387 C389 0.949 . S
C388 C386 1.384 . S
C388 C389 1.385 . S
C388 H390 0.950 . S
C389 C383 1.404 . S
C389 H387 0.949 . S
C389 C388 1.385 . S
H390 C388 0.950 . S
H391 C375 0.951 . S
H392 C377 0.951 . S
H393 C379 0.951 . S
H394 C380 0.950 . S
H395 C381 0.950 . S
H396 C382 0.950 . S
H397 C384 0.950 . S
H398 C385 0.951 . S
C399 C400 1.386 . S
C399 C401 1.383 . S
C399 H415 0.951 . S
C400 C399 1.386 . S
C400 C404 1.383 . S
C401 C399 1.383 . S
C401 C402 1.402 . S
C401 H416 0.951 . S
C402 C401 1.402 . S
C402 C403 1.375 . S
C402 C405 1.481 . S
C403 C402 1.375 . S
C403 C404 1.367 . S
C403 H417 0.951 . S
C404 C400 1.383 . S
C404 C403 1.367 . S
C404 H418 0.950 . S
C405 C402 1.481 . S
C405 C406 1.297 . S
C405 H419 0.950 . S
C406 C405 1.297 . S
C406 C407 1.479 . S
C406 H420 0.950 . S
C407 C406 1.479 . S
C407 C408 1.375 . S
C407 C413 1.404 . S
C408 C407 1.375 . S
C408 C409 1.369 . S
C408 H421 0.950 . S
C409 C408 1.369 . S
C409 C410 1.392 . S
C409 H422 0.951 . S
C410 C409 1.392 . S
C410 C412 1.384 . S
H411 C413 0.949 . S
C412 C410 1.384 . S
C412 C413 1.385 . S
C412 H414 0.950 . S
C413 C407 1.404 . S
C413 H411 0.949 . S
C413 C412 1.385 . S
H414 C412 0.950 . S
H415 C399 0.951 . S
H416 C401 0.951 . S
H417 C403 0.951 . S
H418 C404 0.950 . S
H419 C405 0.950 . S
H420 C406 0.950 . S
H421 C408 0.950 . S
H422 C409 0.951 . S
C423 C424 1.386 . S
C423 C425 1.383 . S
C423 H439 0.951 . S
C424 C423 1.386 . S
C424 C428 1.383 . S
C425 C423 1.383 . S
C425 C426 1.402 . S
C425 H440 0.951 . S
C426 C425 1.402 . S
C426 C427 1.375 . S
C426 C429 1.481 . S
C427 C426 1.375 . S
C427 C428 1.367 . S
C427 H441 0.951 1_455 S
C428 C424 1.383 . S
C428 C427 1.367 . S
C428 H442 0.950 1_455 S
C429 C426 1.481 . S
C429 C430 1.297 . S
C429 H443 0.950 . S
C430 C429 1.297 . S
C430 C431 1.479 1_554 S
C430 H444 0.950 . S
C431 C430 1.479 1_556 S
C431 C432 1.375 . S
C431 C437 1.404 . S
C432 C431 1.375 . S
C432 C433 1.369 . S
C432 H445 0.950 . S
C433 C432 1.369 . S
C433 C434 1.392 . S
C433 H446 0.951 . S
C434 C433 1.392 . S
C434 C436 1.384 . S
H435 C437 0.949 . S
C436 C434 1.384 . S
C436 C437 1.385 . S
C436 H438 0.950 . S
C437 C431 1.404 . S
C437 H435 0.949 . S
C437 C436 1.385 . S
H438 C436 0.950 . S
H439 C423 0.951 . S
H440 C425 0.951 . S
H441 C427 0.951 1_655 S
H442 C428 0.950 1_655 S
H443 C429 0.950 . S
H444 C430 0.950 . S
H445 C432 0.950 . S
H446 C433 0.951 . S
C447 C448 1.386 . S
C447 C449 1.383 . S
C447 H463 0.951 . S
C448 C447 1.386 . S
C448 C452 1.383 . S
C449 C447 1.383 . S
C449 C450 1.402 . S
C449 H464 0.951 . S
C450 C449 1.402 . S
C450 C451 1.375 . S
C450 C453 1.481 . S
C451 C450 1.375 . S
C451 C452 1.367 . S
C451 H465 0.951 1_545 S
C452 C448 1.383 . S
C452 C451 1.367 . S
C452 H466 0.950 1_545 S
C453 C450 1.481 . S
C453 C454 1.297 . S
C453 H467 0.950 . S
C454 C453 1.297 . S
C454 C455 1.479 . S
C454 H468 0.950 . S
C455 C454 1.479 . S
C455 C456 1.375 . S
C455 C461 1.404 . S
C456 C455 1.375 . S
C456 C457 1.369 . S
C456 H469 0.950 . S
C457 C456 1.369 . S
C457 C458 1.392 . S
C457 H470 0.951 . S
C458 C457 1.392 . S
C458 C460 1.384 . S
H459 C461 0.949 . S
C460 C458 1.384 . S
C460 C461 1.385 . S
C460 H462 0.950 . S
C461 C455 1.404 . S
C461 H459 0.949 . S
C461 C460 1.385 . S
H462 C460 0.950 . S
H463 C447 0.951 . S
H464 C449 0.951 . S
H465 C451 0.951 1_565 S
H466 C452 0.950 1_565 S
H467 C453 0.950 . S
H468 C454 0.950 . S
H469 C456 0.950 . S
H470 C457 0.951 . S
C471 C472 1.386 . S
C471 C473 1.383 . S
C471 H487 0.951 . S
C472 C471 1.386 . S
C472 C476 1.383 . S
C473 C471 1.383 . S
C473 C474 1.402 . S
C473 H488 0.951 . S
C474 C473 1.402 . S
C474 C475 1.375 . S
C474 C477 1.481 . S
C475 C474 1.375 . S
C475 C476 1.367 . S
C475 H489 0.951 . S
C476 C472 1.383 . S
C476 C475 1.367 . S
C476 H490 0.950 . S
C477 C474 1.481 . S
C477 C478 1.297 . S
C477 H491 0.950 . S
C478 C477 1.297 . S
C478 C479 1.479 . S
C478 H492 0.950 . S
C479 C478 1.479 . S
C479 C480 1.375 . S
C479 C485 1.404 . S
C480 C479 1.375 . S
C480 C481 1.369 . S
C480 H493 0.950 . S
C481 C480 1.369 . S
C481 C482 1.392 . S
C481 H494 0.951 . S
C482 C481 1.392 . S
C482 C484 1.384 . S
H483 C485 0.949 . S
C484 C482 1.384 . S
C484 C485 1.385 . S
C484 H486 0.950 . S
C485 C479 1.404 . S
C485 H483 0.949 . S
C485 C484 1.385 . S
H486 C484 0.950 . S
H487 C471 0.951 . S
H488 C473 0.951 . S
H489 C475 0.951 . S
H490 C476 0.950 . S
H491 C477 0.950 . S
H492 C478 0.950 . S
H493 C480 0.950 . S
H494 C481 0.951 . S
C495 C496 1.386 . S
C495 C497 1.383 . S
C495 H511 0.951 . S
C496 C495 1.386 . S
C496 C500 1.383 . S
C497 C495 1.383 . S
C497 C498 1.402 . S
C497 H512 0.951 . S
C498 C497 1.402 . S
C498 C499 1.375 . S
C498 C501 1.481 . S
C499 C498 1.375 . S
C499 C500 1.367 . S
C499 H513 0.951 1_545 S
C500 C496 1.383 . S
C500 C499 1.367 . S
C500 H514 0.950 . S
C501 C498 1.481 . S
C501 C502 1.297 . S
C501 H515 0.950 . S
C502 C501 1.297 . S
C502 C503 1.479 . S
C502 H516 0.950 . S
C503 C502 1.479 . S
C503 C504 1.375 . S
C503 C509 1.404 . S
C504 C503 1.375 . S
C504 C505 1.369 . S
C504 H517 0.950 . S
C505 C504 1.369 . S
C505 C506 1.392 . S
C505 H518 0.951 . S
C506 C505 1.392 . S
C506 C508 1.384 . S
H507 C509 0.949 1_565 S
C508 C506 1.384 . S
C508 C509 1.385 . S
C508 H510 0.950 1_545 S
C509 C503 1.404 . S
C509 H507 0.949 1_545 S
C509 C508 1.385 . S
H510 C508 0.950 1_565 S
H511 C495 0.951 . S
H512 C497 0.951 . S
H513 C499 0.951 1_565 S
H514 C500 0.950 . S
H515 C501 0.950 . S
H516 C502 0.950 . S
H517 C504 0.950 . S
H518 C505 0.951 . S
C519 C520 1.386 . S
C519 C521 1.383 . S
C519 H535 0.951 . S
C520 C519 1.386 . S
C520 C524 1.383 . S
C521 C519 1.383 . S
C521 C522 1.402 . S
C521 H536 0.951 . S
C522 C521 1.402 . S
C522 C523 1.375 . S
C522 C525 1.481 . S
C523 C522 1.375 . S
C523 C524 1.367 . S
C523 H537 0.951 . S
C524 C520 1.383 . S
C524 C523 1.367 . S
C524 H538 0.950 . S
C525 C522 1.481 . S
C525 C526 1.297 . S
C525 H539 0.950 . S
C526 C525 1.297 . S
C526 C527 1.479 1_556 S
C526 H540 0.950 . S
C527 C526 1.479 1_554 S
C527 C528 1.375 . S
C527 C533 1.404 . S
C528 C527 1.375 . S
C528 C529 1.369 . S
C528 H541 0.950 . S
C529 C528 1.369 . S
C529 C530 1.392 . S
C529 H542 0.951 . S
C530 C529 1.392 . S
C530 C532 1.384 . S
H531 C533 0.949 . S
C532 C530 1.384 . S
C532 C533 1.385 . S
C532 H534 0.950 . S
C533 C527 1.404 . S
C533 H531 0.949 . S
C533 C532 1.385 . S
H534 C532 0.950 . S
H535 C519 0.951 . S
H536 C521 0.951 . S
H537 C523 0.951 . S
H538 C524 0.950 . S
H539 C525 0.950 . S
H540 C526 0.950 . S
H541 C528 0.950 . S
H542 C529 0.951 . S
C543 C544 1.386 . S
C543 C545 1.383 . S
C543 H559 0.951 . S
C544 C543 1.386 . S
C544 C548 1.383 . S
C545 C543 1.383 . S
C545 C546 1.402 . S
C545 H560 0.951 . S
C546 C545 1.402 . S
C546 C547 1.375 . S
C546 C549 1.481 . S
C547 C546 1.375 . S
C547 C548 1.367 . S
C547 H561 0.951 . S
C548 C544 1.383 . S
C548 C547 1.367 . S
C548 H562 0.950 . S
C549 C546 1.481 . S
C549 C550 1.297 . S
C549 H563 0.950 . S
C550 C549 1.297 . S
C550 C551 1.479 . S
C550 H564 0.950 . S
C551 C550 1.479 . S
C551 C552 1.375 . S
C551 C557 1.404 . S
C552 C551 1.375 . S
C552 C553 1.369 . S
C552 H565 0.950 . S
C553 C552 1.369 . S
C553 C554 1.392 . S
C553 H566 0.951 . S
C554 C553 1.392 . S
C554 C556 1.384 . S
H555 C557 0.949 . S
C556 C554 1.384 . S
C556 C557 1.385 . S
C556 H558 0.950 . S
C557 C551 1.404 . S
C557 H555 0.949 . S
C557 C556 1.385 . S
H558 C556 0.950 . S
H559 C543 0.951 . S
H560 C545 0.951 . S
H561 C547 0.951 . S
H562 C548 0.950 . S
H563 C549 0.950 . S
H564 C550 0.950 . S
H565 C552 0.950 . S
H566 C553 0.951 . S
C136 C20 1.240 . S
C146 N128 1.267 . S
C160 C41 1.265 . S
C170 N106 1.262 . S
C184 C64 1.288 . S
C194 N117 1.283 . S
C208 C19 1.201 . S
C218 C130 1.283 . S
C242 C108 1.196 . S
C232 C44 1.220 . S
C266 C119 1.189 . S
C256 C67 1.169 . S
C280 C43 1.253 . S
C290 N84 1.271 . S
C304 C66 1.151 . S
C314 C97 1.149 1_655 S
C328 C21 1.239 . S
C338 C75 1.217 1_565 S
C362 C86 1.217 . S
C352 C42 1.208 . S
C386 N95 1.218 . S
C376 C65 1.228 . S
C400 C18 1.262 . S
C410 N73 1.261 . S
C434 C100 1.522 . S
C424 C17 1.501 . S
C448 C39 1.518 . S
C458 C78 1.523 . S
C472 C62 1.526 . S
C482 C89 1.532 . S
C506 C122 1.496 . S
C496 C40 1.496 . S
C530 C133 1.489 . S
C520 C63 1.507 . S
C544 C16 1.524 . S
C554 C111 1.493 . S
