# Generated by pormake.
# Topology zzz, (3,6)-cn, num edge types: 1
# Building blocks:
#     Node 0, Type 0, BuildingBlock: QEWDON_clean_linker_0, # of connection points: 3
#     Node 1, Type 0, BuildingBlock: QEWDON_clean_linker_0, # of connection points: 3
#     Node 2, Type 0, BuildingBlock: QEWDON_clean_linker_0, # of connection points: 3
#     Node 3, Type 0, BuildingBlock: QEWDON_clean_linker_0, # of connection points: 3
#     Node 4, Type 0, BuildingBlock: QEWDON_clean_linker_0, # of connection points: 3
#     Node 5, Type 0, BuildingBlock: QEWDON_clean_linker_0, # of connection points: 3
#     Node 6, Type 0, BuildingBlock: QEWDON_clean_linker_0, # of connection points: 3
#     Node 7, Type 0, BuildingBlock: QEWDON_clean_linker_0, # of connection points: 3
#     Node 8, Type 1, BuildingBlock: BETDIP_clean_sbu_0, # of connection points: 6
#     Node 9, Type 1, BuildingBlock: BETDIP_clean_sbu_0, # of connection points: 6
#     Node 10, Type 1, BuildingBlock: BETDIP_clean_sbu_0, # of connection points: 6
#     Node 11, Type 1, BuildingBlock: BETDIP_clean_sbu_0, # of connection points: 6
#     Edge 12, Type (0, 1), BuildingBlock: EZIPEK_clean_linker_0, # of connection points: 2
#     Edge 13, Type (0, 1), BuildingBlock: EZIPEK_clean_linker_0, # of connection points: 2
#     Edge 14, Type (0, 1), BuildingBlock: EZIPEK_clean_linker_0, # of connection points: 2
#     Edge 15, Type (0, 1), BuildingBlock: EZIPEK_clean_linker_0, # of connection points: 2
#     Edge 16, Type (0, 1), BuildingBlock: EZIPEK_clean_linker_0, # of connection points: 2
#     Edge 17, Type (0, 1), BuildingBlock: EZIPEK_clean_linker_0, # of connection points: 2
#     Edge 18, Type (0, 1), BuildingBlock: EZIPEK_clean_linker_0, # of connection points: 2
#     Edge 19, Type (0, 1), BuildingBlock: EZIPEK_clean_linker_0, # of connection points: 2
#     Edge 20, Type (0, 1), BuildingBlock: EZIPEK_clean_linker_0, # of connection points: 2
#     Edge 21, Type (0, 1), BuildingBlock: EZIPEK_clean_linker_0, # of connection points: 2
#     Edge 22, Type (0, 1), BuildingBlock: EZIPEK_clean_linker_0, # of connection points: 2
#     Edge 23, Type (0, 1), BuildingBlock: EZIPEK_clean_linker_0, # of connection points: 2
#     Edge 24, Type (0, 1), BuildingBlock: EZIPEK_clean_linker_0, # of connection points: 2
#     Edge 25, Type (0, 1), BuildingBlock: EZIPEK_clean_linker_0, # of connection points: 2
#     Edge 26, Type (0, 1), BuildingBlock: EZIPEK_clean_linker_0, # of connection points: 2
#     Edge 27, Type (0, 1), BuildingBlock: EZIPEK_clean_linker_0, # of connection points: 2
#     Edge 28, Type (0, 1), BuildingBlock: EZIPEK_clean_linker_0, # of connection points: 2
#     Edge 29, Type (0, 1), BuildingBlock: EZIPEK_clean_linker_0, # of connection points: 2
#     Edge 30, Type (0, 1), BuildingBlock: EZIPEK_clean_linker_0, # of connection points: 2
#     Edge 31, Type (0, 1), BuildingBlock: EZIPEK_clean_linker_0, # of connection points: 2
#     Edge 32, Type (0, 1), BuildingBlock: EZIPEK_clean_linker_0, # of connection points: 2
#     Edge 33, Type (0, 1), BuildingBlock: EZIPEK_clean_linker_0, # of connection points: 2
#     Edge 34, Type (0, 1), BuildingBlock: EZIPEK_clean_linker_0, # of connection points: 2
#     Edge 35, Type (0, 1), BuildingBlock: EZIPEK_clean_linker_0, # of connection points: 2
# Relax obj value: 0.236
# Max RMSD: 0.169
# Mean RMSD: 0.109
data_MOF--net-zzz--node1-BETDIP_clean_sbu_0--node2-QEWDON_clean_linker_0--edge1-EZIPEK_clean_linker_0
_symmetry_space_group_name_H-M    P1
_symmetry_Int_Tables_number       1
_symmetry_cell_setting            triclinic
loop_
_symmetry_equiv_pos_as_xyz
'x, y, z'
_cell_length_a     41.613388
_cell_length_b     41.633033
_cell_length_c     9.9768964
_cell_angle_alpha  89.67627
_cell_angle_beta   89.738939
_cell_angle_gamma 90.337239
loop_
_atom_site_label
_atom_site_type_symbol
_atom_site_fract_x
_atom_site_fract_y
_atom_site_fract_z
_atom_type_partial_charge
H0 H 0.75535 0.52875 0.27838 0.0
C1 C 0.76891 0.52152 0.36524 0.0
C2 C 0.80009 0.51223 0.3426 0.0
C3 C 0.75622 0.52321 0.49484 0.0
H4 H 0.84509 0.49771 0.42665 0.0
C5 C 0.8208 0.5054 0.44889 0.0
C6 C 0.81327 0.51389 0.57942 0.0
C7 C 0.77963 0.52173 0.605 0.0
C8 C 0.71948 0.52876 0.50294 0.0
H9 H 0.77222 0.52664 0.70676 0.0
C10 C 0.69825 0.52523 0.38774 0.0
C11 C 0.66485 0.5333 0.39118 0.0
C12 C 0.70505 0.53846 0.62331 0.0
H13 H 0.71913 0.54129 0.71335 0.0
C14 C 0.6722 0.54557 0.6291 0.0
H15 H 0.70696 0.51612 0.29351 0.0
C16 C 0.6527 0.54365 0.51518 0.0
H17 H 0.62805 0.55139 0.5231 0.0
H18 H 0.6618 0.55354 0.7228 0.0
H19 H 0.99873 0.75071 0.28005 0.0
C20 C 1.00622 0.7666 0.35963 0.0
C21 C 1.0097 0.7985 0.32739 0.0
C22 C 1.01249 0.75515 0.48839 0.0
H23 H 1.01948 0.84632 0.39879 0.0
C24 C 1.01617 0.82139 0.42667 0.0
C25 C 1.01765 0.81347 0.56199 0.0
C26 C 1.01678 0.77922 0.59412 0.0
C27 C 1.01189 0.71824 0.50058 0.0
H28 H 1.01963 0.77164 0.69725 0.0
C29 C 1.01743 0.69746 0.3858 0.0
C30 C 1.00978 0.6639 0.38747 0.0
C31 C 1.00172 0.70337 0.61984 0.0
H32 H 0.99721 0.71748 0.70869 0.0
C33 C 0.99519 0.6703 0.62388 0.0
H34 H 0.02681 0.70726 0.29287 0.0
C35 C 0.99818 0.6512 0.50912 0.0
H36 H 0.99049 0.62638 0.51444 0.0
H37 H 0.98637 0.65951 0.71604 0.0
H38 H 0.7967 0.04154 0.30987 0.0
C39 C 0.78077 0.03588 0.39225 0.0
C40 C 0.7496 0.04615 0.37908 0.0
C41 C 0.79009 1.01668 0.50068 0.0
H42 H 0.70407 0.05365 0.47214 0.0
C43 C 0.72793 0.04375 0.48601 0.0
C44 C 0.73291 1.0222 0.59083 0.0
C45 C 0.7651 1.00865 0.60022 0.0
C46 C 0.8257 1.00635 0.50088 0.0
H47 H 0.77036 0.99219 0.68136 0.0
C48 C 0.84614 1.00744 0.38187 0.0
C49 C 0.88032 1.00374 0.38716 0.0
C50 C 0.84075 0.99877 0.62241 0.0
H51 H 0.82709 0.99783 0.71493 0.0
C52 C 0.87394 0.99338 0.62766 0.0
H53 H 0.83615 1.01131 0.28361 0.0
C54 C 0.89334 0.99607 0.51283 0.0
H55 H 0.91872 0.99146 0.52185 0.0
H56 H 0.88494 0.98756 0.72285 0.0
H57 H 0.5307 0.79188 0.29454 0.0
C58 C 0.52384 0.77687 0.37903 0.0
C59 C 0.51425 0.74602 0.35133 0.0
C60 C 0.52786 0.78728 0.51068 0.0
H61 H 0.49913 0.70022 0.42843 0.0
C62 C 0.50735 0.72412 0.45471 0.0
C63 C 0.51682 0.72982 0.586 0.0
C64 C 0.52631 0.76269 0.61629 0.0
C65 C 0.53849 0.8225 0.52309 0.0
H66 H 0.53268 0.76871 0.71812 0.0
C67 C 0.53108 0.84646 0.42141 0.0
C68 C 0.5465 0.87759 0.41263 0.0
C69 C 0.5602 0.83126 0.62262 0.0
H70 H 0.5666 0.81457 0.70151 0.0
C71 C 0.57691 0.86027 0.61275 0.0
H72 H 0.51445 0.83978 0.34397 0.0
C73 C 0.57178 0.8817 0.50626 0.0
H74 H 0.58952 0.90037 0.49768 0.0
H75 H 0.5957 0.8654 0.68445 0.0
H76 H 0.28755 0.54297 0.292 0.0
C77 C 0.26995 0.53386 0.2218 0.0
C78 C 0.23845 0.54254 0.24141 0.0
C79 C 0.27927 0.51654 0.10904 0.0
H80 H 0.18979 0.5402 0.17383 0.0
C81 C 0.21436 0.53307 0.15289 0.0
C82 C 0.22141 0.51773 0.03242 0.0
C83 C 0.25474 0.50932 0.00941 0.0
C84 C 0.31546 0.51203 0.09531 0.0
H85 H 0.26145 0.49805 0.91597 0.0
C86 C 0.33618 0.50887 0.21108 0.0
C87 C 0.37022 0.51296 0.20147 0.0
C88 C 0.3301 0.51746 0.97045 0.0
H89 H 0.31571 0.52104 0.8815 0.0
C90 C 0.36347 0.52042 0.95985 0.0
H91 H 0.32587 0.50443 0.30927 0.0
C92 C 0.38301 0.51819 0.07319 0.0
H93 H 0.40845 0.52018 0.06052 0.0
H94 H 0.37434 0.52515 0.86286 0.0
H95 H 1.00475 0.28354 0.28885 0.0
C96 C 1.01707 0.26601 0.22744 0.0
C97 C 1.00826 0.23402 0.24122 0.0
C98 C 0.03727 0.27611 0.12276 0.0
H99 H 1.01566 0.18565 0.17879 0.0
C100 C 0.02285 0.21044 0.16327 0.0
C101 C 0.04069 0.21826 0.04904 0.0
C102 C 0.04782 0.25197 0.02713 0.0
C103 C 0.03871 0.3124 0.10331 0.0
H104 H 0.06022 0.25934 0.93635 0.0
C105 C 0.04145 0.33446 0.21461 0.0
C106 C 0.03237 0.36761 0.20276 0.0
C107 C 0.02865 0.32485 0.97985 0.0
H108 H 0.02527 0.30918 0.89468 0.0
C109 C 1.01955 0.35692 0.96786 0.0
H110 H 0.04894 0.32547 0.31152 0.0
C111 C 1.0207 0.37756 0.07762 0.0
H112 H 1.01217 0.40158 0.06465 0.0
H113 H 1.01035 0.36564 0.87334 0.0
H114 H 0.25812 0.06321 0.24711 0.0
C115 C 0.27457 0.05393 0.17345 0.0
C116 C 0.30687 0.05879 0.19833 0.0
C117 C 0.26489 0.03232 0.07389 0.0
H118 H 0.35356 0.0623 0.10549 0.0
C119 C 0.32886 0.05453 0.09334 0.0
C120 C 0.32216 0.0335 0.98959 0.0
C121 C 0.28967 1.02143 0.98105 0.0
C122 C 0.23013 1.01982 0.0801 0.0
H123 H 0.28441 1.00347 0.90645 0.0
C124 C 0.20903 0.02404 0.1952 0.0
C125 C 0.17688 1.01199 0.19848 0.0
C126 C 0.21745 1.0032 0.97012 0.0
H127 H 0.23134 0.99986 0.87955 0.0
C128 C 0.18645 0.99035 0.97454 0.0
H129 H 0.21689 0.03603 0.28463 0.0
C130 C 0.16687 0.99429 0.08704 0.0
H131 H 0.14383 0.98287 0.08761 0.0
H132 H 0.17748 0.97697 0.88967 0.0
H133 H 0.54563 0.25443 0.27813 0.0
C134 C 0.53655 0.27173 0.20629 0.0
C135 C 0.54567 0.30342 0.22102 0.0
C136 C 0.51852 0.26188 0.096 0.0
H137 H 0.54322 0.35178 0.14689 0.0
C138 C 0.53593 0.32703 0.13008 0.0
C139 C 0.51892 0.31955 0.01469 0.0
C140 C 0.51021 0.28613 0.99599 0.0
C141 C 0.51464 0.22558 0.08323 0.0
H142 H 0.49773 0.27913 0.90571 0.0
C143 C 0.51151 0.20451 0.19897 0.0
C144 C 0.51754 0.17068 0.191 0.0
C145 C 0.52148 0.21147 0.95934 0.0
H146 H 0.52484 0.22619 0.87044 0.0
C147 C 0.52691 0.17852 0.95023 0.0
H148 H 0.506 0.21458 0.29614 0.0
C149 C 0.52559 0.1588 0.06395 0.0
H150 H 0.53102 0.13389 0.05264 0.0
H151 H 0.53332 0.16823 0.85442 0.0
Tb152 Tb 0.05422 1.01376 0.87996 0.0
Tb153 Tb 1.00535 0.02388 0.68843 0.0
C154 C 0.08382 0.99139 0.07338 0.0
C155 C 0.07093 0.96202 0.13267 0.0
C156 C 0.03797 0.95728 0.11257 0.0
C157 C 0.0264 0.92684 0.08947 0.0
C158 C 0.04479 0.90018 0.1202 0.0
C159 C 0.07704 0.90452 0.15886 0.0
C160 C 0.0906 0.93533 0.15628 0.0
C161 C 0.07899 0.02641 0.6359 0.0
C162 C 1.02238 0.95029 0.73879 0.0
C163 C 0.97994 0.04349 0.47612 0.0
C164 C 0.96693 0.07543 0.44213 0.0
C165 C 0.98646 0.09701 0.37004 0.0
C166 C 0.97718 0.12872 0.35335 0.0
C167 C 0.94782 0.13956 0.4053 0.0
C168 C 0.92747 0.11797 0.473 0.0
C169 C 0.93703 0.08601 0.49192 0.0
C170 C 0.97243 1.02063 0.92304 0.0
C171 C 0.0366 0.08592 0.84054 0.0
O172 O 0.06541 1.01657 0.08552 0.0
O173 O 0.09341 0.98734 0.94986 0.0
O174 O 0.05471 1.00886 0.66545 0.0
O175 O 0.08943 0.03788 0.74819 0.0
O176 O 0.04063 0.96256 0.83516 0.0
O177 O 1.00625 0.97056 0.66072 0.0
O178 O 1.01098 0.0429 0.49537 0.0
O179 O 0.9645 0.02658 0.56657 0.0
O180 O 1.00297 1.01806 0.9071 0.0
O181 O 0.96039 0.02516 0.80578 0.0
O182 O 1.02092 0.07454 0.73456 0.0
O183 O 0.04981 0.06517 0.9235 0.0
H184 H 1.02208 0.97713 0.09151 0.0
H185 H 1.0025 0.92371 0.05107 0.0
H186 H 0.09205 0.88416 0.18319 0.0
H187 H 0.1163 0.93797 0.16597 0.0
H188 H 1.00961 0.08972 0.33086 0.0
H189 H 0.99337 0.14507 0.30205 0.0
H190 H 0.90461 0.12592 0.51264 0.0
H191 H 0.92135 0.06985 0.54742 0.0
Tb192 Tb 0.52822 0.04304 0.87599 0.0
Tb193 Tb 0.52226 0.99036 0.68494 0.0
C194 C 0.54126 0.07193 0.08673 0.0
C195 C 0.57018 0.0654 0.16082 0.0
C196 C 0.58553 0.03739 0.12091 0.0
C197 C 0.61846 0.03633 0.11537 0.0
C198 C 0.63664 0.06033 0.17662 0.0
C199 C 0.62119 0.08707 0.23299 0.0
C200 C 0.58797 0.09036 0.21862 0.0
C201 C 0.52104 0.07375 0.64086 0.0
C202 C 0.59388 1.01325 0.73815 0.0
C203 C 0.49955 0.96616 0.4762 0.0
C204 C 0.46805 0.97752 0.43139 0.0
C205 C 0.45645 1.00432 0.49867 0.0
C206 C 0.42511 1.01343 0.48902 0.0
C207 C 0.40504 0.99912 0.39591 0.0
C208 C 0.41624 0.97271 0.32149 0.0
C209 C 0.44767 0.96127 0.34232 0.0
C210 C 0.53391 0.96103 0.91856 0.0
C211 C 0.45793 1.01729 0.84006 0.0
O212 O 0.52019 0.04835 0.08279 0.0
O213 O 0.54839 0.08293 0.96734 0.0
O214 O 0.52147 0.04286 0.65932 0.0
O215 O 0.52085 0.08634 0.75817 0.0
O216 O 0.58016 0.03178 0.83122 0.0
O217 O 0.57518 0.99514 0.66067 0.0
O218 O 0.52228 0.98803 0.47404 0.0
O219 O 0.49832 0.95171 0.5924 0.0
O220 O 0.53171 0.99149 0.89731 0.0
O221 O 0.53344 0.94714 0.80263 0.0
O222 O 0.47176 0.99465 0.76663 0.0
O223 O 0.47581 0.03996 0.89345 0.0
H224 H 0.57203 1.01836 0.0743 0.0
H225 H 0.62983 1.01602 0.06746 0.0
H226 H 0.6349 0.10596 0.28089 0.0
H227 H 0.57674 0.11287 0.24366 0.0
H228 H 0.47172 1.01874 0.56063 0.0
H229 H 0.41727 0.03395 0.54557 0.0
H230 H 0.40083 0.96113 0.24916 0.0
H231 H 0.45589 0.9405 0.28865 0.0
Tb232 Tb 0.49671 0.52434 0.87358 0.0
Tb233 Tb 0.5432 0.52117 0.69207 0.0
C234 C 0.4649 0.54303 0.06875 0.0
C235 C 0.47316 0.57348 0.13014 0.0
C236 C 0.5057 0.58217 0.12583 0.0
C237 C 0.51425 0.61406 0.11655 0.0
C238 C 0.49173 0.63793 0.1408 0.0
C239 C 0.45927 0.62935 0.15984 0.0
C240 C 0.44981 0.59731 0.14562 0.0
C241 C 0.46993 0.51215 0.63358 0.0
C242 C 0.52296 0.59174 0.74459 0.0
C243 C 0.57833 0.50643 0.497 0.0
C244 C 0.58609 0.47492 0.44171 0.0
C245 C 0.56667 0.46153 0.34142 0.0
C246 C 0.56853 0.42889 0.31437 0.0
C247 C 0.58981 0.40966 0.38744 0.0
C248 C 0.61145 0.42342 0.47699 0.0
C249 C 0.60984 0.45605 0.50323 0.0
C250 C 0.57001 0.533 0.93353 0.0
C251 C 0.51617 0.45383 0.82262 0.0
O252 O 0.48649 0.52055 0.07996 0.0
O253 O 0.45506 0.54632 0.94566 0.0
O254 O 0.49293 0.53168 0.65835 0.0
O255 O 0.46223 0.49877 0.74665 0.0
O256 O 0.50866 0.577 0.84706 0.0
O257 O 0.53748 0.57336 0.65625 0.0
O258 O 0.54856 0.51553 0.48422 0.0
O259 O 0.58892 0.51158 0.61763 0.0
O260 O 0.54709 0.51336 0.90807 0.0
O261 O 0.57714 0.54714 0.82149 0.0
O262 O 0.53194 0.46813 0.72149 0.0
O263 O 0.50091 0.47249 0.90744 0.0
H264 H 0.52436 0.56457 0.11012 0.0
H265 H 0.53896 0.62037 0.09635 0.0
H266 H 0.44119 0.64743 0.17815 0.0
H267 H 0.42452 0.59142 0.1396 0.0
H268 H 0.54857 0.47572 0.29094 0.0
H269 H 0.55178 0.41822 0.24433 0.0
H270 H 0.62812 0.4086 0.5325 0.0
H271 H 0.62574 0.46597 0.57821 0.0
Tb272 Tb 1.01835 0.49383 0.87398 0.0
Tb273 Tb 1.02139 0.54115 0.6957 0.0
C274 C 1.00288 0.46237 0.07758 0.0
C275 C 0.97518 0.4721 0.1555 0.0
C276 C 0.96658 0.50432 0.13901 0.0
C277 C 0.93473 0.51249 0.13279 0.0
C278 C 0.911 0.49022 0.16779 0.0
C279 C 0.91985 0.4589 0.20667 0.0
C280 C 0.95194 0.44944 0.1951 0.0
C281 C 0.03144 0.46788 0.63283 0.0
C282 C 0.95068 0.51938 0.74678 0.0
C283 C 0.03816 0.57781 0.50805 0.0
C284 C 0.07103 0.58662 0.46849 0.0
C285 C 0.08672 0.56849 0.37025 0.0
C286 C 0.11971 0.57126 0.35359 0.0
C287 C 0.13738 0.59179 0.43637 0.0
C288 C 0.12182 0.61154 0.52838 0.0
C289 C 0.08861 0.60929 0.54328 0.0
C290 C 1.00968 0.56719 0.93846 0.0
C291 C 0.08883 0.5153 0.82299 0.0
O292 O 0.02666 0.48289 0.07695 0.0
O293 O 0.99528 0.45349 0.95662 0.0
O294 O 1.01157 0.49047 0.6577 0.0
O295 O 0.04399 0.45973 0.74613 0.0
O296 O 0.96525 0.50466 0.84854 0.0
O297 O 0.96933 0.5345 0.65944 0.0
O298 O 0.03025 0.54778 0.49022 0.0
O299 O 0.02912 0.58789 0.62537 0.0
O300 O 0.02898 0.54426 0.91102 0.0
O301 O 0.99543 0.5743 0.82734 0.0
O302 O 0.07455 0.53275 0.7282 0.0
O303 O 0.07048 0.49736 0.90063 0.0
H304 H 0.98401 0.52236 0.10923 0.0
H305 H 0.92846 0.53644 0.10062 0.0
H306 H 0.90182 0.44139 0.23658 0.0
H307 H 0.95814 0.42434 0.2066 0.0
H308 H 0.07379 0.55092 0.31131 0.0
H309 H 0.13175 0.5558 0.28237 0.0
H310 H 0.13549 0.6273 0.59305 0.0
H311 H 0.07711 0.62374 0.61939 0.0
C312 C 0.14221 0.04759 0.35641 0.0
C313 C 0.15312 1.01661 0.31625 0.0
C314 C 0.10939 0.99292 0.45704 0.0
C315 C 0.1015 0.02335 0.51319 0.0
N316 N 0.11328 0.08018 0.51869 0.0
N317 N 0.15165 0.95987 0.36327 0.0
C318 C 0.11902 0.05075 0.46402 0.0
C319 C 0.138 0.98939 0.3773 0.0
N320 N 0.15265 0.07414 0.2876 0.0
N321 N 0.08927 0.96726 0.47458 0.0
H322 H 0.17302 0.95641 0.3103 0.0
H323 H 0.14359 0.93962 0.4157 0.0
H324 H 0.06651 0.96909 0.51667 0.0
H325 H 0.09329 0.94498 0.43094 0.0
H326 H 0.1431 0.09696 0.30152 0.0
H327 H 0.16889 0.07299 0.208 0.0
H328 H 0.12798 0.10013 0.50123 0.0
H329 H 0.09464 0.08434 0.5865 0.0
C330 C 0.54046 0.14948 0.41671 0.0
C331 C 0.51755 0.14686 0.31125 0.0
C332 C 0.5048 0.09157 0.39749 0.0
C333 C 0.52381 0.09589 0.51415 0.0
N334 N 0.56244 0.12973 0.62678 0.0
N335 N 0.47496 0.11564 0.21297 0.0
C336 C 0.54214 0.12526 0.52125 0.0
C337 C 0.49879 0.11795 0.30615 0.0
N338 N 0.56263 0.17384 0.41176 0.0
N339 N 0.49443 0.0615 0.36823 0.0
H340 H 0.46894 0.13459 0.14921 0.0
H341 H 0.45936 0.09615 0.20624 0.0
H342 H 0.50439 0.04204 0.41762 0.0
H343 H 0.48122 0.0555 0.28373 0.0
H344 H 0.58255 0.17522 0.47416 0.0
H345 H 0.5629 0.19148 0.33737 0.0
H346 H 0.5721 0.15197 0.65252 0.0
H347 H 0.56948 0.1111 0.69001 0.0
C348 C 0.40626 0.48328 0.37126 0.0
C349 C 0.39348 0.51259 0.32138 0.0
C350 C 0.4351 0.54185 0.45396 0.0
C351 C 0.44609 0.51265 0.51463 0.0
N352 N 0.43979 0.45507 0.53206 0.0
N353 N 0.39149 0.56995 0.34131 0.0
C354 C 0.43074 0.48334 0.47372 0.0
C355 C 0.40675 0.54185 0.37074 0.0
N356 N 0.39581 0.45506 0.31684 0.0
N357 N 0.452 0.56972 0.47154 0.0
H358 H 0.37103 0.57083 0.28132 0.0
H359 H 0.39733 0.59182 0.38545 0.0
H360 H 0.47376 0.57101 0.52154 0.0
H361 H 0.44641 0.59124 0.42383 0.0
H362 H 0.40657 0.43296 0.33489 0.0
H363 H 0.37738 0.45397 0.24644 0.0
H364 H 0.42652 0.43387 0.52488 0.0
H365 H 0.46023 0.45293 0.59135 0.0
C366 C 1.01214 0.38955 0.43123 0.0
C367 C 0.03298 0.39255 0.31759 0.0
C368 C 0.04784 0.44763 0.39848 0.0
C369 C 0.02918 0.44343 0.51751 0.0
N370 N 0.9943 0.40932 0.64897 0.0
N371 N 0.07293 0.42421 0.20021 0.0
C372 C 1.01165 0.414 0.5339 0.0
C373 C 0.05124 0.42172 0.30324 0.0
N374 N 0.99138 0.36401 0.43794 0.0
N375 N 0.06237 0.47671 0.37615 0.0
H376 H 0.07701 0.4057 0.13239 0.0
H377 H 0.0888 0.44336 0.18692 0.0
H378 H 0.06156 0.49528 0.44567 0.0
H379 H 0.07335 0.4834 0.28632 0.0
H380 H 0.97309 0.36165 0.5087 0.0
H381 H 0.99068 0.34599 0.366 0.0
H382 H 0.98402 0.38747 0.67709 0.0
H383 H 0.99106 0.42728 0.71989 0.0
C384 C 0.92176 0.98191 0.21581 0.0
C385 C 0.90317 1.00815 0.26457 0.0
C386 C 0.9329 0.04346 0.09989 0.0
C387 C 0.95127 1.01694 0.05096 0.0
N388 N 0.95473 0.95966 0.03833 0.0
N389 N 0.89191 0.06466 0.253 0.0
C390 C 0.94358 0.98595 0.1039 0.0
C391 C 0.90885 0.03909 0.20513 0.0
N392 N 0.91867 0.95257 0.27645 0.0
N393 N 0.93817 0.07298 0.04289 0.0
H394 H 0.87511 0.06265 0.33037 0.0
H395 H 0.89476 0.08825 0.22082 0.0
H396 H 0.95643 0.07713 0.97296 0.0
H397 H 0.92471 0.09339 0.06178 0.0
H398 H 0.93479 0.93395 0.26072 0.0
H399 H 0.90097 0.94725 0.34756 0.0
H400 H 0.94639 0.9364 0.05689 0.0
H401 H 0.97045 0.96148 0.95716 0.0
C402 C 0.51199 0.90112 0.21213 0.0
C403 C 0.53939 0.90326 0.29851 0.0
C404 C 0.56115 0.94513 0.14184 0.0
C405 C 0.53504 0.94211 0.05215 0.0
N406 N 0.48706 0.91235 0.99615 0.0
N407 N 0.57358 0.94694 0.37504 0.0
C408 C 0.51093 0.91863 0.08593 0.0
C409 C 0.55982 0.93058 0.27217 0.0
N410 N 0.48475 0.88654 0.25978 0.0
N411 N 0.58857 0.96035 0.10132 0.0
H412 H 0.56577 0.94369 0.47367 0.0
H413 H 0.58716 0.96782 0.35995 0.0
H414 H 0.59157 0.96923 0.00398 0.0
H415 H 0.6091 0.96098 0.16102 0.0
H416 H 0.46326 0.88511 0.20712 0.0
H417 H 0.48197 0.88093 0.36123 0.0
H418 H 0.4715 0.89276 0.00463 0.0
H419 H 0.4842 0.92531 0.90746 0.0
C420 C 0.63417 0.50367 0.19889 0.0
C421 C 0.6424 0.53283 0.26658 0.0
C422 C 0.60384 0.56134 0.11519 0.0
C423 C 0.59404 0.53205 0.05269 0.0
N424 N 0.60609 0.47631 0.01663 0.0
N425 N 0.63362 0.58972 0.28791 0.0
C426 C 0.61085 0.50345 0.09047 0.0
C427 C 0.62673 0.5616 0.22372 0.0
N428 N 0.64769 0.47565 0.24213 0.0
N429 N 0.59261 0.58967 0.06489 0.0
H430 H 0.65322 0.59247 0.3516 0.0
H431 H 0.61929 0.61009 0.28226 0.0
H432 H 0.57544 0.59077 0.9897 0.0
H433 H 0.60157 0.61218 0.09053 0.0
H434 H 0.64098 0.45299 0.20892 0.0
H435 H 0.66422 0.47461 0.32005 0.0
H436 H 0.61947 0.45542 0.02618 0.0
H437 H 0.59017 0.47534 0.93676 0.0
C438 C 0.98144 0.63017 0.20647 0.0
C439 C 1.0107 0.64183 0.26263 0.0
C440 C 0.04028 0.60343 0.11401 0.0
C441 C 1.01078 0.59139 0.05779 0.0
N442 N 0.95319 0.59677 0.04532 0.0
N443 N 0.06826 0.64287 0.25516 0.0
C444 C 0.98148 0.60593 0.10304 0.0
C445 C 0.04017 0.62952 0.21076 0.0
N446 N 0.95311 0.64229 0.25383 0.0
N447 N 0.06865 0.58985 0.07589 0.0
H448 H 0.06892 0.66079 0.32764 0.0
H449 H 0.09098 0.63759 0.21828 0.0
H450 H 0.07005 0.5697 0.01598 0.0
H451 H 0.0912 0.5969 0.10897 0.0
H452 H 0.93059 0.63247 0.23443 0.0
H453 H 0.95205 0.66207 0.31737 0.0
H454 H 0.93162 0.60899 0.05566 0.0
H455 H 0.95122 0.57705 0.98243 0.0
C456 C 0.95301 0.21404 0.21981 0.0
C457 C 0.97751 0.22535 0.30546 0.0
C458 C 0.95352 0.19467 0.48579 0.0
C459 C 0.94027 0.17398 0.38923 0.0
N460 N 0.92087 0.16728 0.16517 0.0
N461 N 0.9972 0.23178 0.52995 0.0
C462 C 0.93659 0.18555 0.25706 0.0
C463 C 0.97603 0.21816 0.44311 0.0
N464 N 0.94761 0.22918 0.10079 0.0
N465 N 0.94449 0.19169 0.61585 0.0
H466 H 1.01367 0.24937 0.49919 0.0
H467 H 0.99873 0.22472 0.63014 0.0
H468 H 0.92769 0.17432 0.64574 0.0
H469 H 0.95029 0.20923 0.68584 0.0
H470 H 0.92904 0.22267 0.03648 0.0
H471 H 0.96026 0.25001 0.07387 0.0
H472 H 0.92095 0.17244 0.06283 0.0
H473 H 0.9088 0.14625 0.19359 0.0
C474 C 0.31596 1.01916 0.37568 0.0
C475 C 0.31903 0.05185 0.33509 0.0
C476 C 0.376 0.04976 0.35045 0.0
C477 C 0.37445 1.01585 0.3707 0.0
N478 N 0.3429 0.96942 0.43703 0.0
N479 N 0.34803 0.10033 0.37126 0.0
C480 C 0.3443 1.00066 0.39452 0.0
C481 C 0.34772 0.06776 0.36275 0.0
N482 N 0.28603 1.00604 0.38951 0.0
N483 N 0.40359 0.06415 0.30553 0.0
H484 H 0.32663 0.1133 0.36697 0.0
H485 H 0.36879 0.11335 0.39371 0.0
H486 H 0.42375 0.05097 0.27747 0.0
H487 H 0.40486 0.08845 0.28052 0.0
H488 H 0.28134 0.98161 0.40082 0.0
H489 H 0.26568 1.02047 0.39271 0.0
H490 H 0.32172 0.95735 0.4616 0.0
H491 H 0.36337 0.95569 0.45388 0.0
C492 C 0.55274 0.32793 0.435 0.0
C493 C 0.56774 0.31282 0.32724 0.0
C494 C 0.60644 0.35608 0.30302 0.0
C495 C 0.58598 0.37478 0.3852 0.0
N496 N 0.53972 0.37905 0.53246 0.0
N497 N 0.61567 0.30363 0.20277 0.0
C498 C 0.5597 0.36063 0.45636 0.0
C499 C 0.59779 0.32366 0.28037 0.0
N500 N 0.53003 0.31151 0.50691 0.0
N501 N 0.63181 0.37009 0.2373 0.0
H502 H 0.6078 0.28023 0.18339 0.0
H503 H 0.63849 0.30919 0.16617 0.0
H504 H 0.63839 0.39404 0.25138 0.0
H505 H 0.64567 0.3585 0.16553 0.0
H506 H 0.51911 0.32048 0.59298 0.0
H507 H 0.52458 0.28757 0.48503 0.0
H508 H 0.51803 0.37063 0.57206 0.0
H509 H 0.54395 0.40336 0.55009 0.0
C510 C 0.22033 0.59571 0.30364 0.0
C511 C 0.2302 0.56508 0.34731 0.0
C512 C 0.18555 0.56059 0.49938 0.0
C513 C 0.17231 0.58841 0.43795 0.0
N514 N 0.17921 0.63589 0.30032 0.0
N515 N 0.2326 0.52697 0.52629 0.0
C516 C 0.19095 0.60777 0.35024 0.0
C517 C 0.21677 0.55117 0.46254 0.0
N518 N 0.23668 0.61169 0.20535 0.0
N519 N 0.16686 0.54104 0.57765 0.0
H520 H 0.25523 0.51949 0.49361 0.0
H521 H 0.22476 0.51687 0.61663 0.0
H522 H 0.14313 0.54658 0.60124 0.0
H523 H 0.17413 0.51844 0.61046 0.0
H524 H 0.25812 0.60319 0.16412 0.0
H525 H 0.25812 0.60319 0.16412 0.0
H526 H 0.19197 0.64984 0.23063 0.0
H527 H 0.15716 0.64524 0.3309 0.0
C528 C 0.98442 0.83292 0.16985 0.0
C529 C 1.0068 0.80856 0.1868 0.0
C530 C 0.04606 0.84113 0.06884 0.0
C531 C 0.0291 0.86835 0.11693 0.0
N532 N 0.98221 0.88699 0.24409 0.0
N533 N 0.05549 0.78442 0.10974 0.0
C534 C 0.99718 0.8641 0.16898 0.0
C535 C 0.03603 0.81056 0.11589 0.0
N536 N 0.95276 0.82684 0.1933 0.0
N537 N 0.07134 0.84453 0.98246 0.0
H538 H 0.04775 0.76199 0.14488 0.0
H539 H 0.07907 0.78539 0.07431 0.0
H540 H 0.07815 0.86687 0.94339 0.0
H541 H 0.08312 0.82502 0.93999 0.0
H542 H 0.93533 0.84465 0.18437 0.0
H543 H 0.94456 0.8034 0.21079 0.0
H544 H 0.96025 0.88272 0.2919 0.0
H545 H 0.99362 0.90769 0.27829 0.0
C546 C 0.72647 0.07559 0.19162 0.0
C547 C 0.73541 0.04579 0.24512 0.0
C548 C 0.68241 0.02467 0.23103 0.0
C549 C 0.67141 0.05534 0.18852 0.0
N550 N 0.68469 0.10636 0.08246 0.0
N551 N 0.72627 0.98856 0.24811 0.0
C552 C 0.69403 0.07981 0.15247 0.0
C553 C 0.71529 1.01889 0.22788 0.0
N554 N 0.74845 0.09995 0.18912 0.0
N555 N 0.66238 1.00252 0.29001 0.0
H556 H 0.75065 0.98342 0.25938 0.0
H557 H 0.75065 0.98342 0.25938 0.0
H558 H 0.63899 1.00779 0.3204 0.0
H559 H 0.67047 0.98009 0.32226 0.0
H560 H 0.743 0.12353 0.16304 0.0
H561 H 0.77227 0.09593 0.21722 0.0
H562 H 0.70076 0.12388 0.0483 0.0
H563 H 0.66132 0.10915 0.04707 0.0
C564 C 0.54399 0.70954 0.22013 0.0
C565 C 0.52023 0.73315 0.21734 0.0
C566 C 0.48599 0.6973 0.09222 0.0
C567 C 0.50328 0.67135 0.15132 0.0
N568 N 0.5469 0.65713 0.30667 0.0
N569 N 0.47291 0.75393 0.11613 0.0
C570 C 0.53266 0.67803 0.21981 0.0
C571 C 0.49307 0.72876 0.13688 0.0
N572 N 0.57376 0.71669 0.26788 0.0
N573 N 0.46334 0.692 0.99654 0.0
H574 H 0.47879 0.77691 0.15027 0.0
H575 H 0.45058 0.75171 0.07027 0.0
H576 H 0.45891 0.66926 0.95742 0.0
H577 H 0.45143 0.71056 0.94741 0.0
H578 H 0.59092 0.69893 0.28515 0.0
H579 H 0.58083 0.74047 0.28436 0.0
H580 H 0.5369 0.63527 0.33771 0.0
H581 H 0.5369 0.63527 0.33771 0.0
C582 C 0.82049 0.48801 0.14042 0.0
C583 C 0.81417 0.51652 0.20931 0.0
C584 C 0.86909 0.53127 0.2195 0.0
C585 C 0.8773 0.50076 0.16491 0.0
N586 N 0.86041 0.45624 0.02493 0.0
N587 N 0.828 0.5718 0.23539 0.0
C588 C 0.85284 0.48108 0.10749 0.0
C589 C 0.8371 0.54115 0.20875 0.0
N590 N 0.79604 0.46668 0.12089 0.0
N591 N 0.8895 0.5477 0.30189 0.0
H592 H 0.80371 0.57779 0.24318 0.0
H593 H 0.84445 0.5908 0.23878 0.0
H594 H 0.9111 0.53824 0.33635 0.0
H595 H 0.8828 0.56861 0.35154 0.0
H596 H 0.79929 0.44356 0.08408 0.0
H597 H 0.77242 0.47253 0.14692 0.0
H598 H 0.84315 0.44186 0.97918 0.0
H599 H 0.88388 0.45203 0.99276 0.0
C600 C 1.01541 0.17697 0.89399 0.0
C601 C 0.04412 0.1899 0.95018 0.0
C602 C 0.06981 0.13656 0.91105 0.0
C603 C 0.03984 0.1226 0.86776 0.0
N604 N 0.98454 0.13196 0.80663 0.0
N605 N 0.09985 0.18333 0.99616 0.0
C606 C 1.01297 0.14369 0.85461 0.0
C607 C 0.07172 0.16995 0.95292 0.0
N608 N 0.98925 0.19647 0.8893 0.0
N609 N 0.0967 0.11786 0.91016 0.0
H610 H 0.10146 0.20756 0.02186 0.0
H611 H 0.12166 0.17145 0.00292 0.0
H612 H 0.09728 0.09528 0.86603 0.0
H613 H 0.11888 0.12465 0.94826 0.0
H614 H 0.96572 0.18809 0.88472 0.0
H615 H 0.99136 0.22136 0.89849 0.0
H616 H 0.96521 0.14614 0.77959 0.0
H617 H 0.97966 0.10776 0.79231 0.0
C618 C 0.36828 0.04563 0.82862 0.0
C619 C 0.35223 0.02272 0.91201 0.0
C620 C 0.40412 0.99304 0.92688 0.0
C621 C 0.42109 1.01818 0.85859 0.0
N622 N 0.41837 0.07028 0.752 0.0
N623 N 0.35656 0.9728 0.03593 0.0
C624 C 0.40277 0.04492 0.8113 0.0
C625 C 0.37045 0.99587 0.95747 0.0
N626 N 0.35011 0.06808 0.76427 0.0
N627 N 0.42039 0.96667 0.97051 0.0
H628 H 0.33237 0.97281 0.06403 0.0
H629 H 0.33237 0.97281 0.06403 0.0
H630 H 0.44516 0.96438 0.95977 0.0
H631 H 0.40895 0.94722 0.01732 0.0
H632 H 0.35911 0.08365 0.69101 0.0
H633 H 0.32514 0.06867 0.77491 0.0
H634 H 0.4074 0.0921 0.73043 0.0
H635 H 0.44278 0.06996 0.72807 0.0
C636 C 0.54143 0.36288 0.85826 0.0
C637 C 0.51389 0.3486 0.92011 0.0
C638 C 0.48568 0.40071 0.88265 0.0
C639 C 0.51502 0.41668 0.84326 0.0
N640 N 0.57217 0.41111 0.80475 0.0
N641 N 0.45915 0.35446 0.9893 0.0
C642 C 0.54314 0.39709 0.83266 0.0
C643 C 0.48576 0.36771 0.93007 0.0
N644 N 0.56632 0.34331 0.82398 0.0
N645 N 0.4573 0.41676 0.87096 0.0
H646 H 0.45801 0.33021 0.01618 0.0
H647 H 0.43892 0.36752 0.01662 0.0
H648 H 0.45582 0.43995 0.83218 0.0
H649 H 0.43488 0.40617 0.88655 0.0
H650 H 0.58586 0.35085 0.76602 0.0
H651 H 0.56546 0.31856 0.84139 0.0
H652 H 0.59392 0.39898 0.81111 0.0
H653 H 0.57508 0.43544 0.78422 0.0
C654 C 0.17676 0.54478 0.89964 0.0
C655 C 0.19257 0.51563 0.93525 0.0
C656 C 0.1435 0.48661 0.85661 0.0
C657 C 0.12565 0.51588 0.84679 0.0
N658 N 0.127 0.57374 0.86305 0.0
N659 N 0.19024 0.45809 0.94412 0.0
C660 C 0.1429 0.54519 0.86884 0.0
C661 C 0.17578 0.48633 0.91096 0.0
N662 N 0.1946 0.5724 0.89407 0.0
N663 N 0.13001 0.45903 0.80876 0.0
H664 H 0.21393 0.45716 0.97759 0.0
H665 H 0.17842 0.43598 0.94424 0.0
H666 H 0.10739 0.4586 0.76429 0.0
H667 H 0.14241 0.43749 0.79992 0.0
H668 H 0.18596 0.59408 0.85667 0.0
H669 H 0.21923 0.57263 0.91368 0.0
H670 H 0.13682 0.59531 0.89628 0.0
H671 H 0.1033 0.57578 0.83168 0.0
C672 C 0.04973 0.86159 0.65781 0.0
C673 C 1.02046 0.84352 0.65455 0.0
C674 C 0.99224 0.89462 0.71929 0.0
C675 C 1.02158 0.91301 0.71558 0.0
N676 N 0.07947 0.91088 0.69215 0.0
N677 N 0.965 0.84203 0.71678 0.0
C678 C 0.05049 0.89536 0.6904 0.0
C679 C 0.99215 0.85998 0.6966 0.0
N680 N 0.078 0.84698 0.62805 0.0
N681 N 0.96405 0.91039 0.74112 0.0
H682 H 0.96474 0.81722 0.70213 0.0
H683 H 0.94398 0.85078 0.75957 0.0
H684 H 0.96306 0.93498 0.75884 0.0
H685 H 0.94146 0.89976 0.73377 0.0
H686 H 0.07989 0.82254 0.6067 0.0
H687 H 0.07989 0.82254 0.6067 0.0
H688 H 0.10112 0.89921 0.67284 0.0
H689 H 0.08206 0.93522 0.71284 0.0
C690 C 0.68507 0.04092 0.73188 0.0
C691 C 0.70155 1.01465 0.672 0.0
C692 C 0.64899 0.9847 0.68748 0.0
C693 C 0.63141 1.01323 0.72066 0.0
N694 N 0.63536 0.07083 0.7483 0.0
N695 N 0.69683 0.96114 0.58529 0.0
C696 C 0.65032 0.04185 0.73784 0.0
C697 C 0.68278 0.98635 0.64893 0.0
N698 N 0.70297 0.06596 0.77874 0.0
N699 N 0.63397 0.95556 0.69785 0.0
H700 H 0.72124 0.96095 0.56123 0.0
H701 H 0.68392 0.94143 0.55004 0.0
H702 H 0.61048 0.95292 0.73312 0.0
H703 H 0.64594 0.93382 0.68674 0.0
H704 H 0.69317 0.08509 0.83133 0.0
H705 H 0.72807 0.06571 0.77603 0.0
H706 H 0.64769 0.09267 0.74823 0.0
H707 H 0.61067 0.07358 0.73908 0.0
C708 C 0.54855 0.68297 0.69622 0.0
C709 C 0.51852 0.69864 0.67342 0.0
C710 C 0.49164 0.64505 0.71177 0.0
C711 C 0.52161 0.62895 0.72689 0.0
N712 N 0.5786 0.63469 0.75773 0.0
N713 N 0.46065 0.69281 0.67759 0.0
C714 C 0.55001 0.64868 0.72635 0.0
C715 C 0.49018 0.67922 0.6889 0.0
N716 N 0.5761 0.70063 0.68142 0.0
N717 N 0.46369 0.62769 0.71537 0.0
H718 H 0.45706 0.71743 0.66469 0.0
H719 H 0.45706 0.71743 0.66469 0.0
H720 H 0.46294 0.60287 0.72903 0.0
H721 H 0.44119 0.63822 0.70317 0.0
H722 H 0.59905 0.6909 0.67911 0.0
H723 H 0.5759 0.72543 0.66717 0.0
H724 H 0.59961 0.64743 0.77752 0.0
H725 H 0.5809 0.61003 0.77211 0.0
C726 C 0.86071 0.54611 0.68148 0.0
C727 C 0.84363 0.51633 0.67073 0.0
C728 C 0.89607 0.48857 0.71798 0.0
C729 C 0.91325 0.51837 0.72856 0.0
N730 N 0.90924 0.57592 0.74219 0.0
N731 N 0.84474 0.45949 0.70553 0.0
C732 C 0.89462 0.54716 0.71705 0.0
C733 C 0.8614 0.4878 0.69919 0.0
N734 N 0.84479 0.57369 0.6498 0.0
N735 N 0.9132 0.46067 0.71636 0.0
H736 H 0.81983 0.45858 0.69369 0.0
H737 H 0.85475 0.43769 0.73422 0.0
H738 H 0.93809 0.46004 0.72673 0.0
H739 H 0.90334 0.43835 0.69382 0.0
H740 H 0.85601 0.59588 0.63613 0.0
H741 H 0.82014 0.57398 0.63133 0.0
H742 H 0.89689 0.59741 0.75317 0.0
H743 H 0.9337 0.57797 0.76163 0.0
loop_
_geom_bond_atom_site_label_1
_geom_bond_atom_site_label_2
_geom_bond_distance
_geom_bond_site_symmetry_2
_ccdc_geom_bond_type
H0 C1 0.949 . S
C1 H0 0.949 . S
C1 C2 1.395 . S
C1 C3 1.391 . S
C2 C1 1.395 . S
C2 C5 1.390 . S
C3 C1 1.391 . S
C3 C7 1.387 . S
C3 C8 1.491 . S
H4 C5 0.950 . S
C5 C2 1.390 . S
C5 H4 0.950 . S
C5 C6 1.378 . S
C6 C5 1.378 . S
C6 C7 1.409 . S
C7 C3 1.387 . S
C7 C6 1.409 . S
C7 H9 0.951 . S
C8 C3 1.491 . S
C8 C10 1.382 . S
C8 C12 1.404 . S
H9 C7 0.951 . S
C10 C8 1.382 . S
C10 C11 1.390 . S
C10 H15 0.949 . S
C11 C10 1.390 . S
C11 C16 1.399 . S
C12 C8 1.404 . S
C12 H13 0.950 . S
C12 C14 1.375 . S
H13 C12 0.950 . S
C14 C12 1.375 . S
C14 C16 1.382 . S
C14 H18 0.950 . S
H15 C10 0.949 . S
C16 C11 1.399 . S
C16 C14 1.382 . S
C16 H17 0.952 . S
H17 C16 0.952 . S
H18 C14 0.950 . S
H19 C20 0.949 . S
C20 H19 0.949 . S
C20 C21 1.395 . S
C20 C22 1.391 . S
C21 C20 1.395 . S
C21 C24 1.390 1_655 S
C22 C20 1.391 . S
C22 C26 1.387 . S
C22 C27 1.491 . S
H23 C24 0.950 . S
C24 C21 1.390 1_455 S
C24 H23 0.950 . S
C24 C25 1.377 1_455 S
C25 C24 1.377 1_655 S
C25 C26 1.413 . S
C26 C22 1.387 . S
C26 C25 1.413 . S
C26 H28 0.951 . S
C27 C22 1.491 . S
C27 C29 1.382 . S
C27 C31 1.404 . S
H28 C26 0.951 . S
C29 C27 1.382 . S
C29 C30 1.390 . S
C29 H34 0.949 1_655 S
C30 C29 1.390 . S
C30 C35 1.399 . S
C31 C27 1.404 . S
C31 H32 0.950 . S
C31 C33 1.375 . S
H32 C31 0.950 . S
C33 C31 1.375 . S
C33 C35 1.382 . S
C33 H37 0.950 . S
H34 C29 0.949 1_455 S
C35 C30 1.399 . S
C35 C33 1.382 . S
C35 H36 0.952 . S
H36 C35 0.952 . S
H37 C33 0.950 . S
H38 C39 0.949 . S
C39 H38 0.949 . S
C39 C40 1.395 . S
C39 C41 1.391 . S
C40 C39 1.395 . S
C40 C43 1.390 1_565 S
C41 C39 1.391 . S
C41 C45 1.387 . S
C41 C46 1.491 . S
H42 C43 0.950 . S
C43 C40 1.390 1_545 S
C43 H42 0.950 . S
C43 C44 1.377 1_545 S
C44 C43 1.377 1_565 S
C44 C45 1.413 . S
C45 C41 1.387 . S
C45 C44 1.413 . S
C45 H47 0.951 . S
C46 C41 1.491 . S
C46 C48 1.382 . S
C46 C50 1.404 . S
H47 C45 0.951 . S
C48 C46 1.382 . S
C48 C49 1.390 . S
C48 H53 0.949 1_565 S
C49 C48 1.390 . S
C49 C54 1.399 . S
C50 C46 1.404 . S
C50 H51 0.950 . S
C50 C52 1.375 . S
H51 C50 0.950 . S
C52 C50 1.375 . S
C52 C54 1.382 . S
C52 H56 0.950 . S
H53 C48 0.949 1_545 S
C54 C49 1.399 . S
C54 C52 1.382 . S
C54 H55 0.952 . S
H55 C54 0.952 . S
H56 C52 0.950 . S
H57 C58 0.949 . S
C58 H57 0.949 . S
C58 C59 1.395 . S
C58 C60 1.391 . S
C59 C58 1.395 . S
C59 C62 1.390 . S
C60 C58 1.391 . S
C60 C64 1.387 . S
C60 C65 1.491 . S
H61 C62 0.950 . S
C62 C59 1.390 . S
C62 H61 0.950 . S
C62 C63 1.378 . S
C63 C62 1.378 . S
C63 C64 1.409 . S
C64 C60 1.387 . S
C64 C63 1.409 . S
C64 H66 0.951 . S
C65 C60 1.491 . S
C65 C67 1.382 . S
C65 C69 1.404 . S
H66 C64 0.951 . S
C67 C65 1.382 . S
C67 C68 1.390 . S
C67 H72 0.949 . S
C68 C67 1.390 . S
C68 C73 1.399 . S
C69 C65 1.404 . S
C69 H70 0.950 . S
C69 C71 1.375 . S
H70 C69 0.950 . S
C71 C69 1.375 . S
C71 C73 1.382 . S
C71 H75 0.950 . S
H72 C67 0.949 . S
C73 C68 1.399 . S
C73 C71 1.382 . S
C73 H74 0.952 . S
H74 C73 0.952 . S
H75 C71 0.950 . S
H76 C77 0.949 . S
C77 H76 0.949 . S
C77 C78 1.395 . S
C77 C79 1.391 1_554 S
C78 C77 1.395 . S
C78 C81 1.390 1_554 S
C79 C77 1.391 1_556 S
C79 C83 1.387 . S
C79 C84 1.491 . S
H80 C81 0.950 . S
C81 C78 1.390 1_556 S
C81 H80 0.950 . S
C81 C82 1.378 . S
C82 C81 1.378 . S
C82 C83 1.409 . S
C83 C79 1.387 . S
C83 C82 1.409 . S
C83 H85 0.951 . S
C84 C79 1.491 . S
C84 C86 1.382 1_556 S
C84 C88 1.404 . S
H85 C83 0.951 . S
C86 C84 1.382 1_554 S
C86 C87 1.390 . S
C86 H91 0.949 . S
C87 C86 1.390 . S
C87 C92 1.399 1_554 S
C88 C84 1.404 . S
C88 H89 0.950 . S
C88 C90 1.375 . S
H89 C88 0.950 . S
C90 C88 1.375 . S
C90 C92 1.382 . S
C90 H94 0.950 . S
H91 C86 0.949 . S
C92 C87 1.399 1_556 S
C92 C90 1.382 . S
C92 H93 0.952 . S
H93 C92 0.952 . S
H94 C90 0.950 . S
H95 C96 0.949 . S
C96 H95 0.949 . S
C96 C97 1.394 . S
C96 C98 1.391 1_554 S
C97 C96 1.394 . S
C97 C100 1.390 1_654 S
C98 C96 1.391 1_556 S
C98 C102 1.387 . S
C98 C103 1.491 . S
H99 C100 0.950 . S
C100 C97 1.390 1_456 S
C100 H99 0.950 . S
C100 C101 1.377 1_455 S
C101 C100 1.377 1_655 S
C101 C102 1.411 . S
C102 C98 1.387 . S
C102 C101 1.411 . S
C102 H104 0.951 . S
C103 C98 1.491 . S
C103 C105 1.382 1_556 S
C103 C107 1.404 . S
H104 C102 0.951 . S
C105 C103 1.382 1_554 S
C105 C106 1.390 . S
C105 H110 0.949 1_655 S
C106 C105 1.390 . S
C106 C111 1.404 . S
C107 C103 1.404 . S
C107 H108 0.950 . S
C107 C109 1.375 . S
H108 C107 0.950 . S
C109 C107 1.375 . S
C109 C111 1.377 1_556 S
C109 H113 0.950 . S
H110 C105 0.949 1_455 S
C111 C106 1.404 . S
C111 C109 1.377 1_554 S
C111 H112 0.952 . S
H112 C111 0.952 . S
H113 C109 0.950 . S
H114 C115 0.949 . S
C115 H114 0.949 . S
C115 C116 1.394 . S
C115 C117 1.391 1_554 S
C116 C115 1.394 . S
C116 C119 1.390 1_564 S
C117 C115 1.391 1_556 S
C117 C121 1.387 . S
C117 C122 1.491 . S
H118 C119 0.950 . S
C119 C116 1.390 1_546 S
C119 H118 0.950 . S
C119 C120 1.377 1_545 S
C120 C119 1.377 1_565 S
C120 C121 1.411 . S
C121 C117 1.387 . S
C121 C120 1.411 . S
C121 H123 0.951 . S
C122 C117 1.491 . S
C122 C124 1.382 1_556 S
C122 C126 1.404 . S
H123 C121 0.951 . S
C124 C122 1.382 1_554 S
C124 C125 1.390 . S
C124 H129 0.949 1_565 S
C125 C124 1.390 . S
C125 C130 1.398 1_554 S
C126 C122 1.404 . S
C126 H127 0.950 . S
C126 C128 1.375 . S
H127 C126 0.950 . S
C128 C126 1.375 . S
C128 C130 1.383 . S
C128 H132 0.950 . S
H129 C124 0.949 1_545 S
C130 C125 1.398 1_556 S
C130 C128 1.383 . S
C130 H131 0.951 1_556 S
H131 C130 0.951 1_554 S
H132 C128 0.950 . S
H133 C134 0.949 . S
C134 H133 0.949 . S
C134 C135 1.395 . S
C134 C136 1.391 1_554 S
C135 C134 1.395 . S
C135 C138 1.390 1_554 S
C136 C134 1.391 1_556 S
C136 C140 1.387 . S
C136 C141 1.491 . S
H137 C138 0.950 . S
C138 C135 1.390 1_556 S
C138 H137 0.950 . S
C138 C139 1.378 . S
C139 C138 1.378 . S
C139 C140 1.409 . S
C140 C136 1.387 . S
C140 C139 1.409 . S
C140 H142 0.951 . S
C141 C136 1.491 . S
C141 C143 1.382 1_556 S
C141 C145 1.404 . S
H142 C140 0.951 . S
C143 C141 1.382 1_554 S
C143 C144 1.390 . S
C143 H148 0.949 . S
C144 C143 1.390 . S
C144 C149 1.399 1_554 S
C145 C141 1.404 . S
C145 H146 0.950 . S
C145 C147 1.375 . S
H146 C145 0.950 . S
C147 C145 1.375 . S
C147 C149 1.382 . S
C147 H151 0.950 . S
H148 C143 0.949 . S
C149 C144 1.399 1_556 S
C149 C147 1.382 . S
C149 H150 0.952 . S
H150 C149 0.952 . S
H151 C147 0.950 . S
Tb152 C154 2.809 1_556 S
Tb152 O172 2.484 1_556 S
Tb152 O173 2.440 1_556 S
Tb152 O174 2.658 1_565 S
Tb152 O175 2.409 . S
Tb152 O176 2.378 . S
Tb152 O180 2.325 1_455 S
Tb152 O183 2.341 1_565 S
Tb153 C163 2.809 . S
Tb153 O174 2.325 1_655 S
Tb153 O177 2.341 1_545 S
Tb153 O178 2.484 . S
Tb153 O179 2.440 . S
Tb153 O180 2.658 1_545 S
Tb153 O181 2.409 . S
Tb153 O182 2.378 . S
C154 Tb152 2.809 1_554 S
C154 C155 1.514 . S
C154 O172 1.248 . S
C154 O173 1.266 . S
C155 C154 1.514 . S
C155 C156 1.359 . S
C155 C160 1.348 . S
C156 C155 1.359 . S
C156 C157 1.380 . S
C156 H184 0.929 1_455 S
C157 C156 1.380 . S
C157 C158 1.347 . S
C157 H185 0.931 1_455 S
C158 C157 1.347 . S
C158 C159 1.369 . S
C159 C158 1.369 . S
C159 C160 1.408 . S
C159 H186 0.930 . S
C160 C155 1.348 . S
C160 C159 1.408 . S
C160 H187 0.930 . S
C161 O174 1.281 1_565 S
C161 O175 1.254 . S
C162 O176 1.236 1_655 S
C162 O177 1.266 . S
C163 Tb153 2.809 . S
C163 C164 1.514 . S
C163 O178 1.248 . S
C163 O179 1.266 . S
C164 C163 1.514 . S
C164 C165 1.359 . S
C164 C169 1.348 . S
C165 C164 1.359 . S
C165 C166 1.380 . S
C165 H188 0.929 1_655 S
C166 C165 1.380 . S
C166 C167 1.347 . S
C166 H189 0.931 1_655 S
C167 C166 1.347 . S
C167 C168 1.369 . S
C168 C167 1.369 . S
C168 C169 1.408 . S
C168 H190 0.930 . S
C169 C164 1.348 . S
C169 C168 1.408 . S
C169 H191 0.930 . S
C170 O180 1.281 1_545 S
C170 O181 1.254 . S
C171 O182 1.236 1_455 S
C171 O183 1.266 . S
O172 Tb152 2.484 1_554 S
O172 C154 1.248 . S
O173 Tb152 2.440 1_554 S
O173 C154 1.266 . S
O174 Tb152 2.658 1_545 S
O174 Tb153 2.325 1_455 S
O174 C161 1.281 1_545 S
O175 Tb152 2.409 . S
O175 C161 1.254 . S
O176 Tb152 2.378 . S
O176 C162 1.236 1_455 S
O177 Tb153 2.341 1_565 S
O177 C162 1.266 . S
O178 Tb153 2.484 . S
O178 C163 1.248 . S
O179 Tb153 2.440 . S
O179 C163 1.266 . S
O180 Tb152 2.325 1_655 S
O180 Tb153 2.658 1_565 S
O180 C170 1.281 1_565 S
O181 Tb153 2.409 . S
O181 C170 1.254 . S
O182 Tb153 2.378 . S
O182 C171 1.236 1_655 S
O183 Tb152 2.341 1_545 S
O183 C171 1.266 . S
H184 C156 0.929 1_655 S
H185 C157 0.931 1_655 S
H186 C159 0.930 . S
H187 C160 0.930 . S
H188 C165 0.929 1_455 S
H189 C166 0.931 1_455 S
H190 C168 0.930 . S
H191 C169 0.930 . S
Tb192 C194 2.809 1_556 S
Tb192 O212 2.484 1_556 S
Tb192 O213 2.440 1_556 S
Tb192 O214 2.658 . S
Tb192 O215 2.409 . S
Tb192 O216 2.378 . S
Tb192 O220 2.325 1_545 S
Tb192 O223 2.341 . S
Tb193 C203 2.809 . S
Tb193 O214 2.325 1_565 S
Tb193 O217 2.341 . S
Tb193 O218 2.498 . S
Tb193 O219 2.440 . S
Tb193 O220 2.658 . S
Tb193 O221 2.409 . S
Tb193 O222 2.378 . S
C194 Tb192 2.809 1_554 S
C194 C195 1.514 . S
C194 O212 1.248 . S
C194 O213 1.266 . S
C195 C194 1.514 . S
C195 C196 1.359 . S
C195 C200 1.348 . S
C196 C195 1.359 . S
C196 C197 1.380 . S
C196 H224 0.929 1_545 S
C197 C196 1.380 . S
C197 C198 1.347 . S
C197 H225 0.931 1_545 S
C198 C197 1.347 . S
C198 C199 1.369 . S
C199 C198 1.369 . S
C199 C200 1.408 . S
C199 H226 0.930 . S
C200 C195 1.348 . S
C200 C199 1.408 . S
C200 H227 0.930 . S
C201 O214 1.281 . S
C201 O215 1.254 . S
C202 O216 1.236 1_565 S
C202 O217 1.266 . S
C203 Tb193 2.809 . S
C203 C204 1.514 . S
C203 O218 1.279 . S
C203 O219 1.266 . S
C204 C203 1.514 . S
C204 C205 1.359 . S
C204 C209 1.348 . S
C205 C204 1.359 . S
C205 C206 1.380 . S
C205 H228 0.929 1_565 S
C206 C205 1.380 . S
C206 C207 1.347 . S
C206 H229 0.931 1_565 S
C207 C206 1.347 . S
C207 C208 1.369 . S
C208 C207 1.369 . S
C208 C209 1.408 . S
C208 H230 0.930 . S
C209 C204 1.348 . S
C209 C208 1.408 . S
C209 H231 0.930 . S
C210 O220 1.281 . S
C210 O221 1.254 . S
C211 O222 1.236 1_545 S
C211 O223 1.266 . S
O212 Tb192 2.484 1_554 S
O212 C194 1.248 . S
O213 Tb192 2.440 1_554 S
O213 C194 1.266 . S
O214 Tb192 2.658 . S
O214 Tb193 2.325 1_545 S
O214 C201 1.281 . S
O215 Tb192 2.409 . S
O215 C201 1.254 . S
O216 Tb192 2.378 . S
O216 C202 1.236 1_545 S
O217 Tb193 2.341 . S
O217 C202 1.266 . S
O218 Tb193 2.498 . S
O218 C203 1.279 . S
O219 Tb193 2.440 . S
O219 C203 1.266 . S
O220 Tb192 2.325 1_565 S
O220 Tb193 2.658 . S
O220 C210 1.281 . S
O221 Tb193 2.409 . S
O221 C210 1.254 . S
O222 Tb193 2.378 . S
O222 C211 1.236 1_565 S
O223 Tb192 2.341 . S
O223 C211 1.266 . S
H224 C196 0.929 1_565 S
H225 C197 0.931 1_565 S
H226 C199 0.930 . S
H227 C200 0.930 . S
H228 C205 0.929 1_545 S
H229 C206 0.931 1_545 S
H230 C208 0.930 . S
H231 C209 0.930 . S
Tb232 C234 2.809 1_556 S
Tb232 O252 2.484 1_556 S
Tb232 O253 2.440 1_556 S
Tb232 O254 2.658 . S
Tb232 O255 2.409 . S
Tb232 O256 2.378 . S
Tb232 O260 2.325 . S
Tb232 O263 2.341 . S
Tb233 C243 2.809 . S
Tb233 O254 2.325 . S
Tb233 O257 2.341 . S
Tb233 O258 2.484 . S
Tb233 O259 2.440 . S
Tb233 O260 2.658 . S
Tb233 O261 2.409 . S
Tb233 O262 2.378 . S
C234 Tb232 2.809 1_554 S
C234 C235 1.514 . S
C234 O252 1.248 . S
C234 O253 1.266 . S
C235 C234 1.514 . S
C235 C236 1.359 . S
C235 C240 1.348 . S
C236 C235 1.359 . S
C236 C237 1.380 . S
C236 H264 0.929 . S
C237 C236 1.380 . S
C237 C238 1.347 . S
C237 H265 0.931 . S
C238 C237 1.347 . S
C238 C239 1.369 . S
C239 C238 1.369 . S
C239 C240 1.408 . S
C239 H266 0.930 . S
C240 C235 1.348 . S
C240 C239 1.408 . S
C240 H267 0.930 . S
C241 O254 1.281 . S
C241 O255 1.254 . S
C242 O256 1.236 . S
C242 O257 1.266 . S
C243 Tb233 2.809 . S
C243 C244 1.514 . S
C243 O258 1.248 . S
C243 O259 1.266 . S
C244 C243 1.514 . S
C244 C245 1.359 . S
C244 C249 1.348 . S
C245 C244 1.359 . S
C245 C246 1.380 . S
C245 H268 0.929 . S
C246 C245 1.380 . S
C246 C247 1.347 . S
C246 H269 0.931 . S
C247 C246 1.347 . S
C247 C248 1.369 . S
C248 C247 1.369 . S
C248 C249 1.408 . S
C248 H270 0.930 . S
C249 C244 1.348 . S
C249 C248 1.408 . S
C249 H271 0.930 . S
C250 O260 1.281 . S
C250 O261 1.254 . S
C251 O262 1.236 . S
C251 O263 1.266 . S
O252 Tb232 2.484 1_554 S
O252 C234 1.248 . S
O253 Tb232 2.440 1_554 S
O253 C234 1.266 . S
O254 Tb232 2.658 . S
O254 Tb233 2.325 . S
O254 C241 1.281 . S
O255 Tb232 2.409 . S
O255 C241 1.254 . S
O256 Tb232 2.378 . S
O256 C242 1.236 . S
O257 Tb233 2.341 . S
O257 C242 1.266 . S
O258 Tb233 2.484 . S
O258 C243 1.248 . S
O259 Tb233 2.440 . S
O259 C243 1.266 . S
O260 Tb232 2.325 . S
O260 Tb233 2.658 . S
O260 C250 1.281 . S
O261 Tb233 2.409 . S
O261 C250 1.254 . S
O262 Tb233 2.378 . S
O262 C251 1.236 . S
O263 Tb232 2.341 . S
O263 C251 1.266 . S
H264 C236 0.929 . S
H265 C237 0.931 . S
H266 C239 0.930 . S
H267 C240 0.930 . S
H268 C245 0.929 . S
H269 C246 0.931 . S
H270 C248 0.930 . S
H271 C249 0.930 . S
Tb272 C274 2.809 1_556 S
Tb272 O292 2.484 1_556 S
Tb272 O293 2.440 1_556 S
Tb272 O294 2.658 1_655 S
Tb272 O295 2.409 . S
Tb272 O296 2.378 . S
Tb272 O300 2.325 . S
Tb272 O303 2.341 1_655 S
Tb273 C283 2.809 . S
Tb273 O294 2.325 . S
Tb273 O297 2.341 1_455 S
Tb273 O298 2.484 . S
Tb273 O299 2.440 . S
Tb273 O300 2.658 1_455 S
Tb273 O301 2.409 . S
Tb273 O302 2.378 . S
C274 Tb272 2.809 1_554 S
C274 C275 1.514 . S
C274 O292 1.248 . S
C274 O293 1.266 . S
C275 C274 1.514 . S
C275 C276 1.359 . S
C275 C280 1.348 . S
C276 C275 1.359 . S
C276 C277 1.380 . S
C276 H304 0.929 . S
C277 C276 1.380 . S
C277 C278 1.347 . S
C277 H305 0.931 . S
C278 C277 1.347 . S
C278 C279 1.369 . S
C279 C278 1.369 . S
C279 C280 1.408 . S
C279 H306 0.930 . S
C280 C275 1.348 . S
C280 C279 1.408 . S
C280 H307 0.930 . S
C281 O294 1.274 1_655 S
C281 O295 1.263 . S
C282 O296 1.236 . S
C282 O297 1.266 . S
C283 Tb273 2.809 . S
C283 C284 1.514 . S
C283 O298 1.248 . S
C283 O299 1.266 . S
C284 C283 1.514 . S
C284 C285 1.359 . S
C284 C289 1.348 . S
C285 C284 1.359 . S
C285 C286 1.380 . S
C285 H308 0.929 . S
C286 C285 1.380 . S
C286 C287 1.347 . S
C286 H309 0.931 . S
C287 C286 1.347 . S
C287 C288 1.369 . S
C288 C287 1.369 . S
C288 C289 1.408 . S
C288 H310 0.930 . S
C289 C284 1.348 . S
C289 C288 1.408 . S
C289 H311 0.930 . S
C290 O300 1.272 1_455 S
C290 O301 1.266 . S
C291 O302 1.236 . S
C291 O303 1.266 . S
O292 Tb272 2.484 1_554 S
O292 C274 1.248 . S
O293 Tb272 2.440 1_554 S
O293 C274 1.266 . S
O294 Tb272 2.658 1_455 S
O294 Tb273 2.325 . S
O294 C281 1.274 1_455 S
O295 Tb272 2.409 . S
O295 C281 1.263 . S
O296 Tb272 2.378 . S
O296 C282 1.236 . S
O297 Tb273 2.341 1_655 S
O297 C282 1.266 . S
O298 Tb273 2.484 . S
O298 C283 1.248 . S
O299 Tb273 2.440 . S
O299 C283 1.266 . S
O300 Tb272 2.325 . S
O300 Tb273 2.658 1_655 S
O300 C290 1.272 1_655 S
O301 Tb273 2.409 . S
O301 C290 1.266 . S
O302 Tb273 2.378 . S
O302 C291 1.236 . S
O303 Tb272 2.341 1_455 S
O303 C291 1.266 . S
H304 C276 0.929 . S
H305 C277 0.931 . S
H306 C279 0.930 . S
H307 C280 0.930 . S
H308 C285 0.929 . S
H309 C286 0.931 . S
H310 C288 0.930 . S
H311 C289 0.930 . S
C312 C313 1.365 1_545 S
C312 C318 1.379 . S
C312 N320 1.356 . S
C313 C312 1.365 1_565 S
C313 C319 1.361 . S
C314 C315 1.368 . S
C314 C319 1.379 . S
C314 N321 1.356 . S
C315 C314 1.368 . S
C315 C318 1.359 1_565 S
N316 C318 1.356 . S
N316 H328 0.984 . S
N316 H329 0.985 . S
N317 C319 1.356 . S
N317 H322 0.984 . S
N317 H323 0.985 . S
C318 C312 1.379 . S
C318 C315 1.359 1_545 S
C318 N316 1.356 . S
C319 C313 1.361 . S
C319 C314 1.379 . S
C319 N317 1.356 . S
N320 C312 1.356 . S
N320 H326 0.984 . S
N320 H327 0.984 . S
N321 C314 1.356 . S
N321 H324 0.984 . S
N321 H325 0.985 . S
H322 N317 0.984 . S
H323 N317 0.985 . S
H324 N321 0.984 . S
H325 N321 0.985 . S
H326 N320 0.984 . S
H327 N320 0.984 . S
H328 N316 0.984 . S
H329 N316 0.985 . S
C330 C331 1.363 . S
C330 C336 1.379 . S
C330 N338 1.356 . S
C331 C330 1.363 . S
C331 C337 1.363 . S
C332 C333 1.363 . S
C332 C337 1.379 . S
C332 N339 1.356 . S
C333 C332 1.363 . S
C333 C336 1.363 . S
N334 C336 1.356 . S
N334 H346 0.984 . S
N334 H347 0.985 . S
N335 C337 1.356 . S
N335 H340 0.984 . S
N335 H341 0.985 . S
C336 C330 1.379 . S
C336 C333 1.363 . S
C336 N334 1.356 . S
C337 C331 1.363 . S
C337 C332 1.379 . S
C337 N335 1.356 . S
N338 C330 1.356 . S
N338 H344 0.984 . S
N338 H345 0.984 . S
N339 C332 1.356 . S
N339 H342 0.984 . S
N339 H343 0.985 . S
H340 N335 0.984 . S
H341 N335 0.985 . S
H342 N339 0.984 . S
H343 N339 0.985 . S
H344 N338 0.984 . S
H345 N338 0.984 . S
H346 N334 0.984 . S
H347 N334 0.985 . S
C348 C349 1.363 . S
C348 C354 1.379 . S
C348 N356 1.356 . S
C349 C348 1.363 . S
C349 C355 1.363 . S
C350 C351 1.363 . S
C350 C355 1.379 . S
C350 N357 1.356 . S
C351 C350 1.363 . S
C351 C354 1.363 . S
N352 C354 1.356 . S
N352 H364 0.984 . S
N352 H365 0.985 . S
N353 C355 1.356 . S
N353 H358 0.984 . S
N353 H359 0.985 . S
C354 C348 1.379 . S
C354 C351 1.363 . S
C354 N352 1.356 . S
C355 C349 1.363 . S
C355 C350 1.379 . S
C355 N353 1.356 . S
N356 C348 1.356 . S
N356 H362 0.984 . S
N356 H363 0.984 . S
N357 C350 1.356 . S
N357 H360 0.984 . S
N357 H361 0.985 . S
H358 N353 0.984 . S
H359 N353 0.985 . S
H360 N357 0.984 . S
H361 N357 0.985 . S
H362 N356 0.984 . S
H363 N356 0.984 . S
H364 N352 0.984 . S
H365 N352 0.985 . S
C366 C367 1.359 1_655 S
C366 C372 1.379 . S
C366 N374 1.356 . S
C367 C366 1.359 1_455 S
C367 C373 1.367 . S
C368 C369 1.375 . S
C368 C373 1.379 . S
C368 N375 1.356 . S
C369 C368 1.375 . S
C369 C372 1.352 1_455 S
N370 C372 1.356 . S
N370 H382 0.984 . S
N370 H383 0.985 . S
N371 C373 1.356 . S
N371 H376 0.984 . S
N371 H377 0.985 . S
C372 C366 1.379 . S
C372 C369 1.352 1_655 S
C372 N370 1.356 . S
C373 C367 1.367 . S
C373 C368 1.379 . S
C373 N371 1.356 . S
N374 C366 1.356 . S
N374 H380 0.984 . S
N374 H381 0.984 . S
N375 C368 1.356 . S
N375 H378 0.984 . S
N375 H379 0.985 . S
H376 N371 0.984 . S
H377 N371 0.985 . S
H378 N375 0.984 . S
H379 N375 0.985 . S
H380 N374 0.984 . S
H381 N374 0.984 . S
H382 N370 0.984 . S
H383 N370 0.985 . S
C384 C385 1.360 1_565 S
C384 C390 1.379 . S
C384 N392 1.356 . S
C385 C384 1.360 1_545 S
C385 C391 1.366 . S
C386 C387 1.374 . S
C386 C391 1.379 . S
C386 N393 1.356 1_554 S
C387 C386 1.374 . S
C387 C390 1.353 1_545 S
N388 C390 1.356 . S
N388 H400 0.984 . S
N388 H401 0.985 . S
N389 C391 1.356 . S
N389 H394 0.984 . S
N389 H395 0.985 . S
C390 C384 1.379 . S
C390 C387 1.353 1_565 S
C390 N388 1.356 . S
C391 C385 1.366 . S
C391 C386 1.379 . S
C391 N389 1.356 . S
N392 C384 1.356 . S
N392 H398 0.984 . S
N392 H399 0.984 . S
N393 C386 1.356 1_556 S
N393 H396 0.984 . S
N393 H397 0.985 . S
H394 N389 0.984 . S
H395 N389 0.985 . S
H396 N393 0.984 . S
H397 N393 0.985 . S
H398 N392 0.984 . S
H399 N392 0.984 . S
H400 N388 0.984 . S
H401 N388 0.985 . S
C402 C403 1.363 . S
C402 C408 1.379 . S
C402 N410 1.356 . S
C403 C402 1.363 . S
C403 C409 1.363 . S
C404 C405 1.363 . S
C404 C409 1.379 . S
C404 N411 1.356 . S
C405 C404 1.363 . S
C405 C408 1.363 . S
N406 C408 1.356 1_556 S
N406 H418 0.984 . S
N406 H419 0.985 . S
N407 C409 1.356 . S
N407 H412 0.984 . S
N407 H413 0.985 . S
C408 C402 1.379 . S
C408 C405 1.363 . S
C408 N406 1.356 1_554 S
C409 C403 1.363 . S
C409 C404 1.379 . S
C409 N407 1.356 . S
N410 C402 1.356 . S
N410 H416 0.984 . S
N410 H417 0.984 . S
N411 C404 1.356 . S
N411 H414 0.984 . S
N411 H415 0.985 . S
H412 N407 0.984 . S
H413 N407 0.985 . S
H414 N411 0.984 . S
H415 N411 0.985 . S
H416 N410 0.984 . S
H417 N410 0.984 . S
H418 N406 0.984 . S
H419 N406 0.985 . S
C420 C421 1.363 . S
C420 C426 1.379 . S
C420 N428 1.356 . S
C421 C420 1.363 . S
C421 C427 1.363 . S
C422 C423 1.363 . S
C422 C427 1.379 . S
C422 N429 1.356 . S
C423 C422 1.363 . S
C423 C426 1.363 . S
N424 C426 1.356 1_556 S
N424 H436 0.984 . S
N424 H437 0.985 . S
N425 C427 1.356 . S
N425 H430 0.984 . S
N425 H431 0.985 . S
C426 C420 1.379 . S
C426 C423 1.363 . S
C426 N424 1.356 1_554 S
C427 C421 1.363 . S
C427 C422 1.379 . S
C427 N425 1.356 . S
N428 C420 1.356 . S
N428 H434 0.984 . S
N428 H435 0.984 . S
N429 C422 1.356 . S
N429 H432 0.984 . S
N429 H433 0.985 . S
H430 N425 0.984 . S
H431 N425 0.985 . S
H432 N429 0.984 . S
H433 N429 0.985 . S
H434 N428 0.984 . S
H435 N428 0.984 . S
H436 N424 0.984 . S
H437 N424 0.985 . S
C438 C439 1.370 . S
C438 C444 1.379 . S
C438 N446 1.356 . S
C439 C438 1.370 . S
C439 C445 1.357 1_655 S
C440 C441 1.344 1_455 S
C440 C445 1.379 . S
C440 N447 1.356 . S
C441 C440 1.344 1_655 S
C441 C444 1.382 . S
N442 C444 1.356 1_556 S
N442 H454 0.984 . S
N442 H455 0.985 . S
N443 C445 1.356 . S
N443 H448 0.984 . S
N443 H449 0.985 . S
C444 C438 1.379 . S
C444 C441 1.382 . S
C444 N442 1.356 1_554 S
C445 C439 1.357 1_455 S
C445 C440 1.379 . S
C445 N443 1.356 . S
N446 C438 1.356 . S
N446 H452 0.984 . S
N446 H453 0.984 . S
N447 C440 1.356 . S
N447 H450 0.984 . S
N447 H451 0.985 . S
H448 N443 0.984 . S
H449 N443 0.985 . S
H450 N447 0.984 . S
H451 N447 0.985 . S
H452 N446 0.984 . S
H453 N446 0.984 . S
H454 N442 0.984 . S
H455 N442 0.985 . S
C456 C457 1.367 . S
C456 C462 1.379 . S
C456 N464 1.356 1_554 S
C457 C456 1.367 . S
C457 C463 1.364 . S
C458 C459 1.363 . S
C458 C463 1.379 . S
C458 N465 1.356 . S
C459 C458 1.363 . S
C459 C462 1.363 . S
N460 C462 1.356 . S
N460 H472 0.984 1_554 S
N460 H473 0.985 . S
N461 C463 1.356 1_455 S
N461 H466 0.984 . S
N461 H467 0.985 . S
C462 C456 1.379 . S
C462 C459 1.363 . S
C462 N460 1.356 . S
C463 C457 1.364 . S
C463 C458 1.379 . S
C463 N461 1.356 1_655 S
N464 C456 1.356 1_556 S
N464 H470 0.984 . S
N464 H471 0.984 1_655 S
N465 C458 1.356 . S
N465 H468 0.984 . S
N465 H469 0.985 . S
H466 N461 0.984 . S
H467 N461 0.985 . S
H468 N465 0.984 . S
H469 N465 0.985 . S
H470 N464 0.984 . S
H471 N464 0.984 1_455 S
H472 N460 0.984 1_556 S
H473 N460 0.985 . S
C474 C475 1.373 . S
C474 C480 1.379 . S
C474 N482 1.356 . S
C475 C474 1.373 . S
C475 C481 1.359 1_565 S
C476 C477 1.363 . S
C476 C481 1.379 1_565 S
C476 N483 1.356 . S
C477 C476 1.363 . S
C477 C480 1.363 . S
N478 C480 1.356 . S
N478 H490 0.984 . S
N478 H491 0.985 . S
N479 C481 1.356 . S
N479 H484 0.984 . S
N479 H485 0.985 . S
C480 C474 1.379 . S
C480 C477 1.363 . S
C480 N478 1.356 . S
C481 C475 1.359 1_545 S
C481 C476 1.379 1_545 S
C481 N479 1.356 . S
N482 C474 1.356 . S
N482 H488 0.984 . S
N482 H489 0.984 . S
N483 C476 1.356 . S
N483 H486 0.984 . S
N483 H487 0.985 1_565 S
H484 N479 0.984 . S
H485 N479 0.985 . S
H486 N483 0.984 . S
H487 N483 0.985 1_545 S
H488 N482 0.984 . S
H489 N482 0.984 . S
H490 N478 0.984 . S
H491 N478 0.985 . S
C492 C493 1.363 . S
C492 C498 1.379 . S
C492 N500 1.356 . S
C493 C492 1.363 . S
C493 C499 1.363 . S
C494 C495 1.363 . S
C494 C499 1.379 . S
C494 N501 1.356 . S
C495 C494 1.363 . S
C495 C498 1.363 . S
N496 C498 1.356 . S
N496 H508 0.984 . S
N496 H509 0.985 . S
N497 C499 1.356 1_556 S
N497 H502 0.984 . S
N497 H503 0.985 . S
C498 C492 1.379 . S
C498 C495 1.363 . S
C498 N496 1.356 . S
C499 C493 1.363 . S
C499 C494 1.379 . S
C499 N497 1.356 1_554 S
N500 C492 1.356 . S
N500 H506 0.984 . S
N500 H507 0.984 . S
N501 C494 1.356 . S
N501 H504 0.984 . S
N501 H505 0.985 1_554 S
H502 N497 0.984 . S
H503 N497 0.985 . S
H504 N501 0.984 . S
H505 N501 0.985 1_556 S
H506 N500 0.984 . S
H507 N500 0.984 . S
H508 N496 0.984 . S
H509 N496 0.985 . S
C510 C511 1.363 . S
C510 C516 1.379 . S
C510 N518 1.356 1_554 S
C511 C510 1.363 . S
C511 C517 1.363 . S
C512 C513 1.363 . S
C512 C517 1.379 . S
C512 N519 1.356 . S
C513 C512 1.363 . S
C513 C516 1.363 . S
N514 C516 1.356 . S
N514 H526 0.984 1_554 S
N514 H527 0.985 . S
N515 C517 1.356 . S
N515 H520 0.984 . S
N515 H521 0.985 . S
C516 C510 1.379 . S
C516 C513 1.363 . S
C516 N514 1.356 . S
C517 C511 1.363 . S
C517 C512 1.379 . S
C517 N515 1.356 . S
N518 C510 1.356 1_556 S
N518 H524 0.984 . S
N518 H525 0.984 . S
N519 C512 1.356 . S
N519 H522 0.984 . S
N519 H523 0.985 . S
H520 N515 0.984 . S
H521 N515 0.985 . S
H522 N519 0.984 . S
H523 N519 0.985 . S
H524 N518 0.984 . S
H525 N518 0.984 . S
H526 N514 0.984 1_556 S
H527 N514 0.985 . S
C528 C529 1.361 1_655 S
C528 C534 1.379 1_655 S
C528 N536 1.356 . S
C529 C528 1.361 1_455 S
C529 C535 1.369 . S
C530 C531 1.363 . S
C530 C535 1.379 . S
C530 N537 1.356 . S
C531 C530 1.363 . S
C531 C534 1.363 . S
N532 C534 1.356 . S
N532 H544 0.984 1_455 S
N532 H545 0.985 . S
N533 C535 1.356 . S
N533 H538 0.984 . S
N533 H539 0.985 . S
C534 C528 1.379 1_455 S
C534 C531 1.363 . S
C534 N532 1.356 . S
C535 C529 1.369 . S
C535 C530 1.379 . S
C535 N533 1.356 . S
N536 C528 1.356 . S
N536 H542 0.984 . S
N536 H543 0.984 . S
N537 C530 1.356 . S
N537 H540 0.984 . S
N537 H541 0.985 . S
H538 N533 0.984 . S
H539 N533 0.985 . S
H540 N537 0.984 . S
H541 N537 0.985 . S
H542 N536 0.984 . S
H543 N536 0.984 . S
H544 N532 0.984 1_655 S
H545 N532 0.985 . S
C546 C547 1.370 . S
C546 C552 1.379 . S
C546 N554 1.356 . S
C547 C546 1.370 . S
C547 C553 1.367 . S
C548 C549 1.363 . S
C548 C553 1.379 . S
C548 N555 1.356 . S
C549 C548 1.363 . S
C549 C552 1.363 . S
N550 C552 1.356 . S
N550 H562 0.984 . S
N550 H563 0.985 . S
N551 C553 1.356 1_565 S
N551 H556 0.984 . S
N551 H557 0.985 . S
C552 C546 1.379 . S
C552 C549 1.363 . S
C552 N550 1.356 . S
C553 C547 1.367 . S
C553 C548 1.379 . S
C553 N551 1.356 1_545 S
N554 C546 1.356 . S
N554 H560 0.984 . S
N554 H561 0.984 1_545 S
N555 C548 1.356 . S
N555 H558 0.984 . S
N555 H559 0.985 . S
H556 N551 0.984 . S
H557 N551 0.985 . S
H558 N555 0.984 . S
H559 N555 0.985 . S
H560 N554 0.984 . S
H561 N554 0.984 1_565 S
H562 N550 0.984 . S
H563 N550 0.985 . S
C564 C565 1.363 . S
C564 C570 1.379 . S
C564 N572 1.356 . S
C565 C564 1.363 . S
C565 C571 1.363 . S
C566 C567 1.363 . S
C566 C571 1.379 . S
C566 N573 1.356 . S
C567 C566 1.363 . S
C567 C570 1.363 . S
N568 C570 1.356 . S
N568 H580 0.984 . S
N568 H581 0.985 . S
N569 C571 1.356 . S
N569 H574 0.984 . S
N569 H575 0.985 . S
C570 C564 1.379 . S
C570 C567 1.363 . S
C570 N568 1.356 . S
C571 C565 1.363 . S
C571 C566 1.379 . S
C571 N569 1.356 . S
N572 C564 1.356 . S
N572 H578 0.984 . S
N572 H579 0.984 . S
N573 C566 1.356 . S
N573 H576 0.984 . S
N573 H577 0.985 . S
H574 N569 0.984 . S
H575 N569 0.985 . S
H576 N573 0.984 . S
H577 N573 0.985 . S
H578 N572 0.984 . S
H579 N572 0.984 . S
H580 N568 0.984 . S
H581 N568 0.985 . S
C582 C583 1.363 . S
C582 C588 1.379 . S
C582 N590 1.356 . S
C583 C582 1.363 . S
C583 C589 1.363 . S
C584 C585 1.363 . S
C584 C589 1.379 . S
C584 N591 1.356 . S
C585 C584 1.363 . S
C585 C588 1.363 . S
N586 C588 1.356 . S
N586 H598 0.984 . S
N586 H599 0.985 . S
N587 C589 1.356 . S
N587 H592 0.984 . S
N587 H593 0.985 . S
C588 C582 1.379 . S
C588 C585 1.363 . S
C588 N586 1.356 . S
C589 C583 1.363 . S
C589 C584 1.379 . S
C589 N587 1.356 . S
N590 C582 1.356 . S
N590 H596 0.984 . S
N590 H597 0.984 . S
N591 C584 1.356 . S
N591 H594 0.984 . S
N591 H595 0.985 . S
H592 N587 0.984 . S
H593 N587 0.985 . S
H594 N591 0.984 . S
H595 N591 0.985 . S
H596 N590 0.984 . S
H597 N590 0.984 . S
H598 N586 0.984 . S
H599 N586 0.985 . S
C600 C601 1.363 1_655 S
C600 C606 1.379 . S
C600 N608 1.356 . S
C601 C600 1.363 1_455 S
C601 C607 1.363 . S
C602 C603 1.363 . S
C602 C607 1.379 . S
C602 N609 1.356 1_556 S
C603 C602 1.363 . S
C603 C606 1.363 1_455 S
N604 C606 1.356 . S
N604 H616 0.984 . S
N604 H617 0.985 . S
N605 C607 1.356 . S
N605 H610 0.984 . S
N605 H611 0.985 1_556 S
C606 C600 1.379 . S
C606 C603 1.363 1_655 S
C606 N604 1.356 . S
C607 C601 1.363 . S
C607 C602 1.379 . S
C607 N605 1.356 . S
N608 C600 1.356 . S
N608 H614 0.984 . S
N608 H615 0.984 . S
N609 C602 1.356 1_554 S
N609 H612 0.984 . S
N609 H613 0.985 . S
H610 N605 0.984 . S
H611 N605 0.985 1_554 S
H612 N609 0.984 . S
H613 N609 0.985 . S
H614 N608 0.984 . S
H615 N608 0.984 . S
H616 N604 0.984 . S
H617 N604 0.985 . S
C618 C619 1.363 . S
C618 C624 1.379 . S
C618 N626 1.356 . S
C619 C618 1.363 . S
C619 C625 1.362 1_545 S
C620 C621 1.363 . S
C620 C625 1.378 1_545 S
C620 N627 1.357 1_556 S
C621 C620 1.363 . S
C621 C624 1.363 . S
N622 C624 1.356 . S
N622 H634 0.984 . S
N622 H635 0.985 . S
N623 C625 1.358 1_554 S
N623 H628 0.984 1_554 S
N623 H629 0.985 . S
C624 C618 1.379 . S
C624 C621 1.363 . S
C624 N622 1.356 . S
C625 C619 1.362 1_565 S
C625 C620 1.378 1_565 S
C625 N623 1.358 1_556 S
N626 C618 1.356 . S
N626 H632 0.984 . S
N626 H633 0.984 . S
N627 C620 1.357 1_554 S
N627 H630 0.985 . S
N627 H631 0.983 1_545 S
H628 N623 0.984 1_556 S
H629 N623 0.985 . S
H630 N627 0.985 . S
H631 N627 0.983 1_565 S
H632 N626 0.984 . S
H633 N626 0.984 . S
H634 N622 0.984 . S
H635 N622 0.985 . S
C636 C637 1.363 . S
C636 C642 1.379 . S
C636 N644 1.356 . S
C637 C636 1.363 . S
C637 C643 1.363 . S
C638 C639 1.363 . S
C638 C643 1.379 . S
C638 N645 1.356 1_556 S
C639 C638 1.363 . S
C639 C642 1.363 . S
N640 C642 1.356 . S
N640 H652 0.984 . S
N640 H653 0.985 . S
N641 C643 1.356 . S
N641 H646 0.984 . S
N641 H647 0.985 1_556 S
C642 C636 1.379 . S
C642 C639 1.363 . S
C642 N640 1.356 . S
C643 C637 1.363 . S
C643 C638 1.379 . S
C643 N641 1.356 . S
N644 C636 1.356 . S
N644 H650 0.984 . S
N644 H651 0.984 . S
N645 C638 1.356 1_554 S
N645 H648 0.984 1_554 S
N645 H649 0.985 . S
H646 N641 0.984 . S
H647 N641 0.985 1_554 S
H648 N645 0.984 1_556 S
H649 N645 0.985 . S
H650 N644 0.984 . S
H651 N644 0.984 . S
H652 N640 0.984 . S
H653 N640 0.985 . S
C654 C655 1.363 . S
C654 C660 1.379 . S
C654 N662 1.356 . S
C655 C654 1.363 . S
C655 C661 1.363 . S
C656 C657 1.363 . S
C656 C661 1.379 . S
C656 N663 1.356 . S
C657 C656 1.363 . S
C657 C660 1.363 . S
N658 C660 1.356 . S
N658 H670 0.984 . S
N658 H671 0.985 . S
N659 C661 1.356 . S
N659 H664 0.984 . S
N659 H665 0.985 . S
C660 C654 1.379 . S
C660 C657 1.363 . S
C660 N658 1.356 . S
C661 C655 1.363 . S
C661 C656 1.379 . S
C661 N659 1.356 . S
N662 C654 1.356 . S
N662 H668 0.984 . S
N662 H669 0.984 . S
N663 C656 1.356 . S
N663 H666 0.984 . S
N663 H667 0.985 . S
H664 N659 0.984 . S
H665 N659 0.985 . S
H666 N663 0.984 . S
H667 N663 0.985 . S
H668 N662 0.984 . S
H669 N662 0.984 . S
H670 N658 0.984 . S
H671 N658 0.985 . S
C672 C673 1.363 1_455 S
C672 C678 1.379 . S
C672 N680 1.356 . S
C673 C672 1.363 1_655 S
C673 C679 1.363 . S
C674 C675 1.363 . S
C674 C679 1.379 . S
C674 N681 1.356 . S
C675 C674 1.363 . S
C675 C678 1.363 1_655 S
N676 C678 1.356 . S
N676 H688 0.984 . S
N676 H689 0.985 . S
N677 C679 1.356 . S
N677 H682 0.984 . S
N677 H683 0.985 . S
C678 C672 1.379 . S
C678 C675 1.363 1_455 S
C678 N676 1.356 . S
C679 C673 1.363 . S
C679 C674 1.379 . S
C679 N677 1.356 . S
N680 C672 1.356 . S
N680 H686 0.984 . S
N680 H687 0.984 . S
N681 C674 1.356 . S
N681 H684 0.984 . S
N681 H685 0.985 . S
H682 N677 0.984 . S
H683 N677 0.985 . S
H684 N681 0.984 . S
H685 N681 0.985 . S
H686 N680 0.984 . S
H687 N680 0.984 . S
H688 N676 0.984 . S
H689 N676 0.985 . S
C690 C691 1.363 1_545 S
C690 C696 1.379 . S
C690 N698 1.356 . S
C691 C690 1.363 1_565 S
C691 C697 1.363 . S
C692 C693 1.363 . S
C692 C697 1.379 . S
C692 N699 1.356 . S
C693 C692 1.363 . S
C693 C696 1.363 1_565 S
N694 C696 1.356 . S
N694 H706 0.984 . S
N694 H707 0.985 . S
N695 C697 1.356 . S
N695 H700 0.984 . S
N695 H701 0.985 . S
C696 C690 1.379 . S
C696 C693 1.363 1_545 S
C696 N694 1.356 . S
C697 C691 1.363 . S
C697 C692 1.379 . S
C697 N695 1.356 . S
N698 C690 1.356 . S
N698 H704 0.984 . S
N698 H705 0.984 . S
N699 C692 1.356 . S
N699 H702 0.984 . S
N699 H703 0.985 . S
H700 N695 0.984 . S
H701 N695 0.985 . S
H702 N699 0.984 . S
H703 N699 0.985 . S
H704 N698 0.984 . S
H705 N698 0.984 . S
H706 N694 0.984 . S
H707 N694 0.985 . S
C708 C709 1.363 . S
C708 C714 1.379 . S
C708 N716 1.356 . S
C709 C708 1.363 . S
C709 C715 1.363 . S
C710 C711 1.363 . S
C710 C715 1.379 . S
C710 N717 1.356 . S
C711 C710 1.363 . S
C711 C714 1.363 . S
N712 C714 1.356 . S
N712 H724 0.984 . S
N712 H725 0.985 . S
N713 C715 1.356 . S
N713 H718 0.984 . S
N713 H719 0.985 . S
C714 C708 1.379 . S
C714 C711 1.363 . S
C714 N712 1.356 . S
C715 C709 1.363 . S
C715 C710 1.379 . S
C715 N713 1.356 . S
N716 C708 1.356 . S
N716 H722 0.984 . S
N716 H723 0.984 . S
N717 C710 1.356 . S
N717 H720 0.984 . S
N717 H721 0.985 . S
H718 N713 0.984 . S
H719 N713 0.985 . S
H720 N717 0.984 . S
H721 N717 0.985 . S
H722 N716 0.984 . S
H723 N716 0.984 . S
H724 N712 0.984 . S
H725 N712 0.985 . S
C726 C727 1.363 . S
C726 C732 1.379 . S
C726 N734 1.356 . S
C727 C726 1.363 . S
C727 C733 1.363 . S
C728 C729 1.363 . S
C728 C733 1.379 . S
C728 N735 1.356 . S
C729 C728 1.363 . S
C729 C732 1.363 . S
N730 C732 1.356 . S
N730 H742 0.984 . S
N730 H743 0.985 . S
N731 C733 1.356 . S
N731 H736 0.984 . S
N731 H737 0.985 . S
C732 C726 1.379 . S
C732 C729 1.363 . S
C732 N730 1.356 . S
C733 C727 1.363 . S
C733 C728 1.379 . S
C733 N731 1.356 . S
N734 C726 1.356 . S
N734 H740 0.984 . S
N734 H741 0.984 . S
N735 C728 1.356 . S
N735 H738 0.984 . S
N735 H739 0.985 . S
H736 N731 0.984 . S
H737 N731 0.985 . S
H738 N735 0.984 . S
H739 N735 0.985 . S
H740 N734 0.984 . S
H741 N734 0.984 . S
H742 N730 0.984 . S
H743 N730 0.985 . S
C313 C125 2.093 . S
C315 C161 2.154 . S
C333 C201 2.175 . S
C331 C144 2.130 . S
C351 C241 2.186 . S
C349 C87 2.146 . S
C369 C281 2.166 1_455 S
C367 C106 2.106 1_455 S
C387 C170 2.157 1_554 S
C385 C49 2.098 1_545 S
C403 C68 2.096 . S
C405 C210 2.176 1_554 S
C421 C11 2.105 . S
C423 C250 2.185 1_554 S
C439 C30 2.106 . S
C441 C290 2.167 1_654 S
C459 C167 0.769 . S
C457 C97 0.766 . S
C477 C207 0.773 . S
C475 C116 0.771 . S
C495 C247 0.768 . S
C493 C135 0.767 . S
C511 C78 0.761 . S
C513 C287 0.758 . S
C529 C21 0.768 1_455 S
C531 C158 0.772 . S
C549 C198 0.774 . S
C547 C40 0.772 1_545 S
C567 C238 0.768 . S
C565 C59 0.767 . S
C583 C2 0.761 . S
C585 C278 0.765 . S
C601 C101 2.254 1_455 S
C603 C171 2.552 . S
C619 C120 2.213 1_545 S
C621 C211 2.515 . S
C639 C251 2.500 . S
C637 C139 2.201 . S
C657 C291 2.541 . S
C655 C82 2.238 . S
C673 C25 2.254 . S
C675 C162 2.561 . S
C693 C202 2.515 . S
C691 C44 2.212 . S
C711 C242 2.499 . S
C709 C63 2.195 . S
C727 C6 2.237 . S
C729 C282 2.544 . S
