# Generated by pormake.
# Topology tbo, (3,4)-cn, num edge types: 1
# Building blocks:
#     Node 0, Type 0, BuildingBlock: WUSLED_clean_sbu_0, # of connection points: 3
#     Node 1, Type 0, BuildingBlock: WUSLED_clean_sbu_0, # of connection points: 3
#     Node 2, Type 0, BuildingBlock: WUSLED_clean_sbu_0, # of connection points: 3
#     Node 3, Type 0, BuildingBlock: WUSLED_clean_sbu_0, # of connection points: 3
#     Node 4, Type 0, BuildingBlock: WUSLED_clean_sbu_0, # of connection points: 3
#     Node 5, Type 0, BuildingBlock: WUSLED_clean_sbu_0, # of connection points: 3
#     Node 6, Type 0, BuildingBlock: WUSLED_clean_sbu_0, # of connection points: 3
#     Node 7, Type 0, BuildingBlock: WUSLED_clean_sbu_0, # of connection points: 3
#     Node 8, Type 0, BuildingBlock: WUSLED_clean_sbu_0, # of connection points: 3
#     Node 9, Type 0, BuildingBlock: WUSLED_clean_sbu_0, # of connection points: 3
#     Node 10, Type 0, BuildingBlock: WUSLED_clean_sbu_0, # of connection points: 3
#     Node 11, Type 0, BuildingBlock: WUSLED_clean_sbu_0, # of connection points: 3
#     Node 12, Type 0, BuildingBlock: WUSLED_clean_sbu_0, # of connection points: 3
#     Node 13, Type 0, BuildingBlock: WUSLED_clean_sbu_0, # of connection points: 3
#     Node 14, Type 0, BuildingBlock: WUSLED_clean_sbu_0, # of connection points: 3
#     Node 15, Type 0, BuildingBlock: WUSLED_clean_sbu_0, # of connection points: 3
#     Node 16, Type 0, BuildingBlock: WUSLED_clean_sbu_0, # of connection points: 3
#     Node 17, Type 0, BuildingBlock: WUSLED_clean_sbu_0, # of connection points: 3
#     Node 18, Type 0, BuildingBlock: WUSLED_clean_sbu_0, # of connection points: 3
#     Node 19, Type 0, BuildingBlock: WUSLED_clean_sbu_0, # of connection points: 3
#     Node 20, Type 0, BuildingBlock: WUSLED_clean_sbu_0, # of connection points: 3
#     Node 21, Type 0, BuildingBlock: WUSLED_clean_sbu_0, # of connection points: 3
#     Node 22, Type 0, BuildingBlock: WUSLED_clean_sbu_0, # of connection points: 3
#     Node 23, Type 0, BuildingBlock: WUSLED_clean_sbu_0, # of connection points: 3
#     Node 24, Type 0, BuildingBlock: WUSLED_clean_sbu_0, # of connection points: 3
#     Node 25, Type 0, BuildingBlock: WUSLED_clean_sbu_0, # of connection points: 3
#     Node 26, Type 0, BuildingBlock: WUSLED_clean_sbu_0, # of connection points: 3
#     Node 27, Type 0, BuildingBlock: WUSLED_clean_sbu_0, # of connection points: 3
#     Node 28, Type 0, BuildingBlock: WUSLED_clean_sbu_0, # of connection points: 3
#     Node 29, Type 0, BuildingBlock: WUSLED_clean_sbu_0, # of connection points: 3
#     Node 30, Type 0, BuildingBlock: WUSLED_clean_sbu_0, # of connection points: 3
#     Node 31, Type 0, BuildingBlock: WUSLED_clean_sbu_0, # of connection points: 3
#     Node 32, Type 1, BuildingBlock: NAHDIM_clean_linker_0, # of connection points: 4
#     Node 33, Type 1, BuildingBlock: NAHDIM_clean_linker_0, # of connection points: 4
#     Node 34, Type 1, BuildingBlock: NAHDIM_clean_linker_0, # of connection points: 4
#     Node 35, Type 1, BuildingBlock: NAHDIM_clean_linker_0, # of connection points: 4
#     Node 36, Type 1, BuildingBlock: NAHDIM_clean_linker_0, # of connection points: 4
#     Node 37, Type 1, BuildingBlock: NAHDIM_clean_linker_0, # of connection points: 4
#     Node 38, Type 1, BuildingBlock: NAHDIM_clean_linker_0, # of connection points: 4
#     Node 39, Type 1, BuildingBlock: NAHDIM_clean_linker_0, # of connection points: 4
#     Node 40, Type 1, BuildingBlock: NAHDIM_clean_linker_0, # of connection points: 4
#     Node 41, Type 1, BuildingBlock: NAHDIM_clean_linker_0, # of connection points: 4
#     Node 42, Type 1, BuildingBlock: NAHDIM_clean_linker_0, # of connection points: 4
#     Node 43, Type 1, BuildingBlock: NAHDIM_clean_linker_0, # of connection points: 4
#     Node 44, Type 1, BuildingBlock: NAHDIM_clean_linker_0, # of connection points: 4
#     Node 45, Type 1, BuildingBlock: NAHDIM_clean_linker_0, # of connection points: 4
#     Node 46, Type 1, BuildingBlock: NAHDIM_clean_linker_0, # of connection points: 4
#     Node 47, Type 1, BuildingBlock: NAHDIM_clean_linker_0, # of connection points: 4
#     Node 48, Type 1, BuildingBlock: NAHDIM_clean_linker_0, # of connection points: 4
#     Node 49, Type 1, BuildingBlock: NAHDIM_clean_linker_0, # of connection points: 4
#     Node 50, Type 1, BuildingBlock: NAHDIM_clean_linker_0, # of connection points: 4
#     Node 51, Type 1, BuildingBlock: NAHDIM_clean_linker_0, # of connection points: 4
#     Node 52, Type 1, BuildingBlock: NAHDIM_clean_linker_0, # of connection points: 4
#     Node 53, Type 1, BuildingBlock: NAHDIM_clean_linker_0, # of connection points: 4
#     Node 54, Type 1, BuildingBlock: NAHDIM_clean_linker_0, # of connection points: 4
#     Node 55, Type 1, BuildingBlock: NAHDIM_clean_linker_0, # of connection points: 4
#     Edge 56, Type (0, 1), None
#     Edge 57, Type (0, 1), None
#     Edge 58, Type (0, 1), None
#     Edge 59, Type (0, 1), None
#     Edge 60, Type (0, 1), None
#     Edge 61, Type (0, 1), None
#     Edge 62, Type (0, 1), None
#     Edge 63, Type (0, 1), None
#     Edge 64, Type (0, 1), None
#     Edge 65, Type (0, 1), None
#     Edge 66, Type (0, 1), None
#     Edge 67, Type (0, 1), None
#     Edge 68, Type (0, 1), None
#     Edge 69, Type (0, 1), None
#     Edge 70, Type (0, 1), None
#     Edge 71, Type (0, 1), None
#     Edge 72, Type (0, 1), None
#     Edge 73, Type (0, 1), None
#     Edge 74, Type (0, 1), None
#     Edge 75, Type (0, 1), None
#     Edge 76, Type (0, 1), None
#     Edge 77, Type (0, 1), None
#     Edge 78, Type (0, 1), None
#     Edge 79, Type (0, 1), None
#     Edge 80, Type (0, 1), None
#     Edge 81, Type (0, 1), None
#     Edge 82, Type (0, 1), None
#     Edge 83, Type (0, 1), None
#     Edge 84, Type (0, 1), None
#     Edge 85, Type (0, 1), None
#     Edge 86, Type (0, 1), None
#     Edge 87, Type (0, 1), None
#     Edge 88, Type (0, 1), None
#     Edge 89, Type (0, 1), None
#     Edge 90, Type (0, 1), None
#     Edge 91, Type (0, 1), None
#     Edge 92, Type (0, 1), None
#     Edge 93, Type (0, 1), None
#     Edge 94, Type (0, 1), None
#     Edge 95, Type (0, 1), None
#     Edge 96, Type (0, 1), None
#     Edge 97, Type (0, 1), None
#     Edge 98, Type (0, 1), None
#     Edge 99, Type (0, 1), None
#     Edge 100, Type (0, 1), None
#     Edge 101, Type (0, 1), None
#     Edge 102, Type (0, 1), None
#     Edge 103, Type (0, 1), None
#     Edge 104, Type (0, 1), None
#     Edge 105, Type (0, 1), None
#     Edge 106, Type (0, 1), None
#     Edge 107, Type (0, 1), None
#     Edge 108, Type (0, 1), None
#     Edge 109, Type (0, 1), None
#     Edge 110, Type (0, 1), None
#     Edge 111, Type (0, 1), None
#     Edge 112, Type (0, 1), None
#     Edge 113, Type (0, 1), None
#     Edge 114, Type (0, 1), None
#     Edge 115, Type (0, 1), None
#     Edge 116, Type (0, 1), None
#     Edge 117, Type (0, 1), None
#     Edge 118, Type (0, 1), None
#     Edge 119, Type (0, 1), None
#     Edge 120, Type (0, 1), None
#     Edge 121, Type (0, 1), None
#     Edge 122, Type (0, 1), None
#     Edge 123, Type (0, 1), None
#     Edge 124, Type (0, 1), None
#     Edge 125, Type (0, 1), None
#     Edge 126, Type (0, 1), None
#     Edge 127, Type (0, 1), None
#     Edge 128, Type (0, 1), None
#     Edge 129, Type (0, 1), None
#     Edge 130, Type (0, 1), None
#     Edge 131, Type (0, 1), None
#     Edge 132, Type (0, 1), None
#     Edge 133, Type (0, 1), None
#     Edge 134, Type (0, 1), None
#     Edge 135, Type (0, 1), None
#     Edge 136, Type (0, 1), None
#     Edge 137, Type (0, 1), None
#     Edge 138, Type (0, 1), None
#     Edge 139, Type (0, 1), None
#     Edge 140, Type (0, 1), None
#     Edge 141, Type (0, 1), None
#     Edge 142, Type (0, 1), None
#     Edge 143, Type (0, 1), None
#     Edge 144, Type (0, 1), None
#     Edge 145, Type (0, 1), None
#     Edge 146, Type (0, 1), None
#     Edge 147, Type (0, 1), None
#     Edge 148, Type (0, 1), None
#     Edge 149, Type (0, 1), None
#     Edge 150, Type (0, 1), None
#     Edge 151, Type (0, 1), None
# Relax obj value: 0.002
# Max RMSD: 0.049
# Mean RMSD: 0.021
data_MOF--net-tbo--node1-WUSLED_clean_sbu_0--node2-NAHDIM_clean_linker_0--edge1-none
_symmetry_space_group_name_H-M    P1
_symmetry_Int_Tables_number       1
_symmetry_cell_setting            triclinic
loop_
_symmetry_equiv_pos_as_xyz
'x, y, z'
_cell_length_a     82.211417
_cell_length_b     82.483072
_cell_length_c     82.321605
_cell_angle_alpha  89.563785
_cell_angle_beta   89.94634
_cell_angle_gamma 91.488993
loop_
_atom_site_label
_atom_site_type_symbol
_atom_site_fract_x
_atom_site_fract_y
_atom_site_fract_z
_atom_type_partial_charge
C0 C 0.16788 0.12432 0.18648 0.0
C1 C 0.17931 0.1193 0.17503 0.0
C2 C 0.18948 0.09946 0.19432 0.0
C3 C 0.19004 0.10699 0.17893 0.0
C4 C 0.17796 0.10455 0.20574 0.0
C5 C 0.16719 0.11682 0.20179 0.0
U6 U 0.15696 0.16099 0.16077 0.0
O7 O 0.13312 0.17029 0.15369 0.0
O8 O 0.14981 0.18527 0.16841 0.0
C9 C 0.13512 0.18356 0.1623 0.0
C10 C 0.15732 0.138 0.18297 0.0
C11 C 0.1219 0.18715 0.17362 0.0
C12 C 0.10423 0.17927 0.19614 0.0
C13 C 0.11609 0.17538 0.18473 0.0
C14 C 0.10388 0.20672 0.18544 0.0
C15 C 0.09805 0.195 0.19668 0.0
C16 C 0.11567 0.20279 0.17397 0.0
C17 C 0.18289 0.17352 0.12437 0.0
C18 C 0.17546 0.196 0.1069 0.0
C19 C 0.20268 0.18547 0.1056 0.0
C20 C 0.19853 0.17398 0.11757 0.0
C21 C 0.19119 0.19665 0.10016 0.0
C22 C 0.17135 0.18456 0.11893 0.0
C23 C 0.1791 0.1622 0.13779 0.0
O24 O 0.16423 0.15238 0.18496 0.0
O25 O 0.14867 0.1369 0.16957 0.0
O26 O 0.16533 0.15382 0.13653 0.0
O27 O 0.18151 0.16819 0.15236 0.0
H28 H 0.18015 0.12514 0.16321 0.0
H29 H 0.19902 0.10356 0.17004 0.0
H30 H 0.1775 0.09926 0.21782 0.0
H31 H 0.15856 0.1207 0.21084 0.0
H32 H 0.10012 0.17008 0.20479 0.0
H33 H 0.12092 0.16329 0.18475 0.0
H34 H 0.09954 0.219 0.18571 0.0
H35 H 0.12016 0.21206 0.16558 0.0
H36 H 0.16645 0.2046 0.10309 0.0
H37 H 0.21497 0.18584 0.10084 0.0
H38 H 0.20763 0.16565 0.12177 0.0
H39 H 0.15927 0.18451 0.1242 0.0
C40 C 0.81227 0.17654 0.12815 0.0
C41 C 0.82295 0.18798 0.12081 0.0
C42 C 0.80065 0.19846 0.1047 0.0
C43 C 0.81719 0.1988 0.10911 0.0
C44 C 0.79012 0.18674 0.11186 0.0
C45 C 0.7959 0.17587 0.12346 0.0
U46 U 0.84171 0.16772 0.16249 0.0
O47 O 0.83665 0.16065 0.18781 0.0
O48 O 0.85072 0.14468 0.17222 0.0
C49 C 0.84337 0.14647 0.18628 0.0
C50 C 0.81766 0.16617 0.1416 0.0
C51 C 0.83331 0.13266 0.19217 0.0
C52 C 0.81217 0.11197 0.18804 0.0
C53 C 0.8226 0.12418 0.1818 0.0
C54 C 0.82316 0.11655 0.21497 0.0
C55 C 0.81219 0.10818 0.20474 0.0
C56 C 0.83365 0.12864 0.20872 0.0
C57 C 0.87688 0.19717 0.17106 0.0
C58 C 0.89604 0.19229 0.19291 0.0
C59 C 0.89377 0.2193 0.18145 0.0
C60 C 0.88192 0.21351 0.17065 0.0
C61 C 0.90081 0.2088 0.19284 0.0
C62 C 0.88409 0.18653 0.18216 0.0
C63 C 0.86316 0.19177 0.16087 0.0
O64 O 0.83146 0.15874 0.13944 0.0
O65 O 0.8164 0.17271 0.15603 0.0
O66 O 0.84884 0.19297 0.16776 0.0
O67 O 0.86489 0.17802 0.15314 0.0
H68 H 0.83561 0.18878 0.12442 0.0
H69 H 0.82555 0.20774 0.10382 0.0
H70 H 0.77732 0.18623 0.10876 0.0
H71 H 0.78748 0.1672 0.1291 0.0
H72 H 0.80379 0.10575 0.17991 0.0
H73 H 0.82205 0.12724 0.169 0.0
H74 H 0.82339 0.11396 0.22789 0.0
H75 H 0.84176 0.13514 0.21691 0.0
H76 H 0.90123 0.18397 0.2016 0.0
H77 H 0.89716 0.23207 0.18116 0.0
H78 H 0.87637 0.2219 0.16226 0.0
H79 H 0.8802 0.17389 0.18277 0.0
C80 C 0.82825 0.8393 0.12714 0.0
C81 C 0.84093 0.83077 0.12 0.0
C82 C 0.82172 0.81746 0.10159 0.0
C83 C 0.83769 0.81995 0.10733 0.0
C84 C 0.80904 0.826 0.10886 0.0
C85 C 0.81232 0.8369 0.12144 0.0
U86 U 0.85263 0.85028 0.16483 0.0
O87 O 0.86022 0.87396 0.17484 0.0
O88 O 0.84442 0.85741 0.18911 0.0
C89 C 0.85115 0.872 0.18791 0.0
C90 C 0.83128 0.84993 0.14116 0.0
C91 C 0.84026 0.88534 0.19163 0.0
C92 C 0.81771 0.90239 0.18432 0.0
C93 C 0.82867 0.89036 0.18029 0.0
C94 C 0.82992 0.90459 0.21103 0.0
C95 C 0.81815 0.90958 0.19977 0.0
C96 C 0.8409 0.89259 0.20696 0.0
C97 C 0.88795 0.82327 0.1767 0.0
C98 C 0.90608 0.82905 0.19933 0.0
C99 C 0.9058 0.80252 0.18687 0.0
C100 C 0.89392 0.80754 0.17594 0.0
C101 C 0.9121 0.81325 0.19864 0.0
C102 C 0.89411 0.83404 0.18843 0.0
C103 C 0.87477 0.82791 0.1657 0.0
O104 O 0.8285 0.84308 0.15539 0.0
O105 O 0.84483 0.85877 0.14073 0.0
O106 O 0.87683 0.84182 0.15794 0.0
O107 O 0.86002 0.82571 0.17159 0.0
H108 H 0.85329 0.83223 0.12441 0.0
H109 H 0.84761 0.81326 0.10223 0.0
H110 H 0.79656 0.82403 0.105 0.0
H111 H 0.80235 0.84321 0.12696 0.0
H112 H 0.80865 0.90584 0.1755 0.0
H113 H 0.82791 0.88477 0.16843 0.0
H114 H 0.8304 0.90972 0.2231 0.0
H115 H 0.8497 0.88875 0.21589 0.0
H116 H 0.91044 0.83744 0.2085 0.0
H117 H 0.90988 0.79016 0.18629 0.0
H118 H 0.88915 0.79902 0.16707 0.0
H119 H 0.88947 0.84617 0.18934 0.0
C120 C 0.13036 0.81133 0.17341 0.0
C121 C 0.12301 0.82066 0.18543 0.0
C122 C 0.1073 0.79689 0.1948 0.0
C123 C 0.11151 0.8135 0.19602 0.0
C124 C 0.11459 0.78771 0.1826 0.0
C125 C 0.12597 0.79488 0.17198 0.0
U126 U 0.16447 0.84253 0.16403 0.0
O127 O 0.18916 0.83836 0.15496 0.0
O128 O 0.17253 0.85312 0.14064 0.0
C129 C 0.18648 0.84567 0.14103 0.0
C130 C 0.14335 0.81814 0.1629 0.0
C131 C 0.19031 0.83598 0.12667 0.0
C132 C 0.18353 0.81383 0.10841 0.0
C133 C 0.17922 0.82408 0.12107 0.0
C134 C 0.20998 0.82741 0.10666 0.0
C135 C 0.19902 0.81526 0.10118 0.0
C136 C 0.20563 0.83771 0.11929 0.0
C137 C 0.17465 0.87615 0.19445 0.0
C138 C 0.19536 0.89724 0.18975 0.0
C139 C 0.18524 0.892 0.217 0.0
C140 C 0.17476 0.87986 0.21103 0.0
C141 C 0.19579 0.90071 0.20647 0.0
C142 C 0.18492 0.88499 0.18379 0.0
C143 C 0.1645 0.86239 0.1888 0.0
O144 O 0.14073 0.83237 0.15621 0.0
O145 O 0.15812 0.81689 0.16874 0.0
O146 O 0.17166 0.84834 0.18906 0.0
O147 O 0.15594 0.86478 0.17554 0.0
H148 H 0.12638 0.83335 0.18682 0.0
H149 H 0.10618 0.82082 0.2054 0.0
H150 H 0.11172 0.77488 0.18146 0.0
H151 H 0.13162 0.78748 0.16285 0.0
H152 H 0.17493 0.80445 0.10458 0.0
H153 H 0.1674 0.82244 0.12677 0.0
H154 H 0.22208 0.82864 0.1015 0.0
H155 H 0.21439 0.84672 0.1236 0.0
H156 H 0.2034 0.90374 0.18138 0.0
H157 H 0.18534 0.89435 0.22992 0.0
H158 H 0.16698 0.87309 0.21943 0.0
H159 H 0.18509 0.8822 0.17095 0.0
C160 C 0.13027 0.82008 0.83448 0.0
C161 C 0.12423 0.83069 0.82264 0.0
C162 C 0.10944 0.80825 0.80983 0.0
C163 C 0.11384 0.82483 0.81046 0.0
C164 C 0.11539 0.79773 0.82182 0.0
C165 C 0.12568 0.80361 0.83406 0.0
U166 U 0.16479 0.84869 0.84724 0.0
O167 O 0.18754 0.84372 0.86011 0.0
O168 O 0.17019 0.86054 0.87057 0.0
C169 C 0.18361 0.85249 0.87272 0.0
C170 C 0.14211 0.82576 0.84671 0.0
C171 C 0.1853 0.84458 0.88869 0.0
C172 C 0.18186 0.82116 0.90658 0.0
C173 C 0.18022 0.82838 0.89125 0.0
C174 C 0.19352 0.8463 0.91695 0.0
C175 C 0.18853 0.83007 0.9196 0.0
C176 C 0.19197 0.85347 0.90161 0.0
C177 C 0.18055 0.88078 0.81721 0.0
C178 C 0.20111 0.90113 0.82451 0.0
C179 C 0.19463 0.89643 0.79618 0.0
C180 C 0.18305 0.88457 0.80077 0.0
C181 C 0.20384 0.90479 0.80799 0.0
C182 C 0.18958 0.88918 0.82908 0.0
C183 C 0.16912 0.86751 0.82168 0.0
O184 O 0.15739 0.82325 0.84306 0.0
O185 O 0.13977 0.84025 0.85272 0.0
O186 O 0.15876 0.87062 0.83335 0.0
O187 O 0.17568 0.85322 0.82317 0.0
H188 H 0.12778 0.84343 0.82263 0.0
H189 H 0.1095 0.83318 0.80131 0.0
H190 H 0.1123 0.78489 0.82158 0.0
H191 H 0.13032 0.79523 0.84302 0.0
H192 H 0.17776 0.80869 0.90834 0.0
H193 H 0.17492 0.82135 0.88143 0.0
H194 H 0.19852 0.85351 0.92678 0.0
H195 H 0.19588 0.86601 0.89986 0.0
H196 H 0.20814 0.90729 0.83383 0.0
H197 H 0.19658 0.89889 0.78337 0.0
H198 H 0.17626 0.87812 0.79145 0.0
H199 H 0.1879 0.88629 0.84185 0.0
C200 C 0.1233 0.17118 0.82214 0.0
C201 C 0.11904 0.18331 0.8331 0.0
C202 C 0.09954 0.19385 0.81368 0.0
C203 C 0.10725 0.19453 0.82892 0.0
C204 C 0.10385 0.18164 0.80274 0.0
C205 C 0.11559 0.17037 0.80698 0.0
U206 U 0.15983 0.15981 0.84754 0.0
O207 O 0.1668 0.13651 0.85836 0.0
O208 O 0.18286 0.14879 0.84056 0.0
C209 C 0.18001 0.1357 0.84943 0.0
C210 C 0.13617 0.15976 0.82616 0.0
C211 C 0.18254 0.12003 0.84148 0.0
C212 C 0.1805 0.10217 0.81815 0.0
C213 C 0.17812 0.11733 0.82522 0.0
C214 C 0.19169 0.09233 0.84348 0.0
C215 C 0.18723 0.08948 0.82725 0.0
C216 C 0.1894 0.10747 0.8505 0.0
C217 C 0.17484 0.18861 0.88055 0.0
C218 C 0.19692 0.18153 0.89865 0.0
C219 C 0.18613 0.20859 0.8992 0.0
C220 C 0.17502 0.20427 0.88702 0.0
C221 C 0.19713 0.19722 0.90525 0.0
C222 C 0.18584 0.17724 0.88643 0.0
C223 C 0.16342 0.18438 0.86743 0.0
O224 O 0.15105 0.16499 0.82283 0.0
O225 O 0.13489 0.15265 0.84048 0.0
O226 O 0.15362 0.17186 0.87038 0.0
O227 O 0.16979 0.18424 0.85279 0.0
H228 H 0.125 0.18424 0.84481 0.0
H229 H 0.10435 0.20393 0.83748 0.0
H230 H 0.09833 0.18097 0.79082 0.0
H231 H 0.11883 0.16117 0.79831 0.0
H232 H 0.17686 0.10027 0.80565 0.0
H233 H 0.17273 0.12686 0.81807 0.0
H234 H 0.19679 0.08277 0.85083 0.0
H235 H 0.19286 0.10932 0.86306 0.0
H236 H 0.20547 0.17265 0.90282 0.0
H237 H 0.18626 0.22087 0.90377 0.0
H238 H 0.1667 0.21323 0.88251 0.0
H239 H 0.18595 0.16512 0.88145 0.0
C240 C 0.81646 0.12779 0.83952 0.0
C241 C 0.82807 0.12261 0.82831 0.0
C242 C 0.80864 0.1026 0.81766 0.0
C243 C 0.82419 0.11014 0.81748 0.0
C244 C 0.79711 0.10772 0.82905 0.0
C245 C 0.80103 0.12017 0.83994 0.0
U246 U 0.84228 0.16527 0.84808 0.0
O247 O 0.83527 0.1902 0.8534 0.0
O248 O 0.85008 0.17684 0.8709 0.0
C249 C 0.84192 0.19004 0.8679 0.0
C250 C 0.8199 0.14205 0.84967 0.0
C251 C 0.83146 0.19581 0.88103 0.0
C252 C 0.80995 0.19136 0.90098 0.0
C253 C 0.82061 0.18527 0.88936 0.0
C254 C 0.82102 0.21849 0.89609 0.0
C255 C 0.80993 0.20808 0.90433 0.0
C256 C 0.8317 0.21239 0.88459 0.0
C257 C 0.87757 0.17527 0.8191 0.0
C258 C 0.89712 0.1975 0.82313 0.0
C259 C 0.8933 0.18607 0.79632 0.0
C260 C 0.88172 0.17502 0.8026 0.0
C261 C 0.90103 0.19753 0.80647 0.0
C262 C 0.88541 0.1865 0.82939 0.0
C263 C 0.86428 0.16448 0.825 0.0
O264 O 0.83349 0.1418 0.8581 0.0
O265 O 0.81767 0.156 0.84231 0.0
O266 O 0.84963 0.17006 0.82279 0.0
O267 O 0.86625 0.15775 0.83938 0.0
H268 H 0.83997 0.12854 0.82763 0.0
H269 H 0.83318 0.1067 0.80861 0.0
H270 H 0.78493 0.1024 0.82923 0.0
H271 H 0.79186 0.12418 0.84836 0.0
H272 H 0.80145 0.1831 0.90707 0.0
H273 H 0.82015 0.17244 0.88665 0.0
H274 H 0.8212 0.23142 0.89831 0.0
H275 H 0.83993 0.2207 0.8782 0.0
H276 H 0.90283 0.20625 0.83119 0.0
H277 H 0.89599 0.18586 0.78344 0.0
H278 H 0.87571 0.16651 0.79448 0.0
H279 H 0.88224 0.18699 0.84215 0.0
C280 C 0.83997 0.88784 0.82323 0.0
C281 C 0.8248 0.88783 0.83104 0.0
C282 C 0.8199 0.9149 0.82046 0.0
C283 C 0.81484 0.90124 0.82965 0.0
C284 C 0.83512 0.91481 0.81259 0.0
C285 C 0.84504 0.90135 0.81394 0.0
U286 U 0.85107 0.84939 0.84553 0.0
O287 O 0.86058 0.82641 0.83665 0.0
O288 O 0.87479 0.84098 0.85405 0.0
C289 C 0.87453 0.82848 0.84424 0.0
C290 C 0.85085 0.87415 0.82535 0.0
C291 C 0.88917 0.82692 0.83419 0.0
C292 C 0.90505 0.83422 0.81021 0.0
C293 C 0.89079 0.83531 0.81936 0.0
C294 C 0.91625 0.81642 0.83067 0.0
C295 C 0.91795 0.82478 0.81577 0.0
C296 C 0.90194 0.81744 0.83976 0.0
C297 C 0.82396 0.83435 0.88038 0.0
C298 C 0.83157 0.81224 0.89823 0.0
C299 C 0.8045 0.82312 0.89988 0.0
C300 C 0.80847 0.8342 0.88748 0.0
C301 C 0.81605 0.81207 0.90546 0.0
C302 C 0.83549 0.82329 0.88577 0.0
C303 C 0.82786 0.84599 0.86729 0.0
O304 O 0.85912 0.87423 0.83901 0.0
O305 O 0.8445 0.85981 0.82183 0.0
O306 O 0.82664 0.84024 0.85248 0.0
O307 O 0.84104 0.85506 0.86951 0.0
H308 H 0.82077 0.87754 0.83841 0.0
H309 H 0.80329 0.90108 0.836 0.0
H310 H 0.83945 0.92526 0.80565 0.0
H311 H 0.85679 0.90159 0.80796 0.0
H312 H 0.90613 0.84096 0.7989 0.0
H313 H 0.8811 0.84284 0.81496 0.0
H314 H 0.92607 0.80927 0.83541 0.0
H315 H 0.90093 0.811 0.85126 0.0
H316 H 0.84061 0.80373 0.90214 0.0
H317 H 0.79238 0.8231 0.90504 0.0
H318 H 0.7994 0.84261 0.88337 0.0
H319 H 0.84749 0.82318 0.88032 0.0
C320 C 0.17381 0.62423 0.694 0.0
C321 C 0.1849 0.61711 0.6834 0.0
C322 C 0.1959 0.60141 0.70586 0.0
C323 C 0.19582 0.60573 0.68928 0.0
C324 C 0.18459 0.60844 0.71633 0.0
C325 C 0.17362 0.6197 0.71043 0.0
U326 U 0.16319 0.65817 0.66438 0.0
O327 O 0.13941 0.66625 0.65563 0.0
O328 O 0.15525 0.68282 0.66958 0.0
C329 C 0.14085 0.68028 0.66305 0.0
C330 C 0.16314 0.63716 0.68846 0.0
C331 C 0.12715 0.68469 0.67341 0.0
C332 C 0.10889 0.67881 0.69602 0.0
C333 C 0.12108 0.67395 0.68538 0.0
C334 C 0.10871 0.70515 0.68275 0.0
C335 C 0.10265 0.6945 0.69489 0.0
C336 C 0.12082 0.70025 0.67207 0.0
C337 C 0.1898 0.6695 0.62859 0.0
C338 C 0.18179 0.69158 0.6109 0.0
C339 C 0.20938 0.68193 0.60992 0.0
C340 C 0.20548 0.67038 0.62192 0.0
C341 C 0.19759 0.69274 0.60436 0.0
C342 C 0.17794 0.68008 0.62293 0.0
C343 C 0.18625 0.65856 0.64237 0.0
O344 O 0.16949 0.65188 0.68954 0.0
O345 O 0.15529 0.63458 0.67476 0.0
O346 O 0.17287 0.64955 0.64114 0.0
O347 O 0.18795 0.66537 0.65666 0.0
H348 H 0.18532 0.62059 0.67069 0.0
H349 H 0.20448 0.60058 0.68098 0.0
H350 H 0.18444 0.60544 0.72916 0.0
H351 H 0.16523 0.62518 0.71879 0.0
H352 H 0.1046 0.67045 0.70539 0.0
H353 H 0.126 0.66196 0.68672 0.0
H354 H 0.10433 0.71739 0.68175 0.0
H355 H 0.12552 0.70874 0.66301 0.0
H356 H 0.17255 0.69988 0.60699 0.0
H357 H 0.22171 0.6827 0.60528 0.0
H358 H 0.21483 0.66242 0.62631 0.0
H359 H 0.16582 0.67973 0.62812 0.0
C360 C 0.82648 0.67376 0.62189 0.0
C361 C 0.83731 0.6863 0.61701 0.0
C362 C 0.81747 0.6959 0.59748 0.0
C363 C 0.83284 0.69728 0.6049 0.0
C364 C 0.80661 0.68338 0.60254 0.0
C365 C 0.81114 0.67233 0.61457 0.0
U366 U 0.85167 0.66457 0.65914 0.0
O367 O 0.8626 0.64192 0.66756 0.0
O368 O 0.84447 0.6538 0.68265 0.0
C369 C 0.85302 0.64076 0.68033 0.0
C370 C 0.83071 0.66272 0.63521 0.0
C371 C 0.8438 0.62535 0.6819 0.0
C372 C 0.82116 0.60777 0.67373 0.0
C373 C 0.82985 0.6225 0.67244 0.0
C374 C 0.84038 0.59847 0.69385 0.0
C375 C 0.82623 0.59565 0.68456 0.0
C376 C 0.84904 0.61327 0.6926 0.0
C377 C 0.88281 0.69685 0.67306 0.0
C378 C 0.90167 0.69285 0.69533 0.0
C379 C 0.89779 0.71984 0.68437 0.0
C380 C 0.88663 0.7135 0.67317 0.0
C381 C 0.90541 0.7096 0.69559 0.0
C382 C 0.89042 0.68652 0.68416 0.0
C383 C 0.87039 0.69068 0.66173 0.0
O384 O 0.84532 0.65664 0.63446 0.0
O385 O 0.82692 0.66785 0.64977 0.0
O386 O 0.85557 0.68956 0.66767 0.0
O387 O 0.87435 0.67802 0.65309 0.0
H388 H 0.84912 0.68775 0.62273 0.0
H389 H 0.84128 0.70703 0.60151 0.0
H390 H 0.79454 0.68226 0.59734 0.0
H391 H 0.80256 0.66286 0.61837 0.0
H392 H 0.81054 0.60578 0.66616 0.0
H393 H 0.82575 0.63164 0.66396 0.0
H394 H 0.84481 0.5892 0.70199 0.0
H395 H 0.85988 0.61524 0.69986 0.0
H396 H 0.90726 0.68473 0.70395 0.0
H397 H 0.90032 0.73279 0.68439 0.0
H398 H 0.88078 0.72164 0.66474 0.0
H399 H 0.88749 0.67364 0.68431 0.0
C400 C 0.82625 0.34477 0.619 0.0
C401 C 0.83171 0.32902 0.6163 0.0
C402 C 0.82274 0.33047 0.58812 0.0
C403 C 0.82993 0.32191 0.60099 0.0
C404 C 0.81733 0.34624 0.59092 0.0
C405 C 0.81902 0.35328 0.60623 0.0
U406 U 0.84839 0.35138 0.65949 0.0
O407 O 0.83839 0.35496 0.68396 0.0
O408 O 0.85365 0.37409 0.67255 0.0
C409 C 0.84418 0.36992 0.68485 0.0
C410 C 0.82818 0.35269 0.63487 0.0
C411 C 0.83241 0.38201 0.68995 0.0
C412 C 0.81125 0.40118 0.68382 0.0
C413 C 0.82281 0.39018 0.67858 0.0
C414 C 0.81881 0.39592 0.71179 0.0
C415 C 0.80909 0.4041 0.70051 0.0
C416 C 0.83039 0.38502 0.70654 0.0
C417 C 0.88578 0.32759 0.67096 0.0
C418 C 0.90522 0.33572 0.69182 0.0
C419 C 0.90212 0.30741 0.68451 0.0
C420 C 0.89031 0.31144 0.67305 0.0
C421 C 0.90975 0.31952 0.694 0.0
C422 C 0.89331 0.33972 0.68045 0.0
C423 C 0.87274 0.33145 0.65936 0.0
O424 O 0.82558 0.34343 0.64774 0.0
O425 O 0.841 0.36242 0.6363 0.0
O426 O 0.87355 0.346 0.65269 0.0
O427 O 0.85797 0.32707 0.66403 0.0
H428 H 0.83746 0.32228 0.62598 0.0
H429 H 0.83437 0.30982 0.59911 0.0
H430 H 0.81192 0.3532 0.58121 0.0
H431 H 0.8148 0.36547 0.60807 0.0
H432 H 0.80381 0.4072 0.67489 0.0
H433 H 0.82411 0.3879 0.66571 0.0
H434 H 0.8173 0.3978 0.7247 0.0
H435 H 0.83764 0.37875 0.71547 0.0
H436 H 0.91071 0.34525 0.69912 0.0
H437 H 0.90512 0.29479 0.6861 0.0
H438 H 0.88453 0.30189 0.66596 0.0
H439 H 0.88986 0.35226 0.67923 0.0
C440 C 0.12754 0.33284 0.69105 0.0
C441 C 0.12304 0.33293 0.70746 0.0
C442 C 0.10477 0.30963 0.70326 0.0
C443 C 0.11181 0.3214 0.71354 0.0
C444 C 0.10913 0.30973 0.68672 0.0
C445 C 0.12048 0.3212 0.68067 0.0
U446 U 0.16297 0.34462 0.66296 0.0
O447 O 0.17306 0.32052 0.65909 0.0
O448 O 0.15659 0.33082 0.64101 0.0
C449 C 0.16652 0.31908 0.6446 0.0
C450 C 0.14009 0.34455 0.68521 0.0
C451 C 0.17781 0.3145 0.63167 0.0
C452 C 0.19071 0.29337 0.6163 0.0
C453 C 0.17943 0.29808 0.62794 0.0
C454 C 0.19869 0.32153 0.61172 0.0
C455 C 0.20054 0.30502 0.60813 0.0
C456 C 0.18745 0.32623 0.62345 0.0
C457 C 0.18468 0.38589 0.66719 0.0
C458 C 0.1935 0.41416 0.66534 0.0
C459 C 0.1812 0.40377 0.69021 0.0
C460 C 0.17938 0.38843 0.68318 0.0
C461 C 0.18826 0.4168 0.68135 0.0
C462 C 0.19177 0.39882 0.65836 0.0
C463 C 0.18266 0.36996 0.65943 0.0
O464 O 0.1381 0.35039 0.67045 0.0
O465 O 0.15516 0.34055 0.68826 0.0
O466 O 0.18609 0.35734 0.66853 0.0
O467 O 0.1693 0.36785 0.65086 0.0
H468 H 0.12843 0.34176 0.71566 0.0
H469 H 0.10879 0.32156 0.72634 0.0
H470 H 0.10396 0.30074 0.67856 0.0
H471 H 0.1239 0.32083 0.66797 0.0
H472 H 0.19193 0.28057 0.61385 0.0
H473 H 0.17214 0.28887 0.63423 0.0
H474 H 0.20618 0.33074 0.60567 0.0
H475 H 0.18643 0.33897 0.62627 0.0
H476 H 0.1988 0.424 0.65816 0.0
H477 H 0.1769 0.40553 0.7025 0.0
H478 H 0.17375 0.37861 0.69016 0.0
H479 H 0.19585 0.39709 0.64599 0.0
C480 C 0.12022 0.32747 0.33917 0.0
C481 C 0.11387 0.33952 0.32903 0.0
C482 C 0.09579 0.31951 0.31629 0.0
C483 C 0.10176 0.33557 0.3177 0.0
C484 C 0.10237 0.30744 0.32633 0.0
C485 C 0.11439 0.31142 0.33774 0.0
U486 U 0.15787 0.35229 0.35105 0.0
O487 O 0.16525 0.36304 0.37439 0.0
O488 O 0.18057 0.345 0.36282 0.0
C489 C 0.17803 0.35387 0.37574 0.0
C490 C 0.13334 0.33132 0.35081 0.0
C491 C 0.17996 0.34577 0.39159 0.0
C492 C 0.17626 0.32245 0.40959 0.0
C493 C 0.17455 0.32968 0.39425 0.0
C494 C 0.18873 0.34733 0.4197 0.0
C495 C 0.18332 0.33124 0.42249 0.0
C496 C 0.18711 0.35449 0.40438 0.0
C497 C 0.17432 0.38496 0.32214 0.0
C498 C 0.19712 0.40265 0.32966 0.0
C499 C 0.18662 0.40328 0.30216 0.0
C500 C 0.17493 0.39135 0.30633 0.0
C501 C 0.19784 0.40908 0.31379 0.0
C502 C 0.18546 0.39067 0.3338 0.0
C503 C 0.16232 0.37207 0.32622 0.0
O504 O 0.14805 0.32776 0.34596 0.0
O505 O 0.1327 0.34557 0.35781 0.0
O506 O 0.15261 0.37516 0.33845 0.0
O507 O 0.16805 0.35735 0.32676 0.0
H508 H 0.11839 0.35195 0.32973 0.0
H509 H 0.0972 0.34502 0.30987 0.0
H510 H 0.09834 0.29489 0.32523 0.0
H511 H 0.11929 0.30193 0.34532 0.0
H512 H 0.17185 0.31009 0.41146 0.0
H513 H 0.16888 0.32277 0.38455 0.0
H514 H 0.19405 0.35445 0.42944 0.0
H515 H 0.19129 0.36694 0.40255 0.0
H516 H 0.20573 0.40674 0.33879 0.0
H517 H 0.18703 0.40784 0.28979 0.0
H518 H 0.16647 0.38699 0.29717 0.0
H519 H 0.18522 0.38576 0.34605 0.0
C520 C 0.12942 0.67167 0.31908 0.0
C521 C 0.12094 0.68143 0.32993 0.0
C522 C 0.10512 0.69233 0.30749 0.0
C523 C 0.10883 0.69166 0.32418 0.0
C524 C 0.11356 0.68238 0.29676 0.0
C525 C 0.12554 0.67212 0.30252 0.0
U526 U 0.16442 0.66082 0.34792 0.0
O527 O 0.17283 0.63679 0.35549 0.0
O528 O 0.18901 0.65319 0.34147 0.0
C529 C 0.1866 0.63851 0.34741 0.0
C530 C 0.14281 0.66144 0.32446 0.0
C531 C 0.19035 0.6254 0.33611 0.0
C532 C 0.18282 0.60829 0.31328 0.0
C533 C 0.17873 0.61984 0.32483 0.0
C534 C 0.21018 0.60768 0.32417 0.0
C535 C 0.19862 0.60216 0.31273 0.0
C536 C 0.20604 0.61917 0.33579 0.0
C537 C 0.17567 0.68643 0.38464 0.0
C538 C 0.19765 0.67889 0.40267 0.0
C539 C 0.18655 0.70577 0.40419 0.0
C540 C 0.17558 0.7018 0.39177 0.0
C541 C 0.1977 0.69433 0.40981 0.0
C542 C 0.18673 0.67496 0.3902 0.0
C543 C 0.16494 0.68286 0.37076 0.0
O544 O 0.15741 0.66819 0.32324 0.0
O545 O 0.14057 0.65319 0.33805 0.0
O546 O 0.1562 0.66931 0.37178 0.0
O547 O 0.17173 0.68513 0.35645 0.0
H548 H 0.12385 0.68134 0.34276 0.0
H549 H 0.1026 0.6993 0.33269 0.0
H550 H 0.11109 0.68274 0.28384 0.0
H551 H 0.13202 0.66473 0.29396 0.0
H552 H 0.17376 0.60443 0.30449 0.0
H553 H 0.1666 0.62468 0.32475 0.0
H554 H 0.22252 0.60339 0.3239 0.0
H555 H 0.21521 0.62347 0.34428 0.0
H556 H 0.20633 0.66998 0.4065 0.0
H557 H 0.18656 0.71788 0.40917 0.0
H558 H 0.16726 0.71086 0.38748 0.0
H559 H 0.18713 0.6631 0.38467 0.0
C560 C 0.8342 0.63202 0.31234 0.0
C561 C 0.83353 0.62837 0.29577 0.0
C562 C 0.81335 0.60681 0.30105 0.0
C563 C 0.8232 0.61591 0.29016 0.0
C564 C 0.81424 0.61033 0.31774 0.0
C565 C 0.82455 0.62288 0.32334 0.0
U566 U 0.84601 0.66378 0.34397 0.0
O567 O 0.83979 0.65075 0.36669 0.0
O568 O 0.82214 0.66683 0.3554 0.0
C569 C 0.8258 0.65797 0.36815 0.0
C570 C 0.84448 0.64579 0.31781 0.0
C571 C 0.8228 0.66543 0.38403 0.0
C572 C 0.81196 0.66312 0.41142 0.0
C573 C 0.81469 0.65637 0.39616 0.0
C574 C 0.82529 0.6882 0.40255 0.0
C575 C 0.81717 0.67912 0.41478 0.0
C576 C 0.82809 0.6814 0.3873 0.0
C577 C 0.8795 0.69689 0.33693 0.0
C578 C 0.90184 0.72805 0.33413 0.0
C579 C 0.89918 0.70185 0.30454 0.0
C580 C 0.88474 0.69027 0.31677 0.0
C581 C 0.91023 0.71843 0.31571 0.0
C582 C 0.8874 0.71563 0.34525 0.0
C583 C 0.86696 0.68824 0.34645 0.0
O584 O 0.85427 0.64285 0.33006 0.0
O585 O 0.83701 0.65961 0.31915 0.0
O586 O 0.852 0.68976 0.34118 0.0
O587 O 0.87019 0.67341 0.35116 0.0
H588 H 0.84083 0.63534 0.28711 0.0
H589 H 0.82268 0.61356 0.27724 0.0
H590 H 0.8067 0.60361 0.32638 0.0
H591 H 0.82483 0.62561 0.33619 0.0
H592 H 0.80591 0.65575 0.42067 0.0
H593 H 0.8106 0.644 0.39388 0.0
H594 H 0.82966 0.70046 0.4049 0.0
H595 H 0.83449 0.68855 0.3781 0.0
H596 H 0.90767 0.73856 0.33963 0.0
H597 H 0.90337 0.69743 0.29297 0.0
H598 H 0.87904 0.67938 0.31191 0.0
H599 H 0.8833 0.71952 0.35704 0.0
C600 C 0.82732 0.38909 0.34175 0.0
C601 C 0.82144 0.40213 0.35062 0.0
C602 C 0.82361 0.41961 0.32671 0.0
C603 C 0.81962 0.41725 0.34319 0.0
C604 C 0.82917 0.40638 0.31773 0.0
C605 C 0.83108 0.39124 0.32522 0.0
U606 U 0.84778 0.34801 0.34552 0.0
O607 O 0.87062 0.35356 0.3325 0.0
O608 O 0.85054 0.34089 0.31994 0.0
C609 C 0.86589 0.34574 0.3194 0.0
C610 C 0.83017 0.37366 0.35023 0.0
C611 C 0.8773 0.33378 0.31327 0.0
C612 C 0.89204 0.3224 0.29067 0.0
C613 C 0.88134 0.33378 0.29674 0.0
C614 C 0.89487 0.31091 0.31767 0.0
C615 C 0.89899 0.31089 0.30107 0.0
C616 C 0.8841 0.32225 0.32372 0.0
C617 C 0.84061 0.32217 0.3837 0.0
C618 C 0.84302 0.31176 0.41123 0.0
C619 C 0.81921 0.32667 0.40345 0.0
C620 C 0.8255 0.32864 0.38773 0.0
C621 C 0.828 0.31835 0.41542 0.0
C622 C 0.84922 0.31361 0.39551 0.0
C623 C 0.84804 0.32491 0.3676 0.0
O624 O 0.82454 0.36046 0.34309 0.0
O625 O 0.84489 0.37214 0.35614 0.0
O626 O 0.859 0.33677 0.36692 0.0
O627 O 0.83809 0.32472 0.35509 0.0
H628 H 0.81855 0.4007 0.3634 0.0
H629 H 0.8154 0.42722 0.35043 0.0
H630 H 0.8324 0.40789 0.30504 0.0
H631 H 0.83574 0.38131 0.31821 0.0
H632 H 0.89482 0.32254 0.2778 0.0
H633 H 0.87613 0.34254 0.2885 0.0
H634 H 0.89989 0.30204 0.32591 0.0
H635 H 0.88101 0.32199 0.33652 0.0
H636 H 0.85012 0.3054 0.42021 0.0
H637 H 0.80766 0.33196 0.40639 0.0
H638 H 0.81871 0.33543 0.37882 0.0
H639 H 0.86094 0.30862 0.39264 0.0
C640 C 0.66807 0.12387 0.68852 0.0
C641 C 0.6808 0.11993 0.67801 0.0
C642 C 0.69059 0.10026 0.69767 0.0
C643 C 0.69195 0.10822 0.68254 0.0
C644 C 0.67779 0.10425 0.70816 0.0
C645 C 0.6666 0.11593 0.70358 0.0
U646 U 0.65749 0.16 0.66226 0.0
O647 O 0.63449 0.16684 0.65075 0.0
O648 O 0.64629 0.18305 0.66848 0.0
C649 C 0.63343 0.18012 0.65937 0.0
C650 C 0.65671 0.13664 0.68408 0.0
C651 C 0.61751 0.18268 0.66698 0.0
C652 C 0.59896 0.18055 0.68995 0.0
C653 C 0.61432 0.17811 0.68316 0.0
C654 C 0.58988 0.19205 0.66445 0.0
C655 C 0.58654 0.18746 0.68061 0.0
C656 C 0.60523 0.18971 0.65772 0.0
C657 C 0.68696 0.17494 0.62969 0.0
C658 C 0.67975 0.19705 0.61166 0.0
C659 C 0.70701 0.18654 0.61099 0.0
C660 C 0.70271 0.17531 0.62318 0.0
C661 C 0.69553 0.19746 0.60501 0.0
C662 C 0.67549 0.18586 0.62387 0.0
C663 C 0.68269 0.16347 0.64284 0.0
O664 O 0.66188 0.15149 0.68725 0.0
O665 O 0.65001 0.13524 0.66965 0.0
O666 O 0.6703 0.15357 0.63984 0.0
O667 O 0.68216 0.16985 0.65741 0.0
H668 H 0.68223 0.12607 0.66639 0.0
H669 H 0.70181 0.10555 0.67433 0.0
H670 H 0.6766 0.09852 0.72 0.0
H671 H 0.65692 0.11893 0.71188 0.0
H672 H 0.59668 0.17684 0.70241 0.0
H673 H 0.62364 0.17259 0.69049 0.0
H674 H 0.58054 0.19731 0.65694 0.0
H675 H 0.60748 0.19328 0.6452 0.0
H676 H 0.67078 0.20553 0.60753 0.0
H677 H 0.71935 0.18683 0.60636 0.0
H678 H 0.71174 0.16705 0.62765 0.0
H679 H 0.6633 0.18582 0.6289 0.0
C680 C 0.31206 0.17727 0.6252 0.0
C681 C 0.32322 0.18802 0.61757 0.0
C682 C 0.30124 0.19995 0.60208 0.0
C683 C 0.31787 0.19923 0.60603 0.0
C684 C 0.2902 0.1889 0.60953 0.0
C685 C 0.29558 0.17765 0.62097 0.0
U686 U 0.34204 0.16598 0.65832 0.0
O687 O 0.33751 0.15911 0.68379 0.0
O688 O 0.34959 0.1422 0.66754 0.0
C689 C 0.34316 0.1445 0.68195 0.0
C690 C 0.31714 0.16648 0.63844 0.0
C691 C 0.33266 0.13132 0.68852 0.0
C692 C 0.31062 0.11134 0.6857 0.0
C693 C 0.32117 0.12309 0.6788 0.0
C694 C 0.32302 0.11592 0.71202 0.0
C695 C 0.31132 0.10778 0.70243 0.0
C696 C 0.33361 0.12754 0.7051 0.0
C697 C 0.3798 0.19158 0.66617 0.0
C698 C 0.39762 0.18397 0.6883 0.0
C699 C 0.39994 0.21093 0.67645 0.0
C700 C 0.38741 0.20696 0.66559 0.0
C701 C 0.40507 0.1995 0.68803 0.0
C702 C 0.38507 0.18005 0.67749 0.0
C703 C 0.36541 0.18812 0.65611 0.0
O704 O 0.33015 0.15795 0.6357 0.0
O705 O 0.31704 0.17308 0.6529 0.0
O706 O 0.35151 0.19055 0.66347 0.0
O707 O 0.3655 0.17445 0.64799 0.0
H708 H 0.33599 0.188 0.62082 0.0
H709 H 0.32662 0.20764 0.60052 0.0
H710 H 0.27733 0.18922 0.60678 0.0
H711 H 0.28679 0.16952 0.62683 0.0
H712 H 0.30167 0.10528 0.67805 0.0
H713 H 0.32016 0.12594 0.66597 0.0
H714 H 0.32379 0.11351 0.72494 0.0
H715 H 0.34235 0.13385 0.7128 0.0
H716 H 0.40119 0.17502 0.69722 0.0
H717 H 0.4053 0.22306 0.67612 0.0
H718 H 0.38334 0.21606 0.65706 0.0
H719 H 0.37915 0.16817 0.67827 0.0
C720 C 0.3275 0.84509 0.6225 0.0
C721 C 0.33268 0.82922 0.6199 0.0
C722 C 0.32328 0.83049 0.59184 0.0
C723 C 0.33056 0.82197 0.60468 0.0
C724 C 0.31808 0.84635 0.59458 0.0
C725 C 0.32012 0.85353 0.60978 0.0
U726 U 0.34997 0.85137 0.66293 0.0
O727 O 0.34017 0.85671 0.68714 0.0
O728 O 0.35685 0.87418 0.67512 0.0
C729 C 0.34696 0.87131 0.68742 0.0
C730 C 0.32996 0.85325 0.63818 0.0
C731 C 0.3359 0.88445 0.69134 0.0
C732 C 0.31371 0.90192 0.68394 0.0
C733 C 0.32454 0.88978 0.67991 0.0
C734 C 0.32557 0.90361 0.71084 0.0
C735 C 0.31407 0.90895 0.69946 0.0
C736 C 0.33642 0.89149 0.70677 0.0
C737 C 0.38574 0.82527 0.6748 0.0
C738 C 0.40316 0.83146 0.69789 0.0
C739 C 0.40428 0.80516 0.68507 0.0
C740 C 0.39238 0.80982 0.67397 0.0
C741 C 0.40986 0.81596 0.69713 0.0
C742 C 0.39119 0.83607 0.68684 0.0
C743 C 0.37286 0.82976 0.66334 0.0
O744 O 0.32676 0.84451 0.65127 0.0
O745 O 0.34339 0.86215 0.63938 0.0
O746 O 0.37466 0.84411 0.6564 0.0
O747 O 0.35792 0.82663 0.66835 0.0
H748 H 0.33853 0.82254 0.62955 0.0
H749 H 0.33485 0.80981 0.60284 0.0
H750 H 0.31262 0.85328 0.58488 0.0
H751 H 0.31611 0.86581 0.61155 0.0
H752 H 0.30485 0.90564 0.67502 0.0
H753 H 0.32392 0.8844 0.66795 0.0
H754 H 0.32598 0.90863 0.72295 0.0
H755 H 0.34508 0.88746 0.71576 0.0
H756 H 0.40705 0.83992 0.70719 0.0
H757 H 0.40899 0.79304 0.68435 0.0
H758 H 0.38822 0.80129 0.66483 0.0
H759 H 0.38608 0.84801 0.68777 0.0
C760 C 0.63247 0.81218 0.67004 0.0
C761 C 0.62523 0.8225 0.68127 0.0
C762 C 0.60825 0.79999 0.6915 0.0
C763 C 0.61314 0.81647 0.69188 0.0
C764 C 0.61533 0.78983 0.67997 0.0
C765 C 0.6273 0.79588 0.66933 0.0
U766 U 0.66781 0.84178 0.66126 0.0
O767 O 0.69307 0.83682 0.65462 0.0
O768 O 0.67796 0.85099 0.63809 0.0
C769 C 0.69186 0.84373 0.64026 0.0
C770 C 0.64624 0.8178 0.65986 0.0
C771 C 0.69774 0.834 0.62666 0.0
C772 C 0.6942 0.812 0.60737 0.0
C773 C 0.68782 0.822 0.61937 0.0
C774 C 0.72034 0.82602 0.60976 0.0
C775 C 0.7106 0.81379 0.60257 0.0
C776 C 0.71395 0.83604 0.62165 0.0
C777 C 0.67621 0.87658 0.69096 0.0
C778 C 0.69699 0.89777 0.68699 0.0
C779 C 0.68602 0.89238 0.71388 0.0
C780 C 0.67578 0.88023 0.70754 0.0
C781 C 0.69684 0.9012 0.70372 0.0
C782 C 0.6868 0.88549 0.68066 0.0
C783 C 0.66627 0.86278 0.68499 0.0
O784 O 0.64453 0.83167 0.65213 0.0
O785 O 0.66058 0.81649 0.66671 0.0
O786 O 0.67301 0.8486 0.68652 0.0
O787 O 0.65892 0.86475 0.67095 0.0
H788 H 0.62919 0.8351 0.6821 0.0
H789 H 0.60795 0.82454 0.70068 0.0
H790 H 0.61187 0.77708 0.67945 0.0
H791 H 0.63285 0.78772 0.66082 0.0
H792 H 0.68646 0.80258 0.60213 0.0
H793 H 0.6753 0.82014 0.62321 0.0
H794 H 0.73304 0.8276 0.60645 0.0
H795 H 0.72181 0.84516 0.62724 0.0
H796 H 0.70528 0.90431 0.67891 0.0
H797 H 0.68571 0.89465 0.72682 0.0
H798 H 0.66776 0.8734 0.71568 0.0
H799 H 0.68741 0.88274 0.66783 0.0
C800 C 0.62828 0.82138 0.33097 0.0
C801 C 0.62192 0.83264 0.31996 0.0
C802 C 0.60661 0.81097 0.30646 0.0
C803 C 0.61109 0.82748 0.30785 0.0
C804 C 0.61278 0.79982 0.31773 0.0
C805 C 0.62349 0.80501 0.32991 0.0
U806 U 0.66369 0.84901 0.34393 0.0
O807 O 0.67144 0.85736 0.36812 0.0
O808 O 0.68757 0.84246 0.35352 0.0
C809 C 0.68487 0.84903 0.36771 0.0
C810 C 0.64091 0.82618 0.34273 0.0
C811 C 0.68763 0.83821 0.38162 0.0
C812 C 0.67859 0.81606 0.3993 0.0
C813 C 0.67534 0.82737 0.38708 0.0
C814 C 0.70644 0.82636 0.40075 0.0
C815 C 0.69418 0.8154 0.40626 0.0
C816 C 0.70314 0.83773 0.38861 0.0
C817 C 0.6786 0.88353 0.31663 0.0
C818 C 0.70064 0.90184 0.32491 0.0
C819 C 0.69424 0.89871 0.29635 0.0
C820 C 0.68161 0.88775 0.30037 0.0
C821 C 0.70406 0.90567 0.30855 0.0
C822 C 0.68808 0.89076 0.32891 0.0
C823 C 0.66664 0.8705 0.32042 0.0
O824 O 0.65587 0.82418 0.33765 0.0
O825 O 0.63898 0.84006 0.3502 0.0
O826 O 0.65745 0.87261 0.33328 0.0
O827 O 0.6724 0.85583 0.31953 0.0
H828 H 0.62563 0.84533 0.32049 0.0
H829 H 0.60654 0.83631 0.29929 0.0
H830 H 0.6096 0.78703 0.31692 0.0
H831 H 0.62839 0.79614 0.33823 0.0
H832 H 0.66905 0.80753 0.40306 0.0
H833 H 0.66336 0.82738 0.3816 0.0
H834 H 0.71867 0.82589 0.40558 0.0
H835 H 0.71283 0.84585 0.38434 0.0
H836 H 0.70802 0.90704 0.33454 0.0
H837 H 0.6966 0.90144 0.28366 0.0
H838 H 0.67449 0.88219 0.29074 0.0
H839 H 0.68606 0.88751 0.34155 0.0
C840 C 0.62187 0.16779 0.32578 0.0
C841 C 0.61486 0.17702 0.33809 0.0
C842 C 0.59754 0.19019 0.31823 0.0
C843 C 0.60281 0.18811 0.33434 0.0
C844 C 0.60474 0.18104 0.30591 0.0
C845 C 0.6167 0.16985 0.30969 0.0
U846 U 0.65872 0.15612 0.35072 0.0
O847 O 0.6661 0.13259 0.3607 0.0
O848 O 0.68191 0.14574 0.34327 0.0
C849 C 0.67929 0.13231 0.35169 0.0
C850 C 0.635 0.15649 0.32943 0.0
C851 C 0.68203 0.11698 0.34317 0.0
C852 C 0.68048 0.10006 0.31912 0.0
C853 C 0.67789 0.1149 0.32675 0.0
C854 C 0.69128 0.08927 0.34423 0.0
C855 C 0.68717 0.08707 0.32781 0.0
C856 C 0.68879 0.1041 0.3518 0.0
C857 C 0.67346 0.18396 0.38461 0.0
C858 C 0.6955 0.17646 0.40257 0.0
C859 C 0.68519 0.20372 0.40324 0.0
C860 C 0.67394 0.19961 0.39112 0.0
C861 C 0.69603 0.19215 0.40919 0.0
C862 C 0.68429 0.17239 0.39041 0.0
C863 C 0.66201 0.18002 0.37144 0.0
O864 O 0.64979 0.16207 0.32623 0.0
O865 O 0.6339 0.14876 0.34344 0.0
O866 O 0.65241 0.16726 0.374 0.0
O867 O 0.66829 0.18049 0.35676 0.0
H868 H 0.61884 0.17583 0.35058 0.0
H869 H 0.59775 0.19527 0.34401 0.0
H870 H 0.60126 0.18266 0.29333 0.0
H871 H 0.62212 0.16299 0.3 0.0
H872 H 0.67704 0.09863 0.3065 0.0
H873 H 0.67255 0.12467 0.31989 0.0
H874 H 0.69628 0.07944 0.35129 0.0
H875 H 0.69201 0.10546 0.36449 0.0
H876 H 0.70393 0.16743 0.40667 0.0
H877 H 0.68557 0.216 0.40781 0.0
H878 H 0.66577 0.20872 0.38666 0.0
H879 H 0.68419 0.16029 0.38538 0.0
C880 C 0.31377 0.13235 0.33453 0.0
C881 C 0.32544 0.12723 0.32337 0.0
C882 C 0.30638 0.10661 0.3132 0.0
C883 C 0.32176 0.11448 0.31278 0.0
C884 C 0.29476 0.11176 0.32448 0.0
C885 C 0.29847 0.12448 0.33511 0.0
U886 U 0.33997 0.16927 0.34561 0.0
O887 O 0.34619 0.17977 0.36938 0.0
O888 O 0.33294 0.1941 0.35139 0.0
C889 C 0.33851 0.19325 0.36631 0.0
C890 C 0.31707 0.14652 0.34485 0.0
C891 C 0.3273 0.19876 0.37891 0.0
C892 C 0.30541 0.19375 0.39831 0.0
C893 C 0.31652 0.18795 0.38698 0.0
C894 C 0.3158 0.22116 0.39361 0.0
C895 C 0.30481 0.21046 0.40159 0.0
C896 C 0.32696 0.21535 0.3824 0.0
C897 C 0.37794 0.18034 0.32188 0.0
C898 C 0.40332 0.20551 0.3358 0.0
C899 C 0.39971 0.19952 0.29671 0.0
C900 C 0.38362 0.18496 0.30116 0.0
C901 C 0.41169 0.20622 0.31479 0.0
C902 C 0.38711 0.19077 0.33888 0.0
C903 C 0.36416 0.16914 0.32484 0.0
O904 O 0.32997 0.14572 0.35423 0.0
O905 O 0.31587 0.16059 0.33742 0.0
O906 O 0.34989 0.17501 0.32132 0.0
O907 O 0.36438 0.16135 0.33883 0.0
H908 H 0.33726 0.13332 0.32263 0.0
H909 H 0.33081 0.111 0.30399 0.0
H910 H 0.28269 0.10619 0.32484 0.0
H911 H 0.28927 0.12841 0.34354 0.0
H912 H 0.29705 0.18526 0.40427 0.0
H913 H 0.31654 0.1751 0.38436 0.0
H914 H 0.3156 0.23407 0.39585 0.0
H915 H 0.33515 0.22386 0.37624 0.0
H916 H 0.40986 0.21075 0.34597 0.0
H917 H 0.40409 0.20147 0.28443 0.0
H918 H 0.37722 0.17903 0.2913 0.0
H919 H 0.38275 0.18824 0.35106 0.0
C920 C 0.33838 0.89019 0.32451 0.0
C921 C 0.32318 0.89029 0.33225 0.0
C922 C 0.31843 0.91731 0.32144 0.0
C923 C 0.31329 0.90376 0.33075 0.0
C924 C 0.33374 0.91716 0.31378 0.0
C925 C 0.34359 0.90366 0.31523 0.0
U926 U 0.34941 0.85168 0.34683 0.0
O927 O 0.37317 0.84313 0.35508 0.0
O928 O 0.35866 0.82863 0.33786 0.0
C929 C 0.37272 0.83061 0.3453 0.0
C930 C 0.34916 0.87642 0.32664 0.0
C931 C 0.38721 0.82893 0.33507 0.0
C932 C 0.40283 0.83607 0.31088 0.0
C933 C 0.38873 0.83734 0.32024 0.0
C934 C 0.41408 0.81807 0.33115 0.0
C935 C 0.41567 0.82644 0.31623 0.0
C936 C 0.39992 0.81927 0.34044 0.0
C937 C 0.3228 0.83654 0.38187 0.0
C938 C 0.33066 0.81398 0.39903 0.0
C939 C 0.3038 0.82514 0.40171 0.0
C940 C 0.30752 0.83642 0.38942 0.0
C941 C 0.3154 0.81391 0.40678 0.0
C942 C 0.33434 0.82523 0.38669 0.0
C943 C 0.32645 0.84831 0.36883 0.0
O944 O 0.35751 0.87649 0.34024 0.0
O945 O 0.34268 0.86212 0.32319 0.0
O946 O 0.32501 0.84266 0.35401 0.0
O947 O 0.33967 0.85735 0.37093 0.0
H948 H 0.31907 0.88006 0.33965 0.0
H949 H 0.30173 0.90369 0.33706 0.0
H950 H 0.33819 0.92759 0.30686 0.0
H951 H 0.35538 0.90383 0.30933 0.0
H952 H 0.40384 0.84282 0.29957 0.0
H953 H 0.37908 0.84501 0.316 0.0
H954 H 0.42386 0.81078 0.33572 0.0
H955 H 0.39899 0.81282 0.35193 0.0
H956 H 0.33968 0.80525 0.40245 0.0
H957 H 0.29182 0.82512 0.40719 0.0
H958 H 0.29843 0.84498 0.38573 0.0
H959 H 0.34615 0.82506 0.38084 0.0
C960 C 0.67152 0.62316 0.19057 0.0
C961 C 0.68274 0.61792 0.17902 0.0
C962 C 0.69339 0.59858 0.19854 0.0
C963 C 0.69356 0.60571 0.18296 0.0
C964 C 0.68199 0.60378 0.21002 0.0
C965 C 0.67112 0.61596 0.20604 0.0
U966 U 0.66133 0.65954 0.16446 0.0
O967 O 0.63784 0.66896 0.15641 0.0
O968 O 0.6542 0.68403 0.1714 0.0
C969 C 0.63978 0.68246 0.16465 0.0
C970 C 0.66095 0.63681 0.18693 0.0
C971 C 0.62612 0.68683 0.17511 0.0
C972 C 0.6075 0.68068 0.19735 0.0
C973 C 0.6199 0.67597 0.18689 0.0
C974 C 0.60746 0.70714 0.18434 0.0
C975 C 0.60112 0.69631 0.19617 0.0
C976 C 0.61979 0.70239 0.17384 0.0
C977 C 0.68816 0.67147 0.12872 0.0
C978 C 0.68105 0.69401 0.11119 0.0
C979 C 0.70821 0.68329 0.11015 0.0
C980 C 0.70387 0.67182 0.12209 0.0
C981 C 0.69681 0.69447 0.10452 0.0
C982 C 0.67676 0.6826 0.12318 0.0
C983 C 0.68412 0.66024 0.14214 0.0
O984 O 0.66783 0.65121 0.18898 0.0
O985 O 0.65252 0.63568 0.1734 0.0
O986 O 0.67037 0.65187 0.14063 0.0
O987 O 0.68618 0.66638 0.15669 0.0
H988 H 0.68335 0.6235 0.16707 0.0
H989 H 0.70235 0.60209 0.17396 0.0
H990 H 0.68174 0.5987 0.22219 0.0
H991 H 0.66263 0.61999 0.21514 0.0
H992 H 0.60309 0.67223 0.20658 0.0
H993 H 0.62482 0.66396 0.18816 0.0
H994 H 0.60307 0.71938 0.18339 0.0
H995 H 0.62461 0.71098 0.16493 0.0
H996 H 0.67216 0.7027 0.10734 0.0
H997 H 0.72055 0.6836 0.10552 0.0
H998 H 0.71288 0.66346 0.1264 0.0
H999 H 0.66464 0.68267 0.12837 0.0
C1000 C 0.32041 0.67878 0.1229 0.0
C1001 C 0.33106 0.69061 0.11614 0.0
C1002 C 0.30871 0.70194 0.10072 0.0
C1003 C 0.32526 0.70204 0.10506 0.0
C1004 C 0.29817 0.68996 0.10741 0.0
C1005 C 0.30399 0.67846 0.11836 0.0
U1006 U 0.34817 0.66808 0.15822 0.0
O1007 O 0.34224 0.65608 0.18148 0.0
O1008 O 0.35957 0.64508 0.16483 0.0
C1009 C 0.35082 0.6433 0.17814 0.0
C1010 C 0.32594 0.6673 0.13537 0.0
C1011 C 0.34203 0.62764 0.17986 0.0
C1012 C 0.31923 0.60971 0.17292 0.0
C1013 C 0.32756 0.62462 0.17125 0.0
C1014 C 0.33982 0.60062 0.19173 0.0
C1015 C 0.32522 0.59756 0.18321 0.0
C1016 C 0.34811 0.61558 0.1901 0.0
C1017 C 0.37968 0.69969 0.17267 0.0
C1018 C 0.39915 0.69448 0.19416 0.0
C1019 C 0.39495 0.72202 0.18487 0.0
C1020 C 0.38351 0.71629 0.17362 0.0
C1021 C 0.4028 0.7112 0.19535 0.0
C1022 C 0.38762 0.68877 0.18293 0.0
C1023 C 0.36684 0.69414 0.16147 0.0
O1024 O 0.34061 0.66162 0.13341 0.0
O1025 O 0.32291 0.67152 0.15041 0.0
O1026 O 0.35227 0.69259 0.16794 0.0
O1027 O 0.37048 0.68205 0.15191 0.0
H1028 H 0.34376 0.69117 0.11962 0.0
H1029 H 0.33362 0.71119 0.10015 0.0
H1030 H 0.28535 0.68964 0.10437 0.0
H1031 H 0.29559 0.6695 0.12354 0.0
H1032 H 0.30816 0.60761 0.16605 0.0
H1033 H 0.32275 0.63378 0.16321 0.0
H1034 H 0.34487 0.5914 0.19953 0.0
H1035 H 0.35931 0.61771 0.19676 0.0
H1036 H 0.40497 0.6859 0.20214 0.0
H1037 H 0.39747 0.73495 0.18556 0.0
H1038 H 0.37743 0.72488 0.16583 0.0
H1039 H 0.38471 0.67589 0.18243 0.0
C1040 C 0.32459 0.34408 0.12178 0.0
C1041 C 0.32953 0.32819 0.11884 0.0
C1042 C 0.32077 0.33042 0.09064 0.0
C1043 C 0.32758 0.32139 0.1034 0.0
C1044 C 0.31575 0.34627 0.09373 0.0
C1045 C 0.31762 0.35301 0.10915 0.0
U1046 U 0.34672 0.34869 0.16249 0.0
O1047 O 0.35356 0.37084 0.17582 0.0
O1048 O 0.33689 0.35274 0.18695 0.0
C1049 C 0.34385 0.36721 0.18809 0.0
C1050 C 0.32687 0.35171 0.13775 0.0
C1051 C 0.33316 0.38014 0.19348 0.0
C1052 C 0.31311 0.40063 0.18803 0.0
C1053 C 0.32356 0.38872 0.18245 0.0
C1054 C 0.32182 0.39545 0.21566 0.0
C1055 C 0.31211 0.40408 0.20472 0.0
C1056 C 0.33229 0.38363 0.21008 0.0
C1057 C 0.38206 0.32226 0.17394 0.0
C1058 C 0.39855 0.32798 0.1978 0.0
C1059 C 0.39981 0.30176 0.18484 0.0
C1060 C 0.38849 0.30671 0.17326 0.0
C1061 C 0.40499 0.31236 0.19724 0.0
C1062 C 0.38716 0.33287 0.18629 0.0
C1063 C 0.36953 0.32702 0.16221 0.0
O1064 O 0.32351 0.34251 0.15049 0.0
O1065 O 0.3403 0.36053 0.13939 0.0
O1066 O 0.37144 0.34161 0.15581 0.0
O1067 O 0.35448 0.32367 0.16674 0.0
H1068 H 0.33504 0.32112 0.12841 0.0
H1069 H 0.33164 0.30919 0.10133 0.0
H1070 H 0.31058 0.35355 0.08412 0.0
H1071 H 0.31378 0.3653 0.11119 0.0
H1072 H 0.30562 0.40696 0.17936 0.0
H1073 H 0.324 0.38608 0.16958 0.0
H1074 H 0.32117 0.3977 0.22859 0.0
H1075 H 0.33956 0.37706 0.21876 0.0
H1076 H 0.40214 0.3363 0.20735 0.0
H1077 H 0.40434 0.28956 0.18424 0.0
H1078 H 0.38456 0.29831 0.16391 0.0
H1079 H 0.38217 0.34487 0.18714 0.0
C1080 C 0.62497 0.31555 0.17475 0.0
C1081 C 0.61783 0.32547 0.18641 0.0
C1082 C 0.60154 0.30242 0.19652 0.0
C1083 C 0.60614 0.31897 0.19717 0.0
C1084 C 0.60855 0.29266 0.18462 0.0
C1085 C 0.62012 0.29918 0.17381 0.0
U1086 U 0.66062 0.34492 0.1656 0.0
O1087 O 0.68511 0.33947 0.1568 0.0
O1088 O 0.66945 0.35511 0.14231 0.0
C1089 C 0.68296 0.34692 0.14284 0.0
C1090 C 0.63828 0.32165 0.16423 0.0
C1091 C 0.68639 0.337 0.12854 0.0
C1092 C 0.67858 0.31518 0.11024 0.0
C1093 C 0.6747 0.32575 0.12278 0.0
C1094 C 0.7058 0.32714 0.10893 0.0
C1095 C 0.69422 0.31563 0.10329 0.0
C1096 C 0.70188 0.33775 0.12143 0.0
C1097 C 0.67228 0.37779 0.19636 0.0
C1098 C 0.69398 0.39794 0.19201 0.0
C1099 C 0.68368 0.39265 0.21919 0.0
C1100 C 0.6726 0.38116 0.21301 0.0
C1101 C 0.69462 0.40104 0.2088 0.0
C1102 C 0.68294 0.38632 0.18584 0.0
C1103 C 0.66146 0.36462 0.19048 0.0
O1104 O 0.63647 0.33603 0.15755 0.0
O1105 O 0.65293 0.31957 0.1701 0.0
O1106 O 0.66783 0.35018 0.19074 0.0
O1107 O 0.65321 0.36757 0.17714 0.0
H1108 H 0.62155 0.33812 0.18743 0.0
H1109 H 0.60099 0.32673 0.20629 0.0
H1110 H 0.60534 0.27986 0.18388 0.0
H1111 H 0.62559 0.29133 0.16496 0.0
H1112 H 0.6695 0.30632 0.10629 0.0
H1113 H 0.66273 0.32485 0.12829 0.0
H1114 H 0.71802 0.3276 0.10398 0.0
H1115 H 0.7111 0.34624 0.12587 0.0
H1116 H 0.7023 0.4042 0.18375 0.0
H1117 H 0.68392 0.39474 0.23216 0.0
H1118 H 0.66452 0.37461 0.22131 0.0
H1119 H 0.68295 0.38378 0.17295 0.0
C1120 C 0.62362 0.32412 0.83802 0.0
C1121 C 0.61991 0.33554 0.82594 0.0
C1122 C 0.60083 0.31628 0.81355 0.0
C1123 C 0.60862 0.33165 0.81382 0.0
C1124 C 0.60469 0.30482 0.82563 0.0
C1125 C 0.61592 0.30876 0.83782 0.0
U1126 U 0.66002 0.34957 0.85067 0.0
O1127 O 0.66688 0.36068 0.87398 0.0
O1128 O 0.68291 0.34316 0.86258 0.0
C1129 C 0.67996 0.35195 0.87546 0.0
C1130 C 0.63615 0.3279 0.85023 0.0
C1131 C 0.68193 0.34388 0.89129 0.0
C1132 C 0.67811 0.32058 0.90928 0.0
C1133 C 0.67641 0.32782 0.89396 0.0
C1134 C 0.69078 0.34538 0.91937 0.0
C1135 C 0.68522 0.32934 0.92218 0.0
C1136 C 0.68918 0.35255 0.90405 0.0
C1137 C 0.67539 0.38239 0.82132 0.0
C1138 C 0.69794 0.4006 0.82829 0.0
C1139 C 0.68653 0.40119 0.80115 0.0
C1140 C 0.6753 0.38892 0.80557 0.0
C1141 C 0.69796 0.40717 0.81248 0.0
C1142 C 0.68673 0.3883 0.83269 0.0
C1143 C 0.66386 0.36918 0.82564 0.0
O1144 O 0.65107 0.32472 0.84575 0.0
O1145 O 0.63499 0.3421 0.85723 0.0
O1146 O 0.65408 0.37213 0.83784 0.0
O1147 O 0.67012 0.3547 0.82637 0.0
H1148 H 0.62594 0.34737 0.82574 0.0
H1149 H 0.60617 0.34056 0.80447 0.0
H1150 H 0.59918 0.29275 0.8255 0.0
H1151 H 0.61882 0.29974 0.84693 0.0
H1152 H 0.67366 0.30823 0.91115 0.0
H1153 H 0.67068 0.32095 0.88427 0.0
H1154 H 0.69622 0.35244 0.92909 0.0
H1155 H 0.69345 0.36497 0.90221 0.0
H1156 H 0.70673 0.40485 0.83719 0.0
H1157 H 0.68641 0.40587 0.78882 0.0
H1158 H 0.66667 0.38441 0.79665 0.0
H1159 H 0.687 0.38328 0.84489 0.0
C1160 C 0.6264 0.67177 0.82396 0.0
C1161 C 0.61896 0.68008 0.83668 0.0
C1162 C 0.60151 0.69377 0.81731 0.0
C1163 C 0.60658 0.69095 0.83338 0.0
C1164 C 0.60901 0.68538 0.80463 0.0
C1165 C 0.62129 0.67444 0.80795 0.0
U1166 U 0.66326 0.65954 0.84883 0.0
O1167 O 0.67241 0.63545 0.85511 0.0
O1168 O 0.6875 0.65246 0.84061 0.0
C1169 C 0.6857 0.63763 0.84636 0.0
C1170 C 0.64008 0.66101 0.82701 0.0
C1171 C 0.68918 0.62479 0.83468 0.0
C1172 C 0.68107 0.60784 0.81191 0.0
C1173 C 0.67728 0.61935 0.82363 0.0
C1174 C 0.70866 0.60707 0.82219 0.0
C1175 C 0.69682 0.60163 0.81101 0.0
C1176 C 0.70483 0.61851 0.83395 0.0
C1177 C 0.67588 0.68439 0.88581 0.0
C1178 C 0.69826 0.67684 0.90332 0.0
C1179 C 0.68738 0.70382 0.9049 0.0
C1180 C 0.67608 0.69982 0.89281 0.0
C1181 C 0.69862 0.69238 0.91028 0.0
C1182 C 0.687 0.67289 0.89116 0.0
C1183 C 0.66465 0.68083 0.87235 0.0
O1184 O 0.65457 0.66782 0.82498 0.0
O1185 O 0.639 0.6518 0.84011 0.0
O1186 O 0.65626 0.66706 0.8734 0.0
O1187 O 0.67071 0.68364 0.8578 0.0
H1188 H 0.62289 0.67835 0.84912 0.0
H1189 H 0.60117 0.69741 0.84335 0.0
H1190 H 0.60557 0.6875 0.79211 0.0
H1191 H 0.62702 0.66827 0.79797 0.0
H1192 H 0.67178 0.60403 0.80332 0.0
H1193 H 0.66517 0.62422 0.82389 0.0
H1194 H 0.72096 0.60271 0.82164 0.0
H1195 H 0.7142 0.6227 0.8423 0.0
H1196 H 0.70692 0.66788 0.90708 0.0
H1197 H 0.68753 0.71596 0.90982 0.0
H1198 H 0.66768 0.70889 0.8887 0.0
H1199 H 0.68714 0.66096 0.88574 0.0
C1200 C 0.31299 0.62853 0.83413 0.0
C1201 C 0.32365 0.62112 0.8233 0.0
C1202 C 0.30134 0.60404 0.81307 0.0
C1203 C 0.31788 0.60893 0.81287 0.0
C1204 C 0.2908 0.6114 0.82411 0.0
C1205 C 0.2966 0.62349 0.83456 0.0
U1206 U 0.34354 0.6625 0.84487 0.0
O1207 O 0.33915 0.68794 0.85083 0.0
O1208 O 0.35096 0.67222 0.86866 0.0
C1209 C 0.34472 0.68647 0.86569 0.0
C1210 C 0.31843 0.64219 0.84432 0.0
C1211 C 0.33432 0.69318 0.8784 0.0
C1212 C 0.31235 0.69057 0.89813 0.0
C1213 C 0.3227 0.68353 0.88679 0.0
C1214 C 0.32521 0.71685 0.89283 0.0
C1215 C 0.31337 0.70736 0.9011 0.0
C1216 C 0.33559 0.70981 0.88163 0.0
C1217 C 0.38181 0.6705 0.82038 0.0
C1218 C 0.40102 0.69173 0.82866 0.0
C1219 C 0.40171 0.68152 0.80115 0.0
C1220 C 0.3888 0.67071 0.80484 0.0
C1221 C 0.40789 0.69222 0.81301 0.0
C1222 C 0.38807 0.68101 0.8323 0.0
C1223 C 0.36717 0.66037 0.82363 0.0
O1224 O 0.3314 0.63986 0.85331 0.0
O1225 O 0.3186 0.65641 0.83702 0.0
O1226 O 0.35342 0.6675 0.82046 0.0
O1227 O 0.36695 0.65242 0.83755 0.0
H1228 H 0.33634 0.62498 0.8227 0.0
H1229 H 0.32621 0.60359 0.80437 0.0
H1230 H 0.27799 0.60802 0.82442 0.0
H1231 H 0.28818 0.62917 0.84276 0.0
H1232 H 0.30332 0.68298 0.90432 0.0
H1233 H 0.32146 0.67067 0.88438 0.0
H1234 H 0.32626 0.7298 0.89483 0.0
H1235 H 0.34445 0.71744 0.87522 0.0
H1236 H 0.40539 0.69999 0.83795 0.0
H1237 H 0.40657 0.68179 0.78892 0.0
H1238 H 0.38398 0.66284 0.79543 0.0
H1239 H 0.38266 0.6812 0.84431 0.0
C1240 C 0.33594 0.38004 0.8116 0.0
C1241 C 0.32594 0.38775 0.82284 0.0
C1242 C 0.31372 0.40329 0.80093 0.0
C1243 C 0.31493 0.39934 0.81754 0.0
C1244 C 0.32395 0.39567 0.7898 0.0
C1245 C 0.33499 0.38419 0.79511 0.0
U1246 U 0.34819 0.34666 0.84126 0.0
O1247 O 0.35483 0.32157 0.83612 0.0
O1248 O 0.37242 0.33806 0.84799 0.0
C1249 C 0.36985 0.32385 0.84117 0.0
C1250 C 0.34665 0.36692 0.81661 0.0
C1251 C 0.38239 0.31851 0.82978 0.0
C1252 C 0.40049 0.32357 0.80683 0.0
C1253 C 0.38952 0.32925 0.81836 0.0
C1254 C 0.39733 0.29644 0.81809 0.0
C1255 C 0.40436 0.30705 0.80646 0.0
C1256 C 0.38649 0.30214 0.82967 0.0
C1257 C 0.32407 0.33789 0.87976 0.0
C1258 C 0.3321 0.31654 0.89835 0.0
C1259 C 0.30523 0.32777 0.90043 0.0
C1260 C 0.30888 0.3383 0.88746 0.0
C1261 C 0.31682 0.31678 0.90604 0.0
C1262 C 0.3357 0.32702 0.88533 0.0
C1263 C 0.32718 0.34792 0.8652 0.0
O1264 O 0.35579 0.36967 0.82945 0.0
O1265 O 0.33976 0.35238 0.81661 0.0
O1266 O 0.32405 0.34055 0.85142 0.0
O1267 O 0.341 0.35632 0.86499 0.0
H1268 H 0.32639 0.38457 0.83562 0.0
H1269 H 0.30709 0.40493 0.82634 0.0
H1270 H 0.32318 0.39835 0.77693 0.0
H1271 H 0.34254 0.37826 0.78627 0.0
H1272 H 0.40567 0.33199 0.79796 0.0
H1273 H 0.38637 0.34192 0.81814 0.0
H1274 H 0.4 0.28364 0.81804 0.0
H1275 H 0.381 0.29366 0.83832 0.0
H1276 H 0.34111 0.30796 0.90218 0.0
H1277 H 0.29322 0.32796 0.90583 0.0
H1278 H 0.29969 0.34647 0.88315 0.0
H1279 H 0.34742 0.32635 0.87935 0.0
C1280 C 0.33659 0.32308 0.06599 0.0
C1281 C 0.31961 0.32366 0.0736 0.0
C1282 C 0.30399 0.30152 0.06152 0.0
C1283 C 0.29091 0.30957 0.05449 0.0
C1284 C 0.2826 0.30299 0.04108 0.0
C1285 C 0.28755 0.28808 0.03454 0.0
C1286 C 0.30038 0.27965 0.04201 0.0
C1287 C 0.30828 0.28639 0.05559 0.0
C1288 C 0.26874 0.31213 0.03369 0.0
C1289 C 0.30604 0.26376 0.03535 0.0
C1290 C 0.30385 0.28959 0.91069 0.0
C1291 C 0.31241 0.30414 0.91887 0.0
C1292 C 0.2977 0.3042 0.945 0.0
C1293 C 0.3048 0.29033 0.9517 0.0
C1294 C 0.29909 0.28357 0.9664 0.0
C1295 C 0.28608 0.29083 0.97462 0.0
C1296 C 0.27922 0.30505 0.96818 0.0
C1297 C 0.28517 0.31156 0.95346 0.0
C1298 C 0.30679 0.26849 0.97307 0.0
C1299 C 0.26542 0.31319 0.97671 0.0
C1300 C 0.20981 0.21699 0.94352 0.0
C1301 C 0.22379 0.21006 0.95019 0.0
C1302 C 0.23021 0.21551 0.96505 0.0
C1303 C 0.22254 0.22814 0.97341 0.0
C1304 C 0.20831 0.23493 0.9669 0.0
C1305 C 0.20211 0.22921 0.95205 0.0
C1306 C 0.24531 0.20789 0.97177 0.0
C1307 C 0.19978 0.24836 0.97553 0.0
C1308 C 0.20374 0.22422 0.09731 0.0
C1309 C 0.1959 0.20993 0.08809 0.0
C1310 C 0.21164 0.21116 0.06254 0.0
C1311 C 0.22448 0.20425 0.05417 0.0
C1312 C 0.23057 0.21118 0.0397 0.0
C1313 C 0.22353 0.22538 0.03342 0.0
C1314 C 0.21029 0.23227 0.0416 0.0
C1315 C 0.20445 0.2251 0.05608 0.0
C1316 C 0.24463 0.20344 0.0312 0.0
C1317 C 0.2024 0.24731 0.0351 0.0
C1318 C 0.28003 0.28188 0.0193 0.0
C1319 C 0.28579 0.28843 0.0046 0.0
C1320 C 0.27936 0.28332 0.98974 0.0
C1321 C 0.26684 0.27123 0.98941 0.0
C1322 C 0.26011 0.2658 0.97466 0.0
C1323 C 0.24789 0.25382 0.97443 0.0
C1324 C 0.24191 0.24679 0.98894 0.0
C1325 C 0.2296 0.23448 0.9888 0.0
C1326 C 0.22388 0.22782 0.00346 0.0
C1327 C 0.23013 0.23309 0.01835 0.0
C1328 C 0.24248 0.24537 0.01874 0.0
C1329 C 0.24905 0.25098 0.03351 0.0
C1330 C 0.26126 0.26301 0.03375 0.0
C1331 C 0.26746 0.26981 0.01923 0.0
C1332 C 0.26091 0.26442 0.0042 0.0
C1333 C 0.24841 0.2522 0.00396 0.0
C1334 C 0.2244 0.2105 0.90882 0.0
C1335 C 0.20998 0.20211 0.9176 0.0
O1336 O 0.3127 0.30813 0.07394 0.0
O1337 O 0.20676 0.20406 0.07679 0.0
O1338 O 0.20339 0.21245 0.92894 0.0
O1339 O 0.30233 0.3108 0.93044 0.0
H1340 H 0.31232 0.33191 0.0659 0.0
H1341 H 0.33562 0.31881 0.05325 0.0
H1342 H 0.34441 0.31463 0.07284 0.0
H1343 H 0.34248 0.33536 0.06586 0.0
H1344 H 0.28718 0.32101 0.05949 0.0
H1345 H 0.31827 0.28018 0.06127 0.0
H1346 H 0.27245 0.31689 0.02155 0.0
H1347 H 0.2651 0.32249 0.04131 0.0
H1348 H 0.25801 0.30386 0.03194 0.0
H1349 H 0.3166 0.25905 0.04216 0.0
H1350 H 0.30951 0.2653 0.02238 0.0
H1351 H 0.29595 0.25457 0.03595 0.0
H1352 H 0.32382 0.30017 0.92476 0.0
H1353 H 0.30106 0.27981 0.91966 0.0
H1354 H 0.29226 0.2933 0.905 0.0
H1355 H 0.31182 0.28452 0.90118 0.0
H1356 H 0.3147 0.2846 0.9455 0.0
H1357 H 0.27984 0.32233 0.94831 0.0
H1358 H 0.29757 0.25843 0.9736 0.0
H1359 H 0.31112 0.27069 0.98566 0.0
H1360 H 0.31721 0.26462 0.96556 0.0
H1361 H 0.26144 0.32421 0.97015 0.0
H1362 H 0.26924 0.31664 0.98917 0.0
H1363 H 0.25487 0.30457 0.97788 0.0
H1364 H 0.21415 0.19095 0.92382 0.0
H1365 H 0.22986 0.20047 0.9439 0.0
H1366 H 0.1913 0.23444 0.9469 0.0
H1367 H 0.25531 0.21717 0.9724 0.0
H1368 H 0.24942 0.19766 0.96422 0.0
H1369 H 0.24298 0.20338 0.98432 0.0
H1370 H 0.18893 0.25249 0.96877 0.0
H1371 H 0.20833 0.25886 0.97717 0.0
H1372 H 0.19588 0.24413 0.9878 0.0
H1373 H 0.18469 0.21405 0.08191 0.0
H1374 H 0.19519 0.22873 0.1066 0.0
H1375 H 0.20681 0.23441 0.0889 0.0
H1376 H 0.2151 0.22045 0.10343 0.0
H1377 H 0.22989 0.19345 0.05916 0.0
H1378 H 0.19436 0.23054 0.06224 0.0
H1379 H 0.25498 0.2123 0.03017 0.0
H1380 H 0.24097 0.2 0.01868 0.0
H1381 H 0.24881 0.19246 0.0377 0.0
H1382 H 0.19192 0.25097 0.04264 0.0
H1383 H 0.19811 0.24519 0.02249 0.0
H1384 H 0.2115 0.25749 0.03467 0.0
H1385 H 0.29543 0.29767 0.00473 0.0
H1386 H 0.26423 0.27072 0.9631 0.0
H1387 H 0.2432 0.25011 0.9627 0.0
H1388 H 0.21446 0.21836 0.00326 0.0
H1389 H 0.24483 0.24613 0.04506 0.0
H1390 H 0.26583 0.26687 0.04546 0.0
H1391 H 0.22948 0.2023 0.89956 0.0
H1392 H 0.23424 0.21367 0.91752 0.0
H1393 H 0.2205 0.22183 0.90273 0.0
C1394 C 0.66925 0.32045 0.94664 0.0
C1395 C 0.68624 0.32201 0.93905 0.0
C1396 C 0.7025 0.30045 0.95007 0.0
C1397 C 0.71615 0.30904 0.95602 0.0
C1398 C 0.72535 0.30278 0.96887 0.0
C1399 C 0.72072 0.28764 0.97592 0.0
C1400 C 0.70732 0.27867 0.96948 0.0
C1401 C 0.69852 0.28511 0.95643 0.0
C1402 C 0.73978 0.31249 0.97516 0.0
C1403 C 0.70197 0.26254 0.97674 0.0
C1404 C 0.70693 0.28891 0.09988 0.0
C1405 C 0.69878 0.30296 0.09097 0.0
C1406 C 0.71391 0.30317 0.06508 0.0
C1407 C 0.70666 0.28892 0.05875 0.0
C1408 C 0.71215 0.28234 0.04411 0.0
C1409 C 0.7251 0.29016 0.03558 0.0
C1410 C 0.73221 0.30466 0.04171 0.0
C1411 C 0.72649 0.31097 0.05638 0.0
C1412 C 0.70418 0.26695 0.03779 0.0
C1413 C 0.74596 0.31337 0.03284 0.0
C1414 C 0.79788 0.2169 0.06449 0.0
C1415 C 0.78342 0.21033 0.05794 0.0
C1416 C 0.77747 0.2159 0.043 0.0
C1417 C 0.78618 0.22829 0.03444 0.0
C1418 C 0.80112 0.23443 0.04068 0.0
C1419 C 0.80687 0.22851 0.05559 0.0
C1420 C 0.76174 0.20874 0.03646 0.0
C1421 C 0.81079 0.24751 0.03177 0.0
C1422 C 0.7805 0.21415 0.90791 0.0
C1423 C 0.79742 0.21506 0.91565 0.0
C1424 C 0.79312 0.21319 0.94479 0.0
C1425 C 0.78165 0.20503 0.95459 0.0
C1426 C 0.77649 0.21172 0.9693 0.0
C1427 C 0.78332 0.22675 0.97446 0.0
C1428 C 0.79552 0.23468 0.96494 0.0
C1429 C 0.80027 0.22782 0.95017 0.0
C1430 C 0.76359 0.20284 0.97922 0.0
C1431 C 0.80346 0.25043 0.97035 0.0
C1432 C 0.72909 0.28182 0.99077 0.0
C1433 C 0.72421 0.28816 0.00565 0.0
C1434 C 0.73121 0.28313 0.02024 0.0
C1435 C 0.74345 0.27139 0.02008 0.0
C1436 C 0.75069 0.266 0.03454 0.0
C1437 C 0.7625 0.25423 0.0343 0.0
C1438 C 0.76756 0.2474 0.01958 0.0
C1439 C 0.77931 0.23518 0.01927 0.0
C1440 C 0.78426 0.22883 0.00442 0.0
C1441 C 0.77763 0.23422 0.98976 0.0
C1442 C 0.76566 0.24626 0.98984 0.0
C1443 C 0.75852 0.25178 0.97536 0.0
C1444 C 0.74666 0.26354 0.9756 0.0
C1445 C 0.74137 0.27012 0.99034 0.0
C1446 C 0.74851 0.26484 0.00507 0.0
C1447 C 0.76063 0.25287 0.00483 0.0
C1448 C 0.79384 0.22764 0.10153 0.0
C1449 C 0.79395 0.21108 0.09324 0.0
O1450 O 0.69292 0.30676 0.93833 0.0
O1451 O 0.79716 0.20664 0.9303 0.0
O1452 O 0.80343 0.21225 0.0793 0.0
O1453 O 0.70935 0.30972 0.07947 0.0
H1454 H 0.69361 0.33023 0.94698 0.0
H1455 H 0.67018 0.31571 0.95926 0.0
H1456 H 0.66131 0.31198 0.93958 0.0
H1457 H 0.66353 0.3325 0.94708 0.0
H1458 H 0.71958 0.32066 0.95065 0.0
H1459 H 0.68808 0.2785 0.95157 0.0
H1460 H 0.73695 0.3171 0.98745 0.0
H1461 H 0.743 0.32299 0.96714 0.0
H1462 H 0.75051 0.30466 0.97629 0.0
H1463 H 0.69093 0.25738 0.97072 0.0
H1464 H 0.69938 0.26394 0.98989 0.0
H1465 H 0.71192 0.25378 0.9756 0.0
H1466 H 0.68747 0.29832 0.085 0.0
H1467 H 0.69862 0.28367 0.10932 0.0
H1468 H 0.71839 0.29319 0.10579 0.0
H1469 H 0.70988 0.27909 0.09133 0.0
H1470 H 0.69677 0.28277 0.06514 0.0
H1471 H 0.73196 0.322 0.06125 0.0
H1472 H 0.71335 0.25733 0.03699 0.0
H1473 H 0.69944 0.26905 0.02535 0.0
H1474 H 0.694 0.26249 0.04566 0.0
H1475 H 0.75029 0.32445 0.03928 0.0
H1476 H 0.74189 0.31686 0.02047 0.0
H1477 H 0.75632 0.30512 0.03142 0.0
H1478 H 0.7811 0.20776 0.09027 0.0
H1479 H 0.77682 0.20077 0.06442 0.0
H1480 H 0.81816 0.23331 0.06064 0.0
H1481 H 0.75235 0.21817 0.03626 0.0
H1482 H 0.75712 0.1983 0.0439 0.0
H1483 H 0.76349 0.20465 0.02377 0.0
H1484 H 0.8221 0.25113 0.03832 0.0
H1485 H 0.80322 0.25837 0.03013 0.0
H1486 H 0.81408 0.24318 0.01949 0.0
H1487 H 0.80046 0.22812 0.91762 0.0
H1488 H 0.78059 0.2206 0.89601 0.0
H1489 H 0.77157 0.22002 0.91596 0.0
H1490 H 0.77645 0.20134 0.90607 0.0
H1491 H 0.77641 0.19361 0.95043 0.0
H1492 H 0.80967 0.23381 0.94293 0.0
H1493 H 0.75333 0.21098 0.98164 0.0
H1494 H 0.76875 0.19927 0.99114 0.0
H1495 H 0.75881 0.19177 0.97306 0.0
H1496 H 0.81364 0.25439 0.96225 0.0
H1497 H 0.80816 0.24912 0.98292 0.0
H1498 H 0.79428 0.26006 0.97047 0.0
H1499 H 0.71473 0.29707 0.0059 0.0
H1500 H 0.74725 0.27077 0.04623 0.0
H1501 H 0.7676 0.25053 0.04583 0.0
H1502 H 0.79327 0.21945 0.00428 0.0
H1503 H 0.76199 0.24705 0.96366 0.0
H1504 H 0.74161 0.26735 0.96409 0.0
H1505 H 0.78661 0.22689 0.11294 0.0
H1506 H 0.78821 0.23668 0.09335 0.0
H1507 H 0.80642 0.23197 0.1044 0.0
C1508 C 0.81372 0.78849 0.09761 0.0
C1509 C 0.81813 0.80456 0.08897 0.0
C1510 C 0.80044 0.80268 0.0648 0.0
C1511 C 0.78594 0.80806 0.05804 0.0
C1512 C 0.77974 0.80146 0.04359 0.0
C1513 C 0.78828 0.7891 0.03569 0.0
C1514 C 0.80313 0.78378 0.04226 0.0
C1515 C 0.80911 0.79065 0.05671 0.0
C1516 C 0.76396 0.80757 0.03683 0.0
C1517 C 0.81259 0.7707 0.03406 0.0
C1518 C 0.80272 0.78519 0.91079 0.0
C1519 C 0.81171 0.79971 0.91856 0.0
C1520 C 0.79776 0.8008 0.94508 0.0
C1521 C 0.80498 0.78713 0.95205 0.0
C1522 C 0.79984 0.7811 0.96726 0.0
C1523 C 0.78718 0.78881 0.97561 0.0
C1524 C 0.78019 0.80281 0.96884 0.0
C1525 C 0.78565 0.80865 0.95368 0.0
C1526 C 0.80773 0.76629 0.97428 0.0
C1527 C 0.76673 0.81138 0.97747 0.0
C1528 C 0.71215 0.71225 0.94824 0.0
C1529 C 0.72621 0.70533 0.95475 0.0
C1530 C 0.73309 0.71117 0.96926 0.0
C1531 C 0.72575 0.7241 0.97745 0.0
C1532 C 0.71139 0.73081 0.97114 0.0
C1533 C 0.70478 0.72476 0.95662 0.0
C1534 C 0.74833 0.70366 0.97577 0.0
C1535 C 0.70317 0.74453 0.97964 0.0
C1536 C 0.70959 0.72203 0.10197 0.0
C1537 C 0.70175 0.70783 0.09264 0.0
C1538 C 0.71722 0.70893 0.06696 0.0
C1539 C 0.72984 0.70187 0.05837 0.0
C1540 C 0.7356 0.7086 0.04368 0.0
C1541 C 0.72843 0.72272 0.03739 0.0
C1542 C 0.71545 0.7298 0.04583 0.0
C1543 C 0.70999 0.72287 0.06054 0.0
C1544 C 0.74943 0.70072 0.03495 0.0
C1545 C 0.70742 0.74477 0.03933 0.0
C1546 C 0.78158 0.78166 0.02065 0.0
C1547 C 0.7869 0.78796 0.00569 0.0
C1548 C 0.78078 0.7818 0.99109 0.0
C1549 C 0.76886 0.76911 0.99132 0.0
C1550 C 0.76214 0.76291 0.97685 0.0
C1551 C 0.75047 0.7504 0.97719 0.0
C1552 C 0.74508 0.74355 0.992 0.0
C1553 C 0.73322 0.73081 0.99246 0.0
C1554 C 0.72814 0.72428 0.00739 0.0
C1555 C 0.73456 0.73014 0.022 0.0
C1556 C 0.74641 0.7429 0.02179 0.0
C1557 C 0.75312 0.7491 0.03626 0.0
C1558 C 0.76464 0.76177 0.03593 0.0
C1559 C 0.76996 0.76869 0.02112 0.0
C1560 C 0.76351 0.76248 0.00639 0.0
C1561 C 0.75167 0.74962 0.00673 0.0
C1562 C 0.72604 0.7052 0.91358 0.0
C1563 C 0.71165 0.69696 0.92256 0.0
O1564 O 0.80541 0.80933 0.07911 0.0
O1565 O 0.71259 0.70195 0.08133 0.0
O1566 O 0.70535 0.70744 0.93393 0.0
O1567 O 0.80187 0.80674 0.93011 0.0
H1568 H 0.82926 0.80309 0.08148 0.0
H1569 H 0.82383 0.78482 0.10569 0.0
H1570 H 0.81157 0.77866 0.0887 0.0
H1571 H 0.80251 0.7897 0.10501 0.0
H1572 H 0.77937 0.8174 0.06428 0.0
H1573 H 0.82047 0.78647 0.06159 0.0
H1574 H 0.76571 0.81154 0.02401 0.0
H1575 H 0.75925 0.81785 0.04392 0.0
H1576 H 0.75465 0.79758 0.03691 0.0
H1577 H 0.82371 0.76753 0.04093 0.0
H1578 H 0.81623 0.77482 0.02167 0.0
H1579 H 0.80477 0.75961 0.03272 0.0
H1580 H 0.82313 0.79551 0.92425 0.0
H1581 H 0.81041 0.77978 0.90125 0.0
H1582 H 0.7911 0.78901 0.90524 0.0
H1583 H 0.79991 0.77565 0.92002 0.0
H1584 H 0.81452 0.78098 0.94571 0.0
H1585 H 0.78023 0.81925 0.94829 0.0
H1586 H 0.81183 0.76871 0.9869 0.0
H1587 H 0.81833 0.7625 0.96698 0.0
H1588 H 0.79869 0.75607 0.9748 0.0
H1589 H 0.76241 0.822 0.97048 0.0
H1590 H 0.77109 0.81558 0.98953 0.0
H1591 H 0.75629 0.80281 0.97959 0.0
H1592 H 0.71584 0.68572 0.92863 0.0
H1593 H 0.73198 0.69548 0.94859 0.0
H1594 H 0.69388 0.72995 0.95159 0.0
H1595 H 0.75829 0.713 0.97625 0.0
H1596 H 0.75238 0.69342 0.9682 0.0
H1597 H 0.74618 0.69918 0.98836 0.0
H1598 H 0.69201 0.74836 0.97322 0.0
H1599 H 0.71173 0.75512 0.98052 0.0
H1600 H 0.69984 0.74075 0.99221 0.0
H1601 H 0.6906 0.71194 0.08636 0.0
H1602 H 0.70098 0.7266 0.11118 0.0
H1603 H 0.71283 0.73221 0.09359 0.0
H1604 H 0.72085 0.71817 0.1082 0.0
H1605 H 0.73531 0.6911 0.06334 0.0
H1606 H 0.70013 0.72848 0.0669 0.0
H1607 H 0.75963 0.70966 0.03318 0.0
H1608 H 0.74533 0.69676 0.02273 0.0
H1609 H 0.75401 0.69005 0.04168 0.0
H1610 H 0.69696 0.74838 0.04692 0.0
H1611 H 0.70307 0.7426 0.02674 0.0
H1612 H 0.71645 0.75501 0.03884 0.0
H1613 H 0.79591 0.79781 0.00541 0.0
H1614 H 0.7658 0.76769 0.96509 0.0
H1615 H 0.74574 0.74614 0.96567 0.0
H1616 H 0.71901 0.71454 0.00766 0.0
H1617 H 0.74951 0.74425 0.04801 0.0
H1618 H 0.76934 0.76606 0.04744 0.0
H1619 H 0.73087 0.69698 0.90421 0.0
H1620 H 0.73608 0.70821 0.92212 0.0
H1621 H 0.72221 0.71661 0.9076 0.0
C1622 C 0.17244 0.82087 0.94391 0.0
C1623 C 0.18946 0.82269 0.93646 0.0
C1624 C 0.2063 0.80156 0.94751 0.0
C1625 C 0.21981 0.81046 0.95333 0.0
C1626 C 0.22928 0.80441 0.96608 0.0
C1627 C 0.22508 0.78917 0.97316 0.0
C1628 C 0.2118 0.77992 0.96688 0.0
C1629 C 0.20273 0.78616 0.95391 0.0
C1630 C 0.24357 0.81444 0.97221 0.0
C1631 C 0.20687 0.76368 0.97418 0.0
C1632 C 0.2133 0.78942 0.09742 0.0
C1633 C 0.20413 0.80293 0.08872 0.0
C1634 C 0.2187 0.80405 0.06252 0.0
C1635 C 0.21208 0.78946 0.05629 0.0
C1636 C 0.21763 0.78321 0.04153 0.0
C1637 C 0.23004 0.79167 0.03279 0.0
C1638 C 0.23652 0.80649 0.03883 0.0
C1639 C 0.23071 0.81249 0.05361 0.0
C1640 C 0.21032 0.76747 0.03531 0.0
C1641 C 0.24968 0.81587 0.02975 0.0
C1642 C 0.30508 0.72065 0.06091 0.0
C1643 C 0.29058 0.7137 0.05482 0.0
C1644 C 0.28418 0.71889 0.03992 0.0
C1645 C 0.29248 0.73125 0.03093 0.0
C1646 C 0.30747 0.73774 0.03669 0.0
C1647 C 0.31367 0.73221 0.05158 0.0
C1648 C 0.26841 0.71135 0.03389 0.0
C1649 C 0.31672 0.75079 0.02732 0.0
C1650 C 0.28442 0.71511 0.90472 0.0
C1651 C 0.30142 0.71538 0.91232 0.0
C1652 C 0.29704 0.71428 0.94153 0.0
C1653 C 0.28568 0.70646 0.95171 0.0
C1654 C 0.28089 0.71351 0.96637 0.0
C1655 C 0.28798 0.72858 0.97109 0.0
C1656 C 0.30004 0.73619 0.96117 0.0
C1657 C 0.30444 0.72896 0.94646 0.0
C1658 C 0.26813 0.70496 0.97673 0.0
C1659 C 0.30824 0.75197 0.9661 0.0
C1660 C 0.23376 0.78353 0.98791 0.0
C1661 C 0.22898 0.78982 0.00285 0.0
C1662 C 0.23626 0.78495 0.01734 0.0
C1663 C 0.24875 0.77347 0.01703 0.0
C1664 C 0.25636 0.76834 0.03139 0.0
C1665 C 0.26837 0.75677 0.03101 0.0
C1666 C 0.27322 0.74986 0.01627 0.0
C1667 C 0.28511 0.73777 0.01583 0.0
C1668 C 0.28976 0.73126 0.00096 0.0
C1669 C 0.28273 0.73637 0.98639 0.0
C1670 C 0.27071 0.74836 0.98659 0.0
C1671 C 0.26327 0.75372 0.97219 0.0
C1672 C 0.25132 0.76539 0.97255 0.0
C1673 C 0.2462 0.772 0.98734 0.0
C1674 C 0.25366 0.76691 0.00198 0.0
C1675 C 0.26592 0.75509 0.0016 0.0
C1676 C 0.30248 0.73143 0.09855 0.0
C1677 C 0.30205 0.71508 0.08984 0.0
O1678 O 0.19651 0.80761 0.9358 0.0
O1679 O 0.30077 0.70729 0.92715 0.0
O1680 O 0.3111 0.71634 0.07563 0.0
O1681 O 0.21405 0.81032 0.07702 0.0
H1682 H 0.19664 0.83102 0.94444 0.0
H1683 H 0.17334 0.81608 0.95652 0.0
H1684 H 0.16469 0.81231 0.93675 0.0
H1685 H 0.16653 0.83282 0.94435 0.0
H1686 H 0.22292 0.82215 0.94793 0.0
H1687 H 0.19239 0.77931 0.94914 0.0
H1688 H 0.24075 0.81902 0.98452 0.0
H1689 H 0.24649 0.82498 0.96415 0.0
H1690 H 0.25449 0.80684 0.97327 0.0
H1691 H 0.19577 0.75837 0.9684 0.0
H1692 H 0.20457 0.76498 0.9874 0.0
H1693 H 0.21693 0.75509 0.97276 0.0
H1694 H 0.19299 0.79763 0.08298 0.0
H1695 H 0.20551 0.78367 0.10701 0.0
H1696 H 0.22462 0.79437 0.1031 0.0
H1697 H 0.21668 0.77982 0.08877 0.0
H1698 H 0.20264 0.7828 0.06284 0.0
H1699 H 0.2357 0.82376 0.05841 0.0
H1700 H 0.21989 0.75825 0.03461 0.0
H1701 H 0.20551 0.76927 0.02284 0.0
H1702 H 0.20031 0.76265 0.0432 0.0
H1703 H 0.25368 0.82705 0.03622 0.0
H1704 H 0.24517 0.8193 0.01752 0.0
H1705 H 0.26036 0.8081 0.02799 0.0
H1706 H 0.28906 0.71214 0.08715 0.0
H1707 H 0.2843 0.70416 0.06163 0.0
H1708 H 0.32501 0.73728 0.05626 0.0
H1709 H 0.25886 0.72062 0.03375 0.0
H1710 H 0.26414 0.70099 0.04162 0.0
H1711 H 0.26992 0.70705 0.02124 0.0
H1712 H 0.32815 0.75468 0.03351 0.0
H1713 H 0.30896 0.7615 0.0257 0.0
H1714 H 0.31975 0.74629 0.01503 0.0
H1715 H 0.30515 0.72833 0.91389 0.0
H1716 H 0.28474 0.7212 0.89263 0.0
H1717 H 0.27591 0.72171 0.91264 0.0
H1718 H 0.27967 0.70247 0.90331 0.0
H1719 H 0.28026 0.69499 0.94791 0.0
H1720 H 0.31379 0.73469 0.93896 0.0
H1721 H 0.25799 0.71324 0.97917 0.0
H1722 H 0.27351 0.7016 0.98862 0.0
H1723 H 0.26313 0.6938 0.97091 0.0
H1724 H 0.31817 0.75577 0.95762 0.0
H1725 H 0.31335 0.75081 0.97852 0.0
H1726 H 0.29913 0.76166 0.9664 0.0
H1727 H 0.21931 0.79852 0.00322 0.0
H1728 H 0.25308 0.77316 0.0431 0.0
H1729 H 0.27375 0.75327 0.04247 0.0
H1730 H 0.29883 0.72193 0.00074 0.0
H1731 H 0.26658 0.74893 0.96047 0.0
H1732 H 0.24604 0.76907 0.9611 0.0
H1733 H 0.29555 0.73052 0.11013 0.0
H1734 H 0.29682 0.74076 0.09075 0.0
H1735 H 0.31521 0.73545 0.10118 0.0
C1736 C 0.09262 0.31006 0.28781 0.0
C1737 C 0.08355 0.31519 0.30315 0.0
C1738 C 0.05886 0.29753 0.3019 0.0
C1739 C 0.05153 0.28337 0.30822 0.0
C1740 C 0.03699 0.27696 0.3017 0.0
C1741 C 0.02957 0.28498 0.28852 0.0
C1742 C 0.03671 0.29949 0.28222 0.0
C1743 C 0.05128 0.30565 0.28897 0.0
C1744 C 0.02966 0.26149 0.30876 0.0
C1745 C 0.02903 0.30838 0.26822 0.0
C1746 C 0.90094 0.28167 0.29363 0.0
C1747 C 0.90997 0.29812 0.29426 0.0
C1748 C 0.9387 0.29271 0.29842 0.0
C1749 C 0.94567 0.29977 0.2844 0.0
C1750 C 0.96092 0.29496 0.27877 0.0
C1751 C 0.96934 0.28281 0.28733 0.0
C1752 C 0.96261 0.27615 0.30182 0.0
C1753 C 0.94743 0.28135 0.30728 0.0
C1754 C 0.96797 0.30271 0.26358 0.0
C1755 C 0.97131 0.2633 0.31134 0.0
C1756 C 0.94116 0.2115 0.21108 0.0
C1757 C 0.94819 0.22599 0.20501 0.0
C1758 C 0.96316 0.23192 0.21097 0.0
C1759 C 0.97123 0.22313 0.22326 0.0
C1760 C 0.96453 0.20812 0.22884 0.0
C1761 C 0.94961 0.20241 0.22253 0.0
C1762 C 0.97023 0.2477 0.20436 0.0
C1763 C 0.97294 0.19836 0.24176 0.0
C1764 C 0.09552 0.2068 0.22419 0.0
C1765 C 0.08609 0.1994 0.20985 0.0
C1766 C 0.06082 0.21489 0.21053 0.0
C1767 C 0.05262 0.22765 0.20323 0.0
C1768 C 0.03799 0.23319 0.20967 0.0
C1769 C 0.03134 0.22567 0.22376 0.0
C1770 C 0.03939 0.21256 0.2311 0.0
C1771 C 0.05406 0.2073 0.22444 0.0
C1772 C 0.02967 0.24715 0.20149 0.0
C1773 C 0.03251 0.20416 0.24604 0.0
C1774 C 0.0145 0.27798 0.28112 0.0
C1775 C 0.9995 0.28305 0.28699 0.0
C1776 C 0.98486 0.27669 0.2808 0.0
C1777 C 0.98512 0.26484 0.26846 0.0
C1778 C 0.97065 0.25791 0.26221 0.0
C1779 C 0.971 0.24645 0.24991 0.0
C1780 C 0.98585 0.24145 0.24337 0.0
C1781 C 0.98632 0.22999 0.23069 0.0
C1782 C 0.00128 0.22513 0.22461 0.0
C1783 C 0.01592 0.23147 0.2308 0.0
C1784 C 0.01571 0.24308 0.24336 0.0
C1785 C 0.0302 0.24985 0.24976 0.0
C1786 C 0.02985 0.26125 0.26213 0.0
C1787 C 0.01499 0.26639 0.26855 0.0
C1788 C 1.00024 0.25977 0.26224 0.0
C1789 C 0.0006 0.24808 0.24966 0.0
C1790 C 0.9044 0.21559 0.22214 0.0
C1791 C 0.91256 0.21549 0.2054 0.0
O1792 O 0.07322 0.30272 0.30857 0.0
O1793 O 0.07515 0.21046 0.2038 0.0
O1794 O 0.92626 0.20604 0.20614 0.0
O1795 O 0.92376 0.29682 0.30385 0.0
H1796 H 0.07637 0.32613 0.30044 0.0
H1797 H 0.10103 0.31999 0.2836 0.0
H1798 H 0.08394 0.30733 0.27783 0.0
H1799 H 0.09975 0.29904 0.29027 0.0
H1800 H 0.0574 0.27721 0.31822 0.0
H1801 H 0.05664 0.31671 0.28399 0.0
H1802 H 0.01691 0.26349 0.31258 0.0
H1803 H 0.03661 0.25702 0.31939 0.0
H1804 H 0.02934 0.25193 0.29933 0.0
H1805 H 0.03608 0.31953 0.26467 0.0
H1806 H 0.01649 0.31179 0.27156 0.0
H1807 H 0.02808 0.30027 0.25754 0.0
H1808 H 0.91331 0.3015 0.28156 0.0
H1809 H 0.88974 0.28256 0.28617 0.0
H1810 H 0.89756 0.27739 0.30604 0.0
H1811 H 0.90887 0.27255 0.28801 0.0
H1812 H 0.93933 0.30916 0.27793 0.0
H1813 H 0.94207 0.2762 0.31826 0.0
H1814 H 0.98068 0.30703 0.26582 0.0
H1815 H 0.96075 0.31309 0.25927 0.0
H1816 H 0.96832 0.29356 0.25377 0.0
H1817 H 0.96419 0.25891 0.32204 0.0
H1818 H 0.98323 0.26827 0.3156 0.0
H1819 H 0.97378 0.25283 0.30338 0.0
H1820 H 0.91587 0.22829 0.20224 0.0
H1821 H 0.94204 0.23268 0.19557 0.0
H1822 H 0.94419 0.19108 0.22691 0.0
H1823 H 0.97031 0.25697 0.21407 0.0
H1824 H 0.96319 0.25234 0.19388 0.0
H1825 H 0.98303 0.24608 0.2005 0.0
H1826 H 0.96604 0.18701 0.24496 0.0
H1827 H 0.97453 0.20576 0.25289 0.0
H1828 H 0.98525 0.19516 0.23748 0.0
H1829 H 0.07955 0.18814 0.214 0.0
H1830 H 0.10449 0.19809 0.22891 0.0
H1831 H 0.08713 0.20969 0.23427 0.0
H1832 H 0.10206 0.21816 0.22039 0.0
H1833 H 0.05786 0.23339 0.19248 0.0
H1834 H 0.06011 0.19732 0.23023 0.0
H1835 H 0.02798 0.25707 0.21034 0.0
H1836 H 0.01741 0.2431 0.19728 0.0
H1837 H 0.03667 0.25204 0.19091 0.0
H1838 H 0.03989 0.19375 0.24997 0.0
H1839 H 0.01988 0.19972 0.24363 0.0
H1840 H 0.03197 0.21294 0.25618 0.0
H1841 H 0.99922 0.29205 0.29652 0.0
H1842 H 0.95885 0.26127 0.26674 0.0
H1843 H 0.95946 0.24157 0.24559 0.0
H1844 H 0.00154 0.21633 0.21489 0.0
H1845 H 0.04199 0.2464 0.24526 0.0
H1846 H 0.04139 0.26603 0.26657 0.0
H1847 H 0.89316 0.22277 0.22171 0.0
H1848 H 0.91281 0.22122 0.23116 0.0
H1849 H 0.90124 0.20305 0.22629 0.0
C1850 C 0.67213 0.06238 0.31775 0.0
C1851 C 0.68888 0.07058 0.3201 0.0
C1852 C 0.70651 0.06058 0.2991 0.0
C1853 C 0.72 0.05519 0.3078 0.0
C1854 C 0.72941 0.04256 0.30185 0.0
C1855 C 0.72511 0.03511 0.28697 0.0
C1856 C 0.71182 0.04096 0.2779 0.0
C1857 C 0.70284 0.05384 0.28399 0.0
C1858 C 0.7437 0.03692 0.31169 0.0
C1859 C 0.70676 0.03324 0.26206 0.0
C1860 C 0.73444 0.90757 0.30779 0.0
C1861 C 0.71866 0.91629 0.304 0.0
C1862 C 0.72176 0.94554 0.30618 0.0
C1863 C 0.71462 0.95055 0.29158 0.0
C1864 C 0.71885 0.96564 0.28457 0.0
C1865 C 0.73051 0.97585 0.29234 0.0
C1866 C 0.73715 0.97112 0.30746 0.0
C1867 C 0.73252 0.95605 0.31429 0.0
C1868 C 0.71112 0.97055 0.26873 0.0
C1869 C 0.74944 0.9818 0.31617 0.0
C1870 C 0.80548 0.94791 0.21857 0.0
C1871 C 0.79097 0.95356 0.21175 0.0
C1872 C 0.78426 0.96811 0.21701 0.0
C1873 C 0.79219 0.97723 0.22931 0.0
C1874 C 0.80695 0.97177 0.23594 0.0
C1875 C 0.81341 0.95719 0.23044 0.0
C1876 C 0.76857 0.97367 0.20956 0.0
C1877 C 0.81574 0.98122 0.24903 0.0
C1878 C 0.78274 0.10291 0.21108 0.0
C1879 C 0.79989 0.09615 0.21189 0.0
C1880 C 0.79692 0.06688 0.2103 0.0
C1881 C 0.78571 0.05646 0.20268 0.0
C1882 C 0.78108 0.04152 0.20981 0.0
C1883 C 0.78816 0.03683 0.22474 0.0
C1884 C 0.8002 0.04695 0.23202 0.0
C1885 C 0.80444 0.06191 0.22472 0.0
C1886 C 0.76836 0.03092 0.20161 0.0
C1887 C 0.80839 0.04207 0.24764 0.0
C1888 C 0.73366 0.0204 0.2816 0.0
C1889 C 0.72894 0.00558 0.28876 0.0
C1890 C 0.73623 0.99115 0.28433 0.0
C1891 C 0.74857 0.99138 0.27235 0.0
C1892 C 0.75616 0.97706 0.26761 0.0
C1893 C 0.76805 0.97733 0.25557 0.0
C1894 C 0.77291 0.99194 0.24787 0.0
C1895 C 0.78481 0.99228 0.23543 0.0
C1896 C 0.78956 0.00706 0.22822 0.0
C1897 C 0.78262 0.02159 0.23298 0.0
C1898 C 0.77053 0.02146 0.24524 0.0
C1899 C 0.76315 0.03582 0.2502 0.0
C1900 C 0.75119 0.03554 0.2622 0.0
C1901 C 0.74603 0.02088 0.26961 0.0
C1902 C 0.75343 0.00628 0.26491 0.0
C1903 C 0.76567 0.00657 0.2527 0.0
C1904 C 0.79159 0.91248 0.21367 0.0
C1905 C 0.80533 0.92158 0.20449 0.0
O1906 O 0.69673 0.07206 0.30522 0.0
O1907 O 0.80025 0.08164 0.20351 0.0
O1908 O 0.81216 0.9336 0.21425 0.0
O1909 O 0.71852 0.93064 0.31267 0.0
H1910 H 0.69587 0.06267 0.32846 0.0
H1911 H 0.67357 0.05001 0.31282 0.0
H1912 H 0.66466 0.06943 0.3091 0.0
H1913 H 0.66562 0.06129 0.32956 0.0
H1914 H 0.72308 0.06079 0.31929 0.0
H1915 H 0.69247 0.05825 0.27731 0.0
H1916 H 0.74067 0.02485 0.3171 0.0
H1917 H 0.74689 0.04543 0.32166 0.0
H1918 H 0.7545 0.03557 0.30375 0.0
H1919 H 0.69567 0.0387 0.2569 0.0
H1920 H 0.7044 0.02004 0.26392 0.0
H1921 H 0.71677 0.03467 0.25308 0.0
H1922 H 0.71866 0.91865 0.29066 0.0
H1923 H 0.73474 0.89586 0.30122 0.0
H1924 H 0.73563 0.90521 0.32104 0.0
H1925 H 0.74504 0.91521 0.30376 0.0
H1926 H 0.70574 0.94267 0.28566 0.0
H1927 H 0.73773 0.95214 0.32571 0.0
H1928 H 0.70616 0.9829 0.26974 0.0
H1929 H 0.70117 0.96199 0.26504 0.0
H1930 H 0.72049 0.97097 0.25901 0.0
H1931 H 0.75384 0.97614 0.32758 0.0
H1932 H 0.7439 0.99354 0.31914 0.0
H1933 H 0.76004 0.98445 0.30811 0.0
H1934 H 0.80032 0.92702 0.19321 0.0
H1935 H 0.78471 0.9467 0.20242 0.0
H1936 H 0.82463 0.95283 0.23558 0.0
H1937 H 0.75897 0.97392 0.21904 0.0
H1938 H 0.76428 0.96564 0.19958 0.0
H1939 H 0.77023 0.9862 0.20471 0.0
H1940 H 0.82706 0.9753 0.25303 0.0
H1941 H 0.80761 0.98251 0.2597 0.0
H1942 H 0.81891 0.99361 0.24448 0.0
H1943 H 0.80272 0.09421 0.22496 0.0
H1944 H 0.78234 0.11472 0.21747 0.0
H1945 H 0.77397 0.09433 0.21711 0.0
H1946 H 0.77884 0.10463 0.19828 0.0
H1947 H 0.78018 0.06032 0.1914 0.0
H1948 H 0.81366 0.06968 0.23026 0.0
H1949 H 0.75801 0.02849 0.21004 0.0
H1950 H 0.77363 0.01906 0.19856 0.0
H1951 H 0.76366 0.03653 0.1903 0.0
H1952 H 0.81846 0.05063 0.25103 0.0
H1953 H 0.81331 0.02972 0.24649 0.0
H1954 H 0.79932 0.04166 0.25764 0.0
H1955 H 0.7194 0.00525 0.29789 0.0
H1956 H 0.75293 0.96545 0.2731 0.0
H1957 H 0.77338 0.96592 0.25238 0.0
H1958 H 0.79869 0.00725 0.21869 0.0
H1959 H 0.76651 0.04745 0.24483 0.0
H1960 H 0.74596 0.04696 0.26555 0.0
H1961 H 0.78631 0.90262 0.20602 0.0
H1962 H 0.78166 0.92078 0.21676 0.0
H1963 H 0.79623 0.90711 0.22513 0.0
C1964 C 0.10039 0.72169 0.30197 0.0
C1965 C 0.0932 0.70442 0.30087 0.0
C1966 C 0.06402 0.70722 0.30308 0.0
C1967 C 0.05832 0.70028 0.2886 0.0
C1968 C 0.04352 0.705 0.28174 0.0
C1969 C 0.03436 0.71703 0.28947 0.0
C1970 C 0.03981 0.72358 0.30442 0.0
C1971 C 0.05451 0.7184 0.31115 0.0
C1972 C 0.03781 0.69731 0.2661 0.0
C1973 C 0.03032 0.73633 0.31309 0.0
C1974 C 0.90843 0.70108 0.33104 0.0
C1975 C 0.92258 0.71009 0.32364 0.0
C1976 C 0.94542 0.70697 0.30499 0.0
C1977 C 0.9519 0.72275 0.30732 0.0
C1978 C 0.96634 0.728 0.29959 0.0
C1979 C 0.97421 0.71752 0.28873 0.0
C1980 C 0.96751 0.70179 0.28598 0.0
C1981 C 0.95328 0.69668 0.29427 0.0
C1982 C 0.97326 0.74472 0.30325 0.0
C1983 C 0.97542 0.69035 0.27435 0.0
C1984 C 0.94857 0.79097 0.21104 0.0
C1985 C 0.95557 0.79718 0.22536 0.0
C1986 C 0.96981 0.79062 0.23179 0.0
C1987 C 0.97722 0.77762 0.22376 0.0
C1988 C 0.97039 0.77155 0.2092 0.0
C1989 C 0.95616 0.77834 0.20302 0.0
C1990 C 0.97692 0.79753 0.24724 0.0
C1991 C 0.97805 0.75777 0.20027 0.0
C1992 C 0.10459 0.78734 0.22361 0.0
C1993 C 0.09609 0.78864 0.20712 0.0
C1994 C 0.06734 0.79087 0.21376 0.0
C1995 C 0.05841 0.79925 0.22529 0.0
C1996 C 0.04354 0.79289 0.23126 0.0
C1997 C 0.03732 0.77794 0.22525 0.0
C1998 C 0.04598 0.76974 0.21307 0.0
C1999 C 0.06091 0.77629 0.20746 0.0
C2000 C 0.03456 0.80204 0.24413 0.0
C2001 C 0.03945 0.75406 0.20599 0.0
C2002 C 0.01939 0.72317 0.28165 0.0
C2003 C 0.00429 0.71735 0.28734 0.0
C2004 C 0.98974 0.72291 0.28078 0.0
C2005 C 0.99023 0.73432 0.26783 0.0
C2006 C 0.97589 0.73982 0.26057 0.0
C2007 C 0.97647 0.75156 0.24832 0.0
C2008 C 0.99142 0.75819 0.24277 0.0
C2009 C 0.99213 0.77043 0.23063 0.0
C2010 C 0.00721 0.7765 0.22516 0.0
C2011 C 0.02174 0.77088 0.23166 0.0
C2012 C 0.02128 0.7589 0.24407 0.0
C2013 C 0.03563 0.75329 0.25122 0.0
C2014 C 0.03505 0.74159 0.26349 0.0
C2015 C 0.0201 0.73499 0.26909 0.0
C2016 C 0.00546 0.74052 0.26211 0.0
C2017 C 0.00606 0.75249 0.24959 0.0
C2018 C 0.9144 0.7994 0.22543 0.0
C2019 C 0.92395 0.8075 0.2114 0.0
O2020 O 0.07867 0.70336 0.30944 0.0
O2021 O 0.08193 0.79728 0.2088 0.0
O2022 O 0.93454 0.79662 0.20456 0.0
O2023 O 0.93184 0.70123 0.31294 0.0
H2024 H 0.09104 0.7019 0.28777 0.0
H2025 H 0.10233 0.72521 0.31484 0.0
H2026 H 0.09193 0.73037 0.29631 0.0
H2027 H 0.11219 0.72263 0.29538 0.0
H2028 H 0.06542 0.69115 0.28267 0.0
H2029 H 0.05894 0.72349 0.32246 0.0
H2030 H 0.02487 0.69324 0.2672 0.0
H2031 H 0.04522 0.68678 0.26271 0.0
H2032 H 0.03861 0.70643 0.25613 0.0
H2033 H 0.03672 0.74094 0.32407 0.0
H2034 H 0.01828 0.73116 0.31681 0.0
H2035 H 0.02813 0.74669 0.30475 0.0
H2036 H 0.93007 0.71702 0.33265 0.0
H2037 H 0.91117 0.70047 0.34443 0.0
H2038 H 0.91051 0.68781 0.3289 0.0
H2039 H 0.88823 0.71315 0.32174 0.0
H2040 H 0.94591 0.73107 0.3153 0.0
H2041 H 0.94821 0.68457 0.29241 0.0
H2042 H 0.97161 0.75276 0.29254 0.0
H2043 H 0.98651 0.74422 0.30575 0.0
H2044 H 0.96721 0.75029 0.31383 0.0
H2045 H 0.96768 0.67937 0.27201 0.0
H2046 H 0.98719 0.68645 0.27949 0.0
H2047 H 0.97806 0.69661 0.26261 0.0
H2048 H 0.93096 0.81824 0.21598 0.0
H2049 H 0.95003 0.80707 0.23166 0.0
H2050 H 0.95076 0.77368 0.19194 0.0
H2051 H 0.97674 0.78803 0.25687 0.0
H2052 H 0.97012 0.8081 0.25168 0.0
H2053 H 0.98981 0.80137 0.24521 0.0
H2054 H 0.97102 0.75415 0.1893 0.0
H2055 H 0.97894 0.74709 0.20849 0.0
H2056 H 0.99061 0.76141 0.19653 0.0
H2057 H 0.09326 0.77608 0.20303 0.0
H2058 H 0.11612 0.78072 0.22238 0.0
H2059 H 0.0966 0.78055 0.23233 0.0
H2060 H 0.10733 0.79957 0.22866 0.0
H2061 H 0.06334 0.81063 0.22988 0.0
H2062 H 0.06736 0.77012 0.19796 0.0
H2063 H 0.03205 0.79401 0.25477 0.0
H2064 H 0.02267 0.80587 0.23924 0.0
H2065 H 0.04151 0.81298 0.24826 0.0
H2066 H 0.04705 0.74976 0.19581 0.0
H2067 H 0.02684 0.75565 0.20154 0.0
H2068 H 0.03897 0.74454 0.2156 0.0
H2069 H 0.00385 0.70863 0.29728 0.0
H2070 H 0.96404 0.73516 0.26435 0.0
H2071 H 0.96503 0.75542 0.24328 0.0
H2072 H 0.00765 0.78585 0.2158 0.0
H2073 H 0.04749 0.75795 0.24746 0.0
H2074 H 0.0465 0.73784 0.26858 0.0
H2075 H 0.90574 0.80804 0.23071 0.0
H2076 H 0.92273 0.79556 0.23524 0.0
H2077 H 0.90749 0.78852 0.22108 0.0
C2078 C 0.31421 0.94412 0.33416 0.0
C2079 C 0.30822 0.93233 0.32098 0.0
C2080 C 0.30015 0.95165 0.29963 0.0
C2081 C 0.28594 0.95692 0.30729 0.0
C2082 C 0.27721 0.96988 0.30084 0.0
C2083 C 0.28276 0.97772 0.28646 0.0
C2084 C 0.29682 0.97222 0.27852 0.0
C2085 C 0.30526 0.95918 0.28518 0.0
C2086 C 0.26216 0.97537 0.30951 0.0
C2087 C 0.30307 0.9803 0.26315 0.0
C2088 C 0.29326 0.10234 0.28632 0.0
C2089 C 0.30194 0.09404 0.30051 0.0
C2090 C 0.28775 0.0673 0.30085 0.0
C2091 C 0.29491 0.06131 0.28664 0.0
C2092 C 0.2898 0.04633 0.28016 0.0
C2093 C 0.2773 0.03712 0.28801 0.0
C2094 C 0.27031 0.04294 0.30247 0.0
C2095 C 0.27566 0.05794 0.30871 0.0
C2096 C 0.29766 0.04036 0.26482 0.0
C2097 C 0.25707 0.03335 0.31124 0.0
C2098 C 0.20194 0.06115 0.21369 0.0
C2099 C 0.21626 0.05523 0.20679 0.0
C2100 C 0.22303 0.04084 0.21255 0.0
C2101 C 0.21534 0.03215 0.22543 0.0
C2102 C 0.20069 0.03779 0.23208 0.0
C2103 C 0.19416 0.05221 0.22607 0.0
C2104 C 0.2386 0.03504 0.20508 0.0
C2105 C 0.19213 0.02877 0.24575 0.0
C2106 C 0.22521 0.9062 0.21235 0.0
C2107 C 0.20803 0.91289 0.21331 0.0
C2108 C 0.2112 0.94215 0.21096 0.0
C2109 C 0.22214 0.9525 0.2027 0.0
C2110 C 0.22689 0.96758 0.20922 0.0
C2111 C 0.22018 0.97252 0.22417 0.0
C2112 C 0.20846 0.96242 0.23217 0.0
C2113 C 0.20413 0.9473 0.22549 0.0
C2114 C 0.23928 0.97811 0.20027 0.0
C2115 C 0.20063 0.96755 0.24783 0.0
C2116 C 0.27428 0.99214 0.28014 0.0
C2117 C 0.27885 0.00728 0.28643 0.0
C2118 C 0.27153 0.02144 0.28104 0.0
C2119 C 0.25924 0.02054 0.26903 0.0
C2120 C 0.2516 0.03454 0.26335 0.0
C2121 C 0.23968 0.03357 0.25138 0.0
C2122 C 0.23492 0.01856 0.24464 0.0
C2123 C 0.22297 0.01749 0.23231 0.0
C2124 C 0.21838 0.00237 0.22599 0.0
C2125 C 0.22555 0.98816 0.23154 0.0
C2126 C 0.23768 0.98901 0.24373 0.0
C2127 C 0.24532 0.97501 0.24945 0.0
C2128 C 0.25723 0.97597 0.26144 0.0
C2129 C 0.26206 0.99099 0.26809 0.0
C2130 C 0.25453 0.00526 0.26251 0.0
C2131 C 0.24234 0.00427 0.25032 0.0
C2132 C 0.21628 0.09621 0.20772 0.0
C2133 C 0.20221 0.08732 0.19899 0.0
O2134 O 0.3094 0.9396 0.30576 0.0
O2135 O 0.2076 0.92734 0.20462 0.0
O2136 O 0.19531 0.0754 0.209 0.0
O2137 O 0.29195 0.08198 0.30733 0.0
H2138 H 0.29535 0.92861 0.32343 0.0
H2139 H 0.30652 0.95496 0.33455 0.0
H2140 H 0.32698 0.9482 0.33173 0.0
H2141 H 0.31359 0.93814 0.3463 0.0
H2142 H 0.28162 0.95112 0.31836 0.0
H2143 H 0.31615 0.95498 0.27928 0.0
H2144 H 0.26424 0.9879 0.31402 0.0
H2145 H 0.2588 0.96737 0.31998 0.0
H2146 H 0.25176 0.97562 0.30092 0.0
H2147 H 0.31424 0.97462 0.25849 0.0
H2148 H 0.30579 0.99334 0.26544 0.0
H2149 H 0.29355 0.9796 0.25361 0.0
H2150 H 0.31336 0.08863 0.29607 0.0
H2151 H 0.30116 0.11218 0.28106 0.0
H2152 H 0.28168 0.10759 0.29049 0.0
H2153 H 0.29041 0.09355 0.27653 0.0
H2154 H 0.30442 0.06823 0.28046 0.0
H2155 H 0.27027 0.06257 0.31971 0.0
H2156 H 0.28837 0.03917 0.25509 0.0
H2157 H 0.30267 0.02816 0.26697 0.0
H2158 H 0.30763 0.04865 0.26046 0.0
H2159 H 0.25265 0.03967 0.3222 0.0
H2160 H 0.2617 0.02136 0.31497 0.0
H2161 H 0.24664 0.0311 0.30292 0.0
H2162 H 0.20681 0.0817 0.1877 0.0
H2163 H 0.22234 0.0618 0.19703 0.0
H2164 H 0.18306 0.05677 0.23124 0.0
H2165 H 0.24838 0.03517 0.21437 0.0
H2166 H 0.24266 0.04269 0.1946 0.0
H2167 H 0.23689 0.02233 0.20093 0.0
H2168 H 0.18074 0.03467 0.24951 0.0
H2169 H 0.20035 0.02806 0.25641 0.0
H2170 H 0.18913 0.01615 0.24195 0.0
H2171 H 0.20534 0.91484 0.22639 0.0
H2172 H 0.22576 0.89443 0.21895 0.0
H2173 H 0.23403 0.91485 0.21806 0.0
H2174 H 0.22893 0.90443 0.19951 0.0
H2175 H 0.22733 0.94849 0.19135 0.0
H2176 H 0.19511 0.93959 0.23155 0.0
H2177 H 0.24963 0.98122 0.20843 0.0
H2178 H 0.23364 0.98963 0.19653 0.0
H2179 H 0.24405 0.97211 0.18927 0.0
H2180 H 0.19072 0.95899 0.25178 0.0
H2181 H 0.19558 0.97984 0.24639 0.0
H2182 H 0.20995 0.96822 0.25756 0.0
H2183 H 0.2883 0.00807 0.29561 0.0
H2184 H 0.25476 0.04642 0.26807 0.0
H2185 H 0.23426 0.04476 0.24747 0.0
H2186 H 0.2092 0.00166 0.21655 0.0
H2187 H 0.24218 0.96312 0.24471 0.0
H2188 H 0.26266 0.9648 0.26539 0.0
H2189 H 0.22154 0.10599 0.19981 0.0
H2190 H 0.22613 0.08776 0.21071 0.0
H2191 H 0.21196 0.10165 0.2192 0.0
C2192 C 0.94548 0.83758 0.81297 0.0
C2193 C 0.93373 0.82451 0.80626 0.0
C2194 C 0.95314 0.80342 0.79901 0.0
C2195 C 0.95966 0.81125 0.78513 0.0
C2196 C 0.97309 0.80496 0.77698 0.0
C2197 C 0.98015 0.79058 0.7828 0.0
C2198 C 0.97342 0.7825 0.79656 0.0
C2199 C 0.95993 0.78899 0.80441 0.0
C2200 C 0.97987 0.81376 0.76222 0.0
C2201 C 0.98063 0.76713 0.80309 0.0
C2202 C 0.10908 0.80219 0.78009 0.0
C2203 C 0.0993 0.80159 0.79593 0.0
C2204 C 0.07055 0.80446 0.7896 0.0
C2205 C 0.06392 0.79013 0.79647 0.0
C2206 C 0.04878 0.78384 0.7913 0.0
C2207 C 0.04011 0.79208 0.77905 0.0
C2208 C 0.0465 0.80685 0.77255 0.0
C2209 C 0.0616 0.81294 0.77806 0.0
C2210 C 0.04207 0.76833 0.79886 0.0
C2211 C 0.03747 0.81605 0.75964 0.0
C2212 C 0.06537 0.71583 0.70619 0.0
C2213 C 0.05844 0.70966 0.72067 0.0
C2214 C 0.04405 0.71599 0.72688 0.0
C2215 C 0.0364 0.72871 0.71846 0.0
C2216 C 0.04312 0.7347 0.70371 0.0
C2217 C 0.05751 0.72812 0.69775 0.0
C2218 C 0.03709 0.70922 0.74258 0.0
C2219 C 0.03522 0.7482 0.6944 0.0
C2220 C 0.90837 0.71635 0.72501 0.0
C2221 C 0.91667 0.71672 0.70835 0.0
C2222 C 0.94578 0.71439 0.71263 0.0
C2223 C 0.95535 0.70648 0.72405 0.0
C2224 C 0.97053 0.71304 0.72875 0.0
C2225 C 0.97637 0.72769 0.72151 0.0
C2226 C 0.96709 0.7353 0.70929 0.0
C2227 C 0.95185 0.72856 0.70499 0.0
C2228 C 0.98022 0.70449 0.74164 0.0
C2229 C 0.97321 0.75061 0.70092 0.0
C2230 C 0.99489 0.78429 0.77482 0.0
C2231 C 0.01003 0.79057 0.77976 0.0
C2232 C 0.02445 0.78514 0.77293 0.0
C2233 C 0.02383 0.77309 0.76078 0.0
C2234 C 0.0381 0.76739 0.7536 0.0
C2235 C 0.03739 0.75528 0.74192 0.0
C2236 C 0.02238 0.74846 0.73691 0.0
C2237 C 0.02155 0.73592 0.72529 0.0
C2238 C 0.00642 0.72956 0.7204 0.0
C2239 C 0.99198 0.73524 0.72698 0.0
C2240 C 0.99256 0.74762 0.7388 0.0
C2241 C 0.97828 0.75345 0.74586 0.0
C2242 C 0.97899 0.76555 0.75756 0.0
C2243 C 0.99401 0.77219 0.76275 0.0
C2244 C 0.00856 0.76655 0.75574 0.0
C2245 C 0.00783 0.75425 0.74376 0.0
C2246 C 0.09966 0.70889 0.72103 0.0
C2247 C 0.09046 0.7001 0.70731 0.0
O2248 O 0.94053 0.80934 0.80769 0.0
O2249 O 0.93084 0.70799 0.7091 0.0
O2250 O 0.07961 0.71048 0.69999 0.0
O2251 O 0.08538 0.81056 0.79407 0.0
H2252 H 0.93108 0.82729 0.7933 0.0
H2253 H 0.95694 0.83813 0.80585 0.0
H2254 H 0.94852 0.83493 0.82586 0.0
H2255 H 0.93991 0.8497 0.8122 0.0
H2256 H 0.95446 0.8223 0.78061 0.0
H2257 H 0.95477 0.78297 0.81504 0.0
H2258 H 0.99243 0.81829 0.76482 0.0
H2259 H 0.97239 0.8242 0.75857 0.0
H2260 H 0.98058 0.80527 0.75185 0.0
H2261 H 0.9742 0.7625 0.81412 0.0
H2262 H 0.99366 0.76934 0.80608 0.0
H2263 H 0.98003 0.7576 0.79364 0.0
H2264 H 0.09618 0.7886 0.79839 0.0
H2265 H 0.12044 0.7953 0.78146 0.0
H2266 H 0.11227 0.81491 0.77657 0.0
H2267 H 0.10176 0.79661 0.77017 0.0
H2268 H 0.07042 0.78395 0.80601 0.0
H2269 H 0.0667 0.82416 0.77307 0.0
H2270 H 0.04131 0.75872 0.7895 0.0
H2271 H 0.02955 0.77017 0.80345 0.0
H2272 H 0.04973 0.764 0.80904 0.0
H2273 H 0.04438 0.82704 0.75538 0.0
H2274 H 0.02556 0.8198 0.76451 0.0
H2275 H 0.03499 0.80807 0.74908 0.0
H2276 H 0.08387 0.68927 0.71241 0.0
H2277 H 0.0642 0.70001 0.7273 0.0
H2278 H 0.06287 0.73275 0.68655 0.0
H2279 H 0.03718 0.71886 0.75192 0.0
H2280 H 0.04405 0.69882 0.74729 0.0
H2281 H 0.02424 0.70519 0.74074 0.0
H2282 H 0.04203 0.75159 0.68316 0.0
H2283 H 0.03444 0.75907 0.70221 0.0
H2284 H 0.02261 0.74443 0.69104 0.0
H2285 H 0.9194 0.72967 0.70531 0.0
H2286 H 0.89686 0.7231 0.72454 0.0
H2287 H 0.9165 0.7222 0.73413 0.0
H2288 H 0.90565 0.70367 0.72901 0.0
H2289 H 0.95066 0.69537 0.72963 0.0
H2290 H 0.94478 0.7343 0.69557 0.0
H2291 H 0.9831 0.71294 0.75173 0.0
H2292 H 0.99193 0.70062 0.7364 0.0
H2293 H 0.97362 0.69364 0.74665 0.0
H2294 H 0.96521 0.75426 0.69073 0.0
H2295 H 0.98569 0.7489 0.69616 0.0
H2296 H 0.97389 0.76064 0.70983 0.0
H2297 H 0.01061 0.79976 0.78912 0.0
H2298 H 0.05 0.77217 0.75698 0.0
H2299 H 0.04878 0.75133 0.73689 0.0
H2300 H 0.00589 0.71993 0.71151 0.0
H2301 H 0.96638 0.74872 0.74245 0.0
H2302 H 0.96761 0.76957 0.76255 0.0
H2303 H 0.10861 0.70072 0.72669 0.0
H2304 H 0.09114 0.71267 0.73066 0.0
H2305 H 0.1062 0.7199 0.71627 0.0
C2306 C 0.17201 0.06448 0.81841 0.0
C2307 C 0.18884 0.07269 0.82016 0.0
C2308 C 0.20568 0.06181 0.79893 0.0
C2309 C 0.2191 0.0561 0.80754 0.0
C2310 C 0.22814 0.04323 0.80156 0.0
C2311 C 0.22356 0.03584 0.78671 0.0
C2312 C 0.21034 0.04198 0.77774 0.0
C2313 C 0.20172 0.0551 0.78388 0.0
C2314 C 0.24238 0.03728 0.81127 0.0
C2315 C 0.20499 0.03437 0.76195 0.0
C2316 C 0.23394 0.90942 0.80582 0.0
C2317 C 0.21724 0.91667 0.80285 0.0
C2318 C 0.2194 0.94594 0.80515 0.0
C2319 C 0.21243 0.95105 0.7905 0.0
C2320 C 0.21668 0.96622 0.78368 0.0
C2321 C 0.22821 0.97641 0.79166 0.0
C2322 C 0.23468 0.97157 0.80682 0.0
C2323 C 0.23001 0.95643 0.81348 0.0
C2324 C 0.20911 0.97123 0.76778 0.0
C2325 C 0.24683 0.98221 0.81576 0.0
C2326 C 0.30227 0.94773 0.7179 0.0
C2327 C 0.28788 0.95364 0.71105 0.0
C2328 C 0.28149 0.96837 0.71621 0.0
C2329 C 0.2896 0.97741 0.72844 0.0
C2330 C 0.30427 0.97171 0.73508 0.0
C2331 C 0.31042 0.95696 0.72967 0.0
C2332 C 0.26589 0.97419 0.70875 0.0
C2333 C 0.31326 0.98107 0.7481 0.0
C2334 C 0.28208 0.10338 0.71021 0.0
C2335 C 0.29906 0.09617 0.71031 0.0
C2336 C 0.29508 0.06692 0.70916 0.0
C2337 C 0.28361 0.05662 0.70177 0.0
C2338 C 0.27884 0.04179 0.70906 0.0
C2339 C 0.28605 0.03708 0.72391 0.0
C2340 C 0.2983 0.04709 0.731 0.0
C2341 C 0.30269 0.06193 0.72355 0.0
C2342 C 0.26589 0.03132 0.70107 0.0
C2343 C 0.30662 0.04218 0.74655 0.0
C2344 C 0.23185 0.02103 0.7812 0.0
C2345 C 0.22698 0.00622 0.7883 0.0
C2346 C 0.23408 0.99172 0.78376 0.0
C2347 C 0.24639 0.99188 0.77174 0.0
C2348 C 0.25384 0.97751 0.76694 0.0
C2349 C 0.26566 0.97771 0.75484 0.0
C2350 C 0.27061 0.99229 0.74715 0.0
C2351 C 0.28243 0.99255 0.73463 0.0
C2352 C 0.28726 0.0073 0.7274 0.0
C2353 C 0.28049 0.02188 0.73224 0.0
C2354 C 0.2685 0.02184 0.74461 0.0
C2355 C 0.26131 0.03626 0.74967 0.0
C2356 C 0.24944 0.03607 0.76176 0.0
C2357 C 0.24416 0.02143 0.76914 0.0
C2358 C 0.25137 0.00677 0.76434 0.0
C2359 C 0.26354 0.00698 0.75206 0.0
C2360 C 0.2876 0.91252 0.71338 0.0
C2361 C 0.30151 0.92125 0.70409 0.0
O2362 O 0.19627 0.07362 0.80503 0.0
O2363 O 0.29864 0.08153 0.70213 0.0
O2364 O 0.30861 0.93322 0.71373 0.0
O2365 O 0.2161 0.93098 0.81147 0.0
H2366 H 0.19595 0.06507 0.82867 0.0
H2367 H 0.17331 0.05192 0.8139 0.0
H2368 H 0.1644 0.07123 0.80964 0.0
H2369 H 0.16572 0.06384 0.83036 0.0
H2370 H 0.22245 0.06169 0.81897 0.0
H2371 H 0.19143 0.05975 0.77725 0.0
H2372 H 0.2392 0.02522 0.81661 0.0
H2373 H 0.24577 0.04566 0.82129 0.0
H2374 H 0.25312 0.03582 0.80326 0.0
H2375 H 0.19394 0.04001 0.75691 0.0
H2376 H 0.20245 0.0212 0.7638 0.0
H2377 H 0.21493 0.03566 0.75286 0.0
H2378 H 0.2163 0.919 0.78955 0.0
H2379 H 0.23499 0.89783 0.79916 0.0
H2380 H 0.23593 0.90715 0.81898 0.0
H2381 H 0.24364 0.91798 0.80138 0.0
H2382 H 0.20369 0.94316 0.7844 0.0
H2383 H 0.23509 0.95245 0.82494 0.0
H2384 H 0.20434 0.98366 0.76873 0.0
H2385 H 0.19904 0.96281 0.76407 0.0
H2386 H 0.21852 0.97146 0.75811 0.0
H2387 H 0.25118 0.97643 0.82713 0.0
H2388 H 0.24118 0.99386 0.81885 0.0
H2389 H 0.25747 0.98504 0.80781 0.0
H2390 H 0.29658 0.9267 0.69278 0.0
H2391 H 0.28146 0.94683 0.70178 0.0
H2392 H 0.32155 0.9524 0.73484 0.0
H2393 H 0.25631 0.9746 0.71824 0.0
H2394 H 0.26147 0.96622 0.69878 0.0
H2395 H 0.26776 0.98669 0.70389 0.0
H2396 H 0.32455 0.97504 0.75201 0.0
H2397 H 0.30523 0.98243 0.75883 0.0
H2398 H 0.31651 0.99344 0.74354 0.0
H2399 H 0.30245 0.09434 0.72326 0.0
H2400 H 0.28232 0.1153 0.71644 0.0
H2401 H 0.2734 0.09512 0.71676 0.0
H2402 H 0.27763 0.10503 0.69758 0.0
H2403 H 0.27803 0.06047 0.69051 0.0
H2404 H 0.31213 0.06957 0.7289 0.0
H2405 H 0.25565 0.02901 0.70965 0.0
H2406 H 0.27098 0.0194 0.69795 0.0
H2407 H 0.26108 0.03697 0.68982 0.0
H2408 H 0.31676 0.05068 0.74984 0.0
H2409 H 0.31145 0.0298 0.74535 0.0
H2410 H 0.29763 0.04182 0.75663 0.0
H2411 H 0.21748 0.00596 0.79746 0.0
H2412 H 0.25055 0.96591 0.77241 0.0
H2413 H 0.27087 0.96625 0.7516 0.0
H2414 H 0.29631 0.00741 0.7178 0.0
H2415 H 0.26476 0.04788 0.74432 0.0
H2416 H 0.24436 0.04753 0.76518 0.0
H2417 H 0.28212 0.90269 0.70584 0.0
H2418 H 0.27786 0.92107 0.71638 0.0
H2419 H 0.29214 0.90719 0.7249 0.0
C2420 C 0.91277 0.31108 0.72285 0.0
C2421 C 0.92195 0.31524 0.70706 0.0
C2422 C 0.94502 0.29668 0.70871 0.0
C2423 C 0.95099 0.28214 0.70285 0.0
C2424 C 0.96526 0.27556 0.70915 0.0
C2425 C 0.97379 0.28378 0.72167 0.0
C2426 C 0.96796 0.29862 0.72756 0.0
C2427 C 0.95365 0.30495 0.72101 0.0
C2428 C 0.97119 0.25977 0.7025 0.0
C2429 C 0.97683 0.30771 0.74085 0.0
C2430 C 0.10177 0.28011 0.71019 0.0
C2431 C 0.09349 0.29652 0.71019 0.0
C2432 C 0.06436 0.29141 0.70722 0.0
C2433 C 0.05834 0.29865 0.7213 0.0
C2434 C 0.04316 0.2938 0.72777 0.0
C2435 C 0.03384 0.28146 0.71999 0.0
C2436 C 0.03959 0.27464 0.70541 0.0
C2437 C 0.05474 0.27985 0.69912 0.0
C2438 C 0.03716 0.30173 0.74303 0.0
C2439 C 0.02988 0.2616 0.69671 0.0
C2440 C 0.06106 0.20694 0.79495 0.0
C2441 C 0.05557 0.22143 0.80173 0.0
C2442 C 0.04102 0.2283 0.79643 0.0
C2443 C 0.03177 0.22057 0.7841 0.0
C2444 C 0.03706 0.20582 0.77751 0.0
C2445 C 0.05161 0.19918 0.78308 0.0
C2446 C 0.0356 0.24393 0.80387 0.0
C2447 C 0.02746 0.19722 0.76439 0.0
C2448 C 0.9047 0.22703 0.79969 0.0
C2449 C 0.91246 0.21036 0.79926 0.0
C2450 C 0.94173 0.21478 0.80116 0.0
C2451 C 0.95178 0.22624 0.80889 0.0
C2452 C 0.96675 0.23126 0.80203 0.0
C2453 C 0.97188 0.22431 0.78728 0.0
C2454 C 0.96211 0.21209 0.77984 0.0
C2455 C 0.94711 0.20746 0.78687 0.0
C2456 C 0.97694 0.24418 0.81038 0.0
C2457 C 0.96746 0.20404 0.7644 0.0
C2458 C 0.98881 0.27682 0.72857 0.0
C2459 C 0.00377 0.28179 0.72185 0.0
C2460 C 0.01834 0.27537 0.72741 0.0
C2461 C 0.01805 0.26349 0.73991 0.0
C2462 C 0.03244 0.25646 0.74549 0.0
C2463 C 0.03205 0.24485 0.75786 0.0
C2464 C 0.01727 0.23985 0.76517 0.0
C2465 C 0.01678 0.22812 0.77782 0.0
C2466 C 0.00186 0.22336 0.78475 0.0
C2467 C 0.98731 0.23004 0.77945 0.0
C2468 C 0.98757 0.24183 0.76685 0.0
C2469 C 0.97318 0.24887 0.76126 0.0
C2470 C 0.97354 0.26031 0.74873 0.0
C2471 C 0.98832 0.26527 0.74139 0.0
C2472 C 0.003 0.25851 0.74699 0.0
C2473 C 0.00261 0.24673 0.75969 0.0
C2474 C 0.09682 0.2203 0.79947 0.0
C2475 C 0.08764 0.20678 0.80888 0.0
O2476 O 0.93092 0.3021 0.70219 0.0
O2477 O 0.92699 0.21092 0.80781 0.0
O2478 O 0.07534 0.20009 0.79929 0.0
O2479 O 0.07929 0.29545 0.70111 0.0
H2480 H 0.93013 0.32599 0.70913 0.0
H2481 H 0.90542 0.32151 0.7267 0.0
H2482 H 0.9214 0.30834 0.73278 0.0
H2483 H 0.90454 0.30033 0.72113 0.0
H2484 H 0.94432 0.27586 0.69334 0.0
H2485 H 0.94933 0.31629 0.72564 0.0
H2486 H 0.9839 0.26139 0.6981 0.0
H2487 H 0.96349 0.25517 0.69236 0.0
H2488 H 0.97119 0.25047 0.71232 0.0
H2489 H 0.97054 0.3189 0.74442 0.0
H2490 H 0.98933 0.31109 0.73672 0.0
H2491 H 0.97797 0.29976 0.75172 0.0
H2492 H 0.09077 0.29936 0.72308 0.0
H2493 H 0.11333 0.28084 0.71717 0.0
H2494 H 0.09366 0.27077 0.71602 0.0
H2495 H 0.10441 0.2762 0.69759 0.0
H2496 H 0.06542 0.30817 0.72717 0.0
H2497 H 0.05938 0.27455 0.68809 0.0
H2498 H 0.03659 0.29265 0.75306 0.0
H2499 H 0.02465 0.30615 0.74113 0.0
H2500 H 0.04517 0.31207 0.74683 0.0
H2501 H 0.03623 0.25721 0.68573 0.0
H2502 H 0.01792 0.26638 0.693 0.0
H2503 H 0.02746 0.25117 0.70505 0.0
H2504 H 0.08241 0.21193 0.82013 0.0
H2505 H 0.06257 0.22755 0.81107 0.0
H2506 H 0.05584 0.18797 0.77798 0.0
H2507 H 0.03546 0.25358 0.7944 0.0
H2508 H 0.04368 0.24804 0.81392 0.0
H2509 H 0.023 0.24237 0.80861 0.0
H2510 H 0.03328 0.18591 0.76041 0.0
H2511 H 0.02621 0.2054 0.75371 0.0
H2512 H 0.01502 0.19415 0.76889 0.0
H2513 H 0.91463 0.20754 0.78625 0.0
H2514 H 0.89288 0.22669 0.79315 0.0
H2515 H 0.91286 0.23617 0.79363 0.0
H2516 H 0.90267 0.23092 0.81241 0.0
H2517 H 0.94761 0.23161 0.82007 0.0
H2518 H 0.93968 0.19804 0.78125 0.0
H2519 H 0.97938 0.25448 0.80188 0.0
H2520 H 0.98886 0.23918 0.81386 0.0
H2521 H 0.97094 0.24882 0.82145 0.0
H2522 H 0.95917 0.19381 0.7609 0.0
H2523 H 0.97995 0.19943 0.76587 0.0
H2524 H 0.96781 0.21308 0.75434 0.0
H2525 H 0.00408 0.29077 0.71214 0.0
H2526 H 0.04418 0.25981 0.74034 0.0
H2527 H 0.04352 0.23987 0.76162 0.0
H2528 H 0.00156 0.21433 0.79441 0.0
H2529 H 0.96145 0.24558 0.76648 0.0
H2530 H 0.96208 0.26525 0.7449 0.0
H2531 H 0.10687 0.22548 0.80699 0.0
H2532 H 0.08858 0.23028 0.79631 0.0
H2533 H 0.102 0.21552 0.78804 0.0
C2534 C 0.81563 0.9417 0.83303 0.0
C2535 C 0.80953 0.92981 0.82 0.0
C2536 C 0.80118 0.94913 0.79878 0.0
C2537 C 0.78694 0.95421 0.80654 0.0
C2538 C 0.77817 0.96725 0.80033 0.0
C2539 C 0.78371 0.97538 0.7861 0.0
C2540 C 0.79776 0.97003 0.77802 0.0
C2541 C 0.80624 0.95688 0.78443 0.0
C2542 C 0.76313 0.97256 0.80914 0.0
C2543 C 0.80401 0.97842 0.76282 0.0
C2544 C 0.7956 0.09964 0.79058 0.0
C2545 C 0.80397 0.09061 0.8045 0.0
C2546 C 0.78925 0.06419 0.80372 0.0
C2547 C 0.79643 0.05862 0.78934 0.0
C2548 C 0.79115 0.04398 0.78225 0.0
C2549 C 0.77847 0.03467 0.78968 0.0
C2550 C 0.77142 0.04006 0.80429 0.0
C2551 C 0.77695 0.05474 0.81112 0.0
C2552 C 0.79906 0.03846 0.76676 0.0
C2553 C 0.75797 0.03035 0.81259 0.0
C2554 C 0.70308 0.0615 0.71619 0.0
C2555 C 0.71787 0.05627 0.70967 0.0
C2556 C 0.72463 0.04166 0.71486 0.0
C2557 C 0.71656 0.03213 0.7269 0.0
C2558 C 0.70152 0.03715 0.73323 0.0
C2559 C 0.69495 0.05174 0.72771 0.0
C2560 C 0.74057 0.03652 0.70767 0.0
C2561 C 0.69258 0.02726 0.74606 0.0
C2562 C 0.72618 0.9067 0.7103 0.0
C2563 C 0.70894 0.91326 0.71101 0.0
C2564 C 0.71214 0.94258 0.70949 0.0
C2565 C 0.72316 0.95311 0.70155 0.0
C2566 C 0.72795 0.96798 0.7085 0.0
C2567 C 0.72121 0.97254 0.72358 0.0
C2568 C 0.70943 0.96226 0.73126 0.0
C2569 C 0.70504 0.94736 0.72414 0.0
C2570 C 0.74042 0.97869 0.6999 0.0
C2571 C 0.70158 0.96698 0.74705 0.0
C2572 C 0.77533 0.99003 0.7802 0.0
C2573 C 0.77991 0.00492 0.78703 0.0
C2574 C 0.77264 0.01927 0.78215 0.0
C2575 C 0.76036 0.01884 0.77011 0.0
C2576 C 0.75273 0.03304 0.76496 0.0
C2577 C 0.74082 0.03253 0.75297 0.0
C2578 C 0.73607 0.0178 0.74564 0.0
C2579 C 0.72416 0.01721 0.73325 0.0
C2580 C 0.71956 0.00233 0.72638 0.0
C2581 C 0.72667 0.98791 0.73144 0.0
C2582 C 0.73878 0.98829 0.74366 0.0
C2583 C 0.74637 0.97408 0.74889 0.0
C2584 C 0.75827 0.97458 0.76092 0.0
C2585 C 0.76313 0.98934 0.7681 0.0
C2586 C 0.75564 0.00382 0.76303 0.0
C2587 C 0.74346 0.0033 0.75079 0.0
C2588 C 0.71641 0.09736 0.71294 0.0
C2589 C 0.7034 0.08838 0.70283 0.0
O2590 O 0.81051 0.93706 0.80476 0.0
O2591 O 0.7085 0.92796 0.70273 0.0
O2592 O 0.69631 0.07583 0.71192 0.0
O2593 O 0.79366 0.07854 0.81079 0.0
H2594 H 0.79672 0.92605 0.82276 0.0
H2595 H 0.80784 0.95247 0.83351 0.0
H2596 H 0.82832 0.9459 0.83038 0.0
H2597 H 0.81527 0.93578 0.84521 0.0
H2598 H 0.78266 0.94823 0.81752 0.0
H2599 H 0.81714 0.95283 0.77845 0.0
H2600 H 0.76531 0.98491 0.81409 0.0
H2601 H 0.75968 0.96424 0.81932 0.0
H2602 H 0.75277 0.97319 0.80054 0.0
H2603 H 0.81515 0.97282 0.75801 0.0
H2604 H 0.80677 0.9914 0.76539 0.0
H2605 H 0.79447 0.97796 0.75328 0.0
H2606 H 0.81528 0.08511 0.79992 0.0
H2607 H 0.80378 0.10947 0.78572 0.0
H2608 H 0.78414 0.10504 0.79489 0.0
H2609 H 0.79259 0.09129 0.78045 0.0
H2610 H 0.80611 0.0656 0.78348 0.0
H2611 H 0.77153 0.05903 0.82225 0.0
H2612 H 0.78981 0.03756 0.75697 0.0
H2613 H 0.80405 0.0262 0.76857 0.0
H2614 H 0.80906 0.04686 0.76268 0.0
H2615 H 0.75356 0.03632 0.82375 0.0
H2616 H 0.7624 0.01816 0.81591 0.0
H2617 H 0.74759 0.02857 0.80411 0.0
H2618 H 0.70917 0.08353 0.69172 0.0
H2619 H 0.72431 0.06351 0.70062 0.0
H2620 H 0.68352 0.05578 0.73262 0.0
H2621 H 0.75011 0.03676 0.71721 0.0
H2622 H 0.74467 0.04455 0.69748 0.0
H2623 H 0.73941 0.02388 0.70319 0.0
H2624 H 0.68113 0.03296 0.74996 0.0
H2625 H 0.70052 0.02574 0.75685 0.0
H2626 H 0.6896 0.01498 0.74131 0.0
H2627 H 0.70594 0.9149 0.72406 0.0
H2628 H 0.72664 0.89477 0.71662 0.0
H2629 H 0.7348 0.91524 0.71644 0.0
H2630 H 0.73022 0.90529 0.69752 0.0
H2631 H 0.72837 0.9494 0.69011 0.0
H2632 H 0.69597 0.93953 0.72996 0.0
H2633 H 0.75082 0.98137 0.70813 0.0
H2634 H 0.73492 0.99043 0.69662 0.0
H2635 H 0.74508 0.97306 0.68866 0.0
H2636 H 0.69163 0.95835 0.75074 0.0
H2637 H 0.6966 0.97932 0.74596 0.0
H2638 H 0.71089 0.96732 0.75681 0.0
H2639 H 0.78935 0.00536 0.79624 0.0
H2640 H 0.75591 0.04473 0.77013 0.0
H2641 H 0.73539 0.04386 0.7495 0.0
H2642 H 0.71039 0.00197 0.71691 0.0
H2643 H 0.74321 0.96238 0.74373 0.0
H2644 H 0.76367 0.96326 0.76447 0.0
H2645 H 0.72191 0.10761 0.70582 0.0
H2646 H 0.7263 0.08911 0.71637 0.0
H2647 H 0.711 0.10217 0.72425 0.0
C2648 C 0.33905 0.82313 0.5671 0.0
C2649 C 0.32216 0.82336 0.57494 0.0
C2650 C 0.3069 0.80074 0.56333 0.0
C2651 C 0.29343 0.8083 0.55647 0.0
C2652 C 0.28514 0.80137 0.54322 0.0
C2653 C 0.29049 0.78661 0.53667 0.0
C2654 C 0.30374 0.77867 0.54396 0.0
C2655 C 0.31163 0.78576 0.55739 0.0
C2656 C 0.27084 0.80999 0.53602 0.0
C2657 C 0.30983 0.76296 0.53729 0.0
C2658 C 0.30191 0.78695 0.41152 0.0
C2659 C 0.31118 0.80115 0.41953 0.0
C2660 C 0.29789 0.80155 0.44641 0.0
C2661 C 0.30503 0.78753 0.45273 0.0
C2662 C 0.3001 0.78104 0.46783 0.0
C2663 C 0.28777 0.78868 0.47674 0.0
C2664 C 0.28089 0.80303 0.47063 0.0
C2665 C 0.28612 0.8093 0.45556 0.0
C2666 C 0.30784 0.76584 0.47413 0.0
C2667 C 0.26779 0.81153 0.47986 0.0
C2668 C 0.21126 0.71393 0.44796 0.0
C2669 C 0.22534 0.70691 0.45433 0.0
C2670 C 0.23226 0.71249 0.46892 0.0
C2671 C 0.22497 0.72529 0.47736 0.0
C2672 C 0.21062 0.73214 0.47118 0.0
C2673 C 0.20394 0.72633 0.45658 0.0
C2674 C 0.24749 0.70481 0.47527 0.0
C2675 C 0.20247 0.74575 0.47992 0.0
C2676 C 0.20973 0.7205 0.60176 0.0
C2677 C 0.202 0.70622 0.59244 0.0
C2678 C 0.2172 0.7079 0.56664 0.0
C2679 C 0.22991 0.70123 0.55786 0.0
C2680 C 0.23546 0.7083 0.54325 0.0
C2681 C 0.228 0.72239 0.53725 0.0
C2682 C 0.21491 0.72906 0.54586 0.0
C2683 C 0.20963 0.72177 0.56047 0.0
C2684 C 0.24939 0.70083 0.5343 0.0
C2685 C 0.2066 0.744 0.53968 0.0
C2686 C 0.28288 0.78004 0.52162 0.0
C2687 C 0.2882 0.78658 0.50675 0.0
C2688 C 0.28153 0.78123 0.49207 0.0
C2689 C 0.26918 0.76897 0.4921 0.0
C2690 C 0.2621 0.76342 0.47754 0.0
C2691 C 0.25007 0.75125 0.47765 0.0
C2692 C 0.24462 0.74416 0.49231 0.0
C2693 C 0.23248 0.73167 0.49252 0.0
C2694 C 0.22735 0.72488 0.50733 0.0
C2695 C 0.23399 0.73024 0.52203 0.0
C2696 C 0.2461 0.74275 0.52208 0.0
C2697 C 0.25296 0.74851 0.53667 0.0
C2698 C 0.26491 0.7608 0.53657 0.0
C2699 C 0.27058 0.76769 0.52189 0.0
C2700 C 0.26376 0.76212 0.50705 0.0
C2701 C 0.25147 0.74968 0.50715 0.0
C2702 C 0.22509 0.70735 0.41315 0.0
C2703 C 0.21073 0.69901 0.42207 0.0
O2704 O 0.31556 0.80771 0.5756 0.0
O2705 O 0.21283 0.70066 0.58096 0.0
O2706 O 0.20439 0.70931 0.4336 0.0
O2707 O 0.30177 0.80794 0.43157 0.0
H2708 H 0.31452 0.83126 0.56723 0.0
H2709 H 0.33802 0.81863 0.55445 0.0
H2710 H 0.3472 0.81504 0.57398 0.0
H2711 H 0.34458 0.83557 0.56669 0.0
H2712 H 0.28941 0.81962 0.56147 0.0
H2713 H 0.32192 0.77992 0.56293 0.0
H2714 H 0.27418 0.81475 0.52378 0.0
H2715 H 0.267 0.82028 0.54363 0.0
H2716 H 0.26035 0.80137 0.53453 0.0
H2717 H 0.32062 0.75862 0.54399 0.0
H2718 H 0.3131 0.76457 0.52427 0.0
H2719 H 0.30003 0.75347 0.53803 0.0
H2720 H 0.3227 0.79678 0.42489 0.0
H2721 H 0.30933 0.78178 0.40164 0.0
H2722 H 0.2902 0.79104 0.40636 0.0
H2723 H 0.29921 0.77715 0.42051 0.0
H2724 H 0.31432 0.78146 0.44596 0.0
H2725 H 0.28078 0.82018 0.45067 0.0
H2726 H 0.31235 0.76778 0.48669 0.0
H2727 H 0.31812 0.76205 0.46639 0.0
H2728 H 0.29857 0.75581 0.4746 0.0
H2729 H 0.2635 0.82245 0.47334 0.0
H2730 H 0.27251 0.81525 0.49194 0.0
H2731 H 0.25726 0.80307 0.48195 0.0
H2732 H 0.21488 0.68775 0.42814 0.0
H2733 H 0.23109 0.69715 0.448 0.0
H2734 H 0.19304 0.73162 0.45168 0.0
H2735 H 0.2575 0.7141 0.47585 0.0
H2736 H 0.25147 0.69467 0.46754 0.0
H2737 H 0.24536 0.70016 0.48781 0.0
H2738 H 0.19137 0.74979 0.47354 0.0
H2739 H 0.21111 0.75625 0.48106 0.0
H2740 H 0.19906 0.74173 0.4924 0.0
H2741 H 0.19067 0.71026 0.58644 0.0
H2742 H 0.20121 0.72479 0.61119 0.0
H2743 H 0.21258 0.73083 0.59344 0.0
H2744 H 0.22121 0.71684 0.60772 0.0
H2745 H 0.23563 0.69051 0.56264 0.0
H2746 H 0.19967 0.72707 0.56696 0.0
H2747 H 0.25955 0.70988 0.53296 0.0
H2748 H 0.2454 0.69733 0.5219 0.0
H2749 H 0.25398 0.68994 0.54065 0.0
H2750 H 0.19628 0.74746 0.54754 0.0
H2751 H 0.20199 0.74188 0.52718 0.0
H2752 H 0.21553 0.75433 0.53906 0.0
H2753 H 0.29767 0.796 0.5066 0.0
H2754 H 0.2658 0.7684 0.46587 0.0
H2755 H 0.24511 0.74746 0.46606 0.0
H2756 H 0.21808 0.71528 0.50741 0.0
H2757 H 0.24916 0.74359 0.54833 0.0
H2758 H 0.26971 0.76478 0.54816 0.0
H2759 H 0.22997 0.69919 0.40374 0.0
H2760 H 0.23511 0.71037 0.42172 0.0
H2761 H 0.22121 0.71877 0.40722 0.0
C2762 C 0.8315 0.68599 0.44069 0.0
C2763 C 0.81517 0.68587 0.43173 0.0
C2764 C 0.80106 0.7086 0.44321 0.0
C2765 C 0.78742 0.70096 0.45045 0.0
C2766 C 0.77962 0.70798 0.46375 0.0
C2767 C 0.78564 0.72293 0.46995 0.0
C2768 C 0.79898 0.73099 0.46221 0.0
C2769 C 0.80638 0.7238 0.44876 0.0
C2770 C 0.76519 0.69922 0.47143 0.0
C2771 C 0.80576 0.74691 0.4685 0.0
C2772 C 0.80325 0.72196 0.59421 0.0
C2773 C 0.81229 0.70861 0.58532 0.0
C2774 C 0.79753 0.70798 0.55927 0.0
C2775 C 0.80423 0.72255 0.55287 0.0
C2776 C 0.79847 0.72904 0.53822 0.0
C2777 C 0.78569 0.72088 0.52986 0.0
C2778 C 0.77918 0.70605 0.53607 0.0
C2779 C 0.78527 0.69976 0.55066 0.0
C2780 C 0.80587 0.74475 0.53178 0.0
C2781 C 0.76562 0.69699 0.52741 0.0
C2782 C 0.7142 0.79526 0.5624 0.0
C2783 C 0.72884 0.80131 0.55562 0.0
C2784 C 0.7345 0.79553 0.5407 0.0
C2785 C 0.72534 0.78342 0.53239 0.0
C2786 C 0.71032 0.77768 0.53894 0.0
C2787 C 0.70486 0.78382 0.55381 0.0
C2788 C 0.75029 0.80232 0.53381 0.0
C2789 C 0.70017 0.76491 0.53033 0.0
C2790 C 0.7048 0.78758 0.40891 0.0
C2791 C 0.69805 0.802 0.41821 0.0
C2792 C 0.71393 0.80049 0.44356 0.0
C2793 C 0.7273 0.80723 0.45177 0.0
C2794 C 0.73313 0.80017 0.46611 0.0
C2795 C 0.72527 0.78602 0.47241 0.0
C2796 C 0.7115 0.7793 0.4644 0.0
C2797 C 0.70593 0.78661 0.45005 0.0
C2798 C 0.74778 0.80771 0.47444 0.0
C2799 C 0.70277 0.7643 0.47093 0.0
C2800 C 0.77886 0.72936 0.48531 0.0
C2801 C 0.78469 0.72295 0.4999 0.0
C2802 C 0.77883 0.72811 0.51488 0.0
C2803 C 0.7668 0.74003 0.51547 0.0
C2804 C 0.7605 0.74533 0.53035 0.0
C2805 C 0.74887 0.75727 0.53084 0.0
C2806 C 0.74308 0.76439 0.51647 0.0
C2807 C 0.73151 0.77679 0.51687 0.0
C2808 C 0.72591 0.78347 0.50232 0.0
C2809 C 0.73158 0.77816 0.48731 0.0
C2810 C 0.74322 0.76583 0.48666 0.0
C2811 C 0.74921 0.76022 0.47175 0.0
C2812 C 0.76078 0.74819 0.47125 0.0
C2813 C 0.76691 0.74141 0.48564 0.0
C2814 C 0.76091 0.74679 0.5008 0.0
C2815 C 0.74904 0.75899 0.50131 0.0
C2816 C 0.7199 0.78538 0.59916 0.0
C2817 C 0.71816 0.80197 0.59093 0.0
O2818 O 0.80934 0.70151 0.43098 0.0
O2819 O 0.70934 0.80771 0.42943 0.0
O2820 O 0.7087 0.80032 0.57706 0.0
O2821 O 0.80233 0.70147 0.57367 0.0
H2822 H 0.80661 0.67778 0.43867 0.0
H2823 H 0.82982 0.6902 0.45335 0.0
H2824 H 0.84047 0.69427 0.43454 0.0
H2825 H 0.83642 0.67357 0.44116 0.0
H2826 H 0.78287 0.68949 0.44574 0.0
H2827 H 0.81679 0.7297 0.44291 0.0
H2828 H 0.7687 0.69452 0.48356 0.0
H2829 H 0.76071 0.68886 0.46397 0.0
H2830 H 0.75509 0.70772 0.47322 0.0
H2831 H 0.81634 0.75152 0.46126 0.0
H2832 H 0.8096 0.74545 0.48134 0.0
H2833 H 0.79616 0.75613 0.46821 0.0
H2834 H 0.82342 0.7139 0.57943 0.0
H2835 H 0.81115 0.72747 0.60374 0.0
H2836 H 0.79197 0.71692 0.59998 0.0
H2837 H 0.79984 0.73174 0.58563 0.0
H2838 H 0.81386 0.72901 0.55923 0.0
H2839 H 0.78026 0.68848 0.5556 0.0
H2840 H 0.79663 0.75432 0.53208 0.0
H2841 H 0.80963 0.74329 0.51892 0.0
H2842 H 0.8166 0.74891 0.53896 0.0
H2843 H 0.76141 0.68595 0.53418 0.0
H2844 H 0.76986 0.69334 0.5152 0.0
H2845 H 0.75513 0.70503 0.52565 0.0
H2846 H 0.73061 0.80652 0.58777 0.0
H2847 H 0.73577 0.81074 0.56178 0.0
H2848 H 0.69345 0.77941 0.559 0.0
H2849 H 0.75938 0.79262 0.53339 0.0
H2850 H 0.75538 0.81251 0.54113 0.0
H2851 H 0.74841 0.80666 0.52116 0.0
H2852 H 0.68914 0.76118 0.53737 0.0
H2853 H 0.70755 0.75406 0.52814 0.0
H2854 H 0.69632 0.76965 0.51831 0.0
H2855 H 0.68662 0.7982 0.42457 0.0
H2856 H 0.69586 0.78323 0.3997 0.0
H2857 H 0.70722 0.77733 0.41728 0.0
H2858 H 0.71636 0.79114 0.40267 0.0
H2859 H 0.73333 0.81799 0.44675 0.0
H2860 H 0.69542 0.78133 0.44401 0.0
H2861 H 0.75759 0.79873 0.47527 0.0
H2862 H 0.74451 0.81112 0.48702 0.0
H2863 H 0.75257 0.81867 0.46793 0.0
H2864 H 0.69197 0.76079 0.46353 0.0
H2865 H 0.69879 0.76637 0.48362 0.0
H2866 H 0.71124 0.75403 0.47115 0.0
H2867 H 0.79393 0.71379 0.4996 0.0
H2868 H 0.76453 0.74035 0.54182 0.0
H2869 H 0.74452 0.76089 0.54265 0.0
H2870 H 0.7171 0.79304 0.5027 0.0
H2871 H 0.74503 0.76509 0.46028 0.0
H2872 H 0.76495 0.74433 0.45945 0.0
H2873 H 0.72718 0.78659 0.61048 0.0
H2874 H 0.72626 0.77705 0.59089 0.0
H2875 H 0.70777 0.7799 0.60219 0.0
C2876 C 0.83871 0.32315 0.56349 0.0
C2877 C 0.82177 0.32338 0.57122 0.0
C2878 C 0.80627 0.30078 0.55976 0.0
C2879 C 0.79286 0.30849 0.55295 0.0
C2880 C 0.78426 0.3015 0.53993 0.0
C2881 C 0.78922 0.28651 0.53358 0.0
C2882 C 0.80241 0.27844 0.54082 0.0
C2883 C 0.81062 0.2856 0.55402 0.0
C2884 C 0.77002 0.31025 0.53277 0.0
C2885 C 0.80811 0.2625 0.53434 0.0
C2886 C 0.82319 0.33421 0.44069 0.0
C2887 C 0.82207 0.31744 0.43284 0.0
C2888 C 0.79946 0.30327 0.44618 0.0
C2889 C 0.80711 0.28987 0.45309 0.0
C2890 C 0.80053 0.28198 0.46686 0.0
C2891 C 0.78599 0.2876 0.47381 0.0
C2892 C 0.77792 0.30072 0.46646 0.0
C2893 C 0.78468 0.30826 0.45257 0.0
C2894 C 0.80923 0.26777 0.47413 0.0
C2895 C 0.76239 0.30701 0.47353 0.0
C2896 C 0.70955 0.21218 0.44705 0.0
C2897 C 0.72348 0.2051 0.45369 0.0
C2898 C 0.73033 0.21088 0.46823 0.0
C2899 C 0.72313 0.22396 0.47631 0.0
C2900 C 0.70891 0.23084 0.46989 0.0
C2901 C 0.70229 0.22481 0.45536 0.0
C2902 C 0.7454 0.20316 0.47487 0.0
C2903 C 0.70085 0.24472 0.47827 0.0
C2904 C 0.70871 0.22473 0.60129 0.0
C2905 C 0.70034 0.21039 0.59262 0.0
C2906 C 0.71508 0.21043 0.56649 0.0
C2907 C 0.72733 0.20288 0.5578 0.0
C2908 C 0.73289 0.20913 0.54282 0.0
C2909 C 0.72589 0.22326 0.53634 0.0
C2910 C 0.71321 0.23077 0.54485 0.0
C2911 C 0.70795 0.22432 0.55985 0.0
C2912 C 0.74638 0.20077 0.53402 0.0
C2913 C 0.70535 0.24574 0.53815 0.0
C2914 C 0.78128 0.2798 0.51878 0.0
C2915 C 0.78644 0.28602 0.50375 0.0
C2916 C 0.77973 0.2803 0.48922 0.0
C2917 C 0.76751 0.26792 0.4896 0.0
C2918 C 0.76062 0.26173 0.47523 0.0
C2919 C 0.74856 0.24959 0.47573 0.0
C2920 C 0.74296 0.2431 0.49064 0.0
C2921 C 0.73071 0.23072 0.49127 0.0
C2922 C 0.72544 0.22454 0.50629 0.0
C2923 C 0.73207 0.23038 0.52082 0.0
C2924 C 0.74433 0.24275 0.52044 0.0
C2925 C 0.75126 0.24892 0.53482 0.0
C2926 C 0.76329 0.26111 0.53432 0.0
C2927 C 0.76894 0.26752 0.51943 0.0
C2928 C 0.76208 0.26153 0.50477 0.0
C2929 C 0.74978 0.24912 0.50528 0.0
C2930 C 0.7236 0.2048 0.41245 0.0
C2931 C 0.70907 0.19682 0.42142 0.0
O2932 O 0.81519 0.30772 0.57185 0.0
O2933 O 0.71072 0.20396 0.58118 0.0
O2934 O 0.7028 0.20742 0.43269 0.0
O2935 O 0.8061 0.3116 0.4334 0.0
H2936 H 0.81419 0.33127 0.56343 0.0
H2937 H 0.83777 0.31862 0.55085 0.0
H2938 H 0.84682 0.31507 0.57045 0.0
H2939 H 0.84424 0.33559 0.5631 0.0
H2940 H 0.78909 0.31996 0.55783 0.0
H2941 H 0.82086 0.27966 0.55953 0.0
H2942 H 0.77319 0.31457 0.52033 0.0
H2943 H 0.76659 0.32085 0.54015 0.0
H2944 H 0.75932 0.30182 0.53175 0.0
H2945 H 0.81899 0.25813 0.54089 0.0
H2946 H 0.8111 0.26377 0.52123 0.0
H2947 H 0.7982 0.25317 0.5355 0.0
H2948 H 0.83015 0.30941 0.43991 0.0
H2949 H 0.83586 0.33919 0.44003 0.0
H2950 H 0.81962 0.33324 0.45369 0.0
H2951 H 0.81493 0.34277 0.43455 0.0
H2952 H 0.8182 0.28555 0.44772 0.0
H2953 H 0.77875 0.31847 0.44698 0.0
H2954 H 0.81391 0.27108 0.48635 0.0
H2955 H 0.81961 0.264 0.46651 0.0
H2956 H 0.80061 0.25729 0.47571 0.0
H2957 H 0.75777 0.31752 0.46657 0.0
H2958 H 0.76446 0.31074 0.48632 0.0
H2959 H 0.75287 0.29721 0.47364 0.0
H2960 H 0.71302 0.18561 0.42771 0.0
H2961 H 0.72916 0.19516 0.44759 0.0
H2962 H 0.6915 0.23014 0.45024 0.0
H2963 H 0.75556 0.21229 0.47517 0.0
H2964 H 0.74921 0.19268 0.4675 0.0
H2965 H 0.74318 0.19896 0.48755 0.0
H2966 H 0.6898 0.2487 0.47175 0.0
H2967 H 0.70957 0.25519 0.47917 0.0
H2968 H 0.69738 0.24105 0.49083 0.0
H2969 H 0.6891 0.21454 0.58653 0.0
H2970 H 0.70048 0.2297 0.61063 0.0
H2971 H 0.71182 0.23462 0.59253 0.0
H2972 H 0.7201 0.22087 0.60726 0.0
H2973 H 0.73272 0.19214 0.56293 0.0
H2974 H 0.69835 0.23028 0.56627 0.0
H2975 H 0.7568 0.20941 0.53209 0.0
H2976 H 0.74204 0.19681 0.52188 0.0
H2977 H 0.75072 0.19002 0.54081 0.0
H2978 H 0.69505 0.24967 0.54579 0.0
H2979 H 0.70082 0.2434 0.52566 0.0
H2980 H 0.71454 0.25582 0.53736 0.0
H2981 H 0.79589 0.29546 0.50334 0.0
H2982 H 0.76448 0.26624 0.46341 0.0
H2983 H 0.74368 0.24534 0.46427 0.0
H2984 H 0.71605 0.21506 0.50668 0.0
H2985 H 0.74746 0.24439 0.54664 0.0
H2986 H 0.76814 0.26542 0.54577 0.0
H2987 H 0.72839 0.19641 0.40321 0.0
H2988 H 0.73361 0.2078 0.42103 0.0
H2989 H 0.71993 0.21618 0.40631 0.0
C2990 C 0.16713 0.32256 0.44693 0.0
C2991 C 0.18415 0.32399 0.43943 0.0
C2992 C 0.20043 0.3026 0.45083 0.0
C2993 C 0.21406 0.31125 0.45675 0.0
C2994 C 0.22331 0.30503 0.46958 0.0
C2995 C 0.21877 0.28988 0.47666 0.0
C2996 C 0.20531 0.28091 0.47034 0.0
C2997 C 0.19646 0.28731 0.4573 0.0
C2998 C 0.2378 0.31475 0.47574 0.0
C2999 C 0.20004 0.26477 0.47762 0.0
C3000 C 0.23036 0.30186 0.60393 0.0
C3001 C 0.21346 0.29968 0.59633 0.0
C3002 C 0.21634 0.3032 0.56712 0.0
C3003 C 0.2096 0.28852 0.56141 0.0
C3004 C 0.21385 0.2826 0.54608 0.0
C3005 C 0.22514 0.29153 0.53631 0.0
C3006 C 0.23145 0.30666 0.54179 0.0
C3007 C 0.2268 0.31239 0.55709 0.0
C3008 C 0.20645 0.2667 0.5404 0.0
C3009 C 0.24336 0.31658 0.53163 0.0
C3010 C 0.2984 0.2183 0.56193 0.0
C3011 C 0.2837 0.21191 0.55577 0.0
C3012 C 0.27742 0.21756 0.54099 0.0
C3013 C 0.28605 0.22984 0.53221 0.0
C3014 C 0.30126 0.23575 0.53802 0.0
C3015 C 0.30733 0.22976 0.55278 0.0
C3016 C 0.26141 0.21062 0.53491 0.0
C3017 C 0.31085 0.24871 0.52887 0.0
C3018 C 0.27518 0.21546 0.40515 0.0
C3019 C 0.29207 0.21705 0.41289 0.0
C3020 C 0.28884 0.2151 0.44218 0.0
C3021 C 0.27778 0.20706 0.45251 0.0
C3022 C 0.27349 0.21375 0.4675 0.0
C3023 C 0.2808 0.22866 0.47238 0.0
C3024 C 0.29263 0.23644 0.4623 0.0
C3025 C 0.29651 0.22959 0.44727 0.0
C3026 C 0.26097 0.20502 0.47801 0.0
C3027 C 0.30108 0.25205 0.46739 0.0
C3028 C 0.22755 0.28386 0.4912 0.0
C3029 C 0.22314 0.28996 0.50634 0.0
C3030 C 0.23069 0.28481 0.52061 0.0
C3031 C 0.24303 0.2732 0.51984 0.0
C3032 C 0.25097 0.26783 0.53394 0.0
C3033 C 0.26275 0.25606 0.53314 0.0
C3034 C 0.26714 0.24926 0.5182 0.0
C3035 C 0.27877 0.23695 0.51734 0.0
C3036 C 0.28309 0.23067 0.50227 0.0
C3037 C 0.27592 0.23619 0.48792 0.0
C3038 C 0.26405 0.2483 0.48856 0.0
C3039 C 0.25639 0.25397 0.47441 0.0
C3040 C 0.24458 0.26575 0.4752 0.0
C3041 C 0.23983 0.27219 0.4902 0.0
C3042 C 0.24752 0.26678 0.50459 0.0
C3043 C 0.25963 0.25483 0.50377 0.0
C3044 C 0.29622 0.22955 0.59913 0.0
C3045 C 0.29506 0.21301 0.59081 0.0
O3046 O 0.19093 0.30878 0.43893 0.0
O3047 O 0.29201 0.20854 0.42748 0.0
O3048 O 0.30421 0.21364 0.57663 0.0
O3049 O 0.21286 0.30883 0.58215 0.0
H3050 H 0.1915 0.33228 0.44732 0.0
H3051 H 0.16797 0.31792 0.4596 0.0
H3052 H 0.15921 0.31405 0.4399 0.0
H3053 H 0.16144 0.33463 0.44723 0.0
H3054 H 0.21747 0.32285 0.45132 0.0
H3055 H 0.18602 0.28065 0.45247 0.0
H3056 H 0.23514 0.31922 0.48813 0.0
H3057 H 0.24085 0.32534 0.46779 0.0
H3058 H 0.24858 0.30696 0.47663 0.0
H3059 H 0.18878 0.25975 0.47189 0.0
H3060 H 0.19786 0.26608 0.49086 0.0
H3061 H 0.20987 0.25594 0.4761 0.0
H3062 H 0.21167 0.28653 0.59381 0.0
H3063 H 0.23107 0.29484 0.61547 0.0
H3064 H 0.23317 0.31486 0.60642 0.0
H3065 H 0.23973 0.29734 0.59548 0.0
H3066 H 0.20092 0.28173 0.56887 0.0
H3067 H 0.2317 0.32385 0.56151 0.0
H3068 H 0.21603 0.25749 0.53979 0.0
H3069 H 0.20137 0.26812 0.52799 0.0
H3070 H 0.19664 0.26208 0.54864 0.0
H3071 H 0.24774 0.32772 0.53794 0.0
H3072 H 0.23747 0.32017 0.52006 0.0
H3073 H 0.25401 0.30919 0.52852 0.0
H3074 H 0.28197 0.21051 0.58818 0.0
H3075 H 0.27713 0.20248 0.56248 0.0
H3076 H 0.31881 0.2344 0.55752 0.0
H3077 H 0.25212 0.22014 0.53515 0.0
H3078 H 0.25693 0.20015 0.54238 0.0
H3079 H 0.26268 0.20665 0.52212 0.0
H3080 H 0.32244 0.25209 0.53504 0.0
H3081 H 0.30343 0.25971 0.52756 0.0
H3082 H 0.31364 0.2444 0.51645 0.0
H3083 H 0.29456 0.23022 0.41483 0.0
H3084 H 0.27502 0.22192 0.39325 0.0
H3085 H 0.26603 0.22096 0.4132 0.0
H3086 H 0.27163 0.20252 0.40329 0.0
H3087 H 0.27215 0.19574 0.44856 0.0
H3088 H 0.30563 0.23546 0.43959 0.0
H3089 H 0.25096 0.21329 0.48096 0.0
H3090 H 0.26666 0.20133 0.48964 0.0
H3091 H 0.25573 0.19404 0.47205 0.0
H3092 H 0.31092 0.25589 0.45882 0.0
H3093 H 0.30636 0.25063 0.47971 0.0
H3094 H 0.29208 0.26183 0.468 0.0
H3095 H 0.21361 0.2988 0.50705 0.0
H3096 H 0.24809 0.27258 0.54579 0.0
H3097 H 0.26835 0.25234 0.54442 0.0
H3098 H 0.29198 0.22119 0.50171 0.0
H3099 H 0.2594 0.24934 0.46254 0.0
H3100 H 0.23912 0.26966 0.46392 0.0
H3101 H 0.28925 0.22923 0.6107 0.0
H3102 H 0.29097 0.23895 0.5911 0.0
H3103 H 0.30909 0.23308 0.6017 0.0
C3104 C 0.82536 0.56766 0.67345 0.0
C3105 C 0.81722 0.57941 0.68508 0.0
C3106 C 0.80791 0.56062 0.70679 0.0
C3107 C 0.79451 0.55384 0.69837 0.0
C3108 C 0.78558 0.54056 0.70484 0.0
C3109 C 0.79024 0.53376 0.71991 0.0
C3110 C 0.80356 0.54068 0.72851 0.0
C3111 C 0.81209 0.55414 0.7219 0.0
C3112 C 0.7713 0.53364 0.69543 0.0
C3113 C 0.80898 0.53366 0.74454 0.0
C3114 C 0.77906 0.4068 0.70398 0.0
C3115 C 0.79579 0.415 0.70639 0.0
C3116 C 0.79281 0.44419 0.70447 0.0
C3117 C 0.79961 0.44944 0.71921 0.0
C3118 C 0.79536 0.46434 0.72593 0.0
C3119 C 0.784 0.47411 0.71778 0.0
C3120 C 0.77753 0.46905 0.70265 0.0
C3121 C 0.78222 0.45421 0.69609 0.0
C3122 C 0.80291 0.4696 0.7418 0.0
C3123 C 0.76552 0.4792 0.69353 0.0
C3124 C 0.70996 0.44606 0.79287 0.0
C3125 C 0.72435 0.45281 0.79951 0.0
C3126 C 0.73083 0.46768 0.79376 0.0
C3127 C 0.72279 0.47597 0.78112 0.0
C3128 C 0.70807 0.46949 0.77476 0.0
C3129 C 0.70182 0.45462 0.78077 0.0
C3130 C 0.74646 0.47439 0.80095 0.0
C3131 C 0.69914 0.47809 0.76135 0.0
C3132 C 0.70846 0.59995 0.78326 0.0
C3133 C 0.70112 0.59011 0.79749 0.0
C3134 C 0.71658 0.5649 0.79596 0.0
C3135 C 0.72931 0.55639 0.80294 0.0
C3136 C 0.73472 0.54194 0.79613 0.0
C3137 C 0.72713 0.53582 0.78195 0.0
C3138 C 0.7141 0.54424 0.77488 0.0
C3139 C 0.70894 0.55868 0.78194 0.0
C3140 C 0.74858 0.53322 0.80404 0.0
C3141 C 0.70566 0.53794 0.75984 0.0
C3142 C 0.78168 0.51893 0.72622 0.0
C3143 C 0.78621 0.504 0.71992 0.0
C3144 C 0.77869 0.4895 0.72516 0.0
C3145 C 0.76638 0.4898 0.73717 0.0
C3146 C 0.75858 0.47544 0.74275 0.0
C3147 C 0.74674 0.47581 0.75481 0.0
C3148 C 0.74209 0.49058 0.76163 0.0
C3149 C 0.73024 0.49103 0.77407 0.0
C3150 C 0.72563 0.50592 0.78036 0.0
C3151 C 0.73266 0.5205 0.77465 0.0
C3152 C 0.74476 0.52028 0.7624 0.0
C3153 C 0.75225 0.53468 0.75651 0.0
C3154 C 0.76427 0.5343 0.7446 0.0
C3155 C 0.7693 0.51949 0.73815 0.0
C3156 C 0.76173 0.50485 0.74373 0.0
C3157 C 0.7495 0.50524 0.75591 0.0
C3158 C 0.72453 0.41167 0.79859 0.0
C3159 C 0.71065 0.41991 0.80756 0.0
O3160 O 0.81722 0.57319 0.70079 0.0
O3161 O 0.71222 0.57899 0.8031 0.0
O3162 O 0.7036 0.43135 0.79753 0.0
O3163 O 0.79643 0.42963 0.69798 0.0
H3164 H 0.80449 0.58135 0.68109 0.0
H3165 H 0.81852 0.55589 0.67317 0.0
H3166 H 0.83804 0.56539 0.67737 0.0
H3167 H 0.82559 0.57274 0.66091 0.0
H3168 H 0.79095 0.5587 0.68672 0.0
H3169 H 0.82237 0.55947 0.72836 0.0
H3170 H 0.77446 0.52159 0.6906 0.0
H3171 H 0.76788 0.54155 0.68507 0.0
H3172 H 0.76058 0.53186 0.70353 0.0
H3173 H 0.82013 0.53988 0.74926 0.0
H3174 H 0.81138 0.52055 0.74318 0.0
H3175 H 0.79913 0.53475 0.75367 0.0
H3176 H 0.79728 0.41699 0.71967 0.0
H3177 H 0.77841 0.39494 0.71047 0.0
H3178 H 0.77656 0.40481 0.69087 0.0
H3179 H 0.76947 0.4146 0.70895 0.0
H3180 H 0.80836 0.44198 0.72537 0.0
H3181 H 0.77726 0.45015 0.68458 0.0
H3182 H 0.79339 0.46973 0.75137 0.0
H3183 H 0.80809 0.48213 0.74063 0.0
H3184 H 0.81266 0.46141 0.74583 0.0
H3185 H 0.7607 0.473 0.68254 0.0
H3186 H 0.77153 0.49082 0.68974 0.0
H3187 H 0.75517 0.48215 0.70157 0.0
H3188 H 0.71555 0.42579 0.81871 0.0
H3189 H 0.73072 0.44652 0.80905 0.0
H3190 H 0.69067 0.44941 0.7758 0.0
H3191 H 0.75613 0.47469 0.79152 0.0
H3192 H 0.75067 0.46705 0.81143 0.0
H3193 H 0.74478 0.48705 0.80502 0.0
H3194 H 0.68775 0.47151 0.75779 0.0
H3195 H 0.70714 0.4794 0.75052 0.0
H3196 H 0.69609 0.49048 0.76533 0.0
H3197 H 0.68978 0.58375 0.79337 0.0
H3198 H 0.69971 0.60905 0.77889 0.0
H3199 H 0.71128 0.59192 0.77294 0.0
H3200 H 0.7199 0.60634 0.78703 0.0
H3201 H 0.7351 0.56121 0.81377 0.0
H3202 H 0.69898 0.56497 0.7764 0.0
H3203 H 0.7586 0.53181 0.79515 0.0
H3204 H 0.74438 0.52087 0.80787 0.0
H3205 H 0.75343 0.53974 0.81483 0.0
H3206 H 0.69561 0.54579 0.75587 0.0
H3207 H 0.70065 0.52551 0.76217 0.0
H3208 H 0.7146 0.53715 0.74977 0.0
H3209 H 0.7957 0.50367 0.71077 0.0
H3210 H 0.76162 0.46372 0.73795 0.0
H3211 H 0.74126 0.46435 0.75869 0.0
H3212 H 0.71652 0.50615 0.78989 0.0
H3213 H 0.74894 0.54641 0.7611 0.0
H3214 H 0.76963 0.54576 0.74054 0.0
H3215 H 0.7299 0.40219 0.80644 0.0
H3216 H 0.73435 0.42061 0.79538 0.0
H3217 H 0.72001 0.40597 0.78721 0.0
C3218 C 0.17233 0.44091 0.68931 0.0
C3219 C 0.18927 0.43369 0.68843 0.0
C3220 C 0.20512 0.44547 0.71044 0.0
C3221 C 0.21853 0.45242 0.70218 0.0
C3222 C 0.22725 0.46569 0.70872 0.0
C3223 C 0.2224 0.47214 0.72381 0.0
C3224 C 0.20926 0.46472 0.73245 0.0
C3225 C 0.20093 0.45129 0.72573 0.0
C3226 C 0.24144 0.47304 0.69936 0.0
C3227 C 0.20371 0.47128 0.74853 0.0
C3228 C 0.2254 0.59887 0.71251 0.0
C3229 C 0.20864 0.59032 0.71264 0.0
C3230 C 0.21376 0.56165 0.7094 0.0
C3231 C 0.20732 0.55515 0.72392 0.0
C3232 C 0.21276 0.54037 0.73016 0.0
C3233 C 0.22488 0.53195 0.72169 0.0
C3234 C 0.23089 0.53816 0.70671 0.0
C3235 C 0.22509 0.55288 0.70066 0.0
C3236 C 0.20569 0.53382 0.74589 0.0
C3237 C 0.24364 0.52937 0.69725 0.0
C3238 C 0.29871 0.56356 0.79534 0.0
C3239 C 0.28433 0.5564 0.8016 0.0
C3240 C 0.27856 0.5413 0.79596 0.0
C3241 C 0.28735 0.53321 0.7838 0.0
C3242 C 0.3022 0.5401 0.77795 0.0
C3243 C 0.30778 0.55515 0.78396 0.0
C3244 C 0.26295 0.53407 0.80286 0.0
C3245 C 0.31194 0.53175 0.7651 0.0
C3246 C 0.28391 0.40638 0.79622 0.0
C3247 C 0.30079 0.41458 0.79484 0.0
C3248 C 0.29686 0.44345 0.79773 0.0
C3249 C 0.28559 0.45247 0.80628 0.0
C3250 C 0.28006 0.46722 0.80001 0.0
C3251 C 0.2863 0.47319 0.78502 0.0
C3252 C 0.29838 0.4645 0.77677 0.0
C3253 C 0.3035 0.44967 0.78321 0.0
C3254 C 0.2673 0.47625 0.80921 0.0
C3255 C 0.30572 0.47078 0.76107 0.0
C3256 C 0.23028 0.48734 0.72991 0.0
C3257 C 0.22481 0.50201 0.7236 0.0
C3258 C 0.23151 0.51685 0.7287 0.0
C3259 C 0.24403 0.51718 0.74048 0.0
C3260 C 0.25107 0.53191 0.74583 0.0
C3261 C 0.26314 0.53215 0.75767 0.0
C3262 C 0.26869 0.51766 0.76458 0.0
C3263 C 0.28071 0.51781 0.77688 0.0
C3264 C 0.28622 0.50316 0.78321 0.0
C3265 C 0.2799 0.48827 0.77775 0.0
C3266 C 0.26761 0.48789 0.7657 0.0
C3267 C 0.26073 0.47315 0.76014 0.0
C3268 C 0.24861 0.47291 0.74832 0.0
C3269 C 0.24279 0.48741 0.74172 0.0
C3270 C 0.24962 0.50241 0.74707 0.0
C3271 C 0.26201 0.50265 0.75909 0.0
C3272 C 0.29391 0.60006 0.78391 0.0
C3273 C 0.29457 0.59209 0.80075 0.0
O3274 O 0.19601 0.43322 0.70387 0.0
O3275 O 0.30113 0.42879 0.80374 0.0
O3276 O 0.30412 0.57848 0.80013 0.0
O3277 O 0.20919 0.57627 0.70353 0.0
H3278 H 0.19676 0.44169 0.68024 0.0
H3279 H 0.1733 0.45355 0.69384 0.0
H3280 H 0.16431 0.43373 0.6977 0.0
H3281 H 0.16667 0.44116 0.67706 0.0
H3282 H 0.22217 0.44749 0.69062 0.0
H3283 H 0.19069 0.44565 0.73209 0.0
H3284 H 0.23817 0.4852 0.69473 0.0
H3285 H 0.24492 0.46546 0.68888 0.0
H3286 H 0.25214 0.47467 0.70746 0.0
H3287 H 0.19298 0.46442 0.75348 0.0
H3288 H 0.20053 0.48422 0.74711 0.0
H3289 H 0.21376 0.47071 0.75749 0.0
H3290 H 0.20565 0.58743 0.72554 0.0
H3291 H 0.22505 0.61033 0.71951 0.0
H3292 H 0.22941 0.60167 0.69988 0.0
H3293 H 0.2345 0.59092 0.71825 0.0
H3294 H 0.19797 0.56153 0.73033 0.0
H3295 H 0.22975 0.55788 0.68932 0.0
H3296 H 0.21531 0.53378 0.75534 0.0
H3297 H 0.2013 0.52109 0.74427 0.0
H3298 H 0.19545 0.54113 0.75031 0.0
H3299 H 0.2475 0.5361 0.6861 0.0
H3300 H 0.23877 0.51723 0.69372 0.0
H3301 H 0.25448 0.52749 0.70501 0.0
H3302 H 0.28187 0.58864 0.80422 0.0
H3303 H 0.27765 0.56253 0.81097 0.0
H3304 H 0.31901 0.56066 0.7794 0.0
H3305 H 0.25347 0.53377 0.79327 0.0
H3306 H 0.25837 0.5411 0.81329 0.0
H3307 H 0.26483 0.52138 0.80689 0.0
H3308 H 0.32303 0.53889 0.76151 0.0
H3309 H 0.3043 0.52967 0.75415 0.0
H3310 H 0.31565 0.5197 0.76968 0.0
H3311 H 0.30296 0.41723 0.78173 0.0
H3312 H 0.28353 0.39483 0.78936 0.0
H3313 H 0.27461 0.41446 0.79102 0.0
H3314 H 0.28073 0.40382 0.80913 0.0
H3315 H 0.28074 0.44765 0.81762 0.0
H3316 H 0.31275 0.44299 0.77694 0.0
H3317 H 0.25662 0.47829 0.80126 0.0
H3318 H 0.2723 0.48833 0.8128 0.0
H3319 H 0.26314 0.46962 0.82032 0.0
H3320 H 0.3161 0.46345 0.75701 0.0
H3321 H 0.31 0.48358 0.76249 0.0
H3322 H 0.2963 0.47054 0.75142 0.0
H3323 H 0.21515 0.50189 0.71463 0.0
H3324 H 0.24729 0.54345 0.74099 0.0
H3325 H 0.26805 0.54386 0.76135 0.0
H3326 H 0.29547 0.50336 0.79261 0.0
H3327 H 0.26462 0.4616 0.76488 0.0
H3328 H 0.24379 0.46121 0.74449 0.0
H3329 H 0.28651 0.61114 0.7843 0.0
H3330 H 0.28819 0.59151 0.77511 0.0
H3331 H 0.30634 0.6034 0.77951 0.0
C3332 C 0.32408 0.56956 0.17229 0.0
C3333 C 0.31641 0.58122 0.18434 0.0
C3334 C 0.30875 0.56232 0.2066 0.0
C3335 C 0.2951 0.55514 0.19892 0.0
C3336 C 0.28682 0.54172 0.20594 0.0
C3337 C 0.29236 0.53521 0.22082 0.0
C3338 C 0.30591 0.54255 0.22871 0.0
C3339 C 0.31382 0.55611 0.22154 0.0
C3340 C 0.27227 0.53433 0.19729 0.0
C3341 C 0.31221 0.53588 0.24455 0.0
C3342 C 0.28267 0.40873 0.21009 0.0
C3343 C 0.29997 0.41601 0.21107 0.0
C3344 C 0.29717 0.44511 0.20801 0.0
C3345 C 0.30381 0.45093 0.2226 0.0
C3346 C 0.29934 0.466 0.22879 0.0
C3347 C 0.2879 0.47535 0.22025 0.0
C3348 C 0.28164 0.46974 0.20523 0.0
C3349 C 0.28655 0.45475 0.1992 0.0
C3350 C 0.3067 0.47185 0.24455 0.0
C3351 C 0.26957 0.47945 0.19569 0.0
C3352 C 0.21171 0.44736 0.29403 0.0
C3353 C 0.22598 0.45386 0.30115 0.0
C3354 C 0.23298 0.46858 0.29554 0.0
C3355 C 0.22559 0.47698 0.28257 0.0
C3356 C 0.21102 0.4707 0.27566 0.0
C3357 C 0.20426 0.45599 0.28153 0.0
C3358 C 0.24843 0.47505 0.30329 0.0
C3359 C 0.20276 0.47941 0.26189 0.0
C3360 C 0.21069 0.60073 0.28514 0.0
C3361 C 0.20329 0.59075 0.29925 0.0
C3362 C 0.21905 0.56573 0.29776 0.0
C3363 C 0.23185 0.55735 0.30479 0.0
C3364 C 0.23747 0.54299 0.29796 0.0
C3365 C 0.23002 0.53682 0.28373 0.0
C3366 C 0.21694 0.54512 0.27661 0.0
C3367 C 0.21158 0.55948 0.28367 0.0
C3368 C 0.25138 0.53441 0.30592 0.0
C3369 C 0.20864 0.53877 0.2615 0.0
C3370 C 0.28442 0.52028 0.2277 0.0
C3371 C 0.28928 0.50535 0.22166 0.0
C3372 C 0.28216 0.49077 0.22723 0.0
C3373 C 0.26983 0.491 0.23923 0.0
C3374 C 0.26226 0.47658 0.24497 0.0
C3375 C 0.25032 0.47689 0.25694 0.0
C3376 C 0.24542 0.49164 0.2636 0.0
C3377 C 0.2334 0.49204 0.27588 0.0
C3378 C 0.2287 0.50691 0.28214 0.0
C3379 C 0.23569 0.52152 0.27647 0.0
C3380 C 0.24779 0.52137 0.26422 0.0
C3381 C 0.25509 0.53582 0.25821 0.0
C3382 C 0.26701 0.53552 0.24619 0.0
C3383 C 0.2722 0.52075 0.2398 0.0
C3384 C 0.26493 0.50604 0.24562 0.0
C3385 C 0.2527 0.50635 0.25782 0.0
C3386 C 0.22508 0.41262 0.301 0.0
C3387 C 0.21106 0.42141 0.30917 0.0
O3388 O 0.31747 0.57503 0.20003 0.0
O3389 O 0.21446 0.57973 0.30494 0.0
O3390 O 0.2048 0.43285 0.29861 0.0
O3391 O 0.3009 0.43032 0.20212 0.0
H3392 H 0.30346 0.58289 0.18097 0.0
H3393 H 0.31743 0.55768 0.1724 0.0
H3394 H 0.337 0.5675 0.17551 0.0
H3395 H 0.32354 0.57459 0.15975 0.0
H3396 H 0.29084 0.5598 0.18743 0.0
H3397 H 0.32429 0.56174 0.22743 0.0
H3398 H 0.27533 0.52212 0.19284 0.0
H3399 H 0.26841 0.54181 0.18677 0.0
H3400 H 0.26188 0.53281 0.20584 0.0
H3401 H 0.32323 0.54263 0.24886 0.0
H3402 H 0.31518 0.52291 0.24312 0.0
H3403 H 0.30262 0.53653 0.25401 0.0
H3404 H 0.30257 0.41837 0.22411 0.0
H3405 H 0.2818 0.39712 0.21702 0.0
H3406 H 0.27914 0.40647 0.19726 0.0
H3407 H 0.27394 0.41724 0.21544 0.0
H3408 H 0.31259 0.44378 0.2291 0.0
H3409 H 0.28172 0.45024 0.1878 0.0
H3410 H 0.31153 0.48447 0.2431 0.0
H3411 H 0.31667 0.46404 0.24879 0.0
H3412 H 0.29714 0.47192 0.25408 0.0
H3413 H 0.26497 0.47287 0.18482 0.0
H3414 H 0.27544 0.49105 0.19165 0.0
H3415 H 0.25908 0.48244 0.20353 0.0
H3416 H 0.21564 0.42737 0.32041 0.0
H3417 H 0.23185 0.44751 0.31097 0.0
H3418 H 0.19321 0.45098 0.27617 0.0
H3419 H 0.25838 0.47546 0.29415 0.0
H3420 H 0.25228 0.46751 0.31377 0.0
H3421 H 0.2467 0.48765 0.30751 0.0
H3422 H 0.19145 0.47298 0.25788 0.0
H3423 H 0.21121 0.48062 0.25139 0.0
H3424 H 0.1997 0.49184 0.26573 0.0
H3425 H 0.19208 0.58427 0.29495 0.0
H3426 H 0.20188 0.60973 0.28068 0.0
H3427 H 0.21377 0.59278 0.27484 0.0
H3428 H 0.22199 0.60726 0.2891 0.0
H3429 H 0.23752 0.5622 0.31566 0.0
H3430 H 0.20158 0.56568 0.27807 0.0
H3431 H 0.26145 0.5331 0.29705 0.0
H3432 H 0.24729 0.52202 0.30973 0.0
H3433 H 0.25614 0.54097 0.31672 0.0
H3434 H 0.19855 0.54654 0.25748 0.0
H3435 H 0.20371 0.5263 0.2638 0.0
H3436 H 0.21764 0.53806 0.25149 0.0
H3437 H 0.2987 0.50507 0.21243 0.0
H3438 H 0.26549 0.46486 0.2403 0.0
H3439 H 0.24499 0.46539 0.26091 0.0
H3440 H 0.21947 0.50711 0.29157 0.0
H3441 H 0.25165 0.54754 0.26274 0.0
H3442 H 0.27218 0.54702 0.24201 0.0
H3443 H 0.22986 0.40318 0.30929 0.0
H3444 H 0.23524 0.42124 0.29802 0.0
H3445 H 0.22089 0.40677 0.28957 0.0
C3446 C 0.84017 0.44342 0.31661 0.0
C3447 C 0.82292 0.43642 0.31923 0.0
C3448 C 0.80594 0.44813 0.29845 0.0
C3449 C 0.79326 0.45465 0.3075 0.0
C3450 C 0.78458 0.46787 0.30154 0.0
C3451 C 0.78877 0.47475 0.28624 0.0
C3452 C 0.80128 0.46787 0.27689 0.0
C3453 C 0.80954 0.45445 0.28304 0.0
C3454 C 0.77106 0.47461 0.31166 0.0
C3455 C 0.80614 0.47491 0.26057 0.0
C3456 C 0.78403 0.60075 0.29535 0.0
C3457 C 0.80128 0.5942 0.29463 0.0
C3458 C 0.7971 0.5651 0.2984 0.0
C3459 C 0.80217 0.55921 0.28333 0.0
C3460 C 0.79659 0.54401 0.27774 0.0
C3461 C 0.78563 0.53455 0.28741 0.0
C3462 C 0.78097 0.54022 0.30287 0.0
C3463 C 0.78695 0.55537 0.30826 0.0
C3464 C 0.8023 0.53811 0.26144 0.0
C3465 C 0.76946 0.53041 0.31358 0.0
C3466 C 0.70605 0.56033 0.21795 0.0
C3467 C 0.72011 0.55426 0.21066 0.0
C3468 C 0.72686 0.53976 0.21618 0.0
C3469 C 0.71944 0.53115 0.22926 0.0
C3470 C 0.70508 0.53698 0.23637 0.0
C3471 C 0.69855 0.55148 0.23056 0.0
C3472 C 0.74206 0.53374 0.20818 0.0
C3473 C 0.69683 0.52804 0.25028 0.0
C3474 C 0.72426 0.405 0.21462 0.0
C3475 C 0.70745 0.41247 0.21584 0.0
C3476 C 0.71211 0.44164 0.21403 0.0
C3477 C 0.72317 0.45171 0.20559 0.0
C3478 C 0.72871 0.46649 0.21219 0.0
C3479 C 0.72271 0.47144 0.22745 0.0
C3480 C 0.71094 0.46162 0.2357 0.0
C3481 C 0.70578 0.44679 0.22891 0.0
C3482 C 0.74112 0.47675 0.20297 0.0
C3483 C 0.70385 0.46679 0.2517 0.0
C3484 C 0.78046 0.48946 0.28032 0.0
C3485 C 0.78601 0.50453 0.2861 0.0
C3486 C 0.7788 0.51892 0.28114 0.0
C3487 C 0.76559 0.51832 0.27012 0.0
C3488 C 0.75787 0.53251 0.26506 0.0
C3489 C 0.74517 0.53187 0.2539 0.0
C3490 C 0.73964 0.517 0.2474 0.0
C3491 C 0.727 0.51628 0.23577 0.0
C3492 C 0.72168 0.50129 0.22966 0.0
C3493 C 0.72875 0.48688 0.23476 0.0
C3494 C 0.7415 0.48736 0.24632 0.0
C3495 C 0.74896 0.47313 0.25168 0.0
C3496 C 0.76157 0.47375 0.26297 0.0
C3497 C 0.76739 0.48866 0.26914 0.0
C3498 C 0.75998 0.50315 0.26399 0.0
C3499 C 0.74699 0.5025 0.25261 0.0
C3500 C 0.72036 0.59534 0.21149 0.0
C3501 C 0.70612 0.5864 0.20309 0.0
O3502 O 0.81491 0.43586 0.30441 0.0
O3503 O 0.70765 0.42714 0.20747 0.0
O3504 O 0.69942 0.57464 0.21342 0.0
O3505 O 0.80189 0.58003 0.30378 0.0
H3506 H 0.81671 0.44463 0.32779 0.0
H3507 H 0.83959 0.45601 0.31181 0.0
H3508 H 0.84695 0.43604 0.30776 0.0
H3509 H 0.84692 0.44374 0.3283 0.0
H3510 H 0.79015 0.44938 0.31923 0.0
H3511 H 0.81925 0.44919 0.27609 0.0
H3512 H 0.77469 0.48694 0.31586 0.0
H3513 H 0.76819 0.4669 0.32247 0.0
H3514 H 0.75989 0.47574 0.30421 0.0
H3515 H 0.81676 0.46878 0.25527 0.0
H3516 H 0.80917 0.48805 0.26175 0.0
H3517 H 0.79577 0.4737 0.252 0.0
H3518 H 0.80407 0.59186 0.28165 0.0
H3519 H 0.78335 0.61228 0.28834 0.0
H3520 H 0.78032 0.60292 0.30812 0.0
H3521 H 0.77528 0.59183 0.28994 0.0
H3522 H 0.81062 0.56637 0.27596 0.0
H3523 H 0.78332 0.55992 0.32 0.0
H3524 H 0.79193 0.5378 0.25282 0.0
H3525 H 0.80678 0.52556 0.26258 0.0
H3526 H 0.81215 0.54603 0.25623 0.0
H3527 H 0.76624 0.53694 0.32484 0.0
H3528 H 0.77516 0.51883 0.31702 0.0
H3529 H 0.75812 0.52736 0.30682 0.0
H3530 H 0.71061 0.58072 0.19178 0.0
H3531 H 0.726 0.56076 0.20074 0.0
H3532 H 0.68766 0.55616 0.23605 0.0
H3533 H 0.75219 0.53385 0.2171 0.0
H3534 H 0.74582 0.54128 0.19751 0.0
H3535 H 0.74008 0.52102 0.20418 0.0
H3536 H 0.6858 0.53424 0.25458 0.0
H3537 H 0.70545 0.52693 0.26058 0.0
H3538 H 0.69327 0.51557 0.24643 0.0
H3539 H 0.70492 0.41425 0.22898 0.0
H3540 H 0.72428 0.39305 0.22094 0.0
H3541 H 0.7335 0.41309 0.22048 0.0
H3542 H 0.72782 0.40336 0.20172 0.0
H3543 H 0.72777 0.44773 0.19398 0.0
H3544 H 0.69666 0.43934 0.23513 0.0
H3545 H 0.75183 0.47941 0.21081 0.0
H3546 H 0.73575 0.48851 0.19957 0.0
H3547 H 0.74531 0.47074 0.19173 0.0
H3548 H 0.69398 0.45836 0.25602 0.0
H3549 H 0.69894 0.47916 0.25053 0.0
H3550 H 0.71358 0.46728 0.26104 0.0
H3551 H 0.79615 0.50508 0.29452 0.0
H3552 H 0.7616 0.54431 0.26961 0.0
H3553 H 0.73977 0.5432 0.2504 0.0
H3554 H 0.71203 0.50085 0.22068 0.0
H3555 H 0.74513 0.46132 0.24722 0.0
H3556 H 0.7668 0.4624 0.26668 0.0
H3557 H 0.72553 0.60501 0.20339 0.0
H3558 H 0.73023 0.58688 0.21442 0.0
H3559 H 0.71625 0.60093 0.22298 0.0
C3560 C 0.56109 0.17267 0.68935 0.0
C3561 C 0.56961 0.18931 0.68748 0.0
C3562 C 0.55881 0.20656 0.70834 0.0
C3563 C 0.55354 0.21994 0.69937 0.0
C3564 C 0.54078 0.22937 0.70505 0.0
C3565 C 0.53311 0.22523 0.71997 0.0
C3566 C 0.53886 0.21209 0.72934 0.0
C3567 C 0.55186 0.20307 0.72349 0.0
C3568 C 0.53524 0.24351 0.69493 0.0
C3569 C 0.53091 0.20721 0.74523 0.0
C3570 C 0.40869 0.21281 0.71476 0.0
C3571 C 0.41742 0.20413 0.70094 0.0
C3572 C 0.44398 0.21866 0.70115 0.0
C3573 C 0.4498 0.21158 0.71556 0.0
C3574 C 0.46454 0.21698 0.7225 0.0
C3575 C 0.47366 0.22968 0.71489 0.0
C3576 C 0.46806 0.23656 0.70021 0.0
C3577 C 0.45329 0.23092 0.69352 0.0
C3578 C 0.47028 0.20926 0.73808 0.0
C3579 C 0.47758 0.25004 0.69174 0.0
C3580 C 0.44409 0.30346 0.78786 0.0
C3581 C 0.44975 0.28892 0.79445 0.0
C3582 C 0.46459 0.28262 0.78935 0.0
C3583 C 0.47397 0.29109 0.77744 0.0
C3584 C 0.4686 0.30608 0.77125 0.0
C3585 C 0.45377 0.31216 0.77669 0.0
C3586 C 0.47019 0.26684 0.79656 0.0
C3587 C 0.47839 0.3155 0.75868 0.0
C3588 C 0.59941 0.30351 0.78628 0.0
C3589 C 0.58964 0.31183 0.79959 0.0
C3590 C 0.56297 0.29765 0.79731 0.0
C3591 C 0.55304 0.28539 0.80412 0.0
C3592 C 0.53851 0.28029 0.79658 0.0
C3593 C 0.53374 0.28779 0.7819 0.0
C3594 C 0.54351 0.30046 0.77508 0.0
C3595 C 0.55806 0.30524 0.78281 0.0
C3596 C 0.52834 0.26676 0.80419 0.0
C3597 C 0.53863 0.30886 0.75955 0.0
C3598 C 0.51828 0.23377 0.7251 0.0
C3599 C 0.50351 0.22888 0.71804 0.0
C3600 C 0.48892 0.23592 0.7225 0.0
C3601 C 0.48893 0.24821 0.73438 0.0
C3602 C 0.47443 0.25547 0.7392 0.0
C3603 C 0.4745 0.26729 0.75117 0.0
C3604 C 0.48907 0.27231 0.75877 0.0
C3605 C 0.4892 0.28404 0.77123 0.0
C3606 C 0.50392 0.28889 0.7784 0.0
C3607 C 0.51862 0.28224 0.77356 0.0
C3608 C 0.51872 0.27036 0.76125 0.0
C3609 C 0.53326 0.2633 0.7562 0.0
C3610 C 0.53319 0.25145 0.74423 0.0
C3611 C 0.51857 0.24612 0.73695 0.0
C3612 C 0.5038 0.25326 0.74168 0.0
C3613 C 0.50387 0.26537 0.75386 0.0
C3614 C 0.40626 0.30114 0.77675 0.0
C3615 C 0.41502 0.3005 0.79314 0.0
O3616 O 0.57042 0.19673 0.70253 0.0
O3617 O 0.57712 0.3016 0.80509 0.0
O3618 O 0.4295 0.30948 0.79218 0.0
O3619 O 0.42947 0.21424 0.69431 0.0
H3620 H 0.56222 0.19649 0.67881 0.0
H3621 H 0.54843 0.17417 0.69372 0.0
H3622 H 0.56758 0.16499 0.69826 0.0
H3623 H 0.56057 0.16638 0.67747 0.0
H3624 H 0.55935 0.22296 0.68788 0.0
H3625 H 0.55619 0.19282 0.73039 0.0
H3626 H 0.52308 0.24055 0.68973 0.0
H3627 H 0.54377 0.24647 0.6848 0.0
H3628 H 0.53402 0.25441 0.70264 0.0
H3629 H 0.5363 0.1962 0.75063 0.0
H3630 H 0.51769 0.20485 0.74337 0.0
H3631 H 0.53225 0.21728 0.75404 0.0
H3632 H 0.42281 0.19286 0.7058 0.0
H3633 H 0.39878 0.20487 0.71985 0.0
H3634 H 0.40339 0.22426 0.71027 0.0
H3635 H 0.41726 0.21581 0.72476 0.0
H3636 H 0.44293 0.20194 0.72157 0.0
H3637 H 0.4488 0.23624 0.68237 0.0
H3638 H 0.48271 0.20459 0.73639 0.0
H3639 H 0.4621 0.19912 0.7422 0.0
H3640 H 0.47097 0.21851 0.7478 0.0
H3641 H 0.47158 0.25412 0.68039 0.0
H3642 H 0.48995 0.24587 0.68872 0.0
H3643 H 0.47904 0.26055 0.70001 0.0
H3644 H 0.41734 0.28752 0.79572 0.0
H3645 H 0.44269 0.28253 0.80371 0.0
H3646 H 0.44942 0.32353 0.7719 0.0
H3647 H 0.47047 0.25749 0.78695 0.0
H3648 H 0.4621 0.26234 0.80652 0.0
H3649 H 0.48275 0.2684 0.80135 0.0
H3650 H 0.47238 0.3268 0.75483 0.0
H3651 H 0.48025 0.30783 0.74784 0.0
H3652 H 0.49059 0.31872 0.76367 0.0
H3653 H 0.58451 0.3232 0.79467 0.0
H3654 H 0.60956 0.31164 0.78202 0.0
H3655 H 0.59156 0.30064 0.77568 0.0
H3656 H 0.6045 0.29203 0.79095 0.0
H3657 H 0.55686 0.27965 0.81532 0.0
H3658 H 0.56548 0.31483 0.77737 0.0
H3659 H 0.52659 0.25675 0.79537 0.0
H3660 H 0.51612 0.27127 0.80727 0.0
H3661 H 0.53397 0.26186 0.8154 0.0
H3662 H 0.5471 0.31906 0.75623 0.0
H3663 H 0.52617 0.31359 0.7608 0.0
H3664 H 0.53836 0.29999 0.74946 0.0
H3665 H 0.50334 0.21932 0.70905 0.0
H3666 H 0.46284 0.25205 0.73384 0.0
H3667 H 0.46296 0.2724 0.75442 0.0
H3668 H 0.50393 0.29785 0.78798 0.0
H3669 H 0.54487 0.26681 0.76148 0.0
H3670 H 0.54474 0.24643 0.74083 0.0
H3671 H 0.39448 0.29425 0.77742 0.0
H3672 H 0.41388 0.29556 0.76725 0.0
H3673 H 0.40397 0.31386 0.77308 0.0
C3674 C 0.59777 0.72268 0.81 0.0
C3675 C 0.58894 0.70645 0.81374 0.0
C3676 C 0.56527 0.70798 0.79537 0.0
C3677 C 0.55883 0.70235 0.7807 0.0
C3678 C 0.54442 0.70854 0.77431 0.0
C3679 C 0.53628 0.72076 0.78282 0.0
C3680 C 0.54255 0.72637 0.79782 0.0
C3681 C 0.55694 0.71987 0.804 0.0
C3682 C 0.53794 0.70209 0.75841 0.0
C3683 C 0.53409 0.73931 0.80726 0.0
C3684 C 0.41244 0.71987 0.80152 0.0
C3685 C 0.42079 0.70505 0.8088 0.0
C3686 C 0.44638 0.70569 0.79313 0.0
C3687 C 0.45361 0.71919 0.80093 0.0
C3688 C 0.46841 0.72606 0.79535 0.0
C3689 C 0.47617 0.71932 0.78172 0.0
C3690 C 0.46913 0.70554 0.77407 0.0
C3691 C 0.45434 0.6989 0.77992 0.0
C3692 C 0.47571 0.74064 0.8039 0.0
C3693 C 0.47716 0.69798 0.75959 0.0
C3694 C 0.44782 0.79585 0.70903 0.0
C3695 C 0.45461 0.80239 0.72332 0.0
C3696 C 0.46929 0.79664 0.72958 0.0
C3697 C 0.47734 0.7841 0.72145 0.0
C3698 C 0.47071 0.77771 0.70692 0.0
C3699 C 0.45607 0.78374 0.70088 0.0
C3700 C 0.47614 0.80384 0.745 0.0
C3701 C 0.47899 0.76436 0.69791 0.0
C3702 C 0.60463 0.79216 0.72067 0.0
C3703 C 0.59644 0.7929 0.70397 0.0
C3704 C 0.56785 0.79671 0.70993 0.0
C3705 C 0.55944 0.80537 0.72164 0.0
C3706 C 0.54443 0.79953 0.7278 0.0
C3707 C 0.53757 0.78485 0.72178 0.0
C3708 C 0.54565 0.77648 0.70932 0.0
C3709 C 0.56072 0.78249 0.70354 0.0
C3710 C 0.53607 0.80885 0.74095 0.0
C3711 C 0.53844 0.76109 0.70223 0.0
C3712 C 0.52117 0.72765 0.77605 0.0
C3713 C 0.50624 0.72105 0.78136 0.0
C3714 C 0.49155 0.72681 0.77538 0.0
C3715 C 0.49166 0.73946 0.76367 0.0
C3716 C 0.47711 0.74546 0.75731 0.0
C3717 C 0.47735 0.75789 0.74576 0.0
C3718 C 0.49214 0.7648 0.74012 0.0
C3719 C 0.49249 0.7774 0.72834 0.0
C3720 C 0.50743 0.78377 0.72276 0.0
C3721 C 0.52214 0.77802 0.72874 0.0
C3722 C 0.52201 0.76565 0.74077 0.0
C3723 C 0.53656 0.7598 0.74732 0.0
C3724 C 0.53632 0.74744 0.75893 0.0
C3725 C 0.52153 0.7404 0.76443 0.0
C3726 C 0.50672 0.74627 0.75818 0.0
C3727 C 0.50696 0.75894 0.74637 0.0
C3728 C 0.41316 0.80182 0.72363 0.0
C3729 C 0.42216 0.81077 0.70974 0.0
O3730 O 0.57951 0.70166 0.80056 0.0
O3731 O 0.58275 0.80233 0.705 0.0
O3732 O 0.43339 0.80066 0.70272 0.0
O3733 O 0.43177 0.69895 0.79775 0.0
H3734 H 0.58116 0.70783 0.82469 0.0
H3735 H 0.60555 0.7264 0.82042 0.0
H3736 H 0.58893 0.73239 0.80781 0.0
H3737 H 0.60553 0.72166 0.799 0.0
H3738 H 0.56526 0.69312 0.77417 0.0
H3739 H 0.56158 0.72423 0.81549 0.0
H3740 H 0.52509 0.69785 0.75991 0.0
H3741 H 0.54517 0.6919 0.75377 0.0
H3742 H 0.53815 0.71196 0.74917 0.0
H3743 H 0.54092 0.74296 0.81834 0.0
H3744 H 0.52178 0.73477 0.81093 0.0
H3745 H 0.5325 0.75019 0.79945 0.0
H3746 H 0.42717 0.70869 0.82016 0.0
H3747 H 0.42145 0.72977 0.79886 0.0
H3748 H 0.4034 0.72459 0.81021 0.0
H3749 H 0.40613 0.71659 0.79002 0.0
H3750 H 0.4478 0.72452 0.81132 0.0
H3751 H 0.44877 0.68844 0.77403 0.0
H3752 H 0.47665 0.75105 0.79529 0.0
H3753 H 0.48823 0.73798 0.80803 0.0
H3754 H 0.4684 0.74425 0.81457 0.0
H3755 H 0.47015 0.68727 0.75501 0.0
H3756 H 0.48958 0.69416 0.76293 0.0
H3757 H 0.47845 0.70708 0.74964 0.0
H3758 H 0.42841 0.82181 0.71464 0.0
H3759 H 0.44854 0.81189 0.72973 0.0
H3760 H 0.45083 0.77881 0.68983 0.0
H3761 H 0.47634 0.79436 0.75464 0.0
H3762 H 0.46893 0.81413 0.74942 0.0
H3763 H 0.48889 0.80816 0.74296 0.0
H3764 H 0.47214 0.7605 0.68692 0.0
H3765 H 0.48035 0.75369 0.70606 0.0
H3766 H 0.4914 0.76856 0.69419 0.0
H3767 H 0.5931 0.78023 0.70056 0.0
H3768 H 0.61584 0.78495 0.72004 0.0
H3769 H 0.59622 0.78623 0.7296 0.0
H3770 H 0.60784 0.80454 0.72507 0.0
H3771 H 0.56493 0.81648 0.7263 0.0
H3772 H 0.56685 0.77614 0.69394 0.0
H3773 H 0.53395 0.80089 0.75173 0.0
H3774 H 0.524 0.81274 0.73656 0.0
H3775 H 0.54327 0.81976 0.74474 0.0
H3776 H 0.54544 0.75687 0.69159 0.0
H3777 H 0.52566 0.763 0.69845 0.0
H3778 H 0.53826 0.75136 0.71163 0.0
H3779 H 0.50606 0.7113 0.79028 0.0
H3780 H 0.46536 0.7406 0.76116 0.0
H3781 H 0.46576 0.76197 0.74129 0.0
H3782 H 0.50762 0.79327 0.71357 0.0
H3783 H 0.54831 0.76472 0.74353 0.0
H3784 H 0.5479 0.74343 0.7635 0.0
H3785 H 0.40394 0.80976 0.72909 0.0
H3786 H 0.42176 0.79836 0.73335 0.0
H3787 H 0.40695 0.79061 0.71909 0.0
C3788 C 0.44336 0.83874 0.31303 0.0
C3789 C 0.43126 0.82591 0.30646 0.0
C3790 C 0.4502 0.80453 0.29887 0.0
C3791 C 0.45656 0.81225 0.28486 0.0
C3792 C 0.46986 0.80585 0.27657 0.0
C3793 C 0.47695 0.7915 0.28241 0.0
C3794 C 0.47035 0.7835 0.29627 0.0
C3795 C 0.45697 0.79008 0.30424 0.0
C3796 C 0.4765 0.81457 0.26171 0.0
C3797 C 0.47762 0.76818 0.30283 0.0
C3798 C 0.60557 0.80679 0.27639 0.0
C3799 C 0.59623 0.80503 0.29243 0.0
C3800 C 0.56722 0.80747 0.28771 0.0
C3801 C 0.5611 0.79316 0.29505 0.0
C3802 C 0.54597 0.78642 0.29041 0.0
C3803 C 0.53683 0.79418 0.27819 0.0
C3804 C 0.54269 0.80897 0.27126 0.0
C3805 C 0.55778 0.81552 0.27627 0.0
C3806 C 0.53983 0.77093 0.29844 0.0
C3807 C 0.53315 0.81767 0.25838 0.0
C3808 C 0.56344 0.71719 0.20695 0.0
C3809 C 0.55639 0.71098 0.22137 0.0
C3810 C 0.54181 0.71713 0.22735 0.0
C3811 C 0.5341 0.72971 0.21877 0.0
C3812 C 0.54094 0.73573 0.20409 0.0
C3813 C 0.55551 0.72934 0.19836 0.0
C3814 C 0.53474 0.71035 0.24299 0.0
C3815 C 0.53299 0.7491 0.19463 0.0
C3816 C 0.40635 0.71628 0.225 0.0
C3817 C 0.41434 0.71766 0.20822 0.0
C3818 C 0.44346 0.71519 0.21196 0.0
C3819 C 0.45304 0.70703 0.22319 0.0
C3820 C 0.46819 0.71355 0.22809 0.0
C3821 C 0.47398 0.72839 0.22122 0.0
C3822 C 0.4647 0.73624 0.20916 0.0
C3823 C 0.44949 0.72956 0.20468 0.0
C3824 C 0.47785 0.70476 0.24083 0.0
C3825 C 0.47077 0.75176 0.20115 0.0
C3826 C 0.49175 0.78529 0.27448 0.0
C3827 C 0.50681 0.79191 0.27927 0.0
C3828 C 0.52129 0.78666 0.27244 0.0
C3829 C 0.52085 0.77441 0.26051 0.0
C3830 C 0.53521 0.76882 0.25341 0.0
C3831 C 0.53468 0.75655 0.24191 0.0
C3832 C 0.51976 0.74948 0.23695 0.0
C3833 C 0.51911 0.73683 0.22544 0.0
C3834 C 0.50407 0.73032 0.22049 0.0
C3835 C 0.48953 0.73592 0.22694 0.0
C3836 C 0.48994 0.74832 0.23875 0.0
C3837 C 0.47557 0.75399 0.24578 0.0
C3838 C 0.47611 0.76616 0.25741 0.0
C3839 C 0.49104 0.77306 0.26254 0.0
C3840 C 0.50567 0.76756 0.25558 0.0
C3841 C 0.50512 0.75514 0.24372 0.0
C3842 C 0.59763 0.71062 0.22235 0.0
C3843 C 0.58875 0.7018 0.20846 0.0
O3844 O 0.43779 0.81061 0.30771 0.0
O3845 O 0.42851 0.7089 0.20828 0.0
O3846 O 0.57784 0.71202 0.20098 0.0
O3847 O 0.58211 0.81383 0.29152 0.0
H3848 H 0.42845 0.8288 0.29356 0.0
H3849 H 0.4547 0.83912 0.3057 0.0
H3850 H 0.44659 0.83597 0.32584 0.0
H3851 H 0.43801 0.85096 0.31243 0.0
H3852 H 0.45137 0.82331 0.28036 0.0
H3853 H 0.45192 0.78414 0.31497 0.0
H3854 H 0.48895 0.81942 0.2643 0.0
H3855 H 0.46881 0.8248 0.25789 0.0
H3856 H 0.47744 0.80597 0.25146 0.0
H3857 H 0.47125 0.76359 0.31392 0.0
H3858 H 0.49066 0.77044 0.30577 0.0
H3859 H 0.477 0.7586 0.29343 0.0
H3860 H 0.59339 0.79186 0.2941 0.0
H3861 H 0.6171 0.80006 0.27701 0.0
H3862 H 0.60844 0.81975 0.27357 0.0
H3863 H 0.59808 0.80169 0.26634 0.0
H3864 H 0.56808 0.78731 0.30446 0.0
H3865 H 0.56251 0.82673 0.27092 0.0
H3866 H 0.53926 0.76107 0.28934 0.0
H3867 H 0.5273 0.77251 0.30313 0.0
H3868 H 0.54775 0.76711 0.30862 0.0
H3869 H 0.5397 0.82871 0.25372 0.0
H3870 H 0.52127 0.82126 0.26347 0.0
H3871 H 0.53058 0.80941 0.24806 0.0
H3872 H 0.5821 0.69089 0.21333 0.0
H3873 H 0.56219 0.70144 0.22811 0.0
H3874 H 0.56096 0.734 0.18722 0.0
H3875 H 0.53463 0.72002 0.25229 0.0
H3876 H 0.54176 0.70004 0.24782 0.0
H3877 H 0.52195 0.70618 0.24103 0.0
H3878 H 0.53985 0.75247 0.18341 0.0
H3879 H 0.53208 0.76001 0.20236 0.0
H3880 H 0.52043 0.74522 0.19122 0.0
H3881 H 0.41698 0.73078 0.20591 0.0
H3882 H 0.3948 0.723 0.22517 0.0
H3883 H 0.41462 0.72163 0.2343 0.0
H3884 H 0.40374 0.70339 0.2283 0.0
H3885 H 0.44837 0.69578 0.22851 0.0
H3886 H 0.44236 0.73552 0.19544 0.0
H3887 H 0.48074 0.71302 0.25108 0.0
H3888 H 0.48956 0.70097 0.23552 0.0
H3889 H 0.47124 0.69382 0.24564 0.0
H3890 H 0.46292 0.75545 0.19085 0.0
H3891 H 0.48338 0.75033 0.19661 0.0
H3892 H 0.47109 0.76166 0.21021 0.0
H3893 H 0.50726 0.80126 0.28847 0.0
H3894 H 0.54704 0.77381 0.25672 0.0
H3895 H 0.54613 0.75268 0.23694 0.0
H3896 H 0.50367 0.72066 0.21161 0.0
H3897 H 0.46373 0.74907 0.24241 0.0
H3898 H 0.46467 0.77006 0.26238 0.0
H3899 H 0.60658 0.70251 0.22812 0.0
H3900 H 0.58892 0.71428 0.23186 0.0
H3901 H 0.60414 0.7217 0.21772 0.0
C3902 C 0.59467 0.21904 0.30993 0.0
C3903 C 0.58543 0.20318 0.31418 0.0
C3904 C 0.56149 0.20468 0.29616 0.0
C3905 C 0.5547 0.19886 0.28172 0.0
C3906 C 0.5402 0.20505 0.27552 0.0
C3907 C 0.53227 0.21741 0.28404 0.0
C3908 C 0.53894 0.22327 0.29877 0.0
C3909 C 0.55347 0.21685 0.30471 0.0
C3910 C 0.53337 0.19844 0.25983 0.0
C3911 C 0.53072 0.23637 0.3082 0.0
C3912 C 0.40732 0.18381 0.3187 0.0
C3913 C 0.42268 0.19362 0.31654 0.0
C3914 C 0.44426 0.19848 0.29647 0.0
C3915 C 0.45101 0.21223 0.30421 0.0
C3916 C 0.46492 0.22028 0.2979 0.0
C3917 C 0.47223 0.21448 0.28358 0.0
C3918 C 0.46538 0.20075 0.27569 0.0
C3919 C 0.45144 0.19295 0.28223 0.0
C3920 C 0.47188 0.23494 0.30657 0.0
C3921 C 0.47288 0.19425 0.2604 0.0
C3922 C 0.442 0.29162 0.21081 0.0
C3923 C 0.44825 0.29811 0.22536 0.0
C3924 C 0.4628 0.2925 0.23204 0.0
C3925 C 0.47126 0.28012 0.22408 0.0
C3926 C 0.4651 0.27368 0.20938 0.0
C3927 C 0.45057 0.27956 0.20293 0.0
C3928 C 0.46914 0.29974 0.24766 0.0
C3929 C 0.47383 0.2605 0.20055 0.0
C3930 C 0.59852 0.29432 0.22574 0.0
C3931 C 0.59019 0.29486 0.20912 0.0
C3932 C 0.56132 0.29721 0.2146 0.0
C3933 C 0.55239 0.30488 0.22661 0.0
C3934 C 0.53754 0.29813 0.23222 0.0
C3935 C 0.53138 0.28355 0.22533 0.0
C3936 C 0.53997 0.27622 0.21254 0.0
C3937 C 0.55488 0.28313 0.20732 0.0
C3938 C 0.52859 0.30638 0.24573 0.0
C3939 C 0.53349 0.26097 0.20455 0.0
C3940 C 0.51693 0.2241 0.27759 0.0
C3941 C 0.50221 0.21702 0.28288 0.0
C3942 C 0.48731 0.22251 0.27716 0.0
C3943 C 0.48699 0.23537 0.26571 0.0
C3944 C 0.47223 0.24107 0.25954 0.0
C3945 C 0.47205 0.25368 0.2482 0.0
C3946 C 0.48662 0.26114 0.24265 0.0
C3947 C 0.48658 0.27394 0.23109 0.0
C3948 C 0.5013 0.28103 0.22581 0.0
C3949 C 0.51619 0.27572 0.23176 0.0
C3950 C 0.51648 0.26299 0.24337 0.0
C3951 C 0.53123 0.25741 0.24969 0.0
C3952 C 0.53142 0.2447 0.2609 0.0
C3953 C 0.51686 0.23713 0.26631 0.0
C3954 C 0.50183 0.24271 0.26028 0.0
C3955 C 0.50164 0.25564 0.24878 0.0
C3956 C 0.40669 0.29819 0.2239 0.0
C3957 C 0.41654 0.30686 0.21042 0.0
O3958 O 0.57574 0.19825 0.30124 0.0
O3959 O 0.57607 0.30365 0.21022 0.0
O3960 O 0.42781 0.29644 0.20398 0.0
O3961 O 0.43092 0.19022 0.30231 0.0
H3962 H 0.57769 0.20501 0.32508 0.0
H3963 H 0.60253 0.22291 0.32024 0.0
H3964 H 0.58607 0.22889 0.30739 0.0
H3965 H 0.6024 0.21745 0.299 0.0
H3966 H 0.56091 0.18945 0.27522 0.0
H3967 H 0.55842 0.22146 0.31597 0.0
H3968 H 0.52074 0.19372 0.26182 0.0
H3969 H 0.54078 0.18855 0.25486 0.0
H3970 H 0.53283 0.20834 0.25065 0.0
H3971 H 0.53765 0.23997 0.31923 0.0
H3972 H 0.51836 0.23205 0.31193 0.0
H3973 H 0.52926 0.24724 0.30034 0.0
H3974 H 0.43069 0.19404 0.32747 0.0
H3975 H 0.40942 0.17611 0.32982 0.0
H3976 H 0.40793 0.17336 0.30999 0.0
H3977 H 0.38901 0.20112 0.31758 0.0
H3978 H 0.44555 0.21672 0.3152 0.0
H3979 H 0.44614 0.18239 0.27631 0.0
H3980 H 0.4845 0.23254 0.31056 0.0
H3981 H 0.46456 0.23819 0.31736 0.0
H3982 H 0.47248 0.24549 0.29811 0.0
H3983 H 0.46597 0.18358 0.25559 0.0
H3984 H 0.48557 0.19069 0.26289 0.0
H3985 H 0.47339 0.20389 0.25091 0.0
H3986 H 0.42282 0.31777 0.21557 0.0
H3987 H 0.44189 0.30752 0.23163 0.0
H3988 H 0.44573 0.27465 0.19171 0.0
H3989 H 0.46967 0.29014 0.25716 0.0
H3990 H 0.46143 0.30962 0.25215 0.0
H3991 H 0.48172 0.30464 0.24581 0.0
H3992 H 0.46725 0.25648 0.18944 0.0
H3993 H 0.47528 0.24988 0.20874 0.0
H3994 H 0.4862 0.26497 0.19702 0.0
H3995 H 0.58732 0.28209 0.20568 0.0
H3996 H 0.61003 0.28759 0.22497 0.0
H3997 H 0.59041 0.28799 0.23468 0.0
H3998 H 0.60126 0.30677 0.23023 0.0
H3999 H 0.55736 0.31591 0.23195 0.0
H4000 H 0.56143 0.27757 0.19749 0.0
H4001 H 0.52677 0.29782 0.25609 0.0
H4002 H 0.51637 0.30987 0.24141 0.0
H4003 H 0.53522 0.31741 0.25011 0.0
H4004 H 0.54089 0.25755 0.19387 0.0
H4005 H 0.52073 0.26261 0.20058 0.0
H4006 H 0.53346 0.2508 0.21346 0.0
H4007 H 0.50236 0.20708 0.29159 0.0
H4008 H 0.46064 0.2358 0.26337 0.0
H4009 H 0.46033 0.25751 0.24383 0.0
H4010 H 0.50118 0.29076 0.21687 0.0
H4011 H 0.54282 0.26277 0.246 0.0
H4012 H 0.54313 0.24088 0.26528 0.0
H4013 H 0.3975 0.30641 0.22896 0.0
H4014 H 0.41477 0.29447 0.23398 0.0
H4015 H 0.40036 0.28716 0.2191 0.0
loop_
_geom_bond_atom_site_label_1
_geom_bond_atom_site_label_2
_geom_bond_distance
_geom_bond_site_symmetry_2
_ccdc_geom_bond_type
C0 C1 1.264 . S
C0 C5 1.479 . S
C0 C10 1.465 . S
C1 C0 1.264 . S
C1 C3 1.339 . S
C1 H28 0.931 . S
C2 C3 1.395 . S
C2 C4 1.320 . S
C3 C1 1.339 . S
C3 C2 1.395 . S
C3 H29 0.929 . S
C4 C2 1.320 . S
C4 C5 1.405 . S
C4 H30 0.930 . S
C5 C0 1.479 . S
C5 C4 1.405 . S
C5 H31 0.931 . S
U6 O7 2.454 . S
U6 O8 2.458 . S
U6 C9 2.984 . S
U6 C10 2.847 . S
U6 C23 2.882 . S
U6 O24 2.441 . S
U6 O25 2.420 . S
U6 O26 2.455 . S
U6 O27 2.449 . S
O7 U6 2.454 . S
O7 C9 1.353 . S
O8 U6 2.458 . S
O8 C9 1.286 . S
C9 U6 2.984 . S
C9 O7 1.353 . S
C9 O8 1.286 . S
C9 C11 1.363 . S
C10 C0 1.465 . S
C10 U6 2.847 . S
C10 O24 1.249 . S
C10 O25 1.202 . S
C11 C9 1.363 . S
C11 C13 1.408 . S
C11 C16 1.342 . S
C12 C13 1.310 . S
C12 C15 1.461 . S
C12 H32 0.932 . S
C13 C11 1.408 . S
C13 C12 1.310 . S
C13 H33 0.930 . S
C14 C15 1.474 . S
C14 C16 1.285 . S
C14 H34 0.929 . S
C15 C12 1.461 . S
C15 C14 1.474 . S
C16 C11 1.342 . S
C16 C14 1.285 . S
C16 H35 0.930 . S
C17 C20 1.424 . S
C17 C22 1.245 . S
C17 C23 1.428 . S
C18 C21 1.260 . S
C18 C22 1.477 . S
C18 H36 0.932 . S
C19 C20 1.384 . S
C19 C21 1.479 . S
C19 H37 0.929 . S
C20 C17 1.424 . S
C20 C19 1.384 . S
C20 H38 0.928 . S
C21 C18 1.260 . S
C21 C19 1.479 . S
C22 C17 1.245 . S
C22 C18 1.477 . S
C22 H39 0.932 . S
C23 U6 2.882 . S
C23 C17 1.428 . S
C23 O26 1.301 . S
C23 O27 1.282 . S
O24 U6 2.441 . S
O24 C10 1.249 . S
O25 U6 2.420 . S
O25 C10 1.202 . S
O26 U6 2.455 . S
O26 C23 1.301 . S
O27 U6 2.449 . S
O27 C23 1.282 . S
H28 C1 0.931 . S
H29 C3 0.929 . S
H30 C4 0.930 . S
H31 C5 0.931 . S
H32 C12 0.932 . S
H33 C13 0.930 . S
H34 C14 0.929 . S
H35 C16 0.930 . S
H36 C18 0.932 . S
H37 C19 0.929 . S
H38 C20 0.928 . S
H39 C22 0.932 . S
C40 C41 1.264 . S
C40 C45 1.479 . S
C40 C50 1.465 . S
C41 C40 1.264 . S
C41 C43 1.339 . S
C41 H68 0.931 . S
C42 C43 1.395 . S
C42 C44 1.320 . S
C43 C41 1.339 . S
C43 C42 1.395 . S
C43 H69 0.929 . S
C44 C42 1.320 . S
C44 C45 1.405 . S
C44 H70 0.930 . S
C45 C40 1.479 . S
C45 C44 1.405 . S
C45 H71 0.931 . S
U46 O47 2.454 . S
U46 O48 2.458 . S
U46 C49 2.984 . S
U46 C50 2.847 . S
U46 C63 2.882 . S
U46 O64 2.441 . S
U46 O65 2.420 . S
U46 O66 2.455 . S
U46 O67 2.449 . S
O47 U46 2.454 . S
O47 C49 1.353 . S
O48 U46 2.458 . S
O48 C49 1.286 . S
C49 U46 2.984 . S
C49 O47 1.353 . S
C49 O48 1.286 . S
C49 C51 1.363 . S
C50 C40 1.465 . S
C50 U46 2.847 . S
C50 O64 1.249 . S
C50 O65 1.202 . S
C51 C49 1.363 . S
C51 C53 1.408 . S
C51 C56 1.342 . S
C52 C53 1.310 . S
C52 C55 1.461 . S
C52 H72 0.932 . S
C53 C51 1.408 . S
C53 C52 1.310 . S
C53 H73 0.930 . S
C54 C55 1.474 . S
C54 C56 1.285 . S
C54 H74 0.929 . S
C55 C52 1.461 . S
C55 C54 1.474 . S
C56 C51 1.342 . S
C56 C54 1.285 . S
C56 H75 0.930 . S
C57 C60 1.424 . S
C57 C62 1.245 . S
C57 C63 1.428 . S
C58 C61 1.260 . S
C58 C62 1.477 . S
C58 H76 0.932 . S
C59 C60 1.384 . S
C59 C61 1.479 . S
C59 H77 0.929 . S
C60 C57 1.424 . S
C60 C59 1.384 . S
C60 H78 0.928 . S
C61 C58 1.260 . S
C61 C59 1.479 . S
C62 C57 1.245 . S
C62 C58 1.477 . S
C62 H79 0.932 . S
C63 U46 2.882 . S
C63 C57 1.428 . S
C63 O66 1.301 . S
C63 O67 1.282 . S
O64 U46 2.441 . S
O64 C50 1.249 . S
O65 U46 2.420 . S
O65 C50 1.202 . S
O66 U46 2.455 . S
O66 C63 1.301 . S
O67 U46 2.449 . S
O67 C63 1.282 . S
H68 C41 0.931 . S
H69 C43 0.929 . S
H70 C44 0.930 . S
H71 C45 0.931 . S
H72 C52 0.932 . S
H73 C53 0.930 . S
H74 C54 0.929 . S
H75 C56 0.930 . S
H76 C58 0.932 . S
H77 C59 0.929 . S
H78 C60 0.928 . S
H79 C62 0.932 . S
C80 C81 1.264 . S
C80 C85 1.479 . S
C80 C90 1.465 . S
C81 C80 1.264 . S
C81 C83 1.339 . S
C81 H108 0.931 . S
C82 C83 1.395 . S
C82 C84 1.320 . S
C83 C81 1.339 . S
C83 C82 1.395 . S
C83 H109 0.929 . S
C84 C82 1.320 . S
C84 C85 1.405 . S
C84 H110 0.930 . S
C85 C80 1.479 . S
C85 C84 1.405 . S
C85 H111 0.931 . S
U86 O87 2.454 . S
U86 O88 2.458 . S
U86 C89 2.984 . S
U86 C90 2.847 . S
U86 C103 2.882 . S
U86 O104 2.441 . S
U86 O105 2.420 . S
U86 O106 2.455 . S
U86 O107 2.449 . S
O87 U86 2.454 . S
O87 C89 1.353 . S
O88 U86 2.458 . S
O88 C89 1.286 . S
C89 U86 2.984 . S
C89 O87 1.353 . S
C89 O88 1.286 . S
C89 C91 1.363 . S
C90 C80 1.465 . S
C90 U86 2.847 . S
C90 O104 1.249 . S
C90 O105 1.202 . S
C91 C89 1.363 . S
C91 C93 1.408 . S
C91 C96 1.342 . S
C92 C93 1.310 . S
C92 C95 1.461 . S
C92 H112 0.932 . S
C93 C91 1.408 . S
C93 C92 1.310 . S
C93 H113 0.930 . S
C94 C95 1.474 . S
C94 C96 1.285 . S
C94 H114 0.929 . S
C95 C92 1.461 . S
C95 C94 1.474 . S
C96 C91 1.342 . S
C96 C94 1.285 . S
C96 H115 0.930 . S
C97 C100 1.424 . S
C97 C102 1.245 . S
C97 C103 1.428 . S
C98 C101 1.260 . S
C98 C102 1.477 . S
C98 H116 0.932 . S
C99 C100 1.384 . S
C99 C101 1.479 . S
C99 H117 0.929 . S
C100 C97 1.424 . S
C100 C99 1.384 . S
C100 H118 0.928 . S
C101 C98 1.260 . S
C101 C99 1.479 . S
C102 C97 1.245 . S
C102 C98 1.477 . S
C102 H119 0.932 . S
C103 U86 2.882 . S
C103 C97 1.428 . S
C103 O106 1.301 . S
C103 O107 1.282 . S
O104 U86 2.441 . S
O104 C90 1.249 . S
O105 U86 2.420 . S
O105 C90 1.202 . S
O106 U86 2.455 . S
O106 C103 1.301 . S
O107 U86 2.449 . S
O107 C103 1.282 . S
H108 C81 0.931 . S
H109 C83 0.929 . S
H110 C84 0.930 . S
H111 C85 0.931 . S
H112 C92 0.932 . S
H113 C93 0.930 . S
H114 C94 0.929 . S
H115 C96 0.930 . S
H116 C98 0.932 . S
H117 C99 0.929 . S
H118 C100 0.928 . S
H119 C102 0.932 . S
C120 C121 1.264 . S
C120 C125 1.479 . S
C120 C130 1.465 . S
C121 C120 1.264 . S
C121 C123 1.339 . S
C121 H148 0.931 . S
C122 C123 1.395 . S
C122 C124 1.320 . S
C123 C121 1.339 . S
C123 C122 1.395 . S
C123 H149 0.929 . S
C124 C122 1.320 . S
C124 C125 1.405 . S
C124 H150 0.930 . S
C125 C120 1.479 . S
C125 C124 1.405 . S
C125 H151 0.931 . S
U126 O127 2.454 . S
U126 O128 2.458 . S
U126 C129 2.984 . S
U126 C130 2.847 . S
U126 C143 2.882 . S
U126 O144 2.441 . S
U126 O145 2.420 . S
U126 O146 2.455 . S
U126 O147 2.449 . S
O127 U126 2.454 . S
O127 C129 1.353 . S
O128 U126 2.458 . S
O128 C129 1.286 . S
C129 U126 2.984 . S
C129 O127 1.353 . S
C129 O128 1.286 . S
C129 C131 1.363 . S
C130 C120 1.465 . S
C130 U126 2.847 . S
C130 O144 1.249 . S
C130 O145 1.202 . S
C131 C129 1.363 . S
C131 C133 1.408 . S
C131 C136 1.342 . S
C132 C133 1.310 . S
C132 C135 1.461 . S
C132 H152 0.932 . S
C133 C131 1.408 . S
C133 C132 1.310 . S
C133 H153 0.930 . S
C134 C135 1.474 . S
C134 C136 1.285 . S
C134 H154 0.929 . S
C135 C132 1.461 . S
C135 C134 1.474 . S
C136 C131 1.342 . S
C136 C134 1.285 . S
C136 H155 0.930 . S
C137 C140 1.424 . S
C137 C142 1.245 . S
C137 C143 1.428 . S
C138 C141 1.260 . S
C138 C142 1.477 . S
C138 H156 0.932 . S
C139 C140 1.384 . S
C139 C141 1.479 . S
C139 H157 0.929 . S
C140 C137 1.424 . S
C140 C139 1.384 . S
C140 H158 0.928 . S
C141 C138 1.260 . S
C141 C139 1.479 . S
C142 C137 1.245 . S
C142 C138 1.477 . S
C142 H159 0.932 . S
C143 U126 2.882 . S
C143 C137 1.428 . S
C143 O146 1.301 . S
C143 O147 1.282 . S
O144 U126 2.441 . S
O144 C130 1.249 . S
O145 U126 2.420 . S
O145 C130 1.202 . S
O146 U126 2.455 . S
O146 C143 1.301 . S
O147 U126 2.449 . S
O147 C143 1.282 . S
H148 C121 0.931 . S
H149 C123 0.929 . S
H150 C124 0.930 . S
H151 C125 0.931 . S
H152 C132 0.932 . S
H153 C133 0.930 . S
H154 C134 0.929 . S
H155 C136 0.930 . S
H156 C138 0.932 . S
H157 C139 0.929 . S
H158 C140 0.928 . S
H159 C142 0.932 . S
C160 C161 1.264 . S
C160 C165 1.479 . S
C160 C170 1.465 . S
C161 C160 1.264 . S
C161 C163 1.339 . S
C161 H188 0.931 . S
C162 C163 1.395 . S
C162 C164 1.320 . S
C163 C161 1.339 . S
C163 C162 1.395 . S
C163 H189 0.929 . S
C164 C162 1.320 . S
C164 C165 1.405 . S
C164 H190 0.930 . S
C165 C160 1.479 . S
C165 C164 1.405 . S
C165 H191 0.931 . S
U166 O167 2.454 . S
U166 O168 2.458 . S
U166 C169 2.984 . S
U166 C170 2.847 . S
U166 C183 2.882 . S
U166 O184 2.441 . S
U166 O185 2.420 . S
U166 O186 2.455 . S
U166 O187 2.449 . S
O167 U166 2.454 . S
O167 C169 1.353 . S
O168 U166 2.458 . S
O168 C169 1.286 . S
C169 U166 2.984 . S
C169 O167 1.353 . S
C169 O168 1.286 . S
C169 C171 1.363 . S
C170 C160 1.465 . S
C170 U166 2.847 . S
C170 O184 1.249 . S
C170 O185 1.202 . S
C171 C169 1.363 . S
C171 C173 1.408 . S
C171 C176 1.342 . S
C172 C173 1.310 . S
C172 C175 1.461 . S
C172 H192 0.932 . S
C173 C171 1.408 . S
C173 C172 1.310 . S
C173 H193 0.930 . S
C174 C175 1.474 . S
C174 C176 1.285 . S
C174 H194 0.929 . S
C175 C172 1.461 . S
C175 C174 1.474 . S
C176 C171 1.342 . S
C176 C174 1.285 . S
C176 H195 0.930 . S
C177 C180 1.424 . S
C177 C182 1.245 . S
C177 C183 1.428 . S
C178 C181 1.260 . S
C178 C182 1.477 . S
C178 H196 0.932 . S
C179 C180 1.384 . S
C179 C181 1.479 . S
C179 H197 0.929 . S
C180 C177 1.424 . S
C180 C179 1.384 . S
C180 H198 0.928 . S
C181 C178 1.260 . S
C181 C179 1.479 . S
C182 C177 1.245 . S
C182 C178 1.477 . S
C182 H199 0.932 . S
C183 U166 2.882 . S
C183 C177 1.428 . S
C183 O186 1.301 . S
C183 O187 1.282 . S
O184 U166 2.441 . S
O184 C170 1.249 . S
O185 U166 2.420 . S
O185 C170 1.202 . S
O186 U166 2.455 . S
O186 C183 1.301 . S
O187 U166 2.449 . S
O187 C183 1.282 . S
H188 C161 0.931 . S
H189 C163 0.929 . S
H190 C164 0.930 . S
H191 C165 0.931 . S
H192 C172 0.932 . S
H193 C173 0.930 . S
H194 C174 0.929 . S
H195 C176 0.930 . S
H196 C178 0.932 . S
H197 C179 0.929 . S
H198 C180 0.928 . S
H199 C182 0.932 . S
C200 C201 1.264 . S
C200 C205 1.479 . S
C200 C210 1.465 . S
C201 C200 1.264 . S
C201 C203 1.339 . S
C201 H228 0.931 . S
C202 C203 1.395 . S
C202 C204 1.320 . S
C203 C201 1.339 . S
C203 C202 1.395 . S
C203 H229 0.929 . S
C204 C202 1.320 . S
C204 C205 1.405 . S
C204 H230 0.930 . S
C205 C200 1.479 . S
C205 C204 1.405 . S
C205 H231 0.931 . S
U206 O207 2.454 . S
U206 O208 2.458 . S
U206 C209 2.984 . S
U206 C210 2.847 . S
U206 C223 2.882 . S
U206 O224 2.441 . S
U206 O225 2.420 . S
U206 O226 2.455 . S
U206 O227 2.449 . S
O207 U206 2.454 . S
O207 C209 1.353 . S
O208 U206 2.458 . S
O208 C209 1.286 . S
C209 U206 2.984 . S
C209 O207 1.353 . S
C209 O208 1.286 . S
C209 C211 1.363 . S
C210 C200 1.465 . S
C210 U206 2.847 . S
C210 O224 1.249 . S
C210 O225 1.202 . S
C211 C209 1.363 . S
C211 C213 1.408 . S
C211 C216 1.342 . S
C212 C213 1.310 . S
C212 C215 1.461 . S
C212 H232 0.932 . S
C213 C211 1.408 . S
C213 C212 1.310 . S
C213 H233 0.930 . S
C214 C215 1.474 . S
C214 C216 1.285 . S
C214 H234 0.929 . S
C215 C212 1.461 . S
C215 C214 1.474 . S
C216 C211 1.342 . S
C216 C214 1.285 . S
C216 H235 0.930 . S
C217 C220 1.424 . S
C217 C222 1.245 . S
C217 C223 1.428 . S
C218 C221 1.260 . S
C218 C222 1.477 . S
C218 H236 0.932 . S
C219 C220 1.384 . S
C219 C221 1.479 . S
C219 H237 0.929 . S
C220 C217 1.424 . S
C220 C219 1.384 . S
C220 H238 0.928 . S
C221 C218 1.260 . S
C221 C219 1.479 . S
C222 C217 1.245 . S
C222 C218 1.477 . S
C222 H239 0.932 . S
C223 U206 2.882 . S
C223 C217 1.428 . S
C223 O226 1.301 . S
C223 O227 1.282 . S
O224 U206 2.441 . S
O224 C210 1.249 . S
O225 U206 2.420 . S
O225 C210 1.202 . S
O226 U206 2.455 . S
O226 C223 1.301 . S
O227 U206 2.449 . S
O227 C223 1.282 . S
H228 C201 0.931 . S
H229 C203 0.929 . S
H230 C204 0.930 . S
H231 C205 0.931 . S
H232 C212 0.932 . S
H233 C213 0.930 . S
H234 C214 0.929 . S
H235 C216 0.930 . S
H236 C218 0.932 . S
H237 C219 0.929 . S
H238 C220 0.928 . S
H239 C222 0.932 . S
C240 C241 1.264 . S
C240 C245 1.479 . S
C240 C250 1.465 . S
C241 C240 1.264 . S
C241 C243 1.339 . S
C241 H268 0.931 . S
C242 C243 1.395 . S
C242 C244 1.320 . S
C243 C241 1.339 . S
C243 C242 1.395 . S
C243 H269 0.929 . S
C244 C242 1.320 . S
C244 C245 1.405 . S
C244 H270 0.930 . S
C245 C240 1.479 . S
C245 C244 1.405 . S
C245 H271 0.931 . S
U246 O247 2.454 . S
U246 O248 2.458 . S
U246 C249 2.984 . S
U246 C250 2.847 . S
U246 C263 2.882 . S
U246 O264 2.441 . S
U246 O265 2.420 . S
U246 O266 2.455 . S
U246 O267 2.449 . S
O247 U246 2.454 . S
O247 C249 1.353 . S
O248 U246 2.458 . S
O248 C249 1.286 . S
C249 U246 2.984 . S
C249 O247 1.353 . S
C249 O248 1.286 . S
C249 C251 1.363 . S
C250 C240 1.465 . S
C250 U246 2.847 . S
C250 O264 1.249 . S
C250 O265 1.202 . S
C251 C249 1.363 . S
C251 C253 1.408 . S
C251 C256 1.342 . S
C252 C253 1.310 . S
C252 C255 1.461 . S
C252 H272 0.932 . S
C253 C251 1.408 . S
C253 C252 1.310 . S
C253 H273 0.930 . S
C254 C255 1.474 . S
C254 C256 1.285 . S
C254 H274 0.929 . S
C255 C252 1.461 . S
C255 C254 1.474 . S
C256 C251 1.342 . S
C256 C254 1.285 . S
C256 H275 0.930 . S
C257 C260 1.424 . S
C257 C262 1.245 . S
C257 C263 1.428 . S
C258 C261 1.260 . S
C258 C262 1.477 . S
C258 H276 0.932 . S
C259 C260 1.384 . S
C259 C261 1.479 . S
C259 H277 0.929 . S
C260 C257 1.424 . S
C260 C259 1.384 . S
C260 H278 0.928 . S
C261 C258 1.260 . S
C261 C259 1.479 . S
C262 C257 1.245 . S
C262 C258 1.477 . S
C262 H279 0.932 . S
C263 U246 2.882 . S
C263 C257 1.428 . S
C263 O266 1.301 . S
C263 O267 1.282 . S
O264 U246 2.441 . S
O264 C250 1.249 . S
O265 U246 2.420 . S
O265 C250 1.202 . S
O266 U246 2.455 . S
O266 C263 1.301 . S
O267 U246 2.449 . S
O267 C263 1.282 . S
H268 C241 0.931 . S
H269 C243 0.929 . S
H270 C244 0.930 . S
H271 C245 0.931 . S
H272 C252 0.932 . S
H273 C253 0.930 . S
H274 C254 0.929 . S
H275 C256 0.930 . S
H276 C258 0.932 . S
H277 C259 0.929 . S
H278 C260 0.928 . S
H279 C262 0.932 . S
C280 C281 1.264 . S
C280 C285 1.479 . S
C280 C290 1.465 . S
C281 C280 1.264 . S
C281 C283 1.339 . S
C281 H308 0.931 . S
C282 C283 1.395 . S
C282 C284 1.320 . S
C283 C281 1.339 . S
C283 C282 1.395 . S
C283 H309 0.929 . S
C284 C282 1.320 . S
C284 C285 1.405 . S
C284 H310 0.930 . S
C285 C280 1.479 . S
C285 C284 1.405 . S
C285 H311 0.931 . S
U286 O287 2.454 . S
U286 O288 2.458 . S
U286 C289 2.984 . S
U286 C290 2.847 . S
U286 C303 2.882 . S
U286 O304 2.441 . S
U286 O305 2.420 . S
U286 O306 2.455 . S
U286 O307 2.449 . S
O287 U286 2.454 . S
O287 C289 1.353 . S
O288 U286 2.458 . S
O288 C289 1.286 . S
C289 U286 2.984 . S
C289 O287 1.353 . S
C289 O288 1.286 . S
C289 C291 1.363 . S
C290 C280 1.465 . S
C290 U286 2.847 . S
C290 O304 1.249 . S
C290 O305 1.202 . S
C291 C289 1.363 . S
C291 C293 1.408 . S
C291 C296 1.342 . S
C292 C293 1.310 . S
C292 C295 1.461 . S
C292 H312 0.932 . S
C293 C291 1.408 . S
C293 C292 1.310 . S
C293 H313 0.930 . S
C294 C295 1.474 . S
C294 C296 1.285 . S
C294 H314 0.929 . S
C295 C292 1.461 . S
C295 C294 1.474 . S
C296 C291 1.342 . S
C296 C294 1.285 . S
C296 H315 0.930 . S
C297 C300 1.424 . S
C297 C302 1.245 . S
C297 C303 1.428 . S
C298 C301 1.260 . S
C298 C302 1.477 . S
C298 H316 0.932 . S
C299 C300 1.384 . S
C299 C301 1.479 . S
C299 H317 0.929 . S
C300 C297 1.424 . S
C300 C299 1.384 . S
C300 H318 0.928 . S
C301 C298 1.260 . S
C301 C299 1.479 . S
C302 C297 1.245 . S
C302 C298 1.477 . S
C302 H319 0.932 . S
C303 U286 2.882 . S
C303 C297 1.428 . S
C303 O306 1.301 . S
C303 O307 1.282 . S
O304 U286 2.441 . S
O304 C290 1.249 . S
O305 U286 2.420 . S
O305 C290 1.202 . S
O306 U286 2.455 . S
O306 C303 1.301 . S
O307 U286 2.449 . S
O307 C303 1.282 . S
H308 C281 0.931 . S
H309 C283 0.929 . S
H310 C284 0.930 . S
H311 C285 0.931 . S
H312 C292 0.932 . S
H313 C293 0.930 . S
H314 C294 0.929 . S
H315 C296 0.930 . S
H316 C298 0.932 . S
H317 C299 0.929 . S
H318 C300 0.928 . S
H319 C302 0.932 . S
C320 C321 1.264 . S
C320 C325 1.479 . S
C320 C330 1.465 . S
C321 C320 1.264 . S
C321 C323 1.339 . S
C321 H348 0.931 . S
C322 C323 1.395 . S
C322 C324 1.320 . S
C323 C321 1.339 . S
C323 C322 1.395 . S
C323 H349 0.929 . S
C324 C322 1.320 . S
C324 C325 1.405 . S
C324 H350 0.930 . S
C325 C320 1.479 . S
C325 C324 1.405 . S
C325 H351 0.931 . S
U326 O327 2.454 . S
U326 O328 2.458 . S
U326 C329 2.984 . S
U326 C330 2.847 . S
U326 C343 2.882 . S
U326 O344 2.441 . S
U326 O345 2.420 . S
U326 O346 2.455 . S
U326 O347 2.449 . S
O327 U326 2.454 . S
O327 C329 1.353 . S
O328 U326 2.458 . S
O328 C329 1.286 . S
C329 U326 2.984 . S
C329 O327 1.353 . S
C329 O328 1.286 . S
C329 C331 1.363 . S
C330 C320 1.465 . S
C330 U326 2.847 . S
C330 O344 1.249 . S
C330 O345 1.202 . S
C331 C329 1.363 . S
C331 C333 1.408 . S
C331 C336 1.342 . S
C332 C333 1.310 . S
C332 C335 1.461 . S
C332 H352 0.932 . S
C333 C331 1.408 . S
C333 C332 1.310 . S
C333 H353 0.930 . S
C334 C335 1.474 . S
C334 C336 1.285 . S
C334 H354 0.929 . S
C335 C332 1.461 . S
C335 C334 1.474 . S
C336 C331 1.342 . S
C336 C334 1.285 . S
C336 H355 0.930 . S
C337 C340 1.424 . S
C337 C342 1.245 . S
C337 C343 1.428 . S
C338 C341 1.260 . S
C338 C342 1.477 . S
C338 H356 0.932 . S
C339 C340 1.384 . S
C339 C341 1.479 . S
C339 H357 0.929 . S
C340 C337 1.424 . S
C340 C339 1.384 . S
C340 H358 0.928 . S
C341 C338 1.260 . S
C341 C339 1.479 . S
C342 C337 1.245 . S
C342 C338 1.477 . S
C342 H359 0.932 . S
C343 U326 2.882 . S
C343 C337 1.428 . S
C343 O346 1.301 . S
C343 O347 1.282 . S
O344 U326 2.441 . S
O344 C330 1.249 . S
O345 U326 2.420 . S
O345 C330 1.202 . S
O346 U326 2.455 . S
O346 C343 1.301 . S
O347 U326 2.449 . S
O347 C343 1.282 . S
H348 C321 0.931 . S
H349 C323 0.929 . S
H350 C324 0.930 . S
H351 C325 0.931 . S
H352 C332 0.932 . S
H353 C333 0.930 . S
H354 C334 0.929 . S
H355 C336 0.930 . S
H356 C338 0.932 . S
H357 C339 0.929 . S
H358 C340 0.928 . S
H359 C342 0.932 . S
C360 C361 1.264 . S
C360 C365 1.479 . S
C360 C370 1.465 . S
C361 C360 1.264 . S
C361 C363 1.339 . S
C361 H388 0.931 . S
C362 C363 1.395 . S
C362 C364 1.320 . S
C363 C361 1.339 . S
C363 C362 1.395 . S
C363 H389 0.929 . S
C364 C362 1.320 . S
C364 C365 1.405 . S
C364 H390 0.930 . S
C365 C360 1.479 . S
C365 C364 1.405 . S
C365 H391 0.931 . S
U366 O367 2.454 . S
U366 O368 2.458 . S
U366 C369 2.984 . S
U366 C370 2.847 . S
U366 C383 2.882 . S
U366 O384 2.441 . S
U366 O385 2.420 . S
U366 O386 2.455 . S
U366 O387 2.449 . S
O367 U366 2.454 . S
O367 C369 1.353 . S
O368 U366 2.458 . S
O368 C369 1.286 . S
C369 U366 2.984 . S
C369 O367 1.353 . S
C369 O368 1.286 . S
C369 C371 1.363 . S
C370 C360 1.465 . S
C370 U366 2.847 . S
C370 O384 1.249 . S
C370 O385 1.202 . S
C371 C369 1.363 . S
C371 C373 1.408 . S
C371 C376 1.342 . S
C372 C373 1.310 . S
C372 C375 1.461 . S
C372 H392 0.932 . S
C373 C371 1.408 . S
C373 C372 1.310 . S
C373 H393 0.930 . S
C374 C375 1.474 . S
C374 C376 1.285 . S
C374 H394 0.929 . S
C375 C372 1.461 . S
C375 C374 1.474 . S
C376 C371 1.342 . S
C376 C374 1.285 . S
C376 H395 0.930 . S
C377 C380 1.424 . S
C377 C382 1.245 . S
C377 C383 1.428 . S
C378 C381 1.260 . S
C378 C382 1.477 . S
C378 H396 0.932 . S
C379 C380 1.384 . S
C379 C381 1.479 . S
C379 H397 0.929 . S
C380 C377 1.424 . S
C380 C379 1.384 . S
C380 H398 0.928 . S
C381 C378 1.260 . S
C381 C379 1.479 . S
C382 C377 1.245 . S
C382 C378 1.477 . S
C382 H399 0.932 . S
C383 U366 2.882 . S
C383 C377 1.428 . S
C383 O386 1.301 . S
C383 O387 1.282 . S
O384 U366 2.441 . S
O384 C370 1.249 . S
O385 U366 2.420 . S
O385 C370 1.202 . S
O386 U366 2.455 . S
O386 C383 1.301 . S
O387 U366 2.449 . S
O387 C383 1.282 . S
H388 C361 0.931 . S
H389 C363 0.929 . S
H390 C364 0.930 . S
H391 C365 0.931 . S
H392 C372 0.932 . S
H393 C373 0.930 . S
H394 C374 0.929 . S
H395 C376 0.930 . S
H396 C378 0.932 . S
H397 C379 0.929 . S
H398 C380 0.928 . S
H399 C382 0.932 . S
C400 C401 1.264 . S
C400 C405 1.479 . S
C400 C410 1.465 . S
C401 C400 1.264 . S
C401 C403 1.339 . S
C401 H428 0.931 . S
C402 C403 1.395 . S
C402 C404 1.320 . S
C403 C401 1.339 . S
C403 C402 1.395 . S
C403 H429 0.929 . S
C404 C402 1.320 . S
C404 C405 1.405 . S
C404 H430 0.930 . S
C405 C400 1.479 . S
C405 C404 1.405 . S
C405 H431 0.931 . S
U406 O407 2.454 . S
U406 O408 2.458 . S
U406 C409 2.984 . S
U406 C410 2.847 . S
U406 C423 2.882 . S
U406 O424 2.441 . S
U406 O425 2.420 . S
U406 O426 2.455 . S
U406 O427 2.449 . S
O407 U406 2.454 . S
O407 C409 1.353 . S
O408 U406 2.458 . S
O408 C409 1.286 . S
C409 U406 2.984 . S
C409 O407 1.353 . S
C409 O408 1.286 . S
C409 C411 1.363 . S
C410 C400 1.465 . S
C410 U406 2.847 . S
C410 O424 1.249 . S
C410 O425 1.202 . S
C411 C409 1.363 . S
C411 C413 1.408 . S
C411 C416 1.342 . S
C412 C413 1.310 . S
C412 C415 1.461 . S
C412 H432 0.932 . S
C413 C411 1.408 . S
C413 C412 1.310 . S
C413 H433 0.930 . S
C414 C415 1.474 . S
C414 C416 1.285 . S
C414 H434 0.929 . S
C415 C412 1.461 . S
C415 C414 1.474 . S
C416 C411 1.342 . S
C416 C414 1.285 . S
C416 H435 0.930 . S
C417 C420 1.424 . S
C417 C422 1.245 . S
C417 C423 1.428 . S
C418 C421 1.260 . S
C418 C422 1.477 . S
C418 H436 0.932 . S
C419 C420 1.384 . S
C419 C421 1.479 . S
C419 H437 0.929 . S
C420 C417 1.424 . S
C420 C419 1.384 . S
C420 H438 0.928 . S
C421 C418 1.260 . S
C421 C419 1.479 . S
C422 C417 1.245 . S
C422 C418 1.477 . S
C422 H439 0.932 . S
C423 U406 2.882 . S
C423 C417 1.428 . S
C423 O426 1.301 . S
C423 O427 1.282 . S
O424 U406 2.441 . S
O424 C410 1.249 . S
O425 U406 2.420 . S
O425 C410 1.202 . S
O426 U406 2.455 . S
O426 C423 1.301 . S
O427 U406 2.449 . S
O427 C423 1.282 . S
H428 C401 0.931 . S
H429 C403 0.929 . S
H430 C404 0.930 . S
H431 C405 0.931 . S
H432 C412 0.932 . S
H433 C413 0.930 . S
H434 C414 0.929 . S
H435 C416 0.930 . S
H436 C418 0.932 . S
H437 C419 0.929 . S
H438 C420 0.928 . S
H439 C422 0.932 . S
C440 C441 1.264 . S
C440 C445 1.479 . S
C440 C450 1.465 . S
C441 C440 1.264 . S
C441 C443 1.339 . S
C441 H468 0.931 . S
C442 C443 1.395 . S
C442 C444 1.320 . S
C443 C441 1.339 . S
C443 C442 1.395 . S
C443 H469 0.929 . S
C444 C442 1.320 . S
C444 C445 1.405 . S
C444 H470 0.930 . S
C445 C440 1.479 . S
C445 C444 1.405 . S
C445 H471 0.931 . S
U446 O447 2.454 . S
U446 O448 2.458 . S
U446 C449 2.984 . S
U446 C450 2.847 . S
U446 C463 2.882 . S
U446 O464 2.441 . S
U446 O465 2.420 . S
U446 O466 2.455 . S
U446 O467 2.449 . S
O447 U446 2.454 . S
O447 C449 1.353 . S
O448 U446 2.458 . S
O448 C449 1.286 . S
C449 U446 2.984 . S
C449 O447 1.353 . S
C449 O448 1.286 . S
C449 C451 1.363 . S
C450 C440 1.465 . S
C450 U446 2.847 . S
C450 O464 1.249 . S
C450 O465 1.202 . S
C451 C449 1.363 . S
C451 C453 1.408 . S
C451 C456 1.342 . S
C452 C453 1.310 . S
C452 C455 1.461 . S
C452 H472 0.932 . S
C453 C451 1.408 . S
C453 C452 1.310 . S
C453 H473 0.930 . S
C454 C455 1.474 . S
C454 C456 1.285 . S
C454 H474 0.929 . S
C455 C452 1.461 . S
C455 C454 1.474 . S
C456 C451 1.342 . S
C456 C454 1.285 . S
C456 H475 0.930 . S
C457 C460 1.424 . S
C457 C462 1.245 . S
C457 C463 1.428 . S
C458 C461 1.260 . S
C458 C462 1.477 . S
C458 H476 0.932 . S
C459 C460 1.384 . S
C459 C461 1.479 . S
C459 H477 0.929 . S
C460 C457 1.424 . S
C460 C459 1.384 . S
C460 H478 0.928 . S
C461 C458 1.260 . S
C461 C459 1.479 . S
C462 C457 1.245 . S
C462 C458 1.477 . S
C462 H479 0.932 . S
C463 U446 2.882 . S
C463 C457 1.428 . S
C463 O466 1.301 . S
C463 O467 1.282 . S
O464 U446 2.441 . S
O464 C450 1.249 . S
O465 U446 2.420 . S
O465 C450 1.202 . S
O466 U446 2.455 . S
O466 C463 1.301 . S
O467 U446 2.449 . S
O467 C463 1.282 . S
H468 C441 0.931 . S
H469 C443 0.929 . S
H470 C444 0.930 . S
H471 C445 0.931 . S
H472 C452 0.932 . S
H473 C453 0.930 . S
H474 C454 0.929 . S
H475 C456 0.930 . S
H476 C458 0.932 . S
H477 C459 0.929 . S
H478 C460 0.928 . S
H479 C462 0.932 . S
C480 C481 1.264 . S
C480 C485 1.479 . S
C480 C490 1.465 . S
C481 C480 1.264 . S
C481 C483 1.339 . S
C481 H508 0.931 . S
C482 C483 1.395 . S
C482 C484 1.320 . S
C483 C481 1.339 . S
C483 C482 1.395 . S
C483 H509 0.929 . S
C484 C482 1.320 . S
C484 C485 1.405 . S
C484 H510 0.930 . S
C485 C480 1.479 . S
C485 C484 1.405 . S
C485 H511 0.931 . S
U486 O487 2.454 . S
U486 O488 2.458 . S
U486 C489 2.984 . S
U486 C490 2.847 . S
U486 C503 2.882 . S
U486 O504 2.441 . S
U486 O505 2.420 . S
U486 O506 2.455 . S
U486 O507 2.449 . S
O487 U486 2.454 . S
O487 C489 1.353 . S
O488 U486 2.458 . S
O488 C489 1.286 . S
C489 U486 2.984 . S
C489 O487 1.353 . S
C489 O488 1.286 . S
C489 C491 1.363 . S
C490 C480 1.465 . S
C490 U486 2.847 . S
C490 O504 1.249 . S
C490 O505 1.202 . S
C491 C489 1.363 . S
C491 C493 1.408 . S
C491 C496 1.342 . S
C492 C493 1.310 . S
C492 C495 1.461 . S
C492 H512 0.932 . S
C493 C491 1.408 . S
C493 C492 1.310 . S
C493 H513 0.930 . S
C494 C495 1.474 . S
C494 C496 1.285 . S
C494 H514 0.929 . S
C495 C492 1.461 . S
C495 C494 1.474 . S
C496 C491 1.342 . S
C496 C494 1.285 . S
C496 H515 0.930 . S
C497 C500 1.424 . S
C497 C502 1.245 . S
C497 C503 1.428 . S
C498 C501 1.260 . S
C498 C502 1.477 . S
C498 H516 0.932 . S
C499 C500 1.384 . S
C499 C501 1.479 . S
C499 H517 0.929 . S
C500 C497 1.424 . S
C500 C499 1.384 . S
C500 H518 0.928 . S
C501 C498 1.260 . S
C501 C499 1.479 . S
C502 C497 1.245 . S
C502 C498 1.477 . S
C502 H519 0.932 . S
C503 U486 2.882 . S
C503 C497 1.428 . S
C503 O506 1.301 . S
C503 O507 1.282 . S
O504 U486 2.441 . S
O504 C490 1.249 . S
O505 U486 2.420 . S
O505 C490 1.202 . S
O506 U486 2.455 . S
O506 C503 1.301 . S
O507 U486 2.449 . S
O507 C503 1.282 . S
H508 C481 0.931 . S
H509 C483 0.929 . S
H510 C484 0.930 . S
H511 C485 0.931 . S
H512 C492 0.932 . S
H513 C493 0.930 . S
H514 C494 0.929 . S
H515 C496 0.930 . S
H516 C498 0.932 . S
H517 C499 0.929 . S
H518 C500 0.928 . S
H519 C502 0.932 . S
C520 C521 1.264 . S
C520 C525 1.479 . S
C520 C530 1.465 . S
C521 C520 1.264 . S
C521 C523 1.339 . S
C521 H548 0.931 . S
C522 C523 1.395 . S
C522 C524 1.320 . S
C523 C521 1.339 . S
C523 C522 1.395 . S
C523 H549 0.929 . S
C524 C522 1.320 . S
C524 C525 1.405 . S
C524 H550 0.930 . S
C525 C520 1.479 . S
C525 C524 1.405 . S
C525 H551 0.931 . S
U526 O527 2.454 . S
U526 O528 2.458 . S
U526 C529 2.984 . S
U526 C530 2.847 . S
U526 C543 2.882 . S
U526 O544 2.441 . S
U526 O545 2.420 . S
U526 O546 2.455 . S
U526 O547 2.449 . S
O527 U526 2.454 . S
O527 C529 1.353 . S
O528 U526 2.458 . S
O528 C529 1.286 . S
C529 U526 2.984 . S
C529 O527 1.353 . S
C529 O528 1.286 . S
C529 C531 1.363 . S
C530 C520 1.465 . S
C530 U526 2.847 . S
C530 O544 1.249 . S
C530 O545 1.202 . S
C531 C529 1.363 . S
C531 C533 1.408 . S
C531 C536 1.342 . S
C532 C533 1.310 . S
C532 C535 1.461 . S
C532 H552 0.932 . S
C533 C531 1.408 . S
C533 C532 1.310 . S
C533 H553 0.930 . S
C534 C535 1.474 . S
C534 C536 1.285 . S
C534 H554 0.929 . S
C535 C532 1.461 . S
C535 C534 1.474 . S
C536 C531 1.342 . S
C536 C534 1.285 . S
C536 H555 0.930 . S
C537 C540 1.424 . S
C537 C542 1.245 . S
C537 C543 1.428 . S
C538 C541 1.260 . S
C538 C542 1.477 . S
C538 H556 0.932 . S
C539 C540 1.384 . S
C539 C541 1.479 . S
C539 H557 0.929 . S
C540 C537 1.424 . S
C540 C539 1.384 . S
C540 H558 0.928 . S
C541 C538 1.260 . S
C541 C539 1.479 . S
C542 C537 1.245 . S
C542 C538 1.477 . S
C542 H559 0.932 . S
C543 U526 2.882 . S
C543 C537 1.428 . S
C543 O546 1.301 . S
C543 O547 1.282 . S
O544 U526 2.441 . S
O544 C530 1.249 . S
O545 U526 2.420 . S
O545 C530 1.202 . S
O546 U526 2.455 . S
O546 C543 1.301 . S
O547 U526 2.449 . S
O547 C543 1.282 . S
H548 C521 0.931 . S
H549 C523 0.929 . S
H550 C524 0.930 . S
H551 C525 0.931 . S
H552 C532 0.932 . S
H553 C533 0.930 . S
H554 C534 0.929 . S
H555 C536 0.930 . S
H556 C538 0.932 . S
H557 C539 0.929 . S
H558 C540 0.928 . S
H559 C542 0.932 . S
C560 C561 1.264 . S
C560 C565 1.479 . S
C560 C570 1.465 . S
C561 C560 1.264 . S
C561 C563 1.339 . S
C561 H588 0.931 . S
C562 C563 1.395 . S
C562 C564 1.320 . S
C563 C561 1.339 . S
C563 C562 1.395 . S
C563 H589 0.929 . S
C564 C562 1.320 . S
C564 C565 1.405 . S
C564 H590 0.930 . S
C565 C560 1.479 . S
C565 C564 1.405 . S
C565 H591 0.931 . S
U566 O567 2.454 . S
U566 O568 2.458 . S
U566 C569 2.984 . S
U566 C570 2.847 . S
U566 C583 2.882 . S
U566 O584 2.441 . S
U566 O585 2.420 . S
U566 O586 2.455 . S
U566 O587 2.449 . S
O567 U566 2.454 . S
O567 C569 1.353 . S
O568 U566 2.458 . S
O568 C569 1.286 . S
C569 U566 2.984 . S
C569 O567 1.353 . S
C569 O568 1.286 . S
C569 C571 1.363 . S
C570 C560 1.465 . S
C570 U566 2.847 . S
C570 O584 1.249 . S
C570 O585 1.202 . S
C571 C569 1.363 . S
C571 C573 1.408 . S
C571 C576 1.342 . S
C572 C573 1.310 . S
C572 C575 1.461 . S
C572 H592 0.932 . S
C573 C571 1.408 . S
C573 C572 1.310 . S
C573 H593 0.930 . S
C574 C575 1.474 . S
C574 C576 1.285 . S
C574 H594 0.929 . S
C575 C572 1.461 . S
C575 C574 1.474 . S
C576 C571 1.342 . S
C576 C574 1.285 . S
C576 H595 0.930 . S
C577 C580 1.424 . S
C577 C582 1.245 . S
C577 C583 1.428 . S
C578 C581 1.260 . S
C578 C582 1.477 . S
C578 H596 0.932 . S
C579 C580 1.384 . S
C579 C581 1.479 . S
C579 H597 0.929 . S
C580 C577 1.424 . S
C580 C579 1.384 . S
C580 H598 0.928 . S
C581 C578 1.260 . S
C581 C579 1.479 . S
C582 C577 1.245 . S
C582 C578 1.477 . S
C582 H599 0.932 . S
C583 U566 2.882 . S
C583 C577 1.428 . S
C583 O586 1.301 . S
C583 O587 1.282 . S
O584 U566 2.441 . S
O584 C570 1.249 . S
O585 U566 2.420 . S
O585 C570 1.202 . S
O586 U566 2.455 . S
O586 C583 1.301 . S
O587 U566 2.449 . S
O587 C583 1.282 . S
H588 C561 0.931 . S
H589 C563 0.929 . S
H590 C564 0.930 . S
H591 C565 0.931 . S
H592 C572 0.932 . S
H593 C573 0.930 . S
H594 C574 0.929 . S
H595 C576 0.930 . S
H596 C578 0.932 . S
H597 C579 0.929 . S
H598 C580 0.928 . S
H599 C582 0.932 . S
C600 C601 1.264 . S
C600 C605 1.479 . S
C600 C610 1.465 . S
C601 C600 1.264 . S
C601 C603 1.339 . S
C601 H628 0.931 . S
C602 C603 1.395 . S
C602 C604 1.320 . S
C603 C601 1.339 . S
C603 C602 1.395 . S
C603 H629 0.929 . S
C604 C602 1.320 . S
C604 C605 1.405 . S
C604 H630 0.930 . S
C605 C600 1.479 . S
C605 C604 1.405 . S
C605 H631 0.931 . S
U606 O607 2.454 . S
U606 O608 2.458 . S
U606 C609 2.984 . S
U606 C610 2.847 . S
U606 C623 2.882 . S
U606 O624 2.441 . S
U606 O625 2.420 . S
U606 O626 2.455 . S
U606 O627 2.449 . S
O607 U606 2.454 . S
O607 C609 1.353 . S
O608 U606 2.458 . S
O608 C609 1.286 . S
C609 U606 2.984 . S
C609 O607 1.353 . S
C609 O608 1.286 . S
C609 C611 1.363 . S
C610 C600 1.465 . S
C610 U606 2.847 . S
C610 O624 1.249 . S
C610 O625 1.202 . S
C611 C609 1.363 . S
C611 C613 1.408 . S
C611 C616 1.342 . S
C612 C613 1.310 . S
C612 C615 1.461 . S
C612 H632 0.932 . S
C613 C611 1.408 . S
C613 C612 1.310 . S
C613 H633 0.930 . S
C614 C615 1.474 . S
C614 C616 1.285 . S
C614 H634 0.929 . S
C615 C612 1.461 . S
C615 C614 1.474 . S
C616 C611 1.342 . S
C616 C614 1.285 . S
C616 H635 0.930 . S
C617 C620 1.424 . S
C617 C622 1.245 . S
C617 C623 1.428 . S
C618 C621 1.260 . S
C618 C622 1.477 . S
C618 H636 0.932 . S
C619 C620 1.384 . S
C619 C621 1.479 . S
C619 H637 0.929 . S
C620 C617 1.424 . S
C620 C619 1.384 . S
C620 H638 0.928 . S
C621 C618 1.260 . S
C621 C619 1.479 . S
C622 C617 1.245 . S
C622 C618 1.477 . S
C622 H639 0.932 . S
C623 U606 2.882 . S
C623 C617 1.428 . S
C623 O626 1.301 . S
C623 O627 1.282 . S
O624 U606 2.441 . S
O624 C610 1.249 . S
O625 U606 2.420 . S
O625 C610 1.202 . S
O626 U606 2.455 . S
O626 C623 1.301 . S
O627 U606 2.449 . S
O627 C623 1.282 . S
H628 C601 0.931 . S
H629 C603 0.929 . S
H630 C604 0.930 . S
H631 C605 0.931 . S
H632 C612 0.932 . S
H633 C613 0.930 . S
H634 C614 0.929 . S
H635 C616 0.930 . S
H636 C618 0.932 . S
H637 C619 0.929 . S
H638 C620 0.928 . S
H639 C622 0.932 . S
C640 C641 1.264 . S
C640 C645 1.479 . S
C640 C650 1.465 . S
C641 C640 1.264 . S
C641 C643 1.339 . S
C641 H668 0.931 . S
C642 C643 1.395 . S
C642 C644 1.320 . S
C643 C641 1.339 . S
C643 C642 1.395 . S
C643 H669 0.929 . S
C644 C642 1.320 . S
C644 C645 1.405 . S
C644 H670 0.930 . S
C645 C640 1.479 . S
C645 C644 1.405 . S
C645 H671 0.931 . S
U646 O647 2.454 . S
U646 O648 2.458 . S
U646 C649 2.984 . S
U646 C650 2.847 . S
U646 C663 2.882 . S
U646 O664 2.441 . S
U646 O665 2.420 . S
U646 O666 2.455 . S
U646 O667 2.449 . S
O647 U646 2.454 . S
O647 C649 1.353 . S
O648 U646 2.458 . S
O648 C649 1.286 . S
C649 U646 2.984 . S
C649 O647 1.353 . S
C649 O648 1.286 . S
C649 C651 1.363 . S
C650 C640 1.465 . S
C650 U646 2.847 . S
C650 O664 1.249 . S
C650 O665 1.202 . S
C651 C649 1.363 . S
C651 C653 1.408 . S
C651 C656 1.342 . S
C652 C653 1.310 . S
C652 C655 1.461 . S
C652 H672 0.932 . S
C653 C651 1.408 . S
C653 C652 1.310 . S
C653 H673 0.930 . S
C654 C655 1.474 . S
C654 C656 1.285 . S
C654 H674 0.929 . S
C655 C652 1.461 . S
C655 C654 1.474 . S
C656 C651 1.342 . S
C656 C654 1.285 . S
C656 H675 0.930 . S
C657 C660 1.424 . S
C657 C662 1.245 . S
C657 C663 1.428 . S
C658 C661 1.260 . S
C658 C662 1.477 . S
C658 H676 0.932 . S
C659 C660 1.384 . S
C659 C661 1.479 . S
C659 H677 0.929 . S
C660 C657 1.424 . S
C660 C659 1.384 . S
C660 H678 0.928 . S
C661 C658 1.260 . S
C661 C659 1.479 . S
C662 C657 1.245 . S
C662 C658 1.477 . S
C662 H679 0.932 . S
C663 U646 2.882 . S
C663 C657 1.428 . S
C663 O666 1.301 . S
C663 O667 1.282 . S
O664 U646 2.441 . S
O664 C650 1.249 . S
O665 U646 2.420 . S
O665 C650 1.202 . S
O666 U646 2.455 . S
O666 C663 1.301 . S
O667 U646 2.449 . S
O667 C663 1.282 . S
H668 C641 0.931 . S
H669 C643 0.929 . S
H670 C644 0.930 . S
H671 C645 0.931 . S
H672 C652 0.932 . S
H673 C653 0.930 . S
H674 C654 0.929 . S
H675 C656 0.930 . S
H676 C658 0.932 . S
H677 C659 0.929 . S
H678 C660 0.928 . S
H679 C662 0.932 . S
C680 C681 1.264 . S
C680 C685 1.479 . S
C680 C690 1.465 . S
C681 C680 1.264 . S
C681 C683 1.339 . S
C681 H708 0.931 . S
C682 C683 1.395 . S
C682 C684 1.320 . S
C683 C681 1.339 . S
C683 C682 1.395 . S
C683 H709 0.929 . S
C684 C682 1.320 . S
C684 C685 1.405 . S
C684 H710 0.930 . S
C685 C680 1.479 . S
C685 C684 1.405 . S
C685 H711 0.931 . S
U686 O687 2.454 . S
U686 O688 2.458 . S
U686 C689 2.984 . S
U686 C690 2.847 . S
U686 C703 2.882 . S
U686 O704 2.441 . S
U686 O705 2.420 . S
U686 O706 2.455 . S
U686 O707 2.449 . S
O687 U686 2.454 . S
O687 C689 1.353 . S
O688 U686 2.458 . S
O688 C689 1.286 . S
C689 U686 2.984 . S
C689 O687 1.353 . S
C689 O688 1.286 . S
C689 C691 1.363 . S
C690 C680 1.465 . S
C690 U686 2.847 . S
C690 O704 1.249 . S
C690 O705 1.202 . S
C691 C689 1.363 . S
C691 C693 1.408 . S
C691 C696 1.342 . S
C692 C693 1.310 . S
C692 C695 1.461 . S
C692 H712 0.932 . S
C693 C691 1.408 . S
C693 C692 1.310 . S
C693 H713 0.930 . S
C694 C695 1.474 . S
C694 C696 1.285 . S
C694 H714 0.929 . S
C695 C692 1.461 . S
C695 C694 1.474 . S
C696 C691 1.342 . S
C696 C694 1.285 . S
C696 H715 0.930 . S
C697 C700 1.424 . S
C697 C702 1.245 . S
C697 C703 1.428 . S
C698 C701 1.260 . S
C698 C702 1.477 . S
C698 H716 0.932 . S
C699 C700 1.384 . S
C699 C701 1.479 . S
C699 H717 0.929 . S
C700 C697 1.424 . S
C700 C699 1.384 . S
C700 H718 0.928 . S
C701 C698 1.260 . S
C701 C699 1.479 . S
C702 C697 1.245 . S
C702 C698 1.477 . S
C702 H719 0.932 . S
C703 U686 2.882 . S
C703 C697 1.428 . S
C703 O706 1.301 . S
C703 O707 1.282 . S
O704 U686 2.441 . S
O704 C690 1.249 . S
O705 U686 2.420 . S
O705 C690 1.202 . S
O706 U686 2.455 . S
O706 C703 1.301 . S
O707 U686 2.449 . S
O707 C703 1.282 . S
H708 C681 0.931 . S
H709 C683 0.929 . S
H710 C684 0.930 . S
H711 C685 0.931 . S
H712 C692 0.932 . S
H713 C693 0.930 . S
H714 C694 0.929 . S
H715 C696 0.930 . S
H716 C698 0.932 . S
H717 C699 0.929 . S
H718 C700 0.928 . S
H719 C702 0.932 . S
C720 C721 1.264 . S
C720 C725 1.479 . S
C720 C730 1.465 . S
C721 C720 1.264 . S
C721 C723 1.339 . S
C721 H748 0.931 . S
C722 C723 1.395 . S
C722 C724 1.320 . S
C723 C721 1.339 . S
C723 C722 1.395 . S
C723 H749 0.929 . S
C724 C722 1.320 . S
C724 C725 1.405 . S
C724 H750 0.930 . S
C725 C720 1.479 . S
C725 C724 1.405 . S
C725 H751 0.931 . S
U726 O727 2.454 . S
U726 O728 2.458 . S
U726 C729 2.984 . S
U726 C730 2.847 . S
U726 C743 2.882 . S
U726 O744 2.441 . S
U726 O745 2.420 . S
U726 O746 2.455 . S
U726 O747 2.449 . S
O727 U726 2.454 . S
O727 C729 1.353 . S
O728 U726 2.458 . S
O728 C729 1.286 . S
C729 U726 2.984 . S
C729 O727 1.353 . S
C729 O728 1.286 . S
C729 C731 1.363 . S
C730 C720 1.465 . S
C730 U726 2.847 . S
C730 O744 1.249 . S
C730 O745 1.202 . S
C731 C729 1.363 . S
C731 C733 1.408 . S
C731 C736 1.342 . S
C732 C733 1.310 . S
C732 C735 1.461 . S
C732 H752 0.932 . S
C733 C731 1.408 . S
C733 C732 1.310 . S
C733 H753 0.930 . S
C734 C735 1.474 . S
C734 C736 1.285 . S
C734 H754 0.929 . S
C735 C732 1.461 . S
C735 C734 1.474 . S
C736 C731 1.342 . S
C736 C734 1.285 . S
C736 H755 0.930 . S
C737 C740 1.424 . S
C737 C742 1.245 . S
C737 C743 1.428 . S
C738 C741 1.260 . S
C738 C742 1.477 . S
C738 H756 0.932 . S
C739 C740 1.384 . S
C739 C741 1.479 . S
C739 H757 0.929 . S
C740 C737 1.424 . S
C740 C739 1.384 . S
C740 H758 0.928 . S
C741 C738 1.260 . S
C741 C739 1.479 . S
C742 C737 1.245 . S
C742 C738 1.477 . S
C742 H759 0.932 . S
C743 U726 2.882 . S
C743 C737 1.428 . S
C743 O746 1.301 . S
C743 O747 1.282 . S
O744 U726 2.441 . S
O744 C730 1.249 . S
O745 U726 2.420 . S
O745 C730 1.202 . S
O746 U726 2.455 . S
O746 C743 1.301 . S
O747 U726 2.449 . S
O747 C743 1.282 . S
H748 C721 0.931 . S
H749 C723 0.929 . S
H750 C724 0.930 . S
H751 C725 0.931 . S
H752 C732 0.932 . S
H753 C733 0.930 . S
H754 C734 0.929 . S
H755 C736 0.930 . S
H756 C738 0.932 . S
H757 C739 0.929 . S
H758 C740 0.928 . S
H759 C742 0.932 . S
C760 C761 1.264 . S
C760 C765 1.479 . S
C760 C770 1.465 . S
C761 C760 1.264 . S
C761 C763 1.339 . S
C761 H788 0.931 . S
C762 C763 1.395 . S
C762 C764 1.320 . S
C763 C761 1.339 . S
C763 C762 1.395 . S
C763 H789 0.929 . S
C764 C762 1.320 . S
C764 C765 1.405 . S
C764 H790 0.930 . S
C765 C760 1.479 . S
C765 C764 1.405 . S
C765 H791 0.931 . S
U766 O767 2.454 . S
U766 O768 2.458 . S
U766 C769 2.984 . S
U766 C770 2.847 . S
U766 C783 2.882 . S
U766 O784 2.441 . S
U766 O785 2.420 . S
U766 O786 2.455 . S
U766 O787 2.449 . S
O767 U766 2.454 . S
O767 C769 1.353 . S
O768 U766 2.458 . S
O768 C769 1.286 . S
C769 U766 2.984 . S
C769 O767 1.353 . S
C769 O768 1.286 . S
C769 C771 1.363 . S
C770 C760 1.465 . S
C770 U766 2.847 . S
C770 O784 1.249 . S
C770 O785 1.202 . S
C771 C769 1.363 . S
C771 C773 1.408 . S
C771 C776 1.342 . S
C772 C773 1.310 . S
C772 C775 1.461 . S
C772 H792 0.932 . S
C773 C771 1.408 . S
C773 C772 1.310 . S
C773 H793 0.930 . S
C774 C775 1.474 . S
C774 C776 1.285 . S
C774 H794 0.929 . S
C775 C772 1.461 . S
C775 C774 1.474 . S
C776 C771 1.342 . S
C776 C774 1.285 . S
C776 H795 0.930 . S
C777 C780 1.424 . S
C777 C782 1.245 . S
C777 C783 1.428 . S
C778 C781 1.260 . S
C778 C782 1.477 . S
C778 H796 0.932 . S
C779 C780 1.384 . S
C779 C781 1.479 . S
C779 H797 0.929 . S
C780 C777 1.424 . S
C780 C779 1.384 . S
C780 H798 0.928 . S
C781 C778 1.260 . S
C781 C779 1.479 . S
C782 C777 1.245 . S
C782 C778 1.477 . S
C782 H799 0.932 . S
C783 U766 2.882 . S
C783 C777 1.428 . S
C783 O786 1.301 . S
C783 O787 1.282 . S
O784 U766 2.441 . S
O784 C770 1.249 . S
O785 U766 2.420 . S
O785 C770 1.202 . S
O786 U766 2.455 . S
O786 C783 1.301 . S
O787 U766 2.449 . S
O787 C783 1.282 . S
H788 C761 0.931 . S
H789 C763 0.929 . S
H790 C764 0.930 . S
H791 C765 0.931 . S
H792 C772 0.932 . S
H793 C773 0.930 . S
H794 C774 0.929 . S
H795 C776 0.930 . S
H796 C778 0.932 . S
H797 C779 0.929 . S
H798 C780 0.928 . S
H799 C782 0.932 . S
C800 C801 1.264 . S
C800 C805 1.479 . S
C800 C810 1.465 . S
C801 C800 1.264 . S
C801 C803 1.339 . S
C801 H828 0.931 . S
C802 C803 1.395 . S
C802 C804 1.320 . S
C803 C801 1.339 . S
C803 C802 1.395 . S
C803 H829 0.929 . S
C804 C802 1.320 . S
C804 C805 1.405 . S
C804 H830 0.930 . S
C805 C800 1.479 . S
C805 C804 1.405 . S
C805 H831 0.931 . S
U806 O807 2.454 . S
U806 O808 2.458 . S
U806 C809 2.984 . S
U806 C810 2.847 . S
U806 C823 2.882 . S
U806 O824 2.441 . S
U806 O825 2.420 . S
U806 O826 2.455 . S
U806 O827 2.449 . S
O807 U806 2.454 . S
O807 C809 1.353 . S
O808 U806 2.458 . S
O808 C809 1.286 . S
C809 U806 2.984 . S
C809 O807 1.353 . S
C809 O808 1.286 . S
C809 C811 1.363 . S
C810 C800 1.465 . S
C810 U806 2.847 . S
C810 O824 1.249 . S
C810 O825 1.202 . S
C811 C809 1.363 . S
C811 C813 1.408 . S
C811 C816 1.342 . S
C812 C813 1.310 . S
C812 C815 1.461 . S
C812 H832 0.932 . S
C813 C811 1.408 . S
C813 C812 1.310 . S
C813 H833 0.930 . S
C814 C815 1.474 . S
C814 C816 1.285 . S
C814 H834 0.929 . S
C815 C812 1.461 . S
C815 C814 1.474 . S
C816 C811 1.342 . S
C816 C814 1.285 . S
C816 H835 0.930 . S
C817 C820 1.424 . S
C817 C822 1.245 . S
C817 C823 1.428 . S
C818 C821 1.260 . S
C818 C822 1.477 . S
C818 H836 0.932 . S
C819 C820 1.384 . S
C819 C821 1.479 . S
C819 H837 0.929 . S
C820 C817 1.424 . S
C820 C819 1.384 . S
C820 H838 0.928 . S
C821 C818 1.260 . S
C821 C819 1.479 . S
C822 C817 1.245 . S
C822 C818 1.477 . S
C822 H839 0.932 . S
C823 U806 2.882 . S
C823 C817 1.428 . S
C823 O826 1.301 . S
C823 O827 1.282 . S
O824 U806 2.441 . S
O824 C810 1.249 . S
O825 U806 2.420 . S
O825 C810 1.202 . S
O826 U806 2.455 . S
O826 C823 1.301 . S
O827 U806 2.449 . S
O827 C823 1.282 . S
H828 C801 0.931 . S
H829 C803 0.929 . S
H830 C804 0.930 . S
H831 C805 0.931 . S
H832 C812 0.932 . S
H833 C813 0.930 . S
H834 C814 0.929 . S
H835 C816 0.930 . S
H836 C818 0.932 . S
H837 C819 0.929 . S
H838 C820 0.928 . S
H839 C822 0.932 . S
C840 C841 1.264 . S
C840 C845 1.479 . S
C840 C850 1.465 . S
C841 C840 1.264 . S
C841 C843 1.339 . S
C841 H868 0.931 . S
C842 C843 1.395 . S
C842 C844 1.320 . S
C843 C841 1.339 . S
C843 C842 1.395 . S
C843 H869 0.929 . S
C844 C842 1.320 . S
C844 C845 1.405 . S
C844 H870 0.930 . S
C845 C840 1.479 . S
C845 C844 1.405 . S
C845 H871 0.931 . S
U846 O847 2.454 . S
U846 O848 2.458 . S
U846 C849 2.984 . S
U846 C850 2.847 . S
U846 C863 2.882 . S
U846 O864 2.441 . S
U846 O865 2.420 . S
U846 O866 2.455 . S
U846 O867 2.449 . S
O847 U846 2.454 . S
O847 C849 1.353 . S
O848 U846 2.458 . S
O848 C849 1.286 . S
C849 U846 2.984 . S
C849 O847 1.353 . S
C849 O848 1.286 . S
C849 C851 1.363 . S
C850 C840 1.465 . S
C850 U846 2.847 . S
C850 O864 1.249 . S
C850 O865 1.202 . S
C851 C849 1.363 . S
C851 C853 1.408 . S
C851 C856 1.342 . S
C852 C853 1.310 . S
C852 C855 1.461 . S
C852 H872 0.932 . S
C853 C851 1.408 . S
C853 C852 1.310 . S
C853 H873 0.930 . S
C854 C855 1.474 . S
C854 C856 1.285 . S
C854 H874 0.929 . S
C855 C852 1.461 . S
C855 C854 1.474 . S
C856 C851 1.342 . S
C856 C854 1.285 . S
C856 H875 0.930 . S
C857 C860 1.424 . S
C857 C862 1.245 . S
C857 C863 1.428 . S
C858 C861 1.260 . S
C858 C862 1.477 . S
C858 H876 0.932 . S
C859 C860 1.384 . S
C859 C861 1.479 . S
C859 H877 0.929 . S
C860 C857 1.424 . S
C860 C859 1.384 . S
C860 H878 0.928 . S
C861 C858 1.260 . S
C861 C859 1.479 . S
C862 C857 1.245 . S
C862 C858 1.477 . S
C862 H879 0.932 . S
C863 U846 2.882 . S
C863 C857 1.428 . S
C863 O866 1.301 . S
C863 O867 1.282 . S
O864 U846 2.441 . S
O864 C850 1.249 . S
O865 U846 2.420 . S
O865 C850 1.202 . S
O866 U846 2.455 . S
O866 C863 1.301 . S
O867 U846 2.449 . S
O867 C863 1.282 . S
H868 C841 0.931 . S
H869 C843 0.929 . S
H870 C844 0.930 . S
H871 C845 0.931 . S
H872 C852 0.932 . S
H873 C853 0.930 . S
H874 C854 0.929 . S
H875 C856 0.930 . S
H876 C858 0.932 . S
H877 C859 0.929 . S
H878 C860 0.928 . S
H879 C862 0.932 . S
C880 C881 1.264 . S
C880 C885 1.479 . S
C880 C890 1.465 . S
C881 C880 1.264 . S
C881 C883 1.339 . S
C881 H908 0.931 . S
C882 C883 1.395 . S
C882 C884 1.320 . S
C883 C881 1.339 . S
C883 C882 1.395 . S
C883 H909 0.929 . S
C884 C882 1.320 . S
C884 C885 1.405 . S
C884 H910 0.930 . S
C885 C880 1.479 . S
C885 C884 1.405 . S
C885 H911 0.931 . S
U886 O887 2.454 . S
U886 O888 2.458 . S
U886 C889 2.984 . S
U886 C890 2.847 . S
U886 C903 2.882 . S
U886 O904 2.441 . S
U886 O905 2.420 . S
U886 O906 2.455 . S
U886 O907 2.449 . S
O887 U886 2.454 . S
O887 C889 1.353 . S
O888 U886 2.458 . S
O888 C889 1.286 . S
C889 U886 2.984 . S
C889 O887 1.353 . S
C889 O888 1.286 . S
C889 C891 1.363 . S
C890 C880 1.465 . S
C890 U886 2.847 . S
C890 O904 1.249 . S
C890 O905 1.202 . S
C891 C889 1.363 . S
C891 C893 1.408 . S
C891 C896 1.342 . S
C892 C893 1.310 . S
C892 C895 1.461 . S
C892 H912 0.932 . S
C893 C891 1.408 . S
C893 C892 1.310 . S
C893 H913 0.930 . S
C894 C895 1.474 . S
C894 C896 1.285 . S
C894 H914 0.929 . S
C895 C892 1.461 . S
C895 C894 1.474 . S
C896 C891 1.342 . S
C896 C894 1.285 . S
C896 H915 0.930 . S
C897 C900 1.424 . S
C897 C902 1.245 . S
C897 C903 1.428 . S
C898 C901 1.260 . S
C898 C902 1.477 . S
C898 H916 0.932 . S
C899 C900 1.384 . S
C899 C901 1.479 . S
C899 H917 0.929 . S
C900 C897 1.424 . S
C900 C899 1.384 . S
C900 H918 0.928 . S
C901 C898 1.260 . S
C901 C899 1.479 . S
C902 C897 1.245 . S
C902 C898 1.477 . S
C902 H919 0.932 . S
C903 U886 2.882 . S
C903 C897 1.428 . S
C903 O906 1.301 . S
C903 O907 1.282 . S
O904 U886 2.441 . S
O904 C890 1.249 . S
O905 U886 2.420 . S
O905 C890 1.202 . S
O906 U886 2.455 . S
O906 C903 1.301 . S
O907 U886 2.449 . S
O907 C903 1.282 . S
H908 C881 0.931 . S
H909 C883 0.929 . S
H910 C884 0.930 . S
H911 C885 0.931 . S
H912 C892 0.932 . S
H913 C893 0.930 . S
H914 C894 0.929 . S
H915 C896 0.930 . S
H916 C898 0.932 . S
H917 C899 0.929 . S
H918 C900 0.928 . S
H919 C902 0.932 . S
C920 C921 1.264 . S
C920 C925 1.479 . S
C920 C930 1.465 . S
C921 C920 1.264 . S
C921 C923 1.339 . S
C921 H948 0.931 . S
C922 C923 1.395 . S
C922 C924 1.320 . S
C923 C921 1.339 . S
C923 C922 1.395 . S
C923 H949 0.929 . S
C924 C922 1.320 . S
C924 C925 1.405 . S
C924 H950 0.930 . S
C925 C920 1.479 . S
C925 C924 1.405 . S
C925 H951 0.931 . S
U926 O927 2.454 . S
U926 O928 2.458 . S
U926 C929 2.984 . S
U926 C930 2.847 . S
U926 C943 2.882 . S
U926 O944 2.441 . S
U926 O945 2.420 . S
U926 O946 2.455 . S
U926 O947 2.449 . S
O927 U926 2.454 . S
O927 C929 1.353 . S
O928 U926 2.458 . S
O928 C929 1.286 . S
C929 U926 2.984 . S
C929 O927 1.353 . S
C929 O928 1.286 . S
C929 C931 1.363 . S
C930 C920 1.465 . S
C930 U926 2.847 . S
C930 O944 1.249 . S
C930 O945 1.202 . S
C931 C929 1.363 . S
C931 C933 1.408 . S
C931 C936 1.342 . S
C932 C933 1.310 . S
C932 C935 1.461 . S
C932 H952 0.932 . S
C933 C931 1.408 . S
C933 C932 1.310 . S
C933 H953 0.930 . S
C934 C935 1.474 . S
C934 C936 1.285 . S
C934 H954 0.929 . S
C935 C932 1.461 . S
C935 C934 1.474 . S
C936 C931 1.342 . S
C936 C934 1.285 . S
C936 H955 0.930 . S
C937 C940 1.424 . S
C937 C942 1.245 . S
C937 C943 1.428 . S
C938 C941 1.260 . S
C938 C942 1.477 . S
C938 H956 0.932 . S
C939 C940 1.384 . S
C939 C941 1.479 . S
C939 H957 0.929 . S
C940 C937 1.424 . S
C940 C939 1.384 . S
C940 H958 0.928 . S
C941 C938 1.260 . S
C941 C939 1.479 . S
C942 C937 1.245 . S
C942 C938 1.477 . S
C942 H959 0.932 . S
C943 U926 2.882 . S
C943 C937 1.428 . S
C943 O946 1.301 . S
C943 O947 1.282 . S
O944 U926 2.441 . S
O944 C930 1.249 . S
O945 U926 2.420 . S
O945 C930 1.202 . S
O946 U926 2.455 . S
O946 C943 1.301 . S
O947 U926 2.449 . S
O947 C943 1.282 . S
H948 C921 0.931 . S
H949 C923 0.929 . S
H950 C924 0.930 . S
H951 C925 0.931 . S
H952 C932 0.932 . S
H953 C933 0.930 . S
H954 C934 0.929 . S
H955 C936 0.930 . S
H956 C938 0.932 . S
H957 C939 0.929 . S
H958 C940 0.928 . S
H959 C942 0.932 . S
C960 C961 1.264 . S
C960 C965 1.479 . S
C960 C970 1.465 . S
C961 C960 1.264 . S
C961 C963 1.339 . S
C961 H988 0.931 . S
C962 C963 1.395 . S
C962 C964 1.320 . S
C963 C961 1.339 . S
C963 C962 1.395 . S
C963 H989 0.929 . S
C964 C962 1.320 . S
C964 C965 1.405 . S
C964 H990 0.930 . S
C965 C960 1.479 . S
C965 C964 1.405 . S
C965 H991 0.931 . S
U966 O967 2.454 . S
U966 O968 2.458 . S
U966 C969 2.984 . S
U966 C970 2.847 . S
U966 C983 2.882 . S
U966 O984 2.441 . S
U966 O985 2.420 . S
U966 O986 2.455 . S
U966 O987 2.449 . S
O967 U966 2.454 . S
O967 C969 1.353 . S
O968 U966 2.458 . S
O968 C969 1.286 . S
C969 U966 2.984 . S
C969 O967 1.353 . S
C969 O968 1.286 . S
C969 C971 1.363 . S
C970 C960 1.465 . S
C970 U966 2.847 . S
C970 O984 1.249 . S
C970 O985 1.202 . S
C971 C969 1.363 . S
C971 C973 1.408 . S
C971 C976 1.342 . S
C972 C973 1.310 . S
C972 C975 1.461 . S
C972 H992 0.932 . S
C973 C971 1.408 . S
C973 C972 1.310 . S
C973 H993 0.930 . S
C974 C975 1.474 . S
C974 C976 1.285 . S
C974 H994 0.929 . S
C975 C972 1.461 . S
C975 C974 1.474 . S
C976 C971 1.342 . S
C976 C974 1.285 . S
C976 H995 0.930 . S
C977 C980 1.424 . S
C977 C982 1.245 . S
C977 C983 1.428 . S
C978 C981 1.260 . S
C978 C982 1.477 . S
C978 H996 0.932 . S
C979 C980 1.384 . S
C979 C981 1.479 . S
C979 H997 0.929 . S
C980 C977 1.424 . S
C980 C979 1.384 . S
C980 H998 0.928 . S
C981 C978 1.260 . S
C981 C979 1.479 . S
C982 C977 1.245 . S
C982 C978 1.477 . S
C982 H999 0.932 . S
C983 U966 2.882 . S
C983 C977 1.428 . S
C983 O986 1.301 . S
C983 O987 1.282 . S
O984 U966 2.441 . S
O984 C970 1.249 . S
O985 U966 2.420 . S
O985 C970 1.202 . S
O986 U966 2.455 . S
O986 C983 1.301 . S
O987 U966 2.449 . S
O987 C983 1.282 . S
H988 C961 0.931 . S
H989 C963 0.929 . S
H990 C964 0.930 . S
H991 C965 0.931 . S
H992 C972 0.932 . S
H993 C973 0.930 . S
H994 C974 0.929 . S
H995 C976 0.930 . S
H996 C978 0.932 . S
H997 C979 0.929 . S
H998 C980 0.928 . S
H999 C982 0.932 . S
C1000 C1001 1.264 . S
C1000 C1005 1.479 . S
C1000 C1010 1.465 . S
C1001 C1000 1.264 . S
C1001 C1003 1.339 . S
C1001 H1028 0.931 . S
C1002 C1003 1.395 . S
C1002 C1004 1.320 . S
C1003 C1001 1.339 . S
C1003 C1002 1.395 . S
C1003 H1029 0.929 . S
C1004 C1002 1.320 . S
C1004 C1005 1.405 . S
C1004 H1030 0.930 . S
C1005 C1000 1.479 . S
C1005 C1004 1.405 . S
C1005 H1031 0.931 . S
U1006 O1007 2.454 . S
U1006 O1008 2.458 . S
U1006 C1009 2.984 . S
U1006 C1010 2.847 . S
U1006 C1023 2.882 . S
U1006 O1024 2.441 . S
U1006 O1025 2.420 . S
U1006 O1026 2.455 . S
U1006 O1027 2.449 . S
O1007 U1006 2.454 . S
O1007 C1009 1.353 . S
O1008 U1006 2.458 . S
O1008 C1009 1.286 . S
C1009 U1006 2.984 . S
C1009 O1007 1.353 . S
C1009 O1008 1.286 . S
C1009 C1011 1.363 . S
C1010 C1000 1.465 . S
C1010 U1006 2.847 . S
C1010 O1024 1.249 . S
C1010 O1025 1.202 . S
C1011 C1009 1.363 . S
C1011 C1013 1.408 . S
C1011 C1016 1.342 . S
C1012 C1013 1.310 . S
C1012 C1015 1.461 . S
C1012 H1032 0.932 . S
C1013 C1011 1.408 . S
C1013 C1012 1.310 . S
C1013 H1033 0.930 . S
C1014 C1015 1.474 . S
C1014 C1016 1.285 . S
C1014 H1034 0.929 . S
C1015 C1012 1.461 . S
C1015 C1014 1.474 . S
C1016 C1011 1.342 . S
C1016 C1014 1.285 . S
C1016 H1035 0.930 . S
C1017 C1020 1.424 . S
C1017 C1022 1.245 . S
C1017 C1023 1.428 . S
C1018 C1021 1.260 . S
C1018 C1022 1.477 . S
C1018 H1036 0.932 . S
C1019 C1020 1.384 . S
C1019 C1021 1.479 . S
C1019 H1037 0.929 . S
C1020 C1017 1.424 . S
C1020 C1019 1.384 . S
C1020 H1038 0.928 . S
C1021 C1018 1.260 . S
C1021 C1019 1.479 . S
C1022 C1017 1.245 . S
C1022 C1018 1.477 . S
C1022 H1039 0.932 . S
C1023 U1006 2.882 . S
C1023 C1017 1.428 . S
C1023 O1026 1.301 . S
C1023 O1027 1.282 . S
O1024 U1006 2.441 . S
O1024 C1010 1.249 . S
O1025 U1006 2.420 . S
O1025 C1010 1.202 . S
O1026 U1006 2.455 . S
O1026 C1023 1.301 . S
O1027 U1006 2.449 . S
O1027 C1023 1.282 . S
H1028 C1001 0.931 . S
H1029 C1003 0.929 . S
H1030 C1004 0.930 . S
H1031 C1005 0.931 . S
H1032 C1012 0.932 . S
H1033 C1013 0.930 . S
H1034 C1014 0.929 . S
H1035 C1016 0.930 . S
H1036 C1018 0.932 . S
H1037 C1019 0.929 . S
H1038 C1020 0.928 . S
H1039 C1022 0.932 . S
C1040 C1041 1.264 . S
C1040 C1045 1.479 . S
C1040 C1050 1.465 . S
C1041 C1040 1.264 . S
C1041 C1043 1.339 . S
C1041 H1068 0.931 . S
C1042 C1043 1.395 . S
C1042 C1044 1.320 . S
C1043 C1041 1.339 . S
C1043 C1042 1.395 . S
C1043 H1069 0.929 . S
C1044 C1042 1.320 . S
C1044 C1045 1.405 . S
C1044 H1070 0.930 . S
C1045 C1040 1.479 . S
C1045 C1044 1.405 . S
C1045 H1071 0.931 . S
U1046 O1047 2.454 . S
U1046 O1048 2.458 . S
U1046 C1049 2.984 . S
U1046 C1050 2.847 . S
U1046 C1063 2.882 . S
U1046 O1064 2.441 . S
U1046 O1065 2.420 . S
U1046 O1066 2.455 . S
U1046 O1067 2.449 . S
O1047 U1046 2.454 . S
O1047 C1049 1.353 . S
O1048 U1046 2.458 . S
O1048 C1049 1.286 . S
C1049 U1046 2.984 . S
C1049 O1047 1.353 . S
C1049 O1048 1.286 . S
C1049 C1051 1.363 . S
C1050 C1040 1.465 . S
C1050 U1046 2.847 . S
C1050 O1064 1.249 . S
C1050 O1065 1.202 . S
C1051 C1049 1.363 . S
C1051 C1053 1.408 . S
C1051 C1056 1.342 . S
C1052 C1053 1.310 . S
C1052 C1055 1.461 . S
C1052 H1072 0.932 . S
C1053 C1051 1.408 . S
C1053 C1052 1.310 . S
C1053 H1073 0.930 . S
C1054 C1055 1.474 . S
C1054 C1056 1.285 . S
C1054 H1074 0.929 . S
C1055 C1052 1.461 . S
C1055 C1054 1.474 . S
C1056 C1051 1.342 . S
C1056 C1054 1.285 . S
C1056 H1075 0.930 . S
C1057 C1060 1.424 . S
C1057 C1062 1.245 . S
C1057 C1063 1.428 . S
C1058 C1061 1.260 . S
C1058 C1062 1.477 . S
C1058 H1076 0.932 . S
C1059 C1060 1.384 . S
C1059 C1061 1.479 . S
C1059 H1077 0.929 . S
C1060 C1057 1.424 . S
C1060 C1059 1.384 . S
C1060 H1078 0.928 . S
C1061 C1058 1.260 . S
C1061 C1059 1.479 . S
C1062 C1057 1.245 . S
C1062 C1058 1.477 . S
C1062 H1079 0.932 . S
C1063 U1046 2.882 . S
C1063 C1057 1.428 . S
C1063 O1066 1.301 . S
C1063 O1067 1.282 . S
O1064 U1046 2.441 . S
O1064 C1050 1.249 . S
O1065 U1046 2.420 . S
O1065 C1050 1.202 . S
O1066 U1046 2.455 . S
O1066 C1063 1.301 . S
O1067 U1046 2.449 . S
O1067 C1063 1.282 . S
H1068 C1041 0.931 . S
H1069 C1043 0.929 . S
H1070 C1044 0.930 . S
H1071 C1045 0.931 . S
H1072 C1052 0.932 . S
H1073 C1053 0.930 . S
H1074 C1054 0.929 . S
H1075 C1056 0.930 . S
H1076 C1058 0.932 . S
H1077 C1059 0.929 . S
H1078 C1060 0.928 . S
H1079 C1062 0.932 . S
C1080 C1081 1.264 . S
C1080 C1085 1.479 . S
C1080 C1090 1.465 . S
C1081 C1080 1.264 . S
C1081 C1083 1.339 . S
C1081 H1108 0.931 . S
C1082 C1083 1.395 . S
C1082 C1084 1.320 . S
C1083 C1081 1.339 . S
C1083 C1082 1.395 . S
C1083 H1109 0.929 . S
C1084 C1082 1.320 . S
C1084 C1085 1.405 . S
C1084 H1110 0.930 . S
C1085 C1080 1.479 . S
C1085 C1084 1.405 . S
C1085 H1111 0.931 . S
U1086 O1087 2.454 . S
U1086 O1088 2.458 . S
U1086 C1089 2.984 . S
U1086 C1090 2.847 . S
U1086 C1103 2.882 . S
U1086 O1104 2.441 . S
U1086 O1105 2.420 . S
U1086 O1106 2.455 . S
U1086 O1107 2.449 . S
O1087 U1086 2.454 . S
O1087 C1089 1.353 . S
O1088 U1086 2.458 . S
O1088 C1089 1.286 . S
C1089 U1086 2.984 . S
C1089 O1087 1.353 . S
C1089 O1088 1.286 . S
C1089 C1091 1.363 . S
C1090 C1080 1.465 . S
C1090 U1086 2.847 . S
C1090 O1104 1.249 . S
C1090 O1105 1.202 . S
C1091 C1089 1.363 . S
C1091 C1093 1.408 . S
C1091 C1096 1.342 . S
C1092 C1093 1.310 . S
C1092 C1095 1.461 . S
C1092 H1112 0.932 . S
C1093 C1091 1.408 . S
C1093 C1092 1.310 . S
C1093 H1113 0.930 . S
C1094 C1095 1.474 . S
C1094 C1096 1.285 . S
C1094 H1114 0.929 . S
C1095 C1092 1.461 . S
C1095 C1094 1.474 . S
C1096 C1091 1.342 . S
C1096 C1094 1.285 . S
C1096 H1115 0.930 . S
C1097 C1100 1.424 . S
C1097 C1102 1.245 . S
C1097 C1103 1.428 . S
C1098 C1101 1.260 . S
C1098 C1102 1.477 . S
C1098 H1116 0.932 . S
C1099 C1100 1.384 . S
C1099 C1101 1.479 . S
C1099 H1117 0.929 . S
C1100 C1097 1.424 . S
C1100 C1099 1.384 . S
C1100 H1118 0.928 . S
C1101 C1098 1.260 . S
C1101 C1099 1.479 . S
C1102 C1097 1.245 . S
C1102 C1098 1.477 . S
C1102 H1119 0.932 . S
C1103 U1086 2.882 . S
C1103 C1097 1.428 . S
C1103 O1106 1.301 . S
C1103 O1107 1.282 . S
O1104 U1086 2.441 . S
O1104 C1090 1.249 . S
O1105 U1086 2.420 . S
O1105 C1090 1.202 . S
O1106 U1086 2.455 . S
O1106 C1103 1.301 . S
O1107 U1086 2.449 . S
O1107 C1103 1.282 . S
H1108 C1081 0.931 . S
H1109 C1083 0.929 . S
H1110 C1084 0.930 . S
H1111 C1085 0.931 . S
H1112 C1092 0.932 . S
H1113 C1093 0.930 . S
H1114 C1094 0.929 . S
H1115 C1096 0.930 . S
H1116 C1098 0.932 . S
H1117 C1099 0.929 . S
H1118 C1100 0.928 . S
H1119 C1102 0.932 . S
C1120 C1121 1.264 . S
C1120 C1125 1.479 . S
C1120 C1130 1.465 . S
C1121 C1120 1.264 . S
C1121 C1123 1.339 . S
C1121 H1148 0.931 . S
C1122 C1123 1.395 . S
C1122 C1124 1.320 . S
C1123 C1121 1.339 . S
C1123 C1122 1.395 . S
C1123 H1149 0.929 . S
C1124 C1122 1.320 . S
C1124 C1125 1.405 . S
C1124 H1150 0.930 . S
C1125 C1120 1.479 . S
C1125 C1124 1.405 . S
C1125 H1151 0.931 . S
U1126 O1127 2.454 . S
U1126 O1128 2.458 . S
U1126 C1129 2.984 . S
U1126 C1130 2.847 . S
U1126 C1143 2.882 . S
U1126 O1144 2.441 . S
U1126 O1145 2.420 . S
U1126 O1146 2.455 . S
U1126 O1147 2.449 . S
O1127 U1126 2.454 . S
O1127 C1129 1.353 . S
O1128 U1126 2.458 . S
O1128 C1129 1.286 . S
C1129 U1126 2.984 . S
C1129 O1127 1.353 . S
C1129 O1128 1.286 . S
C1129 C1131 1.363 . S
C1130 C1120 1.465 . S
C1130 U1126 2.847 . S
C1130 O1144 1.249 . S
C1130 O1145 1.202 . S
C1131 C1129 1.363 . S
C1131 C1133 1.408 . S
C1131 C1136 1.342 . S
C1132 C1133 1.310 . S
C1132 C1135 1.461 . S
C1132 H1152 0.932 . S
C1133 C1131 1.408 . S
C1133 C1132 1.310 . S
C1133 H1153 0.930 . S
C1134 C1135 1.474 . S
C1134 C1136 1.285 . S
C1134 H1154 0.929 . S
C1135 C1132 1.461 . S
C1135 C1134 1.474 . S
C1136 C1131 1.342 . S
C1136 C1134 1.285 . S
C1136 H1155 0.930 . S
C1137 C1140 1.424 . S
C1137 C1142 1.245 . S
C1137 C1143 1.428 . S
C1138 C1141 1.260 . S
C1138 C1142 1.477 . S
C1138 H1156 0.932 . S
C1139 C1140 1.384 . S
C1139 C1141 1.479 . S
C1139 H1157 0.929 . S
C1140 C1137 1.424 . S
C1140 C1139 1.384 . S
C1140 H1158 0.928 . S
C1141 C1138 1.260 . S
C1141 C1139 1.479 . S
C1142 C1137 1.245 . S
C1142 C1138 1.477 . S
C1142 H1159 0.932 . S
C1143 U1126 2.882 . S
C1143 C1137 1.428 . S
C1143 O1146 1.301 . S
C1143 O1147 1.282 . S
O1144 U1126 2.441 . S
O1144 C1130 1.249 . S
O1145 U1126 2.420 . S
O1145 C1130 1.202 . S
O1146 U1126 2.455 . S
O1146 C1143 1.301 . S
O1147 U1126 2.449 . S
O1147 C1143 1.282 . S
H1148 C1121 0.931 . S
H1149 C1123 0.929 . S
H1150 C1124 0.930 . S
H1151 C1125 0.931 . S
H1152 C1132 0.932 . S
H1153 C1133 0.930 . S
H1154 C1134 0.929 . S
H1155 C1136 0.930 . S
H1156 C1138 0.932 . S
H1157 C1139 0.929 . S
H1158 C1140 0.928 . S
H1159 C1142 0.932 . S
C1160 C1161 1.264 . S
C1160 C1165 1.479 . S
C1160 C1170 1.465 . S
C1161 C1160 1.264 . S
C1161 C1163 1.339 . S
C1161 H1188 0.931 . S
C1162 C1163 1.395 . S
C1162 C1164 1.320 . S
C1163 C1161 1.339 . S
C1163 C1162 1.395 . S
C1163 H1189 0.929 . S
C1164 C1162 1.320 . S
C1164 C1165 1.405 . S
C1164 H1190 0.930 . S
C1165 C1160 1.479 . S
C1165 C1164 1.405 . S
C1165 H1191 0.931 . S
U1166 O1167 2.454 . S
U1166 O1168 2.458 . S
U1166 C1169 2.984 . S
U1166 C1170 2.847 . S
U1166 C1183 2.882 . S
U1166 O1184 2.441 . S
U1166 O1185 2.420 . S
U1166 O1186 2.455 . S
U1166 O1187 2.449 . S
O1167 U1166 2.454 . S
O1167 C1169 1.353 . S
O1168 U1166 2.458 . S
O1168 C1169 1.286 . S
C1169 U1166 2.984 . S
C1169 O1167 1.353 . S
C1169 O1168 1.286 . S
C1169 C1171 1.363 . S
C1170 C1160 1.465 . S
C1170 U1166 2.847 . S
C1170 O1184 1.249 . S
C1170 O1185 1.202 . S
C1171 C1169 1.363 . S
C1171 C1173 1.408 . S
C1171 C1176 1.342 . S
C1172 C1173 1.310 . S
C1172 C1175 1.461 . S
C1172 H1192 0.932 . S
C1173 C1171 1.408 . S
C1173 C1172 1.310 . S
C1173 H1193 0.930 . S
C1174 C1175 1.474 . S
C1174 C1176 1.285 . S
C1174 H1194 0.929 . S
C1175 C1172 1.461 . S
C1175 C1174 1.474 . S
C1176 C1171 1.342 . S
C1176 C1174 1.285 . S
C1176 H1195 0.930 . S
C1177 C1180 1.424 . S
C1177 C1182 1.245 . S
C1177 C1183 1.428 . S
C1178 C1181 1.260 . S
C1178 C1182 1.477 . S
C1178 H1196 0.932 . S
C1179 C1180 1.384 . S
C1179 C1181 1.479 . S
C1179 H1197 0.929 . S
C1180 C1177 1.424 . S
C1180 C1179 1.384 . S
C1180 H1198 0.928 . S
C1181 C1178 1.260 . S
C1181 C1179 1.479 . S
C1182 C1177 1.245 . S
C1182 C1178 1.477 . S
C1182 H1199 0.932 . S
C1183 U1166 2.882 . S
C1183 C1177 1.428 . S
C1183 O1186 1.301 . S
C1183 O1187 1.282 . S
O1184 U1166 2.441 . S
O1184 C1170 1.249 . S
O1185 U1166 2.420 . S
O1185 C1170 1.202 . S
O1186 U1166 2.455 . S
O1186 C1183 1.301 . S
O1187 U1166 2.449 . S
O1187 C1183 1.282 . S
H1188 C1161 0.931 . S
H1189 C1163 0.929 . S
H1190 C1164 0.930 . S
H1191 C1165 0.931 . S
H1192 C1172 0.932 . S
H1193 C1173 0.930 . S
H1194 C1174 0.929 . S
H1195 C1176 0.930 . S
H1196 C1178 0.932 . S
H1197 C1179 0.929 . S
H1198 C1180 0.928 . S
H1199 C1182 0.932 . S
C1200 C1201 1.264 . S
C1200 C1205 1.479 . S
C1200 C1210 1.465 . S
C1201 C1200 1.264 . S
C1201 C1203 1.339 . S
C1201 H1228 0.931 . S
C1202 C1203 1.395 . S
C1202 C1204 1.320 . S
C1203 C1201 1.339 . S
C1203 C1202 1.395 . S
C1203 H1229 0.929 . S
C1204 C1202 1.320 . S
C1204 C1205 1.405 . S
C1204 H1230 0.930 . S
C1205 C1200 1.479 . S
C1205 C1204 1.405 . S
C1205 H1231 0.931 . S
U1206 O1207 2.454 . S
U1206 O1208 2.458 . S
U1206 C1209 2.984 . S
U1206 C1210 2.847 . S
U1206 C1223 2.882 . S
U1206 O1224 2.441 . S
U1206 O1225 2.420 . S
U1206 O1226 2.455 . S
U1206 O1227 2.449 . S
O1207 U1206 2.454 . S
O1207 C1209 1.353 . S
O1208 U1206 2.458 . S
O1208 C1209 1.286 . S
C1209 U1206 2.984 . S
C1209 O1207 1.353 . S
C1209 O1208 1.286 . S
C1209 C1211 1.363 . S
C1210 C1200 1.465 . S
C1210 U1206 2.847 . S
C1210 O1224 1.249 . S
C1210 O1225 1.202 . S
C1211 C1209 1.363 . S
C1211 C1213 1.408 . S
C1211 C1216 1.342 . S
C1212 C1213 1.310 . S
C1212 C1215 1.461 . S
C1212 H1232 0.932 . S
C1213 C1211 1.408 . S
C1213 C1212 1.310 . S
C1213 H1233 0.930 . S
C1214 C1215 1.474 . S
C1214 C1216 1.285 . S
C1214 H1234 0.929 . S
C1215 C1212 1.461 . S
C1215 C1214 1.474 . S
C1216 C1211 1.342 . S
C1216 C1214 1.285 . S
C1216 H1235 0.930 . S
C1217 C1220 1.424 . S
C1217 C1222 1.245 . S
C1217 C1223 1.428 . S
C1218 C1221 1.260 . S
C1218 C1222 1.477 . S
C1218 H1236 0.932 . S
C1219 C1220 1.384 . S
C1219 C1221 1.479 . S
C1219 H1237 0.929 . S
C1220 C1217 1.424 . S
C1220 C1219 1.384 . S
C1220 H1238 0.928 . S
C1221 C1218 1.260 . S
C1221 C1219 1.479 . S
C1222 C1217 1.245 . S
C1222 C1218 1.477 . S
C1222 H1239 0.932 . S
C1223 U1206 2.882 . S
C1223 C1217 1.428 . S
C1223 O1226 1.301 . S
C1223 O1227 1.282 . S
O1224 U1206 2.441 . S
O1224 C1210 1.249 . S
O1225 U1206 2.420 . S
O1225 C1210 1.202 . S
O1226 U1206 2.455 . S
O1226 C1223 1.301 . S
O1227 U1206 2.449 . S
O1227 C1223 1.282 . S
H1228 C1201 0.931 . S
H1229 C1203 0.929 . S
H1230 C1204 0.930 . S
H1231 C1205 0.931 . S
H1232 C1212 0.932 . S
H1233 C1213 0.930 . S
H1234 C1214 0.929 . S
H1235 C1216 0.930 . S
H1236 C1218 0.932 . S
H1237 C1219 0.929 . S
H1238 C1220 0.928 . S
H1239 C1222 0.932 . S
C1240 C1241 1.264 . S
C1240 C1245 1.479 . S
C1240 C1250 1.465 . S
C1241 C1240 1.264 . S
C1241 C1243 1.339 . S
C1241 H1268 0.931 . S
C1242 C1243 1.395 . S
C1242 C1244 1.320 . S
C1243 C1241 1.339 . S
C1243 C1242 1.395 . S
C1243 H1269 0.929 . S
C1244 C1242 1.320 . S
C1244 C1245 1.405 . S
C1244 H1270 0.930 . S
C1245 C1240 1.479 . S
C1245 C1244 1.405 . S
C1245 H1271 0.931 . S
U1246 O1247 2.454 . S
U1246 O1248 2.458 . S
U1246 C1249 2.984 . S
U1246 C1250 2.847 . S
U1246 C1263 2.882 . S
U1246 O1264 2.441 . S
U1246 O1265 2.420 . S
U1246 O1266 2.455 . S
U1246 O1267 2.449 . S
O1247 U1246 2.454 . S
O1247 C1249 1.353 . S
O1248 U1246 2.458 . S
O1248 C1249 1.286 . S
C1249 U1246 2.984 . S
C1249 O1247 1.353 . S
C1249 O1248 1.286 . S
C1249 C1251 1.363 . S
C1250 C1240 1.465 . S
C1250 U1246 2.847 . S
C1250 O1264 1.249 . S
C1250 O1265 1.202 . S
C1251 C1249 1.363 . S
C1251 C1253 1.408 . S
C1251 C1256 1.342 . S
C1252 C1253 1.310 . S
C1252 C1255 1.461 . S
C1252 H1272 0.932 . S
C1253 C1251 1.408 . S
C1253 C1252 1.310 . S
C1253 H1273 0.930 . S
C1254 C1255 1.474 . S
C1254 C1256 1.285 . S
C1254 H1274 0.929 . S
C1255 C1252 1.461 . S
C1255 C1254 1.474 . S
C1256 C1251 1.342 . S
C1256 C1254 1.285 . S
C1256 H1275 0.930 . S
C1257 C1260 1.424 . S
C1257 C1262 1.245 . S
C1257 C1263 1.428 . S
C1258 C1261 1.260 . S
C1258 C1262 1.477 . S
C1258 H1276 0.932 . S
C1259 C1260 1.384 . S
C1259 C1261 1.479 . S
C1259 H1277 0.929 . S
C1260 C1257 1.424 . S
C1260 C1259 1.384 . S
C1260 H1278 0.928 . S
C1261 C1258 1.260 . S
C1261 C1259 1.479 . S
C1262 C1257 1.245 . S
C1262 C1258 1.477 . S
C1262 H1279 0.932 . S
C1263 U1246 2.882 . S
C1263 C1257 1.428 . S
C1263 O1266 1.301 . S
C1263 O1267 1.282 . S
O1264 U1246 2.441 . S
O1264 C1250 1.249 . S
O1265 U1246 2.420 . S
O1265 C1250 1.202 . S
O1266 U1246 2.455 . S
O1266 C1263 1.301 . S
O1267 U1246 2.449 . S
O1267 C1263 1.282 . S
H1268 C1241 0.931 . S
H1269 C1243 0.929 . S
H1270 C1244 0.930 . S
H1271 C1245 0.931 . S
H1272 C1252 0.932 . S
H1273 C1253 0.930 . S
H1274 C1254 0.929 . S
H1275 C1256 0.930 . S
H1276 C1258 0.932 . S
H1277 C1259 0.929 . S
H1278 C1260 0.928 . S
H1279 C1262 0.932 . S
C1280 C1281 1.560 . S
C1280 H1341 0.959 . S
C1280 H1342 0.959 . S
C1280 H1343 0.960 . S
C1281 C1280 1.560 . S
C1281 O1336 1.426 . S
C1281 H1340 0.980 . S
C1282 C1283 1.407 . S
C1282 C1287 1.418 . S
C1282 O1336 1.334 . S
C1283 C1282 1.407 . S
C1283 C1284 1.360 . S
C1283 H1344 0.929 . S
C1284 C1283 1.360 . S
C1284 C1285 1.401 . S
C1284 C1288 1.527 . S
C1285 C1284 1.401 . S
C1285 C1286 1.405 . S
C1285 C1318 1.587 . S
C1286 C1285 1.405 . S
C1286 C1287 1.332 . S
C1286 C1289 1.496 . S
C1287 C1282 1.418 . S
C1287 C1286 1.332 . S
C1287 H1345 0.929 . S
C1288 C1284 1.527 . S
C1288 H1346 0.959 . S
C1288 H1347 0.961 . S
C1288 H1348 0.961 . S
C1289 C1286 1.496 . S
C1289 H1349 0.960 . S
C1289 H1350 0.960 . S
C1289 H1351 0.961 . S
C1290 C1291 1.517 . S
C1290 H1353 0.961 . S
C1290 H1354 0.960 . S
C1290 H1355 0.959 . S
C1291 C1290 1.517 . S
C1291 O1339 1.468 . S
C1291 H1352 0.980 . S
C1292 C1293 1.349 . S
C1292 C1297 1.367 . S
C1292 O1339 1.408 . S
C1293 C1292 1.349 . S
C1293 C1294 1.407 . S
C1293 H1356 0.930 . S
C1294 C1293 1.407 . S
C1294 C1295 1.449 . S
C1294 C1298 1.535 . S
C1295 C1294 1.449 . S
C1295 C1296 1.384 . S
C1295 C1320 1.553 . S
C1296 C1295 1.384 . S
C1296 C1297 1.364 . S
C1296 C1299 1.450 . S
C1297 C1292 1.367 . S
C1297 C1296 1.364 . S
C1297 H1357 0.931 . S
C1298 C1294 1.535 . S
C1298 H1358 0.959 . S
C1298 H1359 0.961 . S
C1298 H1360 0.959 . S
C1299 C1296 1.450 . S
C1299 H1361 0.960 . S
C1299 H1362 0.960 . S
C1299 H1363 0.960 . S
C1300 C1301 1.309 . S
C1300 C1305 1.304 . S
C1300 O1338 1.435 . S
C1301 C1300 1.309 . S
C1301 C1302 1.476 . S
C1301 H1365 0.930 . S
C1302 C1301 1.476 . S
C1302 C1303 1.400 . S
C1302 C1306 1.567 . S
C1303 C1302 1.400 . S
C1303 C1304 1.373 . S
C1303 C1325 1.432 . S
C1304 C1303 1.373 . S
C1304 C1305 1.339 . S
C1304 C1307 1.530 . S
C1305 C1300 1.304 . S
C1305 C1304 1.339 . S
C1305 H1366 0.930 . S
C1306 C1302 1.567 . S
C1306 H1367 0.961 . S
C1306 H1368 0.960 . S
C1306 H1369 0.958 . S
C1307 C1304 1.530 . S
C1307 H1370 0.961 . S
C1307 H1371 0.960 . S
C1307 H1372 0.960 . S
C1308 C1309 1.530 . S
C1308 H1374 0.961 . S
C1308 H1375 0.961 . S
C1308 H1376 0.959 . S
C1309 C1308 1.530 . S
C1309 O1337 1.412 . S
C1309 H1373 0.980 . S
C1310 C1311 1.288 . S
C1310 C1315 1.377 . S
C1310 O1337 1.393 . S
C1311 C1310 1.288 . S
C1311 C1312 1.369 . S
C1311 H1377 0.932 . S
C1312 C1311 1.369 . S
C1312 C1313 1.398 . S
C1312 C1316 1.527 . S
C1313 C1312 1.398 . S
C1313 C1314 1.380 . S
C1313 C1327 1.497 . S
C1314 C1313 1.380 . S
C1314 C1315 1.383 . S
C1314 C1317 1.603 . S
C1315 C1310 1.377 . S
C1315 C1314 1.383 . S
C1315 H1378 0.929 . S
C1316 C1312 1.527 . S
C1316 H1379 0.961 . S
C1316 H1380 0.959 . S
C1316 H1381 0.959 . S
C1317 C1314 1.603 . S
C1317 H1382 0.960 . S
C1317 H1383 0.962 . S
C1317 H1384 0.961 . S
C1318 C1285 1.587 . S
C1318 C1319 1.360 . S
C1318 C1331 1.412 . S
C1319 C1318 1.360 . S
C1319 C1320 1.365 1_554 S
C1319 H1385 0.929 . S
C1320 C1295 1.553 . S
C1320 C1319 1.365 1_556 S
C1320 C1321 1.404 . S
C1321 C1320 1.404 . S
C1321 C1322 1.395 . S
C1321 C1332 1.451 1_556 S
C1322 C1321 1.395 . S
C1322 C1323 1.322 . S
C1322 H1386 0.930 . S
C1323 C1322 1.322 . S
C1323 C1324 1.459 . S
C1323 H1387 0.929 . S
C1324 C1323 1.459 . S
C1324 C1325 1.445 . S
C1324 C1333 1.395 1_556 S
C1325 C1303 1.432 . S
C1325 C1324 1.445 . S
C1325 C1326 1.370 1_556 S
C1326 C1325 1.370 1_554 S
C1326 C1327 1.438 . S
C1326 H1388 0.930 . S
C1327 C1313 1.497 . S
C1327 C1326 1.438 . S
C1327 C1328 1.360 . S
C1328 C1327 1.360 . S
C1328 C1329 1.401 . S
C1328 C1333 1.446 . S
C1329 C1328 1.401 . S
C1329 C1330 1.347 . S
C1329 H1389 0.929 . S
C1330 C1329 1.347 . S
C1330 C1331 1.455 . S
C1330 H1390 0.930 . S
C1331 C1318 1.412 . S
C1331 C1330 1.455 . S
C1331 C1332 1.331 . S
C1332 C1321 1.451 1_554 S
C1332 C1331 1.331 . S
C1332 C1333 1.497 . S
C1333 C1324 1.395 1_554 S
C1333 C1328 1.446 . S
C1333 C1332 1.497 . S
C1334 C1335 1.582 . S
C1334 H1391 0.962 . S
C1334 H1392 0.959 . S
C1334 H1393 0.958 . S
C1335 C1334 1.582 . S
C1335 O1338 1.458 . S
C1335 H1364 0.980 . S
O1336 C1281 1.426 . S
O1336 C1282 1.334 . S
O1337 C1309 1.412 . S
O1337 C1310 1.393 . S
O1338 C1300 1.435 . S
O1338 C1335 1.458 . S
O1339 C1291 1.468 . S
O1339 C1292 1.408 . S
H1340 C1281 0.980 . S
H1341 C1280 0.959 . S
H1342 C1280 0.959 . S
H1343 C1280 0.960 . S
H1344 C1283 0.929 . S
H1345 C1287 0.929 . S
H1346 C1288 0.959 . S
H1347 C1288 0.961 . S
H1348 C1288 0.961 . S
H1349 C1289 0.960 . S
H1350 C1289 0.960 . S
H1351 C1289 0.961 . S
H1352 C1291 0.980 . S
H1353 C1290 0.961 . S
H1354 C1290 0.960 . S
H1355 C1290 0.959 . S
H1356 C1293 0.930 . S
H1357 C1297 0.931 . S
H1358 C1298 0.959 . S
H1359 C1298 0.961 . S
H1360 C1298 0.959 . S
H1361 C1299 0.960 . S
H1362 C1299 0.960 . S
H1363 C1299 0.960 . S
H1364 C1335 0.980 . S
H1365 C1301 0.930 . S
H1366 C1305 0.930 . S
H1367 C1306 0.961 . S
H1368 C1306 0.960 . S
H1369 C1306 0.958 . S
H1370 C1307 0.961 . S
H1371 C1307 0.960 . S
H1372 C1307 0.960 . S
H1373 C1309 0.980 . S
H1374 C1308 0.961 . S
H1375 C1308 0.961 . S
H1376 C1308 0.959 . S
H1377 C1311 0.932 . S
H1378 C1315 0.929 . S
H1379 C1316 0.961 . S
H1380 C1316 0.959 . S
H1381 C1316 0.959 . S
H1382 C1317 0.960 . S
H1383 C1317 0.962 . S
H1384 C1317 0.961 . S
H1385 C1319 0.929 . S
H1386 C1322 0.930 . S
H1387 C1323 0.929 . S
H1388 C1326 0.930 . S
H1389 C1329 0.929 . S
H1390 C1330 0.930 . S
H1391 C1334 0.962 . S
H1392 C1334 0.959 . S
H1393 C1334 0.958 . S
C1394 C1395 1.560 . S
C1394 H1455 0.959 . S
C1394 H1456 0.959 . S
C1394 H1457 0.960 . S
C1395 C1394 1.560 . S
C1395 O1450 1.426 . S
C1395 H1454 0.980 . S
C1396 C1397 1.407 . S
C1396 C1401 1.418 . S
C1396 O1450 1.334 . S
C1397 C1396 1.407 . S
C1397 C1398 1.360 . S
C1397 H1458 0.929 . S
C1398 C1397 1.360 . S
C1398 C1399 1.401 . S
C1398 C1402 1.527 . S
C1399 C1398 1.401 . S
C1399 C1400 1.405 . S
C1399 C1432 1.587 . S
C1400 C1399 1.405 . S
C1400 C1401 1.332 . S
C1400 C1403 1.496 . S
C1401 C1396 1.418 . S
C1401 C1400 1.332 . S
C1401 H1459 0.929 . S
C1402 C1398 1.527 . S
C1402 H1460 0.959 . S
C1402 H1461 0.961 . S
C1402 H1462 0.961 . S
C1403 C1400 1.496 . S
C1403 H1463 0.960 . S
C1403 H1464 0.960 . S
C1403 H1465 0.961 . S
C1404 C1405 1.517 . S
C1404 H1467 0.961 . S
C1404 H1468 0.960 . S
C1404 H1469 0.959 . S
C1405 C1404 1.517 . S
C1405 O1453 1.468 . S
C1405 H1466 0.980 . S
C1406 C1407 1.349 . S
C1406 C1411 1.367 . S
C1406 O1453 1.408 . S
C1407 C1406 1.349 . S
C1407 C1408 1.407 . S
C1407 H1470 0.930 . S
C1408 C1407 1.407 . S
C1408 C1409 1.449 . S
C1408 C1412 1.535 . S
C1409 C1408 1.449 . S
C1409 C1410 1.384 . S
C1409 C1434 1.553 . S
C1410 C1409 1.384 . S
C1410 C1411 1.364 . S
C1410 C1413 1.450 . S
C1411 C1406 1.367 . S
C1411 C1410 1.364 . S
C1411 H1471 0.931 . S
C1412 C1408 1.535 . S
C1412 H1472 0.959 . S
C1412 H1473 0.961 . S
C1412 H1474 0.959 . S
C1413 C1410 1.450 . S
C1413 H1475 0.960 . S
C1413 H1476 0.960 . S
C1413 H1477 0.960 . S
C1414 C1415 1.309 . S
C1414 C1419 1.304 . S
C1414 O1452 1.435 . S
C1415 C1414 1.309 . S
C1415 C1416 1.476 . S
C1415 H1479 0.930 . S
C1416 C1415 1.476 . S
C1416 C1417 1.400 . S
C1416 C1420 1.567 . S
C1417 C1416 1.400 . S
C1417 C1418 1.373 . S
C1417 C1439 1.432 . S
C1418 C1417 1.373 . S
C1418 C1419 1.339 . S
C1418 C1421 1.530 . S
C1419 C1414 1.304 . S
C1419 C1418 1.339 . S
C1419 H1480 0.930 . S
C1420 C1416 1.567 . S
C1420 H1481 0.961 . S
C1420 H1482 0.960 . S
C1420 H1483 0.958 . S
C1421 C1418 1.530 . S
C1421 H1484 0.961 . S
C1421 H1485 0.960 . S
C1421 H1486 0.960 . S
C1422 C1423 1.530 . S
C1422 H1488 0.961 . S
C1422 H1489 0.961 . S
C1422 H1490 0.959 . S
C1423 C1422 1.530 . S
C1423 O1451 1.412 . S
C1423 H1487 0.980 . S
C1424 C1425 1.288 . S
C1424 C1429 1.377 . S
C1424 O1451 1.393 . S
C1425 C1424 1.288 . S
C1425 C1426 1.369 . S
C1425 H1491 0.932 . S
C1426 C1425 1.369 . S
C1426 C1427 1.398 . S
C1426 C1430 1.527 . S
C1427 C1426 1.398 . S
C1427 C1428 1.380 . S
C1427 C1441 1.497 . S
C1428 C1427 1.380 . S
C1428 C1429 1.383 . S
C1428 C1431 1.603 . S
C1429 C1424 1.377 . S
C1429 C1428 1.383 . S
C1429 H1492 0.929 . S
C1430 C1426 1.527 . S
C1430 H1493 0.961 . S
C1430 H1494 0.959 . S
C1430 H1495 0.959 . S
C1431 C1428 1.603 . S
C1431 H1496 0.960 . S
C1431 H1497 0.962 . S
C1431 H1498 0.961 . S
C1432 C1399 1.587 . S
C1432 C1433 1.360 1_556 S
C1432 C1445 1.412 . S
C1433 C1432 1.360 1_554 S
C1433 C1434 1.365 . S
C1433 H1499 0.929 . S
C1434 C1409 1.553 . S
C1434 C1433 1.365 . S
C1434 C1435 1.404 . S
C1435 C1434 1.404 . S
C1435 C1436 1.395 . S
C1435 C1446 1.451 . S
C1436 C1435 1.395 . S
C1436 C1437 1.322 . S
C1436 H1500 0.930 . S
C1437 C1436 1.322 . S
C1437 C1438 1.459 . S
C1437 H1501 0.929 . S
C1438 C1437 1.459 . S
C1438 C1439 1.445 . S
C1438 C1447 1.395 . S
C1439 C1417 1.432 . S
C1439 C1438 1.445 . S
C1439 C1440 1.370 . S
C1440 C1439 1.370 . S
C1440 C1441 1.438 1_554 S
C1440 H1502 0.930 . S
C1441 C1427 1.497 . S
C1441 C1440 1.438 1_556 S
C1441 C1442 1.360 . S
C1442 C1441 1.360 . S
C1442 C1443 1.401 . S
C1442 C1447 1.446 1_556 S
C1443 C1442 1.401 . S
C1443 C1444 1.347 . S
C1443 H1503 0.929 . S
C1444 C1443 1.347 . S
C1444 C1445 1.455 . S
C1444 H1504 0.930 . S
C1445 C1432 1.412 . S
C1445 C1444 1.455 . S
C1445 C1446 1.331 1_556 S
C1446 C1435 1.451 . S
C1446 C1445 1.331 1_554 S
C1446 C1447 1.497 . S
C1447 C1438 1.395 . S
C1447 C1442 1.446 1_554 S
C1447 C1446 1.497 . S
C1448 C1449 1.582 . S
C1448 H1505 0.962 . S
C1448 H1506 0.959 . S
C1448 H1507 0.958 . S
C1449 C1448 1.582 . S
C1449 O1452 1.458 . S
C1449 H1478 0.980 . S
O1450 C1395 1.426 . S
O1450 C1396 1.334 . S
O1451 C1423 1.412 . S
O1451 C1424 1.393 . S
O1452 C1414 1.435 . S
O1452 C1449 1.458 . S
O1453 C1405 1.468 . S
O1453 C1406 1.408 . S
H1454 C1395 0.980 . S
H1455 C1394 0.959 . S
H1456 C1394 0.959 . S
H1457 C1394 0.960 . S
H1458 C1397 0.929 . S
H1459 C1401 0.929 . S
H1460 C1402 0.959 . S
H1461 C1402 0.961 . S
H1462 C1402 0.961 . S
H1463 C1403 0.960 . S
H1464 C1403 0.960 . S
H1465 C1403 0.961 . S
H1466 C1405 0.980 . S
H1467 C1404 0.961 . S
H1468 C1404 0.960 . S
H1469 C1404 0.959 . S
H1470 C1407 0.930 . S
H1471 C1411 0.931 . S
H1472 C1412 0.959 . S
H1473 C1412 0.961 . S
H1474 C1412 0.959 . S
H1475 C1413 0.960 . S
H1476 C1413 0.960 . S
H1477 C1413 0.960 . S
H1478 C1449 0.980 . S
H1479 C1415 0.930 . S
H1480 C1419 0.930 . S
H1481 C1420 0.961 . S
H1482 C1420 0.960 . S
H1483 C1420 0.958 . S
H1484 C1421 0.961 . S
H1485 C1421 0.960 . S
H1486 C1421 0.960 . S
H1487 C1423 0.980 . S
H1488 C1422 0.961 . S
H1489 C1422 0.961 . S
H1490 C1422 0.959 . S
H1491 C1425 0.932 . S
H1492 C1429 0.929 . S
H1493 C1430 0.961 . S
H1494 C1430 0.959 . S
H1495 C1430 0.959 . S
H1496 C1431 0.960 . S
H1497 C1431 0.962 . S
H1498 C1431 0.961 . S
H1499 C1433 0.929 . S
H1500 C1436 0.930 . S
H1501 C1437 0.929 . S
H1502 C1440 0.930 . S
H1503 C1443 0.929 . S
H1504 C1444 0.930 . S
H1505 C1448 0.962 . S
H1506 C1448 0.959 . S
H1507 C1448 0.958 . S
C1508 C1509 1.560 . S
C1508 H1569 0.959 . S
C1508 H1570 0.959 . S
C1508 H1571 0.960 . S
C1509 C1508 1.560 . S
C1509 O1564 1.426 . S
C1509 H1568 0.980 . S
C1510 C1511 1.407 . S
C1510 C1515 1.418 . S
C1510 O1564 1.334 . S
C1511 C1510 1.407 . S
C1511 C1512 1.360 . S
C1511 H1572 0.929 . S
C1512 C1511 1.360 . S
C1512 C1513 1.401 . S
C1512 C1516 1.527 . S
C1513 C1512 1.401 . S
C1513 C1514 1.405 . S
C1513 C1546 1.587 . S
C1514 C1513 1.405 . S
C1514 C1515 1.332 . S
C1514 C1517 1.496 . S
C1515 C1510 1.418 . S
C1515 C1514 1.332 . S
C1515 H1573 0.929 . S
C1516 C1512 1.527 . S
C1516 H1574 0.959 . S
C1516 H1575 0.961 . S
C1516 H1576 0.961 . S
C1517 C1514 1.496 . S
C1517 H1577 0.960 . S
C1517 H1578 0.960 . S
C1517 H1579 0.961 . S
C1518 C1519 1.517 . S
C1518 H1581 0.961 . S
C1518 H1582 0.960 . S
C1518 H1583 0.959 . S
C1519 C1518 1.517 . S
C1519 O1567 1.468 . S
C1519 H1580 0.980 . S
C1520 C1521 1.349 . S
C1520 C1525 1.367 . S
C1520 O1567 1.408 . S
C1521 C1520 1.349 . S
C1521 C1522 1.407 . S
C1521 H1584 0.930 . S
C1522 C1521 1.407 . S
C1522 C1523 1.449 . S
C1522 C1526 1.535 . S
C1523 C1522 1.449 . S
C1523 C1524 1.384 . S
C1523 C1548 1.553 . S
C1524 C1523 1.384 . S
C1524 C1525 1.364 . S
C1524 C1527 1.450 . S
C1525 C1520 1.367 . S
C1525 C1524 1.364 . S
C1525 H1585 0.931 . S
C1526 C1522 1.535 . S
C1526 H1586 0.959 . S
C1526 H1587 0.961 . S
C1526 H1588 0.959 . S
C1527 C1524 1.450 . S
C1527 H1589 0.960 . S
C1527 H1590 0.960 . S
C1527 H1591 0.960 . S
C1528 C1529 1.309 . S
C1528 C1533 1.304 . S
C1528 O1566 1.435 . S
C1529 C1528 1.309 . S
C1529 C1530 1.476 . S
C1529 H1593 0.930 . S
C1530 C1529 1.476 . S
C1530 C1531 1.400 . S
C1530 C1534 1.567 . S
C1531 C1530 1.400 . S
C1531 C1532 1.373 . S
C1531 C1553 1.432 . S
C1532 C1531 1.373 . S
C1532 C1533 1.339 . S
C1532 C1535 1.530 . S
C1533 C1528 1.304 . S
C1533 C1532 1.339 . S
C1533 H1594 0.930 . S
C1534 C1530 1.567 . S
C1534 H1595 0.961 . S
C1534 H1596 0.960 . S
C1534 H1597 0.958 . S
C1535 C1532 1.530 . S
C1535 H1598 0.961 . S
C1535 H1599 0.960 . S
C1535 H1600 0.960 . S
C1536 C1537 1.530 . S
C1536 H1602 0.961 . S
C1536 H1603 0.961 . S
C1536 H1604 0.959 . S
C1537 C1536 1.530 . S
C1537 O1565 1.412 . S
C1537 H1601 0.980 . S
C1538 C1539 1.288 . S
C1538 C1543 1.377 . S
C1538 O1565 1.393 . S
C1539 C1538 1.288 . S
C1539 C1540 1.369 . S
C1539 H1605 0.932 . S
C1540 C1539 1.369 . S
C1540 C1541 1.398 . S
C1540 C1544 1.527 . S
C1541 C1540 1.398 . S
C1541 C1542 1.380 . S
C1541 C1555 1.497 . S
C1542 C1541 1.380 . S
C1542 C1543 1.383 . S
C1542 C1545 1.603 . S
C1543 C1538 1.377 . S
C1543 C1542 1.383 . S
C1543 H1606 0.929 . S
C1544 C1540 1.527 . S
C1544 H1607 0.961 . S
C1544 H1608 0.959 . S
C1544 H1609 0.959 . S
C1545 C1542 1.603 . S
C1545 H1610 0.960 . S
C1545 H1611 0.962 . S
C1545 H1612 0.961 . S
C1546 C1513 1.587 . S
C1546 C1547 1.360 . S
C1546 C1559 1.412 . S
C1547 C1546 1.360 . S
C1547 C1548 1.365 1_554 S
C1547 H1613 0.929 . S
C1548 C1523 1.553 . S
C1548 C1547 1.365 1_556 S
C1548 C1549 1.404 . S
C1549 C1548 1.404 . S
C1549 C1550 1.395 . S
C1549 C1560 1.451 1_556 S
C1550 C1549 1.395 . S
C1550 C1551 1.322 . S
C1550 H1614 0.930 . S
C1551 C1550 1.322 . S
C1551 C1552 1.459 . S
C1551 H1615 0.929 . S
C1552 C1551 1.459 . S
C1552 C1553 1.445 . S
C1552 C1561 1.395 1_556 S
C1553 C1531 1.432 . S
C1553 C1552 1.445 . S
C1553 C1554 1.370 1_556 S
C1554 C1553 1.370 1_554 S
C1554 C1555 1.438 . S
C1554 H1616 0.930 . S
C1555 C1541 1.497 . S
C1555 C1554 1.438 . S
C1555 C1556 1.360 . S
C1556 C1555 1.360 . S
C1556 C1557 1.401 . S
C1556 C1561 1.446 . S
C1557 C1556 1.401 . S
C1557 C1558 1.347 . S
C1557 H1617 0.929 . S
C1558 C1557 1.347 . S
C1558 C1559 1.455 . S
C1558 H1618 0.930 . S
C1559 C1546 1.412 . S
C1559 C1558 1.455 . S
C1559 C1560 1.331 . S
C1560 C1549 1.451 1_554 S
C1560 C1559 1.331 . S
C1560 C1561 1.497 . S
C1561 C1552 1.395 1_554 S
C1561 C1556 1.446 . S
C1561 C1560 1.497 . S
C1562 C1563 1.582 . S
C1562 H1619 0.962 . S
C1562 H1620 0.959 . S
C1562 H1621 0.958 . S
C1563 C1562 1.582 . S
C1563 O1566 1.458 . S
C1563 H1592 0.980 . S
O1564 C1509 1.426 . S
O1564 C1510 1.334 . S
O1565 C1537 1.412 . S
O1565 C1538 1.393 . S
O1566 C1528 1.435 . S
O1566 C1563 1.458 . S
O1567 C1519 1.468 . S
O1567 C1520 1.408 . S
H1568 C1509 0.980 . S
H1569 C1508 0.959 . S
H1570 C1508 0.959 . S
H1571 C1508 0.960 . S
H1572 C1511 0.929 . S
H1573 C1515 0.929 . S
H1574 C1516 0.959 . S
H1575 C1516 0.961 . S
H1576 C1516 0.961 . S
H1577 C1517 0.960 . S
H1578 C1517 0.960 . S
H1579 C1517 0.961 . S
H1580 C1519 0.980 . S
H1581 C1518 0.961 . S
H1582 C1518 0.960 . S
H1583 C1518 0.959 . S
H1584 C1521 0.930 . S
H1585 C1525 0.931 . S
H1586 C1526 0.959 . S
H1587 C1526 0.961 . S
H1588 C1526 0.959 . S
H1589 C1527 0.960 . S
H1590 C1527 0.960 . S
H1591 C1527 0.960 . S
H1592 C1563 0.980 . S
H1593 C1529 0.930 . S
H1594 C1533 0.930 . S
H1595 C1534 0.961 . S
H1596 C1534 0.960 . S
H1597 C1534 0.958 . S
H1598 C1535 0.961 . S
H1599 C1535 0.960 . S
H1600 C1535 0.960 . S
H1601 C1537 0.980 . S
H1602 C1536 0.961 . S
H1603 C1536 0.961 . S
H1604 C1536 0.959 . S
H1605 C1539 0.932 . S
H1606 C1543 0.929 . S
H1607 C1544 0.961 . S
H1608 C1544 0.959 . S
H1609 C1544 0.959 . S
H1610 C1545 0.960 . S
H1611 C1545 0.962 . S
H1612 C1545 0.961 . S
H1613 C1547 0.929 . S
H1614 C1550 0.930 . S
H1615 C1551 0.929 . S
H1616 C1554 0.930 . S
H1617 C1557 0.929 . S
H1618 C1558 0.930 . S
H1619 C1562 0.962 . S
H1620 C1562 0.959 . S
H1621 C1562 0.958 . S
C1622 C1623 1.560 . S
C1622 H1683 0.959 . S
C1622 H1684 0.959 . S
C1622 H1685 0.960 . S
C1623 C1622 1.560 . S
C1623 O1678 1.426 . S
C1623 H1682 0.980 . S
C1624 C1625 1.407 . S
C1624 C1629 1.418 . S
C1624 O1678 1.334 . S
C1625 C1624 1.407 . S
C1625 C1626 1.360 . S
C1625 H1686 0.929 . S
C1626 C1625 1.360 . S
C1626 C1627 1.401 . S
C1626 C1630 1.527 . S
C1627 C1626 1.401 . S
C1627 C1628 1.405 . S
C1627 C1660 1.587 . S
C1628 C1627 1.405 . S
C1628 C1629 1.332 . S
C1628 C1631 1.496 . S
C1629 C1624 1.418 . S
C1629 C1628 1.332 . S
C1629 H1687 0.929 . S
C1630 C1626 1.527 . S
C1630 H1688 0.959 . S
C1630 H1689 0.961 . S
C1630 H1690 0.961 . S
C1631 C1628 1.496 . S
C1631 H1691 0.960 . S
C1631 H1692 0.960 . S
C1631 H1693 0.961 . S
C1632 C1633 1.517 . S
C1632 H1695 0.961 . S
C1632 H1696 0.960 . S
C1632 H1697 0.959 . S
C1633 C1632 1.517 . S
C1633 O1681 1.468 . S
C1633 H1694 0.980 . S
C1634 C1635 1.349 . S
C1634 C1639 1.367 . S
C1634 O1681 1.408 . S
C1635 C1634 1.349 . S
C1635 C1636 1.407 . S
C1635 H1698 0.930 . S
C1636 C1635 1.407 . S
C1636 C1637 1.449 . S
C1636 C1640 1.535 . S
C1637 C1636 1.449 . S
C1637 C1638 1.384 . S
C1637 C1662 1.553 . S
C1638 C1637 1.384 . S
C1638 C1639 1.364 . S
C1638 C1641 1.450 . S
C1639 C1634 1.367 . S
C1639 C1638 1.364 . S
C1639 H1699 0.931 . S
C1640 C1636 1.535 . S
C1640 H1700 0.959 . S
C1640 H1701 0.961 . S
C1640 H1702 0.959 . S
C1641 C1638 1.450 . S
C1641 H1703 0.960 . S
C1641 H1704 0.960 . S
C1641 H1705 0.960 . S
C1642 C1643 1.309 . S
C1642 C1647 1.304 . S
C1642 O1680 1.435 . S
C1643 C1642 1.309 . S
C1643 C1644 1.476 . S
C1643 H1707 0.930 . S
C1644 C1643 1.476 . S
C1644 C1645 1.400 . S
C1644 C1648 1.567 . S
C1645 C1644 1.400 . S
C1645 C1646 1.373 . S
C1645 C1667 1.432 . S
C1646 C1645 1.373 . S
C1646 C1647 1.339 . S
C1646 C1649 1.530 . S
C1647 C1642 1.304 . S
C1647 C1646 1.339 . S
C1647 H1708 0.930 . S
C1648 C1644 1.567 . S
C1648 H1709 0.961 . S
C1648 H1710 0.960 . S
C1648 H1711 0.958 . S
C1649 C1646 1.530 . S
C1649 H1712 0.961 . S
C1649 H1713 0.960 . S
C1649 H1714 0.960 . S
C1650 C1651 1.530 . S
C1650 H1716 0.961 . S
C1650 H1717 0.961 . S
C1650 H1718 0.959 . S
C1651 C1650 1.530 . S
C1651 O1679 1.412 . S
C1651 H1715 0.980 . S
C1652 C1653 1.288 . S
C1652 C1657 1.377 . S
C1652 O1679 1.393 . S
C1653 C1652 1.288 . S
C1653 C1654 1.369 . S
C1653 H1719 0.932 . S
C1654 C1653 1.369 . S
C1654 C1655 1.398 . S
C1654 C1658 1.527 . S
C1655 C1654 1.398 . S
C1655 C1656 1.380 . S
C1655 C1669 1.497 . S
C1656 C1655 1.380 . S
C1656 C1657 1.383 . S
C1656 C1659 1.603 . S
C1657 C1652 1.377 . S
C1657 C1656 1.383 . S
C1657 H1720 0.929 . S
C1658 C1654 1.527 . S
C1658 H1721 0.961 . S
C1658 H1722 0.959 . S
C1658 H1723 0.959 . S
C1659 C1656 1.603 . S
C1659 H1724 0.960 . S
C1659 H1725 0.962 . S
C1659 H1726 0.961 . S
C1660 C1627 1.587 . S
C1660 C1661 1.354 . S
C1660 C1673 1.412 . S
C1661 C1660 1.354 . S
C1661 C1662 1.371 1_556 S
C1661 H1727 0.929 . S
C1662 C1637 1.553 . S
C1662 C1661 1.371 1_554 S
C1662 C1663 1.404 . S
C1663 C1662 1.404 . S
C1663 C1664 1.395 . S
C1663 C1674 1.489 . S
C1664 C1663 1.395 . S
C1664 C1665 1.322 . S
C1664 H1728 0.930 . S
C1665 C1664 1.322 . S
C1665 C1666 1.459 . S
C1665 H1729 0.929 . S
C1666 C1665 1.459 . S
C1666 C1667 1.445 . S
C1666 C1675 1.395 . S
C1667 C1645 1.432 . S
C1667 C1666 1.445 . S
C1667 C1668 1.370 . S
C1668 C1667 1.370 . S
C1668 C1669 1.438 1_554 S
C1668 H1730 0.930 . S
C1669 C1655 1.497 . S
C1669 C1668 1.438 1_556 S
C1669 C1670 1.360 . S
C1670 C1669 1.360 . S
C1670 C1671 1.401 . S
C1670 C1675 1.446 1_556 S
C1671 C1670 1.401 . S
C1671 C1672 1.347 . S
C1671 H1731 0.929 . S
C1672 C1671 1.347 . S
C1672 C1673 1.455 . S
C1672 H1732 0.930 . S
C1673 C1660 1.412 . S
C1673 C1672 1.455 . S
C1673 C1674 1.293 1_556 S
C1674 C1663 1.489 . S
C1674 C1673 1.293 1_554 S
C1674 C1675 1.500 . S
C1675 C1666 1.395 . S
C1675 C1670 1.446 1_554 S
C1675 C1674 1.500 . S
C1676 C1677 1.582 . S
C1676 H1733 0.962 . S
C1676 H1734 0.959 . S
C1676 H1735 0.958 . S
C1677 C1676 1.582 . S
C1677 O1680 1.458 . S
C1677 H1706 0.980 . S
O1678 C1623 1.426 . S
O1678 C1624 1.334 . S
O1679 C1651 1.412 . S
O1679 C1652 1.393 . S
O1680 C1642 1.435 . S
O1680 C1677 1.458 . S
O1681 C1633 1.468 . S
O1681 C1634 1.408 . S
H1682 C1623 0.980 . S
H1683 C1622 0.959 . S
H1684 C1622 0.959 . S
H1685 C1622 0.960 . S
H1686 C1625 0.929 . S
H1687 C1629 0.929 . S
H1688 C1630 0.959 . S
H1689 C1630 0.961 . S
H1690 C1630 0.961 . S
H1691 C1631 0.960 . S
H1692 C1631 0.960 . S
H1693 C1631 0.961 . S
H1694 C1633 0.980 . S
H1695 C1632 0.961 . S
H1696 C1632 0.960 . S
H1697 C1632 0.959 . S
H1698 C1635 0.930 . S
H1699 C1639 0.931 . S
H1700 C1640 0.959 . S
H1701 C1640 0.961 . S
H1702 C1640 0.959 . S
H1703 C1641 0.960 . S
H1704 C1641 0.960 . S
H1705 C1641 0.960 . S
H1706 C1677 0.980 . S
H1707 C1643 0.930 . S
H1708 C1647 0.930 . S
H1709 C1648 0.961 . S
H1710 C1648 0.960 . S
H1711 C1648 0.958 . S
H1712 C1649 0.961 . S
H1713 C1649 0.960 . S
H1714 C1649 0.960 . S
H1715 C1651 0.980 . S
H1716 C1650 0.961 . S
H1717 C1650 0.961 . S
H1718 C1650 0.959 . S
H1719 C1653 0.932 . S
H1720 C1657 0.929 . S
H1721 C1658 0.961 . S
H1722 C1658 0.959 . S
H1723 C1658 0.959 . S
H1724 C1659 0.960 . S
H1725 C1659 0.962 . S
H1726 C1659 0.961 . S
H1727 C1661 0.929 . S
H1728 C1664 0.930 . S
H1729 C1665 0.929 . S
H1730 C1668 0.930 . S
H1731 C1671 0.929 . S
H1732 C1672 0.930 . S
H1733 C1676 0.962 . S
H1734 C1676 0.959 . S
H1735 C1676 0.958 . S
C1736 C1737 1.560 . S
C1736 H1797 0.959 . S
C1736 H1798 0.959 . S
C1736 H1799 0.960 . S
C1737 C1736 1.560 . S
C1737 O1792 1.426 . S
C1737 H1796 0.980 . S
C1738 C1739 1.407 . S
C1738 C1743 1.418 . S
C1738 O1792 1.334 . S
C1739 C1738 1.407 . S
C1739 C1740 1.360 . S
C1739 H1800 0.929 . S
C1740 C1739 1.360 . S
C1740 C1741 1.401 . S
C1740 C1744 1.527 . S
C1741 C1740 1.401 . S
C1741 C1742 1.405 . S
C1741 C1774 1.587 . S
C1742 C1741 1.405 . S
C1742 C1743 1.332 . S
C1742 C1745 1.496 . S
C1743 C1738 1.418 . S
C1743 C1742 1.332 . S
C1743 H1801 0.929 . S
C1744 C1740 1.527 . S
C1744 H1802 0.959 . S
C1744 H1803 0.961 . S
C1744 H1804 0.961 . S
C1745 C1742 1.496 . S
C1745 H1805 0.960 . S
C1745 H1806 0.960 . S
C1745 H1807 0.961 . S
C1746 C1747 1.517 . S
C1746 H1809 0.961 . S
C1746 H1810 0.960 . S
C1746 H1811 0.959 . S
C1747 C1746 1.517 . S
C1747 O1795 1.468 . S
C1747 H1808 0.980 . S
C1748 C1749 1.349 . S
C1748 C1753 1.367 . S
C1748 O1795 1.408 . S
C1749 C1748 1.349 . S
C1749 C1750 1.407 . S
C1749 H1812 0.930 . S
C1750 C1749 1.407 . S
C1750 C1751 1.449 . S
C1750 C1754 1.535 . S
C1751 C1750 1.449 . S
C1751 C1752 1.384 . S
C1751 C1776 1.553 . S
C1752 C1751 1.384 . S
C1752 C1753 1.364 . S
C1752 C1755 1.450 . S
C1753 C1748 1.367 . S
C1753 C1752 1.364 . S
C1753 H1813 0.931 . S
C1754 C1750 1.535 . S
C1754 H1814 0.959 . S
C1754 H1815 0.961 . S
C1754 H1816 0.959 . S
C1755 C1752 1.450 . S
C1755 H1817 0.960 . S
C1755 H1818 0.960 . S
C1755 H1819 0.960 . S
C1756 C1757 1.309 . S
C1756 C1761 1.304 . S
C1756 O1794 1.435 . S
C1757 C1756 1.309 . S
C1757 C1758 1.476 . S
C1757 H1821 0.930 . S
C1758 C1757 1.476 . S
C1758 C1759 1.400 . S
C1758 C1762 1.567 . S
C1759 C1758 1.400 . S
C1759 C1760 1.373 . S
C1759 C1781 1.432 . S
C1760 C1759 1.373 . S
C1760 C1761 1.339 . S
C1760 C1763 1.530 . S
C1761 C1756 1.304 . S
C1761 C1760 1.339 . S
C1761 H1822 0.930 . S
C1762 C1758 1.567 . S
C1762 H1823 0.961 . S
C1762 H1824 0.960 . S
C1762 H1825 0.958 . S
C1763 C1760 1.530 . S
C1763 H1826 0.961 . S
C1763 H1827 0.960 . S
C1763 H1828 0.960 . S
C1764 C1765 1.530 . S
C1764 H1830 0.961 . S
C1764 H1831 0.961 . S
C1764 H1832 0.959 . S
C1765 C1764 1.530 . S
C1765 O1793 1.412 . S
C1765 H1829 0.980 . S
C1766 C1767 1.288 . S
C1766 C1771 1.377 . S
C1766 O1793 1.393 . S
C1767 C1766 1.288 . S
C1767 C1768 1.369 . S
C1767 H1833 0.932 . S
C1768 C1767 1.369 . S
C1768 C1769 1.398 . S
C1768 C1772 1.527 . S
C1769 C1768 1.398 . S
C1769 C1770 1.380 . S
C1769 C1783 1.497 . S
C1770 C1769 1.380 . S
C1770 C1771 1.383 . S
C1770 C1773 1.603 . S
C1771 C1766 1.377 . S
C1771 C1770 1.383 . S
C1771 H1834 0.929 . S
C1772 C1768 1.527 . S
C1772 H1835 0.961 . S
C1772 H1836 0.959 . S
C1772 H1837 0.959 . S
C1773 C1770 1.603 . S
C1773 H1838 0.960 . S
C1773 H1839 0.962 . S
C1773 H1840 0.961 . S
C1774 C1741 1.587 . S
C1774 C1775 1.360 . S
C1774 C1787 1.412 . S
C1775 C1774 1.360 . S
C1775 C1776 1.365 1_455 S
C1775 H1841 0.929 . S
C1776 C1751 1.553 . S
C1776 C1775 1.365 1_655 S
C1776 C1777 1.404 . S
C1777 C1776 1.404 . S
C1777 C1778 1.395 . S
C1777 C1788 1.451 1_655 S
C1778 C1777 1.395 . S
C1778 C1779 1.322 . S
C1778 H1842 0.930 . S
C1779 C1778 1.322 . S
C1779 C1780 1.459 . S
C1779 H1843 0.929 . S
C1780 C1779 1.459 . S
C1780 C1781 1.445 . S
C1780 C1789 1.395 1_655 S
C1781 C1759 1.432 . S
C1781 C1780 1.445 . S
C1781 C1782 1.370 1_655 S
C1782 C1781 1.370 1_455 S
C1782 C1783 1.438 . S
C1782 H1844 0.930 . S
C1783 C1769 1.497 . S
C1783 C1782 1.438 . S
C1783 C1784 1.360 . S
C1784 C1783 1.360 . S
C1784 C1785 1.401 . S
C1784 C1789 1.446 . S
C1785 C1784 1.401 . S
C1785 C1786 1.347 . S
C1785 H1845 0.929 . S
C1786 C1785 1.347 . S
C1786 C1787 1.455 . S
C1786 H1846 0.930 . S
C1787 C1774 1.412 . S
C1787 C1786 1.455 . S
C1787 C1788 1.331 . S
C1788 C1777 1.451 1_455 S
C1788 C1787 1.331 . S
C1788 C1789 1.497 . S
C1789 C1780 1.395 1_455 S
C1789 C1784 1.446 . S
C1789 C1788 1.497 . S
C1790 C1791 1.582 . S
C1790 H1847 0.962 . S
C1790 H1848 0.959 . S
C1790 H1849 0.958 . S
C1791 C1790 1.582 . S
C1791 O1794 1.458 . S
C1791 H1820 0.980 . S
O1792 C1737 1.426 . S
O1792 C1738 1.334 . S
O1793 C1765 1.412 . S
O1793 C1766 1.393 . S
O1794 C1756 1.435 . S
O1794 C1791 1.458 . S
O1795 C1747 1.468 . S
O1795 C1748 1.408 . S
H1796 C1737 0.980 . S
H1797 C1736 0.959 . S
H1798 C1736 0.959 . S
H1799 C1736 0.960 . S
H1800 C1739 0.929 . S
H1801 C1743 0.929 . S
H1802 C1744 0.959 . S
H1803 C1744 0.961 . S
H1804 C1744 0.961 . S
H1805 C1745 0.960 . S
H1806 C1745 0.960 . S
H1807 C1745 0.961 . S
H1808 C1747 0.980 . S
H1809 C1746 0.961 . S
H1810 C1746 0.960 . S
H1811 C1746 0.959 . S
H1812 C1749 0.930 . S
H1813 C1753 0.931 . S
H1814 C1754 0.959 . S
H1815 C1754 0.961 . S
H1816 C1754 0.959 . S
H1817 C1755 0.960 . S
H1818 C1755 0.960 . S
H1819 C1755 0.960 . S
H1820 C1791 0.980 . S
H1821 C1757 0.930 . S
H1822 C1761 0.930 . S
H1823 C1762 0.961 . S
H1824 C1762 0.960 . S
H1825 C1762 0.958 . S
H1826 C1763 0.961 . S
H1827 C1763 0.960 . S
H1828 C1763 0.960 . S
H1829 C1765 0.980 . S
H1830 C1764 0.961 . S
H1831 C1764 0.961 . S
H1832 C1764 0.959 . S
H1833 C1767 0.932 . S
H1834 C1771 0.929 . S
H1835 C1772 0.961 . S
H1836 C1772 0.959 . S
H1837 C1772 0.959 . S
H1838 C1773 0.960 . S
H1839 C1773 0.962 . S
H1840 C1773 0.961 . S
H1841 C1775 0.929 . S
H1842 C1778 0.930 . S
H1843 C1779 0.929 . S
H1844 C1782 0.930 . S
H1845 C1785 0.929 . S
H1846 C1786 0.930 . S
H1847 C1790 0.962 . S
H1848 C1790 0.959 . S
H1849 C1790 0.958 . S
C1850 C1851 1.560 . S
C1850 H1911 0.959 . S
C1850 H1912 0.959 . S
C1850 H1913 0.960 . S
C1851 C1850 1.560 . S
C1851 O1906 1.426 . S
C1851 H1910 0.980 . S
C1852 C1853 1.407 . S
C1852 C1857 1.418 . S
C1852 O1906 1.334 . S
C1853 C1852 1.407 . S
C1853 C1854 1.360 . S
C1853 H1914 0.929 . S
C1854 C1853 1.360 . S
C1854 C1855 1.401 . S
C1854 C1858 1.527 . S
C1855 C1854 1.401 . S
C1855 C1856 1.405 . S
C1855 C1888 1.587 . S
C1856 C1855 1.405 . S
C1856 C1857 1.332 . S
C1856 C1859 1.496 . S
C1857 C1852 1.418 . S
C1857 C1856 1.332 . S
C1857 H1915 0.929 . S
C1858 C1854 1.527 . S
C1858 H1916 0.959 . S
C1858 H1917 0.961 . S
C1858 H1918 0.961 . S
C1859 C1856 1.496 . S
C1859 H1919 0.960 . S
C1859 H1920 0.960 . S
C1859 H1921 0.961 . S
C1860 C1861 1.517 . S
C1860 H1923 0.961 . S
C1860 H1924 0.960 . S
C1860 H1925 0.959 . S
C1861 C1860 1.517 . S
C1861 O1909 1.468 . S
C1861 H1922 0.980 . S
C1862 C1863 1.349 . S
C1862 C1867 1.367 . S
C1862 O1909 1.408 . S
C1863 C1862 1.349 . S
C1863 C1864 1.407 . S
C1863 H1926 0.930 . S
C1864 C1863 1.407 . S
C1864 C1865 1.449 . S
C1864 C1868 1.535 . S
C1865 C1864 1.449 . S
C1865 C1866 1.384 . S
C1865 C1890 1.553 . S
C1866 C1865 1.384 . S
C1866 C1867 1.364 . S
C1866 C1869 1.450 . S
C1867 C1862 1.367 . S
C1867 C1866 1.364 . S
C1867 H1927 0.931 . S
C1868 C1864 1.535 . S
C1868 H1928 0.959 . S
C1868 H1929 0.961 . S
C1868 H1930 0.959 . S
C1869 C1866 1.450 . S
C1869 H1931 0.960 . S
C1869 H1932 0.960 . S
C1869 H1933 0.960 . S
C1870 C1871 1.309 . S
C1870 C1875 1.304 . S
C1870 O1908 1.435 . S
C1871 C1870 1.309 . S
C1871 C1872 1.476 . S
C1871 H1935 0.930 . S
C1872 C1871 1.476 . S
C1872 C1873 1.400 . S
C1872 C1876 1.567 . S
C1873 C1872 1.400 . S
C1873 C1874 1.373 . S
C1873 C1895 1.432 . S
C1874 C1873 1.373 . S
C1874 C1875 1.339 . S
C1874 C1877 1.530 . S
C1875 C1870 1.304 . S
C1875 C1874 1.339 . S
C1875 H1936 0.930 . S
C1876 C1872 1.567 . S
C1876 H1937 0.961 . S
C1876 H1938 0.960 . S
C1876 H1939 0.958 . S
C1877 C1874 1.530 . S
C1877 H1940 0.961 . S
C1877 H1941 0.960 . S
C1877 H1942 0.960 . S
C1878 C1879 1.530 . S
C1878 H1944 0.961 . S
C1878 H1945 0.961 . S
C1878 H1946 0.959 . S
C1879 C1878 1.530 . S
C1879 O1907 1.412 . S
C1879 H1943 0.980 . S
C1880 C1881 1.288 . S
C1880 C1885 1.377 . S
C1880 O1907 1.393 . S
C1881 C1880 1.288 . S
C1881 C1882 1.369 . S
C1881 H1947 0.932 . S
C1882 C1881 1.369 . S
C1882 C1883 1.398 . S
C1882 C1886 1.527 . S
C1883 C1882 1.398 . S
C1883 C1884 1.380 . S
C1883 C1897 1.497 . S
C1884 C1883 1.380 . S
C1884 C1885 1.383 . S
C1884 C1887 1.603 . S
C1885 C1880 1.377 . S
C1885 C1884 1.383 . S
C1885 H1948 0.929 . S
C1886 C1882 1.527 . S
C1886 H1949 0.961 . S
C1886 H1950 0.959 . S
C1886 H1951 0.959 . S
C1887 C1884 1.603 . S
C1887 H1952 0.960 . S
C1887 H1953 0.962 . S
C1887 H1954 0.961 . S
C1888 C1855 1.587 . S
C1888 C1889 1.360 . S
C1888 C1901 1.412 . S
C1889 C1888 1.360 . S
C1889 C1890 1.365 1_545 S
C1889 H1955 0.929 . S
C1890 C1865 1.553 . S
C1890 C1889 1.365 1_565 S
C1890 C1891 1.404 . S
C1891 C1890 1.404 . S
C1891 C1892 1.395 . S
C1891 C1902 1.451 1_565 S
C1892 C1891 1.395 . S
C1892 C1893 1.322 . S
C1892 H1956 0.930 . S
C1893 C1892 1.322 . S
C1893 C1894 1.459 . S
C1893 H1957 0.929 . S
C1894 C1893 1.459 . S
C1894 C1895 1.445 . S
C1894 C1903 1.395 1_565 S
C1895 C1873 1.432 . S
C1895 C1894 1.445 . S
C1895 C1896 1.370 1_565 S
C1896 C1895 1.370 1_545 S
C1896 C1897 1.438 . S
C1896 H1958 0.930 . S
C1897 C1883 1.497 . S
C1897 C1896 1.438 . S
C1897 C1898 1.360 . S
C1898 C1897 1.360 . S
C1898 C1899 1.401 . S
C1898 C1903 1.446 . S
C1899 C1898 1.401 . S
C1899 C1900 1.347 . S
C1899 H1959 0.929 . S
C1900 C1899 1.347 . S
C1900 C1901 1.455 . S
C1900 H1960 0.930 . S
C1901 C1888 1.412 . S
C1901 C1900 1.455 . S
C1901 C1902 1.331 . S
C1902 C1891 1.451 1_545 S
C1902 C1901 1.331 . S
C1902 C1903 1.497 . S
C1903 C1894 1.395 1_545 S
C1903 C1898 1.446 . S
C1903 C1902 1.497 . S
C1904 C1905 1.582 . S
C1904 H1961 0.962 . S
C1904 H1962 0.959 . S
C1904 H1963 0.958 . S
C1905 C1904 1.582 . S
C1905 O1908 1.458 . S
C1905 H1934 0.980 . S
O1906 C1851 1.426 . S
O1906 C1852 1.334 . S
O1907 C1879 1.412 . S
O1907 C1880 1.393 . S
O1908 C1870 1.435 . S
O1908 C1905 1.458 . S
O1909 C1861 1.468 . S
O1909 C1862 1.408 . S
H1910 C1851 0.980 . S
H1911 C1850 0.959 . S
H1912 C1850 0.959 . S
H1913 C1850 0.960 . S
H1914 C1853 0.929 . S
H1915 C1857 0.929 . S
H1916 C1858 0.959 . S
H1917 C1858 0.961 . S
H1918 C1858 0.961 . S
H1919 C1859 0.960 . S
H1920 C1859 0.960 . S
H1921 C1859 0.961 . S
H1922 C1861 0.980 . S
H1923 C1860 0.961 . S
H1924 C1860 0.960 . S
H1925 C1860 0.959 . S
H1926 C1863 0.930 . S
H1927 C1867 0.931 . S
H1928 C1868 0.959 . S
H1929 C1868 0.961 . S
H1930 C1868 0.959 . S
H1931 C1869 0.960 . S
H1932 C1869 0.960 . S
H1933 C1869 0.960 . S
H1934 C1905 0.980 . S
H1935 C1871 0.930 . S
H1936 C1875 0.930 . S
H1937 C1876 0.961 . S
H1938 C1876 0.960 . S
H1939 C1876 0.958 . S
H1940 C1877 0.961 . S
H1941 C1877 0.960 . S
H1942 C1877 0.960 . S
H1943 C1879 0.980 . S
H1944 C1878 0.961 . S
H1945 C1878 0.961 . S
H1946 C1878 0.959 . S
H1947 C1881 0.932 . S
H1948 C1885 0.929 . S
H1949 C1886 0.961 . S
H1950 C1886 0.959 . S
H1951 C1886 0.959 . S
H1952 C1887 0.960 . S
H1953 C1887 0.962 . S
H1954 C1887 0.961 . S
H1955 C1889 0.929 . S
H1956 C1892 0.930 . S
H1957 C1893 0.929 . S
H1958 C1896 0.930 . S
H1959 C1899 0.929 . S
H1960 C1900 0.930 . S
H1961 C1904 0.962 . S
H1962 C1904 0.959 . S
H1963 C1904 0.958 . S
C1964 C1965 1.560 . S
C1964 H2025 0.959 . S
C1964 H2026 0.959 . S
C1964 H2027 0.960 . S
C1965 C1964 1.560 . S
C1965 O2020 1.426 . S
C1965 H2024 0.980 . S
C1966 C1967 1.407 . S
C1966 C1971 1.418 . S
C1966 O2020 1.334 . S
C1967 C1966 1.407 . S
C1967 C1968 1.360 . S
C1967 H2028 0.929 . S
C1968 C1967 1.360 . S
C1968 C1969 1.401 . S
C1968 C1972 1.527 . S
C1969 C1968 1.401 . S
C1969 C1970 1.405 . S
C1969 C2002 1.587 . S
C1970 C1969 1.405 . S
C1970 C1971 1.332 . S
C1970 C1973 1.496 . S
C1971 C1966 1.418 . S
C1971 C1970 1.332 . S
C1971 H2029 0.929 . S
C1972 C1968 1.527 . S
C1972 H2030 0.959 . S
C1972 H2031 0.961 . S
C1972 H2032 0.961 . S
C1973 C1970 1.496 . S
C1973 H2033 0.960 . S
C1973 H2034 0.960 . S
C1973 H2035 0.961 . S
C1974 C1975 1.517 . S
C1974 H2037 0.961 . S
C1974 H2038 0.960 . S
C1974 H2039 0.959 . S
C1975 C1974 1.517 . S
C1975 O2023 1.468 . S
C1975 H2036 0.980 . S
C1976 C1977 1.349 . S
C1976 C1981 1.367 . S
C1976 O2023 1.408 . S
C1977 C1976 1.349 . S
C1977 C1978 1.407 . S
C1977 H2040 0.930 . S
C1978 C1977 1.407 . S
C1978 C1979 1.449 . S
C1978 C1982 1.535 . S
C1979 C1978 1.449 . S
C1979 C1980 1.384 . S
C1979 C2004 1.553 . S
C1980 C1979 1.384 . S
C1980 C1981 1.364 . S
C1980 C1983 1.450 . S
C1981 C1976 1.367 . S
C1981 C1980 1.364 . S
C1981 H2041 0.931 . S
C1982 C1978 1.535 . S
C1982 H2042 0.959 . S
C1982 H2043 0.961 . S
C1982 H2044 0.959 . S
C1983 C1980 1.450 . S
C1983 H2045 0.960 . S
C1983 H2046 0.960 . S
C1983 H2047 0.960 . S
C1984 C1985 1.309 . S
C1984 C1989 1.304 . S
C1984 O2022 1.435 . S
C1985 C1984 1.309 . S
C1985 C1986 1.476 . S
C1985 H2049 0.930 . S
C1986 C1985 1.476 . S
C1986 C1987 1.400 . S
C1986 C1990 1.567 . S
C1987 C1986 1.400 . S
C1987 C1988 1.373 . S
C1987 C2009 1.432 . S
C1988 C1987 1.373 . S
C1988 C1989 1.339 . S
C1988 C1991 1.530 . S
C1989 C1984 1.304 . S
C1989 C1988 1.339 . S
C1989 H2050 0.930 . S
C1990 C1986 1.567 . S
C1990 H2051 0.961 . S
C1990 H2052 0.960 . S
C1990 H2053 0.958 . S
C1991 C1988 1.530 . S
C1991 H2054 0.961 . S
C1991 H2055 0.960 . S
C1991 H2056 0.960 . S
C1992 C1993 1.530 . S
C1992 H2058 0.961 . S
C1992 H2059 0.961 . S
C1992 H2060 0.959 . S
C1993 C1992 1.530 . S
C1993 O2021 1.412 . S
C1993 H2057 0.980 . S
C1994 C1995 1.288 . S
C1994 C1999 1.377 . S
C1994 O2021 1.393 . S
C1995 C1994 1.288 . S
C1995 C1996 1.369 . S
C1995 H2061 0.932 . S
C1996 C1995 1.369 . S
C1996 C1997 1.398 . S
C1996 C2000 1.527 . S
C1997 C1996 1.398 . S
C1997 C1998 1.380 . S
C1997 C2011 1.497 . S
C1998 C1997 1.380 . S
C1998 C1999 1.383 . S
C1998 C2001 1.603 . S
C1999 C1994 1.377 . S
C1999 C1998 1.383 . S
C1999 H2062 0.929 . S
C2000 C1996 1.527 . S
C2000 H2063 0.961 . S
C2000 H2064 0.959 . S
C2000 H2065 0.959 . S
C2001 C1998 1.603 . S
C2001 H2066 0.960 . S
C2001 H2067 0.962 . S
C2001 H2068 0.961 . S
C2002 C1969 1.587 . S
C2002 C2003 1.360 . S
C2002 C2015 1.412 . S
C2003 C2002 1.360 . S
C2003 C2004 1.365 1_455 S
C2003 H2069 0.929 . S
C2004 C1979 1.553 . S
C2004 C2003 1.365 1_655 S
C2004 C2005 1.404 . S
C2005 C2004 1.404 . S
C2005 C2006 1.395 . S
C2005 C2016 1.451 1_655 S
C2006 C2005 1.395 . S
C2006 C2007 1.322 . S
C2006 H2070 0.930 . S
C2007 C2006 1.322 . S
C2007 C2008 1.459 . S
C2007 H2071 0.929 . S
C2008 C2007 1.459 . S
C2008 C2009 1.445 . S
C2008 C2017 1.395 1_655 S
C2009 C1987 1.432 . S
C2009 C2008 1.445 . S
C2009 C2010 1.370 1_655 S
C2010 C2009 1.370 1_455 S
C2010 C2011 1.438 . S
C2010 H2072 0.930 . S
C2011 C1997 1.497 . S
C2011 C2010 1.438 . S
C2011 C2012 1.360 . S
C2012 C2011 1.360 . S
C2012 C2013 1.401 . S
C2012 C2017 1.446 . S
C2013 C2012 1.401 . S
C2013 C2014 1.347 . S
C2013 H2073 0.929 . S
C2014 C2013 1.347 . S
C2014 C2015 1.455 . S
C2014 H2074 0.930 . S
C2015 C2002 1.412 . S
C2015 C2014 1.455 . S
C2015 C2016 1.331 . S
C2016 C2005 1.451 1_455 S
C2016 C2015 1.331 . S
C2016 C2017 1.497 . S
C2017 C2008 1.395 1_455 S
C2017 C2012 1.446 . S
C2017 C2016 1.497 . S
C2018 C2019 1.582 . S
C2018 H2075 0.962 . S
C2018 H2076 0.959 . S
C2018 H2077 0.958 . S
C2019 C2018 1.582 . S
C2019 O2022 1.458 . S
C2019 H2048 0.980 . S
O2020 C1965 1.426 . S
O2020 C1966 1.334 . S
O2021 C1993 1.412 . S
O2021 C1994 1.393 . S
O2022 C1984 1.435 . S
O2022 C2019 1.458 . S
O2023 C1975 1.468 . S
O2023 C1976 1.408 . S
H2024 C1965 0.980 . S
H2025 C1964 0.959 . S
H2026 C1964 0.959 . S
H2027 C1964 0.960 . S
H2028 C1967 0.929 . S
H2029 C1971 0.929 . S
H2030 C1972 0.959 . S
H2031 C1972 0.961 . S
H2032 C1972 0.961 . S
H2033 C1973 0.960 . S
H2034 C1973 0.960 . S
H2035 C1973 0.961 . S
H2036 C1975 0.980 . S
H2037 C1974 0.961 . S
H2038 C1974 0.960 . S
H2039 C1974 0.959 . S
H2040 C1977 0.930 . S
H2041 C1981 0.931 . S
H2042 C1982 0.959 . S
H2043 C1982 0.961 . S
H2044 C1982 0.959 . S
H2045 C1983 0.960 . S
H2046 C1983 0.960 . S
H2047 C1983 0.960 . S
H2048 C2019 0.980 . S
H2049 C1985 0.930 . S
H2050 C1989 0.930 . S
H2051 C1990 0.961 . S
H2052 C1990 0.960 . S
H2053 C1990 0.958 . S
H2054 C1991 0.961 . S
H2055 C1991 0.960 . S
H2056 C1991 0.960 . S
H2057 C1993 0.980 . S
H2058 C1992 0.961 . S
H2059 C1992 0.961 . S
H2060 C1992 0.959 . S
H2061 C1995 0.932 . S
H2062 C1999 0.929 . S
H2063 C2000 0.961 . S
H2064 C2000 0.959 . S
H2065 C2000 0.959 . S
H2066 C2001 0.960 . S
H2067 C2001 0.962 . S
H2068 C2001 0.961 . S
H2069 C2003 0.929 . S
H2070 C2006 0.930 . S
H2071 C2007 0.929 . S
H2072 C2010 0.930 . S
H2073 C2013 0.929 . S
H2074 C2014 0.930 . S
H2075 C2018 0.962 . S
H2076 C2018 0.959 . S
H2077 C2018 0.958 . S
C2078 C2079 1.560 . S
C2078 H2139 0.959 . S
C2078 H2140 0.959 . S
C2078 H2141 0.960 . S
C2079 C2078 1.560 . S
C2079 O2134 1.426 . S
C2079 H2138 0.980 . S
C2080 C2081 1.407 . S
C2080 C2085 1.418 . S
C2080 O2134 1.334 . S
C2081 C2080 1.407 . S
C2081 C2082 1.360 . S
C2081 H2142 0.929 . S
C2082 C2081 1.360 . S
C2082 C2083 1.401 . S
C2082 C2086 1.527 . S
C2083 C2082 1.401 . S
C2083 C2084 1.405 . S
C2083 C2116 1.587 . S
C2084 C2083 1.405 . S
C2084 C2085 1.332 . S
C2084 C2087 1.496 . S
C2085 C2080 1.418 . S
C2085 C2084 1.332 . S
C2085 H2143 0.929 . S
C2086 C2082 1.527 . S
C2086 H2144 0.959 . S
C2086 H2145 0.961 . S
C2086 H2146 0.961 . S
C2087 C2084 1.496 . S
C2087 H2147 0.960 . S
C2087 H2148 0.960 . S
C2087 H2149 0.961 . S
C2088 C2089 1.517 . S
C2088 H2151 0.961 . S
C2088 H2152 0.960 . S
C2088 H2153 0.959 . S
C2089 C2088 1.517 . S
C2089 O2137 1.468 . S
C2089 H2150 0.980 . S
C2090 C2091 1.349 . S
C2090 C2095 1.367 . S
C2090 O2137 1.408 . S
C2091 C2090 1.349 . S
C2091 C2092 1.407 . S
C2091 H2154 0.930 . S
C2092 C2091 1.407 . S
C2092 C2093 1.449 . S
C2092 C2096 1.535 . S
C2093 C2092 1.449 . S
C2093 C2094 1.384 . S
C2093 C2118 1.553 . S
C2094 C2093 1.384 . S
C2094 C2095 1.364 . S
C2094 C2097 1.450 . S
C2095 C2090 1.367 . S
C2095 C2094 1.364 . S
C2095 H2155 0.931 . S
C2096 C2092 1.535 . S
C2096 H2156 0.959 . S
C2096 H2157 0.961 . S
C2096 H2158 0.959 . S
C2097 C2094 1.450 . S
C2097 H2159 0.960 . S
C2097 H2160 0.960 . S
C2097 H2161 0.960 . S
C2098 C2099 1.309 . S
C2098 C2103 1.304 . S
C2098 O2136 1.435 . S
C2099 C2098 1.309 . S
C2099 C2100 1.476 . S
C2099 H2163 0.930 . S
C2100 C2099 1.476 . S
C2100 C2101 1.400 . S
C2100 C2104 1.567 . S
C2101 C2100 1.400 . S
C2101 C2102 1.373 . S
C2101 C2123 1.432 . S
C2102 C2101 1.373 . S
C2102 C2103 1.339 . S
C2102 C2105 1.530 . S
C2103 C2098 1.304 . S
C2103 C2102 1.339 . S
C2103 H2164 0.930 . S
C2104 C2100 1.567 . S
C2104 H2165 0.961 . S
C2104 H2166 0.960 . S
C2104 H2167 0.958 . S
C2105 C2102 1.530 . S
C2105 H2168 0.961 . S
C2105 H2169 0.960 . S
C2105 H2170 0.960 . S
C2106 C2107 1.530 . S
C2106 H2172 0.961 . S
C2106 H2173 0.961 . S
C2106 H2174 0.959 . S
C2107 C2106 1.530 . S
C2107 O2135 1.412 . S
C2107 H2171 0.980 . S
C2108 C2109 1.288 . S
C2108 C2113 1.377 . S
C2108 O2135 1.393 . S
C2109 C2108 1.288 . S
C2109 C2110 1.369 . S
C2109 H2175 0.932 . S
C2110 C2109 1.369 . S
C2110 C2111 1.398 . S
C2110 C2114 1.527 . S
C2111 C2110 1.398 . S
C2111 C2112 1.380 . S
C2111 C2125 1.497 . S
C2112 C2111 1.380 . S
C2112 C2113 1.383 . S
C2112 C2115 1.603 . S
C2113 C2108 1.377 . S
C2113 C2112 1.383 . S
C2113 H2176 0.929 . S
C2114 C2110 1.527 . S
C2114 H2177 0.961 . S
C2114 H2178 0.959 . S
C2114 H2179 0.959 . S
C2115 C2112 1.603 . S
C2115 H2180 0.960 . S
C2115 H2181 0.962 . S
C2115 H2182 0.961 . S
C2116 C2083 1.587 . S
C2116 C2117 1.360 1_565 S
C2116 C2129 1.412 . S
C2117 C2116 1.360 1_545 S
C2117 C2118 1.365 . S
C2117 H2183 0.929 . S
C2118 C2093 1.553 . S
C2118 C2117 1.365 . S
C2118 C2119 1.404 . S
C2119 C2118 1.404 . S
C2119 C2120 1.395 . S
C2119 C2130 1.451 . S
C2120 C2119 1.395 . S
C2120 C2121 1.322 . S
C2120 H2184 0.930 . S
C2121 C2120 1.322 . S
C2121 C2122 1.459 . S
C2121 H2185 0.929 . S
C2122 C2121 1.459 . S
C2122 C2123 1.445 . S
C2122 C2131 1.395 . S
C2123 C2101 1.432 . S
C2123 C2122 1.445 . S
C2123 C2124 1.370 . S
C2124 C2123 1.370 . S
C2124 C2125 1.438 1_545 S
C2124 H2186 0.930 . S
C2125 C2111 1.497 . S
C2125 C2124 1.438 1_565 S
C2125 C2126 1.360 . S
C2126 C2125 1.360 . S
C2126 C2127 1.401 . S
C2126 C2131 1.446 1_565 S
C2127 C2126 1.401 . S
C2127 C2128 1.347 . S
C2127 H2187 0.929 . S
C2128 C2127 1.347 . S
C2128 C2129 1.455 . S
C2128 H2188 0.930 . S
C2129 C2116 1.412 . S
C2129 C2128 1.455 . S
C2129 C2130 1.331 1_565 S
C2130 C2119 1.451 . S
C2130 C2129 1.331 1_545 S
C2130 C2131 1.497 . S
C2131 C2122 1.395 . S
C2131 C2126 1.446 1_545 S
C2131 C2130 1.497 . S
C2132 C2133 1.582 . S
C2132 H2189 0.962 . S
C2132 H2190 0.959 . S
C2132 H2191 0.958 . S
C2133 C2132 1.582 . S
C2133 O2136 1.458 . S
C2133 H2162 0.980 . S
O2134 C2079 1.426 . S
O2134 C2080 1.334 . S
O2135 C2107 1.412 . S
O2135 C2108 1.393 . S
O2136 C2098 1.435 . S
O2136 C2133 1.458 . S
O2137 C2089 1.468 . S
O2137 C2090 1.408 . S
H2138 C2079 0.980 . S
H2139 C2078 0.959 . S
H2140 C2078 0.959 . S
H2141 C2078 0.960 . S
H2142 C2081 0.929 . S
H2143 C2085 0.929 . S
H2144 C2086 0.959 . S
H2145 C2086 0.961 . S
H2146 C2086 0.961 . S
H2147 C2087 0.960 . S
H2148 C2087 0.960 . S
H2149 C2087 0.961 . S
H2150 C2089 0.980 . S
H2151 C2088 0.961 . S
H2152 C2088 0.960 . S
H2153 C2088 0.959 . S
H2154 C2091 0.930 . S
H2155 C2095 0.931 . S
H2156 C2096 0.959 . S
H2157 C2096 0.961 . S
H2158 C2096 0.959 . S
H2159 C2097 0.960 . S
H2160 C2097 0.960 . S
H2161 C2097 0.960 . S
H2162 C2133 0.980 . S
H2163 C2099 0.930 . S
H2164 C2103 0.930 . S
H2165 C2104 0.961 . S
H2166 C2104 0.960 . S
H2167 C2104 0.958 . S
H2168 C2105 0.961 . S
H2169 C2105 0.960 . S
H2170 C2105 0.960 . S
H2171 C2107 0.980 . S
H2172 C2106 0.961 . S
H2173 C2106 0.961 . S
H2174 C2106 0.959 . S
H2175 C2109 0.932 . S
H2176 C2113 0.929 . S
H2177 C2114 0.961 . S
H2178 C2114 0.959 . S
H2179 C2114 0.959 . S
H2180 C2115 0.960 . S
H2181 C2115 0.962 . S
H2182 C2115 0.961 . S
H2183 C2117 0.929 . S
H2184 C2120 0.930 . S
H2185 C2121 0.929 . S
H2186 C2124 0.930 . S
H2187 C2127 0.929 . S
H2188 C2128 0.930 . S
H2189 C2132 0.962 . S
H2190 C2132 0.959 . S
H2191 C2132 0.958 . S
C2192 C2193 1.560 . S
C2192 H2253 0.959 . S
C2192 H2254 0.959 . S
C2192 H2255 0.960 . S
C2193 C2192 1.560 . S
C2193 O2248 1.426 . S
C2193 H2252 0.980 . S
C2194 C2195 1.407 . S
C2194 C2199 1.418 . S
C2194 O2248 1.334 . S
C2195 C2194 1.407 . S
C2195 C2196 1.360 . S
C2195 H2256 0.929 . S
C2196 C2195 1.360 . S
C2196 C2197 1.401 . S
C2196 C2200 1.527 . S
C2197 C2196 1.401 . S
C2197 C2198 1.405 . S
C2197 C2230 1.587 . S
C2198 C2197 1.405 . S
C2198 C2199 1.332 . S
C2198 C2201 1.496 . S
C2199 C2194 1.418 . S
C2199 C2198 1.332 . S
C2199 H2257 0.929 . S
C2200 C2196 1.527 . S
C2200 H2258 0.959 . S
C2200 H2259 0.961 . S
C2200 H2260 0.961 . S
C2201 C2198 1.496 . S
C2201 H2261 0.960 . S
C2201 H2262 0.960 . S
C2201 H2263 0.961 . S
C2202 C2203 1.517 . S
C2202 H2265 0.961 . S
C2202 H2266 0.960 . S
C2202 H2267 0.959 . S
C2203 C2202 1.517 . S
C2203 O2251 1.468 . S
C2203 H2264 0.980 . S
C2204 C2205 1.349 . S
C2204 C2209 1.367 . S
C2204 O2251 1.408 . S
C2205 C2204 1.349 . S
C2205 C2206 1.407 . S
C2205 H2268 0.930 . S
C2206 C2205 1.407 . S
C2206 C2207 1.449 . S
C2206 C2210 1.535 . S
C2207 C2206 1.449 . S
C2207 C2208 1.384 . S
C2207 C2232 1.553 . S
C2208 C2207 1.384 . S
C2208 C2209 1.364 . S
C2208 C2211 1.450 . S
C2209 C2204 1.367 . S
C2209 C2208 1.364 . S
C2209 H2269 0.931 . S
C2210 C2206 1.535 . S
C2210 H2270 0.959 . S
C2210 H2271 0.961 . S
C2210 H2272 0.959 . S
C2211 C2208 1.450 . S
C2211 H2273 0.960 . S
C2211 H2274 0.960 . S
C2211 H2275 0.960 . S
C2212 C2213 1.309 . S
C2212 C2217 1.304 . S
C2212 O2250 1.435 . S
C2213 C2212 1.309 . S
C2213 C2214 1.476 . S
C2213 H2277 0.930 . S
C2214 C2213 1.476 . S
C2214 C2215 1.400 . S
C2214 C2218 1.567 . S
C2215 C2214 1.400 . S
C2215 C2216 1.373 . S
C2215 C2237 1.432 . S
C2216 C2215 1.373 . S
C2216 C2217 1.339 . S
C2216 C2219 1.530 . S
C2217 C2212 1.304 . S
C2217 C2216 1.339 . S
C2217 H2278 0.930 . S
C2218 C2214 1.567 . S
C2218 H2279 0.961 . S
C2218 H2280 0.960 . S
C2218 H2281 0.958 . S
C2219 C2216 1.530 . S
C2219 H2282 0.961 . S
C2219 H2283 0.960 . S
C2219 H2284 0.960 . S
C2220 C2221 1.530 . S
C2220 H2286 0.961 . S
C2220 H2287 0.961 . S
C2220 H2288 0.959 . S
C2221 C2220 1.530 . S
C2221 O2249 1.412 . S
C2221 H2285 0.980 . S
C2222 C2223 1.288 . S
C2222 C2227 1.377 . S
C2222 O2249 1.393 . S
C2223 C2222 1.288 . S
C2223 C2224 1.369 . S
C2223 H2289 0.932 . S
C2224 C2223 1.369 . S
C2224 C2225 1.398 . S
C2224 C2228 1.527 . S
C2225 C2224 1.398 . S
C2225 C2226 1.380 . S
C2225 C2239 1.497 . S
C2226 C2225 1.380 . S
C2226 C2227 1.383 . S
C2226 C2229 1.603 . S
C2227 C2222 1.377 . S
C2227 C2226 1.383 . S
C2227 H2290 0.929 . S
C2228 C2224 1.527 . S
C2228 H2291 0.961 . S
C2228 H2292 0.959 . S
C2228 H2293 0.959 . S
C2229 C2226 1.603 . S
C2229 H2294 0.960 . S
C2229 H2295 0.962 . S
C2229 H2296 0.961 . S
C2230 C2197 1.587 . S
C2230 C2231 1.360 1_655 S
C2230 C2243 1.412 . S
C2231 C2230 1.360 1_455 S
C2231 C2232 1.365 . S
C2231 H2297 0.929 . S
C2232 C2207 1.553 . S
C2232 C2231 1.365 . S
C2232 C2233 1.404 . S
C2233 C2232 1.404 . S
C2233 C2234 1.395 . S
C2233 C2244 1.451 . S
C2234 C2233 1.395 . S
C2234 C2235 1.322 . S
C2234 H2298 0.930 . S
C2235 C2234 1.322 . S
C2235 C2236 1.459 . S
C2235 H2299 0.929 . S
C2236 C2235 1.459 . S
C2236 C2237 1.445 . S
C2236 C2245 1.395 . S
C2237 C2215 1.432 . S
C2237 C2236 1.445 . S
C2237 C2238 1.370 . S
C2238 C2237 1.370 . S
C2238 C2239 1.438 1_455 S
C2238 H2300 0.930 . S
C2239 C2225 1.497 . S
C2239 C2238 1.438 1_655 S
C2239 C2240 1.360 . S
C2240 C2239 1.360 . S
C2240 C2241 1.401 . S
C2240 C2245 1.446 1_655 S
C2241 C2240 1.401 . S
C2241 C2242 1.347 . S
C2241 H2301 0.929 . S
C2242 C2241 1.347 . S
C2242 C2243 1.455 . S
C2242 H2302 0.930 . S
C2243 C2230 1.412 . S
C2243 C2242 1.455 . S
C2243 C2244 1.331 1_655 S
C2244 C2233 1.451 . S
C2244 C2243 1.331 1_455 S
C2244 C2245 1.497 . S
C2245 C2236 1.395 . S
C2245 C2240 1.446 1_455 S
C2245 C2244 1.497 . S
C2246 C2247 1.582 . S
C2246 H2303 0.962 . S
C2246 H2304 0.959 . S
C2246 H2305 0.958 . S
C2247 C2246 1.582 . S
C2247 O2250 1.458 . S
C2247 H2276 0.980 . S
O2248 C2193 1.426 . S
O2248 C2194 1.334 . S
O2249 C2221 1.412 . S
O2249 C2222 1.393 . S
O2250 C2212 1.435 . S
O2250 C2247 1.458 . S
O2251 C2203 1.468 . S
O2251 C2204 1.408 . S
H2252 C2193 0.980 . S
H2253 C2192 0.959 . S
H2254 C2192 0.959 . S
H2255 C2192 0.960 . S
H2256 C2195 0.929 . S
H2257 C2199 0.929 . S
H2258 C2200 0.959 . S
H2259 C2200 0.961 . S
H2260 C2200 0.961 . S
H2261 C2201 0.960 . S
H2262 C2201 0.960 . S
H2263 C2201 0.961 . S
H2264 C2203 0.980 . S
H2265 C2202 0.961 . S
H2266 C2202 0.960 . S
H2267 C2202 0.959 . S
H2268 C2205 0.930 . S
H2269 C2209 0.931 . S
H2270 C2210 0.959 . S
H2271 C2210 0.961 . S
H2272 C2210 0.959 . S
H2273 C2211 0.960 . S
H2274 C2211 0.960 . S
H2275 C2211 0.960 . S
H2276 C2247 0.980 . S
H2277 C2213 0.930 . S
H2278 C2217 0.930 . S
H2279 C2218 0.961 . S
H2280 C2218 0.960 . S
H2281 C2218 0.958 . S
H2282 C2219 0.961 . S
H2283 C2219 0.960 . S
H2284 C2219 0.960 . S
H2285 C2221 0.980 . S
H2286 C2220 0.961 . S
H2287 C2220 0.961 . S
H2288 C2220 0.959 . S
H2289 C2223 0.932 . S
H2290 C2227 0.929 . S
H2291 C2228 0.961 . S
H2292 C2228 0.959 . S
H2293 C2228 0.959 . S
H2294 C2229 0.960 . S
H2295 C2229 0.962 . S
H2296 C2229 0.961 . S
H2297 C2231 0.929 . S
H2298 C2234 0.930 . S
H2299 C2235 0.929 . S
H2300 C2238 0.930 . S
H2301 C2241 0.929 . S
H2302 C2242 0.930 . S
H2303 C2246 0.962 . S
H2304 C2246 0.959 . S
H2305 C2246 0.958 . S
C2306 C2307 1.560 . S
C2306 H2367 0.959 . S
C2306 H2368 0.959 . S
C2306 H2369 0.960 . S
C2307 C2306 1.560 . S
C2307 O2362 1.426 . S
C2307 H2366 0.980 . S
C2308 C2309 1.407 . S
C2308 C2313 1.418 . S
C2308 O2362 1.334 . S
C2309 C2308 1.407 . S
C2309 C2310 1.360 . S
C2309 H2370 0.929 . S
C2310 C2309 1.360 . S
C2310 C2311 1.401 . S
C2310 C2314 1.527 . S
C2311 C2310 1.401 . S
C2311 C2312 1.405 . S
C2311 C2344 1.587 . S
C2312 C2311 1.405 . S
C2312 C2313 1.332 . S
C2312 C2315 1.496 . S
C2313 C2308 1.418 . S
C2313 C2312 1.332 . S
C2313 H2371 0.929 . S
C2314 C2310 1.527 . S
C2314 H2372 0.959 . S
C2314 H2373 0.961 . S
C2314 H2374 0.961 . S
C2315 C2312 1.496 . S
C2315 H2375 0.960 . S
C2315 H2376 0.960 . S
C2315 H2377 0.961 . S
C2316 C2317 1.517 . S
C2316 H2379 0.961 . S
C2316 H2380 0.960 . S
C2316 H2381 0.959 . S
C2317 C2316 1.517 . S
C2317 O2365 1.468 . S
C2317 H2378 0.980 . S
C2318 C2319 1.349 . S
C2318 C2323 1.367 . S
C2318 O2365 1.408 . S
C2319 C2318 1.349 . S
C2319 C2320 1.407 . S
C2319 H2382 0.930 . S
C2320 C2319 1.407 . S
C2320 C2321 1.449 . S
C2320 C2324 1.535 . S
C2321 C2320 1.449 . S
C2321 C2322 1.384 . S
C2321 C2346 1.553 . S
C2322 C2321 1.384 . S
C2322 C2323 1.364 . S
C2322 C2325 1.450 . S
C2323 C2318 1.367 . S
C2323 C2322 1.364 . S
C2323 H2383 0.931 . S
C2324 C2320 1.535 . S
C2324 H2384 0.959 . S
C2324 H2385 0.961 . S
C2324 H2386 0.959 . S
C2325 C2322 1.450 . S
C2325 H2387 0.960 . S
C2325 H2388 0.960 . S
C2325 H2389 0.960 . S
C2326 C2327 1.309 . S
C2326 C2331 1.304 . S
C2326 O2364 1.435 . S
C2327 C2326 1.309 . S
C2327 C2328 1.476 . S
C2327 H2391 0.930 . S
C2328 C2327 1.476 . S
C2328 C2329 1.400 . S
C2328 C2332 1.567 . S
C2329 C2328 1.400 . S
C2329 C2330 1.373 . S
C2329 C2351 1.432 . S
C2330 C2329 1.373 . S
C2330 C2331 1.339 . S
C2330 C2333 1.530 . S
C2331 C2326 1.304 . S
C2331 C2330 1.339 . S
C2331 H2392 0.930 . S
C2332 C2328 1.567 . S
C2332 H2393 0.961 . S
C2332 H2394 0.960 . S
C2332 H2395 0.958 . S
C2333 C2330 1.530 . S
C2333 H2396 0.961 . S
C2333 H2397 0.960 . S
C2333 H2398 0.960 . S
C2334 C2335 1.530 . S
C2334 H2400 0.961 . S
C2334 H2401 0.961 . S
C2334 H2402 0.959 . S
C2335 C2334 1.530 . S
C2335 O2363 1.412 . S
C2335 H2399 0.980 . S
C2336 C2337 1.288 . S
C2336 C2341 1.377 . S
C2336 O2363 1.393 . S
C2337 C2336 1.288 . S
C2337 C2338 1.369 . S
C2337 H2403 0.932 . S
C2338 C2337 1.369 . S
C2338 C2339 1.398 . S
C2338 C2342 1.527 . S
C2339 C2338 1.398 . S
C2339 C2340 1.380 . S
C2339 C2353 1.497 . S
C2340 C2339 1.380 . S
C2340 C2341 1.383 . S
C2340 C2343 1.603 . S
C2341 C2336 1.377 . S
C2341 C2340 1.383 . S
C2341 H2404 0.929 . S
C2342 C2338 1.527 . S
C2342 H2405 0.961 . S
C2342 H2406 0.959 . S
C2342 H2407 0.959 . S
C2343 C2340 1.603 . S
C2343 H2408 0.960 . S
C2343 H2409 0.962 . S
C2343 H2410 0.961 . S
C2344 C2311 1.587 . S
C2344 C2345 1.360 . S
C2344 C2357 1.412 . S
C2345 C2344 1.360 . S
C2345 C2346 1.365 1_545 S
C2345 H2411 0.929 . S
C2346 C2321 1.553 . S
C2346 C2345 1.365 1_565 S
C2346 C2347 1.404 . S
C2347 C2346 1.404 . S
C2347 C2348 1.395 . S
C2347 C2358 1.451 1_565 S
C2348 C2347 1.395 . S
C2348 C2349 1.322 . S
C2348 H2412 0.930 . S
C2349 C2348 1.322 . S
C2349 C2350 1.459 . S
C2349 H2413 0.929 . S
C2350 C2349 1.459 . S
C2350 C2351 1.445 . S
C2350 C2359 1.395 1_565 S
C2351 C2329 1.432 . S
C2351 C2350 1.445 . S
C2351 C2352 1.370 1_565 S
C2352 C2351 1.370 1_545 S
C2352 C2353 1.438 . S
C2352 H2414 0.930 . S
C2353 C2339 1.497 . S
C2353 C2352 1.438 . S
C2353 C2354 1.360 . S
C2354 C2353 1.360 . S
C2354 C2355 1.401 . S
C2354 C2359 1.446 . S
C2355 C2354 1.401 . S
C2355 C2356 1.347 . S
C2355 H2415 0.929 . S
C2356 C2355 1.347 . S
C2356 C2357 1.455 . S
C2356 H2416 0.930 . S
C2357 C2344 1.412 . S
C2357 C2356 1.455 . S
C2357 C2358 1.331 . S
C2358 C2347 1.451 1_545 S
C2358 C2357 1.331 . S
C2358 C2359 1.497 . S
C2359 C2350 1.395 1_545 S
C2359 C2354 1.446 . S
C2359 C2358 1.497 . S
C2360 C2361 1.582 . S
C2360 H2417 0.962 . S
C2360 H2418 0.959 . S
C2360 H2419 0.958 . S
C2361 C2360 1.582 . S
C2361 O2364 1.458 . S
C2361 H2390 0.980 . S
O2362 C2307 1.426 . S
O2362 C2308 1.334 . S
O2363 C2335 1.412 . S
O2363 C2336 1.393 . S
O2364 C2326 1.435 . S
O2364 C2361 1.458 . S
O2365 C2317 1.468 . S
O2365 C2318 1.408 . S
H2366 C2307 0.980 . S
H2367 C2306 0.959 . S
H2368 C2306 0.959 . S
H2369 C2306 0.960 . S
H2370 C2309 0.929 . S
H2371 C2313 0.929 . S
H2372 C2314 0.959 . S
H2373 C2314 0.961 . S
H2374 C2314 0.961 . S
H2375 C2315 0.960 . S
H2376 C2315 0.960 . S
H2377 C2315 0.961 . S
H2378 C2317 0.980 . S
H2379 C2316 0.961 . S
H2380 C2316 0.960 . S
H2381 C2316 0.959 . S
H2382 C2319 0.930 . S
H2383 C2323 0.931 . S
H2384 C2324 0.959 . S
H2385 C2324 0.961 . S
H2386 C2324 0.959 . S
H2387 C2325 0.960 . S
H2388 C2325 0.960 . S
H2389 C2325 0.960 . S
H2390 C2361 0.980 . S
H2391 C2327 0.930 . S
H2392 C2331 0.930 . S
H2393 C2332 0.961 . S
H2394 C2332 0.960 . S
H2395 C2332 0.958 . S
H2396 C2333 0.961 . S
H2397 C2333 0.960 . S
H2398 C2333 0.960 . S
H2399 C2335 0.980 . S
H2400 C2334 0.961 . S
H2401 C2334 0.961 . S
H2402 C2334 0.959 . S
H2403 C2337 0.932 . S
H2404 C2341 0.929 . S
H2405 C2342 0.961 . S
H2406 C2342 0.959 . S
H2407 C2342 0.959 . S
H2408 C2343 0.960 . S
H2409 C2343 0.962 . S
H2410 C2343 0.961 . S
H2411 C2345 0.929 . S
H2412 C2348 0.930 . S
H2413 C2349 0.929 . S
H2414 C2352 0.930 . S
H2415 C2355 0.929 . S
H2416 C2356 0.930 . S
H2417 C2360 0.962 . S
H2418 C2360 0.959 . S
H2419 C2360 0.958 . S
C2420 C2421 1.560 . S
C2420 H2481 0.959 . S
C2420 H2482 0.959 . S
C2420 H2483 0.960 . S
C2421 C2420 1.560 . S
C2421 O2476 1.426 . S
C2421 H2480 0.980 . S
C2422 C2423 1.407 . S
C2422 C2427 1.418 . S
C2422 O2476 1.334 . S
C2423 C2422 1.407 . S
C2423 C2424 1.360 . S
C2423 H2484 0.929 . S
C2424 C2423 1.360 . S
C2424 C2425 1.401 . S
C2424 C2428 1.527 . S
C2425 C2424 1.401 . S
C2425 C2426 1.405 . S
C2425 C2458 1.587 . S
C2426 C2425 1.405 . S
C2426 C2427 1.332 . S
C2426 C2429 1.496 . S
C2427 C2422 1.418 . S
C2427 C2426 1.332 . S
C2427 H2485 0.929 . S
C2428 C2424 1.527 . S
C2428 H2486 0.959 . S
C2428 H2487 0.961 . S
C2428 H2488 0.961 . S
C2429 C2426 1.496 . S
C2429 H2489 0.960 . S
C2429 H2490 0.960 . S
C2429 H2491 0.961 . S
C2430 C2431 1.517 . S
C2430 H2493 0.961 . S
C2430 H2494 0.960 . S
C2430 H2495 0.959 . S
C2431 C2430 1.517 . S
C2431 O2479 1.468 . S
C2431 H2492 0.980 . S
C2432 C2433 1.349 . S
C2432 C2437 1.367 . S
C2432 O2479 1.408 . S
C2433 C2432 1.349 . S
C2433 C2434 1.407 . S
C2433 H2496 0.930 . S
C2434 C2433 1.407 . S
C2434 C2435 1.449 . S
C2434 C2438 1.535 . S
C2435 C2434 1.449 . S
C2435 C2436 1.384 . S
C2435 C2460 1.553 . S
C2436 C2435 1.384 . S
C2436 C2437 1.364 . S
C2436 C2439 1.450 . S
C2437 C2432 1.367 . S
C2437 C2436 1.364 . S
C2437 H2497 0.931 . S
C2438 C2434 1.535 . S
C2438 H2498 0.959 . S
C2438 H2499 0.961 . S
C2438 H2500 0.959 . S
C2439 C2436 1.450 . S
C2439 H2501 0.960 . S
C2439 H2502 0.960 . S
C2439 H2503 0.960 . S
C2440 C2441 1.309 . S
C2440 C2445 1.304 . S
C2440 O2478 1.435 . S
C2441 C2440 1.309 . S
C2441 C2442 1.476 . S
C2441 H2505 0.930 . S
C2442 C2441 1.476 . S
C2442 C2443 1.400 . S
C2442 C2446 1.567 . S
C2443 C2442 1.400 . S
C2443 C2444 1.373 . S
C2443 C2465 1.432 . S
C2444 C2443 1.373 . S
C2444 C2445 1.339 . S
C2444 C2447 1.530 . S
C2445 C2440 1.304 . S
C2445 C2444 1.339 . S
C2445 H2506 0.930 . S
C2446 C2442 1.567 . S
C2446 H2507 0.961 . S
C2446 H2508 0.960 . S
C2446 H2509 0.958 . S
C2447 C2444 1.530 . S
C2447 H2510 0.961 . S
C2447 H2511 0.960 . S
C2447 H2512 0.960 . S
C2448 C2449 1.530 . S
C2448 H2514 0.961 . S
C2448 H2515 0.961 . S
C2448 H2516 0.959 . S
C2449 C2448 1.530 . S
C2449 O2477 1.412 . S
C2449 H2513 0.980 . S
C2450 C2451 1.288 . S
C2450 C2455 1.377 . S
C2450 O2477 1.393 . S
C2451 C2450 1.288 . S
C2451 C2452 1.369 . S
C2451 H2517 0.932 . S
C2452 C2451 1.369 . S
C2452 C2453 1.398 . S
C2452 C2456 1.527 . S
C2453 C2452 1.398 . S
C2453 C2454 1.380 . S
C2453 C2467 1.497 . S
C2454 C2453 1.380 . S
C2454 C2455 1.383 . S
C2454 C2457 1.603 . S
C2455 C2450 1.377 . S
C2455 C2454 1.383 . S
C2455 H2518 0.929 . S
C2456 C2452 1.527 . S
C2456 H2519 0.961 . S
C2456 H2520 0.959 . S
C2456 H2521 0.959 . S
C2457 C2454 1.603 . S
C2457 H2522 0.960 . S
C2457 H2523 0.962 . S
C2457 H2524 0.961 . S
C2458 C2425 1.587 . S
C2458 C2459 1.360 1_655 S
C2458 C2471 1.412 . S
C2459 C2458 1.360 1_455 S
C2459 C2460 1.365 . S
C2459 H2525 0.929 . S
C2460 C2435 1.553 . S
C2460 C2459 1.365 . S
C2460 C2461 1.404 . S
C2461 C2460 1.404 . S
C2461 C2462 1.395 . S
C2461 C2472 1.512 . S
C2462 C2461 1.395 . S
C2462 C2463 1.322 . S
C2462 H2526 0.930 . S
C2463 C2462 1.322 . S
C2463 C2464 1.459 . S
C2463 H2527 0.929 . S
C2464 C2463 1.459 . S
C2464 C2465 1.445 . S
C2464 C2473 1.395 . S
C2465 C2443 1.432 . S
C2465 C2464 1.445 . S
C2465 C2466 1.370 . S
C2466 C2465 1.370 . S
C2466 C2467 1.438 1_455 S
C2466 H2528 0.930 . S
C2467 C2453 1.497 . S
C2467 C2466 1.438 1_655 S
C2467 C2468 1.360 . S
C2468 C2467 1.360 . S
C2468 C2469 1.401 . S
C2468 C2473 1.446 1_655 S
C2469 C2468 1.401 . S
C2469 C2470 1.347 . S
C2469 H2529 0.929 . S
C2470 C2469 1.347 . S
C2470 C2471 1.455 . S
C2470 H2530 0.930 . S
C2471 C2458 1.412 . S
C2471 C2470 1.455 . S
C2471 C2472 1.270 1_655 S
C2472 C2461 1.512 . S
C2472 C2471 1.270 1_455 S
C2472 C2473 1.502 . S
C2473 C2464 1.395 . S
C2473 C2468 1.446 1_455 S
C2473 C2472 1.502 . S
C2474 C2475 1.582 . S
C2474 H2531 0.962 . S
C2474 H2532 0.959 . S
C2474 H2533 0.958 . S
C2475 C2474 1.582 . S
C2475 O2478 1.458 . S
C2475 H2504 0.980 . S
O2476 C2421 1.426 . S
O2476 C2422 1.334 . S
O2477 C2449 1.412 . S
O2477 C2450 1.393 . S
O2478 C2440 1.435 . S
O2478 C2475 1.458 . S
O2479 C2431 1.468 . S
O2479 C2432 1.408 . S
H2480 C2421 0.980 . S
H2481 C2420 0.959 . S
H2482 C2420 0.959 . S
H2483 C2420 0.960 . S
H2484 C2423 0.929 . S
H2485 C2427 0.929 . S
H2486 C2428 0.959 . S
H2487 C2428 0.961 . S
H2488 C2428 0.961 . S
H2489 C2429 0.960 . S
H2490 C2429 0.960 . S
H2491 C2429 0.961 . S
H2492 C2431 0.980 . S
H2493 C2430 0.961 . S
H2494 C2430 0.960 . S
H2495 C2430 0.959 . S
H2496 C2433 0.930 . S
H2497 C2437 0.931 . S
H2498 C2438 0.959 . S
H2499 C2438 0.961 . S
H2500 C2438 0.959 . S
H2501 C2439 0.960 . S
H2502 C2439 0.960 . S
H2503 C2439 0.960 . S
H2504 C2475 0.980 . S
H2505 C2441 0.930 . S
H2506 C2445 0.930 . S
H2507 C2446 0.961 . S
H2508 C2446 0.960 . S
H2509 C2446 0.958 . S
H2510 C2447 0.961 . S
H2511 C2447 0.960 . S
H2512 C2447 0.960 . S
H2513 C2449 0.980 . S
H2514 C2448 0.961 . S
H2515 C2448 0.961 . S
H2516 C2448 0.959 . S
H2517 C2451 0.932 . S
H2518 C2455 0.929 . S
H2519 C2456 0.961 . S
H2520 C2456 0.959 . S
H2521 C2456 0.959 . S
H2522 C2457 0.960 . S
H2523 C2457 0.962 . S
H2524 C2457 0.961 . S
H2525 C2459 0.929 . S
H2526 C2462 0.930 . S
H2527 C2463 0.929 . S
H2528 C2466 0.930 . S
H2529 C2469 0.929 . S
H2530 C2470 0.930 . S
H2531 C2474 0.962 . S
H2532 C2474 0.959 . S
H2533 C2474 0.958 . S
C2534 C2535 1.560 . S
C2534 H2595 0.959 . S
C2534 H2596 0.959 . S
C2534 H2597 0.960 . S
C2535 C2534 1.560 . S
C2535 O2590 1.426 . S
C2535 H2594 0.980 . S
C2536 C2537 1.407 . S
C2536 C2541 1.418 . S
C2536 O2590 1.334 . S
C2537 C2536 1.407 . S
C2537 C2538 1.360 . S
C2537 H2598 0.929 . S
C2538 C2537 1.360 . S
C2538 C2539 1.401 . S
C2538 C2542 1.527 . S
C2539 C2538 1.401 . S
C2539 C2540 1.405 . S
C2539 C2572 1.587 . S
C2540 C2539 1.405 . S
C2540 C2541 1.332 . S
C2540 C2543 1.496 . S
C2541 C2536 1.418 . S
C2541 C2540 1.332 . S
C2541 H2599 0.929 . S
C2542 C2538 1.527 . S
C2542 H2600 0.959 . S
C2542 H2601 0.961 . S
C2542 H2602 0.961 . S
C2543 C2540 1.496 . S
C2543 H2603 0.960 . S
C2543 H2604 0.960 . S
C2543 H2605 0.961 . S
C2544 C2545 1.517 . S
C2544 H2607 0.961 . S
C2544 H2608 0.960 . S
C2544 H2609 0.959 . S
C2545 C2544 1.517 . S
C2545 O2593 1.468 . S
C2545 H2606 0.980 . S
C2546 C2547 1.349 . S
C2546 C2551 1.367 . S
C2546 O2593 1.408 . S
C2547 C2546 1.349 . S
C2547 C2548 1.407 . S
C2547 H2610 0.930 . S
C2548 C2547 1.407 . S
C2548 C2549 1.449 . S
C2548 C2552 1.535 . S
C2549 C2548 1.449 . S
C2549 C2550 1.384 . S
C2549 C2574 1.553 . S
C2550 C2549 1.384 . S
C2550 C2551 1.364 . S
C2550 C2553 1.450 . S
C2551 C2546 1.367 . S
C2551 C2550 1.364 . S
C2551 H2611 0.931 . S
C2552 C2548 1.535 . S
C2552 H2612 0.959 . S
C2552 H2613 0.961 . S
C2552 H2614 0.959 . S
C2553 C2550 1.450 . S
C2553 H2615 0.960 . S
C2553 H2616 0.960 . S
C2553 H2617 0.960 . S
C2554 C2555 1.309 . S
C2554 C2559 1.304 . S
C2554 O2592 1.435 . S
C2555 C2554 1.309 . S
C2555 C2556 1.476 . S
C2555 H2619 0.930 . S
C2556 C2555 1.476 . S
C2556 C2557 1.400 . S
C2556 C2560 1.567 . S
C2557 C2556 1.400 . S
C2557 C2558 1.373 . S
C2557 C2579 1.432 . S
C2558 C2557 1.373 . S
C2558 C2559 1.339 . S
C2558 C2561 1.530 . S
C2559 C2554 1.304 . S
C2559 C2558 1.339 . S
C2559 H2620 0.930 . S
C2560 C2556 1.567 . S
C2560 H2621 0.961 . S
C2560 H2622 0.960 . S
C2560 H2623 0.958 . S
C2561 C2558 1.530 . S
C2561 H2624 0.961 . S
C2561 H2625 0.960 . S
C2561 H2626 0.960 . S
C2562 C2563 1.530 . S
C2562 H2628 0.961 . S
C2562 H2629 0.961 . S
C2562 H2630 0.959 . S
C2563 C2562 1.530 . S
C2563 O2591 1.412 . S
C2563 H2627 0.980 . S
C2564 C2565 1.288 . S
C2564 C2569 1.377 . S
C2564 O2591 1.393 . S
C2565 C2564 1.288 . S
C2565 C2566 1.369 . S
C2565 H2631 0.932 . S
C2566 C2565 1.369 . S
C2566 C2567 1.398 . S
C2566 C2570 1.527 . S
C2567 C2566 1.398 . S
C2567 C2568 1.380 . S
C2567 C2581 1.497 . S
C2568 C2567 1.380 . S
C2568 C2569 1.383 . S
C2568 C2571 1.603 . S
C2569 C2564 1.377 . S
C2569 C2568 1.383 . S
C2569 H2632 0.929 . S
C2570 C2566 1.527 . S
C2570 H2633 0.961 . S
C2570 H2634 0.959 . S
C2570 H2635 0.959 . S
C2571 C2568 1.603 . S
C2571 H2636 0.960 . S
C2571 H2637 0.962 . S
C2571 H2638 0.961 . S
C2572 C2539 1.587 . S
C2572 C2573 1.360 1_565 S
C2572 C2585 1.412 . S
C2573 C2572 1.360 1_545 S
C2573 C2574 1.365 . S
C2573 H2639 0.934 . S
C2574 C2549 1.553 . S
C2574 C2573 1.365 . S
C2574 C2575 1.404 . S
C2575 C2574 1.404 . S
C2575 C2576 1.395 . S
C2575 C2586 1.451 . S
C2576 C2575 1.395 . S
C2576 C2577 1.322 . S
C2576 H2640 0.930 . S
C2577 C2576 1.322 . S
C2577 C2578 1.459 . S
C2577 H2641 0.929 . S
C2578 C2577 1.459 . S
C2578 C2579 1.445 . S
C2578 C2587 1.395 . S
C2579 C2557 1.432 . S
C2579 C2578 1.445 . S
C2579 C2580 1.370 . S
C2580 C2579 1.370 . S
C2580 C2581 1.438 1_545 S
C2580 H2642 0.930 . S
C2581 C2567 1.497 . S
C2581 C2580 1.438 1_565 S
C2581 C2582 1.360 . S
C2582 C2581 1.360 . S
C2582 C2583 1.401 . S
C2582 C2587 1.446 1_565 S
C2583 C2582 1.401 . S
C2583 C2584 1.347 . S
C2583 H2643 0.929 . S
C2584 C2583 1.347 . S
C2584 C2585 1.455 . S
C2584 H2644 0.930 . S
C2585 C2572 1.412 . S
C2585 C2584 1.455 . S
C2585 C2586 1.331 1_565 S
C2586 C2575 1.451 . S
C2586 C2585 1.331 1_545 S
C2586 C2587 1.497 . S
C2587 C2578 1.395 . S
C2587 C2582 1.446 1_545 S
C2587 C2586 1.497 . S
C2588 C2589 1.582 . S
C2588 H2645 0.962 . S
C2588 H2646 0.959 . S
C2588 H2647 0.958 . S
C2589 C2588 1.582 . S
C2589 O2592 1.458 . S
C2589 H2618 0.980 . S
O2590 C2535 1.426 . S
O2590 C2536 1.334 . S
O2591 C2563 1.412 . S
O2591 C2564 1.393 . S
O2592 C2554 1.435 . S
O2592 C2589 1.458 . S
O2593 C2545 1.468 . S
O2593 C2546 1.408 . S
H2594 C2535 0.980 . S
H2595 C2534 0.959 . S
H2596 C2534 0.959 . S
H2597 C2534 0.960 . S
H2598 C2537 0.929 . S
H2599 C2541 0.929 . S
H2600 C2542 0.959 . S
H2601 C2542 0.961 . S
H2602 C2542 0.961 . S
H2603 C2543 0.960 . S
H2604 C2543 0.960 . S
H2605 C2543 0.961 . S
H2606 C2545 0.980 . S
H2607 C2544 0.961 . S
H2608 C2544 0.960 . S
H2609 C2544 0.959 . S
H2610 C2547 0.930 . S
H2611 C2551 0.931 . S
H2612 C2552 0.959 . S
H2613 C2552 0.961 . S
H2614 C2552 0.959 . S
H2615 C2553 0.960 . S
H2616 C2553 0.960 . S
H2617 C2553 0.960 . S
H2618 C2589 0.980 . S
H2619 C2555 0.930 . S
H2620 C2559 0.930 . S
H2621 C2560 0.961 . S
H2622 C2560 0.960 . S
H2623 C2560 0.958 . S
H2624 C2561 0.961 . S
H2625 C2561 0.960 . S
H2626 C2561 0.960 . S
H2627 C2563 0.980 . S
H2628 C2562 0.961 . S
H2629 C2562 0.961 . S
H2630 C2562 0.959 . S
H2631 C2565 0.932 . S
H2632 C2569 0.929 . S
H2633 C2570 0.961 . S
H2634 C2570 0.959 . S
H2635 C2570 0.959 . S
H2636 C2571 0.960 . S
H2637 C2571 0.962 . S
H2638 C2571 0.961 . S
H2639 C2573 0.934 . S
H2640 C2576 0.930 . S
H2641 C2577 0.929 . S
H2642 C2580 0.930 . S
H2643 C2583 0.929 . S
H2644 C2584 0.930 . S
H2645 C2588 0.962 . S
H2646 C2588 0.959 . S
H2647 C2588 0.958 . S
C2648 C2649 1.560 . S
C2648 H2709 0.959 . S
C2648 H2710 0.959 . S
C2648 H2711 0.960 . S
C2649 C2648 1.560 . S
C2649 O2704 1.426 . S
C2649 H2708 0.980 . S
C2650 C2651 1.407 . S
C2650 C2655 1.418 . S
C2650 O2704 1.334 . S
C2651 C2650 1.407 . S
C2651 C2652 1.360 . S
C2651 H2712 0.929 . S
C2652 C2651 1.360 . S
C2652 C2653 1.401 . S
C2652 C2656 1.527 . S
C2653 C2652 1.401 . S
C2653 C2654 1.405 . S
C2653 C2686 1.587 . S
C2654 C2653 1.405 . S
C2654 C2655 1.332 . S
C2654 C2657 1.496 . S
C2655 C2650 1.418 . S
C2655 C2654 1.332 . S
C2655 H2713 0.929 . S
C2656 C2652 1.527 . S
C2656 H2714 0.959 . S
C2656 H2715 0.961 . S
C2656 H2716 0.961 . S
C2657 C2654 1.496 . S
C2657 H2717 0.960 . S
C2657 H2718 0.960 . S
C2657 H2719 0.961 . S
C2658 C2659 1.517 . S
C2658 H2721 0.961 . S
C2658 H2722 0.960 . S
C2658 H2723 0.959 . S
C2659 C2658 1.517 . S
C2659 O2707 1.468 . S
C2659 H2720 0.980 . S
C2660 C2661 1.349 . S
C2660 C2665 1.367 . S
C2660 O2707 1.408 . S
C2661 C2660 1.349 . S
C2661 C2662 1.407 . S
C2661 H2724 0.930 . S
C2662 C2661 1.407 . S
C2662 C2663 1.449 . S
C2662 C2666 1.535 . S
C2663 C2662 1.449 . S
C2663 C2664 1.384 . S
C2663 C2688 1.553 . S
C2664 C2663 1.384 . S
C2664 C2665 1.364 . S
C2664 C2667 1.450 . S
C2665 C2660 1.367 . S
C2665 C2664 1.364 . S
C2665 H2725 0.931 . S
C2666 C2662 1.535 . S
C2666 H2726 0.959 . S
C2666 H2727 0.961 . S
C2666 H2728 0.959 . S
C2667 C2664 1.450 . S
C2667 H2729 0.960 . S
C2667 H2730 0.960 . S
C2667 H2731 0.960 . S
C2668 C2669 1.309 . S
C2668 C2673 1.304 . S
C2668 O2706 1.435 . S
C2669 C2668 1.309 . S
C2669 C2670 1.476 . S
C2669 H2733 0.930 . S
C2670 C2669 1.476 . S
C2670 C2671 1.400 . S
C2670 C2674 1.567 . S
C2671 C2670 1.400 . S
C2671 C2672 1.373 . S
C2671 C2693 1.432 . S
C2672 C2671 1.373 . S
C2672 C2673 1.339 . S
C2672 C2675 1.530 . S
C2673 C2668 1.304 . S
C2673 C2672 1.339 . S
C2673 H2734 0.930 . S
C2674 C2670 1.567 . S
C2674 H2735 0.961 . S
C2674 H2736 0.960 . S
C2674 H2737 0.958 . S
C2675 C2672 1.530 . S
C2675 H2738 0.961 . S
C2675 H2739 0.960 . S
C2675 H2740 0.960 . S
C2676 C2677 1.530 . S
C2676 H2742 0.961 . S
C2676 H2743 0.961 . S
C2676 H2744 0.959 . S
C2677 C2676 1.530 . S
C2677 O2705 1.412 . S
C2677 H2741 0.980 . S
C2678 C2679 1.288 . S
C2678 C2683 1.377 . S
C2678 O2705 1.393 . S
C2679 C2678 1.288 . S
C2679 C2680 1.369 . S
C2679 H2745 0.932 . S
C2680 C2679 1.369 . S
C2680 C2681 1.398 . S
C2680 C2684 1.527 . S
C2681 C2680 1.398 . S
C2681 C2682 1.380 . S
C2681 C2695 1.497 . S
C2682 C2681 1.380 . S
C2682 C2683 1.383 . S
C2682 C2685 1.603 . S
C2683 C2678 1.377 . S
C2683 C2682 1.383 . S
C2683 H2746 0.929 . S
C2684 C2680 1.527 . S
C2684 H2747 0.961 . S
C2684 H2748 0.959 . S
C2684 H2749 0.959 . S
C2685 C2682 1.603 . S
C2685 H2750 0.960 . S
C2685 H2751 0.962 . S
C2685 H2752 0.961 . S
C2686 C2653 1.587 . S
C2686 C2687 1.360 . S
C2686 C2699 1.412 . S
C2687 C2686 1.360 . S
C2687 C2688 1.365 . S
C2687 H2753 0.929 . S
C2688 C2663 1.553 . S
C2688 C2687 1.365 . S
C2688 C2689 1.404 . S
C2689 C2688 1.404 . S
C2689 C2690 1.395 . S
C2689 C2700 1.451 . S
C2690 C2689 1.395 . S
C2690 C2691 1.322 . S
C2690 H2754 0.930 . S
C2691 C2690 1.322 . S
C2691 C2692 1.459 . S
C2691 H2755 0.929 . S
C2692 C2691 1.459 . S
C2692 C2693 1.445 . S
C2692 C2701 1.395 . S
C2693 C2671 1.432 . S
C2693 C2692 1.445 . S
C2693 C2694 1.370 . S
C2694 C2693 1.370 . S
C2694 C2695 1.438 . S
C2694 H2756 0.930 . S
C2695 C2681 1.497 . S
C2695 C2694 1.438 . S
C2695 C2696 1.360 . S
C2696 C2695 1.360 . S
C2696 C2697 1.401 . S
C2696 C2701 1.446 . S
C2697 C2696 1.401 . S
C2697 C2698 1.347 . S
C2697 H2757 0.929 . S
C2698 C2697 1.347 . S
C2698 C2699 1.455 . S
C2698 H2758 0.930 . S
C2699 C2686 1.412 . S
C2699 C2698 1.455 . S
C2699 C2700 1.331 . S
C2700 C2689 1.451 . S
C2700 C2699 1.331 . S
C2700 C2701 1.497 . S
C2701 C2692 1.395 . S
C2701 C2696 1.446 . S
C2701 C2700 1.497 . S
C2702 C2703 1.582 . S
C2702 H2759 0.962 . S
C2702 H2760 0.959 . S
C2702 H2761 0.958 . S
C2703 C2702 1.582 . S
C2703 O2706 1.458 . S
C2703 H2732 0.980 . S
O2704 C2649 1.426 . S
O2704 C2650 1.334 . S
O2705 C2677 1.412 . S
O2705 C2678 1.393 . S
O2706 C2668 1.435 . S
O2706 C2703 1.458 . S
O2707 C2659 1.468 . S
O2707 C2660 1.408 . S
H2708 C2649 0.980 . S
H2709 C2648 0.959 . S
H2710 C2648 0.959 . S
H2711 C2648 0.960 . S
H2712 C2651 0.929 . S
H2713 C2655 0.929 . S
H2714 C2656 0.959 . S
H2715 C2656 0.961 . S
H2716 C2656 0.961 . S
H2717 C2657 0.960 . S
H2718 C2657 0.960 . S
H2719 C2657 0.961 . S
H2720 C2659 0.980 . S
H2721 C2658 0.961 . S
H2722 C2658 0.960 . S
H2723 C2658 0.959 . S
H2724 C2661 0.930 . S
H2725 C2665 0.931 . S
H2726 C2666 0.959 . S
H2727 C2666 0.961 . S
H2728 C2666 0.959 . S
H2729 C2667 0.960 . S
H2730 C2667 0.960 . S
H2731 C2667 0.960 . S
H2732 C2703 0.980 . S
H2733 C2669 0.930 . S
H2734 C2673 0.930 . S
H2735 C2674 0.961 . S
H2736 C2674 0.960 . S
H2737 C2674 0.958 . S
H2738 C2675 0.961 . S
H2739 C2675 0.960 . S
H2740 C2675 0.960 . S
H2741 C2677 0.980 . S
H2742 C2676 0.961 . S
H2743 C2676 0.961 . S
H2744 C2676 0.959 . S
H2745 C2679 0.932 . S
H2746 C2683 0.929 . S
H2747 C2684 0.961 . S
H2748 C2684 0.959 . S
H2749 C2684 0.959 . S
H2750 C2685 0.960 . S
H2751 C2685 0.962 . S
H2752 C2685 0.961 . S
H2753 C2687 0.929 . S
H2754 C2690 0.930 . S
H2755 C2691 0.929 . S
H2756 C2694 0.930 . S
H2757 C2697 0.929 . S
H2758 C2698 0.930 . S
H2759 C2702 0.962 . S
H2760 C2702 0.959 . S
H2761 C2702 0.958 . S
C2762 C2763 1.560 . S
C2762 H2823 0.959 . S
C2762 H2824 0.959 . S
C2762 H2825 0.960 . S
C2763 C2762 1.560 . S
C2763 O2818 1.426 . S
C2763 H2822 0.980 . S
C2764 C2765 1.407 . S
C2764 C2769 1.418 . S
C2764 O2818 1.334 . S
C2765 C2764 1.407 . S
C2765 C2766 1.360 . S
C2765 H2826 0.929 . S
C2766 C2765 1.360 . S
C2766 C2767 1.401 . S
C2766 C2770 1.527 . S
C2767 C2766 1.401 . S
C2767 C2768 1.405 . S
C2767 C2800 1.587 . S
C2768 C2767 1.405 . S
C2768 C2769 1.332 . S
C2768 C2771 1.496 . S
C2769 C2764 1.418 . S
C2769 C2768 1.332 . S
C2769 H2827 0.929 . S
C2770 C2766 1.527 . S
C2770 H2828 0.959 . S
C2770 H2829 0.961 . S
C2770 H2830 0.961 . S
C2771 C2768 1.496 . S
C2771 H2831 0.960 . S
C2771 H2832 0.960 . S
C2771 H2833 0.961 . S
C2772 C2773 1.517 . S
C2772 H2835 0.961 . S
C2772 H2836 0.960 . S
C2772 H2837 0.959 . S
C2773 C2772 1.517 . S
C2773 O2821 1.468 . S
C2773 H2834 0.980 . S
C2774 C2775 1.349 . S
C2774 C2779 1.367 . S
C2774 O2821 1.408 . S
C2775 C2774 1.349 . S
C2775 C2776 1.407 . S
C2775 H2838 0.930 . S
C2776 C2775 1.407 . S
C2776 C2777 1.449 . S
C2776 C2780 1.535 . S
C2777 C2776 1.449 . S
C2777 C2778 1.384 . S
C2777 C2802 1.553 . S
C2778 C2777 1.384 . S
C2778 C2779 1.364 . S
C2778 C2781 1.450 . S
C2779 C2774 1.367 . S
C2779 C2778 1.364 . S
C2779 H2839 0.931 . S
C2780 C2776 1.535 . S
C2780 H2840 0.959 . S
C2780 H2841 0.961 . S
C2780 H2842 0.959 . S
C2781 C2778 1.450 . S
C2781 H2843 0.960 . S
C2781 H2844 0.960 . S
C2781 H2845 0.960 . S
C2782 C2783 1.309 . S
C2782 C2787 1.304 . S
C2782 O2820 1.435 . S
C2783 C2782 1.309 . S
C2783 C2784 1.476 . S
C2783 H2847 0.930 . S
C2784 C2783 1.476 . S
C2784 C2785 1.400 . S
C2784 C2788 1.567 . S
C2785 C2784 1.400 . S
C2785 C2786 1.373 . S
C2785 C2807 1.432 . S
C2786 C2785 1.373 . S
C2786 C2787 1.339 . S
C2786 C2789 1.530 . S
C2787 C2782 1.304 . S
C2787 C2786 1.339 . S
C2787 H2848 0.930 . S
C2788 C2784 1.567 . S
C2788 H2849 0.961 . S
C2788 H2850 0.960 . S
C2788 H2851 0.958 . S
C2789 C2786 1.530 . S
C2789 H2852 0.961 . S
C2789 H2853 0.960 . S
C2789 H2854 0.960 . S
C2790 C2791 1.530 . S
C2790 H2856 0.961 . S
C2790 H2857 0.961 . S
C2790 H2858 0.959 . S
C2791 C2790 1.530 . S
C2791 O2819 1.412 . S
C2791 H2855 0.980 . S
C2792 C2793 1.288 . S
C2792 C2797 1.377 . S
C2792 O2819 1.393 . S
C2793 C2792 1.288 . S
C2793 C2794 1.369 . S
C2793 H2859 0.932 . S
C2794 C2793 1.369 . S
C2794 C2795 1.398 . S
C2794 C2798 1.527 . S
C2795 C2794 1.398 . S
C2795 C2796 1.380 . S
C2795 C2809 1.497 . S
C2796 C2795 1.380 . S
C2796 C2797 1.383 . S
C2796 C2799 1.603 . S
C2797 C2792 1.377 . S
C2797 C2796 1.383 . S
C2797 H2860 0.929 . S
C2798 C2794 1.527 . S
C2798 H2861 0.961 . S
C2798 H2862 0.959 . S
C2798 H2863 0.959 . S
C2799 C2796 1.603 . S
C2799 H2864 0.960 . S
C2799 H2865 0.962 . S
C2799 H2866 0.961 . S
C2800 C2767 1.587 . S
C2800 C2801 1.360 . S
C2800 C2813 1.412 . S
C2801 C2800 1.360 . S
C2801 C2802 1.365 . S
C2801 H2867 0.929 . S
C2802 C2777 1.553 . S
C2802 C2801 1.365 . S
C2802 C2803 1.404 . S
C2803 C2802 1.404 . S
C2803 C2804 1.395 . S
C2803 C2814 1.451 . S
C2804 C2803 1.395 . S
C2804 C2805 1.322 . S
C2804 H2868 0.930 . S
C2805 C2804 1.322 . S
C2805 C2806 1.459 . S
C2805 H2869 0.929 . S
C2806 C2805 1.459 . S
C2806 C2807 1.445 . S
C2806 C2815 1.395 . S
C2807 C2785 1.432 . S
C2807 C2806 1.445 . S
C2807 C2808 1.370 . S
C2808 C2807 1.370 . S
C2808 C2809 1.438 . S
C2808 H2870 0.930 . S
C2809 C2795 1.497 . S
C2809 C2808 1.438 . S
C2809 C2810 1.360 . S
C2810 C2809 1.360 . S
C2810 C2811 1.401 . S
C2810 C2815 1.446 . S
C2811 C2810 1.401 . S
C2811 C2812 1.347 . S
C2811 H2871 0.929 . S
C2812 C2811 1.347 . S
C2812 C2813 1.455 . S
C2812 H2872 0.930 . S
C2813 C2800 1.412 . S
C2813 C2812 1.455 . S
C2813 C2814 1.331 . S
C2814 C2803 1.451 . S
C2814 C2813 1.331 . S
C2814 C2815 1.497 . S
C2815 C2806 1.395 . S
C2815 C2810 1.446 . S
C2815 C2814 1.497 . S
C2816 C2817 1.582 . S
C2816 H2873 0.962 . S
C2816 H2874 0.959 . S
C2816 H2875 0.958 . S
C2817 C2816 1.582 . S
C2817 O2820 1.458 . S
C2817 H2846 0.980 . S
O2818 C2763 1.426 . S
O2818 C2764 1.334 . S
O2819 C2791 1.412 . S
O2819 C2792 1.393 . S
O2820 C2782 1.435 . S
O2820 C2817 1.458 . S
O2821 C2773 1.468 . S
O2821 C2774 1.408 . S
H2822 C2763 0.980 . S
H2823 C2762 0.959 . S
H2824 C2762 0.959 . S
H2825 C2762 0.960 . S
H2826 C2765 0.929 . S
H2827 C2769 0.929 . S
H2828 C2770 0.959 . S
H2829 C2770 0.961 . S
H2830 C2770 0.961 . S
H2831 C2771 0.960 . S
H2832 C2771 0.960 . S
H2833 C2771 0.961 . S
H2834 C2773 0.980 . S
H2835 C2772 0.961 . S
H2836 C2772 0.960 . S
H2837 C2772 0.959 . S
H2838 C2775 0.930 . S
H2839 C2779 0.931 . S
H2840 C2780 0.959 . S
H2841 C2780 0.961 . S
H2842 C2780 0.959 . S
H2843 C2781 0.960 . S
H2844 C2781 0.960 . S
H2845 C2781 0.960 . S
H2846 C2817 0.980 . S
H2847 C2783 0.930 . S
H2848 C2787 0.930 . S
H2849 C2788 0.961 . S
H2850 C2788 0.960 . S
H2851 C2788 0.958 . S
H2852 C2789 0.961 . S
H2853 C2789 0.960 . S
H2854 C2789 0.960 . S
H2855 C2791 0.980 . S
H2856 C2790 0.961 . S
H2857 C2790 0.961 . S
H2858 C2790 0.959 . S
H2859 C2793 0.932 . S
H2860 C2797 0.929 . S
H2861 C2798 0.961 . S
H2862 C2798 0.959 . S
H2863 C2798 0.959 . S
H2864 C2799 0.960 . S
H2865 C2799 0.962 . S
H2866 C2799 0.961 . S
H2867 C2801 0.929 . S
H2868 C2804 0.930 . S
H2869 C2805 0.929 . S
H2870 C2808 0.930 . S
H2871 C2811 0.929 . S
H2872 C2812 0.930 . S
H2873 C2816 0.962 . S
H2874 C2816 0.959 . S
H2875 C2816 0.958 . S
C2876 C2877 1.560 . S
C2876 H2937 0.959 . S
C2876 H2938 0.959 . S
C2876 H2939 0.960 . S
C2877 C2876 1.560 . S
C2877 O2932 1.426 . S
C2877 H2936 0.980 . S
C2878 C2879 1.407 . S
C2878 C2883 1.418 . S
C2878 O2932 1.334 . S
C2879 C2878 1.407 . S
C2879 C2880 1.360 . S
C2879 H2940 0.929 . S
C2880 C2879 1.360 . S
C2880 C2881 1.401 . S
C2880 C2884 1.527 . S
C2881 C2880 1.401 . S
C2881 C2882 1.405 . S
C2881 C2914 1.587 . S
C2882 C2881 1.405 . S
C2882 C2883 1.332 . S
C2882 C2885 1.496 . S
C2883 C2878 1.418 . S
C2883 C2882 1.332 . S
C2883 H2941 0.929 . S
C2884 C2880 1.527 . S
C2884 H2942 0.959 . S
C2884 H2943 0.961 . S
C2884 H2944 0.961 . S
C2885 C2882 1.496 . S
C2885 H2945 0.960 . S
C2885 H2946 0.960 . S
C2885 H2947 0.961 . S
C2886 C2887 1.517 . S
C2886 H2949 0.961 . S
C2886 H2950 0.960 . S
C2886 H2951 0.959 . S
C2887 C2886 1.517 . S
C2887 O2935 1.468 . S
C2887 H2948 0.980 . S
C2888 C2889 1.349 . S
C2888 C2893 1.367 . S
C2888 O2935 1.408 . S
C2889 C2888 1.349 . S
C2889 C2890 1.407 . S
C2889 H2952 0.930 . S
C2890 C2889 1.407 . S
C2890 C2891 1.449 . S
C2890 C2894 1.535 . S
C2891 C2890 1.449 . S
C2891 C2892 1.384 . S
C2891 C2916 1.553 . S
C2892 C2891 1.384 . S
C2892 C2893 1.364 . S
C2892 C2895 1.450 . S
C2893 C2888 1.367 . S
C2893 C2892 1.364 . S
C2893 H2953 0.931 . S
C2894 C2890 1.535 . S
C2894 H2954 0.959 . S
C2894 H2955 0.961 . S
C2894 H2956 0.959 . S
C2895 C2892 1.450 . S
C2895 H2957 0.960 . S
C2895 H2958 0.960 . S
C2895 H2959 0.960 . S
C2896 C2897 1.309 . S
C2896 C2901 1.304 . S
C2896 O2934 1.435 . S
C2897 C2896 1.309 . S
C2897 C2898 1.476 . S
C2897 H2961 0.930 . S
C2898 C2897 1.476 . S
C2898 C2899 1.400 . S
C2898 C2902 1.567 . S
C2899 C2898 1.400 . S
C2899 C2900 1.373 . S
C2899 C2921 1.432 . S
C2900 C2899 1.373 . S
C2900 C2901 1.339 . S
C2900 C2903 1.530 . S
C2901 C2896 1.304 . S
C2901 C2900 1.339 . S
C2901 H2962 0.930 . S
C2902 C2898 1.567 . S
C2902 H2963 0.961 . S
C2902 H2964 0.960 . S
C2902 H2965 0.958 . S
C2903 C2900 1.530 . S
C2903 H2966 0.961 . S
C2903 H2967 0.960 . S
C2903 H2968 0.960 . S
C2904 C2905 1.530 . S
C2904 H2970 0.961 . S
C2904 H2971 0.961 . S
C2904 H2972 0.959 . S
C2905 C2904 1.530 . S
C2905 O2933 1.412 . S
C2905 H2969 0.980 . S
C2906 C2907 1.288 . S
C2906 C2911 1.377 . S
C2906 O2933 1.393 . S
C2907 C2906 1.288 . S
C2907 C2908 1.369 . S
C2907 H2973 0.932 . S
C2908 C2907 1.369 . S
C2908 C2909 1.398 . S
C2908 C2912 1.527 . S
C2909 C2908 1.398 . S
C2909 C2910 1.380 . S
C2909 C2923 1.497 . S
C2910 C2909 1.380 . S
C2910 C2911 1.383 . S
C2910 C2913 1.603 . S
C2911 C2906 1.377 . S
C2911 C2910 1.383 . S
C2911 H2974 0.929 . S
C2912 C2908 1.527 . S
C2912 H2975 0.961 . S
C2912 H2976 0.959 . S
C2912 H2977 0.959 . S
C2913 C2910 1.603 . S
C2913 H2978 0.960 . S
C2913 H2979 0.962 . S
C2913 H2980 0.961 . S
C2914 C2881 1.587 . S
C2914 C2915 1.360 . S
C2914 C2927 1.412 . S
C2915 C2914 1.360 . S
C2915 C2916 1.365 . S
C2915 H2981 0.929 . S
C2916 C2891 1.553 . S
C2916 C2915 1.365 . S
C2916 C2917 1.404 . S
C2917 C2916 1.404 . S
C2917 C2918 1.395 . S
C2917 C2928 1.451 . S
C2918 C2917 1.395 . S
C2918 C2919 1.322 . S
C2918 H2982 0.930 . S
C2919 C2918 1.322 . S
C2919 C2920 1.459 . S
C2919 H2983 0.929 . S
C2920 C2919 1.459 . S
C2920 C2921 1.445 . S
C2920 C2929 1.395 . S
C2921 C2899 1.432 . S
C2921 C2920 1.445 . S
C2921 C2922 1.370 . S
C2922 C2921 1.370 . S
C2922 C2923 1.438 . S
C2922 H2984 0.930 . S
C2923 C2909 1.497 . S
C2923 C2922 1.438 . S
C2923 C2924 1.360 . S
C2924 C2923 1.360 . S
C2924 C2925 1.401 . S
C2924 C2929 1.446 . S
C2925 C2924 1.401 . S
C2925 C2926 1.347 . S
C2925 H2985 0.929 . S
C2926 C2925 1.347 . S
C2926 C2927 1.455 . S
C2926 H2986 0.930 . S
C2927 C2914 1.412 . S
C2927 C2926 1.455 . S
C2927 C2928 1.331 . S
C2928 C2917 1.451 . S
C2928 C2927 1.331 . S
C2928 C2929 1.497 . S
C2929 C2920 1.395 . S
C2929 C2924 1.446 . S
C2929 C2928 1.497 . S
C2930 C2931 1.582 . S
C2930 H2987 0.962 . S
C2930 H2988 0.959 . S
C2930 H2989 0.958 . S
C2931 C2930 1.582 . S
C2931 O2934 1.458 . S
C2931 H2960 0.980 . S
O2932 C2877 1.426 . S
O2932 C2878 1.334 . S
O2933 C2905 1.412 . S
O2933 C2906 1.393 . S
O2934 C2896 1.435 . S
O2934 C2931 1.458 . S
O2935 C2887 1.468 . S
O2935 C2888 1.408 . S
H2936 C2877 0.980 . S
H2937 C2876 0.959 . S
H2938 C2876 0.959 . S
H2939 C2876 0.960 . S
H2940 C2879 0.929 . S
H2941 C2883 0.929 . S
H2942 C2884 0.959 . S
H2943 C2884 0.961 . S
H2944 C2884 0.961 . S
H2945 C2885 0.960 . S
H2946 C2885 0.960 . S
H2947 C2885 0.961 . S
H2948 C2887 0.980 . S
H2949 C2886 0.961 . S
H2950 C2886 0.960 . S
H2951 C2886 0.959 . S
H2952 C2889 0.930 . S
H2953 C2893 0.931 . S
H2954 C2894 0.959 . S
H2955 C2894 0.961 . S
H2956 C2894 0.959 . S
H2957 C2895 0.960 . S
H2958 C2895 0.960 . S
H2959 C2895 0.960 . S
H2960 C2931 0.980 . S
H2961 C2897 0.930 . S
H2962 C2901 0.930 . S
H2963 C2902 0.961 . S
H2964 C2902 0.960 . S
H2965 C2902 0.958 . S
H2966 C2903 0.961 . S
H2967 C2903 0.960 . S
H2968 C2903 0.960 . S
H2969 C2905 0.980 . S
H2970 C2904 0.961 . S
H2971 C2904 0.961 . S
H2972 C2904 0.959 . S
H2973 C2907 0.932 . S
H2974 C2911 0.929 . S
H2975 C2912 0.961 . S
H2976 C2912 0.959 . S
H2977 C2912 0.959 . S
H2978 C2913 0.960 . S
H2979 C2913 0.962 . S
H2980 C2913 0.961 . S
H2981 C2915 0.929 . S
H2982 C2918 0.930 . S
H2983 C2919 0.929 . S
H2984 C2922 0.930 . S
H2985 C2925 0.929 . S
H2986 C2926 0.930 . S
H2987 C2930 0.962 . S
H2988 C2930 0.959 . S
H2989 C2930 0.958 . S
C2990 C2991 1.560 . S
C2990 H3051 0.959 . S
C2990 H3052 0.959 . S
C2990 H3053 0.960 . S
C2991 C2990 1.560 . S
C2991 O3046 1.426 . S
C2991 H3050 0.980 . S
C2992 C2993 1.407 . S
C2992 C2997 1.418 . S
C2992 O3046 1.334 . S
C2993 C2992 1.407 . S
C2993 C2994 1.360 . S
C2993 H3054 0.929 . S
C2994 C2993 1.360 . S
C2994 C2995 1.401 . S
C2994 C2998 1.527 . S
C2995 C2994 1.401 . S
C2995 C2996 1.405 . S
C2995 C3028 1.587 . S
C2996 C2995 1.405 . S
C2996 C2997 1.332 . S
C2996 C2999 1.496 . S
C2997 C2992 1.418 . S
C2997 C2996 1.332 . S
C2997 H3055 0.929 . S
C2998 C2994 1.527 . S
C2998 H3056 0.959 . S
C2998 H3057 0.961 . S
C2998 H3058 0.961 . S
C2999 C2996 1.496 . S
C2999 H3059 0.960 . S
C2999 H3060 0.960 . S
C2999 H3061 0.961 . S
C3000 C3001 1.517 . S
C3000 H3063 0.961 . S
C3000 H3064 0.960 . S
C3000 H3065 0.959 . S
C3001 C3000 1.517 . S
C3001 O3049 1.468 . S
C3001 H3062 0.980 . S
C3002 C3003 1.349 . S
C3002 C3007 1.367 . S
C3002 O3049 1.408 . S
C3003 C3002 1.349 . S
C3003 C3004 1.407 . S
C3003 H3066 0.930 . S
C3004 C3003 1.407 . S
C3004 C3005 1.449 . S
C3004 C3008 1.535 . S
C3005 C3004 1.449 . S
C3005 C3006 1.384 . S
C3005 C3030 1.553 . S
C3006 C3005 1.384 . S
C3006 C3007 1.364 . S
C3006 C3009 1.450 . S
C3007 C3002 1.367 . S
C3007 C3006 1.364 . S
C3007 H3067 0.931 . S
C3008 C3004 1.535 . S
C3008 H3068 0.959 . S
C3008 H3069 0.961 . S
C3008 H3070 0.959 . S
C3009 C3006 1.450 . S
C3009 H3071 0.960 . S
C3009 H3072 0.960 . S
C3009 H3073 0.960 . S
C3010 C3011 1.309 . S
C3010 C3015 1.304 . S
C3010 O3048 1.435 . S
C3011 C3010 1.309 . S
C3011 C3012 1.476 . S
C3011 H3075 0.930 . S
C3012 C3011 1.476 . S
C3012 C3013 1.400 . S
C3012 C3016 1.567 . S
C3013 C3012 1.400 . S
C3013 C3014 1.373 . S
C3013 C3035 1.432 . S
C3014 C3013 1.373 . S
C3014 C3015 1.339 . S
C3014 C3017 1.530 . S
C3015 C3010 1.304 . S
C3015 C3014 1.339 . S
C3015 H3076 0.930 . S
C3016 C3012 1.567 . S
C3016 H3077 0.961 . S
C3016 H3078 0.960 . S
C3016 H3079 0.958 . S
C3017 C3014 1.530 . S
C3017 H3080 0.961 . S
C3017 H3081 0.960 . S
C3017 H3082 0.960 . S
C3018 C3019 1.530 . S
C3018 H3084 0.961 . S
C3018 H3085 0.961 . S
C3018 H3086 0.959 . S
C3019 C3018 1.530 . S
C3019 O3047 1.412 . S
C3019 H3083 0.980 . S
C3020 C3021 1.288 . S
C3020 C3025 1.377 . S
C3020 O3047 1.393 . S
C3021 C3020 1.288 . S
C3021 C3022 1.369 . S
C3021 H3087 0.932 . S
C3022 C3021 1.369 . S
C3022 C3023 1.398 . S
C3022 C3026 1.527 . S
C3023 C3022 1.398 . S
C3023 C3024 1.380 . S
C3023 C3037 1.497 . S
C3024 C3023 1.380 . S
C3024 C3025 1.383 . S
C3024 C3027 1.603 . S
C3025 C3020 1.377 . S
C3025 C3024 1.383 . S
C3025 H3088 0.929 . S
C3026 C3022 1.527 . S
C3026 H3089 0.961 . S
C3026 H3090 0.959 . S
C3026 H3091 0.959 . S
C3027 C3024 1.603 . S
C3027 H3092 0.960 . S
C3027 H3093 0.962 . S
C3027 H3094 0.961 . S
C3028 C2995 1.587 . S
C3028 C3029 1.360 . S
C3028 C3041 1.412 . S
C3029 C3028 1.360 . S
C3029 C3030 1.365 . S
C3029 H3095 0.929 . S
C3030 C3005 1.553 . S
C3030 C3029 1.365 . S
C3030 C3031 1.404 . S
C3031 C3030 1.404 . S
C3031 C3032 1.395 . S
C3031 C3042 1.451 . S
C3032 C3031 1.395 . S
C3032 C3033 1.322 . S
C3032 H3096 0.930 . S
C3033 C3032 1.322 . S
C3033 C3034 1.459 . S
C3033 H3097 0.929 . S
C3034 C3033 1.459 . S
C3034 C3035 1.445 . S
C3034 C3043 1.395 . S
C3035 C3013 1.432 . S
C3035 C3034 1.445 . S
C3035 C3036 1.370 . S
C3036 C3035 1.370 . S
C3036 C3037 1.438 . S
C3036 H3098 0.930 . S
C3037 C3023 1.497 . S
C3037 C3036 1.438 . S
C3037 C3038 1.360 . S
C3038 C3037 1.360 . S
C3038 C3039 1.401 . S
C3038 C3043 1.446 . S
C3039 C3038 1.401 . S
C3039 C3040 1.347 . S
C3039 H3099 0.929 . S
C3040 C3039 1.347 . S
C3040 C3041 1.455 . S
C3040 H3100 0.930 . S
C3041 C3028 1.412 . S
C3041 C3040 1.455 . S
C3041 C3042 1.331 . S
C3042 C3031 1.451 . S
C3042 C3041 1.331 . S
C3042 C3043 1.497 . S
C3043 C3034 1.395 . S
C3043 C3038 1.446 . S
C3043 C3042 1.497 . S
C3044 C3045 1.582 . S
C3044 H3101 0.962 . S
C3044 H3102 0.959 . S
C3044 H3103 0.958 . S
C3045 C3044 1.582 . S
C3045 O3048 1.458 . S
C3045 H3074 0.980 . S
O3046 C2991 1.426 . S
O3046 C2992 1.334 . S
O3047 C3019 1.412 . S
O3047 C3020 1.393 . S
O3048 C3010 1.435 . S
O3048 C3045 1.458 . S
O3049 C3001 1.468 . S
O3049 C3002 1.408 . S
H3050 C2991 0.980 . S
H3051 C2990 0.959 . S
H3052 C2990 0.959 . S
H3053 C2990 0.960 . S
H3054 C2993 0.929 . S
H3055 C2997 0.929 . S
H3056 C2998 0.959 . S
H3057 C2998 0.961 . S
H3058 C2998 0.961 . S
H3059 C2999 0.960 . S
H3060 C2999 0.960 . S
H3061 C2999 0.961 . S
H3062 C3001 0.980 . S
H3063 C3000 0.961 . S
H3064 C3000 0.960 . S
H3065 C3000 0.959 . S
H3066 C3003 0.930 . S
H3067 C3007 0.931 . S
H3068 C3008 0.959 . S
H3069 C3008 0.961 . S
H3070 C3008 0.959 . S
H3071 C3009 0.960 . S
H3072 C3009 0.960 . S
H3073 C3009 0.960 . S
H3074 C3045 0.980 . S
H3075 C3011 0.930 . S
H3076 C3015 0.930 . S
H3077 C3016 0.961 . S
H3078 C3016 0.960 . S
H3079 C3016 0.958 . S
H3080 C3017 0.961 . S
H3081 C3017 0.960 . S
H3082 C3017 0.960 . S
H3083 C3019 0.980 . S
H3084 C3018 0.961 . S
H3085 C3018 0.961 . S
H3086 C3018 0.959 . S
H3087 C3021 0.932 . S
H3088 C3025 0.929 . S
H3089 C3026 0.961 . S
H3090 C3026 0.959 . S
H3091 C3026 0.959 . S
H3092 C3027 0.960 . S
H3093 C3027 0.962 . S
H3094 C3027 0.961 . S
H3095 C3029 0.929 . S
H3096 C3032 0.930 . S
H3097 C3033 0.929 . S
H3098 C3036 0.930 . S
H3099 C3039 0.929 . S
H3100 C3040 0.930 . S
H3101 C3044 0.962 . S
H3102 C3044 0.959 . S
H3103 C3044 0.958 . S
C3104 C3105 1.560 . S
C3104 H3165 0.959 . S
C3104 H3166 0.959 . S
C3104 H3167 0.960 . S
C3105 C3104 1.560 . S
C3105 O3160 1.426 . S
C3105 H3164 0.980 . S
C3106 C3107 1.407 . S
C3106 C3111 1.418 . S
C3106 O3160 1.334 . S
C3107 C3106 1.407 . S
C3107 C3108 1.360 . S
C3107 H3168 0.929 . S
C3108 C3107 1.360 . S
C3108 C3109 1.401 . S
C3108 C3112 1.527 . S
C3109 C3108 1.401 . S
C3109 C3110 1.405 . S
C3109 C3142 1.587 . S
C3110 C3109 1.405 . S
C3110 C3111 1.332 . S
C3110 C3113 1.496 . S
C3111 C3106 1.418 . S
C3111 C3110 1.332 . S
C3111 H3169 0.929 . S
C3112 C3108 1.527 . S
C3112 H3170 0.959 . S
C3112 H3171 0.961 . S
C3112 H3172 0.961 . S
C3113 C3110 1.496 . S
C3113 H3173 0.960 . S
C3113 H3174 0.960 . S
C3113 H3175 0.961 . S
C3114 C3115 1.517 . S
C3114 H3177 0.961 . S
C3114 H3178 0.960 . S
C3114 H3179 0.959 . S
C3115 C3114 1.517 . S
C3115 O3163 1.468 . S
C3115 H3176 0.980 . S
C3116 C3117 1.349 . S
C3116 C3121 1.367 . S
C3116 O3163 1.408 . S
C3117 C3116 1.349 . S
C3117 C3118 1.407 . S
C3117 H3180 0.930 . S
C3118 C3117 1.407 . S
C3118 C3119 1.449 . S
C3118 C3122 1.535 . S
C3119 C3118 1.449 . S
C3119 C3120 1.384 . S
C3119 C3144 1.553 . S
C3120 C3119 1.384 . S
C3120 C3121 1.364 . S
C3120 C3123 1.450 . S
C3121 C3116 1.367 . S
C3121 C3120 1.364 . S
C3121 H3181 0.931 . S
C3122 C3118 1.535 . S
C3122 H3182 0.959 . S
C3122 H3183 0.961 . S
C3122 H3184 0.959 . S
C3123 C3120 1.450 . S
C3123 H3185 0.960 . S
C3123 H3186 0.960 . S
C3123 H3187 0.960 . S
C3124 C3125 1.309 . S
C3124 C3129 1.304 . S
C3124 O3162 1.435 . S
C3125 C3124 1.309 . S
C3125 C3126 1.476 . S
C3125 H3189 0.930 . S
C3126 C3125 1.476 . S
C3126 C3127 1.400 . S
C3126 C3130 1.567 . S
C3127 C3126 1.400 . S
C3127 C3128 1.373 . S
C3127 C3149 1.432 . S
C3128 C3127 1.373 . S
C3128 C3129 1.339 . S
C3128 C3131 1.530 . S
C3129 C3124 1.304 . S
C3129 C3128 1.339 . S
C3129 H3190 0.930 . S
C3130 C3126 1.567 . S
C3130 H3191 0.961 . S
C3130 H3192 0.960 . S
C3130 H3193 0.958 . S
C3131 C3128 1.530 . S
C3131 H3194 0.961 . S
C3131 H3195 0.960 . S
C3131 H3196 0.960 . S
C3132 C3133 1.530 . S
C3132 H3198 0.961 . S
C3132 H3199 0.961 . S
C3132 H3200 0.959 . S
C3133 C3132 1.530 . S
C3133 O3161 1.412 . S
C3133 H3197 0.980 . S
C3134 C3135 1.288 . S
C3134 C3139 1.377 . S
C3134 O3161 1.393 . S
C3135 C3134 1.288 . S
C3135 C3136 1.369 . S
C3135 H3201 0.932 . S
C3136 C3135 1.369 . S
C3136 C3137 1.398 . S
C3136 C3140 1.527 . S
C3137 C3136 1.398 . S
C3137 C3138 1.380 . S
C3137 C3151 1.497 . S
C3138 C3137 1.380 . S
C3138 C3139 1.383 . S
C3138 C3141 1.603 . S
C3139 C3134 1.377 . S
C3139 C3138 1.383 . S
C3139 H3202 0.929 . S
C3140 C3136 1.527 . S
C3140 H3203 0.961 . S
C3140 H3204 0.959 . S
C3140 H3205 0.959 . S
C3141 C3138 1.603 . S
C3141 H3206 0.960 . S
C3141 H3207 0.962 . S
C3141 H3208 0.961 . S
C3142 C3109 1.587 . S
C3142 C3143 1.360 . S
C3142 C3155 1.412 . S
C3143 C3142 1.360 . S
C3143 C3144 1.365 . S
C3143 H3209 0.929 . S
C3144 C3119 1.553 . S
C3144 C3143 1.365 . S
C3144 C3145 1.404 . S
C3145 C3144 1.404 . S
C3145 C3146 1.395 . S
C3145 C3156 1.451 . S
C3146 C3145 1.395 . S
C3146 C3147 1.322 . S
C3146 H3210 0.930 . S
C3147 C3146 1.322 . S
C3147 C3148 1.459 . S
C3147 H3211 0.929 . S
C3148 C3147 1.459 . S
C3148 C3149 1.445 . S
C3148 C3157 1.395 . S
C3149 C3127 1.432 . S
C3149 C3148 1.445 . S
C3149 C3150 1.370 . S
C3150 C3149 1.370 . S
C3150 C3151 1.438 . S
C3150 H3212 0.930 . S
C3151 C3137 1.497 . S
C3151 C3150 1.438 . S
C3151 C3152 1.360 . S
C3152 C3151 1.360 . S
C3152 C3153 1.401 . S
C3152 C3157 1.446 . S
C3153 C3152 1.401 . S
C3153 C3154 1.347 . S
C3153 H3213 0.929 . S
C3154 C3153 1.347 . S
C3154 C3155 1.455 . S
C3154 H3214 0.930 . S
C3155 C3142 1.412 . S
C3155 C3154 1.455 . S
C3155 C3156 1.331 . S
C3156 C3145 1.451 . S
C3156 C3155 1.331 . S
C3156 C3157 1.497 . S
C3157 C3148 1.395 . S
C3157 C3152 1.446 . S
C3157 C3156 1.497 . S
C3158 C3159 1.582 . S
C3158 H3215 0.962 . S
C3158 H3216 0.959 . S
C3158 H3217 0.958 . S
C3159 C3158 1.582 . S
C3159 O3162 1.458 . S
C3159 H3188 0.980 . S
O3160 C3105 1.426 . S
O3160 C3106 1.334 . S
O3161 C3133 1.412 . S
O3161 C3134 1.393 . S
O3162 C3124 1.435 . S
O3162 C3159 1.458 . S
O3163 C3115 1.468 . S
O3163 C3116 1.408 . S
H3164 C3105 0.980 . S
H3165 C3104 0.959 . S
H3166 C3104 0.959 . S
H3167 C3104 0.960 . S
H3168 C3107 0.929 . S
H3169 C3111 0.929 . S
H3170 C3112 0.959 . S
H3171 C3112 0.961 . S
H3172 C3112 0.961 . S
H3173 C3113 0.960 . S
H3174 C3113 0.960 . S
H3175 C3113 0.961 . S
H3176 C3115 0.980 . S
H3177 C3114 0.961 . S
H3178 C3114 0.960 . S
H3179 C3114 0.959 . S
H3180 C3117 0.930 . S
H3181 C3121 0.931 . S
H3182 C3122 0.959 . S
H3183 C3122 0.961 . S
H3184 C3122 0.959 . S
H3185 C3123 0.960 . S
H3186 C3123 0.960 . S
H3187 C3123 0.960 . S
H3188 C3159 0.980 . S
H3189 C3125 0.930 . S
H3190 C3129 0.930 . S
H3191 C3130 0.961 . S
H3192 C3130 0.960 . S
H3193 C3130 0.958 . S
H3194 C3131 0.961 . S
H3195 C3131 0.960 . S
H3196 C3131 0.960 . S
H3197 C3133 0.980 . S
H3198 C3132 0.961 . S
H3199 C3132 0.961 . S
H3200 C3132 0.959 . S
H3201 C3135 0.932 . S
H3202 C3139 0.929 . S
H3203 C3140 0.961 . S
H3204 C3140 0.959 . S
H3205 C3140 0.959 . S
H3206 C3141 0.960 . S
H3207 C3141 0.962 . S
H3208 C3141 0.961 . S
H3209 C3143 0.929 . S
H3210 C3146 0.930 . S
H3211 C3147 0.929 . S
H3212 C3150 0.930 . S
H3213 C3153 0.929 . S
H3214 C3154 0.930 . S
H3215 C3158 0.962 . S
H3216 C3158 0.959 . S
H3217 C3158 0.958 . S
C3218 C3219 1.560 . S
C3218 H3279 0.959 . S
C3218 H3280 0.959 . S
C3218 H3281 0.960 . S
C3219 C3218 1.560 . S
C3219 O3274 1.426 . S
C3219 H3278 0.980 . S
C3220 C3221 1.407 . S
C3220 C3225 1.418 . S
C3220 O3274 1.334 . S
C3221 C3220 1.407 . S
C3221 C3222 1.360 . S
C3221 H3282 0.929 . S
C3222 C3221 1.360 . S
C3222 C3223 1.401 . S
C3222 C3226 1.527 . S
C3223 C3222 1.401 . S
C3223 C3224 1.405 . S
C3223 C3256 1.587 . S
C3224 C3223 1.405 . S
C3224 C3225 1.332 . S
C3224 C3227 1.496 . S
C3225 C3220 1.418 . S
C3225 C3224 1.332 . S
C3225 H3283 0.929 . S
C3226 C3222 1.527 . S
C3226 H3284 0.959 . S
C3226 H3285 0.961 . S
C3226 H3286 0.961 . S
C3227 C3224 1.496 . S
C3227 H3287 0.960 . S
C3227 H3288 0.960 . S
C3227 H3289 0.961 . S
C3228 C3229 1.517 . S
C3228 H3291 0.961 . S
C3228 H3292 0.960 . S
C3228 H3293 0.959 . S
C3229 C3228 1.517 . S
C3229 O3277 1.468 . S
C3229 H3290 0.980 . S
C3230 C3231 1.349 . S
C3230 C3235 1.367 . S
C3230 O3277 1.408 . S
C3231 C3230 1.349 . S
C3231 C3232 1.407 . S
C3231 H3294 0.930 . S
C3232 C3231 1.407 . S
C3232 C3233 1.449 . S
C3232 C3236 1.535 . S
C3233 C3232 1.449 . S
C3233 C3234 1.384 . S
C3233 C3258 1.553 . S
C3234 C3233 1.384 . S
C3234 C3235 1.364 . S
C3234 C3237 1.450 . S
C3235 C3230 1.367 . S
C3235 C3234 1.364 . S
C3235 H3295 0.931 . S
C3236 C3232 1.535 . S
C3236 H3296 0.959 . S
C3236 H3297 0.961 . S
C3236 H3298 0.959 . S
C3237 C3234 1.450 . S
C3237 H3299 0.960 . S
C3237 H3300 0.960 . S
C3237 H3301 0.960 . S
C3238 C3239 1.309 . S
C3238 C3243 1.304 . S
C3238 O3276 1.435 . S
C3239 C3238 1.309 . S
C3239 C3240 1.476 . S
C3239 H3303 0.930 . S
C3240 C3239 1.476 . S
C3240 C3241 1.400 . S
C3240 C3244 1.567 . S
C3241 C3240 1.400 . S
C3241 C3242 1.373 . S
C3241 C3263 1.432 . S
C3242 C3241 1.373 . S
C3242 C3243 1.339 . S
C3242 C3245 1.530 . S
C3243 C3238 1.304 . S
C3243 C3242 1.339 . S
C3243 H3304 0.930 . S
C3244 C3240 1.567 . S
C3244 H3305 0.961 . S
C3244 H3306 0.960 . S
C3244 H3307 0.958 . S
C3245 C3242 1.530 . S
C3245 H3308 0.961 . S
C3245 H3309 0.960 . S
C3245 H3310 0.960 . S
C3246 C3247 1.530 . S
C3246 H3312 0.961 . S
C3246 H3313 0.961 . S
C3246 H3314 0.959 . S
C3247 C3246 1.530 . S
C3247 O3275 1.412 . S
C3247 H3311 0.980 . S
C3248 C3249 1.288 . S
C3248 C3253 1.377 . S
C3248 O3275 1.393 . S
C3249 C3248 1.288 . S
C3249 C3250 1.369 . S
C3249 H3315 0.932 . S
C3250 C3249 1.369 . S
C3250 C3251 1.398 . S
C3250 C3254 1.527 . S
C3251 C3250 1.398 . S
C3251 C3252 1.380 . S
C3251 C3265 1.497 . S
C3252 C3251 1.380 . S
C3252 C3253 1.383 . S
C3252 C3255 1.603 . S
C3253 C3248 1.377 . S
C3253 C3252 1.383 . S
C3253 H3316 0.929 . S
C3254 C3250 1.527 . S
C3254 H3317 0.961 . S
C3254 H3318 0.959 . S
C3254 H3319 0.959 . S
C3255 C3252 1.603 . S
C3255 H3320 0.960 . S
C3255 H3321 0.962 . S
C3255 H3322 0.961 . S
C3256 C3223 1.587 . S
C3256 C3257 1.360 . S
C3256 C3269 1.412 . S
C3257 C3256 1.360 . S
C3257 C3258 1.365 . S
C3257 H3323 0.929 . S
C3258 C3233 1.553 . S
C3258 C3257 1.365 . S
C3258 C3259 1.404 . S
C3259 C3258 1.404 . S
C3259 C3260 1.395 . S
C3259 C3270 1.451 . S
C3260 C3259 1.395 . S
C3260 C3261 1.322 . S
C3260 H3324 0.930 . S
C3261 C3260 1.322 . S
C3261 C3262 1.459 . S
C3261 H3325 0.929 . S
C3262 C3261 1.459 . S
C3262 C3263 1.445 . S
C3262 C3271 1.395 . S
C3263 C3241 1.432 . S
C3263 C3262 1.445 . S
C3263 C3264 1.370 . S
C3264 C3263 1.370 . S
C3264 C3265 1.438 . S
C3264 H3326 0.930 . S
C3265 C3251 1.497 . S
C3265 C3264 1.438 . S
C3265 C3266 1.360 . S
C3266 C3265 1.360 . S
C3266 C3267 1.401 . S
C3266 C3271 1.446 . S
C3267 C3266 1.401 . S
C3267 C3268 1.347 . S
C3267 H3327 0.929 . S
C3268 C3267 1.347 . S
C3268 C3269 1.455 . S
C3268 H3328 0.930 . S
C3269 C3256 1.412 . S
C3269 C3268 1.455 . S
C3269 C3270 1.331 . S
C3270 C3259 1.451 . S
C3270 C3269 1.331 . S
C3270 C3271 1.497 . S
C3271 C3262 1.395 . S
C3271 C3266 1.446 . S
C3271 C3270 1.497 . S
C3272 C3273 1.582 . S
C3272 H3329 0.962 . S
C3272 H3330 0.959 . S
C3272 H3331 0.958 . S
C3273 C3272 1.582 . S
C3273 O3276 1.458 . S
C3273 H3302 0.980 . S
O3274 C3219 1.426 . S
O3274 C3220 1.334 . S
O3275 C3247 1.412 . S
O3275 C3248 1.393 . S
O3276 C3238 1.435 . S
O3276 C3273 1.458 . S
O3277 C3229 1.468 . S
O3277 C3230 1.408 . S
H3278 C3219 0.980 . S
H3279 C3218 0.959 . S
H3280 C3218 0.959 . S
H3281 C3218 0.960 . S
H3282 C3221 0.929 . S
H3283 C3225 0.929 . S
H3284 C3226 0.959 . S
H3285 C3226 0.961 . S
H3286 C3226 0.961 . S
H3287 C3227 0.960 . S
H3288 C3227 0.960 . S
H3289 C3227 0.961 . S
H3290 C3229 0.980 . S
H3291 C3228 0.961 . S
H3292 C3228 0.960 . S
H3293 C3228 0.959 . S
H3294 C3231 0.930 . S
H3295 C3235 0.931 . S
H3296 C3236 0.959 . S
H3297 C3236 0.961 . S
H3298 C3236 0.959 . S
H3299 C3237 0.960 . S
H3300 C3237 0.960 . S
H3301 C3237 0.960 . S
H3302 C3273 0.980 . S
H3303 C3239 0.930 . S
H3304 C3243 0.930 . S
H3305 C3244 0.961 . S
H3306 C3244 0.960 . S
H3307 C3244 0.958 . S
H3308 C3245 0.961 . S
H3309 C3245 0.960 . S
H3310 C3245 0.960 . S
H3311 C3247 0.980 . S
H3312 C3246 0.961 . S
H3313 C3246 0.961 . S
H3314 C3246 0.959 . S
H3315 C3249 0.932 . S
H3316 C3253 0.929 . S
H3317 C3254 0.961 . S
H3318 C3254 0.959 . S
H3319 C3254 0.959 . S
H3320 C3255 0.960 . S
H3321 C3255 0.962 . S
H3322 C3255 0.961 . S
H3323 C3257 0.929 . S
H3324 C3260 0.930 . S
H3325 C3261 0.929 . S
H3326 C3264 0.930 . S
H3327 C3267 0.929 . S
H3328 C3268 0.930 . S
H3329 C3272 0.962 . S
H3330 C3272 0.959 . S
H3331 C3272 0.958 . S
C3332 C3333 1.560 . S
C3332 H3393 0.959 . S
C3332 H3394 0.959 . S
C3332 H3395 0.960 . S
C3333 C3332 1.560 . S
C3333 O3388 1.426 . S
C3333 H3392 0.980 . S
C3334 C3335 1.407 . S
C3334 C3339 1.418 . S
C3334 O3388 1.334 . S
C3335 C3334 1.407 . S
C3335 C3336 1.360 . S
C3335 H3396 0.929 . S
C3336 C3335 1.360 . S
C3336 C3337 1.401 . S
C3336 C3340 1.527 . S
C3337 C3336 1.401 . S
C3337 C3338 1.405 . S
C3337 C3370 1.587 . S
C3338 C3337 1.405 . S
C3338 C3339 1.332 . S
C3338 C3341 1.496 . S
C3339 C3334 1.418 . S
C3339 C3338 1.332 . S
C3339 H3397 0.929 . S
C3340 C3336 1.527 . S
C3340 H3398 0.959 . S
C3340 H3399 0.961 . S
C3340 H3400 0.961 . S
C3341 C3338 1.496 . S
C3341 H3401 0.960 . S
C3341 H3402 0.960 . S
C3341 H3403 0.961 . S
C3342 C3343 1.517 . S
C3342 H3405 0.961 . S
C3342 H3406 0.960 . S
C3342 H3407 0.959 . S
C3343 C3342 1.517 . S
C3343 O3391 1.468 . S
C3343 H3404 0.980 . S
C3344 C3345 1.349 . S
C3344 C3349 1.367 . S
C3344 O3391 1.408 . S
C3345 C3344 1.349 . S
C3345 C3346 1.407 . S
C3345 H3408 0.930 . S
C3346 C3345 1.407 . S
C3346 C3347 1.449 . S
C3346 C3350 1.535 . S
C3347 C3346 1.449 . S
C3347 C3348 1.384 . S
C3347 C3372 1.553 . S
C3348 C3347 1.384 . S
C3348 C3349 1.364 . S
C3348 C3351 1.450 . S
C3349 C3344 1.367 . S
C3349 C3348 1.364 . S
C3349 H3409 0.931 . S
C3350 C3346 1.535 . S
C3350 H3410 0.959 . S
C3350 H3411 0.961 . S
C3350 H3412 0.959 . S
C3351 C3348 1.450 . S
C3351 H3413 0.960 . S
C3351 H3414 0.960 . S
C3351 H3415 0.960 . S
C3352 C3353 1.309 . S
C3352 C3357 1.304 . S
C3352 O3390 1.435 . S
C3353 C3352 1.309 . S
C3353 C3354 1.476 . S
C3353 H3417 0.930 . S
C3354 C3353 1.476 . S
C3354 C3355 1.400 . S
C3354 C3358 1.567 . S
C3355 C3354 1.400 . S
C3355 C3356 1.373 . S
C3355 C3377 1.432 . S
C3356 C3355 1.373 . S
C3356 C3357 1.339 . S
C3356 C3359 1.530 . S
C3357 C3352 1.304 . S
C3357 C3356 1.339 . S
C3357 H3418 0.930 . S
C3358 C3354 1.567 . S
C3358 H3419 0.961 . S
C3358 H3420 0.960 . S
C3358 H3421 0.958 . S
C3359 C3356 1.530 . S
C3359 H3422 0.961 . S
C3359 H3423 0.960 . S
C3359 H3424 0.960 . S
C3360 C3361 1.530 . S
C3360 H3426 0.961 . S
C3360 H3427 0.961 . S
C3360 H3428 0.959 . S
C3361 C3360 1.530 . S
C3361 O3389 1.412 . S
C3361 H3425 0.980 . S
C3362 C3363 1.288 . S
C3362 C3367 1.377 . S
C3362 O3389 1.393 . S
C3363 C3362 1.288 . S
C3363 C3364 1.369 . S
C3363 H3429 0.932 . S
C3364 C3363 1.369 . S
C3364 C3365 1.398 . S
C3364 C3368 1.527 . S
C3365 C3364 1.398 . S
C3365 C3366 1.380 . S
C3365 C3379 1.497 . S
C3366 C3365 1.380 . S
C3366 C3367 1.383 . S
C3366 C3369 1.603 . S
C3367 C3362 1.377 . S
C3367 C3366 1.383 . S
C3367 H3430 0.929 . S
C3368 C3364 1.527 . S
C3368 H3431 0.961 . S
C3368 H3432 0.959 . S
C3368 H3433 0.959 . S
C3369 C3366 1.603 . S
C3369 H3434 0.960 . S
C3369 H3435 0.962 . S
C3369 H3436 0.961 . S
C3370 C3337 1.587 . S
C3370 C3371 1.360 . S
C3370 C3383 1.412 . S
C3371 C3370 1.360 . S
C3371 C3372 1.365 . S
C3371 H3437 0.929 . S
C3372 C3347 1.553 . S
C3372 C3371 1.365 . S
C3372 C3373 1.404 . S
C3373 C3372 1.404 . S
C3373 C3374 1.395 . S
C3373 C3384 1.451 . S
C3374 C3373 1.395 . S
C3374 C3375 1.322 . S
C3374 H3438 0.930 . S
C3375 C3374 1.322 . S
C3375 C3376 1.459 . S
C3375 H3439 0.929 . S
C3376 C3375 1.459 . S
C3376 C3377 1.445 . S
C3376 C3385 1.395 . S
C3377 C3355 1.432 . S
C3377 C3376 1.445 . S
C3377 C3378 1.370 . S
C3378 C3377 1.370 . S
C3378 C3379 1.438 . S
C3378 H3440 0.930 . S
C3379 C3365 1.497 . S
C3379 C3378 1.438 . S
C3379 C3380 1.360 . S
C3380 C3379 1.360 . S
C3380 C3381 1.401 . S
C3380 C3385 1.446 . S
C3381 C3380 1.401 . S
C3381 C3382 1.347 . S
C3381 H3441 0.929 . S
C3382 C3381 1.347 . S
C3382 C3383 1.455 . S
C3382 H3442 0.930 . S
C3383 C3370 1.412 . S
C3383 C3382 1.455 . S
C3383 C3384 1.331 . S
C3384 C3373 1.451 . S
C3384 C3383 1.331 . S
C3384 C3385 1.497 . S
C3385 C3376 1.395 . S
C3385 C3380 1.446 . S
C3385 C3384 1.497 . S
C3386 C3387 1.582 . S
C3386 H3443 0.962 . S
C3386 H3444 0.959 . S
C3386 H3445 0.958 . S
C3387 C3386 1.582 . S
C3387 O3390 1.458 . S
C3387 H3416 0.980 . S
O3388 C3333 1.426 . S
O3388 C3334 1.334 . S
O3389 C3361 1.412 . S
O3389 C3362 1.393 . S
O3390 C3352 1.435 . S
O3390 C3387 1.458 . S
O3391 C3343 1.468 . S
O3391 C3344 1.408 . S
H3392 C3333 0.980 . S
H3393 C3332 0.959 . S
H3394 C3332 0.959 . S
H3395 C3332 0.960 . S
H3396 C3335 0.929 . S
H3397 C3339 0.929 . S
H3398 C3340 0.959 . S
H3399 C3340 0.961 . S
H3400 C3340 0.961 . S
H3401 C3341 0.960 . S
H3402 C3341 0.960 . S
H3403 C3341 0.961 . S
H3404 C3343 0.980 . S
H3405 C3342 0.961 . S
H3406 C3342 0.960 . S
H3407 C3342 0.959 . S
H3408 C3345 0.930 . S
H3409 C3349 0.931 . S
H3410 C3350 0.959 . S
H3411 C3350 0.961 . S
H3412 C3350 0.959 . S
H3413 C3351 0.960 . S
H3414 C3351 0.960 . S
H3415 C3351 0.960 . S
H3416 C3387 0.980 . S
H3417 C3353 0.930 . S
H3418 C3357 0.930 . S
H3419 C3358 0.961 . S
H3420 C3358 0.960 . S
H3421 C3358 0.958 . S
H3422 C3359 0.961 . S
H3423 C3359 0.960 . S
H3424 C3359 0.960 . S
H3425 C3361 0.980 . S
H3426 C3360 0.961 . S
H3427 C3360 0.961 . S
H3428 C3360 0.959 . S
H3429 C3363 0.932 . S
H3430 C3367 0.929 . S
H3431 C3368 0.961 . S
H3432 C3368 0.959 . S
H3433 C3368 0.959 . S
H3434 C3369 0.960 . S
H3435 C3369 0.962 . S
H3436 C3369 0.961 . S
H3437 C3371 0.929 . S
H3438 C3374 0.930 . S
H3439 C3375 0.929 . S
H3440 C3378 0.930 . S
H3441 C3381 0.929 . S
H3442 C3382 0.930 . S
H3443 C3386 0.962 . S
H3444 C3386 0.959 . S
H3445 C3386 0.958 . S
C3446 C3447 1.560 . S
C3446 H3507 0.959 . S
C3446 H3508 0.959 . S
C3446 H3509 0.960 . S
C3447 C3446 1.560 . S
C3447 O3502 1.426 . S
C3447 H3506 0.980 . S
C3448 C3449 1.407 . S
C3448 C3453 1.418 . S
C3448 O3502 1.334 . S
C3449 C3448 1.407 . S
C3449 C3450 1.360 . S
C3449 H3510 0.929 . S
C3450 C3449 1.360 . S
C3450 C3451 1.401 . S
C3450 C3454 1.527 . S
C3451 C3450 1.401 . S
C3451 C3452 1.405 . S
C3451 C3484 1.587 . S
C3452 C3451 1.405 . S
C3452 C3453 1.332 . S
C3452 C3455 1.496 . S
C3453 C3448 1.418 . S
C3453 C3452 1.332 . S
C3453 H3511 0.929 . S
C3454 C3450 1.527 . S
C3454 H3512 0.959 . S
C3454 H3513 0.961 . S
C3454 H3514 0.961 . S
C3455 C3452 1.496 . S
C3455 H3515 0.960 . S
C3455 H3516 0.960 . S
C3455 H3517 0.961 . S
C3456 C3457 1.517 . S
C3456 H3519 0.961 . S
C3456 H3520 0.960 . S
C3456 H3521 0.959 . S
C3457 C3456 1.517 . S
C3457 O3505 1.468 . S
C3457 H3518 0.980 . S
C3458 C3459 1.349 . S
C3458 C3463 1.367 . S
C3458 O3505 1.408 . S
C3459 C3458 1.349 . S
C3459 C3460 1.407 . S
C3459 H3522 0.930 . S
C3460 C3459 1.407 . S
C3460 C3461 1.449 . S
C3460 C3464 1.535 . S
C3461 C3460 1.449 . S
C3461 C3462 1.384 . S
C3461 C3486 1.553 . S
C3462 C3461 1.384 . S
C3462 C3463 1.364 . S
C3462 C3465 1.450 . S
C3463 C3458 1.367 . S
C3463 C3462 1.364 . S
C3463 H3523 0.931 . S
C3464 C3460 1.535 . S
C3464 H3524 0.959 . S
C3464 H3525 0.961 . S
C3464 H3526 0.959 . S
C3465 C3462 1.450 . S
C3465 H3527 0.960 . S
C3465 H3528 0.960 . S
C3465 H3529 0.960 . S
C3466 C3467 1.309 . S
C3466 C3471 1.304 . S
C3466 O3504 1.435 . S
C3467 C3466 1.309 . S
C3467 C3468 1.476 . S
C3467 H3531 0.930 . S
C3468 C3467 1.476 . S
C3468 C3469 1.400 . S
C3468 C3472 1.567 . S
C3469 C3468 1.400 . S
C3469 C3470 1.373 . S
C3469 C3491 1.432 . S
C3470 C3469 1.373 . S
C3470 C3471 1.339 . S
C3470 C3473 1.530 . S
C3471 C3466 1.304 . S
C3471 C3470 1.339 . S
C3471 H3532 0.930 . S
C3472 C3468 1.567 . S
C3472 H3533 0.961 . S
C3472 H3534 0.960 . S
C3472 H3535 0.958 . S
C3473 C3470 1.530 . S
C3473 H3536 0.961 . S
C3473 H3537 0.960 . S
C3473 H3538 0.960 . S
C3474 C3475 1.530 . S
C3474 H3540 0.961 . S
C3474 H3541 0.961 . S
C3474 H3542 0.959 . S
C3475 C3474 1.530 . S
C3475 O3503 1.412 . S
C3475 H3539 0.980 . S
C3476 C3477 1.288 . S
C3476 C3481 1.377 . S
C3476 O3503 1.393 . S
C3477 C3476 1.288 . S
C3477 C3478 1.369 . S
C3477 H3543 0.932 . S
C3478 C3477 1.369 . S
C3478 C3479 1.398 . S
C3478 C3482 1.527 . S
C3479 C3478 1.398 . S
C3479 C3480 1.380 . S
C3479 C3493 1.497 . S
C3480 C3479 1.380 . S
C3480 C3481 1.383 . S
C3480 C3483 1.603 . S
C3481 C3476 1.377 . S
C3481 C3480 1.383 . S
C3481 H3544 0.929 . S
C3482 C3478 1.527 . S
C3482 H3545 0.961 . S
C3482 H3546 0.959 . S
C3482 H3547 0.959 . S
C3483 C3480 1.603 . S
C3483 H3548 0.960 . S
C3483 H3549 0.962 . S
C3483 H3550 0.961 . S
C3484 C3451 1.587 . S
C3484 C3485 1.360 . S
C3484 C3497 1.412 . S
C3485 C3484 1.360 . S
C3485 C3486 1.365 . S
C3485 H3551 0.929 . S
C3486 C3461 1.553 . S
C3486 C3485 1.365 . S
C3486 C3487 1.404 . S
C3487 C3486 1.404 . S
C3487 C3488 1.395 . S
C3487 C3498 1.451 . S
C3488 C3487 1.395 . S
C3488 C3489 1.322 . S
C3488 H3552 0.930 . S
C3489 C3488 1.322 . S
C3489 C3490 1.459 . S
C3489 H3553 0.929 . S
C3490 C3489 1.459 . S
C3490 C3491 1.445 . S
C3490 C3499 1.395 . S
C3491 C3469 1.432 . S
C3491 C3490 1.445 . S
C3491 C3492 1.370 . S
C3492 C3491 1.370 . S
C3492 C3493 1.438 . S
C3492 H3554 0.930 . S
C3493 C3479 1.497 . S
C3493 C3492 1.438 . S
C3493 C3494 1.360 . S
C3494 C3493 1.360 . S
C3494 C3495 1.401 . S
C3494 C3499 1.446 . S
C3495 C3494 1.401 . S
C3495 C3496 1.347 . S
C3495 H3555 0.929 . S
C3496 C3495 1.347 . S
C3496 C3497 1.455 . S
C3496 H3556 0.930 . S
C3497 C3484 1.412 . S
C3497 C3496 1.455 . S
C3497 C3498 1.331 . S
C3498 C3487 1.451 . S
C3498 C3497 1.331 . S
C3498 C3499 1.497 . S
C3499 C3490 1.395 . S
C3499 C3494 1.446 . S
C3499 C3498 1.497 . S
C3500 C3501 1.582 . S
C3500 H3557 0.962 . S
C3500 H3558 0.959 . S
C3500 H3559 0.958 . S
C3501 C3500 1.582 . S
C3501 O3504 1.458 . S
C3501 H3530 0.980 . S
O3502 C3447 1.426 . S
O3502 C3448 1.334 . S
O3503 C3475 1.412 . S
O3503 C3476 1.393 . S
O3504 C3466 1.435 . S
O3504 C3501 1.458 . S
O3505 C3457 1.468 . S
O3505 C3458 1.408 . S
H3506 C3447 0.980 . S
H3507 C3446 0.959 . S
H3508 C3446 0.959 . S
H3509 C3446 0.960 . S
H3510 C3449 0.929 . S
H3511 C3453 0.929 . S
H3512 C3454 0.959 . S
H3513 C3454 0.961 . S
H3514 C3454 0.961 . S
H3515 C3455 0.960 . S
H3516 C3455 0.960 . S
H3517 C3455 0.961 . S
H3518 C3457 0.980 . S
H3519 C3456 0.961 . S
H3520 C3456 0.960 . S
H3521 C3456 0.959 . S
H3522 C3459 0.930 . S
H3523 C3463 0.931 . S
H3524 C3464 0.959 . S
H3525 C3464 0.961 . S
H3526 C3464 0.959 . S
H3527 C3465 0.960 . S
H3528 C3465 0.960 . S
H3529 C3465 0.960 . S
H3530 C3501 0.980 . S
H3531 C3467 0.930 . S
H3532 C3471 0.930 . S
H3533 C3472 0.961 . S
H3534 C3472 0.960 . S
H3535 C3472 0.958 . S
H3536 C3473 0.961 . S
H3537 C3473 0.960 . S
H3538 C3473 0.960 . S
H3539 C3475 0.980 . S
H3540 C3474 0.961 . S
H3541 C3474 0.961 . S
H3542 C3474 0.959 . S
H3543 C3477 0.932 . S
H3544 C3481 0.929 . S
H3545 C3482 0.961 . S
H3546 C3482 0.959 . S
H3547 C3482 0.959 . S
H3548 C3483 0.960 . S
H3549 C3483 0.962 . S
H3550 C3483 0.961 . S
H3551 C3485 0.929 . S
H3552 C3488 0.930 . S
H3553 C3489 0.929 . S
H3554 C3492 0.930 . S
H3555 C3495 0.929 . S
H3556 C3496 0.930 . S
H3557 C3500 0.962 . S
H3558 C3500 0.959 . S
H3559 C3500 0.958 . S
C3560 C3561 1.560 . S
C3560 H3621 0.959 . S
C3560 H3622 0.959 . S
C3560 H3623 0.960 . S
C3561 C3560 1.560 . S
C3561 O3616 1.426 . S
C3561 H3620 0.980 . S
C3562 C3563 1.407 . S
C3562 C3567 1.418 . S
C3562 O3616 1.334 . S
C3563 C3562 1.407 . S
C3563 C3564 1.360 . S
C3563 H3624 0.929 . S
C3564 C3563 1.360 . S
C3564 C3565 1.401 . S
C3564 C3568 1.527 . S
C3565 C3564 1.401 . S
C3565 C3566 1.405 . S
C3565 C3598 1.587 . S
C3566 C3565 1.405 . S
C3566 C3567 1.332 . S
C3566 C3569 1.496 . S
C3567 C3562 1.418 . S
C3567 C3566 1.332 . S
C3567 H3625 0.929 . S
C3568 C3564 1.527 . S
C3568 H3626 0.959 . S
C3568 H3627 0.961 . S
C3568 H3628 0.961 . S
C3569 C3566 1.496 . S
C3569 H3629 0.960 . S
C3569 H3630 0.960 . S
C3569 H3631 0.961 . S
C3570 C3571 1.517 . S
C3570 H3633 0.961 . S
C3570 H3634 0.960 . S
C3570 H3635 0.959 . S
C3571 C3570 1.517 . S
C3571 O3619 1.468 . S
C3571 H3632 0.980 . S
C3572 C3573 1.349 . S
C3572 C3577 1.367 . S
C3572 O3619 1.408 . S
C3573 C3572 1.349 . S
C3573 C3574 1.407 . S
C3573 H3636 0.930 . S
C3574 C3573 1.407 . S
C3574 C3575 1.449 . S
C3574 C3578 1.535 . S
C3575 C3574 1.449 . S
C3575 C3576 1.384 . S
C3575 C3600 1.553 . S
C3576 C3575 1.384 . S
C3576 C3577 1.364 . S
C3576 C3579 1.450 . S
C3577 C3572 1.367 . S
C3577 C3576 1.364 . S
C3577 H3637 0.931 . S
C3578 C3574 1.535 . S
C3578 H3638 0.959 . S
C3578 H3639 0.961 . S
C3578 H3640 0.959 . S
C3579 C3576 1.450 . S
C3579 H3641 0.960 . S
C3579 H3642 0.960 . S
C3579 H3643 0.960 . S
C3580 C3581 1.309 . S
C3580 C3585 1.304 . S
C3580 O3618 1.435 . S
C3581 C3580 1.309 . S
C3581 C3582 1.476 . S
C3581 H3645 0.930 . S
C3582 C3581 1.476 . S
C3582 C3583 1.400 . S
C3582 C3586 1.567 . S
C3583 C3582 1.400 . S
C3583 C3584 1.373 . S
C3583 C3605 1.432 . S
C3584 C3583 1.373 . S
C3584 C3585 1.339 . S
C3584 C3587 1.530 . S
C3585 C3580 1.304 . S
C3585 C3584 1.339 . S
C3585 H3646 0.930 . S
C3586 C3582 1.567 . S
C3586 H3647 0.961 . S
C3586 H3648 0.960 . S
C3586 H3649 0.958 . S
C3587 C3584 1.530 . S
C3587 H3650 0.961 . S
C3587 H3651 0.960 . S
C3587 H3652 0.960 . S
C3588 C3589 1.530 . S
C3588 H3654 0.961 . S
C3588 H3655 0.961 . S
C3588 H3656 0.959 . S
C3589 C3588 1.530 . S
C3589 O3617 1.412 . S
C3589 H3653 0.980 . S
C3590 C3591 1.288 . S
C3590 C3595 1.377 . S
C3590 O3617 1.393 . S
C3591 C3590 1.288 . S
C3591 C3592 1.369 . S
C3591 H3657 0.932 . S
C3592 C3591 1.369 . S
C3592 C3593 1.398 . S
C3592 C3596 1.527 . S
C3593 C3592 1.398 . S
C3593 C3594 1.380 . S
C3593 C3607 1.497 . S
C3594 C3593 1.380 . S
C3594 C3595 1.383 . S
C3594 C3597 1.603 . S
C3595 C3590 1.377 . S
C3595 C3594 1.383 . S
C3595 H3658 0.929 . S
C3596 C3592 1.527 . S
C3596 H3659 0.961 . S
C3596 H3660 0.959 . S
C3596 H3661 0.959 . S
C3597 C3594 1.603 . S
C3597 H3662 0.960 . S
C3597 H3663 0.962 . S
C3597 H3664 0.961 . S
C3598 C3565 1.587 . S
C3598 C3599 1.360 . S
C3598 C3611 1.412 . S
C3599 C3598 1.360 . S
C3599 C3600 1.365 . S
C3599 H3665 0.929 . S
C3600 C3575 1.553 . S
C3600 C3599 1.365 . S
C3600 C3601 1.404 . S
C3601 C3600 1.404 . S
C3601 C3602 1.395 . S
C3601 C3612 1.451 . S
C3602 C3601 1.395 . S
C3602 C3603 1.322 . S
C3602 H3666 0.930 . S
C3603 C3602 1.322 . S
C3603 C3604 1.459 . S
C3603 H3667 0.929 . S
C3604 C3603 1.459 . S
C3604 C3605 1.445 . S
C3604 C3613 1.395 . S
C3605 C3583 1.432 . S
C3605 C3604 1.445 . S
C3605 C3606 1.370 . S
C3606 C3605 1.370 . S
C3606 C3607 1.438 . S
C3606 H3668 0.930 . S
C3607 C3593 1.497 . S
C3607 C3606 1.438 . S
C3607 C3608 1.360 . S
C3608 C3607 1.360 . S
C3608 C3609 1.401 . S
C3608 C3613 1.446 . S
C3609 C3608 1.401 . S
C3609 C3610 1.347 . S
C3609 H3669 0.929 . S
C3610 C3609 1.347 . S
C3610 C3611 1.455 . S
C3610 H3670 0.930 . S
C3611 C3598 1.412 . S
C3611 C3610 1.455 . S
C3611 C3612 1.331 . S
C3612 C3601 1.451 . S
C3612 C3611 1.331 . S
C3612 C3613 1.497 . S
C3613 C3604 1.395 . S
C3613 C3608 1.446 . S
C3613 C3612 1.497 . S
C3614 C3615 1.582 . S
C3614 H3671 0.962 . S
C3614 H3672 0.959 . S
C3614 H3673 0.958 . S
C3615 C3614 1.582 . S
C3615 O3618 1.458 . S
C3615 H3644 0.980 . S
O3616 C3561 1.426 . S
O3616 C3562 1.334 . S
O3617 C3589 1.412 . S
O3617 C3590 1.393 . S
O3618 C3580 1.435 . S
O3618 C3615 1.458 . S
O3619 C3571 1.468 . S
O3619 C3572 1.408 . S
H3620 C3561 0.980 . S
H3621 C3560 0.959 . S
H3622 C3560 0.959 . S
H3623 C3560 0.960 . S
H3624 C3563 0.929 . S
H3625 C3567 0.929 . S
H3626 C3568 0.959 . S
H3627 C3568 0.961 . S
H3628 C3568 0.961 . S
H3629 C3569 0.960 . S
H3630 C3569 0.960 . S
H3631 C3569 0.961 . S
H3632 C3571 0.980 . S
H3633 C3570 0.961 . S
H3634 C3570 0.960 . S
H3635 C3570 0.959 . S
H3636 C3573 0.930 . S
H3637 C3577 0.931 . S
H3638 C3578 0.959 . S
H3639 C3578 0.961 . S
H3640 C3578 0.959 . S
H3641 C3579 0.960 . S
H3642 C3579 0.960 . S
H3643 C3579 0.960 . S
H3644 C3615 0.980 . S
H3645 C3581 0.930 . S
H3646 C3585 0.930 . S
H3647 C3586 0.961 . S
H3648 C3586 0.960 . S
H3649 C3586 0.958 . S
H3650 C3587 0.961 . S
H3651 C3587 0.960 . S
H3652 C3587 0.960 . S
H3653 C3589 0.980 . S
H3654 C3588 0.961 . S
H3655 C3588 0.961 . S
H3656 C3588 0.959 . S
H3657 C3591 0.932 . S
H3658 C3595 0.929 . S
H3659 C3596 0.961 . S
H3660 C3596 0.959 . S
H3661 C3596 0.959 . S
H3662 C3597 0.960 . S
H3663 C3597 0.962 . S
H3664 C3597 0.961 . S
H3665 C3599 0.929 . S
H3666 C3602 0.930 . S
H3667 C3603 0.929 . S
H3668 C3606 0.930 . S
H3669 C3609 0.929 . S
H3670 C3610 0.930 . S
H3671 C3614 0.962 . S
H3672 C3614 0.959 . S
H3673 C3614 0.958 . S
C3674 C3675 1.560 . S
C3674 H3735 0.959 . S
C3674 H3736 0.959 . S
C3674 H3737 0.960 . S
C3675 C3674 1.560 . S
C3675 O3730 1.426 . S
C3675 H3734 0.980 . S
C3676 C3677 1.407 . S
C3676 C3681 1.418 . S
C3676 O3730 1.334 . S
C3677 C3676 1.407 . S
C3677 C3678 1.360 . S
C3677 H3738 0.929 . S
C3678 C3677 1.360 . S
C3678 C3679 1.401 . S
C3678 C3682 1.527 . S
C3679 C3678 1.401 . S
C3679 C3680 1.405 . S
C3679 C3712 1.587 . S
C3680 C3679 1.405 . S
C3680 C3681 1.332 . S
C3680 C3683 1.496 . S
C3681 C3676 1.418 . S
C3681 C3680 1.332 . S
C3681 H3739 0.929 . S
C3682 C3678 1.527 . S
C3682 H3740 0.959 . S
C3682 H3741 0.961 . S
C3682 H3742 0.961 . S
C3683 C3680 1.496 . S
C3683 H3743 0.960 . S
C3683 H3744 0.960 . S
C3683 H3745 0.961 . S
C3684 C3685 1.517 . S
C3684 H3747 0.961 . S
C3684 H3748 0.960 . S
C3684 H3749 0.959 . S
C3685 C3684 1.517 . S
C3685 O3733 1.468 . S
C3685 H3746 0.980 . S
C3686 C3687 1.349 . S
C3686 C3691 1.367 . S
C3686 O3733 1.408 . S
C3687 C3686 1.349 . S
C3687 C3688 1.407 . S
C3687 H3750 0.930 . S
C3688 C3687 1.407 . S
C3688 C3689 1.449 . S
C3688 C3692 1.535 . S
C3689 C3688 1.449 . S
C3689 C3690 1.384 . S
C3689 C3714 1.553 . S
C3690 C3689 1.384 . S
C3690 C3691 1.364 . S
C3690 C3693 1.450 . S
C3691 C3686 1.367 . S
C3691 C3690 1.364 . S
C3691 H3751 0.931 . S
C3692 C3688 1.535 . S
C3692 H3752 0.959 . S
C3692 H3753 0.961 . S
C3692 H3754 0.959 . S
C3693 C3690 1.450 . S
C3693 H3755 0.960 . S
C3693 H3756 0.960 . S
C3693 H3757 0.960 . S
C3694 C3695 1.309 . S
C3694 C3699 1.304 . S
C3694 O3732 1.435 . S
C3695 C3694 1.309 . S
C3695 C3696 1.476 . S
C3695 H3759 0.930 . S
C3696 C3695 1.476 . S
C3696 C3697 1.400 . S
C3696 C3700 1.567 . S
C3697 C3696 1.400 . S
C3697 C3698 1.373 . S
C3697 C3719 1.432 . S
C3698 C3697 1.373 . S
C3698 C3699 1.339 . S
C3698 C3701 1.530 . S
C3699 C3694 1.304 . S
C3699 C3698 1.339 . S
C3699 H3760 0.930 . S
C3700 C3696 1.567 . S
C3700 H3761 0.961 . S
C3700 H3762 0.960 . S
C3700 H3763 0.958 . S
C3701 C3698 1.530 . S
C3701 H3764 0.961 . S
C3701 H3765 0.960 . S
C3701 H3766 0.960 . S
C3702 C3703 1.530 . S
C3702 H3768 0.961 . S
C3702 H3769 0.961 . S
C3702 H3770 0.959 . S
C3703 C3702 1.530 . S
C3703 O3731 1.412 . S
C3703 H3767 0.980 . S
C3704 C3705 1.288 . S
C3704 C3709 1.377 . S
C3704 O3731 1.393 . S
C3705 C3704 1.288 . S
C3705 C3706 1.369 . S
C3705 H3771 0.932 . S
C3706 C3705 1.369 . S
C3706 C3707 1.398 . S
C3706 C3710 1.527 . S
C3707 C3706 1.398 . S
C3707 C3708 1.380 . S
C3707 C3721 1.497 . S
C3708 C3707 1.380 . S
C3708 C3709 1.383 . S
C3708 C3711 1.603 . S
C3709 C3704 1.377 . S
C3709 C3708 1.383 . S
C3709 H3772 0.929 . S
C3710 C3706 1.527 . S
C3710 H3773 0.961 . S
C3710 H3774 0.959 . S
C3710 H3775 0.959 . S
C3711 C3708 1.603 . S
C3711 H3776 0.960 . S
C3711 H3777 0.962 . S
C3711 H3778 0.961 . S
C3712 C3679 1.587 . S
C3712 C3713 1.360 . S
C3712 C3725 1.412 . S
C3713 C3712 1.360 . S
C3713 C3714 1.365 . S
C3713 H3779 0.929 . S
C3714 C3689 1.553 . S
C3714 C3713 1.365 . S
C3714 C3715 1.404 . S
C3715 C3714 1.404 . S
C3715 C3716 1.395 . S
C3715 C3726 1.451 . S
C3716 C3715 1.395 . S
C3716 C3717 1.322 . S
C3716 H3780 0.930 . S
C3717 C3716 1.322 . S
C3717 C3718 1.459 . S
C3717 H3781 0.929 . S
C3718 C3717 1.459 . S
C3718 C3719 1.445 . S
C3718 C3727 1.395 . S
C3719 C3697 1.432 . S
C3719 C3718 1.445 . S
C3719 C3720 1.370 . S
C3720 C3719 1.370 . S
C3720 C3721 1.438 . S
C3720 H3782 0.930 . S
C3721 C3707 1.497 . S
C3721 C3720 1.438 . S
C3721 C3722 1.360 . S
C3722 C3721 1.360 . S
C3722 C3723 1.401 . S
C3722 C3727 1.446 . S
C3723 C3722 1.401 . S
C3723 C3724 1.347 . S
C3723 H3783 0.929 . S
C3724 C3723 1.347 . S
C3724 C3725 1.455 . S
C3724 H3784 0.930 . S
C3725 C3712 1.412 . S
C3725 C3724 1.455 . S
C3725 C3726 1.331 . S
C3726 C3715 1.451 . S
C3726 C3725 1.331 . S
C3726 C3727 1.497 . S
C3727 C3718 1.395 . S
C3727 C3722 1.446 . S
C3727 C3726 1.497 . S
C3728 C3729 1.582 . S
C3728 H3785 0.962 . S
C3728 H3786 0.959 . S
C3728 H3787 0.958 . S
C3729 C3728 1.582 . S
C3729 O3732 1.458 . S
C3729 H3758 0.980 . S
O3730 C3675 1.426 . S
O3730 C3676 1.334 . S
O3731 C3703 1.412 . S
O3731 C3704 1.393 . S
O3732 C3694 1.435 . S
O3732 C3729 1.458 . S
O3733 C3685 1.468 . S
O3733 C3686 1.408 . S
H3734 C3675 0.980 . S
H3735 C3674 0.959 . S
H3736 C3674 0.959 . S
H3737 C3674 0.960 . S
H3738 C3677 0.929 . S
H3739 C3681 0.929 . S
H3740 C3682 0.959 . S
H3741 C3682 0.961 . S
H3742 C3682 0.961 . S
H3743 C3683 0.960 . S
H3744 C3683 0.960 . S
H3745 C3683 0.961 . S
H3746 C3685 0.980 . S
H3747 C3684 0.961 . S
H3748 C3684 0.960 . S
H3749 C3684 0.959 . S
H3750 C3687 0.930 . S
H3751 C3691 0.931 . S
H3752 C3692 0.959 . S
H3753 C3692 0.961 . S
H3754 C3692 0.959 . S
H3755 C3693 0.960 . S
H3756 C3693 0.960 . S
H3757 C3693 0.960 . S
H3758 C3729 0.980 . S
H3759 C3695 0.930 . S
H3760 C3699 0.930 . S
H3761 C3700 0.961 . S
H3762 C3700 0.960 . S
H3763 C3700 0.958 . S
H3764 C3701 0.961 . S
H3765 C3701 0.960 . S
H3766 C3701 0.960 . S
H3767 C3703 0.980 . S
H3768 C3702 0.961 . S
H3769 C3702 0.961 . S
H3770 C3702 0.959 . S
H3771 C3705 0.932 . S
H3772 C3709 0.929 . S
H3773 C3710 0.961 . S
H3774 C3710 0.959 . S
H3775 C3710 0.959 . S
H3776 C3711 0.960 . S
H3777 C3711 0.962 . S
H3778 C3711 0.961 . S
H3779 C3713 0.929 . S
H3780 C3716 0.930 . S
H3781 C3717 0.929 . S
H3782 C3720 0.930 . S
H3783 C3723 0.929 . S
H3784 C3724 0.930 . S
H3785 C3728 0.962 . S
H3786 C3728 0.959 . S
H3787 C3728 0.958 . S
C3788 C3789 1.560 . S
C3788 H3849 0.959 . S
C3788 H3850 0.959 . S
C3788 H3851 0.960 . S
C3789 C3788 1.560 . S
C3789 O3844 1.426 . S
C3789 H3848 0.980 . S
C3790 C3791 1.407 . S
C3790 C3795 1.418 . S
C3790 O3844 1.334 . S
C3791 C3790 1.407 . S
C3791 C3792 1.360 . S
C3791 H3852 0.929 . S
C3792 C3791 1.360 . S
C3792 C3793 1.401 . S
C3792 C3796 1.527 . S
C3793 C3792 1.401 . S
C3793 C3794 1.405 . S
C3793 C3826 1.587 . S
C3794 C3793 1.405 . S
C3794 C3795 1.332 . S
C3794 C3797 1.496 . S
C3795 C3790 1.418 . S
C3795 C3794 1.332 . S
C3795 H3853 0.929 . S
C3796 C3792 1.527 . S
C3796 H3854 0.959 . S
C3796 H3855 0.961 . S
C3796 H3856 0.961 . S
C3797 C3794 1.496 . S
C3797 H3857 0.960 . S
C3797 H3858 0.960 . S
C3797 H3859 0.961 . S
C3798 C3799 1.517 . S
C3798 H3861 0.961 . S
C3798 H3862 0.960 . S
C3798 H3863 0.959 . S
C3799 C3798 1.517 . S
C3799 O3847 1.468 . S
C3799 H3860 0.980 . S
C3800 C3801 1.349 . S
C3800 C3805 1.367 . S
C3800 O3847 1.408 . S
C3801 C3800 1.349 . S
C3801 C3802 1.407 . S
C3801 H3864 0.930 . S
C3802 C3801 1.407 . S
C3802 C3803 1.449 . S
C3802 C3806 1.535 . S
C3803 C3802 1.449 . S
C3803 C3804 1.384 . S
C3803 C3828 1.553 . S
C3804 C3803 1.384 . S
C3804 C3805 1.364 . S
C3804 C3807 1.450 . S
C3805 C3800 1.367 . S
C3805 C3804 1.364 . S
C3805 H3865 0.931 . S
C3806 C3802 1.535 . S
C3806 H3866 0.959 . S
C3806 H3867 0.961 . S
C3806 H3868 0.959 . S
C3807 C3804 1.450 . S
C3807 H3869 0.960 . S
C3807 H3870 0.960 . S
C3807 H3871 0.960 . S
C3808 C3809 1.309 . S
C3808 C3813 1.304 . S
C3808 O3846 1.435 . S
C3809 C3808 1.309 . S
C3809 C3810 1.476 . S
C3809 H3873 0.930 . S
C3810 C3809 1.476 . S
C3810 C3811 1.400 . S
C3810 C3814 1.567 . S
C3811 C3810 1.400 . S
C3811 C3812 1.373 . S
C3811 C3833 1.432 . S
C3812 C3811 1.373 . S
C3812 C3813 1.339 . S
C3812 C3815 1.530 . S
C3813 C3808 1.304 . S
C3813 C3812 1.339 . S
C3813 H3874 0.930 . S
C3814 C3810 1.567 . S
C3814 H3875 0.961 . S
C3814 H3876 0.960 . S
C3814 H3877 0.958 . S
C3815 C3812 1.530 . S
C3815 H3878 0.961 . S
C3815 H3879 0.960 . S
C3815 H3880 0.960 . S
C3816 C3817 1.530 . S
C3816 H3882 0.961 . S
C3816 H3883 0.961 . S
C3816 H3884 0.959 . S
C3817 C3816 1.530 . S
C3817 O3845 1.412 . S
C3817 H3881 0.980 . S
C3818 C3819 1.288 . S
C3818 C3823 1.377 . S
C3818 O3845 1.393 . S
C3819 C3818 1.288 . S
C3819 C3820 1.369 . S
C3819 H3885 0.932 . S
C3820 C3819 1.369 . S
C3820 C3821 1.398 . S
C3820 C3824 1.527 . S
C3821 C3820 1.398 . S
C3821 C3822 1.380 . S
C3821 C3835 1.497 . S
C3822 C3821 1.380 . S
C3822 C3823 1.383 . S
C3822 C3825 1.603 . S
C3823 C3818 1.377 . S
C3823 C3822 1.383 . S
C3823 H3886 0.929 . S
C3824 C3820 1.527 . S
C3824 H3887 0.961 . S
C3824 H3888 0.959 . S
C3824 H3889 0.959 . S
C3825 C3822 1.603 . S
C3825 H3890 0.960 . S
C3825 H3891 0.962 . S
C3825 H3892 0.961 . S
C3826 C3793 1.587 . S
C3826 C3827 1.360 . S
C3826 C3839 1.412 . S
C3827 C3826 1.360 . S
C3827 C3828 1.365 . S
C3827 H3893 0.929 . S
C3828 C3803 1.553 . S
C3828 C3827 1.365 . S
C3828 C3829 1.404 . S
C3829 C3828 1.404 . S
C3829 C3830 1.395 . S
C3829 C3840 1.451 . S
C3830 C3829 1.395 . S
C3830 C3831 1.322 . S
C3830 H3894 0.930 . S
C3831 C3830 1.322 . S
C3831 C3832 1.459 . S
C3831 H3895 0.929 . S
C3832 C3831 1.459 . S
C3832 C3833 1.445 . S
C3832 C3841 1.395 . S
C3833 C3811 1.432 . S
C3833 C3832 1.445 . S
C3833 C3834 1.370 . S
C3834 C3833 1.370 . S
C3834 C3835 1.438 . S
C3834 H3896 0.930 . S
C3835 C3821 1.497 . S
C3835 C3834 1.438 . S
C3835 C3836 1.360 . S
C3836 C3835 1.360 . S
C3836 C3837 1.401 . S
C3836 C3841 1.446 . S
C3837 C3836 1.401 . S
C3837 C3838 1.347 . S
C3837 H3897 0.929 . S
C3838 C3837 1.347 . S
C3838 C3839 1.455 . S
C3838 H3898 0.930 . S
C3839 C3826 1.412 . S
C3839 C3838 1.455 . S
C3839 C3840 1.331 . S
C3840 C3829 1.451 . S
C3840 C3839 1.331 . S
C3840 C3841 1.497 . S
C3841 C3832 1.395 . S
C3841 C3836 1.446 . S
C3841 C3840 1.497 . S
C3842 C3843 1.582 . S
C3842 H3899 0.962 . S
C3842 H3900 0.959 . S
C3842 H3901 0.958 . S
C3843 C3842 1.582 . S
C3843 O3846 1.458 . S
C3843 H3872 0.980 . S
O3844 C3789 1.426 . S
O3844 C3790 1.334 . S
O3845 C3817 1.412 . S
O3845 C3818 1.393 . S
O3846 C3808 1.435 . S
O3846 C3843 1.458 . S
O3847 C3799 1.468 . S
O3847 C3800 1.408 . S
H3848 C3789 0.980 . S
H3849 C3788 0.959 . S
H3850 C3788 0.959 . S
H3851 C3788 0.960 . S
H3852 C3791 0.929 . S
H3853 C3795 0.929 . S
H3854 C3796 0.959 . S
H3855 C3796 0.961 . S
H3856 C3796 0.961 . S
H3857 C3797 0.960 . S
H3858 C3797 0.960 . S
H3859 C3797 0.961 . S
H3860 C3799 0.980 . S
H3861 C3798 0.961 . S
H3862 C3798 0.960 . S
H3863 C3798 0.959 . S
H3864 C3801 0.930 . S
H3865 C3805 0.931 . S
H3866 C3806 0.959 . S
H3867 C3806 0.961 . S
H3868 C3806 0.959 . S
H3869 C3807 0.960 . S
H3870 C3807 0.960 . S
H3871 C3807 0.960 . S
H3872 C3843 0.980 . S
H3873 C3809 0.930 . S
H3874 C3813 0.930 . S
H3875 C3814 0.961 . S
H3876 C3814 0.960 . S
H3877 C3814 0.958 . S
H3878 C3815 0.961 . S
H3879 C3815 0.960 . S
H3880 C3815 0.960 . S
H3881 C3817 0.980 . S
H3882 C3816 0.961 . S
H3883 C3816 0.961 . S
H3884 C3816 0.959 . S
H3885 C3819 0.932 . S
H3886 C3823 0.929 . S
H3887 C3824 0.961 . S
H3888 C3824 0.959 . S
H3889 C3824 0.959 . S
H3890 C3825 0.960 . S
H3891 C3825 0.962 . S
H3892 C3825 0.961 . S
H3893 C3827 0.929 . S
H3894 C3830 0.930 . S
H3895 C3831 0.929 . S
H3896 C3834 0.930 . S
H3897 C3837 0.929 . S
H3898 C3838 0.930 . S
H3899 C3842 0.962 . S
H3900 C3842 0.959 . S
H3901 C3842 0.958 . S
C3902 C3903 1.560 . S
C3902 H3963 0.959 . S
C3902 H3964 0.959 . S
C3902 H3965 0.960 . S
C3903 C3902 1.560 . S
C3903 O3958 1.426 . S
C3903 H3962 0.980 . S
C3904 C3905 1.407 . S
C3904 C3909 1.418 . S
C3904 O3958 1.334 . S
C3905 C3904 1.407 . S
C3905 C3906 1.360 . S
C3905 H3966 0.929 . S
C3906 C3905 1.360 . S
C3906 C3907 1.401 . S
C3906 C3910 1.527 . S
C3907 C3906 1.401 . S
C3907 C3908 1.405 . S
C3907 C3940 1.587 . S
C3908 C3907 1.405 . S
C3908 C3909 1.332 . S
C3908 C3911 1.496 . S
C3909 C3904 1.418 . S
C3909 C3908 1.332 . S
C3909 H3967 0.929 . S
C3910 C3906 1.527 . S
C3910 H3968 0.959 . S
C3910 H3969 0.961 . S
C3910 H3970 0.961 . S
C3911 C3908 1.496 . S
C3911 H3971 0.960 . S
C3911 H3972 0.960 . S
C3911 H3973 0.961 . S
C3912 C3913 1.517 . S
C3912 H3975 0.961 . S
C3912 H3976 0.960 . S
C3912 H3977 0.959 . S
C3913 C3912 1.517 . S
C3913 O3961 1.468 . S
C3913 H3974 0.980 . S
C3914 C3915 1.349 . S
C3914 C3919 1.367 . S
C3914 O3961 1.408 . S
C3915 C3914 1.349 . S
C3915 C3916 1.407 . S
C3915 H3978 0.930 . S
C3916 C3915 1.407 . S
C3916 C3917 1.449 . S
C3916 C3920 1.535 . S
C3917 C3916 1.449 . S
C3917 C3918 1.384 . S
C3917 C3942 1.553 . S
C3918 C3917 1.384 . S
C3918 C3919 1.364 . S
C3918 C3921 1.450 . S
C3919 C3914 1.367 . S
C3919 C3918 1.364 . S
C3919 H3979 0.931 . S
C3920 C3916 1.535 . S
C3920 H3980 0.959 . S
C3920 H3981 0.961 . S
C3920 H3982 0.959 . S
C3921 C3918 1.450 . S
C3921 H3983 0.960 . S
C3921 H3984 0.960 . S
C3921 H3985 0.960 . S
C3922 C3923 1.309 . S
C3922 C3927 1.304 . S
C3922 O3960 1.435 . S
C3923 C3922 1.309 . S
C3923 C3924 1.476 . S
C3923 H3987 0.930 . S
C3924 C3923 1.476 . S
C3924 C3925 1.400 . S
C3924 C3928 1.567 . S
C3925 C3924 1.400 . S
C3925 C3926 1.373 . S
C3925 C3947 1.432 . S
C3926 C3925 1.373 . S
C3926 C3927 1.339 . S
C3926 C3929 1.530 . S
C3927 C3922 1.304 . S
C3927 C3926 1.339 . S
C3927 H3988 0.930 . S
C3928 C3924 1.567 . S
C3928 H3989 0.961 . S
C3928 H3990 0.960 . S
C3928 H3991 0.958 . S
C3929 C3926 1.530 . S
C3929 H3992 0.961 . S
C3929 H3993 0.960 . S
C3929 H3994 0.960 . S
C3930 C3931 1.530 . S
C3930 H3996 0.961 . S
C3930 H3997 0.961 . S
C3930 H3998 0.959 . S
C3931 C3930 1.530 . S
C3931 O3959 1.412 . S
C3931 H3995 0.980 . S
C3932 C3933 1.288 . S
C3932 C3937 1.377 . S
C3932 O3959 1.393 . S
C3933 C3932 1.288 . S
C3933 C3934 1.369 . S
C3933 H3999 0.932 . S
C3934 C3933 1.369 . S
C3934 C3935 1.398 . S
C3934 C3938 1.527 . S
C3935 C3934 1.398 . S
C3935 C3936 1.380 . S
C3935 C3949 1.497 . S
C3936 C3935 1.380 . S
C3936 C3937 1.383 . S
C3936 C3939 1.603 . S
C3937 C3932 1.377 . S
C3937 C3936 1.383 . S
C3937 H4000 0.929 . S
C3938 C3934 1.527 . S
C3938 H4001 0.961 . S
C3938 H4002 0.959 . S
C3938 H4003 0.959 . S
C3939 C3936 1.603 . S
C3939 H4004 0.960 . S
C3939 H4005 0.962 . S
C3939 H4006 0.961 . S
C3940 C3907 1.587 . S
C3940 C3941 1.360 . S
C3940 C3953 1.412 . S
C3941 C3940 1.360 . S
C3941 C3942 1.365 . S
C3941 H4007 0.929 . S
C3942 C3917 1.553 . S
C3942 C3941 1.365 . S
C3942 C3943 1.404 . S
C3943 C3942 1.404 . S
C3943 C3944 1.395 . S
C3943 C3954 1.451 . S
C3944 C3943 1.395 . S
C3944 C3945 1.322 . S
C3944 H4008 0.930 . S
C3945 C3944 1.322 . S
C3945 C3946 1.459 . S
C3945 H4009 0.929 . S
C3946 C3945 1.459 . S
C3946 C3947 1.445 . S
C3946 C3955 1.395 . S
C3947 C3925 1.432 . S
C3947 C3946 1.445 . S
C3947 C3948 1.370 . S
C3948 C3947 1.370 . S
C3948 C3949 1.438 . S
C3948 H4010 0.930 . S
C3949 C3935 1.497 . S
C3949 C3948 1.438 . S
C3949 C3950 1.360 . S
C3950 C3949 1.360 . S
C3950 C3951 1.401 . S
C3950 C3955 1.446 . S
C3951 C3950 1.401 . S
C3951 C3952 1.347 . S
C3951 H4011 0.929 . S
C3952 C3951 1.347 . S
C3952 C3953 1.455 . S
C3952 H4012 0.930 . S
C3953 C3940 1.412 . S
C3953 C3952 1.455 . S
C3953 C3954 1.331 . S
C3954 C3943 1.451 . S
C3954 C3953 1.331 . S
C3954 C3955 1.497 . S
C3955 C3946 1.395 . S
C3955 C3950 1.446 . S
C3955 C3954 1.497 . S
C3956 C3957 1.582 . S
C3956 H4013 0.962 . S
C3956 H4014 0.959 . S
C3956 H4015 0.958 . S
C3957 C3956 1.582 . S
C3957 O3960 1.458 . S
C3957 H3986 0.980 . S
O3958 C3903 1.426 . S
O3958 C3904 1.334 . S
O3959 C3931 1.412 . S
O3959 C3932 1.393 . S
O3960 C3922 1.435 . S
O3960 C3957 1.458 . S
O3961 C3913 1.468 . S
O3961 C3914 1.408 . S
H3962 C3903 0.980 . S
H3963 C3902 0.959 . S
H3964 C3902 0.959 . S
H3965 C3902 0.960 . S
H3966 C3905 0.929 . S
H3967 C3909 0.929 . S
H3968 C3910 0.959 . S
H3969 C3910 0.961 . S
H3970 C3910 0.961 . S
H3971 C3911 0.960 . S
H3972 C3911 0.960 . S
H3973 C3911 0.961 . S
H3974 C3913 0.980 . S
H3975 C3912 0.961 . S
H3976 C3912 0.960 . S
H3977 C3912 0.959 . S
H3978 C3915 0.930 . S
H3979 C3919 0.931 . S
H3980 C3920 0.959 . S
H3981 C3920 0.961 . S
H3982 C3920 0.959 . S
H3983 C3921 0.960 . S
H3984 C3921 0.960 . S
H3985 C3921 0.960 . S
H3986 C3957 0.980 . S
H3987 C3923 0.930 . S
H3988 C3927 0.930 . S
H3989 C3928 0.961 . S
H3990 C3928 0.960 . S
H3991 C3928 0.958 . S
H3992 C3929 0.961 . S
H3993 C3929 0.960 . S
H3994 C3929 0.960 . S
H3995 C3931 0.980 . S
H3996 C3930 0.961 . S
H3997 C3930 0.961 . S
H3998 C3930 0.959 . S
H3999 C3933 0.932 . S
H4000 C3937 0.929 . S
H4001 C3938 0.961 . S
H4002 C3938 0.959 . S
H4003 C3938 0.959 . S
H4004 C3939 0.960 . S
H4005 C3939 0.962 . S
H4006 C3939 0.961 . S
H4007 C3941 0.929 . S
H4008 C3944 0.930 . S
H4009 C3945 0.929 . S
H4010 C3948 0.930 . S
H4011 C3951 0.929 . S
H4012 C3952 0.930 . S
H4013 C3956 0.962 . S
H4014 C3956 0.959 . S
H4015 C3956 0.958 . S
C1309 C21 1.829 . S
C1449 C42 1.642 . S
C82 C1509 1.256 . S
C1633 C135 1.367 . S
C175 C1623 0.882 . S
C221 C1335 2.008 . S
C255 C1423 1.511 . S
C1519 C301 0.855 . S
C1765 C15 1.878 . S
C55 C1879 1.292 . S
C101 C2019 2.020 . S
C2107 C141 1.334 . S
C162 C2203 1.015 . S
C2307 C215 1.143 . S
C261 C2449 1.496 . S
C2535 C282 1.070 . S
C2 C2133 2.173 . S
C181 C2317 1.277 . S
C2475 C202 1.800 . S
C242 C2545 1.124 . S
C2193 C295 0.810 . S
C1905 C95 1.703 . S
C122 C1993 1.511 . S
C1791 C61 1.363 . S
C2677 C341 1.633 . S
C362 C2773 1.054 . S
C402 C2877 1.374 . S
C3001 C455 1.254 . S
C495 C2991 1.025 . S
C541 C2703 2.001 . S
C575 C2763 1.313 . S
C621 C2887 0.979 . S
C2247 C335 1.939 . S
C375 C3105 1.140 . S
C2421 C421 1.136 . S
C461 C3219 1.183 . S
C482 C1737 1.195 . S
C3361 C535 1.665 . S
C581 C1975 0.688 . S
C3447 C602 1.197 . S
C322 C3229 1.261 . S
C3387 C501 1.959 . S
C522 C1965 1.099 . S
C3457 C562 1.124 . S
C615 C1747 0.701 . S
C415 C3115 1.279 . S
C442 C2431 0.637 . S
C381 C2221 1.290 . S
C661 C2905 1.674 . S
C3045 C682 1.453 . S
C722 C2649 1.235 . S
C775 C2817 1.958 . S
C815 C2791 1.200 . S
C861 C2931 2.089 . S
C3019 C895 1.231 . S
C941 C2659 0.916 . S
C3561 C655 0.925 . S
C695 C2335 1.330 . S
C3729 C741 2.004 . S
C781 C2563 1.444 . S
C802 C3799 1.157 . S
C855 C1851 1.112 . S
C3913 C901 0.738 . S
C922 C2079 1.131 . S
C2589 C642 2.032 . S
C1861 C821 1.330 . S
C842 C3903 1.228 . S
C882 C2089 1.102 . S
C3789 C935 0.906 . S
C2361 C735 1.655 . S
C3703 C762 1.621 . S
C3571 C701 0.981 . S
C981 C1537 1.649 . S
C1002 C1677 1.822 . S
C1281 C1042 1.240 . S
C1405 C1095 1.365 . S
C1395 C1135 1.045 . S
C1563 C1181 1.985 . S
C1651 C1215 1.313 . S
C1261 C1291 1.077 . S
C975 C3843 1.971 . S
C3333 C1015 1.282 . S
C3957 C1061 1.737 . S
C3475 C1101 1.346 . S
C1122 C3589 1.574 . S
C3133 C1175 1.584 . S
C3685 C1221 0.789 . S
C1242 C3247 1.305 . S
C3501 C962 1.880 . S
C3159 C1141 1.880 . S
C3675 C1162 1.178 . S
C1202 C3273 1.532 . S
C1255 C3615 2.027 . S
C1055 C3343 1.125 . S
C1082 C3931 1.592 . S
C3817 C1021 1.381 . S
