# Generated by pormake.
# Topology anh, (6,3)-cn, num edge types: 1
# Building blocks:
#     Node 0, Type 0, BuildingBlock: VOLQOD_clean_sbu_1, # of connection points: 6
#     Node 1, Type 0, BuildingBlock: VOLQOD_clean_sbu_1, # of connection points: 6
#     Node 2, Type 0, BuildingBlock: VOLQOD_clean_sbu_1, # of connection points: 6
#     Node 3, Type 1, BuildingBlock: INOVEN_clean_linker_0, # of connection points: 3
#     Node 4, Type 1, BuildingBlock: INOVEN_clean_linker_0, # of connection points: 3
#     Node 5, Type 1, BuildingBlock: INOVEN_clean_linker_0, # of connection points: 3
#     Node 6, Type 1, BuildingBlock: INOVEN_clean_linker_0, # of connection points: 3
#     Node 7, Type 1, BuildingBlock: INOVEN_clean_linker_0, # of connection points: 3
#     Node 8, Type 1, BuildingBlock: INOVEN_clean_linker_0, # of connection points: 3
#     Edge 9, Type (0, 1), BuildingBlock: TEMPAE_clean_linker_10, # of connection points: 2
#     Edge 10, Type (0, 1), BuildingBlock: TEMPAE_clean_linker_10, # of connection points: 2
#     Edge 11, Type (0, 1), BuildingBlock: TEMPAE_clean_linker_10, # of connection points: 2
#     Edge 12, Type (0, 1), BuildingBlock: TEMPAE_clean_linker_10, # of connection points: 2
#     Edge 13, Type (0, 1), BuildingBlock: TEMPAE_clean_linker_10, # of connection points: 2
#     Edge 14, Type (0, 1), BuildingBlock: TEMPAE_clean_linker_10, # of connection points: 2
#     Edge 15, Type (0, 1), BuildingBlock: TEMPAE_clean_linker_10, # of connection points: 2
#     Edge 16, Type (0, 1), BuildingBlock: TEMPAE_clean_linker_10, # of connection points: 2
#     Edge 17, Type (0, 1), BuildingBlock: TEMPAE_clean_linker_10, # of connection points: 2
#     Edge 18, Type (0, 1), BuildingBlock: TEMPAE_clean_linker_10, # of connection points: 2
#     Edge 19, Type (0, 1), BuildingBlock: TEMPAE_clean_linker_10, # of connection points: 2
#     Edge 20, Type (0, 1), BuildingBlock: TEMPAE_clean_linker_10, # of connection points: 2
#     Edge 21, Type (0, 1), BuildingBlock: TEMPAE_clean_linker_10, # of connection points: 2
#     Edge 22, Type (0, 1), BuildingBlock: TEMPAE_clean_linker_10, # of connection points: 2
#     Edge 23, Type (0, 1), BuildingBlock: TEMPAE_clean_linker_10, # of connection points: 2
#     Edge 24, Type (0, 1), BuildingBlock: TEMPAE_clean_linker_10, # of connection points: 2
#     Edge 25, Type (0, 1), BuildingBlock: TEMPAE_clean_linker_10, # of connection points: 2
#     Edge 26, Type (0, 1), BuildingBlock: TEMPAE_clean_linker_10, # of connection points: 2
# Relax obj value: 0.155
# Max RMSD: 0.215
# Mean RMSD: 0.133
data_MOF--net-anh--node1-VOLQOD_clean_sbu_1--node2-INOVEN_clean_linker_0--edge1-TEMPAE_clean_linker_10
_symmetry_space_group_name_H-M    P1
_symmetry_Int_Tables_number       1
_symmetry_cell_setting            triclinic
loop_
_symmetry_equiv_pos_as_xyz
'x, y, z'
_cell_length_a     29.875012
_cell_length_b     29.812255
_cell_length_c     57.274897
_cell_angle_alpha  92.556861
_cell_angle_beta   92.407053
_cell_angle_gamma 120.2078
loop_
_atom_site_label
_atom_site_type_symbol
_atom_site_fract_x
_atom_site_fract_y
_atom_site_fract_z
_atom_type_partial_charge
O0 O 0.02327 0.60801 0.20185 0.0
Zn1 Zn 0.02993 0.6175 0.16752 0.0
O2 O 0.03305 0.5606 0.15122 0.0
Zn3 Zn 0.97178 0.52165 0.12968 0.0
Zn4 Zn 0.03645 0.51579 0.17428 0.0
Zn5 Zn 0.09405 0.58774 0.1335 0.0
O6 O -0.0099 0.51408 0.09696 0.0
O7 O 0.07552 0.56729 0.09904 0.0
O8 O 0.9693 0.62301 0.15557 0.0
O9 O 0.93022 0.5573 0.12828 0.0
O10 O 0.92481 0.45145 0.14097 0.0
O11 O 0.97052 0.44677 0.1714 0.0
O12 O 0.09628 0.50388 0.17065 0.0
O13 O 0.09477 0.68514 0.16405 0.0
O14 O 0.13755 0.55769 0.14343 0.0
O15 O 0.1384 0.66528 0.13923 0.0
C16 C 0.03216 0.57999 0.21521 0.0
C17 C 0.0329 0.53608 0.08727 0.0
C18 C 0.92944 0.42702 0.1577 0.0
C19 C 0.93306 0.59632 0.13974 0.0
C20 C 0.13412 0.52483 0.15773 0.0
C21 C 0.13407 0.69854 0.15217 0.0
O22 O 0.04206 0.54569 0.20717 0.0
O23 O 0.46801 0.05981 0.45241 0.0
Zn24 Zn 0.45459 0.05401 0.48661 0.0
O25 O 0.50686 0.0452 0.50357 0.0
Zn26 Zn 0.54944 0.10471 0.52485 0.0
Zn27 Zn 0.55057 0.03717 0.48159 0.0
Zn28 Zn 0.47462 0.98654 0.52235 0.0
O29 O 0.56047 0.0852 0.55659 0.0
O30 O 0.4885 0.00818 0.557 0.0
O31 O 0.45368 0.11763 0.49952 0.0
O32 O 0.51571 0.1472 0.52848 0.0
O33 O 0.61711 0.15119 0.51205 0.0
O34 O 0.61946 0.10407 0.48158 0.0
O35 O 0.56254 0.97869 0.48955 0.0
O36 O 0.38399 0.99063 0.48864 0.0
O37 O 0.50598 0.94202 0.51651 0.0
O38 O 0.39826 0.94366 0.51371 0.0
C39 C 0.49025 0.04168 0.43977 0.0
C40 C 0.52873 0.04694 0.56751 0.0
C41 C 0.63977 0.14626 0.49467 0.0
C42 C 0.47986 0.14982 0.51695 0.0
C43 C 0.54054 0.94345 0.50376 0.0
C44 C 0.36762 0.95008 0.49999 0.0
O45 O 0.51814 0.0247 0.44871 0.0
O46 O 0.53028 0.50424 0.78216 0.0
Zn47 Zn 0.51025 0.48386 0.81486 0.0
O48 O 0.55951 0.53847 0.83813 0.0
Zn49 Zn 0.52604 0.57161 0.85372 0.0
Zn50 Zn 0.61922 0.59026 0.82295 0.0
Zn51 Zn 0.5832 0.50836 0.86136 0.0
O52 O 0.52705 0.56526 0.88859 0.0
O53 O 0.56618 0.51956 0.89364 0.0
O54 O 0.4378 0.47099 0.81747 0.0
O55 O 0.45136 0.53689 0.84216 0.0
O56 O 0.56097 0.64747 0.84821 0.0
O57 O 0.63169 0.66204 0.8308 0.0
O58 O 0.6842 0.58904 0.83199 0.0
O59 O 0.50873 0.41649 0.81927 0.0
O60 O 0.65967 0.53774 0.86138 0.0
O61 O 0.55308 0.43226 0.85363 0.0
C62 C 0.56971 0.54227 0.77426 0.0
C63 C 0.54392 0.54302 0.90185 0.0
C64 C 0.60389 0.67838 0.83989 0.0
C65 C 0.42105 0.4968 0.82861 0.0
C66 C 0.69439 0.5672 0.84828 0.0
C67 C 0.52623 0.40145 0.83598 0.0
O68 O 0.6065 0.57741 0.788 0.0
H69 H 0.49574 0.04268 0.19662 0.0
H70 H 0.41449 0.98392 0.25831 0.0
H71 H 0.56643 0.12153 0.26399 0.0
N72 N 0.58068 0.11967 0.21781 0.0
N73 N 0.61784 0.15929 0.22833 0.0
C74 C 0.49366 0.04581 0.21543 0.0
C75 C 0.44942 0.00956 0.22585 0.0
C76 C 0.53592 0.08565 0.2291 0.0
C77 C 0.53388 0.08992 0.25353 0.0
C78 C 0.49029 0.05313 0.26442 0.0
C79 C 0.44823 0.01301 0.25031 0.0
H80 H 0.55032 0.53766 0.53089 0.0
H81 H 0.5352 0.46901 0.59664 0.0
H82 H 0.60604 0.63499 0.59544 0.0
N83 N 0.59153 0.63432 0.54835 0.0
N84 N 0.61514 0.67987 0.55739 0.0
C85 C 0.55675 0.5418 0.54983 0.0
C86 C 0.5402 0.49763 0.56242 0.0
C87 C 0.58031 0.59133 0.56157 0.0
C88 C 0.58815 0.59678 0.5862 0.0
C89 C 0.57214 0.55272 0.59895 0.0
C90 C 0.54803 0.50331 0.58692 0.0
H91 H 0.00276 0.48124 0.84353 0.0
H92 H 0.97369 0.52744 0.9107 0.0
H93 H 0.06388 0.45212 0.90679 0.0
N94 N 0.06101 0.44452 0.85951 0.0
N95 N 0.0819 0.42117 0.86801 0.0
C96 C 0.00678 0.48313 0.86251 0.0
C97 C 0.98543 0.50716 0.8759 0.0
C98 C 0.03464 0.46277 0.87351 0.0
C99 C 0.04084 0.4662 0.89818 0.0
C100 C 0.01978 0.49042 0.91175 0.0
C101 C -0.00831 0.51025 0.9004 0.0
H102 H 0.01528 0.59203 0.45758 0.0
H103 H 0.07603 0.66888 0.39512 0.0
H104 H 0.93629 0.5187 0.39048 0.0
N105 N 0.93826 0.5055 0.43661 0.0
N106 N 0.89878 0.46831 0.426 0.0
C107 C 0.01218 0.59315 0.43871 0.0
C108 C 0.04922 0.63635 0.42789 0.0
C109 C 0.97203 0.55044 0.42527 0.0
C110 C 0.96806 0.55147 0.40077 0.0
C111 C 0.00567 0.59384 0.38952 0.0
C112 C 0.04611 0.63615 0.40336 0.0
H113 H 0.61386 0.09898 0.81105 0.0
H114 H 0.57058 0.13969 0.74643 0.0
H115 H 0.63044 0.03519 0.74538 0.0
N116 N 0.63734 0.03158 0.7922 0.0
N117 N 0.64512 -0.00104 0.78164 0.0
C118 C 0.61043 0.09599 0.79205 0.0
C119 C 0.59266 0.12453 0.77997 0.0
C120 C 0.6236 0.06335 0.77965 0.0
C121 C 0.61926 0.05968 0.75497 0.0
C122 C 0.59983 0.08673 0.74265 0.0
C123 C 0.58677 0.11926 0.75543 0.0
H124 H 0.55804 0.54976 0.14397 0.0
H125 H 0.61922 0.58842 0.0764 0.0
H126 H 0.45464 0.51137 0.08233 0.0
N127 N 0.45944 0.50688 0.12912 0.0
N128 N 0.41451 0.47499 0.12085 0.0
C129 C 0.55218 0.54995 0.12518 0.0
C130 C 0.5949 0.57243 0.11145 0.0
C131 C 0.50166 0.52698 0.11473 0.0
C132 C 0.49369 0.52767 0.09038 0.0
C133 C 0.53609 0.55118 0.07654 0.0
C134 C 0.58646 0.57292 0.0872 0.0
C135 C 0.21898 0.53795 0.1465 0.0
C136 C 0.17428 0.50983 0.1585 0.0
C137 C 0.25578 0.52242 0.14509 0.0
C138 C 0.24789 0.47759 0.15606 0.0
C139 C 0.20409 0.45021 0.16913 0.0
C140 C 0.16753 0.4666 0.17014 0.0
C141 C 0.30234 0.55327 0.13115 0.0
C142 C 0.19455 0.40257 0.18124 0.0
C143 C 0.32164 0.43 0.12232 0.0
C144 C 0.37074 0.46043 0.13396 0.0
C145 C 0.27818 0.42878 0.13126 0.0
C146 C 0.28473 0.45894 0.15228 0.0
C147 C 0.3327 0.48287 0.16592 0.0
C148 C 0.3756 0.48366 0.1565 0.0
C149 C 0.22723 0.40149 0.11651 0.0
C150 C 0.34057 0.51363 0.18888 0.0
H151 H 0.22488 0.5718 0.13773 0.0
H152 H 0.13308 0.44473 0.17951 0.0
H153 H 0.33878 0.56674 0.14225 0.0
H154 H 0.30193 0.52823 0.11612 0.0
H155 H 0.30313 0.58787 0.12422 0.0
H156 H 0.16827 0.39498 0.19559 0.0
H157 H 0.17588 0.36819 0.16834 0.0
H158 H 0.2314 0.40645 0.18858 0.0
H159 H 0.31824 0.41158 0.10506 0.0
H160 H 0.41354 0.50632 0.16585 0.0
H161 H 0.22236 0.43063 0.10704 0.0
H162 H 0.19417 0.382 0.12766 0.0
H163 H 0.22565 0.37209 0.10336 0.0
H164 H 0.34728 0.55277 0.18535 0.0
H165 H 0.37475 0.51878 0.19975 0.0
H166 H 0.30566 0.49432 0.199 0.0
C167 C 0.69701 0.24243 0.49613 0.0
C168 C 0.68652 0.19287 0.48774 0.0
C169 C 0.73543 0.28738 0.48694 0.0
C170 C 0.76495 0.28276 0.46933 0.0
C171 C 0.75698 0.23318 0.46186 0.0
C172 C 0.71732 0.18862 0.47097 0.0
C173 C 0.74213 0.33949 0.49506 0.0
C174 C 0.7888 0.22704 0.44355 0.0
C175 C 0.81633 0.38877 0.42701 0.0
C176 C 0.86665 0.42213 0.4369 0.0
C177 C 0.7829 0.34283 0.43726 0.0
C178 C 0.80111 0.32951 0.45753 0.0
C179 C 0.85272 0.36236 0.46717 0.0
C180 C 0.88486 0.40875 0.45687 0.0
C181 C 0.72775 0.30929 0.42675 0.0
C182 C 0.87377 0.34869 0.48841 0.0
H183 H 0.67324 0.2461 0.509 0.0
H184 H 0.70958 0.15045 0.46454 0.0
H185 H 0.78337 0.36756 0.50077 0.0
H186 H 0.73111 0.35568 0.48027 0.0
H187 H 0.71796 0.33664 0.50977 0.0
H188 H 0.78244 0.18693 0.4419 0.0
H189 H 0.7782 0.23594 0.42629 0.0
H190 H 0.83078 0.25491 0.44788 0.0
H191 H 0.80294 0.39941 0.41148 0.0
H192 H 0.92431 0.43423 0.46427 0.0
H193 H 0.70022 0.30627 0.43985 0.0
H194 H 0.71965 0.2693 0.42197 0.0
H195 H 0.71994 0.32506 0.41086 0.0
H196 H 0.85241 0.34857 0.50381 0.0
H197 H 0.91582 0.37652 0.49271 0.0
H198 H 0.86777 0.30894 0.48542 0.0
C199 C 0.58061 0.74718 0.83713 0.0
C200 C 0.61899 0.73336 0.83831 0.0
C201 C 0.59244 0.79676 0.83113 0.0
C202 C 0.64417 0.83368 0.82683 0.0
C203 C 0.68394 0.82151 0.83015 0.0
C204 C 0.67073 0.77106 0.83552 0.0
C205 C 0.54874 0.80799 0.82746 0.0
C206 C 0.73981 0.86058 0.8266 0.0
C207 C 0.6504 0.92115 0.78003 0.0
C208 C 0.65431 0.96333 0.79339 0.0
C209 C 0.64974 0.87964 0.79075 0.0
C210 C 0.65455 0.88138 0.81553 0.0
C211 C 0.66301 0.92615 0.82914 0.0
C212 C 0.66206 0.96658 0.81789 0.0
C213 C 0.64004 0.83236 0.77558 0.0
C214 C 0.67021 0.93013 0.85553 0.0
H215 H 0.54057 0.71814 0.8393 0.0
H216 H 0.70066 0.76067 0.83679 0.0
H217 H 0.55856 0.84523 0.83712 0.0
H218 H 0.54296 0.81205 0.80857 0.0
H219 H 0.51152 0.77663 0.83327 0.0
H220 H 0.76687 0.8491 0.83445 0.0
H221 H 0.74513 0.86355 0.80756 0.0
H222 H 0.75051 0.89977 0.83437 0.0
H223 H 0.64453 0.91931 0.76112 0.0
H224 H 0.66577 -0.00026 0.82825 0.0
H225 H 0.60196 0.79851 0.779 0.0
H226 H 0.67022 0.82221 0.77992 0.0
H227 H 0.63978 0.83845 0.75659 0.0
H228 H 0.63217 0.90549 0.86277 0.0
H229 H 0.68645 0.97077 0.86307 0.0
H230 H 0.69636 0.91575 0.86132 0.0
C231 C 0.85438 0.58332 0.11673 0.0
C232 C 0.89065 0.60759 0.13605 0.0
C233 C 0.80971 0.58726 0.11469 0.0
C234 C 0.80107 0.61598 0.13248 0.0
C235 C 0.83896 0.64318 0.1513 0.0
C236 C 0.88353 0.63877 0.15285 0.0
C237 C 0.77042 0.55828 0.09412 0.0
C238 C 0.83107 0.67436 0.1705 0.0
C239 C 0.69027 0.63613 0.11418 0.0
C240 C 0.64815 0.59103 0.12165 0.0
C241 C 0.74133 0.6475 0.11927 0.0
C242 C 0.7501 0.61298 0.13218 0.0
C243 C 0.70811 0.57033 0.14174 0.0
C244 C 0.65747 0.55977 0.13629 0.0
C245 C 0.78523 0.69373 0.10906 0.0
C246 C 0.7161 0.533 0.15586 0.0
H247 H 0.86001 0.55975 0.10353 0.0
H248 H 0.91151 0.65775 0.16783 0.0
H249 H 0.73423 0.52637 0.10041 0.0
H250 H 0.7602 0.58473 0.08537 0.0
H251 H 0.78491 0.54114 0.08093 0.0
H252 H 0.86741 0.69977 0.18169 0.0
H253 H 0.81669 0.69887 0.16302 0.0
H254 H 0.80124 0.6474 0.18177 0.0
H255 H 0.6831 0.66096 0.10324 0.0
H256 H 0.62504 0.52483 0.14207 0.0
H257 H 0.79742 0.68004 0.09356 0.0
H258 H 0.81946 0.71435 0.12193 0.0
H259 H 0.77349 0.72174 0.1034 0.0
H260 H 0.72585 0.50906 0.14408 0.0
H261 H 0.68084 0.50642 0.1647 0.0
H262 H 0.74899 0.55454 0.16932 0.0
C263 C 0.28019 0.91082 0.47833 0.0
C264 C 0.31344 0.90687 0.49508 0.0
C265 C 0.23253 0.8671 0.47025 0.0
C266 C 0.21794 0.81842 0.47912 0.0
C267 C 0.24922 0.8151 0.4974 0.0
C268 C 0.29663 0.85944 0.5052 0.0
C269 C 0.19982 0.87224 0.45091 0.0
C270 C 0.23473 0.7639 0.50742 0.0
C271 C 0.08273 0.70449 0.46143 0.0
C272 C 0.09241 0.68121 0.44199 0.0
C273 C 0.1233 0.74898 0.47401 0.0
C274 C 0.17446 0.77019 0.46694 0.0
C275 C 0.18449 0.74595 0.44767 0.0
C276 C 0.14331 0.70174 0.43544 0.0
C277 C 0.11132 0.77392 0.49446 0.0
C278 C 0.23866 0.76714 0.43972 0.0
H279 H 0.2925 0.94743 0.47061 0.0
H280 H 0.32172 0.85607 0.51836 0.0
H281 H 0.20267 0.8537 0.43423 0.0
H282 H 0.15835 0.85188 0.45475 0.0
H283 H 0.21261 0.91358 0.44831 0.0
H284 H 0.25872 0.76926 0.5238 0.0
H285 H 0.19318 0.74278 0.51113 0.0
H286 H 0.24052 0.73892 0.4944 0.0
H287 H 0.04324 0.68869 0.4664 0.0
H288 H 0.15089 0.68319 0.42064 0.0
H289 H 0.11981 0.8134 0.49046 0.0
H290 H 0.13646 0.77861 0.51028 0.0
H291 H 0.07005 0.75082 0.49857 0.0
H292 H 0.25372 0.80728 0.43437 0.0
H293 H 0.23991 0.74291 0.42474 0.0
H294 H 0.26526 0.76923 0.4544 0.0
C295 C 0.5527 0.33847 0.84841 0.0
C296 C 0.52198 0.34985 0.83337 0.0
C297 C 0.55882 0.29565 0.8431 0.0
C298 C 0.53308 0.26323 0.82245 0.0
C299 C 0.4977 0.27124 0.8086 0.0
C300 C 0.49275 0.31473 0.81416 0.0
C301 C 0.59688 0.28839 0.85832 0.0
C302 C 0.46867 0.23671 0.78671 0.0
C303 C 0.60489 0.21244 0.78758 0.0
C304 C 0.58001 0.16025 0.79265 0.0
C305 C 0.59077 0.24655 0.79776 0.0
C306 C 0.55015 0.2276 0.81308 0.0
C307 C 0.5256 0.17505 0.8187 0.0
C308 C 0.54116 0.14187 0.80847 0.0
C309 C 0.61861 0.30262 0.79166 0.0
C310 C 0.48187 0.15355 0.83478 0.0
H311 H 0.57502 0.36503 0.86347 0.0
H312 H 0.46823 0.32273 0.80269 0.0
H313 H 0.58141 0.24667 0.86104 0.0
H314 H 0.63343 0.30239 0.84944 0.0
H315 H 0.60633 0.3105 0.87569 0.0
H316 H 0.43643 0.24245 0.78027 0.0
H317 H 0.49586 0.24578 0.77269 0.0
H318 H 0.45256 0.19512 0.78993 0.0
H319 H 0.63512 0.22637 0.77539 0.0
H320 H 0.5218 0.10121 0.81215 0.0
H321 H 0.63462 0.32908 0.80788 0.0
H322 H 0.59083 0.31131 0.78236 0.0
H323 H 0.65094 0.31151 0.78034 0.0
H324 H 0.49332 0.17863 0.85136 0.0
H325 H 0.47007 0.11323 0.83899 0.0
H326 H 0.44768 0.15339 0.82632 0.0
C327 C 0.52671 0.86104 0.51904 0.0
C328 C 0.55696 0.90475 0.50672 0.0
C329 C 0.54356 0.82635 0.52425 0.0
C330 C 0.59199 0.83555 0.51698 0.0
C331 C 0.62193 0.87841 0.50374 0.0
C332 C 0.60398 0.91263 0.49871 0.0
C333 C 0.51011 0.78068 0.53821 0.0
C334 C 0.67363 0.88918 0.49565 0.0
C335 C 0.64187 0.77086 0.55679 0.0
C336 C 0.62098 0.72204 0.54473 0.0
C337 C 0.63741 0.8107 0.5469 0.0
C338 C 0.61135 0.80098 0.5244 0.0
C339 C 0.59507 0.75343 0.51115 0.0
C340 C 0.59996 0.71426 0.52151 0.0
C341 C 0.65578 0.86112 0.5615 0.0
C342 C 0.56779 0.74188 0.48699 0.0
H343 H 0.49005 0.85435 0.52505 0.0
H344 H 0.62758 0.9464 0.4892 0.0
H345 H 0.50167 0.74375 0.52865 0.0
H346 H 0.53118 0.78415 0.55523 0.0
H347 H 0.47264 0.77812 0.54176 0.0
H348 H 0.68886 0.91994 0.48306 0.0
H349 H 0.7023 0.90205 0.51101 0.0
H350 H 0.67034 0.85328 0.48726 0.0
H351 H 0.65832 0.77653 0.57466 0.0
H352 H 0.58432 0.6766 0.51196 0.0
H353 H 0.62174 0.86171 0.5682 0.0
H354 H 0.67587 0.89489 0.55076 0.0
H355 H 0.68252 0.86589 0.57672 0.0
H356 H 0.52712 0.73248 0.48857 0.0
H357 H 0.56698 0.70826 0.47736 0.0
H358 H 0.58687 0.77624 0.47651 0.0
C359 C 0.7579 0.55024 0.86967 0.0
C360 C 0.74587 0.57157 0.85077 0.0
C361 C 0.80301 0.54705 0.8708 0.0
C362 C 0.83715 0.56592 0.85263 0.0
C363 C 0.82681 0.59002 0.83412 0.0
C364 C 0.78109 0.59252 0.83338 0.0
C365 C 0.81293 0.52146 0.89101 0.0
C366 C 0.86275 0.61105 0.81463 0.0
C367 C 0.96431 0.57738 0.87218 0.0
C368 C 0.95468 0.52766 0.86479 0.0
C369 C 0.92846 0.59288 0.86622 0.0
C370 C 0.88191 0.55746 0.85282 0.0
C371 C 0.87459 0.50928 0.84338 0.0
C372 C 0.91135 0.49495 0.84946 0.0
C373 C 0.9381 0.64495 0.87624 0.0
C374 C 0.82549 0.47057 0.82891 0.0
H375 H 0.73119 0.53445 0.8833 0.0
H376 H 0.77208 0.60913 0.81871 0.0
H377 H 0.81253 0.48573 0.88431 0.0
H378 H 0.85184 0.54798 0.9 0.0
H379 H 0.78344 0.51057 0.90411 0.0
H380 H 0.85326 0.63515 0.80349 0.0
H381 H 0.90374 0.63484 0.82185 0.0
H382 H 0.85957 0.57816 0.80337 0.0
H383 H -0.00158 0.60293 0.88376 0.0
H384 H 0.90407 0.45653 0.84376 0.0
H385 H 0.91475 0.63913 0.89157 0.0
H386 H 0.92595 0.66386 0.86317 0.0
H387 H 0.97966 0.67162 0.8821 0.0
H388 H 0.79299 0.45267 0.8405 0.0
H389 H 0.82934 0.43901 0.81993 0.0
H390 H 0.81497 0.49019 0.81556 0.0
C391 C 0.2261 0.76564 0.14684 0.0
C392 C 0.17851 0.75232 0.15603 0.0
C393 C 0.27139 0.8123 0.15459 0.0
C394 C 0.26875 0.84616 0.17185 0.0
C395 C 0.22009 0.83534 0.17944 0.0
C396 C 0.17545 0.7885 0.17139 0.0
C397 C 0.32257 0.82302 0.14582 0.0
C398 C 0.21571 0.87085 0.19768 0.0
C399 C 0.3807 0.9164 0.21794 0.0
C400 C 0.4047 0.96751 0.21124 0.0
C401 C 0.33696 0.87645 0.20493 0.0
C402 C 0.31696 0.88796 0.18466 0.0
C403 C 0.34176 0.93922 0.17743 0.0
C404 C 0.38545 0.97855 0.19087 0.0
C405 C 0.31163 0.82208 0.21313 0.0
C406 C 0.32146 0.95269 0.15588 0.0
H407 H 0.22874 0.73824 0.13471 0.0
H408 H 0.13868 0.77895 0.17829 0.0
H409 H 0.34674 0.86447 0.14217 0.0
H410 H 0.34445 0.81504 0.15955 0.0
H411 H 0.31709 0.79819 0.12967 0.0
H412 H 0.17483 0.861 0.19911 0.0
H413 H 0.23126 0.86735 0.21502 0.0
H414 H 0.23905 0.91207 0.19355 0.0
H415 H 0.39615 0.90767 0.23343 0.0
H416 H 0.40385 0.0182 0.18576 0.0
H417 H 0.30967 0.79435 0.19899 0.0
H418 H 0.2712 0.80936 0.21731 0.0
H419 H 0.33288 0.81955 0.22894 0.0
H420 H 0.31638 0.92594 0.14059 0.0
H421 H 0.34774 0.99339 0.15156 0.0
H422 H 0.28275 0.94769 0.1587 0.0
C423 C 0.49823 0.22642 0.54335 0.0
C424 C 0.4726 0.19435 0.52287 0.0
C425 C 0.49963 0.27359 0.54764 0.0
C426 C 0.47425 0.28888 0.53115 0.0
C427 C 0.44509 0.25509 0.51126 0.0
C428 C 0.44474 0.20807 0.50728 0.0
C429 C 0.53095 0.30841 0.56919 0.0
C430 C 0.41668 0.26975 0.4936 0.0
C431 C 0.47004 0.40455 0.55728 0.0
C432 C 0.51655 0.44533 0.55024 0.0
C433 C 0.45239 0.35294 0.54913 0.0
C434 C 0.48274 0.34226 0.53407 0.0
C435 C 0.52739 0.38376 0.52538 0.0
C436 C 0.54363 0.43504 0.53351 0.0
C437 C 0.40384 0.30979 0.55825 0.0
C438 C 0.56092 0.37391 0.50936 0.0
H439 H 0.51916 0.21572 0.55569 0.0
H440 H 0.42459 0.18331 0.49147 0.0
H441 H 0.56424 0.34488 0.56385 0.0
H442 H 0.50679 0.31937 0.57947 0.0
H443 H 0.54631 0.28957 0.58078 0.0
H444 H 0.38824 0.2357 0.48176 0.0
H445 H 0.39596 0.28701 0.5025 0.0
H446 H 0.44509 0.29951 0.48273 0.0
H447 H 0.44876 0.41286 0.56999 0.0
H448 H 0.5796 0.46676 0.52811 0.0
H449 H 0.41479 0.29204 0.57237 0.0
H450 H 0.38051 0.27868 0.54418 0.0
H451 H 0.3793 0.32442 0.56557 0.0
H452 H 0.58184 0.35813 0.5194 0.0
H453 H 0.59008 0.41001 0.50181 0.0
H454 H 0.53671 0.34456 0.49483 0.0
C455 C 0.32835 0.4285 0.81703 0.0
C456 C 0.3648 0.47813 0.82738 0.0
C457 C 0.27485 0.40836 0.81863 0.0
C458 C 0.25786 0.43851 0.83101 0.0
C459 C 0.29439 0.48969 0.84031 0.0
C460 C 0.34729 0.50886 0.83829 0.0
C461 C 0.23704 0.35404 0.80811 0.0
C462 C 0.27794 0.52349 0.85348 0.0
C463 C 0.12634 0.42493 0.8323 0.0
C464 C 0.11491 0.40975 0.85517 0.0
C465 C 0.17003 0.42798 0.82261 0.0
C466 C 0.20285 0.4163 0.8363 0.0
C467 C 0.18742 0.39452 0.85805 0.0
C468 C 0.1433 0.39141 0.86719 0.0
C469 C 0.1842 0.44946 0.79897 0.0
C470 C 0.22094 0.3808 0.87304 0.0
H471 H 0.34155 0.40457 0.80844 0.0
H472 H 0.37509 0.54753 0.84603 0.0
H473 H 0.22613 0.32645 0.82205 0.0
H474 H 0.20094 0.35131 0.80045 0.0
H475 H 0.25433 0.34146 0.79432 0.0
H476 H 0.31116 0.56305 0.85883 0.0
H477 H 0.2489 0.52752 0.84248 0.0
H478 H 0.25936 0.50498 0.86948 0.0
H479 H 0.10372 0.43823 0.82271 0.0
H480 H 0.13378 0.37929 0.88475 0.0
H481 H 0.20146 0.42992 0.78896 0.0
H482 H 0.21355 0.49158 0.80144 0.0
H483 H 0.14985 0.4449 0.78845 0.0
H484 H 0.23526 0.35943 0.86229 0.0
H485 H 0.19963 0.35668 0.8874 0.0
H486 H 0.25532 0.41713 0.88099 0.0
C487 C 0.83373 0.36791 0.15639 0.0
C488 C 0.88372 0.37826 0.16351 0.0
C489 C 0.7899 0.32781 0.16557 0.0
C490 C 0.7963 0.29677 0.18184 0.0
C491 C 0.84627 0.30441 0.18768 0.0
C492 C 0.88957 0.34552 0.17861 0.0
C493 C 0.73722 0.32114 0.15912 0.0
C494 C 0.85431 0.27108 0.20451 0.0
C495 C 0.69666 0.24222 0.22691 0.0
C496 C 0.66287 0.19204 0.21688 0.0
C497 C 0.74062 0.2767 0.21574 0.0
C498 C 0.75137 0.25972 0.19431 0.0
C499 C 0.7182 0.20825 0.18448 0.0
C500 C 0.67391 0.17501 0.19579 0.0
C501 C 0.77482 0.3316 0.22658 0.0
C502 C 0.72923 0.18855 0.16196 0.0
H503 H 0.82898 0.39322 0.14479 0.0
H504 H 0.92815 0.35313 0.18398 0.0
H505 H 0.70872 0.27989 0.15347 0.0
H506 H 0.72285 0.33189 0.17474 0.0
H507 H 0.73837 0.34571 0.14487 0.0
H508 H 0.89425 0.2773 0.20467 0.0
H509 H 0.84759 0.28058 0.2225 0.0
H510 H 0.82605 0.22925 0.19987 0.0
H511 H 0.68778 0.25475 0.24325 0.0
H512 H 0.64806 0.1357 0.18821 0.0
H513 H 0.77593 0.35975 0.21424 0.0
H514 H 0.8152 0.33988 0.22995 0.0
H515 H 0.76102 0.33846 0.24335 0.0
H516 H 0.72719 0.21077 0.14733 0.0
H517 H 0.70131 0.14652 0.15744 0.0
H518 H 0.76915 0.19477 0.1634 0.0
C519 C 0.98652 0.5025 0.04752 0.0
C520 C 0.03305 0.52564 0.0618 0.0
C521 C 0.98632 0.49455 0.0232 0.0
C522 C 0.03371 0.50949 0.01298 0.0
C523 C 0.08058 0.53128 0.02736 0.0
C524 C 0.07975 0.53945 0.0516 0.0
C525 C 0.93562 0.47173 0.00837 0.0
C526 C 0.13172 0.54701 0.01707 0.0
C527 C 0.02239 0.45496 0.95042 0.0
C528 C 0.02753 0.49624 0.93771 0.0
C529 C 0.026 0.45922 0.97503 0.0
C530 C 0.03446 0.50565 0.9871 0.0
C531 C 0.04125 0.54795 0.97436 0.0
C532 C 0.03812 0.54286 0.94986 0.0
C533 C 0.01924 0.41359 0.9881 0.0
C534 C 0.05028 0.59809 0.9866 0.0
H535 H 0.95029 0.49176 0.05526 0.0
H536 H 0.1158 0.55684 0.06257 0.0
H537 H 0.93731 0.50073 0.99641 0.0
H538 H 0.92904 0.43716 -0.0027 0.0
H539 H 0.9019 0.46005 0.01913 0.0
H540 H 0.16395 0.55949 0.03081 0.0
H541 H 0.12858 0.51415 0.00581 0.0
H542 H 0.14179 0.57963 0.0058 0.0
H543 H 0.01399 0.41877 0.94114 0.0
H544 H 0.04336 0.57535 0.94014 0.0
H545 H 0.98293 0.39743 -0.00271 0.0
H546 H 0.05181 0.4264 0.00165 0.0
H547 H 0.01734 0.38206 0.97624 0.0
H548 H 0.01644 0.59026 -0.00335 0.0
H549 H 0.05621 0.62777 0.97412 0.0
H550 H 0.0848 0.61459 -0.0007 0.0
C551 C 0.4885 0.08632 0.40441 0.0
C552 C 0.48603 0.04296 0.41418 0.0
C553 C 0.48869 0.09007 0.3801 0.0
C554 C 0.48445 0.04859 0.3653 0.0
C555 C 0.48002 0.00386 0.37509 0.0
C556 C 0.48187 0.00203 0.39951 0.0
C557 C 0.49524 0.13908 0.37033 0.0
C558 C 0.47376 0.95816 0.35981 0.0
C559 C 0.44242 0.03892 0.30099 0.0
C560 C 0.48928 0.05512 0.29044 0.0
C561 C 0.4402 0.03646 0.32533 0.0
C562 C 0.48629 0.05254 0.33959 0.0
C563 C 0.53407 0.07106 0.32925 0.0
C564 C 0.53485 0.07123 0.3048 0.0
C565 C 0.38833 0.0154 0.33573 0.0
C566 C 0.5843 0.08987 0.34397 0.0
H567 H 0.49232 0.11821 0.41586 0.0
H568 H 0.47967 0.96841 0.40716 0.0
H569 H 0.53134 0.15794 0.36097 0.0
H570 H 0.46247 0.12957 0.35739 0.0
H571 H 0.49737 0.16745 0.38422 0.0
H572 H 0.46699 0.92487 0.37011 0.0
H573 H 0.44067 0.94483 0.34648 0.0
H574 H 0.50913 0.97012 0.35025 0.0
H575 H 0.40716 0.02763 0.29023 0.0
H576 H 0.57116 0.08292 0.29698 0.0
H577 H 0.38936 0.0449 0.34859 0.0
H578 H 0.37991 0.98077 0.34533 0.0
H579 H 0.35601 0.00409 0.32218 0.0
H580 H 0.58927 0.1193 0.35799 0.0
H581 H 0.61866 0.10736 0.3334 0.0
H582 H 0.58326 0.05689 0.35266 0.0
C583 C 0.61744 0.5857 0.73955 0.0
C584 C 0.57272 0.54615 0.74862 0.0
C585 C 0.62074 0.59007 0.71532 0.0
C586 C 0.57825 0.55418 0.69981 0.0
C587 C 0.53299 0.51427 0.7088 0.0
C588 C 0.53081 0.51066 0.73309 0.0
C589 C 0.66974 0.63294 0.70632 0.0
C590 C 0.48683 0.47534 0.69274 0.0
C591 C 0.56268 0.5872 0.6379 0.0
C592 C 0.57858 0.55745 0.62488 0.0
C593 C 0.56364 0.58762 0.66242 0.0
C594 C 0.58115 0.55777 0.67409 0.0
C595 C 0.59913 0.52928 0.66108 0.0
C596 C 0.59752 0.52938 0.6366 0.0
C597 C 0.54409 0.6184 0.67575 0.0
C598 C 0.6186 0.49743 0.67294 0.0
H599 H 0.6501 0.61329 0.75138 0.0
H600 H 0.49606 0.48007 0.7399 0.0
H601 H 0.68698 0.6159 0.69467 0.0
H602 H 0.66051 0.65789 0.69572 0.0
H603 H 0.69923 0.65784 0.72073 0.0
H604 H 0.45429 0.44708 0.70255 0.0
H605 H 0.4726 0.49593 0.68171 0.0
H606 H 0.49853 0.45343 0.68074 0.0
H607 H 0.54761 0.60856 0.62884 0.0
H608 H 0.61043 0.50688 0.62654 0.0
H609 H 0.57352 0.64475 0.68984 0.0
H610 H 0.50856 0.59144 0.68427 0.0
H611 H 0.53476 0.64203 0.66421 0.0
H612 H 0.64961 0.52197 0.68683 0.0
H613 H 0.63414 0.48008 0.66041 0.0
H614 H 0.58649 0.46552 0.68153 0.0
C615 C 0.58943 0.06715 0.60249 0.0
C616 C 0.53871 0.04831 0.59291 0.0
C617 C 0.60014 0.07082 0.62677 0.0
C618 C 0.55938 0.05721 0.64172 0.0
C619 C 0.50798 0.03796 0.63207 0.0
C620 C 0.49809 0.03283 0.60766 0.0
C621 C 0.65507 0.0897 0.6364 0.0
C622 C 0.46384 0.02457 0.64752 0.0
C623 C 0.57504 0.03094 0.70478 0.0
C624 C 0.59129 0.0796 0.71662 0.0
C625 C 0.56575 0.02342 0.68034 0.0
C626 C 0.57087 0.06494 0.66748 0.0
C627 C 0.58684 0.11398 0.67922 0.0
C628 C 0.59786 0.121 0.70356 0.0
C629 C 0.55023 0.97099 0.66829 0.0
C630 C 0.59167 0.1589 0.6661 0.0
H631 H 0.62067 0.07865 0.59094 0.0
H632 H 0.45895 0.01867 0.60013 0.0
H633 H 0.67068 0.12755 0.64676 0.0
H634 H 0.6556 0.06173 0.64841 0.0
H635 H 0.68134 0.09473 0.62233 0.0
H636 H 0.42612 0.00983 0.63722 0.0
H637 H 0.46008 -0.00538 0.65936 0.0
H638 H 0.47214 0.05962 0.65874 0.0
H639 H 0.56872 -0.00173 0.7146 0.0
H640 H 0.61151 0.15907 0.71234 0.0
H641 H 0.57651 0.97573 0.65428 0.0
H642 H 0.51033 0.95296 0.65981 0.0
H643 H 0.5514 0.94387 0.68067 0.0
H644 H 0.62167 0.16975 0.6533 0.0
H645 H 0.60227 0.19381 0.67799 0.0
H646 H 0.55438 0.14718 0.65604 0.0
C647 C 0.5646 0.52888 0.94254 0.0
C648 C 0.53769 0.54427 0.9273 0.0
C649 C 0.55978 0.53021 0.96672 0.0
C650 C 0.52686 0.54687 0.9759 0.0
C651 C 0.49894 0.56175 0.96065 0.0
C652 C 0.50491 0.56056 0.93649 0.0
C653 C 0.59059 0.5145 0.98249 0.0
C654 C 0.46308 0.57918 0.96987 0.0
C655 C 0.49093 0.50733 0.03734 0.0
C656 C 0.52852 0.55204 0.05086 0.0
C657 C 0.48786 0.50601 0.01278 0.0
C658 C 0.52349 0.55029 0.00161 0.0
C659 C 0.55962 0.59639 0.01519 0.0
C660 C 0.5615 0.59677 0.03967 0.0
C661 C 0.44844 0.45634 -0.00117 0.0
C662 C 0.59827 0.64441 0.00391 0.0
H663 H 0.5901 0.51637 0.93561 0.0
H664 H 0.4837 0.57215 0.9248 0.0
H665 H 0.61726 0.54771 0.99512 0.0
H666 H 0.56405 0.48217 0.99285 0.0
H667 H 0.61394 0.50186 0.97251 0.0
H668 H 0.44257 0.58747 0.95558 0.0
H669 H 0.43375 0.54877 0.98019 0.0
H670 H 0.48555 0.61486 0.98184 0.0
H671 H 0.46547 0.4726 0.04589 0.0
H672 H 0.58988 0.63177 0.05009 0.0
H673 H 0.46861 0.43803 0.9903 0.0
H674 H 0.4277 0.46472 0.98472 0.0
H675 H 0.41943 0.42792 0.00999 0.0
H676 H 0.626 0.63635 0.99497 0.0
H677 H 0.62069 0.67836 0.01689 0.0
H678 H 0.57817 0.65492 0.9904 0.0
C679 C 0.06613 0.58779 0.25643 0.0
C680 C 0.02816 0.58548 0.24048 0.0
C681 C 0.06194 0.59179 0.28062 0.0
C682 C 0.01758 0.59115 0.28887 0.0
C683 C 0.97894 0.58845 0.27274 0.0
C684 C 0.98525 0.58669 0.24866 0.0
C685 C 0.10479 0.59644 0.29733 0.0
C686 C 0.93019 0.58562 0.28085 0.0
C687 C 0.98741 0.54569 0.3499 0.0
C688 C 0.00476 0.59275 0.36343 0.0
C689 C 0.98922 0.54443 0.3255 0.0
C690 C 0.01098 0.59158 0.31438 0.0
C691 C 0.02813 0.63915 0.32775 0.0
C692 C 0.02373 0.63901 0.35202 0.0
C693 C 0.96891 0.49269 0.31168 0.0
C694 C 0.05274 0.69037 0.31654 0.0
H695 H 0.0994 0.58713 0.24994 0.0
H696 H 0.95569 0.58431 0.23617 0.0
H697 H 0.11848 0.63069 0.31009 0.0
H698 H 0.08984 0.5615 0.30748 0.0
H699 H 0.13845 0.60049 0.28809 0.0
H700 H 0.90414 0.5841 0.26602 0.0
H701 H 0.90857 0.55041 0.29061 0.0
H702 H 0.94019 0.6198 0.29306 0.0
H703 H 0.97361 0.50972 0.35835 0.0
H704 H 0.03596 0.67547 0.36207 0.0
H705 H 0.00164 0.49055 0.30438 0.0
H706 H 0.94205 0.48863 0.29668 0.0
H707 H 0.94812 0.45929 0.3226 0.0
H708 H 0.08788 0.69634 0.30806 0.0
H709 H 0.0641 0.72397 0.32943 0.0
H710 H 0.02556 0.68994 0.30262 0.0
loop_
_geom_bond_atom_site_label_1
_geom_bond_atom_site_label_2
_geom_bond_distance
_geom_bond_site_symmetry_2
_ccdc_geom_bond_type
O0 Zn1 1.953 . S
O0 C16 1.225 . S
Zn1 O0 1.953 . S
Zn1 O2 1.949 . S
Zn1 O8 1.919 1_455 S
Zn1 O13 1.924 . S
O2 Zn1 1.949 . S
O2 Zn3 1.923 1_455 S
O2 Zn4 1.950 . S
O2 Zn5 1.945 . S
Zn3 O2 1.923 1_655 S
Zn3 O6 1.933 . S
Zn3 O9 1.941 . S
Zn3 O10 1.965 . S
Zn4 O2 1.950 . S
Zn4 O11 1.938 1_455 S
Zn4 O12 1.906 . S
Zn4 O22 1.953 . S
Zn5 O2 1.945 . S
Zn5 O7 1.932 . S
Zn5 O14 1.977 . S
Zn5 O15 1.910 . S
O6 Zn3 1.933 . S
O6 C17 1.226 1_655 S
O7 Zn5 1.932 . S
O7 C17 1.307 . S
O8 Zn1 1.919 1_655 S
O8 C19 1.253 . S
O9 Zn3 1.941 . S
O9 C19 1.283 . S
O10 Zn3 1.965 . S
O10 C18 1.303 . S
O11 Zn4 1.938 1_655 S
O11 C18 1.247 . S
O12 Zn4 1.906 . S
O12 C20 1.304 . S
O13 Zn1 1.924 . S
O13 C21 1.311 . S
O14 Zn5 1.977 . S
O14 C20 1.272 . S
O15 Zn5 1.910 . S
O15 C21 1.231 . S
C16 O0 1.225 . S
C16 O22 1.298 . S
C17 O6 1.226 1_455 S
C17 O7 1.307 . S
C18 O10 1.303 . S
C18 O11 1.247 . S
C19 O8 1.253 . S
C19 O9 1.283 . S
C20 O12 1.304 . S
C20 O14 1.272 . S
C21 O13 1.311 . S
C21 O15 1.231 . S
O22 Zn4 1.953 . S
O22 C16 1.298 . S
O23 Zn24 1.953 . S
O23 C39 1.225 . S
Zn24 O23 1.953 . S
Zn24 O25 1.949 . S
Zn24 O31 1.919 . S
Zn24 O36 1.924 . S
O25 Zn24 1.949 . S
O25 Zn26 1.923 . S
O25 Zn27 1.950 . S
O25 Zn28 1.945 1_545 S
Zn26 O25 1.923 . S
Zn26 O29 1.933 . S
Zn26 O32 1.941 . S
Zn26 O33 1.965 . S
Zn27 O25 1.950 . S
Zn27 O34 1.938 . S
Zn27 O35 1.906 1_545 S
Zn27 O45 1.953 . S
Zn28 O25 1.945 1_565 S
Zn28 O30 1.932 1_565 S
Zn28 O37 1.977 . S
Zn28 O38 1.910 . S
O29 Zn26 1.933 . S
O29 C40 1.226 . S
O30 Zn28 1.932 1_545 S
O30 C40 1.307 . S
O31 Zn24 1.919 . S
O31 C42 1.253 . S
O32 Zn26 1.941 . S
O32 C42 1.283 . S
O33 Zn26 1.965 . S
O33 C41 1.303 . S
O34 Zn27 1.938 . S
O34 C41 1.247 . S
O35 Zn27 1.906 1_565 S
O35 C43 1.304 . S
O36 Zn24 1.924 . S
O36 C44 1.311 1_545 S
O37 Zn28 1.977 . S
O37 C43 1.272 . S
O38 Zn28 1.910 . S
O38 C44 1.231 . S
C39 O23 1.225 . S
C39 O45 1.298 . S
C40 O29 1.226 . S
C40 O30 1.307 . S
C41 O33 1.303 . S
C41 O34 1.247 . S
C42 O31 1.253 . S
C42 O32 1.283 . S
C43 O35 1.304 . S
C43 O37 1.272 . S
C44 O36 1.311 1_565 S
C44 O38 1.231 . S
O45 Zn27 1.953 . S
O45 C39 1.298 . S
O46 Zn47 1.953 . S
O46 C62 1.225 . S
Zn47 O46 1.953 . S
Zn47 O48 1.949 . S
Zn47 O54 1.919 . S
Zn47 O59 1.924 . S
O48 Zn47 1.949 . S
O48 Zn49 1.923 . S
O48 Zn50 1.950 . S
O48 Zn51 1.945 . S
Zn49 O48 1.923 . S
Zn49 O52 1.933 . S
Zn49 O55 1.941 . S
Zn49 O56 1.965 . S
Zn50 O48 1.950 . S
Zn50 O57 1.938 . S
Zn50 O58 1.906 . S
Zn50 O68 1.953 . S
Zn51 O48 1.945 . S
Zn51 O53 1.932 . S
Zn51 O60 1.977 . S
Zn51 O61 1.910 . S
O52 Zn49 1.933 . S
O52 C63 1.226 . S
O53 Zn51 1.932 . S
O53 C63 1.307 . S
O54 Zn47 1.919 . S
O54 C65 1.253 . S
O55 Zn49 1.941 . S
O55 C65 1.283 . S
O56 Zn49 1.965 . S
O56 C64 1.303 . S
O57 Zn50 1.938 . S
O57 C64 1.247 . S
O58 Zn50 1.906 . S
O58 C66 1.304 . S
O59 Zn47 1.924 . S
O59 C67 1.311 . S
O60 Zn51 1.977 . S
O60 C66 1.272 . S
O61 Zn51 1.910 . S
O61 C67 1.231 . S
C62 O46 1.225 . S
C62 O68 1.298 . S
C63 O52 1.226 . S
C63 O53 1.307 . S
C64 O56 1.303 . S
C64 O57 1.247 . S
C65 O54 1.253 . S
C65 O55 1.283 . S
C66 O58 1.304 . S
C66 O60 1.272 . S
C67 O59 1.311 . S
C67 O61 1.231 . S
O68 Zn50 1.953 . S
O68 C62 1.298 . S
H69 C74 0.929 . S
H70 C79 0.931 1_565 S
H71 C77 0.930 . S
N72 N73 1.234 . S
N72 C76 1.453 . S
N73 N72 1.234 . S
C74 H69 0.929 . S
C74 C75 1.373 . S
C74 C76 1.368 . S
C75 C74 1.373 . S
C75 C79 1.397 . S
C76 N72 1.453 . S
C76 C74 1.368 . S
C76 C77 1.373 . S
C77 H71 0.930 . S
C77 C76 1.373 . S
C77 C78 1.371 . S
C78 C77 1.371 . S
C78 C79 1.383 . S
C79 H70 0.931 1_545 S
C79 C75 1.397 . S
C79 C78 1.383 . S
H80 C85 0.929 . S
H81 C90 0.931 . S
H82 C88 0.930 . S
N83 N84 1.234 . S
N83 C87 1.453 . S
N84 N83 1.234 . S
C85 H80 0.929 . S
C85 C86 1.373 . S
C85 C87 1.368 . S
C86 C85 1.373 . S
C86 C90 1.397 . S
C87 N83 1.453 . S
C87 C85 1.368 . S
C87 C88 1.373 . S
C88 H82 0.930 . S
C88 C87 1.373 . S
C88 C89 1.371 . S
C89 C88 1.371 . S
C89 C90 1.383 . S
C90 H81 0.931 . S
C90 C86 1.397 . S
C90 C89 1.383 . S
H91 C96 0.929 . S
H92 C101 0.931 1_655 S
H93 C99 0.930 . S
N94 N95 1.234 . S
N94 C98 1.453 . S
N95 N94 1.234 . S
C96 H91 0.929 . S
C96 C97 1.373 . S
C96 C98 1.368 . S
C97 C96 1.373 . S
C97 C101 1.397 . S
C98 N94 1.453 . S
C98 C96 1.368 . S
C98 C99 1.373 . S
C99 H93 0.930 . S
C99 C98 1.373 . S
C99 C100 1.371 . S
C100 C99 1.371 . S
C100 C101 1.383 . S
C101 H92 0.931 1_455 S
C101 C97 1.397 . S
C101 C100 1.383 . S
H102 C107 0.929 . S
H103 C112 0.931 . S
H104 C110 0.930 1_655 S
N105 N106 1.234 . S
N105 C109 1.453 1_655 S
N106 N105 1.234 . S
C107 H102 0.929 . S
C107 C108 1.373 . S
C107 C109 1.368 . S
C108 C107 1.373 . S
C108 C112 1.397 . S
C109 N105 1.453 1_455 S
C109 C107 1.368 . S
C109 C110 1.373 . S
C110 H104 0.930 1_455 S
C110 C109 1.373 . S
C110 C111 1.371 . S
C111 C110 1.371 . S
C111 C112 1.383 . S
C112 H103 0.931 . S
C112 C108 1.397 . S
C112 C111 1.383 . S
H113 C118 0.929 . S
H114 C123 0.931 . S
H115 C121 0.930 1_565 S
N116 N117 1.234 . S
N116 C120 1.453 1_565 S
N117 N116 1.234 . S
C118 H113 0.929 . S
C118 C119 1.373 . S
C118 C120 1.368 . S
C119 C118 1.373 . S
C119 C123 1.397 . S
C120 N116 1.453 1_545 S
C120 C118 1.368 . S
C120 C121 1.373 . S
C121 H115 0.930 1_545 S
C121 C120 1.373 . S
C121 C122 1.371 . S
C122 C121 1.371 . S
C122 C123 1.383 . S
C123 H114 0.931 . S
C123 C119 1.397 . S
C123 C122 1.383 . S
H124 C129 0.929 . S
H125 C134 0.931 . S
H126 C132 0.930 . S
N127 N128 1.234 . S
N127 C131 1.453 . S
N128 N127 1.234 . S
C129 H124 0.929 . S
C129 C130 1.373 . S
C129 C131 1.368 . S
C130 C129 1.373 . S
C130 C134 1.397 . S
C131 N127 1.453 . S
C131 C129 1.368 . S
C131 C132 1.373 . S
C132 H126 0.930 . S
C132 C131 1.373 . S
C132 C133 1.371 . S
C133 C132 1.371 . S
C133 C134 1.383 . S
C134 H125 0.931 . S
C134 C130 1.397 . S
C134 C133 1.383 . S
C135 C136 1.391 . S
C135 C137 1.394 . S
C135 H151 0.931 . S
C136 C135 1.391 . S
C136 C140 1.376 . S
C137 C135 1.394 . S
C137 C138 1.369 . S
C137 C141 1.531 . S
C138 C137 1.369 . S
C138 C139 1.410 . S
C138 C146 1.503 . S
C139 C138 1.410 . S
C139 C140 1.392 . S
C139 C142 1.511 . S
C140 C136 1.376 . S
C140 C139 1.392 . S
C140 H152 0.929 . S
C141 C137 1.531 . S
C141 H153 0.960 . S
C141 H154 0.962 . S
C141 H155 0.960 . S
C142 C139 1.511 . S
C142 H156 0.961 . S
C142 H157 0.961 . S
C142 H158 0.961 . S
C143 C144 1.370 . S
C143 C145 1.363 . S
C143 H159 0.931 . S
C144 C143 1.370 . S
C144 C148 1.408 . S
C145 C143 1.363 . S
C145 C146 1.370 . S
C145 C149 1.524 . S
C146 C138 1.503 . S
C146 C145 1.370 . S
C146 C147 1.403 . S
C147 C146 1.403 . S
C147 C148 1.404 . S
C147 C150 1.539 . S
C148 C144 1.408 . S
C148 C147 1.404 . S
C148 H160 0.930 . S
C149 C145 1.524 . S
C149 H161 0.956 . S
C149 H162 0.961 . S
C149 H163 0.961 . S
C150 C147 1.539 . S
C150 H164 0.958 . S
C150 H165 0.961 . S
C150 H166 0.960 . S
H151 C135 0.931 . S
H152 C140 0.929 . S
H153 C141 0.960 . S
H154 C141 0.962 . S
H155 C141 0.960 . S
H156 C142 0.961 . S
H157 C142 0.961 . S
H158 C142 0.961 . S
H159 C143 0.931 . S
H160 C148 0.930 . S
H161 C149 0.956 . S
H162 C149 0.961 . S
H163 C149 0.961 . S
H164 C150 0.958 . S
H165 C150 0.961 . S
H166 C150 0.960 . S
C167 C168 1.391 . S
C167 C169 1.394 . S
C167 H183 0.931 . S
C168 C167 1.391 . S
C168 C172 1.376 . S
C169 C167 1.394 . S
C169 C170 1.369 . S
C169 C173 1.531 . S
C170 C169 1.369 . S
C170 C171 1.410 . S
C170 C178 1.503 . S
C171 C170 1.410 . S
C171 C172 1.392 . S
C171 C174 1.511 . S
C172 C168 1.376 . S
C172 C171 1.392 . S
C172 H184 0.929 . S
C173 C169 1.531 . S
C173 H185 0.960 . S
C173 H186 0.962 . S
C173 H187 0.960 . S
C174 C171 1.511 . S
C174 H188 0.961 . S
C174 H189 0.961 . S
C174 H190 0.961 . S
C175 C176 1.370 . S
C175 C177 1.363 . S
C175 H191 0.931 . S
C176 C175 1.370 . S
C176 C180 1.408 . S
C177 C175 1.363 . S
C177 C178 1.370 . S
C177 C181 1.524 . S
C178 C170 1.503 . S
C178 C177 1.370 . S
C178 C179 1.403 . S
C179 C178 1.403 . S
C179 C180 1.404 . S
C179 C182 1.539 . S
C180 C176 1.408 . S
C180 C179 1.404 . S
C180 H192 0.930 . S
C181 C177 1.524 . S
C181 H193 0.956 . S
C181 H194 0.961 . S
C181 H195 0.961 . S
C182 C179 1.539 . S
C182 H196 0.958 . S
C182 H197 0.961 . S
C182 H198 0.960 . S
H183 C167 0.931 . S
H184 C172 0.929 . S
H185 C173 0.960 . S
H186 C173 0.962 . S
H187 C173 0.960 . S
H188 C174 0.961 . S
H189 C174 0.961 . S
H190 C174 0.961 . S
H191 C175 0.931 . S
H192 C180 0.930 . S
H193 C181 0.956 . S
H194 C181 0.961 . S
H195 C181 0.961 . S
H196 C182 0.958 . S
H197 C182 0.961 . S
H198 C182 0.960 . S
C199 C200 1.391 . S
C199 C201 1.394 . S
C199 H215 0.931 . S
C200 C199 1.391 . S
C200 C204 1.376 . S
C201 C199 1.394 . S
C201 C202 1.369 . S
C201 C205 1.531 . S
C202 C201 1.369 . S
C202 C203 1.410 . S
C202 C210 1.503 . S
C203 C202 1.410 . S
C203 C204 1.392 . S
C203 C206 1.511 . S
C204 C200 1.376 . S
C204 C203 1.392 . S
C204 H216 0.929 . S
C205 C201 1.531 . S
C205 H217 0.960 . S
C205 H218 0.962 . S
C205 H219 0.960 . S
C206 C203 1.511 . S
C206 H220 0.961 . S
C206 H221 0.961 . S
C206 H222 0.961 . S
C207 C208 1.370 . S
C207 C209 1.363 . S
C207 H223 0.931 . S
C208 C207 1.370 . S
C208 C212 1.408 . S
C209 C207 1.363 . S
C209 C210 1.370 . S
C209 C213 1.524 . S
C210 C202 1.503 . S
C210 C209 1.370 . S
C210 C211 1.403 . S
C211 C210 1.403 . S
C211 C212 1.404 . S
C211 C214 1.539 . S
C212 C208 1.408 . S
C212 C211 1.404 . S
C212 H224 0.930 . S
C213 C209 1.524 . S
C213 H225 0.956 . S
C213 H226 0.961 . S
C213 H227 0.961 . S
C214 C211 1.539 . S
C214 H228 0.958 . S
C214 H229 0.961 . S
C214 H230 0.960 . S
H215 C199 0.931 . S
H216 C204 0.929 . S
H217 C205 0.960 . S
H218 C205 0.962 . S
H219 C205 0.960 . S
H220 C206 0.961 . S
H221 C206 0.961 . S
H222 C206 0.961 . S
H223 C207 0.931 . S
H224 C212 0.930 . S
H225 C213 0.956 . S
H226 C213 0.961 . S
H227 C213 0.961 . S
H228 C214 0.958 . S
H229 C214 0.961 . S
H230 C214 0.960 . S
C231 C232 1.391 . S
C231 C233 1.394 . S
C231 H247 0.931 . S
C232 C231 1.391 . S
C232 C236 1.376 . S
C233 C231 1.394 . S
C233 C234 1.369 . S
C233 C237 1.531 . S
C234 C233 1.369 . S
C234 C235 1.410 . S
C234 C242 1.503 . S
C235 C234 1.410 . S
C235 C236 1.392 . S
C235 C238 1.511 . S
C236 C232 1.376 . S
C236 C235 1.392 . S
C236 H248 0.929 . S
C237 C233 1.531 . S
C237 H249 0.960 . S
C237 H250 0.962 . S
C237 H251 0.960 . S
C238 C235 1.511 . S
C238 H252 0.961 . S
C238 H253 0.961 . S
C238 H254 0.961 . S
C239 C240 1.370 . S
C239 C241 1.363 . S
C239 H255 0.931 . S
C240 C239 1.370 . S
C240 C244 1.408 . S
C241 C239 1.363 . S
C241 C242 1.370 . S
C241 C245 1.524 . S
C242 C234 1.503 . S
C242 C241 1.370 . S
C242 C243 1.403 . S
C243 C242 1.403 . S
C243 C244 1.404 . S
C243 C246 1.539 . S
C244 C240 1.408 . S
C244 C243 1.404 . S
C244 H256 0.930 . S
C245 C241 1.524 . S
C245 H257 0.956 . S
C245 H258 0.961 . S
C245 H259 0.961 . S
C246 C243 1.539 . S
C246 H260 0.958 . S
C246 H261 0.961 . S
C246 H262 0.960 . S
H247 C231 0.931 . S
H248 C236 0.929 . S
H249 C237 0.960 . S
H250 C237 0.962 . S
H251 C237 0.960 . S
H252 C238 0.961 . S
H253 C238 0.961 . S
H254 C238 0.961 . S
H255 C239 0.931 . S
H256 C244 0.930 . S
H257 C245 0.956 . S
H258 C245 0.961 . S
H259 C245 0.961 . S
H260 C246 0.958 . S
H261 C246 0.961 . S
H262 C246 0.960 . S
C263 C264 1.391 . S
C263 C265 1.394 . S
C263 H279 0.931 . S
C264 C263 1.391 . S
C264 C268 1.376 . S
C265 C263 1.394 . S
C265 C266 1.369 . S
C265 C269 1.531 . S
C266 C265 1.369 . S
C266 C267 1.410 . S
C266 C274 1.503 . S
C267 C266 1.410 . S
C267 C268 1.392 . S
C267 C270 1.511 . S
C268 C264 1.376 . S
C268 C267 1.392 . S
C268 H280 0.929 . S
C269 C265 1.531 . S
C269 H281 0.960 . S
C269 H282 0.962 . S
C269 H283 0.960 . S
C270 C267 1.511 . S
C270 H284 0.961 . S
C270 H285 0.961 . S
C270 H286 0.961 . S
C271 C272 1.370 . S
C271 C273 1.363 . S
C271 H287 0.931 . S
C272 C271 1.370 . S
C272 C276 1.408 . S
C273 C271 1.363 . S
C273 C274 1.370 . S
C273 C277 1.524 . S
C274 C266 1.503 . S
C274 C273 1.370 . S
C274 C275 1.403 . S
C275 C274 1.403 . S
C275 C276 1.404 . S
C275 C278 1.539 . S
C276 C272 1.408 . S
C276 C275 1.404 . S
C276 H288 0.930 . S
C277 C273 1.524 . S
C277 H289 0.956 . S
C277 H290 0.961 . S
C277 H291 0.961 . S
C278 C275 1.539 . S
C278 H292 0.958 . S
C278 H293 0.961 . S
C278 H294 0.960 . S
H279 C263 0.931 . S
H280 C268 0.929 . S
H281 C269 0.960 . S
H282 C269 0.962 . S
H283 C269 0.960 . S
H284 C270 0.961 . S
H285 C270 0.961 . S
H286 C270 0.961 . S
H287 C271 0.931 . S
H288 C276 0.930 . S
H289 C277 0.956 . S
H290 C277 0.961 . S
H291 C277 0.961 . S
H292 C278 0.958 . S
H293 C278 0.961 . S
H294 C278 0.960 . S
C295 C296 1.391 . S
C295 C297 1.394 . S
C295 H311 0.931 . S
C296 C295 1.391 . S
C296 C300 1.376 . S
C297 C295 1.394 . S
C297 C298 1.369 . S
C297 C301 1.531 . S
C298 C297 1.369 . S
C298 C299 1.410 . S
C298 C306 1.503 . S
C299 C298 1.410 . S
C299 C300 1.392 . S
C299 C302 1.511 . S
C300 C296 1.376 . S
C300 C299 1.392 . S
C300 H312 0.929 . S
C301 C297 1.531 . S
C301 H313 0.960 . S
C301 H314 0.962 . S
C301 H315 0.960 . S
C302 C299 1.511 . S
C302 H316 0.961 . S
C302 H317 0.961 . S
C302 H318 0.961 . S
C303 C304 1.370 . S
C303 C305 1.363 . S
C303 H319 0.931 . S
C304 C303 1.370 . S
C304 C308 1.408 . S
C305 C303 1.363 . S
C305 C306 1.370 . S
C305 C309 1.524 . S
C306 C298 1.503 . S
C306 C305 1.370 . S
C306 C307 1.403 . S
C307 C306 1.403 . S
C307 C308 1.404 . S
C307 C310 1.539 . S
C308 C304 1.408 . S
C308 C307 1.404 . S
C308 H320 0.930 . S
C309 C305 1.524 . S
C309 H321 0.956 . S
C309 H322 0.961 . S
C309 H323 0.961 . S
C310 C307 1.539 . S
C310 H324 0.958 . S
C310 H325 0.961 . S
C310 H326 0.960 . S
H311 C295 0.931 . S
H312 C300 0.929 . S
H313 C301 0.960 . S
H314 C301 0.962 . S
H315 C301 0.960 . S
H316 C302 0.961 . S
H317 C302 0.961 . S
H318 C302 0.961 . S
H319 C303 0.931 . S
H320 C308 0.930 . S
H321 C309 0.956 . S
H322 C309 0.961 . S
H323 C309 0.961 . S
H324 C310 0.958 . S
H325 C310 0.961 . S
H326 C310 0.960 . S
C327 C328 1.391 . S
C327 C329 1.394 . S
C327 H343 0.931 . S
C328 C327 1.391 . S
C328 C332 1.376 . S
C329 C327 1.394 . S
C329 C330 1.369 . S
C329 C333 1.531 . S
C330 C329 1.369 . S
C330 C331 1.410 . S
C330 C338 1.503 . S
C331 C330 1.410 . S
C331 C332 1.392 . S
C331 C334 1.511 . S
C332 C328 1.376 . S
C332 C331 1.392 . S
C332 H344 0.929 . S
C333 C329 1.531 . S
C333 H345 0.960 . S
C333 H346 0.962 . S
C333 H347 0.960 . S
C334 C331 1.511 . S
C334 H348 0.961 . S
C334 H349 0.961 . S
C334 H350 0.961 . S
C335 C336 1.370 . S
C335 C337 1.363 . S
C335 H351 0.931 . S
C336 C335 1.370 . S
C336 C340 1.408 . S
C337 C335 1.363 . S
C337 C338 1.370 . S
C337 C341 1.524 . S
C338 C330 1.503 . S
C338 C337 1.370 . S
C338 C339 1.403 . S
C339 C338 1.403 . S
C339 C340 1.404 . S
C339 C342 1.539 . S
C340 C336 1.408 . S
C340 C339 1.404 . S
C340 H352 0.930 . S
C341 C337 1.524 . S
C341 H353 0.956 . S
C341 H354 0.961 . S
C341 H355 0.961 . S
C342 C339 1.539 . S
C342 H356 0.958 . S
C342 H357 0.961 . S
C342 H358 0.960 . S
H343 C327 0.931 . S
H344 C332 0.929 . S
H345 C333 0.960 . S
H346 C333 0.962 . S
H347 C333 0.960 . S
H348 C334 0.961 . S
H349 C334 0.961 . S
H350 C334 0.961 . S
H351 C335 0.931 . S
H352 C340 0.930 . S
H353 C341 0.956 . S
H354 C341 0.961 . S
H355 C341 0.961 . S
H356 C342 0.958 . S
H357 C342 0.961 . S
H358 C342 0.960 . S
C359 C360 1.391 . S
C359 C361 1.394 . S
C359 H375 0.931 . S
C360 C359 1.391 . S
C360 C364 1.376 . S
C361 C359 1.394 . S
C361 C362 1.369 . S
C361 C365 1.531 . S
C362 C361 1.369 . S
C362 C363 1.410 . S
C362 C370 1.503 . S
C363 C362 1.410 . S
C363 C364 1.392 . S
C363 C366 1.511 . S
C364 C360 1.376 . S
C364 C363 1.392 . S
C364 H376 0.929 . S
C365 C361 1.531 . S
C365 H377 0.960 . S
C365 H378 0.962 . S
C365 H379 0.960 . S
C366 C363 1.511 . S
C366 H380 0.961 . S
C366 H381 0.961 . S
C366 H382 0.961 . S
C367 C368 1.370 . S
C367 C369 1.363 . S
C367 H383 0.931 . S
C368 C367 1.370 . S
C368 C372 1.408 . S
C369 C367 1.363 . S
C369 C370 1.370 . S
C369 C373 1.524 . S
C370 C362 1.503 . S
C370 C369 1.370 . S
C370 C371 1.403 . S
C371 C370 1.403 . S
C371 C372 1.404 . S
C371 C374 1.539 . S
C372 C368 1.408 . S
C372 C371 1.404 . S
C372 H384 0.930 . S
C373 C369 1.524 . S
C373 H385 0.956 . S
C373 H386 0.961 . S
C373 H387 0.961 . S
C374 C371 1.539 . S
C374 H388 0.958 . S
C374 H389 0.961 . S
C374 H390 0.960 . S
H375 C359 0.931 . S
H376 C364 0.929 . S
H377 C365 0.960 . S
H378 C365 0.962 . S
H379 C365 0.960 . S
H380 C366 0.961 . S
H381 C366 0.961 . S
H382 C366 0.961 . S
H383 C367 0.931 . S
H384 C372 0.930 . S
H385 C373 0.956 . S
H386 C373 0.961 . S
H387 C373 0.961 . S
H388 C374 0.958 . S
H389 C374 0.961 . S
H390 C374 0.960 . S
C391 C392 1.391 . S
C391 C393 1.394 . S
C391 H407 0.931 . S
C392 C391 1.391 . S
C392 C396 1.376 . S
C393 C391 1.394 . S
C393 C394 1.369 . S
C393 C397 1.531 . S
C394 C393 1.369 . S
C394 C395 1.410 . S
C394 C402 1.503 . S
C395 C394 1.410 . S
C395 C396 1.392 . S
C395 C398 1.511 . S
C396 C392 1.376 . S
C396 C395 1.392 . S
C396 H408 0.929 . S
C397 C393 1.531 . S
C397 H409 0.960 . S
C397 H410 0.962 . S
C397 H411 0.960 . S
C398 C395 1.511 . S
C398 H412 0.961 . S
C398 H413 0.961 . S
C398 H414 0.961 . S
C399 C400 1.370 . S
C399 C401 1.363 . S
C399 H415 0.931 . S
C400 C399 1.370 . S
C400 C404 1.408 . S
C401 C399 1.363 . S
C401 C402 1.370 . S
C401 C405 1.524 . S
C402 C394 1.503 . S
C402 C401 1.370 . S
C402 C403 1.403 . S
C403 C402 1.403 . S
C403 C404 1.404 . S
C403 C406 1.539 . S
C404 C400 1.408 . S
C404 C403 1.404 . S
C404 H416 0.930 1_565 S
C405 C401 1.524 . S
C405 H417 0.956 . S
C405 H418 0.961 . S
C405 H419 0.961 . S
C406 C403 1.539 . S
C406 H420 0.958 . S
C406 H421 0.961 . S
C406 H422 0.960 . S
H407 C391 0.931 . S
H408 C396 0.929 . S
H409 C397 0.960 . S
H410 C397 0.962 . S
H411 C397 0.960 . S
H412 C398 0.961 . S
H413 C398 0.961 . S
H414 C398 0.961 . S
H415 C399 0.931 . S
H416 C404 0.930 1_545 S
H417 C405 0.956 . S
H418 C405 0.961 . S
H419 C405 0.961 . S
H420 C406 0.958 . S
H421 C406 0.961 . S
H422 C406 0.960 . S
C423 C424 1.391 . S
C423 C425 1.394 . S
C423 H439 0.931 . S
C424 C423 1.391 . S
C424 C428 1.376 . S
C425 C423 1.394 . S
C425 C426 1.369 . S
C425 C429 1.531 . S
C426 C425 1.369 . S
C426 C427 1.410 . S
C426 C434 1.503 . S
C427 C426 1.410 . S
C427 C428 1.392 . S
C427 C430 1.511 . S
C428 C424 1.376 . S
C428 C427 1.392 . S
C428 H440 0.929 . S
C429 C425 1.531 . S
C429 H441 0.960 . S
C429 H442 0.962 . S
C429 H443 0.960 . S
C430 C427 1.511 . S
C430 H444 0.961 . S
C430 H445 0.961 . S
C430 H446 0.961 . S
C431 C432 1.370 . S
C431 C433 1.363 . S
C431 H447 0.931 . S
C432 C431 1.370 . S
C432 C436 1.408 . S
C433 C431 1.363 . S
C433 C434 1.370 . S
C433 C437 1.524 . S
C434 C426 1.503 . S
C434 C433 1.370 . S
C434 C435 1.403 . S
C435 C434 1.403 . S
C435 C436 1.404 . S
C435 C438 1.539 . S
C436 C432 1.408 . S
C436 C435 1.404 . S
C436 H448 0.930 . S
C437 C433 1.524 . S
C437 H449 0.956 . S
C437 H450 0.961 . S
C437 H451 0.961 . S
C438 C435 1.539 . S
C438 H452 0.958 . S
C438 H453 0.961 . S
C438 H454 0.960 . S
H439 C423 0.931 . S
H440 C428 0.929 . S
H441 C429 0.960 . S
H442 C429 0.962 . S
H443 C429 0.960 . S
H444 C430 0.961 . S
H445 C430 0.961 . S
H446 C430 0.961 . S
H447 C431 0.931 . S
H448 C436 0.930 . S
H449 C437 0.956 . S
H450 C437 0.961 . S
H451 C437 0.961 . S
H452 C438 0.958 . S
H453 C438 0.961 . S
H454 C438 0.960 . S
C455 C456 1.391 . S
C455 C457 1.394 . S
C455 H471 0.931 . S
C456 C455 1.391 . S
C456 C460 1.376 . S
C457 C455 1.394 . S
C457 C458 1.369 . S
C457 C461 1.531 . S
C458 C457 1.369 . S
C458 C459 1.410 . S
C458 C466 1.503 . S
C459 C458 1.410 . S
C459 C460 1.392 . S
C459 C462 1.511 . S
C460 C456 1.376 . S
C460 C459 1.392 . S
C460 H472 0.929 . S
C461 C457 1.531 . S
C461 H473 0.960 . S
C461 H474 0.962 . S
C461 H475 0.960 . S
C462 C459 1.511 . S
C462 H476 0.961 . S
C462 H477 0.961 . S
C462 H478 0.961 . S
C463 C464 1.370 . S
C463 C465 1.363 . S
C463 H479 0.931 . S
C464 C463 1.370 . S
C464 C468 1.408 . S
C465 C463 1.363 . S
C465 C466 1.370 . S
C465 C469 1.524 . S
C466 C458 1.503 . S
C466 C465 1.370 . S
C466 C467 1.403 . S
C467 C466 1.403 . S
C467 C468 1.404 . S
C467 C470 1.539 . S
C468 C464 1.408 . S
C468 C467 1.404 . S
C468 H480 0.930 . S
C469 C465 1.524 . S
C469 H481 0.956 . S
C469 H482 0.961 . S
C469 H483 0.961 . S
C470 C467 1.539 . S
C470 H484 0.958 . S
C470 H485 0.961 . S
C470 H486 0.960 . S
H471 C455 0.931 . S
H472 C460 0.929 . S
H473 C461 0.960 . S
H474 C461 0.962 . S
H475 C461 0.960 . S
H476 C462 0.961 . S
H477 C462 0.961 . S
H478 C462 0.961 . S
H479 C463 0.931 . S
H480 C468 0.930 . S
H481 C469 0.956 . S
H482 C469 0.961 . S
H483 C469 0.961 . S
H484 C470 0.958 . S
H485 C470 0.961 . S
H486 C470 0.960 . S
C487 C488 1.391 . S
C487 C489 1.394 . S
C487 H503 0.931 . S
C488 C487 1.391 . S
C488 C492 1.376 . S
C489 C487 1.394 . S
C489 C490 1.369 . S
C489 C493 1.531 . S
C490 C489 1.369 . S
C490 C491 1.410 . S
C490 C498 1.503 . S
C491 C490 1.410 . S
C491 C492 1.392 . S
C491 C494 1.511 . S
C492 C488 1.376 . S
C492 C491 1.392 . S
C492 H504 0.929 . S
C493 C489 1.531 . S
C493 H505 0.960 . S
C493 H506 0.962 . S
C493 H507 0.960 . S
C494 C491 1.511 . S
C494 H508 0.961 . S
C494 H509 0.961 . S
C494 H510 0.961 . S
C495 C496 1.370 . S
C495 C497 1.363 . S
C495 H511 0.931 . S
C496 C495 1.370 . S
C496 C500 1.408 . S
C497 C495 1.363 . S
C497 C498 1.370 . S
C497 C501 1.524 . S
C498 C490 1.503 . S
C498 C497 1.370 . S
C498 C499 1.403 . S
C499 C498 1.403 . S
C499 C500 1.404 . S
C499 C502 1.539 . S
C500 C496 1.408 . S
C500 C499 1.404 . S
C500 H512 0.930 . S
C501 C497 1.524 . S
C501 H513 0.956 . S
C501 H514 0.961 . S
C501 H515 0.961 . S
C502 C499 1.539 . S
C502 H516 0.958 . S
C502 H517 0.961 . S
C502 H518 0.960 . S
H503 C487 0.931 . S
H504 C492 0.929 . S
H505 C493 0.960 . S
H506 C493 0.962 . S
H507 C493 0.960 . S
H508 C494 0.961 . S
H509 C494 0.961 . S
H510 C494 0.961 . S
H511 C495 0.931 . S
H512 C500 0.930 . S
H513 C501 0.956 . S
H514 C501 0.961 . S
H515 C501 0.961 . S
H516 C502 0.958 . S
H517 C502 0.961 . S
H518 C502 0.960 . S
C519 C520 1.391 1_655 S
C519 C521 1.394 . S
C519 H535 0.931 . S
C520 C519 1.391 1_455 S
C520 C524 1.376 . S
C521 C519 1.394 . S
C521 C522 1.369 1_655 S
C521 C525 1.531 . S
C522 C521 1.369 1_455 S
C522 C523 1.410 . S
C522 C530 1.503 . S
C523 C522 1.410 . S
C523 C524 1.392 . S
C523 C526 1.511 . S
C524 C520 1.376 . S
C524 C523 1.392 . S
C524 H536 0.929 . S
C525 C521 1.531 . S
C525 H537 0.960 . S
C525 H538 0.962 . S
C525 H539 0.960 . S
C526 C523 1.511 . S
C526 H540 0.961 . S
C526 H541 0.961 . S
C526 H542 0.961 . S
C527 C528 1.370 . S
C527 C529 1.363 . S
C527 H543 0.931 . S
C528 C527 1.370 . S
C528 C532 1.408 . S
C529 C527 1.363 . S
C529 C530 1.370 1_556 S
C529 C533 1.524 1_556 S
C530 C522 1.503 . S
C530 C529 1.370 1_554 S
C530 C531 1.403 1_554 S
C531 C530 1.403 1_556 S
C531 C532 1.404 . S
C531 C534 1.539 . S
C532 C528 1.408 . S
C532 C531 1.404 . S
C532 H544 0.930 . S
C533 C529 1.524 1_554 S
C533 H545 0.956 . S
C533 H546 0.961 . S
C533 H547 0.961 . S
C534 C531 1.539 . S
C534 H548 0.958 1_455 S
C534 H549 0.961 . S
C534 H550 0.960 1_556 S
H535 C519 0.931 . S
H536 C524 0.929 . S
H537 C525 0.960 . S
H538 C525 0.962 . S
H539 C525 0.960 . S
H540 C526 0.961 . S
H541 C526 0.961 . S
H542 C526 0.961 . S
H543 C527 0.931 . S
H544 C532 0.930 . S
H545 C533 0.956 . S
H546 C533 0.961 . S
H547 C533 0.961 . S
H548 C534 0.958 1_655 S
H549 C534 0.961 . S
H550 C534 0.960 1_554 S
C551 C552 1.391 . S
C551 C553 1.394 . S
C551 H567 0.931 . S
C552 C551 1.391 . S
C552 C556 1.376 . S
C553 C551 1.394 . S
C553 C554 1.369 . S
C553 C557 1.531 . S
C554 C553 1.369 . S
C554 C555 1.410 . S
C554 C562 1.503 . S
C555 C554 1.410 . S
C555 C556 1.392 . S
C555 C558 1.511 . S
C556 C552 1.376 . S
C556 C555 1.392 . S
C556 H568 0.929 . S
C557 C553 1.531 . S
C557 H569 0.960 . S
C557 H570 0.962 . S
C557 H571 0.960 . S
C558 C555 1.511 . S
C558 H572 0.961 1_545 S
C558 H573 0.960 1_545 S
C558 H574 0.961 . S
C559 C560 1.370 . S
C559 C561 1.363 . S
C559 H575 0.931 . S
C560 C559 1.370 . S
C560 C564 1.408 . S
C561 C559 1.363 . S
C561 C562 1.370 . S
C561 C565 1.524 1_545 S
C562 C554 1.503 . S
C562 C561 1.370 . S
C562 C563 1.403 . S
C563 C562 1.403 . S
C563 C564 1.404 . S
C563 C566 1.539 . S
C564 C560 1.408 . S
C564 C563 1.404 . S
C564 H576 0.930 . S
C565 C561 1.524 1_565 S
C565 H577 0.957 1_565 S
C565 H578 0.961 . S
C565 H579 0.961 . S
C566 C563 1.539 . S
C566 H580 0.958 . S
C566 H581 0.961 . S
C566 H582 0.960 . S
H567 C551 0.931 . S
H568 C556 0.929 . S
H569 C557 0.960 . S
H570 C557 0.962 . S
H571 C557 0.960 . S
H572 C558 0.961 1_565 S
H573 C558 0.960 1_565 S
H574 C558 0.961 . S
H575 C559 0.931 . S
H576 C564 0.930 . S
H577 C565 0.957 1_545 S
H578 C565 0.961 . S
H579 C565 0.961 . S
H580 C566 0.958 . S
H581 C566 0.961 . S
H582 C566 0.960 . S
C583 C584 1.391 . S
C583 C585 1.394 . S
C583 H599 0.931 . S
C584 C583 1.391 . S
C584 C588 1.376 . S
C585 C583 1.394 . S
C585 C586 1.369 . S
C585 C589 1.531 . S
C586 C585 1.369 . S
C586 C587 1.410 . S
C586 C594 1.503 . S
C587 C586 1.410 . S
C587 C588 1.392 . S
C587 C590 1.511 . S
C588 C584 1.376 . S
C588 C587 1.392 . S
C588 H600 0.929 . S
C589 C585 1.531 . S
C589 H601 0.960 . S
C589 H602 0.962 . S
C589 H603 0.960 . S
C590 C587 1.511 . S
C590 H604 0.961 . S
C590 H605 0.961 . S
C590 H606 0.961 . S
C591 C592 1.370 . S
C591 C593 1.363 . S
C591 H607 0.931 . S
C592 C591 1.370 . S
C592 C596 1.408 . S
C593 C591 1.363 . S
C593 C594 1.370 . S
C593 C597 1.524 . S
C594 C586 1.503 . S
C594 C593 1.370 . S
C594 C595 1.403 . S
C595 C594 1.403 . S
C595 C596 1.404 . S
C595 C598 1.539 . S
C596 C592 1.408 . S
C596 C595 1.404 . S
C596 H608 0.930 . S
C597 C593 1.524 . S
C597 H609 0.956 . S
C597 H610 0.961 . S
C597 H611 0.961 . S
C598 C595 1.539 . S
C598 H612 0.958 . S
C598 H613 0.961 . S
C598 H614 0.960 . S
H599 C583 0.931 . S
H600 C588 0.929 . S
H601 C589 0.960 . S
H602 C589 0.962 . S
H603 C589 0.960 . S
H604 C590 0.961 . S
H605 C590 0.961 . S
H606 C590 0.961 . S
H607 C591 0.931 . S
H608 C596 0.930 . S
H609 C597 0.956 . S
H610 C597 0.961 . S
H611 C597 0.961 . S
H612 C598 0.958 . S
H613 C598 0.961 . S
H614 C598 0.960 . S
C615 C616 1.391 . S
C615 C617 1.394 . S
C615 H631 0.931 . S
C616 C615 1.391 . S
C616 C620 1.376 . S
C617 C615 1.394 . S
C617 C618 1.369 . S
C617 C621 1.531 . S
C618 C617 1.369 . S
C618 C619 1.410 . S
C618 C626 1.503 . S
C619 C618 1.410 . S
C619 C620 1.392 . S
C619 C622 1.511 . S
C620 C616 1.376 . S
C620 C619 1.392 . S
C620 H632 0.929 . S
C621 C617 1.531 . S
C621 H633 0.960 . S
C621 H634 0.962 . S
C621 H635 0.960 . S
C622 C619 1.511 . S
C622 H636 0.961 1_545 S
C622 H637 0.961 1_545 S
C622 H638 0.961 . S
C623 C624 1.370 . S
C623 C625 1.363 . S
C623 H639 0.931 1_545 S
C624 C623 1.370 . S
C624 C628 1.408 . S
C625 C623 1.363 . S
C625 C626 1.370 . S
C625 C629 1.524 1_545 S
C626 C618 1.503 . S
C626 C625 1.370 . S
C626 C627 1.403 . S
C627 C626 1.403 . S
C627 C628 1.404 . S
C627 C630 1.539 . S
C628 C624 1.408 . S
C628 C627 1.404 . S
C628 H640 0.930 . S
C629 C625 1.524 1_565 S
C629 H641 0.956 . S
C629 H642 0.961 . S
C629 H643 0.961 . S
C630 C627 1.539 . S
C630 H644 0.958 . S
C630 H645 0.961 . S
C630 H646 0.960 . S
H631 C615 0.931 . S
H632 C620 0.929 . S
H633 C621 0.960 . S
H634 C621 0.962 . S
H635 C621 0.960 . S
H636 C622 0.961 1_565 S
H637 C622 0.961 1_565 S
H638 C622 0.961 . S
H639 C623 0.931 1_565 S
H640 C628 0.930 . S
H641 C629 0.956 . S
H642 C629 0.961 . S
H643 C629 0.961 . S
H644 C630 0.958 . S
H645 C630 0.961 . S
H646 C630 0.960 . S
C647 C648 1.391 . S
C647 C649 1.394 . S
C647 H663 0.931 . S
C648 C647 1.391 . S
C648 C652 1.376 . S
C649 C647 1.394 . S
C649 C650 1.369 . S
C649 C653 1.531 . S
C650 C649 1.369 . S
C650 C651 1.410 . S
C650 C658 1.503 . S
C651 C650 1.410 . S
C651 C652 1.392 . S
C651 C654 1.511 . S
C652 C648 1.376 . S
C652 C651 1.392 . S
C652 H664 0.929 . S
C653 C649 1.531 . S
C653 H665 0.960 . S
C653 H666 0.962 . S
C653 H667 0.960 . S
C654 C651 1.511 . S
C654 H668 0.961 . S
C654 H669 0.961 . S
C654 H670 0.961 . S
C655 C656 1.370 . S
C655 C657 1.363 . S
C655 H671 0.931 . S
C656 C655 1.370 . S
C656 C660 1.408 . S
C657 C655 1.363 . S
C657 C658 1.370 1_554 S
C657 C661 1.524 1_554 S
C658 C650 1.503 . S
C658 C657 1.370 1_556 S
C658 C659 1.403 1_556 S
C659 C658 1.403 1_554 S
C659 C660 1.404 . S
C659 C662 1.539 1_554 S
C660 C656 1.408 . S
C660 C659 1.404 . S
C660 H672 0.930 . S
C661 C657 1.524 1_556 S
C661 H673 0.956 . S
C661 H674 0.961 . S
C661 H675 0.961 1_556 S
C662 C659 1.539 1_556 S
C662 H676 0.958 . S
C662 H677 0.961 1_556 S
C662 H678 0.960 . S
H663 C647 0.931 . S
H664 C652 0.929 . S
H665 C653 0.960 . S
H666 C653 0.962 . S
H667 C653 0.960 . S
H668 C654 0.961 . S
H669 C654 0.961 . S
H670 C654 0.961 . S
H671 C655 0.931 . S
H672 C660 0.930 . S
H673 C661 0.956 . S
H674 C661 0.961 . S
H675 C661 0.961 1_554 S
H676 C662 0.958 . S
H677 C662 0.961 1_554 S
H678 C662 0.960 . S
C679 C680 1.391 . S
C679 C681 1.394 . S
C679 H695 0.931 . S
C680 C679 1.391 . S
C680 C684 1.397 . S
C681 C679 1.394 . S
C681 C682 1.369 . S
C681 C685 1.531 . S
C682 C681 1.369 . S
C682 C683 1.396 1_455 S
C682 C690 1.503 . S
C683 C682 1.396 1_655 S
C683 C684 1.391 1_655 S
C683 C686 1.526 . S
C684 C680 1.397 . S
C684 C683 1.391 1_455 S
C684 H696 0.909 1_455 S
C685 C681 1.531 . S
C685 H697 0.960 . S
C685 H698 0.962 . S
C685 H699 0.960 . S
C686 C683 1.526 . S
C686 H700 0.961 . S
C686 H701 0.961 . S
C686 H702 0.961 . S
C687 C688 1.370 . S
C687 C689 1.363 . S
C687 H703 0.931 . S
C688 C687 1.370 . S
C688 C692 1.408 . S
C689 C687 1.363 . S
C689 C690 1.370 . S
C689 C693 1.524 . S
C690 C682 1.503 . S
C690 C689 1.370 . S
C690 C691 1.403 . S
C691 C690 1.403 . S
C691 C692 1.404 . S
C691 C694 1.539 . S
C692 C688 1.408 . S
C692 C691 1.404 . S
C692 H704 0.930 . S
C693 C689 1.524 . S
C693 H705 0.956 . S
C693 H706 0.961 1_455 S
C693 H707 0.962 1_455 S
C694 C691 1.539 . S
C694 H708 0.958 . S
C694 H709 0.961 . S
C694 H710 0.960 . S
H695 C679 0.931 . S
H696 C684 0.909 1_655 S
H697 C685 0.960 . S
H698 C685 0.962 . S
H699 C685 0.960 . S
H700 C686 0.961 . S
H701 C686 0.961 . S
H702 C686 0.961 . S
H703 C687 0.931 . S
H704 C692 0.930 . S
H705 C693 0.956 . S
H706 C693 0.961 1_655 S
H707 C693 0.962 1_655 S
H708 C694 0.958 . S
H709 C694 0.961 . S
H710 C694 0.960 . S
C136 C20 1.255 . S
C144 N128 1.296 . S
C168 C41 1.302 . S
C176 N106 1.299 . S
C200 C64 1.325 . S
C208 N117 1.324 . S
C232 C19 1.216 . S
C240 C130 1.334 . S
C272 C108 1.289 . S
C264 C44 1.271 . S
C304 C119 1.253 . S
C296 C67 1.237 . S
C328 C43 1.276 . S
C336 N84 1.291 . S
C360 C66 1.158 . S
C368 C97 1.239 1_655 S
C392 C21 1.298 . S
C400 C75 1.283 1_565 S
C432 C86 1.308 . S
C424 C42 1.241 . S
C464 N95 1.312 . S
C456 C65 1.260 . S
C488 C18 1.309 . S
C496 N73 1.288 . S
C528 C100 1.511 . S
C520 C17 1.524 . S
C552 C39 1.514 . S
C560 C78 1.524 . S
C584 C62 1.526 . S
C592 C89 1.523 . S
C624 C122 1.500 . S
C616 C40 1.512 . S
C656 C133 1.514 . S
C648 C63 1.506 . S
C680 C16 1.526 . S
C688 C111 1.511 . S
