# Generated by pormake.
# Topology pth, (4,4)-cn, num edge types: 1
# Building blocks:
#     Node 0, Type 0, BuildingBlock: CEKHIL_clean_sbu_0, # of connection points: 4
#     Node 1, Type 0, BuildingBlock: CEKHIL_clean_sbu_0, # of connection points: 4
#     Node 2, Type 0, BuildingBlock: CEKHIL_clean_sbu_0, # of connection points: 4
#     Node 3, Type 1, BuildingBlock: MUDLON_clean_linker_0, # of connection points: 4
#     Node 4, Type 1, BuildingBlock: MUDLON_clean_linker_0, # of connection points: 4
#     Node 5, Type 1, BuildingBlock: MUDLON_clean_linker_0, # of connection points: 4
#     Edge 6, Type (0, 1), BuildingBlock: FUNLAD_clean_linker_1, # of connection points: 2
#     Edge 7, Type (0, 1), BuildingBlock: FUNLAD_clean_linker_1, # of connection points: 2
#     Edge 8, Type (0, 1), BuildingBlock: FUNLAD_clean_linker_1, # of connection points: 2
#     Edge 9, Type (0, 1), BuildingBlock: FUNLAD_clean_linker_1, # of connection points: 2
#     Edge 10, Type (0, 1), BuildingBlock: FUNLAD_clean_linker_1, # of connection points: 2
#     Edge 11, Type (0, 1), BuildingBlock: FUNLAD_clean_linker_1, # of connection points: 2
#     Edge 12, Type (0, 1), BuildingBlock: FUNLAD_clean_linker_1, # of connection points: 2
#     Edge 13, Type (0, 1), BuildingBlock: FUNLAD_clean_linker_1, # of connection points: 2
#     Edge 14, Type (0, 1), BuildingBlock: FUNLAD_clean_linker_1, # of connection points: 2
#     Edge 15, Type (0, 1), BuildingBlock: FUNLAD_clean_linker_1, # of connection points: 2
#     Edge 16, Type (0, 1), BuildingBlock: FUNLAD_clean_linker_1, # of connection points: 2
#     Edge 17, Type (0, 1), BuildingBlock: FUNLAD_clean_linker_1, # of connection points: 2
# Relax obj value: 0.035
# Max RMSD: 0.091
# Mean RMSD: 0.088
data_MOF--net-pth--node1-CEKHIL_clean_sbu_0--node2-MUDLON_clean_linker_0--edge1-FUNLAD_clean_linker_1
_symmetry_space_group_name_H-M    P1
_symmetry_Int_Tables_number       1
_symmetry_cell_setting            triclinic
loop_
_symmetry_equiv_pos_as_xyz
'x, y, z'
_cell_length_a     34.277605
_cell_length_b     34.424459
_cell_length_c     71.150007
_cell_angle_alpha  90.786834
_cell_angle_beta   90.000055
_cell_angle_gamma 120.18719
loop_
_atom_site_label
_atom_site_type_symbol
_atom_site_fract_x
_atom_site_fract_y
_atom_site_fract_z
_atom_type_partial_charge
Co0 Co 0.00422 0.01687 0.06187 0.0
O1 O 0.97365 0.97234 0.08082 0.0
O2 O 0.03497 0.98323 0.06588 0.0
C3 C 0.00335 0.07337 0.07796 0.0
O4 O 0.04647 0.06094 0.0423 0.0
Co5 Co 0.95709 0.06162 0.04194 0.0
O6 O 0.0184 0.10391 0.03253 0.0
C7 C 0.93257 0.96901 0.03131 0.0
C8 C 0.0044 0.96139 0.07849 0.0
C9 C 0.04988 0.09448 0.0331 0.0
O10 O 0.96508 0.97257 0.04162 0.0
O11 O 0.92161 0.99947 0.03059 0.0
O12 O 0.03431 0.06313 0.08136 0.0
O13 O 0.97221 0.04728 0.06615 0.0
Co14 Co 0.01324 0.0202 0.37678 0.0
O15 O 0.98239 0.03571 0.35845 0.0
O16 O 0.04009 0.08513 0.37591 0.0
C17 C 0.0202 0.97049 0.35824 0.0
O18 O 0.05457 0.01628 0.39656 0.0
Co19 Co 0.96811 0.92339 0.39169 0.0
O20 O 0.0297 0.94297 0.40124 0.0
C21 C 0.93707 0.98408 0.40555 0.0
C22 C 0.01032 0.07734 0.36283 0.0
C23 C 0.05917 0.98433 0.40346 0.0
O24 O 0.9694 0.01645 0.39661 0.0
O25 O 0.92878 0.94344 0.40457 0.0
O26 O 0.04883 0.0132 0.35717 0.0
O27 O 0.98609 0.95934 0.36917 0.0
Co28 Co 0.00687 0.02133 0.70849 0.0
O29 O 0.05022 0.05593 0.68946 0.0
O30 O 0.04368 0.99485 0.70247 0.0
C31 C 0.94731 0.01966 0.69414 0.0
O32 O 0.96543 0.97533 0.72774 0.0
Co33 Co 0.95643 0.05906 0.73165 0.0
O34 O 0.91826 0.99634 0.73996 0.0
C35 C 0.05189 0.08957 0.74049 0.0
C36 C 0.06387 0.02704 0.69046 0.0
C37 C 0.93124 0.96778 0.73789 0.0
O38 O 0.05119 0.0605 0.72873 0.0
O39 O 0.01855 0.09607 0.74287 0.0
O40 O 0.96016 0.99137 0.68916 0.0
O41 O 0.97238 0.04972 0.70653 0.0
H42 H 0.96925 0.67861 0.22315 0.0
N43 N 0.05049 0.68365 0.21706 0.0
H44 H 0.94942 0.7097 0.25021 0.0
H45 H 0.09948 0.72115 0.24798 0.0
H46 H 0.07981 0.75125 0.27528 0.0
H47 H 0.1073 0.76431 0.2038 0.0
H48 H 0.09932 0.79875 0.17529 0.0
H49 H 0.98177 0.64322 0.19105 0.0
H50 H 0.97392 0.67729 0.16221 0.0
H51 H 0.97243 0.60698 0.22688 0.0
H52 H 0.10746 0.65666 0.20649 0.0
H53 H 0.96162 0.53166 0.22878 0.0
H54 H 0.09611 0.58071 0.20715 0.0
H55 H 0.94326 0.32011 0.2506 0.0
H56 H 0.95679 0.28991 0.2793 0.0
H57 H 0.09993 0.36303 0.26843 0.0
H58 H 0.08615 0.3921 0.23968 0.0
H59 H 0.08305 0.39901 0.20697 0.0
H60 H 0.09487 0.35951 0.18065 0.0
H61 H 0.95251 0.26077 0.18035 0.0
H62 H 0.94133 0.30023 0.20668 0.0
H63 H 0.94143 0.39295 0.21611 0.0
H64 H 0.95101 0.46778 0.21244 0.0
H65 H 0.09182 0.52707 0.22797 0.0
N66 N 0.00344 0.37197 0.22535 0.0
H67 H 0.0823 0.45257 0.23049 0.0
C68 C 0.03625 0.69824 0.23347 0.0
C69 C 0.99349 0.69442 0.23448 0.0
C70 C 0.98219 0.71214 0.24998 0.0
C71 C 0.01333 0.73416 0.2647 0.0
C72 C 0.05536 0.73609 0.264 0.0
C73 C 0.06662 0.71843 0.24848 0.0
C74 C 0.04547 0.70128 0.19951 0.0
C75 C 0.07816 0.74513 0.19475 0.0
C76 C 0.07327 0.76486 0.17857 0.0
C77 C 0.03546 0.74091 0.16672 0.0
C78 C 0.00322 0.69648 0.17118 0.0
C79 C 0.00777 0.67697 0.1876 0.0
C80 C 0.04129 0.63783 0.21687 0.0
C81 C 0.99971 0.60168 0.22265 0.0
C82 C 0.99341 0.55828 0.22354 0.0
C83 C 0.02814 0.5498 0.21831 0.0
C84 C 0.06897 0.58588 0.21179 0.0
C85 C 0.07544 0.62932 0.2112 0.0
C86 C 0.01346 0.35874 0.24304 0.0
C87 C 0.97755 0.32991 0.25454 0.0
C88 C 0.98534 0.31235 0.27081 0.0
C89 C 0.0295 0.32357 0.27592 0.0
C90 C 0.06561 0.35383 0.2648 0.0
C91 C 0.05771 0.37078 0.24837 0.0
C92 C 0.01116 0.35233 0.2088 0.0
C93 C 0.05439 0.36911 0.20113 0.0
C94 C 0.06108 0.3466 0.18605 0.0
C95 C 0.02466 0.30753 0.17814 0.0
C96 C 0.98126 0.29146 0.18562 0.0
C97 C 0.97474 0.31373 0.2008 0.0
C98 C 0.01078 0.41688 0.22379 0.0
C99 C 0.97432 0.42225 0.21869 0.0
C100 C 0.97988 0.46513 0.21672 0.0
C101 C 0.02221 0.50386 0.21998 0.0
C102 C 0.05883 0.49827 0.22505 0.0
C103 C 0.0533 0.45533 0.22677 0.0
H104 H 0.74849 0.11212 0.55819 0.0
N105 N 0.66698 0.04862 0.54723 0.0
H106 H 0.79415 0.10911 0.584 0.0
H107 H 0.63715 0.98403 0.57452 0.0
H108 H 0.68221 0.98088 0.60028 0.0
H109 H 0.65717 0.96519 0.54218 0.0
H110 H 0.68903 0.94201 0.51667 0.0
H111 H 0.70448 0.09312 0.51598 0.0
H112 H 0.73538 0.07021 0.49017 0.0
H113 H 0.64167 0.10984 0.54771 0.0
H114 H 0.58873 0.96688 0.54831 0.0
H115 H 0.56496 0.09756 0.5477 0.0
H116 H 0.51211 0.95406 0.54944 0.0
H117 H 0.35083 0.06379 0.56551 0.0
H118 H 0.31198 0.06409 0.59415 0.0
H119 H 0.2653 0.92293 0.6012 0.0
H120 H 0.30471 0.92309 0.57237 0.0
H121 H 0.27583 0.93736 0.52854 0.0
H122 H 0.24203 0.95821 0.50345 0.0
H123 H 0.3514 0.09584 0.50811 0.0
H124 H 0.38465 0.07427 0.53361 0.0
H125 H 0.42312 0.06302 0.56485 0.0
H126 H 0.49997 0.07613 0.56531 0.0
H127 H 0.45651 0.95595 0.5313 0.0
N128 N 0.3488 0.99058 0.5488 0.0
H129 H 0.37926 0.94195 0.53193 0.0
C130 C 0.68929 0.04876 0.56446 0.0
C131 C 0.73349 0.08398 0.56766 0.0
C132 C 0.75954 0.08207 0.58231 0.0
C133 C 0.74175 0.04509 0.5943 0.0
C134 C 0.69675 0.01041 0.5916 0.0
C135 C 0.67081 0.01214 0.57675 0.0
C136 C 0.67885 0.03121 0.53103 0.0
C137 C 0.67368 0.98803 0.53075 0.0
C138 C 0.69212 0.97488 0.51616 0.0
C139 C 0.71605 0.00444 0.50155 0.0
C140 C 0.71865 0.04666 0.50132 0.0
C141 C 0.70041 0.05982 0.51599 0.0
C142 C 0.62109 0.03952 0.54819 0.0
C143 C 0.61338 0.0758 0.54814 0.0
C144 C 0.56942 0.06862 0.54826 0.0
C145 C 0.53191 0.02474 0.54861 0.0
C146 C 0.53988 0.98833 0.54886 0.0
C147 C 0.58391 0.9956 0.54848 0.0
C148 C 0.33019 0.99312 0.56667 0.0
C149 C 0.33243 0.03294 0.57322 0.0
C150 C 0.3097 0.03291 0.58957 0.0
C151 C 0.28431 0.99304 0.59968 0.0
C152 C 0.28416 0.95398 0.59359 0.0
C153 C 0.30665 0.95399 0.57719 0.0
C154 C 0.33278 0.00398 0.5328 0.0
C155 C 0.29288 0.97183 0.52387 0.0
C156 C 0.27382 0.98395 0.50937 0.0
C157 C 0.29457 0.02881 0.50337 0.0
C158 C 0.33489 0.061 0.51227 0.0
C159 C 0.35397 0.04874 0.52682 0.0
C160 C 0.39518 1.00098 0.54856 0.0
C161 C 0.43004 0.03935 0.55761 0.0
C162 C 0.47426 0.047 0.5577 0.0
C163 C 0.48481 0.01695 0.54846 0.0
C164 C 0.44983 0.9793 0.53899 0.0
C165 C 0.40564 0.97141 0.53915 0.0
H166 H 0.66464 0.71777 0.88964 0.0
N167 N 0.6694 0.64179 0.88223 0.0
H168 H 0.69968 0.77015 0.91596 0.0
H169 H 0.714 0.63397 0.91124 0.0
H170 H 0.74885 0.68601 0.93786 0.0
H171 H 0.74385 0.65569 0.86493 0.0
H172 H 0.77799 0.69991 0.83695 0.0
H173 H 0.63153 0.67805 0.85961 0.0
H174 H 0.66604 0.72372 0.8318 0.0
H175 H 0.59615 0.64652 0.89557 0.0
H176 H 0.63586 0.55767 0.86986 0.0
H177 H 0.51918 0.58511 0.89769 0.0
H178 H 0.55764 0.49617 0.87061 0.0
H179 H 0.27551 0.39282 0.90147 0.0
H180 H 0.23102 0.35317 0.92897 0.0
H181 H 0.3253 0.3079 0.94094 0.0
H182 H 0.36891 0.34717 0.91348 0.0
H183 H 0.33979 0.30903 0.88286 0.0
H184 H 0.29866 0.25455 0.85751 0.0
H185 H 0.27484 0.35222 0.83036 0.0
H186 H 0.31434 0.40579 0.85613 0.0
H187 H 0.37579 0.47795 0.88371 0.0
H188 H 0.45365 0.53926 0.88148 0.0
H189 H 0.50006 0.44452 0.88927 0.0
N190 N 0.34646 0.39119 0.88758 0.0
H191 H 0.4217 0.38322 0.88994 0.0
C192 C 0.68693 0.67183 0.89837 0.0
C193 C 0.68285 0.71042 0.90007 0.0
C194 C 0.70292 0.74043 0.91518 0.0
C195 C 0.72797 0.73302 0.92882 0.0
C196 C 0.73099 0.69375 0.9274 0.0
C197 C 0.71067 0.66357 0.91229 0.0
C198 C 0.68547 0.66379 0.86445 0.0
C199 C 0.72652 0.67007 0.85759 0.0
C200 C 0.74627 0.69601 0.84169 0.0
C201 C 0.72546 0.71681 0.8324 0.0
C202 C 0.68316 0.70861 0.83876 0.0
C203 C 0.66334 0.68247 0.85465 0.0
C204 C 0.62245 0.60672 0.8828 0.0
C205 C 0.58849 0.6139 0.89023 0.0
C206 C 0.54387 0.57847 0.89123 0.0
C207 C 0.53162 0.53515 0.88438 0.0
C208 C 0.56556 0.52852 0.87648 0.0
C209 C 0.61034 0.5638 0.87583 0.0
C210 C 0.32535 0.37293 0.90535 0.0
C211 C 0.28681 0.37486 0.91025 0.0
C212 C 0.26141 0.35204 0.9259 0.0
C213 C 0.27373 0.32633 0.93694 0.0
C214 C 0.31376 0.32616 0.93255 0.0
C215 C 0.33928 0.34922 0.91688 0.0
C216 C 0.32946 0.36131 0.87149 0.0
C217 C 0.32618 0.31892 0.87138 0.0
C218 C 0.30285 0.28786 0.85686 0.0
C219 C 0.28397 0.29925 0.84191 0.0
C220 C 0.28978 0.34269 0.84148 0.0
C221 C 0.31212 0.37328 0.85622 0.0
C222 C 0.39302 0.42634 0.88737 0.0
C223 C 0.40295 0.47066 0.88499 0.0
C224 C 0.44763 0.50571 0.88387 0.0
C225 C 0.48374 0.49735 0.88539 0.0
C226 C 0.47348 0.45254 0.88782 0.0
C227 C 0.42857 0.41734 0.88857 0.0
H228 H 0.97157 0.11328 0.08572 0.0
C229 C 1.00051 0.10916 0.08838 0.0
H230 H 0.05966 0.13071 0.1047 0.0
H231 H 0.06273 0.31283 0.12798 0.0
H232 H 0.11911 0.34145 0.10345 0.0
H233 H 0.13238 0.28984 0.08366 0.0
H234 H 0.08902 0.20917 0.08821 0.0
C235 C 0.03028 0.13399 0.10195 0.0
C236 C 0.02295 0.16519 0.11417 0.0
C237 C 0.04921 0.21223 0.11164 0.0
C238 C 0.04213 0.24205 0.1233 0.0
C239 C 0.06759 0.28875 0.11992 0.0
C240 C 0.09986 0.30561 0.10579 0.0
C241 C 0.10729 0.27655 0.09463 0.0
C242 C 0.08225 0.23036 0.09741 0.0
H243 H 0.06662 0.28552 0.16279 0.0
C244 C 0.03341 0.28232 0.16317 0.0
H245 H 0.96887 0.25191 0.1503 0.0
H246 H 0.9687 0.07686 0.12354 0.0
H247 H 0.91264 0.04815 0.14812 0.0
H248 H 0.90015 0.09967 0.16829 0.0
H249 H 0.94375 0.18019 0.16404 0.0
C250 C 1.00208 0.25524 0.15045 0.0
C251 C 0.00944 0.22471 0.13777 0.0
C252 C 0.98315 0.17758 0.14027 0.0
C253 C 0.9901 0.14782 0.12855 0.0
C254 C 0.96427 0.101 0.13176 0.0
C255 C 0.9321 0.08403 0.14591 0.0
C256 C 0.92509 0.11303 0.15727 0.0
C257 C 0.95031 0.15924 0.15461 0.0
H258 H 0.91493 0.02944 0.41729 0.0
C259 C 0.90887 0.99526 0.41762 0.0
H260 H 0.87009 0.93104 0.42952 0.0
H261 H 0.84719 0.06925 0.48963 0.0
H262 H 0.92747 0.10288 0.49536 0.0
H263 H 0.97286 0.07874 0.47704 0.0
H264 H 0.93829 0.02116 0.45277 0.0
C265 C 0.87729 0.96558 0.42925 0.0
C266 C 0.84965 0.97826 0.4413 0.0
C267 C 0.87028 0.01138 0.45577 0.0
C268 C 0.84389 0.02461 0.46662 0.0
C269 C 0.86549 0.05796 0.48089 0.0
C270 C 0.91159 0.07746 0.48441 0.0
C271 C 0.93715 0.06393 0.47407 0.0
C272 C 0.91689 0.03109 0.46002 0.0
H273 H 0.733 0.95628 0.4882 0.0
C274 C 0.73918 0.99048 0.48749 0.0
H275 H 0.77902 0.05324 0.47433 0.0
H276 H 0.79911 0.91226 0.41536 0.0
H277 H 0.71855 0.87777 0.40993 0.0
H278 H 0.673 0.90142 0.42845 0.0
H279 H 0.70768 0.95947 0.45257 0.0
C280 C 0.76964 0.01819 0.47496 0.0
C281 C 0.79669 0.00391 0.46337 0.0
C282 C 0.77593 0.97025 0.44913 0.0
C283 C 0.80237 0.95713 0.43823 0.0
C284 C 0.78073 0.92348 0.42409 0.0
C285 C 0.73449 0.90347 0.42078 0.0
C286 C 0.70885 0.91674 0.43122 0.0
C287 C 0.72916 0.9499 0.44515 0.0
H288 H 0.92131 0.90275 0.74798 0.0
C289 C 0.90799 0.92549 0.74858 0.0
H290 H 0.86021 0.93933 0.76099 0.0
H291 H 0.76623 0.7239 0.78192 0.0
H292 H 0.75447 0.7089 0.74835 0.0
H293 H 0.78708 0.77098 0.72579 0.0
H294 H 0.83215 0.8484 0.73662 0.0
C295 C 0.87276 0.91603 0.75983 0.0
C296 C 0.85388 0.8778 0.77312 0.0
C297 C 0.82688 0.8328 0.76655 0.0
C298 C 0.80691 0.79704 0.77962 0.0
C299 C 0.7812 0.75236 0.77266 0.0
C300 C 0.77434 0.74328 0.75342 0.0
C301 C 0.79279 0.77823 0.74071 0.0
C302 C 0.81873 0.82253 0.74712 0.0
H303 H 0.72631 0.75696 0.8081 0.0
C304 C 0.74723 0.74824 0.81651 0.0
H305 H 0.81455 0.76454 0.82207 0.0
H306 H 0.90516 0.95993 0.79041 0.0
H307 H 0.91573 0.97499 0.82395 0.0
H308 H 0.87932 0.91335 0.84658 0.0
H309 H 0.83228 0.83626 0.83581 0.0
C310 C 0.79192 0.76959 0.81313 0.0
C311 C 0.81313 0.80645 0.79922 0.0
C312 C 0.84045 0.85141 0.80575 0.0
C313 C 0.86087 0.88705 0.79271 0.0
C314 C 0.88825 0.93159 0.79967 0.0
C315 C 0.89475 0.94074 0.81891 0.0
C316 C 0.87431 0.90603 0.83164 0.0
C317 C 0.84745 0.86187 0.82524 0.0
H318 H 0.98363 0.91747 0.10296 0.0
C319 C 0.00509 0.92738 0.09064 0.0
H320 H 0.05313 0.91928 0.07528 0.0
H321 H 0.12454 0.85937 0.14459 0.0
H322 H 0.19211 0.92507 0.13363 0.0
H323 H 0.18822 0.97079 0.10811 0.0
H324 H 0.11694 0.95079 0.09323 0.0
C325 C 0.0312 0.90917 0.08745 0.0
C326 C 0.03403 0.87862 0.10147 0.0
C327 C 0.07606 0.89106 0.11015 0.0
C328 C 0.07814 0.86537 0.12523 0.0
C329 C 0.12075 0.8782 0.1334 0.0
C330 C 0.15989 0.91577 0.12719 0.0
C331 C 0.15771 0.94145 0.11281 0.0
C332 C 0.11644 0.92948 0.10436 0.0
H333 H 0.01452 0.74054 0.13715 0.0
C334 C 0.02955 0.76166 0.14958 0.0
H335 H 0.0549 0.82608 0.16183 0.0
H336 H 0.95048 0.83839 0.08481 0.0
H337 H 0.88221 0.77406 0.09632 0.0
H338 H 0.88387 0.73549 0.12502 0.0
H339 H 0.95384 0.75991 0.14195 0.0
C340 C 0.04066 0.80515 0.1493 0.0
C341 C 0.0381 0.82787 0.13198 0.0
C342 C 0.99621 0.81456 0.12292 0.0
C343 C 0.99458 0.83887 0.10717 0.0
C344 C 0.95306 0.82278 0.09748 0.0
C345 C 0.91371 0.78567 0.10384 0.0
C346 C 0.91471 0.76381 0.11993 0.0
C347 C 0.95531 0.77799 0.12944 0.0
H348 H 0.10296 0.96601 0.41881 0.0
C349 C 0.09896 0.99437 0.41508 0.0
H350 H 0.12385 0.06379 0.41978 0.0
H351 H 0.19501 0.03442 0.49908 0.0
H352 H 0.13588 0.04882 0.50909 0.0
H353 H 0.08917 0.06005 0.48585 0.0
H354 H 0.10124 0.0566 0.45239 0.0
C355 C 0.12818 0.03513 0.42233 0.0
C356 C 0.1633 0.0396 0.43601 0.0
C357 C 0.15732 0.0438 0.45549 0.0
C358 C 0.18484 0.03808 0.46889 0.0
C359 C 0.17602 0.03955 0.48826 0.0
C360 C 0.14196 0.0476 0.49422 0.0
C361 C 0.11562 0.05386 0.48114 0.0
C362 C 0.12289 0.05179 0.46198 0.0
H363 H 0.28328 0.07877 0.48852 0.0
C364 C 0.27348 0.04344 0.48881 0.0
H365 H 0.2344 0.98023 0.4752 0.0
H366 H 0.18886 0.03805 0.39982 0.0
H367 H 0.25036 0.02705 0.38958 0.0
H368 H 0.29836 0.01741 0.41271 0.0
H369 H 0.28527 0.01878 0.44622 0.0
C370 C 0.2424 0.01493 0.4763 0.0
C371 C 0.21908 0.02925 0.46272 0.0
C372 C 0.22735 0.02873 0.44322 0.0
C373 C 0.19956 0.03407 0.42987 0.0
C374 C 0.20857 0.0334 0.41049 0.0
C375 C 0.24386 0.02737 0.40445 0.0
C376 C 0.27091 0.02196 0.41748 0.0
C377 C 0.26293 0.02262 0.43666 0.0
H378 H 0.12532 0.12162 0.74597 0.0
C379 C 0.09395 0.11803 0.75127 0.0
H380 H 0.06277 0.13648 0.77226 0.0
H381 H 0.26991 0.20776 0.8074 0.0
H382 H 0.25423 0.13095 0.80416 0.0
H383 H 0.18319 0.07232 0.78953 0.0
H384 H 0.12825 0.09041 0.77749 0.0
C385 C 0.09425 0.14007 0.76709 0.0
C386 C 0.13672 0.17413 0.77678 0.0
C387 C 0.16714 0.16217 0.78478 0.0
C388 C 0.20658 0.19524 0.79448 0.0
C389 C 0.23821 0.18336 0.80093 0.0
C390 C 0.22981 0.13949 0.79901 0.0
C391 C 0.18994 0.10655 0.79068 0.0
C392 C 0.15881 0.11752 0.78367 0.0
H393 H 0.23187 0.23039 0.83347 0.0
C394 C 0.25387 0.26398 0.82819 0.0
H395 H 0.27361 0.3058 0.80461 0.0
H396 H 0.08828 0.20978 0.76154 0.0
H397 H 0.10228 0.28554 0.76607 0.0
H398 H 0.1665 0.34076 0.78545 0.0
H399 H 0.21745 0.32082 0.80011 0.0
C400 C 0.2511 0.27246 0.80998 0.0
C401 C 0.21367 0.23921 0.79754 0.0
C402 C 0.18355 0.25126 0.78935 0.0
C403 C 0.14557 0.21896 0.77872 0.0
C404 C 0.11691 0.23244 0.77023 0.0
C405 C 0.12464 0.27596 0.77263 0.0
C406 C 0.16084 0.30706 0.78349 0.0
C407 C 0.18999 0.29509 0.7918 0.0
H408 H 0.89475 0.03854 0.69244 0.0
C409 C 0.90882 0.02035 0.68526 0.0
H410 H 0.9086 0.98554 0.66064 0.0
H411 H 0.72152 0.93351 0.62557 0.0
H412 H 0.71208 0.86061 0.63251 0.0
H413 H 0.76859 0.8541 0.65155 0.0
H414 H 0.83526 0.92054 0.66354 0.0
C415 C 0.89433 0.00354 0.66785 0.0
C416 C 0.85849 0.00808 0.65784 0.0
C417 C 0.8189 0.96886 0.65141 0.0
C418 C 0.78567 0.97259 0.64083 0.0
C419 C 0.74745 0.93279 0.63396 0.0
C420 C 0.7416 0.89063 0.63781 0.0
C421 C 0.77345 0.88697 0.64851 0.0
C422 C 0.81167 0.92545 0.65526 0.0
H423 H 0.80831 0.06012 0.60512 0.0
C424 C 0.77242 0.04214 0.60824 0.0
H425 H 0.72321 0.00143 0.62804 0.0
H426 H 0.9333 0.09107 0.66514 0.0
H427 H 0.93939 0.16342 0.66072 0.0
H428 H 0.87646 0.16898 0.64684 0.0
H429 H 0.80778 0.10203 0.63661 0.0
C430 C 0.75871 0.01932 0.6244 0.0
C431 C 0.79144 0.01553 0.63707 0.0
C432 C 0.82965 0.05464 0.64453 0.0
C433 C 0.86426 0.05112 0.65406 0.0
C434 C 0.90441 0.09124 0.65918 0.0
C435 C 0.90864 0.13319 0.6565 0.0
C436 C 0.87335 0.13635 0.64858 0.0
C437 C 0.83428 0.09766 0.64261 0.0
H438 H 0.91991 0.90442 0.01885 0.0
C439 C 0.90801 0.92833 0.01923 0.0
H440 H 0.86121 0.94508 0.00824 0.0
H441 H 0.82727 0.83933 0.93162 0.0
H442 H 0.87002 0.91648 0.92144 0.0
H443 H 0.90486 0.97903 0.94455 0.0
H444 H 0.89733 0.96473 0.97798 0.0
C445 C 0.87263 0.92081 0.00839 0.0
C446 C 0.8514 0.8825 0.99466 0.0
C447 C 0.85554 0.89146 0.97513 0.0
C448 C 0.83493 0.85543 0.96179 0.0
C449 C 0.84105 0.86537 0.94239 0.0
C450 C 0.86583 0.90956 0.93633 0.0
C451 C 0.88548 0.94476 0.94934 0.0
C452 C 0.88071 0.93604 0.96851 0.0
H453 H 0.73936 0.79157 0.94628 0.0
C454 C 0.75057 0.76738 0.94405 0.0
H455 H 0.79936 0.75007 0.9523 0.0
H456 H 0.8341 0.85342 0.03102 0.0
H457 H 0.792 0.77612 0.04114 0.0
H458 H 0.7577 0.71364 0.01797 0.0
H459 H 0.76506 0.72818 0.9845 0.0
C460 C 0.78624 0.7727 0.95411 0.0
C461 C 0.80946 0.81045 0.968 0.0
C462 C 0.8059 0.80141 0.98749 0.0
C463 C 0.82643 0.83745 1.00086 0.0
C464 C 0.82045 0.82741 0.02024 0.0
C465 C 0.79605 0.78314 0.02626 0.0
C466 C 0.77668 0.74797 0.01321 0.0
C467 C 0.78124 0.75678 0.99404 0.0
H468 H 0.05404 0.9512 0.33696 0.0
C469 C 0.02517 0.93799 0.34629 0.0
H470 H 0.96589 0.87964 0.35501 0.0
H471 H 0.00858 0.83274 0.26873 0.0
H472 H 0.98174 0.88219 0.25872 0.0
H473 H 0.96107 0.92249 0.28195 0.0
H474 H 0.96789 0.91406 0.31538 0.0
C475 C 0.99462 0.8939 0.34562 0.0
C476 C 0.99967 0.86381 0.33181 0.0
C477 C 0.99352 0.86747 0.31232 0.0
C478 C 0.00368 0.84279 0.29895 0.0
C479 C 0.99985 0.84932 0.27956 0.0
C480 C 0.9847 0.87785 0.27359 0.0
C481 C 0.9732 0.90065 0.28667 0.0
C482 C 0.97752 0.89569 0.30581 0.0
H483 H 0.96573 0.74579 0.28164 0.0
C484 C 1.00108 0.75556 0.28018 0.0
H485 H 0.0674 0.80093 0.29012 0.0
H486 H 0.0116 0.84659 0.36808 0.0
H487 H 0.03528 0.79449 0.37829 0.0
H488 H 0.05092 0.75006 0.35516 0.0
H489 H 0.04317 0.75753 0.32167 0.0
C490 C 0.03166 0.78924 0.29123 0.0
C491 C 0.01821 0.81305 0.30513 0.0
C492 C 0.02239 0.80792 0.32464 0.0
C493 C 0.01305 0.83329 0.33799 0.0
C494 C 0.01813 0.82799 0.35737 0.0
C495 C 0.03166 0.79821 0.36341 0.0
C496 C 0.0405 0.77321 0.35039 0.0
C497 C 0.03599 0.77787 0.33121 0.0
H498 H 0.11363 0.05766 0.66785 0.0
C499 C 0.09985 0.03063 0.67796 0.0
H500 H 0.10047 0.97334 0.68776 0.0
H501 H 0.16876 0.94103 0.60926 0.0
H502 H 0.09355 0.8763 0.61081 0.0
H503 H 0.0424 0.86877 0.63667 0.0
H504 H 0.06615 0.92619 0.66106 0.0
C505 C 0.11496 0.00139 0.67816 0.0
C506 C 0.14806 0.00376 0.66391 0.0
C507 C 0.13418 0.96921 0.65004 0.0
C508 C 0.16403 0.97318 0.6353 0.0
C509 C 0.14823 0.93925 0.62111 0.0
C510 C 0.10491 0.90197 0.62174 0.0
C511 C 0.07609 0.89776 0.63628 0.0
C512 C 0.09024 0.93098 0.65023 0.0
H513 H 0.24796 0.96351 0.62618 0.0
C514 C 0.25686 0.99055 0.61632 0.0
H515 H 0.24603 0.04386 0.609 0.0
H516 H 0.18774 0.07273 0.68974 0.0
H517 H 0.26361 0.13698 0.68857 0.0
H518 H 0.31492 0.14448 0.66277 0.0
H519 H 0.29077 0.08758 0.63805 0.0
C520 C 0.23885 0.01715 0.61874 0.0
C521 C 0.2082 0.01124 0.63471 0.0
C522 C 0.22254 0.04505 0.64891 0.0
C523 C 0.19265 0.04112 0.66362 0.0
C524 C 0.20851 0.0747 0.67794 0.0
C525 C 0.25212 0.11159 0.67751 0.0
C526 C 0.28103 0.11579 0.663 0.0
C527 C 0.26668 0.08295 0.64887 0.0
H528 H 0.11632 0.11145 0.0212 0.0
C529 C 0.09119 0.12182 0.02199 0.0
H530 H 0.07184 0.16768 0.0126 0.0
H531 H 0.28819 0.28382 0.99086 0.0
H532 H 0.30352 0.28762 0.02437 0.0
H533 H 0.24216 0.24406 0.04669 0.0
H534 H 0.16521 0.19618 0.03567 0.0
C535 C 0.09744 0.15789 0.01233 0.0
C536 C 0.13564 0.18224 0.99908 0.0
C537 C 0.18045 0.21021 0.00581 0.0
C538 C 0.21579 0.23597 0.99296 0.0
C539 C 0.26015 0.26371 1.00002 0.0
C540 C 0.26939 0.26623 0.01921 0.0
C541 C 0.23484 0.24166 0.03177 0.0
C542 C 0.1908 0.21409 0.02525 0.0
H543 H 0.21637 0.30624 0.9563 0.0
C544 C 0.24283 0.29912 0.9523 0.0
H545 H 0.26746 0.25424 0.95663 0.0
H546 H 0.05417 0.13022 0.98138 0.0
H547 H 0.03932 0.12568 0.94788 0.0
H548 H 0.10067 0.16988 0.92566 0.0
H549 H 0.17719 0.21902 0.93683 0.0
C550 C 0.24255 0.26364 0.96021 0.0
C551 C 0.20617 0.23441 0.9735 0.0
C552 C 0.16168 0.20532 0.96672 0.0
C553 C 0.12638 0.1795 0.97952 0.0
C554 C 0.08223 0.15088 0.97233 0.0
C555 C 0.07324 0.14779 0.95311 0.0
C556 C 0.10777 0.17268 0.94061 0.0
C557 C 0.15153 0.20101 0.94723 0.0
H558 H 0.97994 0.10252 0.34282 0.0
C559 C 0.00783 0.11309 0.3527 0.0
H560 H 0.0685 0.16816 0.36313 0.0
H561 H 0.08216 0.26115 0.28396 0.0
H562 H 0.14464 0.24745 0.28209 0.0
H563 H 0.15909 0.20792 0.30739 0.0
H564 H 0.11056 0.18137 0.33464 0.0
C565 C 0.0391 0.15687 0.35409 0.0
C566 C 0.03641 0.18946 0.34128 0.0
C567 C 0.06638 0.20684 0.32591 0.0
C568 C 0.05882 0.23092 0.3116 0.0
C569 C 0.08725 0.24455 0.29568 0.0
C570 C 0.12312 0.23648 0.29431 0.0
C571 C 0.13119 0.21413 0.30853 0.0
C572 C 0.10308 0.1991 0.3241 0.0
H573 H 0.07141 0.32279 0.29951 0.0
C574 C 0.03894 0.30343 0.29241 0.0
H575 H 0.97899 0.24035 0.29035 0.0
H576 H 0.97696 0.16656 0.37027 0.0
H577 H 0.91563 0.18237 0.37294 0.0
H578 H 0.9028 0.22479 0.34841 0.0
H579 H 0.95116 0.25171 0.3211 0.0
C580 C 0.01113 0.26067 0.29752 0.0
C581 C 0.02225 0.2392 0.31313 0.0
C582 C 0.99385 0.22392 0.32907 0.0
C583 C 1.00102 0.19919 0.34317 0.0
C584 C 0.97235 0.18466 0.35899 0.0
C585 C 0.93724 0.19377 0.36075 0.0
C586 C 0.93004 0.21768 0.34694 0.0
C587 C 0.95796 0.23278 0.3313 0.0
loop_
_geom_bond_atom_site_label_1
_geom_bond_atom_site_label_2
_geom_bond_distance
_geom_bond_site_symmetry_2
_ccdc_geom_bond_type
Co0 O1 2.216 1_445 S
Co0 O2 2.091 1_545 S
Co0 O4 2.004 . S
Co0 O10 2.021 1_445 S
Co0 O12 2.137 . S
Co0 O13 2.244 1_455 S
O1 Co0 2.216 1_665 S
O1 C8 1.247 1_655 S
O2 Co0 2.091 1_565 S
O2 C8 1.261 . S
C3 O12 1.247 . S
C3 O13 1.272 1_455 S
O4 Co0 2.004 . S
O4 C9 1.259 . S
Co5 O6 2.061 1_655 S
Co5 O11 2.050 1_545 S
Co5 O13 2.135 . S
O6 Co5 2.061 1_455 S
O6 C9 1.235 . S
C7 O10 1.238 . S
C7 O11 1.244 . S
C8 O1 1.247 1_455 S
C8 O2 1.261 . S
C9 O4 1.259 . S
C9 O6 1.235 . S
O10 Co0 2.021 1_665 S
O10 C7 1.238 . S
O11 Co5 2.050 1_565 S
O11 C7 1.244 . S
O12 Co0 2.137 . S
O12 C3 1.247 . S
O13 Co0 2.244 1_655 S
O13 C3 1.272 1_655 S
O13 Co5 2.135 . S
Co14 O15 2.216 1_455 S
Co14 O16 2.091 . S
Co14 O18 2.004 . S
Co14 O24 2.021 1_455 S
Co14 O26 2.137 . S
Co14 O27 2.244 1_445 S
O15 Co14 2.216 1_655 S
O15 C22 1.247 1_655 S
O16 Co14 2.091 . S
O16 C22 1.261 . S
C17 O26 1.247 1_565 S
C17 O27 1.272 1_455 S
O18 Co14 2.004 . S
O18 C23 1.259 . S
Co19 O20 2.061 1_655 S
Co19 O25 2.052 . S
Co19 O27 2.135 . S
O20 Co19 2.061 1_455 S
O20 C23 1.235 1_565 S
C21 O24 1.238 . S
C21 O25 1.241 1_545 S
C22 O15 1.247 1_455 S
C22 O16 1.261 . S
C23 O18 1.259 . S
C23 O20 1.235 1_545 S
O24 Co14 2.021 1_655 S
O24 C21 1.238 . S
O25 Co19 2.052 . S
O25 C21 1.241 1_565 S
O26 Co14 2.137 . S
O26 C17 1.247 1_545 S
O27 Co14 2.244 1_665 S
O27 C17 1.272 1_655 S
O27 Co19 2.135 . S
Co28 O29 2.221 . S
Co28 O30 2.072 1_545 S
Co28 O32 1.993 1_445 S
Co28 O38 2.028 . S
Co28 O40 2.140 1_445 S
Co28 O41 2.265 1_455 S
O29 Co28 2.221 . S
O29 C36 1.247 . S
O30 Co28 2.072 1_565 S
O30 C36 1.261 1_565 S
C31 O40 1.247 1_545 S
C31 O41 1.272 . S
O32 Co28 1.993 1_665 S
O32 C37 1.259 . S
Co33 O34 2.061 1_545 S
Co33 O39 2.052 1_655 S
Co33 O41 2.135 . S
O34 Co33 2.061 1_565 S
O34 C37 1.235 . S
C35 O38 1.238 . S
C35 O39 1.241 . S
C36 O29 1.247 . S
C36 O30 1.261 1_545 S
C37 O32 1.259 . S
C37 O34 1.235 . S
O38 Co28 2.028 . S
O38 C35 1.238 . S
O39 Co33 2.052 1_455 S
O39 C35 1.241 . S
O40 Co28 2.140 1_665 S
O40 C31 1.247 1_565 S
O41 Co28 2.265 1_655 S
O41 C31 1.272 . S
O41 Co33 2.135 . S
H42 C69 0.929 . S
N43 C68 1.433 . S
N43 C74 1.435 . S
N43 C80 1.423 . S
H44 C70 0.930 . S
H45 C73 0.931 . S
H46 C72 0.929 . S
H47 C75 0.930 . S
H48 C76 0.932 . S
H49 C79 0.929 . S
H50 C78 0.931 . S
H51 C81 0.929 . S
H52 C85 0.932 . S
H53 C82 0.931 . S
H54 C84 0.929 1_455 S
H55 C87 0.929 . S
H56 C88 0.930 . S
H57 C90 0.929 . S
H58 C91 0.931 . S
H59 C93 0.930 . S
H60 C94 0.932 . S
H61 C96 0.931 . S
H62 C97 0.929 . S
H63 C99 0.929 . S
H64 C100 0.931 . S
H65 C102 0.929 1_455 S
N66 C86 1.433 . S
N66 C92 1.435 . S
N66 C98 1.423 . S
H67 C103 0.932 . S
C68 N43 1.433 . S
C68 C69 1.363 . S
C68 C73 1.370 1_655 S
C69 H42 0.929 . S
C69 C68 1.363 . S
C69 C70 1.385 . S
C70 H44 0.930 . S
C70 C69 1.385 . S
C70 C71 1.357 1_655 S
C71 C70 1.357 1_455 S
C71 C72 1.406 . S
C72 H46 0.929 . S
C72 C71 1.406 . S
C72 C73 1.391 . S
C73 H45 0.931 . S
C73 C68 1.370 1_455 S
C73 C72 1.391 . S
C74 N43 1.435 . S
C74 C75 1.358 1_655 S
C74 C79 1.371 . S
C75 H47 0.930 . S
C75 C74 1.358 1_455 S
C75 C76 1.405 . S
C76 H48 0.932 . S
C76 C75 1.405 . S
C76 C77 1.383 . S
C77 C76 1.383 . S
C77 C78 1.393 1_455 S
C78 H50 0.931 . S
C78 C77 1.393 1_655 S
C78 C79 1.382 . S
C79 H49 0.929 . S
C79 C74 1.371 . S
C79 C78 1.382 . S
C80 N43 1.423 . S
C80 C81 1.362 . S
C80 C85 1.388 1_655 S
C81 H51 0.929 . S
C81 C80 1.362 . S
C81 C82 1.376 . S
C82 H53 0.931 . S
C82 C81 1.376 . S
C82 C83 1.396 . S
C83 C82 1.396 . S
C83 C84 1.348 . S
C83 C101 1.472 . S
C84 H54 0.929 1_655 S
C84 C83 1.348 . S
C84 C85 1.443 1_655 S
C85 H52 0.932 . S
C85 C80 1.388 1_455 S
C85 C84 1.443 1_455 S
C86 N66 1.433 . S
C86 C87 1.363 . S
C86 C91 1.370 1_655 S
C87 H55 0.929 . S
C87 C86 1.363 . S
C87 C88 1.385 . S
C88 H56 0.930 . S
C88 C87 1.385 . S
C88 C89 1.357 1_655 S
C89 C88 1.357 1_455 S
C89 C90 1.406 . S
C90 H57 0.929 . S
C90 C89 1.406 . S
C90 C91 1.391 . S
C91 H58 0.931 . S
C91 C86 1.370 1_455 S
C91 C90 1.391 . S
C92 N66 1.435 . S
C92 C93 1.358 1_655 S
C92 C97 1.371 . S
C93 H59 0.930 . S
C93 C92 1.358 1_455 S
C93 C94 1.405 . S
C94 H60 0.932 . S
C94 C93 1.405 . S
C94 C95 1.383 . S
C95 C94 1.383 . S
C95 C96 1.393 1_455 S
C96 H61 0.931 . S
C96 C95 1.393 1_655 S
C96 C97 1.382 . S
C97 H62 0.929 . S
C97 C92 1.371 . S
C97 C96 1.382 . S
C98 N66 1.423 . S
C98 C99 1.362 . S
C98 C103 1.388 1_655 S
C99 H63 0.929 . S
C99 C98 1.362 . S
C99 C100 1.376 . S
C100 H64 0.931 . S
C100 C99 1.376 . S
C100 C101 1.396 . S
C101 C83 1.472 . S
C101 C100 1.396 . S
C101 C102 1.348 . S
C102 H65 0.929 1_655 S
C102 C101 1.348 . S
C102 C103 1.443 1_655 S
C103 H67 0.932 . S
C103 C98 1.388 1_455 S
C103 C102 1.443 1_455 S
H104 C131 0.929 . S
N105 C130 1.433 . S
N105 C136 1.435 . S
N105 C142 1.423 . S
H106 C132 0.930 . S
H107 C135 0.931 . S
H108 C134 0.929 . S
H109 C137 0.930 . S
H110 C138 0.932 . S
H111 C141 0.929 . S
H112 C140 0.931 . S
H113 C143 0.929 . S
H114 C147 0.932 1_565 S
H115 C144 0.931 . S
H116 C146 0.929 . S
H117 C149 0.929 . S
H118 C150 0.930 . S
H119 C152 0.929 . S
H120 C153 0.931 . S
H121 C155 0.930 . S
H122 C156 0.932 . S
H123 C158 0.931 . S
H124 C159 0.929 . S
H125 C161 0.929 . S
H126 C162 0.931 . S
H127 C164 0.929 . S
N128 C148 1.433 . S
N128 C154 1.435 . S
N128 C160 1.423 . S
H129 C165 0.932 1_565 S
C130 N105 1.433 . S
C130 C131 1.363 . S
C130 C135 1.370 1_545 S
C131 H104 0.929 . S
C131 C130 1.363 . S
C131 C132 1.385 . S
C132 H106 0.930 . S
C132 C131 1.385 . S
C132 C133 1.357 . S
C133 C132 1.357 . S
C133 C134 1.406 1_545 S
C134 H108 0.929 . S
C134 C133 1.406 1_565 S
C134 C135 1.391 . S
C135 H107 0.931 . S
C135 C130 1.370 1_565 S
C135 C134 1.391 . S
C136 N105 1.435 . S
C136 C137 1.358 1_545 S
C136 C141 1.371 . S
C137 H109 0.930 . S
C137 C136 1.358 1_565 S
C137 C138 1.405 . S
C138 H110 0.932 . S
C138 C137 1.405 . S
C138 C139 1.383 1_565 S
C139 C138 1.383 1_545 S
C139 C140 1.393 . S
C140 H112 0.931 . S
C140 C139 1.393 . S
C140 C141 1.382 . S
C141 H111 0.929 . S
C141 C136 1.371 . S
C141 C140 1.382 . S
C142 N105 1.423 . S
C142 C143 1.362 . S
C142 C147 1.388 . S
C143 H113 0.929 . S
C143 C142 1.362 . S
C143 C144 1.376 . S
C144 H115 0.931 . S
C144 C143 1.376 . S
C144 C145 1.396 . S
C145 C144 1.396 . S
C145 C146 1.348 . S
C145 C163 1.472 . S
C146 H116 0.929 . S
C146 C145 1.348 . S
C146 C147 1.443 . S
C147 H114 0.932 1_545 S
C147 C142 1.388 . S
C147 C146 1.443 . S
C148 N128 1.433 . S
C148 C149 1.363 . S
C148 C153 1.370 1_545 S
C149 H117 0.929 . S
C149 C148 1.363 . S
C149 C150 1.385 . S
C150 H118 0.930 . S
C150 C149 1.385 . S
C150 C151 1.357 . S
C151 C150 1.357 . S
C151 C152 1.406 1_545 S
C152 H119 0.929 . S
C152 C151 1.406 1_565 S
C152 C153 1.391 . S
C153 H120 0.931 . S
C153 C148 1.370 1_565 S
C153 C152 1.391 . S
C154 N128 1.435 . S
C154 C155 1.358 1_545 S
C154 C159 1.371 . S
C155 H121 0.930 . S
C155 C154 1.358 1_565 S
C155 C156 1.405 . S
C156 H122 0.932 . S
C156 C155 1.405 . S
C156 C157 1.383 1_565 S
C157 C156 1.383 1_545 S
C157 C158 1.393 . S
C158 H123 0.931 . S
C158 C157 1.393 . S
C158 C159 1.382 . S
C159 H124 0.929 . S
C159 C154 1.371 . S
C159 C158 1.382 . S
C160 N128 1.423 . S
C160 C161 1.362 . S
C160 C165 1.388 . S
C161 H125 0.929 . S
C161 C160 1.362 . S
C161 C162 1.376 . S
C162 H126 0.931 . S
C162 C161 1.376 . S
C162 C163 1.396 . S
C163 C145 1.472 . S
C163 C162 1.396 . S
C163 C164 1.348 . S
C164 H127 0.929 . S
C164 C163 1.348 . S
C164 C165 1.443 . S
C165 H129 0.932 1_545 S
C165 C160 1.388 . S
C165 C164 1.443 . S
H166 C193 0.929 . S
N167 C192 1.433 . S
N167 C198 1.435 . S
N167 C204 1.423 . S
H168 C194 0.930 . S
H169 C197 0.931 . S
H170 C196 0.929 . S
H171 C199 0.930 . S
H172 C200 0.932 . S
H173 C203 0.929 . S
H174 C202 0.931 . S
H175 C205 0.929 . S
H176 C209 0.932 . S
H177 C206 0.931 . S
H178 C208 0.929 . S
H179 C211 0.929 . S
H180 C212 0.930 . S
H181 C214 0.929 . S
H182 C215 0.931 . S
H183 C217 0.930 . S
H184 C218 0.932 . S
H185 C220 0.931 . S
H186 C221 0.929 . S
H187 C223 0.929 . S
H188 C224 0.931 . S
H189 C226 0.929 . S
N190 C210 1.433 . S
N190 C216 1.435 . S
N190 C222 1.423 . S
H191 C227 0.932 . S
C192 N167 1.433 . S
C192 C193 1.363 . S
C192 C197 1.370 . S
C193 H166 0.929 . S
C193 C192 1.363 . S
C193 C194 1.385 . S
C194 H168 0.930 . S
C194 C193 1.385 . S
C194 C195 1.357 . S
C195 C194 1.357 . S
C195 C196 1.406 . S
C196 H170 0.929 . S
C196 C195 1.406 . S
C196 C197 1.391 . S
C197 H169 0.931 . S
C197 C192 1.370 . S
C197 C196 1.391 . S
C198 N167 1.435 . S
C198 C199 1.358 . S
C198 C203 1.371 . S
C199 H171 0.930 . S
C199 C198 1.358 . S
C199 C200 1.405 . S
C200 H172 0.932 . S
C200 C199 1.405 . S
C200 C201 1.383 . S
C201 C200 1.383 . S
C201 C202 1.393 . S
C202 H174 0.931 . S
C202 C201 1.393 . S
C202 C203 1.382 . S
C203 H173 0.929 . S
C203 C198 1.371 . S
C203 C202 1.382 . S
C204 N167 1.423 . S
C204 C205 1.362 . S
C204 C209 1.388 . S
C205 H175 0.929 . S
C205 C204 1.362 . S
C205 C206 1.376 . S
C206 H177 0.931 . S
C206 C205 1.376 . S
C206 C207 1.396 . S
C207 C206 1.396 . S
C207 C208 1.348 . S
C207 C225 1.472 . S
C208 H178 0.929 . S
C208 C207 1.348 . S
C208 C209 1.443 . S
C209 H176 0.932 . S
C209 C204 1.388 . S
C209 C208 1.443 . S
C210 N190 1.433 . S
C210 C211 1.363 . S
C210 C215 1.370 . S
C211 H179 0.929 . S
C211 C210 1.363 . S
C211 C212 1.385 . S
C212 H180 0.930 . S
C212 C211 1.385 . S
C212 C213 1.357 . S
C213 C212 1.357 . S
C213 C214 1.406 . S
C214 H181 0.929 . S
C214 C213 1.406 . S
C214 C215 1.391 . S
C215 H182 0.931 . S
C215 C210 1.370 . S
C215 C214 1.391 . S
C216 N190 1.435 . S
C216 C217 1.358 . S
C216 C221 1.371 . S
C217 H183 0.930 . S
C217 C216 1.358 . S
C217 C218 1.405 . S
C218 H184 0.932 . S
C218 C217 1.405 . S
C218 C219 1.383 . S
C219 C218 1.383 . S
C219 C220 1.393 . S
C220 H185 0.931 . S
C220 C219 1.393 . S
C220 C221 1.382 . S
C221 H186 0.929 . S
C221 C216 1.371 . S
C221 C220 1.382 . S
C222 N190 1.423 . S
C222 C223 1.362 . S
C222 C227 1.388 . S
C223 H187 0.929 . S
C223 C222 1.362 . S
C223 C224 1.376 . S
C224 H188 0.931 . S
C224 C223 1.376 . S
C224 C225 1.396 . S
C225 C207 1.472 . S
C225 C224 1.396 . S
C225 C226 1.348 . S
C226 H189 0.929 . S
C226 C225 1.348 . S
C226 C227 1.443 . S
C227 H191 0.932 . S
C227 C222 1.388 . S
C227 C226 1.443 . S
H228 C229 0.932 1_655 S
C229 H228 0.932 1_455 S
C229 C235 1.271 . S
H230 C235 0.950 . S
H231 C239 0.949 . S
H232 C240 0.950 . S
H233 C241 0.951 . S
H234 C242 0.951 . S
C235 C229 1.271 . S
C235 H230 0.950 . S
C235 C236 1.478 . S
C236 C235 1.478 . S
C236 C237 1.397 . S
C236 C253 1.394 1_455 S
C237 C236 1.397 . S
C237 C238 1.438 . S
C237 C242 1.429 . S
C238 C237 1.438 . S
C238 C239 1.428 . S
C238 C251 1.394 1_455 S
C239 H231 0.949 . S
C239 C238 1.428 . S
C239 C240 1.345 . S
C240 H232 0.950 . S
C240 C239 1.345 . S
C240 C241 1.424 . S
C241 H233 0.951 . S
C241 C240 1.424 . S
C241 C242 1.347 . S
C242 H234 0.951 . S
C242 C237 1.429 . S
C242 C241 1.347 . S
H243 C244 0.951 . S
C244 H243 0.951 . S
C244 C250 1.265 1_455 S
H245 C250 0.950 . S
H246 C254 0.949 . S
H247 C255 0.950 . S
H248 C256 0.951 . S
H249 C257 0.951 . S
C250 C244 1.265 1_655 S
C250 H245 0.950 . S
C250 C251 1.478 . S
C251 C238 1.394 1_655 S
C251 C250 1.478 . S
C251 C252 1.397 . S
C252 C251 1.397 . S
C252 C253 1.438 . S
C252 C257 1.429 . S
C253 C236 1.394 1_655 S
C253 C252 1.438 . S
C253 C254 1.428 . S
C254 H246 0.949 . S
C254 C253 1.428 . S
C254 C255 1.345 . S
C255 H247 0.950 . S
C255 C254 1.345 . S
C255 C256 1.424 . S
C256 H248 0.951 . S
C256 C255 1.424 . S
C256 C257 1.347 . S
C257 H249 0.951 . S
C257 C252 1.429 . S
C257 C256 1.347 . S
H258 C259 0.951 . S
C259 H258 0.951 . S
C259 C265 1.265 . S
H260 C265 0.950 . S
H261 C269 0.949 . S
H262 C270 0.950 . S
H263 C271 0.951 . S
H264 C272 0.951 . S
C265 C259 1.265 . S
C265 H260 0.950 . S
C265 C266 1.478 . S
C266 C265 1.478 . S
C266 C267 1.397 . S
C266 C283 1.394 1_545 S
C267 C266 1.397 . S
C267 C268 1.438 . S
C267 C272 1.429 . S
C268 C267 1.438 . S
C268 C269 1.428 . S
C268 C281 1.394 . S
C269 H261 0.949 . S
C269 C268 1.428 . S
C269 C270 1.345 . S
C270 H262 0.950 . S
C270 C269 1.345 . S
C270 C271 1.424 . S
C271 H263 0.951 . S
C271 C270 1.424 . S
C271 C272 1.347 . S
C272 H264 0.951 . S
C272 C267 1.429 . S
C272 C271 1.347 . S
H273 C274 0.951 . S
C274 H273 0.951 . S
C274 C280 1.265 . S
H275 C280 0.950 1_565 S
H276 C284 0.949 . S
H277 C285 0.950 . S
H278 C286 0.951 . S
H279 C287 0.951 . S
C280 C274 1.265 . S
C280 H275 0.950 1_545 S
C280 C281 1.478 . S
C281 C268 1.394 . S
C281 C280 1.478 . S
C281 C282 1.397 1_545 S
C282 C281 1.397 1_565 S
C282 C283 1.438 . S
C282 C287 1.429 . S
C283 C266 1.394 1_565 S
C283 C282 1.438 . S
C283 C284 1.428 . S
C284 H276 0.949 . S
C284 C283 1.428 . S
C284 C285 1.345 . S
C285 H277 0.950 . S
C285 C284 1.345 . S
C285 C286 1.424 . S
C286 H278 0.951 . S
C286 C285 1.424 . S
C286 C287 1.347 . S
C287 H279 0.951 . S
C287 C282 1.429 . S
C287 C286 1.347 . S
H288 C289 0.951 . S
C289 H288 0.951 . S
C289 C295 1.265 . S
H290 C295 0.950 . S
H291 C299 0.949 . S
H292 C300 0.950 . S
H293 C301 0.951 . S
H294 C302 0.951 . S
C295 C289 1.265 . S
C295 H290 0.950 . S
C295 C296 1.478 . S
C296 C295 1.478 . S
C296 C297 1.397 . S
C296 C313 1.394 . S
C297 C296 1.397 . S
C297 C298 1.438 . S
C297 C302 1.429 . S
C298 C297 1.438 . S
C298 C299 1.428 . S
C298 C311 1.394 . S
C299 H291 0.949 . S
C299 C298 1.428 . S
C299 C300 1.345 . S
C300 H292 0.950 . S
C300 C299 1.345 . S
C300 C301 1.424 . S
C301 H293 0.951 . S
C301 C300 1.424 . S
C301 C302 1.347 . S
C302 H294 0.951 . S
C302 C297 1.429 . S
C302 C301 1.347 . S
H303 C304 0.951 . S
C304 H303 0.951 . S
C304 C310 1.265 . S
H305 C310 0.950 . S
H306 C314 0.949 . S
H307 C315 0.950 . S
H308 C316 0.951 . S
H309 C317 0.951 . S
C310 C304 1.265 . S
C310 H305 0.950 . S
C310 C311 1.478 . S
C311 C298 1.394 . S
C311 C310 1.478 . S
C311 C312 1.397 . S
C312 C311 1.397 . S
C312 C313 1.438 . S
C312 C317 1.429 . S
C313 C296 1.394 . S
C313 C312 1.438 . S
C313 C314 1.428 . S
C314 H306 0.949 . S
C314 C313 1.428 . S
C314 C315 1.345 . S
C315 H307 0.950 . S
C315 C314 1.345 . S
C315 C316 1.424 . S
C316 H308 0.951 . S
C316 C315 1.424 . S
C316 C317 1.347 . S
C317 H309 0.951 . S
C317 C312 1.429 . S
C317 C316 1.347 . S
H318 C319 0.951 1_655 S
C319 H318 0.951 1_455 S
C319 C325 1.265 . S
H320 C325 0.950 . S
H321 C329 0.949 . S
H322 C330 0.950 . S
H323 C331 0.951 . S
H324 C332 0.951 . S
C325 C319 1.265 . S
C325 H320 0.950 . S
C325 C326 1.478 . S
C326 C325 1.478 . S
C326 C327 1.397 . S
C326 C343 1.394 1_455 S
C327 C326 1.397 . S
C327 C328 1.438 . S
C327 C332 1.429 . S
C328 C327 1.438 . S
C328 C329 1.428 . S
C328 C341 1.394 . S
C329 H321 0.949 . S
C329 C328 1.428 . S
C329 C330 1.345 . S
C330 H322 0.950 . S
C330 C329 1.345 . S
C330 C331 1.424 . S
C331 H323 0.951 . S
C331 C330 1.424 . S
C331 C332 1.347 . S
C332 H324 0.951 . S
C332 C327 1.429 . S
C332 C331 1.347 . S
H333 C334 0.951 . S
C334 H333 0.951 . S
C334 C340 1.265 1_455 S
H335 C340 0.950 . S
H336 C344 0.949 . S
H337 C345 0.950 . S
H338 C346 0.951 . S
H339 C347 0.951 . S
C340 C334 1.265 1_655 S
C340 H335 0.950 . S
C340 C341 1.478 1_655 S
C341 C328 1.394 . S
C341 C340 1.478 1_455 S
C341 C342 1.397 1_455 S
C342 C341 1.397 1_655 S
C342 C343 1.438 . S
C342 C347 1.429 . S
C343 C326 1.394 1_655 S
C343 C342 1.438 . S
C343 C344 1.428 . S
C344 H336 0.949 . S
C344 C343 1.428 . S
C344 C345 1.345 . S
C345 H337 0.950 . S
C345 C344 1.345 . S
C345 C346 1.424 . S
C346 H338 0.951 . S
C346 C345 1.424 . S
C346 C347 1.347 . S
C347 H339 0.951 . S
C347 C342 1.429 . S
C347 C346 1.347 . S
H348 C349 0.951 1_565 S
C349 H348 0.951 1_545 S
C349 C355 1.265 . S
H350 C355 0.950 . S
H351 C359 0.949 . S
H352 C360 0.950 . S
H353 C361 0.951 . S
H354 C362 0.951 . S
C355 C349 1.265 . S
C355 H350 0.950 . S
C355 C356 1.478 . S
C356 C355 1.478 . S
C356 C357 1.397 . S
C356 C373 1.394 . S
C357 C356 1.397 . S
C357 C358 1.438 . S
C357 C362 1.429 . S
C358 C357 1.438 . S
C358 C359 1.428 1_545 S
C358 C371 1.394 . S
C359 H351 0.949 . S
C359 C358 1.428 1_565 S
C359 C360 1.345 . S
C360 H352 0.950 . S
C360 C359 1.345 . S
C360 C361 1.424 . S
C361 H353 0.951 . S
C361 C360 1.424 . S
C361 C362 1.347 1_565 S
C362 H354 0.951 . S
C362 C357 1.429 . S
C362 C361 1.347 1_545 S
H363 C364 0.951 . S
C364 H363 0.951 . S
C364 C370 1.265 1_545 S
H365 C370 0.950 . S
H366 C374 0.949 . S
H367 C375 0.950 . S
H368 C376 0.951 . S
H369 C377 0.951 . S
C370 C364 1.265 1_565 S
C370 H365 0.950 . S
C370 C371 1.478 1_565 S
C371 C358 1.394 . S
C371 C370 1.478 1_545 S
C371 C372 1.397 . S
C372 C371 1.397 . S
C372 C373 1.438 . S
C372 C377 1.429 . S
C373 C356 1.394 . S
C373 C372 1.438 . S
C373 C374 1.428 . S
C374 H366 0.949 . S
C374 C373 1.428 . S
C374 C375 1.345 . S
C375 H367 0.950 . S
C375 C374 1.345 . S
C375 C376 1.424 . S
C376 H368 0.951 . S
C376 C375 1.424 . S
C376 C377 1.347 . S
C377 H369 0.951 . S
C377 C372 1.429 . S
C377 C376 1.347 . S
H378 C379 0.951 . S
C379 H378 0.951 . S
C379 C385 1.265 . S
H380 C385 0.950 . S
H381 C389 0.949 . S
H382 C390 0.950 . S
H383 C391 0.951 . S
H384 C392 0.951 . S
C385 C379 1.265 . S
C385 H380 0.950 . S
C385 C386 1.478 . S
C386 C385 1.478 . S
C386 C387 1.397 . S
C386 C403 1.394 . S
C387 C386 1.397 . S
C387 C388 1.438 . S
C387 C392 1.429 . S
C388 C387 1.438 . S
C388 C389 1.428 . S
C388 C401 1.394 . S
C389 H381 0.949 . S
C389 C388 1.428 . S
C389 C390 1.345 . S
C390 H382 0.950 . S
C390 C389 1.345 . S
C390 C391 1.424 . S
C391 H383 0.951 . S
C391 C390 1.424 . S
C391 C392 1.347 . S
C392 H384 0.951 . S
C392 C387 1.429 . S
C392 C391 1.347 . S
H393 C394 0.951 . S
C394 H393 0.951 . S
C394 C400 1.265 . S
H395 C400 0.950 . S
H396 C404 0.949 . S
H397 C405 0.950 . S
H398 C406 0.951 . S
H399 C407 0.951 . S
C400 C394 1.265 . S
C400 H395 0.950 . S
C400 C401 1.478 . S
C401 C388 1.394 . S
C401 C400 1.478 . S
C401 C402 1.397 . S
C402 C401 1.397 . S
C402 C403 1.438 . S
C402 C407 1.429 . S
C403 C386 1.394 . S
C403 C402 1.438 . S
C403 C404 1.428 . S
C404 H396 0.949 . S
C404 C403 1.428 . S
C404 C405 1.345 . S
C405 H397 0.950 . S
C405 C404 1.345 . S
C405 C406 1.424 . S
C406 H398 0.951 . S
C406 C405 1.424 . S
C406 C407 1.347 . S
C407 H399 0.951 . S
C407 C402 1.429 . S
C407 C406 1.347 . S
H408 C409 0.951 . S
C409 H408 0.951 . S
C409 C415 1.265 . S
H410 C415 0.950 . S
H411 C419 0.949 . S
H412 C420 0.950 . S
H413 C421 0.951 . S
H414 C422 0.951 . S
C415 C409 1.265 . S
C415 H410 0.950 . S
C415 C416 1.478 . S
C416 C415 1.478 . S
C416 C417 1.397 1_545 S
C416 C433 1.394 . S
C417 C416 1.397 1_565 S
C417 C418 1.438 . S
C417 C422 1.429 . S
C418 C417 1.438 . S
C418 C419 1.428 . S
C418 C431 1.394 1_565 S
C419 H411 0.949 . S
C419 C418 1.428 . S
C419 C420 1.345 . S
C420 H412 0.950 . S
C420 C419 1.345 . S
C420 C421 1.424 . S
C421 H413 0.951 . S
C421 C420 1.424 . S
C421 C422 1.347 . S
C422 H414 0.951 . S
C422 C417 1.429 . S
C422 C421 1.347 . S
H423 C424 0.951 . S
C424 H423 0.951 . S
C424 C430 1.265 . S
H425 C430 0.950 . S
H426 C434 0.949 . S
H427 C435 0.950 . S
H428 C436 0.951 . S
H429 C437 0.951 . S
C430 C424 1.265 . S
C430 H425 0.950 . S
C430 C431 1.478 . S
C431 C418 1.394 1_545 S
C431 C430 1.478 . S
C431 C432 1.397 . S
C432 C431 1.397 . S
C432 C433 1.438 . S
C432 C437 1.429 . S
C433 C416 1.394 . S
C433 C432 1.438 . S
C433 C434 1.428 . S
C434 H426 0.949 . S
C434 C433 1.428 . S
C434 C435 1.345 . S
C435 H427 0.950 . S
C435 C434 1.345 . S
C435 C436 1.424 . S
C436 H428 0.951 . S
C436 C435 1.424 . S
C436 C437 1.347 . S
C437 H429 0.951 . S
C437 C432 1.429 . S
C437 C436 1.347 . S
H438 C439 0.951 . S
C439 H438 0.951 . S
C439 C445 1.265 . S
H440 C445 0.950 . S
H441 C449 0.949 . S
H442 C450 0.950 . S
H443 C451 0.951 . S
H444 C452 0.951 . S
C445 C439 1.265 . S
C445 H440 0.950 . S
C445 C446 1.478 1_554 S
C446 C445 1.478 1_556 S
C446 C447 1.397 . S
C446 C463 1.394 . S
C447 C446 1.397 . S
C447 C448 1.438 . S
C447 C452 1.429 . S
C448 C447 1.438 . S
C448 C449 1.428 . S
C448 C461 1.394 . S
C449 H441 0.949 . S
C449 C448 1.428 . S
C449 C450 1.345 . S
C450 H442 0.950 . S
C450 C449 1.345 . S
C450 C451 1.424 . S
C451 H443 0.951 . S
C451 C450 1.424 . S
C451 C452 1.347 . S
C452 H444 0.951 . S
C452 C447 1.429 . S
C452 C451 1.347 . S
H453 C454 0.951 . S
C454 H453 0.951 . S
C454 C460 1.265 . S
H455 C460 0.950 . S
H456 C464 0.949 . S
H457 C465 0.950 . S
H458 C466 0.951 . S
H459 C467 0.951 . S
C460 C454 1.265 . S
C460 H455 0.950 . S
C460 C461 1.478 . S
C461 C448 1.394 . S
C461 C460 1.478 . S
C461 C462 1.397 . S
C462 C461 1.397 . S
C462 C463 1.438 . S
C462 C467 1.429 . S
C463 C446 1.394 . S
C463 C462 1.438 . S
C463 C464 1.428 1_556 S
C464 H456 0.949 . S
C464 C463 1.428 1_554 S
C464 C465 1.345 . S
C465 H457 0.950 . S
C465 C464 1.345 . S
C465 C466 1.424 . S
C466 H458 0.951 . S
C466 C465 1.424 . S
C466 C467 1.347 1_554 S
C467 H459 0.951 . S
C467 C462 1.429 . S
C467 C466 1.347 1_556 S
H468 C469 0.951 . S
C469 H468 0.951 . S
C469 C475 1.265 1_455 S
H470 C475 0.950 . S
H471 C479 0.949 . S
H472 C480 0.950 . S
H473 C481 0.951 . S
H474 C482 0.951 . S
C475 C469 1.265 1_655 S
C475 H470 0.950 . S
C475 C476 1.478 1_655 S
C476 C475 1.478 1_455 S
C476 C477 1.397 1_455 S
C476 C493 1.394 . S
C477 C476 1.397 1_655 S
C477 C478 1.438 1_655 S
C477 C482 1.429 . S
C478 C477 1.438 1_455 S
C478 C479 1.428 . S
C478 C491 1.394 . S
C479 H471 0.949 . S
C479 C478 1.428 . S
C479 C480 1.345 1_455 S
C480 H472 0.950 . S
C480 C479 1.345 1_655 S
C480 C481 1.424 . S
C481 H473 0.951 . S
C481 C480 1.424 . S
C481 C482 1.347 . S
C482 H474 0.951 . S
C482 C477 1.429 . S
C482 C481 1.347 . S
H483 C484 0.951 1_655 S
C484 H483 0.951 1_455 S
C484 C490 1.265 . S
H485 C490 0.950 . S
H486 C494 0.949 . S
H487 C495 0.950 . S
H488 C496 0.951 . S
H489 C497 0.951 . S
C490 C484 1.265 . S
C490 H485 0.950 . S
C490 C491 1.478 . S
C491 C478 1.394 . S
C491 C490 1.478 . S
C491 C492 1.397 . S
C492 C491 1.397 . S
C492 C493 1.438 . S
C492 C497 1.429 . S
C493 C476 1.394 . S
C493 C492 1.438 . S
C493 C494 1.428 . S
C494 H486 0.949 . S
C494 C493 1.428 . S
C494 C495 1.345 . S
C495 H487 0.950 . S
C495 C494 1.345 . S
C495 C496 1.424 . S
C496 H488 0.951 . S
C496 C495 1.424 . S
C496 C497 1.347 . S
C497 H489 0.951 . S
C497 C492 1.429 . S
C497 C496 1.347 . S
H498 C499 0.951 . S
C499 H498 0.951 . S
C499 C505 1.265 . S
H500 C505 0.949 1_565 S
H501 C509 0.949 . S
H502 C510 0.950 . S
H503 C511 0.951 . S
H504 C512 0.951 . S
C505 C499 1.265 . S
C505 H500 0.949 1_545 S
C505 C506 1.478 . S
C506 C505 1.478 . S
C506 C507 1.397 1_545 S
C506 C523 1.394 . S
C507 C506 1.397 1_565 S
C507 C508 1.438 . S
C507 C512 1.429 . S
C508 C507 1.438 . S
C508 C509 1.428 . S
C508 C521 1.394 1_565 S
C509 H501 0.949 . S
C509 C508 1.428 . S
C509 C510 1.345 . S
C510 H502 0.950 . S
C510 C509 1.345 . S
C510 C511 1.424 . S
C511 H503 0.951 . S
C511 C510 1.424 . S
C511 C512 1.347 . S
C512 H504 0.951 . S
C512 C507 1.429 . S
C512 C511 1.347 . S
H513 C514 0.951 1_565 S
C514 H513 0.951 1_545 S
C514 C520 1.265 . S
H515 C520 0.950 . S
H516 C524 0.949 . S
H517 C525 0.950 . S
H518 C526 0.951 . S
H519 C527 0.951 . S
C520 C514 1.265 . S
C520 H515 0.950 . S
C520 C521 1.478 . S
C521 C508 1.394 1_545 S
C521 C520 1.478 . S
C521 C522 1.397 . S
C522 C521 1.397 . S
C522 C523 1.438 . S
C522 C527 1.429 . S
C523 C506 1.394 . S
C523 C522 1.438 . S
C523 C524 1.428 . S
C524 H516 0.949 . S
C524 C523 1.428 . S
C524 C525 1.345 . S
C525 H517 0.950 . S
C525 C524 1.345 . S
C525 C526 1.424 . S
C526 H518 0.951 . S
C526 C525 1.424 . S
C526 C527 1.347 . S
C527 H519 0.951 . S
C527 C522 1.429 . S
C527 C526 1.347 . S
H528 C529 0.951 1_556 S
C529 H528 0.951 1_554 S
C529 C535 1.265 . S
H530 C535 0.950 . S
H531 C539 0.949 . S
H532 C540 0.950 . S
H533 C541 0.951 . S
H534 C542 0.951 . S
C535 C529 1.265 . S
C535 H530 0.950 . S
C535 C536 1.478 1_554 S
C536 C535 1.478 1_556 S
C536 C537 1.397 . S
C536 C553 1.394 . S
C537 C536 1.397 . S
C537 C538 1.438 . S
C537 C542 1.429 1_556 S
C538 C537 1.438 . S
C538 C539 1.428 . S
C538 C551 1.394 . S
C539 H531 0.949 . S
C539 C538 1.428 . S
C539 C540 1.345 1_556 S
C540 H532 0.950 . S
C540 C539 1.345 1_554 S
C540 C541 1.424 . S
C541 H533 0.951 . S
C541 C540 1.424 . S
C541 C542 1.347 . S
C542 H534 0.951 . S
C542 C537 1.429 1_554 S
C542 C541 1.347 . S
H543 C544 0.951 . S
C544 H543 0.951 . S
C544 C550 1.265 . S
H545 C550 0.950 . S
H546 C554 0.949 . S
H547 C555 0.950 . S
H548 C556 0.951 . S
H549 C557 0.951 . S
C550 C544 1.265 . S
C550 H545 0.950 . S
C550 C551 1.478 . S
C551 C538 1.394 . S
C551 C550 1.478 . S
C551 C552 1.397 . S
C552 C551 1.397 . S
C552 C553 1.438 . S
C552 C557 1.429 . S
C553 C536 1.394 . S
C553 C552 1.438 . S
C553 C554 1.428 . S
C554 H546 0.949 . S
C554 C553 1.428 . S
C554 C555 1.345 . S
C555 H547 0.950 . S
C555 C554 1.345 . S
C555 C556 1.424 . S
C556 H548 0.951 . S
C556 C555 1.424 . S
C556 C557 1.347 . S
C557 H549 0.951 . S
C557 C552 1.429 . S
C557 C556 1.347 . S
H558 C559 0.951 1_655 S
C559 H558 0.951 1_455 S
C559 C565 1.265 . S
H560 C565 0.950 . S
H561 C569 0.949 . S
H562 C570 0.950 . S
H563 C571 0.951 . S
H564 C572 0.951 . S
C565 C559 1.265 . S
C565 H560 0.950 . S
C565 C566 1.478 . S
C566 C565 1.478 . S
C566 C567 1.397 . S
C566 C583 1.394 1_455 S
C567 C566 1.397 . S
C567 C568 1.438 . S
C567 C572 1.429 . S
C568 C567 1.438 . S
C568 C569 1.428 . S
C568 C581 1.394 . S
C569 H561 0.949 . S
C569 C568 1.428 . S
C569 C570 1.345 . S
C570 H562 0.950 . S
C570 C569 1.345 . S
C570 C571 1.424 . S
C571 H563 0.951 . S
C571 C570 1.424 . S
C571 C572 1.347 . S
C572 H564 0.951 . S
C572 C567 1.429 . S
C572 C571 1.347 . S
H573 C574 0.951 . S
C574 H573 0.951 . S
C574 C580 1.265 1_455 S
H575 C580 0.950 . S
H576 C584 0.949 . S
H577 C585 0.950 . S
H578 C586 0.951 . S
H579 C587 0.951 . S
C580 C574 1.265 1_655 S
C580 H575 0.950 . S
C580 C581 1.478 1_655 S
C581 C568 1.394 . S
C581 C580 1.478 1_455 S
C581 C582 1.397 1_455 S
C582 C581 1.397 1_655 S
C582 C583 1.438 . S
C582 C587 1.429 . S
C583 C566 1.394 1_655 S
C583 C582 1.438 . S
C583 C584 1.428 . S
C584 H576 0.949 . S
C584 C583 1.428 . S
C584 C585 1.345 . S
C585 H577 0.950 . S
C585 C584 1.345 . S
C585 C586 1.424 . S
C586 H578 0.951 . S
C586 C585 1.424 . S
C586 C587 1.347 . S
C587 H579 0.951 . S
C587 C582 1.429 . S
C587 C586 1.347 . S
C244 C95 1.385 . S
C229 C3 1.414 . S
C259 C21 1.421 . S
C274 C139 1.404 . S
C289 C37 1.410 . S
C304 C201 1.426 . S
C319 C8 1.398 . S
C334 C77 1.416 . S
C364 C157 1.388 . S
C349 C23 1.380 . S
C379 C35 1.411 . S
C394 C219 1.396 . S
C424 C133 1.540 . S
C409 C31 1.686 . S
C439 C7 1.728 . S
C454 C195 1.646 . S
C484 C71 1.584 . S
C469 C17 1.699 . S
C514 C151 1.648 . S
C499 C36 1.704 . S
C544 C213 1.670 . S
C529 C9 1.721 . S
C559 C22 1.723 . S
C574 C89 1.655 . S
