# Generated by pormake.
# Topology anh, (6,3)-cn, num edge types: 1
# Building blocks:
#     Node 0, Type 0, BuildingBlock: CUKXOW_clean_sbu_0, # of connection points: 6
#     Node 1, Type 0, BuildingBlock: CUKXOW_clean_sbu_0, # of connection points: 6
#     Node 2, Type 0, BuildingBlock: CUKXOW_clean_sbu_0, # of connection points: 6
#     Node 3, Type 1, BuildingBlock: PAMTOO_clean_linker_0, # of connection points: 3
#     Node 4, Type 1, BuildingBlock: PAMTOO_clean_linker_0, # of connection points: 3
#     Node 5, Type 1, BuildingBlock: PAMTOO_clean_linker_0, # of connection points: 3
#     Node 6, Type 1, BuildingBlock: PAMTOO_clean_linker_0, # of connection points: 3
#     Node 7, Type 1, BuildingBlock: PAMTOO_clean_linker_0, # of connection points: 3
#     Node 8, Type 1, BuildingBlock: PAMTOO_clean_linker_0, # of connection points: 3
#     Edge 9, Type (0, 1), BuildingBlock: XUDNAN_clean_linker_2, # of connection points: 2
#     Edge 10, Type (0, 1), BuildingBlock: XUDNAN_clean_linker_2, # of connection points: 2
#     Edge 11, Type (0, 1), BuildingBlock: XUDNAN_clean_linker_2, # of connection points: 2
#     Edge 12, Type (0, 1), BuildingBlock: XUDNAN_clean_linker_2, # of connection points: 2
#     Edge 13, Type (0, 1), BuildingBlock: XUDNAN_clean_linker_2, # of connection points: 2
#     Edge 14, Type (0, 1), BuildingBlock: XUDNAN_clean_linker_2, # of connection points: 2
#     Edge 15, Type (0, 1), BuildingBlock: XUDNAN_clean_linker_2, # of connection points: 2
#     Edge 16, Type (0, 1), BuildingBlock: XUDNAN_clean_linker_2, # of connection points: 2
#     Edge 17, Type (0, 1), BuildingBlock: XUDNAN_clean_linker_2, # of connection points: 2
#     Edge 18, Type (0, 1), BuildingBlock: XUDNAN_clean_linker_2, # of connection points: 2
#     Edge 19, Type (0, 1), BuildingBlock: XUDNAN_clean_linker_2, # of connection points: 2
#     Edge 20, Type (0, 1), BuildingBlock: XUDNAN_clean_linker_2, # of connection points: 2
#     Edge 21, Type (0, 1), BuildingBlock: XUDNAN_clean_linker_2, # of connection points: 2
#     Edge 22, Type (0, 1), BuildingBlock: XUDNAN_clean_linker_2, # of connection points: 2
#     Edge 23, Type (0, 1), BuildingBlock: XUDNAN_clean_linker_2, # of connection points: 2
#     Edge 24, Type (0, 1), BuildingBlock: XUDNAN_clean_linker_2, # of connection points: 2
#     Edge 25, Type (0, 1), BuildingBlock: XUDNAN_clean_linker_2, # of connection points: 2
#     Edge 26, Type (0, 1), BuildingBlock: XUDNAN_clean_linker_2, # of connection points: 2
# Relax obj value: 0.107
# Max RMSD: 0.156
# Mean RMSD: 0.125
data_MOF--net-anh--node1-CUKXOW_clean_sbu_0--node2-PAMTOO_clean_linker_0--edge1-XUDNAN_clean_linker_2
_symmetry_space_group_name_H-M    P1
_symmetry_Int_Tables_number       1
_symmetry_cell_setting            triclinic
loop_
_symmetry_equiv_pos_as_xyz
'x, y, z'
_cell_length_a     28.82863
_cell_length_b     28.149433
_cell_length_c     47.885519
_cell_angle_alpha  91.736491
_cell_angle_beta   91.567632
_cell_angle_gamma 113.30647
loop_
_atom_site_label
_atom_site_type_symbol
_atom_site_fract_x
_atom_site_fract_y
_atom_site_fract_z
_atom_type_partial_charge
Tb0 Tb 0.12526 0.57848 0.15975 0.0
C1 C 0.09534 0.53759 0.21915 0.0
Tb2 Tb 0.05962 0.46573 0.16437 0.0
O3 O 0.06448 0.60189 0.17146 0.0
O4 O 0.04677 0.53094 0.15032 0.0
O5 O 0.13088 0.57179 0.20469 0.0
C6 C 0.97462 0.3806 0.16693 0.0
O7 O 0.05963 0.49548 0.20708 0.0
C8 C 0.15779 0.48629 0.16319 0.0
C9 C 0.09615 0.50438 0.10488 0.0
O10 O 1.01657 0.389 0.18109 0.0
O11 O 0.98111 0.41964 0.15164 0.0
O12 O 0.12212 0.44197 0.155 0.0
O13 O 0.13704 0.51376 0.17446 0.0
O14 O 0.06778 0.46518 0.11963 0.0
O15 O 0.12124 0.55194 0.11592 0.0
C16 C 0.20372 0.66894 0.15455 0.0
O17 O 0.20263 0.62375 0.1473 0.0
O18 O 0.16024 0.66322 0.16403 0.0
C19 C 1.02783 0.55888 0.16301 0.0
Tb20 Tb 0.54712 0.98403 0.50194 0.0
C21 C 0.5889 0.01641 0.44202 0.0
Tb22 Tb 0.66322 0.05506 0.49608 0.0
O23 O 0.52041 0.04787 0.50725 0.0
O24 O 0.5945 0.06152 0.50117 0.0
O25 O 0.55301 0.98234 0.45664 0.0
C26 C 0.75303 0.12823 0.4862 0.0
O27 O 0.63195 0.05134 0.45356 0.0
C28 C 0.63934 0.95616 0.50367 0.0
C29 C 0.62008 0.03241 0.55597 0.0
O30 O 0.73517 0.08121 0.47544 0.0
O31 O 0.72024 0.13415 0.50249 0.0
O32 O 0.68263 0.99242 0.51168 0.0
O33 O 0.61405 0.97586 0.49004 0.0
O34 O 0.65557 0.06483 0.54059 0.0
O35 O 0.57798 0.99503 0.54509 0.0
C36 C 0.46633 0.8975 0.5092 0.0
O37 O 0.51042 0.91029 0.52168 0.0
O38 O 0.46755 0.93361 0.49252 0.0
C39 C 0.5652 0.08407 0.50444 0.0
Tb40 Tb 0.51273 0.51969 0.83793 0.0
C41 C 0.5711 0.53903 0.89637 0.0
Tb42 Tb 0.62844 0.57234 0.84081 0.0
O43 O 0.51701 0.45678 0.81221 0.0
O44 O 0.57373 0.49495 0.84264 0.0
O45 O 0.5289 0.53465 0.88269 0.0
C46 C 0.72489 0.5872 0.83999 0.0
O47 O 0.61398 0.5483 0.88369 0.0
C48 C 0.59093 0.64372 0.84453 0.0
C49 C 0.56696 0.56005 0.78312 0.0
O50 O 0.70616 0.6108 0.8571 0.0
O51 O 0.68928 0.55483 0.8234 0.0
O52 O 0.63889 0.65394 0.84511 0.0
O53 O 0.56752 0.59541 0.84195 0.0
O54 O 0.61056 0.56533 0.79568 0.0
O55 O 0.52521 0.55095 0.79686 0.0
C56 C 0.4136 0.47862 0.84351 0.0
O57 O 0.43762 0.51892 0.82915 0.0
O58 O 0.44539 0.46245 0.85514 0.0
C59 C 0.56026 0.46109 0.82282 0.0
H60 H 0.67493 0.09987 0.24373 0.0
H61 H 0.5538 0.95111 0.22326 0.0
H62 H 0.65243 0.0326 0.15997 0.0
H63 H 0.54998 0.94658 0.12986 0.0
C64 C 0.53922 0.95451 0.15106 0.0
O65 O 0.57339 0.94998 0.17052 0.0
H66 H 0.54091 0.99478 0.15114 0.0
C67 C 0.65464 0.06803 0.2289 0.0
C68 C 0.66895 0.07157 0.20095 0.0
C69 C 0.61306 0.02472 0.23746 0.0
C70 C 0.5856 0.98515 0.21739 0.0
C71 C 0.59981 0.9883 0.1896 0.0
C72 C 0.64172 0.03093 0.18155 0.0
H73 H 0.60262 0.629 0.58137 0.0
H74 H 0.60072 0.47586 0.57241 0.0
H75 H 0.61991 0.56823 0.50036 0.0
H76 H 0.56945 0.44797 0.48462 0.0
C77 C 0.57552 0.43862 0.50643 0.0
O78 O 0.61637 0.47946 0.51887 0.0
H79 H 0.54047 0.43254 0.51775 0.0
C80 C 0.60619 0.59856 0.5683 0.0
C81 C 0.61231 0.60478 0.53948 0.0
C82 C 0.60137 0.5521 0.58018 0.0
C83 C 0.60439 0.51193 0.56334 0.0
C84 C 0.61166 0.51791 0.53466 0.0
C85 C 0.61493 0.56405 0.52263 0.0
H86 H 1.02577 0.52539 0.91325 0.0
H87 H 0.10692 0.4358 0.88293 0.0
H88 H 1.01591 0.4803 0.82591 0.0
H89 H 0.03867 0.36905 0.80417 0.0
C90 C 0.05737 0.37905 0.82538 0.0
O91 O 0.07491 0.43188 0.83055 0.0
H92 H 1.0291 0.35726 0.8407 0.0
C93 C 0.03728 0.507 0.89614 0.0
C94 C 1.018 0.50716 0.86894 0.0
C95 C 0.06903 0.48095 0.90163 0.0
C96 C 0.08183 0.45543 0.87933 0.0
C97 C 0.06162 0.45462 0.85225 0.0
C98 C 1.02997 0.48028 0.84714 0.0
H99 H 1.02907 0.43639 0.41286 0.0
H100 H 0.1563 0.57581 0.44057 0.0
H101 H 0.07909 0.46189 0.49931 0.0
H102 H 0.12763 0.57615 0.52778 0.0
C103 C 0.14526 0.59132 0.5078 0.0
O104 O 0.15252 0.55238 0.4928 0.0
H105 H 0.1192 0.60501 0.49615 0.0
C106 C 0.05531 0.46065 0.42915 0.0
C107 C 0.05048 0.44324 0.45644 0.0
C108 C 0.09329 0.50843 0.42283 0.0
C109 C 0.12576 0.53939 0.44472 0.0
C110 C 0.11995 0.52301 0.47224 0.0
C111 C 0.08229 0.47502 0.47813 0.0
H112 H 0.60018 0.94593 0.76158 0.0
H113 H 0.60622 0.10046 0.76521 0.0
H114 H 0.56295 1.00893 0.83721 0.0
H115 H 0.65486 0.14399 0.82231 0.0
C116 C 0.61752 0.14151 0.82938 0.0
O117 O 0.57833 0.09913 0.81666 0.0
H118 H 0.61692 0.13675 0.85234 0.0
C119 C 0.59471 0.97679 0.7732 0.0
C120 C 0.57997 0.97052 0.80119 0.0
C121 C 0.60439 0.02361 0.76021 0.0
C122 C 0.59937 0.06459 0.77527 0.0
C123 C 0.58503 0.05953 0.80301 0.0
C124 C 0.57524 0.01261 0.81593 0.0
H125 H 0.68313 0.50608 0.0951 0.0
H126 H 0.53928 0.51314 0.10896 0.0
H127 H 0.63747 0.52115 0.17921 0.0
H128 H 0.50666 0.47144 0.19059 0.0
C129 C 0.50292 0.4825 0.16884 0.0
O130 O 0.54822 0.52259 0.16243 0.0
H131 H 0.49585 0.44766 0.15494 0.0
C132 C 0.65578 0.50835 0.10954 0.0
C133 C 0.66755 0.5139 0.13863 0.0
C134 C 0.60928 0.50683 0.09868 0.0
C135 C 0.57432 0.51204 0.11703 0.0
C136 C 0.58351 0.51626 0.14587 0.0
C137 C 0.6302 0.51712 0.15679 0.0
H138 H 0.20566 0.42302 0.14614 0.0
H139 H 0.23627 0.57424 0.18471 0.0
H140 H 0.32773 0.59255 0.18777 0.0
H141 H 0.29673 0.39682 0.1888 0.0
H142 H 0.31399 0.36311 0.16104 0.0
H143 H 0.25164 0.36344 0.16065 0.0
H144 H 0.26475 0.40064 0.11134 0.0
H145 H 0.32728 0.40067 0.11164 0.0
H146 H 0.31863 0.45964 0.10576 0.0
H147 H 0.41773 0.59281 0.18803 0.0
H148 H 0.49483 0.57396 0.1865 0.0
H149 H 0.40552 0.4222 0.14854 0.0
C150 C 0.23161 0.46015 0.15509 0.0
C151 C 0.2134 0.49746 0.16487 0.0
C152 C 0.24894 0.54524 0.17671 0.0
C153 C 0.30117 0.55593 0.17861 0.0
C154 C 0.31786 0.51832 0.1688 0.0
C155 C 0.28393 0.47124 0.15737 0.0
C156 C 0.31119 0.43658 0.14928 0.0
C157 C 0.29226 0.38706 0.16594 0.0
C158 C 0.30509 0.42363 0.11762 0.0
C159 C 0.36571 0.4713 0.15788 0.0
C160 C 0.36894 0.51844 0.16902 0.0
C161 C 0.41541 0.55615 0.17907 0.0
C162 C 0.45926 0.54527 0.17797 0.0
C163 C 0.45696 0.4972 0.16667 0.0
C164 C 0.40915 0.45991 0.1566 0.0
H165 H 0.79347 0.22885 0.50657 0.0
H166 H 0.82407 0.11835 0.45308 0.0
H167 H 0.90682 0.18611 0.44265 0.0
H168 H 0.84682 0.33613 0.46383 0.0
H169 H 0.87298 0.3832 0.49248 0.0
H170 H 0.81763 0.32525 0.49718 0.0
H171 H 0.86312 0.30345 0.53922 0.0
H172 H 0.91875 0.3613 0.53457 0.0
H173 H 0.92326 0.29924 0.53461 0.0
H174 H 0.98287 0.26604 0.43564 0.0
H175 H 0.04818 0.35444 0.43204 0.0
H176 H 0.97 0.41361 0.49074 0.0
C177 C 0.81791 0.21892 0.49289 0.0
C178 C 0.80273 0.16851 0.48065 0.0
C179 C 0.83524 0.15682 0.46267 0.0
C180 C 0.88229 0.19495 0.45671 0.0
C181 C 0.89618 0.24438 0.46902 0.0
C182 C 0.86508 0.25655 0.48676 0.0
C183 C 0.88827 0.31329 0.49623 0.0
C184 C 0.85441 0.34109 0.48686 0.0
C185 C 0.89899 0.31968 0.52805 0.0
C186 C 0.93689 0.33129 0.48066 0.0
C187 C 0.94069 0.29074 0.46521 0.0
C188 C 0.98069 0.29798 0.44788 0.0
C189 C 1.01747 0.34816 0.44595 0.0
C190 C 1.01406 0.39029 0.46132 0.0
C191 C 0.97374 0.38169 0.47923 0.0
H192 H 0.54435 0.6753 0.80309 0.0
H193 H 0.5988 0.70614 0.88956 0.0
H194 H 0.58977 0.78982 0.8898 0.0
H195 H 0.61198 0.795 0.78181 0.0
H196 H 0.56581 0.80014 0.75729 0.0
H197 H 0.56386 0.73747 0.76537 0.0
H198 H 0.47137 0.70851 0.78023 0.0
H199 H 0.47253 0.77089 0.77162 0.0
H200 H 0.45569 0.74714 0.80602 0.0
H201 H 0.5918 0.87604 0.87811 0.0
H202 H 0.59998 0.95678 0.85629 0.0
H203 H 0.5414 0.87077 0.77727 0.0
C204 C 0.5514 0.69849 0.82244 0.0
C205 C 0.57038 0.68376 0.84666 0.0
C206 C 0.58254 0.71625 0.87117 0.0
C207 C 0.57778 0.76392 0.87141 0.0
C208 C 0.56101 0.77864 0.84688 0.0
C209 C 0.54719 0.74658 0.82291 0.0
C210 C 0.5366 0.77441 0.79844 0.0
C211 C 0.57166 0.77689 0.77433 0.0
C212 C 0.48071 0.74871 0.7885 0.0
C213 C 0.54899 0.82765 0.81207 0.0
C214 C 0.56234 0.82905 0.84008 0.0
C215 C 0.57996 0.87509 0.85638 0.0
C216 C 0.5843 0.92093 0.84375 0.0
C217 C 0.57108 0.92074 0.81497 0.0
C218 C 0.55225 0.87289 0.79923 0.0
H219 H 0.94124 0.49427 0.13011 0.0
H220 H 0.99026 0.6058 0.20053 0.0
H221 H 0.90374 0.60162 0.20396 0.0
H222 H 0.85724 0.54418 0.09843 0.0
H223 H 0.80918 0.48224 0.087 0.0
H224 H 0.87408 0.48993 0.0912 0.0
H225 H 0.84781 0.41457 0.12478 0.0
H226 H 0.78274 0.40657 0.12095 0.0
H227 H 0.81336 0.41702 0.15525 0.0
H228 H 0.8128 0.59031 0.1985 0.0
H229 H 0.72502 0.57375 0.18379 0.0
H230 H 0.73099 0.46837 0.11712 0.0
C231 C 0.93345 0.51698 0.14655 0.0
C232 C 0.97307 0.55025 0.16521 0.0
C233 C 0.96103 0.58002 0.18601 0.0
C234 C 0.91172 0.57787 0.18819 0.0
C235 C 0.87381 0.54572 0.16936 0.0
C236 C 0.88384 0.51563 0.14893 0.0
C237 C 0.83611 0.48641 0.13059 0.0
C238 C 0.84468 0.50161 0.09999 0.0
C239 C 0.81898 0.42765 0.13305 0.0
C240 C 0.79842 0.50561 0.1436 0.0
C241 C 0.821 0.53942 0.16611 0.0
C242 C 0.7946 0.56342 0.18104 0.0
C243 C 0.74421 0.55337 0.1726 0.0
C244 C 0.71983 0.51958 0.14923 0.0
C245 C 0.7478 0.49491 0.1349 0.0
H246 H 0.37443 0.86047 0.48053 0.0
H247 H 0.45884 0.82606 0.54767 0.0
H248 H 0.38509 0.74525 0.55553 0.0
H249 H 0.25287 0.81112 0.5119 0.0
H250 H 0.21798 0.78416 0.4794 0.0
H251 H 0.27699 0.83992 0.47942 0.0
H252 H 0.31182 0.79133 0.44448 0.0
H253 H 0.25288 0.73548 0.4443 0.0
H254 H 0.31135 0.72922 0.45306 0.0
H255 H 0.30258 0.66817 0.55598 0.0
H256 H 0.21721 0.59839 0.54788 0.0
H257 H 0.18718 0.68162 0.4798 0.0
C258 C 0.3772 0.83594 0.49693 0.0
C259 C 0.42206 0.84943 0.51362 0.0
C260 C 0.42464 0.81634 0.53472 0.0
C261 C 0.38299 0.77045 0.53936 0.0
C262 C 0.3392 0.75817 0.52259 0.0
C263 C 0.33606 0.78975 0.5017 0.0
C264 C 0.28499 0.76684 0.48617 0.0
C265 C 0.25654 0.80265 0.48943 0.0
C266 C 0.29062 0.75501 0.45517 0.0
C267 C 0.25992 0.71757 0.50165 0.0
C268 C 0.29177 0.71343 0.52266 0.0
C269 C 0.27719 0.67108 0.53968 0.0
C270 C 0.22878 0.63183 0.53504 0.0
C271 C 0.19564 0.63536 0.51364 0.0
C272 C 0.2116 0.6786 0.49664 0.0
H273 H 0.6071 0.41956 0.86015 0.0
H274 H 0.55524 0.41074 0.77358 0.0
H275 H 0.57216 0.33242 0.76493 0.0
H276 H 0.70606 0.36453 0.84716 0.0
H277 H 0.69209 0.32939 0.87882 0.0
H278 H 0.68518 0.39017 0.87697 0.0
H279 H 0.59239 0.34503 0.89143 0.0
H280 H 0.59866 0.28403 0.89275 0.0
H281 H 0.54934 0.28961 0.87086 0.0
H282 H 0.58279 0.24986 0.76684 0.0
H283 H 0.59004 0.16876 0.77865 0.0
H284 H 0.63417 0.22752 0.86429 0.0
C285 C 0.60129 0.40212 0.83919 0.0
C286 C 0.5805 0.4213 0.81737 0.0
C287 C 0.57159 0.39669 0.79042 0.0
C288 C 0.58109 0.35225 0.78532 0.0
C289 C 0.5995 0.33279 0.80744 0.0
C290 C 0.61014 0.35708 0.83379 0.0
C291 C 0.62514 0.32503 0.85436 0.0
C292 C 0.6804 0.354 0.86495 0.0
C293 C 0.58922 0.31004 0.87878 0.0
C294 C 0.61886 0.27802 0.83572 0.0
C295 C 0.60487 0.28392 0.80866 0.0
C296 C 0.59441 0.24502 0.78787 0.0
C297 C 0.59842 0.19881 0.79483 0.0
C298 C 0.61212 0.1913 0.82245 0.0
C299 C 0.62317 0.23193 0.84305 0.0
H300 H 0.68479 0.90913 0.53728 0.0
H301 H 0.56536 0.87701 0.47348 0.0
H302 H 0.54824 0.78358 0.47374 0.0
H303 H 0.73156 0.81553 0.51341 0.0
H304 H 0.74268 0.79763 0.54799 0.0
H305 H 0.74586 0.86186 0.54255 0.0
H306 H 0.67882 0.85001 0.57966 0.0
H307 H 0.6759 0.78601 0.58547 0.0
H308 H 0.61904 0.79507 0.57615 0.0
H309 H 0.54692 0.69364 0.4798 0.0
H310 H 0.55377 0.6135 0.4956 0.0
H311 H 0.67124 0.70457 0.5569 0.0
C312 C 0.65499 0.88234 0.52341 0.0
C313 C 0.62666 0.90012 0.50518 0.0
C314 C 0.58756 0.86403 0.48756 0.0
C315 C 0.57775 0.811 0.48747 0.0
C316 C 0.60702 0.79473 0.50537 0.0
C317 C 0.64425 0.82928 0.52337 0.0
C318 C 0.66893 0.80174 0.54136 0.0
C319 C 0.72562 0.82031 0.53599 0.0
C320 C 0.66012 0.80861 0.5725 0.0
C321 C 0.64012 0.74634 0.53056 0.0
C322 C 0.60497 0.74307 0.50957 0.0
C323 C 0.57419 0.69576 0.49629 0.0
C324 C 0.57861 0.65054 0.5052 0.0
C325 C 0.61306 0.65298 0.52738 0.0
C326 C 0.64456 0.70165 0.53989 0.0
H327 H 0.76139 0.5208 0.81677 0.0
H328 H 0.80471 0.66248 0.86807 0.0
H329 H 0.89017 0.66346 0.87615 0.0
H330 H 0.8166 0.46252 0.86 0.0
H331 H 0.83682 0.42988 0.833 0.0
H332 H 0.78314 0.44581 0.8264 0.0
H333 H 0.82516 0.4965 0.78328 0.0
H334 H 0.87901 0.48031 0.78952 0.0
H335 H 0.88775 0.54709 0.78717 0.0
H336 H 0.96595 0.64296 0.88355 0.0
H337 H 1.02689 0.60205 0.89013 0.0
H338 H 0.93143 0.47143 0.83596 0.0
C339 C 0.7895 0.5529 0.82891 0.0
C340 C 0.7772 0.59188 0.84158 0.0
C341 C 0.81402 0.63254 0.85806 0.0
C342 C 0.86253 0.6335 0.86265 0.0
C343 C 0.87316 0.59347 0.8506 0.0
C344 C 0.83773 0.554 0.83398 0.0
C345 C 0.85627 0.51225 0.8264 0.0
C346 C 0.82114 0.45955 0.83711 0.0
C347 C 0.86242 0.50887 0.79471 0.0
C348 C 0.90691 0.53352 0.84215 0.0
C349 C 0.9164 0.58081 0.85555 0.0
C350 C 0.95935 0.6063 0.87285 0.0
C351 C 0.99341 0.58258 0.87667 0.0
C352 C 0.98383 0.53371 0.86348 0.0
C353 C 0.9403 0.50934 0.8458 0.0
H354 H 0.29603 0.68648 0.13329 0.0
H355 H 0.21374 0.76118 0.17909 0.0
H356 H 0.29135 0.84143 0.1847 0.0
H357 H 0.413 0.7439 0.17313 0.0
H358 H 0.45201 0.75174 0.1434 0.0
H359 H 0.38998 0.70021 0.14284 0.0
H360 H 0.36543 0.73318 0.0971 0.0
H361 H 0.42753 0.78452 0.09738 0.0
H362 H 0.37231 0.7996 0.09601 0.0
H363 H 0.37861 0.91243 0.1868 0.0
H364 H 0.46768 0.97216 0.18116 0.0
H365 H 0.49257 0.85236 0.13283 0.0
C366 C 0.29437 0.71992 0.1443 0.0
C367 C 0.24904 0.71785 0.15575 0.0
C368 C 0.24813 0.76219 0.17005 0.0
C369 C 0.29204 0.8078 0.17347 0.0
C370 C 0.33638 0.80846 0.16226 0.0
C371 C 0.33775 0.76593 0.14765 0.0
C372 C 0.39001 0.7772 0.13715 0.0
C373 C 0.41257 0.74112 0.1499 0.0
C374 C 0.38873 0.77341 0.105 0.0
C375 C 0.41788 0.83261 0.14827 0.0
C376 C 0.38634 0.84978 0.16287 0.0
C377 C 0.40355 0.8996 0.17521 0.0
C378 C 0.45404 0.93317 0.17195 0.0
C379 C 0.48636 0.91691 0.15622 0.0
C380 C 0.4683 0.8657 0.14474 0.0
H381 H 0.50819 0.13581 0.52249 0.0
H382 H 0.64964 0.15877 0.48448 0.0
H383 H 0.67007 0.25267 0.48286 0.0
H384 H 0.47924 0.22531 0.48201 0.0
H385 H 0.45195 0.24786 0.51023 0.0
H386 H 0.45014 0.18318 0.5098 0.0
H387 H 0.49469 0.20156 0.55906 0.0
H388 H 0.49661 0.26634 0.55965 0.0
H389 H 0.55416 0.25631 0.56497 0.0
H390 H 0.67266 0.34376 0.48332 0.0
H391 H 0.65779 0.42466 0.48639 0.0
H392 H 0.51456 0.34209 0.5241 0.0
C393 C 0.54366 0.16077 0.51408 0.0
C394 C 0.57801 0.14037 0.50417 0.0
C395 C 0.62371 0.17397 0.49298 0.0
C396 C 0.63531 0.22726 0.49175 0.0
C397 C 0.6007 0.24628 0.50177 0.0
C398 C 0.55581 0.21404 0.51277 0.0
C399 C 0.52448 0.24392 0.52148 0.0
C400 C 0.47345 0.22387 0.50488 0.0
C401 C 0.51707 0.24191 0.55317 0.0
C402 C 0.55842 0.29791 0.5134 0.0
C403 C 0.60227 0.29853 0.50211 0.0
C404 C 0.6387 0.34379 0.49239 0.0
C405 C 0.63004 0.38951 0.49424 0.0
C406 C 0.58552 0.38977 0.50588 0.0
C407 C 0.54931 0.34322 0.5155 0.0
H408 H 0.34496 0.48145 0.80445 0.0
H409 H 0.35948 0.4122 0.88205 0.0
H410 H 0.26664 0.36339 0.88128 0.0
H411 H 0.23619 0.50009 0.81838 0.0
H412 H 0.20932 0.48436 0.78318 0.0
H413 H 0.27664 0.50921 0.7892 0.0
H414 H 0.278 0.42858 0.76199 0.0
H415 H 0.21024 0.40297 0.75653 0.0
H416 H 0.23975 0.36471 0.77306 0.0
H417 H 0.17289 0.33425 0.87579 0.0
H418 H 0.08597 0.32814 0.86622 0.0
H419 H 0.13267 0.40736 0.78937 0.0
C420 C 0.32845 0.45577 0.82117 0.0
C421 C 0.35869 0.45073 0.84346 0.0
C422 C 0.3364 0.41652 0.86488 0.0
C423 C 0.28395 0.38839 0.86447 0.0
C424 C 0.25493 0.39396 0.84205 0.0
C425 C 0.27647 0.42647 0.82066 0.0
C426 C 0.23691 0.42804 0.79985 0.0
C427 C 0.23994 0.4837 0.79755 0.0
C428 C 0.24151 0.40467 0.77116 0.0
C429 C 0.18951 0.39366 0.81368 0.0
C430 C 0.2006 0.37382 0.83786 0.0
C431 C 0.16342 0.34781 0.85642 0.0
C432 C 0.11413 0.34415 0.85077 0.0
C433 C 0.10277 0.3659 0.82664 0.0
C434 C 0.14031 0.38853 0.80727 0.0
H435 H 0.94478 0.30356 0.2053 0.0
H436 H 0.89532 0.35536 0.13004 0.0
H437 H 0.81267 0.28192 0.13056 0.0
H438 H 0.88048 0.16534 0.18886 0.0
H439 H 0.86295 0.14931 0.22428 0.0
H440 H 0.91926 0.20522 0.21774 0.0
H441 H 0.88628 0.26315 0.24718 0.0
H442 H 0.8298 0.20744 0.25373 0.0
H443 H 0.82506 0.26308 0.23834 0.0
H444 H 0.73599 0.20371 0.13867 0.0
H445 H 0.66766 0.12564 0.15495 0.0
H446 H 0.76403 0.12399 0.22585 0.0
C447 C 0.9166 0.29898 0.18886 0.0
C448 C 0.9264 0.33489 0.16753 0.0
C449 C 0.88851 0.32824 0.14655 0.0
C450 C 0.84147 0.28661 0.14663 0.0
C451 C 0.8327 0.25201 0.16795 0.0
C452 C 0.86893 0.25766 0.18878 0.0
C453 C 0.84869 0.21545 0.20965 0.0
C454 C 0.87969 0.18184 0.21015 0.0
C455 C 0.84738 0.23868 0.23896 0.0
C456 C 0.79568 0.18529 0.19716 0.0
C457 C 0.78752 0.20706 0.17304 0.0
C458 C 0.74186 0.18619 0.15752 0.0
C459 C 0.70338 0.14172 0.16685 0.0
C460 C 0.7106 0.11865 0.19156 0.0
C461 C 0.75737 0.14099 0.20697 0.0
H462 H 0.11568 0.57203 0.06222 0.0
H463 H 0.08397 0.41205 0.07973 0.0
H464 H 0.08545 0.39165 0.02944 0.0
H465 H 1.03523 0.54408 0.00283 0.0
H466 H 0.07493 0.59829 0.98359 0.0
H467 H 0.0787 0.60223 0.02119 0.0
H468 H 0.17492 0.62439 0.02069 0.0
H469 H 0.17138 0.62036 0.98299 0.0
H470 H 0.19724 0.58151 0.00202 0.0
H471 H 0.08283 0.38642 0.97737 0.0
H472 H 0.0699 0.3955 0.92697 0.0
H473 H 0.10241 0.55844 0.94277 0.0
C474 C 0.11012 0.53302 0.05547 0.0
C475 C 0.09991 0.49368 0.07484 0.0
C476 C 0.09169 0.44277 0.06521 0.0
C477 C 0.09287 0.43086 0.03671 0.0
C478 C 0.10225 0.47025 0.01806 0.0
C479 C 0.11054 0.52028 0.02698 0.0
C480 C 0.11467 0.55408 0.00237 0.0
C481 C 0.07342 0.57592 0.00251 0.0
C482 C 0.16772 0.59766 0.002 0.0
C483 C 0.10581 0.51483 0.97832 0.0
C484 C 0.09977 0.46699 0.98781 0.0
C485 C 0.08821 0.42387 0.96961 0.0
C486 C 0.0812 0.42945 0.941 0.0
C487 C 0.08522 0.47766 0.93094 0.0
C488 C 0.09904 0.52108 0.94985 0.0
H489 H 0.66153 0.05463 0.40344 0.0
H490 H 0.49965 0.97297 0.41097 0.0
H491 H 0.48772 0.96865 0.35948 0.0
H492 H 0.65691 0.12991 0.34439 0.0
H493 H 0.71033 0.12384 0.32844 0.0
H494 H 0.70579 0.12256 0.36588 0.0
H495 H 0.71386 0.03406 0.36537 0.0
H496 H 0.71855 0.03511 0.32796 0.0
H497 H 0.67055 0.98091 0.34348 0.0
H498 H 0.49371 0.9738 0.30705 0.0
H499 H 0.51724 0.98368 0.2578 0.0
H500 H 0.67582 0.05681 0.28486 0.0
C501 C 0.62348 0.03627 0.39431 0.0
C502 C 0.58145 0.01445 0.41124 0.0
C503 C 0.53241 0.98996 0.39841 0.0
C504 C 0.52524 0.98747 0.3692 0.0
C505 C 0.56754 1.00924 0.35313 0.0
C506 C 0.61573 0.03284 0.36523 0.0
C507 C 0.65507 0.0512 0.34327 0.0
C508 C 0.6837 0.11039 0.34564 0.0
C509 C 0.69165 0.02366 0.34514 0.0
C510 C 0.6215 0.03425 0.31689 0.0
C511 C 0.57113 1.01054 0.32301 0.0
C512 C 0.53309 0.99196 0.30202 0.0
C513 C 0.54693 0.99741 0.27406 0.0
C514 C 0.5985 0.02072 0.26723 0.0
C515 C 0.63604 0.03944 0.28915 0.0
H516 H 0.64122 0.60582 0.74582 0.0
H517 H 0.48255 0.50526 0.75094 0.0
H518 H 0.47538 0.49054 0.69979 0.0
H519 H 0.62411 0.66491 0.68126 0.0
H520 H 0.68354 0.6695 0.66793 0.0
H521 H 0.67628 0.67244 0.70511 0.0
H522 H 0.70415 0.59612 0.71049 0.0
H523 H 0.71085 0.59249 0.67329 0.0
H524 H 0.67039 0.53606 0.69074 0.0
H525 H 0.48638 0.48114 0.64889 0.0
H526 H 0.51215 0.48824 0.59976 0.0
H527 H 0.66141 0.59981 0.62649 0.0
C528 C 0.60493 0.58118 0.73608 0.0
C529 C 0.56245 0.55674 0.75231 0.0
C530 C 0.51548 0.52484 0.73889 0.0
C531 C 0.51108 0.51587 0.70986 0.0
C532 C 0.55376 0.53977 0.69448 0.0
C533 C 0.59952 0.57269 0.70695 0.0
C534 C 0.63897 0.59472 0.68529 0.0
C535 C 0.65676 0.6539 0.68488 0.0
C536 C 0.68373 0.57888 0.69026 0.0
C537 C 0.60833 0.56836 0.65884 0.0
C538 C 0.55947 0.53628 0.66473 0.0
C539 C 0.52437 0.50649 0.64393 0.0
C540 C 0.53932 0.51043 0.61622 0.0
C541 C 0.58855 0.54437 0.60968 0.0
C542 C 0.62356 0.57355 0.6312 0.0
H543 H 0.56394 0.96691 0.59528 0.0
H544 H 0.69431 0.11104 0.58653 0.0
H545 H 0.70742 0.12132 0.63778 0.0
H546 H 0.51706 1.00736 0.65523 0.0
H547 H 0.49701 0.94574 0.67133 0.0
H548 H 0.49912 0.94848 0.63386 0.0
H549 H 0.55773 0.8985 0.63362 0.0
H550 H 0.556 0.89581 0.67115 0.0
H551 H 0.61582 0.92329 0.6547 0.0
H552 H 0.70393 0.11869 0.68982 0.0
H553 H 0.68377 0.10299 0.73942 0.0
H554 H 0.55709 0.95987 0.71462 0.0
C555 C 0.59537 1.00058 0.60409 0.0
C556 C 0.62805 0.03819 0.58679 0.0
C557 C 0.66878 0.08159 0.59925 0.0
C558 C 0.67663 0.08778 0.62838 0.0
C559 C 0.64371 0.05007 0.64478 0.0
C560 C 0.60398 1.00724 0.63313 0.0
C561 C 0.57342 0.97305 0.65554 0.0
C562 C 0.51841 0.96842 0.65389 0.0
C563 C 0.57591 0.91949 0.65363 0.0
C564 C 0.60166 1.0039 0.68162 0.0
C565 C 0.6422 0.0481 0.67491 0.0
C566 C 0.67259 0.084 0.69535 0.0
C567 C 0.66081 0.07485 0.72341 0.0
C568 C 0.61913 0.03013 0.73074 0.0
C569 C 0.5897 0.99388 0.70956 0.0
H570 H 0.64852 0.5721 0.93687 0.0
H571 H 0.48741 0.48101 0.92362 0.0
H572 H 0.4818 0.45858 0.97303 0.0
H573 H 0.67393 0.48982 0.98662 0.0
H574 H 0.71784 0.54294 0.00827 0.0
H575 H 0.71048 0.55045 0.97137 0.0
H576 H 0.68962 0.63043 0.98209 0.0
H577 H 0.6974 0.62348 0.01898 0.0
H578 H 0.6392 0.62465 0.00498 0.0
H579 H 0.49303 0.44428 0.023 0.0
H580 H 0.51835 0.44721 0.0727 0.0
H581 H 0.67108 0.55246 0.05539 0.0
C582 C 0.61216 0.54737 0.94442 0.0
C583 C 0.56841 0.52822 0.9264 0.0
C584 C 0.52137 0.49642 0.93707 0.0
C585 C 0.51782 0.48308 0.96506 0.0
C586 C 0.56155 0.50228 0.98224 0.0
C587 C 0.60771 0.53434 0.97255 0.0
C588 C 0.64813 0.55191 0.99603 0.0
C589 C 0.69007 0.53262 0.99022 0.0
C590 C 0.66985 0.61113 0.0008 0.0
C591 C 0.61727 0.52484 0.02035 0.0
C592 C 0.56764 0.49582 0.01171 0.0
C593 C 0.53167 0.46724 0.03013 0.0
C594 C 0.54641 0.4694 0.05835 0.0
C595 C 0.59653 0.50066 0.0681 0.0
C596 C 0.63261 0.52794 0.04864 0.0
H597 H 0.06926 0.46225 0.25708 0.0
H598 H 0.12888 0.62882 0.25007 0.0
H599 H 0.13515 0.64049 0.30174 0.0
H600 H 0.99644 0.45373 0.3177 0.0
H601 H 1.01227 0.40378 0.33264 0.0
H602 H 1.01053 0.40898 0.29528 0.0
H603 H 0.10274 0.41563 0.29381 0.0
H604 H 0.10477 0.41046 0.33117 0.0
H605 H 0.15165 0.46493 0.31522 0.0
H606 H 0.13183 0.63294 0.35443 0.0
H607 H 0.12406 0.60738 0.40351 0.0
H608 H 0.07615 0.44631 0.37491 0.0
C609 C 0.08313 0.50114 0.26646 0.0
C610 C 0.09802 0.54467 0.24979 0.0
C611 C 0.11714 0.59503 0.26266 0.0
C612 C 0.12075 0.60199 0.2919 0.0
C613 C 0.10598 0.55817 0.30782 0.0
C614 C 0.08813 0.50878 0.29551 0.0
C615 C 0.077 0.46821 0.31716 0.0
C616 C 1.02072 0.43153 0.3156 0.0
C617 C 0.11109 0.43805 0.31416 0.0
C618 C 0.09067 0.50239 0.34361 0.0
C619 C 0.10688 0.5541 0.33789 0.0
C620 C 0.11974 0.59257 0.35917 0.0
C621 C 0.11559 0.57764 0.38702 0.0
C622 C 0.09933 0.52471 0.39335 0.0
C623 C 0.08758 0.487 0.37112 0.0
loop_
_geom_bond_atom_site_label_1
_geom_bond_atom_site_label_2
_geom_bond_distance
_geom_bond_site_symmetry_2
_ccdc_geom_bond_type
Tb0 O3 2.453 1_455 S
Tb0 O4 2.596 1_455 S
Tb0 O5 2.374 . S
Tb0 O13 2.343 . S
Tb0 O15 2.353 . S
Tb0 O17 2.427 . S
Tb0 O18 2.513 . S
C1 O5 1.251 1_655 S
C1 O7 1.263 . S
Tb2 O4 2.343 . S
Tb2 O7 2.353 . S
Tb2 O10 2.427 . S
Tb2 O11 2.513 . S
Tb2 O12 2.453 1_655 S
Tb2 O13 2.596 1_655 S
Tb2 O14 2.374 . S
O3 Tb0 2.453 1_655 S
O3 C19 1.245 . S
O4 Tb0 2.596 1_655 S
O4 Tb2 2.343 . S
O4 C19 1.259 . S
O5 Tb0 2.374 . S
O5 C1 1.251 1_455 S
C6 O10 1.275 . S
C6 O11 1.246 . S
O7 C1 1.263 . S
O7 Tb2 2.353 . S
C8 O12 1.245 . S
C8 O13 1.259 . S
C9 O14 1.250 1_455 S
C9 O15 1.263 . S
O10 Tb2 2.427 . S
O10 C6 1.275 . S
O11 Tb2 2.513 . S
O11 C6 1.246 . S
O12 Tb2 2.453 1_455 S
O12 C8 1.245 . S
O13 Tb0 2.343 . S
O13 Tb2 2.596 1_455 S
O13 C8 1.259 . S
O14 Tb2 2.374 . S
O14 C9 1.250 1_655 S
O15 Tb0 2.353 . S
O15 C9 1.263 . S
C16 O17 1.275 . S
C16 O18 1.246 . S
O17 Tb0 2.427 . S
O17 C16 1.275 . S
O18 Tb0 2.513 . S
O18 C16 1.246 . S
C19 O3 1.245 . S
C19 O4 1.259 . S
Tb20 O23 2.453 1_565 S
Tb20 O24 2.596 1_565 S
Tb20 O25 2.374 1_565 S
Tb20 O33 2.343 . S
Tb20 O35 2.353 1_565 S
Tb20 O37 2.427 . S
Tb20 O38 2.513 . S
C21 O25 1.251 . S
C21 O27 1.263 . S
Tb22 O24 2.343 . S
Tb22 O27 2.353 . S
Tb22 O30 2.427 . S
Tb22 O31 2.513 . S
Tb22 O32 2.453 1_545 S
Tb22 O33 2.596 1_545 S
Tb22 O34 2.374 . S
O23 Tb20 2.453 1_545 S
O23 C39 1.245 . S
O24 Tb20 2.596 1_545 S
O24 Tb22 2.343 . S
O24 C39 1.259 . S
O25 Tb20 2.374 1_545 S
O25 C21 1.251 . S
C26 O30 1.275 . S
C26 O31 1.246 . S
O27 C21 1.263 . S
O27 Tb22 2.353 . S
C28 O32 1.245 . S
C28 O33 1.259 . S
C29 O34 1.250 . S
C29 O35 1.263 . S
O30 Tb22 2.427 . S
O30 C26 1.275 . S
O31 Tb22 2.513 . S
O31 C26 1.246 . S
O32 Tb22 2.453 1_565 S
O32 C28 1.245 . S
O33 Tb20 2.343 . S
O33 Tb22 2.596 1_565 S
O33 C28 1.259 . S
O34 Tb22 2.374 . S
O34 C29 1.250 . S
O35 Tb20 2.353 1_545 S
O35 C29 1.263 . S
C36 O37 1.275 . S
C36 O38 1.246 . S
O37 Tb20 2.427 . S
O37 C36 1.275 . S
O38 Tb20 2.513 . S
O38 C36 1.246 . S
C39 O23 1.245 . S
C39 O24 1.259 . S
Tb40 O43 2.453 . S
Tb40 O44 2.596 . S
Tb40 O45 2.374 . S
Tb40 O53 2.343 . S
Tb40 O55 2.353 . S
Tb40 O57 2.427 . S
Tb40 O58 2.513 . S
C41 O45 1.251 . S
C41 O47 1.263 . S
Tb42 O44 2.343 . S
Tb42 O47 2.353 . S
Tb42 O50 2.427 . S
Tb42 O51 2.513 . S
Tb42 O52 2.453 . S
Tb42 O53 2.596 . S
Tb42 O54 2.374 . S
O43 Tb40 2.453 . S
O43 C59 1.245 . S
O44 Tb40 2.596 . S
O44 Tb42 2.343 . S
O44 C59 1.259 . S
O45 Tb40 2.374 . S
O45 C41 1.251 . S
C46 O50 1.275 . S
C46 O51 1.246 . S
O47 C41 1.263 . S
O47 Tb42 2.353 . S
C48 O52 1.245 . S
C48 O53 1.259 . S
C49 O54 1.250 . S
C49 O55 1.263 . S
O50 Tb42 2.427 . S
O50 C46 1.275 . S
O51 Tb42 2.513 . S
O51 C46 1.246 . S
O52 Tb42 2.453 . S
O52 C48 1.245 . S
O53 Tb40 2.343 . S
O53 Tb42 2.596 . S
O53 C48 1.259 . S
O54 Tb42 2.374 . S
O54 C49 1.250 . S
O55 Tb40 2.353 . S
O55 C49 1.263 . S
C56 O57 1.275 . S
C56 O58 1.246 . S
O57 Tb40 2.427 . S
O57 C56 1.275 . S
O58 Tb40 2.513 . S
O58 C56 1.246 . S
C59 O43 1.245 . S
C59 O44 1.259 . S
H60 C67 0.929 . S
H61 C70 0.930 . S
H62 C72 0.929 . S
H63 C64 0.969 . S
C64 H63 0.969 . S
C64 O65 1.550 . S
C64 H66 0.973 . S
O65 C64 1.550 . S
O65 C71 1.412 . S
H66 C64 0.973 . S
C67 H60 0.929 . S
C67 C68 1.400 . S
C67 C69 1.364 . S
C68 C67 1.400 . S
C68 C72 1.377 . S
C69 C67 1.364 . S
C69 C70 1.374 1_545 S
C70 H61 0.930 . S
C70 C69 1.374 1_565 S
C70 C71 1.383 . S
C71 O65 1.412 . S
C71 C70 1.383 . S
C71 C72 1.394 1_565 S
C72 H62 0.929 . S
C72 C68 1.377 . S
C72 C71 1.394 1_545 S
H73 C80 0.929 . S
H74 C83 0.930 . S
H75 C85 0.929 . S
H76 C77 0.969 . S
C77 H76 0.969 . S
C77 O78 1.550 . S
C77 H79 0.973 . S
O78 C77 1.550 . S
O78 C84 1.412 . S
H79 C77 0.973 . S
C80 H73 0.929 . S
C80 C81 1.400 . S
C80 C82 1.364 . S
C81 C80 1.400 . S
C81 C85 1.377 . S
C82 C80 1.364 . S
C82 C83 1.374 . S
C83 H74 0.930 . S
C83 C82 1.374 . S
C83 C84 1.383 . S
C84 O78 1.412 . S
C84 C83 1.383 . S
C84 C85 1.394 . S
C85 H75 0.929 . S
C85 C81 1.377 . S
C85 C84 1.394 . S
H86 C93 0.929 . S
H87 C96 0.930 . S
H88 C98 0.929 . S
H89 C90 0.969 . S
C90 H89 0.969 . S
C90 O91 1.550 . S
C90 H92 0.973 . S
O91 C90 1.550 . S
O91 C97 1.412 . S
H92 C90 0.973 . S
C93 H86 0.929 . S
C93 C94 1.400 . S
C93 C95 1.364 . S
C94 C93 1.400 . S
C94 C98 1.377 . S
C95 C93 1.364 . S
C95 C96 1.374 . S
C96 H87 0.930 . S
C96 C95 1.374 . S
C96 C97 1.383 . S
C97 O91 1.412 . S
C97 C96 1.383 . S
C97 C98 1.394 . S
C98 H88 0.929 . S
C98 C94 1.377 . S
C98 C97 1.394 . S
H99 C106 0.929 . S
H100 C109 0.930 . S
H101 C111 0.929 . S
H102 C103 0.969 . S
C103 H102 0.969 . S
C103 O104 1.550 . S
C103 H105 0.973 . S
O104 C103 1.550 . S
O104 C110 1.412 . S
H105 C103 0.973 . S
C106 H99 0.929 . S
C106 C107 1.400 . S
C106 C108 1.364 1_655 S
C107 C106 1.400 . S
C107 C111 1.377 1_655 S
C108 C106 1.364 1_455 S
C108 C109 1.374 . S
C109 H100 0.930 . S
C109 C108 1.374 . S
C109 C110 1.383 . S
C110 O104 1.412 . S
C110 C109 1.383 . S
C110 C111 1.394 . S
C111 H101 0.929 . S
C111 C107 1.377 1_455 S
C111 C110 1.394 . S
H112 C119 0.929 . S
H113 C122 0.930 . S
H114 C124 0.929 . S
H115 C116 0.969 . S
C116 H115 0.969 . S
C116 O117 1.550 . S
C116 H118 0.973 . S
O117 C116 1.550 . S
O117 C123 1.412 . S
H118 C116 0.973 . S
C119 H112 0.929 . S
C119 C120 1.400 . S
C119 C121 1.364 1_565 S
C120 C119 1.400 . S
C120 C124 1.377 . S
C121 C119 1.364 1_545 S
C121 C122 1.374 . S
C122 H113 0.930 . S
C122 C121 1.374 . S
C122 C123 1.383 . S
C123 O117 1.412 . S
C123 C122 1.383 . S
C123 C124 1.394 1_545 S
C124 H114 0.929 . S
C124 C120 1.377 . S
C124 C123 1.394 1_565 S
H125 C132 0.929 . S
H126 C135 0.930 . S
H127 C137 0.929 . S
H128 C129 0.969 . S
C129 H128 0.969 . S
C129 O130 1.550 . S
C129 H131 0.973 . S
O130 C129 1.550 . S
O130 C136 1.412 . S
H131 C129 0.973 . S
C132 H125 0.929 . S
C132 C133 1.400 . S
C132 C134 1.364 . S
C133 C132 1.400 . S
C133 C137 1.377 . S
C134 C132 1.364 . S
C134 C135 1.374 . S
C135 H126 0.930 . S
C135 C134 1.374 . S
C135 C136 1.383 . S
C136 O130 1.412 . S
C136 C135 1.383 . S
C136 C137 1.394 . S
C137 H127 0.929 . S
C137 C133 1.377 . S
C137 C136 1.394 . S
H138 C150 0.930 . S
H139 C152 0.930 . S
H140 C153 0.930 . S
H141 C157 0.959 . S
H142 C157 0.959 . S
H143 C157 0.961 . S
H144 C158 0.960 . S
H145 C158 0.961 . S
H146 C158 0.959 . S
H147 C161 0.929 . S
H148 C162 0.931 . S
H149 C164 0.930 . S
C150 H138 0.930 . S
C150 C151 1.399 . S
C150 C155 1.399 . S
C151 C150 1.399 . S
C151 C152 1.376 . S
C152 H139 0.930 . S
C152 C151 1.376 . S
C152 C153 1.388 . S
C153 H140 0.930 . S
C153 C152 1.388 . S
C153 C154 1.390 . S
C154 C153 1.390 . S
C154 C155 1.394 . S
C154 C160 1.465 . S
C155 C150 1.399 . S
C155 C154 1.394 . S
C155 C156 1.516 . S
C156 C155 1.516 . S
C156 C157 1.502 . S
C156 C158 1.561 . S
C156 C159 1.526 . S
C157 H141 0.959 . S
C157 H142 0.959 . S
C157 H143 0.961 . S
C157 C156 1.502 . S
C158 H144 0.960 . S
C158 H145 0.961 . S
C158 H146 0.959 . S
C158 C156 1.561 . S
C159 C156 1.526 . S
C159 C160 1.396 . S
C159 C164 1.390 . S
C160 C154 1.465 . S
C160 C159 1.396 . S
C160 C161 1.399 . S
C161 H147 0.929 . S
C161 C160 1.399 . S
C161 C162 1.385 . S
C162 H148 0.931 . S
C162 C161 1.385 . S
C162 C163 1.389 . S
C163 C162 1.389 . S
C163 C164 1.387 . S
C164 H149 0.930 . S
C164 C159 1.390 . S
C164 C163 1.387 . S
H165 C177 0.930 . S
H166 C179 0.930 . S
H167 C180 0.930 . S
H168 C184 0.959 . S
H169 C184 0.959 . S
H170 C184 0.961 . S
H171 C185 0.960 . S
H172 C185 0.961 . S
H173 C185 0.959 . S
H174 C188 0.929 . S
H175 C189 0.931 . S
H176 C191 0.930 . S
C177 H165 0.930 . S
C177 C178 1.399 . S
C177 C182 1.399 . S
C178 C177 1.399 . S
C178 C179 1.376 . S
C179 H166 0.930 . S
C179 C178 1.376 . S
C179 C180 1.388 . S
C180 H167 0.930 . S
C180 C179 1.388 . S
C180 C181 1.390 . S
C181 C180 1.390 . S
C181 C182 1.394 . S
C181 C187 1.465 . S
C182 C177 1.399 . S
C182 C181 1.394 . S
C182 C183 1.516 . S
C183 C182 1.516 . S
C183 C184 1.502 . S
C183 C185 1.561 . S
C183 C186 1.526 . S
C184 H168 0.959 . S
C184 H169 0.959 . S
C184 H170 0.961 . S
C184 C183 1.502 . S
C185 H171 0.960 . S
C185 H172 0.961 . S
C185 H173 0.959 . S
C185 C183 1.561 . S
C186 C183 1.526 . S
C186 C187 1.396 . S
C186 C191 1.390 . S
C187 C181 1.465 . S
C187 C186 1.396 . S
C187 C188 1.399 . S
C188 H174 0.929 . S
C188 C187 1.399 . S
C188 C189 1.385 . S
C189 H175 0.931 . S
C189 C188 1.385 . S
C189 C190 1.389 . S
C190 C189 1.389 . S
C190 C191 1.387 . S
C191 H176 0.930 . S
C191 C186 1.390 . S
C191 C190 1.387 . S
H192 C204 0.930 . S
H193 C206 0.930 . S
H194 C207 0.930 . S
H195 C211 0.959 . S
H196 C211 0.959 . S
H197 C211 0.961 . S
H198 C212 0.960 . S
H199 C212 0.961 . S
H200 C212 0.959 . S
H201 C215 0.929 . S
H202 C216 0.931 . S
H203 C218 0.930 . S
C204 H192 0.930 . S
C204 C205 1.399 . S
C204 C209 1.399 . S
C205 C204 1.399 . S
C205 C206 1.376 . S
C206 H193 0.930 . S
C206 C205 1.376 . S
C206 C207 1.388 . S
C207 H194 0.930 . S
C207 C206 1.388 . S
C207 C208 1.390 . S
C208 C207 1.390 . S
C208 C209 1.394 . S
C208 C214 1.465 . S
C209 C204 1.399 . S
C209 C208 1.394 . S
C209 C210 1.516 . S
C210 C209 1.516 . S
C210 C211 1.502 . S
C210 C212 1.561 . S
C210 C213 1.526 . S
C211 H195 0.959 . S
C211 H196 0.959 . S
C211 H197 0.961 . S
C211 C210 1.502 . S
C212 H198 0.960 . S
C212 H199 0.961 . S
C212 H200 0.959 . S
C212 C210 1.561 . S
C213 C210 1.526 . S
C213 C214 1.396 . S
C213 C218 1.390 . S
C214 C208 1.465 . S
C214 C213 1.396 . S
C214 C215 1.399 . S
C215 H201 0.929 . S
C215 C214 1.399 . S
C215 C216 1.385 . S
C216 H202 0.931 . S
C216 C215 1.385 . S
C216 C217 1.389 . S
C217 C216 1.389 . S
C217 C218 1.387 . S
C218 H203 0.930 . S
C218 C213 1.390 . S
C218 C217 1.387 . S
H219 C231 0.930 . S
H220 C233 0.930 . S
H221 C234 0.930 . S
H222 C238 0.959 . S
H223 C238 0.959 . S
H224 C238 0.961 . S
H225 C239 0.960 . S
H226 C239 0.961 . S
H227 C239 0.959 . S
H228 C242 0.929 . S
H229 C243 0.931 . S
H230 C245 0.930 . S
C231 H219 0.930 . S
C231 C232 1.399 . S
C231 C236 1.399 . S
C232 C231 1.399 . S
C232 C233 1.376 . S
C233 H220 0.930 . S
C233 C232 1.376 . S
C233 C234 1.388 . S
C234 H221 0.930 . S
C234 C233 1.388 . S
C234 C235 1.390 . S
C235 C234 1.390 . S
C235 C236 1.394 . S
C235 C241 1.465 . S
C236 C231 1.399 . S
C236 C235 1.394 . S
C236 C237 1.516 . S
C237 C236 1.516 . S
C237 C238 1.502 . S
C237 C239 1.561 . S
C237 C240 1.526 . S
C238 H222 0.959 . S
C238 H223 0.959 . S
C238 H224 0.961 . S
C238 C237 1.502 . S
C239 H225 0.960 . S
C239 H226 0.961 . S
C239 H227 0.959 . S
C239 C237 1.561 . S
C240 C237 1.526 . S
C240 C241 1.396 . S
C240 C245 1.390 . S
C241 C235 1.465 . S
C241 C240 1.396 . S
C241 C242 1.399 . S
C242 H228 0.929 . S
C242 C241 1.399 . S
C242 C243 1.385 . S
C243 H229 0.931 . S
C243 C242 1.385 . S
C243 C244 1.389 . S
C244 C243 1.389 . S
C244 C245 1.387 . S
C245 H230 0.930 . S
C245 C240 1.390 . S
C245 C244 1.387 . S
H246 C258 0.930 . S
H247 C260 0.930 . S
H248 C261 0.930 . S
H249 C265 0.959 . S
H250 C265 0.959 . S
H251 C265 0.961 . S
H252 C266 0.960 . S
H253 C266 0.961 . S
H254 C266 0.959 . S
H255 C269 0.929 . S
H256 C270 0.931 . S
H257 C272 0.930 . S
C258 H246 0.930 . S
C258 C259 1.399 . S
C258 C263 1.399 . S
C259 C258 1.399 . S
C259 C260 1.376 . S
C260 H247 0.930 . S
C260 C259 1.376 . S
C260 C261 1.388 . S
C261 H248 0.930 . S
C261 C260 1.388 . S
C261 C262 1.390 . S
C262 C261 1.390 . S
C262 C263 1.394 . S
C262 C268 1.465 . S
C263 C258 1.399 . S
C263 C262 1.394 . S
C263 C264 1.516 . S
C264 C263 1.516 . S
C264 C265 1.502 . S
C264 C266 1.561 . S
C264 C267 1.526 . S
C265 H249 0.959 . S
C265 H250 0.959 . S
C265 H251 0.961 . S
C265 C264 1.502 . S
C266 H252 0.960 . S
C266 H253 0.961 . S
C266 H254 0.959 . S
C266 C264 1.561 . S
C267 C264 1.526 . S
C267 C268 1.396 . S
C267 C272 1.390 . S
C268 C262 1.465 . S
C268 C267 1.396 . S
C268 C269 1.399 . S
C269 H255 0.929 . S
C269 C268 1.399 . S
C269 C270 1.385 . S
C270 H256 0.931 . S
C270 C269 1.385 . S
C270 C271 1.389 . S
C271 C270 1.389 . S
C271 C272 1.387 . S
C272 H257 0.930 . S
C272 C267 1.390 . S
C272 C271 1.387 . S
H273 C285 0.930 . S
H274 C287 0.930 . S
H275 C288 0.930 . S
H276 C292 0.959 . S
H277 C292 0.959 . S
H278 C292 0.961 . S
H279 C293 0.960 . S
H280 C293 0.961 . S
H281 C293 0.959 . S
H282 C296 0.929 . S
H283 C297 0.931 . S
H284 C299 0.930 . S
C285 H273 0.930 . S
C285 C286 1.399 . S
C285 C290 1.399 . S
C286 C285 1.399 . S
C286 C287 1.376 . S
C287 H274 0.930 . S
C287 C286 1.376 . S
C287 C288 1.388 . S
C288 H275 0.930 . S
C288 C287 1.388 . S
C288 C289 1.390 . S
C289 C288 1.390 . S
C289 C290 1.394 . S
C289 C295 1.465 . S
C290 C285 1.399 . S
C290 C289 1.394 . S
C290 C291 1.516 . S
C291 C290 1.516 . S
C291 C292 1.502 . S
C291 C293 1.561 . S
C291 C294 1.526 . S
C292 H276 0.959 . S
C292 H277 0.959 . S
C292 H278 0.961 . S
C292 C291 1.502 . S
C293 H279 0.960 . S
C293 H280 0.961 . S
C293 H281 0.959 . S
C293 C291 1.561 . S
C294 C291 1.526 . S
C294 C295 1.396 . S
C294 C299 1.390 . S
C295 C289 1.465 . S
C295 C294 1.396 . S
C295 C296 1.399 . S
C296 H282 0.929 . S
C296 C295 1.399 . S
C296 C297 1.385 . S
C297 H283 0.931 . S
C297 C296 1.385 . S
C297 C298 1.389 . S
C298 C297 1.389 . S
C298 C299 1.387 . S
C299 H284 0.930 . S
C299 C294 1.390 . S
C299 C298 1.387 . S
H300 C312 0.930 . S
H301 C314 0.930 . S
H302 C315 0.930 . S
H303 C319 0.959 . S
H304 C319 0.959 . S
H305 C319 0.961 . S
H306 C320 0.960 . S
H307 C320 0.961 . S
H308 C320 0.959 . S
H309 C323 0.929 . S
H310 C324 0.931 . S
H311 C326 0.930 . S
C312 H300 0.930 . S
C312 C313 1.399 . S
C312 C317 1.399 . S
C313 C312 1.399 . S
C313 C314 1.376 . S
C314 H301 0.930 . S
C314 C313 1.376 . S
C314 C315 1.388 . S
C315 H302 0.930 . S
C315 C314 1.388 . S
C315 C316 1.390 . S
C316 C315 1.390 . S
C316 C317 1.394 . S
C316 C322 1.465 . S
C317 C312 1.399 . S
C317 C316 1.394 . S
C317 C318 1.516 . S
C318 C317 1.516 . S
C318 C319 1.502 . S
C318 C320 1.561 . S
C318 C321 1.526 . S
C319 H303 0.959 . S
C319 H304 0.959 . S
C319 H305 0.961 . S
C319 C318 1.502 . S
C320 H306 0.960 . S
C320 H307 0.961 . S
C320 H308 0.959 . S
C320 C318 1.561 . S
C321 C318 1.526 . S
C321 C322 1.396 . S
C321 C326 1.390 . S
C322 C316 1.465 . S
C322 C321 1.396 . S
C322 C323 1.399 . S
C323 H309 0.929 . S
C323 C322 1.399 . S
C323 C324 1.385 . S
C324 H310 0.931 . S
C324 C323 1.385 . S
C324 C325 1.389 . S
C325 C324 1.389 . S
C325 C326 1.387 . S
C326 H311 0.930 . S
C326 C321 1.390 . S
C326 C325 1.387 . S
H327 C339 0.930 . S
H328 C341 0.930 . S
H329 C342 0.930 . S
H330 C346 0.959 . S
H331 C346 0.959 . S
H332 C346 0.961 . S
H333 C347 0.960 . S
H334 C347 0.961 . S
H335 C347 0.959 . S
H336 C350 0.929 . S
H337 C351 0.931 . S
H338 C353 0.930 . S
C339 H327 0.930 . S
C339 C340 1.399 . S
C339 C344 1.399 . S
C340 C339 1.399 . S
C340 C341 1.376 . S
C341 H328 0.930 . S
C341 C340 1.376 . S
C341 C342 1.388 . S
C342 H329 0.930 . S
C342 C341 1.388 . S
C342 C343 1.390 . S
C343 C342 1.390 . S
C343 C344 1.394 . S
C343 C349 1.465 . S
C344 C339 1.399 . S
C344 C343 1.394 . S
C344 C345 1.516 . S
C345 C344 1.516 . S
C345 C346 1.502 . S
C345 C347 1.561 . S
C345 C348 1.526 . S
C346 H330 0.959 . S
C346 H331 0.959 . S
C346 H332 0.961 . S
C346 C345 1.502 . S
C347 H333 0.960 . S
C347 H334 0.961 . S
C347 H335 0.959 . S
C347 C345 1.561 . S
C348 C345 1.526 . S
C348 C349 1.396 . S
C348 C353 1.390 . S
C349 C343 1.465 . S
C349 C348 1.396 . S
C349 C350 1.399 . S
C350 H336 0.929 . S
C350 C349 1.399 . S
C350 C351 1.385 1_655 S
C351 H337 0.931 . S
C351 C350 1.385 1_455 S
C351 C352 1.389 1_455 S
C352 C351 1.389 1_655 S
C352 C353 1.387 . S
C353 H338 0.930 . S
C353 C348 1.390 . S
C353 C352 1.387 . S
H354 C366 0.930 . S
H355 C368 0.930 . S
H356 C369 0.930 . S
H357 C373 0.959 . S
H358 C373 0.959 . S
H359 C373 0.961 . S
H360 C374 0.960 . S
H361 C374 0.961 . S
H362 C374 0.959 . S
H363 C377 0.929 . S
H364 C378 0.931 . S
H365 C380 0.930 . S
C366 H354 0.930 . S
C366 C367 1.399 . S
C366 C371 1.399 . S
C367 C366 1.399 . S
C367 C368 1.376 . S
C368 H355 0.930 . S
C368 C367 1.376 . S
C368 C369 1.388 . S
C369 H356 0.930 . S
C369 C368 1.388 . S
C369 C370 1.390 . S
C370 C369 1.390 . S
C370 C371 1.394 . S
C370 C376 1.465 . S
C371 C366 1.399 . S
C371 C370 1.394 . S
C371 C372 1.516 . S
C372 C371 1.516 . S
C372 C373 1.502 . S
C372 C374 1.561 . S
C372 C375 1.526 . S
C373 H357 0.959 . S
C373 H358 0.959 . S
C373 H359 0.961 . S
C373 C372 1.502 . S
C374 H360 0.960 . S
C374 H361 0.961 . S
C374 H362 0.959 . S
C374 C372 1.561 . S
C375 C372 1.526 . S
C375 C376 1.396 . S
C375 C380 1.390 . S
C376 C370 1.465 . S
C376 C375 1.396 . S
C376 C377 1.399 . S
C377 H363 0.929 . S
C377 C376 1.399 . S
C377 C378 1.385 . S
C378 H364 0.931 . S
C378 C377 1.385 . S
C378 C379 1.389 . S
C379 C378 1.389 . S
C379 C380 1.387 . S
C380 H365 0.930 . S
C380 C375 1.390 . S
C380 C379 1.387 . S
H381 C393 0.930 . S
H382 C395 0.930 . S
H383 C396 0.930 . S
H384 C400 0.959 . S
H385 C400 0.959 . S
H386 C400 0.961 . S
H387 C401 0.960 . S
H388 C401 0.961 . S
H389 C401 0.959 . S
H390 C404 0.929 . S
H391 C405 0.931 . S
H392 C407 0.930 . S
C393 H381 0.930 . S
C393 C394 1.399 . S
C393 C398 1.399 . S
C394 C393 1.399 . S
C394 C395 1.376 . S
C395 H382 0.930 . S
C395 C394 1.376 . S
C395 C396 1.388 . S
C396 H383 0.930 . S
C396 C395 1.388 . S
C396 C397 1.390 . S
C397 C396 1.390 . S
C397 C398 1.394 . S
C397 C403 1.465 . S
C398 C393 1.399 . S
C398 C397 1.394 . S
C398 C399 1.516 . S
C399 C398 1.516 . S
C399 C400 1.502 . S
C399 C401 1.561 . S
C399 C402 1.526 . S
C400 H384 0.959 . S
C400 H385 0.959 . S
C400 H386 0.961 . S
C400 C399 1.502 . S
C401 H387 0.960 . S
C401 H388 0.961 . S
C401 H389 0.959 . S
C401 C399 1.561 . S
C402 C399 1.526 . S
C402 C403 1.396 . S
C402 C407 1.390 . S
C403 C397 1.465 . S
C403 C402 1.396 . S
C403 C404 1.399 . S
C404 H390 0.929 . S
C404 C403 1.399 . S
C404 C405 1.385 . S
C405 H391 0.931 . S
C405 C404 1.385 . S
C405 C406 1.389 . S
C406 C405 1.389 . S
C406 C407 1.387 . S
C407 H392 0.930 . S
C407 C402 1.390 . S
C407 C406 1.387 . S
H408 C420 0.930 . S
H409 C422 0.930 . S
H410 C423 0.930 . S
H411 C427 0.959 . S
H412 C427 0.959 . S
H413 C427 0.961 . S
H414 C428 0.960 . S
H415 C428 0.961 . S
H416 C428 0.959 . S
H417 C431 0.929 . S
H418 C432 0.931 . S
H419 C434 0.930 . S
C420 H408 0.930 . S
C420 C421 1.399 . S
C420 C425 1.399 . S
C421 C420 1.399 . S
C421 C422 1.376 . S
C422 H409 0.930 . S
C422 C421 1.376 . S
C422 C423 1.388 . S
C423 H410 0.930 . S
C423 C422 1.388 . S
C423 C424 1.390 . S
C424 C423 1.390 . S
C424 C425 1.394 . S
C424 C430 1.465 . S
C425 C420 1.399 . S
C425 C424 1.394 . S
C425 C426 1.516 . S
C426 C425 1.516 . S
C426 C427 1.502 . S
C426 C428 1.561 . S
C426 C429 1.526 . S
C427 H411 0.959 . S
C427 H412 0.959 . S
C427 H413 0.961 . S
C427 C426 1.502 . S
C428 H414 0.960 . S
C428 H415 0.961 . S
C428 H416 0.959 . S
C428 C426 1.561 . S
C429 C426 1.526 . S
C429 C430 1.396 . S
C429 C434 1.390 . S
C430 C424 1.465 . S
C430 C429 1.396 . S
C430 C431 1.399 . S
C431 H417 0.929 . S
C431 C430 1.399 . S
C431 C432 1.385 . S
C432 H418 0.931 . S
C432 C431 1.385 . S
C432 C433 1.389 . S
C433 C432 1.389 . S
C433 C434 1.387 . S
C434 H419 0.930 . S
C434 C429 1.390 . S
C434 C433 1.387 . S
H435 C447 0.930 . S
H436 C449 0.930 . S
H437 C450 0.930 . S
H438 C454 0.959 . S
H439 C454 0.959 . S
H440 C454 0.961 . S
H441 C455 0.960 . S
H442 C455 0.961 . S
H443 C455 0.959 . S
H444 C458 0.929 . S
H445 C459 0.931 . S
H446 C461 0.930 . S
C447 H435 0.930 . S
C447 C448 1.399 . S
C447 C452 1.399 . S
C448 C447 1.399 . S
C448 C449 1.376 . S
C449 H436 0.930 . S
C449 C448 1.376 . S
C449 C450 1.388 . S
C450 H437 0.930 . S
C450 C449 1.388 . S
C450 C451 1.390 . S
C451 C450 1.390 . S
C451 C452 1.394 . S
C451 C457 1.465 . S
C452 C447 1.399 . S
C452 C451 1.394 . S
C452 C453 1.516 . S
C453 C452 1.516 . S
C453 C454 1.502 . S
C453 C455 1.561 . S
C453 C456 1.526 . S
C454 H438 0.959 . S
C454 H439 0.959 . S
C454 H440 0.961 . S
C454 C453 1.502 . S
C455 H441 0.960 . S
C455 H442 0.961 . S
C455 H443 0.959 . S
C455 C453 1.561 . S
C456 C453 1.526 . S
C456 C457 1.396 . S
C456 C461 1.390 . S
C457 C451 1.465 . S
C457 C456 1.396 . S
C457 C458 1.399 . S
C458 H444 0.929 . S
C458 C457 1.399 . S
C458 C459 1.385 . S
C459 H445 0.931 . S
C459 C458 1.385 . S
C459 C460 1.389 . S
C460 C459 1.389 . S
C460 C461 1.387 . S
C461 H446 0.930 . S
C461 C456 1.390 . S
C461 C460 1.387 . S
H462 C474 0.930 . S
H463 C476 0.930 . S
H464 C477 0.930 . S
H465 C481 0.959 1_655 S
H466 C481 0.959 1_556 S
H467 C481 0.961 . S
H468 C482 0.960 . S
H469 C482 0.961 . S
H470 C482 0.959 . S
H471 C485 0.929 . S
H472 C486 0.931 . S
H473 C488 0.930 . S
C474 H462 0.930 . S
C474 C475 1.399 . S
C474 C479 1.399 . S
C475 C474 1.399 . S
C475 C476 1.376 . S
C476 H463 0.930 . S
C476 C475 1.376 . S
C476 C477 1.388 . S
C477 H464 0.930 . S
C477 C476 1.388 . S
C477 C478 1.390 . S
C478 C477 1.390 . S
C478 C479 1.394 . S
C478 C484 1.465 1_554 S
C479 C474 1.399 . S
C479 C478 1.394 . S
C479 C480 1.516 . S
C480 C479 1.516 . S
C480 C481 1.502 . S
C480 C482 1.561 . S
C480 C483 1.526 1_554 S
C481 H465 0.959 1_455 S
C481 H466 0.959 1_554 S
C481 H467 0.961 . S
C481 C480 1.502 . S
C482 H468 0.960 . S
C482 H469 0.961 . S
C482 H470 0.959 . S
C482 C480 1.561 . S
C483 C480 1.526 1_556 S
C483 C484 1.396 . S
C483 C488 1.390 . S
C484 C478 1.465 1_556 S
C484 C483 1.396 . S
C484 C485 1.399 . S
C485 H471 0.929 . S
C485 C484 1.399 . S
C485 C486 1.385 . S
C486 H472 0.931 . S
C486 C485 1.385 . S
C486 C487 1.389 . S
C487 C486 1.389 . S
C487 C488 1.387 . S
C488 H473 0.930 . S
C488 C483 1.390 . S
C488 C487 1.387 . S
H489 C501 0.930 . S
H490 C503 0.930 . S
H491 C504 0.930 . S
H492 C508 0.959 . S
H493 C508 0.959 . S
H494 C508 0.961 . S
H495 C509 0.960 . S
H496 C509 0.961 . S
H497 C509 0.959 . S
H498 C512 0.929 . S
H499 C513 0.931 . S
H500 C515 0.930 . S
C501 H489 0.930 . S
C501 C502 1.399 . S
C501 C506 1.399 . S
C502 C501 1.399 . S
C502 C503 1.376 . S
C503 H490 0.930 . S
C503 C502 1.376 . S
C503 C504 1.388 . S
C504 H491 0.930 . S
C504 C503 1.388 . S
C504 C505 1.390 . S
C505 C504 1.390 . S
C505 C506 1.394 . S
C505 C511 1.465 . S
C506 C501 1.399 . S
C506 C505 1.394 . S
C506 C507 1.516 . S
C507 C506 1.516 . S
C507 C508 1.502 . S
C507 C509 1.561 1_545 S
C507 C510 1.526 . S
C508 H492 0.959 . S
C508 H493 0.959 . S
C508 H494 0.961 . S
C508 C507 1.502 . S
C509 H495 0.960 . S
C509 H496 0.961 . S
C509 H497 0.959 . S
C509 C507 1.561 1_565 S
C510 C507 1.526 . S
C510 C511 1.396 . S
C510 C515 1.390 . S
C511 C505 1.465 . S
C511 C510 1.396 . S
C511 C512 1.399 . S
C512 H498 0.929 . S
C512 C511 1.399 . S
C512 C513 1.385 . S
C513 H499 0.931 . S
C513 C512 1.385 . S
C513 C514 1.389 . S
C514 C513 1.389 . S
C514 C515 1.387 . S
C515 H500 0.930 . S
C515 C510 1.390 . S
C515 C514 1.387 . S
H516 C528 0.930 . S
H517 C530 0.930 . S
H518 C531 0.930 . S
H519 C535 0.959 . S
H520 C535 0.959 . S
H521 C535 0.961 . S
H522 C536 0.960 . S
H523 C536 0.961 . S
H524 C536 0.959 . S
H525 C539 0.929 . S
H526 C540 0.931 . S
H527 C542 0.930 . S
C528 H516 0.930 . S
C528 C529 1.399 . S
C528 C533 1.399 . S
C529 C528 1.399 . S
C529 C530 1.376 . S
C530 H517 0.930 . S
C530 C529 1.376 . S
C530 C531 1.388 . S
C531 H518 0.930 . S
C531 C530 1.388 . S
C531 C532 1.390 . S
C532 C531 1.390 . S
C532 C533 1.394 . S
C532 C538 1.465 . S
C533 C528 1.399 . S
C533 C532 1.394 . S
C533 C534 1.516 . S
C534 C533 1.516 . S
C534 C535 1.502 . S
C534 C536 1.561 . S
C534 C537 1.526 . S
C535 H519 0.959 . S
C535 H520 0.959 . S
C535 H521 0.961 . S
C535 C534 1.502 . S
C536 H522 0.960 . S
C536 H523 0.961 . S
C536 H524 0.959 . S
C536 C534 1.561 . S
C537 C534 1.526 . S
C537 C538 1.396 . S
C537 C542 1.390 . S
C538 C532 1.465 . S
C538 C537 1.396 . S
C538 C539 1.399 . S
C539 H525 0.929 . S
C539 C538 1.399 . S
C539 C540 1.385 . S
C540 H526 0.931 . S
C540 C539 1.385 . S
C540 C541 1.389 . S
C541 C540 1.389 . S
C541 C542 1.387 . S
C542 H527 0.930 . S
C542 C537 1.390 . S
C542 C541 1.387 . S
H543 C555 0.930 . S
H544 C557 0.930 . S
H545 C558 0.930 . S
H546 C562 0.959 . S
H547 C562 0.959 . S
H548 C562 0.961 . S
H549 C563 0.960 . S
H550 C563 0.961 . S
H551 C563 0.959 . S
H552 C566 0.929 . S
H553 C567 0.931 . S
H554 C569 0.930 . S
C555 H543 0.930 . S
C555 C556 1.399 1_565 S
C555 C560 1.399 . S
C556 C555 1.399 1_545 S
C556 C557 1.376 . S
C557 H544 0.930 . S
C557 C556 1.376 . S
C557 C558 1.388 . S
C558 H545 0.930 . S
C558 C557 1.388 . S
C558 C559 1.390 . S
C559 C558 1.390 . S
C559 C560 1.394 1_545 S
C559 C565 1.465 . S
C560 C555 1.399 . S
C560 C559 1.394 1_565 S
C560 C561 1.516 . S
C561 C560 1.516 . S
C561 C562 1.502 . S
C561 C563 1.561 . S
C561 C564 1.526 . S
C562 H546 0.959 . S
C562 H547 0.959 . S
C562 H548 0.961 . S
C562 C561 1.502 . S
C563 H549 0.960 . S
C563 H550 0.961 . S
C563 H551 0.959 . S
C563 C561 1.561 . S
C564 C561 1.526 . S
C564 C565 1.396 1_565 S
C564 C569 1.390 . S
C565 C559 1.465 . S
C565 C564 1.396 1_545 S
C565 C566 1.399 . S
C566 H552 0.929 . S
C566 C565 1.399 . S
C566 C567 1.385 . S
C567 H553 0.931 . S
C567 C566 1.385 . S
C567 C568 1.389 . S
C568 C567 1.389 . S
C568 C569 1.387 1_545 S
C569 H554 0.930 . S
C569 C564 1.390 . S
C569 C568 1.387 1_565 S
H570 C582 0.930 . S
H571 C584 0.930 . S
H572 C585 0.930 . S
H573 C589 0.959 . S
H574 C589 0.959 . S
H575 C589 0.961 1_556 S
H576 C590 0.960 1_556 S
H577 C590 0.961 . S
H578 C590 0.959 1_556 S
H579 C593 0.929 . S
H580 C594 0.931 . S
H581 C596 0.930 . S
C582 H570 0.930 . S
C582 C583 1.399 . S
C582 C587 1.399 . S
C583 C582 1.399 . S
C583 C584 1.376 . S
C584 H571 0.930 . S
C584 C583 1.376 . S
C584 C585 1.388 . S
C585 H572 0.930 . S
C585 C584 1.388 . S
C585 C586 1.390 . S
C586 C585 1.390 . S
C586 C587 1.394 . S
C586 C592 1.465 1_556 S
C587 C582 1.399 . S
C587 C586 1.394 . S
C587 C588 1.516 1_556 S
C588 C587 1.516 1_554 S
C588 C589 1.502 . S
C588 C590 1.561 . S
C588 C591 1.526 . S
C589 H573 0.959 . S
C589 H574 0.959 . S
C589 H575 0.961 1_554 S
C589 C588 1.502 . S
C590 H576 0.960 1_554 S
C590 H577 0.961 . S
C590 H578 0.959 1_554 S
C590 C588 1.561 . S
C591 C588 1.526 . S
C591 C592 1.396 . S
C591 C596 1.390 . S
C592 C586 1.465 1_554 S
C592 C591 1.396 . S
C592 C593 1.399 . S
C593 H579 0.929 . S
C593 C592 1.399 . S
C593 C594 1.385 . S
C594 H580 0.931 . S
C594 C593 1.385 . S
C594 C595 1.389 . S
C595 C594 1.389 . S
C595 C596 1.387 . S
C596 H581 0.930 . S
C596 C591 1.390 . S
C596 C595 1.387 . S
H597 C609 0.930 . S
H598 C611 0.930 . S
H599 C612 0.930 . S
H600 C616 0.959 . S
H601 C616 0.959 . S
H602 C616 0.961 . S
H603 C617 0.960 . S
H604 C617 0.961 . S
H605 C617 0.959 . S
H606 C620 0.929 . S
H607 C621 0.931 . S
H608 C623 0.930 . S
C609 H597 0.930 . S
C609 C610 1.399 . S
C609 C614 1.399 . S
C610 C609 1.399 . S
C610 C611 1.376 1_655 S
C611 H598 0.930 . S
C611 C610 1.376 1_455 S
C611 C612 1.388 . S
C612 H599 0.930 . S
C612 C611 1.388 . S
C612 C613 1.390 . S
C613 C612 1.390 . S
C613 C614 1.394 1_455 S
C613 C619 1.465 . S
C614 C609 1.399 . S
C614 C613 1.394 1_655 S
C614 C615 1.516 . S
C615 C614 1.516 . S
C615 C616 1.502 . S
C615 C617 1.561 . S
C615 C618 1.526 . S
C616 H600 0.959 . S
C616 H601 0.959 . S
C616 H602 0.961 . S
C616 C615 1.502 . S
C617 H603 0.960 . S
C617 H604 0.961 . S
C617 H605 0.959 . S
C617 C615 1.561 . S
C618 C615 1.526 . S
C618 C619 1.396 1_655 S
C618 C623 1.390 . S
C619 C613 1.465 . S
C619 C618 1.396 1_455 S
C619 C620 1.399 . S
C620 H606 0.929 . S
C620 C619 1.399 . S
C620 C621 1.385 . S
C621 H607 0.931 . S
C621 C620 1.385 . S
C621 C622 1.389 . S
C622 C621 1.389 . S
C622 C623 1.387 1_455 S
C623 H608 0.930 . S
C623 C618 1.390 . S
C623 C622 1.387 1_655 S
C151 C8 2.026 . S
C163 C129 1.890 . S
C178 C26 1.266 . S
C190 C107 1.252 . S
C205 C48 1.440 . S
C217 C120 1.473 . S
C232 C19 1.675 . S
C244 C133 1.739 . S
C271 C103 1.522 . S
C259 C36 1.564 . S
C298 C116 1.558 . S
C286 C59 1.593 . S
C313 C28 1.472 . S
C325 C81 1.467 . S
C340 C46 1.074 . S
C352 C94 1.122 1_655 S
C367 C16 1.483 . S
C379 C64 1.371 . S
C406 C77 1.555 . S
C394 C39 1.628 . S
C433 C90 0.980 . S
C421 C56 1.030 . S
C448 C6 1.330 . S
C460 C68 1.330 . S
C487 C95 1.489 . S
C475 C9 1.492 . S
C502 C21 1.516 . S
C514 C69 1.553 . S
C529 C49 1.517 . S
C541 C82 1.594 . S
C568 C121 1.544 . S
C556 C29 1.510 . S
C595 C134 1.626 . S
C583 C41 1.591 . S
C610 C1 1.508 . S
C622 C108 1.579 . S
