# Generated by pormake.
# Topology zzz, (3,6)-cn, num edge types: 1
# Building blocks:
#     Node 0, Type 0, BuildingBlock: VETTIZ_charged_linker_0, # of connection points: 3
#     Node 1, Type 0, BuildingBlock: VETTIZ_charged_linker_0, # of connection points: 3
#     Node 2, Type 0, BuildingBlock: VETTIZ_charged_linker_0, # of connection points: 3
#     Node 3, Type 0, BuildingBlock: VETTIZ_charged_linker_0, # of connection points: 3
#     Node 4, Type 0, BuildingBlock: VETTIZ_charged_linker_0, # of connection points: 3
#     Node 5, Type 0, BuildingBlock: VETTIZ_charged_linker_0, # of connection points: 3
#     Node 6, Type 0, BuildingBlock: VETTIZ_charged_linker_0, # of connection points: 3
#     Node 7, Type 0, BuildingBlock: VETTIZ_charged_linker_0, # of connection points: 3
#     Node 8, Type 1, BuildingBlock: CUKXOW_clean_sbu_0, # of connection points: 6
#     Node 9, Type 1, BuildingBlock: CUKXOW_clean_sbu_0, # of connection points: 6
#     Node 10, Type 1, BuildingBlock: CUKXOW_clean_sbu_0, # of connection points: 6
#     Node 11, Type 1, BuildingBlock: CUKXOW_clean_sbu_0, # of connection points: 6
#     Edge 12, Type (0, 1), BuildingBlock: UVAHIK_clean_linker_0, # of connection points: 2
#     Edge 13, Type (0, 1), BuildingBlock: UVAHIK_clean_linker_0, # of connection points: 2
#     Edge 14, Type (0, 1), BuildingBlock: UVAHIK_clean_linker_0, # of connection points: 2
#     Edge 15, Type (0, 1), BuildingBlock: UVAHIK_clean_linker_0, # of connection points: 2
#     Edge 16, Type (0, 1), BuildingBlock: UVAHIK_clean_linker_0, # of connection points: 2
#     Edge 17, Type (0, 1), BuildingBlock: UVAHIK_clean_linker_0, # of connection points: 2
#     Edge 18, Type (0, 1), BuildingBlock: UVAHIK_clean_linker_0, # of connection points: 2
#     Edge 19, Type (0, 1), BuildingBlock: UVAHIK_clean_linker_0, # of connection points: 2
#     Edge 20, Type (0, 1), BuildingBlock: UVAHIK_clean_linker_0, # of connection points: 2
#     Edge 21, Type (0, 1), BuildingBlock: UVAHIK_clean_linker_0, # of connection points: 2
#     Edge 22, Type (0, 1), BuildingBlock: UVAHIK_clean_linker_0, # of connection points: 2
#     Edge 23, Type (0, 1), BuildingBlock: UVAHIK_clean_linker_0, # of connection points: 2
#     Edge 24, Type (0, 1), BuildingBlock: UVAHIK_clean_linker_0, # of connection points: 2
#     Edge 25, Type (0, 1), BuildingBlock: UVAHIK_clean_linker_0, # of connection points: 2
#     Edge 26, Type (0, 1), BuildingBlock: UVAHIK_clean_linker_0, # of connection points: 2
#     Edge 27, Type (0, 1), BuildingBlock: UVAHIK_clean_linker_0, # of connection points: 2
#     Edge 28, Type (0, 1), BuildingBlock: UVAHIK_clean_linker_0, # of connection points: 2
#     Edge 29, Type (0, 1), BuildingBlock: UVAHIK_clean_linker_0, # of connection points: 2
#     Edge 30, Type (0, 1), BuildingBlock: UVAHIK_clean_linker_0, # of connection points: 2
#     Edge 31, Type (0, 1), BuildingBlock: UVAHIK_clean_linker_0, # of connection points: 2
#     Edge 32, Type (0, 1), BuildingBlock: UVAHIK_clean_linker_0, # of connection points: 2
#     Edge 33, Type (0, 1), BuildingBlock: UVAHIK_clean_linker_0, # of connection points: 2
#     Edge 34, Type (0, 1), BuildingBlock: UVAHIK_clean_linker_0, # of connection points: 2
#     Edge 35, Type (0, 1), BuildingBlock: UVAHIK_clean_linker_0, # of connection points: 2
# Relax obj value: 0.223
# Max RMSD: 0.236
# Mean RMSD: 0.191
data_MOF--net-zzz--node1-CUKXOW_clean_sbu_0--node2-VETTIZ_charged_linker_0--edge1-UVAHIK_clean_linker_0
_symmetry_space_group_name_H-M    P1
_symmetry_Int_Tables_number       1
_symmetry_cell_setting            triclinic
loop_
_symmetry_equiv_pos_as_xyz
'x, y, z'
_cell_length_a     71.953873
_cell_length_b     69.823932
_cell_length_c     25.162306
_cell_angle_alpha  92.2961
_cell_angle_beta   88.500338
_cell_angle_gamma 95.355496
loop_
_atom_site_label
_atom_site_type_symbol
_atom_site_fract_x
_atom_site_fract_y
_atom_site_fract_z
_atom_type_partial_charge
C0 C 0.7813 0.46286 0.27124 0.0
C1 C 0.79737 0.45533 0.28971 0.0
C2 C 0.80633 0.442 0.257 0.0
C3 C 0.78476 0.44533 0.18676 0.0
C4 C 0.77503 0.45733 0.21984 0.0
C5 C 0.7579 0.46313 0.19329 0.0
H6 H 0.70547 0.45885 0.9705 0.0
C7 C 0.7759 0.44363 0.13452 0.0
C8 C 0.75983 0.45362 0.13802 0.0
H9 H 0.69286 0.48587 0.12278 0.0
H10 H 0.722 0.47698 0.15739 0.0
H11 H 0.74593 0.47651 0.96553 0.0
H12 H 0.72282 0.42059 0.01166 0.0
H13 H 0.74204 0.41796 0.96758 0.0
H14 H 0.72239 0.42944 0.94566 0.0
H15 H 0.74195 0.45707 0.9174 0.0
H16 H 0.76377 0.46143 0.95173 0.0
C17 C 0.75939 0.48532 0.19135 0.0
C18 C 0.74046 0.4544 0.22415 0.0
C19 C 0.81198 0.41733 0.97698 0.0
C20 C 0.80945 0.41751 0.92186 0.0
C21 C 0.79223 0.42222 0.90302 0.0
C22 C 0.77815 0.42764 0.93867 0.0
C23 C 0.78147 0.42873 0.99363 0.0
C24 C 0.79803 0.42323 0.01191 0.0
C25 C 0.7998 0.4265 0.07101 0.0
C26 C 0.78185 0.43558 0.085 0.0
C27 C 0.77113 0.4367 0.03973 0.0
C28 C 0.81737 0.4407 0.08112 0.0
C29 C 0.80026 0.40665 0.09637 0.0
C30 C 0.70892 0.46265 0.01148 0.0
C31 C 0.69683 0.47271 0.04438 0.0
C32 C 0.70199 0.47798 0.09697 0.0
C33 C 0.7188 0.4727 0.11697 0.0
C34 C 0.73062 0.46226 0.08372 0.0
C35 C 0.72567 0.45772 0.03164 0.0
C36 C 0.74032 0.44777 0.00066 0.0
C37 C 0.75431 0.4458 0.04359 0.0
C38 C 0.74867 0.45434 0.0923 0.0
C39 C 0.74841 0.46123 0.95629 0.0
C40 C 0.73152 0.42789 0.97987 0.0
H41 H 0.80784 0.4271 0.18267 0.0
H42 H 0.77395 0.47286 0.29601 0.0
H43 H 0.74265 0.43983 0.23784 0.0
H44 H 0.72794 0.45221 0.19948 0.0
H45 H 0.73739 0.46355 0.25986 0.0
H46 H 0.77378 0.49098 0.17932 0.0
H47 H 0.75613 0.49194 0.23099 0.0
H48 H 0.75012 0.4905 0.1619 0.0
H49 H 0.82518 0.41412 0.99266 0.0
H50 H 0.78995 0.42236 0.86066 0.0
H51 H 0.76548 0.43139 0.92198 0.0
H52 H 0.81812 0.45263 0.05287 0.0
H53 H 0.83033 0.4333 0.07555 0.0
H54 H 0.81754 0.44779 0.12098 0.0
H55 H 0.79401 0.39468 0.07013 0.0
H56 H 0.79186 0.4056 0.13387 0.0
H57 H 0.81479 0.40357 0.10418 0.0
H58 H 0.81873 0.43605 0.27018 0.0
C59 C 0.80009 0.43693 0.20591 0.0
C60 C 0.89424 0.79855 0.87507 0.0
C61 C 0.8931 0.81855 0.87968 0.0
C62 C 0.88668 0.82666 0.92816 0.0
C63 C 0.88737 0.79607 0.96945 0.0
C64 C 0.8913 0.78756 0.9205 0.0
C65 C 0.89392 0.76652 0.92448 0.0
H66 H 0.92341 0.69728 0.06878 0.0
C67 C 0.88968 0.78207 0.01062 0.0
C68 C 0.89317 0.76459 0.98474 0.0
H69 H 0.90489 0.69341 0.90608 0.0
H70 H 0.89339 0.72459 0.91717 0.0
H71 H 0.93987 0.74205 0.07154 0.0
H72 H 0.88465 0.71694 0.11531 0.0
H73 H 0.89213 0.73484 0.16342 0.0
H74 H 0.90473 0.71377 0.15382 0.0
H75 H 0.93567 0.72719 0.12809 0.0
H76 H 0.93271 0.7525 0.13261 0.0
C77 C 0.91332 0.76285 0.9 0.0
C78 C 0.87739 0.75457 0.8967 0.0
C79 C 0.90134 0.80883 0.19745 0.0
C80 C 0.90987 0.80194 0.24143 0.0
C81 C 0.91325 0.78236 0.24111 0.0
C82 C 0.90932 0.77023 0.19589 0.0
C83 C 0.90214 0.77786 0.15049 0.0
C84 C 0.89795 0.7968 0.15245 0.0
C85 C 0.89144 0.80309 0.10034 0.0
C86 C 0.89258 0.78485 0.0661 0.0
C87 C 0.89873 0.77 0.09554 0.0
C88 C 0.90515 0.8202 0.08115 0.0
C89 C 0.87096 0.80793 0.10812 0.0
C90 C 0.91684 0.70317 0.03565 0.0
C91 C 0.91576 0.69318 0.98578 0.0
C92 C 0.90662 0.70112 0.94413 0.0
C93 C 0.89994 0.7192 0.95044 0.0
C94 C 0.9026 0.7297 0.99856 0.0
C95 C 0.91 0.72142 0.04118 0.0
C96 C 0.9101 0.73456 0.09038 0.0
C97 C 0.90178 0.75203 0.06947 0.0
C98 C 0.89814 0.7492 0.01501 0.0
C99 C 0.93061 0.73933 0.10708 0.0
C100 C 0.89735 0.72456 0.13341 0.0
H101 H 0.87965 0.82256 0.00942 0.0
H102 H 0.89862 0.79193 0.83774 0.0
H103 H 0.86616 0.76358 0.88611 0.0
H104 H 0.87047 0.74351 0.92298 0.0
H105 H 0.88203 0.74734 0.85918 0.0
H106 H 0.92436 0.77325 0.91747 0.0
H107 H 0.91362 0.76451 0.85627 0.0
H108 H 0.91734 0.74834 0.90689 0.0
H109 H 0.89834 0.82375 0.19677 0.0
H110 H 0.91976 0.77669 0.27471 0.0
H111 H 0.91268 0.75561 0.19723 0.0
H112 H 0.91767 0.82294 0.1063 0.0
H113 H 0.89834 0.83385 0.08182 0.0
H114 H 0.91095 0.81746 0.04065 0.0
H115 H 0.86285 0.79708 0.13285 0.0
H116 H 0.86352 0.80767 0.07018 0.0
H117 H 0.87029 0.82226 0.12855 0.0
H118 H 0.88551 0.842 0.93272 0.0
C119 C 0.88368 0.81546 0.97299 0.0
C120 C 0.80145 0.99424 0.1239 0.0
C121 C 0.80825 0.98903 0.07278 0.0
C122 C 0.79551 0.98232 0.03325 0.0
C123 C 0.76967 0.9855 0.09511 0.0
C124 C 0.78204 0.99211 0.13439 0.0
C125 C 0.77196 0.99592 0.18675 0.0
H126 H 0.68869 0.9919 0.32473 0.0
C127 C 0.75061 0.98426 0.11813 0.0
C128 C 0.75172 0.98998 0.17232 0.0
H129 H 0.74232 0.01414 0.38461 0.0
H130 H 0.75713 0.00638 0.29879 0.0
H131 H 0.69272 0.01305 0.22454 0.0
H132 H 0.70186 0.95498 0.25682 0.0
H133 H 0.69067 0.95393 0.1954 0.0
H134 H 0.67915 0.96347 0.2539 0.0
H135 H 0.67391 0.99436 0.22614 0.0
H136 H 0.6868 1.00014 0.1655 0.0
C137 C 0.77523 0.01765 0.20143 0.0
C138 C 0.77893 0.98288 0.22872 0.0
C139 C 0.69513 0.96823 0.99786 0.0
C140 C 0.67573 0.96693 0.0082 0.0
C141 C 0.66915 0.96703 0.06149 0.0
C142 C 0.68154 0.96957 0.10348 0.0
C143 C 0.7008 0.97231 0.09244 0.0
C144 C 0.70737 0.97096 0.04054 0.0
C145 C 0.72836 0.97394 0.0369 0.0
C146 C 0.73309 0.97854 0.09496 0.0
C147 C 0.71687 0.97765 0.1269 0.0
C148 C 0.73384 0.99136 0.0016 0.0
C149 C 0.73576 0.9548 0.01586 0.0
C150 C 0.70369 0.99479 0.31959 0.0
C151 C 0.71446 0.00331 0.36102 0.0
C152 C 0.73385 0.00737 0.3529 0.0
C153 C 0.74233 0.00294 0.30317 0.0
C154 C 0.73117 0.99466 0.26142 0.0
C155 C 0.71216 0.99082 0.27051 0.0
C156 C 0.70191 0.9835 0.22184 0.0
C157 C 0.71783 0.98313 0.1816 0.0
C158 C 0.73507 0.98949 0.20452 0.0
C159 C 0.68801 0.99834 0.20867 0.0
C160 C 0.69275 0.96295 0.23225 0.0
H161 H 0.76749 0.9754 0.01207 0.0
H162 H 0.811 0.99938 0.155 0.0
H163 H 0.7795 0.96795 0.21195 0.0
H164 H 0.76964 0.98169 0.2642 0.0
H165 H 0.79318 0.98829 0.2416 0.0
H166 H 0.77436 0.02632 0.16558 0.0
H167 H 0.78927 0.02126 0.21845 0.0
H168 H 0.76458 0.02263 0.22973 0.0
H169 H 0.70066 0.96786 0.95742 0.0
H170 H 0.65434 0.96628 0.07098 0.0
H171 H 0.67554 0.97011 0.14288 0.0
H172 H 0.72499 0.00328 0.01199 0.0
H173 H 0.73188 0.9873 0.95884 0.0
H174 H 0.74836 0.9976 0.00682 0.0
H175 H 0.7253 0.94223 0.02156 0.0
H176 H 0.74814 0.95132 0.03762 0.0
H177 H 0.73932 0.9552 0.97268 0.0
H178 H 0.80044 0.97846 0.99353 0.0
C179 C 0.77635 0.98056 0.04407 0.0
C180 C 0.60903 0.7185 0.26662 0.0
C181 C 0.61361 0.69964 0.2752 0.0
C182 C 0.62152 0.68909 0.23287 0.0
C183 C 0.61801 0.71471 0.17336 0.0
C184 C 0.61172 0.72588 0.21538 0.0
C185 C 0.60829 0.74573 0.19799 0.0
H186 H 0.60168 0.80492 0.99164 0.0
C187 C 0.61745 0.72539 0.12431 0.0
C188 C 0.6123 0.74389 0.13823 0.0
H189 H 0.59499 0.81971 0.15898 0.0
H190 H 0.60153 0.78742 0.18088 0.0
H191 H 0.63814 0.78057 0.99978 0.0
H192 H 0.57891 0.76782 0.99357 0.0
H193 H 0.58765 0.74668 0.96781 0.0
H194 H 0.59303 0.76892 0.93398 0.0
H195 H 0.62423 0.78329 0.9428 0.0
H196 H 0.63361 0.76083 0.9545 0.0
C197 C 0.62248 0.76056 0.22592 0.0
C198 C 0.58768 0.74905 0.2106 0.0
C199 C 0.61661 0.68795 0.9478 0.0
C200 C 0.61141 0.69287 0.89711 0.0
C201 C 0.61082 0.71238 0.88599 0.0
C202 C 0.61393 0.72671 0.92617 0.0
C203 C 0.61708 0.72137 0.97826 0.0
C204 C 0.61903 0.70234 0.98802 0.0
C205 C 0.62111 0.69912 0.04625 0.0
C206 C 0.61906 0.71923 0.07006 0.0
C207 C 0.61674 0.73211 0.03005 0.0
C208 C 0.64087 0.69268 0.05449 0.0
C209 C 0.60488 0.68436 0.06388 0.0
C210 C 0.60207 0.80147 0.03317 0.0
C211 C 0.59819 0.81505 0.07358 0.0
C212 C 0.59803 0.80954 0.12702 0.0
C213 C 0.60193 0.79085 0.13964 0.0
C214 C 0.60586 0.77749 0.09837 0.0
C215 C 0.60584 0.78303 0.04624 0.0
C216 C 0.60932 0.76703 0.00689 0.0
C217 C 0.61248 0.75112 0.04377 0.0
C218 C 0.61029 0.75711 0.09748 0.0
C219 C 0.62719 0.77317 0.9738 0.0
C220 C 0.59144 0.76235 0.97351 0.0
H221 H 0.62953 0.68762 0.15163 0.0
H222 H 0.60336 0.72712 0.29875 0.0
H223 H 0.57832 0.73624 0.19753 0.0
H224 H 0.58308 0.76131 0.18978 0.0
H225 H 0.58531 0.75157 0.25402 0.0
H226 H 0.63625 0.75469 0.22891 0.0
H227 H 0.61756 0.76433 0.2669 0.0
H228 H 0.62539 0.77386 0.2037 0.0
H229 H 0.61692 0.67299 0.9573 0.0
H230 H 0.60688 0.71642 0.847 0.0
H231 H 0.61273 0.74126 0.91569 0.0
H232 H 0.65054 0.69626 0.02033 0.0
H233 H 0.64036 0.67689 0.05915 0.0
H234 H 0.64772 0.70018 0.08949 0.0
H235 H 0.59141 0.68808 0.04816 0.0
H236 H 0.60275 0.68384 0.10724 0.0
H237 H 0.60721 0.6696 0.04867 0.0
H238 H 0.62515 0.67458 0.23817 0.0
C239 C 0.62386 0.69657 0.18234 0.0
C240 C 0.30348 0.53934 0.29976 0.0
C241 C 0.3107 0.54309 0.35115 0.0
C242 C 0.29944 0.5513 0.39096 0.0
C243 C 0.27471 0.55272 0.32859 0.0
C244 C 0.28547 0.5444 0.2893 0.0
C245 C 0.27535 0.54178 0.23721 0.0
H246 H 0.19857 0.55752 0.09785 0.0
C247 C 0.25705 0.55694 0.30535 0.0
C248 C 0.25735 0.55091 0.25139 0.0
H249 H 0.24354 0.52421 0.04429 0.0
H250 H 0.25925 0.53172 0.12828 0.0
H251 H 0.19319 0.53897 0.20045 0.0
H252 H 0.22356 0.59267 0.16293 0.0
H253 H 0.21141 0.59667 0.22333 0.0
H254 H 0.19855 0.58882 0.16448 0.0
H255 H 0.18174 0.5605 0.19489 0.0
H256 H 0.19057 0.55379 0.25724 0.0
C257 C 0.2717 0.51993 0.22397 0.0
C258 C 0.2871 0.55294 0.19428 0.0
C259 C 0.20597 0.58245 0.42402 0.0
C260 C 0.18806 0.58759 0.41304 0.0
C261 C 0.18312 0.58922 0.35967 0.0
C262 C 0.19525 0.58444 0.31792 0.0
C263 C 0.21248 0.57785 0.32949 0.0
C264 C 0.21796 0.57774 0.38165 0.0
C265 C 0.23713 0.57103 0.38586 0.0
C266 C 0.24153 0.56575 0.3279 0.0
C267 C 0.22694 0.56956 0.2954 0.0
C268 C 0.23556 0.55314 0.4208 0.0
C269 C 0.25042 0.58821 0.40759 0.0
C270 C 0.21206 0.55226 0.10356 0.0
C271 C 0.22004 0.54062 0.06425 0.0
C272 C 0.23723 0.53335 0.07406 0.0
C273 C 0.24622 0.53763 0.12282 0.0
C274 C 0.23766 0.54887 0.16249 0.0
C275 C 0.22082 0.55589 0.1522 0.0
C276 C 0.21251 0.5657 0.19994 0.0
C277 C 0.22715 0.56364 0.24087 0.0
C278 C 0.24208 0.55407 0.21888 0.0
C279 C 0.19348 0.55437 0.214 0.0
C280 C 0.21125 0.58708 0.18728 0.0
H281 H 0.27387 0.56234 0.41215 0.0
H282 H 0.31173 0.53294 0.26838 0.0
H283 H 0.29178 0.56773 0.2096 0.0
H284 H 0.2792 0.5547 0.1581 0.0
H285 H 0.29972 0.54559 0.18271 0.0
H286 H 0.26909 0.51173 0.26086 0.0
H287 H 0.28388 0.51433 0.20252 0.0
H288 H 0.25907 0.51631 0.2003 0.0
H289 H 0.21024 0.58139 0.46467 0.0
H290 H 0.16939 0.59304 0.35004 0.0
H291 H 0.19036 0.58525 0.27826 0.0
H292 H 0.22306 0.54327 0.41009 0.0
H293 H 0.23416 0.5574 0.46363 0.0
H294 H 0.24753 0.54441 0.41549 0.0
H295 H 0.24485 0.60228 0.40152 0.0
H296 H 0.26418 0.58925 0.38659 0.0
H297 H 0.25254 0.58724 0.45093 0.0
H298 H 0.30436 0.55384 0.43118 0.0
C299 C 0.28162 0.55617 0.37995 0.0
C300 C 0.10987 0.20874 0.49069 0.0
C301 C 0.11116 0.18875 0.48831 0.0
C302 C 0.11781 0.18001 0.44098 0.0
C303 C 0.11742 0.20998 0.39638 0.0
C304 C 0.1132 0.21912 0.44424 0.0
C305 C 0.11108 0.24017 0.43793 0.0
H306 H 0.08835 0.30975 0.28076 0.0
C307 C 0.11566 0.22348 0.35362 0.0
C308 C 0.11224 0.24131 0.37748 0.0
H309 H 0.10435 0.31482 0.4456 0.0
H310 H 0.11226 0.28205 0.44141 0.0
H311 H 0.12483 0.2858 0.24171 0.0
H312 H 0.06779 0.26581 0.28327 0.0
H313 H 0.07488 0.25315 0.22552 0.0
H314 H 0.07368 0.27878 0.22401 0.0
H315 H 0.10551 0.29059 0.20201 0.0
H316 H 0.11609 0.26824 0.19412 0.0
C317 C 0.12771 0.25209 0.46541 0.0
C318 C 0.09171 0.24466 0.46083 0.0
C319 C 0.1069 0.195 0.16736 0.0
C320 C 0.09893 0.20131 0.12163 0.0
C321 C 0.09512 0.22075 0.12026 0.0
C322 C 0.09823 0.2333 0.16511 0.0
C323 C 0.10503 0.22627 0.21187 0.0
C324 C 0.10939 0.20741 0.21195 0.0
C325 C 0.11505 0.20161 0.26548 0.0
C326 C 0.11338 0.22011 0.29808 0.0
C327 C 0.10776 0.23467 0.26658 0.0
C328 C 0.13561 0.19676 0.26092 0.0
C329 C 0.10104 0.18467 0.28416 0.0
C330 C 0.09351 0.30368 0.31584 0.0
C331 C 0.0956 0.31476 0.36373 0.0
C332 C 0.10269 0.30657 0.40833 0.0
C333 C 0.10716 0.28754 0.40607 0.0
C334 C 0.10443 0.27643 0.35889 0.0
C335 C 0.0984 0.28461 0.31408 0.0
C336 C 0.09801 0.27069 0.2665 0.0
C337 C 0.10492 0.25303 0.29053 0.0
C338 C 0.10793 0.25642 0.34519 0.0
C339 C 0.11172 0.27921 0.22341 0.0
C340 C 0.07758 0.2669 0.24832 0.0
H341 H 0.12524 0.18299 0.35957 0.0
H342 H 0.10526 0.21583 0.52708 0.0
H343 H 0.08055 0.23422 0.44407 0.0
H344 H 0.08809 0.25913 0.4516 0.0
H345 H 0.09113 0.24372 0.50481 0.0
H346 H 0.13873 0.24298 0.47693 0.0
H347 H 0.12308 0.25971 0.50233 0.0
H348 H 0.13489 0.2628 0.43856 0.0
H349 H 0.11033 0.18027 0.16955 0.0
H350 H 0.08903 0.22603 0.08543 0.0
H351 H 0.09466 0.24781 0.16227 0.0
H352 H 0.14411 0.2074 0.23643 0.0
H353 H 0.13659 0.18227 0.24171 0.0
H354 H 0.14243 0.19737 0.29989 0.0
H355 H 0.08878 0.18194 0.25801 0.0
H356 H 0.09486 0.18761 0.32409 0.0
H357 H 0.10774 0.17098 0.28457 0.0
H358 H 0.11905 0.16466 0.43817 0.0
C359 C 0.12104 0.19057 0.39505 0.0
C360 C 0.29222 0.0004 0.05676 0.0
C361 C 0.31127 0.00348 0.04186 0.0
C362 C 0.32402 0.01259 0.07818 0.0
C363 C 0.29955 0.01374 0.1453 0.0
C364 C 0.28664 0.00576 0.10904 0.0
C365 C 0.26717 0.00354 0.13377 0.0
H366 H 0.21338 0.00613 0.36102 0.0
C367 C 0.29002 0.01613 0.19726 0.0
C368 C 0.27093 0.01041 0.19123 0.0
H369 H 0.19408 0.99258 0.20169 0.0
H370 H 0.22591 0.99855 0.16671 0.0
H371 H 0.24928 0.9836 0.35115 0.0
H372 H 0.24047 0.04296 0.3315 0.0
H373 H 0.26131 0.04275 0.36629 0.0
H374 H 0.23971 0.0323 0.39536 0.0
H375 H 0.24559 0.99983 0.40667 0.0
H376 H 0.2686 0.99725 0.3787 0.0
C377 C 0.25974 0.98206 0.12965 0.0
C378 C 0.255 0.01695 0.10552 0.0
C379 C 0.32981 0.03169 0.35892 0.0
C380 C 0.32584 0.03171 0.41388 0.0
C381 C 0.30704 0.03008 0.43171 0.0
C382 C 0.2925 0.02746 0.39524 0.0
C383 C 0.29681 0.02625 0.34038 0.0
C384 C 0.3152 0.02883 0.3232 0.0
C385 C 0.3174 0.02624 0.26398 0.0
C386 C 0.29726 0.02133 0.24824 0.0
C387 C 0.28529 0.02132 0.29297 0.0
C388 C 0.32949 0.00915 0.2524 0.0
C389 C 0.32568 0.04574 0.24182 0.0
C390 C 0.21599 0.00428 0.31858 0.0
C391 C 0.20133 0.99859 0.28414 0.0
C392 C 0.20523 0.99687 0.229 0.0
C393 C 0.22367 1.00033 0.20888 0.0
C394 C 0.23825 0.00578 0.24428 0.0
C395 C 0.23411 0.00789 0.29807 0.0
C396 C 0.25094 0.01421 0.33033 0.0
C397 C 0.26597 0.01586 0.28726 0.0
C398 C 0.25866 0.01064 0.23672 0.0
C399 C 0.25381 0.99806 0.36912 0.0
C400 C 0.24804 0.03402 0.35778 0.0
H401 H 0.32884 0.02434 0.15535 0.0
H402 H 0.28215 0.99362 0.02903 0.0
H403 H 0.26324 0.03071 0.09585 0.0
H404 H 0.24317 0.02121 0.13069 0.0
H405 H 0.24959 0.01011 0.06768 0.0
H406 H 0.27048 0.9729 0.14274 0.0
H407 H 0.25622 0.97761 0.08796 0.0
H408 H 0.24728 0.97867 0.15514 0.0
H409 H 0.34406 0.03249 0.34368 0.0
H410 H 0.3036 0.03022 0.47388 0.0
H411 H 0.2785 0.02582 0.41128 0.0
H412 H 0.32657 0.99792 0.28243 0.0
H413 H 0.34462 0.01402 0.25368 0.0
H414 H 0.32657 0.00145 0.214 0.0
H415 H 0.32187 0.05811 0.26781 0.0
H416 H 0.3201 0.04845 0.20249 0.0
H417 H 0.34116 0.04658 0.2389 0.0
H418 H 0.33867 0.01525 0.06702 0.0
C419 C 0.31827 0.01783 0.1295 0.0
C420 C 0.41334 0.28297 0.07879 0.0
C421 C 0.4087 0.30141 0.06609 0.0
C422 C 0.39957 0.31255 0.10467 0.0
C423 C 0.40186 0.28829 0.16927 0.0
C424 C 0.40935 0.27651 0.13055 0.0
C425 C 0.41227 0.25707 0.15176 0.0
H426 H 0.41188 0.20107 0.36746 0.0
C427 C 0.40091 0.27843 0.21993 0.0
C428 C 0.40634 0.25979 0.21004 0.0
H429 H 0.42511 0.1845 0.20454 0.0
H430 H 0.41883 0.21614 0.17649 0.0
H431 H 0.43389 0.23808 0.36933 0.0
H432 H 0.37555 0.22477 0.34365 0.0
H433 H 0.37817 0.24505 0.38789 0.0
H434 H 0.38694 0.22286 0.40562 0.0
H435 H 0.41737 0.23772 0.42377 0.0
H436 H 0.42426 0.25944 0.38898 0.0
C437 C 0.4332 0.25391 0.14537 0.0
C438 C 0.39915 0.24165 0.12209 0.0
C439 C 0.39793 0.31848 0.39133 0.0
C440 C 0.40042 0.31414 0.44469 0.0
C441 C 0.399 0.29466 0.45841 0.0
C442 C 0.39706 0.27989 0.419 0.0
C443 C 0.39666 0.28462 0.36529 0.0
C444 C 0.3962 0.30358 0.35241 0.0
C445 C 0.39578 0.30597 0.2933 0.0
C446 C 0.39769 0.28542 0.2728 0.0
C447 C 0.39829 0.27308 0.31513 0.0
C448 C 0.41283 0.31992 0.27703 0.0
C449 C 0.37665 0.31293 0.27973 0.0
C450 C 0.41298 0.20399 0.32547 0.0
C451 C 0.41866 0.19011 0.28811 0.0
C452 C 0.42069 0.19492 0.23415 0.0
C453 C 0.41696 0.21325 0.21795 0.0
C454 C 0.41132 0.22695 0.25618 0.0
C455 C 0.40945 0.2221 0.3089 0.0
C456 C 0.40438 0.23848 0.34502 0.0
C457 C 0.40273 0.25388 0.30521 0.0
C458 C 0.40683 0.2472 0.25307 0.0
C459 C 0.42066 0.24373 0.38405 0.0
C460 C 0.38531 0.23256 0.37246 0.0
H461 H 0.38948 0.31536 0.18389 0.0
H462 H 0.41997 0.27395 0.04936 0.0
H463 H 0.38554 0.24725 0.11436 0.0
H464 H 0.39557 0.22872 0.14544 0.0
H465 H 0.4054 0.23731 0.08312 0.0
H466 H 0.44201 0.26712 0.1585 0.0
H467 H 0.43694 0.25053 0.10314 0.0
H468 H 0.43726 0.2423 0.16982 0.0
H469 H 0.39888 0.33323 0.37918 0.0
H470 H 0.40031 0.29085 0.49935 0.0
H471 H 0.39683 0.26539 0.43168 0.0
H472 H 0.42579 0.31561 0.29448 0.0
H473 H 0.41098 0.3349 0.2913 0.0
H474 H 0.41544 0.32023 0.23378 0.0
H475 H 0.36633 0.31133 0.31334 0.0
H476 H 0.37001 0.30434 0.24608 0.0
H477 H 0.37807 0.32838 0.26986 0.0
H478 H 0.3958 0.32672 0.09568 0.0
C479 C 0.39607 0.30605 0.15598 0.0
Tb480 Tb 0.99267 0.98966 0.64025 0.0
C481 C 0.03519 1.00023 0.6116 0.0
Tb482 Tb 0.01718 0.01428 0.72193 0.0
O483 O 0.99081 0.01477 0.59134 0.0
O484 O 0.99482 0.01823 0.67218 0.0
O485 O 0.0205 0.98737 0.60499 0.0
C486 C 0.03761 0.04315 0.7722 0.0
O487 O 0.03625 0.01296 0.65252 0.0
C488 C 0.01469 0.97677 0.73306 0.0
C489 C 0.97515 0.00243 0.75225 0.0
O490 O 0.03365 0.04235 0.7222 0.0
O491 O 0.0303 0.02755 0.79378 0.0
O492 O 0.01858 0.98932 0.77161 0.0
O493 O 0.01479 0.98567 0.69069 0.0
O494 O 0.98942 0.01584 0.75868 0.0
O495 O 0.97422 0.98989 0.71093 0.0
C496 C 0.97254 0.96107 0.58777 0.0
O497 O 0.98163 0.97586 0.56644 0.0
O498 O 0.97447 0.96259 0.63885 0.0
C499 C 0.9946 0.02722 0.6301 0.0
Tb500 Tb 0.50293 0.01922 0.65163 0.0
C501 C 0.5428 0.00492 0.63772 0.0
Tb502 Tb 0.51176 0.98312 0.71262 0.0
O503 O 0.52263 0.03807 0.69976 0.0
O504 O 0.5099 0.01282 0.72927 0.0
O505 O 0.53001 0.01443 0.61563 0.0
C506 C 0.52584 0.95957 0.77915 0.0
O507 O 0.53902 0.99372 0.67892 0.0
C508 C 0.4921 0.97582 0.62614 0.0
C509 C 0.47174 0.99738 0.72572 0.0
O510 O 0.52901 0.95971 0.72812 0.0
O511 O 0.51451 0.97243 0.79246 0.0
O512 O 0.49246 0.9639 0.66449 0.0
O513 O 0.5045 0.98944 0.63513 0.0
O514 O 0.48449 0.98783 0.74796 0.0
O515 O 0.47563 0.00856 0.68457 0.0
C516 C 0.48869 0.04366 0.58816 0.0
O517 O 0.48553 0.04271 0.63905 0.0
O518 O 0.5001 0.03107 0.57311 0.0
C519 C 0.5224 0.02626 0.73851 0.0
Tb520 Tb 0.51966 0.51549 0.63194 0.0
C521 C 0.47724 0.50359 0.6072 0.0
Tb522 Tb 0.49694 0.4861 0.70471 0.0
O523 O 0.51858 0.49409 0.56566 0.0
O524 O 0.51778 0.4857 0.64396 0.0
O525 O 0.49207 0.51606 0.59892 0.0
C526 C 0.47836 0.45469 0.7447 0.0
O527 O 0.4765 0.49034 0.64406 0.0
C528 C 0.50062 0.52211 0.74015 0.0
C529 C 0.53853 0.49861 0.73114 0.0
O530 O 0.48888 0.45504 0.70211 0.0
O531 O 0.4782 0.4721 0.7648 0.0
O532 O 0.49862 0.50755 0.77112 0.0
O533 O 0.49895 0.5159 0.69278 0.0
O534 O 0.52499 0.48431 0.73258 0.0
O535 O 0.53809 0.51348 0.6997 0.0
C536 C 0.53816 0.54687 0.59158 0.0
O537 O 0.54486 0.53031 0.59519 0.0
O538 O 0.52116 0.54558 0.61016 0.0
C539 C 0.5163 0.47952 0.59652 0.0
Tb540 Tb 0.9866 0.4991 0.65736 0.0
C541 C 0.01923 0.47522 0.61833 0.0
Tb542 Tb 0.02087 0.49934 0.72956 0.0
O543 O 0.00364 0.51464 0.59689 0.0
O544 O 0.01003 0.51831 0.67749 0.0
O545 O 0.00106 0.47697 0.61493 0.0
C546 C 0.05516 0.50308 0.76976 0.0
O547 O 0.02973 0.48442 0.6559 0.0
C548 C 0.99182 0.47579 0.75461 0.0
C549 C 0.98831 0.52347 0.7681 0.0
O550 O 0.0438 0.4875 0.7695 0.0
O551 O 0.04715 0.51655 0.74783 0.0
O552 O 0.00347 0.48363 0.78957 0.0
O553 O 0.99763 0.48017 0.70881 0.0
O554 O 0.00642 0.52151 0.77191 0.0
O555 O 0.97779 0.51425 0.73061 0.0
C556 C 0.95241 0.49565 0.61665 0.0
O557 O 0.96008 0.48218 0.63974 0.0
O558 O 0.96405 0.511 0.61614 0.0
C559 C 0.01556 0.52244 0.63115 0.0
C560 C 0.16729 0.00427 0.28878 0.0
C561 C 0.18218 0.99485 0.30708 0.0
C562 C 0.15022 0.00345 0.31723 0.0
C563 C 0.13261 0.99689 0.45446 0.0
H564 H 0.08347 0.99372 0.39338 0.0
C565 C 0.06745 0.01244 0.58084 0.0
C566 C 0.05134 0.99966 0.57383 0.0
C567 C 0.08276 0.01174 0.54565 0.0
C568 C 0.09711 0.99453 0.41101 0.0
H569 H 0.19046 0.97594 0.3666 0.0
H570 H 0.16074 0.97427 0.41557 0.0
H571 H 0.11104 0.99133 0.33509 0.0
H572 H 0.0386 0.97636 0.52339 0.0
H573 H 0.06538 0.97509 0.46229 0.0
H574 H 0.11884 0.99993 0.53023 0.0
C575 C 0.16231 0.98272 0.38027 0.0
C576 C 0.11289 0.99331 0.37759 0.0
C577 C 0.17929 0.98358 0.35207 0.0
C578 C 0.0508 0.98638 0.5302 0.0
C579 C 0.0661 0.98573 0.49488 0.0
C580 C 0.11691 0.99821 0.4877 0.0
C581 C 0.14778 0.99318 0.36433 0.0
C582 C 0.13082 0.99438 0.39903 0.0
C583 C 0.08233 0.99829 0.50245 0.0
C584 C 0.09896 0.99704 0.46648 0.0
H585 H 0.1692 0.01314 0.25437 0.0
H586 H 0.1393 0.01169 0.30393 0.0
H587 H 0.14624 0.99808 0.47228 0.0
H588 H 0.06832 0.02298 0.61367 0.0
H589 H 0.09494 0.02181 0.55218 0.0
C590 C 0.43966 0.16321 0.28971 0.0
C591 C 0.42323 0.17122 0.30702 0.0
C592 C 0.44548 0.14726 0.31469 0.0
C593 C 0.44256 0.12674 0.44535 0.0
H594 H 0.46147 0.08151 0.37707 0.0
C595 C 0.46467 0.06599 0.57043 0.0
C596 C 0.48025 0.05665 0.5529 0.0
C597 C 0.45674 0.07849 0.53741 0.0
C598 C 0.45647 0.09417 0.39682 0.0
H599 H 0.39918 0.16771 0.36076 0.0
H600 H 0.40946 0.14019 0.40464 0.0
H601 H 0.44944 0.10571 0.32278 0.0
H602 H 0.49968 0.05273 0.4871 0.0
H603 H 0.48645 0.07524 0.43014 0.0
H604 H 0.45012 0.1159 0.51902 0.0
C605 C 0.41799 0.1464 0.37242 0.0
C606 C 0.4495 0.10796 0.36563 0.0
C607 C 0.41213 0.16216 0.34729 0.0
C608 C 0.48766 0.05981 0.50153 0.0
C609 C 0.47995 0.0726 0.46876 0.0
C610 C 0.44974 0.11317 0.47639 0.0
C611 C 0.43499 0.13915 0.35753 0.0
C612 C 0.44237 0.12431 0.38969 0.0
C613 C 0.46446 0.08225 0.48641 0.0
C614 C 0.45672 0.09661 0.4527 0.0
H615 H 0.44857 0.1699 0.25901 0.0
H616 H 0.45866 0.14195 0.30249 0.0
H617 H 0.43748 0.1394 0.46493 0.0
H618 H 0.4585 0.06354 0.6096 0.0
H619 H 0.44453 0.0852 0.55201 0.0
C620 C 0.33648 0.52084 0.34896 0.0
C621 C 0.32976 0.53853 0.36484 0.0
C622 C 0.35326 0.51566 0.36902 0.0
C623 C 0.38045 0.52344 0.48843 0.0
H624 H 0.42248 0.5057 0.40712 0.0
C625 C 0.44312 0.49581 0.58996 0.0
C626 C 0.4606 0.50483 0.57447 0.0
C627 C 0.42725 0.49788 0.56052 0.0
C628 C 0.41078 0.51056 0.43022 0.0
H629 H 0.33621 0.5653 0.41026 0.0
H630 H 0.36505 0.55606 0.44591 0.0
H631 H 0.39475 0.51378 0.36072 0.0
H632 H 0.47525 0.52232 0.51439 0.0
H633 H 0.44754 0.52575 0.46287 0.0
H634 H 0.39632 0.52037 0.55781 0.0
C635 C 0.35726 0.54611 0.41874 0.0
C636 C 0.39494 0.51507 0.40375 0.0
C637 C 0.34072 0.55135 0.39838 0.0
C638 C 0.46196 0.51534 0.52776 0.0
C639 C 0.44614 0.51718 0.49794 0.0
C640 C 0.39609 0.51864 0.51484 0.0
C641 C 0.36344 0.52803 0.40547 0.0
C642 C 0.37978 0.52188 0.43266 0.0
C643 C 0.42857 0.50875 0.51453 0.0
C644 C 0.41152 0.5124 0.48605 0.0
H645 H 0.32836 0.51065 0.32324 0.0
H646 H 0.3578 0.50164 0.35812 0.0
H647 H 0.36888 0.52851 0.51166 0.0
H648 H 0.44157 0.48753 0.62555 0.0
H649 H 0.41389 0.49111 0.574 0.0
C650 C 0.07134 0.33812 0.35982 0.0
C651 C 0.08981 0.33454 0.36943 0.0
C652 C 0.06476 0.35567 0.37673 0.0
C653 C 0.07483 0.39324 0.48114 0.0
H654 H 0.03721 0.41954 0.41338 0.0
C655 C 0.04751 0.46091 0.57979 0.0
C656 C 0.02807 0.4618 0.58048 0.0
C657 C 0.05577 0.44725 0.54724 0.0
C658 C 0.04765 0.41228 0.43289 0.0
H659 H 0.11634 0.34694 0.39966 0.0
H660 H 0.10509 0.37772 0.42776 0.0
H661 H 0.05064 0.39254 0.36627 0.0
H662 H 0.00214 0.44942 0.54585 0.0
H663 H 0.01654 0.42538 0.48969 0.0
H664 H 0.07165 0.41251 0.54807 0.0
C665 C 0.09548 0.36685 0.40874 0.0
C666 C 0.05535 0.39683 0.40588 0.0
C667 C 0.10197 0.34931 0.3923 0.0
C668 C 0.01716 0.44914 0.54637 0.0
C669 C 0.02543 0.43541 0.5139 0.0
C670 C 0.06717 0.4086 0.50801 0.0
C671 C 0.0766 0.36995 0.40325 0.0
C672 C 0.06901 0.3871 0.42981 0.0
C673 C 0.0448 0.43407 0.51471 0.0
C674 C 0.05343 0.41828 0.48441 0.0
H675 H 0.06167 0.32688 0.34262 0.0
H676 H 0.05013 0.35755 0.37202 0.0
H677 H 0.08495 0.38579 0.50143 0.0
H678 H 0.05639 0.47057 0.60503 0.0
H679 H 0.07077 0.44687 0.54807 0.0
C680 C 0.83588 0.97383 0.03549 0.0
C681 C 0.82843 0.99013 0.05877 0.0
C682 C 0.85338 0.97543 0.01014 0.0
C683 C 0.89732 0.0059 0.98791 0.0
H684 H 0.89414 0.98202 0.84619 0.0
C685 C 0.95644 0.0173 0.82628 0.0
C686 C 0.95945 0.00154 0.79162 0.0
C687 C 0.94132 0.01632 0.86265 0.0
C688 C 0.89545 0.98852 0.88586 0.0
H689 H 0.83391 0.02063 0.07734 0.0
H690 H 0.86484 0.0235 0.03285 0.0
H691 H 0.8671 0.97926 0.90591 0.0
H692 H 0.94951 0.97206 0.76978 0.0
H693 H 0.92359 0.97017 0.83363 0.0
H694 H 0.92585 0.01501 0.96774 0.0
C695 C 0.85708 0.00947 0.03439 0.0
C696 C 0.87989 0.98697 0.92012 0.0
C697 C 0.83944 0.00784 0.05995 0.0
C698 C 0.94736 0.98462 0.7951 0.0
C699 C 0.93243 0.98356 0.83172 0.0
C700 C 0.91306 0.00732 0.95361 0.0
C701 C 0.86384 0.9934 0.00731 0.0
C702 C 0.88065 0.99547 0.97167 0.0
C703 C 0.929 0.99948 0.86548 0.0
C704 C 0.91234 0.9985 0.90223 0.0
H705 H 0.82768 0.95999 0.03439 0.0
H706 H 0.85839 0.96273 0.99063 0.0
H707 H 0.8983 0.01261 0.02742 0.0
H708 H 0.96555 0.03053 0.82463 0.0
H709 H 0.93905 0.02891 0.88765 0.0
C710 C 0.60348 0.84368 0.01631 0.0
C711 C 0.59361 0.83444 0.05851 0.0
C712 C 0.59736 0.8601 0.99522 0.0
C713 C 0.55394 0.88398 0.98388 0.0
H714 H 0.58716 0.92181 0.91082 0.0
C715 C 0.52749 0.94616 0.86925 0.0
C716 C 0.53431 0.94736 0.81657 0.0
C717 C 0.53538 0.93446 0.90472 0.0
C718 C 0.57773 0.91133 0.93108 0.0
H719 H 0.5703 0.83612 0.11422 0.0
H720 H 0.55994 0.86532 0.07873 0.0
H721 H 0.60017 0.89867 0.9662 0.0
H722 H 0.55503 0.93786 0.75995 0.0
H723 H 0.56909 0.91767 0.82232 0.0
H724 H 0.53152 0.89681 0.94873 0.0
C725 C 0.57214 0.85947 0.06079 0.0
C726 C 0.58516 0.89801 0.96272 0.0
C727 C 0.57822 0.84287 0.0817 0.0
C728 C 0.54942 0.93704 0.80025 0.0
C729 C 0.55754 0.92563 0.83602 0.0
C730 C 0.54652 0.89747 0.95288 0.0
C731 C 0.58129 0.86796 0.01614 0.0
C732 C 0.57339 0.88382 0.98853 0.0
C733 C 0.55047 0.92407 0.88844 0.0
C734 C 0.55835 0.911 0.92523 0.0
H735 H 0.6156 0.83774 0.99808 0.0
H736 H 0.60475 0.86601 0.96068 0.0
H737 H 0.54439 0.87315 0.00225 0.0
H738 H 0.51591 0.95407 0.88288 0.0
H739 H 0.52973 0.93359 0.94498 0.0
C740 C 0.67449 0.49648 0.02121 0.0
C741 C 0.67887 0.47734 0.02312 0.0
C742 C 0.65843 0.50079 0.99541 0.0
C743 C 0.61253 0.47982 0.95008 0.0
H744 H 0.61904 0.51607 0.83679 0.0
C745 C 0.55806 0.4804 0.78819 0.0
C746 C 0.55452 0.49791 0.76668 0.0
C747 C 0.57269 0.47957 0.82309 0.0
C748 C 0.61684 0.50617 0.86889 0.0
H749 H 0.66974 0.44768 0.00167 0.0
H750 H 0.6415 0.45511 0.95794 0.0
H751 H 0.64512 0.51196 0.89424 0.0
H752 H 0.56352 0.5284 0.7653 0.0
H753 H 0.58892 0.52707 0.82734 0.0
H754 H 0.58433 0.47398 0.92534 0.0
C755 C 0.65046 0.4668 0.9759 0.0
C756 C 0.63181 0.50382 0.90175 0.0
C757 C 0.66662 0.46255 0.00071 0.0
C758 C 0.56601 0.51464 0.7808 0.0
C759 C 0.58059 0.51386 0.81632 0.0
C760 C 0.59752 0.48233 0.91776 0.0
C761 C 0.64635 0.48597 0.97218 0.0
C762 C 0.62992 0.49029 0.94185 0.0
C763 C 0.58407 0.4963 0.83812 0.0
C764 C 0.59959 0.49516 0.8758 0.0
H765 H 0.68383 0.50812 0.03791 0.0
H766 H 0.65553 0.51568 0.99323 0.0
H767 H 0.61062 0.46947 0.98117 0.0
H768 H 0.54958 0.4672 0.77778 0.0
H769 H 0.57519 0.4657 0.83781 0.0
C770 C 0.93448 0.67235 0.92684 0.0
C771 C 0.92458 0.67497 0.97509 0.0
C772 C 0.94108 0.6547 0.91273 0.0
C773 C 0.95419 0.6092 0.95957 0.0
H774 H 0.9414 0.59094 0.8163 0.0
C775 C 0.9906 0.54993 0.83908 0.0
C776 C 0.97964 0.53756 0.80436 0.0
C777 C 0.98275 0.5648 0.86821 0.0
C778 C 0.9449 0.59565 0.85665 0.0
H779 H 0.91492 0.66142 0.04804 0.0
H780 H 0.9268 0.63027 0.02334 0.0
H781 H 0.93041 0.62085 0.85176 0.0
H782 H 0.95151 0.53031 0.77603 0.0
H783 H 0.9379 0.55611 0.82685 0.0
H784 H 0.96902 0.58401 0.96379 0.0
C785 C 0.92921 0.64201 0.99641 0.0
C786 C 0.93875 0.6129 0.87675 0.0
C787 C 0.92245 0.6598 0.01054 0.0
C788 C 0.96045 0.53971 0.80178 0.0
C789 C 0.95263 0.55454 0.83084 0.0
C790 C 0.96052 0.59192 0.93918 0.0
C791 C 0.93811 0.63919 0.94664 0.0
C792 C 0.94356 0.62003 0.92804 0.0
C793 C 0.96378 0.5676 0.86319 0.0
C794 C 0.95607 0.58506 0.88724 0.0
H795 H 0.93682 0.68392 0.8993 0.0
H796 H 0.94829 0.65307 0.87469 0.0
H797 H 0.9581 0.61441 0.99922 0.0
H798 H 0.00541 0.54866 0.84222 0.0
H799 H 0.99174 0.57468 0.89254 0.0
C800 C 0.08367 0.17856 0.54581 0.0
C801 C 0.10226 0.17641 0.53008 0.0
C802 C 0.07311 0.16396 0.57243 0.0
C803 C 0.07201 0.11146 0.57755 0.0
H804 H 0.02652 0.11732 0.6602 0.0
C805 C 0.01307 0.05118 0.57486 0.0
C806 C 0.00397 0.04661 0.62322 0.0
C807 C 0.02488 0.0681 0.57105 0.0
C808 C 0.03926 0.11539 0.63761 0.0
H809 H 0.12505 0.15847 0.53527 0.0
H810 H 0.10687 0.13327 0.5839 0.0
H811 H 0.04946 0.145 0.64971 0.0
H812 H 0.99856 0.05673 0.70406 0.0
H813 H 0.01939 0.08635 0.69776 0.0
H814 H 0.06207 0.08188 0.5661 0.0
C815 C 0.10019 0.14587 0.57384 0.0
C816 C 0.05237 0.1313 0.63125 0.0
C817 C 0.11067 0.16036 0.54644 0.0
C818 C 0.00564 0.05993 0.66648 0.0
C819 C 0.01754 0.07687 0.6628 0.0
C820 C 0.05904 0.09559 0.58433 0.0
C821 C 0.08098 0.14699 0.5844 0.0
C822 C 0.06867 0.12966 0.5998 0.0
C823 C 0.02785 0.08078 0.61558 0.0
C824 C 0.04223 0.09747 0.61289 0.0
H825 H 0.07675 0.19069 0.53328 0.0
H826 H 0.05839 0.16538 0.57945 0.0
H827 H 0.08422 0.10956 0.55255 0.0
H828 H 0.01184 0.04123 0.5407 0.0
H829 H 0.03208 0.07099 0.53347 0.0
C830 C 0.3588 0.04089 0.44161 0.0
C831 C 0.34135 0.03063 0.45108 0.0
C832 C 0.37462 0.03622 0.46741 0.0
C833 C 0.39125 0.99364 0.52467 0.0
H834 H 0.43513 0.02832 0.55675 0.0
C835 C 0.4577 0.96975 0.61675 0.0
C836 C 0.47492 0.97824 0.59767 0.0
C837 C 0.44104 0.97588 0.59948 0.0
C838 C 0.423 0.01848 0.54745 0.0
H839 H 0.3265 0.00876 0.49908 0.0
H840 H 0.35393 0.00119 0.5457 0.0
H841 H 0.40621 0.04147 0.5338 0.0
H842 H 0.48834 0.99777 0.54104 0.0
H843 H 0.45915 0.00881 0.51097 0.0
H844 H 0.40805 0.97067 0.53828 0.0
C845 C 0.35551 0.0124 0.51697 0.0
C846 C 0.40643 0.026 0.53454 0.0
C847 C 0.33971 0.01696 0.49083 0.0
C848 C 0.4752 0.99162 0.55758 0.0
C849 C 0.45855 0.99789 0.54053 0.0
C850 C 0.40775 0.98615 0.53788 0.0
C851 C 0.37326 0.0213 0.50362 0.0
C852 C 0.3904 0.01365 0.52252 0.0
C853 C 0.44135 0.9905 0.56262 0.0
C854 C 0.42383 0.99847 0.54883 0.0
H855 H 0.36043 0.05175 0.41187 0.0
H856 H 0.38804 0.04341 0.45619 0.0
H857 H 0.37932 0.98367 0.51445 0.0
H858 H 0.45707 0.9594 0.64783 0.0
H859 H 0.42798 0.96994 0.6172 0.0
C860 C 0.42227 0.32659 0.51668 0.0
C861 C 0.40765 0.32971 0.48293 0.0
C862 C 0.4326 0.34209 0.54196 0.0
C863 C 0.43626 0.39566 0.56423 0.0
H864 H 0.48926 0.39027 0.54585 0.0
C865 C 0.49093 0.46057 0.54716 0.0
C866 C 0.50601 0.46106 0.5815 0.0
C867 C 0.47881 0.44387 0.54106 0.0
C868 C 0.47452 0.39191 0.55175 0.0
H869 H 0.39095 0.35141 0.45495 0.0
H870 H 0.40945 0.37845 0.49676 0.0
H871 H 0.46688 0.36234 0.53139 0.0
H872 H 0.52126 0.44443 0.63322 0.0
H873 H 0.50047 0.41477 0.62061 0.0
H874 H 0.44411 0.42555 0.58199 0.0
C875 C 0.41295 0.36406 0.50411 0.0
C876 C 0.46164 0.37588 0.54395 0.0
C877 C 0.40243 0.34853 0.4795 0.0
C878 C 0.50967 0.44427 0.60653 0.0
C879 C 0.49776 0.42742 0.59955 0.0
C880 C 0.44916 0.41173 0.57135 0.0
C881 C 0.42873 0.36108 0.5335 0.0
C882 C 0.44232 0.3776 0.54916 0.0
C883 C 0.48189 0.42729 0.56815 0.0
C884 C 0.46837 0.41004 0.56418 0.0
H885 H 0.42676 0.31234 0.52045 0.0
H886 H 0.4443 0.33922 0.56568 0.0
H887 H 0.42153 0.39746 0.56954 0.0
H888 H 0.48791 0.47338 0.52733 0.0
H889 H 0.46686 0.444 0.5158 0.0
C890 C 0.16064 0.60244 0.45543 0.0
C891 C 0.17354 0.58853 0.45568 0.0
C892 C 0.1444 0.6005 0.48715 0.0
C893 C 0.11915 0.57105 0.59207 0.0
H894 H 0.07647 0.5756 0.50393 0.0
C895 C 0.0402 0.53324 0.56506 0.0
C896 C 0.03319 0.53376 0.61752 0.0
C897 C 0.05719 0.54346 0.55201 0.0
C898 C 0.08824 0.5743 0.52913 0.0
H899 H 0.1803 0.56257 0.49244 0.0
H900 H 0.15198 0.55906 0.54719 0.0
H901 H 0.10737 0.58813 0.4735 0.0
H902 H 0.03781 0.54597 0.69707 0.0
H903 H 0.06782 0.56365 0.67448 0.0
H904 H 0.09995 0.55618 0.64628 0.0
C905 C 0.15442 0.57161 0.52315 0.0
C906 C 0.10594 0.58175 0.51208 0.0
C907 C 0.1707 0.57361 0.49167 0.0
C908 C 0.04322 0.54497 0.6566 0.0
C909 C 0.0603 0.55514 0.64363 0.0
C910 C 0.10137 0.56359 0.60917 0.0
C911 C 0.14069 0.58454 0.51941 0.0
C912 C 0.1217 0.57974 0.5426 0.0
C913 C 0.06747 0.55445 0.59116 0.0
C914 C 0.08583 0.56463 0.57702 0.0
H915 H 0.16264 0.61426 0.42862 0.0
H916 H 0.13429 0.61095 0.4843 0.0
H917 H 0.13097 0.56945 0.61674 0.0
H918 H 0.03273 0.52466 0.53424 0.0
H919 H 0.06247 0.54239 0.5114 0.0
C920 C 0.9204 0.82874 0.8214 0.0
C921 C 0.90209 0.83136 0.83905 0.0
C922 C 0.93111 0.84327 0.795 0.0
C923 C 0.95214 0.87544 0.73552 0.0
H924 H 0.94505 0.92528 0.8023 0.0
C925 C 0.00171 0.94457 0.69757 0.0
C926 C 0.00431 0.95788 0.74057 0.0
C927 C 0.98895 0.92829 0.70195 0.0
C928 C 0.94737 0.91143 0.78363 0.0
H929 H 0.87995 0.85029 0.83789 0.0
H930 H 0.8984 0.87544 0.78968 0.0
H931 H 0.92217 0.89836 0.81784 0.0
H932 H 0.99705 0.96392 0.82324 0.0
H933 H 0.97539 0.93526 0.83174 0.0
H934 H 0.97806 0.8884 0.70428 0.0
C935 C 0.90475 0.86246 0.79803 0.0
C936 C 0.93396 0.89601 0.79157 0.0
C937 C 0.8941 0.84801 0.82522 0.0
C938 C 0.99516 0.95395 0.78929 0.0
C939 C 0.98251 0.93767 0.79381 0.0
C940 C 0.96571 0.89086 0.72813 0.0
C941 C 0.9237 0.86069 0.7851 0.0
C942 C 0.93637 0.87766 0.76876 0.0
C943 C 0.97871 0.92502 0.74965 0.0
C944 C 0.96372 0.90891 0.75339 0.0
H945 H 0.92704 0.81617 0.83203 0.0
H946 H 0.94565 0.84134 0.78629 0.0
H947 H 0.95431 0.86162 0.71644 0.0
H948 H 0.00878 0.94728 0.65969 0.0
H949 H 0.98649 0.91883 0.6672 0.0
C950 C 0.66651 0.98118 0.92415 0.0
C951 C 0.66233 0.96812 0.96481 0.0
C952 C 0.65252 0.98587 0.89089 0.0
C953 C 0.60242 0.97401 0.85609 0.0
H954 H 0.60413 0.02929 0.84175 0.0
C955 C 0.53716 0.01148 0.81271 0.0
C956 C 0.53891 0.0237 0.76971 0.0
C957 C 0.55297 0.00479 0.83383 0.0
C958 C 0.60355 0.01382 0.84503 0.0
H959 H 0.64073 0.94806 0.99823 0.0
H960 H 0.6162 0.9568 0.94196 0.0
H961 H 0.6308 0.01546 0.87717 0.0
H962 H 0.55847 0.04008 0.71804 0.0
H963 H 0.58623 0.02883 0.75601 0.0
H964 H 0.57476 0.97265 0.82582 0.0
C965 C 0.63025 0.96341 0.93536 0.0
C966 C 0.61889 0.00582 0.86488 0.0
C967 C 0.64429 0.95854 0.96815 0.0
C968 C 0.55677 0.03066 0.75136 0.0
C969 C 0.57263 0.02411 0.77276 0.0
C970 C 0.587 0.98206 0.83679 0.0
C971 C 0.63402 0.97778 0.89796 0.0
C972 C 0.61846 0.98583 0.87122 0.0
C973 C 0.5708 0.01059 0.81288 0.0
C974 C 0.58736 0.00206 0.83173 0.0
H975 H 0.68024 0.98885 0.92032 0.0
H976 H 0.65603 0.99658 0.86141 0.0
H977 H 0.60168 0.95855 0.85967 0.0
H978 H 0.5235 0.00648 0.82845 0.0
H979 H 0.55124 0.99475 0.8657 0.0
C980 C 0.61167 0.66108 0.84739 0.0
C981 C 0.60271 0.67763 0.86105 0.0
C982 C 0.60172 0.64501 0.8233 0.0
C983 C 0.57532 0.60901 0.81547 0.0
H984 H 0.52921 0.61243 0.74192 0.0
C985 C 0.52085 0.54363 0.80069 0.0
C986 C 0.50995 0.54111 0.75518 0.0
C987 C 0.53218 0.56076 0.80976 0.0
C988 C 0.54217 0.61099 0.7616 0.0
H989 H 0.57666 0.69074 0.85908 0.0
H990 H 0.55911 0.66275 0.81998 0.0
H991 H 0.55064 0.64087 0.75433 0.0
H992 H 0.50068 0.5549 0.68666 0.0
H993 H 0.52156 0.58403 0.69917 0.0
H994 H 0.56752 0.57889 0.81938 0.0
C995 C 0.5739 0.66209 0.82531 0.0
C996 C 0.5544 0.62752 0.76964 0.0
C997 C 0.58396 0.67824 0.84798 0.0
C998 C 0.50962 0.55632 0.7208 0.0
C999 C 0.52135 0.57319 0.72877 0.0
C1000 C 0.56338 0.59236 0.80593 0.0
C1001 C 0.58246 0.645 0.81408 0.0
C1002 C 0.57089 0.62691 0.79815 0.0
C1003 C 0.5331 0.57555 0.77292 0.0
C1004 C 0.54636 0.59317 0.7802 0.0
H1005 H 0.62614 0.66033 0.85722 0.0
H1006 H 0.60899 0.63238 0.81384 0.0
H1007 H 0.58771 0.6078 0.8381 0.0
H1008 H 0.52118 0.53213 0.82818 0.0
H1009 H 0.5404 0.5622 0.84534 0.0
C1010 C 0.8306 0.43016 0.84864 0.0
C1011 C 0.82579 0.41583 0.88549 0.0
C1012 C 0.84831 0.43178 0.8243 0.0
C1013 C 0.88647 0.43112 0.77035 0.0
H1014 H 0.92449 0.42731 0.87493 0.0
C1015 C 0.96456 0.45343 0.72637 0.0
C1016 C 0.97381 0.46487 0.76644 0.0
C1017 C 0.94686 0.44409 0.73628 0.0
C1018 C 0.91405 0.42845 0.84525 0.0
H1019 H 0.83493 0.39075 0.92147 0.0
H1020 H 0.86578 0.39333 0.8781 0.0
H1021 H 0.89222 0.41618 0.89584 0.0
H1022 H 0.97232 0.47507 0.84865 0.0
H1023 H 0.94134 0.45884 0.86622 0.0
H1024 H 0.90826 0.44439 0.72094 0.0
C1025 C 0.85607 0.40364 0.86914 0.0
C1026 C 0.89556 0.42178 0.85688 0.0
C1027 C 0.83838 0.40208 0.89371 0.0
C1028 C 0.96543 0.4663 0.81716 0.0
C1029 C 0.94774 0.45694 0.82717 0.0
C1030 C 0.90499 0.43782 0.75873 0.0
C1031 C 0.86154 0.41905 0.83615 0.0
C1032 C 0.88147 0.42342 0.82005 0.0
C1033 C 0.93816 0.4459 0.78665 0.0
C1034 C 0.91891 0.43696 0.79659 0.0
H1035 H 0.82127 0.44108 0.84192 0.0
H1036 H 0.85207 0.44391 0.79942 0.0
H1037 H 0.87598 0.43243 0.74093 0.0
H1038 H 0.97097 0.45179 0.68723 0.0
H1039 H 0.93998 0.43546 0.70451 0.0
C1040 C 0.09642 0.19106 0.02413 0.0
C1041 C 0.09339 0.18699 0.07817 0.0
C1042 C 0.09223 0.17669 0.9844 0.0
C1043 C 0.08768 0.12408 0.96633 0.0
H1044 H 0.05638 0.13047 0.84644 0.0
C1045 C 0.04931 0.05951 0.85619 0.0
C1046 C 0.04718 0.05989 0.80105 0.0
C1047 C 0.05719 0.07574 0.88449 0.0
C1048 C 0.06543 0.12854 0.87913 0.0
H1049 H 0.08225 0.16512 0.13241 0.0
H1050 H 0.07541 0.14027 0.06382 0.0
H1051 H 0.06587 0.15824 0.90547 0.0
H1052 H 0.05194 0.07734 0.73181 0.0
H1053 H 0.06584 0.10581 0.78135 0.0
H1054 H 0.08716 0.09447 0.94099 0.0
C1055 C 0.08139 0.15433 0.05205 0.0
C1056 C 0.07083 0.14444 0.9129 0.0
C1057 C 0.08537 0.16859 0.09136 0.0
C1058 C 0.05338 0.07671 0.77443 0.0
C1059 C 0.06125 0.09302 0.80281 0.0
C1060 C 0.08241 0.10829 0.93259 0.0
C1061 C 0.08507 0.15806 0.99826 0.0
C1062 C 0.08154 0.1422 0.95773 0.0
C1063 C 0.06316 0.09274 0.85828 0.0
C1064 C 0.07075 0.11016 0.88954 0.0
H1065 H 0.10252 0.2051 0.01271 0.0
H1066 H 0.0951 0.17995 0.94311 0.0
H1067 H 0.09625 0.12203 6e-05 0.0
H1068 H 0.04455 0.04678 0.87772 0.0
H1069 H 0.05812 0.0751 0.92726 0.0
C1070 C 0.33013 0.98124 0.98989 0.0
C1071 C 0.31892 0.99663 0.99034 0.0
C1072 C 0.34293 0.97856 0.9482 0.0
C1073 C 0.37086 0.00862 0.85291 0.0
H1074 H 0.39186 0.96057 0.81577 0.0
C1075 C 0.43858 0.00584 0.72527 0.0
C1076 C 0.45219 0.9953 0.74665 0.0
C1077 C 0.42027 0.00434 0.74571 0.0
C1078 C 0.38613 0.97409 0.82577 0.0
H1079 H 0.31119 0.02048 0.94621 0.0
H1080 H 0.33301 0.01538 0.87171 0.0
H1081 H 0.3619 0.96009 0.86383 0.0
H1082 H 0.45691 0.97438 0.80516 0.0
H1083 H 0.42494 0.97182 0.84082 0.0
H1084 H 0.39521 0.02259 0.81539 0.0
C1085 C 0.33226 0.00558 0.90412 0.0
C1086 C 0.36896 0.97385 0.85335 0.0
C1087 C 0.31951 0.00832 0.94621 0.0
C1088 C 0.44686 0.98281 0.78796 0.0
C1089 C 0.42849 0.98121 0.80813 0.0
C1090 C 0.3879 0.00884 0.82485 0.0
C1091 C 0.34481 0.99127 0.90593 0.0
C1092 C 0.36132 0.99115 0.86862 0.0
C1093 C 0.41505 0.99215 0.78769 0.0
C1094 C 0.39597 0.99162 0.81215 0.0
H1095 H 0.33015 0.9723 0.02413 0.0
H1096 H 0.35239 0.96751 0.95161 0.0
H1097 H 0.36571 0.02228 0.86466 0.0
H1098 H 0.44208 0.01544 0.69299 0.0
H1099 H 0.41018 0.01279 0.72875 0.0
C1100 C 0.43342 0.31373 0.00137 0.0
C1101 C 0.4144 0.31021 0.01495 0.0
C1102 C 0.43922 0.32664 0.9617 0.0
C1103 C 0.44848 0.35241 0.86771 0.0
H1104 H 0.42117 0.3978 0.87661 0.0
C1105 C 0.46978 0.41911 0.74177 0.0
C1106 C 0.46916 0.43713 0.76831 0.0
C1107 C 0.46192 0.40234 0.76546 0.0
C1108 C 0.42902 0.38529 0.8737 0.0
H1109 H 0.38644 0.31595 0.99495 0.0
H1110 H 0.39642 0.33779 0.9242 0.0
H1111 H 0.41008 0.36995 0.92702 0.0
H1112 H 0.45969 0.45186 0.8399 0.0
H1113 H 0.44625 0.42269 0.88172 0.0
H1114 H 0.46796 0.36827 0.81635 0.0
C1115 C 0.40696 0.33118 0.94518 0.0
C1116 C 0.42248 0.36912 0.90202 0.0
C1117 C 0.4012 0.31849 0.98521 0.0
C1118 C 0.46029 0.43815 0.81849 0.0
C1119 C 0.4525 0.42141 0.84227 0.0
C1120 C 0.45508 0.36866 0.83946 0.0
C1121 C 0.42607 0.33614 0.9346 0.0
C1122 C 0.43223 0.35253 0.90001 0.0
C1123 C 0.4533 0.40326 0.81624 0.0
C1124 C 0.44558 0.38542 0.8428 0.0
H1125 H 0.44386 0.30771 0.02425 0.0
H1126 H 0.45405 0.33014 0.95497 0.0
H1127 H 0.45627 0.33986 0.86478 0.0
H1128 H 0.47646 0.41794 0.70285 0.0
H1129 H 0.46257 0.38867 0.74392 0.0
C1130 C 0.20387 0.51528 0.00413 0.0
C1131 C 0.20911 0.53482 0.01615 0.0
C1132 C 0.1898 0.50991 0.96756 0.0
C1133 C 0.1607 0.52795 0.86355 0.0
H1134 H 0.12164 0.49243 0.92253 0.0
C1135 C 0.08479 0.52308 0.79177 0.0
C1136 C 0.07419 0.50515 0.79119 0.0
C1137 C 0.10268 0.52518 0.81292 0.0
C1138 C 0.13249 0.50209 0.90477 0.0
H1139 H 0.20487 0.56399 0.99665 0.0
H1140 H 0.18054 0.55468 0.93244 0.0
H1141 H 0.15133 0.49827 0.96709 0.0
H1142 H 0.07408 0.47525 0.81095 0.0
H1143 H 0.10545 0.47875 0.84702 0.0
H1144 H 0.14177 0.53199 0.8016 0.0
C1145 C 0.18718 0.54347 0.95112 0.0
C1146 C 0.14957 0.50542 0.93038 0.0
C1147 C 0.20109 0.54882 0.98796 0.0
C1148 C 0.08191 0.48927 0.8113 0.0
C1149 C 0.09986 0.49132 0.83218 0.0
C1150 C 0.14366 0.52452 0.83769 0.0
C1151 C 0.18086 0.52398 0.94201 0.0
C1152 C 0.16376 0.51865 0.91065 0.0
C1153 C 0.11045 0.50935 0.83368 0.0
C1154 C 0.12918 0.51182 0.85853 0.0
H1155 H 0.20971 0.50422 0.02568 0.0
H1156 H 0.18537 0.49476 0.9609 0.0
H1157 H 0.17143 0.53809 0.84706 0.0
H1158 H 0.07916 0.53557 0.77645 0.0
H1159 H 0.11024 0.53934 0.81409 0.0
C1160 C 0.91389 0.81233 0.33825 0.0
C1161 C 0.91697 0.81587 0.28398 0.0
C1162 C 0.92012 0.82627 0.37721 0.0
C1163 C 0.95372 0.86949 0.39572 0.0
H1164 H 0.92012 0.88488 0.50927 0.0
C1165 C 0.96534 0.94313 0.50226 0.0
C1166 C 0.96407 0.94396 0.55799 0.0
C1167 C 0.95934 0.92625 0.47369 0.0
C1168 C 0.92972 0.88057 0.47815 0.0
H1169 H 0.92961 0.83637 0.22808 0.0
H1170 H 0.94017 0.8605 0.29521 0.0
H1171 H 0.91082 0.85676 0.45112 0.0
H1172 H 0.95483 0.92811 0.62768 0.0
H1173 H 0.94418 0.89844 0.57741 0.0
H1174 H 0.97239 0.89347 0.42146 0.0
C1175 C 0.93303 0.84707 0.30812 0.0
C1176 C 0.92444 0.86445 0.44501 0.0
C1177 C 0.92677 0.83331 0.26954 0.0
C1178 C 0.95599 0.92782 0.58465 0.0
C1179 C 0.94987 0.91088 0.55594 0.0
C1180 C 0.95893 0.88556 0.4285 0.0
C1181 C 0.92976 0.84381 0.36242 0.0
C1182 C 0.93619 0.85907 0.40251 0.0
C1183 C 0.95187 0.90981 0.50018 0.0
C1184 C 0.94681 0.8916 0.46918 0.0
H1185 H 0.90637 0.799 0.35043 0.0
H1186 H 0.91747 0.82332 0.41879 0.0
H1187 H 0.96328 0.86546 0.36415 0.0
H1188 H 0.97146 0.95538 0.4807 0.0
H1189 H 0.96073 0.92599 0.43069 0.0
C1190 C 0.69814 0.99467 0.44614 0.0
C1191 C 0.70443 0.00888 0.41028 0.0
C1192 C 0.68317 0.9975 0.48138 0.0
C1193 C 0.64051 0.02107 0.47952 0.0
H1194 H 0.63251 0.00442 0.62407 0.0
C1195 C 0.56825 0.0225 0.58352 0.0
C1196 C 0.56234 0.00737 0.61696 0.0
C1197 C 0.58673 0.02492 0.56444 0.0
C1198 C 0.63442 0.00894 0.58348 0.0
H1199 H 0.70085 0.03746 0.38467 0.0
H1200 H 0.67479 0.04255 0.44653 0.0
H1201 H 0.66373 0.00524 0.58303 0.0
H1202 H 0.57134 0.98304 0.65713 0.0
H1203 H 0.60325 0.98671 0.62217 0.0
H1204 H 0.61124 0.02381 0.47827 0.0
C1205 C 0.68142 0.02927 0.44768 0.0
C1206 C 0.65237 0.00954 0.5602 0.0
C1207 C 0.69649 0.0265 0.41286 0.0
C1208 C 0.5754 0.99483 0.6313 0.0
C1209 C 0.59381 0.99708 0.61162 0.0
C1210 C 0.62256 0.02021 0.5024 0.0
C1211 C 0.67406 0.01446 0.48057 0.0
C1212 C 0.65558 0.01551 0.50784 0.0
C1213 C 0.59975 0.01211 0.57766 0.0
C1214 C 0.61918 0.01398 0.55459 0.0
H1215 H 0.70375 0.98079 0.44379 0.0
H1216 H 0.67774 0.98577 0.50594 0.0
H1217 H 0.64243 0.02533 0.43867 0.0
H1218 H 0.55865 0.03263 0.5724 0.0
H1219 H 0.59079 0.03694 0.53945 0.0
C1220 C 0.59072 0.68936 0.34784 0.0
C1221 C 0.60891 0.68987 0.32586 0.0
C1222 C 0.58489 0.67624 0.38701 0.0
C1223 C 0.59496 0.62837 0.42433 0.0
H1224 H 0.56105 0.63615 0.54374 0.0
C1225 C 0.56675 0.56499 0.55299 0.0
C1226 C 0.54792 0.56439 0.56925 0.0
C1227 C 0.57565 0.58154 0.53045 0.0
C1228 C 0.57038 0.63368 0.51024 0.0
H1229 H 0.63578 0.67851 0.33145 0.0
H1230 H 0.62565 0.65574 0.39978 0.0
H1231 H 0.57397 0.66372 0.49338 0.0
H1232 H 0.52369 0.58064 0.57583 0.0
H1233 H 0.53891 0.60919 0.53505 0.0
H1234 H 0.59089 0.59837 0.43922 0.0
C1235 C 0.61577 0.66513 0.38602 0.0
C1236 C 0.57784 0.64952 0.48159 0.0
C1237 C 0.62159 0.67823 0.3471 0.0
C1238 C 0.53824 0.58071 0.5635 0.0
C1239 C 0.54705 0.59716 0.54056 0.0
C1240 C 0.58738 0.61255 0.45252 0.0
C1241 C 0.59715 0.66341 0.4048 0.0
C1242 C 0.59013 0.64701 0.4381 0.0
C1243 C 0.56585 0.59778 0.52325 0.0
C1244 C 0.57485 0.61492 0.49562 0.0
H1245 H 0.5806 0.69804 0.33199 0.0
H1246 H 0.57044 0.67524 0.40064 0.0
H1247 H 0.60411 0.62588 0.39038 0.0
H1248 H 0.57458 0.55266 0.55747 0.0
H1249 H 0.59023 0.58157 0.51858 0.0
C1250 C 0.8114 0.48184 0.35007 0.0
C1251 C 0.80614 0.46215 0.34053 0.0
C1252 C 0.82395 0.48789 0.39032 0.0
C1253 C 0.84874 0.47175 0.50665 0.0
H1254 H 0.89025 0.50517 0.45161 0.0
C1255 C 0.9226 0.47606 0.59385 0.0
C1256 C 0.93363 0.49373 0.59367 0.0
C1257 C 0.90513 0.47407 0.57002 0.0
C1258 C 0.87867 0.49613 0.46825 0.0
H1259 H 0.80844 0.43354 0.36838 0.0
H1260 H 0.83019 0.44403 0.43861 0.0
H1261 H 0.86202 0.49904 0.40043 0.0
H1262 H 0.93488 0.52335 0.57028 0.0
H1263 H 0.90429 0.52002 0.52946 0.0
H1264 H 0.86563 0.46851 0.574 0.0
C1265 C 0.82475 0.45485 0.41522 0.0
C1266 C 0.86242 0.49264 0.43884 0.0
C1267 C 0.81233 0.44881 0.37486 0.0
C1268 C 0.92671 0.50951 0.57055 0.0
C1269 C 0.90922 0.50756 0.54695 0.0
C1270 C 0.86499 0.47531 0.53624 0.0
C1271 C 0.83133 0.47437 0.42197 0.0
C1272 C 0.84739 0.48012 0.45714 0.0
C1273 C 0.89829 0.48975 0.54573 0.0
C1274 C 0.88032 0.48726 0.51691 0.0
H1275 H 0.80692 0.4924 0.32399 0.0
H1276 H 0.82855 0.50307 0.39506 0.0
H1277 H 0.83733 0.46218 0.52212 0.0
H1278 H 0.92761 0.46368 0.61156 0.0
H1279 H 0.89725 0.46008 0.5693 0.0
loop_
_geom_bond_atom_site_label_1
_geom_bond_atom_site_label_2
_geom_bond_distance
_geom_bond_site_symmetry_2
_ccdc_geom_bond_type
C0 C1 1.391 . S
C0 C4 1.391 . S
C0 H42 0.948 . S
C1 C0 1.391 . S
C1 C2 1.391 . S
C2 C1 1.391 . S
C2 H58 0.947 . S
C2 C59 1.392 . S
C3 C4 1.391 . S
C3 C7 1.397 . S
C3 C59 1.419 . S
C4 C0 1.391 . S
C4 C3 1.391 . S
C4 C5 1.399 . S
C5 C4 1.399 . S
C5 C8 1.396 . S
C5 C17 1.453 . S
C5 C18 1.684 . S
H6 C30 0.948 . S
C7 C3 1.397 . S
C7 C8 1.394 . S
C7 C26 1.723 . S
C8 C5 1.396 . S
C8 C7 1.394 . S
C8 C38 1.723 . S
H9 C32 0.947 . S
H10 C33 0.948 . S
H11 C39 0.982 . S
H12 C40 0.979 . S
H13 C40 0.980 . S
H14 C40 0.983 . S
H15 C39 0.979 . S
H16 C39 0.977 . S
C17 C5 1.453 . S
C17 H46 0.982 . S
C17 H47 0.979 . S
C17 H48 0.977 . S
C18 C5 1.684 . S
C18 H43 0.979 . S
C18 H44 0.980 . S
C18 H45 0.983 . S
C19 C20 1.391 . S
C19 C24 1.391 . S
C19 H49 0.948 . S
C20 C19 1.391 . S
C20 C21 1.391 . S
C21 C20 1.391 . S
C21 C22 1.392 . S
C21 H50 0.947 . S
C22 C21 1.392 . S
C22 C23 1.419 . S
C22 H51 0.948 . S
C23 C22 1.419 . S
C23 C24 1.391 . S
C23 C27 1.397 1_556 S
C24 C19 1.391 . S
C24 C23 1.391 . S
C24 C25 1.399 1_556 S
C25 C24 1.399 1_554 S
C25 C26 1.396 . S
C25 C28 1.453 . S
C25 C29 1.684 . S
C26 C7 1.723 . S
C26 C25 1.396 . S
C26 C27 1.394 . S
C27 C23 1.397 1_554 S
C27 C26 1.394 . S
C27 C37 1.723 . S
C28 C25 1.453 . S
C28 H52 0.982 . S
C28 H53 0.979 . S
C28 H54 0.977 . S
C29 C25 1.684 . S
C29 H55 0.979 . S
C29 H56 0.980 . S
C29 H57 0.983 . S
C30 H6 0.948 . S
C30 C31 1.391 1_556 S
C30 C35 1.391 1_556 S
C31 C30 1.391 1_554 S
C31 C32 1.391 . S
C32 H9 0.947 . S
C32 C31 1.391 . S
C32 C33 1.392 . S
C33 H10 0.948 . S
C33 C32 1.392 . S
C33 C34 1.419 . S
C34 C33 1.419 . S
C34 C35 1.391 . S
C34 C38 1.397 . S
C35 C30 1.391 1_554 S
C35 C34 1.391 . S
C35 C36 1.399 1_554 S
C36 C35 1.399 1_556 S
C36 C37 1.396 1_556 S
C36 C39 1.453 . S
C36 C40 1.684 . S
C37 C27 1.723 . S
C37 C36 1.396 1_554 S
C37 C38 1.394 . S
C38 C8 1.723 . S
C38 C34 1.397 . S
C38 C37 1.394 . S
C39 H11 0.982 . S
C39 H15 0.979 . S
C39 H16 0.977 . S
C39 C36 1.453 . S
C40 H12 0.979 . S
C40 H13 0.980 . S
C40 H14 0.983 . S
C40 C36 1.684 . S
H41 C59 0.948 . S
H42 C0 0.948 . S
H43 C18 0.979 . S
H44 C18 0.980 . S
H45 C18 0.983 . S
H46 C17 0.982 . S
H47 C17 0.979 . S
H48 C17 0.977 . S
H49 C19 0.948 . S
H50 C21 0.947 . S
H51 C22 0.948 . S
H52 C28 0.982 . S
H53 C28 0.979 . S
H54 C28 0.977 . S
H55 C29 0.979 . S
H56 C29 0.980 . S
H57 C29 0.983 . S
H58 C2 0.947 . S
C59 C2 1.392 . S
C59 C3 1.419 . S
C59 H41 0.948 . S
C60 C61 1.391 . S
C60 C64 1.391 . S
C60 H102 0.948 . S
C61 C60 1.391 . S
C61 C62 1.391 . S
C62 C61 1.391 . S
C62 H118 0.947 . S
C62 C119 1.392 . S
C63 C64 1.391 . S
C63 C67 1.397 . S
C63 C119 1.419 . S
C64 C60 1.391 . S
C64 C63 1.391 . S
C64 C65 1.399 . S
C65 C64 1.399 . S
C65 C68 1.396 . S
C65 C77 1.453 . S
C65 C78 1.684 . S
H66 C90 0.948 . S
C67 C63 1.397 . S
C67 C68 1.394 . S
C67 C86 1.723 1_556 S
C68 C65 1.396 . S
C68 C67 1.394 . S
C68 C98 1.723 1_556 S
H69 C92 0.947 . S
H70 C93 0.948 . S
H71 C99 0.982 . S
H72 C100 0.979 . S
H73 C100 0.980 . S
H74 C100 0.983 . S
H75 C99 0.979 . S
H76 C99 0.977 . S
C77 C65 1.453 . S
C77 H106 0.982 . S
C77 H107 0.979 . S
C77 H108 0.977 . S
C78 C65 1.684 . S
C78 H103 0.979 . S
C78 H104 0.980 . S
C78 H105 0.983 . S
C79 C80 1.391 . S
C79 C84 1.391 . S
C79 H109 0.948 . S
C80 C79 1.391 . S
C80 C81 1.391 . S
C81 C80 1.391 . S
C81 C82 1.392 . S
C81 H110 0.947 . S
C82 C81 1.392 . S
C82 C83 1.419 . S
C82 H111 0.948 . S
C83 C82 1.419 . S
C83 C84 1.391 . S
C83 C87 1.397 . S
C84 C79 1.391 . S
C84 C83 1.391 . S
C84 C85 1.399 . S
C85 C84 1.399 . S
C85 C86 1.396 . S
C85 C88 1.453 . S
C85 C89 1.684 . S
C86 C67 1.723 1_554 S
C86 C85 1.396 . S
C86 C87 1.394 . S
C87 C83 1.397 . S
C87 C86 1.394 . S
C87 C97 1.723 . S
C88 C85 1.453 . S
C88 H112 0.982 . S
C88 H113 0.979 . S
C88 H114 0.977 . S
C89 C85 1.684 . S
C89 H115 0.979 . S
C89 H116 0.980 . S
C89 H117 0.983 . S
C90 H66 0.948 . S
C90 C91 1.391 1_554 S
C90 C95 1.391 . S
C91 C90 1.391 1_556 S
C91 C92 1.391 . S
C92 H69 0.947 . S
C92 C91 1.391 . S
C92 C93 1.392 . S
C93 H70 0.948 . S
C93 C92 1.392 . S
C93 C94 1.419 . S
C94 C93 1.419 . S
C94 C95 1.391 1_556 S
C94 C98 1.397 1_556 S
C95 C90 1.391 . S
C95 C94 1.391 1_554 S
C95 C96 1.399 . S
C96 C95 1.399 . S
C96 C97 1.396 . S
C96 C99 1.453 . S
C96 C100 1.684 . S
C97 C87 1.723 . S
C97 C96 1.396 . S
C97 C98 1.394 . S
C98 C68 1.723 1_554 S
C98 C94 1.397 1_554 S
C98 C97 1.394 . S
C99 H71 0.982 . S
C99 H75 0.979 . S
C99 H76 0.977 . S
C99 C96 1.453 . S
C100 H72 0.979 . S
C100 H73 0.980 . S
C100 H74 0.983 . S
C100 C96 1.684 . S
H101 C119 0.948 1_554 S
H102 C60 0.948 . S
H103 C78 0.979 . S
H104 C78 0.980 . S
H105 C78 0.983 . S
H106 C77 0.982 . S
H107 C77 0.979 . S
H108 C77 0.977 . S
H109 C79 0.948 . S
H110 C81 0.947 . S
H111 C82 0.948 . S
H112 C88 0.982 . S
H113 C88 0.979 . S
H114 C88 0.977 . S
H115 C89 0.979 . S
H116 C89 0.980 . S
H117 C89 0.983 . S
H118 C62 0.947 . S
C119 C62 1.392 . S
C119 C63 1.419 . S
C119 H101 0.948 1_556 S
C120 C121 1.391 . S
C120 C124 1.391 . S
C120 H162 0.948 . S
C121 C120 1.391 . S
C121 C122 1.391 1_554 S
C122 C121 1.391 1_556 S
C122 H178 0.947 . S
C122 C179 1.392 1_556 S
C123 C124 1.391 . S
C123 C127 1.398 1_565 S
C123 C179 1.419 . S
C124 C120 1.391 . S
C124 C123 1.391 . S
C124 C125 1.399 . S
C125 C124 1.399 . S
C125 C128 1.383 1_565 S
C125 C137 1.453 1_565 S
C125 C138 1.684 . S
H126 C150 0.948 . S
C127 C123 1.398 1_545 S
C127 C128 1.396 . S
C127 C146 1.716 . S
C128 C125 1.383 1_545 S
C128 C127 1.396 . S
C128 C158 1.726 . S
H129 C152 0.947 . S
H130 C153 0.948 . S
H131 C159 0.982 . S
H132 C160 0.979 . S
H133 C160 0.980 . S
H134 C160 0.983 . S
H135 C159 0.979 . S
H136 C159 0.977 . S
C137 C125 1.453 1_545 S
C137 H166 0.982 . S
C137 H167 0.979 . S
C137 H168 0.977 . S
C138 C125 1.684 . S
C138 H163 0.979 . S
C138 H164 0.980 . S
C138 H165 0.983 . S
C139 C140 1.391 . S
C139 C144 1.391 . S
C139 H169 0.948 . S
C140 C139 1.391 . S
C140 C141 1.391 . S
C141 C140 1.391 . S
C141 C142 1.392 1_556 S
C141 H170 0.947 1_556 S
C142 C141 1.392 1_554 S
C142 C143 1.419 . S
C142 H171 0.948 . S
C143 C142 1.419 . S
C143 C144 1.391 1_554 S
C143 C147 1.397 1_565 S
C144 C139 1.391 . S
C144 C143 1.391 1_556 S
C144 C145 1.399 . S
C145 C144 1.399 . S
C145 C146 1.392 1_566 S
C145 C148 1.453 1_565 S
C145 C149 1.684 . S
C146 C127 1.716 . S
C146 C145 1.392 1_544 S
C146 C147 1.396 . S
C147 C143 1.397 1_545 S
C147 C146 1.396 . S
C147 C157 1.723 . S
C148 C145 1.453 1_545 S
C148 H172 0.982 . S
C148 H173 0.979 . S
C148 H174 0.977 . S
C149 C145 1.684 . S
C149 H175 0.979 . S
C149 H176 0.980 . S
C149 H177 0.983 . S
C150 H126 0.948 . S
C150 C151 1.391 . S
C150 C155 1.391 . S
C151 C150 1.391 . S
C151 C152 1.391 . S
C152 H129 0.947 . S
C152 C151 1.391 . S
C152 C153 1.392 . S
C153 H130 0.948 . S
C153 C152 1.392 . S
C153 C154 1.419 . S
C154 C153 1.419 . S
C154 C155 1.391 . S
C154 C158 1.397 1_565 S
C155 C150 1.391 . S
C155 C154 1.391 . S
C155 C156 1.399 . S
C156 C155 1.399 . S
C156 C157 1.390 1_565 S
C156 C159 1.453 1_565 S
C156 C160 1.684 . S
C157 C147 1.723 . S
C157 C156 1.390 1_545 S
C157 C158 1.387 . S
C158 C128 1.726 . S
C158 C154 1.397 1_545 S
C158 C157 1.387 . S
C159 H131 0.982 . S
C159 H135 0.979 . S
C159 H136 0.977 . S
C159 C156 1.453 1_545 S
C160 H132 0.979 . S
C160 H133 0.980 . S
C160 H134 0.983 . S
C160 C156 1.684 . S
H161 C179 0.948 1_556 S
H162 C120 0.948 . S
H163 C138 0.979 . S
H164 C138 0.980 . S
H165 C138 0.983 . S
H166 C137 0.982 . S
H167 C137 0.979 . S
H168 C137 0.977 . S
H169 C139 0.948 . S
H170 C141 0.947 1_554 S
H171 C142 0.948 . S
H172 C148 0.982 . S
H173 C148 0.979 . S
H174 C148 0.977 . S
H175 C149 0.979 . S
H176 C149 0.980 . S
H177 C149 0.983 . S
H178 C122 0.947 . S
C179 C122 1.392 1_554 S
C179 C123 1.419 . S
C179 H161 0.948 1_554 S
C180 C181 1.391 . S
C180 C184 1.391 . S
C180 H222 0.948 . S
C181 C180 1.391 . S
C181 C182 1.391 . S
C182 C181 1.391 . S
C182 H238 0.947 . S
C182 C239 1.392 . S
C183 C184 1.391 . S
C183 C187 1.397 . S
C183 C239 1.419 . S
C184 C180 1.391 . S
C184 C183 1.391 . S
C184 C185 1.399 . S
C185 C184 1.399 . S
C185 C188 1.396 . S
C185 C197 1.453 . S
C185 C198 1.684 . S
H186 C210 0.948 1_556 S
C187 C183 1.397 . S
C187 C188 1.394 . S
C187 C206 1.723 . S
C188 C185 1.396 . S
C188 C187 1.394 . S
C188 C218 1.723 . S
H189 C212 0.947 . S
H190 C213 0.948 . S
H191 C219 0.982 . S
H192 C220 0.979 . S
H193 C220 0.980 . S
H194 C220 0.983 . S
H195 C219 0.979 . S
H196 C219 0.977 . S
C197 C185 1.453 . S
C197 H226 0.982 . S
C197 H227 0.979 . S
C197 H228 0.977 . S
C198 C185 1.684 . S
C198 H223 0.979 . S
C198 H224 0.980 . S
C198 H225 0.983 . S
C199 C200 1.391 . S
C199 C204 1.391 1_556 S
C199 H229 0.948 . S
C200 C199 1.391 . S
C200 C201 1.391 . S
C201 C200 1.391 . S
C201 C202 1.392 . S
C201 H230 0.947 . S
C202 C201 1.392 . S
C202 C203 1.419 . S
C202 H231 0.948 . S
C203 C202 1.419 . S
C203 C204 1.391 1_556 S
C203 C207 1.397 1_556 S
C204 C199 1.391 1_554 S
C204 C203 1.391 1_554 S
C204 C205 1.399 . S
C205 C204 1.399 . S
C205 C206 1.396 . S
C205 C208 1.453 . S
C205 C209 1.684 . S
C206 C187 1.723 . S
C206 C205 1.396 . S
C206 C207 1.394 . S
C207 C203 1.397 1_554 S
C207 C206 1.394 . S
C207 C217 1.723 . S
C208 C205 1.453 . S
C208 H232 0.982 . S
C208 H233 0.979 . S
C208 H234 0.977 . S
C209 C205 1.684 . S
C209 H235 0.979 . S
C209 H236 0.980 . S
C209 H237 0.983 . S
C210 H186 0.948 1_554 S
C210 C211 1.391 . S
C210 C215 1.391 . S
C211 C210 1.391 . S
C211 C212 1.391 . S
C212 H189 0.947 . S
C212 C211 1.391 . S
C212 C213 1.392 . S
C213 H190 0.948 . S
C213 C212 1.392 . S
C213 C214 1.419 . S
C214 C213 1.419 . S
C214 C215 1.391 . S
C214 C218 1.397 . S
C215 C210 1.391 . S
C215 C214 1.391 . S
C215 C216 1.399 1_554 S
C216 C215 1.399 1_556 S
C216 C217 1.396 1_556 S
C216 C219 1.453 . S
C216 C220 1.684 . S
C217 C207 1.723 . S
C217 C216 1.396 1_554 S
C217 C218 1.394 . S
C218 C188 1.723 . S
C218 C214 1.397 . S
C218 C217 1.394 . S
C219 H191 0.982 . S
C219 H195 0.979 . S
C219 H196 0.977 . S
C219 C216 1.453 . S
C220 H192 0.979 . S
C220 H193 0.980 . S
C220 H194 0.983 . S
C220 C216 1.684 . S
H221 C239 0.948 . S
H222 C180 0.948 . S
H223 C198 0.979 . S
H224 C198 0.980 . S
H225 C198 0.983 . S
H226 C197 0.982 . S
H227 C197 0.979 . S
H228 C197 0.977 . S
H229 C199 0.948 . S
H230 C201 0.947 . S
H231 C202 0.948 . S
H232 C208 0.982 . S
H233 C208 0.979 . S
H234 C208 0.977 . S
H235 C209 0.979 . S
H236 C209 0.980 . S
H237 C209 0.983 . S
H238 C182 0.947 . S
C239 C182 1.392 . S
C239 C183 1.419 . S
C239 H221 0.948 . S
C240 C241 1.391 . S
C240 C244 1.391 . S
C240 H282 0.948 . S
C241 C240 1.391 . S
C241 C242 1.391 . S
C242 C241 1.391 . S
C242 H298 0.947 . S
C242 C299 1.392 . S
C243 C244 1.391 . S
C243 C247 1.397 . S
C243 C299 1.419 . S
C244 C240 1.391 . S
C244 C243 1.391 . S
C244 C245 1.399 . S
C245 C244 1.399 . S
C245 C248 1.396 . S
C245 C257 1.453 . S
C245 C258 1.684 . S
H246 C270 0.948 . S
C247 C243 1.397 . S
C247 C248 1.394 . S
C247 C266 1.723 . S
C248 C245 1.396 . S
C248 C247 1.394 . S
C248 C278 1.723 . S
H249 C272 0.947 . S
H250 C273 0.948 . S
H251 C279 0.982 . S
H252 C280 0.979 . S
H253 C280 0.980 . S
H254 C280 0.983 . S
H255 C279 0.979 . S
H256 C279 0.977 . S
C257 C245 1.453 . S
C257 H286 0.982 . S
C257 H287 0.979 . S
C257 H288 0.977 . S
C258 C245 1.684 . S
C258 H283 0.979 . S
C258 H284 0.980 . S
C258 H285 0.983 . S
C259 C260 1.391 . S
C259 C264 1.391 . S
C259 H289 0.948 . S
C260 C259 1.391 . S
C260 C261 1.391 . S
C261 C260 1.391 . S
C261 C262 1.392 . S
C261 H290 0.947 . S
C262 C261 1.392 . S
C262 C263 1.419 . S
C262 H291 0.948 . S
C263 C262 1.419 . S
C263 C264 1.391 . S
C263 C267 1.397 . S
C264 C259 1.391 . S
C264 C263 1.391 . S
C264 C265 1.399 . S
C265 C264 1.399 . S
C265 C266 1.396 . S
C265 C268 1.453 . S
C265 C269 1.684 . S
C266 C247 1.723 . S
C266 C265 1.396 . S
C266 C267 1.394 . S
C267 C263 1.397 . S
C267 C266 1.394 . S
C267 C277 1.723 . S
C268 C265 1.453 . S
C268 H292 0.982 . S
C268 H293 0.979 . S
C268 H294 0.977 . S
C269 C265 1.684 . S
C269 H295 0.979 . S
C269 H296 0.980 . S
C269 H297 0.983 . S
C270 H246 0.948 . S
C270 C271 1.391 . S
C270 C275 1.391 . S
C271 C270 1.391 . S
C271 C272 1.391 . S
C272 H249 0.947 . S
C272 C271 1.391 . S
C272 C273 1.392 . S
C273 H250 0.948 . S
C273 C272 1.392 . S
C273 C274 1.419 . S
C274 C273 1.419 . S
C274 C275 1.391 . S
C274 C278 1.397 . S
C275 C270 1.391 . S
C275 C274 1.391 . S
C275 C276 1.399 . S
C276 C275 1.399 . S
C276 C277 1.396 . S
C276 C279 1.453 . S
C276 C280 1.684 . S
C277 C267 1.723 . S
C277 C276 1.396 . S
C277 C278 1.394 . S
C278 C248 1.723 . S
C278 C274 1.397 . S
C278 C277 1.394 . S
C279 H251 0.982 . S
C279 H255 0.979 . S
C279 H256 0.977 . S
C279 C276 1.453 . S
C280 H252 0.979 . S
C280 H253 0.980 . S
C280 H254 0.983 . S
C280 C276 1.684 . S
H281 C299 0.948 . S
H282 C240 0.948 . S
H283 C258 0.979 . S
H284 C258 0.980 . S
H285 C258 0.983 . S
H286 C257 0.982 . S
H287 C257 0.979 . S
H288 C257 0.977 . S
H289 C259 0.948 . S
H290 C261 0.947 . S
H291 C262 0.948 . S
H292 C268 0.982 . S
H293 C268 0.979 . S
H294 C268 0.977 . S
H295 C269 0.979 . S
H296 C269 0.980 . S
H297 C269 0.983 . S
H298 C242 0.947 . S
C299 C242 1.392 . S
C299 C243 1.419 . S
C299 H281 0.948 . S
C300 C301 1.391 . S
C300 C304 1.391 . S
C300 H342 0.948 . S
C301 C300 1.391 . S
C301 C302 1.391 . S
C302 C301 1.391 . S
C302 H358 0.947 . S
C302 C359 1.392 . S
C303 C304 1.391 . S
C303 C307 1.397 . S
C303 C359 1.419 . S
C304 C300 1.391 . S
C304 C303 1.391 . S
C304 C305 1.399 . S
C305 C304 1.399 . S
C305 C308 1.396 . S
C305 C317 1.453 . S
C305 C318 1.684 . S
H306 C330 0.948 . S
C307 C303 1.397 . S
C307 C308 1.394 . S
C307 C326 1.723 . S
C308 C305 1.396 . S
C308 C307 1.394 . S
C308 C338 1.723 . S
H309 C332 0.947 . S
H310 C333 0.948 . S
H311 C339 0.982 . S
H312 C340 0.979 . S
H313 C340 0.980 . S
H314 C340 0.983 . S
H315 C339 0.979 . S
H316 C339 0.977 . S
C317 C305 1.453 . S
C317 H346 0.982 . S
C317 H347 0.979 . S
C317 H348 0.977 . S
C318 C305 1.684 . S
C318 H343 0.979 . S
C318 H344 0.980 . S
C318 H345 0.983 . S
C319 C320 1.391 . S
C319 C324 1.391 . S
C319 H349 0.948 . S
C320 C319 1.391 . S
C320 C321 1.391 . S
C321 C320 1.391 . S
C321 C322 1.392 . S
C321 H350 0.947 . S
C322 C321 1.392 . S
C322 C323 1.419 . S
C322 H351 0.948 . S
C323 C322 1.419 . S
C323 C324 1.391 . S
C323 C327 1.397 . S
C324 C319 1.391 . S
C324 C323 1.391 . S
C324 C325 1.399 . S
C325 C324 1.399 . S
C325 C326 1.396 . S
C325 C328 1.453 . S
C325 C329 1.684 . S
C326 C307 1.723 . S
C326 C325 1.396 . S
C326 C327 1.394 . S
C327 C323 1.397 . S
C327 C326 1.394 . S
C327 C337 1.723 . S
C328 C325 1.453 . S
C328 H352 0.982 . S
C328 H353 0.979 . S
C328 H354 0.977 . S
C329 C325 1.684 . S
C329 H355 0.979 . S
C329 H356 0.980 . S
C329 H357 0.983 . S
C330 H306 0.948 . S
C330 C331 1.391 . S
C330 C335 1.391 . S
C331 C330 1.391 . S
C331 C332 1.391 . S
C332 H309 0.947 . S
C332 C331 1.391 . S
C332 C333 1.392 . S
C333 H310 0.948 . S
C333 C332 1.392 . S
C333 C334 1.419 . S
C334 C333 1.419 . S
C334 C335 1.391 . S
C334 C338 1.397 . S
C335 C330 1.391 . S
C335 C334 1.391 . S
C335 C336 1.399 . S
C336 C335 1.399 . S
C336 C337 1.396 . S
C336 C339 1.453 . S
C336 C340 1.684 . S
C337 C327 1.723 . S
C337 C336 1.396 . S
C337 C338 1.394 . S
C338 C308 1.723 . S
C338 C334 1.397 . S
C338 C337 1.394 . S
C339 H311 0.982 . S
C339 H315 0.979 . S
C339 H316 0.977 . S
C339 C336 1.453 . S
C340 H312 0.979 . S
C340 H313 0.980 . S
C340 H314 0.983 . S
C340 C336 1.684 . S
H341 C359 0.948 . S
H342 C300 0.948 . S
H343 C318 0.979 . S
H344 C318 0.980 . S
H345 C318 0.983 . S
H346 C317 0.982 . S
H347 C317 0.979 . S
H348 C317 0.977 . S
H349 C319 0.948 . S
H350 C321 0.947 . S
H351 C322 0.948 . S
H352 C328 0.982 . S
H353 C328 0.979 . S
H354 C328 0.977 . S
H355 C329 0.979 . S
H356 C329 0.980 . S
H357 C329 0.983 . S
H358 C302 0.947 . S
C359 C302 1.392 . S
C359 C303 1.419 . S
C359 H341 0.948 . S
C360 C361 1.391 . S
C360 C364 1.391 . S
C360 H402 0.948 . S
C361 C360 1.391 . S
C361 C362 1.391 . S
C362 C361 1.391 . S
C362 H418 0.947 . S
C362 C419 1.392 . S
C363 C364 1.391 . S
C363 C367 1.397 . S
C363 C419 1.419 . S
C364 C360 1.391 . S
C364 C363 1.391 . S
C364 C365 1.399 . S
C365 C364 1.399 . S
C365 C368 1.396 . S
C365 C377 1.453 1_545 S
C365 C378 1.684 . S
H366 C390 0.948 . S
C367 C363 1.397 . S
C367 C368 1.394 . S
C367 C386 1.723 . S
C368 C365 1.396 . S
C368 C367 1.394 . S
C368 C398 1.723 . S
H369 C392 0.947 . S
H370 C393 0.948 . S
H371 C399 0.982 . S
H372 C400 0.979 . S
H373 C400 0.980 . S
H374 C400 0.983 . S
H375 C399 0.979 . S
H376 C399 0.977 . S
C377 C365 1.453 1_565 S
C377 H406 0.982 . S
C377 H407 0.979 . S
C377 H408 0.977 . S
C378 C365 1.684 . S
C378 H403 0.979 . S
C378 H404 0.980 . S
C378 H405 0.983 . S
C379 C380 1.391 . S
C379 C384 1.391 . S
C379 H409 0.948 . S
C380 C379 1.391 . S
C380 C381 1.391 . S
C381 C380 1.391 . S
C381 C382 1.392 . S
C381 H410 0.947 . S
C382 C381 1.392 . S
C382 C383 1.419 . S
C382 H411 0.948 . S
C383 C382 1.419 . S
C383 C384 1.391 . S
C383 C387 1.397 . S
C384 C379 1.391 . S
C384 C383 1.391 . S
C384 C385 1.399 . S
C385 C384 1.399 . S
C385 C386 1.396 . S
C385 C388 1.453 1_545 S
C385 C389 1.684 . S
C386 C367 1.723 . S
C386 C385 1.396 . S
C386 C387 1.394 . S
C387 C383 1.397 . S
C387 C386 1.394 . S
C387 C397 1.723 . S
C388 C385 1.453 1_565 S
C388 H412 0.982 . S
C388 H413 0.979 . S
C388 H414 0.977 . S
C389 C385 1.684 . S
C389 H415 0.979 . S
C389 H416 0.980 . S
C389 H417 0.983 . S
C390 H366 0.948 . S
C390 C391 1.391 . S
C390 C395 1.391 . S
C391 C390 1.391 . S
C391 C392 1.391 . S
C392 H369 0.947 . S
C392 C391 1.391 . S
C392 C393 1.392 . S
C393 H370 0.948 . S
C393 C392 1.392 . S
C393 C394 1.419 . S
C394 C393 1.419 . S
C394 C395 1.391 . S
C394 C398 1.397 . S
C395 C390 1.391 . S
C395 C394 1.391 . S
C395 C396 1.399 . S
C396 C395 1.399 . S
C396 C397 1.396 . S
C396 C399 1.453 1_545 S
C396 C400 1.684 . S
C397 C387 1.723 . S
C397 C396 1.396 . S
C397 C398 1.394 . S
C398 C368 1.723 . S
C398 C394 1.397 . S
C398 C397 1.394 . S
C399 H371 0.982 . S
C399 H375 0.979 . S
C399 H376 0.977 . S
C399 C396 1.453 1_565 S
C400 H372 0.979 . S
C400 H373 0.980 . S
C400 H374 0.983 . S
C400 C396 1.684 . S
H401 C419 0.948 . S
H402 C360 0.948 . S
H403 C378 0.979 . S
H404 C378 0.980 . S
H405 C378 0.983 . S
H406 C377 0.982 . S
H407 C377 0.979 . S
H408 C377 0.977 . S
H409 C379 0.948 . S
H410 C381 0.947 . S
H411 C382 0.948 . S
H412 C388 0.982 . S
H413 C388 0.979 . S
H414 C388 0.977 . S
H415 C389 0.979 . S
H416 C389 0.980 . S
H417 C389 0.983 . S
H418 C362 0.947 . S
C419 C362 1.392 . S
C419 C363 1.419 . S
C419 H401 0.948 . S
C420 C421 1.391 . S
C420 C424 1.391 . S
C420 H462 0.948 . S
C421 C420 1.391 . S
C421 C422 1.391 . S
C422 C421 1.391 . S
C422 H478 0.947 . S
C422 C479 1.392 . S
C423 C424 1.391 . S
C423 C427 1.397 . S
C423 C479 1.419 . S
C424 C420 1.391 . S
C424 C423 1.391 . S
C424 C425 1.399 . S
C425 C424 1.399 . S
C425 C428 1.396 . S
C425 C437 1.453 . S
C425 C438 1.684 . S
H426 C450 0.948 . S
C427 C423 1.397 . S
C427 C428 1.394 . S
C427 C446 1.723 . S
C428 C425 1.396 . S
C428 C427 1.394 . S
C428 C458 1.723 . S
H429 C452 0.947 . S
H430 C453 0.948 . S
H431 C459 0.982 . S
H432 C460 0.979 . S
H433 C460 0.980 . S
H434 C460 0.983 . S
H435 C459 0.979 . S
H436 C459 0.977 . S
C437 C425 1.453 . S
C437 H466 0.982 . S
C437 H467 0.979 . S
C437 H468 0.977 . S
C438 C425 1.684 . S
C438 H463 0.979 . S
C438 H464 0.980 . S
C438 H465 0.983 . S
C439 C440 1.391 . S
C439 C444 1.391 . S
C439 H469 0.948 . S
C440 C439 1.391 . S
C440 C441 1.391 . S
C441 C440 1.391 . S
C441 C442 1.392 . S
C441 H470 0.947 . S
C442 C441 1.392 . S
C442 C443 1.419 . S
C442 H471 0.948 . S
C443 C442 1.419 . S
C443 C444 1.391 . S
C443 C447 1.397 . S
C444 C439 1.391 . S
C444 C443 1.391 . S
C444 C445 1.399 . S
C445 C444 1.399 . S
C445 C446 1.396 . S
C445 C448 1.453 . S
C445 C449 1.684 . S
C446 C427 1.723 . S
C446 C445 1.396 . S
C446 C447 1.394 . S
C447 C443 1.397 . S
C447 C446 1.394 . S
C447 C457 1.723 . S
C448 C445 1.453 . S
C448 H472 0.982 . S
C448 H473 0.979 . S
C448 H474 0.977 . S
C449 C445 1.684 . S
C449 H475 0.979 . S
C449 H476 0.980 . S
C449 H477 0.983 . S
C450 H426 0.948 . S
C450 C451 1.391 . S
C450 C455 1.391 . S
C451 C450 1.391 . S
C451 C452 1.391 . S
C452 H429 0.947 . S
C452 C451 1.391 . S
C452 C453 1.392 . S
C453 H430 0.948 . S
C453 C452 1.392 . S
C453 C454 1.419 . S
C454 C453 1.419 . S
C454 C455 1.391 . S
C454 C458 1.397 . S
C455 C450 1.391 . S
C455 C454 1.391 . S
C455 C456 1.399 . S
C456 C455 1.399 . S
C456 C457 1.396 . S
C456 C459 1.453 . S
C456 C460 1.684 . S
C457 C447 1.723 . S
C457 C456 1.396 . S
C457 C458 1.394 . S
C458 C428 1.723 . S
C458 C454 1.397 . S
C458 C457 1.394 . S
C459 H431 0.982 . S
C459 H435 0.979 . S
C459 H436 0.977 . S
C459 C456 1.453 . S
C460 H432 0.979 . S
C460 H433 0.980 . S
C460 H434 0.983 . S
C460 C456 1.684 . S
H461 C479 0.948 . S
H462 C420 0.948 . S
H463 C438 0.979 . S
H464 C438 0.980 . S
H465 C438 0.983 . S
H466 C437 0.982 . S
H467 C437 0.979 . S
H468 C437 0.977 . S
H469 C439 0.948 . S
H470 C441 0.947 . S
H471 C442 0.948 . S
H472 C448 0.982 . S
H473 C448 0.979 . S
H474 C448 0.977 . S
H475 C449 0.979 . S
H476 C449 0.980 . S
H477 C449 0.983 . S
H478 C422 0.947 . S
C479 C422 1.392 . S
C479 C423 1.419 . S
C479 H461 0.948 . S
Tb480 O483 2.453 1_665 S
Tb480 O484 2.596 1_665 S
Tb480 O485 2.374 1_655 S
Tb480 O493 2.343 . S
Tb480 O495 2.353 1_565 S
Tb480 O497 2.427 . S
Tb480 O498 2.513 . S
C481 O485 1.251 . S
C481 O487 1.263 . S
Tb482 O484 2.343 . S
Tb482 O487 2.353 1_545 S
Tb482 O490 2.427 . S
Tb482 O491 2.513 . S
Tb482 O492 2.453 1_545 S
Tb482 O493 2.596 1_445 S
Tb482 O494 2.374 1_455 S
O483 Tb480 2.453 1_445 S
O483 C499 1.245 . S
O484 Tb480 2.596 1_445 S
O484 Tb482 2.343 . S
O484 C499 1.259 . S
O485 Tb480 2.374 1_455 S
O485 C481 1.251 . S
C486 O490 1.275 . S
C486 O491 1.246 . S
O487 C481 1.263 . S
O487 Tb482 2.353 1_565 S
C488 O492 1.245 1_655 S
C488 O493 1.259 . S
C489 O494 1.250 . S
C489 O495 1.263 . S
O490 Tb482 2.427 . S
O490 C486 1.275 . S
O491 Tb482 2.513 . S
O491 C486 1.246 . S
O492 Tb482 2.453 1_565 S
O492 C488 1.245 1_455 S
O493 Tb480 2.343 . S
O493 Tb482 2.596 1_665 S
O493 C488 1.259 . S
O494 Tb482 2.374 1_655 S
O494 C489 1.250 . S
O495 Tb480 2.353 1_545 S
O495 C489 1.263 . S
C496 O497 1.275 . S
C496 O498 1.246 . S
O497 Tb480 2.427 . S
O497 C496 1.275 . S
O498 Tb480 2.513 . S
O498 C496 1.246 . S
C499 O483 1.245 . S
C499 O484 1.259 . S
Tb500 O503 2.453 . S
Tb500 O504 2.596 1_545 S
Tb500 O505 2.374 . S
Tb500 O513 2.343 . S
Tb500 O515 2.353 . S
Tb500 O517 2.427 . S
Tb500 O518 2.513 . S
C501 O505 1.265 . S
C501 O507 1.249 1_545 S
Tb502 O504 2.343 . S
Tb502 O507 2.353 . S
Tb502 O510 2.427 . S
Tb502 O511 2.513 . S
Tb502 O512 2.453 . S
Tb502 O513 2.596 1_565 S
Tb502 O514 2.374 . S
O503 Tb500 2.453 . S
O503 C519 1.245 . S
O504 Tb500 2.596 1_565 S
O504 Tb502 2.343 . S
O504 C519 1.259 1_565 S
O505 Tb500 2.374 . S
O505 C501 1.265 . S
C506 O510 1.275 . S
C506 O511 1.246 . S
O507 C501 1.249 1_565 S
O507 Tb502 2.353 . S
C508 O512 1.245 . S
C508 O513 1.259 1_565 S
C509 O514 1.250 1_545 S
C509 O515 1.263 . S
O510 Tb502 2.427 . S
O510 C506 1.275 . S
O511 Tb502 2.513 . S
O511 C506 1.246 . S
O512 Tb502 2.453 . S
O512 C508 1.245 . S
O513 Tb500 2.343 . S
O513 Tb502 2.596 1_545 S
O513 C508 1.259 1_545 S
O514 Tb502 2.374 . S
O514 C509 1.250 1_565 S
O515 Tb500 2.353 . S
O515 C509 1.263 . S
C516 O517 1.275 . S
C516 O518 1.246 . S
O517 Tb500 2.427 . S
O517 C516 1.275 . S
O518 Tb500 2.513 . S
O518 C516 1.246 . S
C519 O503 1.245 . S
C519 O504 1.259 1_545 S
Tb520 O523 2.453 . S
Tb520 O524 2.596 . S
Tb520 O525 2.374 . S
Tb520 O533 2.343 . S
Tb520 O535 2.353 . S
Tb520 O537 2.427 . S
Tb520 O538 2.513 . S
C521 O525 1.251 . S
C521 O527 1.263 . S
Tb522 O524 2.343 . S
Tb522 O527 2.353 . S
Tb522 O530 2.427 . S
Tb522 O531 2.513 . S
Tb522 O532 2.453 . S
Tb522 O533 2.596 . S
Tb522 O534 2.374 . S
O523 Tb520 2.453 . S
O523 C539 1.245 . S
O524 Tb520 2.596 . S
O524 Tb522 2.343 . S
O524 C539 1.259 . S
O525 Tb520 2.374 . S
O525 C521 1.251 . S
C526 O530 1.275 . S
C526 O531 1.246 . S
O527 C521 1.263 . S
O527 Tb522 2.353 . S
C528 O532 1.245 . S
C528 O533 1.259 . S
C529 O534 1.250 . S
C529 O535 1.263 . S
O530 Tb522 2.427 . S
O530 C526 1.275 . S
O531 Tb522 2.513 . S
O531 C526 1.246 . S
O532 Tb522 2.453 . S
O532 C528 1.245 . S
O533 Tb520 2.343 . S
O533 Tb522 2.596 . S
O533 C528 1.259 . S
O534 Tb522 2.374 . S
O534 C529 1.250 . S
O535 Tb520 2.353 . S
O535 C529 1.263 . S
C536 O537 1.275 . S
C536 O538 1.246 . S
O537 Tb520 2.427 . S
O537 C536 1.275 . S
O538 Tb520 2.513 . S
O538 C536 1.246 . S
C539 O523 1.245 . S
C539 O524 1.259 . S
Tb540 O543 2.453 1_655 S
Tb540 O544 2.596 1_655 S
Tb540 O545 2.374 1_655 S
Tb540 O553 2.343 . S
Tb540 O555 2.353 . S
Tb540 O557 2.427 . S
Tb540 O558 2.513 . S
C541 O545 1.251 . S
C541 O547 1.263 . S
Tb542 O544 2.343 . S
Tb542 O547 2.353 . S
Tb542 O550 2.427 . S
Tb542 O551 2.513 . S
Tb542 O552 2.453 1_455 S
Tb542 O553 2.596 1_455 S
Tb542 O554 2.374 . S
O543 Tb540 2.453 1_455 S
O543 C559 1.245 . S
O544 Tb540 2.596 1_455 S
O544 Tb542 2.343 . S
O544 C559 1.259 . S
O545 Tb540 2.374 1_455 S
O545 C541 1.251 . S
C546 O550 1.275 . S
C546 O551 1.246 . S
O547 C541 1.263 . S
O547 Tb542 2.353 . S
C548 O552 1.245 . S
C548 O553 1.259 . S
C549 O554 1.250 1_655 S
C549 O555 1.263 . S
O550 Tb542 2.427 . S
O550 C546 1.275 . S
O551 Tb542 2.513 . S
O551 C546 1.246 . S
O552 Tb542 2.453 1_655 S
O552 C548 1.245 . S
O553 Tb540 2.343 . S
O553 Tb542 2.596 1_655 S
O553 C548 1.259 . S
O554 Tb542 2.374 . S
O554 C549 1.250 1_455 S
O555 Tb540 2.353 . S
O555 C549 1.263 . S
C556 O557 1.275 . S
C556 O558 1.246 . S
O557 Tb540 2.427 . S
O557 C556 1.275 . S
O558 Tb540 2.513 . S
O558 C556 1.246 . S
C559 O543 1.245 . S
C559 O544 1.259 . S
C560 C561 1.349 . S
C560 C562 1.327 . S
C560 H585 0.950 . S
C561 C560 1.349 . S
C561 C577 1.349 1_545 S
C562 C560 1.327 . S
C562 C581 1.466 . S
C562 H586 0.950 . S
C563 C580 1.574 . S
C563 C582 1.359 1_565 S
C563 H587 0.949 . S
H564 C568 0.949 . S
C565 C566 1.349 . S
C565 C567 1.327 . S
C565 H588 0.950 . S
C566 C565 1.349 . S
C566 C578 1.349 1_565 S
C567 C565 1.327 . S
C567 C583 1.429 . S
C567 H589 0.950 . S
C568 H564 0.949 . S
C568 C576 1.574 . S
C568 C584 1.333 1_545 S
H569 C577 0.950 . S
H570 C575 0.950 . S
H571 C576 0.949 . S
H572 C578 0.950 . S
H573 C579 0.950 . S
H574 C580 0.949 . S
C575 H570 0.950 . S
C575 C577 1.327 . S
C575 C581 1.391 1_565 S
C576 C568 1.574 . S
C576 H571 0.949 . S
C576 C582 1.377 . S
C577 C561 1.349 1_565 S
C577 H569 0.950 . S
C577 C575 1.327 . S
C578 C566 1.349 1_545 S
C578 H572 0.950 . S
C578 C579 1.327 . S
C579 H573 0.950 . S
C579 C578 1.327 . S
C579 C583 1.429 1_545 S
C580 C563 1.574 . S
C580 H574 0.949 . S
C580 C584 1.405 . S
C581 C562 1.466 . S
C581 C575 1.391 1_545 S
C581 C582 1.524 . S
C582 C563 1.359 1_545 S
C582 C576 1.377 . S
C582 C581 1.524 . S
C583 C567 1.429 . S
C583 C579 1.429 1_565 S
C583 C584 1.523 . S
C584 C568 1.333 1_565 S
C584 C580 1.405 . S
C584 C583 1.523 . S
H585 C560 0.950 . S
H586 C562 0.950 . S
H587 C563 0.949 . S
H588 C565 0.950 . S
H589 C567 0.950 . S
C590 C591 1.349 . S
C590 C592 1.327 . S
C590 H615 0.950 . S
C591 C590 1.349 . S
C591 C607 1.349 . S
C592 C590 1.327 . S
C592 C611 1.429 . S
C592 H616 0.950 . S
C593 C610 1.574 . S
C593 C612 1.368 . S
C593 H617 0.949 . S
H594 C598 0.949 . S
C595 C596 1.349 . S
C595 C597 1.327 . S
C595 H618 0.950 . S
C596 C595 1.349 . S
C596 C608 1.349 . S
C597 C595 1.327 . S
C597 C613 1.429 . S
C597 H619 0.950 . S
C598 H594 0.949 . S
C598 C606 1.574 . S
C598 C614 1.368 . S
H599 C607 0.950 . S
H600 C605 0.950 . S
H601 C606 0.949 . S
H602 C608 0.950 . S
H603 C609 0.950 . S
H604 C610 0.949 . S
C605 H600 0.950 . S
C605 C607 1.327 . S
C605 C611 1.429 . S
C606 C598 1.574 . S
C606 H601 0.949 . S
C606 C612 1.368 . S
C607 C591 1.349 . S
C607 H599 0.950 . S
C607 C605 1.327 . S
C608 C596 1.349 . S
C608 H602 0.950 . S
C608 C609 1.327 . S
C609 H603 0.950 . S
C609 C608 1.327 . S
C609 C613 1.429 . S
C610 C593 1.574 . S
C610 H604 0.949 . S
C610 C614 1.368 . S
C611 C592 1.429 . S
C611 C605 1.429 . S
C611 C612 1.523 . S
C612 C593 1.368 . S
C612 C606 1.368 . S
C612 C611 1.523 . S
C613 C597 1.429 . S
C613 C609 1.429 . S
C613 C614 1.523 . S
C614 C598 1.368 . S
C614 C610 1.368 . S
C614 C613 1.523 . S
H615 C590 0.950 . S
H616 C592 0.950 . S
H617 C593 0.949 . S
H618 C595 0.950 . S
H619 C597 0.950 . S
C620 C621 1.349 . S
C620 C622 1.327 . S
C620 H645 0.950 . S
C621 C620 1.349 . S
C621 C637 1.349 . S
C622 C620 1.327 . S
C622 C641 1.429 . S
C622 H646 0.950 . S
C623 C640 1.574 . S
C623 C642 1.368 . S
C623 H647 0.949 . S
H624 C628 0.949 . S
C625 C626 1.349 . S
C625 C627 1.327 . S
C625 H648 0.950 . S
C626 C625 1.349 . S
C626 C638 1.349 . S
C627 C625 1.327 . S
C627 C643 1.429 . S
C627 H649 0.950 . S
C628 H624 0.949 . S
C628 C636 1.574 . S
C628 C644 1.368 . S
H629 C637 0.950 . S
H630 C635 0.950 . S
H631 C636 0.949 . S
H632 C638 0.950 . S
H633 C639 0.950 . S
H634 C640 0.949 . S
C635 H630 0.950 . S
C635 C637 1.327 . S
C635 C641 1.429 . S
C636 C628 1.574 . S
C636 H631 0.949 . S
C636 C642 1.368 . S
C637 C621 1.349 . S
C637 H629 0.950 . S
C637 C635 1.327 . S
C638 C626 1.349 . S
C638 H632 0.950 . S
C638 C639 1.327 . S
C639 H633 0.950 . S
C639 C638 1.327 . S
C639 C643 1.429 . S
C640 C623 1.574 . S
C640 H634 0.949 . S
C640 C644 1.368 . S
C641 C622 1.429 . S
C641 C635 1.429 . S
C641 C642 1.523 . S
C642 C623 1.368 . S
C642 C636 1.368 . S
C642 C641 1.523 . S
C643 C627 1.429 . S
C643 C639 1.429 . S
C643 C644 1.523 . S
C644 C628 1.368 . S
C644 C640 1.368 . S
C644 C643 1.523 . S
H645 C620 0.950 . S
H646 C622 0.950 . S
H647 C623 0.949 . S
H648 C625 0.950 . S
H649 C627 0.950 . S
C650 C651 1.349 . S
C650 C652 1.327 . S
C650 H675 0.950 . S
C651 C650 1.349 . S
C651 C667 1.349 . S
C652 C650 1.327 . S
C652 C671 1.429 . S
C652 H676 0.950 . S
C653 C670 1.574 . S
C653 C672 1.368 . S
C653 H677 0.949 . S
H654 C658 0.949 . S
C655 C656 1.349 . S
C655 C657 1.327 . S
C655 H678 0.950 . S
C656 C655 1.349 . S
C656 C668 1.349 . S
C657 C655 1.327 . S
C657 C673 1.429 . S
C657 H679 0.950 . S
C658 H654 0.949 . S
C658 C666 1.574 . S
C658 C674 1.368 . S
H659 C667 0.950 . S
H660 C665 0.950 . S
H661 C666 0.949 . S
H662 C668 0.950 . S
H663 C669 0.950 . S
H664 C670 0.949 . S
C665 H660 0.950 . S
C665 C667 1.327 . S
C665 C671 1.429 . S
C666 C658 1.574 . S
C666 H661 0.949 . S
C666 C672 1.368 . S
C667 C651 1.349 . S
C667 H659 0.950 . S
C667 C665 1.327 . S
C668 C656 1.349 . S
C668 H662 0.950 . S
C668 C669 1.327 . S
C669 H663 0.950 . S
C669 C668 1.327 . S
C669 C673 1.429 . S
C670 C653 1.574 . S
C670 H664 0.949 . S
C670 C674 1.368 . S
C671 C652 1.429 . S
C671 C665 1.429 . S
C671 C672 1.523 . S
C672 C653 1.368 . S
C672 C666 1.368 . S
C672 C671 1.523 . S
C673 C657 1.429 . S
C673 C669 1.429 . S
C673 C674 1.523 . S
C674 C658 1.368 . S
C674 C670 1.368 . S
C674 C673 1.523 . S
H675 C650 0.950 . S
H676 C652 0.950 . S
H677 C653 0.949 . S
H678 C655 0.950 . S
H679 C657 0.950 . S
C680 C681 1.339 1_566 S
C680 C682 1.327 . S
C680 H705 0.950 . S
C681 C680 1.339 1_544 S
C681 C697 1.359 . S
C682 C680 1.327 . S
C682 C701 1.429 1_565 S
C682 H706 0.950 . S
C683 C700 1.574 . S
C683 C702 1.368 . S
C683 H707 0.949 . S
H684 C688 0.949 . S
C685 C686 1.349 . S
C685 C687 1.327 . S
C685 H708 0.950 . S
C686 C685 1.349 . S
C686 C698 1.349 1_545 S
C687 C685 1.327 . S
C687 C703 1.429 . S
C687 H709 0.950 . S
C688 H684 0.949 . S
C688 C696 1.574 . S
C688 C704 1.368 1_565 S
H689 C697 0.950 . S
H690 C695 0.950 . S
H691 C696 0.949 . S
H692 C698 0.950 . S
H693 C699 0.950 . S
H694 C700 0.949 . S
C695 H690 0.950 . S
C695 C697 1.327 1_556 S
C695 C701 1.429 . S
C696 C688 1.574 . S
C696 H691 0.949 . S
C696 C702 1.368 1_565 S
C697 C681 1.359 . S
C697 H689 0.950 . S
C697 C695 1.327 1_554 S
C698 C686 1.349 1_565 S
C698 H692 0.950 . S
C698 C699 1.327 . S
C699 H693 0.950 . S
C699 C698 1.327 . S
C699 C703 1.429 1_565 S
C700 C683 1.574 . S
C700 H694 0.949 . S
C700 C704 1.368 . S
C701 C682 1.429 1_545 S
C701 C695 1.429 . S
C701 C702 1.523 . S
C702 C683 1.368 . S
C702 C696 1.368 1_545 S
C702 C701 1.523 . S
C703 C687 1.429 . S
C703 C699 1.429 1_545 S
C703 C704 1.523 . S
C704 C688 1.368 1_545 S
C704 C700 1.368 . S
C704 C703 1.523 . S
H705 C680 0.950 . S
H706 C682 0.950 . S
H707 C683 0.949 . S
H708 C685 0.950 . S
H709 C687 0.950 . S
C710 C711 1.349 1_556 S
C710 C712 1.327 . S
C710 H735 0.950 . S
C711 C710 1.349 1_554 S
C711 C727 1.349 . S
C712 C710 1.327 . S
C712 C731 1.429 . S
C712 H736 0.950 . S
C713 C730 1.574 . S
C713 C732 1.368 . S
C713 H737 0.949 . S
H714 C718 0.949 . S
C715 C716 1.349 . S
C715 C717 1.327 . S
C715 H738 0.950 . S
C716 C715 1.349 . S
C716 C728 1.349 . S
C717 C715 1.327 . S
C717 C733 1.429 . S
C717 H739 0.950 . S
C718 H714 0.949 . S
C718 C726 1.574 . S
C718 C734 1.368 . S
H719 C727 0.950 . S
H720 C725 0.950 . S
H721 C726 0.949 . S
H722 C728 0.950 . S
H723 C729 0.950 . S
H724 C730 0.949 . S
C725 H720 0.950 . S
C725 C727 1.327 1_556 S
C725 C731 1.429 . S
C726 C718 1.574 . S
C726 H721 0.949 . S
C726 C732 1.368 . S
C727 C711 1.349 . S
C727 H719 0.950 . S
C727 C725 1.327 1_554 S
C728 C716 1.349 . S
C728 H722 0.950 . S
C728 C729 1.327 . S
C729 H723 0.950 . S
C729 C728 1.327 . S
C729 C733 1.429 . S
C730 C713 1.574 . S
C730 H724 0.949 . S
C730 C734 1.368 . S
C731 C712 1.429 . S
C731 C725 1.429 . S
C731 C732 1.523 . S
C732 C713 1.368 . S
C732 C726 1.368 . S
C732 C731 1.523 . S
C733 C717 1.429 . S
C733 C729 1.429 . S
C733 C734 1.523 . S
C734 C718 1.368 . S
C734 C730 1.368 . S
C734 C733 1.523 . S
H735 C710 0.950 . S
H736 C712 0.950 . S
H737 C713 0.949 . S
H738 C715 0.950 . S
H739 C717 0.950 . S
C740 C741 1.349 . S
C740 C742 1.327 . S
C740 H765 0.950 . S
C741 C740 1.349 . S
C741 C757 1.349 . S
C742 C740 1.327 . S
C742 C761 1.429 . S
C742 H766 0.950 . S
C743 C760 1.574 . S
C743 C762 1.368 . S
C743 H767 0.949 . S
H744 C748 0.949 . S
C745 C746 1.349 . S
C745 C747 1.327 . S
C745 H768 0.950 . S
C746 C745 1.349 . S
C746 C758 1.349 . S
C747 C745 1.327 . S
C747 C763 1.429 . S
C747 H769 0.950 . S
C748 H744 0.949 . S
C748 C756 1.574 . S
C748 C764 1.368 . S
H749 C757 0.950 1_554 S
H750 C755 0.950 . S
H751 C756 0.949 . S
H752 C758 0.950 . S
H753 C759 0.950 . S
H754 C760 0.949 . S
C755 H750 0.950 . S
C755 C757 1.327 . S
C755 C761 1.429 . S
C756 C748 1.574 . S
C756 H751 0.949 . S
C756 C762 1.368 . S
C757 C741 1.349 . S
C757 H749 0.950 1_556 S
C757 C755 1.327 . S
C758 C746 1.349 . S
C758 H752 0.950 . S
C758 C759 1.327 . S
C759 H753 0.950 . S
C759 C758 1.327 . S
C759 C763 1.429 . S
C760 C743 1.574 . S
C760 H754 0.949 . S
C760 C764 1.368 . S
C761 C742 1.429 . S
C761 C755 1.429 . S
C761 C762 1.523 . S
C762 C743 1.368 . S
C762 C756 1.368 . S
C762 C761 1.523 . S
C763 C747 1.429 . S
C763 C759 1.429 . S
C763 C764 1.523 . S
C764 C748 1.368 . S
C764 C760 1.368 . S
C764 C763 1.523 . S
H765 C740 0.950 . S
H766 C742 0.950 . S
H767 C743 0.949 . S
H768 C745 0.950 . S
H769 C747 0.950 . S
C770 C771 1.349 . S
C770 C772 1.327 . S
C770 H795 0.950 . S
C771 C770 1.349 . S
C771 C787 1.349 . S
C772 C770 1.327 . S
C772 C791 1.429 . S
C772 H796 0.950 . S
C773 C790 1.574 . S
C773 C792 1.368 . S
C773 H797 0.949 . S
H774 C778 0.949 . S
C775 C776 1.349 . S
C775 C777 1.327 . S
C775 H798 0.950 . S
C776 C775 1.349 . S
C776 C788 1.349 . S
C777 C775 1.327 . S
C777 C793 1.429 . S
C777 H799 0.950 . S
C778 H774 0.949 . S
C778 C786 1.574 . S
C778 C794 1.368 . S
H779 C787 0.950 1_554 S
H780 C785 0.950 . S
H781 C786 0.949 . S
H782 C788 0.950 . S
H783 C789 0.950 . S
H784 C790 0.949 . S
C785 H780 0.950 . S
C785 C787 1.327 . S
C785 C791 1.429 . S
C786 C778 1.574 . S
C786 H781 0.949 . S
C786 C792 1.368 . S
C787 C771 1.349 . S
C787 H779 0.950 1_556 S
C787 C785 1.327 . S
C788 C776 1.349 . S
C788 H782 0.950 . S
C788 C789 1.327 . S
C789 H783 0.950 . S
C789 C788 1.327 . S
C789 C793 1.429 . S
C790 C773 1.574 . S
C790 H784 0.949 . S
C790 C794 1.368 . S
C791 C772 1.429 . S
C791 C785 1.429 . S
C791 C792 1.523 . S
C792 C773 1.368 . S
C792 C786 1.368 . S
C792 C791 1.523 . S
C793 C777 1.429 . S
C793 C789 1.429 . S
C793 C794 1.523 . S
C794 C778 1.368 . S
C794 C790 1.368 . S
C794 C793 1.523 . S
H795 C770 0.950 . S
H796 C772 0.950 . S
H797 C773 0.949 . S
H798 C775 0.950 . S
H799 C777 0.950 . S
C800 C801 1.349 . S
C800 C802 1.327 . S
C800 H825 0.950 . S
C801 C800 1.349 . S
C801 C817 1.349 . S
C802 C800 1.327 . S
C802 C821 1.429 . S
C802 H826 0.950 . S
C803 C820 1.574 . S
C803 C822 1.368 . S
C803 H827 0.949 . S
H804 C808 0.949 . S
C805 C806 1.349 . S
C805 C807 1.327 . S
C805 H828 0.950 . S
C806 C805 1.349 . S
C806 C818 1.349 . S
C807 C805 1.327 . S
C807 C823 1.429 . S
C807 H829 0.950 . S
C808 H804 0.949 . S
C808 C816 1.574 . S
C808 C824 1.368 . S
H809 C817 0.950 . S
H810 C815 0.950 . S
H811 C816 0.949 . S
H812 C818 0.950 . S
H813 C819 0.950 . S
H814 C820 0.949 . S
C815 H810 0.950 . S
C815 C817 1.327 . S
C815 C821 1.429 . S
C816 C808 1.574 . S
C816 H811 0.949 . S
C816 C822 1.368 . S
C817 C801 1.349 . S
C817 H809 0.950 . S
C817 C815 1.327 . S
C818 C806 1.349 . S
C818 H812 0.950 . S
C818 C819 1.327 . S
C819 H813 0.950 . S
C819 C818 1.327 . S
C819 C823 1.429 . S
C820 C803 1.574 . S
C820 H814 0.949 . S
C820 C824 1.368 . S
C821 C802 1.429 . S
C821 C815 1.429 . S
C821 C822 1.523 . S
C822 C803 1.368 . S
C822 C816 1.368 . S
C822 C821 1.523 . S
C823 C807 1.429 . S
C823 C819 1.429 . S
C823 C824 1.523 . S
C824 C808 1.368 . S
C824 C820 1.368 . S
C824 C823 1.523 . S
H825 C800 0.950 . S
H826 C802 0.950 . S
H827 C803 0.949 . S
H828 C805 0.950 . S
H829 C807 0.950 . S
C830 C831 1.349 . S
C830 C832 1.327 . S
C830 H855 0.950 . S
C831 C830 1.349 . S
C831 C847 1.349 1_545 S
C832 C830 1.327 . S
C832 C851 1.429 . S
C832 H856 0.950 . S
C833 C850 1.574 . S
C833 C852 1.368 1_565 S
C833 H857 0.949 . S
H834 C838 0.949 . S
C835 C836 1.349 . S
C835 C837 1.327 . S
C835 H858 0.950 . S
C836 C835 1.349 . S
C836 C848 1.349 1_565 S
C837 C835 1.327 . S
C837 C853 1.436 . S
C837 H859 0.950 . S
C838 H834 0.949 . S
C838 C846 1.574 . S
C838 C854 1.378 . S
H839 C847 0.950 . S
H840 C845 0.950 . S
H841 C846 0.949 . S
H842 C848 0.950 . S
H843 C849 0.950 . S
H844 C850 0.949 . S
C845 H840 0.950 . S
C845 C847 1.327 . S
C845 C851 1.429 1_565 S
C846 C838 1.574 . S
C846 H841 0.949 . S
C846 C852 1.368 . S
C847 C831 1.349 1_565 S
C847 H839 0.950 . S
C847 C845 1.327 . S
C848 C836 1.349 1_545 S
C848 H842 0.950 . S
C848 C849 1.327 . S
C849 H843 0.950 . S
C849 C848 1.327 . S
C849 C853 1.422 1_545 S
C850 C833 1.574 . S
C850 H844 0.949 . S
C850 C854 1.359 1_565 S
C851 C832 1.429 . S
C851 C845 1.429 1_545 S
C851 C852 1.523 . S
C852 C833 1.368 1_545 S
C852 C846 1.368 . S
C852 C851 1.523 . S
C853 C837 1.436 . S
C853 C849 1.422 1_565 S
C853 C854 1.521 1_565 S
C854 C838 1.378 . S
C854 C850 1.359 1_545 S
C854 C853 1.521 1_545 S
H855 C830 0.950 . S
H856 C832 0.950 . S
H857 C833 0.949 . S
H858 C835 0.950 . S
H859 C837 0.950 . S
C860 C861 1.349 . S
C860 C862 1.327 . S
C860 H885 0.950 . S
C861 C860 1.349 . S
C861 C877 1.349 . S
C862 C860 1.327 . S
C862 C881 1.429 . S
C862 H886 0.950 . S
C863 C880 1.574 . S
C863 C882 1.368 . S
C863 H887 0.949 . S
H864 C868 0.949 . S
C865 C866 1.349 . S
C865 C867 1.327 . S
C865 H888 0.950 . S
C866 C865 1.349 . S
C866 C878 1.349 . S
C867 C865 1.327 . S
C867 C883 1.429 . S
C867 H889 0.950 . S
C868 H864 0.949 . S
C868 C876 1.574 . S
C868 C884 1.368 . S
H869 C877 0.950 . S
H870 C875 0.950 . S
H871 C876 0.949 . S
H872 C878 0.950 . S
H873 C879 0.950 . S
H874 C880 0.949 . S
C875 H870 0.950 . S
C875 C877 1.327 . S
C875 C881 1.429 . S
C876 C868 1.574 . S
C876 H871 0.949 . S
C876 C882 1.368 . S
C877 C861 1.349 . S
C877 H869 0.950 . S
C877 C875 1.327 . S
C878 C866 1.349 . S
C878 H872 0.950 . S
C878 C879 1.327 . S
C879 H873 0.950 . S
C879 C878 1.327 . S
C879 C883 1.429 . S
C880 C863 1.574 . S
C880 H874 0.949 . S
C880 C884 1.368 . S
C881 C862 1.429 . S
C881 C875 1.429 . S
C881 C882 1.523 . S
C882 C863 1.368 . S
C882 C876 1.368 . S
C882 C881 1.523 . S
C883 C867 1.429 . S
C883 C879 1.429 . S
C883 C884 1.523 . S
C884 C868 1.368 . S
C884 C880 1.368 . S
C884 C883 1.523 . S
H885 C860 0.950 . S
H886 C862 0.950 . S
H887 C863 0.949 . S
H888 C865 0.950 . S
H889 C867 0.950 . S
C890 C891 1.349 . S
C890 C892 1.327 . S
C890 H915 0.950 . S
C891 C890 1.349 . S
C891 C907 1.349 . S
C892 C890 1.327 . S
C892 C911 1.429 . S
C892 H916 0.950 . S
C893 C910 1.574 . S
C893 C912 1.368 . S
C893 H917 0.949 . S
H894 C898 0.949 . S
C895 C896 1.349 . S
C895 C897 1.327 . S
C895 H918 0.950 . S
C896 C895 1.349 . S
C896 C908 1.349 . S
C897 C895 1.327 . S
C897 C913 1.429 . S
C897 H919 0.950 . S
C898 H894 0.949 . S
C898 C906 1.574 . S
C898 C914 1.368 . S
H899 C907 0.950 . S
H900 C905 0.950 . S
H901 C906 0.949 . S
H902 C908 0.950 . S
H903 C909 0.950 . S
H904 C910 0.949 . S
C905 H900 0.950 . S
C905 C907 1.327 . S
C905 C911 1.429 . S
C906 C898 1.574 . S
C906 H901 0.949 . S
C906 C912 1.368 . S
C907 C891 1.349 . S
C907 H899 0.950 . S
C907 C905 1.327 . S
C908 C896 1.349 . S
C908 H902 0.950 . S
C908 C909 1.327 . S
C909 H903 0.950 . S
C909 C908 1.327 . S
C909 C913 1.429 . S
C910 C893 1.574 . S
C910 H904 0.949 . S
C910 C914 1.368 . S
C911 C892 1.429 . S
C911 C905 1.429 . S
C911 C912 1.523 . S
C912 C893 1.368 . S
C912 C906 1.368 . S
C912 C911 1.523 . S
C913 C897 1.429 . S
C913 C909 1.429 . S
C913 C914 1.523 . S
C914 C898 1.368 . S
C914 C910 1.368 . S
C914 C913 1.523 . S
H915 C890 0.950 . S
H916 C892 0.950 . S
H917 C893 0.949 . S
H918 C895 0.950 . S
H919 C897 0.950 . S
C920 C921 1.349 . S
C920 C922 1.327 . S
C920 H945 0.950 . S
C921 C920 1.349 . S
C921 C937 1.349 . S
C922 C920 1.327 . S
C922 C941 1.429 . S
C922 H946 0.950 . S
C923 C940 1.574 . S
C923 C942 1.368 . S
C923 H947 0.949 . S
H924 C928 0.949 . S
C925 C926 1.349 . S
C925 C927 1.327 . S
C925 H948 0.950 . S
C926 C925 1.349 . S
C926 C938 1.349 . S
C927 C925 1.327 . S
C927 C943 1.429 . S
C927 H949 0.950 . S
C928 H924 0.949 . S
C928 C936 1.574 . S
C928 C944 1.368 . S
H929 C937 0.950 . S
H930 C935 0.950 . S
H931 C936 0.949 . S
H932 C938 0.950 . S
H933 C939 0.950 . S
H934 C940 0.949 . S
C935 H930 0.950 . S
C935 C937 1.327 . S
C935 C941 1.429 . S
C936 C928 1.574 . S
C936 H931 0.949 . S
C936 C942 1.368 . S
C937 C921 1.349 . S
C937 H929 0.950 . S
C937 C935 1.327 . S
C938 C926 1.349 . S
C938 H932 0.950 . S
C938 C939 1.327 . S
C939 H933 0.950 . S
C939 C938 1.327 . S
C939 C943 1.429 . S
C940 C923 1.574 . S
C940 H934 0.949 . S
C940 C944 1.368 . S
C941 C922 1.429 . S
C941 C935 1.429 . S
C941 C942 1.523 . S
C942 C923 1.368 . S
C942 C936 1.368 . S
C942 C941 1.523 . S
C943 C927 1.429 . S
C943 C939 1.429 . S
C943 C944 1.523 . S
C944 C928 1.368 . S
C944 C940 1.368 . S
C944 C943 1.523 . S
H945 C920 0.950 . S
H946 C922 0.950 . S
H947 C923 0.949 . S
H948 C925 0.950 . S
H949 C927 0.950 . S
C950 C951 1.348 1_545 S
C950 C952 1.327 . S
C950 H975 0.950 . S
C951 C950 1.348 1_565 S
C951 C967 1.350 . S
C952 C950 1.327 . S
C952 C971 1.459 . S
C952 H976 0.950 . S
C953 C970 1.574 . S
C953 C972 1.368 1_565 S
C953 H977 0.949 . S
H954 C958 0.949 . S
C955 C956 1.349 1_565 S
C955 C957 1.327 . S
C955 H978 0.950 . S
C956 C955 1.349 1_545 S
C956 C968 1.349 . S
C957 C955 1.327 . S
C957 C973 1.429 1_565 S
C957 H979 0.950 . S
C958 H954 0.949 . S
C958 C966 1.574 . S
C958 C974 1.368 . S
H959 C967 0.950 . S
H960 C965 0.950 . S
H961 C966 0.949 . S
H962 C968 0.950 . S
H963 C969 0.950 . S
H964 C970 0.949 . S
C965 H960 0.950 . S
C965 C967 1.327 . S
C965 C971 1.393 1_565 S
C966 C958 1.574 . S
C966 H961 0.949 . S
C966 C972 1.368 . S
C967 C951 1.350 . S
C967 H959 0.950 . S
C967 C965 1.327 . S
C968 C956 1.349 . S
C968 H962 0.950 . S
C968 C969 1.327 . S
C969 H963 0.950 . S
C969 C968 1.327 . S
C969 C973 1.429 . S
C970 C953 1.574 . S
C970 H964 0.949 . S
C970 C974 1.368 1_565 S
C971 C952 1.459 . S
C971 C965 1.393 1_545 S
C971 C972 1.529 . S
C972 C953 1.368 1_545 S
C972 C966 1.368 . S
C972 C971 1.529 . S
C973 C957 1.429 1_545 S
C973 C969 1.429 . S
C973 C974 1.523 . S
C974 C958 1.368 . S
C974 C970 1.368 1_545 S
C974 C973 1.523 . S
H975 C950 0.950 . S
H976 C952 0.950 . S
H977 C953 0.949 . S
H978 C955 0.950 . S
H979 C957 0.950 . S
C980 C981 1.349 . S
C980 C982 1.327 . S
C980 H1005 0.950 . S
C981 C980 1.349 . S
C981 C997 1.349 . S
C982 C980 1.327 . S
C982 C1001 1.429 . S
C982 H1006 0.950 . S
C983 C1000 1.574 . S
C983 C1002 1.368 . S
C983 H1007 0.949 . S
H984 C988 0.949 . S
C985 C986 1.349 . S
C985 C987 1.327 . S
C985 H1008 0.950 . S
C986 C985 1.349 . S
C986 C998 1.349 . S
C987 C985 1.327 . S
C987 C1003 1.429 . S
C987 H1009 0.950 . S
C988 H984 0.949 . S
C988 C996 1.574 . S
C988 C1004 1.368 . S
H989 C997 0.950 . S
H990 C995 0.950 . S
H991 C996 0.949 . S
H992 C998 0.950 . S
H993 C999 0.950 . S
H994 C1000 0.949 . S
C995 H990 0.950 . S
C995 C997 1.327 . S
C995 C1001 1.429 . S
C996 C988 1.574 . S
C996 H991 0.949 . S
C996 C1002 1.368 . S
C997 C981 1.349 . S
C997 H989 0.950 . S
C997 C995 1.327 . S
C998 C986 1.349 . S
C998 H992 0.950 . S
C998 C999 1.327 . S
C999 H993 0.950 . S
C999 C998 1.327 . S
C999 C1003 1.429 . S
C1000 C983 1.574 . S
C1000 H994 0.949 . S
C1000 C1004 1.368 . S
C1001 C982 1.429 . S
C1001 C995 1.429 . S
C1001 C1002 1.523 . S
C1002 C983 1.368 . S
C1002 C996 1.368 . S
C1002 C1001 1.523 . S
C1003 C987 1.429 . S
C1003 C999 1.429 . S
C1003 C1004 1.523 . S
C1004 C988 1.368 . S
C1004 C1000 1.368 . S
C1004 C1003 1.523 . S
H1005 C980 0.950 . S
H1006 C982 0.950 . S
H1007 C983 0.949 . S
H1008 C985 0.950 . S
H1009 C987 0.950 . S
C1010 C1011 1.349 . S
C1010 C1012 1.327 . S
C1010 H1035 0.950 . S
C1011 C1010 1.349 . S
C1011 C1027 1.349 . S
C1012 C1010 1.327 . S
C1012 C1031 1.429 . S
C1012 H1036 0.950 . S
C1013 C1030 1.574 . S
C1013 C1032 1.368 . S
C1013 H1037 0.949 . S
H1014 C1018 0.949 . S
C1015 C1016 1.349 . S
C1015 C1017 1.327 . S
C1015 H1038 0.950 . S
C1016 C1015 1.349 . S
C1016 C1028 1.349 . S
C1017 C1015 1.327 . S
C1017 C1033 1.429 . S
C1017 H1039 0.950 . S
C1018 H1014 0.949 . S
C1018 C1026 1.574 . S
C1018 C1034 1.368 . S
H1019 C1027 0.950 . S
H1020 C1025 0.950 . S
H1021 C1026 0.949 . S
H1022 C1028 0.950 . S
H1023 C1029 0.950 . S
H1024 C1030 0.949 . S
C1025 H1020 0.950 . S
C1025 C1027 1.327 . S
C1025 C1031 1.429 . S
C1026 C1018 1.574 . S
C1026 H1021 0.949 . S
C1026 C1032 1.368 . S
C1027 C1011 1.349 . S
C1027 H1019 0.950 . S
C1027 C1025 1.327 . S
C1028 C1016 1.349 . S
C1028 H1022 0.950 . S
C1028 C1029 1.327 . S
C1029 H1023 0.950 . S
C1029 C1028 1.327 . S
C1029 C1033 1.429 . S
C1030 C1013 1.574 . S
C1030 H1024 0.949 . S
C1030 C1034 1.368 . S
C1031 C1012 1.429 . S
C1031 C1025 1.429 . S
C1031 C1032 1.523 . S
C1032 C1013 1.368 . S
C1032 C1026 1.368 . S
C1032 C1031 1.523 . S
C1033 C1017 1.429 . S
C1033 C1029 1.429 . S
C1033 C1034 1.523 . S
C1034 C1018 1.368 . S
C1034 C1030 1.368 . S
C1034 C1033 1.523 . S
H1035 C1010 0.950 . S
H1036 C1012 0.950 . S
H1037 C1013 0.949 . S
H1038 C1015 0.950 . S
H1039 C1017 0.950 . S
C1040 C1041 1.349 . S
C1040 C1042 1.327 1_554 S
C1040 H1065 0.950 1_554 S
C1041 C1040 1.349 . S
C1041 C1057 1.349 . S
C1042 C1040 1.327 1_556 S
C1042 C1061 1.429 1_556 S
C1042 H1066 0.950 . S
C1043 C1060 1.574 1_554 S
C1043 C1062 1.368 1_554 S
C1043 H1067 0.949 . S
H1044 C1048 0.949 . S
C1045 C1046 1.349 . S
C1045 C1047 1.327 . S
C1045 H1068 0.950 . S
C1046 C1045 1.349 . S
C1046 C1058 1.349 . S
C1047 C1045 1.327 . S
C1047 C1063 1.429 . S
C1047 H1069 0.950 . S
C1048 H1044 0.949 . S
C1048 C1056 1.574 . S
C1048 C1064 1.368 . S
H1049 C1057 0.950 . S
H1050 C1055 0.950 . S
H1051 C1056 0.949 . S
H1052 C1058 0.950 . S
H1053 C1059 0.950 . S
H1054 C1060 0.949 . S
C1055 H1050 0.950 . S
C1055 C1057 1.327 . S
C1055 C1061 1.429 . S
C1056 C1048 1.574 . S
C1056 H1051 0.949 . S
C1056 C1062 1.368 . S
C1057 C1041 1.349 . S
C1057 H1049 0.950 . S
C1057 C1055 1.327 . S
C1058 C1046 1.349 . S
C1058 H1052 0.950 . S
C1058 C1059 1.327 . S
C1059 H1053 0.950 . S
C1059 C1058 1.327 . S
C1059 C1063 1.429 . S
C1060 C1043 1.574 1_556 S
C1060 H1054 0.949 . S
C1060 C1064 1.368 . S
C1061 C1042 1.429 1_554 S
C1061 C1055 1.429 . S
C1061 C1062 1.523 1_554 S
C1062 C1043 1.368 1_556 S
C1062 C1056 1.368 . S
C1062 C1061 1.523 1_556 S
C1063 C1047 1.429 . S
C1063 C1059 1.429 . S
C1063 C1064 1.523 . S
C1064 C1048 1.368 . S
C1064 C1060 1.368 . S
C1064 C1063 1.523 . S
H1065 C1040 0.950 1_556 S
H1066 C1042 0.950 . S
H1067 C1043 0.949 . S
H1068 C1045 0.950 . S
H1069 C1047 0.950 . S
C1070 C1071 1.349 1_566 S
C1070 C1072 1.327 . S
C1070 H1095 0.950 . S
C1071 C1070 1.349 1_544 S
C1071 C1087 1.349 . S
C1072 C1070 1.327 . S
C1072 C1091 1.429 1_565 S
C1072 H1096 0.950 . S
C1073 C1090 1.574 . S
C1073 C1092 1.368 . S
C1073 H1097 0.949 . S
H1074 C1078 0.949 . S
C1075 C1076 1.349 . S
C1075 C1077 1.327 . S
C1075 H1098 0.950 . S
C1076 C1075 1.349 . S
C1076 C1088 1.349 1_545 S
C1077 C1075 1.327 . S
C1077 C1093 1.429 . S
C1077 H1099 0.950 . S
C1078 H1074 0.949 . S
C1078 C1086 1.574 . S
C1078 C1094 1.368 1_565 S
H1079 C1087 0.950 . S
H1080 C1085 0.950 1_554 S
H1081 C1086 0.949 . S
H1082 C1088 0.950 . S
H1083 C1089 0.950 . S
H1084 C1090 0.949 . S
C1085 H1080 0.950 1_556 S
C1085 C1087 1.327 1_556 S
C1085 C1091 1.429 . S
C1086 C1078 1.574 . S
C1086 H1081 0.949 . S
C1086 C1092 1.368 1_565 S
C1087 C1071 1.349 . S
C1087 H1079 0.950 . S
C1087 C1085 1.327 1_554 S
C1088 C1076 1.349 1_565 S
C1088 H1082 0.950 . S
C1088 C1089 1.327 . S
C1089 H1083 0.950 . S
C1089 C1088 1.327 . S
C1089 C1093 1.429 1_565 S
C1090 C1073 1.574 . S
C1090 H1084 0.949 . S
C1090 C1094 1.368 . S
C1091 C1072 1.429 1_545 S
C1091 C1085 1.429 . S
C1091 C1092 1.523 . S
C1092 C1073 1.368 . S
C1092 C1086 1.368 1_545 S
C1092 C1091 1.523 . S
C1093 C1077 1.429 . S
C1093 C1089 1.429 1_545 S
C1093 C1094 1.523 . S
C1094 C1078 1.368 1_545 S
C1094 C1090 1.368 . S
C1094 C1093 1.523 . S
H1095 C1070 0.950 . S
H1096 C1072 0.950 . S
H1097 C1073 0.949 . S
H1098 C1075 0.950 . S
H1099 C1077 0.950 . S
C1100 C1101 1.349 . S
C1100 C1102 1.327 . S
C1100 H1125 0.950 . S
C1101 C1100 1.349 . S
C1101 C1117 1.349 1_554 S
C1102 C1100 1.327 . S
C1102 C1121 1.429 1_554 S
C1102 H1126 0.950 . S
C1103 C1120 1.574 . S
C1103 C1122 1.368 . S
C1103 H1127 0.949 . S
H1104 C1108 0.949 . S
C1105 C1106 1.349 . S
C1105 C1107 1.327 . S
C1105 H1128 0.950 . S
C1106 C1105 1.349 . S
C1106 C1118 1.349 . S
C1107 C1105 1.327 . S
C1107 C1123 1.429 . S
C1107 H1129 0.950 . S
C1108 H1104 0.949 . S
C1108 C1116 1.574 . S
C1108 C1124 1.368 . S
H1109 C1117 0.950 . S
H1110 C1115 0.950 . S
H1111 C1116 0.949 1_554 S
H1112 C1118 0.950 . S
H1113 C1119 0.950 . S
H1114 C1120 0.949 . S
C1115 H1110 0.950 . S
C1115 C1117 1.327 . S
C1115 C1121 1.429 . S
C1116 C1108 1.574 . S
C1116 H1111 0.949 1_556 S
C1116 C1122 1.368 . S
C1117 C1101 1.349 1_556 S
C1117 H1109 0.950 . S
C1117 C1115 1.327 . S
C1118 C1106 1.349 . S
C1118 H1112 0.950 . S
C1118 C1119 1.327 . S
C1119 H1113 0.950 . S
C1119 C1118 1.327 . S
C1119 C1123 1.429 . S
C1120 C1103 1.574 . S
C1120 H1114 0.949 . S
C1120 C1124 1.368 . S
C1121 C1102 1.429 1_556 S
C1121 C1115 1.429 . S
C1121 C1122 1.523 . S
C1122 C1103 1.368 . S
C1122 C1116 1.368 . S
C1122 C1121 1.523 . S
C1123 C1107 1.429 . S
C1123 C1119 1.429 . S
C1123 C1124 1.523 . S
C1124 C1108 1.368 . S
C1124 C1120 1.368 . S
C1124 C1123 1.523 . S
H1125 C1100 0.950 . S
H1126 C1102 0.950 . S
H1127 C1103 0.949 . S
H1128 C1105 0.950 . S
H1129 C1107 0.950 . S
C1130 C1131 1.349 . S
C1130 C1132 1.327 . S
C1130 H1155 0.950 . S
C1131 C1130 1.349 . S
C1131 C1147 1.349 1_554 S
C1132 C1130 1.327 . S
C1132 C1151 1.429 1_554 S
C1132 H1156 0.950 . S
C1133 C1150 1.574 . S
C1133 C1152 1.368 . S
C1133 H1157 0.949 . S
H1134 C1138 0.949 . S
C1135 C1136 1.349 . S
C1135 C1137 1.327 . S
C1135 H1158 0.950 . S
C1136 C1135 1.349 . S
C1136 C1148 1.349 . S
C1137 C1135 1.327 . S
C1137 C1153 1.429 . S
C1137 H1159 0.950 . S
C1138 H1134 0.949 . S
C1138 C1146 1.574 . S
C1138 C1154 1.368 . S
H1139 C1147 0.950 . S
H1140 C1145 0.950 . S
H1141 C1146 0.949 1_554 S
H1142 C1148 0.950 . S
H1143 C1149 0.950 . S
H1144 C1150 0.949 . S
C1145 H1140 0.950 . S
C1145 C1147 1.327 . S
C1145 C1151 1.429 . S
C1146 C1138 1.574 . S
C1146 H1141 0.949 1_556 S
C1146 C1152 1.368 . S
C1147 C1131 1.349 1_556 S
C1147 H1139 0.950 . S
C1147 C1145 1.327 . S
C1148 C1136 1.349 . S
C1148 H1142 0.950 . S
C1148 C1149 1.327 . S
C1149 H1143 0.950 . S
C1149 C1148 1.327 . S
C1149 C1153 1.429 . S
C1150 C1133 1.574 . S
C1150 H1144 0.949 . S
C1150 C1154 1.368 . S
C1151 C1132 1.429 1_556 S
C1151 C1145 1.429 . S
C1151 C1152 1.523 . S
C1152 C1133 1.368 . S
C1152 C1146 1.368 . S
C1152 C1151 1.523 . S
C1153 C1137 1.429 . S
C1153 C1149 1.429 . S
C1153 C1154 1.523 . S
C1154 C1138 1.368 . S
C1154 C1150 1.368 . S
C1154 C1153 1.523 . S
H1155 C1130 0.950 . S
H1156 C1132 0.950 . S
H1157 C1133 0.949 . S
H1158 C1135 0.950 . S
H1159 C1137 0.950 . S
C1160 C1161 1.349 . S
C1160 C1162 1.327 . S
C1160 H1185 0.950 . S
C1161 C1160 1.349 . S
C1161 C1177 1.349 . S
C1162 C1160 1.327 . S
C1162 C1181 1.429 . S
C1162 H1186 0.950 . S
C1163 C1180 1.574 . S
C1163 C1182 1.368 . S
C1163 H1187 0.949 . S
H1164 C1168 0.949 . S
C1165 C1166 1.349 . S
C1165 C1167 1.327 . S
C1165 H1188 0.950 . S
C1166 C1165 1.349 . S
C1166 C1178 1.349 . S
C1167 C1165 1.327 . S
C1167 C1183 1.429 . S
C1167 H1189 0.950 . S
C1168 H1164 0.949 . S
C1168 C1176 1.574 . S
C1168 C1184 1.368 . S
H1169 C1177 0.950 . S
H1170 C1175 0.950 . S
H1171 C1176 0.949 . S
H1172 C1178 0.950 . S
H1173 C1179 0.950 . S
H1174 C1180 0.949 . S
C1175 H1170 0.950 . S
C1175 C1177 1.327 . S
C1175 C1181 1.429 . S
C1176 C1168 1.574 . S
C1176 H1171 0.949 . S
C1176 C1182 1.368 . S
C1177 C1161 1.349 . S
C1177 H1169 0.950 . S
C1177 C1175 1.327 . S
C1178 C1166 1.349 . S
C1178 H1172 0.950 . S
C1178 C1179 1.327 . S
C1179 H1173 0.950 . S
C1179 C1178 1.327 . S
C1179 C1183 1.429 . S
C1180 C1163 1.574 . S
C1180 H1174 0.949 . S
C1180 C1184 1.368 . S
C1181 C1162 1.429 . S
C1181 C1175 1.429 . S
C1181 C1182 1.523 . S
C1182 C1163 1.368 . S
C1182 C1176 1.368 . S
C1182 C1181 1.523 . S
C1183 C1167 1.429 . S
C1183 C1179 1.429 . S
C1183 C1184 1.523 . S
C1184 C1168 1.368 . S
C1184 C1180 1.368 . S
C1184 C1183 1.523 . S
H1185 C1160 0.950 . S
H1186 C1162 0.950 . S
H1187 C1163 0.949 . S
H1188 C1165 0.950 . S
H1189 C1167 0.950 . S
C1190 C1191 1.345 . S
C1190 C1192 1.327 . S
C1190 H1215 0.950 . S
C1191 C1190 1.345 . S
C1191 C1207 1.353 1_565 S
C1192 C1190 1.327 . S
C1192 C1211 1.428 . S
C1192 H1216 0.950 . S
C1193 C1210 1.574 . S
C1193 C1212 1.367 1_545 S
C1193 H1217 0.949 . S
H1194 C1198 0.949 . S
C1195 C1196 1.341 1_545 S
C1195 C1197 1.327 . S
C1195 H1218 0.950 . S
C1196 C1195 1.341 1_565 S
C1196 C1208 1.358 . S
C1197 C1195 1.327 . S
C1197 C1213 1.423 1_545 S
C1197 H1219 0.950 . S
C1198 H1194 0.949 . S
C1198 C1206 1.574 . S
C1198 C1214 1.373 . S
H1199 C1207 0.950 . S
H1200 C1205 0.950 . S
H1201 C1206 0.949 . S
H1202 C1208 0.950 . S
H1203 C1209 0.950 . S
H1204 C1210 0.949 . S
C1205 H1200 0.950 . S
C1205 C1207 1.327 . S
C1205 C1211 1.429 1_545 S
C1206 C1198 1.574 . S
C1206 H1201 0.949 . S
C1206 C1212 1.369 . S
C1207 C1191 1.353 1_545 S
C1207 H1199 0.950 . S
C1207 C1205 1.327 . S
C1208 C1196 1.358 . S
C1208 H1202 0.950 . S
C1208 C1209 1.327 . S
C1209 H1203 0.950 . S
C1209 C1208 1.327 . S
C1209 C1213 1.434 . S
C1210 C1193 1.574 . S
C1210 H1204 0.949 . S
C1210 C1214 1.364 1_545 S
C1211 C1192 1.428 . S
C1211 C1205 1.429 1_565 S
C1211 C1212 1.523 . S
C1212 C1193 1.367 1_565 S
C1212 C1206 1.369 . S
C1212 C1211 1.523 . S
C1213 C1197 1.423 1_565 S
C1213 C1209 1.434 . S
C1213 C1214 1.523 . S
C1214 C1198 1.373 . S
C1214 C1210 1.364 1_565 S
C1214 C1213 1.523 . S
H1215 C1190 0.950 . S
H1216 C1192 0.950 . S
H1217 C1193 0.949 . S
H1218 C1195 0.950 . S
H1219 C1197 0.950 . S
C1220 C1221 1.349 . S
C1220 C1222 1.327 . S
C1220 H1245 0.950 . S
C1221 C1220 1.349 . S
C1221 C1237 1.349 . S
C1222 C1220 1.327 . S
C1222 C1241 1.429 . S
C1222 H1246 0.950 . S
C1223 C1240 1.574 . S
C1223 C1242 1.368 . S
C1223 H1247 0.949 . S
H1224 C1228 0.949 . S
C1225 C1226 1.349 . S
C1225 C1227 1.327 . S
C1225 H1248 0.950 . S
C1226 C1225 1.349 . S
C1226 C1238 1.349 . S
C1227 C1225 1.327 . S
C1227 C1243 1.429 . S
C1227 H1249 0.950 . S
C1228 H1224 0.949 . S
C1228 C1236 1.574 . S
C1228 C1244 1.368 . S
H1229 C1237 0.950 . S
H1230 C1235 0.950 . S
H1231 C1236 0.949 . S
H1232 C1238 0.950 . S
H1233 C1239 0.950 . S
H1234 C1240 0.949 . S
C1235 H1230 0.950 . S
C1235 C1237 1.327 . S
C1235 C1241 1.429 . S
C1236 C1228 1.574 . S
C1236 H1231 0.949 . S
C1236 C1242 1.368 . S
C1237 C1221 1.349 . S
C1237 H1229 0.950 . S
C1237 C1235 1.327 . S
C1238 C1226 1.349 . S
C1238 H1232 0.950 . S
C1238 C1239 1.327 . S
C1239 H1233 0.950 . S
C1239 C1238 1.327 . S
C1239 C1243 1.429 . S
C1240 C1223 1.574 . S
C1240 H1234 0.949 . S
C1240 C1244 1.368 . S
C1241 C1222 1.429 . S
C1241 C1235 1.429 . S
C1241 C1242 1.523 . S
C1242 C1223 1.368 . S
C1242 C1236 1.368 . S
C1242 C1241 1.523 . S
C1243 C1227 1.429 . S
C1243 C1239 1.429 . S
C1243 C1244 1.523 . S
C1244 C1228 1.368 . S
C1244 C1240 1.368 . S
C1244 C1243 1.523 . S
H1245 C1220 0.950 . S
H1246 C1222 0.950 . S
H1247 C1223 0.949 . S
H1248 C1225 0.950 . S
H1249 C1227 0.950 . S
C1250 C1251 1.349 . S
C1250 C1252 1.327 . S
C1250 H1275 0.950 . S
C1251 C1250 1.349 . S
C1251 C1267 1.349 . S
C1252 C1250 1.327 . S
C1252 C1271 1.429 . S
C1252 H1276 0.950 . S
C1253 C1270 1.574 . S
C1253 C1272 1.368 . S
C1253 H1277 0.949 . S
H1254 C1258 0.949 . S
C1255 C1256 1.349 . S
C1255 C1257 1.327 . S
C1255 H1278 0.950 . S
C1256 C1255 1.349 . S
C1256 C1268 1.349 . S
C1257 C1255 1.327 . S
C1257 C1273 1.429 . S
C1257 H1279 0.950 . S
C1258 H1254 0.949 . S
C1258 C1266 1.574 . S
C1258 C1274 1.368 . S
H1259 C1267 0.950 . S
H1260 C1265 0.950 . S
H1261 C1266 0.949 . S
H1262 C1268 0.950 . S
H1263 C1269 0.950 . S
H1264 C1270 0.949 . S
C1265 H1260 0.950 . S
C1265 C1267 1.327 . S
C1265 C1271 1.429 . S
C1266 C1258 1.574 . S
C1266 H1261 0.949 . S
C1266 C1272 1.368 . S
C1267 C1251 1.349 . S
C1267 H1259 0.950 . S
C1267 C1265 1.327 . S
C1268 C1256 1.349 . S
C1268 H1262 0.950 . S
C1268 C1269 1.327 . S
C1269 H1263 0.950 . S
C1269 C1268 1.327 . S
C1269 C1273 1.429 . S
C1270 C1253 1.574 . S
C1270 H1264 0.949 . S
C1270 C1274 1.368 . S
C1271 C1252 1.429 . S
C1271 C1265 1.429 . S
C1271 C1272 1.523 . S
C1272 C1253 1.368 . S
C1272 C1266 1.368 . S
C1272 C1271 1.523 . S
C1273 C1257 1.429 . S
C1273 C1269 1.429 . S
C1273 C1274 1.523 . S
C1274 C1258 1.368 . S
C1274 C1270 1.368 . S
C1274 C1273 1.523 . S
H1275 C1250 0.950 . S
H1276 C1252 0.950 . S
H1277 C1253 0.949 . S
H1278 C1255 0.950 . S
H1279 C1257 0.950 . S
C561 C391 1.485 . S
C566 C481 1.476 . S
C596 C516 2.232 . S
C591 C451 2.193 . S
C626 C521 1.342 . S
C621 C241 1.284 . S
C656 C541 1.867 . S
C651 C331 1.668 . S
C686 C489 1.478 . S
C681 C121 1.392 1_545 S
C711 C211 2.090 . S
C716 C506 2.232 . S
C741 C31 1.368 1_556 S
C746 C529 1.342 . S
C771 C91 1.764 . S
C776 C549 1.867 . S
C806 C499 1.166 . S
C801 C301 1.018 . S
C836 C508 0.436 . S
C831 C380 0.380 . S
C866 C539 1.369 . S
C861 C440 1.344 . S
C891 C260 0.682 . S
C896 C559 0.667 . S
C921 C61 1.088 . S
C926 C488 1.166 . S
C956 C519 0.436 . S
C951 C140 0.529 . S
C986 C528 1.368 . S
C981 C200 1.254 . S
C1011 C20 0.654 . S
C1016 C548 0.667 . S
C1041 C320 2.103 . S
C1046 C486 2.211 . S
C1071 C361 1.485 . S
C1076 C509 1.737 . S
C1106 C526 2.337 . S
C1101 C421 2.095 . S
C1136 C546 2.031 . S
C1131 C271 2.009 . S
C1161 C80 2.188 . S
C1166 C496 2.212 . S
C1196 C501 1.736 1_565 S
C1191 C151 1.685 . S
C1226 C536 2.336 . S
C1221 C181 1.990 . S
C1251 C1 1.807 . S
C1256 C556 2.031 . S
