# Generated by pormake.
# Topology zzz, (3,6)-cn, num edge types: 1
# Building blocks:
#     Node 0, Type 0, BuildingBlock: BELTOD_clean_linker_0, # of connection points: 3
#     Node 1, Type 0, BuildingBlock: BELTOD_clean_linker_0, # of connection points: 3
#     Node 2, Type 0, BuildingBlock: BELTOD_clean_linker_0, # of connection points: 3
#     Node 3, Type 0, BuildingBlock: BELTOD_clean_linker_0, # of connection points: 3
#     Node 4, Type 0, BuildingBlock: BELTOD_clean_linker_0, # of connection points: 3
#     Node 5, Type 0, BuildingBlock: BELTOD_clean_linker_0, # of connection points: 3
#     Node 6, Type 0, BuildingBlock: BELTOD_clean_linker_0, # of connection points: 3
#     Node 7, Type 0, BuildingBlock: BELTOD_clean_linker_0, # of connection points: 3
#     Node 8, Type 1, BuildingBlock: KUMJIN_clean_sbu_1, # of connection points: 6
#     Node 9, Type 1, BuildingBlock: KUMJIN_clean_sbu_1, # of connection points: 6
#     Node 10, Type 1, BuildingBlock: KUMJIN_clean_sbu_1, # of connection points: 6
#     Node 11, Type 1, BuildingBlock: KUMJIN_clean_sbu_1, # of connection points: 6
#     Edge 12, Type (0, 1), BuildingBlock: XIVTED_clean_linker_0, # of connection points: 2
#     Edge 13, Type (0, 1), BuildingBlock: XIVTED_clean_linker_0, # of connection points: 2
#     Edge 14, Type (0, 1), BuildingBlock: XIVTED_clean_linker_0, # of connection points: 2
#     Edge 15, Type (0, 1), BuildingBlock: XIVTED_clean_linker_0, # of connection points: 2
#     Edge 16, Type (0, 1), BuildingBlock: XIVTED_clean_linker_0, # of connection points: 2
#     Edge 17, Type (0, 1), BuildingBlock: XIVTED_clean_linker_0, # of connection points: 2
#     Edge 18, Type (0, 1), BuildingBlock: XIVTED_clean_linker_0, # of connection points: 2
#     Edge 19, Type (0, 1), BuildingBlock: XIVTED_clean_linker_0, # of connection points: 2
#     Edge 20, Type (0, 1), BuildingBlock: XIVTED_clean_linker_0, # of connection points: 2
#     Edge 21, Type (0, 1), BuildingBlock: XIVTED_clean_linker_0, # of connection points: 2
#     Edge 22, Type (0, 1), BuildingBlock: XIVTED_clean_linker_0, # of connection points: 2
#     Edge 23, Type (0, 1), BuildingBlock: XIVTED_clean_linker_0, # of connection points: 2
#     Edge 24, Type (0, 1), BuildingBlock: XIVTED_clean_linker_0, # of connection points: 2
#     Edge 25, Type (0, 1), BuildingBlock: XIVTED_clean_linker_0, # of connection points: 2
#     Edge 26, Type (0, 1), BuildingBlock: XIVTED_clean_linker_0, # of connection points: 2
#     Edge 27, Type (0, 1), BuildingBlock: XIVTED_clean_linker_0, # of connection points: 2
#     Edge 28, Type (0, 1), BuildingBlock: XIVTED_clean_linker_0, # of connection points: 2
#     Edge 29, Type (0, 1), BuildingBlock: XIVTED_clean_linker_0, # of connection points: 2
#     Edge 30, Type (0, 1), BuildingBlock: XIVTED_clean_linker_0, # of connection points: 2
#     Edge 31, Type (0, 1), BuildingBlock: XIVTED_clean_linker_0, # of connection points: 2
#     Edge 32, Type (0, 1), BuildingBlock: XIVTED_clean_linker_0, # of connection points: 2
#     Edge 33, Type (0, 1), BuildingBlock: XIVTED_clean_linker_0, # of connection points: 2
#     Edge 34, Type (0, 1), BuildingBlock: XIVTED_clean_linker_0, # of connection points: 2
#     Edge 35, Type (0, 1), BuildingBlock: XIVTED_clean_linker_0, # of connection points: 2
# Relax obj value: 0.300
# Max RMSD: 0.192
# Mean RMSD: 0.171
data_MOF--net-zzz--node1-KUMJIN_clean_sbu_1--node2-BELTOD_clean_linker_0--edge1-XIVTED_clean_linker_0
_symmetry_space_group_name_H-M    P1
_symmetry_Int_Tables_number       1
_symmetry_cell_setting            triclinic
loop_
_symmetry_equiv_pos_as_xyz
'x, y, z'
_cell_length_a     53.095693
_cell_length_b     53.214618
_cell_length_c     19.598002
_cell_angle_alpha  90.078996
_cell_angle_beta   90.102913
_cell_angle_gamma 90.287396
loop_
_atom_site_label
_atom_site_type_symbol
_atom_site_fract_x
_atom_site_fract_y
_atom_site_fract_z
_atom_type_partial_charge
P0 P 0.73087 0.50688 0.25165 0.0
H1 H 0.74421 0.48484 0.38382 0.0
H2 H 0.77997 0.49223 0.45914 0.0
H3 H 0.7975 0.56046 0.34983 0.0
H4 H 0.76128 0.55298 0.27429 0.0
H5 H 0.67805 0.49101 0.2617 0.0
H6 H 0.64232 0.50234 0.19076 0.0
H7 H 0.68293 0.56761 0.1188 0.0
H8 H 0.7189 0.55601 0.19046 0.0
H9 H 0.78567 0.508 0.22474 0.0
H10 H 0.71695 0.50466 0.10674 0.0
O11 O 0.72441 0.47661 0.26595 0.0
H12 H 0.80987 0.51211 0.12026 0.0
H13 H 0.74116 0.50913 1.00202 0.0
C14 C 0.75007 0.51819 0.32253 0.0
C15 C 0.75509 0.50192 0.37726 0.0
C16 C 0.77573 0.50614 0.42056 0.0
C17 C 0.79204 0.52668 0.4099 0.0
C18 C 0.78562 0.54421 0.35885 0.0
C19 C 0.76465 0.54016 0.31615 0.0
C20 C 0.70144 0.52245 0.23109 0.0
C21 C 0.679 0.50839 0.23315 0.0
C22 C 0.65846 0.51486 0.19188 0.0
C23 C 0.6599 0.53553 0.14727 0.0
C24 C 0.68134 0.55122 0.15122 0.0
C25 C 0.7018 0.54488 0.19336 0.0
C26 C 0.74927 0.50766 0.17428 0.0
C27 C 0.77563 0.50884 0.17677 0.0
C28 C 0.78952 0.51119 0.11677 0.0
C29 C 0.77734 0.5118 0.05303 0.0
C30 C 0.75105 0.50915 0.05041 0.0
C31 C 0.73718 0.5068 0.11049 0.0
P32 P 0.02346 0.73044 0.27502 0.0
H33 H 0.04315 0.7455 0.40879 0.0
H34 H 0.03508 0.78249 0.47784 0.0
H35 H 0.96875 0.79801 0.35744 0.0
H36 H 0.97729 0.76082 0.28734 0.0
H37 H 0.03437 0.67754 0.30246 0.0
H38 H 0.02412 0.64025 0.23588 0.0
H39 H 0.9676 0.68204 0.12592 0.0
H40 H 0.97732 0.71919 0.1952 0.0
H41 H 0.02913 0.7848 0.25258 0.0
H42 H 0.02691 0.71764 0.12884 0.0
O43 O 0.0529 0.72285 0.29652 0.0
H44 H 0.03028 0.81035 0.1503 0.0
H45 H 0.02682 0.74322 0.02602 0.0
C46 C 0.01092 0.75028 0.34232 0.0
C47 C 0.02631 0.75623 0.39849 0.0
C48 C 0.02168 0.77761 0.43822 0.0
C49 C 1.00153 0.79372 0.42264 0.0
C50 C 0.98476 0.7864 0.37019 0.0
C51 C 0.98934 0.76482 0.3307 0.0
C52 C 0.00713 0.70147 0.25272 0.0
C53 C 0.01903 0.67852 0.26609 0.0
C54 C 0.01338 0.65719 0.22702 0.0
C55 C 0.99579 0.65833 0.17323 0.0
C56 C 0.98146 0.68042 0.16625 0.0
C57 C 0.98691 0.70174 0.2063 0.0
C58 C 0.02614 0.74926 0.19879 0.0
C59 C 0.02815 0.77547 0.20357 0.0
C60 C 0.02876 0.79015 0.14476 0.0
C61 C 0.02772 0.7789 0.07981 0.0
C62 C 0.02727 0.75254 0.07516 0.0
C63 C 0.02693 0.73787 0.13417 0.0
P64 P 0.80293 0.03683 0.29067 0.0
H65 H 0.7951 0.02133 0.43294 0.0
H66 H 0.75719 0.00786 0.49316 0.0
H67 H 0.71868 0.99937 0.2998 0.0
H68 H 0.75697 0.01131 0.2405 0.0
H69 H 0.85209 0.05671 0.26101 0.0
H70 H 0.88556 0.0438 0.18591 0.0
H71 H 0.84688 0.97332 0.14906 0.0
H72 H 0.81241 0.98727 0.2237 0.0
H73 H 0.77352 0.08301 0.29764 0.0
H74 H 0.79535 0.0293 0.14377 0.0
O75 O 0.81394 0.05697 0.34907 0.0
H76 H 0.74441 0.10242 0.21637 0.0
H77 H 0.76638 0.04854 0.06309 0.0
C78 C 0.77895 0.01775 0.33202 0.0
C79 C 0.77876 0.0157 0.4034 0.0
C80 C 0.75677 0.00841 0.43797 0.0
C81 C 0.7343 1.0032 0.40197 0.0
C82 C 0.73535 1.00315 0.33001 0.0
C83 C 0.75745 0.01009 0.29558 0.0
C84 C 0.82996 0.02275 0.24959 0.0
C85 C 0.85106 0.03811 0.23863 0.0
C86 C 0.87041 0.03058 0.19523 0.0
C87 C 0.86936 1.00729 0.16111 0.0
C88 C 0.84843 0.99145 0.17383 0.0
C89 C 0.82883 0.99919 0.21741 0.0
C90 C 0.78682 0.05488 0.22666 0.0
C91 C 0.77274 0.07596 0.24581 0.0
C92 C 0.75619 0.08708 0.19937 0.0
C93 C 0.75323 0.07692 0.13367 0.0
C94 C 0.7684 0.05671 0.11349 0.0
C95 C 0.78504 0.04577 0.15964 0.0
P96 P 0.4852 0.79518 0.26007 0.0
H97 H 0.45685 0.76791 0.36196 0.0
H98 H 0.46613 0.73145 0.43104 0.0
H99 H 0.54414 0.73558 0.36928 0.0
H100 H 0.53438 0.77242 0.29849 0.0
H101 H 0.48172 0.84979 0.2748 0.0
H102 H 0.49713 0.88268 0.19988 0.0
H103 H 0.54838 0.82999 0.1068 0.0
H104 H 0.53224 0.79684 0.18131 0.0
H105 H 0.49889 0.74425 0.21372 0.0
H106 H 0.46008 0.80893 0.13349 0.0
O107 O 0.45778 0.80752 0.28438 0.0
H108 H 0.49514 0.72343 0.1045 0.0
H109 H 0.45656 0.78801 0.02221 0.0
C110 C 0.49498 0.77335 0.32586 0.0
C111 C 0.47618 0.76164 0.36489 0.0
C112 C 0.48155 0.74056 0.40462 0.0
C113 C 0.50592 0.73035 0.40612 0.0
C114 C 0.52509 0.74274 0.36906 0.0
C115 C 0.51966 0.76407 0.32931 0.0
C116 C 0.50559 0.82067 0.2335 0.0
C117 C 0.49701 0.84544 0.24036 0.0
C118 C 0.50586 0.86437 0.19694 0.0
C119 C 0.52357 0.85895 0.14567 0.0
C120 C 0.53424 0.83475 0.14436 0.0
C121 C 0.52537 0.81581 0.188 0.0
C122 C 0.47944 0.77809 0.18232 0.0
C123 C 0.48939 0.75402 0.17294 0.0
C124 C 0.48756 0.7422 0.10976 0.0
C125 C 0.47594 0.75427 0.05433 0.0
C126 C 0.46561 0.77826 0.06399 0.0
C127 C 0.46746 0.79012 0.12755 0.0
P128 P 0.2889 0.45281 0.05992 0.0
H129 H 0.27651 0.44228 0.91645 0.0
H130 H 0.24073 0.45528 0.84718 0.0
H131 H 0.22233 0.51167 0.99776 0.0
H132 H 0.25896 0.49939 0.06467 0.0
H133 H 0.33221 0.42464 0.1052 0.0
H134 H 0.36975 0.4365 0.16763 0.0
H135 H 0.35301 0.51489 0.13341 0.0
H136 H 0.31459 0.50255 0.07134 0.0
H137 H 0.23927 0.43296 0.09213 0.0
H138 H 0.29635 0.47718 0.19453 0.0
O139 O 0.29 0.42271 0.03608 0.0
H140 H 0.2085 0.44604 0.17748 0.0
H141 H 0.26589 0.49095 0.27707 0.0
C142 C 0.27044 0.46959 0.99644 0.0
C143 C 0.26541 0.45811 0.93335 0.0
C144 C 0.24447 0.46529 0.89426 0.0
C145 C 0.22782 0.484 0.9176 0.0
C146 C 0.23443 0.49714 0.97765 0.0
C147 C 0.25562 0.49016 0.01619 0.0
C148 C 0.32068 0.46263 0.08217 0.0
C149 C 0.33701 0.4444 0.10854 0.0
C150 C 0.35865 0.45129 0.14482 0.0
C151 C 0.36463 0.47674 0.15636 0.0
C152 C 0.34896 0.4951 0.12645 0.0
C153 C 0.32718 0.4881 0.0897 0.0
C154 C 0.27003 0.45437 0.13593 0.0
C155 C 0.24542 0.44476 0.13412 0.0
C156 C 0.22779 0.45248 0.18249 0.0
C157 C 0.23458 0.47006 0.23305 0.0
C158 C 0.25994 0.4774 0.23897 0.0
C159 C 0.2775 0.46962 0.19083 0.0
P160 P 0.0807 0.28942 0.07284 0.0
H161 H 0.09047 0.27684 0.92924 0.0
H162 H 0.07654 0.24168 0.85872 0.0
H163 H 0.02224 0.2211 0.01322 0.0
H164 H 0.03552 0.25713 0.08174 0.0
H165 H 0.09605 0.34235 0.06323 0.0
H166 H 0.08311 0.37917 0.12752 0.0
H167 H 0.02055 0.33687 0.21059 0.0
H168 H 0.0329 0.30059 0.14254 0.0
H169 H 0.09128 0.23595 0.09316 0.0
H170 H 0.08172 0.30134 0.22089 0.0
O171 O 0.10929 0.29604 0.04232 0.0
H172 H 0.08419 0.20888 0.19164 0.0
H173 H 0.07364 0.2744 0.31862 0.0
C174 C 0.06422 0.26966 0.01127 0.0
C175 C 0.07498 0.26529 0.94703 0.0
C176 C 0.06724 0.24476 0.90708 0.0
C177 C 0.04872 0.22781 0.93071 0.0
C178 C 0.03652 0.23354 0.99271 0.0
C179 C 0.04404 0.25434 0.03216 0.0
C180 C 0.06557 0.31852 0.09812 0.0
C181 C 0.079 0.34122 0.09324 0.0
C182 C 0.07179 0.36227 0.1314 0.0
C183 C 0.0512 0.36104 0.17663 0.0
C184 C 0.03649 0.33885 0.17666 0.0
C185 C 0.04345 0.31794 0.13724 0.0
C186 C 0.08499 0.2706 0.14854 0.0
C187 C 0.08796 0.24454 0.14243 0.0
C188 C 0.08395 0.22907 0.19878 0.0
C189 C 0.07725 0.23953 0.26209 0.0
C190 C 0.07826 0.26574 0.27022 0.0
C191 C 0.08243 0.2812 0.21379 0.0
P192 P 0.22904 0.07276 0.0333 0.0
H193 H 0.23919 0.05564 0.89302 0.0
H194 H 0.27712 0.03924 0.83959 0.0
H195 H 0.31186 0.03292 0.03891 0.0
H196 H 0.27316 0.04675 0.09118 0.0
H197 H 0.17834 0.09161 0.04981 0.0
H198 H 0.14425 0.07891 0.12464 0.0
H199 H 0.18311 0.00951 0.16773 0.0
H200 H 0.21778 0.02297 0.09358 0.0
H201 H 0.27044 0.10889 0.04156 0.0
H202 H 0.221 0.07084 0.18273 0.0
O203 O 0.22113 0.09444 0.97578 0.0
H204 H 0.3 0.11728 0.13461 0.0
H205 H 0.25044 0.07793 0.27357 0.0
C206 C 0.25332 0.05299 0.99613 0.0
C207 C 0.2547 0.04987 0.92522 0.0
C208 C 0.27685 0.04094 0.89457 0.0
C209 C 0.29848 0.03548 0.934 0.0
C210 C 0.29608 0.03677 1.00568 0.0
C211 C 0.2737 0.04495 0.03618 0.0
C212 C 0.20051 0.0581 0.06499 0.0
C213 C 0.17912 0.07318 0.07305 0.0
C214 C 0.15953 0.06587 0.11647 0.0
C215 C 0.16086 0.04326 0.15344 0.0
C216 C 0.18155 0.02728 0.14129 0.0
C217 C 0.20124 0.03469 0.09773 0.0
C218 C 0.24385 0.08857 0.10435 0.0
C219 C 0.26544 0.10319 0.09284 0.0
C220 C 0.28245 0.10774 0.14605 0.0
C221 C 0.27813 0.09743 0.21117 0.0
C222 C 0.25468 0.08606 0.22428 0.0
C223 C 0.23772 0.08166 0.17135 0.0
P224 P 0.4625 0.24727 0.09292 0.0
H225 H 0.44123 0.2624 0.96121 0.0
H226 H 0.45528 0.29333 0.87814 0.0
H227 H 0.52789 0.29692 0.97769 0.0
H228 H 0.51336 0.26624 0.06196 0.0
H229 H 0.43605 0.19921 0.10594 0.0
H230 H 0.44663 0.16131 0.16877 0.0
H231 H 0.52274 0.18863 0.19536 0.0
H232 H 0.51206 0.2266 0.13102 0.0
H233 H 0.46601 0.30197 0.107 0.0
H234 H 0.47105 0.23744 0.23948 0.0
O235 O 0.43127 0.24645 0.08301 0.0
H236 H 0.47892 0.32919 0.20105 0.0
H237 H 0.485 0.26433 0.33258 0.0
C238 C 0.47618 0.26199 0.01825 0.0
C239 C 0.46046 0.26916 0.96408 0.0
C240 C 0.46857 0.28697 0.91626 0.0
C241 C 0.49261 0.29808 0.92167 0.0
C242 C 0.50908 0.28918 0.97264 0.0
C243 C 0.50094 0.27128 0.02038 0.0
C244 C 0.47321 0.21592 0.1138 0.0
C245 C 0.45528 0.19679 0.12302 0.0
C246 C 0.46128 0.17516 0.15988 0.0
C247 C 0.48535 0.17219 0.18877 0.0
C248 C 0.50401 0.19028 0.17393 0.0
C249 C 0.49797 0.21198 0.13664 0.0
C250 C 0.46887 0.26748 0.16497 0.0
C251 C 0.4701 0.29359 0.15607 0.0
C252 C 0.47753 0.30915 0.20994 0.0
C253 C 0.48367 0.29889 0.27395 0.0
C254 C 0.48057 0.2729 0.28397 0.0
C255 C 0.47295 0.25739 0.23015 0.0
Eu256 Eu 0.98672 0.02481 0.61768 0.0
C257 C 0.07513 0.04535 0.80727 0.0
N258 N 0.0757 0.03607 0.7428 0.0
C259 C 0.10911 0.06453 0.71367 0.0
C260 C 0.09067 0.06573 0.82645 0.0
C261 C 0.09317 0.04443 0.69691 0.0
C262 C 0.10753 0.07554 0.77834 0.0
C263 C 0.05981 0.04193 0.92321 0.0
C264 C 0.05996 0.03349 0.85492 0.0
C265 C 0.074 0.06326 0.94164 0.0
C266 C 0.08946 0.07509 0.89338 0.0
Eu267 Eu 0.04832 1.00221 0.71783 0.0
N268 N 0.04704 0.0125 0.83585 0.0
C269 C 0.04634 0.02801 0.97158 0.0
C270 C 0.0359 0.99765 0.88411 0.0
C271 C 0.03478 1.0055 0.95218 0.0
H272 H 0.09419 0.03594 0.64683 0.0
H273 H 0.02527 0.994 0.98977 0.0
H274 H 0.94043 0.02114 0.73662 0.0
H275 H 0.98472 0.98849 0.35823 0.0
H276 H 0.02784 0.97965 0.87058 0.0
H277 H 0.04572 0.03388 0.02452 0.0
H278 H 0.99924 0.01555 0.45381 0.0
H279 H 0.12249 0.07159 0.67669 0.0
H280 H 0.07388 0.07016 0.99368 0.0
H281 H 0.10097 0.09098 0.90888 0.0
H282 H 0.90405 0.99402 0.76309 0.0
H283 H 0.11984 0.09116 0.79116 0.0
H284 H 0.95031 0.95767 0.37691 0.0
N285 N 0.94973 1.00166 0.64506 0.0
C286 C 0.9418 0.98467 0.59781 0.0
C287 C 0.91471 0.99093 0.71683 0.0
C288 C 0.92049 0.96935 0.60957 0.0
C289 C 0.93569 1.00596 0.70222 0.0
C290 C 0.90734 0.9722 0.67088 0.0
N291 N 0.97358 0.99978 0.52491 0.0
C292 C 0.98419 1.00215 0.46188 0.0
C293 C 0.94506 0.96807 0.48284 0.0
C294 C 0.95387 0.98397 0.53538 0.0
C295 C 0.95659 0.96951 0.41871 0.0
C296 C 0.976 0.98691 0.40791 0.0
H297 H 0.8909 0.96078 0.68193 0.0
H298 H 0.89624 0.94036 0.56714 0.0
H299 H 0.91776 0.93928 0.45601 0.0
O300 O 0.9884 0.05808 0.55341 0.0
O301 O 1.00444 0.9872 0.58793 0.0
O302 O 0.01974 0.97194 0.68917 0.0
O303 O 0.9532 0.04779 0.60111 0.0
O304 O 0.02394 0.0339 0.56375 0.0
O305 O 0.0519 1.00397 0.60309 0.0
O306 O 0.07421 0.97799 0.77396 0.0
O307 O 0.04224 0.04381 0.69134 0.0
O308 O 1.00029 0.04747 0.70849 0.0
O309 O 0.07896 0.98304 0.66564 0.0
O310 O 0.01046 0.98856 0.76044 0.0
O311 O 0.98583 0.02239 0.73367 0.0
C312 C 0.01068 0.9682 0.62744 0.0
C313 C 0.96441 0.09102 0.59703 0.0
C314 C 0.97736 0.13479 0.58548 0.0
C315 C 0.9701 0.13936 0.65315 0.0
C316 C 0.9569 0.09584 0.66456 0.0
C317 C 0.95955 0.11999 0.6921 0.0
C318 C 0.97416 0.11066 0.5577 0.0
C319 C 0.04494 0.02085 0.55803 0.0
C320 C 0.96579 0.0653 0.56951 0.0
C321 C 0.91242 0.95245 0.55877 0.0
C322 C 0.92465 0.95186 0.49544 0.0
C323 C 0.02293 0.05717 0.71159 0.0
C324 C 0.09037 0.94394 0.70981 0.0
C325 C 0.07847 0.90032 0.7314 0.0
C326 C 0.09973 0.89253 0.69411 0.0
C327 C 0.11137 0.93582 0.67286 0.0
C328 C 0.07356 0.92621 0.73691 0.0
C329 C 0.11584 0.9102 0.66444 0.0
C330 C 0.99062 1.00269 0.7717 0.0
C331 C 0.08629 0.97095 0.71947 0.0
H332 H 0.97257 0.1578 0.6757 0.0
H333 H 0.94977 0.08087 0.69669 0.0
H334 H 0.95403 0.12354 0.74436 0.0
H335 H 0.98061 0.10677 0.50626 0.0
H336 H 0.10454 0.87286 0.68972 0.0
H337 H 0.12437 0.94931 0.65087 0.0
H338 H 0.05693 0.93272 0.76341 0.0
H339 H 0.13221 0.90402 0.6363 0.0
Eu340 Eu 0.52659 0.04334 0.71143 0.0
C341 C 0.51885 0.93041 0.56008 0.0
N342 N 0.52141 0.95392 0.53419 0.0
C343 C 0.54559 0.93805 0.44078 0.0
C344 C 0.53006 0.90965 0.52757 0.0
C345 C 0.53392 0.958 0.4746 0.0
C346 C 0.54386 0.91379 0.46772 0.0
C347 C 0.49966 0.90264 0.64336 0.0
C348 C 0.50389 0.92697 0.61728 0.0
C349 C 0.51148 0.88197 0.61256 0.0
C350 C 0.52665 0.88547 0.55483 0.0
Eu351 Eu 0.50259 0.98659 0.59618 0.0
N352 N 0.49264 0.9473 0.6457 0.0
C353 C 0.48323 0.89975 0.69866 0.0
C354 C 0.47564 0.94449 0.69744 0.0
C355 C 0.47096 0.92075 0.72528 0.0
H356 H 0.53482 0.97672 0.45331 0.0
H357 H 0.4579 0.91865 0.76725 0.0
H358 H 0.47073 0.06887 0.75339 0.0
H359 H 0.6025 0.08115 0.55222 0.0
H360 H 0.46611 0.96061 0.71834 0.0
H361 H 0.47952 0.88137 0.72024 0.0
H362 H 0.58285 0.05167 0.63271 0.0
H363 H 0.55579 0.94136 0.39385 0.0
H364 H 0.50861 0.86314 0.63219 0.0
H365 H 0.53524 0.86929 0.53083 0.0
H366 H 0.44627 0.10681 0.72673 0.0
H367 H 0.55277 0.89833 0.4412 0.0
H368 H 0.5794 0.11902 0.51534 0.0
N369 N 0.50143 0.07882 0.68908 0.0
C370 C 0.51173 0.09653 0.64743 0.0
C371 C 0.46457 0.10407 0.70376 0.0
C372 C 0.49838 0.1186 0.63116 0.0
C373 C 0.47841 0.08244 0.71825 0.0
C374 C 0.47453 0.12217 0.65979 0.0
N375 N 0.54789 0.07074 0.63561 0.0
C376 C 0.57202 0.06719 0.61419 0.0
C377 C 0.54632 0.1102 0.57533 0.0
C378 C 0.53547 0.0923 0.61965 0.0
C379 C 0.57044 0.10574 0.54954 0.0
C380 C 0.58347 0.0843 0.56984 0.0
H381 H 0.46371 0.13886 0.64851 0.0
H382 H 0.49902 0.15321 0.57309 0.0
H383 H 0.54095 0.14588 0.52427 0.0
O384 O 0.56021 0.05289 0.77005 0.0
O385 O 0.50223 0.04608 0.61587 0.0
O386 O 0.52006 0.01958 0.5412 0.0
O387 O 0.52407 0.06735 0.80176 0.0
O388 O 0.55729 0.0163 0.6736 0.0
O389 O 0.54246 0.99934 0.5722 0.0
O390 O 0.47077 1.00698 0.55514 0.0
O391 O 0.51893 0.97372 0.69754 0.0
O392 O 0.52242 0.00751 0.77261 0.0
O393 O 0.47937 0.96974 0.51571 0.0
O394 O 0.47375 1.00339 0.66904 0.0
O395 O 0.49083 0.0274 0.75718 0.0
C396 C 0.51144 0.04194 0.55492 0.0
C397 C 0.56048 0.09209 0.82548 0.0
C398 C 0.59545 0.11456 0.87923 0.0
C399 C 0.58574 0.13734 0.85456 0.0
C400 C 0.55082 0.11495 0.80155 0.0
C401 C 0.56352 0.13746 0.81592 0.0
C402 C 0.58276 0.09205 0.86347 0.0
C403 C 0.56108 1.0052 0.61405 0.0
C404 C 0.5483 0.06776 0.81156 0.0
C405 C 0.50907 0.13624 0.58647 0.0
C406 C 0.53294 0.13204 0.55855 0.0
C407 C 0.52265 0.98328 0.7588 0.0
C408 C 0.43669 0.98311 0.5178 0.0
C409 C 0.39442 0.99737 0.49017 0.0
C410 C 0.38436 0.97809 0.53098 0.0
C411 C 0.42657 0.96385 0.55827 0.0
C412 C 0.42062 0.99966 0.48408 0.0
C413 C 0.40043 0.96134 0.56455 0.0
C414 C 0.47183 0.01581 0.72702 0.0
C415 C 0.46368 0.98858 0.51545 0.0
H416 H 0.59506 0.15501 0.8659 0.0
H417 H 0.5336 0.11544 0.77196 0.0
H418 H 0.55605 0.15506 0.79735 0.0
H419 H 0.59035 0.07421 0.88019 0.0
H420 H 0.36418 0.97584 0.53636 0.0
H421 H 0.43877 0.95114 0.58576 0.0
H422 H 0.42868 0.01499 0.45473 0.0
H423 H 0.3926 0.94653 0.59596 0.0
Eu424 Eu 0.54261 0.50078 0.60463 0.0
C425 C 0.44419 0.46526 0.68826 0.0
N426 N 0.44804 0.48753 0.65599 0.0
C427 C 0.41656 0.47647 0.57298 0.0
C428 C 0.42786 0.44685 0.66082 0.0
C429 C 0.43269 0.49418 0.60305 0.0
C430 C 0.41472 0.45239 0.60079 0.0
C431 C 0.44949 0.44 0.79018 0.0
C432 C 0.45449 0.46199 0.75246 0.0
C433 C 0.43492 0.42073 0.76071 0.0
C434 C 0.42407 0.42417 0.69614 0.0
Eu435 Eu 0.47849 0.51489 0.70666 0.0
N436 N 0.46847 0.48093 0.77941 0.0
C437 C 0.45877 0.43835 0.85697 0.0
C438 C 0.47637 0.48013 0.84569 0.0
C439 C 0.4719 0.4587 0.88524 0.0
H440 H 0.4328 0.51317 0.58383 0.0
H441 H 0.47875 0.4578 0.93722 0.0
H442 H 0.58168 0.5494 0.62575 0.0
H443 H 0.53312 0.43819 0.38488 0.0
H444 H 0.48682 0.49575 0.8671 0.0
H445 H 0.45541 0.42173 0.88758 0.0
H446 H 0.52799 0.4516 0.5046 0.0
H447 H 0.40526 0.48155 0.52914 0.0
H448 H 0.4312 0.4035 0.78838 0.0
H449 H 0.41195 0.40963 0.67526 0.0
H450 H 0.6092 0.57694 0.55633 0.0
H451 H 0.40197 0.4388 0.57803 0.0
H452 H 0.55673 0.46508 0.30395 0.0
N453 N 0.57025 0.52687 0.54164 0.0
C454 C 0.57315 0.52174 0.47443 0.0
C455 C 0.59908 0.56154 0.53253 0.0
C456 C 0.58878 0.53674 0.4328 0.0
C457 C 0.58352 0.54594 0.57169 0.0
C458 C 0.60152 0.55709 0.46257 0.0
N459 N 0.54792 0.48602 0.49136 0.0
C460 C 0.53827 0.46354 0.46975 0.0
C461 C 0.56517 0.49363 0.3796 0.0
C462 C 0.56158 0.50058 0.44836 0.0
C463 C 0.55442 0.47111 0.35638 0.0
C464 C 0.54113 0.45587 0.40192 0.0
H465 H 0.61369 0.56909 0.43239 0.0
H466 H 0.60351 0.54187 0.33058 0.0
H467 H 0.58279 0.50406 0.28389 0.0
O468 O 0.57812 0.48028 0.60224 0.0
O469 O 0.53159 0.54193 0.59442 0.0
O470 O 0.49243 0.54904 0.64607 0.0
O471 O 0.55819 0.48402 0.69755 0.0
O472 O 0.50518 0.48986 0.55515 0.0
O473 O 0.47779 0.52022 0.59126 0.0
O474 O 0.47317 0.54593 0.778 0.0
O475 O 0.50612 0.48373 0.72961 0.0
O476 O 0.51466 0.46938 0.62456 0.0
O477 O 0.44098 0.52483 0.74261 0.0
O478 O 0.51402 0.51761 0.77054 0.0
O479 O 0.54415 0.52941 0.69212 0.0
C480 C 0.51235 0.55652 0.61041 0.0
C481 C 0.57751 0.44541 0.67661 0.0
C482 C 0.56614 0.40291 0.64018 0.0
C483 C 0.57598 0.39349 0.70163 0.0
C484 C 0.58733 0.43576 0.7375 0.0
C485 C 0.58655 0.40987 0.74986 0.0
C486 C 0.56686 0.42894 0.62865 0.0
C487 C 0.48643 0.50529 0.54321 0.0
C488 C 0.57624 0.47269 0.66534 0.0
C489 C 0.59171 0.53051 0.36356 0.0
C490 C 0.57992 0.50898 0.33698 0.0
C491 C 0.50873 0.46474 0.68787 0.0
C492 C 0.43464 0.56808 0.76374 0.0
C493 C 0.43288 0.61405 0.76743 0.0
C494 C 0.40682 0.61264 0.75398 0.0
C495 C 0.40865 0.56723 0.75067 0.0
C496 C 0.4467 0.59152 0.76972 0.0
C497 C 0.39496 0.58941 0.74472 0.0
C498 C 0.53646 0.52669 0.75573 0.0
C499 C 0.4487 0.54458 0.77565 0.0
H500 H 0.57573 0.37352 0.71214 0.0
H501 H 0.59522 0.44824 0.77576 0.0
H502 H 0.59404 0.40249 0.79711 0.0
H503 H 0.55846 0.43656 0.58295 0.0
H504 H 0.39522 0.62928 0.75323 0.0
H505 H 0.39882 0.54942 0.74603 0.0
H506 H 0.46684 0.59208 0.77792 0.0
H507 H 0.37488 0.58858 0.73519 0.0
Eu508 Eu 0.02048 0.54316 0.61375 0.0
C509 C 0.04008 0.45679 0.81495 0.0
N510 N 0.03216 0.45562 0.74921 0.0
C511 C 0.06127 0.42239 0.7263 0.0
C512 C 0.0601 0.44173 0.83808 0.0
C513 C 0.04149 0.43792 0.70563 0.0
C514 C 0.07098 0.42467 0.79242 0.0
C515 C 0.03367 0.4724 0.92968 0.0
C516 C 0.0269 0.47179 0.86006 0.0
C517 C 0.05475 0.45883 0.95215 0.0
C518 C 0.06789 0.44344 0.90646 0.0
Eu519 Eu 0.99888 0.48241 0.71751 0.0
N520 N 1.00613 0.48395 0.83706 0.0
C521 C 0.01836 0.48567 0.97513 0.0
C522 C 0.98992 0.49487 0.88219 0.0
C523 C 0.99612 0.49653 0.95146 0.0
H524 H 0.03403 0.43639 0.65439 0.0
H525 H 0.98356 0.50588 0.98664 0.0
H526 H 1.00672 0.58941 0.72856 0.0
H527 H 0.98912 0.53495 0.35035 0.0
H528 H 0.97215 0.50239 0.86498 0.0
H529 H 0.02293 0.48665 0.02898 0.0
H530 H 0.01594 0.52609 0.45106 0.0
H531 H 0.06911 0.40881 0.6912 0.0
H532 H 0.06041 0.45931 1.00529 0.0
H533 H 0.08349 0.43231 0.92503 0.0
H534 H 0.97369 0.62082 0.74696 0.0
H535 H 0.08634 0.41267 0.80829 0.0
H536 H 0.95394 0.56511 0.36005 0.0
N537 N 0.99122 0.57591 0.63497 0.0
C538 C 0.97469 0.58076 0.58354 0.0
C539 C 0.97344 0.60936 0.7013 0.0
C540 C 0.95606 0.59941 0.59058 0.0
C541 C 0.99181 0.59097 0.69147 0.0
C542 C 0.95518 0.61327 0.6512 0.0
N543 N 0.99569 0.55059 0.51633 0.0
C544 C 1.00056 0.53923 0.45536 0.0
C545 C 0.96149 0.57365 0.46628 0.0
C546 C 0.97732 0.56812 0.52203 0.0
C547 C 0.96567 0.56134 0.40412 0.0
C548 C 0.98549 0.54427 0.39844 0.0
H549 H 0.94116 0.62775 0.65861 0.0
H550 H 0.92495 0.61832 0.54094 0.0
H551 H 0.9297 0.59573 0.43213 0.0
O552 O 0.05453 0.54611 0.5529 0.0
O553 O 0.98458 0.52168 0.58512 0.0
O554 O 0.96854 0.51047 0.68828 0.0
O555 O 0.03764 0.58026 0.59493 0.0
O556 O 0.03327 0.50616 0.56542 0.0
O557 O 1.0039 0.47704 0.60353 0.0
O558 O 0.97462 0.45535 0.7698 0.0
O559 O 0.04087 0.48879 0.6949 0.0
O560 O 0.04522 0.53132 0.70266 0.0
O561 O 0.97905 0.45313 0.66067 0.0
O562 O 0.98608 0.52066 0.75847 0.0
O563 O 0.01931 0.5462 0.72951 0.0
C564 C 0.96509 0.5176 0.62488 0.0
C565 C 0.07595 0.58531 0.52737 0.0
C566 C 0.11409 0.58613 0.459 0.0
C567 C 0.11738 0.61171 0.47398 0.0
C568 C 0.07901 0.61106 0.54116 0.0
C569 C 0.09965 0.62418 0.51432 0.0
C570 C 0.09334 0.57315 0.48542 0.0
C571 C 0.02088 0.48468 0.55919 0.0
C572 C 0.05572 0.57045 0.55919 0.0
C573 C 0.93951 0.60423 0.53616 0.0
C574 C 0.94226 0.59143 0.47411 0.0
C575 C 0.05432 0.50869 0.71151 0.0
C576 C 0.93977 0.44195 0.70423 0.0
C577 C 0.89728 0.45818 0.71952 0.0
C578 C 0.88768 0.43614 0.68879 0.0
C579 C 0.92994 0.42022 0.67376 0.0
C580 C 0.92354 0.46117 0.72472 0.0
C581 C 0.90396 0.41748 0.66541 0.0
C582 C 1.00113 0.5398 0.77166 0.0
C583 C 0.967 0.4447 0.7135 0.0
H584 H 0.1335 0.62194 0.45439 0.0
H585 H 0.06579 0.62088 0.57354 0.0
H586 H 0.1021 0.64396 0.5256 0.0
H587 H 0.09128 0.55323 0.47487 0.0
H588 H 0.86762 0.43275 0.68497 0.0
H589 H 0.94233 0.40537 0.65669 0.0
H590 H 0.93153 0.47821 0.74614 0.0
H591 H 0.89638 0.40057 0.64232 0.0
H592 H 0.10979 0.054 0.15776 0.0
H593 H 0.09186 1.00139 0.53743 0.0
H594 H 0.16918 0.02075 0.2778 0.0
H595 H 0.03599 0.04758 0.43878 0.0
H596 H 0.11873 1.00557 0.43805 0.0
H597 H 0.08111 0.04893 0.25464 0.0
C598 C 0.11688 0.04557 0.20418 0.0
C599 C 0.14218 0.03786 0.20904 0.0
C600 C 0.10062 0.01482 0.43784 0.0
C601 C 0.10911 0.03179 0.32035 0.0
C602 C 0.08511 0.01243 0.49486 0.0
C603 C 0.06141 0.02409 0.49695 0.0
C604 C 0.09255 0.0289 0.38149 0.0
C605 C 0.05404 0.03823 0.43973 0.0
C606 C 0.1004 0.04266 0.25951 0.0
C607 C 0.1499 0.02665 0.27054 0.0
N608 N 0.06951 0.04017 0.38429 0.0
N609 N 0.13352 0.02404 0.32344 0.0
H610 H 0.52725 0.14194 0.20498 0.0
H611 H 0.4736 0.07611 0.54327 0.0
H612 H 0.45401 0.15663 0.29085 0.0
H613 H 0.53995 0.04949 0.44007 0.0
H614 H 0.46785 0.10751 0.45397 0.0
H615 H 0.534 0.10974 0.29302 0.0
C616 C 0.51258 0.13838 0.2421 0.0
C617 C 0.4899 0.15187 0.23985 0.0
C618 C 0.48363 0.09477 0.45042 0.0
C619 C 0.49757 0.11521 0.34095 0.0
C620 C 0.48696 0.07688 0.50161 0.0
C621 C 0.50732 0.06024 0.49911 0.0
C622 C 0.5008 0.09615 0.396 0.0
C623 C 0.52392 0.06192 0.4436 0.0
C624 C 0.51641 0.11994 0.29218 0.0
C625 C 0.47158 0.14641 0.28944 0.0
N626 N 0.52039 0.07966 0.39435 0.0
N627 N 0.47584 0.12865 0.33779 0.0
H628 H 0.41043 0.45307 0.17462 0.0
H629 H 0.45443 0.53997 0.48802 0.0
H630 H 0.36723 0.51591 0.24899 0.0
H631 H 0.48444 0.46607 0.45081 0.0
H632 H 0.42677 0.53491 0.38889 0.0
H633 H 0.44184 0.46113 0.26341 0.0
C634 C 0.40749 0.46863 0.20928 0.0
C635 C 0.38576 0.48361 0.20421 0.0
C636 C 0.43955 0.51987 0.40202 0.0
C637 C 0.42221 0.49318 0.30601 0.0
C638 C 0.45541 0.52274 0.45862 0.0
C639 C 0.47176 0.50334 0.47834 0.0
C640 C 0.44015 0.49754 0.36382 0.0
C641 C 0.47234 0.4816 0.43757 0.0
C642 C 0.42556 0.47325 0.25998 0.0
C643 C 0.38361 0.50391 0.24998 0.0
N644 N 0.45671 0.47925 0.38256 0.0
N645 N 0.40147 0.50799 0.29893 0.0
H646 H 0.08583 0.39259 0.23913 0.0
H647 H 0.98903 0.44903 0.50734 0.0
H648 H 1.00592 0.37703 0.23202 0.0
H649 H 0.0617 0.48312 0.47146 0.0
H650 H 0.99587 0.42101 0.41076 0.0
H651 H 0.07827 0.42443 0.32618 0.0
C652 C 0.06661 0.39601 0.2547 0.0
C653 C 0.0465 0.38183 0.22717 0.0
C654 C 0.01031 0.43467 0.42363 0.0
C655 C 0.03791 0.41812 0.32958 0.0
C656 C 1.00649 0.45067 0.47917 0.0
C657 C 0.0249 0.46846 0.49812 0.0
C658 C 0.0329 0.43603 0.38675 0.0
C659 C 0.04699 0.46973 0.45884 0.0
C660 C 0.06238 0.41418 0.30513 0.0
C661 C 0.02217 0.38697 0.25189 0.0
N662 N 0.05049 0.45358 0.40549 0.0
N663 N 0.01863 0.40447 0.30179 0.0
H664 H 0.8646 0.98036 0.04024 0.0
H665 H 0.98613 0.0364 0.87433 0.0
H666 H 0.91996 0.01964 0.16272 0.0
H667 H 0.96114 0.9628 0.81148 0.0
H668 H 0.95852 0.03367 0.97433 0.0
H669 H 0.89628 0.97552 0.95022 0.0
C670 C 0.88339 0.98764 0.04906 0.0
C671 C 0.88923 1.00089 0.1094 0.0
C672 C 0.95926 0.01798 0.93913 0.0
C673 C 0.92533 0.99599 1.00513 0.0
C674 C 0.97497 0.01955 0.88221 0.0
C675 C 0.97606 0.99966 0.83541 0.0
C676 C 0.94377 0.99677 0.94804 0.0
C677 C 0.96105 0.97832 0.84726 0.0
C678 C 0.90143 0.98495 0.99727 0.0
C679 C 0.91405 0.01006 0.11664 0.0
N680 N 0.94513 0.97759 0.9019 0.0
N681 N 0.93093 0.00786 0.06485 0.0
H682 H 0.52979 0.84926 1.00894 0.0
H683 H 0.52226 0.99362 0.89638 0.0
H684 H 0.52724 0.91079 0.15252 0.0
H685 H 0.53068 0.9322 0.75424 0.0
H686 H 0.52568 0.96385 0.99071 0.0
H687 H 0.53232 0.87944 0.91574 0.0
C688 C 0.53025 0.8691 0.02124 0.0
C689 C 0.52829 0.87734 0.08926 0.0
C690 C 0.52687 0.95688 0.93889 0.0
C691 C 0.53054 0.91226 0.98162 0.0
C692 C 0.52495 0.97391 0.88479 0.0
C693 C 0.52594 0.96548 0.81681 0.0
C694 C 0.5298 0.93112 0.9253 0.0
C695 C 0.52944 0.93963 0.80551 0.0
C696 C 0.53144 0.88638 0.96764 0.0
C697 C 0.52838 0.90343 0.10113 0.0
N698 N 0.5311 0.92342 0.85902 0.0
N699 N 0.52931 0.91989 0.04798 0.0
H700 H 0.60829 0.52909 0.15454 0.0
H701 H 0.58659 0.54081 0.74997 0.0
H702 H 0.66735 0.54856 0.01292 0.0
H703 H 0.5273 0.52409 0.89351 0.0
H704 H 0.61595 0.546 0.84557 0.0
H705 H 0.57802 0.52943 0.06022 0.0
C706 C 0.61491 0.53362 0.10377 0.0
C707 C 0.64055 0.53878 0.09209 0.0
C708 C 0.59647 0.54139 0.85617 0.0
C709 C 0.60578 0.53911 0.98307 0.0
C710 C 0.57961 0.53849 0.80144 0.0
C711 C 0.55429 0.532 0.81322 0.0
C712 C 0.58807 0.53771 0.92352 0.0
C713 C 0.54657 0.52906 0.88146 0.0
C714 C 0.59756 0.53385 0.04979 0.0
C715 C 0.64781 0.54478 0.02494 0.0
N716 N 0.56335 0.53181 0.93368 0.0
N717 N 0.63062 0.54458 0.97314 0.0
H718 H 0.03568 0.63258 0.12035 0.0
H719 H 0.95819 0.55079 0.84598 0.0
H720 H 0.95492 0.63846 0.10141 0.0
H721 H 0.03854 0.56272 0.84298 0.0
H722 H 0.95551 0.57808 0.94781 0.0
H723 H 0.03585 0.60196 0.02855 0.0
C724 C 0.01783 0.62715 0.09782 0.0
C725 C 0.9952 0.63813 0.1197 0.0
C726 C 0.9737 0.57458 0.92488 0.0
C727 C 0.99539 0.603 0.01189 0.0
C728 C 0.97525 0.55891 0.86713 0.0
C729 C 0.99862 0.55452 0.83588 0.0
C730 C 0.99573 0.58559 0.9519 0.0
C731 C 0.0201 0.56569 0.865 0.0
C732 C 0.018 0.60975 0.04453 0.0
C733 C 0.97285 0.63063 0.08635 0.0
N734 N 0.01813 0.58058 0.92108 0.0
N735 N 0.97349 0.61355 0.03417 0.0
H736 H 0.08289 0.24076 0.4024 0.0
H737 H 0.96571 0.14815 0.45581 0.0
H738 H 0.04202 0.20337 0.24056 0.0
H739 H 0.0174 0.16511 0.61973 0.0
H740 H 0.99055 0.17457 0.37981 0.0
H741 H 0.05718 0.21775 0.48627 0.0
C742 C 0.06876 0.22754 0.38459 0.0
C743 C 0.06478 0.22376 0.31441 0.0
C744 C 0.99645 0.17269 0.43248 0.0
C745 C 0.03515 0.19804 0.40937 0.0
C746 C 0.98219 0.15774 0.47587 0.0
C747 C 0.98971 0.15432 0.5437 0.0
C748 C 0.01848 0.18432 0.45696 0.0
C749 C 0.01101 0.16739 0.56761 0.0
C750 C 0.05411 0.21451 0.43232 0.0
C751 C 0.04617 0.20651 0.29401 0.0
N752 N 0.02488 0.18171 0.52396 0.0
N753 N 0.032 0.19446 0.34117 0.0
H754 H 0.32695 0.08657 0.17895 0.0
H755 H 0.35251 0.0219 0.53797 0.0
H756 H 0.27785 0.09651 0.35246 0.0
H757 H 0.39956 0.01423 0.35987 0.0
H758 H 0.32722 0.05314 0.4767 0.0
H759 H 0.35748 0.06663 0.25234 0.0
C760 C 0.32279 0.08534 0.2329 0.0
C761 C 0.29938 0.09284 0.259 0.0
C762 C 0.34321 0.04473 0.45137 0.0
C763 C 0.33411 0.06867 0.34322 0.0
C764 C 0.35742 0.02671 0.48596 0.0
C765 C 0.3781 0.01544 0.45385 0.0
C766 C 0.34975 0.05137 0.38428 0.0
C767 C 0.38393 0.02261 0.38685 0.0
C768 C 0.3402 0.07347 0.27481 0.0
C769 C 0.29529 0.09032 0.32958 0.0
N770 N 0.36981 0.04003 0.35436 0.0
N771 N 0.31224 0.07792 0.36904 0.0
H772 H 0.51763 0.33726 0.25926 0.0
H773 H 0.5361 0.36111 0.65937 0.0
H774 H 0.47573 0.29677 0.41291 0.0
H775 H 0.57034 0.40624 0.50144 0.0
H776 H 0.51513 0.33593 0.57117 0.0
H777 H 0.53762 0.36206 0.3486 0.0
C778 C 0.51235 0.33377 0.31176 0.0
C779 C 0.49484 0.31492 0.32839 0.0
C780 C 0.52722 0.35137 0.55598 0.0
C781 C 0.51827 0.34297 0.43158 0.0
C782 C 0.53932 0.36567 0.60629 0.0
C783 C 0.55472 0.38609 0.58794 0.0
C784 C 0.53084 0.35736 0.48687 0.0
C785 C 0.55822 0.39105 0.51821 0.0
C786 C 0.52399 0.34782 0.36293 0.0
C787 C 0.48931 0.3109 0.39767 0.0
N788 N 0.54636 0.37684 0.47041 0.0
N789 N 0.50104 0.32478 0.44677 0.0
H790 H 0.23603 0.4866 0.36625 0.0
H791 H 0.10595 0.5602 0.3419 0.0
H792 H 0.18905 0.48629 0.186 0.0
H793 H 0.16353 0.57861 0.48922 0.0
H794 H 0.13453 0.53011 0.28857 0.0
H795 H 0.20714 0.51644 0.41944 0.0
C796 C 0.21953 0.49256 0.33816 0.0
C797 C 0.21507 0.48399 0.27139 0.0
C798 C 0.14106 0.54094 0.33201 0.0
C799 C 0.18207 0.51805 0.33183 0.0
C800 C 0.12487 0.55819 0.36196 0.0
C801 C 0.13266 0.57193 0.41928 0.0
C802 C 0.16502 0.53716 0.36042 0.0
C803 C 0.1571 0.56853 0.44436 0.0
C804 C 0.20315 0.50965 0.36842 0.0
C805 C 0.19315 0.49205 0.23785 0.0
N806 N 0.17243 0.55124 0.4151 0.0
N807 N 0.17755 0.50872 0.26832 0.0
H808 H 1.00373 0.82372 0.05952 0.0
H809 H 0.06707 0.85091 0.69855 0.0
H810 H 0.05184 0.77025 0.95786 0.0
H811 H 0.0548 0.90714 0.85453 0.0
H812 H 0.0484 0.81937 0.77436 0.0
H813 H 0.00911 0.85242 0.96349 0.0
C814 C 0.01529 0.81791 0.01691 0.0
C815 C 0.02791 0.79479 0.01767 0.0
C816 C 0.04946 0.83878 0.79091 0.0
C817 C 0.03348 0.82726 0.90708 0.0
C818 C 0.06029 0.85678 0.74809 0.0
C819 C 0.06311 0.88179 0.77035 0.0
C820 C 0.04093 0.84598 0.85564 0.0
C821 C 0.05302 0.88831 0.83425 0.0
C822 C 0.01813 0.83421 0.96198 0.0
C823 C 0.04185 0.7879 0.95974 0.0
N824 N 0.04258 0.87049 0.87471 0.0
N825 N 0.04452 0.80424 0.90699 0.0
H826 H 0.71792 0.04629 0.0788 0.0
H827 H 0.63949 0.14194 0.8643 0.0
H828 H 0.7392 0.12447 0.09337 0.0
H829 H 0.6046 0.08499 0.98997 0.0
H830 H 0.67938 0.13519 0.92597 0.0
H831 H 0.67975 0.05836 0.01784 0.0
C832 C 0.71473 0.06599 0.06805 0.0
C833 C 0.73167 0.08445 0.09081 0.0
C834 C 0.6628 0.12445 0.93998 0.0
C835 C 0.68808 0.0983 0.02162 0.0
C836 C 0.64007 0.12832 0.90526 0.0
C837 C 0.61879 0.1136 0.92098 0.0
C838 C 0.66414 0.1055 0.98949 0.0
C839 C 0.62068 0.09617 0.97443 0.0
C840 C 0.69289 0.07284 0.03395 0.0
C841 C 0.72646 0.10976 0.07657 0.0
N842 N 0.64304 0.0923 1.00586 0.0
N843 N 0.70503 0.11604 0.04237 0.0
H844 H 0.43513 0.75147 0.96835 0.0
H845 H 0.47352 0.6219 0.85297 0.0
H846 H 0.51208 0.72684 0.98941 0.0
H847 H 0.42011 0.66256 0.72812 0.0
H848 H 0.48903 0.66115 0.8972 0.0
H849 H 0.42945 0.72166 0.87422 0.0
C850 C 0.45103 0.74032 0.95198 0.0
C851 C 0.47388 0.74102 0.98807 0.0
C852 C 0.47424 0.66154 0.85905 0.0
C853 C 0.46737 0.70682 0.88171 0.0
C854 C 0.46534 0.63893 0.83294 0.0
C855 C 0.44502 0.63844 0.78672 0.0
C856 C 0.46227 0.68398 0.84124 0.0
C857 C 0.43511 0.66168 0.76541 0.0
C858 C 0.44777 0.72333 0.89826 0.0
C859 C 0.49386 0.72621 0.96454 0.0
N860 N 0.44336 0.68349 0.79429 0.0
N861 N 0.48997 0.70925 0.91393 0.0
H862 H 0.81774 0.54251 0.02756 0.0
H863 H 0.90639 0.4864 0.83458 0.0
H864 H 0.77096 0.4855 0.9339 0.0
H865 H 0.84869 0.47162 0.68335 0.0
H866 H 0.87636 0.50957 0.90093 0.0
H867 H 0.84667 0.53975 0.93089 0.0
C868 C 0.81348 0.52954 0.98642 0.0
C869 C 0.79237 0.51362 0.98971 0.0
C870 C 0.87037 0.50203 0.85217 0.0
C871 C 0.82539 0.5102 0.87987 0.0
C872 C 0.88766 0.48863 0.81369 0.0
C873 C 0.88015 0.47645 0.75321 0.0
C874 C 0.84514 0.50289 0.83118 0.0
C875 C 0.85522 0.47983 0.73075 0.0
C876 C 0.82996 0.52801 0.93138 0.0
C877 C 0.78719 0.49788 0.93387 0.0
N878 N 0.83839 0.49212 0.77078 0.0
N879 N 0.80387 0.49624 0.88165 0.0
H880 H 1.00393 0.20088 0.91913 0.0
H881 H 0.0622 0.09012 0.69087 0.0
H882 H 0.08201 0.1984 0.85816 0.0
H883 H 0.99132 0.08331 0.79605 0.0
H884 H 0.06816 0.13183 0.74174 0.0
H885 H 0.99726 0.16 0.86436 0.0
C886 C 0.01972 0.19189 0.89439 0.0
C887 C 0.04363 0.20347 0.89367 0.0
C888 C 0.0513 0.12122 0.75384 0.0
C889 C 0.0359 0.15645 0.8297 0.0
C890 C 0.04801 0.09728 0.7252 0.0
C891 C 0.02651 0.08291 0.74021 0.0
C892 C 0.03274 0.13117 0.79714 0.0
C893 C 0.00828 0.09362 0.78318 0.0
C894 C 0.01582 0.1685 0.86282 0.0
C895 C 0.06311 0.19075 0.85936 0.0
N896 N 0.01179 0.11703 0.81007 0.0
N897 N 0.05882 0.16807 0.829 0.0
H898 H 0.31589 0.05033 0.80645 0.0
H899 H 0.45972 0.02023 0.86322 0.0
H900 H 0.33975 0.00901 0.98509 0.0
H901 H 0.42594 0.01439 0.66346 0.0
H902 H 0.41729 0.02305 0.91324 0.0
H903 H 0.35724 0.04363 0.75652 0.0
C904 C 0.32943 0.03956 0.83533 0.0
C905 C 0.32365 0.03025 0.9009 0.0
C906 C 0.41926 0.02105 0.85851 0.0
C907 C 0.37204 0.02364 0.84393 0.0
C908 C 0.44343 0.01956 0.82993 0.0
C909 C 0.44643 0.01701 0.75905 0.0
C910 C 0.39796 0.02076 0.81579 0.0
C911 C 0.42457 0.01618 0.71838 0.0
C912 C 0.35328 0.036 0.8066 0.0
C913 C 0.34297 0.01719 0.93541 0.0
N914 N 0.40134 0.01836 0.74717 0.0
N915 N 0.36625 0.01457 0.90697 0.0
H916 H 0.48157 0.30781 0.78604 0.0
H917 H 0.52755 0.45112 0.81113 0.0
H918 H 0.51804 0.34053 0.96223 0.0
H919 H 0.49383 0.42008 0.62929 0.0
H920 H 0.52683 0.40955 0.86321 0.0
H921 H 0.48823 0.34733 0.72417 0.0
C922 C 0.49113 0.32317 0.81166 0.0
C923 C 0.49918 0.32069 0.87979 0.0
C924 C 0.51968 0.41165 0.81178 0.0
C925 C 0.50681 0.3661 0.80905 0.0
C926 C 0.52009 0.43543 0.78202 0.0
C927 C 0.51062 0.43902 0.71598 0.0
C928 C 0.50936 0.3912 0.77577 0.0
C929 C 0.50138 0.41803 0.68031 0.0
C930 C 0.49497 0.34573 0.77616 0.0
C931 C 0.51175 0.34125 0.90972 0.0
N932 N 0.50065 0.39504 0.71102 0.0
N933 N 0.51497 0.36302 0.87446 0.0
H934 H 0.19731 0.44922 0.85283 0.0
H935 H 0.08194 0.5428 0.7863 0.0
H936 H 0.20032 0.52812 0.9043 0.0
H937 H 0.0863 0.46838 0.70051 0.0
H938 H 0.12429 0.53751 0.83424 0.0
H939 H 0.15608 0.45556 0.80128 0.0
C940 C 0.18961 0.46801 0.8526 0.0
C941 C 0.20282 0.48818 0.8829 0.0
C942 C 0.11595 0.52227 0.80515 0.0
C943 C 0.15463 0.49541 0.82479 0.0
C944 C 0.09174 0.52528 0.77763 0.0
C945 C 0.08022 0.50578 0.74024 0.0
C946 C 0.1289 0.49956 0.79537 0.0
C947 C 0.09398 0.48359 0.73069 0.0
C948 C 0.16579 0.47155 0.82349 0.0
C949 C 0.19103 0.51186 0.8824 0.0
N950 N 0.11744 0.48105 0.7582 0.0
N951 N 0.1677 0.51478 0.85409 0.0
H952 H 0.98885 0.83875 0.36369 0.0
H953 H 0.01505 0.92326 0.69693 0.0
H954 H 0.01105 0.80706 0.55712 0.0
H955 H 1.0022 0.95309 0.49559 0.0
H956 H 0.0114 0.88058 0.64999 0.0
H957 H 0.99002 0.88053 0.41494 0.0
C958 C 0.99358 0.84044 0.41728 0.0
C959 C 0.9998 0.8191 0.4559 0.0
C960 C 0.00916 0.8965 0.6162 0.0
C961 C 1.00172 0.86744 0.51505 0.0
C962 C 0.01131 0.92092 0.64295 0.0
C963 C 0.0085 0.94201 0.60039 0.0
C964 C 1.00404 0.89305 0.54631 0.0
C965 C 1.00379 0.93762 0.53082 0.0
C966 C 0.99452 0.86446 0.44642 0.0
C967 C 1.00634 0.82286 0.52492 0.0
N968 N 1.00164 0.91379 0.50617 0.0
N969 N 0.00717 0.84648 0.55215 0.0
H970 H 0.69285 0.97425 0.36491 0.0
H971 H 0.6062 0.01357 0.68202 0.0
H972 H 0.71867 0.02477 0.52333 0.0
H973 H 0.57659 0.98938 0.48743 0.0
H974 H 0.64894 0.011 0.63471 0.0
H975 H 0.65156 0.97282 0.41946 0.0
C976 C 0.69003 0.98505 0.41107 0.0
C977 C 0.7096 0.99986 0.4387 0.0
C978 C 0.63302 1.00606 0.60272 0.0
C979 C 0.66204 0.99774 0.50268 0.0
C980 C 0.60857 1.00747 0.6297 0.0
C981 C 0.58748 1.00177 0.58883 0.0
C982 C 0.63653 0.99839 0.53471 0.0
C983 C 0.59199 0.99383 0.52141 0.0
C984 C 0.66636 0.98409 0.44244 0.0
C985 C 0.70455 0.01279 0.50006 0.0
N986 N 0.61588 0.99238 0.49666 0.0
N987 N 0.68136 0.01147 0.52972 0.0
H988 H 0.53604 0.69084 0.3663 0.0
H989 H 0.48286 0.59632 0.65013 0.0
H990 H 0.48569 0.71352 0.52748 0.0
H991 H 0.54257 0.57699 0.51074 0.0
H992 H 0.48341 0.63919 0.60533 0.0
H993 H 0.53921 0.64933 0.41903 0.0
C994 C 0.52594 0.68732 0.4133 0.0
C995 C 0.51042 0.70588 0.44197 0.0
C996 C 0.4965 0.62561 0.58477 0.0
C997 C 0.51354 0.6579 0.50202 0.0
C998 C 0.49614 0.60104 0.61026 0.0
C999 C 0.51275 0.58287 0.58454 0.0
C1000 C 0.51341 0.63216 0.53247 0.0
C1001 C 0.52956 0.59029 0.5328 0.0
C1002 C 0.5276 0.66346 0.44312 0.0
C1003 C 0.49751 0.6998 0.50251 0.0
N1004 N 0.52936 0.61424 0.50834 0.0
N1005 N 0.4992 0.67639 0.53005 0.0
H1006 H 0.80256 0.51746 0.54608 0.0
H1007 H 0.95154 0.51675 0.49045 0.0
H1008 H 0.83845 0.53814 0.35691 0.0
H1009 H 0.91924 0.52075 0.69173 0.0
H1010 H 0.9097 0.52129 0.44107 0.0
H1011 H 0.84423 0.51564 0.60086 0.0
C1012 C 0.81914 0.5218 0.51613 0.0
C1013 C 0.81684 0.52807 0.44659 0.0
C1014 C 0.91167 0.5213 0.49607 0.0
C1015 C 0.8647 0.52564 0.50898 0.0
C1016 C 0.93568 0.51887 0.52443 0.0
C1017 C 0.93916 0.51897 0.59545 0.0
C1018 C 0.89056 0.52326 0.5388 0.0
C1019 C 0.91755 0.52069 0.63669 0.0
C1020 C 0.84292 0.52079 0.54754 0.0
C1021 C 0.8391 0.53358 0.41068 0.0
N1022 N 0.89419 0.5227 0.60782 0.0
N1023 N 0.86196 0.53201 0.442 0.0
loop_
_geom_bond_atom_site_label_1
_geom_bond_atom_site_label_2
_geom_bond_distance
_geom_bond_site_symmetry_2
_ccdc_geom_bond_type
P0 O11 1.490 . S
P0 C14 1.812 . S
P0 C20 1.803 . S
P0 C26 1.819 . S
H1 C15 0.941 . S
H2 C16 0.939 . S
H3 C18 0.940 . S
H4 C19 0.940 . S
H5 C21 0.939 . S
H6 C22 0.942 . S
H7 C24 0.940 . S
H8 C25 0.939 . S
H9 C27 0.941 . S
H10 C31 0.939 . S
O11 P0 1.490 . S
H12 C28 0.939 . S
H13 C30 0.940 . S
C14 P0 1.812 . S
C14 C15 1.389 . S
C14 C19 1.391 . S
C15 H1 0.941 . S
C15 C14 1.389 . S
C15 C16 1.397 . S
C16 H2 0.939 . S
C16 C15 1.397 . S
C16 C17 1.378 . S
C17 C16 1.378 . S
C17 C18 1.378 . S
C18 H3 0.940 . S
C18 C17 1.378 . S
C18 C19 1.396 . S
C19 H4 0.940 . S
C19 C14 1.391 . S
C19 C18 1.396 . S
C20 P0 1.803 . S
C20 C21 1.378 . S
C20 C25 1.400 . S
C21 H5 0.939 . S
C21 C20 1.378 . S
C21 C22 1.361 . S
C22 H6 0.942 . S
C22 C21 1.361 . S
C22 C23 1.369 . S
C23 C22 1.369 . S
C23 C24 1.404 . S
C24 H7 0.940 . S
C24 C23 1.404 . S
C24 C25 1.389 . S
C25 H8 0.939 . S
C25 C20 1.400 . S
C25 C24 1.389 . S
C26 P0 1.819 . S
C26 C27 1.391 . S
C26 C31 1.391 . S
C27 H9 0.941 . S
C27 C26 1.391 . S
C27 C28 1.396 . S
C28 H12 0.939 . S
C28 C27 1.396 . S
C28 C29 1.397 . S
C29 C28 1.397 . S
C29 C30 1.385 . S
C30 H13 0.940 . S
C30 C29 1.385 . S
C30 C31 1.388 . S
C31 H10 0.939 . S
C31 C26 1.391 . S
C31 C30 1.388 . S
P32 O43 1.490 . S
P32 C46 1.812 1_455 S
P32 C52 1.803 1_455 S
P32 C58 1.819 1_455 S
H33 C47 0.941 . S
H34 C48 0.939 1_455 S
H35 C50 0.940 . S
H36 C51 0.940 . S
H37 C53 0.939 . S
H38 C54 0.942 1_455 S
H39 C56 0.940 . S
H40 C57 0.939 . S
H41 C59 0.941 . S
H42 C63 0.939 . S
O43 P32 1.490 . S
H44 C60 0.945 . S
H45 C62 0.940 . S
C46 P32 1.812 1_655 S
C46 C47 1.389 1_655 S
C46 C51 1.391 . S
C47 H33 0.941 . S
C47 C46 1.389 1_455 S
C47 C48 1.397 1_455 S
C48 H34 0.939 1_655 S
C48 C47 1.397 1_655 S
C48 C49 1.378 . S
C49 C48 1.378 . S
C49 C50 1.378 . S
C50 H35 0.940 . S
C50 C49 1.378 . S
C50 C51 1.396 . S
C51 H36 0.940 . S
C51 C46 1.391 . S
C51 C50 1.396 . S
C52 P32 1.803 1_655 S
C52 C53 1.378 1_655 S
C52 C57 1.400 . S
C53 H37 0.939 . S
C53 C52 1.378 1_455 S
C53 C54 1.361 1_455 S
C54 H38 0.942 1_655 S
C54 C53 1.361 1_655 S
C54 C55 1.369 . S
C55 C54 1.369 . S
C55 C56 1.404 . S
C56 H39 0.940 . S
C56 C55 1.404 . S
C56 C57 1.389 . S
C57 H40 0.939 . S
C57 C52 1.400 . S
C57 C56 1.389 . S
C58 P32 1.819 1_655 S
C58 C59 1.391 1_655 S
C58 C63 1.391 . S
C59 H41 0.941 . S
C59 C58 1.391 1_455 S
C59 C60 1.396 1_455 S
C60 H44 0.945 . S
C60 C59 1.396 1_655 S
C60 C61 1.397 . S
C61 C60 1.397 . S
C61 C62 1.385 . S
C62 H45 0.940 . S
C62 C61 1.385 . S
C62 C63 1.388 . S
C63 H42 0.939 . S
C63 C58 1.391 . S
C63 C62 1.388 . S
P64 O75 1.490 . S
P64 C78 1.812 1_545 S
P64 C84 1.803 1_545 S
P64 C90 1.819 1_545 S
H65 C79 0.941 . S
H66 C80 0.916 1_545 S
H67 C82 0.940 . S
H68 C83 0.940 . S
H69 C85 0.939 . S
H70 C86 0.943 1_545 S
H71 C88 0.940 . S
H72 C89 0.939 . S
H73 C91 0.941 . S
H74 C95 0.939 . S
O75 P64 1.490 . S
H76 C92 0.939 1_545 S
H77 C94 0.940 . S
C78 P64 1.812 1_565 S
C78 C79 1.389 1_565 S
C78 C83 1.391 . S
C79 H65 0.941 . S
C79 C78 1.389 1_545 S
C79 C80 1.381 1_545 S
C80 H66 0.916 1_565 S
C80 C79 1.381 1_565 S
C80 C81 1.418 . S
C81 C80 1.418 . S
C81 C82 1.378 . S
C82 H67 0.940 . S
C82 C81 1.378 . S
C82 C83 1.396 . S
C83 H68 0.940 . S
C83 C78 1.391 . S
C83 C82 1.396 . S
C84 P64 1.803 1_565 S
C84 C85 1.378 1_565 S
C84 C89 1.400 . S
C85 H69 0.939 . S
C85 C84 1.378 1_545 S
C85 C86 1.361 1_545 S
C86 H70 0.943 1_565 S
C86 C85 1.361 1_565 S
C86 C87 1.368 . S
C87 C86 1.368 . S
C87 C88 1.404 . S
C88 H71 0.940 . S
C88 C87 1.404 . S
C88 C89 1.389 . S
C89 H72 0.939 . S
C89 C84 1.400 . S
C89 C88 1.389 . S
C90 P64 1.819 1_565 S
C90 C91 1.391 1_565 S
C90 C95 1.391 . S
C91 H73 0.941 . S
C91 C90 1.391 1_545 S
C91 C92 1.396 1_545 S
C92 H76 0.939 1_565 S
C92 C91 1.396 1_565 S
C92 C93 1.397 . S
C93 C92 1.397 . S
C93 C94 1.385 . S
C94 H77 0.940 . S
C94 C93 1.385 . S
C94 C95 1.388 . S
C95 H74 0.939 . S
C95 C90 1.391 . S
C95 C94 1.388 . S
P96 O107 1.490 . S
P96 C110 1.812 . S
P96 C116 1.803 . S
P96 C122 1.819 . S
H97 C111 0.941 . S
H98 C112 0.939 . S
H99 C114 0.940 . S
H100 C115 0.940 . S
H101 C117 0.939 . S
H102 C118 0.942 . S
H103 C120 0.940 . S
H104 C121 0.939 . S
H105 C123 0.941 . S
H106 C127 0.939 . S
O107 P96 1.490 . S
H108 C124 0.939 . S
H109 C126 0.940 . S
C110 P96 1.812 . S
C110 C111 1.389 . S
C110 C115 1.391 . S
C111 H97 0.941 . S
C111 C110 1.389 . S
C111 C112 1.397 . S
C112 H98 0.939 . S
C112 C111 1.397 . S
C112 C113 1.378 . S
C113 C112 1.378 . S
C113 C114 1.378 . S
C114 H99 0.940 . S
C114 C113 1.378 . S
C114 C115 1.396 . S
C115 H100 0.940 . S
C115 C110 1.391 . S
C115 C114 1.396 . S
C116 P96 1.803 . S
C116 C117 1.378 . S
C116 C121 1.400 . S
C117 H101 0.939 . S
C117 C116 1.378 . S
C117 C118 1.361 . S
C118 H102 0.942 . S
C118 C117 1.361 . S
C118 C119 1.369 . S
C119 C118 1.369 . S
C119 C120 1.404 . S
C120 H103 0.940 . S
C120 C119 1.404 . S
C120 C121 1.389 . S
C121 H104 0.939 . S
C121 C116 1.400 . S
C121 C120 1.389 . S
C122 P96 1.819 . S
C122 C123 1.391 . S
C122 C127 1.391 . S
C123 H105 0.941 . S
C123 C122 1.391 . S
C123 C124 1.396 . S
C124 H108 0.939 . S
C124 C123 1.396 . S
C124 C125 1.397 . S
C125 C124 1.397 . S
C125 C126 1.385 . S
C126 H109 0.940 . S
C126 C125 1.385 . S
C126 C127 1.388 . S
C127 H106 0.939 . S
C127 C122 1.391 . S
C127 C126 1.388 . S
P128 O139 1.490 . S
P128 C142 1.812 1_554 S
P128 C148 1.803 . S
P128 C154 1.819 . S
H129 C143 0.941 . S
H130 C144 0.939 . S
H131 C146 0.940 . S
H132 C147 0.940 . S
H133 C149 0.939 . S
H134 C150 0.942 . S
H135 C152 0.940 . S
H136 C153 0.939 . S
H137 C155 0.941 . S
H138 C159 0.939 . S
O139 P128 1.490 . S
H140 C156 0.939 . S
H141 C158 0.940 . S
C142 P128 1.812 1_556 S
C142 C143 1.389 . S
C142 C147 1.391 . S
C143 H129 0.941 . S
C143 C142 1.389 . S
C143 C144 1.397 . S
C144 H130 0.939 . S
C144 C143 1.397 . S
C144 C145 1.378 . S
C145 C144 1.378 . S
C145 C146 1.378 . S
C146 H131 0.940 . S
C146 C145 1.378 . S
C146 C147 1.396 . S
C147 H132 0.940 . S
C147 C142 1.391 . S
C147 C146 1.396 . S
C148 P128 1.803 . S
C148 C149 1.378 . S
C148 C153 1.400 . S
C149 H133 0.939 . S
C149 C148 1.378 . S
C149 C150 1.361 . S
C150 H134 0.942 . S
C150 C149 1.361 . S
C150 C151 1.369 . S
C151 C150 1.369 . S
C151 C152 1.404 . S
C152 H135 0.940 . S
C152 C151 1.404 . S
C152 C153 1.389 . S
C153 H136 0.939 . S
C153 C148 1.400 . S
C153 C152 1.389 . S
C154 P128 1.819 . S
C154 C155 1.391 . S
C154 C159 1.391 . S
C155 H137 0.941 . S
C155 C154 1.391 . S
C155 C156 1.396 . S
C156 H140 0.939 . S
C156 C155 1.396 . S
C156 C157 1.397 . S
C157 C156 1.397 . S
C157 C158 1.385 . S
C158 H141 0.940 . S
C158 C157 1.385 . S
C158 C159 1.388 . S
C159 H138 0.939 . S
C159 C154 1.391 . S
C159 C158 1.388 . S
P160 O171 1.490 . S
P160 C174 1.812 1_554 S
P160 C180 1.803 . S
P160 C186 1.819 . S
H161 C175 0.941 . S
H162 C176 0.939 . S
H163 C178 0.940 . S
H164 C179 0.944 . S
H165 C181 0.939 . S
H166 C182 0.942 . S
H167 C184 0.940 . S
H168 C185 0.939 . S
H169 C187 0.941 . S
H170 C191 0.939 . S
O171 P160 1.490 . S
H172 C188 0.939 . S
H173 C190 0.940 . S
C174 P160 1.812 1_556 S
C174 C175 1.389 . S
C174 C179 1.391 . S
C175 H161 0.941 . S
C175 C174 1.389 . S
C175 C176 1.397 . S
C176 H162 0.939 . S
C176 C175 1.397 . S
C176 C177 1.378 . S
C177 C176 1.378 . S
C177 C178 1.378 . S
C178 H163 0.940 . S
C178 C177 1.378 . S
C178 C179 1.396 . S
C179 H164 0.944 . S
C179 C174 1.391 . S
C179 C178 1.396 . S
C180 P160 1.803 . S
C180 C181 1.378 . S
C180 C185 1.400 . S
C181 H165 0.939 . S
C181 C180 1.378 . S
C181 C182 1.361 . S
C182 H166 0.942 . S
C182 C181 1.361 . S
C182 C183 1.369 . S
C183 C182 1.369 . S
C183 C184 1.404 . S
C184 H167 0.940 . S
C184 C183 1.404 . S
C184 C185 1.389 . S
C185 H168 0.939 . S
C185 C180 1.400 . S
C185 C184 1.389 . S
C186 P160 1.819 . S
C186 C187 1.391 . S
C186 C191 1.391 . S
C187 H169 0.941 . S
C187 C186 1.391 . S
C187 C188 1.396 . S
C188 H172 0.939 . S
C188 C187 1.396 . S
C188 C189 1.397 . S
C189 C188 1.397 . S
C189 C190 1.385 . S
C190 H173 0.940 . S
C190 C189 1.385 . S
C190 C191 1.388 . S
C191 H170 0.939 . S
C191 C186 1.391 . S
C191 C190 1.388 . S
P192 O203 1.490 . S
P192 C206 1.812 1_554 S
P192 C212 1.803 . S
P192 C218 1.819 . S
H193 C207 0.941 . S
H194 C208 0.939 . S
H195 C210 0.940 . S
H196 C211 0.940 . S
H197 C213 0.939 . S
H198 C214 0.942 . S
H199 C216 0.940 . S
H200 C217 0.939 . S
H201 C219 0.941 . S
H202 C223 0.939 . S
O203 P192 1.490 . S
H204 C220 0.939 . S
H205 C222 0.940 . S
C206 P192 1.812 1_556 S
C206 C207 1.389 . S
C206 C211 1.391 . S
C207 H193 0.941 . S
C207 C206 1.389 . S
C207 C208 1.397 . S
C208 H194 0.939 . S
C208 C207 1.397 . S
C208 C209 1.378 . S
C209 C208 1.378 . S
C209 C210 1.378 . S
C210 H195 0.940 . S
C210 C209 1.378 . S
C210 C211 1.396 . S
C211 H196 0.940 . S
C211 C206 1.391 . S
C211 C210 1.396 . S
C212 P192 1.803 . S
C212 C213 1.378 . S
C212 C217 1.400 . S
C213 H197 0.939 . S
C213 C212 1.378 . S
C213 C214 1.361 . S
C214 H198 0.942 . S
C214 C213 1.361 . S
C214 C215 1.369 . S
C215 C214 1.369 . S
C215 C216 1.404 . S
C216 H199 0.940 . S
C216 C215 1.404 . S
C216 C217 1.389 . S
C217 H200 0.939 . S
C217 C212 1.400 . S
C217 C216 1.389 . S
C218 P192 1.819 . S
C218 C219 1.391 . S
C218 C223 1.391 . S
C219 H201 0.941 . S
C219 C218 1.391 . S
C219 C220 1.396 . S
C220 H204 0.939 . S
C220 C219 1.396 . S
C220 C221 1.397 . S
C221 C220 1.397 . S
C221 C222 1.385 . S
C222 H205 0.940 . S
C222 C221 1.385 . S
C222 C223 1.388 . S
C223 H202 0.939 . S
C223 C218 1.391 . S
C223 C222 1.388 . S
P224 O235 1.490 . S
P224 C238 1.812 1_554 S
P224 C244 1.803 . S
P224 C250 1.819 . S
H225 C239 0.941 . S
H226 C240 0.939 . S
H227 C242 0.940 . S
H228 C243 0.940 . S
H229 C245 0.939 . S
H230 C246 0.942 . S
H231 C248 0.940 . S
H232 C249 0.939 . S
H233 C251 0.941 . S
H234 C255 0.939 . S
O235 P224 1.490 . S
H236 C252 0.939 . S
H237 C254 0.940 . S
C238 P224 1.812 1_556 S
C238 C239 1.389 . S
C238 C243 1.391 . S
C239 H225 0.941 . S
C239 C238 1.389 . S
C239 C240 1.397 . S
C240 H226 0.939 . S
C240 C239 1.397 . S
C240 C241 1.378 . S
C241 C240 1.378 . S
C241 C242 1.378 . S
C242 H227 0.940 . S
C242 C241 1.378 . S
C242 C243 1.396 . S
C243 H228 0.940 . S
C243 C238 1.391 . S
C243 C242 1.396 . S
C244 P224 1.803 . S
C244 C245 1.378 . S
C244 C249 1.400 . S
C245 H229 0.939 . S
C245 C244 1.378 . S
C245 C246 1.361 . S
C246 H230 0.942 . S
C246 C245 1.361 . S
C246 C247 1.369 . S
C247 C246 1.369 . S
C247 C248 1.404 . S
C248 H231 0.940 . S
C248 C247 1.404 . S
C248 C249 1.389 . S
C249 H232 0.939 . S
C249 C244 1.400 . S
C249 C248 1.389 . S
C250 P224 1.819 . S
C250 C251 1.391 . S
C250 C255 1.391 . S
C251 H233 0.941 . S
C251 C250 1.391 . S
C251 C252 1.396 . S
C252 H236 0.939 . S
C252 C251 1.396 . S
C252 C253 1.397 . S
C253 C252 1.397 . S
C253 C254 1.385 . S
C254 H237 0.940 . S
C254 C253 1.385 . S
C254 C255 1.388 . S
C255 H234 0.939 . S
C255 C250 1.391 . S
C255 C254 1.388 . S
Eu256 N285 2.600 . S
Eu256 N291 2.562 . S
Eu256 O300 2.462 . S
Eu256 O301 2.373 1_545 S
Eu256 O303 2.432 . S
Eu256 O304 2.291 1_655 S
Eu256 O308 2.335 1_655 S
Eu256 O311 2.372 . S
Eu256 C320 2.787 . S
C257 N258 1.365 . S
C257 C260 1.405 . S
C257 C264 1.448 . S
N258 C257 1.365 . S
N258 C261 1.315 1_545 S
N258 Eu267 2.600 1_545 S
C259 C261 1.385 1_545 S
C259 C262 1.367 . S
C259 H279 0.931 . S
C260 C257 1.405 . S
C260 C262 1.403 . S
C260 C266 1.439 . S
C261 N258 1.315 1_565 S
C261 C259 1.385 1_565 S
C261 H272 0.949 . S
C262 C259 1.367 . S
C262 C260 1.403 . S
C262 H283 0.929 . S
C263 C264 1.430 . S
C263 C265 1.387 . S
C263 C269 1.404 . S
C264 C257 1.448 . S
C264 C263 1.430 . S
C264 N268 1.351 . S
C265 C263 1.387 . S
C265 C266 1.374 . S
C265 H280 0.931 . S
C266 C260 1.439 . S
C266 C265 1.374 . S
C266 H281 0.931 . S
Eu267 N258 2.600 1_565 S
Eu267 N268 2.562 1_565 S
Eu267 O302 2.335 . S
Eu267 O305 2.372 . S
Eu267 O306 2.462 . S
Eu267 O307 2.373 1_565 S
Eu267 O309 2.432 . S
Eu267 O310 2.291 1_465 S
Eu267 C331 2.787 . S
N268 C264 1.351 . S
N268 Eu267 2.562 1_545 S
N268 C270 1.325 . S
C269 C263 1.404 . S
C269 C271 1.366 . S
C269 H277 0.930 1_556 S
C270 N268 1.325 . S
C270 C271 1.416 . S
C270 H276 0.909 1_455 S
C271 C269 1.366 . S
C271 C270 1.416 . S
C271 H273 0.930 . S
H272 C261 0.949 . S
H273 C271 0.930 . S
H274 C289 0.930 . S
H275 C296 0.930 1_455 S
H276 C270 0.909 1_655 S
H277 C269 0.930 1_554 S
H278 C292 0.929 1_455 S
H279 C259 0.931 . S
H280 C265 0.931 . S
H281 C266 0.931 . S
H282 C287 0.931 . S
H283 C262 0.929 . S
H284 C295 0.930 . S
N285 Eu256 2.600 . S
N285 C286 1.365 . S
N285 C289 1.319 . S
C286 N285 1.365 . S
C286 C288 1.405 1_545 S
C286 C294 1.448 . S
C287 H282 0.931 . S
C287 C289 1.397 . S
C287 C290 1.367 1_545 S
C288 C286 1.405 1_565 S
C288 C290 1.403 . S
C288 C321 1.439 . S
C289 H274 0.930 . S
C289 N285 1.319 . S
C289 C287 1.397 . S
C290 C287 1.367 1_565 S
C290 C288 1.403 . S
C290 H297 0.929 . S
N291 Eu256 2.562 . S
N291 C292 1.325 . S
N291 C294 1.351 . S
C292 H278 0.929 1_655 S
C292 N291 1.325 . S
C292 C296 1.416 1_545 S
C293 C294 1.430 1_565 S
C293 C295 1.404 . S
C293 C322 1.387 . S
C294 C286 1.448 . S
C294 N291 1.351 . S
C294 C293 1.430 1_545 S
C295 H284 0.930 . S
C295 C293 1.404 . S
C295 C296 1.366 . S
C296 H275 0.930 1_655 S
C296 C292 1.416 1_565 S
C296 C295 1.366 . S
H297 C290 0.929 . S
H298 C321 0.931 . S
H299 C322 0.931 . S
O300 Eu256 2.462 . S
O300 C320 1.252 . S
O301 Eu256 2.373 1_565 S
O301 C312 1.249 . S
O302 Eu267 2.335 . S
O302 C312 1.264 1_455 S
O303 Eu256 2.432 . S
O303 C320 1.268 . S
O304 Eu256 2.291 1_455 S
O304 C319 1.255 . S
O305 Eu267 2.372 . S
O305 C319 1.257 1_565 S
O306 Eu267 2.462 . S
O306 C331 1.252 . S
O307 Eu267 2.373 1_545 S
O307 C323 1.249 . S
O308 Eu256 2.335 1_455 S
O308 C323 1.264 . S
O309 Eu267 2.432 . S
O309 C331 1.268 . S
O310 Eu267 2.291 1_645 S
O310 C330 1.255 . S
O311 Eu256 2.372 . S
O311 C330 1.257 . S
C312 O301 1.249 . S
C312 O302 1.264 1_655 S
C313 C316 1.382 . S
C313 C318 1.390 . S
C313 C320 1.506 . S
C314 C315 1.398 . S
C314 C318 1.392 . S
C315 C314 1.398 . S
C315 C317 1.372 . S
C315 H332 0.931 . S
C316 C313 1.382 . S
C316 C317 1.390 . S
C316 H333 0.931 . S
C317 C315 1.372 . S
C317 C316 1.390 . S
C317 H334 0.929 . S
C318 C313 1.390 . S
C318 C314 1.392 . S
C318 H335 0.930 1_655 S
C319 O304 1.255 . S
C319 O305 1.257 1_545 S
C320 Eu256 2.787 . S
C320 O300 1.252 . S
C320 O303 1.268 . S
C320 C313 1.506 . S
C321 C288 1.439 . S
C321 H298 0.931 . S
C321 C322 1.374 . S
C322 C293 1.387 . S
C322 H299 0.931 . S
C322 C321 1.374 . S
C323 O307 1.249 . S
C323 O308 1.264 . S
C324 C327 1.382 . S
C324 C328 1.390 . S
C324 C331 1.506 . S
C325 C326 1.398 . S
C325 C328 1.392 . S
C326 C325 1.398 . S
C326 C329 1.372 . S
C326 H336 0.931 . S
C327 C324 1.382 . S
C327 C329 1.390 . S
C327 H337 0.931 . S
C328 C324 1.390 . S
C328 C325 1.392 . S
C328 H338 0.930 . S
C329 C326 1.372 . S
C329 C327 1.390 . S
C329 H339 0.929 . S
C330 O310 1.255 . S
C330 O311 1.257 . S
C331 Eu267 2.787 . S
C331 O306 1.252 . S
C331 O309 1.268 . S
C331 C324 1.506 . S
H332 C315 0.931 . S
H333 C316 0.931 . S
H334 C317 0.929 . S
H335 C318 0.930 1_455 S
H336 C326 0.931 . S
H337 C327 0.931 . S
H338 C328 0.930 . S
H339 C329 0.929 . S
Eu340 N369 2.600 . S
Eu340 N375 2.562 . S
Eu340 O384 2.462 . S
Eu340 O385 2.373 . S
Eu340 O387 2.432 . S
Eu340 O388 2.291 . S
Eu340 O392 2.335 1_545 S
Eu340 O395 2.372 . S
Eu340 C404 2.787 . S
C341 N342 1.365 . S
C341 C344 1.405 . S
C341 C348 1.448 . S
N342 C341 1.365 . S
N342 C345 1.319 . S
N342 Eu351 2.600 . S
C343 C345 1.397 . S
C343 C346 1.367 . S
C343 H363 0.931 . S
C344 C341 1.405 . S
C344 C346 1.403 . S
C344 C350 1.439 . S
C345 N342 1.319 . S
C345 C343 1.397 . S
C345 H356 0.930 . S
C346 C343 1.367 . S
C346 C344 1.403 . S
C346 H367 0.929 . S
C347 C348 1.430 . S
C347 C349 1.387 . S
C347 C353 1.404 . S
C348 C341 1.448 . S
C348 C347 1.430 . S
C348 N352 1.351 . S
C349 C347 1.387 . S
C349 C350 1.374 . S
C349 H364 0.931 . S
C350 C344 1.439 . S
C350 C349 1.374 . S
C350 H365 0.931 . S
Eu351 N342 2.600 . S
Eu351 N352 2.562 . S
Eu351 O386 2.335 1_565 S
Eu351 O389 2.372 . S
Eu351 O390 2.462 . S
Eu351 O391 2.373 . S
Eu351 O393 2.432 . S
Eu351 O394 2.291 1_565 S
Eu351 C415 2.787 . S
N352 C348 1.351 . S
N352 Eu351 2.562 . S
N352 C354 1.325 . S
C353 C347 1.404 . S
C353 C355 1.366 . S
C353 H361 0.930 . S
C354 N352 1.325 . S
C354 C355 1.416 . S
C354 H360 0.929 . S
C355 C353 1.366 . S
C355 C354 1.416 . S
C355 H357 0.930 . S
H356 C345 0.930 . S
H357 C355 0.930 . S
H358 C373 0.930 . S
H359 C380 0.930 . S
H360 C354 0.929 . S
H361 C353 0.930 . S
H362 C376 0.929 . S
H363 C343 0.931 . S
H364 C349 0.931 . S
H365 C350 0.931 . S
H366 C371 0.931 . S
H367 C346 0.929 . S
H368 C379 0.930 . S
N369 Eu340 2.600 . S
N369 C370 1.365 . S
N369 C373 1.319 . S
C370 N369 1.365 . S
C370 C372 1.405 . S
C370 C378 1.448 . S
C371 H366 0.931 . S
C371 C373 1.397 . S
C371 C374 1.367 . S
C372 C370 1.405 . S
C372 C374 1.403 . S
C372 C405 1.439 . S
C373 H358 0.930 . S
C373 N369 1.319 . S
C373 C371 1.397 . S
C374 C371 1.367 . S
C374 C372 1.403 . S
C374 H381 0.929 . S
N375 Eu340 2.562 . S
N375 C376 1.325 . S
N375 C378 1.351 . S
C376 H362 0.929 . S
C376 N375 1.325 . S
C376 C380 1.416 . S
C377 C378 1.430 . S
C377 C379 1.404 . S
C377 C406 1.387 . S
C378 C370 1.448 . S
C378 N375 1.351 . S
C378 C377 1.430 . S
C379 H368 0.930 . S
C379 C377 1.404 . S
C379 C380 1.366 . S
C380 H359 0.930 . S
C380 C376 1.416 . S
C380 C379 1.366 . S
H381 C374 0.929 . S
H382 C405 0.931 . S
H383 C406 0.931 . S
O384 Eu340 2.462 . S
O384 C404 1.252 . S
O385 Eu340 2.373 . S
O385 C396 1.249 . S
O386 Eu351 2.335 1_545 S
O386 C396 1.264 . S
O387 Eu340 2.432 . S
O387 C404 1.268 . S
O388 Eu340 2.291 . S
O388 C403 1.227 1_545 S
O389 Eu351 2.372 . S
O389 C403 1.276 . S
O390 Eu351 2.462 . S
O390 C415 1.252 . S
O391 Eu351 2.373 . S
O391 C407 1.249 . S
O392 Eu340 2.335 1_565 S
O392 C407 1.264 . S
O393 Eu351 2.432 . S
O393 C415 1.268 . S
O394 Eu351 2.291 1_545 S
O394 C414 1.255 . S
O395 Eu340 2.372 . S
O395 C414 1.257 . S
C396 O385 1.249 . S
C396 O386 1.264 . S
C397 C400 1.382 . S
C397 C402 1.390 . S
C397 C404 1.506 . S
C398 C399 1.398 . S
C398 C402 1.392 . S
C399 C398 1.398 . S
C399 C401 1.372 . S
C399 H416 0.931 1_556 S
C400 C397 1.382 . S
C400 C401 1.390 . S
C400 H417 0.931 . S
C401 C399 1.372 . S
C401 C400 1.390 . S
C401 H418 0.929 1_556 S
C402 C397 1.390 . S
C402 C398 1.392 . S
C402 H419 0.930 . S
C403 O388 1.227 1_565 S
C403 O389 1.276 . S
C404 Eu340 2.787 . S
C404 O384 1.252 . S
C404 O387 1.268 . S
C404 C397 1.506 . S
C405 C372 1.439 . S
C405 H382 0.931 . S
C405 C406 1.374 . S
C406 C377 1.387 . S
C406 H383 0.931 . S
C406 C405 1.374 . S
C407 O391 1.249 . S
C407 O392 1.264 . S
C408 C411 1.382 . S
C408 C412 1.389 . S
C408 C415 1.506 . S
C409 C410 1.399 1_545 S
C409 C412 1.392 1_545 S
C410 C409 1.399 1_565 S
C410 C413 1.372 . S
C410 H420 0.931 . S
C411 C408 1.382 . S
C411 C413 1.390 . S
C411 H421 0.931 . S
C412 C408 1.389 . S
C412 C409 1.392 1_565 S
C412 H422 0.931 1_565 S
C413 C410 1.372 . S
C413 C411 1.390 . S
C413 H423 0.929 . S
C414 O394 1.255 . S
C414 O395 1.257 . S
C415 Eu351 2.787 . S
C415 O390 1.252 . S
C415 O393 1.268 . S
C415 C408 1.506 . S
H416 C399 0.931 1_554 S
H417 C400 0.931 . S
H418 C401 0.929 1_554 S
H419 C402 0.930 . S
H420 C410 0.931 . S
H421 C411 0.931 . S
H422 C412 0.931 1_545 S
H423 C413 0.929 . S
Eu424 N453 2.600 . S
Eu424 N459 2.562 . S
Eu424 O468 2.462 . S
Eu424 O469 2.373 . S
Eu424 O471 2.432 . S
Eu424 O472 2.291 . S
Eu424 O476 2.335 . S
Eu424 O479 2.372 . S
Eu424 C488 2.787 . S
C425 N426 1.365 . S
C425 C428 1.405 . S
C425 C432 1.448 . S
N426 C425 1.365 . S
N426 C429 1.319 . S
N426 Eu435 2.600 . S
C427 C429 1.397 . S
C427 C430 1.367 . S
C427 H447 0.931 . S
C428 C425 1.405 . S
C428 C430 1.403 . S
C428 C434 1.439 . S
C429 N426 1.319 . S
C429 C427 1.397 . S
C429 H440 0.930 . S
C430 C427 1.367 . S
C430 C428 1.403 . S
C430 H451 0.929 . S
C431 C432 1.430 . S
C431 C433 1.387 . S
C431 C437 1.404 . S
C432 C425 1.448 . S
C432 C431 1.430 . S
C432 N436 1.351 . S
C433 C431 1.387 . S
C433 C434 1.374 . S
C433 H448 0.931 . S
C434 C428 1.439 . S
C434 C433 1.374 . S
C434 H449 0.931 . S
Eu435 N426 2.600 . S
Eu435 N436 2.562 . S
Eu435 O470 2.335 . S
Eu435 O473 2.372 . S
Eu435 O474 2.462 . S
Eu435 O475 2.373 . S
Eu435 O477 2.432 . S
Eu435 O478 2.291 . S
Eu435 C499 2.787 . S
N436 C432 1.351 . S
N436 Eu435 2.562 . S
N436 C438 1.325 . S
C437 C431 1.404 . S
C437 C439 1.366 . S
C437 H445 0.930 1_556 S
C438 N436 1.325 . S
C438 C439 1.416 . S
C438 H444 0.929 . S
C439 C437 1.366 . S
C439 C438 1.416 . S
C439 H441 0.930 . S
H440 C429 0.930 . S
H441 C439 0.930 . S
H442 C457 0.930 . S
H443 C464 0.930 . S
H444 C438 0.929 . S
H445 C437 0.930 1_554 S
H446 C460 0.929 . S
H447 C427 0.931 . S
H448 C433 0.931 . S
H449 C434 0.931 . S
H450 C455 0.931 . S
H451 C430 0.929 . S
H452 C463 0.930 . S
N453 Eu424 2.600 . S
N453 C454 1.365 . S
N453 C457 1.319 . S
C454 N453 1.365 . S
C454 C456 1.405 . S
C454 C462 1.448 . S
C455 H450 0.931 . S
C455 C457 1.397 . S
C455 C458 1.367 . S
C456 C454 1.405 . S
C456 C458 1.403 . S
C456 C489 1.439 . S
C457 H442 0.930 . S
C457 N453 1.319 . S
C457 C455 1.397 . S
C458 C455 1.367 . S
C458 C456 1.403 . S
C458 H465 0.929 . S
N459 Eu424 2.562 . S
N459 C460 1.325 . S
N459 C462 1.351 . S
C460 H446 0.929 . S
C460 N459 1.325 . S
C460 C464 1.416 . S
C461 C462 1.430 . S
C461 C463 1.404 . S
C461 C490 1.387 . S
C462 C454 1.448 . S
C462 N459 1.351 . S
C462 C461 1.430 . S
C463 H452 0.930 . S
C463 C461 1.404 . S
C463 C464 1.366 . S
C464 H443 0.930 . S
C464 C460 1.416 . S
C464 C463 1.366 . S
H465 C458 0.929 . S
H466 C489 0.931 . S
H467 C490 0.931 . S
O468 Eu424 2.462 . S
O468 C488 1.252 . S
O469 Eu424 2.373 . S
O469 C480 1.249 . S
O470 Eu435 2.335 . S
O470 C480 1.264 . S
O471 Eu424 2.432 . S
O471 C488 1.268 . S
O472 Eu424 2.291 . S
O472 C487 1.255 . S
O473 Eu435 2.372 . S
O473 C487 1.257 . S
O474 Eu435 2.462 . S
O474 C499 1.252 . S
O475 Eu435 2.373 . S
O475 C491 1.249 . S
O476 Eu424 2.335 . S
O476 C491 1.264 . S
O477 Eu435 2.432 . S
O477 C499 1.268 . S
O478 Eu435 2.291 . S
O478 C498 1.255 . S
O479 Eu424 2.372 . S
O479 C498 1.257 . S
C480 O469 1.249 . S
C480 O470 1.264 . S
C481 C484 1.382 . S
C481 C486 1.390 . S
C481 C488 1.506 . S
C482 C483 1.398 . S
C482 C486 1.392 . S
C483 C482 1.398 . S
C483 C485 1.372 . S
C483 H500 0.931 . S
C484 C481 1.382 . S
C484 C485 1.390 . S
C484 H501 0.931 . S
C485 C483 1.372 . S
C485 C484 1.390 . S
C485 H502 0.929 . S
C486 C481 1.390 . S
C486 C482 1.392 . S
C486 H503 0.930 . S
C487 O472 1.255 . S
C487 O473 1.257 . S
C488 Eu424 2.787 . S
C488 O468 1.252 . S
C488 O471 1.268 . S
C488 C481 1.506 . S
C489 C456 1.439 . S
C489 H466 0.931 . S
C489 C490 1.374 . S
C490 C461 1.387 . S
C490 H467 0.931 . S
C490 C489 1.374 . S
C491 O475 1.249 . S
C491 O476 1.264 . S
C492 C495 1.382 . S
C492 C496 1.390 . S
C492 C499 1.506 . S
C493 C494 1.398 . S
C493 C496 1.392 . S
C494 C493 1.398 . S
C494 C497 1.372 . S
C494 H504 0.931 . S
C495 C492 1.382 . S
C495 C497 1.390 . S
C495 H505 0.931 . S
C496 C492 1.390 . S
C496 C493 1.392 . S
C496 H506 0.930 . S
C497 C494 1.372 . S
C497 C495 1.390 . S
C497 H507 0.929 . S
C498 O478 1.255 . S
C498 O479 1.257 . S
C499 Eu435 2.787 . S
C499 O474 1.252 . S
C499 O477 1.268 . S
C499 C492 1.506 . S
H500 C483 0.931 . S
H501 C484 0.931 . S
H502 C485 0.929 . S
H503 C486 0.930 . S
H504 C494 0.931 . S
H505 C495 0.931 . S
H506 C496 0.930 . S
H507 C497 0.929 . S
Eu508 N537 2.600 . S
Eu508 N543 2.562 . S
Eu508 O552 2.462 . S
Eu508 O553 2.373 1_455 S
Eu508 O555 2.432 . S
Eu508 O556 2.291 . S
Eu508 O560 2.335 . S
Eu508 O563 2.372 . S
Eu508 C572 2.787 . S
C509 N510 1.365 1_455 S
C509 C512 1.405 . S
C509 C516 1.448 . S
N510 C509 1.365 1_655 S
N510 C513 1.319 . S
N510 Eu519 2.600 . S
C511 C513 1.397 1_455 S
C511 C514 1.367 . S
C511 H531 0.936 . S
C512 C509 1.405 . S
C512 C514 1.403 . S
C512 C518 1.439 . S
C513 N510 1.319 . S
C513 C511 1.397 1_655 S
C513 H524 0.930 . S
C514 C511 1.367 . S
C514 C512 1.403 . S
C514 H535 0.929 . S
C515 C516 1.430 . S
C515 C517 1.387 . S
C515 C521 1.404 . S
C516 C509 1.448 . S
C516 C515 1.430 . S
C516 N520 1.351 . S
C517 C515 1.387 . S
C517 C518 1.374 . S
C517 H532 0.931 . S
C518 C512 1.439 . S
C518 C517 1.374 . S
C518 H533 0.931 . S
Eu519 N510 2.600 . S
Eu519 N520 2.562 1_655 S
Eu519 O554 2.335 . S
Eu519 O557 2.372 . S
Eu519 O558 2.462 . S
Eu519 O559 2.373 1_655 S
Eu519 O561 2.432 . S
Eu519 O562 2.304 . S
Eu519 C583 2.787 . S
N520 C516 1.351 . S
N520 Eu519 2.562 1_455 S
N520 C522 1.325 . S
C521 C515 1.404 . S
C521 C523 1.366 . S
C521 H529 0.930 1_556 S
C522 N520 1.325 . S
C522 C523 1.416 . S
C522 H528 0.914 1_455 S
C523 C521 1.366 . S
C523 C522 1.416 . S
C523 H525 0.930 . S
H524 C513 0.930 . S
H525 C523 0.930 . S
H526 C541 0.930 . S
H527 C548 0.930 . S
H528 C522 0.914 1_655 S
H529 C521 0.930 1_554 S
H530 C544 0.929 . S
H531 C511 0.936 . S
H532 C517 0.931 . S
H533 C518 0.931 . S
H534 C539 0.931 . S
H535 C514 0.929 . S
H536 C547 0.930 . S
N537 Eu508 2.600 . S
N537 C538 1.365 . S
N537 C541 1.319 . S
C538 N537 1.365 . S
C538 C540 1.405 1_455 S
C538 C546 1.446 1_455 S
C539 H534 0.931 . S
C539 C541 1.397 . S
C539 C542 1.367 1_455 S
C540 C538 1.405 1_655 S
C540 C542 1.403 . S
C540 C573 1.439 . S
C541 H526 0.930 . S
C541 N537 1.319 . S
C541 C539 1.397 . S
C542 C539 1.367 1_655 S
C542 C540 1.403 . S
C542 H549 0.929 . S
N543 Eu508 2.562 . S
N543 C544 1.325 . S
N543 C546 1.345 1_455 S
C544 H530 0.929 . S
C544 N543 1.325 . S
C544 C548 1.416 1_455 S
C545 C546 1.438 . S
C545 C547 1.404 . S
C545 C574 1.387 . S
C546 C538 1.446 1_655 S
C546 N543 1.345 1_655 S
C546 C545 1.438 . S
C547 H536 0.930 . S
C547 C545 1.404 . S
C547 C548 1.366 . S
C548 H527 0.930 . S
C548 C544 1.416 1_655 S
C548 C547 1.366 . S
H549 C542 0.929 . S
H550 C573 0.931 . S
H551 C574 0.931 . S
O552 Eu508 2.462 . S
O552 C572 1.252 . S
O553 Eu508 2.373 1_655 S
O553 C564 1.249 . S
O554 Eu519 2.335 . S
O554 C564 1.264 . S
O555 Eu508 2.432 . S
O555 C572 1.268 . S
O556 Eu508 2.291 . S
O556 C571 1.255 . S
O557 Eu519 2.372 . S
O557 C571 1.257 1_655 S
O558 Eu519 2.462 . S
O558 C583 1.252 . S
O559 Eu519 2.373 1_455 S
O559 C575 1.249 . S
O560 Eu508 2.335 . S
O560 C575 1.264 . S
O561 Eu519 2.432 . S
O561 C583 1.268 . S
O562 Eu519 2.304 . S
O562 C582 1.247 1_655 S
O563 Eu508 2.372 . S
O563 C582 1.257 . S
C564 O553 1.249 . S
C564 O554 1.264 . S
C565 C568 1.382 . S
C565 C570 1.390 . S
C565 C572 1.506 . S
C566 C567 1.398 . S
C566 C570 1.392 . S
C567 C566 1.398 . S
C567 C569 1.372 . S
C567 H584 0.931 . S
C568 C565 1.382 . S
C568 C569 1.390 . S
C568 H585 0.931 . S
C569 C567 1.372 . S
C569 C568 1.390 . S
C569 H586 0.929 . S
C570 C565 1.390 . S
C570 C566 1.392 . S
C570 H587 0.930 . S
C571 O556 1.255 . S
C571 O557 1.257 1_455 S
C572 Eu508 2.787 . S
C572 O552 1.252 . S
C572 O555 1.268 . S
C572 C565 1.506 . S
C573 C540 1.439 . S
C573 H550 0.931 . S
C573 C574 1.374 . S
C574 C545 1.387 . S
C574 H551 0.931 . S
C574 C573 1.374 . S
C575 O559 1.249 . S
C575 O560 1.264 . S
C576 C579 1.382 . S
C576 C580 1.390 . S
C576 C583 1.506 . S
C577 C578 1.398 . S
C577 C580 1.392 . S
C578 C577 1.398 . S
C578 C581 1.372 . S
C578 H588 0.931 . S
C579 C576 1.382 . S
C579 C581 1.390 . S
C579 H589 0.931 . S
C580 C576 1.390 . S
C580 C577 1.392 . S
C580 H590 0.930 . S
C581 C578 1.372 . S
C581 C579 1.390 . S
C581 H591 0.929 . S
C582 O562 1.247 1_455 S
C582 O563 1.257 . S
C583 Eu519 2.787 . S
C583 O558 1.252 . S
C583 O561 1.268 . S
C583 C576 1.506 . S
H584 C567 0.931 . S
H585 C568 0.931 . S
H586 C569 0.929 . S
H587 C570 0.930 . S
H588 C578 0.931 . S
H589 C579 0.931 . S
H590 C580 0.930 . S
H591 C581 0.929 . S
H592 C598 0.930 . S
H593 C602 0.888 1_565 S
H594 C607 0.929 . S
H595 C605 0.929 . S
H596 C600 0.929 1_565 S
H597 C606 0.929 . S
C598 H592 0.930 . S
C598 C599 1.367 . S
C598 C606 1.378 . S
C599 C598 1.367 . S
C599 C607 1.433 . S
C600 H596 0.929 1_545 S
C600 C602 1.386 . S
C600 C604 1.350 . S
C601 C604 1.463 . S
C601 C606 1.350 . S
C601 N609 1.427 . S
C602 H593 0.888 1_545 S
C602 C600 1.386 . S
C602 C603 1.403 . S
C603 C602 1.403 . S
C603 C605 1.433 . S
C604 C600 1.350 . S
C604 C601 1.463 . S
C604 N608 1.427 . S
C605 H595 0.929 . S
C605 C603 1.433 . S
C605 N608 1.384 . S
C606 H597 0.929 . S
C606 C598 1.378 . S
C606 C601 1.350 . S
C607 H594 0.929 . S
C607 C599 1.433 . S
C607 N609 1.384 . S
N608 C604 1.427 . S
N608 C605 1.384 . S
N609 C601 1.427 . S
N609 C607 1.384 . S
H610 C616 0.930 . S
H611 C620 0.930 . S
H612 C625 0.929 . S
H613 C623 0.929 . S
H614 C618 0.929 . S
H615 C624 0.929 . S
C616 H610 0.930 . S
C616 C617 1.367 . S
C616 C624 1.378 . S
C617 C616 1.367 . S
C617 C625 1.433 . S
C618 H614 0.929 . S
C618 C620 1.378 . S
C618 C622 1.350 . S
C619 C622 1.463 . S
C619 C624 1.350 . S
C619 N627 1.427 . S
C620 H611 0.930 . S
C620 C618 1.378 . S
C620 C621 1.367 . S
C621 C620 1.367 . S
C621 C623 1.433 . S
C622 C618 1.350 . S
C622 C619 1.463 . S
C622 N626 1.427 . S
C623 H613 0.929 . S
C623 C621 1.433 . S
C623 N626 1.384 . S
C624 H615 0.929 . S
C624 C616 1.378 . S
C624 C619 1.350 . S
C625 H612 0.929 . S
C625 C617 1.433 . S
C625 N627 1.384 . S
N626 C622 1.427 . S
N626 C623 1.384 . S
N627 C619 1.427 . S
N627 C625 1.384 . S
H628 C634 0.930 . S
H629 C638 0.930 . S
H630 C643 0.929 . S
H631 C641 0.929 . S
H632 C636 0.929 . S
H633 C642 0.929 . S
C634 H628 0.930 . S
C634 C635 1.367 . S
C634 C642 1.378 . S
C635 C634 1.367 . S
C635 C643 1.433 . S
C636 H632 0.929 . S
C636 C638 1.378 . S
C636 C640 1.350 . S
C637 C640 1.463 . S
C637 C642 1.350 . S
C637 N645 1.427 . S
C638 H629 0.930 . S
C638 C636 1.378 . S
C638 C639 1.367 . S
C639 C638 1.367 . S
C639 C641 1.433 . S
C640 C636 1.350 . S
C640 C637 1.463 . S
C640 N644 1.427 . S
C641 H631 0.929 . S
C641 C639 1.433 . S
C641 N644 1.384 . S
C642 H633 0.929 . S
C642 C634 1.378 . S
C642 C637 1.350 . S
C643 H630 0.929 . S
C643 C635 1.433 . S
C643 N645 1.384 . S
N644 C640 1.427 . S
N644 C641 1.384 . S
N645 C637 1.427 . S
N645 C643 1.384 . S
H646 C652 0.930 . S
H647 C656 0.930 . S
H648 C661 0.929 . S
H649 C659 0.929 . S
H650 C654 0.929 . S
H651 C660 0.929 . S
C652 H646 0.930 . S
C652 C653 1.367 . S
C652 C660 1.378 . S
C653 C652 1.367 . S
C653 C661 1.433 . S
C654 H650 0.929 . S
C654 C656 1.378 . S
C654 C658 1.350 . S
C655 C658 1.463 . S
C655 C660 1.350 . S
C655 N663 1.427 . S
C656 H647 0.930 . S
C656 C654 1.378 . S
C656 C657 1.367 . S
C657 C656 1.367 . S
C657 C659 1.433 . S
C658 C654 1.350 . S
C658 C655 1.463 . S
C658 N662 1.427 . S
C659 H649 0.929 . S
C659 C657 1.433 . S
C659 N662 1.384 . S
C660 H651 0.929 . S
C660 C652 1.378 . S
C660 C655 1.350 . S
C661 H648 0.929 . S
C661 C653 1.433 . S
C661 N663 1.384 . S
N662 C658 1.427 . S
N662 C659 1.384 . S
N663 C655 1.427 . S
N663 C661 1.384 . S
H664 C670 0.930 . S
H665 C674 0.930 . S
H666 C679 0.929 1_545 S
H667 C677 0.929 . S
H668 C672 0.929 . S
H669 C678 0.929 1_556 S
C670 H664 0.930 . S
C670 C671 1.367 . S
C670 C678 1.378 . S
C671 C670 1.367 . S
C671 C679 1.433 . S
C672 H668 0.929 . S
C672 C674 1.378 . S
C672 C676 1.350 1_545 S
C673 C676 1.463 1_554 S
C673 C678 1.350 . S
C673 N681 1.403 1_565 S
C674 H665 0.930 . S
C674 C672 1.378 . S
C674 C675 1.367 1_545 S
C675 C674 1.367 1_565 S
C675 C677 1.433 . S
C676 C672 1.350 1_565 S
C676 C673 1.463 1_556 S
C676 N680 1.427 . S
C677 H667 0.929 . S
C677 C675 1.433 . S
C677 N680 1.384 . S
C678 H669 0.929 1_554 S
C678 C670 1.378 . S
C678 C673 1.350 . S
C679 H666 0.929 1_565 S
C679 C671 1.433 . S
C679 N681 1.378 1_565 S
N680 C676 1.427 . S
N680 C677 1.384 . S
N681 C673 1.403 1_545 S
N681 C679 1.378 1_545 S
H682 C688 0.930 . S
H683 C692 0.930 . S
H684 C697 0.929 . S
H685 C695 0.929 . S
H686 C690 0.929 . S
H687 C696 0.929 1_556 S
C688 H682 0.930 . S
C688 C689 1.367 . S
C688 C696 1.378 . S
C689 C688 1.367 . S
C689 C697 1.433 . S
C690 H686 0.929 . S
C690 C692 1.378 . S
C690 C694 1.350 . S
C691 C694 1.463 1_554 S
C691 C696 1.350 . S
C691 N699 1.427 . S
C692 H683 0.930 . S
C692 C690 1.378 . S
C692 C693 1.367 . S
C693 C692 1.367 . S
C693 C695 1.433 . S
C694 C690 1.350 . S
C694 C691 1.463 1_556 S
C694 N698 1.427 . S
C695 H685 0.929 . S
C695 C693 1.433 . S
C695 N698 1.384 . S
C696 H687 0.929 1_554 S
C696 C688 1.378 . S
C696 C691 1.350 . S
C697 H684 0.929 . S
C697 C689 1.433 . S
C697 N699 1.384 . S
N698 C694 1.427 . S
N698 C695 1.384 . S
N699 C691 1.427 . S
N699 C697 1.384 . S
H700 C706 0.930 . S
H701 C710 0.930 . S
H702 C715 0.929 . S
H703 C713 0.929 . S
H704 C708 0.929 . S
H705 C714 0.929 . S
C706 H700 0.930 . S
C706 C707 1.367 . S
C706 C714 1.378 . S
C707 C706 1.367 . S
C707 C715 1.433 . S
C708 H704 0.929 . S
C708 C710 1.378 . S
C708 C712 1.350 . S
C709 C712 1.463 1_554 S
C709 C714 1.350 . S
C709 N717 1.427 . S
C710 H701 0.930 . S
C710 C708 1.378 . S
C710 C711 1.367 . S
C711 C710 1.367 . S
C711 C713 1.433 . S
C712 C708 1.350 . S
C712 C709 1.463 1_556 S
C712 N716 1.427 . S
C713 H703 0.929 . S
C713 C711 1.433 . S
C713 N716 1.384 . S
C714 H705 0.929 . S
C714 C706 1.378 . S
C714 C709 1.350 . S
C715 H702 0.929 . S
C715 C707 1.433 . S
C715 N717 1.384 . S
N716 C712 1.427 . S
N716 C713 1.384 . S
N717 C709 1.427 . S
N717 C715 1.384 . S
H718 C724 0.926 1_455 S
H719 C728 0.930 . S
H720 C733 0.929 . S
H721 C731 0.929 . S
H722 C726 0.929 . S
H723 C732 0.929 1_456 S
C724 H718 0.926 1_655 S
C724 C725 1.367 . S
C724 C732 1.378 . S
C725 C724 1.367 . S
C725 C733 1.433 . S
C726 H722 0.929 . S
C726 C728 1.378 . S
C726 C730 1.350 . S
C727 C730 1.463 1_554 S
C727 C732 1.350 . S
C727 N735 1.427 . S
C728 H719 0.930 . S
C728 C726 1.378 . S
C728 C729 1.367 . S
C729 C728 1.367 . S
C729 C731 1.433 1_655 S
C730 C726 1.350 . S
C730 C727 1.463 1_556 S
C730 N734 1.427 1_655 S
C731 H721 0.929 . S
C731 C729 1.433 1_455 S
C731 N734 1.384 . S
C732 H723 0.929 1_654 S
C732 C724 1.378 . S
C732 C727 1.350 . S
C733 H720 0.929 . S
C733 C725 1.433 . S
C733 N735 1.384 . S
N734 C730 1.427 1_455 S
N734 C731 1.384 . S
N735 C727 1.427 . S
N735 C733 1.384 . S
H736 C742 0.930 . S
H737 C746 0.930 . S
H738 C751 0.929 . S
H739 C749 0.929 . S
H740 C744 0.929 . S
H741 C750 0.929 . S
C742 H736 0.930 . S
C742 C743 1.367 . S
C742 C750 1.378 . S
C743 C742 1.367 . S
C743 C751 1.433 . S
C744 H740 0.929 . S
C744 C746 1.378 . S
C744 C748 1.350 . S
C745 C748 1.463 . S
C745 C750 1.350 . S
C745 N753 1.427 . S
C746 H737 0.930 . S
C746 C744 1.378 . S
C746 C747 1.367 1_455 S
C747 C746 1.367 1_655 S
C747 C749 1.433 . S
C748 C744 1.350 . S
C748 C745 1.463 . S
C748 N752 1.427 1_455 S
C749 H739 0.929 . S
C749 C747 1.433 . S
C749 N752 1.384 . S
C750 H741 0.929 . S
C750 C742 1.378 . S
C750 C745 1.350 . S
C751 H738 0.929 . S
C751 C743 1.433 . S
C751 N753 1.384 . S
N752 C748 1.427 1_655 S
N752 C749 1.384 . S
N753 C745 1.427 . S
N753 C751 1.384 . S
H754 C760 0.930 . S
H755 C764 0.930 . S
H756 C769 0.929 . S
H757 C767 0.929 . S
H758 C762 0.929 . S
H759 C768 0.929 . S
C760 H754 0.930 . S
C760 C761 1.367 . S
C760 C768 1.378 . S
C761 C760 1.367 . S
C761 C769 1.433 . S
C762 H758 0.929 . S
C762 C764 1.378 1_545 S
C762 C766 1.350 . S
C763 C766 1.463 . S
C763 C768 1.350 . S
C763 N771 1.427 . S
C764 H755 0.930 . S
C764 C762 1.378 1_565 S
C764 C765 1.367 1_565 S
C765 C764 1.367 1_545 S
C765 C767 1.433 . S
C766 C762 1.350 . S
C766 C763 1.463 . S
C766 N770 1.427 . S
C767 H757 0.929 . S
C767 C765 1.433 . S
C767 N770 1.384 . S
C768 H759 0.929 . S
C768 C760 1.378 . S
C768 C763 1.350 . S
C769 H756 0.929 . S
C769 C761 1.433 . S
C769 N771 1.384 . S
N770 C766 1.427 . S
N770 C767 1.384 . S
N771 C763 1.427 . S
N771 C769 1.384 . S
H772 C778 0.930 . S
H773 C782 0.930 . S
H774 C787 0.929 . S
H775 C785 0.929 . S
H776 C780 0.929 . S
H777 C786 0.929 . S
C778 H772 0.930 . S
C778 C779 1.367 . S
C778 C786 1.378 . S
C779 C778 1.367 . S
C779 C787 1.433 . S
C780 H776 0.929 . S
C780 C782 1.378 . S
C780 C784 1.350 . S
C781 C784 1.463 . S
C781 C786 1.350 . S
C781 N789 1.427 . S
C782 H773 0.930 . S
C782 C780 1.378 . S
C782 C783 1.367 . S
C783 C782 1.367 . S
C783 C785 1.433 . S
C784 C780 1.350 . S
C784 C781 1.463 . S
C784 N788 1.427 . S
C785 H775 0.929 . S
C785 C783 1.433 . S
C785 N788 1.384 . S
C786 H777 0.929 . S
C786 C778 1.378 . S
C786 C781 1.350 . S
C787 H774 0.929 . S
C787 C779 1.433 . S
C787 N789 1.384 . S
N788 C784 1.427 . S
N788 C785 1.384 . S
N789 C781 1.427 . S
N789 C787 1.384 . S
H790 C796 0.930 . S
H791 C800 0.930 . S
H792 C805 0.929 . S
H793 C803 0.929 . S
H794 C798 0.929 . S
H795 C804 0.929 . S
C796 H790 0.930 . S
C796 C797 1.367 . S
C796 C804 1.378 . S
C797 C796 1.367 . S
C797 C805 1.433 . S
C798 H794 0.929 . S
C798 C800 1.378 . S
C798 C802 1.350 . S
C799 C802 1.463 . S
C799 C804 1.350 . S
C799 N807 1.427 . S
C800 H791 0.930 . S
C800 C798 1.378 . S
C800 C801 1.367 . S
C801 C800 1.367 . S
C801 C803 1.433 . S
C802 C798 1.350 . S
C802 C799 1.463 . S
C802 N806 1.427 . S
C803 H793 0.929 . S
C803 C801 1.433 . S
C803 N806 1.384 . S
C804 H795 0.929 . S
C804 C796 1.378 . S
C804 C799 1.350 . S
C805 H792 0.929 . S
C805 C797 1.433 . S
C805 N807 1.384 . S
N806 C802 1.427 . S
N806 C803 1.384 . S
N807 C799 1.427 . S
N807 C805 1.384 . S
H808 C814 0.930 . S
H809 C818 0.930 . S
H810 C823 0.929 1_556 S
H811 C821 0.929 . S
H812 C816 0.929 . S
H813 C822 0.929 . S
C814 H808 0.930 . S
C814 C815 1.367 . S
C814 C822 1.378 . S
C815 C814 1.367 . S
C815 C823 1.433 . S
C816 H812 0.929 . S
C816 C818 1.378 1_655 S
C816 C820 1.350 . S
C817 C820 1.463 1_554 S
C817 C822 1.350 . S
C817 N825 1.427 1_554 S
C818 H809 0.930 . S
C818 C816 1.378 1_455 S
C818 C819 1.367 . S
C819 C818 1.367 . S
C819 C821 1.433 . S
C820 C816 1.350 . S
C820 C817 1.463 1_556 S
C820 N824 1.427 1_656 S
C821 H811 0.929 . S
C821 C819 1.433 . S
C821 N824 1.384 1_556 S
C822 H813 0.929 . S
C822 C814 1.378 . S
C822 C817 1.350 . S
C823 H810 0.929 1_554 S
C823 C815 1.433 . S
C823 N825 1.384 1_554 S
N824 C820 1.427 1_454 S
N824 C821 1.384 1_554 S
N825 C817 1.427 1_556 S
N825 C823 1.384 1_556 S
H826 C832 0.930 . S
H827 C836 0.930 . S
H828 C841 0.929 . S
H829 C839 0.929 . S
H830 C834 0.934 . S
H831 C840 0.929 . S
C832 H826 0.930 . S
C832 C833 1.367 . S
C832 C840 1.378 . S
C833 C832 1.367 . S
C833 C841 1.433 . S
C834 H830 0.934 . S
C834 C836 1.378 . S
C834 C838 1.350 1_545 S
C835 C838 1.463 1_554 S
C835 C840 1.350 . S
C835 N843 1.427 1_554 S
C836 H827 0.930 . S
C836 C834 1.378 . S
C836 C837 1.367 . S
C837 C836 1.367 . S
C837 C839 1.433 . S
C838 C834 1.350 1_565 S
C838 C835 1.463 1_556 S
C838 N842 1.423 1_566 S
C839 H829 0.929 . S
C839 C837 1.433 . S
C839 N842 1.397 1_556 S
C840 H831 0.929 . S
C840 C832 1.378 . S
C840 C835 1.350 . S
C841 H828 0.929 . S
C841 C833 1.433 . S
C841 N843 1.384 1_554 S
N842 C838 1.423 1_544 S
N842 C839 1.397 1_554 S
N843 C835 1.427 1_556 S
N843 C841 1.384 1_556 S
H844 C850 0.930 . S
H845 C854 0.930 . S
H846 C859 0.929 . S
H847 C857 0.929 . S
H848 C852 0.929 . S
H849 C858 0.929 . S
C850 H844 0.930 . S
C850 C851 1.367 . S
C850 C858 1.378 1_554 S
C851 C850 1.367 . S
C851 C859 1.433 . S
C852 H848 0.929 . S
C852 C854 1.378 1_554 S
C852 C856 1.350 1_554 S
C853 C856 1.463 1_554 S
C853 C858 1.350 1_554 S
C853 N861 1.427 . S
C854 H845 0.930 . S
C854 C852 1.378 1_556 S
C854 C855 1.367 . S
C855 C854 1.367 . S
C855 C857 1.433 . S
C856 C852 1.350 1_556 S
C856 C853 1.463 1_556 S
C856 N860 1.427 . S
C857 H847 0.929 . S
C857 C855 1.433 . S
C857 N860 1.384 . S
C858 H849 0.929 . S
C858 C850 1.378 1_556 S
C858 C853 1.350 1_556 S
C859 H846 0.929 . S
C859 C851 1.433 . S
C859 N861 1.384 . S
N860 C856 1.427 . S
N860 C857 1.384 . S
N861 C853 1.427 . S
N861 C859 1.384 . S
H862 C868 0.930 . S
H863 C872 0.930 . S
H864 C877 0.929 . S
H865 C875 0.929 . S
H866 C870 0.929 1_554 S
H867 C876 0.929 . S
C868 H862 0.930 . S
C868 C869 1.367 . S
C868 C876 1.378 1_554 S
C869 C868 1.367 . S
C869 C877 1.433 . S
C870 H866 0.929 1_556 S
C870 C872 1.378 . S
C870 C874 1.350 . S
C871 C874 1.463 1_554 S
C871 C876 1.350 1_554 S
C871 N879 1.427 . S
C872 H863 0.930 . S
C872 C870 1.378 . S
C872 C873 1.367 . S
C873 C872 1.367 . S
C873 C875 1.433 . S
C874 C870 1.350 . S
C874 C871 1.463 1_556 S
C874 N878 1.427 . S
C875 H865 0.929 . S
C875 C873 1.433 . S
C875 N878 1.384 . S
C876 H867 0.929 . S
C876 C868 1.378 1_556 S
C876 C871 1.350 1_556 S
C877 H864 0.929 . S
C877 C869 1.433 . S
C877 N879 1.384 . S
N878 C874 1.427 . S
N878 C875 1.384 . S
N879 C871 1.427 . S
N879 C877 1.384 . S
H880 C886 0.930 . S
H881 C890 0.930 . S
H882 C895 0.929 . S
H883 C893 0.929 1_655 S
H884 C888 0.929 . S
H885 C894 0.929 1_655 S
C886 H880 0.930 . S
C886 C887 1.367 . S
C886 C894 1.378 . S
C887 C886 1.367 . S
C887 C895 1.433 . S
C888 H884 0.929 . S
C888 C890 1.378 . S
C888 C892 1.350 . S
C889 C892 1.463 . S
C889 C894 1.350 . S
C889 N897 1.427 . S
C890 H881 0.930 . S
C890 C888 1.378 . S
C890 C891 1.367 . S
C891 C890 1.367 . S
C891 C893 1.433 . S
C892 C888 1.350 . S
C892 C889 1.463 . S
C892 N896 1.427 . S
C893 H883 0.929 1_455 S
C893 C891 1.433 . S
C893 N896 1.384 . S
C894 H885 0.929 1_455 S
C894 C886 1.378 . S
C894 C889 1.350 . S
C895 H882 0.929 . S
C895 C887 1.433 . S
C895 N897 1.384 . S
N896 C892 1.427 . S
N896 C893 1.384 . S
N897 C889 1.427 . S
N897 C895 1.384 . S
H898 C904 0.930 . S
H899 C908 0.930 1_565 S
H900 C913 0.929 . S
H901 C911 0.929 . S
H902 C906 0.929 1_565 S
H903 C912 0.929 . S
C904 H898 0.930 . S
C904 C905 1.367 . S
C904 C912 1.378 . S
C905 C904 1.367 . S
C905 C913 1.433 . S
C906 H902 0.929 1_545 S
C906 C908 1.378 . S
C906 C910 1.350 . S
C907 C910 1.463 . S
C907 C912 1.350 . S
C907 N915 1.427 . S
C908 H899 0.930 1_545 S
C908 C906 1.378 . S
C908 C909 1.367 . S
C909 C908 1.367 . S
C909 C911 1.433 . S
C910 C906 1.350 . S
C910 C907 1.463 . S
C910 N914 1.427 . S
C911 H901 0.929 . S
C911 C909 1.433 . S
C911 N914 1.384 . S
C912 H903 0.929 . S
C912 C904 1.378 . S
C912 C907 1.350 . S
C913 H900 0.929 . S
C913 C905 1.433 . S
C913 N915 1.384 . S
N914 C910 1.427 . S
N914 C911 1.384 . S
N915 C907 1.427 . S
N915 C913 1.384 . S
H916 C922 0.930 . S
H917 C926 0.930 . S
H918 C931 0.929 . S
H919 C929 0.929 . S
H920 C924 0.929 . S
H921 C930 0.929 . S
C922 H916 0.930 . S
C922 C923 1.367 . S
C922 C930 1.378 . S
C923 C922 1.367 . S
C923 C931 1.433 . S
C924 H920 0.929 . S
C924 C926 1.378 . S
C924 C928 1.350 . S
C925 C928 1.463 . S
C925 C930 1.350 . S
C925 N933 1.427 . S
C926 H917 0.930 . S
C926 C924 1.378 . S
C926 C927 1.367 . S
C927 C926 1.367 . S
C927 C929 1.433 . S
C928 C924 1.350 . S
C928 C925 1.463 . S
C928 N932 1.427 . S
C929 H919 0.929 . S
C929 C927 1.433 . S
C929 N932 1.384 . S
C930 H921 0.929 . S
C930 C922 1.378 . S
C930 C925 1.350 . S
C931 H918 0.929 . S
C931 C923 1.433 . S
C931 N933 1.384 . S
N932 C928 1.427 . S
N932 C929 1.384 . S
N933 C925 1.427 . S
N933 C931 1.384 . S
H934 C940 0.930 . S
H935 C944 0.930 . S
H936 C949 0.929 . S
H937 C947 0.929 . S
H938 C942 0.929 . S
H939 C948 0.929 . S
C940 H934 0.930 . S
C940 C941 1.367 . S
C940 C948 1.378 . S
C941 C940 1.367 . S
C941 C949 1.433 . S
C942 H938 0.929 . S
C942 C944 1.378 . S
C942 C946 1.350 . S
C943 C946 1.463 . S
C943 C948 1.350 . S
C943 N951 1.427 . S
C944 H935 0.930 . S
C944 C942 1.378 . S
C944 C945 1.367 . S
C945 C944 1.367 . S
C945 C947 1.433 . S
C946 C942 1.350 . S
C946 C943 1.463 . S
C946 N950 1.427 . S
C947 H937 0.929 . S
C947 C945 1.433 . S
C947 N950 1.384 . S
C948 H939 0.929 . S
C948 C940 1.378 . S
C948 C943 1.350 . S
C949 H936 0.929 . S
C949 C941 1.433 . S
C949 N951 1.384 . S
N950 C946 1.427 . S
N950 C947 1.384 . S
N951 C943 1.427 . S
N951 C949 1.384 . S
H952 C958 0.930 . S
H953 C962 0.930 . S
H954 C967 0.929 . S
H955 C965 0.929 . S
H956 C960 0.929 . S
H957 C966 0.929 . S
C958 H952 0.930 . S
C958 C959 1.367 . S
C958 C966 1.378 . S
C959 C958 1.367 . S
C959 C967 1.433 . S
C960 H956 0.929 . S
C960 C962 1.378 . S
C960 C964 1.350 . S
C961 C964 1.463 . S
C961 C966 1.350 . S
C961 N969 1.427 . S
C962 H953 0.930 . S
C962 C960 1.378 . S
C962 C963 1.367 . S
C963 C962 1.367 . S
C963 C965 1.433 . S
C964 C960 1.350 . S
C964 C961 1.463 . S
C964 N968 1.427 . S
C965 H955 0.929 . S
C965 C963 1.433 . S
C965 N968 1.384 . S
C966 H957 0.929 . S
C966 C958 1.378 . S
C966 C961 1.350 . S
C967 H954 0.929 . S
C967 C959 1.433 . S
C967 N969 1.384 . S
N968 C964 1.427 . S
N968 C965 1.384 . S
N969 C961 1.427 . S
N969 C967 1.384 . S
H970 C976 0.930 . S
H971 C980 0.930 . S
H972 C985 0.929 1_545 S
H973 C983 0.929 . S
H974 C978 0.929 . S
H975 C984 0.929 . S
C976 H970 0.930 . S
C976 C977 1.367 . S
C976 C984 1.378 . S
C977 C976 1.367 . S
C977 C985 1.433 . S
C978 H974 0.929 . S
C978 C980 1.378 . S
C978 C982 1.350 1_545 S
C979 C982 1.463 . S
C979 C984 1.350 . S
C979 N987 1.404 1_565 S
C980 H971 0.930 . S
C980 C978 1.378 . S
C980 C981 1.367 1_545 S
C981 C980 1.367 1_565 S
C981 C983 1.433 . S
C982 C978 1.350 1_565 S
C982 C979 1.463 . S
C982 N986 1.427 . S
C983 H973 0.929 . S
C983 C981 1.433 . S
C983 N986 1.384 . S
C984 H975 0.929 . S
C984 C976 1.378 . S
C984 C979 1.350 . S
C985 H972 0.929 1_565 S
C985 C977 1.433 . S
C985 N987 1.380 1_565 S
N986 C982 1.427 . S
N986 C983 1.384 . S
N987 C979 1.404 1_545 S
N987 C985 1.380 1_545 S
H988 C994 0.930 . S
H989 C998 0.930 . S
H990 C1003 0.929 . S
H991 C1001 0.929 . S
H992 C996 0.929 . S
H993 C1002 0.929 . S
C994 H988 0.930 . S
C994 C995 1.367 . S
C994 C1002 1.378 . S
C995 C994 1.367 . S
C995 C1003 1.433 . S
C996 H992 0.929 . S
C996 C998 1.378 . S
C996 C1000 1.350 . S
C997 C1000 1.463 . S
C997 C1002 1.350 . S
C997 N1005 1.427 . S
C998 H989 0.930 . S
C998 C996 1.378 . S
C998 C999 1.367 . S
C999 C998 1.367 . S
C999 C1001 1.433 . S
C1000 C996 1.350 . S
C1000 C997 1.463 . S
C1000 N1004 1.427 . S
C1001 H991 0.929 . S
C1001 C999 1.433 . S
C1001 N1004 1.384 . S
C1002 H993 0.929 . S
C1002 C994 1.378 . S
C1002 C997 1.350 . S
C1003 H990 0.929 . S
C1003 C995 1.433 . S
C1003 N1005 1.384 . S
N1004 C1000 1.427 . S
N1004 C1001 1.384 . S
N1005 C997 1.427 . S
N1005 C1003 1.384 . S
H1006 C1012 0.930 . S
H1007 C1016 0.930 . S
H1008 C1021 0.929 . S
H1009 C1019 0.929 . S
H1010 C1014 0.929 . S
H1011 C1020 0.929 . S
C1012 H1006 0.930 . S
C1012 C1013 1.367 . S
C1012 C1020 1.378 . S
C1013 C1012 1.367 . S
C1013 C1021 1.433 . S
C1014 H1010 0.929 . S
C1014 C1016 1.378 . S
C1014 C1018 1.350 . S
C1015 C1018 1.463 . S
C1015 C1020 1.350 . S
C1015 N1023 1.427 . S
C1016 H1007 0.930 . S
C1016 C1014 1.378 . S
C1016 C1017 1.367 . S
C1017 C1016 1.367 . S
C1017 C1019 1.433 . S
C1018 C1014 1.350 . S
C1018 C1015 1.463 . S
C1018 N1022 1.427 . S
C1019 H1009 0.929 . S
C1019 C1017 1.433 . S
C1019 N1022 1.384 . S
C1020 H1011 0.929 . S
C1020 C1012 1.378 . S
C1020 C1015 1.350 . S
C1021 H1008 0.929 . S
C1021 C1013 1.433 . S
C1021 N1023 1.384 . S
N1022 C1018 1.427 . S
N1022 C1019 1.384 . S
N1023 C1015 1.427 . S
N1023 C1021 1.384 . S
C599 C215 2.140 . S
C603 C319 2.247 . S
C621 C396 2.259 . S
C617 C247 2.151 . S
C639 C487 2.246 . S
C635 C151 2.138 . S
C657 C571 2.228 . S
C653 C183 2.117 . S
C675 C330 2.245 1_565 S
C671 C87 2.076 . S
C689 C119 2.081 . S
C693 C407 2.258 . S
C707 C23 2.073 . S
C711 C498 2.250 . S
C725 C55 2.052 . S
C729 C582 2.232 1_655 S
C747 C314 0.541 . S
C743 C189 0.472 . S
C765 C409 0.581 . S
C761 C221 0.435 . S
C783 C482 0.523 . S
C779 C253 0.470 . S
C797 C157 0.454 . S
C801 C566 0.518 . S
C815 C61 0.573 . S
C819 C325 0.517 . S
C837 C398 0.584 . S
C833 C93 0.571 . S
C855 C493 0.521 . S
C851 C125 0.607 . S
C869 C29 0.599 . S
C873 C577 0.500 . S
C887 C177 2.363 . S
C891 C323 2.575 . S
C905 C209 2.358 . S
C909 C414 2.607 . S
C927 C491 2.593 . S
C923 C241 2.379 . S
C945 C575 2.596 . S
C941 C145 2.377 . S
C959 C49 2.306 . S
C963 C312 2.571 . S
C981 C403 2.615 . S
C977 C81 2.314 . S
C999 C480 2.589 . S
C995 C113 2.320 . S
C1013 C17 2.337 . S
C1017 C564 2.598 . S
