# Generated by pormake.
# Topology cml, (3,6)-cn, num edge types: 1
# Building blocks:
#     Node 0, Type 0, BuildingBlock: KAKCAD_clean_linker_0, # of connection points: 3
#     Node 1, Type 0, BuildingBlock: KAKCAD_clean_linker_0, # of connection points: 3
#     Node 2, Type 0, BuildingBlock: KAKCAD_clean_linker_0, # of connection points: 3
#     Node 3, Type 0, BuildingBlock: KAKCAD_clean_linker_0, # of connection points: 3
#     Node 4, Type 0, BuildingBlock: KAKCAD_clean_linker_0, # of connection points: 3
#     Node 5, Type 0, BuildingBlock: KAKCAD_clean_linker_0, # of connection points: 3
#     Node 6, Type 0, BuildingBlock: KAKCAD_clean_linker_0, # of connection points: 3
#     Node 7, Type 0, BuildingBlock: KAKCAD_clean_linker_0, # of connection points: 3
#     Node 8, Type 1, BuildingBlock: IZENUY_clean_sbu_0, # of connection points: 6
#     Node 9, Type 1, BuildingBlock: IZENUY_clean_sbu_0, # of connection points: 6
#     Node 10, Type 1, BuildingBlock: IZENUY_clean_sbu_0, # of connection points: 6
#     Node 11, Type 1, BuildingBlock: IZENUY_clean_sbu_0, # of connection points: 6
#     Edge 12, Type (0, 1), BuildingBlock: OJICUG_clean_linker_0, # of connection points: 2
#     Edge 13, Type (0, 1), BuildingBlock: OJICUG_clean_linker_0, # of connection points: 2
#     Edge 14, Type (0, 1), BuildingBlock: OJICUG_clean_linker_0, # of connection points: 2
#     Edge 15, Type (0, 1), BuildingBlock: OJICUG_clean_linker_0, # of connection points: 2
#     Edge 16, Type (0, 1), BuildingBlock: OJICUG_clean_linker_0, # of connection points: 2
#     Edge 17, Type (0, 1), BuildingBlock: OJICUG_clean_linker_0, # of connection points: 2
#     Edge 18, Type (0, 1), BuildingBlock: OJICUG_clean_linker_0, # of connection points: 2
#     Edge 19, Type (0, 1), BuildingBlock: OJICUG_clean_linker_0, # of connection points: 2
#     Edge 20, Type (0, 1), BuildingBlock: OJICUG_clean_linker_0, # of connection points: 2
#     Edge 21, Type (0, 1), BuildingBlock: OJICUG_clean_linker_0, # of connection points: 2
#     Edge 22, Type (0, 1), BuildingBlock: OJICUG_clean_linker_0, # of connection points: 2
#     Edge 23, Type (0, 1), BuildingBlock: OJICUG_clean_linker_0, # of connection points: 2
#     Edge 24, Type (0, 1), BuildingBlock: OJICUG_clean_linker_0, # of connection points: 2
#     Edge 25, Type (0, 1), BuildingBlock: OJICUG_clean_linker_0, # of connection points: 2
#     Edge 26, Type (0, 1), BuildingBlock: OJICUG_clean_linker_0, # of connection points: 2
#     Edge 27, Type (0, 1), BuildingBlock: OJICUG_clean_linker_0, # of connection points: 2
#     Edge 28, Type (0, 1), BuildingBlock: OJICUG_clean_linker_0, # of connection points: 2
#     Edge 29, Type (0, 1), BuildingBlock: OJICUG_clean_linker_0, # of connection points: 2
#     Edge 30, Type (0, 1), BuildingBlock: OJICUG_clean_linker_0, # of connection points: 2
#     Edge 31, Type (0, 1), BuildingBlock: OJICUG_clean_linker_0, # of connection points: 2
#     Edge 32, Type (0, 1), BuildingBlock: OJICUG_clean_linker_0, # of connection points: 2
#     Edge 33, Type (0, 1), BuildingBlock: OJICUG_clean_linker_0, # of connection points: 2
#     Edge 34, Type (0, 1), BuildingBlock: OJICUG_clean_linker_0, # of connection points: 2
#     Edge 35, Type (0, 1), BuildingBlock: OJICUG_clean_linker_0, # of connection points: 2
# Relax obj value: 0.054
# Max RMSD: 0.071
# Mean RMSD: 0.068
data_MOF--net-cml--node1-IZENUY_clean_sbu_0--node2-KAKCAD_clean_linker_0--edge1-OJICUG_clean_linker_0
_symmetry_space_group_name_H-M    P1
_symmetry_Int_Tables_number       1
_symmetry_cell_setting            triclinic
loop_
_symmetry_equiv_pos_as_xyz
'x, y, z'
_cell_length_a     33.995378
_cell_length_b     39.417588
_cell_length_c     36.628918
_cell_angle_alpha  89.889077
_cell_angle_beta   89.96443
_cell_angle_gamma 90.630068
loop_
_atom_site_label
_atom_site_type_symbol
_atom_site_fract_x
_atom_site_fract_y
_atom_site_fract_z
_atom_type_partial_charge
C0 C 0.31284 0.49498 0.94816 0.0
C1 C 0.35175 0.49314 0.93539 0.0
C2 C 0.29513 0.46686 0.96529 0.0
C3 C 0.31643 0.43692 0.97042 0.0
C4 C 0.35522 0.43513 0.95767 0.0
C5 C 0.37261 0.46286 0.94007 0.0
C6 C 0.29971 0.40822 0.99138 0.0
C7 C 0.2697 0.3877 0.97686 0.0
C8 C 0.25551 0.35908 0.99626 0.0
C9 C 0.27196 0.35176 0.03077 0.0
C10 C 0.30286 0.37168 0.04494 0.0
C11 C 0.3161 0.40009 0.02518 0.0
C12 C 0.32278 0.3625 0.07961 0.0
C13 C 0.30128 0.35257 0.11079 0.0
C14 C 0.36396 0.36513 0.08197 0.0
C15 C 0.38302 0.3601 0.1151 0.0
C16 C 0.36147 0.35188 0.14661 0.0
C17 C 0.22496 0.33615 0.97985 0.0
C18 C 0.19637 0.34891 0.95586 0.0
C19 C 0.22459 0.30108 0.98733 0.0
C20 C 0.19632 0.2796 0.9717 0.0
C21 C 0.16817 0.29226 0.94718 0.0
C22 C 0.16886 0.32727 0.93936 0.0
C23 C 0.32056 0.34719 0.14411 0.0
H24 H 0.29618 0.51804 0.94477 0.0
H25 H 0.26525 0.46874 0.97531 0.0
H26 H 0.37219 0.4123 0.96168 0.0
H27 H 0.40277 0.4609 0.93079 0.0
H28 H 0.25876 0.39346 0.94981 0.0
H29 H 0.33948 0.41606 0.03603 0.0
H30 H 0.26144 0.33018 0.04641 0.0
H31 H 0.26952 0.35033 0.10979 0.0
H32 H 0.3815 0.37177 0.05825 0.0
H33 H 0.41468 0.36337 0.11633 0.0
H34 H 0.19498 0.37574 0.94971 0.0
H35 H 0.24646 0.28985 0.00492 0.0
H36 H 0.30343 0.34091 0.16818 0.0
H37 H 0.14843 0.33821 0.92014 0.0
H38 H 0.19661 0.25304 0.97917 0.0
C39 C 0.69327 0.51399 0.43665 0.0
C40 C 0.65429 0.50385 0.44382 0.0
C41 C 0.70869 0.54381 0.45219 0.0
C42 C 0.68509 0.56437 0.47455 0.0
C43 C 0.6457 0.55433 0.48064 0.0
C44 C 0.63072 0.52429 0.4659 0.0
C45 C 0.70091 0.59603 0.49187 0.0
C46 C 0.72866 0.6171 0.47407 0.0
C47 C 0.74148 0.6478 0.49008 0.0
C48 C 0.72587 0.65757 0.52404 0.0
C49 C 0.69813 0.63696 0.54202 0.0
C50 C 0.68687 0.60594 0.52627 0.0
C51 C 0.67943 0.64771 0.57672 0.0
C52 C 0.70177 0.66084 0.60592 0.0
C53 C 0.63873 0.64286 0.58139 0.0
C54 C 0.62116 0.64869 0.61508 0.0
C55 C 0.64375 0.65988 0.64481 0.0
C56 C 0.77072 0.67002 0.4712 0.0
C57 C 0.80454 0.65621 0.45524 0.0
C58 C 0.76546 0.70532 0.46978 0.0
C59 C 0.79366 0.7264 0.4533 0.0
C60 C 0.82794 0.71272 0.43795 0.0
C61 C 0.83287 0.67731 0.4389 0.0
C62 C 0.68397 0.66692 0.63984 0.0
H63 H 0.71185 0.49864 0.41941 0.0
H64 H 0.73918 0.55045 0.44703 0.0
H65 H 0.62599 0.56988 0.4965 0.0
H66 H 0.60028 0.51739 0.47108 0.0
H67 H 0.73938 0.6103 0.44723 0.0
H68 H 0.66688 0.58938 0.54115 0.0
H69 H 0.73505 0.68135 0.53636 0.0
H70 H 0.73318 0.66485 0.60305 0.0
H71 H 0.62056 0.63358 0.55918 0.0
H72 H 0.59 0.64341 0.61829 0.0
H73 H 0.80961 0.62914 0.45623 0.0
H74 H 0.73937 0.71668 0.48127 0.0
H75 H 0.70187 0.67545 0.66256 0.0
H76 H 0.85913 0.6659 0.42783 0.0
H77 H 0.78848 0.75344 0.45243 0.0
C78 C 0.66333 0.46796 0.90824 0.0
C79 C 0.64931 0.49615 0.92767 0.0
C80 C 0.68085 0.44081 0.9265 0.0
C81 C 0.68571 0.4414 0.96466 0.0
C82 C 0.67331 0.47027 0.98383 0.0
C83 C 0.6549 0.49694 0.96575 0.0
C84 C 0.70229 0.41171 0.98462 0.0
C85 C 0.73112 0.39113 0.96852 0.0
C86 C 0.74602 0.36276 0.98709 0.0
C87 C 0.73221 0.35518 0.0224 0.0
C88 C 0.70387 0.37558 0.03887 0.0
C89 C 0.68882 0.40345 0.01993 0.0
C90 C 0.68927 0.36788 0.0759 0.0
C91 C 0.66067 0.34252 0.08127 0.0
C92 C 0.70176 0.38763 0.10554 0.0
C93 C 0.68524 0.38258 0.14011 0.0
C94 C 0.65533 0.35805 0.14554 0.0
C95 C 0.77594 0.34098 0.96959 0.0
C96 C 0.77133 0.33024 0.93327 0.0
C97 C 0.80911 0.33051 0.98925 0.0
C98 C 0.83697 0.30954 0.97304 0.0
C99 C 0.83214 0.29823 0.93687 0.0
C100 C 0.79905 0.309 0.91712 0.0
C101 C 0.6437 0.33773 0.11572 0.0
H102 H 0.66048 0.46651 0.87886 0.0
H103 H 0.68962 0.41903 0.91063 0.0
H104 H 0.67736 0.47229 0.01306 0.0
H105 H 0.64413 0.51771 0.98208 0.0
H106 H 0.74273 0.39749 0.94179 0.0
H107 H 0.6659 0.41817 0.03271 0.0
H108 H 0.74323 0.33329 0.03699 0.0
H109 H 0.65047 0.32726 0.05852 0.0
H110 H 0.72388 0.40734 0.10179 0.0
H111 H 0.69556 0.39826 0.16245 0.0
H112 H 0.74582 0.33766 0.91758 0.0
H113 H 0.81373 0.33882 0.01711 0.0
H114 H 0.62037 0.31899 0.11853 0.0
H115 H 0.79406 0.30046 0.88941 0.0
H116 H 0.86249 0.30241 0.98886 0.0
C117 C 0.31309 0.64258 0.64039 0.0
C118 C 0.35297 0.65195 0.6437 0.0
C119 C 0.29645 0.63718 0.60585 0.0
C120 C 0.31974 0.64037 0.57433 0.0
C121 C 0.35934 0.65022 0.57766 0.0
C122 C 0.37571 0.65619 0.61196 0.0
C123 C 0.30407 0.63128 0.53801 0.0
C124 C 0.27291 0.64917 0.52236 0.0
C125 C 0.26073 0.64208 0.48642 0.0
C126 C 0.27942 0.61623 0.4667 0.0
C127 C 0.31024 0.59778 0.48237 0.0
C128 C 0.32225 0.60554 0.51809 0.0
C129 C 0.33045 0.57066 0.46169 0.0
C130 C 0.30912 0.54751 0.43992 0.0
C131 C 0.37138 0.56691 0.4649 0.0
C132 C 0.39023 0.53974 0.44842 0.0
C133 C 0.36873 0.51594 0.4279 0.0
C134 C 0.22969 0.66261 0.4689 0.0
C135 C 0.19497 0.6702 0.4878 0.0
C136 C 0.23497 0.67531 0.43332 0.0
C137 C 0.20637 0.69562 0.41718 0.0
C138 C 0.17175 0.70357 0.43621 0.0
C139 C 0.16624 0.69031 0.47158 0.0
C140 C 0.32818 0.52043 0.42299 0.0
H141 H 0.29496 0.63921 0.66448 0.0
H142 H 0.26587 0.62941 0.60379 0.0
H143 H 0.37779 0.65278 0.55366 0.0
H144 H 0.40662 0.663 0.61371 0.0
H145 H 0.25942 0.66956 0.53755 0.0
H146 H 0.34576 0.59136 0.53076 0.0
H147 H 0.27024 0.61077 0.43898 0.0
H148 H 0.27754 0.5496 0.43703 0.0
H149 H 0.38889 0.58478 0.48058 0.0
H150 H 0.42168 0.53709 0.45205 0.0
H151 H 0.18992 0.66039 0.51507 0.0
H152 H 0.26171 0.67024 0.41828 0.0
H153 H 0.31105 0.50229 0.4073 0.0
H154 H 0.13961 0.69537 0.48677 0.0
H155 H 0.21188 0.7058 0.39015 0.0
C156 C 0.81165 0.98617 0.93118 0.0
C157 C 0.8507 0.99618 0.93798 0.0
C158 C 0.79596 0.95695 0.94786 0.0
C159 C 0.81938 0.93697 0.97103 0.0
C160 C 0.85897 0.94664 0.97644 0.0
C161 C 0.87423 0.97609 0.96051 0.0
C162 C 0.80281 0.90677 0.99059 0.0
C163 C 0.77504 0.88497 0.97412 0.0
C164 C 0.75987 0.85631 0.9929 0.0
C165 C 0.77419 0.84917 0.02826 0.0
C166 C 0.80306 0.86995 0.04436 0.0
C167 C 0.81583 0.89925 0.02596 0.0
C168 C 0.82197 0.86084 0.07955 0.0
C169 C 0.79988 0.85021 0.1101 0.0
C170 C 0.86298 0.86445 0.08297 0.0
C171 C 0.88123 0.85976 0.11653 0.0
C172 C 0.85908 0.85094 0.14747 0.0
C173 C 0.72976 0.83364 0.97533 0.0
C174 C 0.7022 0.84678 0.95053 0.0
C175 C 0.72811 0.79866 0.9832 0.0
C176 C 0.69933 0.77772 0.96746 0.0
C177 C 0.67194 0.79082 0.94245 0.0
C178 C 0.6742 0.82565 0.93395 0.0
C179 C 0.8184 0.84521 0.14392 0.0
H180 H 0.79314 1.00131 0.91361 0.0
H181 H 0.76535 0.95047 0.9432 0.0
H182 H 0.8784 0.93144 0.99302 0.0
H183 H 0.90471 0.983 0.96545 0.0
H184 H 0.76616 0.88988 0.94626 0.0
H185 H 0.83635 0.91628 0.03948 0.0
H186 H 0.76345 0.82726 0.04323 0.0
H187 H 0.76825 0.84715 0.10821 0.0
H188 H 0.88097 0.87168 0.05974 0.0
H189 H 0.91275 0.86379 0.11853 0.0
H190 H 0.7018 0.87356 0.94401 0.0
H191 H 0.74915 0.78714 1.00143 0.0
H192 H 0.80081 0.83836 0.16753 0.0
H193 H 0.65446 0.83688 0.91429 0.0
H194 H 0.6985 0.75128 0.97542 0.0
C195 C 0.1918 0.01597 0.43381 0.0
C196 C 0.15307 0.00552 0.44159 0.0
C197 C 0.20754 0.04538 0.44994 0.0
C198 C 0.18451 0.06523 0.47354 0.0
C199 C 0.14526 0.05503 0.48011 0.0
C200 C 0.12997 0.02536 0.46473 0.0
C201 C 0.20111 0.09595 0.49211 0.0
C202 C 0.22843 0.11765 0.47467 0.0
C203 C 0.24373 0.14673 0.49248 0.0
C204 C 0.22993 0.15442 0.52789 0.0
C205 C 0.20148 0.13378 0.545 0.0
C206 C 0.18863 0.10407 0.52751 0.0
C207 C 0.18319 0.1434 0.58036 0.0
C208 C 0.20577 0.15503 0.61013 0.0
C209 C 0.14233 0.13934 0.5848 0.0
C210 C 0.12476 0.14458 0.61861 0.0
C211 C 0.14745 0.15445 0.64878 0.0
C212 C 0.27348 0.16923 0.4739 0.0
C213 C 0.30065 0.15584 0.44887 0.0
C214 C 0.27524 0.20431 0.48106 0.0
C215 C 0.30374 0.22508 0.46449 0.0
C216 C 0.33077 0.21173 0.4393 0.0
C217 C 0.32839 0.17678 0.43148 0.0
C218 C 0.18794 0.16058 0.6442 0.0
H219 H 0.21003 1.00108 0.41579 0.0
H220 H 0.2379 0.05218 0.4444 0.0
H221 H 0.12603 0.07006 0.49703 0.0
H222 H 0.09971 0.0182 0.47043 0.0
H223 H 0.23687 0.11233 0.4468 0.0
H224 H 0.16854 0.08715 0.54181 0.0
H225 H 0.24077 0.17664 0.54215 0.0
H226 H 0.23729 0.15845 0.60751 0.0
H227 H 0.12392 0.13132 0.56221 0.0
H228 H 0.0934 0.14009 0.62145 0.0
H229 H 0.30099 0.12898 0.44284 0.0
H230 H 0.25451 0.21606 0.49939 0.0
H231 H 0.20594 0.16816 0.66723 0.0
H232 H 0.34784 0.16533 0.41176 0.0
H233 H 0.30467 0.2516 0.47201 0.0
C234 C 0.15026 0.96225 0.91199 0.0
C235 C 0.14855 0.99426 0.92886 0.0
C236 C 0.16951 0.93529 0.92907 0.0
C237 C 0.18707 0.93981 0.96345 0.0
C238 C 0.18699 0.97211 0.97947 0.0
C239 C 0.16822 0.99907 0.96227 0.0
C240 C 0.20317 0.91062 0.98388 0.0
C241 C 0.22997 0.88848 0.96758 0.0
C242 C 0.2456 0.86125 0.98752 0.0
C243 C 0.23355 0.85602 0.0239 0.0
C244 C 0.20605 0.87756 0.04038 0.0
C245 C 0.19123 0.90486 0.02007 0.0
C246 C 0.19162 0.87118 0.07825 0.0
C247 C 0.18386 0.83797 0.09062 0.0
C248 C 0.18343 0.89844 0.10168 0.0
C249 C 0.16621 0.89278 0.13581 0.0
C250 C 0.15712 0.85965 0.14771 0.0
C251 C 0.27475 0.83838 0.97051 0.0
C252 C 0.26883 0.82577 0.93505 0.0
C253 C 0.30873 0.82901 0.98967 0.0
C254 C 0.33621 0.80749 0.97375 0.0
C255 C 0.33025 0.79459 0.93836 0.0
C256 C 0.2962 0.80403 0.9192 0.0
C257 C 0.167 0.83227 0.12498 0.0
H258 H 0.13521 0.95756 0.88642 0.0
H259 H 0.16909 0.91056 0.91623 0.0
H260 H 0.20091 0.97637 0.00569 0.0
H261 H 0.16842 0.02357 0.97561 0.0
H262 H 0.23947 0.89304 0.93973 0.0
H263 H 0.1693 0.92124 0.03199 0.0
H264 H 0.24546 0.83501 0.03929 0.0
H265 H 0.18953 0.81634 0.0733 0.0
H266 H 0.1897 0.92433 0.0934 0.0
H267 H 0.15874 0.91458 0.15223 0.0
H268 H 0.24268 0.83226 0.91979 0.0
H269 H 0.31438 0.83876 0.01682 0.0
H270 H 0.1611 0.80638 0.13342 0.0
H271 H 0.29034 0.79421 0.89213 0.0
H272 H 0.36244 0.80135 0.98906 0.0
C273 C 0.81629 0.14543 0.63945 0.0
C274 C 0.85672 0.1526 0.64278 0.0
C275 C 0.79953 0.14017 0.60496 0.0
C276 C 0.82318 0.14132 0.57353 0.0
C277 C 0.8634 0.14899 0.57687 0.0
C278 C 0.87995 0.15483 0.61112 0.0
C279 C 0.80692 0.13221 0.53744 0.0
C280 C 0.77616 0.15065 0.52189 0.0
C281 C 0.76181 0.14246 0.48683 0.0
C282 C 0.77869 0.1151 0.46786 0.0
C283 C 0.81002 0.09689 0.48298 0.0
C284 C 0.82356 0.10547 0.51797 0.0
C285 C 0.82963 0.06944 0.46226 0.0
C286 C 0.80779 0.04576 0.44159 0.0
C287 C 0.87073 0.06624 0.46405 0.0
C288 C 0.88935 0.03913 0.44728 0.0
C289 C 0.86745 0.01484 0.42784 0.0
C290 C 0.73035 0.16318 0.46955 0.0
C291 C 0.70087 0.17816 0.4909 0.0
C292 C 0.72997 0.16879 0.43158 0.0
C293 C 0.70088 0.18857 0.41546 0.0
C294 C 0.67188 0.20413 0.43689 0.0
C295 C 0.67241 0.19868 0.47489 0.0
C296 C 0.82664 0.01872 0.42434 0.0
H297 H 0.7978 0.14365 0.66348 0.0
H298 H 0.76846 0.13408 0.60291 0.0
H299 H 0.88214 0.14996 0.55294 0.0
H300 H 0.91126 0.15997 0.61296 0.0
H301 H 0.76463 0.17212 0.5367 0.0
H302 H 0.84708 0.09113 0.53041 0.0
H303 H 0.76796 0.10822 0.44104 0.0
H304 H 0.77608 0.04744 0.43978 0.0
H305 H 0.88859 0.08454 0.4788 0.0
H306 H 0.92098 0.0369 0.44984 0.0
H307 H 0.69961 0.1741 0.52011 0.0
H308 H 0.75248 0.15837 0.41412 0.0
H309 H 0.80923 1.00016 0.40949 0.0
H310 H 0.65119 0.21061 0.49261 0.0
H311 H 0.70126 0.1915 0.38608 0.0
Fe312 Fe 0.0044 0.80868 0.31835 0.0
Fe313 Fe 0.00668 0.84846 0.39053 0.0
O314 O 0.00711 0.84787 0.34215 0.0
Fe315 Fe 0.01016 0.88647 0.31749 0.0
O316 O 0.98039 0.87138 0.27911 0.0
O317 O 0.95923 0.82069 0.29529 0.0
O318 O 0.97347 0.78713 0.35266 0.0
C319 C 0.95156 0.7988 0.37754 0.0
C320 C 0.05898 0.84758 0.27633 0.0
O321 O 0.95919 0.8271 0.39207 0.0
C322 C 0.06176 0.89805 0.37719 0.0
O323 O 0.04934 0.79395 0.33971 0.0
O324 O 0.03305 0.80849 0.39561 0.0
O325 O 0.05552 0.87383 0.29563 0.0
O326 O 0.03477 0.82307 0.27954 0.0
C327 C 0.95938 0.90467 0.37164 0.0
O328 O 0.0541 0.87014 0.39273 0.0
O329 O 0.04057 0.90868 0.3513 0.0
C330 C 0.05491 0.7925 0.37376 0.0
O331 O 0.98037 0.88854 0.39413 0.0
O332 O 0.96495 0.90189 0.33773 0.0
C333 C 0.95578 0.8472 0.27623 0.0
Fe334 Fe 0.99762 0.15328 0.89052 0.0
Fe335 Fe 0.99543 0.11706 0.81648 0.0
O336 O 0.99791 0.155 0.8422 0.0
Fe337 Fe 1.00076 0.19486 0.81952 0.0
O338 O 0.02998 0.21593 0.85518 0.0
O339 O 0.04507 0.17481 0.89301 0.0
O340 O 0.02418 0.11325 0.89365 0.0
C341 C 0.04539 0.09753 0.87105 0.0
C342 C 0.94879 0.20915 0.87422 0.0
O343 O 0.04013 0.10091 0.83715 0.0
C344 C 0.94769 0.15712 0.77532 0.0
O345 O 0.95037 0.13138 0.89163 0.0
O346 O 0.96418 0.09404 0.84912 0.0
O347 O 0.95503 0.20847 0.84024 0.0
O348 O 0.9706 0.19299 0.89609 0.0
C349 C 0.05087 0.15763 0.77753 0.0
O350 O 0.95058 0.1303 0.7939 0.0
O351 O 0.97193 0.18136 0.77971 0.0
C352 C 0.94282 0.10396 0.87522 0.0
O353 O 0.02629 0.13329 0.77928 0.0
O354 O 0.04676 0.18374 0.7971 0.0
C355 C 0.05184 0.20381 0.87978 0.0
Fe356 Fe 0.50656 0.30941 0.31799 0.0
Fe357 Fe 0.50611 0.34803 0.39067 0.0
O358 O 0.50789 0.3483 0.34231 0.0
Fe359 Fe 0.51085 0.38724 0.31841 0.0
O360 O 0.48159 0.37245 0.27962 0.0
O361 O 0.46156 0.32094 0.29431 0.0
O362 O 0.47551 0.28694 0.35179 0.0
C363 C 0.45212 0.29841 0.37562 0.0
C364 C 0.56063 0.34964 0.2768 0.0
O365 O 0.4584 0.32688 0.39026 0.0
C366 C 0.56167 0.39761 0.37902 0.0
O367 O 0.55154 0.29565 0.33989 0.0
O368 O 0.53214 0.30767 0.39561 0.0
O369 O 0.55646 0.37552 0.2965 0.0
O370 O 0.53723 0.32455 0.27975 0.0
C371 C 0.45941 0.40466 0.37227 0.0
O372 O 0.55352 0.36959 0.39423 0.0
O373 O 0.54089 0.40878 0.35304 0.0
C374 C 0.55543 0.29293 0.37399 0.0
O375 O 0.48003 0.38819 0.39472 0.0
O376 O 0.46529 0.40209 0.33842 0.0
C377 C 0.45781 0.34776 0.27574 0.0
Fe378 Fe 0.49897 0.652 0.88875 0.0
Fe379 Fe 0.49655 0.61759 0.81366 0.0
O380 O 0.49829 0.65492 0.84047 0.0
Fe381 Fe 0.49923 0.69529 0.81873 0.0
O382 O 0.52862 0.71646 0.85426 0.0
O383 O 0.54535 0.67514 0.8912 0.0
O384 O 0.52809 0.61314 0.89006 0.0
C385 C 0.5492 0.5989 0.86622 0.0
C386 C 0.44774 0.707 0.87463 0.0
O387 O 0.54234 0.60232 0.83259 0.0
C388 C 0.44609 0.65711 0.77493 0.0
O389 O 0.4527 0.62821 0.89006 0.0
O390 O 0.46779 0.59267 0.84635 0.0
O391 O 0.45362 0.70726 0.8406 0.0
O392 O 0.47 0.69053 0.89587 0.0
C393 C 0.54946 0.66034 0.77479 0.0
O394 O 0.45043 0.63004 0.79284 0.0
O395 O 0.46978 0.68181 0.7792 0.0
C396 C 0.44642 0.60085 0.87307 0.0
O397 O 0.52539 0.63564 0.77612 0.0
O398 O 0.54507 0.68587 0.79516 0.0
C399 C 0.55123 0.70438 0.87828 0.0
C400 C 0.10093 0.28142 0.92009 0.0
C401 C 0.13827 0.26921 0.92994 0.0
H402 H 0.04487 0.27044 0.89596 0.0
C403 C 0.14659 0.23479 0.92308 0.0
H404 H 0.0926 0.3073 0.92572 0.0
C405 C 0.11833 0.2133 0.90731 0.0
C406 C 0.08164 0.22598 0.89694 0.0
H407 H 0.1751 0.22436 0.92936 0.0
H408 H 0.12546 0.18697 0.90245 0.0
C409 C 0.07327 0.26021 0.90327 0.0
C410 C 0.86849 0.76654 0.43814 0.0
C411 C 0.85876 0.73532 0.42171 0.0
H412 H 0.90512 0.81104 0.43716 0.0
C413 C 0.87918 0.72565 0.39005 0.0
H414 H 0.8538 0.77462 0.46282 0.0
C415 C 0.90894 0.74641 0.37552 0.0
C416 C 0.91897 0.77743 0.39222 0.0
H417 H 0.87205 0.70207 0.37632 0.0
H418 H 0.92416 0.73805 0.35122 0.0
C419 C 0.89814 0.78737 0.42352 0.0
C420 C 0.8722 0.27812 0.88321 0.0
C421 C 0.86129 0.27495 0.92017 0.0
H422 H 0.90825 0.25982 0.83957 0.0
C423 C 0.87864 0.24934 0.9413 0.0
H424 H 0.85975 0.29776 0.8662 0.0
C425 C 0.90673 0.22797 0.92619 0.0
C426 C 0.91802 0.23139 0.88943 0.0
H427 H 0.87035 0.24557 0.96958 0.0
H428 H 0.91954 0.20864 0.94341 0.0
C429 C 0.90014 0.25647 0.86796 0.0
C430 C 0.12291 0.75048 0.44142 0.0
C431 C 0.142 0.72635 0.41973 0.0
H432 H 0.08081 0.79015 0.44397 0.0
C433 C 0.13268 0.72449 0.38233 0.0
H434 H 0.12995 0.75317 0.47011 0.0
C435 C 0.1047 0.74614 0.36711 0.0
C436 C 0.0853 0.76992 0.38904 0.0
H437 H 0.14658 0.70598 0.36489 0.0
H438 H 0.09793 0.74393 0.33831 0.0
C439 C 0.09486 0.77188 0.42633 0.0
C440 C 0.6477 0.7336 0.9198 0.0
C441 C 0.64102 0.76844 0.92563 0.0
H442 H 0.62428 0.68597 0.90089 0.0
C443 C 0.60425 0.78167 0.91541 0.0
H444 H 0.67571 0.72235 0.92634 0.0
C445 C 0.57548 0.76095 0.89943 0.0
C446 C 0.58215 0.72624 0.89431 0.0
H447 H 0.59717 0.80798 0.92021 0.0
H448 H 0.54754 0.77194 0.89192 0.0
C449 C 0.61836 0.71267 0.90487 0.0
C450 C 0.355 0.26885 0.41591 0.0
C451 C 0.36156 0.23396 0.42177 0.0
H452 H 0.37868 0.31657 0.39732 0.0
C453 C 0.39819 0.22066 0.4112 0.0
H454 H 0.32708 0.28018 0.42261 0.0
C455 C 0.42708 0.24143 0.39525 0.0
C456 C 0.42064 0.27624 0.39045 0.0
H457 H 0.40519 0.19431 0.4159 0.0
H458 H 0.45502 0.23043 0.38776 0.0
C459 C 0.38443 0.28979 0.40101 0.0
C460 C 0.37854 0.74692 0.94295 0.0
C461 C 0.35952 0.77148 0.92161 0.0
H462 H 0.42103 0.70737 0.94494 0.0
C463 C 0.36907 0.77401 0.88431 0.0
H464 H 0.3714 0.74376 0.97158 0.0
C465 C 0.39726 0.75278 0.86887 0.0
C466 C 0.41676 0.72868 0.89044 0.0
H467 H 0.35538 0.79289 0.86713 0.0
H468 H 0.40422 0.75568 0.84017 0.0
C469 C 0.40688 0.72588 0.9276 0.0
C470 C 0.6502 0.24561 0.3884 0.0
C471 C 0.64152 0.22621 0.41985 0.0
H472 H 0.62945 0.28148 0.34889 0.0
C473 C 0.60363 0.2285 0.43518 0.0
H474 H 0.67914 0.24523 0.37609 0.0
C475 C 0.57578 0.25025 0.42026 0.0
C476 C 0.58468 0.26948 0.38901 0.0
H477 H 0.59521 0.21339 0.45867 0.0
H478 H 0.54703 0.25171 0.43291 0.0
C479 C 0.62187 0.26664 0.37287 0.0
C480 C 0.37318 0.55441 0.93447 0.0
C481 C 0.37132 0.52249 0.91745 0.0
H482 H 0.39864 0.60454 0.93393 0.0
C483 C 0.39115 0.51779 0.88432 0.0
H484 H 0.35817 0.55859 0.96014 0.0
C485 C 0.41392 0.54388 0.86928 0.0
C486 C 0.41785 0.57529 0.88721 0.0
H487 H 0.38979 0.49355 0.87045 0.0
H488 H 0.42954 0.53888 0.84412 0.0
C489 C 0.39643 0.58061 0.91955 0.0
C490 C 0.61907 0.44799 0.44905 0.0
C491 C 0.63686 0.47308 0.42705 0.0
H492 H 0.58205 0.40361 0.45091 0.0
C493 C 0.63361 0.4707 0.38898 0.0
H494 H 0.62117 0.44944 0.47852 0.0
C495 C 0.61066 0.44496 0.37325 0.0
C496 C 0.59128 0.42076 0.39529 0.0
H497 H 0.64684 0.48991 0.37154 0.0
H498 H 0.60689 0.4447 0.34388 0.0
C499 C 0.59686 0.42177 0.43327 0.0
C500 C 0.62751 0.55708 0.92286 0.0
C501 C 0.62718 0.52376 0.9089 0.0
H502 H 0.60259 0.60679 0.92049 0.0
C503 C 0.60344 0.51668 0.87821 0.0
H504 H 0.6462 0.56408 0.94559 0.0
C505 C 0.57976 0.54177 0.8629 0.0
C506 C 0.57848 0.57418 0.87851 0.0
H507 H 0.60164 0.4914 0.86683 0.0
H508 H 0.5608 0.53528 0.84013 0.0
C509 C 0.6029 0.58178 0.90826 0.0
C510 C 0.38657 0.47697 0.37644 0.0
C511 C 0.38875 0.48568 0.41355 0.0
H512 H 0.40754 0.44438 0.33396 0.0
C513 C 0.41175 0.46611 0.43714 0.0
H514 H 0.36892 0.49175 0.35779 0.0
C515 C 0.43335 0.43902 0.4238 0.0
C516 C 0.43286 0.4311 0.38639 0.0
H517 H 0.41344 0.47209 0.46597 0.0
H518 H 0.45141 0.42498 0.44278 0.0
C519 C 0.40871 0.44998 0.36288 0.0
C520 C 0.88328 0.05295 0.94337 0.0
C521 C 0.86796 0.02699 0.92118 0.0
H522 H 0.91825 0.09842 0.946 0.0
C523 C 0.87351 0.0287 0.8833 0.0
H524 H 0.87936 0.05197 0.97272 0.0
C525 C 0.89634 0.05484 0.86806 0.0
C526 C 0.91333 0.08001 0.89043 0.0
H527 H 0.86213 0.00878 0.86577 0.0
H528 H 0.90189 0.05471 0.83893 0.0
C529 C 0.90539 0.07951 0.92808 0.0
C530 C 0.11879 0.94924 0.4468 0.0
C531 C 0.13562 0.97477 0.42476 0.0
H532 H 0.083 0.90414 0.44883 0.0
C533 C 0.13184 0.97257 0.38672 0.0
H534 H 0.12137 0.95051 0.47624 0.0
C535 C 0.10934 0.94647 0.37109 0.0
C536 C 0.09096 0.92175 0.3932 0.0
H537 H 0.14438 0.99208 0.36924 0.0
H538 H 0.10517 0.94628 0.34176 0.0
C539 C 0.09704 0.92269 0.43112 0.0
C540 C 0.12141 0.02744 0.87552 0.0
C541 C 0.12389 0.02178 0.91341 0.0
H542 H 0.09492 0.05599 0.83223 0.0
C543 C 0.10127 0.04191 0.93688 0.0
H544 H 0.13869 0.01259 0.85669 0.0
C545 C 0.07663 0.06681 0.92299 0.0
C546 C 0.07355 0.07219 0.88515 0.0
H547 H 0.10171 0.03788 0.96613 0.0
H548 H 0.05939 0.08142 0.94209 0.0
C549 C 0.09649 0.05243 0.86152 0.0
C550 C 0.88537 0.97612 0.37619 0.0
C551 C 0.88748 0.98469 0.41333 0.0
H552 H 0.90684 0.94398 0.3335 0.0
C553 C 0.91082 0.96531 0.4368 0.0
H554 H 0.86747 0.99081 0.35765 0.0
C555 C 0.93285 0.93857 0.4233 0.0
C556 C 0.93247 0.93081 0.38584 0.0
H557 H 0.91251 0.97124 0.46564 0.0
H558 H 0.95115 0.92467 0.44221 0.0
C559 C 0.90794 0.94947 0.36245 0.0
C560 C 0.40426 0.37971 0.19258 0.0
C561 C 0.38195 0.35127 0.18212 0.0
H562 H 0.44488 0.40109 0.23045 0.0
C563 C 0.38174 0.32223 0.20441 0.0
H564 H 0.40444 0.40253 0.17602 0.0
C565 C 0.4054 0.32114 0.23577 0.0
C566 C 0.42922 0.34921 0.24528 0.0
H567 H 0.36461 0.30003 0.19676 0.0
H568 H 0.40594 0.29806 0.25184 0.0
C569 C 0.42742 0.37879 0.22382 0.0
C570 C 0.60917 0.62999 0.69496 0.0
C571 C 0.62542 0.66025 0.68133 0.0
H572 H 0.57335 0.6063 0.73553 0.0
C573 C 0.62051 0.69049 0.70097 0.0
H574 H 0.61297 0.60633 0.6804 0.0
C575 C 0.59733 0.69065 0.73274 0.0
C576 C 0.57899 0.66053 0.74507 0.0
H577 H 0.63287 0.71411 0.69078 0.0
H578 H 0.59228 0.71447 0.74655 0.0
C579 C 0.5864 0.63007 0.72649 0.0
C580 C 0.62692 0.38436 0.20216 0.0
C581 C 0.63457 0.35517 0.18135 0.0
H582 H 0.59823 0.40547 0.24869 0.0
C583 C 0.62024 0.32366 0.1941 0.0
H584 H 0.63682 0.40918 0.19308 0.0
C585 C 0.59734 0.32165 0.22581 0.0
C586 C 0.58864 0.35104 0.24579 0.0
H587 H 0.6262 0.30052 0.17932 0.0
H588 H 0.58585 0.29713 0.2343 0.0
C589 C 0.60451 0.38228 0.23408 0.0
C590 C 0.36864 0.62967 0.70613 0.0
C591 C 0.37195 0.65561 0.67991 0.0
H592 H 0.38958 0.60967 0.7569 0.0
C593 C 0.39671 0.68354 0.687 0.0
H594 H 0.34988 0.60776 0.70122 0.0
C595 C 0.41925 0.68477 0.71881 0.0
C596 C 0.41789 0.65786 0.74408 0.0
H597 H 0.3995 0.70403 0.66737 0.0
H598 H 0.43896 0.70622 0.72277 0.0
C599 C 0.39154 0.6307 0.73788 0.0
C600 C 0.87967 0.82119 0.20511 0.0
C601 C 0.87879 0.85056 0.18339 0.0
H602 H 0.90506 0.79682 0.25189 0.0
C603 C 0.90004 0.87943 0.19444 0.0
H604 H 0.86345 0.79864 0.19699 0.0
C605 C 0.92346 0.87855 0.22554 0.0
C606 C 0.92654 0.84864 0.24627 0.0
H607 H 0.8994 0.90249 0.1783 0.0
H608 H 0.94022 0.90114 0.23258 0.0
C609 C 0.90353 0.82018 0.23636 0.0
C610 C 0.12511 0.18527 0.70516 0.0
C611 C 0.12859 0.15509 0.68513 0.0
H612 H 0.0975 0.20999 0.75059 0.0
C613 C 0.11015 0.12545 0.69803 0.0
H614 H 0.1391 0.20843 0.69554 0.0
C615 C 0.08676 0.1262 0.72919 0.0
C616 C 0.08087 0.15674 0.74813 0.0
H617 H 0.11274 0.10183 0.68316 0.0
H618 H 0.07207 0.10295 0.73762 0.0
C619 C 0.1013 0.18612 0.73652 0.0
C620 C 0.10576 0.82868 0.18487 0.0
C621 C 0.13515 0.85402 0.18252 0.0
H622 H 0.05908 0.80652 0.21635 0.0
C623 C 0.14138 0.87533 0.21282 0.0
H624 H 0.09961 0.81207 0.16202 0.0
C625 C 0.11753 0.87252 0.24383 0.0
C626 C 0.0872 0.84805 0.24549 0.0
H627 H 0.16428 0.89463 0.2124 0.0
H628 H 0.12238 0.88997 0.26624 0.0
C629 C 0.08227 0.82559 0.21605 0.0
C630 C 0.87032 0.13102 0.70589 0.0
C631 C 0.87556 0.15616 0.67902 0.0
H632 H 0.88915 0.11146 0.75757 0.0
C633 C 0.90182 0.18315 0.68566 0.0
H634 H 0.85037 0.10984 0.7013 0.0
C635 C 0.92378 0.18424 0.7178 0.0
C636 C 0.92036 0.15808 0.74384 0.0
H637 H 0.90611 0.203 0.66549 0.0
H638 H 0.94461 0.20494 0.72147 0.0
C639 C 0.89268 0.13187 0.73796 0.0
loop_
_geom_bond_atom_site_label_1
_geom_bond_atom_site_label_2
_geom_bond_distance
_geom_bond_site_symmetry_2
_ccdc_geom_bond_type
C0 C1 1.386 . S
C0 C2 1.397 . S
C0 H24 0.931 . S
C1 C0 1.386 . S
C1 C5 1.397 . S
C2 C0 1.397 . S
C2 C3 1.384 . S
C2 H25 0.930 . S
C3 C2 1.384 . S
C3 C4 1.377 . S
C3 C6 1.481 . S
C4 C3 1.377 . S
C4 C5 1.389 . S
C4 H26 0.929 . S
C5 C1 1.397 . S
C5 C4 1.389 . S
C5 H27 0.931 . S
C6 C3 1.481 . S
C6 C7 1.387 . S
C6 C11 1.390 1_556 S
C7 C6 1.387 . S
C7 C8 1.401 . S
C7 H28 0.930 . S
C8 C7 1.401 . S
C8 C9 1.376 1_556 S
C8 C17 1.511 . S
C9 C8 1.376 1_554 S
C9 C10 1.392 . S
C9 H30 0.931 . S
C10 C9 1.392 . S
C10 C11 1.361 . S
C10 C12 1.500 . S
C11 C6 1.390 1_554 S
C11 C10 1.361 . S
C11 H29 0.931 . S
C12 C10 1.500 . S
C12 C13 1.371 . S
C12 C14 1.365 . S
C13 C12 1.371 . S
C13 C23 1.386 . S
C13 H31 0.931 . S
C14 C12 1.365 . S
C14 C15 1.409 . S
C14 H32 0.929 . S
C15 C14 1.409 . S
C15 C16 1.380 . S
C15 H33 0.930 . S
C16 C15 1.380 . S
C16 C23 1.357 . S
C17 C8 1.511 . S
C17 C18 1.341 . S
C17 C19 1.371 . S
C18 C17 1.341 . S
C18 C22 1.394 . S
C18 H34 0.930 . S
C19 C17 1.371 . S
C19 C20 1.392 . S
C19 H35 0.931 1_556 S
C20 C19 1.392 . S
C20 C21 1.331 . S
C20 H38 0.932 . S
C21 C20 1.331 . S
C21 C22 1.336 . S
C22 C18 1.394 . S
C22 C21 1.336 . S
C22 H37 0.929 . S
C23 C13 1.386 . S
C23 C16 1.357 . S
C23 H36 0.928 . S
H24 C0 0.931 . S
H25 C2 0.930 . S
H26 C4 0.929 . S
H27 C5 0.931 . S
H28 C7 0.930 . S
H29 C11 0.931 . S
H30 C9 0.931 . S
H31 C13 0.931 . S
H32 C14 0.929 . S
H33 C15 0.930 . S
H34 C18 0.930 . S
H35 C19 0.931 1_554 S
H36 C23 0.928 . S
H37 C22 0.929 . S
H38 C20 0.932 . S
C39 C40 1.386 . S
C39 C41 1.397 . S
C39 H63 0.931 . S
C40 C39 1.386 . S
C40 C44 1.397 . S
C41 C39 1.397 . S
C41 C42 1.384 . S
C41 H64 0.930 . S
C42 C41 1.384 . S
C42 C43 1.377 . S
C42 C45 1.481 . S
C43 C42 1.377 . S
C43 C44 1.389 . S
C43 H65 0.929 . S
C44 C40 1.397 . S
C44 C43 1.389 . S
C44 H66 0.931 . S
C45 C42 1.481 . S
C45 C46 1.387 . S
C45 C50 1.390 . S
C46 C45 1.387 . S
C46 C47 1.401 . S
C46 H67 0.930 . S
C47 C46 1.401 . S
C47 C48 1.376 . S
C47 C56 1.511 . S
C48 C47 1.376 . S
C48 C49 1.392 . S
C48 H69 0.931 . S
C49 C48 1.392 . S
C49 C50 1.361 . S
C49 C51 1.500 . S
C50 C45 1.390 . S
C50 C49 1.361 . S
C50 H68 0.931 . S
C51 C49 1.500 . S
C51 C52 1.371 . S
C51 C53 1.365 . S
C52 C51 1.371 . S
C52 C62 1.386 . S
C52 H70 0.931 . S
C53 C51 1.365 . S
C53 C54 1.409 . S
C53 H71 0.929 . S
C54 C53 1.409 . S
C54 C55 1.380 . S
C54 H72 0.930 . S
C55 C54 1.380 . S
C55 C62 1.357 . S
C56 C47 1.511 . S
C56 C57 1.341 . S
C56 C58 1.371 . S
C57 C56 1.341 . S
C57 C61 1.394 . S
C57 H73 0.930 . S
C58 C56 1.371 . S
C58 C59 1.392 . S
C58 H74 0.931 . S
C59 C58 1.392 . S
C59 C60 1.331 . S
C59 H77 0.932 . S
C60 C59 1.331 . S
C60 C61 1.336 . S
C61 C57 1.394 . S
C61 C60 1.336 . S
C61 H76 0.929 . S
C62 C52 1.386 . S
C62 C55 1.357 . S
C62 H75 0.928 . S
H63 C39 0.931 . S
H64 C41 0.930 . S
H65 C43 0.929 . S
H66 C44 0.931 . S
H67 C46 0.930 . S
H68 C50 0.931 . S
H69 C48 0.931 . S
H70 C52 0.931 . S
H71 C53 0.929 . S
H72 C54 0.930 . S
H73 C57 0.930 . S
H74 C58 0.931 . S
H75 C62 0.928 . S
H76 C61 0.929 . S
H77 C59 0.932 . S
C78 C79 1.386 . S
C78 C80 1.397 . S
C78 H102 0.931 . S
C79 C78 1.386 . S
C79 C83 1.397 . S
C80 C78 1.397 . S
C80 C81 1.384 . S
C80 H103 0.930 . S
C81 C80 1.384 . S
C81 C82 1.377 . S
C81 C84 1.481 . S
C82 C81 1.377 . S
C82 C83 1.389 . S
C82 H104 0.929 1_556 S
C83 C79 1.397 . S
C83 C82 1.389 . S
C83 H105 0.931 . S
C84 C81 1.481 . S
C84 C85 1.387 . S
C84 C89 1.390 1_556 S
C85 C84 1.387 . S
C85 C86 1.401 . S
C85 H106 0.930 . S
C86 C85 1.401 . S
C86 C87 1.376 1_556 S
C86 C95 1.511 . S
C87 C86 1.376 1_554 S
C87 C88 1.392 . S
C87 H108 0.931 . S
C88 C87 1.392 . S
C88 C89 1.361 . S
C88 C90 1.500 . S
C89 C84 1.390 1_554 S
C89 C88 1.361 . S
C89 H107 0.931 . S
C90 C88 1.500 . S
C90 C91 1.371 . S
C90 C92 1.365 . S
C91 C90 1.371 . S
C91 C101 1.386 . S
C91 H109 0.931 . S
C92 C90 1.365 . S
C92 C93 1.409 . S
C92 H110 0.929 . S
C93 C92 1.409 . S
C93 C94 1.380 . S
C93 H111 0.930 . S
C94 C93 1.380 . S
C94 C101 1.357 . S
C95 C86 1.511 . S
C95 C96 1.341 . S
C95 C97 1.371 . S
C96 C95 1.341 . S
C96 C100 1.394 . S
C96 H112 0.930 . S
C97 C95 1.371 . S
C97 C98 1.392 . S
C97 H113 0.931 1_556 S
C98 C97 1.392 . S
C98 C99 1.331 . S
C98 H116 0.932 . S
C99 C98 1.331 . S
C99 C100 1.336 . S
C100 C96 1.394 . S
C100 C99 1.336 . S
C100 H115 0.929 . S
C101 C91 1.386 . S
C101 C94 1.357 . S
C101 H114 0.928 . S
H102 C78 0.931 . S
H103 C80 0.930 . S
H104 C82 0.929 1_554 S
H105 C83 0.931 . S
H106 C85 0.930 . S
H107 C89 0.931 . S
H108 C87 0.931 . S
H109 C91 0.931 . S
H110 C92 0.929 . S
H111 C93 0.930 . S
H112 C96 0.930 . S
H113 C97 0.931 1_554 S
H114 C101 0.928 . S
H115 C100 0.929 . S
H116 C98 0.932 . S
C117 C118 1.386 . S
C117 C119 1.397 . S
C117 H141 0.931 . S
C118 C117 1.386 . S
C118 C122 1.397 . S
C119 C117 1.397 . S
C119 C120 1.384 . S
C119 H142 0.930 . S
C120 C119 1.384 . S
C120 C121 1.377 . S
C120 C123 1.481 . S
C121 C120 1.377 . S
C121 C122 1.389 . S
C121 H143 0.929 . S
C122 C118 1.397 . S
C122 C121 1.389 . S
C122 H144 0.931 . S
C123 C120 1.481 . S
C123 C124 1.387 . S
C123 C128 1.390 . S
C124 C123 1.387 . S
C124 C125 1.401 . S
C124 H145 0.930 . S
C125 C124 1.401 . S
C125 C126 1.376 . S
C125 C134 1.511 . S
C126 C125 1.376 . S
C126 C127 1.392 . S
C126 H147 0.931 . S
C127 C126 1.392 . S
C127 C128 1.361 . S
C127 C129 1.500 . S
C128 C123 1.390 . S
C128 C127 1.361 . S
C128 H146 0.931 . S
C129 C127 1.500 . S
C129 C130 1.371 . S
C129 C131 1.365 . S
C130 C129 1.371 . S
C130 C140 1.386 . S
C130 H148 0.931 . S
C131 C129 1.365 . S
C131 C132 1.409 . S
C131 H149 0.929 . S
C132 C131 1.409 . S
C132 C133 1.380 . S
C132 H150 0.930 . S
C133 C132 1.380 . S
C133 C140 1.357 . S
C134 C125 1.511 . S
C134 C135 1.341 . S
C134 C136 1.371 . S
C135 C134 1.341 . S
C135 C139 1.394 . S
C135 H151 0.930 . S
C136 C134 1.371 . S
C136 C137 1.392 . S
C136 H152 0.931 . S
C137 C136 1.392 . S
C137 C138 1.331 . S
C137 H155 0.932 . S
C138 C137 1.331 . S
C138 C139 1.336 . S
C139 C135 1.394 . S
C139 C138 1.336 . S
C139 H154 0.929 . S
C140 C130 1.386 . S
C140 C133 1.357 . S
C140 H153 0.928 . S
H141 C117 0.931 . S
H142 C119 0.930 . S
H143 C121 0.929 . S
H144 C122 0.931 . S
H145 C124 0.930 . S
H146 C128 0.931 . S
H147 C126 0.931 . S
H148 C130 0.931 . S
H149 C131 0.929 . S
H150 C132 0.930 . S
H151 C135 0.930 . S
H152 C136 0.931 . S
H153 C140 0.928 . S
H154 C139 0.929 . S
H155 C137 0.932 . S
C156 C157 1.386 . S
C156 C158 1.397 1_545 S
C156 H180 0.931 . S
C157 C156 1.386 . S
C157 C161 1.397 1_545 S
C158 C156 1.397 1_565 S
C158 C159 1.384 . S
C158 H181 0.930 . S
C159 C158 1.384 . S
C159 C160 1.377 . S
C159 C162 1.481 . S
C160 C159 1.377 . S
C160 C161 1.389 . S
C160 H182 0.929 . S
C161 C157 1.397 1_565 S
C161 C160 1.389 . S
C161 H183 0.931 . S
C162 C159 1.481 . S
C162 C163 1.387 . S
C162 C167 1.390 1_556 S
C163 C162 1.387 . S
C163 C164 1.401 . S
C163 H184 0.930 . S
C164 C163 1.401 . S
C164 C165 1.376 1_556 S
C164 C173 1.511 . S
C165 C164 1.376 1_554 S
C165 C166 1.392 . S
C165 H186 0.931 . S
C166 C165 1.392 . S
C166 C167 1.361 . S
C166 C168 1.500 . S
C167 C162 1.390 1_554 S
C167 C166 1.361 . S
C167 H185 0.931 . S
C168 C166 1.500 . S
C168 C169 1.371 . S
C168 C170 1.365 . S
C169 C168 1.371 . S
C169 C179 1.386 . S
C169 H187 0.931 . S
C170 C168 1.365 . S
C170 C171 1.409 . S
C170 H188 0.929 . S
C171 C170 1.409 . S
C171 C172 1.380 . S
C171 H189 0.930 . S
C172 C171 1.380 . S
C172 C179 1.357 . S
C173 C164 1.511 . S
C173 C174 1.341 . S
C173 C175 1.371 . S
C174 C173 1.341 . S
C174 C178 1.394 . S
C174 H190 0.930 . S
C175 C173 1.371 . S
C175 C176 1.392 . S
C175 H191 0.931 1_556 S
C176 C175 1.392 . S
C176 C177 1.331 . S
C176 H194 0.932 . S
C177 C176 1.331 . S
C177 C178 1.336 . S
C178 C174 1.394 . S
C178 C177 1.336 . S
C178 H193 0.929 . S
C179 C169 1.386 . S
C179 C172 1.357 . S
C179 H192 0.928 . S
H180 C156 0.931 . S
H181 C158 0.930 . S
H182 C160 0.929 . S
H183 C161 0.931 . S
H184 C163 0.930 . S
H185 C167 0.931 . S
H186 C165 0.931 . S
H187 C169 0.931 . S
H188 C170 0.929 . S
H189 C171 0.930 . S
H190 C174 0.930 . S
H191 C175 0.931 1_554 S
H192 C179 0.928 . S
H193 C178 0.929 . S
H194 C176 0.932 . S
C195 C196 1.386 . S
C195 C197 1.397 1_565 S
C195 H219 0.931 . S
C196 C195 1.386 . S
C196 C200 1.397 1_565 S
C197 C195 1.397 1_545 S
C197 C198 1.384 . S
C197 H220 0.930 . S
C198 C197 1.384 . S
C198 C199 1.377 . S
C198 C201 1.481 . S
C199 C198 1.377 . S
C199 C200 1.389 . S
C199 H221 0.929 . S
C200 C196 1.397 1_545 S
C200 C199 1.389 . S
C200 H222 0.931 . S
C201 C198 1.481 . S
C201 C202 1.387 . S
C201 C206 1.390 . S
C202 C201 1.387 . S
C202 C203 1.401 . S
C202 H223 0.930 . S
C203 C202 1.401 . S
C203 C204 1.376 . S
C203 C212 1.511 . S
C204 C203 1.376 . S
C204 C205 1.392 . S
C204 H225 0.931 . S
C205 C204 1.392 . S
C205 C206 1.361 . S
C205 C207 1.500 . S
C206 C201 1.390 . S
C206 C205 1.361 . S
C206 H224 0.931 . S
C207 C205 1.500 . S
C207 C208 1.371 . S
C207 C209 1.365 . S
C208 C207 1.371 . S
C208 C218 1.386 . S
C208 H226 0.931 . S
C209 C207 1.365 . S
C209 C210 1.409 . S
C209 H227 0.929 . S
C210 C209 1.409 . S
C210 C211 1.380 . S
C210 H228 0.930 . S
C211 C210 1.380 . S
C211 C218 1.357 . S
C212 C203 1.511 . S
C212 C213 1.341 . S
C212 C214 1.371 . S
C213 C212 1.341 . S
C213 C217 1.394 . S
C213 H229 0.930 . S
C214 C212 1.371 . S
C214 C215 1.392 . S
C214 H230 0.931 . S
C215 C214 1.392 . S
C215 C216 1.331 . S
C215 H233 0.932 . S
C216 C215 1.331 . S
C216 C217 1.336 . S
C217 C213 1.394 . S
C217 C216 1.336 . S
C217 H232 0.929 . S
C218 C208 1.386 . S
C218 C211 1.357 . S
C218 H231 0.928 . S
H219 C195 0.931 . S
H220 C197 0.930 . S
H221 C199 0.929 . S
H222 C200 0.931 . S
H223 C202 0.930 . S
H224 C206 0.931 . S
H225 C204 0.931 . S
H226 C208 0.931 . S
H227 C209 0.929 . S
H228 C210 0.930 . S
H229 C213 0.930 . S
H230 C214 0.931 . S
H231 C218 0.928 . S
H232 C217 0.929 . S
H233 C215 0.932 . S
C234 C235 1.386 1_565 S
C234 C236 1.397 . S
C234 H258 0.931 . S
C235 C234 1.386 1_545 S
C235 C239 1.397 . S
C236 C234 1.397 . S
C236 C237 1.384 . S
C236 H259 0.930 . S
C237 C236 1.384 . S
C237 C238 1.377 . S
C237 C240 1.481 . S
C238 C237 1.377 . S
C238 C239 1.389 1_565 S
C238 H260 0.929 1_556 S
C239 C235 1.397 . S
C239 C238 1.389 1_545 S
C239 H261 0.931 . S
C240 C237 1.481 . S
C240 C241 1.387 . S
C240 C245 1.390 1_556 S
C241 C240 1.387 . S
C241 C242 1.401 . S
C241 H262 0.930 . S
C242 C241 1.401 . S
C242 C243 1.376 1_556 S
C242 C251 1.511 . S
C243 C242 1.376 1_554 S
C243 C244 1.392 . S
C243 H264 0.931 . S
C244 C243 1.392 . S
C244 C245 1.361 . S
C244 C246 1.500 . S
C245 C240 1.390 1_554 S
C245 C244 1.361 . S
C245 H263 0.931 . S
C246 C244 1.500 . S
C246 C247 1.371 . S
C246 C248 1.365 . S
C247 C246 1.371 . S
C247 C257 1.386 . S
C247 H265 0.931 . S
C248 C246 1.365 . S
C248 C249 1.409 . S
C248 H266 0.929 . S
C249 C248 1.409 . S
C249 C250 1.380 . S
C249 H267 0.930 . S
C250 C249 1.380 . S
C250 C257 1.357 . S
C251 C242 1.511 . S
C251 C252 1.341 . S
C251 C253 1.371 . S
C252 C251 1.341 . S
C252 C256 1.394 . S
C252 H268 0.930 . S
C253 C251 1.371 . S
C253 C254 1.392 . S
C253 H269 0.931 1_556 S
C254 C253 1.392 . S
C254 C255 1.331 . S
C254 H272 0.932 . S
C255 C254 1.331 . S
C255 C256 1.336 . S
C256 C252 1.394 . S
C256 C255 1.336 . S
C256 H271 0.929 . S
C257 C247 1.386 . S
C257 C250 1.357 . S
C257 H270 0.928 . S
H258 C234 0.931 . S
H259 C236 0.930 . S
H260 C238 0.929 1_554 S
H261 C239 0.931 . S
H262 C241 0.930 . S
H263 C245 0.931 . S
H264 C243 0.931 . S
H265 C247 0.931 . S
H266 C248 0.929 . S
H267 C249 0.930 . S
H268 C252 0.930 . S
H269 C253 0.931 1_554 S
H270 C257 0.928 . S
H271 C256 0.929 . S
H272 C254 0.932 . S
C273 C274 1.386 . S
C273 C275 1.397 . S
C273 H297 0.931 . S
C274 C273 1.386 . S
C274 C278 1.397 . S
C275 C273 1.397 . S
C275 C276 1.384 . S
C275 H298 0.930 . S
C276 C275 1.384 . S
C276 C277 1.377 . S
C276 C279 1.481 . S
C277 C276 1.377 . S
C277 C278 1.389 . S
C277 H299 0.929 . S
C278 C274 1.397 . S
C278 C277 1.389 . S
C278 H300 0.931 . S
C279 C276 1.481 . S
C279 C280 1.387 . S
C279 C284 1.390 . S
C280 C279 1.387 . S
C280 C281 1.401 . S
C280 H301 0.930 . S
C281 C280 1.401 . S
C281 C282 1.376 . S
C281 C290 1.511 . S
C282 C281 1.376 . S
C282 C283 1.392 . S
C282 H303 0.931 . S
C283 C282 1.392 . S
C283 C284 1.361 . S
C283 C285 1.500 . S
C284 C279 1.390 . S
C284 C283 1.361 . S
C284 H302 0.931 . S
C285 C283 1.500 . S
C285 C286 1.371 . S
C285 C287 1.365 . S
C286 C285 1.371 . S
C286 C296 1.386 1_545 S
C286 H304 0.931 . S
C287 C285 1.365 . S
C287 C288 1.409 . S
C287 H305 0.929 . S
C288 C287 1.409 . S
C288 C289 1.380 1_545 S
C288 H306 0.930 1_545 S
C289 C288 1.380 1_565 S
C289 C296 1.357 . S
C290 C281 1.511 . S
C290 C291 1.341 . S
C290 C292 1.371 . S
C291 C290 1.341 . S
C291 C295 1.394 . S
C291 H307 0.930 . S
C292 C290 1.371 . S
C292 C293 1.392 . S
C292 H308 0.931 . S
C293 C292 1.392 . S
C293 C294 1.331 . S
C293 H311 0.932 . S
C294 C293 1.331 . S
C294 C295 1.336 . S
C295 C291 1.394 . S
C295 C294 1.336 . S
C295 H310 0.929 . S
C296 C286 1.386 1_565 S
C296 C289 1.357 . S
C296 H309 0.928 . S
H297 C273 0.931 . S
H298 C275 0.930 . S
H299 C277 0.929 . S
H300 C278 0.931 . S
H301 C280 0.930 . S
H302 C284 0.931 . S
H303 C282 0.931 . S
H304 C286 0.931 . S
H305 C287 0.929 . S
H306 C288 0.930 1_565 S
H307 C291 0.930 . S
H308 C292 0.931 . S
H309 C296 0.928 . S
H310 C295 0.929 . S
H311 C293 0.932 . S
Fe312 O314 1.918 . S
Fe312 O317 1.997 1_455 S
Fe312 O318 2.002 1_455 S
Fe312 O323 1.976 . S
Fe312 O326 1.996 . S
Fe313 O314 1.918 . S
Fe313 O321 1.997 1_455 S
Fe313 O324 1.996 . S
Fe313 O328 1.976 . S
Fe313 O331 2.002 1_455 S
O314 Fe312 1.918 . S
O314 Fe313 1.918 . S
O314 Fe315 1.918 . S
Fe315 O314 1.918 . S
Fe315 O316 2.002 1_455 S
Fe315 O325 1.976 . S
Fe315 O329 1.996 . S
Fe315 O332 1.997 1_455 S
O316 Fe315 2.002 1_655 S
O316 C333 1.295 . S
O317 Fe312 1.997 1_655 S
O317 C333 1.235 . S
O318 Fe312 2.002 1_655 S
O318 C319 1.295 . S
C319 O318 1.295 . S
C319 O321 1.235 . S
C320 O325 1.287 . S
C320 O326 1.255 . S
O321 Fe313 1.997 1_655 S
O321 C319 1.235 . S
C322 O328 1.287 . S
C322 O329 1.255 . S
O323 Fe312 1.976 . S
O323 C330 1.287 . S
O324 Fe313 1.996 . S
O324 C330 1.255 . S
O325 Fe315 1.976 . S
O325 C320 1.287 . S
O326 Fe312 1.996 . S
O326 C320 1.255 . S
C327 O331 1.295 . S
C327 O332 1.235 . S
O328 Fe313 1.976 . S
O328 C322 1.287 . S
O329 Fe315 1.996 . S
O329 C322 1.255 . S
C330 O323 1.287 . S
C330 O324 1.255 . S
O331 Fe313 2.002 1_655 S
O331 C327 1.295 . S
O332 Fe315 1.997 1_655 S
O332 C327 1.235 . S
C333 O316 1.295 . S
C333 O317 1.235 . S
Fe334 O336 1.918 . S
Fe334 O339 1.997 1_655 S
Fe334 O340 2.002 1_655 S
Fe334 O345 1.976 . S
Fe334 O348 1.996 . S
Fe335 O336 1.918 . S
Fe335 O343 1.997 1_655 S
Fe335 O346 1.996 . S
Fe335 O350 1.976 . S
Fe335 O353 2.002 1_655 S
O336 Fe334 1.918 . S
O336 Fe335 1.918 . S
O336 Fe337 1.918 . S
Fe337 O336 1.918 . S
Fe337 O338 2.002 1_655 S
Fe337 O347 1.976 . S
Fe337 O351 1.996 . S
Fe337 O354 1.997 1_655 S
O338 Fe337 2.002 1_455 S
O338 C355 1.295 . S
O339 Fe334 1.997 1_455 S
O339 C355 1.235 . S
O340 Fe334 2.002 1_455 S
O340 C341 1.295 . S
C341 O340 1.295 . S
C341 O343 1.235 . S
C342 O347 1.287 . S
C342 O348 1.255 . S
O343 Fe335 1.997 1_455 S
O343 C341 1.235 . S
C344 O350 1.287 . S
C344 O351 1.255 . S
O345 Fe334 1.976 . S
O345 C352 1.287 . S
O346 Fe335 1.996 . S
O346 C352 1.255 . S
O347 Fe337 1.976 . S
O347 C342 1.287 . S
O348 Fe334 1.996 . S
O348 C342 1.255 . S
C349 O353 1.295 . S
C349 O354 1.235 . S
O350 Fe335 1.976 . S
O350 C344 1.287 . S
O351 Fe337 1.996 . S
O351 C344 1.255 . S
C352 O345 1.287 . S
C352 O346 1.255 . S
O353 Fe335 2.002 1_455 S
O353 C349 1.295 . S
O354 Fe337 1.997 1_455 S
O354 C349 1.235 . S
C355 O338 1.295 . S
C355 O339 1.235 . S
Fe356 O358 1.918 . S
Fe356 O361 1.997 . S
Fe356 O362 2.002 . S
Fe356 O367 1.976 . S
Fe356 O370 1.996 . S
Fe357 O358 1.918 . S
Fe357 O365 1.997 . S
Fe357 O368 1.996 . S
Fe357 O372 1.976 . S
Fe357 O375 2.002 . S
O358 Fe356 1.918 . S
O358 Fe357 1.918 . S
O358 Fe359 1.918 . S
Fe359 O358 1.918 . S
Fe359 O360 2.002 . S
Fe359 O369 1.976 . S
Fe359 O373 1.996 . S
Fe359 O376 1.997 . S
O360 Fe359 2.002 . S
O360 C377 1.295 . S
O361 Fe356 1.997 . S
O361 C377 1.235 . S
O362 Fe356 2.002 . S
O362 C363 1.295 . S
C363 O362 1.295 . S
C363 O365 1.235 . S
C364 O369 1.287 . S
C364 O370 1.255 . S
O365 Fe357 1.997 . S
O365 C363 1.235 . S
C366 O372 1.287 . S
C366 O373 1.255 . S
O367 Fe356 1.976 . S
O367 C374 1.287 . S
O368 Fe357 1.996 . S
O368 C374 1.255 . S
O369 Fe359 1.976 . S
O369 C364 1.287 . S
O370 Fe356 1.996 . S
O370 C364 1.255 . S
C371 O375 1.295 . S
C371 O376 1.235 . S
O372 Fe357 1.976 . S
O372 C366 1.287 . S
O373 Fe359 1.996 . S
O373 C366 1.255 . S
C374 O367 1.287 . S
C374 O368 1.255 . S
O375 Fe357 2.002 . S
O375 C371 1.295 . S
O376 Fe359 1.997 . S
O376 C371 1.235 . S
C377 O360 1.295 . S
C377 O361 1.235 . S
Fe378 O380 1.918 . S
Fe378 O383 1.997 . S
Fe378 O384 2.002 . S
Fe378 O389 1.976 . S
Fe378 O392 1.996 . S
Fe379 O380 1.918 . S
Fe379 O387 1.997 . S
Fe379 O390 1.996 . S
Fe379 O394 1.976 . S
Fe379 O397 2.002 . S
O380 Fe378 1.918 . S
O380 Fe379 1.918 . S
O380 Fe381 1.918 . S
Fe381 O380 1.918 . S
Fe381 O382 2.002 . S
Fe381 O391 1.976 . S
Fe381 O395 1.996 . S
Fe381 O398 1.997 . S
O382 Fe381 2.002 . S
O382 C399 1.295 . S
O383 Fe378 1.997 . S
O383 C399 1.235 . S
O384 Fe378 2.002 . S
O384 C385 1.295 . S
C385 O384 1.295 . S
C385 O387 1.235 . S
C386 O391 1.287 . S
C386 O392 1.255 . S
O387 Fe379 1.997 . S
O387 C385 1.235 . S
C388 O394 1.287 . S
C388 O395 1.255 . S
O389 Fe378 1.976 . S
O389 C396 1.287 . S
O390 Fe379 1.996 . S
O390 C396 1.255 . S
O391 Fe381 1.976 . S
O391 C386 1.287 . S
O392 Fe378 1.996 . S
O392 C386 1.255 . S
C393 O397 1.295 . S
C393 O398 1.235 . S
O394 Fe379 1.976 . S
O394 C388 1.287 . S
O395 Fe381 1.996 . S
O395 C388 1.255 . S
C396 O389 1.287 . S
C396 O390 1.255 . S
O397 Fe379 2.002 . S
O397 C393 1.295 . S
O398 Fe381 1.997 . S
O398 C393 1.235 . S
C399 O382 1.295 . S
C399 O383 1.235 . S
C400 C401 1.387 . S
C400 H404 0.950 . S
C400 C409 1.390 . S
C401 C400 1.387 . S
C401 C403 1.387 . S
H402 C409 0.950 . S
C403 C401 1.387 . S
C403 C405 1.390 . S
C403 H407 0.950 . S
H404 C400 0.950 . S
C405 C403 1.390 . S
C405 C406 1.387 . S
C405 H408 0.950 . S
C406 C405 1.387 . S
C406 C409 1.387 . S
H407 C403 0.950 . S
H408 C405 0.950 . S
C409 C400 1.390 . S
C409 H402 0.950 . S
C409 C406 1.387 . S
C410 C411 1.387 . S
C410 H414 0.950 . S
C410 C419 1.390 . S
C411 C410 1.387 . S
C411 C413 1.387 . S
H412 C419 0.950 . S
C413 C411 1.387 . S
C413 C415 1.390 . S
C413 H417 0.950 . S
H414 C410 0.950 . S
C415 C413 1.390 . S
C415 C416 1.387 . S
C415 H418 0.950 . S
C416 C415 1.387 . S
C416 C419 1.387 . S
H417 C413 0.950 . S
H418 C415 0.950 . S
C419 C410 1.390 . S
C419 H412 0.950 . S
C419 C416 1.387 . S
C420 C421 1.387 . S
C420 H424 0.950 . S
C420 C429 1.390 . S
C421 C420 1.387 . S
C421 C423 1.387 . S
H422 C429 0.950 . S
C423 C421 1.387 . S
C423 C425 1.390 . S
C423 H427 0.950 . S
H424 C420 0.950 . S
C425 C423 1.390 . S
C425 C426 1.387 . S
C425 H428 0.950 . S
C426 C425 1.387 . S
C426 C429 1.387 . S
H427 C423 0.950 . S
H428 C425 0.950 . S
C429 C420 1.390 . S
C429 H422 0.950 . S
C429 C426 1.387 . S
C430 C431 1.387 . S
C430 H434 0.950 . S
C430 C439 1.390 . S
C431 C430 1.387 . S
C431 C433 1.387 . S
H432 C439 0.950 . S
C433 C431 1.387 . S
C433 C435 1.390 . S
C433 H437 0.950 . S
H434 C430 0.950 . S
C435 C433 1.390 . S
C435 C436 1.387 . S
C435 H438 0.950 . S
C436 C435 1.387 . S
C436 C439 1.387 . S
H437 C433 0.950 . S
H438 C435 0.950 . S
C439 C430 1.390 . S
C439 H432 0.950 . S
C439 C436 1.387 . S
C440 C441 1.387 . S
C440 H444 0.950 . S
C440 C449 1.390 . S
C441 C440 1.387 . S
C441 C443 1.387 . S
H442 C449 0.950 . S
C443 C441 1.387 . S
C443 C445 1.390 . S
C443 H447 0.950 . S
H444 C440 0.950 . S
C445 C443 1.390 . S
C445 C446 1.387 . S
C445 H448 0.950 . S
C446 C445 1.387 . S
C446 C449 1.387 . S
H447 C443 0.950 . S
H448 C445 0.950 . S
C449 C440 1.390 . S
C449 H442 0.950 . S
C449 C446 1.387 . S
C450 C451 1.387 . S
C450 H454 0.950 . S
C450 C459 1.390 . S
C451 C450 1.387 . S
C451 C453 1.387 . S
H452 C459 0.950 . S
C453 C451 1.387 . S
C453 C455 1.390 . S
C453 H457 0.950 . S
H454 C450 0.950 . S
C455 C453 1.390 . S
C455 C456 1.387 . S
C455 H458 0.950 . S
C456 C455 1.387 . S
C456 C459 1.387 . S
H457 C453 0.950 . S
H458 C455 0.950 . S
C459 C450 1.390 . S
C459 H452 0.950 . S
C459 C456 1.387 . S
C460 C461 1.387 . S
C460 H464 0.950 . S
C460 C469 1.390 . S
C461 C460 1.387 . S
C461 C463 1.387 . S
H462 C469 0.950 . S
C463 C461 1.387 . S
C463 C465 1.390 . S
C463 H467 0.950 . S
H464 C460 0.950 . S
C465 C463 1.390 . S
C465 C466 1.387 . S
C465 H468 0.950 . S
C466 C465 1.387 . S
C466 C469 1.387 . S
H467 C463 0.950 . S
H468 C465 0.950 . S
C469 C460 1.390 . S
C469 H462 0.950 . S
C469 C466 1.387 . S
C470 C471 1.387 . S
C470 H474 0.950 . S
C470 C479 1.390 . S
C471 C470 1.387 . S
C471 C473 1.387 . S
H472 C479 0.950 . S
C473 C471 1.387 . S
C473 C475 1.390 . S
C473 H477 0.950 . S
H474 C470 0.950 . S
C475 C473 1.390 . S
C475 C476 1.387 . S
C475 H478 0.950 . S
C476 C475 1.387 . S
C476 C479 1.387 . S
H477 C473 0.950 . S
H478 C475 0.950 . S
C479 C470 1.390 . S
C479 H472 0.950 . S
C479 C476 1.387 . S
C480 C481 1.387 . S
C480 H484 0.950 . S
C480 C489 1.390 . S
C481 C480 1.387 . S
C481 C483 1.387 . S
H482 C489 0.950 . S
C483 C481 1.387 . S
C483 C485 1.390 . S
C483 H487 0.950 . S
H484 C480 0.950 . S
C485 C483 1.390 . S
C485 C486 1.387 . S
C485 H488 0.950 . S
C486 C485 1.387 . S
C486 C489 1.387 . S
H487 C483 0.950 . S
H488 C485 0.950 . S
C489 C480 1.390 . S
C489 H482 0.950 . S
C489 C486 1.387 . S
C490 C491 1.387 . S
C490 H494 0.950 . S
C490 C499 1.390 . S
C491 C490 1.387 . S
C491 C493 1.387 . S
H492 C499 0.950 . S
C493 C491 1.387 . S
C493 C495 1.390 . S
C493 H497 0.950 . S
H494 C490 0.950 . S
C495 C493 1.390 . S
C495 C496 1.387 . S
C495 H498 0.950 . S
C496 C495 1.387 . S
C496 C499 1.387 . S
H497 C493 0.950 . S
H498 C495 0.950 . S
C499 C490 1.390 . S
C499 H492 0.950 . S
C499 C496 1.387 . S
C500 C501 1.387 . S
C500 H504 0.950 . S
C500 C509 1.390 . S
C501 C500 1.387 . S
C501 C503 1.387 . S
H502 C509 0.950 . S
C503 C501 1.387 . S
C503 C505 1.390 . S
C503 H507 0.950 . S
H504 C500 0.950 . S
C505 C503 1.390 . S
C505 C506 1.387 . S
C505 H508 0.950 . S
C506 C505 1.387 . S
C506 C509 1.387 . S
H507 C503 0.950 . S
H508 C505 0.950 . S
C509 C500 1.390 . S
C509 H502 0.950 . S
C509 C506 1.387 . S
C510 C511 1.387 . S
C510 H514 0.950 . S
C510 C519 1.390 . S
C511 C510 1.387 . S
C511 C513 1.387 . S
H512 C519 0.950 . S
C513 C511 1.387 . S
C513 C515 1.390 . S
C513 H517 0.950 . S
H514 C510 0.950 . S
C515 C513 1.390 . S
C515 C516 1.387 . S
C515 H518 0.950 . S
C516 C515 1.387 . S
C516 C519 1.387 . S
H517 C513 0.950 . S
H518 C515 0.950 . S
C519 C510 1.390 . S
C519 H512 0.950 . S
C519 C516 1.387 . S
C520 C521 1.387 . S
C520 H524 0.950 . S
C520 C529 1.390 . S
C521 C520 1.387 . S
C521 C523 1.387 . S
H522 C529 0.950 . S
C523 C521 1.387 . S
C523 C525 1.390 . S
C523 H527 0.950 . S
H524 C520 0.950 . S
C525 C523 1.390 . S
C525 C526 1.387 . S
C525 H528 0.950 . S
C526 C525 1.387 . S
C526 C529 1.387 . S
H527 C523 0.950 . S
H528 C525 0.950 . S
C529 C520 1.390 . S
C529 H522 0.950 . S
C529 C526 1.387 . S
C530 C531 1.387 . S
C530 H534 0.950 . S
C530 C539 1.390 . S
C531 C530 1.387 . S
C531 C533 1.387 . S
H532 C539 0.950 . S
C533 C531 1.387 . S
C533 C535 1.390 . S
C533 H537 0.950 . S
H534 C530 0.950 . S
C535 C533 1.390 . S
C535 C536 1.387 . S
C535 H538 0.950 . S
C536 C535 1.387 . S
C536 C539 1.387 . S
H537 C533 0.950 . S
H538 C535 0.950 . S
C539 C530 1.390 . S
C539 H532 0.950 . S
C539 C536 1.387 . S
C540 C541 1.387 . S
C540 H544 0.950 . S
C540 C549 1.390 . S
C541 C540 1.387 . S
C541 C543 1.387 . S
H542 C549 0.950 . S
C543 C541 1.387 . S
C543 C545 1.390 . S
C543 H547 0.950 . S
H544 C540 0.950 . S
C545 C543 1.390 . S
C545 C546 1.387 . S
C545 H548 0.950 . S
C546 C545 1.387 . S
C546 C549 1.387 . S
H547 C543 0.950 . S
H548 C545 0.950 . S
C549 C540 1.390 . S
C549 H542 0.950 . S
C549 C546 1.387 . S
C550 C551 1.387 . S
C550 H554 0.950 . S
C550 C559 1.390 . S
C551 C550 1.387 . S
C551 C553 1.387 . S
H552 C559 0.950 . S
C553 C551 1.387 . S
C553 C555 1.390 . S
C553 H557 0.950 . S
H554 C550 0.950 . S
C555 C553 1.390 . S
C555 C556 1.387 . S
C555 H558 0.950 . S
C556 C555 1.387 . S
C556 C559 1.387 . S
H557 C553 0.950 . S
H558 C555 0.950 . S
C559 C550 1.390 . S
C559 H552 0.950 . S
C559 C556 1.387 . S
C560 C561 1.387 . S
C560 H564 0.950 . S
C560 C569 1.390 . S
C561 C560 1.387 . S
C561 C563 1.387 . S
H562 C569 0.950 . S
C563 C561 1.387 . S
C563 C565 1.390 . S
C563 H567 0.950 . S
H564 C560 0.950 . S
C565 C563 1.390 . S
C565 C566 1.387 . S
C565 H568 0.950 . S
C566 C565 1.387 . S
C566 C569 1.387 . S
H567 C563 0.950 . S
H568 C565 0.950 . S
C569 C560 1.390 . S
C569 H562 0.950 . S
C569 C566 1.387 . S
C570 C571 1.387 . S
C570 H574 0.950 . S
C570 C579 1.390 . S
C571 C570 1.387 . S
C571 C573 1.387 . S
H572 C579 0.950 . S
C573 C571 1.387 . S
C573 C575 1.390 . S
C573 H577 0.950 . S
H574 C570 0.950 . S
C575 C573 1.390 . S
C575 C576 1.387 . S
C575 H578 0.950 . S
C576 C575 1.387 . S
C576 C579 1.387 . S
H577 C573 0.950 . S
H578 C575 0.950 . S
C579 C570 1.390 . S
C579 H572 0.950 . S
C579 C576 1.387 . S
C580 C581 1.387 . S
C580 H584 0.950 . S
C580 C589 1.390 . S
C581 C580 1.387 . S
C581 C583 1.387 . S
H582 C589 0.950 . S
C583 C581 1.387 . S
C583 C585 1.390 . S
C583 H587 0.950 . S
H584 C580 0.950 . S
C585 C583 1.390 . S
C585 C586 1.387 . S
C585 H588 0.950 . S
C586 C585 1.387 . S
C586 C589 1.387 . S
H587 C583 0.950 . S
H588 C585 0.950 . S
C589 C580 1.390 . S
C589 H582 0.950 . S
C589 C586 1.387 . S
C590 C591 1.387 . S
C590 H594 0.950 . S
C590 C599 1.390 . S
C591 C590 1.387 . S
C591 C593 1.387 . S
H592 C599 0.950 . S
C593 C591 1.387 . S
C593 C595 1.390 . S
C593 H597 0.950 . S
H594 C590 0.950 . S
C595 C593 1.390 . S
C595 C596 1.387 . S
C595 H598 0.950 . S
C596 C595 1.387 . S
C596 C599 1.387 . S
H597 C593 0.950 . S
H598 C595 0.950 . S
C599 C590 1.390 . S
C599 H592 0.950 . S
C599 C596 1.387 . S
C600 C601 1.387 . S
C600 H604 0.950 . S
C600 C609 1.390 . S
C601 C600 1.387 . S
C601 C603 1.387 . S
H602 C609 0.950 . S
C603 C601 1.387 . S
C603 C605 1.390 . S
C603 H607 0.950 . S
H604 C600 0.950 . S
C605 C603 1.390 . S
C605 C606 1.387 . S
C605 H608 0.950 . S
C606 C605 1.387 . S
C606 C609 1.387 . S
H607 C603 0.950 . S
H608 C605 0.950 . S
C609 C600 1.390 . S
C609 H602 0.950 . S
C609 C606 1.387 . S
C610 C611 1.387 . S
C610 H614 0.950 . S
C610 C619 1.390 . S
C611 C610 1.387 . S
C611 C613 1.387 . S
H612 C619 0.950 . S
C613 C611 1.387 . S
C613 C615 1.390 . S
C613 H617 0.950 . S
H614 C610 0.950 . S
C615 C613 1.390 . S
C615 C616 1.387 . S
C615 H618 0.950 . S
C616 C615 1.387 . S
C616 C619 1.387 . S
H617 C613 0.950 . S
H618 C615 0.950 . S
C619 C610 1.390 . S
C619 H612 0.950 . S
C619 C616 1.387 . S
C620 C621 1.387 . S
C620 H624 0.950 . S
C620 C629 1.390 . S
C621 C620 1.387 . S
C621 C623 1.387 . S
H622 C629 0.950 . S
C623 C621 1.387 . S
C623 C625 1.390 . S
C623 H627 0.950 . S
H624 C620 0.950 . S
C625 C623 1.390 . S
C625 C626 1.387 . S
C625 H628 0.950 . S
C626 C625 1.387 . S
C626 C629 1.387 . S
H627 C623 0.950 . S
H628 C625 0.950 . S
C629 C620 1.390 . S
C629 H622 0.950 . S
C629 C626 1.387 . S
C630 C631 1.387 . S
C630 H634 0.950 . S
C630 C639 1.390 . S
C631 C630 1.387 . S
C631 C633 1.387 . S
H632 C639 0.950 . S
C633 C631 1.387 . S
C633 C635 1.390 . S
C633 H637 0.950 . S
H634 C630 0.950 . S
C635 C633 1.390 . S
C635 C636 1.387 . S
C635 H638 0.950 . S
C636 C635 1.387 . S
C636 C639 1.387 . S
H637 C633 0.950 . S
H638 C635 0.950 . S
C639 C630 1.390 . S
C639 H632 0.950 . S
C639 C636 1.387 . S
C401 C21 1.581 . S
C406 C355 1.555 . S
C416 C319 1.553 . S
C411 C60 1.579 . S
C426 C342 1.556 . S
C421 C99 1.552 . S
C436 C330 1.551 . S
C431 C138 1.557 . S
C446 C399 1.554 . S
C441 C177 1.580 . S
C456 C363 1.553 . S
C451 C216 1.579 . S
C461 C255 1.554 . S
C466 C386 1.558 . S
C476 C374 1.550 . S
C471 C294 1.555 . S
C481 C1 1.548 . S
C486 C396 1.581 . S
C496 C366 1.580 . S
C491 C40 1.547 . S
C501 C79 1.572 . S
C506 C385 1.615 . S
C511 C133 1.564 . S
C516 C371 1.605 . S
C526 C352 1.581 . S
C521 C157 1.548 . S
C531 C196 1.547 . S
C536 C322 1.580 . S
C546 C341 1.615 . S
C541 C235 1.574 . S
C556 C327 1.605 . S
C551 C289 1.564 . S
C566 C377 1.589 . S
C561 C16 1.552 . S
C576 C393 1.589 . S
C571 C55 1.552 . S
C581 C94 1.533 . S
C586 C364 1.568 . S
C596 C388 1.569 . S
C591 C118 1.537 . S
C606 C333 1.589 . S
C601 C172 1.555 . S
C611 C211 1.554 . S
C616 C349 1.589 . S
C621 C250 1.532 . S
C626 C320 1.568 . S
C631 C274 1.537 . S
C636 C344 1.569 . S
