# Generated by pormake.
# Topology tsx, (6,3)-cn, num edge types: 1
# Building blocks:
#     Node 0, Type 0, BuildingBlock: JUFBIX_clean_sbu_0, # of connection points: 6
#     Node 1, Type 0, BuildingBlock: JUFBIX_clean_sbu_0, # of connection points: 6
#     Node 2, Type 1, BuildingBlock: BELTOD_clean_linker_0, # of connection points: 3
#     Node 3, Type 1, BuildingBlock: BELTOD_clean_linker_0, # of connection points: 3
#     Node 4, Type 1, BuildingBlock: BELTOD_clean_linker_0, # of connection points: 3
#     Node 5, Type 1, BuildingBlock: BELTOD_clean_linker_0, # of connection points: 3
#     Edge 6, Type (0, 1), BuildingBlock: AJUNOK_clean_linker_0, # of connection points: 2
#     Edge 7, Type (0, 1), BuildingBlock: AJUNOK_clean_linker_0, # of connection points: 2
#     Edge 8, Type (0, 1), BuildingBlock: AJUNOK_clean_linker_0, # of connection points: 2
#     Edge 9, Type (0, 1), BuildingBlock: AJUNOK_clean_linker_0, # of connection points: 2
#     Edge 10, Type (0, 1), BuildingBlock: AJUNOK_clean_linker_0, # of connection points: 2
#     Edge 11, Type (0, 1), BuildingBlock: AJUNOK_clean_linker_0, # of connection points: 2
#     Edge 12, Type (0, 1), BuildingBlock: AJUNOK_clean_linker_0, # of connection points: 2
#     Edge 13, Type (0, 1), BuildingBlock: AJUNOK_clean_linker_0, # of connection points: 2
#     Edge 14, Type (0, 1), BuildingBlock: AJUNOK_clean_linker_0, # of connection points: 2
#     Edge 15, Type (0, 1), BuildingBlock: AJUNOK_clean_linker_0, # of connection points: 2
#     Edge 16, Type (0, 1), BuildingBlock: AJUNOK_clean_linker_0, # of connection points: 2
#     Edge 17, Type (0, 1), BuildingBlock: AJUNOK_clean_linker_0, # of connection points: 2
# Relax obj value: 0.145
# Max RMSD: 0.163
# Mean RMSD: 0.130
data_MOF--net-tsx--node1-JUFBIX_clean_sbu_0--node2-BELTOD_clean_linker_0--edge1-AJUNOK_clean_linker_0
_symmetry_space_group_name_H-M    P1
_symmetry_Int_Tables_number       1
_symmetry_cell_setting            triclinic
loop_
_symmetry_equiv_pos_as_xyz
'x, y, z'
_cell_length_a     17.4847
_cell_length_b     20.696374
_cell_length_c     31.165042
_cell_angle_alpha  93.091331
_cell_angle_beta   89.289196
_cell_angle_gamma 100.40477
loop_
_atom_site_label
_atom_site_type_symbol
_atom_site_fract_x
_atom_site_fract_y
_atom_site_fract_z
_atom_type_partial_charge
Co0 Co 0.05722 0.96873 0.00136 0.0
C1 C 1.00082 0.99609 0.92201 0.0
Co2 Co 0.96105 0.02567 0.00494 0.0
C3 C 0.1582 0.86972 0.009 0.0
C4 C 0.2074 0.95171 0.97224 0.0
N5 N 0.1431 0.9268 -0.00544 0.0
N6 N 0.22986 0.85941 -0.00301 0.0
C7 C 0.26068 0.91091 0.97399 0.0
H8 H 0.11801 0.83682 0.02809 0.0
H9 H 0.21513 0.99673 0.95534 0.0
C10 C 0.0206 0.9991 0.08415 0.0
N11 N 0.8763 0.06817 0.01128 0.0
C12 C 0.85755 0.11694 0.98867 0.0
C13 C 0.82111 0.05787 0.04195 0.0
N14 N 0.79291 0.13782 0.00412 0.0
C15 C 0.77053 0.10084 0.03798 0.0
C16 C 0.91603 0.88838 0.00357 0.0
O17 O 0.06618 0.97025 0.0613 0.0
O18 O 0.96978 0.0252 0.06602 0.0
O19 O 0.89252 0.94309 0.0043 0.0
O20 O 0.98853 0.88743 0.00208 0.0
O21 O 0.95463 0.02566 0.94403 0.0
H22 H 0.819 0.02256 0.06649 0.0
H23 H 0.89154 0.13729 0.96172 0.0
O24 O 0.04827 0.96789 0.94122 0.0
O25 O 0.12422 0.05114 0.0016 0.0
O26 O 0.03031 0.10827 0.00582 0.0
C27 C 0.10255 0.10648 0.00454 0.0
H28 H 0.31738 0.91773 0.95877 0.0
H29 H 0.72344 0.10624 0.0599 0.0
Co30 Co 0.55277 0.49725 0.50349 0.0
C31 C 0.49487 0.52838 0.42598 0.0
Co32 Co 0.45627 0.55341 0.51017 0.0
C33 C 0.64993 0.39578 0.50795 0.0
C34 C 0.70264 0.47919 0.47347 0.0
N35 N 0.63773 0.45477 0.49543 0.0
N36 N 0.72022 0.38338 0.49494 0.0
C37 C 0.75335 0.43586 0.4734 0.0
H38 H 0.6083 0.36269 0.52614 0.0
H39 H 0.71219 0.52522 0.45769 0.0
C40 C 0.51628 0.5232 0.58777 0.0
N41 N 0.37173 0.59613 0.51766 0.0
C42 C 0.3587 0.65139 0.50003 0.0
C43 C 0.30758 0.57597 0.54138 0.0
N44 N 0.2886 0.66575 0.51137 0.0
C45 C 0.25628 0.61851 0.53744 0.0
C46 C 0.41101 0.41536 0.50594 0.0
O47 O 0.56142 0.49552 0.56367 0.0
O48 O 0.46594 0.55111 0.57073 0.0
O49 O 0.38708 0.46996 0.509 0.0
O50 O 0.4836 0.41571 0.50258 0.0
O51 O 0.44794 0.55521 0.44933 0.0
H52 H 0.29845 0.53279 0.56019 0.0
H53 H 0.39911 0.67985 0.47861 0.0
O54 O 0.54375 0.49977 0.44358 0.0
O55 O 0.62079 0.57941 0.5047 0.0
O56 O 0.52693 0.63645 0.51159 0.0
C57 C 0.59915 0.63474 0.50822 0.0
H58 H 0.80945 0.44147 0.45754 0.0
H59 H 0.19999 0.61542 0.55285 0.0
P60 P 0.07848 0.07459 0.41534 0.0
H61 H 0.04189 0.10969 0.50364 0.0
H62 H 0.94389 0.16998 0.53451 0.0
H63 H 0.82963 0.15163 0.41132 0.0
H64 H 0.92739 0.09273 0.38104 0.0
H65 H 0.22426 0.02898 0.40632 0.0
H66 H 0.26933 0.93078 0.42763 0.0
H67 H 0.04561 0.86319 0.4859 0.0
H68 H 1.00008 0.96108 0.4628 0.0
H69 H 0.15075 0.14653 0.34254 0.0
H70 H 0.98113 0.97162 0.36282 0.0
O71 O 0.15043 0.13844 0.42506 0.0
H72 H 0.13723 0.1255 0.26477 0.0
H73 H 0.96678 0.95091 0.28466 0.0
C74 C 0.99238 0.0966 0.44024 0.0
C75 C 0.99412 0.11661 0.4839 0.0
C76 C 0.93816 0.15109 0.50138 0.0
C77 C 0.87885 0.16534 0.47534 0.0
C78 C 0.87362 0.14035 0.43244 0.0
C79 C 0.9301 0.10665 0.41499 0.0
C80 C 0.10967 0.00304 0.43415 0.0
C81 C 0.18506 0.99316 0.42399 0.0
C82 C 0.2108 0.93694 0.43628 0.0
C83 C 0.16159 0.88913 0.45909 0.0
C84 C 0.08515 0.89869 0.4684 0.0
C85 C 0.05919 0.95503 0.45571 0.0
C86 C 0.06693 0.06049 0.35828 0.0
C87 C 0.11056 0.10367 0.3303 0.0
C88 C 0.10308 0.09157 0.28594 0.0
C89 C 0.05147 0.03639 0.26906 0.0
C90 C 1.00695 0.99371 0.29713 0.0
C91 C 0.01518 0.00542 0.34154 0.0
P92 P 0.08729 0.97255 0.59245 0.0
H93 H 0.03488 0.83224 0.58481 0.0
H94 H 0.91595 0.76268 0.55845 0.0
H95 H 0.82821 0.93441 0.52291 0.0
H96 H 0.9494 0.00485 0.54955 0.0
H97 H 0.19458 0.0029 0.5217 0.0
H98 H 0.26183 0.10623 0.49418 0.0
H99 H 0.13669 0.21356 0.58508 0.0
H100 H 0.0664 0.1095 0.61073 0.0
H101 H 0.18919 0.99876 0.66649 0.0
H102 H 0.94404 0.98218 0.64149 0.0
O103 O 0.15733 0.92727 0.58934 0.0
H104 H 0.16416 0.01006 0.74367 0.0
H105 H 0.9186 0.9921 0.71869 0.0
C106 C 1.00181 0.92352 0.56809 0.0
C107 C 0.99088 0.85517 0.57072 0.0
C108 C 0.92272 0.81538 0.55569 0.0
C109 C 0.863 0.84308 0.53845 0.0
C110 C 0.87337 0.91186 0.53612 0.0
C111 C 0.94258 0.95195 0.55094 0.0
C112 C 0.1251 0.04845 0.56788 0.0
C113 C 0.17959 0.04854 0.53461 0.0
C114 C 0.21871 0.10771 0.51931 0.0
C115 C 0.20461 0.16815 0.53738 0.0
C116 C 0.14788 0.16789 0.56988 0.0
C117 C 0.10803 0.1084 0.58482 0.0
C118 C 0.06834 0.98788 0.64846 0.0
C119 C 0.13008 0.99783 0.6776 0.0
C120 C 0.11573 0.00429 0.72158 0.0
C121 C 0.0394 1.00143 0.73702 0.0
C122 C 0.97799 0.9949 0.70758 0.0
C123 C 0.99248 0.98852 0.66349 0.0
P124 P 0.61449 0.56529 0.91741 0.0
H125 H 0.57193 0.68935 0.90456 0.0
H126 H 0.4729 0.74708 0.93501 0.0
H127 H 0.38577 0.58214 0.01189 0.0
H128 H 0.48751 0.5238 0.98122 0.0
H129 H 0.74738 0.53438 0.9616 0.0
H130 H 0.78138 0.43263 0.98338 0.0
H131 H 0.56356 0.3255 0.93202 0.0
H132 H 0.52608 0.4297 0.91497 0.0
H133 H 0.71531 0.57371 0.84198 0.0
H134 H 0.47003 0.52212 0.8692 0.0
O135 O 0.69561 0.62172 0.92263 0.0
H136 H 0.68817 0.55994 0.76484 0.0
H137 H 0.44263 0.50728 0.79202 0.0
C138 C 0.53801 0.60302 0.94126 0.0
C139 C 0.53195 0.66543 0.92812 0.0
C140 C 0.47536 0.69842 0.94551 0.0
C141 C 0.42248 0.66936 0.97609 0.0
C142 C 0.42635 0.60559 0.98847 0.0
C143 C 0.48429 0.57245 0.9711 0.0
C144 C 0.63299 0.49012 0.93818 0.0
C145 C 0.70518 0.48955 0.95686 0.0
C146 C 0.72543 0.43079 0.96838 0.0
C147 C 0.67539 0.37045 0.9596 0.0
C148 C 0.60285 0.37097 0.94045 0.0
C149 C 0.5814 0.43052 0.93041 0.0
C150 C 0.59449 0.55061 0.86107 0.0
C151 C 0.65566 0.55933 0.83132 0.0
C152 C 0.64016 0.5511 0.78734 0.0
C153 C 0.56322 0.53371 0.77257 0.0
C154 C 0.50228 0.52229 0.80259 0.0
C155 C 0.51788 0.53052 0.84659 0.0
P156 P 0.53807 0.4754 0.09771 0.0
H157 H 0.53103 0.38976 0.02138 0.0
H158 H 0.42395 0.31075 0.98877 0.0
H159 H 0.26103 0.39296 0.07073 0.0
H160 H 0.36838 0.47431 0.10168 0.0
H161 H 0.69204 0.49309 0.05895 0.0
H162 H 0.77677 0.58803 0.03172 0.0
H163 H 0.59563 0.7035 0.05374 0.0
H164 H 0.50975 0.60659 0.07953 0.0
H165 H 0.42864 0.4092 0.15971 0.0
H166 H 0.59371 0.59112 0.15534 0.0
O167 O 0.594 0.41923 0.10404 0.0
H168 H 0.4103 0.43094 0.2368 0.0
H169 H 0.57516 0.61259 0.232 0.0
C170 C 0.45766 0.43583 0.06494 0.0
C171 C 0.472 0.39247 0.03105 0.0
C172 C 0.4109 0.34731 0.01261 0.0
C173 C 0.33482 0.34457 0.02838 0.0
C174 C 0.31938 0.39369 0.05843 0.0
C175 C 0.38075 0.43966 0.07643 0.0
C176 C 0.59483 0.54303 0.07141 0.0
C177 C 0.66985 0.53842 0.05719 0.0
C178 C 0.71855 0.59308 0.04177 0.0
C179 C 0.6933 0.65361 0.04015 0.0
C180 C 0.61672 0.65743 0.05325 0.0
C181 C 0.56761 0.60223 0.06838 0.0
C182 C 0.51056 0.49948 0.15123 0.0
C183 C 0.45842 0.45506 0.1748 0.0
C184 C 0.44806 0.46734 0.21882 0.0
C185 C 0.49122 0.52345 0.24 0.0
C186 C 0.54102 0.56915 0.21615 0.0
C187 C 0.55112 0.557 0.17218 0.0
C188 C 0.14477 0.22888 0.0001 0.0
C189 C 0.16193 0.16717 0.00935 0.0
C190 C 0.20112 0.28654 0.0055 0.0
C191 C 0.27624 0.28405 0.02018 0.0
H192 H 0.08761 0.23264 0.98859 0.0
H193 H 0.18594 0.33323 -0.00176 0.0
S194 S 0.34736 0.13618 0.05387 0.0
N195 N 0.25793 0.10826 0.03697 0.0
N196 N 0.36262 0.21603 0.04728 0.0
C197 C 0.29339 0.22292 0.03033 0.0
C198 C 0.23657 0.16461 0.02484 0.0
C199 C 0.34477 0.81759 0.01925 0.0
C200 C 0.26783 0.80483 0.00417 0.0
C201 C 0.39239 0.77005 0.01441 0.0
C202 C 0.36488 0.70806 -0.00597 0.0
H203 H 0.36991 0.86646 0.03193 0.0
H204 H 0.45306 0.78371 0.02346 0.0
S205 S 0.16532 0.6479 0.95314 0.0
N206 N 0.16391 0.72395 0.97187 0.0
N207 N 0.2538 0.63424 0.96233 0.0
C208 C 0.28613 0.69263 0.98219 0.0
C209 C 0.2374 0.74119 0.98737 0.0
C210 C 0.88118 0.77761 0.03267 0.0
C211 C 0.85976 0.8272 0.00896 0.0
C212 C 0.82693 0.72202 0.04242 0.0
C213 C 0.74938 0.71293 0.02802 0.0
H214 H 0.93959 0.78293 0.0453 0.0
H215 H 0.84578 0.68674 0.06245 0.0
S216 S 0.6665 0.82642 0.96114 0.0
N217 N 0.7574 0.86321 0.96956 0.0
N218 N 0.65589 0.75704 0.98617 0.0
C219 C 0.72801 0.76146 0.00301 0.0
C220 C 0.7831 0.81887 -0.00619 0.0
C221 C 0.80799 0.24533 0.97092 0.0
C222 C 0.76019 0.1928 -0.00961 0.0
C223 C 0.77934 0.30129 0.96015 0.0
C224 C 0.70175 0.3079 0.96883 0.0
H225 H 0.86883 0.24429 0.96489 0.0
H226 H 0.81891 0.3401 0.94518 0.0
S227 S 0.55036 0.18253 0.0163 0.0
N228 N 0.6289 0.14864 0.01432 0.0
N229 N 0.57665 0.25581 -0.00319 0.0
C230 C 0.65254 0.25511 0.98723 0.0
C231 C 0.68138 0.19733 -0.00252 0.0
C232 C 0.73204 0.69235 0.49012 0.0
C233 C 0.65967 0.69506 0.50977 0.0
C234 C 0.79596 0.74303 0.49708 0.0
C235 C 0.7904 0.79856 0.52412 0.0
H236 H 0.74039 0.64938 0.47046 0.0
H237 H 0.85133 0.73726 0.48279 0.0
S238 S 0.61243 0.83281 0.58009 0.0
N239 N 0.58439 0.76047 0.55456 0.0
N240 N 0.70538 0.85586 0.56814 0.0
C241 C 0.7172 0.80424 0.54168 0.0
C242 C 0.65159 0.75243 0.53438 0.0
C243 C 0.8329 0.33208 0.50914 0.0
C244 C 0.7535 0.32534 0.4993 0.0
C245 C 0.8715 0.27839 0.50474 0.0
C246 C 0.83231 0.21598 0.48974 0.0
H247 H 0.86619 0.38011 0.51829 0.0
H248 H 0.93368 0.287 0.51022 0.0
S249 S 0.62221 0.17088 0.46415 0.0
N250 N 0.63535 0.25043 0.47763 0.0
N251 N 0.70797 0.14911 0.46904 0.0
C252 C 0.75174 0.20761 0.48247 0.0
C253 C 0.71223 0.26235 0.48743 0.0
C254 C 0.38544 0.29435 0.51609 0.0
C255 C 0.35603 0.35211 0.50975 0.0
C256 C 0.33585 0.23503 0.52386 0.0
C257 C 0.25462 0.23067 0.52541 0.0
H258 H 0.44756 0.29516 0.51641 0.0
H259 H 0.36171 0.1927 0.53012 0.0
S260 S 0.14701 0.36516 0.50599 0.0
N261 N 0.23954 0.39979 0.50241 0.0
N262 N 0.14645 0.28766 0.51633 0.0
C263 C 0.22402 0.28718 0.5174 0.0
C264 C 0.27462 0.34793 0.50967 0.0
C265 C 0.29961 0.7843 0.50128 0.0
C266 C 0.25539 0.72054 0.49869 0.0
C267 C 0.26809 0.83838 0.48938 0.0
C268 C 0.19154 0.83066 0.47347 0.0
H269 H 0.35866 0.79241 0.51323 0.0
H270 H 0.30413 0.88675 0.49283 0.0
S271 S 0.05361 0.67217 0.45831 0.0
N272 N 0.13217 0.65181 0.4787 0.0
N273 N 0.07356 0.75273 0.45445 0.0
C274 C 0.14693 0.76666 0.47052 0.0
C275 C 0.17875 0.71181 0.48346 0.0
C276 C 0.96431 0.01168 0.15747 0.0
C277 C 0.0289 0.00517 0.13129 0.0
C278 C 0.97163 0.02013 0.20224 0.0
C279 C 0.04406 0.02371 0.22212 0.0
H280 H 0.90773 0.01025 0.14327 0.0
H281 H 0.92075 0.02544 0.22136 0.0
S282 S 0.23087 0.0096 0.16822 0.0
N283 N 0.16748 0.00233 0.12864 0.0
N284 N 0.18113 0.01925 0.21277 0.0
C285 C 0.10892 0.01697 0.19643 0.0
C286 C 0.10134 0.00735 0.15098 0.0
C287 C 0.04578 0.95338 0.8519 0.0
C288 C 1.00326 0.99592 0.87454 0.0
C289 C 0.05597 0.95524 0.80749 0.0
C290 C 0.02414 0.99968 0.78377 0.0
H291 H 0.0725 0.91866 0.86862 0.0
H292 H 0.08946 0.92166 0.79157 0.0
S293 S 0.90665 0.1208 0.82702 0.0
N294 N 0.92749 0.08306 0.86958 0.0
N295 N 0.94721 0.08656 0.78562 0.0
C296 C 0.97979 0.04146 0.80556 0.0
C297 C 0.96925 0.03959 0.85106 0.0
C298 C 0.57712 0.48996 0.65336 0.0
C299 C 0.524 0.52429 0.63514 0.0
C300 C 0.5885 0.49241 0.69785 0.0
C301 C 0.54702 0.52902 0.72587 0.0
H302 H 0.61089 0.46133 0.63315 0.0
H303 H 0.63029 0.46555 0.71043 0.0
S304 S 0.40201 0.62851 0.69498 0.0
N305 N 0.42944 0.59623 0.64901 0.0
N306 N 0.45163 0.60103 0.73258 0.0
C307 C 0.49319 0.56302 0.70831 0.0
C308 C 0.48152 0.56063 0.66297 0.0
C309 C 0.42551 0.53203 0.35649 0.0
C310 C 0.49478 0.53114 0.37879 0.0
C311 C 0.42441 0.53028 0.31137 0.0
C312 C 0.4929 0.52929 0.28742 0.0
H313 H 0.37154 0.53216 0.37392 0.0
H314 H 0.3698 0.52937 0.2951 0.0
S315 S 0.68962 0.52939 0.3305 0.0
N316 N 0.63377 0.5311 0.37347 0.0
N317 N 0.63159 0.52848 0.28901 0.0
C318 C 0.56265 0.53003 0.30938 0.0
C319 C 0.56363 0.53083 0.35502 0.0
loop_
_geom_bond_atom_site_label_1
_geom_bond_atom_site_label_2
_geom_bond_distance
_geom_bond_site_symmetry_2
_ccdc_geom_bond_type
Co0 N5 2.057 . S
Co0 O17 2.021 . S
Co0 O20 2.062 1_455 S
Co0 O24 2.117 1_554 S
Co0 O25 2.020 1_565 S
C1 O21 1.259 1_455 S
C1 O24 1.258 1_545 S
Co2 N11 2.057 . S
Co2 O18 2.117 . S
Co2 O19 2.020 1_545 S
Co2 O21 2.021 1_554 S
Co2 O26 2.062 1_655 S
C3 N5 1.316 . S
C3 N6 1.347 . S
C3 H8 0.931 . S
C4 N5 1.375 1_556 S
C4 C7 1.350 . S
C4 H9 0.930 . S
N5 Co0 2.057 . S
N5 C3 1.316 . S
N5 C4 1.375 1_554 S
N6 C3 1.347 . S
N6 C7 1.373 1_554 S
C7 C4 1.350 . S
C7 N6 1.373 1_556 S
C7 H28 0.931 . S
H8 C3 0.931 . S
H9 C4 0.930 . S
C10 O17 1.259 1_545 S
C10 O18 1.258 1_455 S
N11 Co2 2.057 . S
N11 C12 1.316 . S
N11 C13 1.375 . S
C12 N11 1.316 . S
C12 N14 1.347 . S
C12 H23 0.931 1_554 S
C13 N11 1.375 . S
C13 C15 1.350 . S
C13 H22 0.930 . S
N14 C12 1.347 . S
N14 C15 1.373 . S
C15 C13 1.350 . S
C15 N14 1.373 . S
C15 H29 0.931 . S
C16 O19 1.256 . S
C16 O20 1.255 . S
O17 Co0 2.021 . S
O17 C10 1.259 1_565 S
O18 Co2 2.117 . S
O18 C10 1.258 1_655 S
O19 Co2 2.020 1_565 S
O19 C16 1.256 . S
O20 Co0 2.062 1_655 S
O20 C16 1.255 . S
O21 C1 1.259 1_655 S
O21 Co2 2.021 1_556 S
H22 C13 0.930 . S
H23 C12 0.931 1_556 S
O24 Co0 2.117 1_556 S
O24 C1 1.258 1_565 S
O25 Co0 2.020 1_545 S
O25 C27 1.256 . S
O26 Co2 2.062 1_455 S
O26 C27 1.255 . S
C27 O25 1.256 . S
C27 O26 1.255 . S
H28 C7 0.931 . S
H29 C15 0.931 . S
Co30 N35 2.057 . S
Co30 O47 2.021 . S
Co30 O50 2.062 . S
Co30 O54 2.117 . S
Co30 O55 2.020 . S
C31 O51 1.259 . S
C31 O54 1.258 . S
Co32 N41 2.057 . S
Co32 O48 2.117 . S
Co32 O49 2.020 . S
Co32 O51 2.021 . S
Co32 O56 2.062 . S
C33 N35 1.316 . S
C33 N36 1.347 . S
C33 H38 0.931 . S
C34 N35 1.375 . S
C34 C37 1.350 . S
C34 H39 0.930 . S
N35 Co30 2.057 . S
N35 C33 1.316 . S
N35 C34 1.375 . S
N36 C33 1.347 . S
N36 C37 1.373 . S
C37 C34 1.350 . S
C37 N36 1.373 . S
C37 H58 0.931 . S
H38 C33 0.931 . S
H39 C34 0.930 . S
C40 O47 1.259 . S
C40 O48 1.258 . S
N41 Co32 2.057 . S
N41 C42 1.316 . S
N41 C43 1.375 . S
C42 N41 1.316 . S
C42 N44 1.347 . S
C42 H53 0.931 . S
C43 N41 1.375 . S
C43 C45 1.350 . S
C43 H52 0.930 . S
N44 C42 1.347 . S
N44 C45 1.373 . S
C45 C43 1.350 . S
C45 N44 1.373 . S
C45 H59 0.931 . S
C46 O49 1.256 . S
C46 O50 1.255 . S
O47 Co30 2.021 . S
O47 C40 1.259 . S
O48 Co32 2.117 . S
O48 C40 1.258 . S
O49 Co32 2.020 . S
O49 C46 1.256 . S
O50 Co30 2.062 . S
O50 C46 1.255 . S
O51 C31 1.259 . S
O51 Co32 2.021 . S
H52 C43 0.930 . S
H53 C42 0.931 . S
O54 Co30 2.117 . S
O54 C31 1.258 . S
O55 Co30 2.020 . S
O55 C57 1.256 . S
O56 Co32 2.062 . S
O56 C57 1.255 . S
C57 O55 1.256 . S
C57 O56 1.255 . S
H58 C37 0.931 . S
H59 C45 0.931 . S
P60 O71 1.490 . S
P60 C74 1.812 . S
P60 C80 1.803 1_545 S
P60 C86 1.819 . S
H61 C75 0.941 . S
H62 C76 0.939 . S
H63 C78 0.940 . S
H64 C79 0.940 . S
H65 C81 0.939 1_545 S
H66 C82 0.942 . S
H67 C84 0.940 . S
H68 C85 0.929 1_655 S
H69 C87 0.941 . S
H70 C91 0.939 . S
O71 P60 1.490 . S
H72 C88 0.939 . S
H73 C90 0.940 . S
C74 P60 1.812 . S
C74 C75 1.389 . S
C74 C79 1.391 1_455 S
C75 H61 0.941 . S
C75 C74 1.389 . S
C75 C76 1.397 1_455 S
C76 H62 0.939 . S
C76 C75 1.397 1_655 S
C76 C77 1.378 . S
C77 C76 1.378 . S
C77 C78 1.378 . S
C78 H63 0.940 . S
C78 C77 1.378 . S
C78 C79 1.396 . S
C79 H64 0.940 . S
C79 C74 1.391 1_655 S
C79 C78 1.396 . S
C80 P60 1.803 1_565 S
C80 C81 1.378 . S
C80 C85 1.400 . S
C81 H65 0.939 1_565 S
C81 C80 1.378 . S
C81 C82 1.361 . S
C82 H66 0.942 . S
C82 C81 1.361 . S
C82 C83 1.369 . S
C83 C82 1.369 . S
C83 C84 1.404 . S
C84 H67 0.940 . S
C84 C83 1.404 . S
C84 C85 1.389 . S
C85 H68 0.929 1_455 S
C85 C80 1.400 . S
C85 C84 1.389 . S
C86 P60 1.819 . S
C86 C87 1.391 . S
C86 C91 1.391 1_545 S
C87 H69 0.941 . S
C87 C86 1.391 . S
C87 C88 1.396 . S
C88 H72 0.939 . S
C88 C87 1.396 . S
C88 C89 1.397 . S
C89 C88 1.397 . S
C89 C90 1.385 1_545 S
C90 H73 0.940 . S
C90 C89 1.385 1_565 S
C90 C91 1.388 . S
C91 H70 0.939 . S
C91 C86 1.391 1_565 S
C91 C90 1.388 . S
P92 O103 1.490 . S
P92 C106 1.812 1_455 S
P92 C112 1.803 1_565 S
P92 C118 1.819 . S
H93 C107 0.941 1_455 S
H94 C108 0.939 . S
H95 C110 0.940 . S
H96 C111 0.940 . S
H97 C113 0.939 . S
H98 C114 0.942 . S
H99 C116 0.940 . S
H100 C117 0.939 . S
H101 C119 0.941 . S
H102 C123 0.939 . S
O103 P92 1.490 . S
H104 C120 0.939 . S
H105 C122 0.940 . S
C106 P92 1.812 1_655 S
C106 C107 1.389 . S
C106 C111 1.391 . S
C107 H93 0.941 1_655 S
C107 C106 1.389 . S
C107 C108 1.397 . S
C108 H94 0.939 . S
C108 C107 1.397 . S
C108 C109 1.378 . S
C109 C108 1.378 . S
C109 C110 1.378 . S
C110 H95 0.940 . S
C110 C109 1.378 . S
C110 C111 1.396 . S
C111 H96 0.940 . S
C111 C106 1.391 . S
C111 C110 1.396 . S
C112 P92 1.803 1_545 S
C112 C113 1.378 . S
C112 C117 1.400 . S
C113 H97 0.939 . S
C113 C112 1.378 . S
C113 C114 1.361 . S
C114 H98 0.942 . S
C114 C113 1.361 . S
C114 C115 1.369 . S
C115 C114 1.369 . S
C115 C116 1.404 . S
C116 H99 0.940 . S
C116 C115 1.404 . S
C116 C117 1.389 . S
C117 H100 0.939 . S
C117 C112 1.400 . S
C117 C116 1.389 . S
C118 P92 1.819 . S
C118 C119 1.391 . S
C118 C123 1.391 1_565 S
C119 H101 0.941 . S
C119 C118 1.391 . S
C119 C120 1.396 . S
C120 H104 0.939 . S
C120 C119 1.396 . S
C120 C121 1.397 1_565 S
C121 C120 1.397 1_545 S
C121 C122 1.385 . S
C122 H105 0.940 . S
C122 C121 1.385 . S
C122 C123 1.388 . S
C123 H102 0.939 . S
C123 C118 1.391 1_545 S
C123 C122 1.388 . S
P124 O135 1.490 . S
P124 C138 1.812 . S
P124 C144 1.803 . S
P124 C150 1.819 . S
H125 C139 0.941 . S
H126 C140 0.939 . S
H127 C142 0.940 . S
H128 C143 0.940 . S
H129 C145 0.939 . S
H130 C146 0.942 . S
H131 C148 0.931 1_554 S
H132 C149 0.939 . S
H133 C151 0.941 . S
H134 C155 0.939 . S
O135 P124 1.490 . S
H136 C152 0.939 . S
H137 C154 0.940 . S
C138 P124 1.812 . S
C138 C139 1.389 . S
C138 C143 1.391 . S
C139 H125 0.941 . S
C139 C138 1.389 . S
C139 C140 1.397 1_556 S
C140 H126 0.939 . S
C140 C139 1.397 1_554 S
C140 C141 1.378 1_554 S
C141 C140 1.378 1_556 S
C141 C142 1.378 . S
C142 H127 0.940 . S
C142 C141 1.378 . S
C142 C143 1.396 . S
C143 H128 0.940 . S
C143 C138 1.391 . S
C143 C142 1.396 . S
C144 P124 1.803 . S
C144 C145 1.378 . S
C144 C149 1.400 . S
C145 H129 0.939 . S
C145 C144 1.378 . S
C145 C146 1.361 . S
C146 H130 0.942 . S
C146 C145 1.361 . S
C146 C147 1.369 . S
C147 C146 1.369 . S
C147 C148 1.404 . S
C148 H131 0.931 1_556 S
C148 C147 1.404 . S
C148 C149 1.389 . S
C149 H132 0.939 . S
C149 C144 1.400 . S
C149 C148 1.389 . S
C150 P124 1.819 . S
C150 C151 1.391 . S
C150 C155 1.391 . S
C151 H133 0.941 . S
C151 C150 1.391 . S
C151 C152 1.396 . S
C152 H136 0.939 . S
C152 C151 1.396 . S
C152 C153 1.397 . S
C153 C152 1.397 . S
C153 C154 1.385 . S
C154 H137 0.940 . S
C154 C153 1.385 . S
C154 C155 1.388 . S
C155 H134 0.939 . S
C155 C150 1.391 . S
C155 C154 1.388 . S
P156 O167 1.490 . S
P156 C170 1.812 . S
P156 C176 1.803 . S
P156 C182 1.819 . S
H157 C171 0.941 . S
H158 C172 0.939 1_556 S
H159 C174 0.940 . S
H160 C175 0.940 . S
H161 C177 0.939 . S
H162 C178 0.942 . S
H163 C180 0.940 . S
H164 C181 0.939 . S
H165 C183 0.941 . S
H166 C187 0.939 . S
O167 P156 1.490 . S
H168 C184 0.939 . S
H169 C186 0.940 . S
C170 P156 1.812 . S
C170 C171 1.389 . S
C170 C175 1.391 . S
C171 H157 0.941 . S
C171 C170 1.389 . S
C171 C172 1.397 . S
C172 H158 0.939 1_554 S
C172 C171 1.397 . S
C172 C173 1.378 . S
C173 C172 1.378 . S
C173 C174 1.378 . S
C174 H159 0.940 . S
C174 C173 1.378 . S
C174 C175 1.396 . S
C175 H160 0.940 . S
C175 C170 1.391 . S
C175 C174 1.396 . S
C176 P156 1.803 . S
C176 C177 1.378 . S
C176 C181 1.400 . S
C177 H161 0.939 . S
C177 C176 1.378 . S
C177 C178 1.361 . S
C178 H162 0.942 . S
C178 C177 1.361 . S
C178 C179 1.369 . S
C179 C178 1.369 . S
C179 C180 1.404 . S
C180 H163 0.940 . S
C180 C179 1.404 . S
C180 C181 1.389 . S
C181 H164 0.939 . S
C181 C176 1.400 . S
C181 C180 1.389 . S
C182 P156 1.819 . S
C182 C183 1.391 . S
C182 C187 1.391 . S
C183 H165 0.941 . S
C183 C182 1.391 . S
C183 C184 1.396 . S
C184 H168 0.939 . S
C184 C183 1.396 . S
C184 C185 1.397 . S
C185 C184 1.397 . S
C185 C186 1.385 . S
C186 H169 0.940 . S
C186 C185 1.385 . S
C186 C187 1.388 . S
C187 H166 0.939 . S
C187 C182 1.391 . S
C187 C186 1.388 . S
C188 C189 1.369 1_556 S
C188 C190 1.419 . S
C188 H192 0.930 . S
C189 C188 1.369 1_554 S
C189 C198 1.429 . S
C190 C188 1.419 . S
C190 C191 1.363 1_556 S
C190 H193 0.929 . S
C191 C190 1.363 1_554 S
C191 C197 1.428 . S
H192 C188 0.930 . S
H193 C190 0.929 . S
S194 N195 1.613 . S
S194 N196 1.610 . S
N195 S194 1.613 . S
N195 C198 1.350 . S
N196 S194 1.610 . S
N196 C197 1.351 . S
C197 C191 1.428 . S
C197 N196 1.351 . S
C197 C198 1.434 . S
C198 C189 1.429 . S
C198 N195 1.350 . S
C198 C197 1.434 . S
C199 C200 1.369 . S
C199 C201 1.419 . S
C199 H203 0.930 . S
C200 C199 1.369 . S
C200 C209 1.429 1_554 S
C201 C199 1.419 . S
C201 C202 1.363 . S
C201 H204 0.929 . S
C202 C201 1.363 . S
C202 C208 1.428 1_554 S
H203 C199 0.930 . S
H204 C201 0.929 . S
S205 N206 1.613 . S
S205 N207 1.610 . S
N206 S205 1.613 . S
N206 C209 1.350 . S
N207 S205 1.610 . S
N207 C208 1.351 . S
C208 C202 1.428 1_556 S
C208 N207 1.351 . S
C208 C209 1.434 . S
C209 C200 1.429 1_556 S
C209 N206 1.350 . S
C209 C208 1.434 . S
C210 C211 1.369 . S
C210 C212 1.419 . S
C210 H214 0.930 . S
C211 C210 1.369 . S
C211 C220 1.429 1_554 S
C212 C210 1.419 . S
C212 C213 1.363 . S
C212 H215 0.929 . S
C213 C212 1.363 . S
C213 C219 1.428 1_554 S
H214 C210 0.930 . S
H215 C212 0.929 . S
S216 N217 1.613 . S
S216 N218 1.610 . S
N217 S216 1.613 . S
N217 C220 1.350 . S
N218 S216 1.610 . S
N218 C219 1.351 . S
C219 C213 1.428 1_556 S
C219 N218 1.351 . S
C219 C220 1.434 . S
C220 C211 1.429 1_556 S
C220 N217 1.350 . S
C220 C219 1.434 . S
C221 C222 1.369 1_556 S
C221 C223 1.419 . S
C221 H225 0.930 . S
C222 C221 1.369 1_554 S
C222 C231 1.429 . S
C223 C221 1.419 . S
C223 C224 1.363 1_556 S
C223 H226 0.929 . S
C224 C223 1.363 1_554 S
C224 C230 1.428 . S
H225 C221 0.930 . S
H226 C223 0.929 . S
S227 N228 1.613 . S
S227 N229 1.610 . S
N228 S227 1.613 . S
N228 C231 1.350 . S
N229 S227 1.610 . S
N229 C230 1.351 . S
C230 C224 1.428 . S
C230 N229 1.351 . S
C230 C231 1.434 . S
C231 C222 1.429 . S
C231 N228 1.350 . S
C231 C230 1.434 . S
C232 C233 1.369 . S
C232 C234 1.419 . S
C232 H236 0.930 . S
C233 C232 1.369 . S
C233 C242 1.429 . S
C234 C232 1.419 . S
C234 C235 1.363 . S
C234 H237 0.929 . S
C235 C234 1.363 . S
C235 C241 1.428 . S
H236 C232 0.930 . S
H237 C234 0.929 . S
S238 N239 1.613 . S
S238 N240 1.610 . S
N239 S238 1.613 . S
N239 C242 1.350 . S
N240 S238 1.610 . S
N240 C241 1.351 . S
C241 C235 1.428 . S
C241 N240 1.351 . S
C241 C242 1.434 . S
C242 C233 1.429 . S
C242 N239 1.350 . S
C242 C241 1.434 . S
C243 C244 1.369 . S
C243 C245 1.419 . S
C243 H247 0.930 . S
C244 C243 1.369 . S
C244 C253 1.429 . S
C245 C243 1.419 . S
C245 C246 1.363 . S
C245 H248 0.929 . S
C246 C245 1.363 . S
C246 C252 1.428 . S
H247 C243 0.930 . S
H248 C245 0.929 . S
S249 N250 1.613 . S
S249 N251 1.610 . S
N250 S249 1.613 . S
N250 C253 1.350 . S
N251 S249 1.610 . S
N251 C252 1.351 . S
C252 C246 1.428 . S
C252 N251 1.351 . S
C252 C253 1.434 . S
C253 C244 1.429 . S
C253 N250 1.350 . S
C253 C252 1.434 . S
C254 C255 1.369 . S
C254 C256 1.419 . S
C254 H258 0.930 . S
C255 C254 1.369 . S
C255 C264 1.429 . S
C256 C254 1.419 . S
C256 C257 1.363 . S
C256 H259 0.929 . S
C257 C256 1.363 . S
C257 C263 1.428 . S
H258 C254 0.930 . S
H259 C256 0.929 . S
S260 N261 1.613 . S
S260 N262 1.610 . S
N261 S260 1.613 . S
N261 C264 1.350 . S
N262 S260 1.610 . S
N262 C263 1.351 . S
C263 C257 1.428 . S
C263 N262 1.351 . S
C263 C264 1.434 . S
C264 C255 1.429 . S
C264 N261 1.350 . S
C264 C263 1.434 . S
C265 C266 1.369 . S
C265 C267 1.419 . S
C265 H269 0.930 . S
C266 C265 1.369 . S
C266 C275 1.429 . S
C267 C265 1.419 . S
C267 C268 1.363 . S
C267 H270 0.929 . S
C268 C267 1.363 . S
C268 C274 1.428 . S
H269 C265 0.930 . S
H270 C267 0.929 . S
S271 N272 1.613 . S
S271 N273 1.610 . S
N272 S271 1.613 . S
N272 C275 1.350 . S
N273 S271 1.610 . S
N273 C274 1.351 . S
C274 C268 1.428 . S
C274 N273 1.351 . S
C274 C275 1.434 . S
C275 C266 1.429 . S
C275 N272 1.350 . S
C275 C274 1.434 . S
C276 C277 1.369 1_665 S
C276 C278 1.419 . S
C276 H280 0.930 . S
C277 C276 1.369 1_445 S
C277 C286 1.429 . S
C278 C276 1.419 . S
C278 C279 1.363 1_665 S
C278 H281 0.929 . S
C279 C278 1.363 1_445 S
C279 C285 1.428 . S
H280 C276 0.930 . S
H281 C278 0.929 . S
S282 N283 1.613 . S
S282 N284 1.610 . S
N283 S282 1.613 . S
N283 C286 1.350 . S
N284 S282 1.610 . S
N284 C285 1.351 . S
C285 C279 1.428 . S
C285 N284 1.351 . S
C285 C286 1.434 . S
C286 C277 1.429 . S
C286 N283 1.350 . S
C286 C285 1.434 . S
C287 C288 1.369 1_665 S
C287 C289 1.419 . S
C287 H291 0.930 . S
C288 C287 1.369 1_445 S
C288 C297 1.429 . S
C289 C287 1.419 . S
C289 C290 1.363 1_665 S
C289 H292 0.929 . S
C290 C289 1.363 1_445 S
C290 C296 1.428 . S
H291 C287 0.930 . S
H292 C289 0.929 . S
S293 N294 1.613 . S
S293 N295 1.610 . S
N294 S293 1.613 . S
N294 C297 1.350 . S
N295 S293 1.610 . S
N295 C296 1.351 . S
C296 C290 1.428 . S
C296 N295 1.351 . S
C296 C297 1.434 . S
C297 C288 1.429 . S
C297 N294 1.350 . S
C297 C296 1.434 . S
C298 C299 1.369 . S
C298 C300 1.419 . S
C298 H302 0.930 . S
C299 C298 1.369 . S
C299 C308 1.429 . S
C300 C298 1.419 . S
C300 C301 1.363 . S
C300 H303 0.929 . S
C301 C300 1.363 . S
C301 C307 1.428 . S
H302 C298 0.930 . S
H303 C300 0.929 . S
S304 N305 1.613 . S
S304 N306 1.610 . S
N305 S304 1.613 . S
N305 C308 1.350 . S
N306 S304 1.610 . S
N306 C307 1.351 . S
C307 C301 1.428 . S
C307 N306 1.351 . S
C307 C308 1.434 . S
C308 C299 1.429 . S
C308 N305 1.350 . S
C308 C307 1.434 . S
C309 C310 1.369 . S
C309 C311 1.419 . S
C309 H313 0.930 . S
C310 C309 1.369 . S
C310 C319 1.429 . S
C311 C309 1.419 . S
C311 C312 1.363 . S
C311 H314 0.929 . S
C312 C311 1.363 . S
C312 C318 1.428 . S
H313 C309 0.930 . S
H314 C311 0.929 . S
S315 N316 1.613 . S
S315 N317 1.610 . S
N316 S315 1.613 . S
N316 C319 1.350 . S
N317 S315 1.610 . S
N317 C318 1.351 . S
C318 C312 1.428 . S
C318 N317 1.351 . S
C318 C319 1.434 . S
C319 C310 1.429 . S
C319 N316 1.350 . S
C319 C318 1.434 . S
C191 C173 1.466 . S
C189 C27 1.521 . S
C200 N6 1.427 . S
C202 C141 1.429 1_554 S
C211 C16 1.511 . S
C213 C179 1.458 . S
C222 N14 1.439 . S
C224 C147 1.422 1_554 S
C233 C57 1.521 . S
C235 C109 1.469 . S
C244 N36 1.429 . S
C246 C77 1.430 . S
C257 C115 1.457 . S
C255 C46 1.510 . S
C268 C83 1.420 . S
C266 N44 1.440 . S
C277 C10 1.400 . S
C279 C89 1.367 . S
C288 C1 1.536 . S
C290 C121 1.508 . S
C301 C153 1.369 . S
C299 C40 1.401 . S
C310 C31 1.537 . S
C312 C185 1.506 . S
