# Generated by pormake.
# Topology dag, (6,3)-cn, num edge types: 1
# Building blocks:
#     Node 0, Type 0, BuildingBlock: IZENUY_clean_sbu_0, # of connection points: 6
#     Node 1, Type 0, BuildingBlock: IZENUY_clean_sbu_0, # of connection points: 6
#     Node 2, Type 0, BuildingBlock: IZENUY_clean_sbu_0, # of connection points: 6
#     Node 3, Type 0, BuildingBlock: IZENUY_clean_sbu_0, # of connection points: 6
#     Node 4, Type 1, BuildingBlock: QEWDON_clean_linker_0, # of connection points: 3
#     Node 5, Type 1, BuildingBlock: QEWDON_clean_linker_0, # of connection points: 3
#     Node 6, Type 1, BuildingBlock: QEWDON_clean_linker_0, # of connection points: 3
#     Node 7, Type 1, BuildingBlock: QEWDON_clean_linker_0, # of connection points: 3
#     Node 8, Type 1, BuildingBlock: QEWDON_clean_linker_0, # of connection points: 3
#     Node 9, Type 1, BuildingBlock: QEWDON_clean_linker_0, # of connection points: 3
#     Node 10, Type 1, BuildingBlock: QEWDON_clean_linker_0, # of connection points: 3
#     Node 11, Type 1, BuildingBlock: QEWDON_clean_linker_0, # of connection points: 3
#     Edge 12, Type (0, 1), BuildingBlock: EZIPEK_clean_linker_0, # of connection points: 2
#     Edge 13, Type (0, 1), BuildingBlock: EZIPEK_clean_linker_0, # of connection points: 2
#     Edge 14, Type (0, 1), BuildingBlock: EZIPEK_clean_linker_0, # of connection points: 2
#     Edge 15, Type (0, 1), BuildingBlock: EZIPEK_clean_linker_0, # of connection points: 2
#     Edge 16, Type (0, 1), BuildingBlock: EZIPEK_clean_linker_0, # of connection points: 2
#     Edge 17, Type (0, 1), BuildingBlock: EZIPEK_clean_linker_0, # of connection points: 2
#     Edge 18, Type (0, 1), BuildingBlock: EZIPEK_clean_linker_0, # of connection points: 2
#     Edge 19, Type (0, 1), BuildingBlock: EZIPEK_clean_linker_0, # of connection points: 2
#     Edge 20, Type (0, 1), BuildingBlock: EZIPEK_clean_linker_0, # of connection points: 2
#     Edge 21, Type (0, 1), BuildingBlock: EZIPEK_clean_linker_0, # of connection points: 2
#     Edge 22, Type (0, 1), BuildingBlock: EZIPEK_clean_linker_0, # of connection points: 2
#     Edge 23, Type (0, 1), BuildingBlock: EZIPEK_clean_linker_0, # of connection points: 2
#     Edge 24, Type (0, 1), BuildingBlock: EZIPEK_clean_linker_0, # of connection points: 2
#     Edge 25, Type (0, 1), BuildingBlock: EZIPEK_clean_linker_0, # of connection points: 2
#     Edge 26, Type (0, 1), BuildingBlock: EZIPEK_clean_linker_0, # of connection points: 2
#     Edge 27, Type (0, 1), BuildingBlock: EZIPEK_clean_linker_0, # of connection points: 2
#     Edge 28, Type (0, 1), BuildingBlock: EZIPEK_clean_linker_0, # of connection points: 2
#     Edge 29, Type (0, 1), BuildingBlock: EZIPEK_clean_linker_0, # of connection points: 2
#     Edge 30, Type (0, 1), BuildingBlock: EZIPEK_clean_linker_0, # of connection points: 2
#     Edge 31, Type (0, 1), BuildingBlock: EZIPEK_clean_linker_0, # of connection points: 2
#     Edge 32, Type (0, 1), BuildingBlock: EZIPEK_clean_linker_0, # of connection points: 2
#     Edge 33, Type (0, 1), BuildingBlock: EZIPEK_clean_linker_0, # of connection points: 2
#     Edge 34, Type (0, 1), BuildingBlock: EZIPEK_clean_linker_0, # of connection points: 2
#     Edge 35, Type (0, 1), BuildingBlock: EZIPEK_clean_linker_0, # of connection points: 2
# Relax obj value: 0.043
# Max RMSD: 0.071
# Mean RMSD: 0.067
data_MOF--net-dag--node1-IZENUY_clean_sbu_0--node2-QEWDON_clean_linker_0--edge1-EZIPEK_clean_linker_0
_symmetry_space_group_name_H-M    P1
_symmetry_Int_Tables_number       1
_symmetry_cell_setting            triclinic
loop_
_symmetry_equiv_pos_as_xyz
'x, y, z'
_cell_length_a     30.782941
_cell_length_b     30.895423
_cell_length_c     28.315853
_cell_angle_alpha  90.319568
_cell_angle_beta   90.065005
_cell_angle_gamma 90.087007
loop_
_atom_site_label
_atom_site_type_symbol
_atom_site_fract_x
_atom_site_fract_y
_atom_site_fract_z
_atom_type_partial_charge
Fe0 Fe 0.20163 0.86884 0.00953 0.0
Fe1 Fe 0.1056 0.89283 0.99436 0.0
O2 O 0.14628 0.8529 1.00268 0.0
Fe3 Fe 0.13207 0.79679 1.00425 0.0
O4 O 0.15376 0.79115 0.06379 0.0
O5 O 0.21565 0.82438 0.04989 0.0
O6 O 0.18967 0.90083 0.06159 0.0
C7 C 0.16082 0.92953 0.0648 0.0
C8 C 0.21234 0.79767 0.95357 0.0
O9 O 0.13086 0.93271 0.03426 0.0
C10 C 0.08015 0.82455 0.9317 0.0
O11 O 0.19849 0.9169 0.97156 0.0
O12 O 0.13241 0.91499 0.94268 0.0
O13 O 0.18346 0.77811 0.97732 0.0
O14 O 0.21751 0.83801 0.95765 0.0
C15 C 0.06146 0.83687 0.05252 0.0
O16 O 0.07327 0.85969 0.95363 0.0
O17 O 0.10884 0.79814 0.94511 0.0
C18 C 0.17064 0.9295 0.94184 0.0
O19 O 0.07471 0.87474 0.04498 0.0
O20 O 0.07807 0.80474 0.03134 0.0
C21 C 0.19212 0.80064 0.07578 0.0
Fe22 Fe 0.71631 0.60639 0.50191 0.0
Fe23 Fe 0.64439 0.67565 0.51429 0.0
O24 O 0.66025 0.62017 0.50918 0.0
Fe25 Fe 0.6201 0.57881 0.51131 0.0
O26 O 0.64617 0.55246 0.56099 0.0
O27 O 0.71358 0.55552 0.53549 0.0
O28 O 0.73142 0.63348 0.55679 0.0
C29 C 0.72339 0.67255 0.56646 0.0
C30 C 0.67789 0.54918 0.43972 0.0
O31 O 0.69431 0.69318 0.54446 0.0
C32 C 0.57599 0.63945 0.45903 0.0
O33 O 0.72931 0.65438 0.46602 0.0
O34 O 0.66681 0.6881 0.45656 0.0
O35 O 0.64705 0.54321 0.46845 0.0
O36 O 0.70617 0.57802 0.44671 0.0
C37 C 0.59146 0.6395 0.58104 0.0
O38 O 0.59116 0.66915 0.48517 0.0
O39 O 0.59016 0.6013 0.46176 0.0
C40 C 0.7052 0.68032 0.4434 0.0
O41 O 0.62041 0.66733 0.57235 0.0
O42 O 0.58574 0.60697 0.55437 0.0
C43 C 0.68504 0.53981 0.56263 0.0
Fe44 Fe 0.88646 0.19634 0.01346 0.0
Fe45 Fe 0.91387 0.10203 0.02901 0.0
O46 O 0.87257 0.14043 0.01784 0.0
Fe47 Fe 0.8176 0.12318 0.01162 0.0
O48 O 0.81367 0.14628 0.95306 0.0
O49 O 0.84383 0.20918 0.96993 0.0
O50 O 0.92284 0.18655 0.96414 0.0
C51 C 0.95443 0.16066 0.96524 0.0
C52 C 0.81151 0.20188 0.06456 0.0
O53 O 0.95582 0.13087 0.99578 0.0
C54 C 0.84306 0.07027 0.08343 0.0
O55 O 0.93183 0.19431 0.05596 0.0
O56 O 0.92857 0.12863 0.0841 0.0
O57 O 0.79471 0.17214 0.03939 0.0
O58 O 0.85152 0.21031 0.06262 0.0
C59 C 0.86555 0.0568 0.96402 0.0
O60 O 0.87963 0.06592 0.06386 0.0
O61 O 0.8165 0.09847 0.06971 0.0
C62 C 0.94086 0.16746 0.08802 0.0
O63 O 0.90212 0.07232 0.975 0.0
O64 O 0.8309 0.07093 0.98275 0.0
C65 C 0.82106 0.1853 0.94313 0.0
Fe66 Fe 0.3922 0.41227 0.50641 0.0
Fe67 Fe 0.29875 0.3799 0.51418 0.0
O68 O 0.35488 0.36903 0.50764 0.0
Fe69 Fe 0.37473 0.3152 0.50364 0.0
O70 O 0.42678 0.32725 0.5344 0.0
O71 O 0.41691 0.39298 0.56005 0.0
O72 O 0.36053 0.44907 0.54361 0.0
C73 C 0.33244 0.44079 0.57459 0.0
C74 C 0.4274 0.35324 0.43981 0.0
O75 O 0.30716 0.40906 0.56971 0.0
C76 C 0.29533 0.3123 0.45162 0.0
O77 O 0.36825 0.43353 0.45333 0.0
O78 O 0.30044 0.43002 0.47842 0.0
O79 O 0.39857 0.32498 0.44615 0.0
O80 O 0.43199 0.3844 0.46856 0.0
C81 C 0.31389 0.30738 0.57371 0.0
O82 O 0.28578 0.35126 0.45986 0.0
O83 O 0.32643 0.29393 0.47295 0.0
C84 C 0.32889 0.44423 0.44973 0.0
O85 O 0.28833 0.33188 0.55085 0.0
O86 O 0.35246 0.30139 0.56041 0.0
C87 C 0.43627 0.35749 0.56327 0.0
H88 H 0.18351 0.06734 0.24221 0.0
C89 C 0.1577 0.08756 0.22847 0.0
C90 C 0.13728 0.07595 0.18607 0.0
C91 C 0.14378 0.12407 0.25415 0.0
H92 H 0.08601 0.09099 0.13712 0.0
C93 C 0.10282 0.1009 0.16911 0.0
C94 C 0.08841 0.13724 0.19439 0.0
C95 C 0.10943 0.14934 0.23656 0.0
C96 C 0.16196 0.13232 0.30173 0.0
H97 H 0.09742 0.17664 0.25688 0.0
C98 C 0.18072 0.17248 0.3138 0.0
C99 C 0.19913 0.17863 0.35888 0.0
C100 C 0.16108 0.09899 0.33533 0.0
H101 H 0.14653 0.06794 0.32685 0.0
C102 C 0.17864 0.10546 0.38021 0.0
H103 H 0.18187 0.19835 0.28814 0.0
C104 C 0.19767 0.14503 0.39196 0.0
H105 H 0.21155 0.14943 0.42685 0.0
H106 H 0.1777 0.07964 0.40588 0.0
H107 H 0.44707 0.66699 0.7583 0.0
C108 C 0.42724 0.64327 0.73988 0.0
C109 C 0.44168 0.62573 0.69677 0.0
C110 C 0.38856 0.62814 0.76056 0.0
H111 H 0.42898 0.57872 0.64195 0.0
C112 C 0.41716 0.5933 0.67442 0.0
C113 C 0.37878 0.57784 0.69491 0.0
C114 C 0.36431 0.5956 0.73777 0.0
C115 C 0.37785 0.6399 0.80974 0.0
H116 H 0.33571 0.58229 0.7547 0.0
C117 C 0.3468 0.6719 0.82058 0.0
C118 C 0.33577 0.68039 0.86808 0.0
C119 C 0.39787 0.61691 0.84635 0.0
H120 H 0.42164 0.59205 0.8385 0.0
C121 C 0.38697 0.6253 0.89328 0.0
H122 H 0.33128 0.68985 0.79247 0.0
C123 C 0.35606 0.65673 0.90413 0.0
H124 H 0.34805 0.66285 0.94082 0.0
H125 H 0.40244 0.6073 0.92132 0.0
H126 H 0.88653 0.79074 0.18878 0.0
C127 C 0.87876 0.82491 0.18748 0.0
C128 C 0.90715 0.8537 0.1644 0.0
C129 C 0.83841 0.83975 0.2046 0.0
H130 H 0.9157 0.91875 0.13894 0.0
C131 C 0.89506 0.8971 0.15901 0.0
C132 C 0.85478 0.91183 0.17525 0.0
C133 C 0.82707 0.88346 0.19909 0.0
C134 C 0.80352 0.80891 0.21674 0.0
H135 H 0.79499 0.89446 0.20943 0.0
C136 C 0.79892 0.79157 0.26242 0.0
C137 C 0.76226 0.76594 0.27328 0.0
C138 C 0.77201 0.7998 0.18218 0.0
H139 H 0.77495 0.81313 0.147 0.0
C140 C 0.73608 0.77426 0.19283 0.0
H141 H 0.82304 0.79848 0.28934 0.0
C142 C 0.73105 0.75764 0.2381 0.0
H143 H 0.7028 0.73791 0.24572 0.0
H144 H 0.71187 0.76759 0.166 0.0
H145 H 0.72182 0.35394 0.69701 0.0
C146 C 0.68724 0.35286 0.68993 0.0
C147 C 0.66746 0.38668 0.66462 0.0
C148 C 0.66252 0.3162 0.7027 0.0
H149 H 0.60935 0.40841 0.63027 0.0
C150 C 0.62371 0.3833 0.65193 0.0
C151 C 0.59845 0.34785 0.66556 0.0
C152 C 0.61766 0.31525 0.69264 0.0
C153 C 0.68352 0.27592 0.71961 0.0
H154 H 0.59825 0.28764 0.70324 0.0
C155 C 0.71036 0.27502 0.76 0.0
C156 C 0.72668 0.23515 0.77652 0.0
C157 C 0.67507 0.23706 0.69505 0.0
H158 H 0.65519 0.23692 0.66346 0.0
C159 C 0.69193 0.19796 0.71085 0.0
H160 H 0.71727 0.30465 0.77927 0.0
C161 C 0.71726 0.19688 0.75152 0.0
H162 H 0.72959 0.16604 0.76365 0.0
H163 H 0.68502 0.16831 0.69171 0.0
H164 H 0.67821 0.40603 0.25391 0.0
C165 C 0.65057 0.39365 0.27332 0.0
C166 C 0.63867 0.41298 0.31647 0.0
C167 C 0.62463 0.36048 0.25376 0.0
H168 H 0.59166 0.4142 0.37282 0.0
C169 C 0.60157 0.39847 0.34021 0.0
C170 C 0.57578 0.36556 0.32104 0.0
C171 C 0.58755 0.34624 0.27814 0.0
C172 C 0.63264 0.34412 0.20546 0.0
H173 H 0.56685 0.32142 0.26283 0.0
C174 C 0.67139 0.32255 0.19378 0.0
C175 C 0.67697 0.30531 0.14809 0.0
C176 C 0.60017 0.34905 0.17097 0.0
H177 H 0.57015 0.36567 0.17931 0.0
C178 C 0.60618 0.3327 0.12546 0.0
H179 H 0.6965 0.31826 0.22021 0.0
C180 C 0.64434 0.31082 0.11403 0.0
H181 H 0.64837 0.29788 0.07866 0.0
H182 H 0.58106 0.33673 0.09907 0.0
H183 H 0.21914 0.10788 0.80484 0.0
C184 C 0.18543 0.1147 0.81296 0.0
C185 C 0.15982 0.08294 0.83521 0.0
C186 C 0.16923 0.15705 0.8079 0.0
H187 H 0.09893 0.06975 0.86979 0.0
C188 C 0.11753 0.09318 0.84973 0.0
C189 C 0.10156 0.13521 0.84507 0.0
C190 C 0.12679 0.16658 0.82274 0.0
C191 C 0.19866 0.19381 0.79858 0.0
H192 H 0.11518 0.19971 0.82173 0.0
C193 C 0.2182 0.19995 0.75427 0.0
C194 C 0.24111 0.23857 0.74511 0.0
C195 C 0.20433 0.22518 0.83425 0.0
H196 H 0.18981 0.22082 0.86877 0.0
C197 C 0.22783 0.2628 0.82556 0.0
H198 H 0.21413 0.17588 0.72662 0.0
C199 C 0.24565 0.26978 0.78111 0.0
H200 H 0.26314 0.29965 0.77471 0.0
H201 H 0.23166 0.28693 0.85312 0.0
H202 H 0.40802 0.70526 0.32344 0.0
C203 C 0.39556 0.67245 0.32445 0.0
C204 C 0.41994 0.63996 0.3469 0.0
C205 C 0.35311 0.66358 0.30812 0.0
H206 H 0.41874 0.57499 0.37378 0.0
C207 C 0.40148 0.59894 0.35309 0.0
C208 C 0.35878 0.59043 0.33879 0.0
C209 C 0.33548 0.62199 0.31412 0.0
C210 C 0.32243 0.69939 0.2995 0.0
H211 H 0.30158 0.61613 0.30571 0.0
C212 C 0.30647 0.70891 0.25403 0.0
C213 C 0.27216 0.73883 0.24861 0.0
C214 C 0.30465 0.72043 0.33903 0.0
H215 H 0.31618 0.71304 0.37427 0.0
C216 C 0.27062 0.74962 0.33379 0.0
H217 H 0.32014 0.69286 0.22335 0.0
C218 C 0.25409 0.75838 0.28906 0.0
H219 H 0.22751 0.78113 0.28585 0.0
H220 H 0.25667 0.76518 0.36457 0.0
H221 H 0.91838 0.80826 0.76436 0.0
C222 C 0.90778 0.83496 0.78648 0.0
C223 C 0.93301 0.84743 0.82579 0.0
C224 C 0.87041 0.85884 0.77434 0.0
H225 H 0.94048 0.89316 0.88289 0.0
C226 C 0.92054 0.88322 0.85309 0.0
C227 C 0.8831 0.90671 0.8422 0.0
C228 C 0.85776 0.89402 0.80326 0.0
C229 C 0.84732 0.85099 0.72885 0.0
H230 H 0.82897 0.91253 0.79459 0.0
C231 C 0.83337 0.80929 0.71447 0.0
C232 C 0.81089 0.80384 0.67128 0.0
C233 C 0.83928 0.88643 0.69909 0.0
H234 H 0.85019 0.91864 0.70878 0.0
C235 C 0.81762 0.88081 0.65627 0.0
H236 H 0.83917 0.78159 0.7369 0.0
C237 C 0.80343 0.83986 0.64247 0.0
H238 H 0.78636 0.83621 0.60917 0.0
H239 H 0.81175 0.90837 0.63372 0.0
C240 C 0.19358 0.99487 0.10486 0.0
C241 C 0.16194 0.96146 0.10422 0.0
C242 C 0.12188 0.99813 0.16771 0.0
C243 C 0.14875 0.03501 0.16152 0.0
N244 N 0.20978 0.06974 0.12421 0.0
N245 N 0.10029 0.92683 0.13972 0.0
C246 C 0.18497 0.03352 0.13066 0.0
C247 C 0.12748 0.96171 0.13741 0.0
N248 N 0.23193 0.98951 0.08134 0.0
N249 N 0.09156 0.99795 0.20302 0.0
H250 H 0.1074 0.89783 0.12249 0.0
H251 H 0.07116 0.9263 0.1583 0.0
H252 H 0.08687 0.02414 0.22585 0.0
H253 H 0.07294 0.97115 0.21205 0.0
H254 H 0.25794 0.01095 0.0842 0.0
H255 H 0.23927 0.96164 0.06208 0.0
H256 H 0.23323 0.07241 0.09791 0.0
H257 H 0.20495 0.09836 0.1432 0.0
C258 C 0.52609 0.67658 0.61567 0.0
C259 C 0.56004 0.64581 0.6204 0.0
C260 C 0.5214 0.61212 0.68668 0.0
C261 C 0.4845 0.63784 0.67622 0.0
N262 N 0.45081 0.695 0.63206 0.0
N263 N 0.59279 0.58694 0.6624 0.0
C264 C 0.48689 0.67082 0.64168 0.0
C265 C 0.5587 0.61476 0.65711 0.0
N266 N 0.53107 0.71076 0.58573 0.0
N267 N 0.52038 0.58498 0.72466 0.0
H268 H 0.62163 0.59066 0.6436 0.0
H269 H 0.59247 0.55995 0.6842 0.0
H270 H 0.49328 0.58204 0.7465 0.0
H271 H 0.54705 0.56764 0.73676 0.0
H272 H 0.5093 0.73639 0.58356 0.0
H273 H 0.55893 0.71545 0.56555 0.0
H274 H 0.44821 0.71572 0.60335 0.0
H275 H 0.42228 0.69273 0.65176 0.0
C276 C 0.80775 0.99895 0.09645 0.0
C277 C 0.82912 0.03545 0.11579 0.0
C278 C 0.85344 0.99275 0.18339 0.0
C279 C 0.83912 0.95481 0.15953 0.0
N280 N 0.80211 0.92076 0.09377 0.0
N281 N 0.85841 0.07152 0.18339 0.0
C282 C 0.81501 0.95767 0.11678 0.0
C283 C 0.84756 0.03367 0.16139 0.0
N284 N 0.781 1.00397 0.05837 0.0
N285 N 0.87444 0.98911 0.22574 0.0
H286 H 0.85166 0.10132 0.16785 0.0
H287 H 0.87014 0.0738 0.21775 0.0
H288 H 0.87762 0.95958 0.24314 0.0
H289 H 0.88934 0.01474 0.24339 0.0
H290 H 0.76168 0.97936 0.0444 0.0
H291 H 0.77487 0.03417 0.04359 0.0
H292 H 0.78963 0.92031 0.0596 0.0
H293 H 0.80616 0.88986 0.10768 0.0
C294 C 0.49307 0.31193 0.60482 0.0
C295 C 0.47399 0.35327 0.59678 0.0
C296 C 0.52622 0.38275 0.65389 0.0
C297 C 0.55243 0.3455 0.64902 0.0
N298 N 0.56197 0.27568 0.61051 0.0
N299 N 0.48386 0.43181 0.6083 0.0
C300 C 0.53622 0.31001 0.6222 0.0
C301 C 0.49308 0.38998 0.62027 0.0
N302 N 0.47024 0.27457 0.59764 0.0
N303 N 0.53439 0.41223 0.68887 0.0
H304 H 0.46734 0.44108 0.57806 0.0
H305 H 0.49939 0.45811 0.62426 0.0
H306 H 0.55845 0.40731 0.71429 0.0
H307 H 0.51405 0.43864 0.69527 0.0
H308 H 0.48319 0.24423 0.60548 0.0
H309 H 0.43692 0.27417 0.59119 0.0
H310 H 0.5514 0.25112 0.58783 0.0
H311 H 0.59486 0.2741 0.61882 0.0
C312 C 0.64676 0.52652 0.36184 0.0
C313 C 0.6794 0.52146 0.39672 0.0
C314 C 0.69601 0.44899 0.36654 0.0
C315 C 0.66044 0.45248 0.33498 0.0
N316 N 0.61119 0.49773 0.29169 0.0
N317 N 0.74535 0.48598 0.42039 0.0
C318 C 0.63916 0.49264 0.32877 0.0
C319 C 0.70769 0.48538 0.39492 0.0
N320 N 0.6221 0.56317 0.36168 0.0
N321 N 0.71677 0.41024 0.3713 0.0
H322 H 0.75448 0.51254 0.44106 0.0
H323 H 0.76903 0.46206 0.41787 0.0
H324 H 0.70973 0.3836 0.34978 0.0
H325 H 0.73943 0.40397 0.39773 0.0
H326 H 0.59412 0.56705 0.34148 0.0
H327 H 0.62954 0.58963 0.38312 0.0
H328 H 0.59679 0.52703 0.28285 0.0
H329 H 0.60527 0.4731 0.26713 0.0
C330 C 0.989 0.17131 0.8847 0.0
C331 C 0.99339 0.16694 0.93442 0.0
C332 C 0.07173 0.15519 0.92406 0.0
C333 C 0.06462 0.14904 0.87497 0.0
N334 N 0.01661 0.15022 0.80782 0.0
N335 N 0.0408 0.16163 1.00214 0.0
C336 C 0.02333 0.15708 0.85496 0.0
C337 C 0.0355 0.16122 0.95426 0.0
N338 N 0.95351 0.19113 0.86588 0.0
N339 N 0.11321 0.15633 0.94154 0.0
H340 H 0.0164 0.17187 0.02491 0.0
H341 H 0.06877 0.15118 0.0193 0.0
H342 H 0.14069 0.15223 0.92051 0.0
H343 H 0.1209 0.16505 0.97611 0.0
H344 H 0.95025 0.19758 0.82997 0.0
H345 H 0.93066 0.20712 0.88653 0.0
H346 H 0.9859 0.15085 0.79233 0.0
H347 H 0.04137 0.14068 0.78489 0.0
C348 C 0.31408 0.52313 0.43709 0.0
C349 C 0.31924 0.48093 0.41788 0.0
C350 C 0.33824 0.51156 0.34097 0.0
C351 C 0.33604 0.5535 0.36119 0.0
N352 N 0.30914 0.60022 0.42316 0.0
N353 N 0.32141 0.43503 0.34931 0.0
C354 C 0.31917 0.55954 0.40735 0.0
C355 C 0.32625 0.47525 0.36882 0.0
N356 N 0.30775 0.52862 0.48443 0.0
N357 N 0.3537 0.50645 0.29612 0.0
H358 H 0.31206 0.40839 0.36949 0.0
H359 H 0.32298 0.42888 0.31317 0.0
H360 H 0.36107 0.53277 0.27456 0.0
H361 H 0.36087 0.47646 0.28112 0.0
H362 H 0.31037 0.5583 0.50183 0.0
H363 H 0.30186 0.50292 0.50692 0.0
H364 H 0.29265 0.60625 0.45459 0.0
H365 H 0.31371 0.62794 0.40297 0.0
C366 C 0.05199 0.83817 0.8506 0.0
C367 C 0.04997 0.81352 0.8925 0.0
C368 C 0.97382 0.79561 0.87682 0.0
C369 C 0.97417 0.82539 0.83891 0.0
N370 N 0.01434 0.86568 0.78124 0.0
N371 N 0.01511 0.75723 0.93677 0.0
C372 C 0.01388 0.84306 0.82257 0.0
C373 C 0.01294 0.78787 0.90228 0.0
N374 N 0.09011 0.85814 0.83925 0.0
N375 N 0.93539 0.77728 0.89025 0.0
H376 H 0.04355 0.75139 0.95572 0.0
H377 H 0.99025 0.73542 0.94404 0.0
H378 H 0.90684 0.78123 0.87081 0.0
H379 H 0.93133 0.75943 0.92098 0.0
H380 H 0.09384 0.88001 0.81177 0.0
H381 H 0.11858 0.85215 0.85813 0.0
H382 H 0.04217 0.87845 0.76588 0.0
H383 H 0.98657 0.86936 0.76049 0.0
C384 C 0.8643 0.97583 0.95143 0.0
C385 C 0.86397 0.01822 0.93226 0.0
C386 C 0.87404 0.9877 0.85283 0.0
C387 C 0.87178 0.94523 0.87178 0.0
N388 N 0.85349 0.89914 0.93727 0.0
N389 N 0.85727 0.06371 0.86402 0.0
C390 C 0.8632 0.93944 0.92055 0.0
C391 C 0.86516 0.02386 0.88265 0.0
N392 N 0.86771 0.97012 0.99904 0.0
N393 N 0.88705 0.99384 0.80723 0.0
H394 H 0.84954 0.09027 0.88518 0.0
H395 H 0.85382 0.06923 0.82795 0.0
H396 H 0.89491 0.96848 0.78439 0.0
H397 H 0.89378 0.02426 0.79331 0.0
H398 H 0.87301 0.94013 0.01465 0.0
H399 H 0.86902 0.99588 0.02271 0.0
H400 H 0.84299 0.89354 0.97167 0.0
H401 H 0.85168 0.87189 0.91542 0.0
C402 C 0.45918 0.37445 0.36227 0.0
C403 C 0.46049 0.34741 0.40249 0.0
C404 C 0.53493 0.3254 0.38352 0.0
C405 C 0.53444 0.3543 0.34479 0.0
N406 N 0.49485 0.40001 0.29115 0.0
N407 N 0.49436 0.2895 0.44559 0.0
C408 C 0.49593 0.37659 0.332 0.0
C409 C 0.49668 0.32018 0.41107 0.0
N410 N 0.4231 0.39903 0.35416 0.0
N411 N 0.57259 0.30446 0.39496 0.0
H412 H 0.46674 0.28486 0.46619 0.0
H413 H 0.51809 0.2662 0.45138 0.0
H414 H 0.60048 0.30605 0.37413 0.0
H415 H 0.57707 0.28707 0.42593 0.0
H416 H 0.42127 0.42354 0.32921 0.0
H417 H 0.39472 0.3953 0.37374 0.0
H418 H 0.46693 0.41412 0.27744 0.0
H419 H 0.5216 0.40323 0.26889 0.0
C420 C 0.1904 0.00844 0.93149 0.0
C421 C 0.18027 0.96742 0.9111 0.0
C422 C 0.16979 1.00213 0.83416 0.0
C423 C 0.17894 0.04285 0.85515 0.0
N424 N 0.21231 0.08273 0.91893 0.0
N425 N 0.175 0.92393 0.84067 0.0
C426 C 0.19479 0.04505 0.90198 0.0
C427 C 0.1747 0.96384 0.86149 0.0
N428 N 0.19194 0.01359 0.97932 0.0
N429 N 0.15484 1.00034 0.78881 0.0
H430 H 0.18078 0.89585 0.86001 0.0
H431 H 0.17418 0.91918 0.80424 0.0
H432 H 0.15294 0.02785 0.76764 0.0
H433 H 0.14277 0.97219 0.77316 0.0
H434 H 0.19362 0.04364 0.99612 0.0
H435 H 0.18736 0.98824 1.00246 0.0
H436 H 0.22806 0.08499 0.95144 0.0
H437 H 0.21518 0.11054 0.89853 0.0
C438 C 0.49489 0.64929 0.45201 0.0
C439 C 0.5364 0.64782 0.43011 0.0
C440 C 0.5016 0.64903 0.35196 0.0
C441 C 0.46028 0.65022 0.374 0.0
N442 N 0.41786 0.66392 0.4439 0.0
N443 N 0.57943 0.65987 0.36051 0.0
C444 C 0.45713 0.65463 0.42374 0.0
C445 C 0.53982 0.65195 0.38036 0.0
N446 N 0.49124 0.6435 0.4996 0.0
N447 N 0.50431 0.64354 0.30418 0.0
H448 H 0.60757 0.66357 0.38074 0.0
H449 H 0.5837 0.66678 0.32486 0.0
H450 H 0.47693 0.64278 0.28242 0.0
H451 H 0.53337 0.63734 0.28661 0.0
H452 H 0.46176 0.6389 0.51688 0.0
H453 H 0.51801 0.64031 0.52159 0.0
H454 H 0.41405 0.67172 0.47947 0.0
H455 H 0.38956 0.66802 0.42412 0.0
C456 C 0.30684 0.50724 0.61657 0.0
C457 C 0.33149 0.46877 0.61727 0.0
C458 C 0.37594 0.49769 0.68202 0.0
C459 C 0.35737 0.53908 0.674 0.0
N460 N 0.30374 0.58378 0.63605 0.0
N461 N 0.38242 0.4226 0.65633 0.0
C462 C 0.3217 0.54386 0.64267 0.0
C463 C 0.36354 0.46238 0.65241 0.0
N464 N 0.26905 0.50819 0.59139 0.0
N465 N 0.40573 0.49269 0.71747 0.0
H466 H 0.37075 0.39594 0.63747 0.0
H467 H 0.40877 0.41556 0.67793 0.0
H468 H 0.41502 0.51805 0.7398 0.0
H469 H 0.41977 0.46337 0.72672 0.0
H470 H 0.24752 0.53413 0.59185 0.0
H471 H 0.25754 0.48091 0.57333 0.0
H472 H 0.28105 0.59043 0.60979 0.0
H473 H 0.31321 0.61096 0.65555 0.0
C474 C 0.02531 0.83079 0.13181 0.0
C475 C 0.02173 0.83132 0.08185 0.0
C476 C 0.94216 0.83128 0.08862 0.0
C477 C 0.94604 0.83821 0.13799 0.0
N478 N 0.99072 0.84556 0.20733 0.0
N479 N 0.97681 0.83394 0.01205 0.0
C480 C 0.98748 0.83766 0.15995 0.0
C481 C 0.98011 0.83141 0.06006 0.0
N482 N 0.06483 0.82334 0.15219 0.0
N483 N 0.90198 0.82491 0.06909 0.0
H484 H 1.00373 0.833 0.99001 0.0
H485 H 0.94785 0.83968 0.99415 0.0
H486 H 0.87349 0.82515 0.08901 0.0
H487 H 0.89705 0.81555 0.03412 0.0
H488 H 0.06923 0.81886 0.18828 0.0
H489 H 0.09287 0.81802 0.13232 0.0
H490 H 0.0201 0.85086 0.22469 0.0
H491 H 0.96353 0.84904 0.229 0.0
C492 C 0.70314 0.46033 0.57016 0.0
C493 C 0.6953 0.5012 0.59197 0.0
C494 C 0.68626 0.4655 0.66847 0.0
C495 C 0.69142 0.42475 0.64593 0.0
N496 N 0.7191 0.38396 0.58031 0.0
N497 N 0.69405 0.54366 0.66334 0.0
C498 C 0.70545 0.42261 0.59852 0.0
C499 C 0.6918 0.50409 0.6418 0.0
N500 N 0.70473 0.45689 0.52215 0.0
N501 N 0.6736 0.46701 0.71464 0.0
H502 H 0.69916 0.57208 0.64431 0.0
H503 H 0.69485 0.54789 0.69983 0.0
H504 H 0.67126 0.43914 0.73518 0.0
H505 H 0.66397 0.49532 0.73176 0.0
H506 H 0.70511 0.4275 0.50397 0.0
H507 H 0.7024 0.48353 0.50019 0.0
H508 H 0.73316 0.3807 0.54704 0.0
H509 H 0.72033 0.35591 0.60063 0.0
C510 C 0.9692 0.15583 0.16949 0.0
C511 C 0.97291 0.17802 0.12627 0.0
C512 C 0.05043 0.18949 0.14081 0.0
C513 C 0.04821 0.15914 0.17817 0.0
N514 N 1.00538 0.11595 0.23155 0.0
N515 N 0.01078 0.23596 0.08703 0.0
C516 C 0.00735 0.14405 0.1945 0.0
C517 C 0.01158 0.20144 0.11688 0.0
N518 N 0.9288 0.14763 0.18691 0.0
N519 N 0.08991 0.20489 0.12664 0.0
H520 H 0.98203 0.24806 0.07297 0.0
H521 H 0.03746 0.25593 0.08106 0.0
H522 H 0.11858 0.19818 0.14491 0.0
H523 H 0.0945 0.22248 0.09579 0.0
H524 H 0.92313 0.13507 0.22037 0.0
H525 H 0.90101 0.15857 0.16948 0.0
H526 H 0.97722 0.09955 0.24127 0.0
H527 H 0.03256 0.10748 0.25145 0.0
C528 C 0.22745 0.81211 0.15448 0.0
C529 C 0.21118 0.7829 0.12008 0.0
C530 C 0.23407 0.72242 0.1704 0.0
C531 C 0.25541 0.75217 0.20126 0.0
N532 N 0.28238 0.82482 0.21369 0.0
N533 N 0.20571 0.70932 0.09152 0.0
C534 C 0.25553 0.79684 0.19014 0.0
C535 C 0.21645 0.73766 0.12683 0.0
N536 N 0.21327 0.85386 0.15558 0.0
N537 N 0.22872 0.68026 0.1834 0.0
H538 H 0.19287 0.71927 0.05927 0.0
H539 H 0.21299 0.67643 0.09283 0.0
H540 H 0.24019 0.66804 0.21529 0.0
H541 H 0.20958 0.65843 0.16439 0.0
H542 H 0.22217 0.87588 0.18191 0.0
H543 H 0.18724 0.86383 0.13491 0.0
H544 H 0.28571 0.85721 0.20415 0.0
H545 H 0.30465 0.81452 0.23906 0.0
C546 C 0.73173 0.71253 0.64306 0.0
C547 C 0.75092 0.69676 0.60085 0.0
C548 C 0.81666 0.7392 0.61806 0.0
C549 C 0.79412 0.76106 0.65468 0.0
N550 N 0.73034 0.76889 0.70313 0.0
N551 N 0.81189 0.69464 0.54742 0.0
C552 C 0.75193 0.74728 0.6681 0.0
C553 C 0.79388 0.70925 0.58861 0.0
N554 N 0.69439 0.69384 0.65925 0.0
N555 N 0.8598 0.74758 0.61136 0.0
H556 H 0.79679 0.67194 0.52555 0.0
H557 H 0.84073 0.7067 0.5335 0.0
H558 H 0.87697 0.76946 0.63255 0.0
H559 H 0.87936 0.73018 0.58809 0.0
H560 H 0.6804 0.70127 0.69175 0.0
H561 H 0.67979 0.6676 0.64209 0.0
H562 H 0.69762 0.7641 0.71074 0.0
H563 H 0.74479 0.79337 0.72327 0.0
C564 C 0.77849 0.27513 0.08096 0.0
C565 C 0.78243 0.23052 0.09244 0.0
C566 C 0.72027 0.23637 0.14615 0.0
C567 C 0.71665 0.2809 0.1349 0.0
N568 N 0.74845 0.34518 0.10205 0.0
N569 N 0.76546 0.17215 0.14536 0.0
C570 C 0.74796 0.30109 0.1058 0.0
C571 C 0.75587 0.21221 0.12805 0.0
N572 N 0.80176 0.29224 0.04442 0.0
N573 N 0.68875 0.21675 0.17245 0.0
H574 H 0.7923 0.15444 0.13392 0.0
H575 H 0.74977 0.15855 0.17428 0.0
H576 H 0.66275 0.2336 0.18731 0.0
H577 H 0.68684 0.18338 0.17702 0.0
H578 H 0.79605 0.32293 0.03075 0.0
H579 H 0.82453 0.2748 0.02502 0.0
H580 H 0.77313 0.36225 0.08522 0.0
H581 H 0.72631 0.36498 0.11978 0.0
C582 C 0.25496 0.26519 0.61442 0.0
C583 C 0.29738 0.28334 0.6155 0.0
C584 C 0.30607 0.2562 0.69608 0.0
C585 C 0.26091 0.24761 0.69828 0.0
N586 N 0.19062 0.24948 0.65993 0.0
N587 N 0.36168 0.30091 0.6618 0.0
C588 C 0.23477 0.25325 0.65746 0.0
C589 C 0.32287 0.27973 0.65733 0.0
N590 N 0.23459 0.25777 0.57229 0.0
N591 N 0.33289 0.24196 0.73116 0.0
H592 H 0.37491 0.32052 0.63581 0.0
H593 H 0.37877 0.30265 0.69355 0.0
H594 H 0.32154 0.22385 0.75963 0.0
H595 H 0.36664 0.24402 0.72919 0.0
H596 H 0.20493 0.24161 0.5696 0.0
H597 H 0.24999 0.26262 0.53997 0.0
H598 H 0.17021 0.25769 0.63198 0.0
H599 H 0.17413 0.24203 0.69095 0.0
C600 C 0.73385 0.67914 0.36023 0.0
C601 C 0.72315 0.70315 0.40144 0.0
C602 C 0.74239 0.77032 0.36015 0.0
C603 C 0.75596 0.74552 0.3204 0.0
N604 N 0.77608 0.67606 0.28834 0.0
N605 N 0.72553 0.77097 0.44396 0.0
C606 C 0.75578 0.69979 0.32264 0.0
C607 C 0.73006 0.74863 0.40249 0.0
N608 N 0.71986 0.6375 0.35512 0.0
N609 N 0.73928 0.81429 0.35684 0.0
H610 H 0.71652 0.75611 0.47546 0.0
H611 H 0.73431 0.80336 0.44797 0.0
H612 H 0.74842 0.83128 0.32673 0.0
H613 H 0.72491 0.83358 0.38273 0.0
H614 H 0.72358 0.61958 0.3241 0.0
H615 H 0.69917 0.62325 0.3794 0.0
H616 H 0.78011 0.64263 0.29044 0.0
H617 H 0.79283 0.69041 0.26045 0.0
C618 C 0.7593 0.22638 0.90634 0.0
C619 C 0.79946 0.2043 0.90118 0.0
C620 C 0.79682 0.21635 0.81578 0.0
C621 C 0.75363 0.23175 0.82008 0.0
N622 N 0.69164 0.24765 0.86935 0.0
N623 N 0.85457 0.17413 0.85052 0.0
C624 C 0.73442 0.2364 0.86541 0.0
C625 C 0.81786 0.19838 0.85576 0.0
N626 N 0.74472 0.23748 0.95031 0.0
N627 N 0.81774 0.21926 0.77338 0.0
H628 H 0.87124 0.16112 0.87916 0.0
H629 H 0.86663 0.16429 0.81783 0.0
H630 H 0.80325 0.23294 0.74365 0.0
H631 H 0.85057 0.21221 0.76896 0.0
H632 H 0.71813 0.25762 0.9561 0.0
H633 H 0.76139 0.22955 0.98106 0.0
H634 H 0.67448 0.24641 0.90098 0.0
H635 H 0.6722 0.25522 0.84041 0.0
C636 C 0.28739 0.26228 0.38242 0.0
C637 C 0.26748 0.28575 0.41974 0.0
C638 C 0.19843 0.24895 0.4027 0.0
C639 C 0.22071 0.21984 0.37257 0.0
N640 N 0.28659 0.19765 0.33349 0.0
N641 N 0.20349 0.30058 0.46693 0.0
C642 C 0.26515 0.22653 0.36176 0.0
C643 C 0.22255 0.2796 0.42972 0.0
N644 N 0.32721 0.27487 0.36619 0.0
N645 N 0.15415 0.24694 0.4056 0.0
H646 H 0.21939 0.3233 0.48799 0.0
H647 H 0.1726 0.29306 0.47942 0.0
H648 H 0.13583 0.22454 0.3863 0.0
H649 H 0.13544 0.26992 0.42329 0.0
H650 H 0.34197 0.26143 0.33648 0.0
H651 H 0.3433 0.30208 0.37948 0.0
H652 H 0.32016 0.19778 0.329 0.0
H653 H 0.27102 0.17188 0.31655 0.0
C654 C 0.28975 0.77601 0.93476 0.0
C655 C 0.2444 0.77175 0.92587 0.0
C656 C 0.25896 0.70915 0.8743 0.0
C657 C 0.30423 0.71487 0.88164 0.0
N658 N 0.36273 0.76122 0.9072 0.0
N659 N 0.18753 0.74197 0.8768 0.0
C660 C 0.31954 0.75095 0.90791 0.0
C661 C 0.22951 0.74066 0.89237 0.0
N662 N 0.30457 0.80146 0.97101 0.0
N663 N 0.24386 0.67278 0.85205 0.0
H664 H 0.1657 0.7657 0.88783 0.0
H665 H 0.17586 0.72265 0.8493 0.0
H666 H 0.2643 0.64907 0.83811 0.0
H667 H 0.21105 0.66458 0.85056 0.0
H668 H 0.33689 0.80171 0.98199 0.0
H669 H 0.28437 0.81897 0.99347 0.0
H670 H 0.37518 0.7896 0.92202 0.0
H671 H 0.38533 0.74365 0.88746 0.0
loop_
_geom_bond_atom_site_label_1
_geom_bond_atom_site_label_2
_geom_bond_distance
_geom_bond_site_symmetry_2
_ccdc_geom_bond_type
Fe0 O2 1.918 . S
Fe0 O5 1.997 . S
Fe0 O6 2.002 . S
Fe0 O11 1.976 1_554 S
Fe0 O14 1.996 1_554 S
Fe1 O2 1.918 . S
Fe1 O9 1.997 . S
Fe1 O12 1.996 1_554 S
Fe1 O16 1.976 1_554 S
Fe1 O19 2.002 . S
O2 Fe0 1.918 . S
O2 Fe1 1.918 . S
O2 Fe3 1.918 . S
Fe3 O2 1.918 . S
Fe3 O4 2.002 . S
Fe3 O13 1.976 1_554 S
Fe3 O17 1.996 1_554 S
Fe3 O20 1.997 . S
O4 Fe3 2.002 . S
O4 C21 1.295 . S
O5 Fe0 1.997 . S
O5 C21 1.235 . S
O6 Fe0 2.002 . S
O6 C7 1.295 . S
C7 O6 1.295 . S
C7 O9 1.235 . S
C8 O13 1.287 . S
C8 O14 1.255 . S
O9 Fe1 1.997 . S
O9 C7 1.235 . S
C10 O16 1.287 . S
C10 O17 1.255 . S
O11 Fe0 1.976 1_556 S
O11 C18 1.287 . S
O12 Fe1 1.996 1_556 S
O12 C18 1.255 . S
O13 Fe3 1.976 1_556 S
O13 C8 1.287 . S
O14 Fe0 1.996 1_556 S
O14 C8 1.255 . S
C15 O19 1.295 . S
C15 O20 1.235 . S
O16 Fe1 1.976 1_556 S
O16 C10 1.287 . S
O17 Fe3 1.996 1_556 S
O17 C10 1.255 . S
C18 O11 1.287 . S
C18 O12 1.255 . S
O19 Fe1 2.002 . S
O19 C15 1.295 . S
O20 Fe3 1.997 . S
O20 C15 1.235 . S
C21 O4 1.295 . S
C21 O5 1.235 . S
Fe22 O24 1.918 . S
Fe22 O27 1.997 . S
Fe22 O28 2.002 . S
Fe22 O33 1.976 . S
Fe22 O36 1.996 . S
Fe23 O24 1.918 . S
Fe23 O31 1.997 . S
Fe23 O34 1.996 . S
Fe23 O38 1.976 . S
Fe23 O41 2.002 . S
O24 Fe22 1.918 . S
O24 Fe23 1.918 . S
O24 Fe25 1.918 . S
Fe25 O24 1.918 . S
Fe25 O26 2.002 . S
Fe25 O35 1.976 . S
Fe25 O39 1.996 . S
Fe25 O42 1.997 . S
O26 Fe25 2.002 . S
O26 C43 1.295 . S
O27 Fe22 1.997 . S
O27 C43 1.235 . S
O28 Fe22 2.002 . S
O28 C29 1.295 . S
C29 O28 1.295 . S
C29 O31 1.235 . S
C30 O35 1.287 . S
C30 O36 1.255 . S
O31 Fe23 1.997 . S
O31 C29 1.235 . S
C32 O38 1.287 . S
C32 O39 1.255 . S
O33 Fe22 1.976 . S
O33 C40 1.287 . S
O34 Fe23 1.996 . S
O34 C40 1.255 . S
O35 Fe25 1.976 . S
O35 C30 1.287 . S
O36 Fe22 1.996 . S
O36 C30 1.255 . S
C37 O41 1.295 . S
C37 O42 1.235 . S
O38 Fe23 1.976 . S
O38 C32 1.287 . S
O39 Fe25 1.996 . S
O39 C32 1.255 . S
C40 O33 1.287 . S
C40 O34 1.255 . S
O41 Fe23 2.002 . S
O41 C37 1.295 . S
O42 Fe25 1.997 . S
O42 C37 1.235 . S
C43 O26 1.295 . S
C43 O27 1.235 . S
Fe44 O46 1.918 . S
Fe44 O49 1.997 1_554 S
Fe44 O50 2.002 1_554 S
Fe44 O55 1.976 . S
Fe44 O58 1.996 . S
Fe45 O46 1.918 . S
Fe45 O53 1.997 1_554 S
Fe45 O56 1.996 . S
Fe45 O60 1.976 . S
Fe45 O63 2.002 1_554 S
O46 Fe44 1.918 . S
O46 Fe45 1.918 . S
O46 Fe47 1.918 . S
Fe47 O46 1.918 . S
Fe47 O48 2.002 1_554 S
Fe47 O57 1.976 . S
Fe47 O61 1.996 . S
Fe47 O64 1.997 1_554 S
O48 Fe47 2.002 1_556 S
O48 C65 1.295 . S
O49 Fe44 1.997 1_556 S
O49 C65 1.235 . S
O50 Fe44 2.002 1_556 S
O50 C51 1.295 . S
C51 O50 1.295 . S
C51 O53 1.235 . S
C52 O57 1.287 . S
C52 O58 1.255 . S
O53 Fe45 1.997 1_556 S
O53 C51 1.235 . S
C54 O60 1.287 . S
C54 O61 1.255 . S
O55 Fe44 1.976 . S
O55 C62 1.287 . S
O56 Fe45 1.996 . S
O56 C62 1.255 . S
O57 Fe47 1.976 . S
O57 C52 1.287 . S
O58 Fe44 1.996 . S
O58 C52 1.255 . S
C59 O63 1.295 . S
C59 O64 1.235 . S
O60 Fe45 1.976 . S
O60 C54 1.287 . S
O61 Fe47 1.996 . S
O61 C54 1.255 . S
C62 O55 1.287 . S
C62 O56 1.255 . S
O63 Fe45 2.002 1_556 S
O63 C59 1.295 . S
O64 Fe47 1.997 1_556 S
O64 C59 1.235 . S
C65 O48 1.295 . S
C65 O49 1.235 . S
Fe66 O68 1.918 . S
Fe66 O71 1.997 . S
Fe66 O72 2.002 . S
Fe66 O77 1.976 . S
Fe66 O80 1.996 . S
Fe67 O68 1.918 . S
Fe67 O75 1.997 . S
Fe67 O78 1.996 . S
Fe67 O82 1.976 . S
Fe67 O85 2.002 . S
O68 Fe66 1.918 . S
O68 Fe67 1.918 . S
O68 Fe69 1.918 . S
Fe69 O68 1.918 . S
Fe69 O70 2.002 . S
Fe69 O79 1.976 . S
Fe69 O83 1.996 . S
Fe69 O86 1.997 . S
O70 Fe69 2.002 . S
O70 C87 1.295 . S
O71 Fe66 1.997 . S
O71 C87 1.235 . S
O72 Fe66 2.002 . S
O72 C73 1.295 . S
C73 O72 1.295 . S
C73 O75 1.235 . S
C74 O79 1.287 . S
C74 O80 1.255 . S
O75 Fe67 1.997 . S
O75 C73 1.235 . S
C76 O82 1.287 . S
C76 O83 1.255 . S
O77 Fe66 1.976 . S
O77 C84 1.287 . S
O78 Fe67 1.996 . S
O78 C84 1.255 . S
O79 Fe69 1.976 . S
O79 C74 1.287 . S
O80 Fe66 1.996 . S
O80 C74 1.255 . S
C81 O85 1.295 . S
C81 O86 1.235 . S
O82 Fe67 1.976 . S
O82 C76 1.287 . S
O83 Fe69 1.996 . S
O83 C76 1.255 . S
C84 O77 1.287 . S
C84 O78 1.255 . S
O85 Fe67 2.002 . S
O85 C81 1.295 . S
O86 Fe69 1.997 . S
O86 C81 1.235 . S
C87 O70 1.295 . S
C87 O71 1.235 . S
H88 C89 0.949 . S
C89 H88 0.949 . S
C89 C90 1.395 . S
C89 C91 1.391 . S
C90 C89 1.395 . S
C90 C93 1.390 . S
C91 C89 1.391 . S
C91 C95 1.387 . S
C91 C96 1.491 . S
H92 C93 0.950 . S
C93 C90 1.390 . S
C93 H92 0.950 . S
C93 C94 1.378 . S
C94 C93 1.378 . S
C94 C95 1.409 . S
C95 C91 1.387 . S
C95 C94 1.409 . S
C95 H97 0.951 . S
C96 C91 1.491 . S
C96 C98 1.382 . S
C96 C100 1.404 . S
H97 C95 0.951 . S
C98 C96 1.382 . S
C98 C99 1.390 . S
C98 H103 0.949 . S
C99 C98 1.390 . S
C99 C104 1.399 . S
C100 C96 1.404 . S
C100 H101 0.950 . S
C100 C102 1.375 . S
H101 C100 0.950 . S
C102 C100 1.375 . S
C102 C104 1.382 . S
C102 H106 0.950 . S
H103 C98 0.949 . S
C104 C99 1.399 . S
C104 C102 1.382 . S
C104 H105 0.952 . S
H105 C104 0.952 . S
H106 C102 0.950 . S
H107 C108 0.949 . S
C108 H107 0.949 . S
C108 C109 1.395 . S
C108 C110 1.391 . S
C109 C108 1.395 . S
C109 C112 1.390 . S
C110 C108 1.391 . S
C110 C114 1.387 . S
C110 C115 1.491 . S
H111 C112 0.950 . S
C112 C109 1.390 . S
C112 H111 0.950 . S
C112 C113 1.378 . S
C113 C112 1.378 . S
C113 C114 1.409 . S
C114 C110 1.387 . S
C114 C113 1.409 . S
C114 H116 0.951 . S
C115 C110 1.491 . S
C115 C117 1.382 . S
C115 C119 1.404 . S
H116 C114 0.951 . S
C117 C115 1.382 . S
C117 C118 1.390 . S
C117 H122 0.949 . S
C118 C117 1.390 . S
C118 C123 1.399 . S
C119 C115 1.404 . S
C119 H120 0.950 . S
C119 C121 1.375 . S
H120 C119 0.950 . S
C121 C119 1.375 . S
C121 C123 1.382 . S
C121 H125 0.950 . S
H122 C117 0.949 . S
C123 C118 1.399 . S
C123 C121 1.382 . S
C123 H124 0.952 . S
H124 C123 0.952 . S
H125 C121 0.950 . S
H126 C127 0.949 . S
C127 H126 0.949 . S
C127 C128 1.395 . S
C127 C129 1.391 . S
C128 C127 1.395 . S
C128 C131 1.390 . S
C129 C127 1.391 . S
C129 C133 1.387 . S
C129 C134 1.491 . S
H130 C131 0.950 . S
C131 C128 1.390 . S
C131 H130 0.950 . S
C131 C132 1.378 . S
C132 C131 1.378 . S
C132 C133 1.409 . S
C133 C129 1.387 . S
C133 C132 1.409 . S
C133 H135 0.951 . S
C134 C129 1.491 . S
C134 C136 1.382 . S
C134 C138 1.404 . S
H135 C133 0.951 . S
C136 C134 1.382 . S
C136 C137 1.390 . S
C136 H141 0.949 . S
C137 C136 1.390 . S
C137 C142 1.399 . S
C138 C134 1.404 . S
C138 H139 0.950 . S
C138 C140 1.375 . S
H139 C138 0.950 . S
C140 C138 1.375 . S
C140 C142 1.382 . S
C140 H144 0.950 . S
H141 C136 0.949 . S
C142 C137 1.399 . S
C142 C140 1.382 . S
C142 H143 0.952 . S
H143 C142 0.952 . S
H144 C140 0.950 . S
H145 C146 0.949 . S
C146 H145 0.949 . S
C146 C147 1.395 . S
C146 C148 1.391 . S
C147 C146 1.395 . S
C147 C150 1.390 . S
C148 C146 1.391 . S
C148 C152 1.387 . S
C148 C153 1.491 . S
H149 C150 0.950 . S
C150 C147 1.390 . S
C150 H149 0.950 . S
C150 C151 1.378 . S
C151 C150 1.378 . S
C151 C152 1.409 . S
C152 C148 1.387 . S
C152 C151 1.409 . S
C152 H154 0.951 . S
C153 C148 1.491 . S
C153 C155 1.382 . S
C153 C157 1.404 . S
H154 C152 0.951 . S
C155 C153 1.382 . S
C155 C156 1.390 . S
C155 H160 0.949 . S
C156 C155 1.390 . S
C156 C161 1.399 . S
C157 C153 1.404 . S
C157 H158 0.950 . S
C157 C159 1.375 . S
H158 C157 0.950 . S
C159 C157 1.375 . S
C159 C161 1.382 . S
C159 H163 0.950 . S
H160 C155 0.949 . S
C161 C156 1.399 . S
C161 C159 1.382 . S
C161 H162 0.952 . S
H162 C161 0.952 . S
H163 C159 0.950 . S
H164 C165 0.949 . S
C165 H164 0.949 . S
C165 C166 1.395 . S
C165 C167 1.391 . S
C166 C165 1.395 . S
C166 C169 1.390 . S
C167 C165 1.391 . S
C167 C171 1.387 . S
C167 C172 1.491 . S
H168 C169 0.950 . S
C169 C166 1.390 . S
C169 H168 0.950 . S
C169 C170 1.378 . S
C170 C169 1.378 . S
C170 C171 1.409 . S
C171 C167 1.387 . S
C171 C170 1.409 . S
C171 H173 0.951 . S
C172 C167 1.491 . S
C172 C174 1.382 . S
C172 C176 1.404 . S
H173 C171 0.951 . S
C174 C172 1.382 . S
C174 C175 1.390 . S
C174 H179 0.949 . S
C175 C174 1.390 . S
C175 C180 1.399 . S
C176 C172 1.404 . S
C176 H177 0.950 . S
C176 C178 1.375 . S
H177 C176 0.950 . S
C178 C176 1.375 . S
C178 C180 1.382 . S
C178 H182 0.950 . S
H179 C174 0.949 . S
C180 C175 1.399 . S
C180 C178 1.382 . S
C180 H181 0.952 . S
H181 C180 0.952 . S
H182 C178 0.950 . S
H183 C184 0.949 . S
C184 H183 0.949 . S
C184 C185 1.395 . S
C184 C186 1.391 . S
C185 C184 1.395 . S
C185 C188 1.390 . S
C186 C184 1.391 . S
C186 C190 1.387 . S
C186 C191 1.491 . S
H187 C188 0.950 . S
C188 C185 1.390 . S
C188 H187 0.950 . S
C188 C189 1.378 . S
C189 C188 1.378 . S
C189 C190 1.409 . S
C190 C186 1.387 . S
C190 C189 1.409 . S
C190 H192 0.951 . S
C191 C186 1.491 . S
C191 C193 1.382 . S
C191 C195 1.404 . S
H192 C190 0.951 . S
C193 C191 1.382 . S
C193 C194 1.390 . S
C193 H198 0.949 . S
C194 C193 1.390 . S
C194 C199 1.399 . S
C195 C191 1.404 . S
C195 H196 0.950 . S
C195 C197 1.375 . S
H196 C195 0.950 . S
C197 C195 1.375 . S
C197 C199 1.382 . S
C197 H201 0.950 . S
H198 C193 0.949 . S
C199 C194 1.399 . S
C199 C197 1.382 . S
C199 H200 0.952 . S
H200 C199 0.952 . S
H201 C197 0.950 . S
H202 C203 0.949 . S
C203 H202 0.949 . S
C203 C204 1.395 . S
C203 C205 1.391 . S
C204 C203 1.395 . S
C204 C207 1.390 . S
C205 C203 1.391 . S
C205 C209 1.387 . S
C205 C210 1.491 . S
H206 C207 0.950 . S
C207 C204 1.390 . S
C207 H206 0.950 . S
C207 C208 1.378 . S
C208 C207 1.378 . S
C208 C209 1.409 . S
C209 C205 1.387 . S
C209 C208 1.409 . S
C209 H211 0.951 . S
C210 C205 1.491 . S
C210 C212 1.382 . S
C210 C214 1.404 . S
H211 C209 0.951 . S
C212 C210 1.382 . S
C212 C213 1.390 . S
C212 H217 0.949 . S
C213 C212 1.390 . S
C213 C218 1.399 . S
C214 C210 1.404 . S
C214 H215 0.950 . S
C214 C216 1.375 . S
H215 C214 0.950 . S
C216 C214 1.375 . S
C216 C218 1.382 . S
C216 H220 0.950 . S
H217 C212 0.949 . S
C218 C213 1.399 . S
C218 C216 1.382 . S
C218 H219 0.952 . S
H219 C218 0.952 . S
H220 C216 0.950 . S
H221 C222 0.949 . S
C222 H221 0.949 . S
C222 C223 1.395 . S
C222 C224 1.391 . S
C223 C222 1.395 . S
C223 C226 1.390 . S
C224 C222 1.391 . S
C224 C228 1.387 . S
C224 C229 1.491 . S
H225 C226 0.950 . S
C226 C223 1.390 . S
C226 H225 0.950 . S
C226 C227 1.378 . S
C227 C226 1.378 . S
C227 C228 1.409 . S
C228 C224 1.387 . S
C228 C227 1.409 . S
C228 H230 0.951 . S
C229 C224 1.491 . S
C229 C231 1.382 . S
C229 C233 1.404 . S
H230 C228 0.951 . S
C231 C229 1.382 . S
C231 C232 1.390 . S
C231 H236 0.949 . S
C232 C231 1.390 . S
C232 C237 1.399 . S
C233 C229 1.404 . S
C233 H234 0.950 . S
C233 C235 1.375 . S
H234 C233 0.950 . S
C235 C233 1.375 . S
C235 C237 1.382 . S
C235 H239 0.950 . S
H236 C231 0.949 . S
C237 C232 1.399 . S
C237 C235 1.382 . S
C237 H238 0.952 . S
H238 C237 0.952 . S
H239 C235 0.950 . S
C240 C241 1.363 1_545 S
C240 C246 1.379 . S
C240 N248 1.356 . S
C241 C240 1.363 1_565 S
C241 C247 1.363 . S
C242 C243 1.363 . S
C242 C247 1.379 1_545 S
C242 N249 1.356 . S
C243 C242 1.363 . S
C243 C246 1.363 . S
N244 C246 1.356 . S
N244 H256 0.984 . S
N244 H257 0.985 . S
N245 C247 1.356 . S
N245 H250 0.984 . S
N245 H251 0.985 . S
C246 C240 1.379 . S
C246 C243 1.363 . S
C246 N244 1.356 . S
C247 C241 1.363 . S
C247 C242 1.379 1_565 S
C247 N245 1.356 . S
N248 C240 1.356 . S
N248 H254 0.984 . S
N248 H255 0.984 1_545 S
N249 C242 1.356 . S
N249 H252 0.984 . S
N249 H253 0.985 . S
H250 N245 0.984 . S
H251 N245 0.985 . S
H252 N249 0.984 . S
H253 N249 0.985 . S
H254 N248 0.984 . S
H255 N248 0.984 1_565 S
H256 N244 0.984 . S
H257 N244 0.985 . S
C258 C259 1.363 . S
C258 C264 1.379 . S
C258 N266 1.356 . S
C259 C258 1.363 . S
C259 C265 1.363 . S
C260 C261 1.363 . S
C260 C265 1.379 . S
C260 N267 1.356 . S
C261 C260 1.363 . S
C261 C264 1.363 . S
N262 C264 1.356 . S
N262 H274 0.984 . S
N262 H275 0.985 . S
N263 C265 1.356 . S
N263 H268 0.984 . S
N263 H269 0.985 . S
C264 C258 1.379 . S
C264 C261 1.363 . S
C264 N262 1.356 . S
C265 C259 1.363 . S
C265 C260 1.379 . S
C265 N263 1.356 . S
N266 C258 1.356 . S
N266 H272 0.984 . S
N266 H273 0.984 . S
N267 C260 1.356 . S
N267 H270 0.984 . S
N267 H271 0.985 . S
H268 N263 0.984 . S
H269 N263 0.985 . S
H270 N267 0.984 . S
H271 N267 0.985 . S
H272 N266 0.984 . S
H273 N266 0.984 . S
H274 N262 0.984 . S
H275 N262 0.985 . S
C276 C277 1.363 1_565 S
C276 C282 1.379 . S
C276 N284 1.356 . S
C277 C276 1.363 1_545 S
C277 C283 1.363 . S
C278 C279 1.363 . S
C278 C283 1.379 1_565 S
C278 N285 1.356 . S
C279 C278 1.363 . S
C279 C282 1.363 . S
N280 C282 1.356 . S
N280 H292 0.984 . S
N280 H293 0.985 . S
N281 C283 1.356 . S
N281 H286 0.984 . S
N281 H287 0.985 . S
C282 C276 1.379 . S
C282 C279 1.363 . S
C282 N280 1.356 . S
C283 C277 1.363 . S
C283 C278 1.379 1_545 S
C283 N281 1.356 . S
N284 C276 1.356 . S
N284 H290 0.984 . S
N284 H291 0.984 . S
N285 C278 1.356 . S
N285 H288 0.984 . S
N285 H289 0.985 . S
H286 N281 0.984 . S
H287 N281 0.985 . S
H288 N285 0.984 . S
H289 N285 0.985 . S
H290 N284 0.984 . S
H291 N284 0.984 . S
H292 N280 0.984 . S
H293 N280 0.985 . S
C294 C295 1.363 . S
C294 C300 1.379 . S
C294 N302 1.356 . S
C295 C294 1.363 . S
C295 C301 1.363 . S
C296 C297 1.363 . S
C296 C301 1.379 . S
C296 N303 1.356 . S
C297 C296 1.363 . S
C297 C300 1.363 . S
N298 C300 1.356 . S
N298 H310 0.984 . S
N298 H311 0.985 . S
N299 C301 1.356 . S
N299 H304 0.984 . S
N299 H305 0.985 . S
C300 C294 1.379 . S
C300 C297 1.363 . S
C300 N298 1.356 . S
C301 C295 1.363 . S
C301 C296 1.379 . S
C301 N299 1.356 . S
N302 C294 1.356 . S
N302 H308 0.984 . S
N302 H309 0.984 . S
N303 C296 1.356 . S
N303 H306 0.984 . S
N303 H307 0.985 . S
H304 N299 0.984 . S
H305 N299 0.985 . S
H306 N303 0.984 . S
H307 N303 0.985 . S
H308 N302 0.984 . S
H309 N302 0.984 . S
H310 N298 0.984 . S
H311 N298 0.985 . S
C312 C313 1.363 . S
C312 C318 1.379 . S
C312 N320 1.356 . S
C313 C312 1.363 . S
C313 C319 1.363 . S
C314 C315 1.363 . S
C314 C319 1.379 . S
C314 N321 1.356 . S
C315 C314 1.363 . S
C315 C318 1.363 . S
N316 C318 1.356 . S
N316 H328 0.984 . S
N316 H329 0.985 . S
N317 C319 1.356 . S
N317 H322 0.984 . S
N317 H323 0.985 . S
C318 C312 1.379 . S
C318 C315 1.363 . S
C318 N316 1.356 . S
C319 C313 1.363 . S
C319 C314 1.379 . S
C319 N317 1.356 . S
N320 C312 1.356 . S
N320 H326 0.984 . S
N320 H327 0.984 . S
N321 C314 1.356 . S
N321 H324 0.984 . S
N321 H325 0.985 . S
H322 N317 0.984 . S
H323 N317 0.985 . S
H324 N321 0.984 . S
H325 N321 0.985 . S
H326 N320 0.984 . S
H327 N320 0.984 . S
H328 N316 0.984 . S
H329 N316 0.985 . S
C330 C331 1.363 . S
C330 C336 1.379 1_655 S
C330 N338 1.356 . S
C331 C330 1.363 . S
C331 C337 1.363 1_655 S
C332 C333 1.363 . S
C332 C337 1.379 . S
C332 N339 1.356 . S
C333 C332 1.363 . S
C333 C336 1.363 . S
N334 C336 1.356 . S
N334 H346 0.984 . S
N334 H347 0.985 . S
N335 C337 1.356 . S
N335 H340 0.984 1_455 S
N335 H341 0.985 . S
C336 C330 1.379 1_455 S
C336 C333 1.363 . S
C336 N334 1.356 . S
C337 C331 1.363 1_455 S
C337 C332 1.379 . S
C337 N335 1.356 . S
N338 C330 1.356 . S
N338 H344 0.984 . S
N338 H345 0.984 . S
N339 C332 1.356 . S
N339 H342 0.984 . S
N339 H343 0.985 . S
H340 N335 0.984 1_655 S
H341 N335 0.985 . S
H342 N339 0.984 . S
H343 N339 0.985 . S
H344 N338 0.984 . S
H345 N338 0.984 . S
H346 N334 0.984 . S
H347 N334 0.985 . S
C348 C349 1.363 . S
C348 C354 1.379 . S
C348 N356 1.356 . S
C349 C348 1.363 . S
C349 C355 1.363 . S
C350 C351 1.363 . S
C350 C355 1.379 . S
C350 N357 1.356 . S
C351 C350 1.363 . S
C351 C354 1.363 . S
N352 C354 1.356 . S
N352 H364 0.984 . S
N352 H365 0.985 . S
N353 C355 1.356 . S
N353 H358 0.984 . S
N353 H359 0.985 . S
C354 C348 1.379 . S
C354 C351 1.363 . S
C354 N352 1.356 . S
C355 C349 1.363 . S
C355 C350 1.379 . S
C355 N353 1.356 . S
N356 C348 1.356 . S
N356 H362 0.984 . S
N356 H363 0.984 . S
N357 C350 1.356 . S
N357 H360 0.984 . S
N357 H361 0.985 . S
H358 N353 0.984 . S
H359 N353 0.985 . S
H360 N357 0.984 . S
H361 N357 0.985 . S
H362 N356 0.984 . S
H363 N356 0.984 . S
H364 N352 0.984 . S
H365 N352 0.985 . S
C366 C367 1.363 1_655 S
C366 C372 1.379 . S
C366 N374 1.356 . S
C367 C366 1.363 1_455 S
C367 C373 1.363 . S
C368 C369 1.363 . S
C368 C373 1.379 1_655 S
C368 N375 1.356 . S
C369 C368 1.363 . S
C369 C372 1.363 . S
N370 C372 1.356 . S
N370 H382 0.984 . S
N370 H383 0.985 . S
N371 C373 1.356 . S
N371 H376 0.984 . S
N371 H377 0.985 . S
C372 C366 1.379 . S
C372 C369 1.363 . S
C372 N370 1.356 . S
C373 C367 1.363 . S
C373 C368 1.379 1_455 S
C373 N371 1.356 . S
N374 C366 1.356 . S
N374 H380 0.984 . S
N374 H381 0.984 1_655 S
N375 C368 1.356 . S
N375 H378 0.984 . S
N375 H379 0.985 . S
H376 N371 0.984 . S
H377 N371 0.985 . S
H378 N375 0.984 . S
H379 N375 0.985 . S
H380 N374 0.984 . S
H381 N374 0.984 1_455 S
H382 N370 0.984 . S
H383 N370 0.985 . S
C384 C385 1.363 1_565 S
C384 C390 1.379 . S
C384 N392 1.356 . S
C385 C384 1.363 1_545 S
C385 C391 1.363 . S
C386 C387 1.363 . S
C386 C391 1.362 1_565 S
C386 N393 1.356 . S
C387 C386 1.363 . S
C387 C390 1.363 . S
N388 C390 1.356 . S
N388 H400 0.984 . S
N388 H401 0.985 . S
N389 C391 1.376 . S
N389 H394 0.984 . S
N389 H395 0.985 . S
C390 C384 1.379 . S
C390 C387 1.363 . S
C390 N388 1.356 . S
C391 C385 1.363 . S
C391 C386 1.362 1_545 S
C391 N389 1.376 . S
N392 C384 1.356 . S
N392 H398 0.984 . S
N392 H399 0.984 1_565 S
N393 C386 1.356 . S
N393 H396 0.984 . S
N393 H397 0.985 . S
H394 N389 0.984 . S
H395 N389 0.985 . S
H396 N393 0.984 . S
H397 N393 0.985 . S
H398 N392 0.984 . S
H399 N392 0.984 1_545 S
H400 N388 0.984 . S
H401 N388 0.985 . S
C402 C403 1.363 . S
C402 C408 1.379 . S
C402 N410 1.356 . S
C403 C402 1.363 . S
C403 C409 1.363 . S
C404 C405 1.363 . S
C404 C409 1.379 . S
C404 N411 1.356 . S
C405 C404 1.363 . S
C405 C408 1.363 . S
N406 C408 1.356 . S
N406 H418 0.984 . S
N406 H419 0.985 . S
N407 C409 1.356 . S
N407 H412 0.984 . S
N407 H413 0.985 . S
C408 C402 1.379 . S
C408 C405 1.363 . S
C408 N406 1.356 . S
C409 C403 1.363 . S
C409 C404 1.379 . S
C409 N407 1.356 . S
N410 C402 1.356 . S
N410 H416 0.984 . S
N410 H417 0.984 . S
N411 C404 1.356 . S
N411 H414 0.984 . S
N411 H415 0.985 . S
H412 N407 0.984 . S
H413 N407 0.985 . S
H414 N411 0.984 . S
H415 N411 0.985 . S
H416 N410 0.984 . S
H417 N410 0.984 . S
H418 N406 0.984 . S
H419 N406 0.985 . S
C420 C421 1.363 1_545 S
C420 C426 1.379 . S
C420 N428 1.356 . S
C421 C420 1.363 1_565 S
C421 C427 1.363 . S
C422 C423 1.363 . S
C422 C427 1.379 1_545 S
C422 N429 1.356 . S
C423 C422 1.363 . S
C423 C426 1.363 . S
N424 C426 1.356 . S
N424 H436 0.984 . S
N424 H437 0.985 . S
N425 C427 1.356 . S
N425 H430 0.984 . S
N425 H431 0.985 . S
C426 C420 1.379 . S
C426 C423 1.363 . S
C426 N424 1.356 . S
C427 C421 1.363 . S
C427 C422 1.379 1_565 S
C427 N425 1.356 . S
N428 C420 1.356 . S
N428 H434 0.984 . S
N428 H435 0.984 1_545 S
N429 C422 1.356 . S
N429 H432 0.984 . S
N429 H433 0.997 . S
H430 N425 0.984 . S
H431 N425 0.985 . S
H432 N429 0.984 . S
H433 N429 0.997 . S
H434 N428 0.984 . S
H435 N428 0.984 1_565 S
H436 N424 0.984 . S
H437 N424 0.985 . S
C438 C439 1.363 . S
C438 C444 1.379 . S
C438 N446 1.356 . S
C439 C438 1.363 . S
C439 C445 1.363 . S
C440 C441 1.363 . S
C440 C445 1.379 . S
C440 N447 1.356 . S
C441 C440 1.363 . S
C441 C444 1.363 . S
N442 C444 1.356 . S
N442 H454 0.984 . S
N442 H455 0.985 . S
N443 C445 1.356 . S
N443 H448 0.984 . S
N443 H449 0.985 . S
C444 C438 1.379 . S
C444 C441 1.363 . S
C444 N442 1.356 . S
C445 C439 1.363 . S
C445 C440 1.379 . S
C445 N443 1.356 . S
N446 C438 1.356 . S
N446 H452 0.984 . S
N446 H453 0.984 . S
N447 C440 1.356 . S
N447 H450 0.984 . S
N447 H451 0.985 . S
H448 N443 0.984 . S
H449 N443 0.985 . S
H450 N447 0.984 . S
H451 N447 0.985 . S
H452 N446 0.984 . S
H453 N446 0.984 . S
H454 N442 0.984 . S
H455 N442 0.985 . S
C456 C457 1.363 . S
C456 C462 1.379 . S
C456 N464 1.356 . S
C457 C456 1.363 . S
C457 C463 1.363 . S
C458 C459 1.363 . S
C458 C463 1.379 . S
C458 N465 1.356 . S
C459 C458 1.363 . S
C459 C462 1.363 . S
N460 C462 1.356 . S
N460 H472 0.984 . S
N460 H473 0.985 . S
N461 C463 1.356 . S
N461 H466 0.984 . S
N461 H467 0.985 . S
C462 C456 1.379 . S
C462 C459 1.363 . S
C462 N460 1.356 . S
C463 C457 1.363 . S
C463 C458 1.379 . S
C463 N461 1.356 . S
N464 C456 1.356 . S
N464 H470 0.984 . S
N464 H471 0.984 . S
N465 C458 1.356 . S
N465 H468 0.984 . S
N465 H469 0.985 . S
H466 N461 0.984 . S
H467 N461 0.985 . S
H468 N465 0.984 . S
H469 N465 0.985 . S
H470 N464 0.984 . S
H471 N464 0.984 . S
H472 N460 0.984 . S
H473 N460 0.985 . S
C474 C475 1.363 . S
C474 C480 1.379 1_455 S
C474 N482 1.356 . S
C475 C474 1.363 . S
C475 C481 1.363 1_455 S
C476 C477 1.363 . S
C476 C481 1.379 . S
C476 N483 1.356 . S
C477 C476 1.363 . S
C477 C480 1.363 . S
N478 C480 1.356 . S
N478 H490 0.984 . S
N478 H491 0.985 . S
N479 C481 1.356 . S
N479 H484 0.984 1_655 S
N479 H485 0.985 . S
C480 C474 1.379 1_655 S
C480 C477 1.363 . S
C480 N478 1.356 . S
C481 C475 1.363 1_655 S
C481 C476 1.379 . S
C481 N479 1.356 . S
N482 C474 1.356 . S
N482 H488 0.984 . S
N482 H489 0.984 . S
N483 C476 1.356 . S
N483 H486 0.984 . S
N483 H487 0.985 . S
H484 N479 0.984 1_455 S
H485 N479 0.985 . S
H486 N483 0.984 . S
H487 N483 0.985 . S
H488 N482 0.984 . S
H489 N482 0.984 . S
H490 N478 0.984 . S
H491 N478 0.985 . S
C492 C493 1.363 . S
C492 C498 1.379 . S
C492 N500 1.356 . S
C493 C492 1.363 . S
C493 C499 1.363 . S
C494 C495 1.363 . S
C494 C499 1.379 . S
C494 N501 1.356 . S
C495 C494 1.363 . S
C495 C498 1.363 . S
N496 C498 1.356 . S
N496 H508 0.984 . S
N496 H509 0.985 . S
N497 C499 1.356 . S
N497 H502 0.984 . S
N497 H503 0.985 . S
C498 C492 1.379 . S
C498 C495 1.363 . S
C498 N496 1.356 . S
C499 C493 1.363 . S
C499 C494 1.379 . S
C499 N497 1.356 . S
N500 C492 1.356 . S
N500 H506 0.984 . S
N500 H507 0.984 . S
N501 C494 1.356 . S
N501 H504 0.984 . S
N501 H505 0.985 . S
H502 N497 0.984 . S
H503 N497 0.985 . S
H504 N501 0.984 . S
H505 N501 0.985 . S
H506 N500 0.984 . S
H507 N500 0.984 . S
H508 N496 0.984 . S
H509 N496 0.985 . S
C510 C511 1.363 . S
C510 C516 1.379 1_655 S
C510 N518 1.356 . S
C511 C510 1.363 . S
C511 C517 1.363 1_655 S
C512 C513 1.363 . S
C512 C517 1.379 . S
C512 N519 1.356 . S
C513 C512 1.363 . S
C513 C516 1.363 . S
N514 C516 1.356 . S
N514 H526 0.984 . S
N514 H527 0.985 . S
N515 C517 1.356 . S
N515 H520 0.984 1_455 S
N515 H521 0.985 . S
C516 C510 1.379 1_455 S
C516 C513 1.363 . S
C516 N514 1.356 . S
C517 C511 1.363 1_455 S
C517 C512 1.379 . S
C517 N515 1.356 . S
N518 C510 1.356 . S
N518 H524 0.984 . S
N518 H525 0.984 . S
N519 C512 1.356 . S
N519 H522 0.984 . S
N519 H523 0.985 . S
H520 N515 0.984 1_655 S
H521 N515 0.985 . S
H522 N519 0.984 . S
H523 N519 0.985 . S
H524 N518 0.984 . S
H525 N518 0.984 . S
H526 N514 0.984 . S
H527 N514 0.985 . S
C528 C529 1.363 . S
C528 C534 1.379 . S
C528 N536 1.356 . S
C529 C528 1.363 . S
C529 C535 1.363 . S
C530 C531 1.363 . S
C530 C535 1.379 . S
C530 N537 1.356 . S
C531 C530 1.363 . S
C531 C534 1.363 . S
N532 C534 1.356 . S
N532 H544 0.984 . S
N532 H545 0.985 . S
N533 C535 1.356 . S
N533 H538 0.984 . S
N533 H539 0.985 . S
C534 C528 1.379 . S
C534 C531 1.363 . S
C534 N532 1.356 . S
C535 C529 1.363 . S
C535 C530 1.379 . S
C535 N533 1.356 . S
N536 C528 1.356 . S
N536 H542 0.984 . S
N536 H543 0.984 . S
N537 C530 1.356 . S
N537 H540 0.984 . S
N537 H541 0.985 . S
H538 N533 0.984 . S
H539 N533 0.985 . S
H540 N537 0.984 . S
H541 N537 0.985 . S
H542 N536 0.984 . S
H543 N536 0.984 . S
H544 N532 0.984 . S
H545 N532 0.985 . S
C546 C547 1.363 . S
C546 C552 1.379 . S
C546 N554 1.356 . S
C547 C546 1.363 . S
C547 C553 1.363 . S
C548 C549 1.363 . S
C548 C553 1.379 . S
C548 N555 1.356 . S
C549 C548 1.363 . S
C549 C552 1.363 . S
N550 C552 1.356 . S
N550 H562 0.984 . S
N550 H563 0.985 . S
N551 C553 1.356 . S
N551 H556 0.984 . S
N551 H557 0.985 . S
C552 C546 1.379 . S
C552 C549 1.363 . S
C552 N550 1.356 . S
C553 C547 1.363 . S
C553 C548 1.379 . S
C553 N551 1.356 . S
N554 C546 1.356 . S
N554 H560 0.984 . S
N554 H561 0.984 . S
N555 C548 1.356 . S
N555 H558 0.984 . S
N555 H559 0.985 . S
H556 N551 0.984 . S
H557 N551 0.985 . S
H558 N555 0.984 . S
H559 N555 0.985 . S
H560 N554 0.984 . S
H561 N554 0.984 . S
H562 N550 0.984 . S
H563 N550 0.985 . S
C564 C565 1.363 . S
C564 C570 1.379 . S
C564 N572 1.356 . S
C565 C564 1.363 . S
C565 C571 1.363 . S
C566 C567 1.363 . S
C566 C571 1.379 . S
C566 N573 1.356 . S
C567 C566 1.363 . S
C567 C570 1.363 . S
N568 C570 1.356 . S
N568 H580 0.984 . S
N568 H581 0.985 . S
N569 C571 1.356 . S
N569 H574 0.984 . S
N569 H575 0.985 . S
C570 C564 1.379 . S
C570 C567 1.363 . S
C570 N568 1.356 . S
C571 C565 1.363 . S
C571 C566 1.379 . S
C571 N569 1.356 . S
N572 C564 1.356 . S
N572 H578 0.984 . S
N572 H579 0.984 . S
N573 C566 1.356 . S
N573 H576 0.984 . S
N573 H577 0.985 . S
H574 N569 0.984 . S
H575 N569 0.985 . S
H576 N573 0.984 . S
H577 N573 0.985 . S
H578 N572 0.984 . S
H579 N572 0.984 . S
H580 N568 0.984 . S
H581 N568 0.985 . S
C582 C583 1.363 . S
C582 C588 1.379 . S
C582 N590 1.356 . S
C583 C582 1.363 . S
C583 C589 1.363 . S
C584 C585 1.363 . S
C584 C589 1.379 . S
C584 N591 1.356 . S
C585 C584 1.363 . S
C585 C588 1.363 . S
N586 C588 1.356 . S
N586 H598 0.984 . S
N586 H599 0.985 . S
N587 C589 1.356 . S
N587 H592 0.984 . S
N587 H593 0.985 . S
C588 C582 1.379 . S
C588 C585 1.363 . S
C588 N586 1.356 . S
C589 C583 1.363 . S
C589 C584 1.379 . S
C589 N587 1.356 . S
N590 C582 1.356 . S
N590 H596 0.984 . S
N590 H597 0.984 . S
N591 C584 1.356 . S
N591 H594 0.984 . S
N591 H595 0.985 . S
H592 N587 0.984 . S
H593 N587 0.985 . S
H594 N591 0.984 . S
H595 N591 0.985 . S
H596 N590 0.984 . S
H597 N590 0.984 . S
H598 N586 0.984 . S
H599 N586 0.985 . S
C600 C601 1.363 . S
C600 C606 1.379 . S
C600 N608 1.356 . S
C601 C600 1.363 . S
C601 C607 1.363 . S
C602 C603 1.363 . S
C602 C607 1.379 . S
C602 N609 1.356 . S
C603 C602 1.363 . S
C603 C606 1.363 . S
N604 C606 1.356 . S
N604 H616 0.984 . S
N604 H617 0.985 . S
N605 C607 1.356 . S
N605 H610 0.984 . S
N605 H611 0.985 . S
C606 C600 1.379 . S
C606 C603 1.363 . S
C606 N604 1.356 . S
C607 C601 1.363 . S
C607 C602 1.379 . S
C607 N605 1.356 . S
N608 C600 1.356 . S
N608 H614 0.984 . S
N608 H615 0.984 . S
N609 C602 1.356 . S
N609 H612 0.984 . S
N609 H613 0.985 . S
H610 N605 0.984 . S
H611 N605 0.985 . S
H612 N609 0.984 . S
H613 N609 0.985 . S
H614 N608 0.984 . S
H615 N608 0.984 . S
H616 N604 0.984 . S
H617 N604 0.985 . S
C618 C619 1.363 . S
C618 C624 1.379 . S
C618 N626 1.356 . S
C619 C618 1.363 . S
C619 C625 1.363 . S
C620 C621 1.363 . S
C620 C625 1.379 . S
C620 N627 1.356 . S
C621 C620 1.363 . S
C621 C624 1.363 . S
N622 C624 1.356 . S
N622 H634 0.984 . S
N622 H635 0.985 . S
N623 C625 1.356 . S
N623 H628 0.984 . S
N623 H629 0.985 . S
C624 C618 1.379 . S
C624 C621 1.363 . S
C624 N622 1.356 . S
C625 C619 1.363 . S
C625 C620 1.379 . S
C625 N623 1.356 . S
N626 C618 1.356 . S
N626 H632 0.984 . S
N626 H633 0.984 . S
N627 C620 1.356 . S
N627 H630 0.984 . S
N627 H631 0.985 . S
H628 N623 0.984 . S
H629 N623 0.985 . S
H630 N627 0.984 . S
H631 N627 0.985 . S
H632 N626 0.984 . S
H633 N626 0.984 . S
H634 N622 0.984 . S
H635 N622 0.985 . S
C636 C637 1.363 . S
C636 C642 1.379 . S
C636 N644 1.356 . S
C637 C636 1.363 . S
C637 C643 1.363 . S
C638 C639 1.363 . S
C638 C643 1.379 . S
C638 N645 1.356 . S
C639 C638 1.363 . S
C639 C642 1.363 . S
N640 C642 1.356 . S
N640 H652 0.984 . S
N640 H653 0.985 . S
N641 C643 1.356 . S
N641 H646 0.984 . S
N641 H647 0.985 . S
C642 C636 1.379 . S
C642 C639 1.363 . S
C642 N640 1.356 . S
C643 C637 1.363 . S
C643 C638 1.379 . S
C643 N641 1.356 . S
N644 C636 1.356 . S
N644 H650 0.984 . S
N644 H651 0.984 . S
N645 C638 1.356 . S
N645 H648 0.984 . S
N645 H649 0.985 . S
H646 N641 0.984 . S
H647 N641 0.985 . S
H648 N645 0.984 . S
H649 N645 0.985 . S
H650 N644 0.984 . S
H651 N644 0.984 . S
H652 N640 0.984 . S
H653 N640 0.985 . S
C654 C655 1.363 . S
C654 C660 1.379 . S
C654 N662 1.356 . S
C655 C654 1.363 . S
C655 C661 1.363 . S
C656 C657 1.363 . S
C656 C661 1.379 . S
C656 N663 1.356 . S
C657 C656 1.363 . S
C657 C660 1.363 . S
N658 C660 1.356 . S
N658 H670 0.984 . S
N658 H671 0.985 . S
N659 C661 1.356 . S
N659 H664 0.984 . S
N659 H665 0.985 . S
C660 C654 1.379 . S
C660 C657 1.363 . S
C660 N658 1.356 . S
C661 C655 1.363 . S
C661 C656 1.379 . S
C661 N659 1.356 . S
N662 C654 1.356 . S
N662 H668 0.984 1_556 S
N662 H669 0.984 . S
N663 C656 1.356 . S
N663 H666 0.984 . S
N663 H667 0.985 . S
H664 N659 0.984 . S
H665 N659 0.985 . S
H666 N663 0.984 . S
H667 N663 0.985 . S
H668 N662 0.984 1_554 S
H669 N662 0.984 . S
H670 N658 0.984 . S
H671 N658 0.985 . S
C241 C7 1.503 . S
C243 C90 1.413 . S
C259 C37 1.541 . S
C261 C109 1.435 . S
C277 C54 1.249 . S
C279 C132 1.226 . S
C297 C151 1.250 . S
C295 C87 1.255 . S
C315 C166 1.364 . S
C313 C30 1.469 . S
C331 C51 1.269 . S
C333 C189 1.264 . S
C349 C84 1.287 . S
C351 C208 1.266 . S
C367 C10 1.517 . S
C369 C223 1.404 . S
C385 C59 1.326 . S
C387 C227 1.321 . S
C405 C170 1.207 . S
C403 C74 1.225 . S
C423 C185 1.369 . S
C421 C18 1.476 . S
C439 C32 1.546 . S
C441 C204 1.438 . S
C459 C113 1.307 . S
C457 C73 1.319 . S
C475 C15 1.546 . S
C477 C128 1.457 . S
C495 C147 1.410 . S
C493 C43 1.503 . S
C513 C94 1.192 . S
C511 C62 1.211 . S
C531 C213 1.353 . S
C529 C21 1.465 . S
C549 C232 1.349 . S
C547 C29 1.472 . S
C565 C52 1.370 . S
C567 C175 1.258 . S
C585 C194 1.260 . S
C583 C81 1.385 . S
C603 C137 1.319 . S
C601 C40 1.440 . S
C619 C65 1.412 . S
C621 C156 1.296 . S
C639 C99 1.257 . S
C637 C76 1.371 . S
C657 C118 1.361 . S
C655 C8 1.474 . S
