# Generated by pormake.
# Topology zzz, (3,6)-cn, num edge types: 1
# Building blocks:
#     Node 0, Type 0, BuildingBlock: BETDAH_clean_linker_0, # of connection points: 3
#     Node 1, Type 0, BuildingBlock: BETDAH_clean_linker_0, # of connection points: 3
#     Node 2, Type 0, BuildingBlock: BETDAH_clean_linker_0, # of connection points: 3
#     Node 3, Type 0, BuildingBlock: BETDAH_clean_linker_0, # of connection points: 3
#     Node 4, Type 0, BuildingBlock: BETDAH_clean_linker_0, # of connection points: 3
#     Node 5, Type 0, BuildingBlock: BETDAH_clean_linker_0, # of connection points: 3
#     Node 6, Type 0, BuildingBlock: BETDAH_clean_linker_0, # of connection points: 3
#     Node 7, Type 0, BuildingBlock: BETDAH_clean_linker_0, # of connection points: 3
#     Node 8, Type 1, BuildingBlock: VOLQOD_clean_sbu_1, # of connection points: 6
#     Node 9, Type 1, BuildingBlock: VOLQOD_clean_sbu_1, # of connection points: 6
#     Node 10, Type 1, BuildingBlock: VOLQOD_clean_sbu_1, # of connection points: 6
#     Node 11, Type 1, BuildingBlock: VOLQOD_clean_sbu_1, # of connection points: 6
#     Edge 12, Type (0, 1), BuildingBlock: KIFKEQ_clean_linker_1, # of connection points: 2
#     Edge 13, Type (0, 1), BuildingBlock: KIFKEQ_clean_linker_1, # of connection points: 2
#     Edge 14, Type (0, 1), BuildingBlock: KIFKEQ_clean_linker_1, # of connection points: 2
#     Edge 15, Type (0, 1), BuildingBlock: KIFKEQ_clean_linker_1, # of connection points: 2
#     Edge 16, Type (0, 1), BuildingBlock: KIFKEQ_clean_linker_1, # of connection points: 2
#     Edge 17, Type (0, 1), BuildingBlock: KIFKEQ_clean_linker_1, # of connection points: 2
#     Edge 18, Type (0, 1), BuildingBlock: KIFKEQ_clean_linker_1, # of connection points: 2
#     Edge 19, Type (0, 1), BuildingBlock: KIFKEQ_clean_linker_1, # of connection points: 2
#     Edge 20, Type (0, 1), BuildingBlock: KIFKEQ_clean_linker_1, # of connection points: 2
#     Edge 21, Type (0, 1), BuildingBlock: KIFKEQ_clean_linker_1, # of connection points: 2
#     Edge 22, Type (0, 1), BuildingBlock: KIFKEQ_clean_linker_1, # of connection points: 2
#     Edge 23, Type (0, 1), BuildingBlock: KIFKEQ_clean_linker_1, # of connection points: 2
#     Edge 24, Type (0, 1), BuildingBlock: KIFKEQ_clean_linker_1, # of connection points: 2
#     Edge 25, Type (0, 1), BuildingBlock: KIFKEQ_clean_linker_1, # of connection points: 2
#     Edge 26, Type (0, 1), BuildingBlock: KIFKEQ_clean_linker_1, # of connection points: 2
#     Edge 27, Type (0, 1), BuildingBlock: KIFKEQ_clean_linker_1, # of connection points: 2
#     Edge 28, Type (0, 1), BuildingBlock: KIFKEQ_clean_linker_1, # of connection points: 2
#     Edge 29, Type (0, 1), BuildingBlock: KIFKEQ_clean_linker_1, # of connection points: 2
#     Edge 30, Type (0, 1), BuildingBlock: KIFKEQ_clean_linker_1, # of connection points: 2
#     Edge 31, Type (0, 1), BuildingBlock: KIFKEQ_clean_linker_1, # of connection points: 2
#     Edge 32, Type (0, 1), BuildingBlock: KIFKEQ_clean_linker_1, # of connection points: 2
#     Edge 33, Type (0, 1), BuildingBlock: KIFKEQ_clean_linker_1, # of connection points: 2
#     Edge 34, Type (0, 1), BuildingBlock: KIFKEQ_clean_linker_1, # of connection points: 2
#     Edge 35, Type (0, 1), BuildingBlock: KIFKEQ_clean_linker_1, # of connection points: 2
# Relax obj value: 0.197
# Max RMSD: 0.236
# Mean RMSD: 0.111
data_MOF--net-zzz--node1-VOLQOD_clean_sbu_1--node2-BETDAH_clean_linker_0--edge1-KIFKEQ_clean_linker_1
_symmetry_space_group_name_H-M    P1
_symmetry_Int_Tables_number       1
_symmetry_cell_setting            triclinic
loop_
_symmetry_equiv_pos_as_xyz
'x, y, z'
_cell_length_a     51.912592
_cell_length_b     51.560626
_cell_length_c     17.865725
_cell_angle_alpha  90.402798
_cell_angle_beta   89.918729
_cell_angle_gamma 90.822996
loop_
_atom_site_label
_atom_site_type_symbol
_atom_site_fract_x
_atom_site_fract_y
_atom_site_fract_z
_atom_type_partial_charge
H0 H 0.8467 0.50937 0.11746 0.0
H1 H 0.76798 0.50451 0.04585 0.0
H2 H 0.78857 0.54979 0.2417 0.0
C3 C 0.82673 0.51472 0.12542 0.0
C4 C 0.82011 0.53122 0.18468 0.0
C5 C 0.80811 0.50497 0.07578 0.0
C6 C 0.78226 0.51184 0.08505 0.0
C7 C 0.77509 0.52784 0.14588 0.0
C8 C 0.79408 0.5373 0.19553 0.0
N9 N 0.74911 0.53487 0.15907 0.0
C10 C 0.72872 0.52917 0.11101 0.0
H11 H 0.0274 0.83234 0.14791 0.0
H12 H 0.02156 0.75626 0.04973 0.0
H13 H 0.98707 0.77187 0.26503 0.0
C14 C 0.02174 0.81207 0.15215 0.0
C15 C 0.00738 0.80403 0.21427 0.0
C16 C 0.02703 0.7951 0.09266 0.0
C17 C 0.01794 0.76932 0.09616 0.0
C18 C 1.00372 0.76079 0.15906 0.0
C19 C 0.99837 0.77831 0.21741 0.0
N20 N 0.99391 0.73503 0.16492 0.0
C21 C 0.99747 0.71575 0.11134 0.0
H22 H 0.67206 0.01334 0.12688 0.0
H23 H 0.75014 0.02581 0.05499 0.0
H24 H 0.73425 0.98484 0.26027 0.0
C25 C 0.69255 0.01101 0.13631 0.0
C26 C 0.70094 0.99739 0.19889 0.0
C27 C 0.71011 0.02144 0.08492 0.0
C28 C 0.73662 0.01811 0.09567 0.0
C29 C 0.74539 0.0051 0.1599 0.0
C30 C 0.72746 0.99511 0.21155 0.0
N31 N 0.77197 1.00154 0.17441 0.0
C32 C 0.79127 0.00407 0.12093 0.0
H33 H 0.51135 0.67275 0.13493 0.0
H34 H 0.50085 0.75075 0.06038 0.0
H35 H 0.54458 0.73614 0.26086 0.0
C36 C 0.51462 0.69342 0.14295 0.0
C37 C 0.5296 0.70226 0.20314 0.0
C38 C 0.50409 0.71075 0.09203 0.0
C39 C 0.50863 0.73747 0.10094 0.0
C40 C 0.52305 0.74674 0.16282 0.0
C41 C 0.53324 0.72903 0.21394 0.0
N42 N 0.52795 0.7736 0.1751 0.0
C43 C 0.52248 0.79276 0.12345 0.0
H44 H 0.17706 0.53026 0.20206 0.0
H45 H 0.25326 0.52882 0.29516 0.0
H46 H 0.23752 0.49268 0.08117 0.0
C47 C 0.1973 0.52567 0.19646 0.0
C48 C 0.2053 0.51142 0.13399 0.0
C49 C 0.21434 0.53221 0.25466 0.0
C50 C 0.24011 0.52428 0.24976 0.0
C51 C 0.24858 0.5102 0.18648 0.0
C52 C 0.23106 0.50382 0.12915 0.0
N53 N 0.27432 0.50161 0.17887 0.0
C54 C 0.29307 0.50351 0.23422 0.0
H55 H 0.03396 0.16583 0.25375 0.0
H56 H 0.02077 0.24648 0.29075 0.0
H57 H 0.05788 0.22123 0.08714 0.0
C58 C 0.03578 0.18562 0.234 0.0
C59 C 0.0467 0.19069 0.16378 0.0
C60 C 0.02585 0.2055 0.27834 0.0
C61 C 0.02863 0.23127 0.25583 0.0
C62 C 0.04101 0.23706 0.18743 0.0
C63 C 0.04959 0.21669 0.14124 0.0
N64 N 0.04438 0.26302 0.1626 0.0
C65 C 0.03919 0.28447 0.20742 0.0
H66 H 0.34282 0.01918 0.20116 0.0
H67 H 0.26708 0.01124 0.2958 0.0
H68 H 0.27949 0.0581 0.09903 0.0
C69 C 0.32245 0.02364 0.19988 0.0
C70 C 0.3132 0.04009 0.14459 0.0
C71 C 0.30592 0.01293 0.25368 0.0
C72 C 0.2797 0.01919 0.25317 0.0
C73 C 0.27002 0.03547 0.1968 0.0
C74 C 0.28686 0.04561 0.14233 0.0
N75 N 0.24361 0.04213 0.19312 0.0
C76 C 0.22499 0.03397 0.24412 0.0
H77 H 0.49161 0.34134 0.19238 0.0
H78 H 0.49579 0.26619 0.29347 0.0
H79 H 0.4509 0.27686 0.09275 0.0
C80 C 0.48634 0.32088 0.1925 0.0
C81 C 0.46999 0.31107 0.13686 0.0
C82 C 0.49597 0.30479 0.24832 0.0
C83 C 0.48866 0.27848 0.24939 0.0
C84 C 0.47239 0.26824 0.19278 0.0
C85 C 0.46333 0.28465 0.13638 0.0
N86 N 0.46471 0.2417 0.19066 0.0
C87 C 0.47256 0.2233 0.242 0.0
O88 O 0.07036 0.99881 0.63529 0.0
Zn89 Zn 0.04371 0.99609 0.71817 0.0
O90 O 0.00892 1.00324 0.67833 0.0
Zn91 Zn 0.99451 0.0334 0.72748 0.0
Zn92 Zn 0.01043 0.00926 0.57056 0.0
Zn93 Zn 0.98565 0.97421 0.69701 0.0
O94 O 0.96217 0.02522 0.78626 0.0
O95 O 0.95427 0.98406 0.75653 0.0
O96 O 0.05439 0.0233 0.79617 0.0
O97 O 0.02079 0.04967 0.79406 0.0
O98 O 0.98606 0.06085 0.65409 0.0
O99 O 0.99488 0.04375 0.54284 0.0
O100 O 0.99391 0.9795 0.51344 0.0
O101 O 0.04517 0.9597 0.7624 0.0
O102 O 0.97519 0.95606 0.60229 0.0
O103 O 0.00422 0.94708 0.75279 0.0
C104 C 0.06892 0.00529 0.56669 0.0
C105 C 0.94801 0.00489 0.79019 0.0
C106 C 0.98686 0.06248 0.58322 0.0
C107 C 0.04318 0.044 0.81681 0.0
C108 C 0.98069 0.95974 0.53378 0.0
C109 C 0.02728 0.94284 0.77266 0.0
O110 O 0.04737 0.01035 0.53655 0.0
O111 O 0.5065 0.06946 0.63304 0.0
Zn112 Zn 0.50958 0.04284 0.71549 0.0
O113 O 0.50609 0.00737 0.67303 0.0
Zn114 Zn 0.47641 0.98944 0.71679 0.0
Zn115 Zn 0.50209 0.00858 0.56427 0.0
Zn116 Zn 0.53659 0.98748 0.69534 0.0
O117 O 0.4865 0.95786 0.77581 0.0
O118 O 0.52891 0.95684 0.76126 0.0
O119 O 0.48062 0.05027 0.78914 0.0
O120 O 0.45751 0.01355 0.78442 0.0
O121 O 0.45068 0.97871 0.63846 0.0
O122 O 0.46869 0.99146 0.53191 0.0
O123 O 0.532 0.992 0.51044 0.0
O124 O 0.54467 0.04849 0.76513 0.0
O125 O 0.5544 0.97511 0.60311 0.0
O126 O 0.56284 0.01026 0.7445 0.0
C127 C 0.50297 0.06765 0.56257 0.0
C128 C 0.50813 0.9474 0.78838 0.0
C129 C 0.4501 0.98086 0.56761 0.0
C130 C 0.46111 0.03658 0.80837 0.0
C131 C 0.55115 0.97917 0.53374 0.0
C132 C 0.56392 0.03346 0.76887 0.0
O133 O 0.50092 0.04564 0.53013 0.0
O134 O 0.44905 0.50817 0.63268 0.0
Zn135 Zn 0.47578 0.50965 0.7155 0.0
O136 O 0.51085 0.50676 0.6726 0.0
Zn137 Zn 0.52859 0.47707 0.71491 0.0
Zn138 Zn 0.5092 0.50309 0.56362 0.0
Zn139 Zn 0.53089 0.53775 0.69626 0.0
O140 O 0.56037 0.4876 0.77481 0.0
O141 O 0.56105 0.53039 0.76268 0.0
O142 O 0.46786 0.47952 0.78522 0.0
O143 O 0.50431 0.45725 0.78064 0.0
O144 O 0.53837 0.45142 0.63509 0.0
O145 O 0.52423 0.46908 0.53016 0.0
O146 O 0.52741 0.53275 0.51094 0.0
O147 O 0.47107 0.54425 0.76955 0.0
O148 O 0.5439 0.55568 0.60505 0.0
O149 O 0.50865 0.56381 0.74586 0.0
C150 C 0.45058 0.50559 0.56179 0.0
C151 C 0.57063 0.50973 0.78874 0.0
C152 C 0.53498 0.45058 0.56459 0.0
C153 C 0.48132 0.46008 0.80355 0.0
C154 C 0.54047 0.55213 0.53533 0.0
C155 C 0.48594 0.56412 0.77241 0.0
O156 O 0.47228 0.50333 0.52919 0.0
O157 O 0.98602 0.54063 0.54829 0.0
Zn158 Zn 0.01374 0.53316 0.62573 0.0
O159 O 0.00903 0.49764 0.66583 0.0
Zn160 Zn 1.00255 0.49926 0.77344 0.0
Zn161 Zn 0.98059 0.47947 0.61566 0.0
Zn162 Zn 0.03976 0.4774 0.64934 0.0
O163 O 0.03218 0.48472 0.83252 0.0
O164 O 0.05747 0.46841 0.74464 0.0
O165 O 0.01003 0.56 0.70811 0.0
O166 O 1.0002 0.5364 0.80782 0.0
O167 O 0.96878 0.48166 0.79946 0.0
O168 O 0.95229 0.47052 0.68886 0.0
O169 O 0.99175 0.44682 0.56151 0.0
O170 O 0.04976 0.5381 0.58057 0.0
O171 O 0.03337 0.44524 0.58809 0.0
O172 O 0.06567 0.49878 0.59581 0.0
C173 C 0.96839 0.52616 0.52001 0.0
C174 C 0.05276 0.47329 0.81307 0.0
C175 C 0.95051 0.4721 0.75986 0.0
C176 C 0.00418 0.55834 0.77722 0.0
C177 C 0.01346 0.43576 0.55601 0.0
C178 C 0.06809 0.52202 0.57349 0.0
O179 O 0.96501 0.50272 0.53985 0.0
H180 H 0.21985 0.04743 0.38945 0.0
H181 H 0.18354 0.00461 0.2094 0.0
H182 H 0.18255 0.03849 0.47013 0.0
H183 H 0.14639 0.99515 0.28978 0.0
H184 H 0.07263 0.01563 0.41729 0.0
H185 H 0.11138 0.02041 0.34202 0.0
H186 H 0.15808 0.00416 0.53553 0.0
H187 H 0.11915 0.99972 0.61174 0.0
C188 C 0.20397 0.03577 0.36781 0.0
C189 C 0.20428 0.02668 0.29378 0.0
C190 C 0.1827 0.03054 0.41386 0.0
C191 C 0.16141 0.01624 0.38623 0.0
C192 C 0.16228 0.00655 0.31241 0.0
C193 C 0.18355 0.01177 0.26657 0.0
C194 C 0.09111 0.01298 0.44402 0.0
C195 C 0.09271 0.00733 0.52076 0.0
C196 C 0.11337 0.01554 0.40058 0.0
C197 C 0.13784 0.01257 0.43265 0.0
C198 C 0.13951 0.00677 0.50929 0.0
C199 C 0.11719 0.00411 0.55285 0.0
H200 H 0.50588 0.18514 0.21309 0.0
H201 H 0.45488 0.21534 0.38202 0.0
H202 H 0.51561 0.14825 0.29337 0.0
H203 H 0.4641 0.17827 0.46239 0.0
H204 H 0.50282 0.11831 0.61133 0.0
H205 H 0.49775 0.15727 0.53607 0.0
H206 H 0.49232 0.10988 0.33624 0.0
H207 H 0.49777 0.07111 0.41077 0.0
C208 C 0.49695 0.18387 0.26784 0.0
C209 C 0.47972 0.20281 0.29194 0.0
C210 C 0.50234 0.16274 0.31356 0.0
C211 C 0.4905 0.16022 0.38414 0.0
C212 C 0.47374 0.17975 0.40876 0.0
C213 C 0.46836 0.20087 0.36284 0.0
C214 C 0.5007 0.11621 0.55129 0.0
C215 C 0.50068 0.09153 0.51721 0.0
C216 C 0.49766 0.13855 0.50823 0.0
C217 C 0.49466 0.1367 0.43013 0.0
C218 C 0.49496 0.11205 0.3961 0.0
C219 C 0.49791 0.08976 0.43903 0.0
H220 H 0.30157 0.53575 0.35252 0.0
H221 H 0.33263 0.47097 0.23017 0.0
H222 H 0.33947 0.53629 0.43484 0.0
H223 H 0.37022 0.47105 0.31237 0.0
H224 H 0.44658 0.49904 0.4103 0.0
H225 H 0.40783 0.49868 0.33418 0.0
H226 H 0.36156 0.51087 0.53208 0.0
H227 H 0.40053 0.51163 0.60875 0.0
C228 C 0.31647 0.52154 0.34391 0.0
C229 C 0.31448 0.50337 0.28547 0.0
C230 C 0.33806 0.52173 0.391 0.0
C231 C 0.35796 0.50381 0.37986 0.0
C232 C 0.35549 0.48538 0.32176 0.0
C233 C 0.33395 0.4852 0.27502 0.0
C234 C 0.42819 0.50164 0.43787 0.0
C235 C 0.42674 0.50529 0.51584 0.0
C236 C 0.40592 0.50129 0.39413 0.0
C237 C 0.38157 0.50459 0.42706 0.0
C238 C 0.38005 0.50846 0.50493 0.0
C239 C 0.40239 0.50875 0.54889 0.0
H240 H 0.9973 0.29201 0.29375 0.0
H241 H 0.07068 0.32549 0.23086 0.0
H242 H 0.99021 0.32814 0.38107 0.0
H243 H 0.06361 0.3619 0.31667 0.0
H244 H 0.05651 0.40676 0.53437 0.0
H245 H 0.0619 0.3699 0.45058 0.0
H246 H 0.98217 0.37484 0.38399 0.0
H247 H 0.97656 0.41159 0.46911 0.0
C248 C 0.01177 0.30729 0.29846 0.0
C249 C 0.03449 0.30624 0.25623 0.0
C250 C 0.00771 0.32798 0.34802 0.0
C251 C 0.0264 0.34785 0.35612 0.0
C252 C 0.04903 0.34672 0.31272 0.0
C253 C 0.05303 0.32605 0.26326 0.0
C254 C 0.04004 0.39995 0.50229 0.0
C255 C 0.01611 0.41226 0.50838 0.0
C256 C 0.0432 0.3789 0.45377 0.0
C257 C 0.02255 0.36958 0.40998 0.0
C258 C 0.99843 0.38144 0.4173 0.0
C259 C 0.99525 0.40256 0.46595 0.0
H260 H 0.80564 0.04316 0.02891 0.0
H261 H 0.82488 0.96598 0.09868 0.0
H262 H 0.843 0.04382 0.94438 0.0
H263 H 0.86238 0.96656 0.01586 0.0
H264 H 0.91256 0.96567 0.80861 0.0
H265 H 0.87359 0.966 0.88437 0.0
H266 H 0.89009 0.04523 0.9507 0.0
H267 H 0.92889 0.04514 0.87361 0.0
C268 C 0.81793 0.02637 0.02579 0.0
C269 C 0.81263 0.00449 0.06947 0.0
C270 C 0.83934 0.02676 0.97797 0.0
C271 C 0.85567 0.00522 0.97328 0.0
C272 C 0.85002 0.9833 0.01717 0.0
C273 C 0.82868 0.98297 0.06482 0.0
C274 C 0.90789 0.98322 0.8391 0.0
C275 C 0.92398 0.00535 0.83518 0.0
C276 C 0.88557 0.98335 0.88286 0.0
C277 C 0.87877 0.00559 0.92392 0.0
C278 C 0.89462 0.02787 0.91914 0.0
C279 C 0.91697 0.02775 0.8753 0.0
H280 H 0.49169 0.83378 0.14349 0.0
H281 H 0.54433 0.79835 0.98794 0.0
H282 H 0.48721 0.87084 0.05962 0.0
H283 H 0.53969 0.83511 0.90303 0.0
H284 H 0.55055 0.9191 0.82363 0.0
H285 H 0.55263 0.88081 0.90206 0.0
H286 H 0.47038 0.88357 0.9373 0.0
H287 H 0.46827 0.92222 0.85964 0.0
C288 C 0.50201 0.83389 0.09071 0.0
C289 C 0.51831 0.81349 0.07153 0.0
C290 C 0.4994 0.85497 0.04261 0.0
C291 C 0.51318 0.85597 0.97475 0.0
C292 C 0.5291 0.8351 0.95531 0.0
C293 C 0.53164 0.81402 0.00342 0.0
C294 C 0.53287 0.91158 0.84794 0.0
C295 C 0.50925 0.92382 0.83535 0.0
C296 C 0.53405 0.88948 0.89252 0.0
C297 C 0.51166 0.87909 0.92576 0.0
C298 C 0.48801 0.89125 0.91306 0.0
C299 C 0.48681 0.91334 0.86826 0.0
H300 H 0.68638 0.55811 0.11298 0.0
H301 H 0.72052 0.49169 0.00622 0.0
H302 H 0.64788 0.55251 0.03565 0.0
H303 H 0.68213 0.48615 0.92717 0.0
H304 H 0.59754 0.47041 0.85471 0.0
H305 H 0.63598 0.47435 0.93312 0.0
H306 H 0.63563 0.55752 0.90597 0.0
H307 H 0.5972 0.55372 0.82917 0.0
C308 C 0.68556 0.54235 0.07254 0.0
C309 C 0.7062 0.52537 0.06488 0.0
C310 C 0.66363 0.53919 0.02801 0.0
C311 C 0.66197 0.51897 0.97482 0.0
C312 C 0.6827 0.50178 0.96799 0.0
C313 C 0.7047 0.505 0.0127 0.0
C314 C 0.60566 0.48953 0.86555 0.0
C315 C 0.59415 0.51174 0.83581 0.0
C316 C 0.62778 0.49176 0.91013 0.0
C317 C 0.63882 0.51626 0.92614 0.0
C318 C 0.6274 0.53839 0.89585 0.0
C319 C 0.60539 0.53617 0.85136 0.0
H320 H 0.98083 0.71314 0.96836 0.0
H321 H 0.01963 0.67023 0.13981 0.0
H322 H 0.98243 0.67526 0.88459 0.0
H323 H 0.02177 0.63249 0.05638 0.0
H324 H 0.99263 0.56197 0.9262 0.0
H325 H 0.99166 0.60073 0.00425 0.0
H326 H 0.01206 0.64768 0.81326 0.0
H327 H 0.01263 0.60882 0.73435 0.0
C328 C 0.98996 0.69562 0.98747 0.0
C329 C 1.00011 0.69432 0.05991 0.0
C330 C 0.99097 0.67401 0.93969 0.0
C331 C 1.00207 0.65078 0.964 0.0
C332 C 0.01271 0.64991 0.03636 0.0
C333 C 0.01169 0.6715 0.0839 0.0
C334 C 0.99685 0.58053 0.90055 0.0
C335 C 1.00277 0.58221 0.82388 0.0
C336 C 0.99647 0.60277 0.94555 0.0
C337 C 1.00201 0.6273 0.91517 0.0
C338 C 0.00754 0.62909 0.83829 0.0
C339 C 0.00796 0.60679 0.79314 0.0
H340 H 0.04276 0.19939 0.42049 0.0
H341 H 0.97578 0.19155 0.27952 0.0
H342 H 0.02377 0.16849 0.50857 0.0
H343 H 0.95682 0.16031 0.36679 0.0
H344 H 0.97841 0.07286 0.43537 0.0
H345 H 0.97897 0.11541 0.37665 0.0
H346 H 0.98574 0.15218 0.59365 0.0
H347 H 0.98475 0.10968 0.65289 0.0
C348 C 0.02331 0.19223 0.4109 0.0
C349 C 0.01058 0.19781 0.34397 0.0
C350 C 0.01247 0.17443 0.4609 0.0
C351 C 0.98901 0.16177 0.44362 0.0
C352 C 0.97497 0.16973 0.38101 0.0
C353 C 0.98566 0.18777 0.33162 0.0
C354 C 0.97927 0.09001 0.47071 0.0
C355 C 0.98185 0.08786 0.54859 0.0
C356 C 0.97939 0.11439 0.43719 0.0
C357 C 0.98244 0.13703 0.48083 0.0
C358 C 0.98334 0.135 0.55895 0.0
C359 C 0.98276 0.11064 0.59263 0.0
H360 H 0.30816 0.02227 0.40339 0.0
H361 H 0.33087 0.9677 0.23255 0.0
H362 H 0.34032 0.00465 0.488 0.0
H363 H 0.3628 0.94971 0.31716 0.0
H364 H 0.44335 0.97583 0.41671 0.0
H365 H 0.40269 0.97386 0.34968 0.0
H366 H 0.36142 0.96925 0.55939 0.0
H367 H 0.40227 0.97128 0.62696 0.0
C368 C 0.31913 0.00561 0.38549 0.0
C369 C 0.31734 0.99645 0.31162 0.0
C370 C 0.3376 0.99551 0.43376 0.0
C371 C 0.35446 0.97615 0.40851 0.0
C372 C 0.35039 0.96492 0.33759 0.0
C373 C 0.33201 0.97504 0.28944 0.0
C374 C 0.42568 0.97374 0.44858 0.0
C375 C 0.42605 0.9741 0.52713 0.0
C376 C 0.40232 0.97239 0.41013 0.0
C377 C 0.37881 0.97154 0.44936 0.0
C378 C 0.37923 0.97007 0.52779 0.0
C379 C 0.40266 0.97115 0.56634 0.0
H380 H 0.54157 0.32988 0.22739 0.0
H381 H 0.48678 0.30795 0.39799 0.0
H382 H 0.56073 0.36212 0.31208 0.0
H383 H 0.50563 0.34042 0.48276 0.0
H384 H 0.5426 0.4023 0.62267 0.0
H385 H 0.54223 0.36111 0.5542 0.0
H386 H 0.53831 0.40266 0.34553 0.0
H387 H 0.53869 0.44365 0.41348 0.0
C388 C 0.53435 0.3313 0.2842 0.0
C389 C 0.51261 0.31674 0.30629 0.0
C390 C 0.54517 0.34984 0.3324 0.0
C391 C 0.53433 0.35417 0.40337 0.0
C392 C 0.51447 0.33748 0.42847 0.0
C393 C 0.50367 0.31885 0.38011 0.0
C394 C 0.54239 0.40266 0.56206 0.0
C395 C 0.54035 0.42625 0.52343 0.0
C396 C 0.54207 0.37904 0.52301 0.0
C397 C 0.54011 0.37863 0.44463 0.0
C398 C 0.54012 0.40229 0.40591 0.0
C399 C 0.54013 0.42583 0.44488 0.0
H400 H 0.18133 0.57284 0.26589 0.0
H401 H 0.22159 0.51702 0.39933 0.0
H402 H 0.14875 0.57677 0.36255 0.0
H403 H 0.1901 0.52246 0.49913 0.0
H404 H 0.10854 0.49096 0.54328 0.0
H405 H 0.14947 0.50222 0.4891 0.0
H406 H 0.12726 0.58265 0.47865 0.0
H407 H 0.08514 0.57097 0.53206 0.0
C408 C 0.18391 0.56242 0.31774 0.0
C409 C 0.20328 0.54372 0.32374 0.0
C410 C 0.16524 0.56477 0.37357 0.0
C411 C 0.16607 0.54891 0.43713 0.0
C412 C 0.18827 0.53406 0.44916 0.0
C413 C 0.20663 0.53124 0.39246 0.0
C414 C 0.11224 0.51115 0.53014 0.0
C415 C 0.09331 0.53001 0.54134 0.0
C416 C 0.13611 0.51774 0.50001 0.0
C417 C 0.14204 0.54348 0.4803 0.0
C418 C 0.12337 0.56261 0.49306 0.0
C419 C 0.0992 0.55593 0.5233 0.0
H420 H 0.06911 0.82726 0.08173 0.0
H421 H 0.01034 0.78911 0.94856 0.0
H422 H 0.07479 0.85993 0.98574 0.0
H423 H 0.01725 0.82076 0.84974 0.0
H424 H 0.99282 0.90449 0.80551 0.0
H425 H 1.00054 0.86298 0.86095 0.0
H426 H 0.08229 0.88017 0.86778 0.0
H427 H 0.07433 0.92279 0.81304 0.0
C428 C 0.05832 0.82515 0.03012 0.0
C429 C 0.03855 0.80631 0.02383 0.0
C430 C 0.06166 0.84386 0.97472 0.0
C431 C 0.04563 0.84365 0.91143 0.0
C432 C 0.02917 0.82205 0.89938 0.0
C433 C 0.02547 0.80361 0.95551 0.0
C434 C 0.01255 0.89954 0.81816 0.0
C435 C 0.03293 0.91721 0.80548 0.0
C436 C 0.01705 0.87536 0.84903 0.0
C437 C 0.04212 0.8679 0.86803 0.0
C438 C 0.06272 0.88529 0.85389 0.0
C439 C 0.05816 0.90974 0.82286 0.0
H440 H 0.70607 1.00076 0.94648 0.0
H441 H 0.68783 0.06859 0.07705 0.0
H442 H 0.67334 0.01187 0.85589 0.0
H443 H 0.65565 0.0808 0.98454 0.0
H444 H 0.57259 0.05811 0.90243 0.0
H445 H 0.61417 0.06352 0.96462 0.0
H446 H 0.65254 0.03566 0.76507 0.0
H447 H 0.61079 0.02876 0.70559 0.0
C448 C 0.69604 0.01892 0.95319 0.0
C449 C 0.69941 0.03388 0.01817 0.0
C450 C 0.6771 0.02536 0.90139 0.0
C451 C 0.6613 0.04703 0.91352 0.0
C452 C 0.66694 0.06363 0.97434 0.0
C453 C 0.68568 0.05696 0.02664 0.0
C454 C 0.59003 0.05379 0.87164 0.0
C455 C 0.58863 0.04267 0.80003 0.0
C456 C 0.61395 0.057 0.9069 0.0
C457 C 0.63688 0.04958 0.87042 0.0
C458 C 0.63536 0.04087 0.79578 0.0
C459 C 0.61148 0.03708 0.76145 0.0
H460 H 0.52162 0.70759 0.95026 0.0
H461 H 0.4572 0.68682 0.09086 0.0
H462 H 0.50855 0.67467 0.85983 0.0
H463 H 0.44298 0.65447 -0.00133 0.0
H464 H 0.48894 0.6115 0.71005 0.0
H465 H 0.48305 0.65322 0.77213 0.0
H466 H 0.45967 0.61332 0.97401 0.0
H467 H 0.46398 0.57177 0.90944 0.0
C468 C 0.50376 0.69694 0.95945 0.0
C469 C 0.49038 0.69962 0.02703 0.0
C470 C 0.49619 0.6779 0.90772 0.0
C471 C 0.47494 0.66135 0.92253 0.0
C472 C 0.45981 0.66633 0.98631 0.0
C473 C 0.46764 0.68514 0.03852 0.0
C474 C 0.48177 0.61183 0.76706 0.0
C475 C 0.47715 0.5886 0.80555 0.0
C476 C 0.47857 0.6357 0.80286 0.0
C477 C 0.47148 0.6368 0.87878 0.0
C478 C 0.46494 0.61342 0.91538 0.0
C479 C 0.46753 0.58951 0.87873 0.0
H480 H 0.8106 0.51802 0.9292 0.0
H481 H 0.82801 0.45686 0.08349 0.0
H482 H 0.84163 0.50047 0.84008 0.0
H483 H 0.8588 0.43893 -0.00577 0.0
H484 H 0.94176 0.46302 0.90793 0.0
H485 H 0.9004 0.46151 0.97154 0.0
H486 H 0.86124 0.46609 0.75898 0.0
H487 H 0.90288 0.4676 0.69484 0.0
C488 C 0.81999 0.49995 0.94204 0.0
C489 C 0.81712 0.48879 0.01293 0.0
C490 C 0.83786 0.48991 0.89122 0.0
C491 C 0.85308 0.46864 0.91098 0.0
C492 C 0.84766 0.45558 0.97807 0.0
C493 C 0.82986 0.46565 0.02878 0.0
C494 C 0.92436 0.46305 0.87452 0.0
C495 C 0.92563 0.46576 0.79649 0.0
C496 C 0.90059 0.46195 0.91094 0.0
C497 C 0.87751 0.46377 0.87024 0.0
C498 C 0.8787 0.46477 0.79176 0.0
C499 C 0.90256 0.46554 0.75513 0.0
H500 H 0.08671 0.18613 0.06168 0.0
H501 H 0.02016 0.14485 0.14925 0.0
H502 H 0.09539 0.14905 0.97852 0.0
H503 H 0.02994 0.10795 0.07111 0.0
H504 H 0.05818 0.03809 0.96166 0.0
H505 H 0.06713 0.0737 0.05036 0.0
H506 H 0.06516 0.12854 0.86909 0.0
H507 H 0.05578 0.09312 0.78126 0.0
C508 C 0.07416 0.16921 0.06407 0.0
C509 C 0.05298 0.16846 0.1134 0.0
C510 C 0.07934 0.14793 0.01723 0.0
C511 C 0.06376 0.12543 0.02024 0.0
C512 C 0.0428 0.12468 0.0696 0.0
C513 C 0.03727 0.14596 0.11462 0.0
C514 C 0.06078 0.05763 0.94072 0.0
C515 C 0.05629 0.06307 0.86522 0.0
C516 C 0.06581 0.07795 -0.00881 0.0
C517 C 0.0667 0.1038 0.96631 0.0
C518 C 0.06485 0.1088 0.8895 0.0
C519 C 0.05939 0.08859 0.83943 0.0
H520 H 0.35528 0.07051 0.17108 0.0
H521 H 0.3132 0.03159 -0.0057 0.0
H522 H 0.39133 0.07843 0.08588 0.0
H523 H 0.34946 0.03846 0.9094 0.0
H524 H 0.41574 0.0552 0.7616 0.0
H525 H 0.37818 0.06502 0.839 0.0
H526 H 0.42299 0.04998 0.03765 0.0
H527 H 0.46056 0.04122 0.95963 0.0
C528 C 0.35359 0.06425 0.11324 0.0
C529 C 0.33162 0.05043 0.08891 0.0
C530 C 0.37428 0.06852 0.06467 0.0
C531 C 0.37357 0.05868 -0.0089 0.0
C532 C 0.35068 0.04656 0.96538 0.0
C533 C 0.32985 0.04257 0.01388 0.0
C534 C 0.4176 0.05491 0.822 0.0
C535 C 0.44088 0.04777 0.8552 0.0
C536 C 0.39609 0.06024 0.8663 0.0
C537 C 0.3974 0.05806 0.94463 0.0
C538 C 0.42128 0.05227 0.97768 0.0
C539 C 0.44284 0.04717 0.93324 0.0
H540 H 0.43836 0.35202 0.1549 0.0
H541 H 0.48328 0.31121 0.99014 0.0
H542 H 0.43281 0.38789 0.06799 0.0
H543 H 0.47901 0.34735 0.90414 0.0
H544 H 0.46731 0.41281 0.75206 0.0
H545 H 0.45573 0.37471 0.82596 0.0
H546 H 0.46067 0.42139 0.02785 0.0
H547 H 0.47088 0.45957 0.95267 0.0
C548 C 0.44644 0.35053 0.09909 0.0
C549 C 0.46112 0.32897 0.07864 0.0
C550 C 0.44359 0.37117 0.04967 0.0
C551 C 0.45584 0.37084 0.97937 0.0
C552 C 0.46902 0.3483 0.95729 0.0
C553 C 0.47153 0.32751 0.00643 0.0
C554 C 0.4651 0.41489 0.81213 0.0
C555 C 0.46978 0.43891 0.84712 0.0
C556 C 0.45874 0.39308 0.85458 0.0
C557 C 0.45757 0.39477 0.93313 0.0
C558 C 0.461 0.4193 0.96753 0.0
C559 C 0.46695 0.44122 0.92475 0.0
H560 H 0.16887 0.54137 0.07018 0.0
H561 H 0.19703 0.46297 0.07297 0.0
H562 H 0.13145 0.52689 -0.00159 0.0
H563 H 0.15951 0.44848 -0.00075 0.0
H564 H 0.09936 0.44986 0.7925 0.0
H565 H 0.13785 0.45626 0.86927 0.0
H566 H 0.09294 0.49759 0.03348 0.0
H567 H 0.05447 0.49136 0.95728 0.0
C568 C 0.16718 0.52106 0.05459 0.0
C569 C 0.18571 0.50325 0.07789 0.0
C570 C 0.14569 0.51275 0.01406 0.0
C571 C 0.14229 0.48646 -0.00488 0.0
C572 C 0.1616 0.46882 0.01387 0.0
C573 C 0.18314 0.47715 0.05531 0.0
C574 C 0.0975 0.45969 0.84598 0.0
C575 C 0.07388 0.47053 0.86804 0.0
C576 C 0.11959 0.46333 0.88983 0.0
C577 C 0.11843 0.47796 0.95619 0.0
C578 C 0.09441 0.4867 0.98159 0.0
C579 C 0.07233 0.48292 0.93818 0.0
H580 H 0.95987 0.81407 0.27476 0.0
H581 H 0.03969 0.83873 0.28171 0.0
H582 H 0.94811 0.85235 0.34952 0.0
H583 H 0.02794 0.87688 0.35449 0.0
H584 H 0.99773 0.95616 0.38931 0.0
H585 H 1.00105 0.91664 0.31485 0.0
H586 H 0.95793 0.87433 0.48191 0.0
H587 H 0.9545 0.91389 0.55718 0.0
C588 C 0.97492 0.82731 0.29371 0.0
C589 C 1.00066 0.82363 0.27187 0.0
C590 C 0.96816 0.84927 0.33573 0.0
C591 C 0.98705 0.86784 0.3557 0.0
C592 C 0.01292 0.86321 0.33791 0.0
C593 C 0.01966 0.8413 0.29683 0.0
C594 C 0.9883 0.93868 0.40947 0.0
C595 C 0.97628 0.93814 0.47997 0.0
C596 C 0.99039 0.916 0.36702 0.0
C597 C 0.98029 0.89239 0.39374 0.0
C598 C 0.96603 0.89227 0.46045 0.0
C599 C 0.96408 0.91497 0.50338 0.0
H600 H 0.69887 1.00105 0.35155 0.0
H601 H 0.65898 0.96802 0.16081 0.0
H602 H 0.66251 0.98904 0.43182 0.0
H603 H 0.62269 0.95595 0.2408 0.0
H604 H 0.55285 0.98645 0.38214 0.0
H605 H 0.59059 0.98381 0.30173 0.0
H606 H 0.63495 0.95414 0.48584 0.0
H607 H 0.59727 0.95693 0.56675 0.0
C608 C 0.68264 0.99059 0.32729 0.0
C609 C 0.6815 0.98585 0.24995 0.0
C610 C 0.66182 0.98367 0.37313 0.0
C611 C 0.63959 0.97186 0.34229 0.0
C612 C 0.63934 0.96545 0.26583 0.0
C613 C 0.6601 0.97234 0.22017 0.0
C614 C 0.57045 0.97878 0.40513 0.0
C615 C 0.57209 0.97228 0.48117 0.0
C616 C 0.59209 0.97717 0.35893 0.0
C617 C 0.61582 0.96906 0.38781 0.0
C618 C 0.61701 0.96083 0.46241 0.0
C619 C 0.59534 0.96231 0.50855 0.0
H620 H 0.52714 0.701 0.35582 0.0
H621 H 0.55709 0.65977 0.16423 0.0
H622 H 0.53764 0.66435 0.43568 0.0
H623 H 0.56776 0.6232 0.24382 0.0
H624 H 0.56523 0.59787 0.56976 0.0
H625 H 0.57041 0.6356 0.48957 0.0
H626 H 0.5386 0.59172 0.30385 0.0
H627 H 0.53359 0.55392 0.38352 0.0
C628 C 0.5367 0.68443 0.33135 0.0
C629 C 0.54093 0.68297 0.2539 0.0
C630 C 0.54275 0.66344 0.37693 0.0
C631 C 0.55318 0.64073 0.34571 0.0
C632 C 0.55929 0.64022 0.26917 0.0
C633 C 0.55324 0.66114 0.22374 0.0
C634 C 0.55986 0.59604 0.51138 0.0
C635 C 0.54861 0.57294 0.48332 0.0
C636 C 0.56273 0.61774 0.46563 0.0
C637 C 0.55462 0.61674 0.39077 0.0
C638 C 0.5452 0.59308 0.36125 0.0
C639 C 0.54222 0.57141 0.40704 0.0
H640 H 0.86661 0.55191 0.14437 0.0
H641 H 0.82061 0.53258 0.33825 0.0
H642 H 0.90428 0.55841 0.22414 0.0
H643 H 0.85836 0.53967 0.41842 0.0
H644 H 0.93236 0.56299 0.54409 0.0
H645 H 0.89548 0.57227 0.46259 0.0
H646 H 0.92618 0.52066 0.29439 0.0
H647 H 0.96234 0.51096 0.37643 0.0
C648 C 0.86443 0.54961 0.20429 0.0
C649 C 0.84081 0.54116 0.23498 0.0
C650 C 0.88597 0.55343 0.24982 0.0
C651 C 0.88427 0.54924 0.32715 0.0
C652 C 0.86013 0.54316 0.3589 0.0
C653 C 0.83854 0.5391 0.31309 0.0
C654 C 0.9315 0.55436 0.48865 0.0
C655 C 0.95018 0.53657 0.46561 0.0
C656 C 0.91038 0.55947 0.44251 0.0
C657 C 0.90806 0.54723 0.37227 0.0
C658 C 0.92766 0.53063 0.34782 0.0
C659 C 0.94835 0.52509 0.39451 0.0
loop_
_geom_bond_atom_site_label_1
_geom_bond_atom_site_label_2
_geom_bond_distance
_geom_bond_site_symmetry_2
_ccdc_geom_bond_type
H0 C3 0.929 . S
H1 C6 0.929 . S
H2 C8 0.930 . S
C3 H0 0.929 . S
C3 C4 1.398 . S
C3 C5 1.396 1_554 S
C4 C3 1.398 . S
C4 C8 1.407 . S
C5 C3 1.396 1_556 S
C5 C6 1.394 . S
C6 H1 0.929 . S
C6 C5 1.394 . S
C6 C7 1.382 1_556 S
C7 C6 1.382 1_554 S
C7 C8 1.392 . S
C7 N9 1.420 . S
C8 H2 0.930 . S
C8 C4 1.407 . S
C8 C7 1.392 . S
N9 C7 1.420 . S
N9 C10 1.244 1_554 S
C10 N9 1.244 1_556 S
H11 C14 0.937 . S
H12 C17 0.929 . S
H13 C19 0.930 . S
C14 H11 0.937 . S
C14 C15 1.395 1_655 S
C14 C16 1.393 1_655 S
C15 C14 1.395 1_455 S
C15 C19 1.407 . S
C16 C14 1.393 1_455 S
C16 C17 1.394 . S
C17 H12 0.929 . S
C17 C16 1.394 . S
C17 C18 1.382 . S
C18 C17 1.382 . S
C18 C19 1.392 . S
C18 N20 1.420 . S
C19 H13 0.930 . S
C19 C15 1.407 . S
C19 C18 1.392 . S
N20 C18 1.420 . S
N20 C21 1.244 1_455 S
C21 N20 1.244 1_655 S
H22 C25 0.929 . S
H23 C28 0.929 1_556 S
H24 C30 0.930 . S
C25 H22 0.929 . S
C25 C26 1.395 1_565 S
C25 C27 1.394 1_565 S
C26 C25 1.395 1_545 S
C26 C30 1.415 . S
C27 C25 1.394 1_545 S
C27 C28 1.399 . S
C28 H23 0.929 1_554 S
C28 C27 1.399 . S
C28 C29 1.382 . S
C29 C28 1.382 . S
C29 C30 1.392 . S
C29 N31 1.420 . S
C30 H24 0.930 . S
C30 C26 1.415 . S
C30 C29 1.392 . S
N31 C29 1.420 . S
N31 C32 1.244 1_545 S
C32 N31 1.244 1_565 S
H33 C36 0.929 . S
H34 C39 0.929 . S
H35 C41 0.930 . S
C36 H33 0.929 . S
C36 C37 1.398 . S
C36 C38 1.396 1_554 S
C37 C36 1.398 . S
C37 C41 1.407 . S
C38 C36 1.396 1_556 S
C38 C39 1.394 . S
C39 H34 0.929 . S
C39 C38 1.394 . S
C39 C40 1.382 1_556 S
C40 C39 1.382 1_554 S
C40 C41 1.392 . S
C40 N42 1.420 . S
C41 H35 0.930 . S
C41 C37 1.407 . S
C41 C40 1.392 . S
N42 C40 1.420 . S
N42 C43 1.244 1_554 S
C43 N42 1.244 1_556 S
H44 C47 0.929 . S
H45 C50 0.929 . S
H46 C52 0.930 . S
C47 H44 0.929 . S
C47 C48 1.398 . S
C47 C49 1.396 . S
C48 C47 1.398 . S
C48 C52 1.407 . S
C49 C47 1.396 . S
C49 C50 1.394 . S
C50 H45 0.929 . S
C50 C49 1.394 . S
C50 C51 1.382 . S
C51 C50 1.382 . S
C51 C52 1.392 . S
C51 N53 1.420 . S
C52 H46 0.930 . S
C52 C48 1.407 . S
C52 C51 1.392 . S
N53 C51 1.420 . S
N53 C54 1.244 . S
C54 N53 1.244 . S
H55 C58 0.929 . S
H56 C61 0.929 . S
H57 C63 0.930 . S
C58 H55 0.929 . S
C58 C59 1.398 . S
C58 C60 1.396 . S
C59 C58 1.398 . S
C59 C63 1.407 . S
C60 C58 1.396 . S
C60 C61 1.394 . S
C61 H56 0.929 . S
C61 C60 1.394 . S
C61 C62 1.382 . S
C62 C61 1.382 . S
C62 C63 1.392 . S
C62 N64 1.420 . S
C63 H57 0.930 . S
C63 C59 1.407 . S
C63 C62 1.392 . S
N64 C62 1.420 . S
N64 C65 1.244 . S
C65 N64 1.244 . S
H66 C69 0.929 . S
H67 C72 0.929 . S
H68 C74 0.930 . S
C69 H66 0.929 . S
C69 C70 1.398 . S
C69 C71 1.396 . S
C70 C69 1.398 . S
C70 C74 1.407 . S
C71 C69 1.396 . S
C71 C72 1.394 . S
C72 H67 0.929 . S
C72 C71 1.394 . S
C72 C73 1.382 . S
C73 C72 1.382 . S
C73 C74 1.392 . S
C73 N75 1.420 . S
C74 H68 0.930 . S
C74 C70 1.407 . S
C74 C73 1.392 . S
N75 C73 1.420 . S
N75 C76 1.244 . S
C76 N75 1.244 . S
H77 C80 0.929 . S
H78 C83 0.929 . S
H79 C85 0.930 . S
C80 H77 0.929 . S
C80 C81 1.398 . S
C80 C82 1.396 . S
C81 C80 1.398 . S
C81 C85 1.407 . S
C82 C80 1.396 . S
C82 C83 1.394 . S
C83 H78 0.929 . S
C83 C82 1.394 . S
C83 C84 1.382 . S
C84 C83 1.382 . S
C84 C85 1.392 . S
C84 N86 1.420 . S
C85 H79 0.930 . S
C85 C81 1.407 . S
C85 C84 1.392 . S
N86 C84 1.420 . S
N86 C87 1.244 . S
C87 N86 1.244 . S
O88 Zn89 1.956 . S
O88 C104 1.225 1_545 S
Zn89 O88 1.956 . S
Zn89 O90 1.948 1_545 S
Zn89 O96 1.947 . S
Zn89 O101 1.891 1_545 S
O90 Zn89 1.948 1_565 S
O90 Zn91 1.901 1_465 S
O90 Zn92 1.952 . S
O90 Zn93 1.965 1_455 S
Zn91 O90 1.901 1_645 S
Zn91 O94 1.933 . S
Zn91 O97 1.941 1_655 S
Zn91 O98 1.965 . S
Zn92 O90 1.952 . S
Zn92 O99 1.938 1_565 S
Zn92 O100 1.906 . S
Zn92 O110 1.953 . S
Zn93 O90 1.965 1_655 S
Zn93 O95 1.932 . S
Zn93 O102 1.977 . S
Zn93 O103 1.910 1_655 S
O94 Zn91 1.933 . S
O94 C105 1.226 . S
O95 Zn93 1.932 . S
O95 C105 1.307 1_565 S
O96 Zn89 1.947 . S
O96 C107 1.253 . S
O97 Zn91 1.941 1_455 S
O97 C107 1.283 . S
O98 Zn91 1.965 . S
O98 C106 1.303 1_655 S
O99 Zn92 1.938 1_545 S
O99 C106 1.247 . S
O100 Zn92 1.906 . S
O100 C108 1.304 1_455 S
O101 Zn89 1.891 1_565 S
O101 C109 1.311 . S
O102 Zn93 1.977 . S
O102 C108 1.272 . S
O103 Zn93 1.910 1_455 S
O103 C109 1.231 . S
C104 O88 1.225 1_565 S
C104 O110 1.298 . S
C105 O94 1.226 . S
C105 O95 1.307 1_545 S
C106 O98 1.303 1_455 S
C106 O99 1.247 . S
C107 O96 1.253 . S
C107 O97 1.283 . S
C108 O100 1.304 1_655 S
C108 O102 1.272 . S
C109 O101 1.311 . S
C109 O103 1.231 . S
O110 Zn92 1.953 . S
O110 C104 1.298 . S
O111 Zn112 1.953 . S
O111 C127 1.225 . S
Zn112 O111 1.953 . S
Zn112 O113 1.949 . S
Zn112 O119 1.919 . S
Zn112 O124 1.924 . S
O113 Zn112 1.949 . S
O113 Zn114 1.923 1_545 S
O113 Zn115 1.950 . S
O113 Zn116 1.945 1_545 S
Zn114 O113 1.923 1_565 S
Zn114 O117 1.933 . S
Zn114 O120 1.941 . S
Zn114 O121 1.965 . S
Zn115 O113 1.950 . S
Zn115 O122 1.938 . S
Zn115 O123 1.906 . S
Zn115 O133 1.953 . S
Zn116 O113 1.945 1_565 S
Zn116 O118 1.932 . S
Zn116 O125 1.977 . S
Zn116 O126 1.910 1_565 S
O117 Zn114 1.933 . S
O117 C128 1.226 . S
O118 Zn116 1.932 . S
O118 C128 1.307 . S
O119 Zn112 1.919 . S
O119 C130 1.253 . S
O120 Zn114 1.941 . S
O120 C130 1.283 1_565 S
O121 Zn114 1.965 . S
O121 C129 1.303 1_565 S
O122 Zn115 1.938 . S
O122 C129 1.247 . S
O123 Zn115 1.906 . S
O123 C131 1.304 1_545 S
O124 Zn112 1.924 . S
O124 C132 1.311 . S
O125 Zn116 1.977 . S
O125 C131 1.272 . S
O126 Zn116 1.910 1_545 S
O126 C132 1.231 . S
C127 O111 1.225 . S
C127 O133 1.298 . S
C128 O117 1.226 . S
C128 O118 1.307 . S
C129 O121 1.303 1_545 S
C129 O122 1.247 . S
C130 O119 1.253 . S
C130 O120 1.283 1_545 S
C131 O123 1.304 1_565 S
C131 O125 1.272 . S
C132 O124 1.311 . S
C132 O126 1.231 . S
O133 Zn115 1.953 . S
O133 C127 1.298 . S
O134 Zn135 1.953 . S
O134 C150 1.225 . S
Zn135 O134 1.953 . S
Zn135 O136 1.949 . S
Zn135 O142 1.919 . S
Zn135 O147 1.924 . S
O136 Zn135 1.949 . S
O136 Zn137 1.923 . S
O136 Zn138 1.950 . S
O136 Zn139 1.945 . S
Zn137 O136 1.923 . S
Zn137 O140 1.933 . S
Zn137 O143 1.941 . S
Zn137 O144 1.965 . S
Zn138 O136 1.950 . S
Zn138 O145 1.938 . S
Zn138 O146 1.906 . S
Zn138 O156 1.953 . S
Zn139 O136 1.945 . S
Zn139 O141 1.932 . S
Zn139 O148 1.977 . S
Zn139 O149 1.910 . S
O140 Zn137 1.933 . S
O140 C151 1.226 . S
O141 Zn139 1.932 . S
O141 C151 1.307 . S
O142 Zn135 1.919 . S
O142 C153 1.253 . S
O143 Zn137 1.941 . S
O143 C153 1.283 . S
O144 Zn137 1.965 . S
O144 C152 1.303 . S
O145 Zn138 1.938 . S
O145 C152 1.247 . S
O146 Zn138 1.906 . S
O146 C154 1.304 . S
O147 Zn135 1.924 . S
O147 C155 1.311 . S
O148 Zn139 1.977 . S
O148 C154 1.272 . S
O149 Zn139 1.910 . S
O149 C155 1.231 . S
C150 O134 1.225 . S
C150 O156 1.298 . S
C151 O140 1.226 . S
C151 O141 1.307 . S
C152 O144 1.303 . S
C152 O145 1.247 . S
C153 O142 1.253 . S
C153 O143 1.283 . S
C154 O146 1.304 . S
C154 O148 1.272 . S
C155 O147 1.311 . S
C155 O149 1.231 . S
O156 Zn138 1.953 . S
O156 C150 1.298 . S
O157 Zn158 1.922 1_655 S
O157 C173 1.225 . S
Zn158 O157 1.922 1_455 S
Zn158 O159 1.949 . S
Zn158 O165 1.919 . S
Zn158 O170 1.958 . S
O159 Zn158 1.949 . S
O159 Zn160 1.918 1_455 S
O159 Zn161 1.929 1_455 S
O159 Zn162 1.973 . S
Zn160 O159 1.918 1_655 S
Zn160 O163 1.933 1_655 S
Zn160 O166 1.941 . S
Zn160 O167 1.965 . S
Zn161 O159 1.929 1_655 S
Zn161 O168 1.938 . S
Zn161 O169 1.906 . S
Zn161 O179 1.953 . S
Zn162 O159 1.973 . S
Zn162 O164 1.932 . S
Zn162 O171 1.977 . S
Zn162 O172 1.910 . S
O163 Zn160 1.933 1_455 S
O163 C174 1.226 . S
O164 Zn162 1.932 . S
O164 C174 1.307 . S
O165 Zn158 1.919 . S
O165 C176 1.253 . S
O166 Zn160 1.941 . S
O166 C176 1.284 1_655 S
O167 Zn160 1.965 . S
O167 C175 1.303 . S
O168 Zn161 1.938 . S
O168 C175 1.247 . S
O169 Zn161 1.906 . S
O169 C177 1.304 1_655 S
O170 Zn158 1.958 . S
O170 C178 1.311 . S
O171 Zn162 1.977 . S
O171 C177 1.272 . S
O172 Zn162 1.910 . S
O172 C178 1.231 . S
C173 O157 1.225 . S
C173 O179 1.298 . S
C174 O163 1.226 . S
C174 O164 1.307 . S
C175 O167 1.303 . S
C175 O168 1.247 . S
C176 O165 1.253 . S
C176 O166 1.284 1_455 S
C177 O169 1.304 1_455 S
C177 O171 1.272 . S
C178 O170 1.311 . S
C178 O172 1.231 . S
O179 Zn161 1.953 . S
O179 C173 1.298 . S
H180 C188 0.950 . S
H181 C193 0.950 . S
H182 C190 0.950 . S
H183 C192 0.950 . S
H184 C194 0.950 . S
H185 C196 0.950 . S
H186 C198 0.950 . S
H187 C199 0.950 . S
C188 H180 0.950 . S
C188 C189 1.386 . S
C188 C190 1.391 . S
C189 C188 1.386 . S
C189 C193 1.393 1_545 S
C190 H182 0.950 . S
C190 C188 1.391 . S
C190 C191 1.400 . S
C191 C190 1.400 . S
C191 C192 1.398 1_545 S
C191 C197 1.491 . S
C192 H183 0.950 . S
C192 C191 1.398 1_565 S
C192 C193 1.391 . S
C193 H181 0.950 . S
C193 C189 1.393 1_565 S
C193 C192 1.391 . S
C194 H184 0.950 . S
C194 C195 1.408 . S
C194 C196 1.391 . S
C195 C194 1.408 . S
C195 C199 1.369 1_565 S
C196 H185 0.950 . S
C196 C194 1.391 . S
C196 C197 1.400 1_565 S
C197 C191 1.491 . S
C197 C196 1.400 1_545 S
C197 C198 1.398 . S
C198 H186 0.950 . S
C198 C197 1.398 . S
C198 C199 1.391 . S
C199 H187 0.950 . S
C199 C195 1.369 1_545 S
C199 C198 1.391 . S
H200 C208 0.950 . S
H201 C213 0.950 . S
H202 C210 0.950 . S
H203 C212 0.950 . S
H204 C214 0.950 . S
H205 C216 0.950 . S
H206 C218 0.950 . S
H207 C219 0.950 . S
C208 H200 0.950 . S
C208 C209 1.386 . S
C208 C210 1.391 . S
C209 C208 1.386 . S
C209 C213 1.393 . S
C210 H202 0.950 . S
C210 C208 1.391 . S
C210 C211 1.400 . S
C211 C210 1.400 . S
C211 C212 1.398 . S
C211 C217 1.491 . S
C212 H203 0.950 . S
C212 C211 1.398 . S
C212 C213 1.391 . S
C213 H201 0.950 . S
C213 C209 1.393 . S
C213 C212 1.391 . S
C214 H204 0.950 . S
C214 C215 1.386 . S
C214 C216 1.391 . S
C215 C214 1.386 . S
C215 C219 1.393 . S
C216 H205 0.950 . S
C216 C214 1.391 . S
C216 C217 1.400 . S
C217 C211 1.491 . S
C217 C216 1.400 . S
C217 C218 1.398 . S
C218 H206 0.950 . S
C218 C217 1.398 . S
C218 C219 1.391 . S
C219 H207 0.950 . S
C219 C215 1.393 . S
C219 C218 1.391 . S
H220 C228 0.950 . S
H221 C233 0.950 . S
H222 C230 0.950 . S
H223 C232 0.950 . S
H224 C234 0.950 . S
H225 C236 0.950 . S
H226 C238 0.950 . S
H227 C239 0.950 . S
C228 H220 0.950 . S
C228 C229 1.386 . S
C228 C230 1.391 . S
C229 C228 1.386 . S
C229 C233 1.393 . S
C230 H222 0.950 . S
C230 C228 1.391 . S
C230 C231 1.400 . S
C231 C230 1.400 . S
C231 C232 1.398 . S
C231 C237 1.491 . S
C232 H223 0.950 . S
C232 C231 1.398 . S
C232 C233 1.391 . S
C233 H221 0.950 . S
C233 C229 1.393 . S
C233 C232 1.391 . S
C234 H224 0.950 . S
C234 C235 1.386 . S
C234 C236 1.391 . S
C235 C234 1.386 . S
C235 C239 1.393 . S
C236 H225 0.950 . S
C236 C234 1.391 . S
C236 C237 1.400 . S
C237 C231 1.491 . S
C237 C236 1.400 . S
C237 C238 1.398 . S
C238 H226 0.950 . S
C238 C237 1.398 . S
C238 C239 1.391 . S
C239 H227 0.950 . S
C239 C235 1.393 . S
C239 C238 1.391 . S
H240 C248 0.950 . S
H241 C253 0.950 . S
H242 C250 0.950 . S
H243 C252 0.950 . S
H244 C254 0.950 . S
H245 C256 0.950 . S
H246 C258 0.950 . S
H247 C259 0.950 . S
C248 H240 0.950 . S
C248 C249 1.386 . S
C248 C250 1.391 . S
C249 C248 1.386 . S
C249 C253 1.393 . S
C250 H242 0.950 . S
C250 C248 1.391 . S
C250 C251 1.400 . S
C251 C250 1.400 . S
C251 C252 1.398 . S
C251 C257 1.491 . S
C252 H243 0.950 . S
C252 C251 1.398 . S
C252 C253 1.391 . S
C253 H241 0.950 . S
C253 C249 1.393 . S
C253 C252 1.391 . S
C254 H244 0.950 . S
C254 C255 1.386 . S
C254 C256 1.391 . S
C255 C254 1.386 . S
C255 C259 1.393 . S
C256 H245 0.950 . S
C256 C254 1.391 . S
C256 C257 1.400 . S
C257 C251 1.491 . S
C257 C256 1.400 . S
C257 C258 1.398 . S
C258 H246 0.950 . S
C258 C257 1.398 . S
C258 C259 1.391 . S
C259 H247 0.950 . S
C259 C255 1.393 . S
C259 C258 1.391 . S
H260 C268 0.950 . S
H261 C273 0.950 1_554 S
H262 C270 0.950 . S
H263 C272 0.950 . S
H264 C274 0.950 . S
H265 C276 0.950 . S
H266 C278 0.950 . S
H267 C279 0.950 . S
C268 H260 0.950 . S
C268 C269 1.382 1_545 S
C268 C270 1.391 . S
C269 C268 1.382 1_565 S
C269 C273 1.396 . S
C270 H262 0.950 . S
C270 C268 1.391 . S
C270 C271 1.426 . S
C271 C270 1.426 . S
C271 C272 1.373 1_545 S
C271 C277 1.491 . S
C272 H263 0.950 . S
C272 C271 1.373 1_565 S
C272 C273 1.391 . S
C273 H261 0.950 1_556 S
C273 C269 1.396 . S
C273 C272 1.391 . S
C274 H264 0.950 . S
C274 C275 1.386 1_565 S
C274 C276 1.391 . S
C275 C274 1.386 1_545 S
C275 C279 1.393 . S
C276 H265 0.950 . S
C276 C274 1.391 . S
C276 C277 1.364 1_565 S
C277 C271 1.491 . S
C277 C276 1.364 1_545 S
C277 C278 1.435 . S
C278 H266 0.950 . S
C278 C277 1.435 . S
C278 C279 1.391 . S
C279 H267 0.950 . S
C279 C275 1.393 . S
C279 C278 1.391 . S
H280 C288 0.950 . S
H281 C293 0.950 1_554 S
H282 C290 0.950 . S
H283 C292 0.950 . S
H284 C294 0.950 . S
H285 C296 0.950 . S
H286 C298 0.950 . S
H287 C299 0.950 . S
C288 H280 0.950 . S
C288 C289 1.386 . S
C288 C290 1.391 . S
C289 C288 1.386 . S
C289 C293 1.393 . S
C290 H282 0.950 . S
C290 C288 1.391 . S
C290 C291 1.400 . S
C291 C290 1.400 . S
C291 C292 1.398 . S
C291 C297 1.491 . S
C292 H283 0.950 . S
C292 C291 1.398 . S
C292 C293 1.391 . S
C293 H281 0.950 1_556 S
C293 C289 1.393 . S
C293 C292 1.391 . S
C294 H284 0.950 . S
C294 C295 1.386 . S
C294 C296 1.391 . S
C295 C294 1.386 . S
C295 C299 1.393 . S
C296 H285 0.950 . S
C296 C294 1.391 . S
C296 C297 1.400 . S
C297 C291 1.491 . S
C297 C296 1.400 . S
C297 C298 1.398 . S
C298 H286 0.950 . S
C298 C297 1.398 . S
C298 C299 1.391 . S
C299 H287 0.950 . S
C299 C295 1.393 . S
C299 C298 1.391 . S
H300 C308 0.950 . S
H301 C313 0.950 . S
H302 C310 0.950 . S
H303 C312 0.950 . S
H304 C314 0.950 . S
H305 C316 0.950 . S
H306 C318 0.950 . S
H307 C319 0.950 . S
C308 H300 0.950 . S
C308 C309 1.386 . S
C308 C310 1.391 . S
C309 C308 1.386 . S
C309 C313 1.393 . S
C310 H302 0.950 . S
C310 C308 1.391 . S
C310 C311 1.400 . S
C311 C310 1.400 . S
C311 C312 1.398 . S
C311 C317 1.491 . S
C312 H303 0.950 . S
C312 C311 1.398 . S
C312 C313 1.391 . S
C313 H301 0.950 . S
C313 C309 1.393 . S
C313 C312 1.391 . S
C314 H304 0.950 . S
C314 C315 1.386 . S
C314 C316 1.391 . S
C315 C314 1.386 . S
C315 C319 1.393 . S
C316 H305 0.950 . S
C316 C314 1.391 . S
C316 C317 1.400 . S
C317 C311 1.491 . S
C317 C316 1.400 . S
C317 C318 1.398 . S
C318 H306 0.950 . S
C318 C317 1.398 . S
C318 C319 1.391 . S
C319 H307 0.950 . S
C319 C315 1.393 . S
C319 C318 1.391 . S
H320 C328 0.950 . S
H321 C333 0.950 . S
H322 C330 0.950 . S
H323 C332 0.950 . S
H324 C334 0.950 . S
H325 C336 0.950 . S
H326 C338 0.950 . S
H327 C339 0.950 . S
C328 H320 0.950 . S
C328 C329 1.405 1_556 S
C328 C330 1.391 . S
C329 C328 1.405 1_554 S
C329 C333 1.372 1_655 S
C330 H322 0.950 . S
C330 C328 1.391 . S
C330 C331 1.400 1_655 S
C331 C330 1.400 1_455 S
C331 C332 1.398 . S
C331 C337 1.491 . S
C332 H323 0.950 . S
C332 C331 1.398 . S
C332 C333 1.391 1_556 S
C333 H321 0.950 . S
C333 C329 1.372 1_455 S
C333 C332 1.391 1_554 S
C334 H324 0.950 . S
C334 C335 1.386 . S
C334 C336 1.391 . S
C335 C334 1.386 . S
C335 C339 1.393 1_455 S
C336 H325 0.950 . S
C336 C334 1.391 . S
C336 C337 1.400 . S
C337 C331 1.491 . S
C337 C336 1.400 . S
C337 C338 1.398 1_455 S
C338 H326 0.950 . S
C338 C337 1.398 1_655 S
C338 C339 1.391 . S
C339 H327 0.950 . S
C339 C335 1.393 1_655 S
C339 C338 1.391 . S
H340 C348 0.950 . S
H341 C353 0.950 . S
H342 C350 0.950 . S
H343 C352 0.950 . S
H344 C354 0.950 1_655 S
H345 C356 0.950 . S
H346 C358 0.950 . S
H347 C359 0.950 . S
C348 H340 0.950 . S
C348 C349 1.386 . S
C348 C350 1.391 . S
C349 C348 1.386 . S
C349 C353 1.393 . S
C350 H342 0.950 . S
C350 C348 1.391 . S
C350 C351 1.400 . S
C351 C350 1.400 . S
C351 C352 1.398 . S
C351 C357 1.491 . S
C352 H343 0.950 . S
C352 C351 1.398 . S
C352 C353 1.391 . S
C353 H341 0.950 . S
C353 C349 1.393 . S
C353 C352 1.391 . S
C354 H344 0.950 1_455 S
C354 C355 1.386 . S
C354 C356 1.391 . S
C355 C354 1.386 . S
C355 C359 1.393 . S
C356 H345 0.950 . S
C356 C354 1.391 . S
C356 C357 1.400 . S
C357 C351 1.491 . S
C357 C356 1.400 . S
C357 C358 1.398 . S
C358 H346 0.950 . S
C358 C357 1.398 . S
C358 C359 1.391 . S
C359 H347 0.950 . S
C359 C355 1.393 . S
C359 C358 1.391 . S
H360 C368 0.950 . S
H361 C373 0.950 . S
H362 C370 0.950 . S
H363 C372 0.950 . S
H364 C374 0.950 . S
H365 C376 0.950 . S
H366 C378 0.950 . S
H367 C379 0.950 . S
C368 H360 0.950 . S
C368 C369 1.386 . S
C368 C370 1.391 . S
C369 C368 1.386 . S
C369 C373 1.393 1_545 S
C370 H362 0.950 . S
C370 C368 1.391 . S
C370 C371 1.400 . S
C371 C370 1.400 . S
C371 C372 1.398 1_545 S
C371 C377 1.491 . S
C372 H363 0.950 . S
C372 C371 1.398 1_565 S
C372 C373 1.391 . S
C373 H361 0.950 . S
C373 C369 1.393 1_565 S
C373 C372 1.391 . S
C374 H364 0.950 . S
C374 C375 1.386 1_565 S
C374 C376 1.391 . S
C375 C374 1.386 1_545 S
C375 C379 1.393 . S
C376 H365 0.950 . S
C376 C374 1.391 . S
C376 C377 1.400 1_565 S
C377 C371 1.491 . S
C377 C376 1.400 1_545 S
C377 C378 1.398 . S
C378 H366 0.950 . S
C378 C377 1.398 . S
C378 C379 1.391 . S
C379 H367 0.950 . S
C379 C375 1.393 . S
C379 C378 1.391 . S
H380 C388 0.950 . S
H381 C393 0.950 . S
H382 C390 0.950 . S
H383 C392 0.950 . S
H384 C394 0.950 . S
H385 C396 0.950 . S
H386 C398 0.950 . S
H387 C399 0.950 . S
C388 H380 0.950 . S
C388 C389 1.386 . S
C388 C390 1.391 . S
C389 C388 1.386 . S
C389 C393 1.393 . S
C390 H382 0.950 . S
C390 C388 1.391 . S
C390 C391 1.400 . S
C391 C390 1.400 . S
C391 C392 1.398 . S
C391 C397 1.491 . S
C392 H383 0.950 . S
C392 C391 1.398 . S
C392 C393 1.391 . S
C393 H381 0.950 . S
C393 C389 1.393 . S
C393 C392 1.391 . S
C394 H384 0.950 . S
C394 C395 1.386 . S
C394 C396 1.391 . S
C395 C394 1.386 . S
C395 C399 1.393 . S
C396 H385 0.950 . S
C396 C394 1.391 . S
C396 C397 1.400 . S
C397 C391 1.491 . S
C397 C396 1.400 . S
C397 C398 1.398 . S
C398 H386 0.950 . S
C398 C397 1.398 . S
C398 C399 1.391 . S
C399 H387 0.950 . S
C399 C395 1.393 . S
C399 C398 1.391 . S
H400 C408 0.950 . S
H401 C413 0.950 . S
H402 C410 0.950 . S
H403 C412 0.950 . S
H404 C414 0.950 . S
H405 C416 0.950 . S
H406 C418 0.950 . S
H407 C419 0.950 . S
C408 H400 0.950 . S
C408 C409 1.386 . S
C408 C410 1.391 . S
C409 C408 1.386 . S
C409 C413 1.393 . S
C410 H402 0.950 . S
C410 C408 1.391 . S
C410 C411 1.400 . S
C411 C410 1.400 . S
C411 C412 1.398 . S
C411 C417 1.491 . S
C412 H403 0.950 . S
C412 C411 1.398 . S
C412 C413 1.391 . S
C413 H401 0.950 . S
C413 C409 1.393 . S
C413 C412 1.391 . S
C414 H404 0.950 . S
C414 C415 1.386 . S
C414 C416 1.391 . S
C415 C414 1.386 . S
C415 C419 1.393 . S
C416 H405 0.950 . S
C416 C414 1.391 . S
C416 C417 1.400 . S
C417 C411 1.491 . S
C417 C416 1.400 . S
C417 C418 1.398 . S
C418 H406 0.950 . S
C418 C417 1.398 . S
C418 C419 1.391 . S
C419 H407 0.950 . S
C419 C415 1.393 . S
C419 C418 1.391 . S
H420 C428 0.950 . S
H421 C433 0.950 . S
H422 C430 0.950 . S
H423 C432 0.950 . S
H424 C434 0.950 1_655 S
H425 C436 0.950 1_655 S
H426 C438 0.950 . S
H427 C439 0.950 . S
C428 H420 0.950 . S
C428 C429 1.413 . S
C428 C430 1.393 . S
C429 C428 1.413 . S
C429 C433 1.373 1_454 S
C430 H422 0.950 . S
C430 C428 1.393 . S
C430 C431 1.399 1_554 S
C431 C430 1.399 1_556 S
C431 C432 1.398 1_455 S
C431 C437 1.491 . S
C432 H423 0.950 . S
C432 C431 1.398 1_655 S
C432 C433 1.391 . S
C433 H421 0.950 . S
C433 C429 1.373 1_656 S
C433 C432 1.391 . S
C434 H424 0.950 1_455 S
C434 C435 1.386 . S
C434 C436 1.391 . S
C435 C434 1.386 . S
C435 C439 1.393 . S
C436 H425 0.950 1_455 S
C436 C434 1.391 . S
C436 C437 1.400 . S
C437 C431 1.491 . S
C437 C436 1.400 . S
C437 C438 1.398 . S
C438 H426 0.950 . S
C438 C437 1.398 . S
C438 C439 1.391 . S
C439 H427 0.950 . S
C439 C435 1.393 . S
C439 C438 1.391 . S
H440 C448 0.950 . S
H441 C453 0.950 . S
H442 C450 0.950 . S
H443 C452 0.950 1_554 S
H444 C454 0.950 . S
H445 C456 0.950 . S
H446 C458 0.950 1_565 S
H447 C459 0.950 . S
C448 H440 0.950 . S
C448 C449 1.399 . S
C448 C450 1.391 . S
C449 C448 1.399 . S
C449 C453 1.372 1_566 S
C450 H442 0.950 . S
C450 C448 1.391 . S
C450 C451 1.400 1_565 S
C451 C450 1.400 1_545 S
C451 C452 1.398 . S
C451 C457 1.491 . S
C452 H443 0.950 1_556 S
C452 C451 1.398 . S
C452 C453 1.391 1_556 S
C453 H441 0.950 . S
C453 C449 1.372 1_544 S
C453 C452 1.391 1_554 S
C454 H444 0.950 . S
C454 C455 1.386 . S
C454 C456 1.391 . S
C455 C454 1.386 . S
C455 C459 1.393 . S
C456 H445 0.950 . S
C456 C454 1.391 . S
C456 C457 1.400 . S
C457 C451 1.491 . S
C457 C456 1.400 . S
C457 C458 1.398 . S
C458 H446 0.950 1_545 S
C458 C457 1.398 . S
C458 C459 1.391 . S
C459 H447 0.950 . S
C459 C455 1.393 . S
C459 C458 1.391 . S
H460 C468 0.950 1_554 S
H461 C473 0.950 . S
H462 C470 0.950 . S
H463 C472 0.950 . S
H464 C474 0.950 . S
H465 C476 0.950 . S
H466 C478 0.950 . S
H467 C479 0.950 . S
C468 H460 0.950 1_556 S
C468 C469 1.386 . S
C468 C470 1.391 . S
C469 C468 1.386 . S
C469 C473 1.393 . S
C470 H462 0.950 . S
C470 C468 1.391 . S
C470 C471 1.400 . S
C471 C470 1.400 . S
C471 C472 1.398 . S
C471 C477 1.491 . S
C472 H463 0.950 . S
C472 C471 1.398 . S
C472 C473 1.391 . S
C473 H461 0.950 . S
C473 C469 1.393 . S
C473 C472 1.391 . S
C474 H464 0.950 . S
C474 C475 1.386 . S
C474 C476 1.391 . S
C475 C474 1.386 . S
C475 C479 1.393 . S
C476 H465 0.950 . S
C476 C474 1.391 . S
C476 C477 1.400 . S
C477 C471 1.491 . S
C477 C476 1.400 . S
C477 C478 1.398 . S
C478 H466 0.950 . S
C478 C477 1.398 . S
C478 C479 1.391 . S
C479 H467 0.950 . S
C479 C475 1.393 . S
C479 C478 1.391 . S
H480 C488 0.950 . S
H481 C493 0.950 . S
H482 C490 0.950 . S
H483 C492 0.950 . S
H484 C494 0.950 . S
H485 C496 0.950 . S
H486 C498 0.950 . S
H487 C499 0.950 . S
C488 H480 0.950 . S
C488 C489 1.386 . S
C488 C490 1.391 . S
C489 C488 1.386 . S
C489 C493 1.393 . S
C490 H482 0.950 . S
C490 C488 1.391 . S
C490 C491 1.400 . S
C491 C490 1.400 . S
C491 C492 1.398 . S
C491 C497 1.491 . S
C492 H483 0.950 . S
C492 C491 1.398 . S
C492 C493 1.391 . S
C493 H481 0.950 . S
C493 C489 1.393 . S
C493 C492 1.391 . S
C494 H484 0.950 . S
C494 C495 1.386 . S
C494 C496 1.391 . S
C495 C494 1.386 . S
C495 C499 1.393 . S
C496 H485 0.950 . S
C496 C494 1.391 . S
C496 C497 1.400 . S
C497 C491 1.491 . S
C497 C496 1.400 . S
C497 C498 1.398 . S
C498 H486 0.950 . S
C498 C497 1.398 . S
C498 C499 1.391 . S
C499 H487 0.950 . S
C499 C495 1.393 . S
C499 C498 1.391 . S
H500 C508 0.950 . S
H501 C513 0.950 . S
H502 C510 0.950 . S
H503 C512 0.950 . S
H504 C514 0.950 1_655 S
H505 C516 0.950 . S
H506 C518 0.950 . S
H507 C519 0.950 . S
C508 H500 0.950 . S
C508 C509 1.386 . S
C508 C510 1.391 . S
C509 C508 1.386 . S
C509 C513 1.393 . S
C510 H502 0.950 . S
C510 C508 1.391 . S
C510 C511 1.400 . S
C511 C510 1.400 . S
C511 C512 1.398 . S
C511 C517 1.491 . S
C512 H503 0.950 . S
C512 C511 1.398 . S
C512 C513 1.391 . S
C513 H501 0.950 . S
C513 C509 1.393 . S
C513 C512 1.391 . S
C514 H504 0.950 1_455 S
C514 C515 1.386 1_554 S
C514 C516 1.391 . S
C515 C514 1.386 1_556 S
C515 C519 1.393 . S
C516 H505 0.950 . S
C516 C514 1.391 . S
C516 C517 1.400 . S
C517 C511 1.491 . S
C517 C516 1.400 . S
C517 C518 1.398 1_554 S
C518 H506 0.950 . S
C518 C517 1.398 1_556 S
C518 C519 1.391 . S
C519 H507 0.950 . S
C519 C515 1.393 . S
C519 C518 1.391 . S
H520 C528 0.950 . S
H521 C533 0.950 . S
H522 C530 0.950 . S
H523 C532 0.950 . S
H524 C534 0.950 . S
H525 C536 0.950 . S
H526 C538 0.950 . S
H527 C539 0.950 . S
C528 H520 0.950 . S
C528 C529 1.386 . S
C528 C530 1.391 . S
C529 C528 1.386 . S
C529 C533 1.393 1_545 S
C530 H522 0.950 . S
C530 C528 1.391 . S
C530 C531 1.400 . S
C531 C530 1.400 . S
C531 C532 1.398 1_545 S
C531 C537 1.491 1_554 S
C532 H523 0.950 . S
C532 C531 1.398 1_565 S
C532 C533 1.391 . S
C533 H521 0.950 . S
C533 C529 1.393 1_565 S
C533 C532 1.391 . S
C534 H524 0.950 . S
C534 C535 1.386 1_565 S
C534 C536 1.391 . S
C535 C534 1.386 1_545 S
C535 C539 1.393 . S
C536 H525 0.950 . S
C536 C534 1.391 . S
C536 C537 1.400 1_565 S
C537 C531 1.491 1_556 S
C537 C536 1.400 1_545 S
C537 C538 1.398 . S
C538 H526 0.950 . S
C538 C537 1.398 . S
C538 C539 1.391 . S
C539 H527 0.950 . S
C539 C535 1.393 . S
C539 C538 1.391 . S
H540 C548 0.950 . S
H541 C553 0.950 . S
H542 C550 0.950 . S
H543 C552 0.950 . S
H544 C554 0.950 . S
H545 C556 0.950 . S
H546 C558 0.950 . S
H547 C559 0.950 . S
C548 H540 0.950 . S
C548 C549 1.386 . S
C548 C550 1.391 . S
C549 C548 1.386 . S
C549 C553 1.393 . S
C550 H542 0.950 . S
C550 C548 1.391 . S
C550 C551 1.400 . S
C551 C550 1.400 . S
C551 C552 1.398 . S
C551 C557 1.491 1_554 S
C552 H543 0.950 . S
C552 C551 1.398 . S
C552 C553 1.391 . S
C553 H541 0.950 . S
C553 C549 1.393 . S
C553 C552 1.391 . S
C554 H544 0.950 . S
C554 C555 1.386 . S
C554 C556 1.391 . S
C555 C554 1.386 . S
C555 C559 1.393 . S
C556 H545 0.950 . S
C556 C554 1.391 . S
C556 C557 1.400 . S
C557 C551 1.491 1_556 S
C557 C556 1.400 . S
C557 C558 1.398 . S
C558 H546 0.950 . S
C558 C557 1.398 . S
C558 C559 1.391 . S
C559 H547 0.950 . S
C559 C555 1.393 . S
C559 C558 1.391 . S
H560 C568 0.950 . S
H561 C573 0.950 . S
H562 C570 0.950 . S
H563 C572 0.950 1_556 S
H564 C574 0.950 . S
H565 C576 0.950 . S
H566 C578 0.950 1_554 S
H567 C579 0.950 . S
C568 H560 0.950 . S
C568 C569 1.386 . S
C568 C570 1.391 . S
C569 C568 1.386 . S
C569 C573 1.393 . S
C570 H562 0.950 . S
C570 C568 1.391 . S
C570 C571 1.400 . S
C571 C570 1.400 . S
C571 C572 1.398 . S
C571 C577 1.491 1_554 S
C572 H563 0.950 1_554 S
C572 C571 1.398 . S
C572 C573 1.391 . S
C573 H561 0.950 . S
C573 C569 1.393 . S
C573 C572 1.391 . S
C574 H564 0.950 . S
C574 C575 1.386 . S
C574 C576 1.391 . S
C575 C574 1.386 . S
C575 C579 1.393 . S
C576 H565 0.950 . S
C576 C574 1.391 . S
C576 C577 1.400 . S
C577 C571 1.491 1_556 S
C577 C576 1.400 . S
C577 C578 1.398 . S
C578 H566 0.950 1_556 S
C578 C577 1.398 . S
C578 C579 1.391 . S
C579 H567 0.950 . S
C579 C575 1.393 . S
C579 C578 1.391 . S
H580 C588 0.950 . S
H581 C593 0.950 . S
H582 C590 0.950 . S
H583 C592 0.950 . S
H584 C594 0.950 . S
H585 C596 0.950 . S
H586 C598 0.950 . S
H587 C599 0.950 . S
C588 H580 0.950 . S
C588 C589 1.390 . S
C588 C590 1.391 . S
C589 C588 1.390 . S
C589 C593 1.389 1_655 S
C590 H582 0.950 . S
C590 C588 1.391 . S
C590 C591 1.400 . S
C591 C590 1.400 . S
C591 C592 1.398 1_655 S
C591 C597 1.491 . S
C592 H583 0.950 . S
C592 C591 1.398 1_455 S
C592 C593 1.391 . S
C593 H581 0.950 . S
C593 C589 1.389 1_455 S
C593 C592 1.391 . S
C594 H584 0.950 . S
C594 C595 1.386 1_455 S
C594 C596 1.391 . S
C595 C594 1.386 1_655 S
C595 C599 1.393 . S
C596 H585 0.950 . S
C596 C594 1.391 . S
C596 C597 1.400 1_455 S
C597 C591 1.491 . S
C597 C596 1.400 1_655 S
C597 C598 1.398 . S
C598 H586 0.950 . S
C598 C597 1.398 . S
C598 C599 1.391 . S
C599 H587 0.950 . S
C599 C595 1.393 . S
C599 C598 1.391 . S
H600 C608 0.950 . S
H601 C613 0.950 . S
H602 C610 0.950 . S
H603 C612 0.950 . S
H604 C614 0.950 . S
H605 C616 0.950 . S
H606 C618 0.950 . S
H607 C619 0.950 1_545 S
C608 H600 0.950 . S
C608 C609 1.386 1_545 S
C608 C610 1.391 . S
C609 C608 1.386 1_565 S
C609 C613 1.393 . S
C610 H602 0.950 . S
C610 C608 1.391 . S
C610 C611 1.400 1_545 S
C611 C610 1.400 1_565 S
C611 C612 1.398 . S
C611 C617 1.491 . S
C612 H603 0.950 . S
C612 C611 1.398 . S
C612 C613 1.391 . S
C613 H601 0.950 . S
C613 C609 1.393 . S
C613 C612 1.391 . S
C614 H604 0.950 . S
C614 C615 1.386 . S
C614 C616 1.391 . S
C615 C614 1.386 . S
C615 C619 1.393 . S
C616 H605 0.950 . S
C616 C614 1.391 . S
C616 C617 1.400 . S
C617 C611 1.491 . S
C617 C616 1.400 . S
C617 C618 1.398 1_565 S
C618 H606 0.950 . S
C618 C617 1.398 1_545 S
C618 C619 1.391 1_545 S
C619 H607 0.950 1_565 S
C619 C615 1.393 . S
C619 C618 1.391 1_565 S
H620 C628 0.950 . S
H621 C633 0.950 . S
H622 C630 0.950 . S
H623 C632 0.950 . S
H624 C634 0.950 . S
H625 C636 0.950 . S
H626 C638 0.950 . S
H627 C639 0.950 . S
C628 H620 0.950 . S
C628 C629 1.386 . S
C628 C630 1.391 . S
C629 C628 1.386 . S
C629 C633 1.393 . S
C630 H622 0.950 . S
C630 C628 1.391 . S
C630 C631 1.400 . S
C631 C630 1.400 . S
C631 C632 1.398 . S
C631 C637 1.491 . S
C632 H623 0.950 . S
C632 C631 1.398 . S
C632 C633 1.391 . S
C633 H621 0.950 . S
C633 C629 1.393 . S
C633 C632 1.391 . S
C634 H624 0.950 . S
C634 C635 1.386 . S
C634 C636 1.391 . S
C635 C634 1.386 . S
C635 C639 1.393 . S
C636 H625 0.950 . S
C636 C634 1.391 . S
C636 C637 1.400 . S
C637 C631 1.491 . S
C637 C636 1.400 . S
C637 C638 1.398 . S
C638 H626 0.950 . S
C638 C637 1.398 . S
C638 C639 1.391 . S
C639 H627 0.950 . S
C639 C635 1.393 . S
C639 C638 1.391 . S
H640 C648 0.950 . S
H641 C653 0.950 . S
H642 C650 0.950 . S
H643 C652 0.950 . S
H644 C654 0.950 . S
H645 C656 0.950 . S
H646 C658 0.950 . S
H647 C659 0.950 . S
C648 H640 0.950 . S
C648 C649 1.386 . S
C648 C650 1.391 . S
C649 C648 1.386 . S
C649 C653 1.393 . S
C650 H642 0.950 . S
C650 C648 1.391 . S
C650 C651 1.400 . S
C651 C650 1.400 . S
C651 C652 1.398 . S
C651 C657 1.491 . S
C652 H643 0.950 . S
C652 C651 1.398 . S
C652 C653 1.391 . S
C653 H641 0.950 . S
C653 C649 1.393 . S
C653 C652 1.391 . S
C654 H644 0.950 . S
C654 C655 1.386 . S
C654 C656 1.391 . S
C655 C654 1.386 . S
C655 C659 1.393 . S
C656 H645 0.950 . S
C656 C654 1.391 . S
C656 C657 1.400 . S
C657 C651 1.491 . S
C657 C656 1.400 . S
C657 C658 1.398 . S
C658 H646 0.950 . S
C658 C657 1.398 . S
C658 C659 1.391 . S
C659 H647 0.950 . S
C659 C655 1.393 . S
C659 C658 1.391 . S
C189 C76 1.567 . S
C195 C104 1.589 . S
C215 C127 1.615 . S
C209 C87 1.586 . S
C235 C150 1.641 . S
C229 C54 1.618 . S
C255 C177 1.503 . S
C249 C65 1.551 . S
C275 C105 1.566 . S
C269 C32 1.547 1_556 S
C289 C43 1.485 . S
C295 C128 1.506 . S
C309 C10 1.457 . S
C315 C151 1.482 . S
C329 C21 1.566 . S
C335 C176 1.574 . S
C355 C106 0.397 . S
C349 C60 0.494 . S
C375 C129 0.390 . S
C369 C71 0.485 . S
C395 C152 0.405 . S
C389 C82 0.456 . S
C409 C49 0.536 . S
C415 C178 0.560 . S
C429 C16 0.696 . S
C435 C109 0.683 . S
C455 C132 0.706 . S
C449 C27 0.644 1_566 S
C475 C155 0.619 . S
C469 C38 0.590 . S
C489 C5 0.414 . S
C495 C175 0.398 . S
C509 C59 1.566 . S
C515 C107 1.554 . S
C529 C70 1.511 . S
C535 C130 1.517 . S
C555 C153 1.533 . S
C549 C81 1.527 . S
C575 C174 1.391 . S
C569 C48 1.351 . S
C589 C15 1.606 1_655 S
C595 C108 1.559 . S
C615 C131 1.498 . S
C609 C26 1.545 1_565 S
C635 C154 1.469 . S
C629 C37 1.523 . S
C649 C4 1.690 . S
C655 C173 1.730 . S
