# Generated by pormake.
# Topology zzz, (3,6)-cn, num edge types: 1
# Building blocks:
#     Node 0, Type 0, BuildingBlock: PAMTOO_clean_linker_0, # of connection points: 3
#     Node 1, Type 0, BuildingBlock: PAMTOO_clean_linker_0, # of connection points: 3
#     Node 2, Type 0, BuildingBlock: PAMTOO_clean_linker_0, # of connection points: 3
#     Node 3, Type 0, BuildingBlock: PAMTOO_clean_linker_0, # of connection points: 3
#     Node 4, Type 0, BuildingBlock: PAMTOO_clean_linker_0, # of connection points: 3
#     Node 5, Type 0, BuildingBlock: PAMTOO_clean_linker_0, # of connection points: 3
#     Node 6, Type 0, BuildingBlock: PAMTOO_clean_linker_0, # of connection points: 3
#     Node 7, Type 0, BuildingBlock: PAMTOO_clean_linker_0, # of connection points: 3
#     Node 8, Type 1, BuildingBlock: KUMJIN_clean_sbu_1, # of connection points: 6
#     Node 9, Type 1, BuildingBlock: KUMJIN_clean_sbu_1, # of connection points: 6
#     Node 10, Type 1, BuildingBlock: KUMJIN_clean_sbu_1, # of connection points: 6
#     Node 11, Type 1, BuildingBlock: KUMJIN_clean_sbu_1, # of connection points: 6
#     Edge 12, Type (0, 1), BuildingBlock: ZUJKAS_clean_linker_0, # of connection points: 2
#     Edge 13, Type (0, 1), BuildingBlock: ZUJKAS_clean_linker_0, # of connection points: 2
#     Edge 14, Type (0, 1), BuildingBlock: ZUJKAS_clean_linker_0, # of connection points: 2
#     Edge 15, Type (0, 1), BuildingBlock: ZUJKAS_clean_linker_0, # of connection points: 2
#     Edge 16, Type (0, 1), BuildingBlock: ZUJKAS_clean_linker_0, # of connection points: 2
#     Edge 17, Type (0, 1), BuildingBlock: ZUJKAS_clean_linker_0, # of connection points: 2
#     Edge 18, Type (0, 1), BuildingBlock: ZUJKAS_clean_linker_0, # of connection points: 2
#     Edge 19, Type (0, 1), BuildingBlock: ZUJKAS_clean_linker_0, # of connection points: 2
#     Edge 20, Type (0, 1), BuildingBlock: ZUJKAS_clean_linker_0, # of connection points: 2
#     Edge 21, Type (0, 1), BuildingBlock: ZUJKAS_clean_linker_0, # of connection points: 2
#     Edge 22, Type (0, 1), BuildingBlock: ZUJKAS_clean_linker_0, # of connection points: 2
#     Edge 23, Type (0, 1), BuildingBlock: ZUJKAS_clean_linker_0, # of connection points: 2
#     Edge 24, Type (0, 1), BuildingBlock: ZUJKAS_clean_linker_0, # of connection points: 2
#     Edge 25, Type (0, 1), BuildingBlock: ZUJKAS_clean_linker_0, # of connection points: 2
#     Edge 26, Type (0, 1), BuildingBlock: ZUJKAS_clean_linker_0, # of connection points: 2
#     Edge 27, Type (0, 1), BuildingBlock: ZUJKAS_clean_linker_0, # of connection points: 2
#     Edge 28, Type (0, 1), BuildingBlock: ZUJKAS_clean_linker_0, # of connection points: 2
#     Edge 29, Type (0, 1), BuildingBlock: ZUJKAS_clean_linker_0, # of connection points: 2
#     Edge 30, Type (0, 1), BuildingBlock: ZUJKAS_clean_linker_0, # of connection points: 2
#     Edge 31, Type (0, 1), BuildingBlock: ZUJKAS_clean_linker_0, # of connection points: 2
#     Edge 32, Type (0, 1), BuildingBlock: ZUJKAS_clean_linker_0, # of connection points: 2
#     Edge 33, Type (0, 1), BuildingBlock: ZUJKAS_clean_linker_0, # of connection points: 2
#     Edge 34, Type (0, 1), BuildingBlock: ZUJKAS_clean_linker_0, # of connection points: 2
#     Edge 35, Type (0, 1), BuildingBlock: ZUJKAS_clean_linker_0, # of connection points: 2
# Relax obj value: 0.145
# Max RMSD: 0.090
# Mean RMSD: 0.074
data_MOF--net-zzz--node1-KUMJIN_clean_sbu_1--node2-PAMTOO_clean_linker_0--edge1-ZUJKAS_clean_linker_0
_symmetry_space_group_name_H-M    P1
_symmetry_Int_Tables_number       1
_symmetry_cell_setting            triclinic
loop_
_symmetry_equiv_pos_as_xyz
'x, y, z'
_cell_length_a     64.851938
_cell_length_b     64.778789
_cell_length_c     20.43265
_cell_angle_alpha  90.050379
_cell_angle_beta   90.016482
_cell_angle_gamma 90.181149
loop_
_atom_site_label
_atom_site_type_symbol
_atom_site_fract_x
_atom_site_fract_y
_atom_site_fract_z
_atom_type_partial_charge
H0 H 0.81804 0.56275 0.1797 0.0
H1 H 0.7602 0.55673 0.07739 0.0
H2 H 0.76422 0.5405 0.28073 0.0
H3 H 0.72621 0.51746 0.19373 0.0
C4 C 0.72964 0.52803 0.15229 0.0
O5 O 0.7388 0.54576 0.17769 0.0
H6 H 0.74047 0.51982 0.11902 0.0
C7 C 0.80182 0.55868 0.17909 0.0
C8 C 0.79284 0.55122 0.23686 0.0
C9 C 0.79056 0.5601 0.12042 0.0
C10 C 0.76931 0.55576 0.12163 0.0
C11 C 0.75961 0.549 0.17895 0.0
C12 C 0.77153 0.54616 0.23658 0.0
H13 H 0.96952 0.81125 0.21181 0.0
H14 H 0.97448 0.75161 0.12138 0.0
H15 H 1.01049 0.76572 0.293 0.0
H16 H 0.03082 0.72846 0.19149 0.0
C17 C 0.01663 0.73075 0.16193 0.0
O18 O 1.00077 0.73656 0.20382 0.0
H19 H 0.02024 0.74332 0.12649 0.0
C20 C 0.97564 0.79568 0.21212 0.0
C21 C 0.9901 0.79022 0.26013 0.0
C22 C 0.97024 0.78206 0.16146 0.0
C23 C 0.97863 0.7622 0.1603 0.0
C24 C 0.99311 0.75612 0.20717 0.0
C25 C 0.99917 0.77029 0.2569 0.0
H26 H 0.72147 1.00109 0.17633 0.0
H27 H 0.77969 0.99683 0.07732 0.0
H28 H 0.77658 0.02359 0.27055 0.0
H29 H 0.8121 0.04379 0.17895 0.0
C30 C 0.80947 0.03205 0.14011 0.0
O31 O 0.80133 1.01447 0.16938 0.0
H32 H 0.7983 0.03874 0.10461 0.0
C33 C 0.73801 1.00377 0.17599 0.0
C34 C 0.74743 1.01285 0.23055 0.0
C35 C 0.74949 0.99792 0.12112 0.0
C36 C 0.77082 1.00116 0.12008 0.0
C37 C 0.78069 1.01075 0.17316 0.0
C38 C 0.769 0.01638 0.22918 0.0
H39 H 0.55402 0.72561 0.1436 0.0
H40 H 0.54991 0.7869 0.06409 0.0
H41 H 0.53086 0.77547 0.26251 0.0
H42 H 0.50927 0.81962 0.18609 0.0
C43 C 0.51846 0.81371 0.14425 0.0
O44 O 0.53608 0.80429 0.16881 0.0
H45 H 0.50841 0.80224 0.11879 0.0
C46 C 0.55047 0.74184 0.15002 0.0
C47 C 0.54256 0.74868 0.21032 0.0
C48 C 0.55275 0.75538 0.09683 0.0
C49 C 0.54789 0.77628 0.10458 0.0
C50 C 0.53999 0.78368 0.16361 0.0
C51 C 0.53697 0.76979 0.21662 0.0
H52 H 0.22721 0.49237 0.12625 0.0
H53 H 0.29049 0.49654 0.19105 0.0
H54 H 0.2738 0.51716 0.99911 0.0
H55 H 0.32928 0.50745 0.03508 0.0
C56 C 0.32128 0.50246 0.08045 0.0
O57 O 0.30402 0.51484 0.08923 0.0
H58 H 0.31656 0.48608 0.07264 0.0
C59 C 0.2433 0.49578 0.11721 0.0
C60 C 0.24867 0.50397 0.05582 0.0
C61 C 0.25804 0.49316 0.16739 0.0
C62 C 0.27861 0.49869 0.15457 0.0
C63 C 0.28438 0.50751 0.09508 0.0
C64 C 0.26941 0.51015 0.04515 0.0
H65 H 0.05928 0.22721 0.09879 0.0
H66 H 0.05728 0.2873 0.18717 0.0
H67 H 0.02644 0.27655 1.00336 0.0
H68 H 1.01047 0.2993 0.15387 0.0
C69 C 0.01851 0.31216 0.128 0.0
O70 O 0.03589 0.30476 0.09571 0.0
H71 H 1.00756 0.31812 0.09081 0.0
C72 C 0.05448 0.24322 0.09663 0.0
C73 C 0.04213 0.24987 0.04425 0.0
C74 C 0.05987 0.25647 0.14824 0.0
C75 C 0.05342 0.27706 0.14698 0.0
C76 C 0.04155 0.2845 0.09497 0.0
C77 C 0.03591 0.27091 0.0431 0.0
H78 H 0.31494 0.05715 0.09274 0.0
H79 H 0.25793 0.04769 0.19518 0.0
H80 H 0.26302 0.03022 0.99207 0.0
H81 H 0.21298 0.03972 0.04127 0.0
C82 C 0.22084 0.04458 0.08705 0.0
O83 O 0.23794 0.03205 0.09638 0.0
H84 H 0.22573 0.06094 0.08007 0.0
C85 C 0.29886 0.05241 0.09195 0.0
C86 C 0.29053 0.04393 0.03469 0.0
C87 C 0.28729 0.05369 0.14956 0.0
C88 C 0.26677 0.04708 0.15021 0.0
C89 C 0.25774 0.03899 0.09337 0.0
C90 C 0.26975 0.03707 0.03549 0.0
H91 H 0.48829 0.3252 0.13757 0.0
H92 H 0.49652 0.26608 0.22964 0.0
H93 H 0.51285 0.2742 0.02742 0.0
H94 H 0.50107 0.22261 0.07509 0.0
C95 C 0.4977 0.23047 0.12218 0.0
O96 O 0.51075 0.24746 0.12803 0.0
H97 H 0.48132 0.23557 0.11969 0.0
C98 C 0.49288 0.30914 0.13483 0.0
C99 C 0.50107 0.30163 0.07587 0.0
C100 C 0.49132 0.29667 0.19085 0.0
C101 C 0.49694 0.27583 0.18659 0.0
C102 C 0.50418 0.26745 0.12787 0.0
C103 C 0.5063 0.28038 0.07203 0.0
Eu104 Eu 1.0013 0.03232 0.56091 0.0
C105 C 0.07762 0.0376 0.7599 0.0
N106 N 0.07339 0.02439 0.70997 0.0
C107 C 0.10897 0.02478 0.67782 0.0
C108 C 0.0977 0.04551 0.76933 0.0
C109 C 0.0889 0.01713 0.67113 0.0
C110 C 0.11334 0.03927 0.72655 0.0
C111 C 0.06618 0.05504 0.85858 0.0
C112 C 0.06209 0.0423 0.80405 0.0
C113 C 0.08595 0.06357 0.86673 0.0
C114 C 0.10166 0.05884 0.82217 0.0
Eu115 Eu 0.03874 1.01312 0.70086 0.0
N116 N 0.04306 0.03407 0.79444 0.0
C117 C 0.05031 0.05865 0.90359 0.0
C118 C 0.02787 0.03651 0.84011 0.0
C119 C 0.03115 0.04913 0.8947 0.0
H120 H 0.08594 1.00514 0.6357 0.0
H121 H 0.01892 0.05146 0.92998 0.0
H122 H 0.95627 0.01607 0.6212 0.0
H123 H 0.04236 1.00792 0.33874 0.0
H124 H 0.01311 0.02902 0.83359 0.0
H125 H 0.05282 0.06841 0.94597 0.0
H126 H 0.03486 0.03072 0.43159 0.0
H127 H 0.12112 0.01925 0.64606 0.0
H128 H 0.08933 0.07357 0.90793 0.0
H129 H 0.11695 0.06518 0.82987 0.0
H130 H 0.92975 0.98966 0.59684 0.0
H131 H 0.12896 0.04499 0.73213 0.0
H132 H 0.01919 0.97857 0.31384 0.0
N133 N 0.97569 1.00717 0.5425 0.0
C134 C 0.97803 0.99515 0.48842 0.0
C135 C 0.94333 0.99092 0.56633 0.0
C136 C 0.96333 0.97982 0.47282 0.0
C137 C 0.95843 1.00574 0.58034 0.0
C138 C 0.94587 0.9778 0.51265 0.0
N139 N 1.00931 1.01298 0.4654 0.0
C140 C 0.02537 0.01727 0.42435 0.0
C141 C 0.99873 0.98489 0.39505 0.0
C142 C 0.99555 0.99778 0.44985 0.0
C143 C 0.01615 0.98821 0.35609 0.0
C144 C 0.02933 1.00467 0.37023 0.0
H145 H 0.93422 0.96622 0.50223 0.0
H146 H 0.95562 0.95487 0.40642 0.0
H147 H 0.98659 0.95926 0.33847 0.0
O148 O 0.99215 0.049 0.47296 0.0
O149 O 1.00233 0.99866 0.59734 0.0
O150 O 0.03649 0.99378 0.60874 0.0
O151 O 0.97421 0.05224 0.56134 0.0
O152 O 0.0352 0.04105 0.54463 0.0
O153 O 0.05192 1.01452 0.59726 0.0
O154 O 0.02576 0.98576 0.74734 0.0
O155 O 0.02843 0.0468 0.71037 0.0
O156 O 0.0202 0.05844 0.60664 0.0
O157 O 0.05885 0.99236 0.75657 0.0
O158 O 1.00414 1.01099 0.72254 0.0
O159 O 0.98836 0.03676 0.66305 0.0
C160 C 0.01854 0.98679 0.58959 0.0
C161 C 0.97739 0.0814 0.49464 0.0
C162 C 0.99591 0.11426 0.4916 0.0
C163 C 0.97694 0.12437 0.48157 0.0
C164 C 0.95873 0.09174 0.48497 0.0
C165 C 0.95853 0.11317 0.47864 0.0
C166 C 0.9959 0.09266 0.49859 0.0
C167 C 0.05178 0.02971 0.55445 0.0
C168 C 0.97734 0.05891 0.50217 0.0
C169 C 0.96664 0.96687 0.41877 0.0
C170 C 0.98432 0.96933 0.38021 0.0
C171 C 0.02524 0.06186 0.66824 0.0
C172 C 0.04595 0.96127 0.81006 0.0
C173 C 0.03141 0.92926 0.85292 0.0
C174 C 0.05017 0.92538 0.88524 0.0
C175 C 0.06457 0.95712 0.84241 0.0
C176 C 0.02947 0.94727 0.81536 0.0
C177 C 0.06662 0.93923 0.87983 0.0
C178 C 0.98881 0.02399 0.71303 0.0
C179 C 0.04356 0.98008 0.77074 0.0
H180 H 0.9763 0.14089 0.47409 0.0
H181 H 0.94434 0.08324 0.48227 0.0
H182 H 0.9441 0.12111 0.47063 0.0
H183 H 1.01024 0.08457 0.5071 0.0
H184 H 0.05205 0.91179 0.91551 0.0
H185 H 0.07748 0.96771 0.83905 0.0
H186 H 0.01519 0.95026 0.78953 0.0
H187 H 0.08097 0.93615 0.90503 0.0
Eu188 Eu 0.53183 0.0429 0.71897 0.0
C189 C 0.50654 0.95996 0.60499 0.0
N190 N 0.52066 0.97352 0.58139 0.0
C191 C 0.54504 0.94617 0.56678 0.0
C192 C 0.51153 0.93899 0.61384 0.0
C193 C 0.5394 0.96687 0.55946 0.0
C194 C 0.53117 0.93223 0.59517 0.0
C195 C 0.47145 0.95316 0.63937 0.0
C196 C 0.48681 0.96699 0.61744 0.0
C197 C 0.47664 0.93251 0.65221 0.0
C198 C 0.49664 0.92542 0.63932 0.0
Eu199 Eu 0.51049 1.00841 0.57345 0.0
N200 N 0.48225 0.98693 0.60319 0.0
C201 C 0.45119 0.96031 0.64508 0.0
C202 C 0.46221 0.99334 0.60262 0.0
C203 C 0.44648 0.98037 0.62526 0.0
H204 H 0.55014 0.97775 0.53815 0.0
H205 H 0.4307 0.98577 0.62656 0.0
H206 H 0.48967 0.05437 0.81073 0.0
H207 H 0.58837 0.09711 0.62139 0.0
H208 H 0.45824 1.00844 0.58433 0.0
H209 H 0.43894 0.9502 0.66185 0.0
H210 H 0.57545 0.0634 0.66199 0.0
H211 H 0.56009 0.94101 0.55095 0.0
H212 H 0.46512 0.92173 0.66991 0.0
H213 H 0.50026 0.90931 0.64748 0.0
H214 H 0.46563 0.08336 0.8252 0.0
H215 H 0.5356 0.91623 0.60107 0.0
H216 H 0.56549 0.12766 0.62308 0.0
N217 N 0.50932 0.07063 0.74498 0.0
C218 C 0.51444 0.08941 0.72025 0.0
C219 C 0.47914 0.08521 0.79463 0.0
C220 C 0.50151 0.10666 0.72895 0.0
C221 C 0.49261 0.06865 0.7852 0.0
C222 C 0.48338 0.1042 0.76523 0.0
N223 N 0.54576 0.07494 0.6854 0.0
C224 C 0.56556 0.07678 0.66344 0.0
C225 C 0.53997 0.11116 0.66737 0.0
C226 C 0.5334 0.09171 0.69025 0.0
C227 C 0.55987 0.11299 0.64129 0.0
C228 C 0.57284 0.09578 0.64033 0.0
H229 H 0.47302 0.11706 0.77309 0.0
H230 H 0.49762 0.13928 0.70879 0.0
H231 H 0.53131 0.14319 0.65454 0.0
O232 O 0.56019 0.03493 0.76969 0.0
O233 O 0.53237 0.05536 0.61407 0.0
O234 O 0.50234 0.04263 0.57336 0.0
O235 O 0.53679 0.05211 0.82097 0.0
O236 O 0.55693 0.02546 0.66284 0.0
O237 O 0.54347 0.01963 0.5595 0.0
O238 O 0.49261 1.00004 0.48653 0.0
O239 O 0.52917 0.99347 0.65704 0.0
O240 O 0.51785 1.01176 0.74427 0.0
O241 O 0.52385 1.01098 0.47595 0.0
O242 O 0.48671 0.02865 0.62631 0.0
O243 O 0.49956 0.02889 0.73072 0.0
C244 C 0.51636 0.05727 0.57534 0.0
C245 C 0.55332 0.02462 0.87741 0.0
C246 C 0.56936 0.99366 0.92226 0.0
C247 C 0.55256 0.99108 0.96477 0.0
C248 C 0.53649 0.02174 0.91993 0.0
C249 C 0.5362 1.00506 0.96338 0.0
C250 C 0.56969 1.01052 0.87927 0.0
C251 C 0.55925 0.02179 0.59965 0.0
C252 C 0.55328 0.04082 0.82647 0.0
C253 C 0.50747 0.12591 0.70333 0.0
C254 C 0.52668 0.12816 0.67258 0.0
C255 C 0.52443 0.99436 0.71952 0.0
C256 C 0.50057 0.02121 0.39483 0.0
C257 C 0.47636 0.04613 0.34937 0.0
C258 C 0.49017 0.04996 0.29774 0.0
C259 C 0.51411 0.02517 0.34273 0.0
C260 C 0.48179 0.03193 0.39835 0.0
C261 C 0.50896 0.03957 0.29471 0.0
C262 C 0.48381 0.02963 0.69005 0.0
C263 C 0.50674 1.00649 0.44609 0.0
H264 H 0.55209 0.97825 0.99869 0.0
H265 H 0.52345 0.03212 0.91903 0.0
H266 H 0.52317 1.0029 0.99581 0.0
H267 H 0.5828 1.01267 0.84699 0.0
H268 H 0.48637 0.06092 0.25962 0.0
H269 H 0.52874 0.0172 0.33949 0.0
H270 H 0.47117 0.0289 0.43821 0.0
H271 H 0.51952 0.04259 0.2548 0.0
Eu272 Eu 0.53826 0.51032 0.57223 0.0
C273 C 0.46882 0.50526 0.76678 0.0
N274 N 0.47018 0.51749 0.71288 0.0
C275 C 0.43639 0.50659 0.6792 0.0
C276 C 0.45156 0.49235 0.77709 0.0
C277 C 0.45373 0.51924 0.67149 0.0
C278 C 0.43547 0.49277 0.73149 0.0
C279 C 0.4829 0.49482 0.87174 0.0
C280 C 0.48417 0.50654 0.81381 0.0
C281 C 0.46624 0.48122 0.88073 0.0
C282 C 0.4506 0.47999 0.83351 0.0
Eu283 Eu 0.50129 0.53667 0.70147 0.0
N284 N 0.50028 0.51954 0.80323 0.0
C285 C 0.4983 0.49733 0.91922 0.0
C286 C 0.51483 0.52281 0.85039 0.0
C287 C 0.51418 0.5116 0.90884 0.0
H288 H 0.45366 0.53062 0.63302 0.0
H289 H 0.52596 0.5139 0.94567 0.0
H290 H 0.58281 0.53503 0.59445 0.0
H291 H 0.49833 0.49566 0.34027 0.0
H292 H 0.52713 0.53378 0.8422 0.0
H293 H 0.49788 0.4886 0.9644 0.0
H294 H 0.50916 0.48811 0.45345 0.0
H295 H 0.42361 0.50773 0.6453 0.0
H296 H 0.46509 0.47189 0.92459 0.0
H297 H 0.43758 0.46981 0.84185 0.0
H298 H 0.60526 0.55997 0.53565 0.0
H299 H 0.42194 0.48311 0.73765 0.0
H300 H 0.5143 0.52474 0.28007 0.0
N301 N 0.56059 0.53362 0.51818 0.0
C302 C 0.55564 0.539 0.45606 0.0
C303 C 0.59126 0.55432 0.51292 0.0
C304 C 0.56776 0.5533 0.42096 0.0
C305 C 0.57861 0.54023 0.54596 0.0
C306 C 0.58559 0.5612 0.45061 0.0
N307 N 0.52919 0.5141 0.46017 0.0
C308 C 0.51553 0.50141 0.42881 0.0
C309 C 0.53412 0.53356 0.36081 0.0
C310 C 0.53916 0.52918 0.42649 0.0
C311 C 0.51868 0.52183 0.3304 0.0
C312 C 0.50964 0.50541 0.36419 0.0
H313 H 0.59536 0.57217 0.42519 0.0
H314 H 0.57099 0.56983 0.32933 0.0
H315 H 0.54143 0.55259 0.27664 0.0
O316 O 0.55108 0.48451 0.51612 0.0
O317 O 0.53897 0.54583 0.58383 0.0
O318 O 0.50522 0.55228 0.60307 0.0
O319 O 0.565 0.49348 0.60762 0.0
O320 O 0.50365 0.50312 0.56053 0.0
O321 O 0.48867 0.53296 0.59736 0.0
O322 O 0.50829 0.56646 0.74617 0.0
O323 O 0.51642 0.50556 0.72459 0.0
O324 O 0.51514 0.48981 0.62555 0.0
O325 O 0.47668 0.55615 0.74013 0.0
O326 O 0.53559 0.54338 0.72008 0.0
O327 O 0.55224 0.51556 0.67317 0.0
C328 C 0.52306 0.55833 0.58016 0.0
C329 C 0.56527 0.45828 0.58397 0.0
C330 C 0.54875 0.425 0.60553 0.0
C331 C 0.56736 0.4179 0.63285 0.0
C332 C 0.58364 0.45085 0.61122 0.0
C333 C 0.5846 0.43081 0.63596 0.0
C334 C 0.54776 0.44548 0.58245 0.0
C335 C 0.48855 0.51669 0.55857 0.0
C336 C 0.56445 0.47981 0.56126 0.0
C337 C 0.56208 0.55864 0.35684 0.0
C338 C 0.54523 0.54883 0.32687 0.0
C339 C 0.51446 0.48867 0.68957 0.0
C340 C 0.48379 0.59095 0.71156 0.0
C341 C 0.49471 0.62445 0.66852 0.0
C342 C 0.47622 0.62582 0.63314 0.0
C343 C 0.46537 0.59258 0.67549 0.0
C344 C 0.49829 0.60704 0.7079 0.0
C345 C 0.46167 0.60992 0.6366 0.0
C346 C 0.5517 0.53102 0.71511 0.0
C347 C 0.48896 0.5719 0.74803 0.0
H348 H 0.56886 0.40218 0.65005 0.0
H349 H 0.5972 0.46063 0.61381 0.0
H350 H 0.59885 0.42517 0.6568 0.0
H351 H 0.53343 0.45148 0.56312 0.0
H352 H 0.47306 0.63917 0.60287 0.0
H353 H 0.45393 0.58036 0.67646 0.0
H354 H 0.51238 0.60607 0.7363 0.0
H355 H 0.44749 0.611 0.60887 0.0
Eu356 Eu 0.02912 0.53852 0.58643 0.0
C357 C 0.03898 0.48544 0.82848 0.0
N358 N 0.03184 0.48013 0.76835 0.0
C359 C 0.05328 0.45005 0.76792 0.0
C360 C 0.05452 0.4738 0.85933 0.0
C361 C 0.038 0.46222 0.73902 0.0
C362 C 0.06185 0.45606 0.82783 0.0
C363 C 0.0365 0.50752 0.92379 0.0
C364 C 0.03 0.502 0.86022 0.0
C365 C 0.05287 0.49679 0.95319 0.0
C366 C 0.0618 0.4799 0.92114 0.0
Eu367 Eu 1.00627 0.50148 0.72179 0.0
N368 N 0.01386 0.51166 0.83105 0.0
C369 C 0.02577 0.52304 0.95698 0.0
C370 C 1.00219 0.52535 0.86578 0.0
C371 C 1.00828 0.5317 0.92833 0.0
H372 H 0.03145 0.45771 0.69245 0.0
H373 H 0.9993 0.54303 0.95475 0.0
H374 H 0.02532 0.58649 0.65392 0.0
H375 H 1.00304 0.51399 0.34533 0.0
H376 H 0.98803 0.53135 0.84565 0.0
H377 H 0.0303 0.52777 1.0058 0.0
H378 H 0.02371 0.51242 0.44722 0.0
H379 H 0.05853 0.43614 0.74386 0.0
H380 H 0.05824 0.50097 1.00167 0.0
H381 H 0.07393 0.47133 0.94529 0.0
H382 H 1.0032 0.61706 0.64373 0.0
H383 H 0.07375 0.44668 0.84998 0.0
H384 H 0.9784 0.54264 0.32858 0.0
N385 N 1.01063 0.57001 0.57648 0.0
C386 C 0.9977 0.57148 0.52432 0.0
C387 C 1.00122 0.6042 0.61044 0.0
C388 C 0.98527 0.58907 0.51494 0.0
C389 C 0.01343 0.58657 0.61703 0.0
C390 C 0.98677 0.6053 0.55992 0.0
N391 N 1.01056 0.53959 0.48728 0.0
C392 C 0.013 0.52494 0.43992 0.0
C393 C 0.98578 0.55749 0.42073 0.0
C394 C 0.99793 0.55596 0.47772 0.0
C395 C 0.98747 0.54203 0.37307 0.0
C396 C 1.00136 0.52583 0.38234 0.0
H397 H 0.9775 0.61907 0.55449 0.0
H398 H 0.96254 0.60352 0.45218 0.0
H399 H 0.96303 0.57585 0.36958 0.0
O400 O 0.05759 0.53041 0.53625 0.0
O401 O 0.99768 0.52321 0.5689 0.0
O402 O 0.98328 0.52278 0.67063 0.0
O403 O 0.04868 0.56245 0.54338 0.0
O404 O 0.0355 0.50413 0.56858 0.0
O405 O 1.00862 0.4873 0.62006 0.0
O406 O 0.98324 0.48854 0.78868 0.0
O407 O 0.0413 0.50222 0.70131 0.0
O408 O 0.04674 0.53619 0.68223 0.0
O409 O 0.98952 0.47337 0.69695 0.0
O410 O 0.99786 0.53581 0.73302 0.0
O411 O 0.0266 0.55148 0.69027 0.0
C412 C 0.98132 0.52433 0.60674 0.0
C413 C 0.08364 0.55393 0.56344 0.0
C414 C 0.11908 0.54312 0.5837 0.0
C415 C 0.12062 0.55785 0.63401 0.0
C416 C 0.08547 0.56865 0.6138 0.0
C417 C 0.10392 0.5706 0.64859 0.0
C418 C 0.10051 0.54132 0.54866 0.0
C419 C 0.02327 0.48793 0.57546 0.0
C420 C 0.06363 0.54955 0.532 0.0
C421 C 0.97236 0.59023 0.45981 0.0
C422 C 0.97266 0.5745 0.41269 0.0
C423 C 0.0532 0.51863 0.70614 0.0
C424 C 0.9556 0.47165 0.73412 0.0
C425 C 0.92118 0.48613 0.7213 0.0
C426 C 0.914 0.46673 0.70013 0.0
C427 C 0.94815 0.4524 0.71325 0.0
C428 C 0.94213 0.48853 0.73741 0.0
C429 C 0.92745 0.45 0.69608 0.0
C430 C 1.01086 0.55149 0.73102 0.0
C431 C 0.97768 0.47404 0.74808 0.0
H432 H 0.13481 0.55974 0.66137 0.0
H433 H 0.07255 0.57828 0.62749 0.0
H434 H 0.10519 0.58187 0.68754 0.0
H435 H 0.09891 0.5296 0.51106 0.0
H436 H 0.89788 0.46434 0.68832 0.0
H437 H 0.95841 0.43927 0.70963 0.0
H438 H 0.94795 0.50353 0.75224 0.0
H439 H 0.92179 0.4351 0.68005 0.0
H440 H 0.20796 1.01012 0.15742 0.0
H441 H 0.18011 1.00791 0.23905 0.0
H442 H 0.17 0.07339 0.22156 0.0
H443 H 0.19771 0.07564 0.14046 0.0
H444 H 0.17417 0.02931 0.36291 0.0
H445 H 0.11263 0.0481 0.18405 0.0
H446 H 0.13814 0.04022 0.15922 0.0
H447 H 0.13366 0.0662 0.18649 0.0
C448 C 0.20004 0.02409 0.1719 0.0
C449 C 0.20539 0.04314 0.14327 0.0
C450 C 0.18403 0.0228 0.21836 0.0
C451 C 0.1727 0.04045 0.23619 0.0
C452 C 0.17824 0.05949 0.20827 0.0
H453 H 0.06404 0.0637 0.48294 0.0
H454 H 0.09357 0.0666 0.40804 0.0
C455 C 0.19427 0.06079 0.16226 0.0
C456 C 0.15492 0.03901 0.28303 0.0
H457 H 0.10277 0.04649 0.29545 0.0
C458 C 0.15855 0.03297 0.34806 0.0
C459 C 0.13448 0.04391 0.2641 0.0
C460 C 0.12936 0.04981 0.19457 0.0
C461 C 0.14248 0.03207 0.39465 0.0
C462 C 0.12197 0.03682 0.37561 0.0
C463 C 0.11838 0.04288 0.31052 0.0
C464 C 0.10402 0.03519 0.42191 0.0
C465 C 0.14778 0.02657 0.46439 0.0
C466 C 0.09961 0.01651 0.45408 0.0
C467 C 0.0828 1.01486 0.49698 0.0
C468 C 0.06976 0.03181 0.50885 0.0
C469 C 0.07384 0.05039 0.47553 0.0
C470 C 0.09075 0.05205 0.4326 0.0
H471 H 0.16427 0.02974 0.47539 0.0
H472 H 0.13812 0.03527 0.49969 0.0
H473 H 0.14503 1.00983 0.47203 0.0
H474 H 0.10903 1.00302 0.44531 0.0
H475 H 0.07981 1.00009 0.51992 0.0
H476 H 0.53373 0.21346 0.17207 0.0
H477 H 0.53729 0.18502 0.25127 0.0
H478 H 0.47127 0.18279 0.27363 0.0
H479 H 0.46769 0.21106 0.19496 0.0
H480 H 0.52372 0.18015 0.3852 0.0
H481 H 0.48566 0.12312 0.22206 0.0
H482 H 0.4949 0.14777 0.19288 0.0
H483 H 0.47093 0.1461 0.23673 0.0
C484 C 0.52002 0.20714 0.19482 0.0
C485 C 0.50044 0.21483 0.1777 0.0
C486 C 0.52204 0.19078 0.23991 0.0
C487 C 0.50454 0.1814 0.26811 0.0
C488 C 0.48504 0.18941 0.25212 0.0
H489 H 0.48152 0.07481 0.52453 0.0
H490 H 0.4788 0.10477 0.45124 0.0
C491 C 0.48302 0.20578 0.20745 0.0
C492 C 0.50651 0.16309 0.31314 0.0
H493 H 0.49279 0.11219 0.33018 0.0
C494 C 0.51705 0.16527 0.37294 0.0
C495 C 0.49773 0.14358 0.29784 0.0
C496 C 0.48682 0.13985 0.23368 0.0
C497 C 0.51866 0.14878 0.41803 0.0
C498 C 0.50998 0.1292 0.40253 0.0
C499 C 0.49947 0.12705 0.34262 0.0
C500 C 0.51165 0.11079 0.44739 0.0
C501 C 0.52906 0.15275 0.48293 0.0
C502 C 0.53096 0.10368 0.46933 0.0
C503 C 0.53246 0.08643 0.5108 0.0
C504 C 0.51472 0.07561 0.53112 0.0
C505 C 0.49545 0.08255 0.50875 0.0
C506 C 0.49392 0.09982 0.46724 0.0
H507 H 0.52906 0.16944 0.49555 0.0
H508 H 0.52138 0.1441 0.52304 0.0
H509 H 0.54536 0.14766 0.48011 0.0
H510 H 0.54499 0.1113 0.45366 0.0
H511 H 0.54759 0.08135 0.5261 0.0
H512 H 0.34248 0.47116 0.1413 0.0
H513 H 0.3698 0.47346 0.22389 0.0
H514 H 0.36336 0.53963 0.22775 0.0
H515 H 0.33588 0.53733 0.14502 0.0
H516 H 0.4075 0.49339 0.21559 0.0
H517 H 0.36285 0.52583 0.4227 0.0
H518 H 0.35059 0.51459 0.35171 0.0
H519 H 0.36091 0.54036 0.34815 0.0
C520 C 0.34657 0.48619 0.16068 0.0
C521 C 0.33654 0.50402 0.13753 0.0
C522 C 0.36235 0.4875 0.20774 0.0
C523 C 0.36863 0.50669 0.23332 0.0
C524 C 0.35861 0.52456 0.21034 0.0
H525 H 0.46365 0.54708 0.51017 0.0
H526 H 0.4353 0.54414 0.43183 0.0
C527 C 0.34284 0.52325 0.16293 0.0
C528 C 0.38618 0.50793 0.28166 0.0
H529 H 0.39912 0.52418 0.43612 0.0
C530 C 0.4056 0.50004 0.26393 0.0
C531 C 0.38393 0.51665 0.34494 0.0
C532 C 0.36342 0.52469 0.36847 0.0
C533 C 0.42275 0.501 0.30665 0.0
C534 C 0.42049 0.50965 0.3701 0.0
C535 C 0.40104 0.51751 0.38783 0.0
C536 C 0.43812 0.51115 0.41817 0.0
C537 C 0.44332 0.49334 0.28235 0.0
C538 C 0.44931 0.49359 0.43802 0.0
C539 C 0.46571 0.49526 0.48309 0.0
C540 C 0.47129 0.51451 0.50996 0.0
C541 C 0.45989 0.53198 0.49069 0.0
C542 C 0.44358 0.53031 0.44567 0.0
H543 H 0.4439 0.49281 0.22803 0.0
H544 H 0.45613 0.50328 0.30016 0.0
H545 H 0.44587 0.47744 0.30073 0.0
H546 H 0.44521 0.47849 0.41935 0.0
H547 H 0.47383 0.48142 0.4976 0.0
H548 H 0.99923 0.32031 0.24414 0.0
H549 H 1.003 0.35008 0.31684 0.0
H550 H 0.05151 0.37397 0.19387 0.0
H551 H 0.04728 0.34432 0.11968 0.0
H552 H 0.03334 0.36453 0.39131 0.0
H553 H 0.01577 0.4241 0.2049 0.0
H554 H 1.01217 0.39692 0.18938 0.0
H555 H 0.0375 0.40825 0.18477 0.0
C556 C 1.01091 0.33176 0.23292 0.0
C557 C 0.02323 0.32959 0.17657 0.0
C558 C 0.01301 0.34891 0.27457 0.0
C559 C 0.02734 0.36468 0.26102 0.0
C560 C 0.03998 0.36241 0.20524 0.0
H561 H 0.05084 0.48215 0.47332 0.0
H562 H 0.05316 0.45263 0.39808 0.0
C563 C 0.03778 0.34523 0.16316 0.0
C564 C 0.02881 0.38327 0.30559 0.0
H565 H 0.02502 0.43613 0.31018 0.0
C566 C 0.03153 0.38015 0.37326 0.0
C567 C 0.02654 0.40387 0.28288 0.0
C568 C 0.02264 0.40856 0.21165 0.0
C569 C 0.03199 0.39675 0.4182 0.0
C570 C 0.02932 0.41729 0.39567 0.0
C571 C 0.02706 0.42049 0.32792 0.0
C572 C 0.02804 0.43544 0.4418 0.0
C573 C 0.03559 0.39206 0.4896 0.0
C574 C 0.013 0.43602 0.49136 0.0
C575 C 1.01165 0.45287 0.53449 0.0
C576 C 0.0252 0.46988 0.52938 0.0
C577 C 0.04016 0.46941 0.47928 0.0
C578 C 0.04148 0.45248 0.43594 0.0
H579 H 0.04358 0.37706 0.49619 0.0
H580 H 0.0449 0.40436 0.51344 0.0
H581 H 0.0205 0.39104 0.51503 0.0
H582 H 1.00206 0.42346 0.49639 0.0
H583 H 0.99978 0.45255 0.57176 0.0
H584 H 0.81799 1.00111 0.05035 0.0
H585 H 0.84885 0.99715 0.98157 0.0
H586 H 0.87586 0.05088 0.07259 0.0
H587 H 0.8454 0.05451 0.14201 0.0
H588 H 0.86457 0.0222 0.89083 0.0
H589 H 0.9239 1.01235 0.08222 0.0
H590 H 0.89669 1.01072 0.09984 0.0
H591 H 0.90929 0.03548 0.09437 0.0
C592 C 0.83076 1.01172 0.05684 0.0
C593 C 0.82944 0.02775 0.10318 0.0
C594 C 0.84837 1.00956 0.01709 0.0
C595 C 0.86507 0.02345 0.02243 0.0
C596 C 0.86365 0.03951 0.06855 0.0
H597 H 0.95607 0.05083 0.71862 0.0
H598 H 0.92645 0.05002 0.79243 0.0
C599 C 0.84613 0.04162 0.10831 0.0
C600 C 0.8834 0.02192 0.9776 0.0
H601 H 0.93624 0.02107 0.97529 0.0
C602 C 0.88022 0.02179 0.90948 0.0
C603 C 0.90396 0.02106 1.00124 0.0
C604 C 0.90869 0.01968 0.0734 0.0
C605 C 0.89683 0.0214 0.86484 0.0
C606 C 0.91741 0.02166 0.88852 0.0
C607 C 0.92059 0.02118 0.95663 0.0
C608 C 0.93581 0.02235 0.84371 0.0
C609 C 0.89207 0.02037 0.79262 0.0
C610 C 0.9516 1.00758 0.84892 0.0
C611 C 0.96883 1.00819 0.80714 0.0
C612 C 0.97077 0.02361 0.75893 0.0
C613 C 0.95511 0.03858 0.75452 0.0
C614 C 0.93797 0.03803 0.79655 0.0
H615 H 0.87652 1.01372 0.78351 0.0
H616 H 0.89227 0.03621 0.77203 0.0
H617 H 0.90362 1.01094 0.766 0.0
H618 H 0.95051 0.99538 0.88497 0.0
H619 H 0.98052 0.9964 0.81232 0.0
H620 H 0.53099 0.85338 0.17468 0.0
H621 H 0.53418 0.88336 0.10137 0.0
H622 H 0.52008 0.84448 0.93597 0.0
H623 H 0.51686 0.81458 0.00913 0.0
H624 H 0.55865 0.89261 0.99028 0.0
H625 H 0.47576 0.88945 0.92357 0.0
H626 H 0.48624 0.87514 0.99157 0.0
H627 H 0.48957 0.86588 0.90931 0.0
C628 C 0.52886 0.8512 0.12256 0.0
C629 C 0.52346 0.8316 0.09796 0.0
C630 C 0.53063 0.86838 0.08058 0.0
C631 C 0.52693 0.86644 0.01291 0.0
C632 C 0.52256 0.84663 0.98794 0.0
H633 H 0.54837 0.95955 0.7037 0.0
H634 H 0.54968 0.92872 0.77362 0.0
C635 C 0.52087 0.82946 0.02984 0.0
C636 C 0.527 0.88514 0.96901 0.0
H637 H 0.49631 0.91386 0.86713 0.0
C638 C 0.54503 0.89717 0.96322 0.0
C639 C 0.50918 0.89148 0.9341 0.0
C640 C 0.48901 0.87997 0.94018 0.0
C641 C 0.54577 0.91497 0.92314 0.0
C642 C 0.52806 0.92106 0.88738 0.0
C643 C 0.50998 0.9092 0.89381 0.0
C644 C 0.52773 0.94003 0.8448 0.0
C645 C 0.56532 0.92758 0.92082 0.0
C646 C 0.51488 0.95675 0.8606 0.0
C647 C 0.51406 0.97435 0.82042 0.0
C648 C 0.52581 0.97564 0.76254 0.0
C649 C 0.5388 0.95896 0.74699 0.0
C650 C 0.53973 0.94138 0.7875 0.0
H651 H 0.57648 0.92296 0.95935 0.0
H652 H 0.5728 0.92562 0.87239 0.0
H653 H 0.56166 0.94418 0.92699 0.0
H654 H 0.50547 0.95623 0.90436 0.0
H655 H 0.50394 0.98688 0.83435 0.0
H656 H 0.69364 0.50572 0.15071 0.0
H657 H 0.66364 0.50939 0.07901 0.0
H658 H 0.69116 0.56341 0.99172 0.0
H659 H 0.72151 0.55941 0.06263 0.0
H660 H 0.63468 0.538 0.06024 0.0
H661 H 0.67937 0.53003 0.83052 0.0
H662 H 0.69058 0.52528 0.90981 0.0
H663 H 0.6876 0.5513 0.88053 0.0
C664 C 0.69319 0.51859 0.11694 0.0
C665 C 0.70992 0.53248 0.11353 0.0
C666 C 0.67599 0.52065 0.07561 0.0
C667 C 0.67501 0.53651 0.02871 0.0
C668 C 0.69152 0.55074 0.0262 0.0
H669 H 0.5586 0.56097 0.81007 0.0
H670 H 0.58792 0.56389 0.88563 0.0
C671 C 0.70882 0.54862 0.06751 0.0
C672 C 0.65694 0.53769 0.98218 0.0
H673 H 0.64387 0.53732 0.81946 0.0
C674 C 0.63675 0.53794 1.00758 0.0
C675 C 0.65937 0.53729 0.91312 0.0
C676 C 0.68036 0.53576 0.88171 0.0
C677 C 0.61916 0.53774 0.96654 0.0
C678 C 0.6216 0.53772 0.89748 0.0
C679 C 0.6418 0.53755 0.87212 0.0
C680 C 0.60359 0.53653 0.85071 0.0
C681 C 0.59811 0.53677 0.99783 0.0
C682 C 0.60262 0.52062 0.80394 0.0
C683 C 0.58597 0.51905 0.7602 0.0
C684 C 0.56963 0.53339 0.7614 0.0
C685 C 0.57071 0.54953 0.80764 0.0
C686 C 0.58749 0.55113 0.85145 0.0
H687 H 0.59894 0.5314 0.04939 0.0
H688 H 0.59122 0.55242 0.99787 0.0
H689 H 0.58769 0.52627 0.97027 0.0
H690 H 0.6147 0.50913 0.80168 0.0
H691 H 0.58591 0.50638 0.72564 0.0
H692 H 0.02914 0.69071 0.18607 0.0
H693 H 0.02529 0.66019 0.11575 0.0
H694 H 0.9887 0.6957 0.98067 0.0
H695 H 0.99304 0.72637 0.05015 0.0
H696 H 0.99375 0.63695 0.06866 0.0
H697 H 0.03311 0.67489 0.86009 0.0
H698 H 0.03255 0.68614 0.94079 0.0
H699 H 1.01061 0.68845 0.88734 0.0
C700 C 0.02009 0.69195 0.14171 0.0
C701 C 1.01155 0.71108 0.12355 0.0
C702 C 0.0179 0.67445 0.10134 0.0
C703 C 1.00712 0.67556 0.04159 0.0
C704 C 0.9976 0.6944 0.02532 0.0
H705 H 0.97644 0.56582 0.79734 0.0
H706 H 0.97437 0.59531 0.87297 0.0
C707 C 0.99985 0.71193 0.06557 0.0
C708 C 1.00649 0.65728 0.99576 0.0
H709 H 0.01883 0.64187 0.84002 0.0
C710 C 0.99919 0.63809 0.01861 0.0
C711 C 0.01388 0.65842 0.93045 0.0
C712 C 0.02317 0.67801 0.90325 0.0
C713 C 0.99897 0.62028 0.97837 0.0
C714 C 1.00592 0.62157 0.91263 0.0
C715 C 0.01327 0.64074 0.88994 0.0
C716 C 1.00682 0.60315 0.8675 0.0
C717 C 0.99191 0.60006 1.00746 0.0
C718 C 0.02558 0.5977 0.83767 0.0
C719 C 0.02674 0.58094 0.79426 0.0
C720 C 1.00917 0.56903 0.77885 0.0
C721 C 0.99035 0.57442 0.80859 0.0
C722 C 0.98917 0.5913 0.85217 0.0
H723 H 0.99226 0.60042 0.06181 0.0
H724 H 0.97579 0.59695 0.99198 0.0
H725 H 1.00168 0.5871 0.99026 0.0
H726 H 0.03946 0.60643 0.84818 0.0
H727 H 0.04156 0.57729 0.77275 0.0
H728 H 0.09525 0.23374 0.15639 0.0
H729 H 0.10333 0.20926 0.2441 0.0
H730 H 0.05308 0.23352 0.35866 0.0
H731 H 0.04546 0.25836 0.27247 0.0
H732 H 0.08486 0.21426 0.43619 0.0
H733 H 0.05773 0.16576 0.22669 0.0
H734 H 0.08133 0.17991 0.21624 0.0
H735 H 0.05729 0.1935 0.22287 0.0
C736 C 0.08661 0.23445 0.20171 0.0
C737 C 0.06947 0.24755 0.20737 0.0
C738 C 0.09123 0.22049 0.25171 0.0
C739 C 0.07837 0.21917 0.30681 0.0
C740 C 0.06312 0.23421 0.31633 0.0
H741 H 1.00361 0.15321 0.53879 0.0
H742 H 0.03206 0.17559 0.50803 0.0
C743 C 0.05873 0.24839 0.26692 0.0
C744 C 0.07684 0.19976 0.34469 0.0
H745 H 0.05539 0.15196 0.33009 0.0
C746 C 0.07896 0.20036 0.41307 0.0
C747 C 0.06928 0.18157 0.31435 0.0
C748 C 0.06613 0.18003 0.24114 0.0
C749 C 0.07228 0.18379 0.4522 0.0
C750 C 0.0628 0.16651 0.42206 0.0
C751 C 0.0626 0.16517 0.35349 0.0
C752 C 0.04946 0.15175 0.45827 0.0
C753 C 0.07473 0.18535 0.52541 0.0
C754 C 0.04983 0.13063 0.44252 0.0
C755 C 0.03301 0.11796 0.45745 0.0
C756 C 0.0156 0.12612 0.48938 0.0
C757 C 0.01643 0.1466 0.51216 0.0
C758 C 0.03304 0.15935 0.49599 0.0
H759 H 0.08948 0.19317 0.53796 0.0
H760 H 0.06207 0.1949 0.54572 0.0
H761 H 0.07439 0.16994 0.54919 0.0
H762 H 0.06232 0.12436 0.41351 0.0
H763 H 0.03305 0.10227 0.43916 0.0
H764 H 0.29031 0.09172 0.20685 0.0
H765 H 0.31747 0.10224 0.28427 0.0
H766 H 0.33738 0.03881 0.29762 0.0
H767 H 0.30972 0.02839 0.2242 0.0
H768 H 0.34624 0.05829 0.40717 0.0
H769 H 0.37185 0.10677 0.19634 0.0
H770 H 0.34823 0.11374 0.23616 0.0
H771 H 0.34972 0.0901 0.19004 0.0
C772 C 0.29994 0.08005 0.22915 0.0
C773 C 0.29816 0.05931 0.21003 0.0
C774 C 0.3156 0.08605 0.2725 0.0
C775 C 0.32995 0.07143 0.29488 0.0
C776 C 0.32662 0.05044 0.28092 0.0
H777 H 0.44951 0.04842 0.248 0.0
H778 H 0.41415 0.06087 0.24989 0.0
C779 C 0.31081 0.04443 0.23895 0.0
C780 C 0.35026 0.07753 0.32241 0.0
H781 H 0.39655 0.09679 0.27118 0.0
C782 C 0.35722 0.06713 0.37848 0.0
C783 C 0.3645 0.08928 0.28509 0.0
C784 C 0.35834 0.10056 0.22342 0.0
C785 C 0.37832 0.06575 0.39308 0.0
C786 C 0.3927 0.07598 0.35212 0.0
C787 C 0.38546 0.08873 0.30171 0.0
C788 C 0.41488 0.07047 0.35159 0.0
C789 C 0.38502 0.05169 0.44798 0.0
C790 C 0.42727 0.07201 0.40773 0.0
C791 C 0.44741 0.06437 0.407 0.0
C792 C 0.4557 0.05575 0.3496 0.0
C793 C 0.44362 0.0552 0.29271 0.0
C794 C 0.4234 0.06234 0.29384 0.0
H795 H 0.37201 0.04243 0.46791 0.0
H796 H 0.39716 0.0409 0.43094 0.0
H797 H 0.39147 0.06109 0.48854 0.0
H798 H 0.42126 0.07868 0.45237 0.0
H799 H 0.4564 0.06495 0.45145 0.0
H800 H 0.50295 0.33453 0.23612 0.0
H801 H 0.49704 0.34934 0.34332 0.0
H802 H 0.46366 0.29484 0.40246 0.0
H803 H 0.46865 0.27996 0.29269 0.0
H804 H 0.45337 0.35135 0.42716 0.0
H805 H 0.5202 0.30701 0.52266 0.0
H806 H 0.5199 0.3123 0.43607 0.0
H807 H 0.50072 0.29552 0.47067 0.0
C808 C 0.49371 0.32585 0.27064 0.0
C809 C 0.48612 0.30607 0.25522 0.0
C810 C 0.49046 0.33433 0.33222 0.0
C811 C 0.47983 0.32321 0.38031 0.0
C812 C 0.47178 0.30366 0.3655 0.0
H813 H 0.53553 0.39327 0.68574 0.0
H814 H 0.51019 0.36651 0.65932 0.0
C815 C 0.47483 0.29516 0.30309 0.0
C816 C 0.47949 0.33189 0.44696 0.0
H817 H 0.51574 0.34116 0.56344 0.0
C818 C 0.46642 0.34864 0.4592 0.0
C819 C 0.49615 0.32801 0.48959 0.0
C820 C 0.51004 0.30965 0.4797 0.0
C821 C 0.47147 0.36334 0.5071 0.0
C822 C 0.49035 0.36145 0.54125 0.0
C823 C 0.50147 0.34293 0.53638 0.0
C824 C 0.50153 0.37985 0.56625 0.0
C825 C 0.4575 0.38166 0.5164 0.0
C826 C 0.50485 0.39649 0.52348 0.0
C827 C 0.51936 0.41167 0.53812 0.0
C828 C 0.53112 0.41056 0.59577 0.0
C829 C 0.52703 0.39447 0.64036 0.0
C830 C 0.51234 0.37926 0.62575 0.0
H831 H 0.4411 0.37669 0.51462 0.0
H832 H 0.46045 0.38962 0.56366 0.0
H833 H 0.45991 0.39276 0.47573 0.0
H834 H 0.4974 0.39697 0.47607 0.0
H835 H 0.52232 0.42346 0.50176 0.0
H836 H 0.27656 0.50258 0.28623 0.0
H837 H 0.26285 0.49738 0.39432 0.0
H838 H 0.20962 0.46683 0.31173 0.0
H839 H 0.22484 0.46877 0.20421 0.0
H840 H 0.23399 0.51761 0.42792 0.0
H841 H 0.20716 0.43944 0.47907 0.0
H842 H 0.22547 0.44423 0.41425 0.0
H843 H 0.198 0.44485 0.39847 0.0
C844 C 0.26254 0.49363 0.2904 0.0
C845 C 0.25161 0.48668 0.23478 0.0
C846 C 0.25455 0.49086 0.35314 0.0
C847 C 0.235 0.48195 0.36198 0.0
C848 C 0.22488 0.47346 0.30734 0.0
H849 H 0.13205 0.53315 0.46122 0.0
H850 H 0.16254 0.51365 0.43045 0.0
C851 C 0.23336 0.47529 0.24483 0.0
C852 C 0.22326 0.48596 0.42324 0.0
H853 H 0.18145 0.46789 0.50716 0.0
C854 C 0.22325 0.50632 0.44733 0.0
C855 C 0.20929 0.47143 0.45038 0.0
C856 C 0.21024 0.44874 0.43444 0.0
C857 C 0.208 0.51311 0.49043 0.0
C858 C 0.19213 0.49939 0.50859 0.0
C859 C 0.19348 0.47847 0.49167 0.0
C860 C 0.17221 0.50775 0.52997 0.0
C861 C 0.20757 0.53554 0.51039 0.0
C862 C 0.1675 0.51049 0.59628 0.0
C863 C 0.14984 0.52151 0.61413 0.0
C864 C 0.13693 0.53006 0.56588 0.0
C865 C 0.1415 0.5266 0.49961 0.0
C866 C 0.15891 0.51546 0.48192 0.0
H867 H 0.22283 0.54309 0.50364 0.0
H868 H 0.1961 0.54384 0.47995 0.0
H869 H 0.20286 0.5371 0.5624 0.0
H870 H 0.17775 0.50472 0.63386 0.0
H871 H 0.14639 0.52353 0.66543 0.0
H872 H 0.93379 0.80336 0.15999 0.0
H873 H 0.92327 0.82734 0.07386 0.0
H874 H 0.97229 0.80444 0.95083 0.0
H875 H 0.982 0.7801 0.03482 0.0
H876 H 0.94904 0.85557 0.05816 0.0
H877 H 0.93719 0.82599 0.81117 0.0
H878 H 0.9337 0.80955 0.88175 0.0
H879 H 0.95865 0.81193 0.8428 0.0
C880 C 0.9415 0.80274 0.113 0.0
C881 C 0.95893 0.79022 0.10429 0.0
C882 C 0.93547 0.8164 0.06371 0.0
C883 C 0.94709 0.81799 1.00582 0.0
C884 C 0.96272 0.80344 0.99408 0.0
H885 H 0.03245 0.88715 0.85065 0.0
H886 H 1.00418 0.86331 0.87374 0.0
C887 C 0.96845 0.78953 0.04272 0.0
C888 C 0.94766 0.83774 0.96894 0.0
H889 H 0.96314 0.8556 0.81987 0.0
C890 C 0.95116 0.85581 1.00554 0.0
C891 C 0.95019 0.83837 0.90022 0.0
C892 C 0.94447 0.82038 0.85701 0.0
C893 C 0.96019 0.87327 0.97709 0.0
C894 C 0.96553 0.87271 0.91005 0.0
C895 C 0.95941 0.85579 0.87162 0.0
C896 C 0.98109 0.88717 0.88371 0.0
C897 C 0.96613 0.8912 0.02066 0.0
C898 C 0.97733 0.90843 0.88011 0.0
C899 C 0.99359 0.92215 0.86825 0.0
C900 C 0.0138 0.91474 0.85932 0.0
C901 C 0.01718 0.89334 0.85886 0.0
C902 C 1.00097 0.8797 0.871 0.0
H903 H 0.96223 0.88839 0.07285 0.0
H904 H 0.98295 0.89427 0.01706 0.0
H905 H 0.95789 0.90529 1.00452 0.0
H906 H 0.96205 0.91446 0.88942 0.0
H907 H 0.99047 0.93856 0.86898 0.0
H908 H 0.75049 0.9583 0.0754 0.0
H909 H 0.72515 0.94245 1.00078 0.0
H910 H 0.69737 1.00223 0.9711 0.0
H911 H 0.72267 0.01781 0.04374 0.0
H912 H 0.68626 0.94054 0.02934 0.0
H913 H 0.6897 0.9795 0.79299 0.0
H914 H 0.71133 0.98 0.84879 0.0
H915 H 0.69143 0.99944 0.85332 0.0
C916 C 0.73948 0.96804 0.0503 0.0
C917 C 0.73844 0.98921 0.06454 0.0
C918 C 0.725 0.95902 1.00802 0.0
C919 C 0.70949 0.97115 0.97934 0.0
C920 C 0.7095 0.99257 0.99055 0.0
H921 H 0.59196 0.98354 0.02887 0.0
H922 H 0.6259 0.96777 0.02956 0.0
C923 C 0.72386 1.0015 0.03257 0.0
C924 C 0.69097 0.96166 0.94893 0.0
H925 H 0.65389 0.97579 0.84049 0.0
C926 C 0.67942 0.94761 0.98644 0.0
C927 C 0.68217 0.96992 0.8914 0.0
C928 C 0.69452 0.98285 0.8441 0.0
C929 C 0.65838 0.94439 0.97389 0.0
C930 C 0.64867 0.95608 0.9243 0.0
C931 C 0.661 0.96735 0.88033 0.0
C932 C 0.6262 0.96054 0.92576 0.0
C933 C 0.64658 0.92953 0.01666 0.0
C934 C 0.61475 0.96169 0.86747 0.0
C935 C 0.5955 0.97135 0.86689 0.0
C936 C 0.58731 0.97974 0.92474 0.0
C937 C 0.59789 0.97702 0.98383 0.0
C938 C 0.61726 0.96774 0.98423 0.0
H939 H 0.65596 0.91553 0.02612 0.0
H940 H 0.6435 0.93686 0.06478 0.0
H941 H 0.63172 0.92478 0.9941 0.0
H942 H 0.62124 0.9563 0.82174 0.0
H943 H 0.58743 0.97312 0.82081 0.0
H944 H 0.58461 0.72965 0.06439 0.0
H945 H 0.58982 0.71201 0.95948 0.0
H946 H 0.53742 0.74427 0.87931 0.0
H947 H 0.53279 0.76235 0.98246 0.0
H948 H 0.56384 0.68607 0.91779 0.0
H949 H 0.57135 0.74244 0.71944 0.0
H950 H 0.57528 0.74962 0.804 0.0
H951 H 0.54977 0.74992 0.76843 0.0
C952 C 0.57465 0.73336 0.02353 0.0
C953 C 0.55826 0.74726 0.03143 0.0
C954 C 0.57768 0.7234 0.96357 0.0
C955 C 0.56421 0.72698 0.91085 0.0
C956 C 0.54852 0.7417 0.91802 0.0
H957 H 0.48633 0.66508 0.68733 0.0
H958 H 0.51074 0.69128 0.72443 0.0
C959 C 0.54571 0.7519 0.97745 0.0
C960 C 0.56358 0.71259 0.85423 0.0
H961 H 0.55059 0.71098 0.6923 0.0
C962 C 0.56178 0.69144 0.86796 0.0
C963 C 0.56101 0.71948 0.78897 0.0
C964 C 0.56471 0.74162 0.7695 0.0
C965 C 0.55513 0.6774 0.82026 0.0
C966 C 0.55036 0.68471 0.75678 0.0
C967 C 0.5541 0.70547 0.74115 0.0
C968 C 0.53765 0.672 0.71217 0.0
C969 C 0.55131 0.65524 0.84015 0.0
C970 C 0.54492 0.65306 0.68828 0.0
C971 C 0.53093 0.63796 0.66757 0.0
C972 C 0.5096 0.64178 0.66999 0.0
C973 C 0.50267 0.6617 0.68528 0.0
C974 C 0.51663 0.67672 0.70635 0.0
H975 H 0.55403 0.65263 0.89319 0.0
H976 H 0.53519 0.65067 0.82866 0.0
H977 H 0.56177 0.64494 0.81236 0.0
H978 H 0.56114 0.64928 0.69145 0.0
H979 H 0.53665 0.62281 0.65449 0.0
H980 H 0.8298 0.5487 0.08703 0.0
H981 H 0.84654 0.55144 0.98205 0.0
H982 H 0.79271 0.58055 0.90064 0.0
H983 H 0.77603 0.57961 1.00841 0.0
H984 H 0.81059 0.53747 0.84872 0.0
H985 H 0.86528 0.60308 0.85486 0.0
H986 H 0.86237 0.59008 0.93209 0.0
H987 H 0.84069 0.60328 0.89693 0.0
C988 C 0.82165 0.55665 0.04836 0.0
C989 C 0.80144 0.56402 0.0572 0.0
C990 C 0.8313 0.55805 0.98786 0.0
C991 C 0.82092 0.56638 0.93405 0.0
C992 C 0.80101 0.57428 0.94208 0.0
H993 H 0.88959 0.49811 0.64124 0.0
H994 H 0.86339 0.52448 0.66352 0.0
C995 C 0.79143 0.57342 1.00356 0.0
C996 C 0.83024 0.56342 0.869 0.0
H997 H 0.87687 0.57222 0.79801 0.0
C998 C 0.82468 0.54546 0.83509 0.0
C999 C 0.84839 0.57407 0.85156 0.0
C1000 C 0.85449 0.59384 0.88538 0.0
C1001 C 0.8385 0.53596 0.79177 0.0
C1002 C 0.85805 0.54524 0.78092 0.0
C1003 C 0.86206 0.56494 0.80706 0.0
C1004 C 0.87587 0.53285 0.75821 0.0
C1005 C 0.83301 0.5149 0.765 0.0
C1006 C 0.8924 0.52986 0.80162 0.0
C1007 C 0.90764 0.51541 0.78793 0.0
C1008 C 0.90657 0.50341 0.73083 0.0
C1009 C 0.89064 0.50712 0.68571 0.0
C1010 C 0.87562 0.52204 0.69864 0.0
H1011 H 0.81808 0.50908 0.78431 0.0
H1012 H 0.83175 0.51571 0.71094 0.0
H1013 H 0.84516 0.50354 0.77754 0.0
H1014 H 0.89294 0.53791 0.84812 0.0
H1015 H 0.91958 0.51279 0.82404 0.0
H1016 H 0.04381 0.25145 0.90823 0.0
H1017 H 0.03805 0.22276 0.83075 0.0
H1018 H 0.02135 0.18304 0.99148 0.0
H1019 H 0.02626 0.21152 0.06763 0.0
H1020 H 0.05761 0.18676 0.81907 0.0
H1021 H 0.97623 0.16797 0.86925 0.0
H1022 H 0.98804 0.19149 0.89844 0.0
H1023 H 0.99083 0.16776 0.94364 0.0
C1024 C 0.03833 0.23677 0.92667 0.0
C1025 C 0.03551 0.23394 0.99444 0.0
C1026 C 0.03522 0.22023 0.88236 0.0
C1027 C 0.02897 0.20052 0.90454 0.0
C1028 C 0.02563 0.19799 0.97205 0.0
H1029 H 0.05403 0.07894 0.75005 0.0
H1030 H 0.05425 0.11312 0.80046 0.0
C1031 C 0.02866 0.21439 0.01595 0.0
C1032 C 0.02719 0.18222 0.85882 0.0
H1033 H 0.99644 0.14063 0.82086 0.0
C1034 C 0.04409 0.17688 0.81901 0.0
C1035 C 1.00948 0.16922 0.857 0.0
C1036 C 0.99006 0.17454 0.89385 0.0
C1037 C 0.04416 0.15867 0.78065 0.0
C1038 C 0.02706 0.14495 0.78266 0.0
C1039 C 1.00976 0.15079 0.81976 0.0
C1040 C 0.02721 0.12414 0.74932 0.0
C1041 C 0.06263 0.15433 0.73803 0.0
C1042 C 1.01183 0.11841 0.70389 0.0
C1043 C 1.01156 0.0985 0.67566 0.0
C1044 C 0.02647 0.08368 0.69286 0.0
C1045 C 0.04198 0.08961 0.73722 0.0
C1046 C 0.04232 0.10943 0.76521 0.0
H1047 H 0.07108 0.16875 0.72562 0.0
H1048 H 0.0734 0.14408 0.7648 0.0
H1049 H 0.05802 0.14651 0.69187 0.0
H1050 H 0.99991 0.1293 0.69058 0.0
H1051 H 0.99926 0.09448 0.64209 0.0
H1052 H 0.30568 1.00821 0.98083 0.0
H1053 H 0.33669 1.00506 0.91201 0.0
H1054 H 0.33982 0.07132 0.89536 0.0
H1055 H 0.3092 0.07444 0.9648 0.0
H1056 H 0.35036 0.01811 0.78689 0.0
H1057 H 0.39449 0.05744 0.98333 0.0
H1058 H 0.36844 0.04834 0.99501 0.0
H1059 H 0.37321 0.07231 0.95316 0.0
C1060 C 0.31256 0.02204 0.96041 0.0
C1061 C 0.30481 0.04157 0.97769 0.0
C1062 C 0.33044 0.02026 0.92156 0.0
C1063 C 0.34101 0.03797 0.8995 0.0
C1064 C 0.33232 0.0574 0.91271 0.0
H1065 H 0.44804 0.04363 0.63188 0.0
H1066 H 0.4133 0.04513 0.67944 0.0
C1067 C 0.31459 0.05917 0.95167 0.0
C1068 C 0.3618 0.03634 0.86722 0.0
H1069 H 0.41231 0.05109 0.88434 0.0
C1070 C 0.3639 0.02533 0.80821 0.0
C1071 C 0.37969 0.0454 0.89529 0.0
C1072 C 0.37897 0.05637 0.96048 0.0
C1073 C 0.38317 0.02348 0.77624 0.0
C1074 C 0.40092 0.03312 0.80335 0.0
C1075 C 0.39881 0.04385 0.86282 0.0
C1076 C 0.42196 0.03175 0.77255 0.0
C1077 C 0.38443 1.01075 0.71452 0.0
C1078 C 0.43873 0.02416 0.80891 0.0
C1079 C 0.45861 0.02341 0.78189 0.0
C1080 C 0.46242 0.0303 0.71766 0.0
C1081 C 0.44567 0.03794 0.68115 0.0
C1082 C 0.42572 0.03871 0.70831 0.0
H1083 H 0.37115 0.99997 0.71001 0.0
H1084 H 0.38422 0.0212 0.67151 0.0
H1085 H 0.39892 1.00168 0.71297 0.0
H1086 H 0.43643 0.01873 0.85851 0.0
H1087 H 0.47105 0.01734 0.8115 0.0
H1088 H 0.52335 0.33703 0.08662 0.0
H1089 H 0.52565 0.36581 0.01009 0.0
H1090 H 0.49092 0.33092 0.86782 0.0
H1091 H 0.48814 0.30199 0.94593 0.0
H1092 H 0.54158 0.37179 0.89144 0.0
H1093 H 0.45683 0.3828 0.87533 0.0
H1094 H 0.46841 0.36562 0.93412 0.0
H1095 H 0.46577 0.35784 0.85004 0.0
C1096 C 0.51636 0.33533 0.03872 0.0
C1097 C 0.50545 0.31714 0.02277 0.0
C1098 C 0.51768 0.3519 0.99479 0.0
C1099 C 0.50807 0.351 0.9332 0.0
C1100 C 0.49804 0.3324 0.9155 0.0
H1101 H 0.49719 0.45262 0.64319 0.0
H1102 H 0.49495 0.41901 0.6984 0.0
C1103 C 0.49672 0.31567 0.95982 0.0
C1104 C 0.50844 0.36979 0.88941 0.0
H1105 H 0.47759 0.40589 0.8153 0.0
C1106 C 0.52753 0.37912 0.87465 0.0
C1107 C 0.49021 0.37962 0.86687 0.0
C1108 C 0.46912 0.37112 0.88271 0.0
C1109 C 0.5289 0.39783 0.83936 0.0
C1110 C 0.51067 0.40795 0.8186 0.0
C1111 C 0.4916 0.39832 0.83128 0.0
C1112 C 0.51113 0.42878 0.78578 0.0
C1113 C 0.55 0.40655 0.82467 0.0
C1114 C 0.52019 0.44593 0.81706 0.0
C1115 C 0.52109 0.46529 0.7861 0.0
C1116 C 0.51307 0.46808 0.7227 0.0
C1117 C 0.50371 0.45102 0.69172 0.0
C1118 C 0.50244 0.43174 0.72332 0.0
H1119 H 0.56186 0.39421 0.82339 0.0
H1120 H 0.55027 0.41486 0.7772 0.0
H1121 H 0.55436 0.4176 0.86385 0.0
H1122 H 0.52657 0.44438 0.86577 0.0
H1123 H 0.52839 0.47802 0.81155 0.0
H1124 H 0.22564 0.47367 0.99853 0.0
H1125 H 0.19417 0.47722 0.93332 0.0
H1126 H 0.2002 0.54349 0.94235 0.0
H1127 H 0.23227 0.53979 1.00523 0.0
H1128 H 0.15901 0.49175 0.96486 0.0
H1129 H 0.18475 0.53954 0.75627 0.0
H1130 H 0.20278 0.52821 0.81283 0.0
H1131 H 0.18986 0.55199 0.83298 0.0
C1132 C 0.22061 0.489 0.98471 0.0
C1133 C 0.2318 0.50643 1.00589 0.0
C1134 C 0.20241 0.49106 0.94784 0.0
C1135 C 0.19455 0.51065 0.93147 0.0
C1136 C 0.20595 0.52813 0.95193 0.0
H1137 H 0.07618 0.55039 0.75803 0.0
H1138 H 0.10996 0.5488 0.81183 0.0
C1139 C 0.2244 0.52604 0.9881 0.0
C1140 C 0.17387 0.51254 0.89732 0.0
H1141 H 0.14835 0.53639 0.77119 0.0
C1142 C 0.1569 0.50126 0.92176 0.0
C1143 C 0.1706 0.52513 0.84131 0.0
C1144 C 0.18801 0.53673 0.80892 0.0
C1145 C 0.13714 0.50222 0.89255 0.0
C1146 C 0.13393 0.51472 0.83654 0.0
C1147 C 0.15069 0.52641 0.81302 0.0
C1148 C 0.11338 0.51574 0.80181 0.0
C1149 C 0.11965 0.4903 0.92347 0.0
C1150 C 0.10395 0.49783 0.77623 0.0
C1151 C 0.08461 0.49875 0.74491 0.0
C1152 C 0.07403 0.51757 0.73833 0.0
C1153 C 0.08372 0.53556 0.76244 0.0
C1154 C 0.10311 0.53467 0.79343 0.0
H1155 H 0.12309 0.48613 0.97505 0.0
H1156 H 0.10515 0.49937 0.92236 0.0
H1157 H 0.11707 0.47579 0.89576 0.0
H1158 H 0.11163 0.48307 0.77991 0.0
H1159 H 0.07806 0.48472 0.72507 0.0
H1160 H 0.02811 0.80774 0.28644 0.0
H1161 H 0.03497 0.83947 0.34968 0.0
H1162 H 0.97088 0.84217 0.40464 0.0
H1163 H 0.96413 0.81062 0.3424 0.0
H1164 H 0.01798 0.87806 0.32684 0.0
H1165 H 0.99809 0.85405 0.57881 0.0
H1166 H 1.00253 0.83565 0.51398 0.0
H1167 H 0.97802 0.84842 0.521 0.0
C1168 C 0.01567 0.81471 0.31397 0.0
C1169 C 0.99563 0.80638 0.31013 0.0
C1170 C 0.01953 0.83304 0.34956 0.0
C1171 C 1.00351 0.84333 0.3829 0.0
C1172 C 0.98368 0.83451 0.38092 0.0
H1173 H 0.98469 0.96099 0.58678 0.0
H1174 H 0.9816 0.92682 0.53566 0.0
C1175 C 0.97982 0.81637 0.34518 0.0
C1176 C 1.00699 0.86397 0.41557 0.0
H1177 H 1.00029 0.89036 0.55967 0.0
C1178 C 0.01434 0.88064 0.37798 0.0
C1179 C 1.00207 0.86766 0.48225 0.0
C1180 C 0.99493 0.85046 0.52657 0.0
C1181 C 0.01631 0.90077 0.40431 0.0
C1182 C 1.01129 0.90449 0.47094 0.0
C1183 C 1.00413 0.88776 0.50868 0.0
C1184 C 0.01324 0.92554 0.50222 0.0
C1185 C 0.02308 0.91801 0.3595 0.0
C1186 C 0.03209 0.93641 0.50186 0.0
C1187 C 0.03379 0.95611 0.53052 0.0
C1188 C 0.01672 0.96555 0.56069 0.0
C1189 C 0.99803 0.95446 0.5627 0.0
C1190 C 0.9963 0.93477 0.53384 0.0
H1191 H 0.02012 0.91418 0.30731 0.0
H1192 H 0.01506 0.93265 0.37136 0.0
H1193 H 0.03991 0.92054 0.36533 0.0
H1194 H 0.04562 0.92961 0.47965 0.0
H1195 H 0.04849 0.96407 0.5284 0.0
H1196 H 0.74449 0.99386 0.35012 0.0
H1197 H 0.71539 0.99624 0.42709 0.0
H1198 H 0.68897 0.04491 0.31065 0.0
H1199 H 0.71803 0.04261 0.23438 0.0
H1200 H 0.68317 0.05143 0.44504 0.0
H1201 H 0.65939 0.97214 0.37306 0.0
H1202 H 0.68496 0.9743 0.40624 0.0
H1203 H 0.67897 0.98639 0.32945 0.0
C1204 C 0.73287 1.00559 0.34249 0.0
C1205 C 0.73375 0.01829 0.28677 0.0
C1206 C 0.71603 1.00672 0.38589 0.0
C1207 C 0.69965 0.02049 0.37423 0.0
C1208 C 0.70128 0.03412 0.32096 0.0
H1209 H 0.57023 1.01334 0.47268 0.0
H1210 H 0.60457 1.01307 0.42406 0.0
C1211 C 0.71802 0.03293 0.27758 0.0
C1212 C 0.68015 0.01983 0.41397 0.0
H1213 H 0.63855 0.98914 0.45029 0.0
C1214 C 0.67352 0.03774 0.4467 0.0
C1215 C 0.66724 1.00211 0.41541 0.0
C1216 C 0.67282 0.98267 0.37879 0.0
C1217 C 0.65448 0.03842 0.48035 0.0
C1218 C 0.64166 0.02065 0.4821 0.0
C1219 C 0.64835 1.00273 0.44966 0.0
C1220 C 0.6207 0.02067 0.51358 0.0
C1221 C 0.64792 0.05844 0.51171 0.0
C1222 C 0.61806 0.02473 0.58078 0.0
C1223 C 0.59825 0.02486 0.60912 0.0
C1224 C 0.58054 0.02092 0.57098 0.0
C1225 C 0.58334 0.01654 0.50395 0.0
C1226 C 0.60308 0.01635 0.47584 0.0
H1227 H 0.65712 0.07175 0.4936 0.0
H1228 H 0.63135 0.06151 0.50221 0.0
H1229 H 0.65014 0.05737 0.56544 0.0
H1230 H 0.63134 0.02771 0.61153 0.0
H1231 H 0.59684 0.02819 0.66087 0.0
H1232 H 0.50714 0.73626 0.27425 0.0
H1233 H 0.50283 0.70602 0.34627 0.0
H1234 H 0.56818 0.69466 0.33684 0.0
H1235 H 0.57244 0.72456 0.26462 0.0
H1236 H 0.51408 0.66427 0.31027 0.0
H1237 H 0.55518 0.68883 0.53526 0.0
H1238 H 0.54597 0.707 0.47498 0.0
H1239 H 0.56935 0.69289 0.46072 0.0
C1240 C 0.52064 0.72765 0.2891 0.0
C1241 C 0.54018 0.73305 0.26426 0.0
C1242 C 0.51816 0.71022 0.32988 0.0
C1243 C 0.5352 0.69798 0.34787 0.0
C1244 C 0.55479 0.70388 0.32495 0.0
H1245 H 0.55809 0.58077 0.54938 0.0
H1246 H 0.5604 0.61432 0.49414 0.0
C1247 C 0.55722 0.72105 0.28355 0.0
C1248 C 0.53247 0.67822 0.38596 0.0
H1249 H 0.54718 0.65308 0.52615 0.0
C1250 C 0.52115 0.66193 0.35779 0.0
C1251 C 0.54183 0.67489 0.44783 0.0
C1252 C 0.55363 0.69186 0.48195 0.0
C1253 C 0.51943 0.64243 0.38844 0.0
C1254 C 0.52883 0.63905 0.4503 0.0
C1255 C 0.53997 0.65544 0.47887 0.0
C1256 C 0.52743 0.6186 0.4855 0.0
C1257 C 0.50818 0.62538 0.35277 0.0
C1258 C 0.5082 0.60968 0.50067 0.0
C1259 C 0.50689 0.59029 0.53134 0.0
C1260 C 0.52477 0.57919 0.54837 0.0
C1261 C 0.54401 0.58844 0.53522 0.0
C1262 C 0.54533 0.60783 0.50421 0.0
H1263 H 0.50714 0.6285 0.29941 0.0
H1264 H 0.51593 0.61028 0.35992 0.0
H1265 H 0.49224 0.62416 0.37208 0.0
H1266 H 0.49408 0.61775 0.48891 0.0
H1267 H 0.49175 0.58394 0.54136 0.0
H1268 H 0.80627 0.5149 0.29082 0.0
H1269 H 0.83629 0.51021 0.36247 0.0
H1270 H 0.84257 0.57626 0.38028 0.0
H1271 H 0.813 0.58085 0.3071 0.0
H1272 H 0.87839 0.5608 0.35118 0.0
H1273 H 0.84758 0.51337 0.55383 0.0
H1274 H 0.84287 0.50182 0.47549 0.0
H1275 H 0.83098 0.52609 0.49572 0.0
C1276 C 0.81356 0.52838 0.31219 0.0
C1277 C 0.80687 0.54825 0.29447 0.0
C1278 C 0.83087 0.52572 0.35315 0.0
C1279 C 0.84186 0.54286 0.37803 0.0
C1280 C 0.83456 0.5627 0.36233 0.0
H1281 H 0.9447 0.53706 0.66344 0.0
H1282 H 0.91107 0.54198 0.61003 0.0
C1283 C 0.81741 0.56535 0.32105 0.0
C1284 C 0.8618 0.54031 0.41551 0.0
H1285 H 0.8843 0.51524 0.54459 0.0
C1286 C 0.87953 0.55094 0.39387 0.0
C1287 C 0.86361 0.52767 0.47195 0.0
C1288 C 0.84521 0.51676 0.50108 0.0
C1289 C 0.89878 0.549 0.42575 0.0
C1290 C 0.90078 0.53567 0.48042 0.0
C1291 C 0.883 0.52537 0.50286 0.0
C1292 C 0.92118 0.5321 0.51407 0.0
C1293 C 0.91678 0.56159 0.40108 0.0
C1294 C 0.93818 0.52445 0.47896 0.0
C1295 C 0.95739 0.52164 0.50943 0.0
C1296 C 0.96035 0.52641 0.57605 0.0
C1297 C 0.94316 0.53339 0.61195 0.0
C1298 C 0.92385 0.5362 0.58134 0.0
H1299 H 0.9116 0.57507 0.37183 0.0
H1300 H 0.92642 0.56727 0.4423 0.0
H1301 H 0.92655 0.55181 0.36911 0.0
H1302 H 0.9366 0.52053 0.42768 0.0
H1303 H 0.96996 0.51555 0.48061 0.0
loop_
_geom_bond_atom_site_label_1
_geom_bond_atom_site_label_2
_geom_bond_distance
_geom_bond_site_symmetry_2
_ccdc_geom_bond_type
H0 C7 0.929 . S
H1 C10 0.930 . S
H2 C12 0.929 . S
H3 C4 0.969 . S
C4 H3 0.969 . S
C4 O5 1.550 . S
C4 H6 0.973 . S
O5 C4 1.550 . S
O5 C11 1.412 . S
H6 C4 0.973 . S
C7 H0 0.929 . S
C7 C8 1.400 . S
C7 C9 1.364 . S
C8 C7 1.400 . S
C8 C12 1.377 . S
C9 C7 1.364 . S
C9 C10 1.374 . S
C10 H1 0.930 . S
C10 C9 1.374 . S
C10 C11 1.383 . S
C11 O5 1.412 . S
C11 C10 1.383 . S
C11 C12 1.394 . S
C12 H2 0.929 . S
C12 C8 1.377 . S
C12 C11 1.394 . S
H13 C20 0.929 . S
H14 C23 0.930 . S
H15 C25 0.929 . S
H16 C17 0.969 . S
C17 H16 0.969 . S
C17 O18 1.550 . S
C17 H19 0.973 . S
O18 C17 1.550 . S
O18 C24 1.412 . S
H19 C17 0.973 . S
C20 H13 0.929 . S
C20 C21 1.400 . S
C20 C22 1.364 . S
C21 C20 1.400 . S
C21 C25 1.377 . S
C22 C20 1.364 . S
C22 C23 1.374 . S
C23 H14 0.930 . S
C23 C22 1.374 . S
C23 C24 1.383 . S
C24 O18 1.412 . S
C24 C23 1.383 . S
C24 C25 1.394 . S
C25 H15 0.929 . S
C25 C21 1.377 . S
C25 C24 1.394 . S
H26 C33 0.929 . S
H27 C36 0.930 . S
H28 C38 0.929 . S
H29 C30 0.969 . S
C30 H29 0.969 . S
C30 O31 1.550 . S
C30 H32 0.973 . S
O31 C30 1.550 . S
O31 C37 1.412 . S
H32 C30 0.973 . S
C33 H26 0.929 . S
C33 C34 1.400 . S
C33 C35 1.364 . S
C34 C33 1.400 . S
C34 C38 1.377 . S
C35 C33 1.364 . S
C35 C36 1.374 . S
C36 H27 0.930 . S
C36 C35 1.374 . S
C36 C37 1.383 . S
C37 O31 1.412 . S
C37 C36 1.383 . S
C37 C38 1.394 . S
C38 H28 0.929 . S
C38 C34 1.377 . S
C38 C37 1.394 . S
H39 C46 0.929 . S
H40 C49 0.930 . S
H41 C51 0.929 . S
H42 C43 0.969 . S
C43 H42 0.969 . S
C43 O44 1.550 . S
C43 H45 0.973 . S
O44 C43 1.550 . S
O44 C50 1.412 . S
H45 C43 0.973 . S
C46 H39 0.929 . S
C46 C47 1.400 . S
C46 C48 1.364 . S
C47 C46 1.400 . S
C47 C51 1.377 . S
C48 C46 1.364 . S
C48 C49 1.374 . S
C49 H40 0.930 . S
C49 C48 1.374 . S
C49 C50 1.383 . S
C50 O44 1.412 . S
C50 C49 1.383 . S
C50 C51 1.394 . S
C51 H41 0.929 . S
C51 C47 1.377 . S
C51 C50 1.394 . S
H52 C59 0.929 . S
H53 C62 0.930 . S
H54 C64 0.929 . S
H55 C56 0.969 . S
C56 H55 0.969 . S
C56 O57 1.550 . S
C56 H58 0.973 . S
O57 C56 1.550 . S
O57 C63 1.412 . S
H58 C56 0.973 . S
C59 H52 0.929 . S
C59 C60 1.400 1_554 S
C59 C61 1.364 . S
C60 C59 1.400 1_556 S
C60 C64 1.377 . S
C61 C59 1.364 . S
C61 C62 1.374 . S
C62 H53 0.930 . S
C62 C61 1.374 . S
C62 C63 1.383 . S
C63 O57 1.412 . S
C63 C62 1.383 . S
C63 C64 1.394 1_554 S
C64 H54 0.929 . S
C64 C60 1.377 . S
C64 C63 1.394 1_556 S
H65 C72 0.929 . S
H66 C75 0.930 . S
H67 C77 0.929 . S
H68 C69 0.969 . S
C69 H68 0.969 . S
C69 O70 1.550 . S
C69 H71 0.973 . S
O70 C69 1.550 . S
O70 C76 1.412 . S
H71 C69 0.973 . S
C72 H65 0.929 . S
C72 C73 1.400 1_554 S
C72 C74 1.364 . S
C73 C72 1.400 1_556 S
C73 C77 1.377 . S
C74 C72 1.364 . S
C74 C75 1.374 . S
C75 H66 0.930 . S
C75 C74 1.374 . S
C75 C76 1.383 . S
C76 O70 1.412 . S
C76 C75 1.383 . S
C76 C77 1.394 1_554 S
C77 H67 0.929 . S
C77 C73 1.377 . S
C77 C76 1.394 1_556 S
H78 C85 0.929 . S
H79 C88 0.930 . S
H80 C90 0.929 . S
H81 C82 0.969 . S
C82 H81 0.969 . S
C82 O83 1.550 . S
C82 H84 0.973 . S
O83 C82 1.550 . S
O83 C89 1.412 . S
H84 C82 0.973 . S
C85 H78 0.929 . S
C85 C86 1.400 1_554 S
C85 C87 1.364 . S
C86 C85 1.400 1_556 S
C86 C90 1.377 . S
C87 C85 1.364 . S
C87 C88 1.374 . S
C88 H79 0.930 . S
C88 C87 1.374 . S
C88 C89 1.383 . S
C89 O83 1.412 . S
C89 C88 1.383 . S
C89 C90 1.394 1_554 S
C90 H80 0.929 . S
C90 C86 1.377 . S
C90 C89 1.394 1_556 S
H91 C98 0.929 . S
H92 C101 0.930 . S
H93 C103 0.929 . S
H94 C95 0.969 . S
C95 H94 0.969 . S
C95 O96 1.550 . S
C95 H97 0.973 . S
O96 C95 1.550 . S
O96 C102 1.412 . S
H97 C95 0.973 . S
C98 H91 0.929 . S
C98 C99 1.400 1_554 S
C98 C100 1.364 . S
C99 C98 1.400 1_556 S
C99 C103 1.377 . S
C100 C98 1.364 . S
C100 C101 1.374 . S
C101 H92 0.930 . S
C101 C100 1.374 . S
C101 C102 1.383 . S
C102 O96 1.412 . S
C102 C101 1.383 . S
C102 C103 1.394 1_554 S
C103 H93 0.929 . S
C103 C99 1.377 . S
C103 C102 1.394 1_556 S
Eu104 N133 2.600 . S
Eu104 N139 2.562 . S
Eu104 O148 2.462 1_655 S
Eu104 O149 2.373 1_545 S
Eu104 O151 2.432 . S
Eu104 O152 2.291 1_655 S
Eu104 O156 2.335 1_655 S
Eu104 O159 2.372 . S
Eu104 C168 2.787 . S
C105 N106 1.365 . S
C105 C108 1.405 . S
C105 C112 1.448 . S
N106 C105 1.365 . S
N106 C109 1.322 . S
N106 Eu115 2.600 1_545 S
C107 C109 1.406 . S
C107 C110 1.367 . S
C107 H127 0.931 . S
C108 C105 1.405 . S
C108 C110 1.403 . S
C108 C114 1.439 . S
C109 N106 1.322 . S
C109 C107 1.406 . S
C109 H120 0.917 1_545 S
C110 C107 1.367 . S
C110 C108 1.403 . S
C110 H131 0.929 . S
C111 C112 1.430 . S
C111 C113 1.387 . S
C111 C117 1.404 . S
C112 C105 1.448 . S
C112 C111 1.430 . S
C112 N116 1.351 . S
C113 C111 1.387 . S
C113 C114 1.374 . S
C113 H128 0.931 . S
C114 C108 1.439 . S
C114 C113 1.374 . S
C114 H129 0.931 . S
Eu115 N106 2.600 1_565 S
Eu115 N116 2.562 1_565 S
Eu115 O150 2.335 . S
Eu115 O153 2.372 . S
Eu115 O154 2.462 . S
Eu115 O155 2.373 1_565 S
Eu115 O157 2.432 . S
Eu115 O158 2.291 1_465 S
Eu115 C179 2.787 . S
N116 C112 1.351 . S
N116 Eu115 2.562 1_545 S
N116 C118 1.325 . S
C117 C111 1.404 . S
C117 C119 1.366 . S
C117 H125 0.930 . S
C118 N116 1.325 . S
C118 C119 1.416 . S
C118 H124 0.929 1_455 S
C119 C117 1.366 . S
C119 C118 1.416 . S
C119 H121 0.930 1_455 S
H120 C109 0.917 1_565 S
H121 C119 0.930 1_655 S
H122 C137 0.930 . S
H123 C144 0.933 . S
H124 C118 0.929 1_655 S
H125 C117 0.930 . S
H126 C140 0.929 . S
H127 C107 0.931 . S
H128 C113 0.931 . S
H129 C114 0.931 . S
H130 C135 0.931 . S
H131 C110 0.929 . S
H132 C143 0.930 . S
N133 Eu104 2.600 . S
N133 C134 1.365 . S
N133 C137 1.319 . S
C134 N133 1.365 . S
C134 C136 1.405 1_545 S
C134 C142 1.448 . S
C135 H130 0.931 . S
C135 C137 1.397 . S
C135 C138 1.388 . S
C136 C134 1.405 1_565 S
C136 C138 1.399 1_565 S
C136 C169 1.439 . S
C137 H122 0.930 . S
C137 N133 1.319 . S
C137 C135 1.397 . S
C138 C135 1.388 . S
C138 C136 1.399 1_545 S
C138 H145 0.916 1_545 S
N139 Eu104 2.562 . S
N139 C140 1.325 1_655 S
N139 C142 1.351 . S
C140 H126 0.929 . S
C140 N139 1.325 1_455 S
C140 C144 1.402 1_545 S
C141 C142 1.430 1_565 S
C141 C143 1.404 . S
C141 C170 1.387 . S
C142 C134 1.448 . S
C142 N139 1.351 . S
C142 C141 1.430 1_545 S
C143 H132 0.930 . S
C143 C141 1.404 . S
C143 C144 1.377 1_655 S
C144 H123 0.933 . S
C144 C140 1.402 1_565 S
C144 C143 1.377 1_455 S
H145 C138 0.916 1_565 S
H146 C169 0.931 . S
H147 C170 0.931 . S
O148 Eu104 2.462 1_455 S
O148 C168 1.252 1_455 S
O149 Eu104 2.373 1_565 S
O149 C160 1.249 . S
O150 Eu115 2.335 . S
O150 C160 1.264 1_455 S
O151 Eu104 2.432 . S
O151 C168 1.268 . S
O152 Eu104 2.291 1_455 S
O152 C167 1.255 . S
O153 Eu115 2.372 . S
O153 C167 1.257 1_565 S
O154 Eu115 2.462 . S
O154 C179 1.252 . S
O155 Eu115 2.373 1_545 S
O155 C171 1.249 . S
O156 Eu104 2.335 1_455 S
O156 C171 1.264 . S
O157 Eu115 2.432 . S
O157 C179 1.268 . S
O158 Eu115 2.291 1_645 S
O158 C178 1.255 . S
O159 Eu104 2.372 . S
O159 C178 1.257 . S
C160 O149 1.249 . S
C160 O150 1.264 1_655 S
C161 C164 1.382 . S
C161 C166 1.390 1_655 S
C161 C168 1.506 . S
C162 C163 1.439 . S
C162 C166 1.388 1_655 S
C163 C162 1.439 . S
C163 C165 1.372 . S
C163 H180 0.931 . S
C164 C161 1.382 . S
C164 C165 1.390 . S
C164 H181 0.931 . S
C165 C163 1.372 . S
C165 C164 1.390 . S
C165 H182 0.929 . S
C166 C161 1.390 1_455 S
C166 C162 1.388 1_455 S
C166 H183 0.930 . S
C167 O152 1.255 . S
C167 O153 1.257 1_545 S
C168 Eu104 2.787 . S
C168 O148 1.252 1_655 S
C168 O151 1.268 . S
C168 C161 1.506 . S
C169 C136 1.439 . S
C169 H146 0.931 . S
C169 C170 1.374 . S
C170 C141 1.387 . S
C170 H147 0.931 . S
C170 C169 1.374 . S
C171 O155 1.249 . S
C171 O156 1.264 . S
C172 C175 1.382 . S
C172 C176 1.390 . S
C172 C179 1.506 . S
C173 C174 1.398 . S
C173 C176 1.392 . S
C174 C173 1.398 . S
C174 C177 1.372 . S
C174 H184 0.931 . S
C175 C172 1.382 . S
C175 C177 1.390 . S
C175 H185 0.931 . S
C176 C172 1.390 . S
C176 C173 1.392 . S
C176 H186 0.930 1_455 S
C177 C174 1.372 . S
C177 C175 1.390 . S
C177 H187 0.929 . S
C178 O158 1.255 . S
C178 O159 1.257 . S
C179 Eu115 2.787 . S
C179 O154 1.252 . S
C179 O157 1.268 . S
C179 C172 1.506 . S
H180 C163 0.931 . S
H181 C164 0.931 . S
H182 C165 0.929 . S
H183 C166 0.930 . S
H184 C174 0.931 . S
H185 C175 0.931 . S
H186 C176 0.930 1_655 S
H187 C177 0.929 . S
Eu188 N217 2.600 . S
Eu188 N223 2.562 . S
Eu188 O232 2.462 . S
Eu188 O233 2.373 . S
Eu188 O235 2.432 . S
Eu188 O236 2.291 . S
Eu188 O240 2.335 1_545 S
Eu188 O243 2.372 . S
Eu188 C252 2.787 . S
C189 N190 1.365 . S
C189 C192 1.405 . S
C189 C196 1.448 . S
N190 C189 1.365 . S
N190 C193 1.319 . S
N190 Eu199 2.600 . S
C191 C193 1.397 . S
C191 C194 1.367 . S
C191 H211 0.931 . S
C192 C189 1.405 . S
C192 C194 1.403 . S
C192 C198 1.439 . S
C193 N190 1.319 . S
C193 C191 1.397 . S
C193 H204 0.930 . S
C194 C191 1.367 . S
C194 C192 1.403 . S
C194 H215 0.929 . S
C195 C196 1.430 . S
C195 C197 1.387 . S
C195 C201 1.404 . S
C196 C189 1.448 . S
C196 C195 1.430 . S
C196 N200 1.351 . S
C197 C195 1.387 . S
C197 C198 1.374 . S
C197 H212 0.931 . S
C198 C192 1.439 . S
C198 C197 1.374 . S
C198 H213 0.931 . S
Eu199 N190 2.600 . S
Eu199 N200 2.562 . S
Eu199 O234 2.335 1_565 S
Eu199 O237 2.372 . S
Eu199 O238 2.467 . S
Eu199 O239 2.373 . S
Eu199 O241 2.432 . S
Eu199 O242 2.291 1_565 S
Eu199 C263 2.787 . S
N200 C196 1.351 . S
N200 Eu199 2.562 . S
N200 C202 1.325 . S
C201 C195 1.404 . S
C201 C203 1.366 . S
C201 H209 0.930 . S
C202 N200 1.325 . S
C202 C203 1.416 . S
C202 H208 0.929 . S
C203 C201 1.366 . S
C203 C202 1.416 . S
C203 H205 0.930 . S
H204 C193 0.930 . S
H205 C203 0.930 . S
H206 C221 0.930 . S
H207 C228 0.930 . S
H208 C202 0.929 . S
H209 C201 0.930 . S
H210 C224 0.929 . S
H211 C191 0.931 . S
H212 C197 0.931 . S
H213 C198 0.931 . S
H214 C219 0.931 . S
H215 C194 0.929 . S
H216 C227 0.930 . S
N217 Eu188 2.600 . S
N217 C218 1.365 . S
N217 C221 1.319 . S
C218 N217 1.365 . S
C218 C220 1.405 . S
C218 C226 1.448 . S
C219 H214 0.931 . S
C219 C221 1.397 . S
C219 C222 1.367 . S
C220 C218 1.405 . S
C220 C222 1.403 . S
C220 C253 1.439 . S
C221 H206 0.930 . S
C221 N217 1.319 . S
C221 C219 1.397 . S
C222 C219 1.367 . S
C222 C220 1.403 . S
C222 H229 0.929 . S
N223 Eu188 2.562 . S
N223 C224 1.325 . S
N223 C226 1.351 . S
C224 H210 0.929 . S
C224 N223 1.325 . S
C224 C228 1.416 . S
C225 C226 1.430 . S
C225 C227 1.404 . S
C225 C254 1.387 . S
C226 C218 1.448 . S
C226 N223 1.351 . S
C226 C225 1.430 . S
C227 H216 0.930 . S
C227 C225 1.404 . S
C227 C228 1.366 . S
C228 H207 0.930 . S
C228 C224 1.416 . S
C228 C227 1.366 . S
H229 C222 0.929 . S
H230 C253 0.931 . S
H231 C254 0.931 . S
O232 Eu188 2.462 . S
O232 C252 1.252 . S
O233 Eu188 2.373 . S
O233 C244 1.249 . S
O234 Eu199 2.335 1_545 S
O234 C244 1.264 . S
O235 Eu188 2.432 . S
O235 C252 1.268 . S
O236 Eu188 2.291 . S
O236 C251 1.255 . S
O237 Eu199 2.372 . S
O237 C251 1.257 1_565 S
O238 Eu199 2.467 . S
O238 C263 1.255 . S
O239 Eu199 2.373 . S
O239 C255 1.249 . S
O240 Eu188 2.335 1_565 S
O240 C255 1.264 . S
O241 Eu199 2.432 . S
O241 C263 1.268 . S
O242 Eu199 2.291 1_545 S
O242 C262 1.255 . S
O243 Eu188 2.372 . S
O243 C262 1.257 . S
C244 O233 1.249 . S
C244 O234 1.264 . S
C245 C248 1.382 . S
C245 C250 1.390 . S
C245 C252 1.506 . S
C246 C247 1.398 . S
C246 C250 1.392 . S
C247 C246 1.398 . S
C247 C249 1.372 . S
C247 H264 0.931 . S
C248 C245 1.382 . S
C248 C249 1.390 . S
C248 H265 0.931 . S
C249 C247 1.372 . S
C249 C248 1.390 . S
C249 H266 0.929 1_556 S
C250 C245 1.390 . S
C250 C246 1.392 . S
C250 H267 0.930 . S
C251 O236 1.255 . S
C251 O237 1.257 1_545 S
C252 Eu188 2.787 . S
C252 O232 1.252 . S
C252 O235 1.268 . S
C252 C245 1.506 . S
C253 C220 1.439 . S
C253 H230 0.931 . S
C253 C254 1.374 . S
C254 C225 1.387 . S
C254 H231 0.931 . S
C254 C253 1.374 . S
C255 O239 1.249 . S
C255 O240 1.264 . S
C256 C259 1.388 . S
C256 C260 1.381 1_565 S
C256 C263 1.510 . S
C257 C258 1.398 . S
C257 C260 1.392 . S
C258 C257 1.398 . S
C258 C261 1.372 1_545 S
C258 H268 0.931 . S
C259 C256 1.388 . S
C259 C261 1.390 . S
C259 H269 0.931 . S
C260 C256 1.381 1_545 S
C260 C257 1.392 . S
C260 H270 0.930 . S
C261 C258 1.372 1_565 S
C261 C259 1.390 . S
C261 H271 0.929 . S
C262 O242 1.255 . S
C262 O243 1.257 . S
C263 Eu199 2.787 . S
C263 O238 1.255 . S
C263 O241 1.268 . S
C263 C256 1.510 . S
H264 C247 0.931 . S
H265 C248 0.931 . S
H266 C249 0.929 1_554 S
H267 C250 0.930 . S
H268 C258 0.931 . S
H269 C259 0.931 . S
H270 C260 0.930 . S
H271 C261 0.929 . S
Eu272 N301 2.600 . S
Eu272 N307 2.562 . S
Eu272 O316 2.462 . S
Eu272 O317 2.373 . S
Eu272 O319 2.432 . S
Eu272 O320 2.291 . S
Eu272 O324 2.335 . S
Eu272 O327 2.372 . S
Eu272 C336 2.787 . S
C273 N274 1.365 . S
C273 C276 1.405 . S
C273 C280 1.448 . S
N274 C273 1.365 . S
N274 C277 1.319 . S
N274 Eu283 2.600 . S
C275 C277 1.397 . S
C275 C278 1.367 . S
C275 H295 0.931 . S
C276 C273 1.405 . S
C276 C278 1.403 . S
C276 C282 1.439 . S
C277 N274 1.319 . S
C277 C275 1.397 . S
C277 H288 0.930 . S
C278 C275 1.367 . S
C278 C276 1.403 . S
C278 H299 0.929 . S
C279 C280 1.430 . S
C279 C281 1.387 . S
C279 C285 1.404 . S
C280 C273 1.448 . S
C280 C279 1.430 . S
C280 N284 1.351 . S
C281 C279 1.387 . S
C281 C282 1.374 . S
C281 H296 0.931 . S
C282 C276 1.439 . S
C282 C281 1.374 . S
C282 H297 0.931 . S
Eu283 N274 2.600 . S
Eu283 N284 2.562 . S
Eu283 O318 2.335 . S
Eu283 O321 2.372 . S
Eu283 O322 2.462 . S
Eu283 O323 2.373 . S
Eu283 O325 2.432 . S
Eu283 O326 2.291 . S
Eu283 C347 2.787 . S
N284 C280 1.351 . S
N284 Eu283 2.562 . S
N284 C286 1.325 . S
C285 C279 1.404 . S
C285 C287 1.366 . S
C285 H293 0.930 . S
C286 N284 1.325 . S
C286 C287 1.416 . S
C286 H292 0.929 . S
C287 C285 1.366 . S
C287 C286 1.416 . S
C287 H289 0.930 . S
H288 C277 0.930 . S
H289 C287 0.930 . S
H290 C305 0.930 . S
H291 C312 0.930 . S
H292 C286 0.929 . S
H293 C285 0.930 . S
H294 C308 0.929 . S
H295 C275 0.931 . S
H296 C281 0.931 . S
H297 C282 0.931 . S
H298 C303 0.931 . S
H299 C278 0.929 . S
H300 C311 0.930 . S
N301 Eu272 2.600 . S
N301 C302 1.365 . S
N301 C305 1.319 . S
C302 N301 1.365 . S
C302 C304 1.405 . S
C302 C310 1.448 . S
C303 H298 0.931 . S
C303 C305 1.397 . S
C303 C306 1.367 . S
C304 C302 1.405 . S
C304 C306 1.403 . S
C304 C337 1.439 . S
C305 H290 0.930 . S
C305 N301 1.319 . S
C305 C303 1.397 . S
C306 C303 1.367 . S
C306 C304 1.403 . S
C306 H313 0.929 . S
N307 Eu272 2.562 . S
N307 C308 1.325 . S
N307 C310 1.351 . S
C308 H294 0.929 . S
C308 N307 1.325 . S
C308 C312 1.416 . S
C309 C310 1.430 . S
C309 C311 1.404 . S
C309 C338 1.387 . S
C310 C302 1.448 . S
C310 N307 1.351 . S
C310 C309 1.430 . S
C311 H300 0.930 . S
C311 C309 1.404 . S
C311 C312 1.366 . S
C312 H291 0.930 . S
C312 C308 1.416 . S
C312 C311 1.366 . S
H313 C306 0.929 . S
H314 C337 0.931 . S
H315 C338 0.931 . S
O316 Eu272 2.462 . S
O316 C336 1.252 . S
O317 Eu272 2.373 . S
O317 C328 1.249 . S
O318 Eu283 2.335 . S
O318 C328 1.264 . S
O319 Eu272 2.432 . S
O319 C336 1.268 . S
O320 Eu272 2.291 . S
O320 C335 1.255 . S
O321 Eu283 2.372 . S
O321 C335 1.257 . S
O322 Eu283 2.462 . S
O322 C347 1.252 . S
O323 Eu283 2.373 . S
O323 C339 1.249 . S
O324 Eu272 2.335 . S
O324 C339 1.264 . S
O325 Eu283 2.432 . S
O325 C347 1.268 . S
O326 Eu283 2.291 . S
O326 C346 1.255 . S
O327 Eu272 2.372 . S
O327 C346 1.257 . S
C328 O317 1.249 . S
C328 O318 1.264 . S
C329 C332 1.382 . S
C329 C334 1.390 . S
C329 C336 1.506 . S
C330 C331 1.398 . S
C330 C334 1.392 . S
C331 C330 1.398 . S
C331 C333 1.372 . S
C331 H348 0.931 . S
C332 C329 1.382 . S
C332 C333 1.390 . S
C332 H349 0.931 . S
C333 C331 1.372 . S
C333 C332 1.390 . S
C333 H350 0.929 . S
C334 C329 1.390 . S
C334 C330 1.392 . S
C334 H351 0.930 . S
C335 O320 1.255 . S
C335 O321 1.257 . S
C336 Eu272 2.787 . S
C336 O316 1.252 . S
C336 O319 1.268 . S
C336 C329 1.506 . S
C337 C304 1.439 . S
C337 H314 0.931 . S
C337 C338 1.374 . S
C338 C309 1.387 . S
C338 H315 0.931 . S
C338 C337 1.374 . S
C339 O323 1.249 . S
C339 O324 1.264 . S
C340 C343 1.382 . S
C340 C344 1.390 . S
C340 C347 1.506 . S
C341 C342 1.398 . S
C341 C344 1.392 . S
C342 C341 1.398 . S
C342 C345 1.372 . S
C342 H352 0.931 . S
C343 C340 1.382 . S
C343 C345 1.390 . S
C343 H353 0.931 . S
C344 C340 1.390 . S
C344 C341 1.392 . S
C344 H354 0.930 . S
C345 C342 1.372 . S
C345 C343 1.390 . S
C345 H355 0.929 . S
C346 O326 1.255 . S
C346 O327 1.257 . S
C347 Eu283 2.787 . S
C347 O322 1.252 . S
C347 O325 1.268 . S
C347 C340 1.506 . S
H348 C331 0.931 . S
H349 C332 0.931 . S
H350 C333 0.929 . S
H351 C334 0.930 . S
H352 C342 0.931 . S
H353 C343 0.931 . S
H354 C344 0.930 . S
H355 C345 0.929 . S
Eu356 N385 2.600 . S
Eu356 N391 2.562 . S
Eu356 O400 2.462 . S
Eu356 O401 2.373 1_455 S
Eu356 O403 2.432 . S
Eu356 O404 2.291 . S
Eu356 O408 2.335 . S
Eu356 O411 2.372 . S
Eu356 C420 2.787 . S
C357 N358 1.358 1_455 S
C357 C360 1.405 . S
C357 C364 1.448 . S
N358 C357 1.358 1_655 S
N358 C361 1.321 . S
N358 Eu367 2.604 . S
C359 C361 1.397 1_455 S
C359 C362 1.367 . S
C359 H379 0.931 . S
C360 C357 1.405 . S
C360 C362 1.403 . S
C360 C366 1.439 . S
C361 N358 1.321 . S
C361 C359 1.397 1_655 S
C361 H372 0.930 . S
C362 C359 1.367 . S
C362 C360 1.403 . S
C362 H383 0.929 . S
C363 C364 1.430 . S
C363 C365 1.387 . S
C363 C369 1.404 . S
C364 C357 1.448 . S
C364 C363 1.430 . S
C364 N368 1.351 . S
C365 C363 1.387 . S
C365 C366 1.374 . S
C365 H380 0.931 . S
C366 C360 1.439 . S
C366 C365 1.374 . S
C366 H381 0.931 . S
Eu367 N358 2.604 . S
Eu367 N368 2.562 1_655 S
Eu367 O402 2.335 . S
Eu367 O405 2.372 . S
Eu367 O406 2.462 . S
Eu367 O407 2.373 1_655 S
Eu367 O409 2.432 . S
Eu367 O410 2.291 1_655 S
Eu367 C431 2.787 . S
N368 C364 1.351 . S
N368 Eu367 2.562 1_455 S
N368 C370 1.325 . S
C369 C363 1.404 . S
C369 C371 1.366 . S
C369 H377 0.930 . S
C370 N368 1.325 . S
C370 C371 1.416 . S
C370 H376 0.947 . S
C371 C369 1.366 . S
C371 C370 1.416 . S
C371 H373 0.930 . S
H372 C361 0.930 . S
H373 C371 0.930 . S
H374 C389 0.930 . S
H375 C396 0.930 . S
H376 C370 0.947 . S
H377 C369 0.930 . S
H378 C392 0.929 . S
H379 C359 0.931 . S
H380 C365 0.931 . S
H381 C366 0.931 . S
H382 C387 0.931 . S
H383 C362 0.929 . S
H384 C395 0.930 . S
N385 Eu356 2.600 . S
N385 C386 1.365 . S
N385 C389 1.319 . S
C386 N385 1.365 . S
C386 C388 1.405 1_455 S
C386 C394 1.448 . S
C387 H382 0.931 . S
C387 C389 1.397 . S
C387 C390 1.355 1_455 S
C388 C386 1.405 1_655 S
C388 C390 1.407 . S
C388 C421 1.439 . S
C389 H374 0.930 . S
C389 N385 1.319 . S
C389 C387 1.397 . S
C390 C387 1.355 1_655 S
C390 C388 1.407 . S
C390 H397 0.939 . S
N391 Eu356 2.562 . S
N391 C392 1.325 . S
N391 C394 1.351 . S
C392 H378 0.929 . S
C392 N391 1.325 . S
C392 C396 1.416 1_455 S
C393 C394 1.430 1_655 S
C393 C395 1.404 . S
C393 C422 1.387 . S
C394 C386 1.448 . S
C394 N391 1.351 . S
C394 C393 1.430 1_455 S
C395 H384 0.930 . S
C395 C393 1.404 . S
C395 C396 1.366 . S
C396 H375 0.930 . S
C396 C392 1.416 1_655 S
C396 C395 1.366 . S
H397 C390 0.939 . S
H398 C421 0.931 . S
H399 C422 0.931 . S
O400 Eu356 2.462 . S
O400 C420 1.252 . S
O401 Eu356 2.373 1_655 S
O401 C412 1.249 . S
O402 Eu367 2.335 . S
O402 C412 1.264 . S
O403 Eu356 2.432 . S
O403 C420 1.268 . S
O404 Eu356 2.291 . S
O404 C419 1.255 . S
O405 Eu367 2.372 . S
O405 C419 1.257 1_655 S
O406 Eu367 2.462 . S
O406 C431 1.252 . S
O407 Eu367 2.373 1_455 S
O407 C423 1.249 . S
O408 Eu356 2.335 . S
O408 C423 1.264 . S
O409 Eu367 2.432 . S
O409 C431 1.268 . S
O410 Eu367 2.291 1_455 S
O410 C430 1.255 . S
O411 Eu356 2.372 . S
O411 C430 1.257 . S
C412 O401 1.249 . S
C412 O402 1.264 . S
C413 C416 1.382 . S
C413 C418 1.390 . S
C413 C420 1.506 . S
C414 C415 1.398 . S
C414 C418 1.392 . S
C415 C414 1.398 . S
C415 C417 1.372 . S
C415 H432 0.931 . S
C416 C413 1.382 . S
C416 C417 1.390 . S
C416 H433 0.931 . S
C417 C415 1.372 . S
C417 C416 1.390 . S
C417 H434 0.929 . S
C418 C413 1.390 . S
C418 C414 1.392 . S
C418 H435 0.930 . S
C419 O404 1.255 . S
C419 O405 1.257 1_455 S
C420 Eu356 2.787 . S
C420 O400 1.252 . S
C420 O403 1.268 . S
C420 C413 1.506 . S
C421 C388 1.439 . S
C421 H398 0.931 . S
C421 C422 1.374 . S
C422 C393 1.387 . S
C422 H399 0.931 . S
C422 C421 1.374 . S
C423 O407 1.249 . S
C423 O408 1.264 . S
C424 C427 1.382 . S
C424 C428 1.390 . S
C424 C431 1.506 . S
C425 C426 1.398 . S
C425 C428 1.392 . S
C426 C425 1.398 . S
C426 C429 1.372 . S
C426 H436 0.931 . S
C427 C424 1.382 . S
C427 C429 1.390 . S
C427 H437 0.931 . S
C428 C424 1.390 . S
C428 C425 1.392 . S
C428 H438 0.930 . S
C429 C426 1.372 . S
C429 C427 1.390 . S
C429 H439 0.929 . S
C430 O410 1.255 . S
C430 O411 1.257 . S
C431 Eu367 2.787 . S
C431 O406 1.252 . S
C431 O409 1.268 . S
C431 C424 1.506 . S
H432 C415 0.931 . S
H433 C416 0.931 . S
H434 C417 0.929 . S
H435 C418 0.930 . S
H436 C426 0.931 . S
H437 C427 0.931 . S
H438 C428 0.930 . S
H439 C429 0.929 . S
H440 C448 0.929 . S
H441 C450 0.930 . S
H442 C452 0.930 . S
H443 C455 0.929 . S
H444 C458 0.930 . S
H445 C460 0.960 . S
H446 C460 0.960 . S
H447 C460 0.960 . S
C448 H440 0.929 . S
C448 C449 1.377 . S
C448 C450 1.384 . S
C449 C448 1.377 . S
C449 C455 1.390 . S
C450 H441 0.930 . S
C450 C448 1.384 . S
C450 C451 1.372 . S
C451 C450 1.372 . S
C451 C452 1.400 . S
C451 C456 1.490 . S
C452 H442 0.930 . S
C452 C451 1.400 . S
C452 C455 1.386 . S
H453 C469 0.930 . S
H454 C470 0.931 . S
C455 H443 0.929 . S
C455 C449 1.390 . S
C455 C452 1.386 . S
C456 C451 1.490 . S
C456 C458 1.395 . S
C456 C459 1.403 . S
H457 C463 0.930 . S
C458 H444 0.930 . S
C458 C456 1.395 . S
C458 C461 1.403 . S
C459 C456 1.403 . S
C459 C460 1.524 . S
C459 C463 1.400 . S
C460 H445 0.960 . S
C460 H446 0.960 . S
C460 H447 0.960 . S
C460 C459 1.524 . S
C461 C458 1.403 . S
C461 C462 1.392 . S
C461 C465 1.495 . S
C462 C461 1.392 . S
C462 C463 1.385 . S
C462 C464 1.478 . S
C463 H457 0.930 . S
C463 C459 1.400 . S
C463 C462 1.385 . S
C464 C462 1.478 . S
C464 C466 1.381 . S
C464 C470 1.383 . S
C465 C461 1.495 . S
C465 H471 0.959 . S
C465 H472 0.961 . S
C465 H473 0.960 1_545 S
C466 C464 1.381 . S
C466 C467 1.393 1_545 S
C466 H474 0.930 1_545 S
C467 C466 1.393 1_565 S
C467 C468 1.375 1_565 S
C467 H475 0.938 . S
C468 C467 1.375 1_545 S
C468 C469 1.377 . S
C469 H453 0.930 . S
C469 C468 1.377 . S
C469 C470 1.379 . S
C470 H454 0.931 . S
C470 C464 1.383 . S
C470 C469 1.379 . S
H471 C465 0.959 . S
H472 C465 0.961 . S
H473 C465 0.960 1_565 S
H474 C466 0.930 1_565 S
H475 C467 0.938 . S
H476 C484 0.929 . S
H477 C486 0.930 . S
H478 C488 0.930 . S
H479 C491 0.929 . S
H480 C494 0.930 . S
H481 C496 0.960 . S
H482 C496 0.960 . S
H483 C496 0.960 . S
C484 H476 0.929 . S
C484 C485 1.377 . S
C484 C486 1.384 . S
C485 C484 1.377 . S
C485 C491 1.390 . S
C486 H477 0.930 . S
C486 C484 1.384 . S
C486 C487 1.372 . S
C487 C486 1.372 . S
C487 C488 1.400 . S
C487 C492 1.490 . S
C488 H478 0.930 . S
C488 C487 1.400 . S
C488 C491 1.386 . S
H489 C505 0.930 . S
H490 C506 0.931 . S
C491 H479 0.929 . S
C491 C485 1.390 . S
C491 C488 1.386 . S
C492 C487 1.490 . S
C492 C494 1.395 . S
C492 C495 1.403 . S
H493 C499 0.930 . S
C494 H480 0.930 . S
C494 C492 1.395 . S
C494 C497 1.403 . S
C495 C492 1.403 . S
C495 C496 1.524 . S
C495 C499 1.400 . S
C496 H481 0.960 . S
C496 H482 0.960 . S
C496 H483 0.960 . S
C496 C495 1.524 . S
C497 C494 1.403 . S
C497 C498 1.392 . S
C497 C501 1.495 . S
C498 C497 1.392 . S
C498 C499 1.385 . S
C498 C500 1.478 . S
C499 H493 0.930 . S
C499 C495 1.400 . S
C499 C498 1.385 . S
C500 C498 1.478 . S
C500 C502 1.381 . S
C500 C506 1.383 . S
C501 C497 1.495 . S
C501 H507 0.959 . S
C501 H508 0.961 . S
C501 H509 0.960 . S
C502 C500 1.381 . S
C502 C503 1.394 . S
C502 H510 0.930 . S
C503 C502 1.394 . S
C503 C504 1.383 . S
C503 H511 0.929 . S
C504 C503 1.383 . S
C504 C505 1.377 . S
C505 H489 0.930 . S
C505 C504 1.377 . S
C505 C506 1.379 . S
C506 H490 0.931 . S
C506 C500 1.383 . S
C506 C505 1.379 . S
H507 C501 0.959 . S
H508 C501 0.961 . S
H509 C501 0.960 . S
H510 C502 0.930 . S
H511 C503 0.929 . S
H512 C520 0.929 . S
H513 C522 0.930 . S
H514 C524 0.930 . S
H515 C527 0.929 . S
H516 C530 0.930 . S
H517 C532 0.960 . S
H518 C532 0.960 . S
H519 C532 0.960 . S
C520 H512 0.929 . S
C520 C521 1.377 . S
C520 C522 1.384 . S
C521 C520 1.377 . S
C521 C527 1.390 . S
C522 H513 0.930 . S
C522 C520 1.384 . S
C522 C523 1.372 . S
C523 C522 1.372 . S
C523 C524 1.400 . S
C523 C528 1.490 . S
C524 H514 0.930 . S
C524 C523 1.400 . S
C524 C527 1.386 . S
H525 C541 0.930 . S
H526 C542 0.931 . S
C527 H515 0.929 . S
C527 C521 1.390 . S
C527 C524 1.386 . S
C528 C523 1.490 . S
C528 C530 1.395 . S
C528 C531 1.403 . S
H529 C535 0.930 . S
C530 H516 0.930 . S
C530 C528 1.395 . S
C530 C533 1.403 . S
C531 C528 1.403 . S
C531 C532 1.524 . S
C531 C535 1.400 . S
C532 H517 0.960 . S
C532 H518 0.960 . S
C532 H519 0.960 . S
C532 C531 1.524 . S
C533 C530 1.403 . S
C533 C534 1.392 . S
C533 C537 1.495 . S
C534 C533 1.392 . S
C534 C535 1.385 . S
C534 C536 1.478 . S
C535 H529 0.930 . S
C535 C531 1.400 . S
C535 C534 1.385 . S
C536 C534 1.478 . S
C536 C538 1.381 . S
C536 C542 1.383 . S
C537 C533 1.495 . S
C537 H543 0.959 . S
C537 H544 0.961 . S
C537 H545 0.960 . S
C538 C536 1.381 . S
C538 C539 1.394 . S
C538 H546 0.930 . S
C539 C538 1.394 . S
C539 C540 1.383 . S
C539 H547 0.929 . S
C540 C539 1.383 . S
C540 C541 1.377 . S
C541 H525 0.930 . S
C541 C540 1.377 . S
C541 C542 1.379 . S
C542 H526 0.931 . S
C542 C536 1.383 . S
C542 C541 1.379 . S
H543 C537 0.959 . S
H544 C537 0.961 . S
H545 C537 0.960 . S
H546 C538 0.930 . S
H547 C539 0.929 . S
H548 C556 0.929 . S
H549 C558 0.930 . S
H550 C560 0.930 . S
H551 C563 0.929 . S
H552 C566 0.938 . S
H553 C568 0.960 . S
H554 C568 0.960 . S
H555 C568 0.960 . S
C556 H548 0.929 . S
C556 C557 1.377 . S
C556 C558 1.384 . S
C557 C556 1.377 . S
C557 C563 1.390 . S
C558 H549 0.930 . S
C558 C556 1.384 . S
C558 C559 1.372 . S
C559 C558 1.372 . S
C559 C560 1.400 . S
C559 C564 1.490 . S
C560 H550 0.930 . S
C560 C559 1.400 . S
C560 C563 1.386 . S
H561 C577 0.930 . S
H562 C578 0.931 . S
C563 H551 0.929 . S
C563 C557 1.390 . S
C563 C560 1.386 . S
C564 C559 1.490 . S
C564 C566 1.395 . S
C564 C567 1.403 . S
H565 C571 0.930 . S
C566 H552 0.938 . S
C566 C564 1.395 . S
C566 C569 1.403 . S
C567 C564 1.403 . S
C567 C568 1.524 . S
C567 C571 1.400 . S
C568 H553 0.960 . S
C568 H554 0.960 . S
C568 H555 0.960 . S
C568 C567 1.524 . S
C569 C566 1.403 . S
C569 C570 1.392 . S
C569 C573 1.495 1_455 S
C570 C569 1.392 . S
C570 C571 1.385 . S
C570 C572 1.478 . S
C571 H565 0.930 . S
C571 C567 1.400 . S
C571 C570 1.385 . S
C572 C570 1.478 . S
C572 C574 1.424 . S
C572 C578 1.383 . S
C573 C569 1.495 1_655 S
C573 H579 0.959 . S
C573 H580 0.961 . S
C573 H581 0.960 . S
C574 C572 1.424 . S
C574 C575 1.390 1_455 S
C574 H582 0.893 1_455 S
C575 C574 1.390 1_655 S
C575 C576 1.361 1_655 S
C575 H583 0.955 . S
C576 C575 1.361 1_455 S
C576 C577 1.377 . S
C577 H561 0.930 . S
C577 C576 1.377 . S
C577 C578 1.379 . S
C578 H562 0.931 . S
C578 C572 1.383 . S
C578 C577 1.379 . S
H579 C573 0.959 . S
H580 C573 0.961 . S
H581 C573 0.960 . S
H582 C574 0.893 1_655 S
H583 C575 0.955 . S
H584 C592 0.929 . S
H585 C594 0.930 1_556 S
H586 C596 0.930 . S
H587 C599 0.929 . S
H588 C602 0.943 . S
H589 C604 0.960 . S
H590 C604 0.960 . S
H591 C604 0.960 . S
C592 H584 0.929 . S
C592 C593 1.377 . S
C592 C594 1.384 . S
C593 C592 1.377 . S
C593 C599 1.390 . S
C594 H585 0.930 1_554 S
C594 C592 1.384 . S
C594 C595 1.372 . S
C595 C594 1.372 . S
C595 C596 1.400 . S
C595 C600 1.490 1_554 S
C596 H586 0.930 . S
C596 C595 1.400 . S
C596 C599 1.386 . S
H597 C613 0.930 . S
H598 C614 0.931 . S
C599 H587 0.929 . S
C599 C593 1.390 . S
C599 C596 1.386 . S
C600 C595 1.490 1_556 S
C600 C602 1.395 . S
C600 C603 1.403 1_556 S
H601 C607 0.930 . S
C602 H588 0.943 . S
C602 C600 1.395 . S
C602 C605 1.414 . S
C603 C600 1.403 1_554 S
C603 C604 1.524 . S
C603 C607 1.400 1_554 S
C604 H589 0.960 . S
C604 H590 0.960 . S
C604 H591 0.960 . S
C604 C603 1.524 . S
C605 C602 1.414 . S
C605 C606 1.408 . S
C605 C609 1.471 1_565 S
C606 C605 1.408 . S
C606 C607 1.385 . S
C606 C608 1.478 . S
C607 H601 0.930 . S
C607 C603 1.400 1_556 S
C607 C606 1.385 . S
C608 C606 1.478 . S
C608 C610 1.381 . S
C608 C614 1.383 1_565 S
C609 C605 1.471 1_545 S
C609 H615 0.959 . S
C609 H616 0.961 . S
C609 H617 0.960 . S
C610 C608 1.381 . S
C610 C611 1.394 . S
C610 H618 0.930 . S
C611 C610 1.394 . S
C611 C612 1.383 1_565 S
C611 H619 0.929 . S
C612 C611 1.383 1_545 S
C612 C613 1.377 . S
C613 H597 0.930 . S
C613 C612 1.377 . S
C613 C614 1.379 . S
C614 H598 0.931 . S
C614 C608 1.383 1_545 S
C614 C613 1.379 . S
H615 C609 0.959 . S
H616 C609 0.961 . S
H617 C609 0.960 . S
H618 C610 0.930 . S
H619 C611 0.929 . S
H620 C628 0.929 . S
H621 C630 0.930 . S
H622 C632 0.930 . S
H623 C635 0.929 . S
H624 C638 0.930 . S
H625 C640 0.959 1_556 S
H626 C640 0.960 . S
H627 C640 0.960 . S
C628 H620 0.929 . S
C628 C629 1.377 . S
C628 C630 1.384 . S
C629 C628 1.377 . S
C629 C635 1.390 . S
C630 H621 0.930 . S
C630 C628 1.384 . S
C630 C631 1.372 . S
C631 C630 1.372 . S
C631 C632 1.400 . S
C631 C636 1.490 . S
C632 H622 0.930 . S
C632 C631 1.400 . S
C632 C635 1.386 . S
H633 C649 0.930 . S
H634 C650 0.931 . S
C635 H623 0.929 . S
C635 C629 1.390 . S
C635 C632 1.386 . S
C636 C631 1.490 . S
C636 C638 1.395 1_554 S
C636 C639 1.403 1_554 S
H637 C643 0.930 . S
C638 H624 0.930 . S
C638 C636 1.395 1_556 S
C638 C641 1.403 . S
C639 C636 1.403 1_556 S
C639 C640 1.524 1_556 S
C639 C643 1.400 . S
C640 H625 0.959 1_554 S
C640 H626 0.960 . S
C640 H627 0.960 . S
C640 C639 1.524 1_554 S
C641 C638 1.403 . S
C641 C642 1.392 . S
C641 C645 1.495 . S
C642 C641 1.392 . S
C642 C643 1.385 . S
C642 C644 1.478 . S
C643 H637 0.930 . S
C643 C639 1.400 . S
C643 C642 1.385 . S
C644 C642 1.478 . S
C644 C646 1.381 . S
C644 C650 1.383 . S
C645 C641 1.495 . S
C645 H651 0.959 . S
C645 H652 0.961 . S
C645 H653 0.960 . S
C646 C644 1.381 . S
C646 C647 1.394 . S
C646 H654 0.930 . S
C647 C646 1.394 . S
C647 C648 1.383 . S
C647 H655 0.929 . S
C648 C647 1.383 . S
C648 C649 1.377 . S
C649 H633 0.930 . S
C649 C648 1.377 . S
C649 C650 1.379 . S
C650 H634 0.931 . S
C650 C644 1.383 . S
C650 C649 1.379 . S
H651 C645 0.959 . S
H652 C645 0.961 . S
H653 C645 0.960 . S
H654 C646 0.930 . S
H655 C647 0.929 . S
H656 C664 0.929 . S
H657 C666 0.930 . S
H658 C668 0.930 . S
H659 C671 0.929 . S
H660 C674 0.930 . S
H661 C676 0.960 . S
H662 C676 0.960 . S
H663 C676 0.960 . S
C664 H656 0.929 . S
C664 C665 1.377 . S
C664 C666 1.384 . S
C665 C664 1.377 . S
C665 C671 1.390 . S
C666 H657 0.930 . S
C666 C664 1.384 . S
C666 C667 1.372 . S
C667 C666 1.372 . S
C667 C668 1.400 . S
C667 C672 1.490 . S
C668 H658 0.930 . S
C668 C667 1.400 . S
C668 C671 1.386 . S
H669 C685 0.930 . S
H670 C686 0.931 . S
C671 H659 0.929 . S
C671 C665 1.390 . S
C671 C668 1.386 . S
C672 C667 1.490 . S
C672 C674 1.395 . S
C672 C675 1.403 1_554 S
H673 C679 0.930 . S
C674 H660 0.930 . S
C674 C672 1.395 . S
C674 C677 1.403 1_554 S
C675 C672 1.403 1_556 S
C675 C676 1.524 . S
C675 C679 1.400 . S
C676 H661 0.960 . S
C676 H662 0.960 . S
C676 H663 0.960 . S
C676 C675 1.524 . S
C677 C674 1.403 1_556 S
C677 C678 1.392 . S
C677 C681 1.495 1_556 S
C678 C677 1.392 . S
C678 C679 1.385 . S
C678 C680 1.478 . S
C679 H673 0.930 . S
C679 C675 1.400 . S
C679 C678 1.385 . S
C680 C678 1.478 . S
C680 C682 1.381 . S
C680 C686 1.383 . S
C681 C677 1.495 1_554 S
C681 H687 0.959 . S
C681 H688 0.961 1_554 S
C681 H689 0.960 1_554 S
C682 C680 1.381 . S
C682 C683 1.394 . S
C682 H690 0.930 . S
C683 C682 1.394 . S
C683 C684 1.383 . S
C683 H691 0.929 . S
C684 C683 1.383 . S
C684 C685 1.377 . S
C685 H669 0.930 . S
C685 C684 1.377 . S
C685 C686 1.379 . S
C686 H670 0.931 . S
C686 C680 1.383 . S
C686 C685 1.379 . S
H687 C681 0.959 . S
H688 C681 0.961 1_556 S
H689 C681 0.960 1_556 S
H690 C682 0.930 . S
H691 C683 0.929 . S
H692 C700 0.929 . S
H693 C702 0.915 1_455 S
H694 C704 0.930 1_556 S
H695 C707 0.929 . S
H696 C710 0.930 . S
H697 C712 0.956 1_455 S
H698 C712 0.950 1_455 S
H699 C712 0.970 . S
C700 H692 0.929 . S
C700 C701 1.377 . S
C700 C702 1.384 . S
C701 C700 1.377 . S
C701 C707 1.390 . S
C702 H693 0.915 1_655 S
C702 C700 1.384 . S
C702 C703 1.372 . S
C703 C702 1.372 . S
C703 C704 1.400 . S
C703 C708 1.501 . S
C704 H694 0.930 1_554 S
C704 C703 1.400 . S
C704 C707 1.386 . S
H705 C721 0.930 . S
H706 C722 0.931 . S
C707 H695 0.929 . S
C707 C701 1.390 . S
C707 C704 1.386 . S
C708 C703 1.501 . S
C708 C710 1.398 . S
C708 C711 1.388 1_554 S
H709 C715 0.950 . S
C710 H696 0.930 . S
C710 C708 1.398 . S
C710 C713 1.403 1_554 S
C711 C708 1.388 1_556 S
C711 C712 1.528 . S
C711 C715 1.400 . S
C712 H697 0.956 1_655 S
C712 H698 0.950 1_655 S
C712 H699 0.970 . S
C712 C711 1.528 . S
C713 C710 1.403 1_556 S
C713 C714 1.392 . S
C713 C717 1.495 . S
C714 C713 1.392 . S
C714 C715 1.385 . S
C714 C716 1.478 . S
C715 H709 0.950 . S
C715 C711 1.400 . S
C715 C714 1.385 . S
C716 C714 1.478 . S
C716 C718 1.381 1_655 S
C716 C722 1.383 . S
C717 C713 1.495 . S
C717 H723 0.959 1_556 S
C717 H724 0.961 . S
C717 H725 0.960 . S
C718 C716 1.381 1_455 S
C718 C719 1.394 . S
C718 H726 0.930 . S
C719 C718 1.394 . S
C719 C720 1.383 1_455 S
C719 H727 0.929 . S
C720 C719 1.383 1_655 S
C720 C721 1.377 . S
C721 H705 0.930 . S
C721 C720 1.377 . S
C721 C722 1.379 . S
C722 H706 0.931 . S
C722 C716 1.383 . S
C722 C721 1.379 . S
H723 C717 0.959 1_554 S
H724 C717 0.961 . S
H725 C717 0.960 . S
H726 C718 0.930 . S
H727 C719 0.929 . S
H728 C736 0.929 . S
H729 C738 0.930 . S
H730 C740 0.930 . S
H731 C743 0.929 . S
H732 C746 0.930 . S
H733 C748 0.960 . S
H734 C748 0.960 . S
H735 C748 0.960 . S
C736 H728 0.929 . S
C736 C737 1.377 . S
C736 C738 1.384 . S
C737 C736 1.377 . S
C737 C743 1.390 . S
C738 H729 0.930 . S
C738 C736 1.384 . S
C738 C739 1.372 . S
C739 C738 1.372 . S
C739 C740 1.400 . S
C739 C744 1.490 . S
C740 H730 0.930 . S
C740 C739 1.400 . S
C740 C743 1.386 . S
H741 C757 0.930 1_655 S
H742 C758 0.931 . S
C743 H731 0.929 . S
C743 C737 1.390 . S
C743 C740 1.386 . S
C744 C739 1.490 . S
C744 C746 1.395 . S
C744 C747 1.403 . S
H745 C751 0.930 1_655 S
C746 H732 0.930 . S
C746 C744 1.395 . S
C746 C749 1.403 . S
C747 C744 1.403 . S
C747 C748 1.524 1_455 S
C747 C751 1.400 . S
C748 H733 0.960 . S
C748 H734 0.960 . S
C748 H735 0.960 . S
C748 C747 1.524 1_655 S
C749 C746 1.403 . S
C749 C750 1.392 . S
C749 C753 1.495 . S
C750 C749 1.392 . S
C750 C751 1.385 . S
C750 C752 1.478 . S
C751 H745 0.930 1_455 S
C751 C747 1.400 . S
C751 C750 1.385 . S
C752 C750 1.478 . S
C752 C754 1.381 . S
C752 C758 1.383 . S
C753 C749 1.495 . S
C753 H759 0.959 . S
C753 H760 0.961 . S
C753 H761 0.960 . S
C754 C752 1.381 . S
C754 C755 1.394 . S
C754 H762 0.930 . S
C755 C754 1.394 . S
C755 C756 1.383 . S
C755 H763 0.929 . S
C756 C755 1.383 . S
C756 C757 1.377 . S
C757 H741 0.930 1_455 S
C757 C756 1.377 . S
C757 C758 1.379 . S
C758 H742 0.931 . S
C758 C752 1.383 . S
C758 C757 1.379 . S
H759 C753 0.959 . S
H760 C753 0.961 . S
H761 C753 0.960 . S
H762 C754 0.930 . S
H763 C755 0.929 . S
H764 C772 0.929 . S
H765 C774 0.930 . S
H766 C776 0.930 . S
H767 C779 0.929 . S
H768 C782 0.930 . S
H769 C784 0.960 . S
H770 C784 0.960 . S
H771 C784 0.960 . S
C772 H764 0.929 . S
C772 C773 1.377 . S
C772 C774 1.384 . S
C773 C772 1.377 . S
C773 C779 1.390 . S
C774 H765 0.930 . S
C774 C772 1.384 . S
C774 C775 1.372 . S
C775 C774 1.372 . S
C775 C776 1.400 . S
C775 C780 1.490 . S
C776 H766 0.930 . S
C776 C775 1.400 . S
C776 C779 1.386 . S
H777 C793 0.930 . S
H778 C794 0.940 . S
C779 H767 0.929 . S
C779 C773 1.390 . S
C779 C776 1.386 . S
C780 C775 1.490 . S
C780 C782 1.395 . S
C780 C783 1.403 . S
H781 C787 0.930 . S
C782 H768 0.930 . S
C782 C780 1.395 . S
C782 C785 1.403 . S
C783 C780 1.403 . S
C783 C784 1.524 . S
C783 C787 1.400 . S
C784 H769 0.960 . S
C784 H770 0.960 . S
C784 H771 0.960 . S
C784 C783 1.524 . S
C785 C782 1.403 . S
C785 C786 1.392 . S
C785 C789 1.495 . S
C786 C785 1.392 . S
C786 C787 1.385 . S
C786 C788 1.478 . S
C787 H781 0.930 . S
C787 C783 1.400 . S
C787 C786 1.385 . S
C788 C786 1.478 . S
C788 C790 1.381 . S
C788 C794 1.371 1_545 S
C789 C785 1.495 . S
C789 H795 0.959 . S
C789 H796 0.961 . S
C789 H797 0.960 . S
C790 C788 1.381 . S
C790 C791 1.394 . S
C790 H798 0.930 . S
C791 C790 1.394 . S
C791 C792 1.383 . S
C791 H799 0.929 . S
C792 C791 1.383 . S
C792 C793 1.377 1_545 S
C793 H777 0.930 . S
C793 C792 1.377 1_565 S
C793 C794 1.382 . S
C794 H778 0.940 . S
C794 C788 1.371 1_565 S
C794 C793 1.382 . S
H795 C789 0.959 . S
H796 C789 0.961 . S
H797 C789 0.960 . S
H798 C790 0.930 . S
H799 C791 0.929 . S
H800 C808 0.929 . S
H801 C810 0.930 . S
H802 C812 0.930 . S
H803 C815 0.929 . S
H804 C818 0.930 . S
H805 C820 0.960 . S
H806 C820 0.960 . S
H807 C820 0.960 . S
C808 H800 0.929 . S
C808 C809 1.377 . S
C808 C810 1.384 . S
C809 C808 1.377 . S
C809 C815 1.390 . S
C810 H801 0.930 . S
C810 C808 1.384 . S
C810 C811 1.372 . S
C811 C810 1.372 . S
C811 C812 1.400 . S
C811 C816 1.490 . S
C812 H802 0.930 . S
C812 C811 1.400 . S
C812 C815 1.386 . S
H813 C829 0.930 . S
H814 C830 0.931 . S
C815 H803 0.929 . S
C815 C809 1.390 . S
C815 C812 1.386 . S
C816 C811 1.490 . S
C816 C818 1.395 . S
C816 C819 1.403 . S
H817 C823 0.930 . S
C818 H804 0.930 . S
C818 C816 1.395 . S
C818 C821 1.403 . S
C819 C816 1.403 . S
C819 C820 1.524 . S
C819 C823 1.400 . S
C820 H805 0.960 . S
C820 H806 0.960 . S
C820 H807 0.960 . S
C820 C819 1.524 . S
C821 C818 1.403 . S
C821 C822 1.392 . S
C821 C825 1.495 . S
C822 C821 1.392 . S
C822 C823 1.385 . S
C822 C824 1.478 . S
C823 H817 0.930 . S
C823 C819 1.400 . S
C823 C822 1.385 . S
C824 C822 1.478 . S
C824 C826 1.381 . S
C824 C830 1.383 . S
C825 C821 1.495 . S
C825 H831 0.959 . S
C825 H832 0.961 . S
C825 H833 0.960 . S
C826 C824 1.381 . S
C826 C827 1.394 . S
C826 H834 0.930 . S
C827 C826 1.394 . S
C827 C828 1.383 . S
C827 H835 0.929 . S
C828 C827 1.383 . S
C828 C829 1.377 . S
C829 H813 0.930 . S
C829 C828 1.377 . S
C829 C830 1.379 . S
C830 H814 0.931 . S
C830 C824 1.383 . S
C830 C829 1.379 . S
H831 C825 0.959 . S
H832 C825 0.961 . S
H833 C825 0.960 . S
H834 C826 0.930 . S
H835 C827 0.929 . S
H836 C844 0.929 . S
H837 C846 0.930 . S
H838 C848 0.930 . S
H839 C851 0.929 . S
H840 C854 0.930 . S
H841 C856 0.960 . S
H842 C856 0.960 . S
H843 C856 0.960 . S
C844 H836 0.929 . S
C844 C845 1.377 . S
C844 C846 1.384 . S
C845 C844 1.377 . S
C845 C851 1.390 . S
C846 H837 0.930 . S
C846 C844 1.384 . S
C846 C847 1.372 . S
C847 C846 1.372 . S
C847 C848 1.400 . S
C847 C852 1.490 . S
C848 H838 0.930 . S
C848 C847 1.400 . S
C848 C851 1.386 . S
H849 C865 0.930 . S
H850 C866 0.931 . S
C851 H839 0.929 . S
C851 C845 1.390 . S
C851 C848 1.386 . S
C852 C847 1.490 . S
C852 C854 1.395 . S
C852 C855 1.403 . S
H853 C859 0.930 . S
C854 H840 0.930 . S
C854 C852 1.395 . S
C854 C857 1.403 . S
C855 C852 1.403 . S
C855 C856 1.524 . S
C855 C859 1.400 . S
C856 H841 0.960 . S
C856 H842 0.960 . S
C856 H843 0.960 . S
C856 C855 1.524 . S
C857 C854 1.403 . S
C857 C858 1.392 . S
C857 C861 1.495 . S
C858 C857 1.392 . S
C858 C859 1.385 . S
C858 C860 1.478 . S
C859 H853 0.930 . S
C859 C855 1.400 . S
C859 C858 1.385 . S
C860 C858 1.478 . S
C860 C862 1.381 . S
C860 C866 1.383 . S
C861 C857 1.495 . S
C861 H867 0.959 . S
C861 H868 0.961 . S
C861 H869 0.960 . S
C862 C860 1.381 . S
C862 C863 1.394 . S
C862 H870 0.930 . S
C863 C862 1.394 . S
C863 C864 1.383 . S
C863 H871 0.929 . S
C864 C863 1.383 . S
C864 C865 1.377 . S
C865 H849 0.930 . S
C865 C864 1.377 . S
C865 C866 1.379 . S
C866 H850 0.931 . S
C866 C860 1.383 . S
C866 C865 1.379 . S
H867 C861 0.959 . S
H868 C861 0.961 . S
H869 C861 0.960 . S
H870 C862 0.930 . S
H871 C863 0.929 . S
H872 C880 0.929 . S
H873 C882 0.930 . S
H874 C884 0.930 . S
H875 C887 0.929 . S
H876 C890 0.930 . S
H877 C892 0.960 . S
H878 C892 0.960 1_554 S
H879 C892 0.960 . S
C880 H872 0.929 . S
C880 C881 1.377 . S
C880 C882 1.384 . S
C881 C880 1.377 . S
C881 C887 1.390 . S
C882 H873 0.930 . S
C882 C880 1.384 . S
C882 C883 1.372 . S
C883 C882 1.372 . S
C883 C884 1.400 . S
C883 C888 1.490 . S
C884 H874 0.930 . S
C884 C883 1.400 . S
C884 C887 1.386 . S
H885 C901 0.930 . S
H886 C902 0.931 . S
C887 H875 0.929 . S
C887 C881 1.390 . S
C887 C884 1.386 . S
C888 C883 1.490 . S
C888 C890 1.395 1_655 S
C888 C891 1.403 . S
H889 C895 0.930 . S
C890 H876 0.930 . S
C890 C888 1.395 1_455 S
C890 C893 1.403 . S
C891 C888 1.403 . S
C891 C892 1.524 1_554 S
C891 C895 1.400 1_554 S
C892 H877 0.960 . S
C892 H878 0.960 1_556 S
C892 H879 0.960 . S
C892 C891 1.524 1_556 S
C893 C890 1.403 . S
C893 C894 1.392 1_454 S
C893 C897 1.495 . S
C894 C893 1.392 1_656 S
C894 C895 1.385 . S
C894 C896 1.467 1_655 S
C895 H889 0.930 . S
C895 C891 1.400 1_556 S
C895 C894 1.385 . S
C896 C894 1.467 1_455 S
C896 C898 1.381 . S
C896 C902 1.393 . S
C897 C893 1.495 . S
C897 H903 0.959 . S
C897 H904 0.961 . S
C897 H905 0.960 . S
C898 C896 1.381 . S
C898 C899 1.399 . S
C898 H906 0.925 1_456 S
C899 C898 1.399 . S
C899 C900 1.383 . S
C899 H907 0.929 . S
C900 C899 1.383 . S
C900 C901 1.377 . S
C901 H885 0.930 . S
C901 C900 1.377 . S
C901 C902 1.379 . S
C902 H886 0.931 . S
C902 C896 1.393 . S
C902 C901 1.379 . S
H903 C897 0.959 . S
H904 C897 0.961 . S
H905 C897 0.960 . S
H906 C898 0.925 1_654 S
H907 C899 0.929 . S
H908 C916 0.929 . S
H909 C918 0.930 . S
H910 C920 0.929 1_545 S
H911 C923 0.929 . S
H912 C926 0.930 . S
H913 C928 0.960 . S
H914 C928 0.960 . S
H915 C928 0.960 . S
C916 H908 0.929 . S
C916 C917 1.377 . S
C916 C918 1.384 . S
C917 C916 1.377 . S
C917 C923 1.390 . S
C918 H909 0.930 . S
C918 C916 1.384 . S
C918 C919 1.372 . S
C919 C918 1.372 . S
C919 C920 1.400 . S
C919 C924 1.490 . S
C920 H910 0.929 1_565 S
C920 C919 1.400 . S
C920 C923 1.386 . S
H921 C937 0.930 . S
H922 C938 0.931 1_554 S
C923 H911 0.929 . S
C923 C917 1.390 . S
C923 C920 1.386 . S
C924 C919 1.490 . S
C924 C926 1.395 . S
C924 C927 1.403 1_565 S
H925 C931 0.930 1_556 S
C926 H912 0.930 . S
C926 C924 1.395 . S
C926 C929 1.403 . S
C927 C924 1.403 1_545 S
C927 C928 1.524 . S
C927 C931 1.401 . S
C928 H913 0.960 . S
C928 H914 0.960 . S
C928 H915 0.960 . S
C928 C927 1.524 . S
C929 C926 1.403 . S
C929 C930 1.392 1_554 S
C929 C933 1.495 1_554 S
C930 C929 1.392 1_556 S
C930 C931 1.385 1_566 S
C930 C932 1.478 . S
C931 H925 0.930 1_554 S
C931 C927 1.401 . S
C931 C930 1.385 1_544 S
C932 C930 1.478 . S
C932 C934 1.381 . S
C932 C938 1.383 1_565 S
C933 C929 1.495 1_556 S
C933 H939 0.959 1_556 S
C933 H940 0.961 1_556 S
C933 H941 0.960 . S
C934 C932 1.381 . S
C934 C935 1.394 . S
C934 H942 0.930 . S
C935 C934 1.394 . S
C935 C936 1.383 1_565 S
C935 H943 0.929 . S
C936 C935 1.383 1_545 S
C936 C937 1.377 . S
C937 H921 0.930 . S
C937 C936 1.377 . S
C937 C938 1.379 . S
C938 H922 0.931 1_556 S
C938 C932 1.383 1_545 S
C938 C937 1.379 . S
H939 C933 0.959 1_554 S
H940 C933 0.961 1_554 S
H941 C933 0.960 . S
H942 C934 0.930 . S
H943 C935 0.929 . S
H944 C952 0.929 . S
H945 C954 0.930 . S
H946 C956 0.930 . S
H947 C959 0.929 . S
H948 C962 0.930 . S
H949 C964 0.960 . S
H950 C964 0.960 . S
H951 C964 0.960 1_554 S
C952 H944 0.929 . S
C952 C953 1.377 . S
C952 C954 1.384 . S
C953 C952 1.377 . S
C953 C959 1.390 . S
C954 H945 0.930 . S
C954 C952 1.384 . S
C954 C955 1.372 . S
C955 C954 1.372 . S
C955 C956 1.400 . S
C955 C960 1.490 . S
C956 H946 0.930 . S
C956 C955 1.400 . S
C956 C959 1.386 . S
H957 C973 0.930 . S
H958 C974 0.931 . S
C959 H947 0.929 . S
C959 C953 1.390 . S
C959 C956 1.386 . S
C960 C955 1.490 . S
C960 C962 1.395 . S
C960 C963 1.403 . S
H961 C967 0.930 . S
C962 H948 0.930 . S
C962 C960 1.395 . S
C962 C965 1.403 . S
C963 C960 1.403 . S
C963 C964 1.524 1_554 S
C963 C967 1.400 1_554 S
C964 H949 0.960 . S
C964 H950 0.960 . S
C964 H951 0.960 1_556 S
C964 C963 1.524 1_556 S
C965 C962 1.403 . S
C965 C966 1.392 1_554 S
C965 C969 1.495 . S
C966 C965 1.392 1_556 S
C966 C967 1.385 . S
C966 C968 1.478 . S
C967 H961 0.930 . S
C967 C963 1.400 1_556 S
C967 C966 1.385 . S
C968 C966 1.478 . S
C968 C970 1.381 . S
C968 C974 1.383 . S
C969 C965 1.495 . S
C969 H975 0.959 . S
C969 H976 0.961 . S
C969 H977 0.960 . S
C970 C968 1.381 . S
C970 C971 1.394 . S
C970 H978 0.930 . S
C971 C970 1.394 . S
C971 C972 1.383 . S
C971 H979 0.929 . S
C972 C971 1.383 . S
C972 C973 1.377 . S
C973 H957 0.930 . S
C973 C972 1.377 . S
C973 C974 1.379 . S
C974 H958 0.931 . S
C974 C968 1.383 . S
C974 C973 1.379 . S
H975 C969 0.959 . S
H976 C969 0.961 . S
H977 C969 0.960 . S
H978 C970 0.930 . S
H979 C971 0.929 . S
H980 C988 0.929 . S
H981 C990 0.930 . S
H982 C992 0.930 . S
H983 C995 0.929 . S
H984 C998 0.930 . S
H985 C1000 0.960 . S
H986 C1000 0.960 . S
H987 C1000 0.960 . S
C988 H980 0.929 . S
C988 C989 1.377 . S
C988 C990 1.384 . S
C989 C988 1.377 . S
C989 C995 1.390 . S
C990 H981 0.930 . S
C990 C988 1.384 . S
C990 C991 1.372 . S
C991 C990 1.372 . S
C991 C992 1.400 . S
C991 C996 1.490 . S
C992 H982 0.930 . S
C992 C991 1.400 . S
C992 C995 1.386 . S
H993 C1009 0.930 . S
H994 C1010 0.931 . S
C995 H983 0.929 . S
C995 C989 1.390 . S
C995 C992 1.386 . S
C996 C991 1.490 . S
C996 C998 1.395 . S
C996 C999 1.403 . S
H997 C1003 0.930 . S
C998 H984 0.930 . S
C998 C996 1.395 . S
C998 C1001 1.403 . S
C999 C996 1.403 . S
C999 C1000 1.524 . S
C999 C1003 1.400 1_554 S
C1000 H985 0.960 . S
C1000 H986 0.960 . S
C1000 H987 0.960 . S
C1000 C999 1.524 . S
C1001 C998 1.403 . S
C1001 C1002 1.392 1_554 S
C1001 C1005 1.495 . S
C1002 C1001 1.392 1_556 S
C1002 C1003 1.385 . S
C1002 C1004 1.478 . S
C1003 H997 0.930 . S
C1003 C999 1.400 1_556 S
C1003 C1002 1.385 . S
C1004 C1002 1.478 . S
C1004 C1006 1.381 . S
C1004 C1010 1.383 . S
C1005 C1001 1.495 . S
C1005 H1011 0.959 . S
C1005 H1012 0.961 1_554 S
C1005 H1013 0.960 . S
C1006 C1004 1.381 . S
C1006 C1007 1.394 . S
C1006 H1014 0.930 1_556 S
C1007 C1006 1.394 . S
C1007 C1008 1.383 . S
C1007 H1015 0.929 . S
C1008 C1007 1.383 . S
C1008 C1009 1.377 . S
C1009 H993 0.930 . S
C1009 C1008 1.377 . S
C1009 C1010 1.379 . S
C1010 H994 0.931 . S
C1010 C1004 1.383 . S
C1010 C1009 1.379 . S
H1011 C1005 0.959 . S
H1012 C1005 0.961 1_556 S
H1013 C1005 0.960 . S
H1014 C1006 0.930 1_554 S
H1015 C1007 0.929 . S
H1016 C1024 0.929 . S
H1017 C1026 0.930 . S
H1018 C1028 0.930 . S
H1019 C1031 0.929 . S
H1020 C1034 0.930 . S
H1021 C1036 0.960 . S
H1022 C1036 0.960 . S
H1023 C1036 0.960 . S
C1024 H1016 0.929 . S
C1024 C1025 1.377 . S
C1024 C1026 1.384 . S
C1025 C1024 1.377 . S
C1025 C1031 1.390 . S
C1026 H1017 0.930 . S
C1026 C1024 1.384 . S
C1026 C1027 1.372 . S
C1027 C1026 1.372 . S
C1027 C1028 1.400 . S
C1027 C1032 1.490 . S
C1028 H1018 0.930 . S
C1028 C1027 1.400 . S
C1028 C1031 1.386 . S
H1029 C1045 0.930 . S
H1030 C1046 0.931 . S
C1031 H1019 0.929 . S
C1031 C1025 1.390 . S
C1031 C1028 1.386 . S
C1032 C1027 1.490 . S
C1032 C1034 1.395 . S
C1032 C1035 1.403 . S
H1033 C1039 0.908 1_655 S
C1034 H1020 0.930 . S
C1034 C1032 1.395 . S
C1034 C1037 1.403 . S
C1035 C1032 1.403 . S
C1035 C1036 1.524 1_455 S
C1035 C1039 1.400 . S
C1036 H1021 0.960 . S
C1036 H1022 0.960 . S
C1036 H1023 0.960 . S
C1036 C1035 1.524 1_655 S
C1037 C1034 1.403 . S
C1037 C1038 1.392 . S
C1037 C1041 1.495 . S
C1038 C1037 1.392 . S
C1038 C1039 1.385 . S
C1038 C1040 1.478 . S
C1039 H1033 0.908 1_455 S
C1039 C1035 1.400 . S
C1039 C1038 1.385 . S
C1040 C1038 1.478 . S
C1040 C1042 1.381 . S
C1040 C1046 1.383 . S
C1041 C1037 1.495 . S
C1041 H1047 0.959 . S
C1041 H1048 0.961 . S
C1041 H1049 0.960 . S
C1042 C1040 1.381 . S
C1042 C1043 1.394 . S
C1042 H1050 0.930 . S
C1043 C1042 1.394 . S
C1043 C1044 1.383 . S
C1043 H1051 0.929 . S
C1044 C1043 1.383 . S
C1044 C1045 1.377 . S
C1045 H1029 0.930 . S
C1045 C1044 1.377 . S
C1045 C1046 1.379 . S
C1046 H1030 0.931 . S
C1046 C1040 1.383 . S
C1046 C1045 1.379 . S
H1047 C1041 0.959 . S
H1048 C1041 0.961 . S
H1049 C1041 0.960 . S
H1050 C1042 0.930 . S
H1051 C1043 0.929 . S
H1052 C1060 0.929 . S
H1053 C1062 0.930 . S
H1054 C1064 0.930 . S
H1055 C1067 0.929 . S
H1056 C1070 0.930 . S
H1057 C1072 0.960 . S
H1058 C1072 0.960 . S
H1059 C1072 0.960 . S
C1060 H1052 0.929 . S
C1060 C1061 1.377 . S
C1060 C1062 1.384 . S
C1061 C1060 1.377 . S
C1061 C1067 1.390 . S
C1062 H1053 0.930 . S
C1062 C1060 1.384 . S
C1062 C1063 1.372 . S
C1063 C1062 1.372 . S
C1063 C1064 1.400 . S
C1063 C1068 1.490 . S
C1064 H1054 0.930 . S
C1064 C1063 1.400 . S
C1064 C1067 1.386 . S
H1065 C1081 0.930 . S
H1066 C1082 0.931 . S
C1067 H1055 0.929 . S
C1067 C1061 1.390 . S
C1067 C1064 1.386 . S
C1068 C1063 1.490 . S
C1068 C1070 1.395 . S
C1068 C1071 1.403 . S
H1069 C1075 0.930 . S
C1070 H1056 0.930 . S
C1070 C1068 1.395 . S
C1070 C1073 1.403 . S
C1071 C1068 1.403 . S
C1071 C1072 1.524 . S
C1071 C1075 1.400 . S
C1072 H1057 0.960 . S
C1072 H1058 0.960 . S
C1072 H1059 0.960 . S
C1072 C1071 1.524 . S
C1073 C1070 1.403 . S
C1073 C1074 1.392 . S
C1073 C1077 1.495 . S
C1074 C1073 1.392 . S
C1074 C1075 1.385 . S
C1074 C1076 1.478 . S
C1075 H1069 0.930 . S
C1075 C1071 1.400 . S
C1075 C1074 1.385 . S
C1076 C1074 1.478 . S
C1076 C1078 1.381 . S
C1076 C1082 1.383 . S
C1077 C1073 1.495 . S
C1077 H1083 0.959 . S
C1077 H1084 0.961 . S
C1077 H1085 0.960 . S
C1078 C1076 1.381 . S
C1078 C1079 1.394 . S
C1078 H1086 0.930 1_545 S
C1079 C1078 1.394 . S
C1079 C1080 1.383 . S
C1079 H1087 0.929 1_545 S
C1080 C1079 1.383 . S
C1080 C1081 1.377 . S
C1081 H1065 0.930 . S
C1081 C1080 1.377 . S
C1081 C1082 1.379 . S
C1082 H1066 0.931 . S
C1082 C1076 1.383 . S
C1082 C1081 1.379 . S
H1083 C1077 0.959 . S
H1084 C1077 0.961 . S
H1085 C1077 0.960 . S
H1086 C1078 0.930 1_565 S
H1087 C1079 0.929 1_565 S
H1088 C1096 0.929 . S
H1089 C1098 0.930 . S
H1090 C1100 0.930 . S
H1091 C1103 0.929 . S
H1092 C1106 0.930 . S
H1093 C1108 0.960 . S
H1094 C1108 0.960 . S
H1095 C1108 0.960 . S
C1096 H1088 0.929 . S
C1096 C1097 1.377 . S
C1096 C1098 1.384 . S
C1097 C1096 1.377 . S
C1097 C1103 1.390 . S
C1098 H1089 0.930 . S
C1098 C1096 1.384 . S
C1098 C1099 1.372 . S
C1099 C1098 1.372 . S
C1099 C1100 1.400 . S
C1099 C1104 1.490 . S
C1100 H1090 0.930 . S
C1100 C1099 1.400 . S
C1100 C1103 1.386 . S
H1101 C1117 0.930 . S
H1102 C1118 0.931 . S
C1103 H1091 0.929 . S
C1103 C1097 1.390 . S
C1103 C1100 1.386 . S
C1104 C1099 1.490 . S
C1104 C1106 1.395 . S
C1104 C1107 1.403 . S
H1105 C1111 0.930 . S
C1106 H1092 0.930 . S
C1106 C1104 1.395 . S
C1106 C1109 1.403 . S
C1107 C1104 1.403 . S
C1107 C1108 1.524 . S
C1107 C1111 1.400 . S
C1108 H1093 0.960 . S
C1108 H1094 0.960 . S
C1108 H1095 0.960 . S
C1108 C1107 1.524 . S
C1109 C1106 1.403 . S
C1109 C1110 1.392 . S
C1109 C1113 1.495 . S
C1110 C1109 1.392 . S
C1110 C1111 1.385 . S
C1110 C1112 1.478 . S
C1111 H1105 0.930 . S
C1111 C1107 1.400 . S
C1111 C1110 1.385 . S
C1112 C1110 1.478 . S
C1112 C1114 1.381 . S
C1112 C1118 1.383 . S
C1113 C1109 1.495 . S
C1113 H1119 0.959 . S
C1113 H1120 0.961 . S
C1113 H1121 0.960 . S
C1114 C1112 1.381 . S
C1114 C1115 1.394 . S
C1114 H1122 0.930 . S
C1115 C1114 1.394 . S
C1115 C1116 1.383 . S
C1115 H1123 0.929 . S
C1116 C1115 1.383 . S
C1116 C1117 1.377 . S
C1117 H1101 0.930 . S
C1117 C1116 1.377 . S
C1117 C1118 1.379 . S
C1118 H1102 0.931 . S
C1118 C1112 1.383 . S
C1118 C1117 1.379 . S
H1119 C1113 0.959 . S
H1120 C1113 0.961 . S
H1121 C1113 0.960 . S
H1122 C1114 0.930 . S
H1123 C1115 0.929 . S
H1124 C1132 0.929 . S
H1125 C1134 0.930 . S
H1126 C1136 0.930 . S
H1127 C1139 0.929 . S
H1128 C1142 0.930 . S
H1129 C1144 0.960 . S
H1130 C1144 0.960 . S
H1131 C1144 0.960 . S
C1132 H1124 0.929 . S
C1132 C1133 1.377 . S
C1132 C1134 1.384 . S
C1133 C1132 1.377 . S
C1133 C1139 1.390 . S
C1134 H1125 0.930 . S
C1134 C1132 1.384 . S
C1134 C1135 1.372 . S
C1135 C1134 1.372 . S
C1135 C1136 1.400 . S
C1135 C1140 1.490 . S
C1136 H1126 0.930 . S
C1136 C1135 1.400 . S
C1136 C1139 1.386 . S
H1137 C1153 0.930 . S
H1138 C1154 0.931 . S
C1139 H1127 0.929 . S
C1139 C1133 1.390 . S
C1139 C1136 1.386 . S
C1140 C1135 1.490 . S
C1140 C1142 1.395 . S
C1140 C1143 1.403 . S
H1141 C1147 0.930 . S
C1142 H1128 0.930 . S
C1142 C1140 1.395 . S
C1142 C1145 1.403 . S
C1143 C1140 1.403 . S
C1143 C1144 1.524 . S
C1143 C1147 1.400 . S
C1144 H1129 0.960 . S
C1144 H1130 0.960 . S
C1144 H1131 0.960 . S
C1144 C1143 1.524 . S
C1145 C1142 1.403 . S
C1145 C1146 1.392 . S
C1145 C1149 1.495 . S
C1146 C1145 1.392 . S
C1146 C1147 1.385 . S
C1146 C1148 1.478 . S
C1147 H1141 0.930 . S
C1147 C1143 1.400 . S
C1147 C1146 1.385 . S
C1148 C1146 1.478 . S
C1148 C1150 1.381 . S
C1148 C1154 1.383 . S
C1149 C1145 1.495 . S
C1149 H1155 0.959 . S
C1149 H1156 0.961 . S
C1149 H1157 0.960 . S
C1150 C1148 1.381 . S
C1150 C1151 1.394 . S
C1150 H1158 0.930 . S
C1151 C1150 1.394 . S
C1151 C1152 1.383 . S
C1151 H1159 0.929 . S
C1152 C1151 1.383 . S
C1152 C1153 1.377 . S
C1153 H1137 0.930 . S
C1153 C1152 1.377 . S
C1153 C1154 1.379 . S
C1154 H1138 0.931 . S
C1154 C1148 1.383 . S
C1154 C1153 1.379 . S
H1155 C1149 0.959 . S
H1156 C1149 0.961 . S
H1157 C1149 0.960 . S
H1158 C1150 0.930 . S
H1159 C1151 0.929 . S
H1160 C1168 0.929 . S
H1161 C1170 0.930 . S
H1162 C1172 0.930 . S
H1163 C1175 0.929 . S
H1164 C1178 0.930 . S
H1165 C1180 0.960 . S
H1166 C1180 0.960 . S
H1167 C1180 0.960 . S
C1168 H1160 0.929 . S
C1168 C1169 1.377 . S
C1168 C1170 1.384 . S
C1169 C1168 1.377 . S
C1169 C1175 1.390 . S
C1170 H1161 0.930 . S
C1170 C1168 1.384 . S
C1170 C1171 1.372 . S
C1171 C1170 1.372 . S
C1171 C1172 1.400 . S
C1171 C1176 1.490 . S
C1172 H1162 0.930 . S
C1172 C1171 1.400 . S
C1172 C1175 1.386 . S
H1173 C1189 0.930 . S
H1174 C1190 0.931 . S
C1175 H1163 0.929 . S
C1175 C1169 1.390 . S
C1175 C1172 1.386 . S
C1176 C1171 1.490 . S
C1176 C1178 1.395 1_655 S
C1176 C1179 1.403 . S
H1177 C1183 0.930 . S
C1178 H1164 0.930 . S
C1178 C1176 1.395 1_455 S
C1178 C1181 1.403 . S
C1179 C1176 1.403 . S
C1179 C1180 1.524 . S
C1179 C1183 1.400 . S
C1180 H1165 0.960 . S
C1180 H1166 0.960 . S
C1180 H1167 0.960 . S
C1180 C1179 1.524 . S
C1181 C1178 1.403 . S
C1181 C1182 1.392 1_455 S
C1181 C1185 1.495 . S
C1182 C1181 1.392 1_655 S
C1182 C1183 1.385 . S
C1182 C1184 1.478 . S
C1183 H1177 0.930 . S
C1183 C1179 1.400 . S
C1183 C1182 1.385 . S
C1184 C1182 1.478 . S
C1184 C1186 1.381 . S
C1184 C1190 1.383 . S
C1185 C1181 1.495 . S
C1185 H1191 0.959 . S
C1185 H1192 0.961 . S
C1185 H1193 0.960 . S
C1186 C1184 1.381 . S
C1186 C1187 1.394 . S
C1186 H1194 0.930 . S
C1187 C1186 1.394 . S
C1187 C1188 1.383 . S
C1187 H1195 0.937 . S
C1188 C1187 1.383 . S
C1188 C1189 1.377 . S
C1189 H1173 0.930 . S
C1189 C1188 1.377 . S
C1189 C1190 1.379 . S
C1190 H1174 0.931 . S
C1190 C1184 1.383 . S
C1190 C1189 1.379 . S
H1191 C1185 0.959 . S
H1192 C1185 0.961 . S
H1193 C1185 0.960 . S
H1194 C1186 0.930 . S
H1195 C1187 0.937 . S
H1196 C1204 0.929 . S
H1197 C1206 0.930 . S
H1198 C1208 0.930 1_545 S
H1199 C1211 0.929 1_545 S
H1200 C1214 0.930 . S
H1201 C1216 0.960 . S
H1202 C1216 0.960 . S
H1203 C1216 0.960 . S
C1204 H1196 0.929 . S
C1204 C1205 1.377 . S
C1204 C1206 1.384 . S
C1205 C1204 1.377 . S
C1205 C1211 1.390 . S
C1206 H1197 0.930 . S
C1206 C1204 1.384 . S
C1206 C1207 1.372 . S
C1207 C1206 1.372 . S
C1207 C1208 1.400 . S
C1207 C1212 1.490 . S
C1208 H1198 0.930 1_565 S
C1208 C1207 1.400 . S
C1208 C1211 1.386 . S
H1209 C1225 0.930 . S
H1210 C1226 0.931 . S
C1211 H1199 0.929 1_565 S
C1211 C1205 1.390 . S
C1211 C1208 1.386 . S
C1212 C1207 1.490 . S
C1212 C1214 1.395 . S
C1212 C1215 1.403 . S
H1213 C1219 0.930 . S
C1214 H1200 0.930 . S
C1214 C1212 1.395 . S
C1214 C1217 1.403 . S
C1215 C1212 1.403 . S
C1215 C1216 1.524 . S
C1215 C1219 1.400 . S
C1216 H1201 0.960 . S
C1216 H1202 0.960 . S
C1216 H1203 0.960 . S
C1216 C1215 1.524 . S
C1217 C1214 1.403 . S
C1217 C1218 1.392 . S
C1217 C1221 1.495 . S
C1218 C1217 1.392 . S
C1218 C1219 1.385 . S
C1218 C1220 1.478 . S
C1219 H1213 0.930 . S
C1219 C1215 1.400 . S
C1219 C1218 1.385 . S
C1220 C1218 1.478 . S
C1220 C1222 1.381 . S
C1220 C1226 1.383 1_565 S
C1221 C1217 1.495 . S
C1221 H1227 0.959 . S
C1221 H1228 0.938 1_565 S
C1221 H1229 0.960 . S
C1222 C1220 1.381 . S
C1222 C1223 1.394 . S
C1222 H1230 0.930 . S
C1223 C1222 1.394 . S
C1223 C1224 1.383 . S
C1223 H1231 0.929 . S
C1224 C1223 1.383 . S
C1224 C1225 1.377 1_565 S
C1225 H1209 0.930 . S
C1225 C1224 1.377 1_545 S
C1225 C1226 1.379 . S
C1226 H1210 0.931 . S
C1226 C1220 1.383 1_545 S
C1226 C1225 1.379 . S
H1227 C1221 0.959 . S
H1228 C1221 0.938 1_545 S
H1229 C1221 0.960 . S
H1230 C1222 0.930 . S
H1231 C1223 0.929 . S
H1232 C1240 0.929 . S
H1233 C1242 0.930 . S
H1234 C1244 0.930 . S
H1235 C1247 0.929 . S
H1236 C1250 0.930 . S
H1237 C1252 0.960 . S
H1238 C1252 0.960 . S
H1239 C1252 0.960 . S
C1240 H1232 0.929 . S
C1240 C1241 1.377 . S
C1240 C1242 1.384 . S
C1241 C1240 1.377 . S
C1241 C1247 1.390 . S
C1242 H1233 0.930 . S
C1242 C1240 1.384 . S
C1242 C1243 1.372 . S
C1243 C1242 1.372 . S
C1243 C1244 1.400 . S
C1243 C1248 1.490 . S
C1244 H1234 0.930 . S
C1244 C1243 1.400 . S
C1244 C1247 1.386 . S
H1245 C1261 0.930 . S
H1246 C1262 0.931 . S
C1247 H1235 0.929 . S
C1247 C1241 1.390 . S
C1247 C1244 1.386 . S
C1248 C1243 1.490 . S
C1248 C1250 1.395 . S
C1248 C1251 1.403 . S
H1249 C1255 0.930 . S
C1250 H1236 0.930 . S
C1250 C1248 1.395 . S
C1250 C1253 1.403 . S
C1251 C1248 1.403 . S
C1251 C1252 1.524 . S
C1251 C1255 1.400 . S
C1252 H1237 0.960 . S
C1252 H1238 0.960 . S
C1252 H1239 0.960 . S
C1252 C1251 1.524 . S
C1253 C1250 1.403 . S
C1253 C1254 1.392 . S
C1253 C1257 1.495 . S
C1254 C1253 1.392 . S
C1254 C1255 1.385 . S
C1254 C1256 1.478 . S
C1255 H1249 0.930 . S
C1255 C1251 1.400 . S
C1255 C1254 1.385 . S
C1256 C1254 1.478 . S
C1256 C1258 1.381 . S
C1256 C1262 1.383 . S
C1257 C1253 1.495 . S
C1257 H1263 0.959 . S
C1257 H1264 0.961 . S
C1257 H1265 0.960 . S
C1258 C1256 1.381 . S
C1258 C1259 1.394 . S
C1258 H1266 0.930 . S
C1259 C1258 1.394 . S
C1259 C1260 1.383 . S
C1259 H1267 0.929 . S
C1260 C1259 1.383 . S
C1260 C1261 1.377 . S
C1261 H1245 0.930 . S
C1261 C1260 1.377 . S
C1261 C1262 1.379 . S
C1262 H1246 0.931 . S
C1262 C1256 1.383 . S
C1262 C1261 1.379 . S
H1263 C1257 0.959 . S
H1264 C1257 0.961 . S
H1265 C1257 0.960 . S
H1266 C1258 0.930 . S
H1267 C1259 0.929 . S
H1268 C1276 0.929 . S
H1269 C1278 0.930 . S
H1270 C1280 0.930 . S
H1271 C1283 0.929 . S
H1272 C1286 0.930 . S
H1273 C1288 0.960 . S
H1274 C1288 0.960 . S
H1275 C1288 0.960 . S
C1276 H1268 0.929 . S
C1276 C1277 1.377 . S
C1276 C1278 1.384 . S
C1277 C1276 1.377 . S
C1277 C1283 1.390 . S
C1278 H1269 0.930 . S
C1278 C1276 1.384 . S
C1278 C1279 1.372 . S
C1279 C1278 1.372 . S
C1279 C1280 1.400 . S
C1279 C1284 1.490 . S
C1280 H1270 0.930 . S
C1280 C1279 1.400 . S
C1280 C1283 1.386 . S
H1281 C1297 0.930 . S
H1282 C1298 0.931 . S
C1283 H1271 0.929 . S
C1283 C1277 1.390 . S
C1283 C1280 1.386 . S
C1284 C1279 1.490 . S
C1284 C1286 1.395 . S
C1284 C1287 1.403 . S
H1285 C1291 0.930 . S
C1286 H1272 0.930 . S
C1286 C1284 1.395 . S
C1286 C1289 1.403 . S
C1287 C1284 1.403 . S
C1287 C1288 1.524 . S
C1287 C1291 1.400 . S
C1288 H1273 0.960 . S
C1288 H1274 0.960 . S
C1288 H1275 0.960 . S
C1288 C1287 1.524 . S
C1289 C1286 1.403 . S
C1289 C1290 1.392 . S
C1289 C1293 1.495 . S
C1290 C1289 1.392 . S
C1290 C1291 1.385 . S
C1290 C1292 1.478 . S
C1291 H1285 0.930 . S
C1291 C1287 1.400 . S
C1291 C1290 1.385 . S
C1292 C1290 1.478 . S
C1292 C1294 1.381 . S
C1292 C1298 1.383 . S
C1293 C1289 1.495 . S
C1293 H1299 0.959 . S
C1293 H1300 0.961 . S
C1293 H1301 0.960 . S
C1294 C1292 1.381 . S
C1294 C1295 1.394 . S
C1294 H1302 0.930 . S
C1295 C1294 1.394 . S
C1295 C1296 1.383 . S
C1295 H1303 0.929 . S
C1296 C1295 1.383 . S
C1296 C1297 1.377 . S
C1297 H1281 0.930 . S
C1297 C1296 1.377 . S
C1297 C1298 1.379 . S
C1298 H1282 0.931 . S
C1298 C1292 1.383 . S
C1298 C1297 1.379 . S
H1299 C1293 0.959 . S
H1300 C1293 0.961 . S
H1301 C1293 0.960 . S
H1302 C1294 0.930 . S
H1303 C1295 0.929 . S
C449 C82 1.735 . S
C468 C167 1.923 . S
C504 C244 1.941 . S
C485 C95 1.734 . S
C540 C335 1.914 . S
C521 C56 1.711 . S
C576 C419 1.899 . S
C557 C69 1.720 . S
C612 C178 1.920 . S
C593 C30 1.693 . S
C629 C43 1.696 . S
C648 C255 1.932 . S
C665 C4 1.673 . S
C684 C346 1.907 . S
C701 C17 1.672 . S
C720 C430 1.906 1_655 S
C756 C162 0.588 1_455 S
C737 C74 0.468 . S
C792 C257 0.649 . S
C773 C87 0.454 . S
C828 C330 0.641 . S
C809 C100 0.469 . S
C845 C61 0.477 . S
C864 C414 0.460 . S
C881 C22 0.481 . S
C900 C173 0.494 . S
C936 C246 0.558 . S
C917 C35 0.469 . S
C972 C341 0.624 . S
C953 C48 0.496 . S
C989 C9 0.461 . S
C1008 C425 0.461 . S
C1025 C73 1.858 . S
C1044 C171 1.992 . S
C1061 C86 1.851 . S
C1080 C262 2.002 . S
C1116 C339 2.016 . S
C1097 C99 1.863 . S
C1152 C423 2.025 . S
C1133 C60 1.879 . S
C1169 C21 1.855 . S
C1188 C160 1.996 . S
C1224 C251 2.001 1_565 S
C1205 C34 1.849 . S
C1260 C328 2.019 . S
C1241 C47 1.868 . S
C1277 C8 1.868 . S
C1296 C412 2.021 . S
