# Generated by pormake.
# Topology apo, (3,6)-cn, num edge types: 1
# Building blocks:
#     Node 0, Type 0, BuildingBlock: BETDIP_clean_linker_0, # of connection points: 3
#     Node 1, Type 0, BuildingBlock: BETDIP_clean_linker_0, # of connection points: 3
#     Node 2, Type 0, BuildingBlock: BETDIP_clean_linker_0, # of connection points: 3
#     Node 3, Type 0, BuildingBlock: BETDIP_clean_linker_0, # of connection points: 3
#     Node 4, Type 0, BuildingBlock: BETDIP_clean_linker_0, # of connection points: 3
#     Node 5, Type 0, BuildingBlock: BETDIP_clean_linker_0, # of connection points: 3
#     Node 6, Type 0, BuildingBlock: BETDIP_clean_linker_0, # of connection points: 3
#     Node 7, Type 0, BuildingBlock: BETDIP_clean_linker_0, # of connection points: 3
#     Node 8, Type 1, BuildingBlock: MIDCAF_clean_sbu_0, # of connection points: 6
#     Node 9, Type 1, BuildingBlock: MIDCAF_clean_sbu_0, # of connection points: 6
#     Node 10, Type 1, BuildingBlock: MIDCAF_clean_sbu_0, # of connection points: 6
#     Node 11, Type 1, BuildingBlock: MIDCAF_clean_sbu_0, # of connection points: 6
#     Edge 12, Type (0, 1), BuildingBlock: KIFKEQ_clean_linker_1, # of connection points: 2
#     Edge 13, Type (0, 1), BuildingBlock: KIFKEQ_clean_linker_1, # of connection points: 2
#     Edge 14, Type (0, 1), BuildingBlock: KIFKEQ_clean_linker_1, # of connection points: 2
#     Edge 15, Type (0, 1), BuildingBlock: KIFKEQ_clean_linker_1, # of connection points: 2
#     Edge 16, Type (0, 1), BuildingBlock: KIFKEQ_clean_linker_1, # of connection points: 2
#     Edge 17, Type (0, 1), BuildingBlock: KIFKEQ_clean_linker_1, # of connection points: 2
#     Edge 18, Type (0, 1), BuildingBlock: KIFKEQ_clean_linker_1, # of connection points: 2
#     Edge 19, Type (0, 1), BuildingBlock: KIFKEQ_clean_linker_1, # of connection points: 2
#     Edge 20, Type (0, 1), BuildingBlock: KIFKEQ_clean_linker_1, # of connection points: 2
#     Edge 21, Type (0, 1), BuildingBlock: KIFKEQ_clean_linker_1, # of connection points: 2
#     Edge 22, Type (0, 1), BuildingBlock: KIFKEQ_clean_linker_1, # of connection points: 2
#     Edge 23, Type (0, 1), BuildingBlock: KIFKEQ_clean_linker_1, # of connection points: 2
#     Edge 24, Type (0, 1), BuildingBlock: KIFKEQ_clean_linker_1, # of connection points: 2
#     Edge 25, Type (0, 1), BuildingBlock: KIFKEQ_clean_linker_1, # of connection points: 2
#     Edge 26, Type (0, 1), BuildingBlock: KIFKEQ_clean_linker_1, # of connection points: 2
#     Edge 27, Type (0, 1), BuildingBlock: KIFKEQ_clean_linker_1, # of connection points: 2
#     Edge 28, Type (0, 1), BuildingBlock: KIFKEQ_clean_linker_1, # of connection points: 2
#     Edge 29, Type (0, 1), BuildingBlock: KIFKEQ_clean_linker_1, # of connection points: 2
#     Edge 30, Type (0, 1), BuildingBlock: KIFKEQ_clean_linker_1, # of connection points: 2
#     Edge 31, Type (0, 1), BuildingBlock: KIFKEQ_clean_linker_1, # of connection points: 2
#     Edge 32, Type (0, 1), BuildingBlock: KIFKEQ_clean_linker_1, # of connection points: 2
#     Edge 33, Type (0, 1), BuildingBlock: KIFKEQ_clean_linker_1, # of connection points: 2
#     Edge 34, Type (0, 1), BuildingBlock: KIFKEQ_clean_linker_1, # of connection points: 2
#     Edge 35, Type (0, 1), BuildingBlock: KIFKEQ_clean_linker_1, # of connection points: 2
# Relax obj value: 0.012
# Max RMSD: 0.061
# Mean RMSD: 0.054
data_MOF--net-apo--node1-MIDCAF_clean_sbu_0--node2-BETDIP_clean_linker_0--edge1-KIFKEQ_clean_linker_1
_symmetry_space_group_name_H-M    P1
_symmetry_Int_Tables_number       1
_symmetry_cell_setting            triclinic
loop_
_symmetry_equiv_pos_as_xyz
'x, y, z'
_cell_length_a     37.17967
_cell_length_b     41.85422
_cell_length_c     35.14251
_cell_angle_alpha  90.023659
_cell_angle_beta   90.022802
_cell_angle_gamma 90.168142
loop_
_atom_site_label
_atom_site_type_symbol
_atom_site_fract_x
_atom_site_fract_y
_atom_site_fract_z
_atom_type_partial_charge
H0 H 0.31866 0.29429 0.43029 0.0
H1 H 0.34406 0.34224 0.32527 0.0
H2 H 0.40894 0.3586 0.42463 0.0
H3 H 0.32068 0.29404 0.30134 0.0
C4 C 0.29686 0.29176 0.31905 0.0
C5 C 0.33554 0.31062 0.41431 0.0
C6 C 0.36517 0.32533 0.43198 0.0
C7 C 0.32838 0.31582 0.37556 0.0
C8 C 0.35009 0.33725 0.35482 0.0
C9 C 0.37934 0.35274 0.37231 0.0
C10 C 0.38683 0.34631 0.41073 0.0
N11 N 0.29882 0.29967 0.3584 0.0
H12 H 0.18344 0.21422 0.92937 0.0
H13 H 0.1607 0.16514 0.82413 0.0
H14 H 0.09802 0.14513 0.9239 0.0
H15 H 0.21167 0.186 0.80346 0.0
C16 C 0.21931 0.206 0.82137 0.0
C17 C 0.16785 0.19687 0.9134 0.0
C18 C 0.13933 0.18066 0.93109 0.0
C19 C 0.17603 0.19147 0.87492 0.0
C20 C 0.15537 0.16926 0.85394 0.0
C21 C 0.12684 0.15263 0.87138 0.0
C22 C 0.11922 0.15851 0.9099 0.0
N23 N 0.20442 0.20971 0.85844 0.0
H24 H 0.81373 0.20509 0.57977 0.0
H25 H 0.83559 0.15656 0.68543 0.0
H26 H 0.89841 0.13581 0.58597 0.0
H27 H 0.78434 0.17702 0.7054 0.0
C28 C 0.77768 0.19752 0.68794 0.0
C29 C 0.82894 0.18767 0.5959 0.0
C30 C 0.85741 0.17131 0.5785 0.0
C31 C 0.82058 0.1825 0.63439 0.0
C32 C 0.84094 0.16033 0.65556 0.0
C33 C 0.86928 0.14342 0.63835 0.0
C34 C 0.87715 0.14913 0.59983 0.0
N35 N 0.79261 0.20114 0.65085 0.0
H36 H 0.69049 0.2843 0.0792 0.0
H37 H 0.68552 0.3467 0.17694 0.0
H38 H 0.62391 0.36802 0.07711 0.0
H39 H 0.72082 0.31303 0.20519 0.0
C40 C 0.72912 0.29385 0.18648 0.0
C41 C 0.68023 0.30554 0.09306 0.0
C42 C 0.65574 0.32522 0.07383 0.0
C43 C 0.69094 0.3126 0.13053 0.0
C44 C 0.6773 0.34022 0.14849 0.0
C45 C 0.65346 0.36048 0.12908 0.0
C46 C 0.64264 0.35262 0.09201 0.0
N47 N 0.7155 0.2914 0.14867 0.0
H48 H 0.6968 0.7148 0.58945 0.0
H49 H 0.67353 0.6559 0.68708 0.0
H50 H 0.61134 0.64565 0.58466 0.0
H51 H 0.69358 0.70404 0.71775 0.0
C52 C 0.71746 0.70838 0.70067 0.0
C53 C 0.68082 0.69632 0.60297 0.0
C54 C 0.65274 0.68158 0.5828 0.0
C55 C 0.68761 0.68806 0.64107 0.0
C56 C 0.66725 0.66359 0.65842 0.0
C57 C 0.6402 0.64764 0.63782 0.0
C58 C 0.63262 0.65745 0.60049 0.0
N59 N 0.71609 0.70381 0.66059 0.0
H60 H 0.8316 0.78426 0.0998 0.0
H61 H 0.85615 0.8346 0.20357 0.0
H62 H 0.91878 0.85188 0.10293 0.0
H63 H 0.79577 0.82707 0.21344 0.0
C64 C 0.79159 0.80279 0.20341 0.0
C65 C 0.84787 0.80145 0.11524 0.0
C66 C 0.8766 0.81693 0.09691 0.0
C67 C 0.83991 0.80802 0.15351 0.0
C68 C 0.86132 0.83007 0.17376 0.0
C69 C 0.89016 0.84581 0.15583 0.0
C70 C 0.89743 0.83906 0.11743 0.0
N71 N 0.81071 0.79158 0.17099 0.0
H72 H 0.19983 0.78968 0.44781 0.0
H73 H 0.18036 0.84506 0.3464 0.0
H74 H 0.13274 0.87295 0.45244 0.0
H75 H 0.22108 0.81465 0.31917 0.0
C76 C 0.2288 0.79497 0.33745 0.0
C77 C 0.1872 0.80982 0.43383 0.0
C78 C 0.166 0.83103 0.45505 0.0
C79 C 0.19301 0.81468 0.39476 0.0
C80 C 0.17653 0.84086 0.37645 0.0
C81 C 0.15516 0.86226 0.39737 0.0
C82 C 0.15007 0.85703 0.43648 0.0
N83 N 0.21586 0.79274 0.3755 0.0
H84 H 0.31224 0.70241 0.93889 0.0
H85 H 0.34085 0.6599 0.83133 0.0
H86 H 0.40063 0.63701 0.93242 0.0
H87 H 0.28979 0.68066 0.80991 0.0
C88 C 0.2816 0.69985 0.82872 0.0
C89 C 0.32909 0.68653 0.92232 0.0
C90 C 0.35744 0.67033 0.94002 0.0
C91 C 0.32278 0.68309 0.88316 0.0
C92 C 0.34494 0.6626 0.86161 0.0
C93 C 0.37329 0.64588 0.87915 0.0
C94 C 0.37936 0.65015 0.91832 0.0
N95 N 0.29479 0.70166 0.86671 0.0
Zn96 Zn 0.04137 0.12852 0.32449 0.0
Zn97 Zn 0.97704 0.11425 0.19618 0.0
Zn98 Zn 0.00869 0.12213 0.26043 0.0
C99 C 0.03449 0.15413 0.18094 0.0
C100 C 0.99432 0.05371 0.21824 0.0
O101 O 0.97115 0.14649 0.30078 0.0
O102 O 0.00617 0.15626 0.3503 0.0
C103 C 0.0859 0.15739 0.27243 0.0
O104 O 0.04112 0.14737 0.21605 0.0
O105 O 0.00614 0.14401 0.16529 0.0
O106 O 0.98405 0.06797 0.18858 0.0
O107 O 1.00353 0.06991 0.24796 0.0
O108 O 0.0864 0.14835 0.30663 0.0
O109 O 0.05866 0.15093 0.25099 0.0
O110 O 0.02312 0.07362 0.28186 0.0
O111 O 0.04352 0.08317 0.33983 0.0
C112 C 0.03561 0.06351 0.31389 0.0
O113 O 0.95437 0.14438 0.26482 0.0
O114 O 0.92859 0.12865 0.21129 0.0
C115 C 0.97602 0.15869 0.3341 0.0
C116 C 0.9267 0.14316 0.2427 0.0
Zn117 Zn 0.53462 0.37968 0.69307 0.0
Zn118 Zn 0.47169 0.38072 0.82199 0.0
Zn119 Zn 0.50318 0.37849 0.75724 0.0
C120 C 0.48486 0.4432 0.80577 0.0
C121 C 0.42249 0.35299 0.77272 0.0
O122 O 0.55522 0.35236 0.76355 0.0
O123 O 0.58214 0.36387 0.70919 0.0
C124 C 0.52359 0.44249 0.70891 0.0
O125 O 0.49453 0.42931 0.77464 0.0
O126 O 0.47621 0.42667 0.83435 0.0
O127 O 0.42389 0.36553 0.80533 0.0
O128 O 0.45017 0.35397 0.75064 0.0
O129 O 0.53126 0.42552 0.6804 0.0
O130 O 0.51384 0.4291 0.74033 0.0
O131 O 0.46746 0.35386 0.71508 0.0
O132 O 0.50323 0.34967 0.66513 0.0
C133 C 0.47354 0.34377 0.68101 0.0
O134 O 0.53779 0.35253 0.79899 0.0
O135 O 0.50254 0.35012 0.84953 0.0
C136 C 0.58296 0.35093 0.74157 0.0
C137 C 0.53162 0.3429 0.83323 0.0
Zn138 Zn 0.03647 0.88294 0.83076 0.0
Zn139 Zn 0.96895 0.87478 0.70167 0.0
Zn140 Zn 1.00304 0.8771 0.76655 0.0
C141 C 0.97734 0.93881 0.71657 0.0
C142 C 0.92471 0.84452 0.75417 0.0
O143 O 0.0562 0.85316 0.76031 0.0
O144 O 0.08356 0.86636 0.81396 0.0
C145 C 0.02191 0.94432 0.8102 0.0
O146 O 0.99017 0.92658 0.7474 0.0
O147 O 0.96782 0.92093 0.68945 0.0
O148 O 0.92407 0.85492 0.7205 0.0
O149 O 0.95239 0.84945 0.77554 0.0
O150 O 0.03249 0.92944 0.83931 0.0
O151 O 0.0109 0.92874 0.78069 0.0
O152 O 0.9703 0.8518 0.81059 0.0
O153 O 0.00577 0.85402 0.8611 0.0
C154 C 0.97704 0.84463 0.84555 0.0
O155 O 0.03873 0.85282 0.72466 0.0
O156 O 1.00375 0.84754 0.67415 0.0
C157 C 0.08422 0.85268 0.78197 0.0
C158 C 0.03357 0.8428 0.69036 0.0
Zn159 Zn 0.53771 0.63337 0.19823 0.0
Zn160 Zn 0.48168 0.6167 0.32808 0.0
Zn161 Zn 0.51006 0.62385 0.26124 0.0
C162 C 0.54148 0.65435 0.34004 0.0
C163 C 0.49481 0.55545 0.30226 0.0
O164 O 0.46888 0.64505 0.22215 0.0
O165 O 0.49478 0.63806 0.16618 0.0
C166 C 0.57379 0.6742 0.24346 0.0
O167 O 0.54459 0.64908 0.30403 0.0
O168 O 0.51491 0.64345 0.3582 0.0
O169 O 0.48536 0.56985 0.33215 0.0
O170 O 0.50501 0.57139 0.27269 0.0
O171 O 0.56536 0.67267 0.20878 0.0
O172 O 0.55838 0.65552 0.26775 0.0
O173 O 0.52833 0.57618 0.24108 0.0
O174 O 0.56508 0.59286 0.19595 0.0
C175 C 0.55327 0.57047 0.21654 0.0
O176 O 0.45537 0.64564 0.25923 0.0
O177 O 0.43372 0.63436 0.3163 0.0
C178 C 0.46771 0.64602 0.18549 0.0
C179 C 0.42965 0.64671 0.28384 0.0
H180 H 0.11641 0.86509 0.33057 0.0
H181 H 0.15521 0.92322 0.42354 0.0
H182 H 0.08231 0.91101 0.30605 0.0
H183 H 0.12151 0.96851 0.3994 0.0
H184 H 0.02921 0.03126 0.38002 0.0
H185 H 0.0562 0.98013 0.39605 0.0
H186 H 0.08996 0.96817 0.27936 0.0
H187 H 0.06226 0.01964 0.26314 0.0
C188 C 0.11804 0.88774 0.34541 0.0
C189 C 0.138 0.89047 0.3793 0.0
C190 C 0.09846 0.91391 0.33147 0.0
C191 C 0.09852 0.94309 0.35134 0.0
C192 C 0.12001 0.94608 0.38407 0.0
C193 C 0.13945 0.92016 0.39784 0.0
C194 C 0.0416 0.01736 0.35757 0.0
C195 C 0.04392 0.02948 0.32044 0.0
C196 C 0.05729 0.9882 0.36678 0.0
C197 C 0.07606 0.97058 0.33919 0.0
C198 C 0.0758 0.98132 0.30124 0.0
C199 C 0.05982 0.01066 0.29192 0.0
H200 H 0.44622 0.63744 0.88327 0.0
H201 H 0.35123 0.60158 0.82656 0.0
H202 H 0.48106 0.59309 0.85755 0.0
H203 H 0.38622 0.55744 0.80052 0.0
H204 H 0.45931 0.48321 0.75059 0.0
H205 H 0.43793 0.53808 0.75987 0.0
H206 H 0.47644 0.53583 0.87582 0.0
H207 H 0.49754 0.48141 0.8665 0.0
C208 C 0.43289 0.62036 0.86485 0.0
C209 C 0.39577 0.6227 0.85758 0.0
C210 C 0.4529 0.59505 0.85 0.0
C211 C 0.43632 0.57158 0.82735 0.0
C212 C 0.39987 0.57528 0.81761 0.0
C213 C 0.37978 0.60058 0.8326 0.0
C214 C 0.46426 0.49495 0.77757 0.0
C215 C 0.48003 0.47815 0.80787 0.0
C216 C 0.45173 0.52618 0.783 0.0
C217 C 0.45526 0.5412 0.81865 0.0
C218 C 0.47355 0.52512 0.84792 0.0
C219 C 0.48555 0.49388 0.84266 0.0
H220 H 0.60868 0.64005 0.70843 0.0
H221 H 0.62921 0.59097 0.6026 0.0
H222 H 0.57348 0.59378 0.73083 0.0
H223 H 0.59471 0.54542 0.6246 0.0
H224 H 0.50745 0.48047 0.64928 0.0
H225 H 0.53155 0.53353 0.63659 0.0
H226 H 0.57999 0.53535 0.74832 0.0
H227 H 0.55455 0.48229 0.76145 0.0
C228 C 0.60585 0.61936 0.69014 0.0
C229 C 0.6211 0.61933 0.6535 0.0
C230 C 0.58568 0.59299 0.70287 0.0
C231 C 0.58049 0.5663 0.67909 0.0
C232 C 0.59704 0.56601 0.64315 0.0
C233 C 0.617 0.59209 0.63056 0.0
C234 C 0.52229 0.49264 0.67155 0.0
C235 C 0.52953 0.47725 0.70611 0.0
C236 C 0.53636 0.5229 0.66422 0.0
C237 C 0.55866 0.53818 0.69099 0.0
C238 C 0.56308 0.52411 0.72706 0.0
C239 C 0.54849 0.4938 0.73461 0.0
H240 H 0.96308 0.85535 0.153 0.0
H241 H 0.86625 0.89241 0.2044 0.0
H242 H 0.99679 0.90125 0.17703 0.0
H243 H 0.9001 0.93801 0.2288 0.0
H244 H 0.97004 0.01561 0.27599 0.0
H245 H 0.95061 0.95972 0.26994 0.0
H246 H 0.99186 0.95761 0.15507 0.0
H247 H 0.01082 0.01306 0.16113 0.0
C248 C 0.94908 0.87305 0.16987 0.0
C249 C 0.9118 0.87051 0.17614 0.0
C250 C 0.96845 0.89923 0.1838 0.0
C251 C 0.95107 0.92337 0.20453 0.0
C252 C 0.91438 0.91964 0.21326 0.0
C253 C 0.89493 0.89351 0.19917 0.0
C254 C 0.97602 0.00273 0.25002 0.0
C255 C 0.99176 0.01856 0.21894 0.0
C256 C 0.96464 0.9709 0.24642 0.0
C257 C 0.9694 0.95437 0.21191 0.0
C258 C 0.98801 0.96953 0.18213 0.0
C259 C 0.9988 0.00134 0.18552 0.0
H260 H 0.84434 0.09865 0.68903 0.0
H261 H 0.94194 0.13286 0.63598 0.0
H262 H 0.87742 0.05358 0.71577 0.0
H263 H 0.97468 0.08741 0.66205 0.0
H264 H 0.95111 0.98002 0.77015 0.0
H265 H 0.92955 0.03468 0.75898 0.0
H266 H 0.96718 0.02938 0.64291 0.0
H267 H 0.98816 0.97508 0.65398 0.0
C268 C 0.87299 0.09703 0.68383 0.0
C269 C 0.89032 0.11905 0.65974 0.0
C270 C 0.89195 0.07121 0.69921 0.0
C271 C 0.92855 0.06683 0.69066 0.0
C272 C 0.94638 0.08998 0.6687 0.0
C273 C 0.92754 0.11588 0.65359 0.0
C274 C 0.95561 0.991 0.74265 0.0
C275 C 0.97125 0.97347 0.71288 0.0
C276 C 0.94306 0.02209 0.73618 0.0
C277 C 0.94657 0.03622 0.70004 0.0
C278 C 0.96438 0.01929 0.67115 0.0
C279 C 0.97628 0.98816 0.67741 0.0
H280 H 0.62237 0.36901 0.19923 0.0
H281 H 0.65509 0.4197 0.09801 0.0
H282 H 0.59866 0.41904 0.226 0.0
H283 H 0.6316 0.46923 0.12443 0.0
H284 H 0.62142 0.55727 0.19521 0.0
H285 H 0.64703 0.50565 0.17885 0.0
H286 H 0.54729 0.45931 0.2095 0.0
H287 H 0.52139 0.51155 0.22524 0.0
C288 C 0.62472 0.39088 0.18293 0.0
C289 C 0.64051 0.39057 0.14657 0.0
C290 C 0.61096 0.41935 0.19807 0.0
C291 C 0.61343 0.44801 0.17735 0.0
C292 C 0.62966 0.4476 0.14125 0.0
C293 C 0.64291 0.41924 0.12601 0.0
C294 C 0.605 0.53606 0.19889 0.0
C295 C 0.5693 0.5384 0.2117 0.0
C296 C 0.6197 0.50651 0.18949 0.0
C297 C 0.59908 0.4785 0.19257 0.0
C298 C 0.56392 0.48051 0.20718 0.0
C299 C 0.54912 0.51031 0.21649 0.0
H300 H 0.45259 0.35944 0.37126 0.0
H301 H 0.35515 0.40113 0.32693 0.0
H302 H 0.48747 0.40376 0.34502 0.0
H303 H 0.38974 0.44563 0.30122 0.0
H304 H 0.45735 0.52109 0.24979 0.0
H305 H 0.43411 0.46671 0.25792 0.0
H306 H 0.4931 0.45867 0.3635 0.0
H307 H 0.51682 0.5124 0.35454 0.0
C308 C 0.43869 0.37794 0.35556 0.0
C309 C 0.40107 0.37699 0.35154 0.0
C310 C 0.45865 0.40334 0.34053 0.0
C311 C 0.44145 0.4285 0.3213 0.0
C312 C 0.40404 0.42653 0.31539 0.0
C313 C 0.38411 0.40103 0.33026 0.0
C314 C 0.46648 0.50703 0.27379 0.0
C315 C 0.48933 0.5206 0.30122 0.0
C316 C 0.45279 0.4761 0.27879 0.0
C317 C 0.46139 0.45835 0.31158 0.0
C318 C 0.48619 0.47133 0.33766 0.0
C319 C 0.49982 0.50217 0.33261 0.0
H320 H 0.05402 0.14316 0.87296 0.0
H321 H 0.1515 0.10623 0.82291 0.0
H322 H 0.02083 0.0968 0.84944 0.0
H323 H 0.1181 0.06007 0.79892 0.0
H324 H 0.04667 0.98198 0.7523 0.0
H325 H 0.0668 0.03775 0.75777 0.0
H326 H 0.02743 0.04052 0.87334 0.0
H327 H 0.00787 0.98514 0.86791 0.0
C328 C 0.06825 0.1254 0.85639 0.0
C329 C 0.10557 0.12804 0.8505 0.0
C330 C 0.04918 0.09896 0.84279 0.0
C331 C 0.06693 0.07465 0.82271 0.0
C332 C 0.10362 0.07855 0.81405 0.0
C333 C 0.12278 0.10498 0.82786 0.0
C334 C 0.04134 0.99496 0.77836 0.0
C335 C 0.02579 0.97939 0.80974 0.0
C336 C 0.0531 0.02671 0.7816 0.0
C337 C 0.04888 0.04343 0.81605 0.0
C338 C 0.03079 0.02844 0.84631 0.0
C339 C 0.01967 0.99669 0.84329 0.0
H340 H 0.07293 0.19184 0.96002 0.0
H341 H 0.18407 0.18245 0.99347 0.0
H342 H 0.05512 0.19453 0.02626 0.0
H343 H 0.16632 0.18594 0.06067 0.0
H344 H 0.10286 0.13624 0.16387 0.0
H345 H 0.13462 0.15098 0.10546 0.0
H346 H 0.05556 0.2243 0.08398 0.0
H347 H 0.02314 0.20827 0.14118 0.0
C348 C 0.09365 0.19086 0.98168 0.0
C349 C 0.12982 0.18659 0.97156 0.0
C350 C 0.08353 0.19282 0.01979 0.0
C351 C 0.1093 0.19061 0.04903 0.0
C352 C 0.14578 0.18759 0.03891 0.0
C353 C 0.15597 0.1858 1.00049 0.0
C354 C 0.09331 0.15641 0.14745 0.0
C355 C 0.06054 0.17103 0.15668 0.0
C356 C 0.11139 0.16484 0.11386 0.0
C357 C 0.09702 0.18821 0.08936 0.0
C358 C 0.06677 0.20554 0.10155 0.0
C359 C 0.04844 0.19672 0.13459 0.0
H360 H 0.32053 0.32668 0.49444 0.0
H361 H 0.43053 0.31008 0.4609 0.0
H362 H 0.33803 0.32198 0.56165 0.0
H363 H 0.4481 0.30598 0.52717 0.0
H364 H 0.40693 0.36693 0.66484 0.0
H365 H 0.37342 0.35482 0.6066 0.0
H366 H 0.44434 0.27533 0.58466 0.0
H367 H 0.47853 0.28852 0.64175 0.0
C368 C 0.34828 0.3215 0.50144 0.0
C369 C 0.37425 0.31899 0.47249 0.0
C370 C 0.35834 0.31899 0.53986 0.0
C371 C 0.39444 0.31346 0.54995 0.0
C372 C 0.41993 0.30965 0.52069 0.0
C373 C 0.40998 0.31239 0.48258 0.0
C374 C 0.4142 0.34601 0.64842 0.0
C375 C 0.44541 0.3288 0.65743 0.0
C376 C 0.39513 0.33911 0.61492 0.0
C377 C 0.40691 0.3147 0.59029 0.0
C378 C 0.43521 0.29489 0.60235 0.0
C379 C 0.45452 0.30212 0.63533 0.0
H380 H 0.69526 0.31597 1.00873 0.0
H381 H 0.58666 0.31777 0.05168 0.0
H382 H 0.67197 0.31029 0.94345 0.0
H383 H 0.56345 0.31226 0.9874 0.0
H384 H 0.52208 0.29096 0.87758 0.0
H385 H 0.55849 0.27687 0.93269 0.0
H386 H 0.63817 0.34664 0.89904 0.0
H387 H 0.60205 0.35979 0.84286 0.0
C388 C 0.66649 0.31446 1.00421 0.0
C389 C 0.64267 0.31736 0.03507 0.0
C390 C 0.65317 0.3114 0.96695 0.0
C391 C 0.61586 0.31062 0.96016 0.0
C392 C 0.59232 0.31215 0.99147 0.0
C393 C 0.60555 0.31558 0.02836 0.0
C394 C 0.54818 0.30219 0.88105 0.0
C395 C 0.55915 0.32666 0.85633 0.0
C396 C 0.56887 0.29439 0.91281 0.0
C397 C 0.60063 0.31138 0.92094 0.0
C398 C 0.61377 0.33317 0.89369 0.0
C399 C 0.59317 0.34067 0.86143 0.0
H400 H 0.81488 0.17009 0.5144 0.0
H401 H 0.9237 0.18654 0.55241 0.0
H402 H 0.83475 0.17534 0.44786 0.0
H403 H 0.94351 0.1916 0.48686 0.0
H404 H 0.97654 0.2137 0.37421 0.0
H405 H 0.93968 0.22471 0.42997 0.0
H406 H 0.87367 0.14244 0.4041 0.0
H407 H 0.91003 0.13225 0.34727 0.0
C408 C 0.84286 0.17537 0.5085 0.0
C409 C 0.86784 0.17776 0.53844 0.0
C410 C 0.85425 0.17822 0.47051 0.0
C411 C 0.89066 0.18413 0.46199 0.0
C412 C 0.91516 0.18767 0.49225 0.0
C413 C 0.90393 0.18444 0.52988 0.0
C414 C 0.95307 0.19892 0.37945 0.0
C415 C 0.94627 0.17199 0.35677 0.0
C416 C 0.93219 0.20498 0.41162 0.0
C417 C 0.9045 0.18383 0.42219 0.0
C418 C 0.8949 0.15913 0.39686 0.0
C419 C 0.91561 0.15333 0.36419 0.0
H420 H 0.83056 0.81647 0.03565 0.0
H421 H 0.94204 0.80424 0.06635 0.0
H422 H 0.84682 0.8135 0.96801 0.0
H423 H 0.9584 0.80197 0.99962 0.0
H424 H 0.98743 0.78942 0.88344 0.0
H425 H 0.95585 0.77317 0.94107 0.0
H426 H 0.87868 0.84876 0.92351 0.0
H427 H 0.90961 0.86384 0.86472 0.0
C428 C 0.8584 0.81253 0.02793 0.0
C429 C 0.8851 0.81081 0.05622 0.0
C430 C 0.86775 0.81106 0.98925 0.0
C431 C 0.90391 0.80744 0.97822 0.0
C432 C 0.9302 0.8042 1.0068 0.0
C433 C 0.92092 0.80587 0.04519 0.0
C434 C 0.96266 0.80146 0.89097 0.0
C435 C 0.9509 0.82785 0.86985 0.0
C436 C 0.94482 0.79249 0.92426 0.0
C437 C 0.91541 0.81032 0.93766 0.0
C438 C 0.90126 0.83449 0.91414 0.0
C439 C 0.91885 0.84311 0.88033 0.0
H440 H 0.58806 0.70006 0.55558 0.0
H441 H 0.69713 0.68165 0.52041 0.0
H442 H 0.56938 0.7035 0.48962 0.0
H443 H 0.67865 0.68567 0.45344 0.0
H444 H 0.53474 0.71141 0.37506 0.0
H445 H 0.57007 0.72937 0.42959 0.0
H446 H 0.64349 0.6508 0.41236 0.0
H447 H 0.6089 0.63407 0.35664 0.0
C448 C 0.60824 0.69765 0.53353 0.0
C449 C 0.64392 0.69039 0.54301 0.0
C450 C 0.59765 0.69989 0.49557 0.0
C451 C 0.62248 0.69482 0.46594 0.0
C452 C 0.65879 0.68947 0.4755 0.0
C453 C 0.66945 0.68742 0.51376 0.0
C454 C 0.5595 0.69906 0.38188 0.0
C455 C 0.56923 0.67144 0.36186 0.0
C456 C 0.5795 0.70903 0.4134 0.0
C457 C 0.609 0.69095 0.42618 0.0
C458 C 0.62098 0.66535 0.40345 0.0
C459 C 0.60123 0.65573 0.37142 0.0
H460 H 0.41893 0.69209 0.97219 0.0
H461 H 0.31306 0.6569 1.00009 0.0
H462 H 0.43472 0.69295 0.03954 0.0
H463 H 0.32902 0.65724 0.06808 0.0
H464 H 0.45612 0.70551 0.15922 0.0
H465 H 0.42007 0.71822 0.10304 0.0
H466 H 0.37507 0.62303 0.10485 0.0
H467 H 0.41119 0.61055 0.16112 0.0
C468 C 0.39887 0.68506 0.99295 0.0
C469 C 0.36487 0.67441 0.98113 0.0
C470 C 0.40775 0.68577 0.03152 0.0
C471 C 0.38301 0.67535 0.05917 0.0
C472 C 0.34854 0.66551 0.04741 0.0
C473 C 0.3394 0.66538 1.00866 0.0
C474 C 0.43701 0.68798 0.14878 0.0
C475 C 0.43604 0.65721 0.16452 0.0
C476 C 0.41672 0.69508 0.11639 0.0
C477 C 0.39525 0.67143 0.09917 0.0
C478 C 0.39121 0.64179 0.11756 0.0
C479 C 0.41169 0.63467 0.14991 0.0
H480 H 0.16855 0.87547 0.51181 0.0
H481 H 0.14774 0.77539 0.49155 0.0
H482 H 0.14605 0.87009 0.57645 0.0
H483 H 0.12609 0.76965 0.55693 0.0
H484 H 0.02776 0.79818 0.63498 0.0
H485 H 0.07028 0.78867 0.5839 0.0
H486 H 0.14845 0.84856 0.64079 0.0
H487 H 0.10517 0.8585 0.69193 0.0
C488 C 0.15987 0.85212 0.52151 0.0
C489 C 0.15919 0.82601 0.49634 0.0
C490 C 0.1474 0.84891 0.55881 0.0
C491 C 0.13389 0.81947 0.57189 0.0
C492 C 0.13589 0.79275 0.54761 0.0
C493 C 0.14849 0.79597 0.51023 0.0
C494 C 0.05448 0.80842 0.63725 0.0
C495 C 0.06302 0.82935 0.66718 0.0
C496 C 0.07902 0.80285 0.60799 0.0
C497 C 0.11264 0.81829 0.60783 0.0
C498 C 0.12254 0.8367 0.63978 0.0
C499 C 0.09794 0.84211 0.66932 0.0
H500 H 0.22822 0.29134 0.34727 0.0
H501 H 0.29343 0.25518 0.25533 0.0
H502 H 0.17651 0.26147 0.32285 0.0
H503 H 0.24171 0.2246 0.23134 0.0
H504 H 0.15527 0.1403 0.26259 0.0
H505 H 0.20693 0.1766 0.26481 0.0
H506 H 0.13508 0.25735 0.2614 0.0
H507 H 0.08342 0.22081 0.25803 0.0
C508 C 0.23141 0.27715 0.32172 0.0
C509 C 0.26486 0.27528 0.30334 0.0
C510 C 0.20175 0.26032 0.30753 0.0
C511 C 0.20511 0.24089 0.27508 0.0
C512 C 0.23841 0.2395 0.2563 0.0
C513 C 0.26791 0.2569 0.27005 0.0
C514 C 0.15074 0.16579 0.26029 0.0
C515 C 0.1156 0.17788 0.25962 0.0
C516 C 0.18022 0.18656 0.26179 0.0
C517 C 0.1749 0.21974 0.26369 0.0
C518 C 0.13983 0.23185 0.26009 0.0
C519 C 0.11037 0.21102 0.2577 0.0
H520 H 0.2451 0.25943 0.85722 0.0
H521 H 0.25622 0.20393 0.75431 0.0
H522 H 0.29121 0.296 0.83518 0.0
H523 H 0.30255 0.24128 0.73161 0.0
H524 H 0.4174 0.29322 0.74156 0.0
H525 H 0.36503 0.25773 0.74696 0.0
H526 H 0.30151 0.33681 0.78814 0.0
H527 H 0.35397 0.37156 0.78414 0.0
C528 C 0.25721 0.25514 0.82968 0.0
C529 C 0.24702 0.22874 0.80749 0.0
C530 C 0.2835 0.27637 0.81679 0.0
C531 C 0.30032 0.27188 0.78131 0.0
C532 C 0.29016 0.24542 0.75904 0.0
C533 C 0.26363 0.22411 0.77198 0.0
C534 C 0.39184 0.30312 0.75041 0.0
C535 C 0.38969 0.33493 0.7629 0.0
C536 C 0.36187 0.28282 0.75367 0.0
C537 C 0.32937 0.29424 0.76913 0.0
C538 C 0.32642 0.327 0.77731 0.0
C539 C 0.35632 0.34703 0.77458 0.0
H540 H 0.7413 0.19585 0.75528 0.0
H541 H 0.75449 0.25239 0.65347 0.0
H542 H 0.69728 0.23455 0.77933 0.0
H543 H 0.71062 0.29036 0.67686 0.0
H544 H 0.65232 0.36733 0.73027 0.0
H545 H 0.70289 0.3308 0.72496 0.0
H546 H 0.63564 0.25347 0.76504 0.0
H547 H 0.58521 0.2907 0.77169 0.0
C548 C 0.73483 0.21655 0.73813 0.0
C549 C 0.75133 0.22107 0.70254 0.0
C550 C 0.70962 0.23863 0.75184 0.0
C551 C 0.70071 0.26579 0.73028 0.0
C552 C 0.71742 0.27017 0.69471 0.0
C553 C 0.7424 0.24816 0.68105 0.0
C554 C 0.64877 0.34278 0.73933 0.0
C555 C 0.61489 0.3317 0.75102 0.0
C556 C 0.67758 0.32174 0.73585 0.0
C557 C 0.67298 0.289 0.7433 0.0
C558 C 0.64006 0.27852 0.75886 0.0
C559 C 0.61119 0.29983 0.76286 0.0
H560 H 0.75547 0.241 0.14996 0.0
H561 H 0.76226 0.29338 0.25561 0.0
H562 H 0.79968 0.20321 0.17327 0.0
H563 H 0.80658 0.25493 0.27947 0.0
H564 H 0.9208 0.20261 0.27465 0.0
H565 H 0.86946 0.23863 0.26694 0.0
H566 H 0.80703 0.16103 0.2195 0.0
H567 H 0.85846 0.12564 0.22611 0.0
C568 C 0.7662 0.24432 0.17834 0.0
C569 C 0.7554 0.2702 0.20096 0.0
C570 C 0.79138 0.22243 0.19192 0.0
C571 C 0.80643 0.22578 0.22849 0.0
C572 C 0.79557 0.25169 0.25119 0.0
C573 C 0.77018 0.27361 0.23758 0.0
C574 C 0.89565 0.19309 0.26388 0.0
C575 C 0.89367 0.16153 0.25045 0.0
C576 C 0.86626 0.21372 0.25929 0.0
C577 C 0.8345 0.20291 0.2415 0.0
C578 C 0.83146 0.17037 0.23216 0.0
C579 C 0.86078 0.14999 0.23634 0.0
H580 H 0.71828 0.7437 0.76563 0.0
H581 H 0.78684 0.70992 0.67517 0.0
H582 H 0.7687 0.77485 0.79182 0.0
H583 H 0.83728 0.74014 0.70192 0.0
H584 H 0.92729 0.78156 0.77175 0.0
H585 H 0.87627 0.74433 0.76738 0.0
H586 H 0.80364 0.82401 0.75646 0.0
H587 H 0.85467 0.86097 0.7594 0.0
C588 C 0.74428 0.74253 0.7518 0.0
C589 C 0.74865 0.72476 0.7182 0.0
C590 C 0.77302 0.76024 0.76679 0.0
C591 C 0.80686 0.75962 0.74904 0.0
C592 C 0.81157 0.74066 0.71643 0.0
C593 C 0.78266 0.72364 0.70093 0.0
C594 C 0.90024 0.79104 0.77017 0.0
C595 C 0.89468 0.82401 0.7662 0.0
C596 C 0.87117 0.7698 0.7673 0.0
C597 C 0.83615 0.78138 0.76135 0.0
C598 C 0.83032 0.81451 0.76132 0.0
C599 C 0.85944 0.83564 0.76319 0.0
H600 H 0.77823 0.73863 0.19582 0.0
H601 H 0.73703 0.8247 0.24737 0.0
H602 H 0.72561 0.70905 0.21854 0.0
H603 H 0.68394 0.79516 0.26949 0.0
H604 H 0.57903 0.73677 0.22617 0.0
H605 H 0.63378 0.76909 0.2267 0.0
H606 H 0.69075 0.69216 0.28171 0.0
H607 H 0.63523 0.66005 0.2822 0.0
C608 C 0.75808 0.75114 0.2123 0.0
C609 C 0.76141 0.78403 0.21949 0.0
C610 C 0.72818 0.73415 0.22565 0.0
C611 C 0.70083 0.74983 0.24589 0.0
C612 C 0.70472 0.78252 0.25404 0.0
C613 C 0.73497 0.79938 0.24132 0.0
C614 C 0.60289 0.72733 0.23981 0.0
C615 C 0.60306 0.69609 0.25427 0.0
C616 C 0.63422 0.74577 0.24007 0.0
C617 C 0.66653 0.73298 0.25393 0.0
C618 C 0.66616 0.70248 0.27075 0.0
C619 C 0.63444 0.68427 0.27136 0.0
H620 H 0.26141 0.79349 0.2679 0.0
H621 H 0.25587 0.74298 0.37486 0.0
H622 H 0.30634 0.75518 0.24493 0.0
H623 H 0.30078 0.70561 0.35265 0.0
H624 H 0.36256 0.62855 0.30375 0.0
H625 H 0.31001 0.66273 0.30922 0.0
H626 H 0.36903 0.74 0.25644 0.0
H627 H 0.42132 0.70492 0.24945 0.0
C628 C 0.26969 0.77416 0.28639 0.0
C629 C 0.25509 0.77125 0.32312 0.0
C630 C 0.29547 0.75232 0.27331 0.0
C631 C 0.30697 0.72707 0.29673 0.0
C632 C 0.29202 0.72422 0.33338 0.0
C633 C 0.26639 0.74592 0.34635 0.0
C634 C 0.36386 0.65252 0.29217 0.0
C635 C 0.39601 0.66427 0.2766 0.0
C636 C 0.33391 0.67225 0.29568 0.0
C637 C 0.33565 0.70446 0.28448 0.0
C638 C 0.36677 0.71536 0.26553 0.0
C639 C 0.39672 0.69529 0.26142 0.0
H640 H 0.25671 0.75263 0.86619 0.0
H641 H 0.24595 0.70042 0.76076 0.0
H642 H 0.21215 0.79069 0.84474 0.0
H643 H 0.20106 0.73926 0.73874 0.0
H644 H 0.08735 0.79314 0.74984 0.0
H645 H 0.1384 0.75635 0.75456 0.0
H646 H 0.20449 0.83303 0.79845 0.0
H647 H 0.1534 0.86914 0.79489 0.0
C648 C 0.24499 0.74936 0.83825 0.0
C649 C 0.25482 0.72345 0.81517 0.0
C650 C 0.2196 0.77144 0.82573 0.0
C651 C 0.20332 0.7683 0.78975 0.0
C652 C 0.21309 0.74234 0.76658 0.0
C653 C 0.23879 0.7202 0.77912 0.0
C654 C 0.11318 0.80226 0.7592 0.0
C655 C 0.11642 0.83377 0.77255 0.0
C656 C 0.1424 0.78121 0.76203 0.0
C657 C 0.17519 0.79156 0.77799 0.0
C658 C 0.17929 0.82406 0.78716 0.0
C659 C 0.15016 0.84484 0.78477 0.0
loop_
_geom_bond_atom_site_label_1
_geom_bond_atom_site_label_2
_geom_bond_distance
_geom_bond_site_symmetry_2
_ccdc_geom_bond_type
H0 C5 0.930 . S
H1 C8 0.930 . S
H2 C10 0.930 . S
H3 C4 1.016 . S
C4 H3 1.016 . S
C4 N11 1.286 . S
C5 H0 0.930 . S
C5 C6 1.397 . S
C5 C7 1.361 . S
C6 C5 1.397 . S
C6 C10 1.390 . S
C7 C5 1.361 . S
C7 C8 1.393 . S
C7 N11 1.413 . S
C8 H1 0.930 . S
C8 C7 1.393 . S
C8 C9 1.399 . S
C9 C8 1.399 . S
C9 C10 1.381 . S
C10 H2 0.930 . S
C10 C6 1.390 . S
C10 C9 1.381 . S
N11 C4 1.286 . S
N11 C7 1.413 . S
H12 C17 0.930 . S
H13 C20 0.930 . S
H14 C22 0.930 . S
H15 C16 1.016 . S
C16 H15 1.016 . S
C16 N23 1.286 . S
C17 H12 0.930 . S
C17 C18 1.397 . S
C17 C19 1.361 . S
C18 C17 1.397 . S
C18 C22 1.390 . S
C19 C17 1.361 . S
C19 C20 1.393 . S
C19 N23 1.413 . S
C20 H13 0.930 . S
C20 C19 1.393 . S
C20 C21 1.399 . S
C21 C20 1.399 . S
C21 C22 1.381 . S
C22 H14 0.930 . S
C22 C18 1.390 . S
C22 C21 1.381 . S
N23 C16 1.286 . S
N23 C19 1.413 . S
H24 C29 0.930 . S
H25 C32 0.930 . S
H26 C34 0.930 . S
H27 C28 1.016 . S
C28 H27 1.016 . S
C28 N35 1.286 . S
C29 H24 0.930 . S
C29 C30 1.397 . S
C29 C31 1.361 . S
C30 C29 1.397 . S
C30 C34 1.390 . S
C31 C29 1.361 . S
C31 C32 1.393 . S
C31 N35 1.413 . S
C32 H25 0.930 . S
C32 C31 1.393 . S
C32 C33 1.399 . S
C33 C32 1.399 . S
C33 C34 1.381 . S
C34 H26 0.930 . S
C34 C30 1.390 . S
C34 C33 1.381 . S
N35 C28 1.286 . S
N35 C31 1.413 . S
H36 C41 0.930 . S
H37 C44 0.930 . S
H38 C46 0.930 . S
H39 C40 1.016 . S
C40 H39 1.016 . S
C40 N47 1.286 . S
C41 H36 0.930 . S
C41 C42 1.397 . S
C41 C43 1.361 . S
C42 C41 1.397 . S
C42 C46 1.390 . S
C43 C41 1.361 . S
C43 C44 1.393 . S
C43 N47 1.413 . S
C44 H37 0.930 . S
C44 C43 1.393 . S
C44 C45 1.399 . S
C45 C44 1.399 . S
C45 C46 1.381 . S
C46 H38 0.930 . S
C46 C42 1.390 . S
C46 C45 1.381 . S
N47 C40 1.286 . S
N47 C43 1.413 . S
H48 C53 0.930 . S
H49 C56 0.930 . S
H50 C58 0.930 . S
H51 C52 1.016 . S
C52 H51 1.016 . S
C52 N59 1.286 . S
C53 H48 0.930 . S
C53 C54 1.397 . S
C53 C55 1.361 . S
C54 C53 1.397 . S
C54 C58 1.390 . S
C55 C53 1.361 . S
C55 C56 1.393 . S
C55 N59 1.413 . S
C56 H49 0.930 . S
C56 C55 1.393 . S
C56 C57 1.399 . S
C57 C56 1.399 . S
C57 C58 1.381 . S
C58 H50 0.930 . S
C58 C54 1.390 . S
C58 C57 1.381 . S
N59 C52 1.286 . S
N59 C55 1.413 . S
H60 C65 0.930 . S
H61 C68 0.930 . S
H62 C70 0.930 . S
H63 C64 1.016 . S
C64 H63 1.016 . S
C64 N71 1.286 . S
C65 H60 0.930 . S
C65 C66 1.397 . S
C65 C67 1.361 . S
C66 C65 1.397 . S
C66 C70 1.390 . S
C67 C65 1.361 . S
C67 C68 1.393 . S
C67 N71 1.413 . S
C68 H61 0.930 . S
C68 C67 1.393 . S
C68 C69 1.399 . S
C69 C68 1.399 . S
C69 C70 1.381 . S
C70 H62 0.930 . S
C70 C66 1.390 . S
C70 C69 1.381 . S
N71 C64 1.286 . S
N71 C67 1.413 . S
H72 C77 0.930 . S
H73 C80 0.930 . S
H74 C82 0.930 . S
H75 C76 1.016 . S
C76 H75 1.016 . S
C76 N83 1.286 . S
C77 H72 0.930 . S
C77 C78 1.397 . S
C77 C79 1.361 . S
C78 C77 1.397 . S
C78 C82 1.390 . S
C79 C77 1.361 . S
C79 C80 1.393 . S
C79 N83 1.413 . S
C80 H73 0.930 . S
C80 C79 1.393 . S
C80 C81 1.399 . S
C81 C80 1.399 . S
C81 C82 1.381 . S
C82 H74 0.930 . S
C82 C78 1.390 . S
C82 C81 1.381 . S
N83 C76 1.286 . S
N83 C79 1.413 . S
H84 C89 0.930 . S
H85 C92 0.930 . S
H86 C94 0.930 . S
H87 C88 1.016 . S
C88 H87 1.016 . S
C88 N95 1.286 . S
C89 H84 0.930 . S
C89 C90 1.397 . S
C89 C91 1.361 . S
C90 C89 1.397 . S
C90 C94 1.390 . S
C91 C89 1.361 . S
C91 C92 1.393 . S
C91 N95 1.413 . S
C92 H85 0.930 . S
C92 C91 1.393 . S
C92 C93 1.399 . S
C93 C92 1.399 . S
C93 C94 1.381 . S
C94 H86 0.930 . S
C94 C90 1.390 . S
C94 C93 1.381 . S
N95 C88 1.286 . S
N95 C91 1.413 . S
Zn96 O102 1.893 1_455 S
Zn96 O108 1.898 . S
Zn96 O111 1.905 . S
Zn97 O105 1.905 1_655 S
Zn97 O106 1.898 . S
Zn97 O114 1.920 . S
Zn98 O101 2.080 1_455 S
Zn98 O104 2.114 . S
Zn98 O107 2.120 1_455 S
Zn98 O109 2.120 . S
Zn98 O110 2.114 . S
Zn98 O113 2.080 1_455 S
C99 O104 1.166 . S
C99 O105 1.182 . S
C100 O106 1.167 . S
C100 O107 1.299 . S
O101 Zn98 2.080 1_655 S
O101 C115 1.305 . S
O102 Zn96 1.893 1_655 S
O102 C115 1.258 . S
C103 O108 1.167 . S
C103 O109 1.299 . S
O104 Zn98 2.114 . S
O104 C99 1.166 . S
O105 Zn97 1.905 1_455 S
O105 C99 1.182 . S
O106 Zn97 1.898 . S
O106 C100 1.167 . S
O107 Zn98 2.120 1_655 S
O107 C100 1.299 . S
O108 Zn96 1.898 . S
O108 C103 1.167 . S
O109 Zn98 2.120 . S
O109 C103 1.299 . S
O110 Zn98 2.114 . S
O110 C112 1.166 . S
O111 Zn96 1.905 . S
O111 C112 1.182 . S
C112 O110 1.166 . S
C112 O111 1.182 . S
O113 Zn98 2.080 1_655 S
O113 C116 1.305 . S
O114 Zn97 1.920 . S
O114 C116 1.234 . S
C115 O101 1.305 . S
C115 O102 1.258 . S
C116 O113 1.305 . S
C116 O114 1.234 . S
Zn117 O123 1.920 . S
Zn117 O129 1.898 . S
Zn117 O132 1.905 . S
Zn118 O126 1.905 . S
Zn118 O127 1.898 . S
Zn118 O135 1.920 . S
Zn119 O122 2.080 . S
Zn119 O125 2.114 . S
Zn119 O128 2.120 . S
Zn119 O130 2.120 . S
Zn119 O131 2.114 . S
Zn119 O134 2.080 . S
C120 O125 1.166 . S
C120 O126 1.182 . S
C121 O127 1.167 . S
C121 O128 1.299 . S
O122 Zn119 2.080 . S
O122 C136 1.305 . S
O123 Zn117 1.920 . S
O123 C136 1.234 . S
C124 O129 1.167 . S
C124 O130 1.299 . S
O125 Zn119 2.114 . S
O125 C120 1.166 . S
O126 Zn118 1.905 . S
O126 C120 1.182 . S
O127 Zn118 1.898 . S
O127 C121 1.167 . S
O128 Zn119 2.120 . S
O128 C121 1.299 . S
O129 Zn117 1.898 . S
O129 C124 1.167 . S
O130 Zn119 2.120 . S
O130 C124 1.299 . S
O131 Zn119 2.114 . S
O131 C133 1.166 . S
O132 Zn117 1.905 . S
O132 C133 1.182 . S
C133 O131 1.166 . S
C133 O132 1.182 . S
O134 Zn119 2.080 . S
O134 C137 1.305 . S
O135 Zn118 1.920 . S
O135 C137 1.234 . S
C136 O122 1.305 . S
C136 O123 1.234 . S
C137 O134 1.305 . S
C137 O135 1.234 . S
Zn138 O144 1.920 . S
Zn138 O150 1.898 . S
Zn138 O153 1.905 1_455 S
Zn139 O147 1.905 . S
Zn139 O148 1.898 . S
Zn139 O156 1.920 1_655 S
Zn140 O143 2.080 . S
Zn140 O146 2.114 1_455 S
Zn140 O149 2.120 1_455 S
Zn140 O151 2.120 . S
Zn140 O152 2.114 1_455 S
Zn140 O155 2.080 . S
C141 O146 1.166 . S
C141 O147 1.182 . S
C142 O148 1.167 . S
C142 O149 1.299 . S
O143 Zn140 2.080 . S
O143 C157 1.305 . S
O144 Zn138 1.920 . S
O144 C157 1.234 . S
C145 O150 1.167 . S
C145 O151 1.299 . S
O146 Zn140 2.114 1_655 S
O146 C141 1.166 . S
O147 Zn139 1.905 . S
O147 C141 1.182 . S
O148 Zn139 1.898 . S
O148 C142 1.167 . S
O149 Zn140 2.120 1_655 S
O149 C142 1.299 . S
O150 Zn138 1.898 . S
O150 C145 1.167 . S
O151 Zn140 2.120 . S
O151 C145 1.299 . S
O152 Zn140 2.114 1_655 S
O152 C154 1.166 . S
O153 Zn138 1.905 1_655 S
O153 C154 1.182 . S
C154 O152 1.166 . S
C154 O153 1.182 . S
O155 Zn140 2.080 . S
O155 C158 1.305 . S
O156 Zn139 1.920 1_455 S
O156 C158 1.234 . S
C157 O143 1.305 . S
C157 O144 1.234 . S
C158 O155 1.305 . S
C158 O156 1.234 . S
Zn159 O165 1.920 . S
Zn159 O171 1.898 . S
Zn159 O174 1.905 . S
Zn160 O168 1.905 . S
Zn160 O169 1.898 . S
Zn160 O177 1.920 . S
Zn161 O164 2.080 . S
Zn161 O167 2.114 . S
Zn161 O170 2.120 . S
Zn161 O172 2.120 . S
Zn161 O173 2.114 . S
Zn161 O176 2.080 . S
C162 O167 1.166 . S
C162 O168 1.182 . S
C163 O169 1.167 . S
C163 O170 1.299 . S
O164 Zn161 2.080 . S
O164 C178 1.305 . S
O165 Zn159 1.920 . S
O165 C178 1.234 . S
C166 O171 1.167 . S
C166 O172 1.299 . S
O167 Zn161 2.114 . S
O167 C162 1.166 . S
O168 Zn160 1.905 . S
O168 C162 1.182 . S
O169 Zn160 1.898 . S
O169 C163 1.167 . S
O170 Zn161 2.120 . S
O170 C163 1.299 . S
O171 Zn159 1.898 . S
O171 C166 1.167 . S
O172 Zn161 2.120 . S
O172 C166 1.299 . S
O173 Zn161 2.114 . S
O173 C175 1.166 . S
O174 Zn159 1.905 . S
O174 C175 1.182 . S
C175 O173 1.166 . S
C175 O174 1.182 . S
O176 Zn161 2.080 . S
O176 C179 1.305 . S
O177 Zn160 1.920 . S
O177 C179 1.234 . S
C178 O164 1.305 . S
C178 O165 1.234 . S
C179 O176 1.305 . S
C179 O177 1.234 . S
H180 C188 0.950 . S
H181 C193 0.950 . S
H182 C190 0.950 . S
H183 C192 0.950 . S
H184 C194 0.950 . S
H185 C196 0.950 . S
H186 C198 0.950 . S
H187 C199 0.950 . S
C188 H180 0.950 . S
C188 C189 1.386 . S
C188 C190 1.391 . S
C189 C188 1.386 . S
C189 C193 1.393 . S
C190 H182 0.950 . S
C190 C188 1.391 . S
C190 C191 1.400 . S
C191 C190 1.400 . S
C191 C192 1.398 . S
C191 C197 1.491 . S
C192 H183 0.950 . S
C192 C191 1.398 . S
C192 C193 1.391 . S
C193 H181 0.950 . S
C193 C189 1.393 . S
C193 C192 1.391 . S
C194 H184 0.950 . S
C194 C195 1.386 . S
C194 C196 1.391 1_545 S
C195 C194 1.386 . S
C195 C199 1.393 . S
C196 H185 0.950 . S
C196 C194 1.391 1_565 S
C196 C197 1.400 . S
C197 C191 1.491 . S
C197 C196 1.400 . S
C197 C198 1.398 . S
C198 H186 0.950 . S
C198 C197 1.398 . S
C198 C199 1.391 1_565 S
C199 H187 0.950 . S
C199 C195 1.393 . S
C199 C198 1.391 1_545 S
H200 C208 0.950 . S
H201 C213 0.950 . S
H202 C210 0.950 . S
H203 C212 0.950 . S
H204 C214 0.950 . S
H205 C216 0.950 . S
H206 C218 0.950 . S
H207 C219 0.950 . S
C208 H200 0.950 . S
C208 C209 1.386 . S
C208 C210 1.391 . S
C209 C208 1.386 . S
C209 C213 1.393 . S
C210 H202 0.950 . S
C210 C208 1.391 . S
C210 C211 1.400 . S
C211 C210 1.400 . S
C211 C212 1.398 . S
C211 C217 1.491 . S
C212 H203 0.950 . S
C212 C211 1.398 . S
C212 C213 1.391 . S
C213 H201 0.950 . S
C213 C209 1.393 . S
C213 C212 1.391 . S
C214 H204 0.950 . S
C214 C215 1.386 . S
C214 C216 1.391 . S
C215 C214 1.386 . S
C215 C219 1.393 . S
C216 H205 0.950 . S
C216 C214 1.391 . S
C216 C217 1.400 . S
C217 C211 1.491 . S
C217 C216 1.400 . S
C217 C218 1.398 . S
C218 H206 0.950 . S
C218 C217 1.398 . S
C218 C219 1.391 . S
C219 H207 0.950 . S
C219 C215 1.393 . S
C219 C218 1.391 . S
H220 C228 0.950 . S
H221 C233 0.950 . S
H222 C230 0.950 . S
H223 C232 0.950 . S
H224 C234 0.950 . S
H225 C236 0.950 . S
H226 C238 0.950 . S
H227 C239 0.950 . S
C228 H220 0.950 . S
C228 C229 1.386 . S
C228 C230 1.391 . S
C229 C228 1.386 . S
C229 C233 1.393 . S
C230 H222 0.950 . S
C230 C228 1.391 . S
C230 C231 1.400 . S
C231 C230 1.400 . S
C231 C232 1.398 . S
C231 C237 1.491 . S
C232 H223 0.950 . S
C232 C231 1.398 . S
C232 C233 1.391 . S
C233 H221 0.950 . S
C233 C229 1.393 . S
C233 C232 1.391 . S
C234 H224 0.950 . S
C234 C235 1.386 . S
C234 C236 1.391 . S
C235 C234 1.386 . S
C235 C239 1.393 . S
C236 H225 0.950 . S
C236 C234 1.391 . S
C236 C237 1.400 . S
C237 C231 1.491 . S
C237 C236 1.400 . S
C237 C238 1.398 . S
C238 H226 0.950 . S
C238 C237 1.398 . S
C238 C239 1.391 . S
C239 H227 0.950 . S
C239 C235 1.393 . S
C239 C238 1.391 . S
H240 C248 0.950 . S
H241 C253 0.950 . S
H242 C250 0.950 . S
H243 C252 0.950 . S
H244 C254 0.950 . S
H245 C256 0.950 . S
H246 C258 0.950 . S
H247 C259 0.950 . S
C248 H240 0.950 . S
C248 C249 1.386 . S
C248 C250 1.391 . S
C249 C248 1.386 . S
C249 C253 1.393 . S
C250 H242 0.950 . S
C250 C248 1.391 . S
C250 C251 1.400 . S
C251 C250 1.400 . S
C251 C252 1.398 . S
C251 C257 1.491 . S
C252 H243 0.950 . S
C252 C251 1.398 . S
C252 C253 1.391 . S
C253 H241 0.950 . S
C253 C249 1.393 . S
C253 C252 1.391 . S
C254 H244 0.950 . S
C254 C255 1.386 . S
C254 C256 1.391 1_545 S
C255 C254 1.386 . S
C255 C259 1.393 . S
C256 H245 0.950 . S
C256 C254 1.391 1_565 S
C256 C257 1.400 . S
C257 C251 1.491 . S
C257 C256 1.400 . S
C257 C258 1.398 . S
C258 H246 0.950 . S
C258 C257 1.398 . S
C258 C259 1.391 1_565 S
C259 H247 0.950 . S
C259 C255 1.393 . S
C259 C258 1.391 1_545 S
H260 C268 0.950 . S
H261 C273 0.950 . S
H262 C270 0.950 . S
H263 C272 0.950 . S
H264 C274 0.950 . S
H265 C276 0.950 . S
H266 C278 0.950 . S
H267 C279 0.950 . S
C268 H260 0.950 . S
C268 C269 1.386 . S
C268 C270 1.391 . S
C269 C268 1.386 . S
C269 C273 1.393 . S
C270 H262 0.950 . S
C270 C268 1.391 . S
C270 C271 1.400 . S
C271 C270 1.400 . S
C271 C272 1.398 . S
C271 C277 1.491 . S
C272 H263 0.950 . S
C272 C271 1.398 . S
C272 C273 1.391 . S
C273 H261 0.950 . S
C273 C269 1.393 . S
C273 C272 1.391 . S
C274 H264 0.950 . S
C274 C275 1.386 1_545 S
C274 C276 1.391 . S
C275 C274 1.386 1_565 S
C275 C279 1.393 . S
C276 H265 0.950 . S
C276 C274 1.391 . S
C276 C277 1.400 . S
C277 C271 1.491 . S
C277 C276 1.400 . S
C277 C278 1.398 1_545 S
C278 H266 0.950 . S
C278 C277 1.398 1_565 S
C278 C279 1.391 . S
C279 H267 0.950 . S
C279 C275 1.393 . S
C279 C278 1.391 . S
H280 C288 0.950 . S
H281 C293 0.950 . S
H282 C290 0.950 . S
H283 C292 0.950 . S
H284 C294 0.950 . S
H285 C296 0.950 . S
H286 C298 0.950 . S
H287 C299 0.950 . S
C288 H280 0.950 . S
C288 C289 1.386 . S
C288 C290 1.391 . S
C289 C288 1.386 . S
C289 C293 1.393 . S
C290 H282 0.950 . S
C290 C288 1.391 . S
C290 C291 1.400 . S
C291 C290 1.400 . S
C291 C292 1.398 . S
C291 C297 1.491 . S
C292 H283 0.950 . S
C292 C291 1.398 . S
C292 C293 1.391 . S
C293 H281 0.950 . S
C293 C289 1.393 . S
C293 C292 1.391 . S
C294 H284 0.950 . S
C294 C295 1.386 . S
C294 C296 1.391 . S
C295 C294 1.386 . S
C295 C299 1.393 . S
C296 H285 0.950 . S
C296 C294 1.391 . S
C296 C297 1.400 . S
C297 C291 1.491 . S
C297 C296 1.400 . S
C297 C298 1.398 . S
C298 H286 0.950 . S
C298 C297 1.398 . S
C298 C299 1.391 . S
C299 H287 0.950 . S
C299 C295 1.393 . S
C299 C298 1.391 . S
H300 C308 0.950 . S
H301 C313 0.950 . S
H302 C310 0.950 . S
H303 C312 0.950 . S
H304 C314 0.950 . S
H305 C316 0.950 . S
H306 C318 0.950 . S
H307 C319 0.950 . S
C308 H300 0.950 . S
C308 C309 1.386 . S
C308 C310 1.391 . S
C309 C308 1.386 . S
C309 C313 1.393 . S
C310 H302 0.950 . S
C310 C308 1.391 . S
C310 C311 1.400 . S
C311 C310 1.400 . S
C311 C312 1.398 . S
C311 C317 1.491 . S
C312 H303 0.950 . S
C312 C311 1.398 . S
C312 C313 1.391 . S
C313 H301 0.950 . S
C313 C309 1.393 . S
C313 C312 1.391 . S
C314 H304 0.950 . S
C314 C315 1.386 . S
C314 C316 1.391 . S
C315 C314 1.386 . S
C315 C319 1.393 . S
C316 H305 0.950 . S
C316 C314 1.391 . S
C316 C317 1.400 . S
C317 C311 1.491 . S
C317 C316 1.400 . S
C317 C318 1.398 . S
C318 H306 0.950 . S
C318 C317 1.398 . S
C318 C319 1.391 . S
C319 H307 0.950 . S
C319 C315 1.393 . S
C319 C318 1.391 . S
H320 C328 0.950 . S
H321 C333 0.950 . S
H322 C330 0.950 . S
H323 C332 0.950 . S
H324 C334 0.950 . S
H325 C336 0.950 . S
H326 C338 0.950 . S
H327 C339 0.950 . S
C328 H320 0.950 . S
C328 C329 1.386 . S
C328 C330 1.391 . S
C329 C328 1.386 . S
C329 C333 1.393 . S
C330 H322 0.950 . S
C330 C328 1.391 . S
C330 C331 1.400 . S
C331 C330 1.400 . S
C331 C332 1.398 . S
C331 C337 1.491 . S
C332 H323 0.950 . S
C332 C331 1.398 . S
C332 C333 1.391 . S
C333 H321 0.950 . S
C333 C329 1.393 . S
C333 C332 1.391 . S
C334 H324 0.950 . S
C334 C335 1.386 . S
C334 C336 1.391 1_565 S
C335 C334 1.386 . S
C335 C339 1.393 . S
C336 H325 0.950 . S
C336 C334 1.391 1_545 S
C336 C337 1.400 . S
C337 C331 1.491 . S
C337 C336 1.400 . S
C337 C338 1.398 . S
C338 H326 0.950 . S
C338 C337 1.398 . S
C338 C339 1.391 1_545 S
C339 H327 0.950 . S
C339 C335 1.393 . S
C339 C338 1.391 1_565 S
H340 C348 0.950 . S
H341 C353 0.950 . S
H342 C350 0.950 . S
H343 C352 0.950 . S
H344 C354 0.950 . S
H345 C356 0.950 . S
H346 C358 0.950 . S
H347 C359 0.950 . S
C348 H340 0.950 . S
C348 C349 1.386 . S
C348 C350 1.391 1_556 S
C349 C348 1.386 . S
C349 C353 1.393 . S
C350 H342 0.950 . S
C350 C348 1.391 1_554 S
C350 C351 1.400 . S
C351 C350 1.400 . S
C351 C352 1.398 . S
C351 C357 1.491 . S
C352 H343 0.950 . S
C352 C351 1.398 . S
C352 C353 1.391 1_554 S
C353 H341 0.950 . S
C353 C349 1.393 . S
C353 C352 1.391 1_556 S
C354 H344 0.950 . S
C354 C355 1.386 . S
C354 C356 1.391 . S
C355 C354 1.386 . S
C355 C359 1.393 . S
C356 H345 0.950 . S
C356 C354 1.391 . S
C356 C357 1.400 . S
C357 C351 1.491 . S
C357 C356 1.400 . S
C357 C358 1.398 . S
C358 H346 0.950 . S
C358 C357 1.398 . S
C358 C359 1.391 . S
C359 H347 0.950 . S
C359 C355 1.393 . S
C359 C358 1.391 . S
H360 C368 0.950 . S
H361 C373 0.950 . S
H362 C370 0.950 . S
H363 C372 0.950 . S
H364 C374 0.950 . S
H365 C376 0.950 . S
H366 C378 0.950 . S
H367 C379 0.950 . S
C368 H360 0.950 . S
C368 C369 1.386 . S
C368 C370 1.391 . S
C369 C368 1.386 . S
C369 C373 1.393 . S
C370 H362 0.950 . S
C370 C368 1.391 . S
C370 C371 1.400 . S
C371 C370 1.400 . S
C371 C372 1.398 . S
C371 C377 1.491 . S
C372 H363 0.950 . S
C372 C371 1.398 . S
C372 C373 1.391 . S
C373 H361 0.950 . S
C373 C369 1.393 . S
C373 C372 1.391 . S
C374 H364 0.950 . S
C374 C375 1.386 . S
C374 C376 1.391 . S
C375 C374 1.386 . S
C375 C379 1.393 . S
C376 H365 0.950 . S
C376 C374 1.391 . S
C376 C377 1.400 . S
C377 C371 1.491 . S
C377 C376 1.400 . S
C377 C378 1.398 . S
C378 H366 0.950 . S
C378 C377 1.398 . S
C378 C379 1.391 . S
C379 H367 0.950 . S
C379 C375 1.393 . S
C379 C378 1.391 . S
H380 C388 0.950 1_554 S
H381 C393 0.950 . S
H382 C390 0.950 . S
H383 C392 0.950 . S
H384 C394 0.950 . S
H385 C396 0.950 . S
H386 C398 0.950 . S
H387 C399 0.950 . S
C388 H380 0.950 1_556 S
C388 C389 1.386 1_556 S
C388 C390 1.391 . S
C389 C388 1.386 1_554 S
C389 C393 1.393 . S
C390 H382 0.950 . S
C390 C388 1.391 . S
C390 C391 1.400 . S
C391 C390 1.400 . S
C391 C392 1.398 . S
C391 C397 1.491 . S
C392 H383 0.950 . S
C392 C391 1.398 . S
C392 C393 1.391 1_556 S
C393 H381 0.950 . S
C393 C389 1.393 . S
C393 C392 1.391 1_554 S
C394 H384 0.950 . S
C394 C395 1.386 . S
C394 C396 1.391 . S
C395 C394 1.386 . S
C395 C399 1.393 . S
C396 H385 0.950 . S
C396 C394 1.391 . S
C396 C397 1.400 . S
C397 C391 1.491 . S
C397 C396 1.400 . S
C397 C398 1.398 . S
C398 H386 0.950 . S
C398 C397 1.398 . S
C398 C399 1.391 . S
C399 H387 0.950 . S
C399 C395 1.393 . S
C399 C398 1.391 . S
H400 C408 0.950 . S
H401 C413 0.950 . S
H402 C410 0.950 . S
H403 C412 0.950 . S
H404 C414 0.950 . S
H405 C416 0.950 . S
H406 C418 0.950 . S
H407 C419 0.950 . S
C408 H400 0.950 . S
C408 C409 1.386 . S
C408 C410 1.391 . S
C409 C408 1.386 . S
C409 C413 1.393 . S
C410 H402 0.950 . S
C410 C408 1.391 . S
C410 C411 1.400 . S
C411 C410 1.400 . S
C411 C412 1.398 . S
C411 C417 1.491 . S
C412 H403 0.950 . S
C412 C411 1.398 . S
C412 C413 1.391 . S
C413 H401 0.950 . S
C413 C409 1.393 . S
C413 C412 1.391 . S
C414 H404 0.950 . S
C414 C415 1.386 . S
C414 C416 1.391 . S
C415 C414 1.386 . S
C415 C419 1.393 . S
C416 H405 0.950 . S
C416 C414 1.391 . S
C416 C417 1.400 . S
C417 C411 1.491 . S
C417 C416 1.400 . S
C417 C418 1.398 . S
C418 H406 0.950 . S
C418 C417 1.398 . S
C418 C419 1.391 . S
C419 H407 0.950 . S
C419 C415 1.393 . S
C419 C418 1.391 . S
H420 C428 0.950 . S
H421 C433 0.950 . S
H422 C430 0.950 . S
H423 C432 0.950 . S
H424 C434 0.950 . S
H425 C436 0.950 . S
H426 C438 0.950 . S
H427 C439 0.950 . S
C428 H420 0.950 . S
C428 C429 1.386 . S
C428 C430 1.391 1_554 S
C429 C428 1.386 . S
C429 C433 1.393 . S
C430 H422 0.950 . S
C430 C428 1.391 1_556 S
C430 C431 1.400 . S
C431 C430 1.400 . S
C431 C432 1.398 . S
C431 C437 1.491 . S
C432 H423 0.950 . S
C432 C431 1.398 . S
C432 C433 1.391 1_556 S
C433 H421 0.950 . S
C433 C429 1.393 . S
C433 C432 1.391 1_554 S
C434 H424 0.950 . S
C434 C435 1.386 . S
C434 C436 1.391 . S
C435 C434 1.386 . S
C435 C439 1.393 . S
C436 H425 0.950 . S
C436 C434 1.391 . S
C436 C437 1.400 . S
C437 C431 1.491 . S
C437 C436 1.400 . S
C437 C438 1.398 . S
C438 H426 0.950 . S
C438 C437 1.398 . S
C438 C439 1.391 . S
C439 H427 0.950 . S
C439 C435 1.393 . S
C439 C438 1.391 . S
H440 C448 0.950 . S
H441 C453 0.950 . S
H442 C450 0.950 . S
H443 C452 0.950 . S
H444 C454 0.950 . S
H445 C456 0.950 . S
H446 C458 0.950 . S
H447 C459 0.950 . S
C448 H440 0.950 . S
C448 C449 1.386 . S
C448 C450 1.391 . S
C449 C448 1.386 . S
C449 C453 1.393 . S
C450 H442 0.950 . S
C450 C448 1.391 . S
C450 C451 1.400 . S
C451 C450 1.400 . S
C451 C452 1.398 . S
C451 C457 1.491 . S
C452 H443 0.950 . S
C452 C451 1.398 . S
C452 C453 1.391 . S
C453 H441 0.950 . S
C453 C449 1.393 . S
C453 C452 1.391 . S
C454 H444 0.950 . S
C454 C455 1.386 . S
C454 C456 1.391 . S
C455 C454 1.386 . S
C455 C459 1.393 . S
C456 H445 0.950 . S
C456 C454 1.391 . S
C456 C457 1.400 . S
C457 C451 1.491 . S
C457 C456 1.400 . S
C457 C458 1.398 . S
C458 H446 0.950 . S
C458 C457 1.398 . S
C458 C459 1.391 . S
C459 H447 0.950 . S
C459 C455 1.393 . S
C459 C458 1.391 . S
H460 C468 0.950 . S
H461 C473 0.950 . S
H462 C470 0.950 . S
H463 C472 0.950 . S
H464 C474 0.950 . S
H465 C476 0.950 . S
H466 C478 0.950 . S
H467 C479 0.950 . S
C468 H460 0.950 . S
C468 C469 1.386 . S
C468 C470 1.391 1_556 S
C469 C468 1.386 . S
C469 C473 1.393 1_556 S
C470 H462 0.950 . S
C470 C468 1.391 1_554 S
C470 C471 1.400 . S
C471 C470 1.400 . S
C471 C472 1.398 . S
C471 C477 1.491 . S
C472 H463 0.950 . S
C472 C471 1.398 . S
C472 C473 1.391 . S
C473 H461 0.950 . S
C473 C469 1.393 1_554 S
C473 C472 1.391 . S
C474 H464 0.950 . S
C474 C475 1.386 . S
C474 C476 1.391 . S
C475 C474 1.386 . S
C475 C479 1.393 . S
C476 H465 0.950 . S
C476 C474 1.391 . S
C476 C477 1.400 . S
C477 C471 1.491 . S
C477 C476 1.400 . S
C477 C478 1.398 . S
C478 H466 0.950 . S
C478 C477 1.398 . S
C478 C479 1.391 . S
C479 H467 0.950 . S
C479 C475 1.393 . S
C479 C478 1.391 . S
H480 C488 0.950 . S
H481 C493 0.950 . S
H482 C490 0.950 . S
H483 C492 0.950 . S
H484 C494 0.950 . S
H485 C496 0.950 . S
H486 C498 0.950 . S
H487 C499 0.950 . S
C488 H480 0.950 . S
C488 C489 1.386 . S
C488 C490 1.391 . S
C489 C488 1.386 . S
C489 C493 1.393 . S
C490 H482 0.950 . S
C490 C488 1.391 . S
C490 C491 1.400 . S
C491 C490 1.400 . S
C491 C492 1.398 . S
C491 C497 1.491 . S
C492 H483 0.950 . S
C492 C491 1.398 . S
C492 C493 1.391 . S
C493 H481 0.950 . S
C493 C489 1.393 . S
C493 C492 1.391 . S
C494 H484 0.950 . S
C494 C495 1.386 . S
C494 C496 1.391 . S
C495 C494 1.386 . S
C495 C499 1.393 . S
C496 H485 0.950 . S
C496 C494 1.391 . S
C496 C497 1.400 . S
C497 C491 1.491 . S
C497 C496 1.400 . S
C497 C498 1.398 . S
C498 H486 0.950 . S
C498 C497 1.398 . S
C498 C499 1.391 . S
C499 H487 0.950 . S
C499 C495 1.393 . S
C499 C498 1.391 . S
H500 C508 0.950 . S
H501 C513 0.950 . S
H502 C510 0.950 . S
H503 C512 0.950 . S
H504 C514 0.950 . S
H505 C516 0.950 . S
H506 C518 0.950 . S
H507 C519 0.950 . S
C508 H500 0.950 . S
C508 C509 1.386 . S
C508 C510 1.391 . S
C509 C508 1.386 . S
C509 C513 1.393 . S
C510 H502 0.950 . S
C510 C508 1.391 . S
C510 C511 1.400 . S
C511 C510 1.400 . S
C511 C512 1.398 . S
C511 C517 1.491 . S
C512 H503 0.950 . S
C512 C511 1.398 . S
C512 C513 1.391 . S
C513 H501 0.950 . S
C513 C509 1.393 . S
C513 C512 1.391 . S
C514 H504 0.950 . S
C514 C515 1.386 . S
C514 C516 1.391 . S
C515 C514 1.386 . S
C515 C519 1.393 . S
C516 H505 0.950 . S
C516 C514 1.391 . S
C516 C517 1.400 . S
C517 C511 1.491 . S
C517 C516 1.400 . S
C517 C518 1.398 . S
C518 H506 0.950 . S
C518 C517 1.398 . S
C518 C519 1.391 . S
C519 H507 0.950 . S
C519 C515 1.393 . S
C519 C518 1.391 . S
H520 C528 0.950 . S
H521 C533 0.950 . S
H522 C530 0.950 . S
H523 C532 0.950 . S
H524 C534 0.950 . S
H525 C536 0.950 . S
H526 C538 0.950 . S
H527 C539 0.950 . S
C528 H520 0.950 . S
C528 C529 1.386 . S
C528 C530 1.391 . S
C529 C528 1.386 . S
C529 C533 1.393 . S
C530 H522 0.950 . S
C530 C528 1.391 . S
C530 C531 1.400 . S
C531 C530 1.400 . S
C531 C532 1.398 . S
C531 C537 1.491 . S
C532 H523 0.950 . S
C532 C531 1.398 . S
C532 C533 1.391 . S
C533 H521 0.950 . S
C533 C529 1.393 . S
C533 C532 1.391 . S
C534 H524 0.950 . S
C534 C535 1.386 . S
C534 C536 1.391 . S
C535 C534 1.386 . S
C535 C539 1.393 . S
C536 H525 0.950 . S
C536 C534 1.391 . S
C536 C537 1.400 . S
C537 C531 1.491 . S
C537 C536 1.400 . S
C537 C538 1.398 . S
C538 H526 0.950 . S
C538 C537 1.398 . S
C538 C539 1.391 . S
C539 H527 0.950 . S
C539 C535 1.393 . S
C539 C538 1.391 . S
H540 C548 0.950 . S
H541 C553 0.950 . S
H542 C550 0.950 . S
H543 C552 0.950 . S
H544 C554 0.950 . S
H545 C556 0.950 . S
H546 C558 0.950 . S
H547 C559 0.950 . S
C548 H540 0.950 . S
C548 C549 1.386 . S
C548 C550 1.391 . S
C549 C548 1.386 . S
C549 C553 1.393 . S
C550 H542 0.950 . S
C550 C548 1.391 . S
C550 C551 1.400 . S
C551 C550 1.400 . S
C551 C552 1.398 . S
C551 C557 1.491 . S
C552 H543 0.950 . S
C552 C551 1.398 . S
C552 C553 1.391 . S
C553 H541 0.950 . S
C553 C549 1.393 . S
C553 C552 1.391 . S
C554 H544 0.950 . S
C554 C555 1.386 . S
C554 C556 1.391 . S
C555 C554 1.386 . S
C555 C559 1.393 . S
C556 H545 0.950 . S
C556 C554 1.391 . S
C556 C557 1.400 . S
C557 C551 1.491 . S
C557 C556 1.400 . S
C557 C558 1.398 . S
C558 H546 0.950 . S
C558 C557 1.398 . S
C558 C559 1.391 . S
C559 H547 0.950 . S
C559 C555 1.393 . S
C559 C558 1.391 . S
H560 C568 0.950 . S
H561 C573 0.950 . S
H562 C570 0.950 . S
H563 C572 0.950 . S
H564 C574 0.950 . S
H565 C576 0.950 . S
H566 C578 0.950 . S
H567 C579 0.950 . S
C568 H560 0.950 . S
C568 C569 1.386 . S
C568 C570 1.391 . S
C569 C568 1.386 . S
C569 C573 1.393 . S
C570 H562 0.950 . S
C570 C568 1.391 . S
C570 C571 1.400 . S
C571 C570 1.400 . S
C571 C572 1.398 . S
C571 C577 1.491 . S
C572 H563 0.950 . S
C572 C571 1.398 . S
C572 C573 1.391 . S
C573 H561 0.950 . S
C573 C569 1.393 . S
C573 C572 1.391 . S
C574 H564 0.950 . S
C574 C575 1.386 . S
C574 C576 1.391 . S
C575 C574 1.386 . S
C575 C579 1.393 . S
C576 H565 0.950 . S
C576 C574 1.391 . S
C576 C577 1.400 . S
C577 C571 1.491 . S
C577 C576 1.400 . S
C577 C578 1.398 . S
C578 H566 0.950 . S
C578 C577 1.398 . S
C578 C579 1.391 . S
C579 H567 0.950 . S
C579 C575 1.393 . S
C579 C578 1.391 . S
H580 C588 0.950 . S
H581 C593 0.950 . S
H582 C590 0.950 . S
H583 C592 0.950 . S
H584 C594 0.950 . S
H585 C596 0.950 . S
H586 C598 0.950 . S
H587 C599 0.950 . S
C588 H580 0.950 . S
C588 C589 1.386 . S
C588 C590 1.391 . S
C589 C588 1.386 . S
C589 C593 1.393 . S
C590 H582 0.950 . S
C590 C588 1.391 . S
C590 C591 1.400 . S
C591 C590 1.400 . S
C591 C592 1.398 . S
C591 C597 1.491 . S
C592 H583 0.950 . S
C592 C591 1.398 . S
C592 C593 1.391 . S
C593 H581 0.950 . S
C593 C589 1.393 . S
C593 C592 1.391 . S
C594 H584 0.950 . S
C594 C595 1.386 . S
C594 C596 1.391 . S
C595 C594 1.386 . S
C595 C599 1.393 . S
C596 H585 0.950 . S
C596 C594 1.391 . S
C596 C597 1.400 . S
C597 C591 1.491 . S
C597 C596 1.400 . S
C597 C598 1.398 . S
C598 H586 0.950 . S
C598 C597 1.398 . S
C598 C599 1.391 . S
C599 H587 0.950 . S
C599 C595 1.393 . S
C599 C598 1.391 . S
H600 C608 0.950 . S
H601 C613 0.950 . S
H602 C610 0.950 . S
H603 C612 0.950 . S
H604 C614 0.950 . S
H605 C616 0.950 . S
H606 C618 0.950 . S
H607 C619 0.950 . S
C608 H600 0.950 . S
C608 C609 1.386 . S
C608 C610 1.391 . S
C609 C608 1.386 . S
C609 C613 1.393 . S
C610 H602 0.950 . S
C610 C608 1.391 . S
C610 C611 1.400 . S
C611 C610 1.400 . S
C611 C612 1.398 . S
C611 C617 1.491 . S
C612 H603 0.950 . S
C612 C611 1.398 . S
C612 C613 1.391 . S
C613 H601 0.950 . S
C613 C609 1.393 . S
C613 C612 1.391 . S
C614 H604 0.950 . S
C614 C615 1.386 . S
C614 C616 1.391 . S
C615 C614 1.386 . S
C615 C619 1.393 . S
C616 H605 0.950 . S
C616 C614 1.391 . S
C616 C617 1.400 . S
C617 C611 1.491 . S
C617 C616 1.400 . S
C617 C618 1.398 . S
C618 H606 0.950 . S
C618 C617 1.398 . S
C618 C619 1.391 . S
C619 H607 0.950 . S
C619 C615 1.393 . S
C619 C618 1.391 . S
H620 C628 0.950 . S
H621 C633 0.950 . S
H622 C630 0.950 . S
H623 C632 0.950 . S
H624 C634 0.950 . S
H625 C636 0.950 . S
H626 C638 0.950 . S
H627 C639 0.950 . S
C628 H620 0.950 . S
C628 C629 1.386 . S
C628 C630 1.391 . S
C629 C628 1.386 . S
C629 C633 1.393 . S
C630 H622 0.950 . S
C630 C628 1.391 . S
C630 C631 1.400 . S
C631 C630 1.400 . S
C631 C632 1.398 . S
C631 C637 1.491 . S
C632 H623 0.950 . S
C632 C631 1.398 . S
C632 C633 1.391 . S
C633 H621 0.950 . S
C633 C629 1.393 . S
C633 C632 1.391 . S
C634 H624 0.950 . S
C634 C635 1.386 . S
C634 C636 1.391 . S
C635 C634 1.386 . S
C635 C639 1.393 . S
C636 H625 0.950 . S
C636 C634 1.391 . S
C636 C637 1.400 . S
C637 C631 1.491 . S
C637 C636 1.400 . S
C637 C638 1.398 . S
C638 H626 0.950 . S
C638 C637 1.398 . S
C638 C639 1.391 . S
C639 H627 0.950 . S
C639 C635 1.393 . S
C639 C638 1.391 . S
H640 C648 0.950 . S
H641 C653 0.950 . S
H642 C650 0.950 . S
H643 C652 0.950 . S
H644 C654 0.950 . S
H645 C656 0.950 . S
H646 C658 0.950 . S
H647 C659 0.950 . S
C648 H640 0.950 . S
C648 C649 1.386 . S
C648 C650 1.391 . S
C649 C648 1.386 . S
C649 C653 1.393 . S
C650 H642 0.950 . S
C650 C648 1.391 . S
C650 C651 1.400 . S
C651 C650 1.400 . S
C651 C652 1.398 . S
C651 C657 1.491 . S
C652 H643 0.950 . S
C652 C651 1.398 . S
C652 C653 1.391 . S
C653 H641 0.950 . S
C653 C649 1.393 . S
C653 C652 1.391 . S
C654 H644 0.950 . S
C654 C655 1.386 . S
C654 C656 1.391 . S
C655 C654 1.386 . S
C655 C659 1.393 . S
C656 H645 0.950 . S
C656 C654 1.391 . S
C656 C657 1.400 . S
C657 C651 1.491 . S
C657 C656 1.400 . S
C657 C658 1.398 . S
C658 H646 0.950 . S
C658 C657 1.398 . S
C658 C659 1.391 . S
C659 H647 0.950 . S
C659 C655 1.393 . S
C659 C658 1.391 . S
C189 C81 1.410 . S
C195 C112 1.339 . S
C215 C120 1.367 . S
C209 C93 1.405 . S
C235 C124 1.333 . S
C229 C57 1.407 . S
C249 C69 1.406 . S
C255 C100 1.356 . S
C275 C141 1.353 . S
C269 C33 1.405 . S
C295 C175 1.340 . S
C289 C45 1.426 . S
C309 C9 1.424 . S
C315 C163 1.322 . S
C329 C21 1.420 . S
C335 C145 1.319 . S
C355 C99 1.365 . S
C349 C18 1.477 . S
C375 C133 1.360 . S
C369 C6 1.481 . S
C395 C137 1.336 . S
C389 C42 1.484 . S
C415 C115 1.325 . S
C409 C30 1.485 . S
C435 C154 1.361 . S
C429 C66 1.470 . S
C449 C54 1.481 . S
C455 C162 1.346 . S
C475 C178 1.340 . S
C469 C90 1.481 . S
C489 C78 1.469 . S
C495 C158 1.347 . S
C515 C103 1.350 . S
C509 C4 1.512 . S
C535 C121 1.372 . S
C529 C16 1.517 . S
C549 C28 1.515 . S
C555 C136 1.356 . S
C575 C116 1.383 . S
C569 C40 1.516 . S
C595 C142 1.356 . S
C589 C52 1.519 . S
C609 C64 1.517 . S
C615 C166 1.340 . S
C629 C76 1.512 . S
C635 C179 1.342 . S
C649 C88 1.520 . S
C655 C157 1.384 . S
