# Generated by pormake.
# Topology eea, (3,6)-cn, num edge types: 1
# Building blocks:
#     Node 0, Type 0, BuildingBlock: MIDCAF_clean_linker_0, # of connection points: 3
#     Node 1, Type 0, BuildingBlock: MIDCAF_clean_linker_0, # of connection points: 3
#     Node 2, Type 0, BuildingBlock: MIDCAF_clean_linker_0, # of connection points: 3
#     Node 3, Type 0, BuildingBlock: MIDCAF_clean_linker_0, # of connection points: 3
#     Node 4, Type 0, BuildingBlock: MIDCAF_clean_linker_0, # of connection points: 3
#     Node 5, Type 0, BuildingBlock: MIDCAF_clean_linker_0, # of connection points: 3
#     Node 6, Type 0, BuildingBlock: MIDCAF_clean_linker_0, # of connection points: 3
#     Node 7, Type 0, BuildingBlock: MIDCAF_clean_linker_0, # of connection points: 3
#     Node 8, Type 0, BuildingBlock: MIDCAF_clean_linker_0, # of connection points: 3
#     Node 9, Type 0, BuildingBlock: MIDCAF_clean_linker_0, # of connection points: 3
#     Node 10, Type 0, BuildingBlock: MIDCAF_clean_linker_0, # of connection points: 3
#     Node 11, Type 0, BuildingBlock: MIDCAF_clean_linker_0, # of connection points: 3
#     Node 12, Type 0, BuildingBlock: MIDCAF_clean_linker_0, # of connection points: 3
#     Node 13, Type 0, BuildingBlock: MIDCAF_clean_linker_0, # of connection points: 3
#     Node 14, Type 0, BuildingBlock: MIDCAF_clean_linker_0, # of connection points: 3
#     Node 15, Type 0, BuildingBlock: MIDCAF_clean_linker_0, # of connection points: 3
#     Node 16, Type 0, BuildingBlock: MIDCAF_clean_linker_0, # of connection points: 3
#     Node 17, Type 0, BuildingBlock: MIDCAF_clean_linker_0, # of connection points: 3
#     Node 18, Type 1, BuildingBlock: KUMJIN_clean_sbu_0, # of connection points: 6
#     Node 19, Type 1, BuildingBlock: KUMJIN_clean_sbu_0, # of connection points: 6
#     Node 20, Type 1, BuildingBlock: KUMJIN_clean_sbu_0, # of connection points: 6
#     Node 21, Type 1, BuildingBlock: KUMJIN_clean_sbu_0, # of connection points: 6
#     Node 22, Type 1, BuildingBlock: KUMJIN_clean_sbu_0, # of connection points: 6
#     Node 23, Type 1, BuildingBlock: KUMJIN_clean_sbu_0, # of connection points: 6
#     Node 24, Type 1, BuildingBlock: KUMJIN_clean_sbu_0, # of connection points: 6
#     Node 25, Type 1, BuildingBlock: KUMJIN_clean_sbu_0, # of connection points: 6
#     Node 26, Type 1, BuildingBlock: KUMJIN_clean_sbu_0, # of connection points: 6
#     Edge 27, Type (0, 1), BuildingBlock: ZUJKAS_clean_linker_0, # of connection points: 2
#     Edge 28, Type (0, 1), BuildingBlock: ZUJKAS_clean_linker_0, # of connection points: 2
#     Edge 29, Type (0, 1), BuildingBlock: ZUJKAS_clean_linker_0, # of connection points: 2
#     Edge 30, Type (0, 1), BuildingBlock: ZUJKAS_clean_linker_0, # of connection points: 2
#     Edge 31, Type (0, 1), BuildingBlock: ZUJKAS_clean_linker_0, # of connection points: 2
#     Edge 32, Type (0, 1), BuildingBlock: ZUJKAS_clean_linker_0, # of connection points: 2
#     Edge 33, Type (0, 1), BuildingBlock: ZUJKAS_clean_linker_0, # of connection points: 2
#     Edge 34, Type (0, 1), BuildingBlock: ZUJKAS_clean_linker_0, # of connection points: 2
#     Edge 35, Type (0, 1), BuildingBlock: ZUJKAS_clean_linker_0, # of connection points: 2
#     Edge 36, Type (0, 1), BuildingBlock: ZUJKAS_clean_linker_0, # of connection points: 2
#     Edge 37, Type (0, 1), BuildingBlock: ZUJKAS_clean_linker_0, # of connection points: 2
#     Edge 38, Type (0, 1), BuildingBlock: ZUJKAS_clean_linker_0, # of connection points: 2
#     Edge 39, Type (0, 1), BuildingBlock: ZUJKAS_clean_linker_0, # of connection points: 2
#     Edge 40, Type (0, 1), BuildingBlock: ZUJKAS_clean_linker_0, # of connection points: 2
#     Edge 41, Type (0, 1), BuildingBlock: ZUJKAS_clean_linker_0, # of connection points: 2
#     Edge 42, Type (0, 1), BuildingBlock: ZUJKAS_clean_linker_0, # of connection points: 2
#     Edge 43, Type (0, 1), BuildingBlock: ZUJKAS_clean_linker_0, # of connection points: 2
#     Edge 44, Type (0, 1), BuildingBlock: ZUJKAS_clean_linker_0, # of connection points: 2
#     Edge 45, Type (0, 1), BuildingBlock: ZUJKAS_clean_linker_0, # of connection points: 2
#     Edge 46, Type (0, 1), BuildingBlock: ZUJKAS_clean_linker_0, # of connection points: 2
#     Edge 47, Type (0, 1), BuildingBlock: ZUJKAS_clean_linker_0, # of connection points: 2
#     Edge 48, Type (0, 1), BuildingBlock: ZUJKAS_clean_linker_0, # of connection points: 2
#     Edge 49, Type (0, 1), BuildingBlock: ZUJKAS_clean_linker_0, # of connection points: 2
#     Edge 50, Type (0, 1), BuildingBlock: ZUJKAS_clean_linker_0, # of connection points: 2
#     Edge 51, Type (0, 1), BuildingBlock: ZUJKAS_clean_linker_0, # of connection points: 2
#     Edge 52, Type (0, 1), BuildingBlock: ZUJKAS_clean_linker_0, # of connection points: 2
#     Edge 53, Type (0, 1), BuildingBlock: ZUJKAS_clean_linker_0, # of connection points: 2
#     Edge 54, Type (0, 1), BuildingBlock: ZUJKAS_clean_linker_0, # of connection points: 2
#     Edge 55, Type (0, 1), BuildingBlock: ZUJKAS_clean_linker_0, # of connection points: 2
#     Edge 56, Type (0, 1), BuildingBlock: ZUJKAS_clean_linker_0, # of connection points: 2
#     Edge 57, Type (0, 1), BuildingBlock: ZUJKAS_clean_linker_0, # of connection points: 2
#     Edge 58, Type (0, 1), BuildingBlock: ZUJKAS_clean_linker_0, # of connection points: 2
#     Edge 59, Type (0, 1), BuildingBlock: ZUJKAS_clean_linker_0, # of connection points: 2
#     Edge 60, Type (0, 1), BuildingBlock: ZUJKAS_clean_linker_0, # of connection points: 2
#     Edge 61, Type (0, 1), BuildingBlock: ZUJKAS_clean_linker_0, # of connection points: 2
#     Edge 62, Type (0, 1), BuildingBlock: ZUJKAS_clean_linker_0, # of connection points: 2
#     Edge 63, Type (0, 1), BuildingBlock: ZUJKAS_clean_linker_0, # of connection points: 2
#     Edge 64, Type (0, 1), BuildingBlock: ZUJKAS_clean_linker_0, # of connection points: 2
#     Edge 65, Type (0, 1), BuildingBlock: ZUJKAS_clean_linker_0, # of connection points: 2
#     Edge 66, Type (0, 1), BuildingBlock: ZUJKAS_clean_linker_0, # of connection points: 2
#     Edge 67, Type (0, 1), BuildingBlock: ZUJKAS_clean_linker_0, # of connection points: 2
#     Edge 68, Type (0, 1), BuildingBlock: ZUJKAS_clean_linker_0, # of connection points: 2
#     Edge 69, Type (0, 1), BuildingBlock: ZUJKAS_clean_linker_0, # of connection points: 2
#     Edge 70, Type (0, 1), BuildingBlock: ZUJKAS_clean_linker_0, # of connection points: 2
#     Edge 71, Type (0, 1), BuildingBlock: ZUJKAS_clean_linker_0, # of connection points: 2
#     Edge 72, Type (0, 1), BuildingBlock: ZUJKAS_clean_linker_0, # of connection points: 2
#     Edge 73, Type (0, 1), BuildingBlock: ZUJKAS_clean_linker_0, # of connection points: 2
#     Edge 74, Type (0, 1), BuildingBlock: ZUJKAS_clean_linker_0, # of connection points: 2
#     Edge 75, Type (0, 1), BuildingBlock: ZUJKAS_clean_linker_0, # of connection points: 2
#     Edge 76, Type (0, 1), BuildingBlock: ZUJKAS_clean_linker_0, # of connection points: 2
#     Edge 77, Type (0, 1), BuildingBlock: ZUJKAS_clean_linker_0, # of connection points: 2
#     Edge 78, Type (0, 1), BuildingBlock: ZUJKAS_clean_linker_0, # of connection points: 2
#     Edge 79, Type (0, 1), BuildingBlock: ZUJKAS_clean_linker_0, # of connection points: 2
#     Edge 80, Type (0, 1), BuildingBlock: ZUJKAS_clean_linker_0, # of connection points: 2
# Relax obj value: 0.010
# Max RMSD: 0.099
# Mean RMSD: 0.055
data_MOF--net-eea--node1-KUMJIN_clean_sbu_0--node2-MIDCAF_clean_linker_0--edge1-ZUJKAS_clean_linker_0
_symmetry_space_group_name_H-M    P1
_symmetry_Int_Tables_number       1
_symmetry_cell_setting            triclinic
loop_
_symmetry_equiv_pos_as_xyz
'x, y, z'
_cell_length_a     77.986079
_cell_length_b     79.37852
_cell_length_c     107.00364
_cell_angle_alpha  90.25167
_cell_angle_beta   90.234001
_cell_angle_gamma 119.99032
loop_
_atom_site_label
_atom_site_type_symbol
_atom_site_fract_x
_atom_site_fract_y
_atom_site_fract_z
_atom_type_partial_charge
C0 C 0.24556 0.06117 0.41487 0.0
C1 C 0.2345 0.05584 0.40368 0.0
C2 C 0.22862 0.0685 0.39863 0.0
C3 C 0.23364 0.08604 0.40462 0.0
H4 H 0.22861 0.13401 0.40105 0.0
H5 H 0.22016 0.15626 0.39101 0.0
H6 H 0.25297 0.19963 0.41942 0.0
H7 H 0.26099 0.17709 0.42974 0.0
H8 H 0.27657 0.16429 0.45373 0.0
H9 H 0.28986 0.17021 0.47499 0.0
H10 H 0.28108 0.11205 0.47615 0.0
H11 H 0.26765 0.10598 0.45501 0.0
H12 H 0.25905 0.08232 0.42949 0.0
H13 H 0.25057 0.05189 0.41892 0.0
H14 H 0.21983 0.06471 0.39014 0.0
H15 H 0.22872 0.09534 0.40047 0.0
N16 N 0.24574 0.12288 0.41667 0.0
N17 N 0.25852 0.14369 0.43406 0.0
N18 N 0.25794 0.11385 0.43386 0.0
C19 C 0.25016 0.13984 0.42246 0.0
C20 C 0.26242 0.13072 0.43983 0.0
C21 C 0.24963 0.10983 0.42227 0.0
C22 C 0.24548 0.15372 0.41623 0.0
C23 C 0.2341 0.1483 0.40517 0.0
C24 C 0.22934 0.16113 0.39935 0.0
C25 C 0.23593 0.17978 0.40438 0.0
C26 C 0.24743 0.18528 0.41539 0.0
C27 C 0.25211 0.17237 0.42127 0.0
C28 C 0.27098 0.13463 0.45263 0.0
C29 C 0.27747 0.15275 0.4585 0.0
C30 C 0.28519 0.1562 0.47066 0.0
C31 C 0.28644 0.14157 0.47724 0.0
C32 C 0.28005 0.12352 0.47137 0.0
C33 C 0.27247 0.1201 0.4592 0.0
C34 C 0.24458 0.09132 0.41585 0.0
C35 C 0.2505 0.07869 0.4209 0.0
C36 C 0.95593 0.17803 0.4164 0.0
C37 C 0.95774 0.17528 0.40358 0.0
C38 C 0.94191 0.15957 0.39734 0.0
C39 C 0.92472 0.14679 0.40378 0.0
H40 H 0.87622 0.09236 0.40076 0.0
H41 H 0.85226 0.06181 0.3909 0.0
H42 H 0.81458 0.04757 0.42321 0.0
H43 H 0.83872 0.07787 0.43324 0.0
H44 H 0.85544 0.10304 0.45747 0.0
H45 H 0.84896 0.11022 0.47845 0.0
H46 H 0.89956 0.16812 0.47615 0.0
H47 H 0.90604 0.16108 0.45502 0.0
H48 H 0.93781 0.16791 0.43269 0.0
H49 H 0.9678 0.19014 0.42144 0.0
H50 H 0.94291 0.15698 0.38749 0.0
H51 H 0.91288 0.13479 0.39865 0.0
N52 N 0.89096 0.11891 0.41786 0.0
N53 N 0.87137 0.11033 0.43581 0.0
N54 N 0.9015 0.13979 0.4353 0.0
C55 C 0.87429 0.10609 0.42397 0.0
C56 C 0.88485 0.12712 0.44155 0.0
C57 C 0.90466 0.13577 0.42343 0.0
C58 C 0.85949 0.08763 0.41783 0.0
C59 C 0.86284 0.08275 0.40579 0.0
C60 C 0.84902 0.06526 0.40008 0.0
C61 C 0.83148 0.05221 0.40625 0.0
C62 C 0.82806 0.05714 0.41826 0.0
C63 C 0.84189 0.07461 0.42398 0.0
C64 C 0.88127 0.13149 0.45449 0.0
C65 C 0.86525 0.11733 0.46139 0.0
C66 C 0.86159 0.12138 0.47349 0.0
C67 C 0.87376 0.13972 0.47899 0.0
C68 C 0.88981 0.1539 0.47213 0.0
C69 C 0.89357 0.14981 0.46003 0.0
C70 C 0.92288 0.14951 0.41661 0.0
C71 C 0.93867 0.16535 0.42283 0.0
C72 C 0.83123 0.78603 0.41796 0.0
C73 C 0.83244 0.78992 0.40508 0.0
C74 C 0.84818 0.79048 0.39833 0.0
C75 C 0.86219 0.78709 0.40429 0.0
H76 H 0.92195 0.80041 0.40247 0.0
H77 H 0.95225 0.80706 0.39194 0.0
H78 H 0.95995 0.76991 0.41804 0.0
H79 H 0.93009 0.76394 0.42889 0.0
H80 H 0.90655 0.75562 0.45516 0.0
H81 H 0.89915 0.74138 0.47596 0.0
H82 H 0.84586 0.74527 0.47669 0.0
H83 H 0.85298 0.75911 0.45586 0.0
H84 H 0.8436 0.77949 0.43382 0.0
H85 H 0.81959 0.78586 0.42355 0.0
H86 H 0.8495 0.79317 0.38838 0.0
H87 H 0.87396 0.78745 0.39875 0.0
N88 N 0.89205 0.78202 0.41749 0.0
N89 N 0.90128 0.77024 0.43483 0.0
N90 N 0.8717 0.77116 0.43514 0.0
C91 C 0.90517 0.77787 0.42313 0.0
C92 C 0.88459 0.76688 0.44093 0.0
C93 C 0.87525 0.77868 0.42342 0.0
C94 C 0.92354 0.78166 0.41657 0.0
C95 C 0.93009 0.79365 0.40598 0.0
C96 C 0.94747 0.79738 0.39987 0.0
C97 C 0.95869 0.78904 0.40408 0.0
C98 C 0.952 0.77692 0.41463 0.0
C99 C 0.93475 0.77338 0.42083 0.0
C100 C 0.88036 0.7585 0.45374 0.0
C101 C 0.89325 0.75346 0.45974 0.0
C102 C 0.88907 0.74539 0.47172 0.0
C103 C 0.87187 0.74211 0.47802 0.0
C104 C 0.85908 0.74728 0.47206 0.0
C105 C 0.86325 0.75535 0.4601 0.0
C106 C 0.86076 0.7829 0.41713 0.0
C107 C 0.84512 0.78249 0.42389 0.0
C108 C 0.04929 0.22086 0.5961 0.0
C109 C 0.04448 0.21143 0.60772 0.0
C110 C 0.05714 0.20534 0.6128 0.0
C111 C 0.07427 0.20877 0.60647 0.0
H112 H 0.12531 0.20496 0.61043 0.0
H113 H 0.15005 0.19914 0.62042 0.0
H114 H 0.18829 0.22379 0.58857 0.0
H115 H 0.16382 0.22986 0.57865 0.0
H116 H 0.14926 0.24143 0.55514 0.0
H117 H 0.15587 0.25496 0.53424 0.0
H118 H 0.10203 0.25783 0.53514 0.0
H119 H 0.09511 0.24388 0.55603 0.0
H120 H 0.06949 0.2315 0.58082 0.0
H121 H 0.03974 0.22552 0.59183 0.0
H122 H 0.05397 0.19819 0.62177 0.0
H123 H 0.08371 0.20397 0.61072 0.0
N124 N 0.11082 0.2182 0.59366 0.0
N125 N 0.13091 0.22936 0.5759 0.0
N126 N 0.10099 0.22961 0.57639 0.0
C127 C 0.12765 0.22185 0.58761 0.0
C128 C 0.1177 0.23327 0.57019 0.0
C129 C 0.09741 0.22206 0.58812 0.0
C130 C 0.1425 0.21794 0.59372 0.0
C131 C 0.13898 0.20915 0.60554 0.0
C132 C 0.15313 0.2057 0.61125 0.0
C133 C 0.17119 0.21104 0.60532 0.0
C134 C 0.17467 0.21974 0.59349 0.0
C135 C 0.16052 0.22311 0.58776 0.0
C136 C 0.12163 0.24154 0.55736 0.0
C137 C 0.13876 0.24491 0.55093 0.0
C138 C 0.14265 0.2528 0.53892 0.0
C139 C 0.12955 0.2576 0.53298 0.0
C140 C 0.11235 0.25413 0.53936 0.0
C141 C 0.10844 0.24621 0.5514 0.0
C142 C 0.07912 0.21826 0.59485 0.0
C143 C 0.06634 0.22418 0.58974 0.0
C144 C 0.76359 0.8201 0.59492 0.0
C145 C 0.77111 0.82356 0.60721 0.0
C146 C 0.77246 0.83945 0.61389 0.0
C147 C 0.76666 0.85174 0.60838 0.0
H148 H 0.76616 0.90189 0.61479 0.0
H149 H 0.77376 0.93192 0.62554 0.0
H150 H 0.75546 0.95085 0.59287 0.0
H151 H 0.74743 0.92065 0.58216 0.0
H152 H 0.73288 0.89434 0.55842 0.0
H153 H 0.71967 0.88838 0.53725 0.0
H154 H 0.71723 0.83279 0.53684 0.0
H155 H 0.7309 0.83889 0.55795 0.0
H156 H 0.75224 0.82939 0.57988 0.0
H157 H 0.76256 0.80809 0.58947 0.0
H158 H 0.77788 0.84233 0.62344 0.0
H159 H 0.76799 0.86388 0.61383 0.0
N160 N 0.75685 0.87815 0.59627 0.0
N161 N 0.74453 0.88713 0.57912 0.0
N162 N 0.74597 0.85833 0.57836 0.0
C163 C 0.75228 0.89085 0.59086 0.0
C164 C 0.74128 0.87089 0.57281 0.0
C165 C 0.75376 0.86187 0.59011 0.0
C166 C 0.75624 0.90884 0.59757 0.0
C167 C 0.76366 0.91239 0.60989 0.0
C168 C 0.76812 0.92966 0.61605 0.0
C169 C 0.76531 0.94381 0.61004 0.0
C170 C 0.75759 0.94014 0.59781 0.0
C171 C 0.75309 0.92285 0.59165 0.0
C172 C 0.73298 0.8671 0.55994 0.0
C173 C 0.72953 0.88081 0.55386 0.0
C174 C 0.72184 0.87736 0.54172 0.0
C175 C 0.71733 0.86009 0.53536 0.0
C176 C 0.72076 0.84636 0.54142 0.0
C177 C 0.72851 0.84982 0.55356 0.0
C178 C 0.75933 0.84843 0.59604 0.0
C179 C 0.75776 0.83238 0.5894 0.0
C180 C 0.17401 0.9422 0.59368 0.0
C181 C 0.16922 0.94822 0.60487 0.0
C182 C 0.15052 0.93619 0.61016 0.0
C183 C 0.13696 0.91861 0.60441 0.0
H184 H 0.08638 0.86687 0.61121 0.0
H185 H 0.05644 0.84402 0.62214 0.0
H186 H 0.03611 0.80706 0.58935 0.0
H187 H 0.06598 0.83001 0.57828 0.0
H188 H 0.09597 0.83978 0.55532 0.0
H189 H 0.10383 0.83247 0.53466 0.0
H190 H 0.15748 0.88842 0.53434 0.0
H191 H 0.14994 0.8956 0.55498 0.0
H192 H 0.1647 0.92057 0.5793 0.0
H193 H 0.18839 0.95092 0.58944 0.0
H194 H 0.1462 0.94047 0.61867 0.0
H195 H 0.12267 0.9098 0.60873 0.0
N196 N 0.11032 0.8813 0.59282 0.0
N197 N 0.10098 0.86009 0.57557 0.0
N198 N 0.13097 0.88969 0.57538 0.0
C199 C 0.09708 0.86425 0.58721 0.0
C200 C 0.11792 0.87276 0.56959 0.0
C201 C 0.1273 0.8941 0.58698 0.0
C202 C 0.07868 0.85033 0.59383 0.0
C203 C 0.07555 0.85391 0.60627 0.0
C204 C 0.05841 0.84074 0.61259 0.0
C205 C 0.0439 0.8237 0.60663 0.0
C206 C 0.04692 0.82016 0.59417 0.0
C207 C 0.06412 0.83329 0.58785 0.0
C208 C 0.12233 0.86826 0.5569 0.0
C209 C 0.10945 0.85053 0.55086 0.0
C210 C 0.1139 0.84637 0.53897 0.0
C211 C 0.13134 0.85981 0.53285 0.0
C212 C 0.1441 0.87758 0.53886 0.0
C213 C 0.13968 0.88174 0.55071 0.0
C214 C 0.14172 0.91267 0.59317 0.0
C215 C 0.16043 0.9247 0.58789 0.0
C216 C 0.90908 0.39212 0.74962 0.0
C217 C 0.90102 0.3882 0.73747 0.0
C218 C 0.89802 0.40221 0.73145 0.0
C219 C 0.9028 0.41968 0.73746 0.0
H220 H 0.8947 0.46601 0.73449 0.0
H221 H 0.88558 0.48786 0.72454 0.0
H222 H 0.9153 0.53018 0.75402 0.0
H223 H 0.92405 0.50809 0.76421 0.0
H224 H 0.94062 0.49612 0.78774 0.0
H225 H 0.95562 0.50306 0.80851 0.0
H226 H 0.95145 0.44671 0.80891 0.0
H227 H 0.9369 0.43989 0.78809 0.0
H228 H 0.91994 0.41208 0.76504 0.0
H229 H 0.91135 0.38153 0.75459 0.0
H230 H 0.89211 0.39975 0.72202 0.0
H231 H 0.90025 0.4301 0.7325 0.0
N232 N 0.91116 0.45478 0.75054 0.0
N233 N 0.92392 0.47574 0.76785 0.0
N234 N 0.92408 0.44626 0.76759 0.0
C235 C 0.91529 0.47166 0.75634 0.0
C236 C 0.92836 0.46309 0.77355 0.0
C237 C 0.91552 0.44202 0.75607 0.0
C238 C 0.91011 0.48524 0.75018 0.0
C239 C 0.89936 0.47997 0.73888 0.0
C240 C 0.8942 0.49257 0.73311 0.0
C241 C 0.89974 0.5108 0.73846 0.0
C242 C 0.91057 0.51613 0.74973 0.0
C243 C 0.91568 0.50349 0.75554 0.0
C244 C 0.93755 0.46744 0.78619 0.0
C245 C 0.94292 0.4852 0.79223 0.0
C246 C 0.95144 0.48915 0.80418 0.0
C247 C 0.95476 0.47545 0.81037 0.0
C248 C 0.94939 0.45771 0.80434 0.0
C249 C 0.94092 0.45377 0.7924 0.0
C250 C 0.91074 0.42358 0.74965 0.0
C251 C 0.9139 0.40962 0.75564 0.0
C252 C 0.6232 0.51244 0.74999 0.0
C253 C 0.62608 0.50921 0.73743 0.0
C254 C 0.61137 0.49246 0.73132 0.0
C255 C 0.59419 0.47924 0.73759 0.0
H256 H 0.54433 0.42577 0.73335 0.0
H257 H 0.5201 0.39563 0.7231 0.0
H258 H 0.48341 0.37966 0.75596 0.0
H259 H 0.50734 0.40985 0.76615 0.0
H260 H 0.52108 0.43596 0.78947 0.0
H261 H 0.51393 0.44257 0.81038 0.0
H262 H 0.56706 0.49893 0.81001 0.0
H263 H 0.57454 0.49219 0.78907 0.0
H264 H 0.60425 0.50229 0.76591 0.0
H265 H 0.63415 0.52532 0.75493 0.0
H266 H 0.61322 0.48943 0.72169 0.0
H267 H 0.58322 0.4665 0.73255 0.0
N268 N 0.5594 0.45164 0.751 0.0
N269 N 0.53925 0.44272 0.7687 0.0
N270 N 0.5693 0.47225 0.76859 0.0
C271 C 0.54254 0.43868 0.75691 0.0
C272 C 0.55249 0.45943 0.77463 0.0
C273 C 0.57288 0.46845 0.75676 0.0
C274 C 0.52785 0.42033 0.7506 0.0
C275 C 0.5311 0.41587 0.7384 0.0
C276 C 0.51725 0.39852 0.73253 0.0
C277 C 0.4998 0.38523 0.7387 0.0
C278 C 0.49654 0.38969 0.75087 0.0
C279 C 0.51038 0.407 0.75674 0.0
C280 C 0.54839 0.46355 0.7875 0.0
C281 C 0.53131 0.44979 0.7938 0.0
C282 C 0.52711 0.45362 0.8058 0.0
C283 C 0.53983 0.47135 0.81186 0.0
C284 C 0.55703 0.48506 0.80565 0.0
C285 C 0.56127 0.48122 0.79361 0.0
C286 C 0.59123 0.48248 0.75014 0.0
C287 C 0.60597 0.49926 0.75626 0.0
C288 C 0.493 0.10935 0.74827 0.0
C289 C 0.49765 0.11946 0.7369 0.0
C290 C 0.51665 0.12636 0.7319 0.0
C291 C 0.53058 0.12305 0.73807 0.0
H292 H 0.58539 0.12752 0.73378 0.0
H293 H 0.61569 0.13381 0.7233 0.0
H294 H 0.62976 0.10761 0.75401 0.0
H295 H 0.59937 0.10107 0.76446 0.0
H296 H 0.57197 0.08741 0.78854 0.0
H297 H 0.56433 0.0735 0.80942 0.0
H298 H 0.51043 0.07631 0.80926 0.0
H299 H 0.51777 0.08978 0.78834 0.0
H300 H 0.50274 0.09831 0.76321 0.0
H301 H 0.4786 0.10405 0.75246 0.0
H302 H 0.52066 0.13408 0.72311 0.0
H303 H 0.54501 0.12848 0.7339 0.0
N304 N 0.5578 0.1132 0.7504 0.0
N305 N 0.56703 0.10197 0.76803 0.0
N306 N 0.53679 0.10164 0.76772 0.0
C307 C 0.57111 0.10959 0.75632 0.0
C308 C 0.54991 0.098 0.77382 0.0
C309 C 0.54058 0.10923 0.75602 0.0
C310 C 0.58981 0.11374 0.74999 0.0
C311 C 0.5949 0.12308 0.73833 0.0
C312 C 0.61238 0.12681 0.73234 0.0
C313 C 0.62518 0.12121 0.7378 0.0
C314 C 0.62013 0.11191 0.74946 0.0
C315 C 0.60271 0.10827 0.75549 0.0
C316 C 0.54549 0.08971 0.78666 0.0
C317 C 0.55848 0.08507 0.79293 0.0
C318 C 0.55415 0.07718 0.80497 0.0
C319 C 0.53673 0.07372 0.81106 0.0
C320 C 0.52382 0.07846 0.80481 0.0
C321 C 0.52812 0.08632 0.79279 0.0
C322 C 0.5259 0.1129 0.74945 0.0
C323 C 0.50694 0.10617 0.75448 0.0
C324 C 0.71673 0.55509 0.92814 0.0
C325 C 0.71183 0.54614 0.93991 0.0
C326 C 0.72472 0.54074 0.94548 0.0
C327 C 0.74214 0.54431 0.93946 0.0
H328 H 0.79263 0.53987 0.94401 0.0
H329 H 0.81704 0.5341 0.95452 0.0
H330 H 0.8567 0.55946 0.92338 0.0
H331 H 0.83254 0.56546 0.91292 0.0
H332 H 0.81663 0.57398 0.88798 0.0
H333 H 0.82361 0.58779 0.86709 0.0
H334 H 0.77252 0.59527 0.86898 0.0
H335 H 0.76556 0.58164 0.88995 0.0
H336 H 0.73727 0.56549 0.91304 0.0
H337 H 0.70702 0.5592 0.92349 0.0
H338 H 0.72151 0.534 0.95459 0.0
H339 H 0.75173 0.54003 0.94408 0.0
N340 N 0.77887 0.55339 0.92702 0.0
N341 N 0.79946 0.56455 0.90947 0.0
N342 N 0.76951 0.56474 0.90953 0.0
C343 C 0.79588 0.55706 0.9212 0.0
C344 C 0.78637 0.56843 0.90355 0.0
C345 C 0.76559 0.55719 0.92125 0.0
C346 C 0.81055 0.55319 0.9276 0.0
C347 C 0.80655 0.54423 0.93938 0.0
C348 C 0.8205 0.54082 0.9454 0.0
C349 C 0.83886 0.54636 0.93982 0.0
C350 C 0.84283 0.55524 0.92803 0.0
C351 C 0.82887 0.55857 0.92199 0.0
C352 C 0.79052 0.57668 0.89072 0.0
C353 C 0.80684 0.57855 0.88398 0.0
C354 C 0.8108 0.58636 0.87194 0.0
C355 C 0.79863 0.59263 0.86635 0.0
C356 C 0.78231 0.59077 0.87307 0.0
C357 C 0.77827 0.58284 0.88508 0.0
C358 C 0.74706 0.5533 0.92768 0.0
C359 C 0.73407 0.55858 0.9221 0.0
C360 C 0.42277 0.15002 0.93244 0.0
C361 C 0.43367 0.15572 0.94369 0.0
C362 C 0.43945 0.1742 0.94871 0.0
C363 C 0.43469 0.1868 0.94255 0.0
H364 H 0.42757 0.23499 0.94825 0.0
H365 H 0.43677 0.26627 0.95796 0.0
H366 H 0.43591 0.28973 0.92179 0.0
H367 H 0.42663 0.25844 0.91201 0.0
H368 H 0.40485 0.22806 0.88989 0.0
H369 H 0.39144 0.22074 0.86874 0.0
H370 H 0.38207 0.1625 0.87182 0.0
H371 H 0.39528 0.16965 0.89308 0.0
H372 H 0.40981 0.15786 0.91754 0.0
H373 H 0.41781 0.13576 0.92843 0.0
H374 H 0.44809 0.17916 0.95726 0.0
H375 H 0.43965 0.20103 0.94662 0.0
N376 N 0.42432 0.21229 0.92973 0.0
N377 N 0.41383 0.22114 0.91163 0.0
N378 N 0.41237 0.19094 0.91257 0.0
C379 C 0.42129 0.22539 0.92344 0.0
C380 C 0.40925 0.20391 0.90614 0.0
C381 C 0.41996 0.19506 0.92436 0.0
C382 C 0.4264 0.24422 0.92935 0.0
C383 C 0.42931 0.24678 0.94235 0.0
C384 C 0.43446 0.26464 0.94793 0.0
C385 C 0.43706 0.28037 0.94061 0.0
C386 C 0.43413 0.27785 0.92763 0.0
C387 C 0.42871 0.25991 0.92205 0.0
C388 C 0.40115 0.19945 0.89323 0.0
C389 C 0.39994 0.21367 0.8861 0.0
C390 C 0.39237 0.20953 0.87393 0.0
C391 C 0.38575 0.19106 0.86861 0.0
C392 C 0.3869 0.17681 0.87572 0.0
C393 C 0.39457 0.18097 0.88788 0.0
C394 C 0.42412 0.18127 0.93117 0.0
C395 C 0.41809 0.16267 0.92624 0.0
C396 C 0.83994 0.27656 0.92695 0.0
C397 C 0.83645 0.28102 0.93906 0.0
C398 C 0.81905 0.26759 0.9452 0.0
C399 C 0.80549 0.25009 0.93938 0.0
H400 H 0.75164 0.20174 0.94418 0.0
H401 H 0.72182 0.17891 0.95519 0.0
H402 H 0.70602 0.1376 0.92485 0.0
H403 H 0.73605 0.16032 0.91383 0.0
H404 H 0.76381 0.17233 0.88961 0.0
H405 H 0.77154 0.16523 0.86885 0.0
H406 H 0.82409 0.22201 0.86805 0.0
H407 H 0.81669 0.229 0.88879 0.0
H408 H 0.82958 0.25619 0.91176 0.0
H409 H 0.85305 0.2867 0.92188 0.0
H410 H 0.81603 0.27047 0.9546 0.0
H411 H 0.7923 0.24008 0.94443 0.0
N412 N 0.77781 0.21402 0.92699 0.0
N413 N 0.76853 0.19277 0.90976 0.0
N414 N 0.79824 0.22265 0.90943 0.0
C415 C 0.76466 0.19689 0.92142 0.0
C416 C 0.78531 0.20562 0.90369 0.0
C417 C 0.79464 0.22698 0.92107 0.0
C418 C 0.74634 0.18292 0.92808 0.0
C419 C 0.74186 0.1878 0.93981 0.0
C420 C 0.72467 0.17475 0.94612 0.0
C421 C 0.71151 0.15644 0.9409 0.0
C422 C 0.71596 0.15151 0.92919 0.0
C423 C 0.73314 0.1646 0.92284 0.0
C424 C 0.78964 0.20122 0.89095 0.0
C425 C 0.77702 0.18331 0.88502 0.0
C426 C 0.7814 0.17926 0.87308 0.0
C427 C 0.79849 0.19301 0.86679 0.0
C428 C 0.81099 0.21095 0.87269 0.0
C429 C 0.80665 0.21499 0.8846 0.0
C430 C 0.80898 0.2456 0.92726 0.0
C431 C 0.82638 0.25908 0.92111 0.0
C432 C 0.5824 0.72907 0.08167 0.0
C433 C 0.57129 0.72309 0.07052 0.0
C434 C 0.56483 0.73515 0.06522 0.0
C435 C 0.56922 0.75268 0.07099 0.0
H436 H 0.56791 0.80237 0.06501 0.0
H437 H 0.55829 0.82357 0.05465 0.0
H438 H 0.57508 0.86031 0.08754 0.0
H439 H 0.58514 0.8393 0.0979 0.0
H440 H 0.60676 0.83053 0.12043 0.0
H441 H 0.62085 0.83739 0.14148 0.0
H442 H 0.61799 0.78163 0.14197 0.0
H443 H 0.60442 0.77492 0.12092 0.0
H444 H 0.59525 0.75064 0.0961 0.0
H445 H 0.58787 0.72027 0.0859 0.0
H446 H 0.55601 0.73087 0.05673 0.0
H447 H 0.5638 0.76147 0.0667 0.0
N448 N 0.57947 0.78923 0.08289 0.0
N449 N 0.59102 0.81009 0.10031 0.0
N450 N 0.59237 0.78123 0.10019 0.0
C451 C 0.58284 0.80589 0.08866 0.0
C452 C 0.59583 0.79781 0.10614 0.0
C453 C 0.58421 0.77683 0.08857 0.0
C454 C 0.57728 0.81907 0.08233 0.0
C455 C 0.5696 0.81496 0.07007 0.0
C456 C 0.56396 0.82707 0.06413 0.0
C457 C 0.56582 0.84357 0.07028 0.0
C458 C 0.57365 0.84781 0.08249 0.0
C459 C 0.57933 0.8357 0.08845 0.0
C460 C 0.60447 0.80218 0.11893 0.0
C461 C 0.60917 0.81974 0.12501 0.0
C462 C 0.61716 0.82365 0.13711 0.0
C463 C 0.6206 0.81009 0.1434 0.0
C464 C 0.61587 0.79255 0.13732 0.0
C465 C 0.60795 0.78866 0.12525 0.0
C466 C 0.58009 0.75853 0.08225 0.0
C467 C 0.58671 0.74655 0.08749 0.0
C468 C 0.28683 0.84789 0.08097 0.0
C469 C 0.291 0.84283 0.06923 0.0
C470 C 0.27797 0.82428 0.06426 0.0
C471 C 0.26111 0.81116 0.07086 0.0
H472 H 0.21287 0.75588 0.06874 0.0
H473 H 0.18887 0.72505 0.05916 0.0
H474 H 0.14778 0.71549 0.08895 0.0
H475 H 0.17195 0.74596 0.09873 0.0
H476 H 0.19045 0.76961 0.12396 0.0
H477 H 0.18409 0.77696 0.14493 0.0
H478 H 0.23313 0.83562 0.14181 0.0
H479 H 0.2395 0.82839 0.12068 0.0
H480 H 0.26733 0.83918 0.09662 0.0
H481 H 0.2967 0.86198 0.08514 0.0
H482 H 0.28065 0.82 0.05518 0.0
H483 H 0.25139 0.79704 0.06669 0.0
N484 N 0.22559 0.78501 0.08424 0.0
N485 N 0.20597 0.7767 0.10218 0.0
N486 N 0.23558 0.80659 0.10132 0.0
C487 C 0.20904 0.77216 0.09046 0.0
C488 C 0.21914 0.79383 0.10771 0.0
C489 C 0.23894 0.80227 0.08958 0.0
C490 C 0.19441 0.75344 0.08454 0.0
C491 C 0.19872 0.74722 0.07326 0.0
C492 C 0.18489 0.72955 0.06772 0.0
C493 C 0.16635 0.71774 0.07327 0.0
C494 C 0.16202 0.72403 0.08451 0.0
C495 C 0.17588 0.74161 0.0901 0.0
C496 C 0.2155 0.7984 0.12057 0.0
C497 C 0.19994 0.7841 0.12769 0.0
C498 C 0.19635 0.78826 0.13978 0.0
C499 C 0.20814 0.80685 0.14505 0.0
C500 C 0.22369 0.82119 0.13796 0.0
C501 C 0.22739 0.817 0.12587 0.0
C502 C 0.25691 0.81622 0.08262 0.0
C503 C 0.27002 0.83475 0.0876 0.0
C504 C 0.16465 0.45167 0.08352 0.0
C505 C 0.16669 0.45678 0.07082 0.0
C506 C 0.18283 0.45803 0.06421 0.0
C507 C 0.19662 0.4543 0.07016 0.0
H508 H 0.25368 0.46333 0.06691 0.0
H509 H 0.28363 0.46929 0.0561 0.0
H510 H 0.29578 0.43908 0.08517 0.0
H511 H 0.26576 0.43297 0.096 0.0
H512 H 0.2403 0.42215 0.12121 0.0
H513 H 0.23291 0.40829 0.14212 0.0
H514 H 0.17978 0.41244 0.14265 0.0
H515 H 0.18687 0.4259 0.12171 0.0
H516 H 0.17617 0.44383 0.09922 0.0
H517 H 0.15226 0.45034 0.08885 0.0
H518 H 0.18494 0.4621 0.05446 0.0
H519 H 0.20886 0.45542 0.06477 0.0
N520 N 0.22572 0.44802 0.08326 0.0
N521 N 0.23505 0.43656 0.10072 0.0
N522 N 0.20545 0.43746 0.10094 0.0
C523 C 0.23887 0.44397 0.08895 0.0
C524 C 0.21837 0.43328 0.1068 0.0
C525 C 0.20895 0.44479 0.08918 0.0
C526 C 0.25721 0.44764 0.08236 0.0
C527 C 0.26268 0.45791 0.07103 0.0
C528 C 0.27994 0.46145 0.06484 0.0
C529 C 0.29211 0.45466 0.06976 0.0
C530 C 0.28663 0.44433 0.08106 0.0
C531 C 0.26945 0.44093 0.0873 0.0
C532 C 0.21417 0.42513 0.11968 0.0
C533 C 0.22703 0.42013 0.12576 0.0
C534 C 0.22286 0.41226 0.13781 0.0
C535 C 0.20571 0.40917 0.14409 0.0
C536 C 0.19295 0.41431 0.13804 0.0
C537 C 0.19711 0.42216 0.12602 0.0
C538 C 0.19451 0.44907 0.08286 0.0
C539 C 0.17833 0.44781 0.08945 0.0
C540 C 0.37998 0.8826 0.26105 0.0
C541 C 0.37739 0.878 0.27384 0.0
C542 C 0.39268 0.87733 0.2804 0.0
C543 C 0.41009 0.88106 0.27433 0.0
H544 H 0.45888 0.8738 0.2783 0.0
H545 H 0.48332 0.86822 0.28892 0.0
H546 H 0.52288 0.89306 0.25768 0.0
H547 H 0.49867 0.89888 0.24711 0.0
H548 H 0.48361 0.90803 0.22259 0.0
H549 H 0.4907 0.92105 0.20156 0.0
H550 H 0.43714 0.92449 0.20157 0.0
H551 H 0.42974 0.91099 0.22258 0.0
H552 H 0.3989 0.89002 0.24515 0.0
H553 H 0.36859 0.88346 0.25574 0.0
H554 H 0.39109 0.87366 0.29023 0.0
H555 H 0.4215 0.88035 0.27971 0.0
N556 N 0.44488 0.88662 0.26105 0.0
N557 N 0.4653 0.89733 0.24344 0.0
N558 N 0.43497 0.89681 0.24322 0.0
C559 C 0.46192 0.89033 0.25529 0.0
C560 C 0.45196 0.90063 0.23732 0.0
C561 C 0.43131 0.88981 0.2551 0.0
C562 C 0.47674 0.88683 0.26182 0.0
C563 C 0.47279 0.87811 0.27368 0.0
C564 C 0.48676 0.8748 0.27976 0.0
C565 C 0.50508 0.88021 0.27416 0.0
C566 C 0.50903 0.88894 0.26233 0.0
C567 C 0.49505 0.89216 0.25623 0.0
C568 C 0.45609 0.90845 0.22437 0.0
C569 C 0.47328 0.91152 0.21815 0.0
C570 C 0.47743 0.91913 0.20607 0.0
C571 C 0.46457 0.92396 0.19985 0.0
C572 C 0.44729 0.92075 0.20601 0.0
C573 C 0.4431 0.9131 0.21811 0.0
C574 C 0.41274 0.88573 0.26154 0.0
C575 C 0.39745 0.88648 0.25499 0.0
C576 C 0.09514 0.48635 0.26221 0.0
C577 C 0.10589 0.49179 0.27352 0.0
C578 C 0.11129 0.51002 0.2788 0.0
C579 C 0.10607 0.52251 0.27296 0.0
H580 H 0.10415 0.57174 0.27942 0.0
H581 H 0.11168 0.60184 0.29002 0.0
H582 H 0.09213 0.61983 0.25748 0.0
H583 H 0.08418 0.58953 0.24691 0.0
H584 H 0.06911 0.56257 0.22348 0.0
H585 H 0.05522 0.55609 0.2025 0.0
H586 H 0.05147 0.49992 0.20271 0.0
H587 H 0.06583 0.50653 0.22366 0.0
H588 H 0.08166 0.49422 0.24763 0.0
H589 H 0.09052 0.47229 0.25796 0.0
H590 H 0.11986 0.51483 0.28739 0.0
H591 H 0.11062 0.53647 0.27731 0.0
N592 N 0.09375 0.54727 0.26131 0.0
N593 N 0.08114 0.55584 0.24413 0.0
N594 N 0.08186 0.52664 0.2438 0.0
C595 C 0.0893 0.55995 0.25576 0.0
C596 C 0.07735 0.53923 0.23808 0.0
C597 C 0.0901 0.5306 0.25543 0.0
C598 C 0.09358 0.57818 0.26228 0.0
C599 C 0.10139 0.58205 0.2745 0.0
C600 C 0.10582 0.59938 0.28058 0.0
C601 C 0.10257 0.61326 0.27458 0.0
C602 C 0.09459 0.60933 0.26241 0.0
C603 C 0.09014 0.59198 0.25633 0.0
C604 C 0.06862 0.53507 0.22531 0.0
C605 C 0.06533 0.5488 0.2191 0.0
C606 C 0.05724 0.54505 0.20707 0.0
C607 C 0.05216 0.52746 0.20093 0.0
C608 C 0.05543 0.51371 0.20712 0.0
C609 C 0.06358 0.51748 0.21917 0.0
C610 C 0.09538 0.51713 0.26162 0.0
C611 C 0.08997 0.49889 0.25631 0.0
C612 C 0.50644 0.60851 0.26155 0.0
C613 C 0.50151 0.61462 0.27265 0.0
C614 C 0.48269 0.60271 0.27783 0.0
C615 C 0.46914 0.58516 0.27204 0.0
H616 H 0.41872 0.53289 0.27889 0.0
H617 H 0.38868 0.50986 0.28969 0.0
H618 H 0.36813 0.47391 0.25646 0.0
H619 H 0.39808 0.49701 0.24554 0.0
H620 H 0.42824 0.50656 0.22288 0.0
H621 H 0.43608 0.49929 0.20221 0.0
H622 H 0.48973 0.55524 0.20189 0.0
H623 H 0.48221 0.56238 0.22257 0.0
H624 H 0.49723 0.58683 0.2472 0.0
H625 H 0.52091 0.61712 0.25741 0.0
H626 H 0.47827 0.60707 0.28626 0.0
H627 H 0.45475 0.57644 0.27626 0.0
N628 N 0.44259 0.54781 0.26045 0.0
N629 N 0.43325 0.52677 0.24311 0.0
N630 N 0.46328 0.55633 0.24302 0.0
C631 C 0.42933 0.53083 0.25477 0.0
C632 C 0.45022 0.53947 0.23717 0.0
C633 C 0.4596 0.56064 0.25464 0.0
C634 C 0.4109 0.51685 0.26131 0.0
C635 C 0.40782 0.52012 0.27383 0.0
C636 C 0.39063 0.50685 0.28007 0.0
C637 C 0.37603 0.49004 0.27394 0.0
C638 C 0.37901 0.48683 0.26141 0.0
C639 C 0.39625 0.50004 0.25517 0.0
C640 C 0.45461 0.53504 0.22447 0.0
C641 C 0.44171 0.51733 0.21841 0.0
C642 C 0.44615 0.51318 0.20652 0.0
C643 C 0.46358 0.52664 0.20041 0.0
C644 C 0.47635 0.5444 0.20641 0.0
C645 C 0.47195 0.54853 0.21827 0.0
C646 C 0.47403 0.57914 0.26089 0.0
C647 C 0.49286 0.59104 0.25573 0.0
Eu648 Eu 0.49096 0.98542 0.99108 0.0
C649 C 0.5388 0.06103 0.02436 0.0
C650 C 0.57321 0.06986 0.02255 0.0
C651 C 0.56461 0.09491 0.02645 0.0
C652 C 0.55292 0.05571 0.02229 0.0
C653 C 0.54447 0.08063 0.02674 0.0
C654 C 0.57896 0.08953 0.02436 0.0
C655 C 0.5101 0.07031 0.03057 0.0
N656 N 0.51953 0.04685 0.02473 0.0
C657 C 0.50524 0.05107 0.02822 0.0
C658 C 0.52979 0.0852 0.02968 0.0
Eu659 Eu 0.51222 0.01469 0.02026 0.0
N660 N 0.54685 0.03657 0.02068 0.0
C661 C 0.56038 0.03046 0.02012 0.0
C662 C 0.58713 0.06375 0.02134 0.0
C663 C 0.58067 0.04393 0.02027 0.0
H664 H 0.48999 0.03963 0.02886 0.0
H665 H 0.59132 0.03902 0.01953 0.0
H666 H 0.59447 0.10062 0.02447 0.0
H667 H 0.49868 0.07364 0.03305 0.0
H668 H 0.55564 0.01521 0.01926 0.0
H669 H 0.41208 0.96212 0.99212 0.0
H670 H 0.60285 0.07416 0.02151 0.0
H671 H 0.51244 0.95967 0.98277 0.0
H672 H 0.44783 0.98561 0.99172 0.0
H673 H 0.50324 0.92532 0.97933 0.0
H674 H 0.56926 0.11007 0.02814 0.0
H675 H 0.4001 0.92681 0.99116 0.0
H676 H 0.40799 0.8999 0.98873 0.0
H677 H 0.53354 0.10009 0.03155 0.0
H678 H 0.43279 0.88986 0.98519 0.0
N679 N 0.45624 0.96392 0.99086 0.0
C680 C 0.4429 0.97029 0.99123 0.0
C681 C 0.41586 0.93708 0.99096 0.0
C682 C 0.42956 0.93068 0.98983 0.0
C683 C 0.42256 0.95699 0.99147 0.0
C684 C 0.44991 0.94466 0.9897 0.0
H685 H 0.46831 0.89926 0.98147 0.0
N686 N 0.48311 0.95298 0.98706 0.0
C687 C 0.492 0.92896 0.98174 0.0
C688 C 0.4638 0.939 0.98774 0.0
C689 C 0.49716 0.94837 0.98365 0.0
C690 C 0.47228 0.91429 0.98299 0.0
C691 C 0.45784 0.91923 0.98584 0.0
O692 O 0.50379 0.98887 0.97248 0.0
O693 O 0.51657 0.01098 1.00009 0.0
O694 O 0.50725 0.03335 0.00647 0.0
O695 O 0.4829 0.00922 0.99368 0.0
O696 O 0.52334 0.99535 0.98755 0.0
O697 O 0.4795 0.99428 0.97527 0.0
O698 O 0.49897 0.01024 0.03879 0.0
O699 O 0.48662 0.98922 0.0112 0.0
O700 O 0.49589 0.96691 0.00502 0.0
O701 O 0.52064 0.99118 0.01748 0.0
O702 O 0.47985 0.00482 0.02372 0.0
O703 O 0.52392 0.00588 0.03596 0.0
C704 C 0.53068 0.01038 0.99481 0.0
C705 C 0.48246 0.98314 0.95531 0.0
C706 C 0.4805 0.98388 0.93249 0.0
C707 C 0.48885 0.99329 0.94398 0.0
C708 C 0.46574 0.9641 0.93261 0.0
C709 C 0.46771 0.96349 0.95518 0.0
C710 C 0.45942 0.95404 0.94387 0.0
C711 C 0.49291 0.02736 0.998 0.0
C712 C 0.49139 0.99317 0.96719 0.0
C713 C 0.43766 0.90515 0.9865 0.0
C714 C 0.42354 0.91087 0.98851 0.0
C715 C 0.4725 0.98985 0.01642 0.0
C716 C 0.52011 0.01604 0.05605 0.0
C717 C 0.5134 0.00556 0.06724 0.0
C718 C 0.52123 0.01468 0.07887 0.0
C719 C 0.53584 0.03452 0.07905 0.0
C720 C 0.5347 0.03575 0.05647 0.0
C721 C 0.5425 0.04491 0.06793 0.0
C722 C 0.51043 0.97295 0.01335 0.0
C723 C 0.51164 0.00628 0.04403 0.0
H724 H 0.50012 0.00854 0.94415 0.0
H725 H 0.45923 0.95627 0.92398 0.0
H726 H 0.46264 0.95546 0.9638 0.0
H727 H 0.44809 0.93883 0.94382 0.0
H728 H 0.50226 0.99026 0.06685 0.0
H729 H 0.54197 0.04211 0.08781 0.0
H730 H 0.54002 0.04403 0.04796 0.0
H731 H 0.5537 0.06016 0.0682 0.0
Eu732 Eu 0.0184 0.50454 0.99263 0.0
C733 C 0.93642 0.47381 0.01924 0.0
C734 C 0.92768 0.49891 0.01682 0.0
C735 C 0.90177 0.46509 0.01856 0.0
C736 C 0.94208 0.49316 0.01763 0.0
C737 C 0.9162 0.45958 0.01997 0.0
C738 C 0.9075 0.48473 0.017 0.0
C739 C 0.92607 0.43583 0.02457 0.0
N740 N 0.95072 0.46903 0.02078 0.0
C741 C 0.94591 0.4505 0.02388 0.0
C742 C 0.91113 0.44034 0.02246 0.0
Eu743 Eu 0.98396 0.49448 0.01913 0.0
N744 N 0.9617 0.5065 0.01756 0.0
C745 C 0.96791 0.52592 0.0175 0.0
C746 C 0.93398 0.51876 0.0162 0.0
C747 C 0.9542 0.53233 0.0167 0.0
H748 H 0.95741 0.44694 0.02547 0.0
H749 H 0.95924 0.54774 0.01647 0.0
H750 H 0.89622 0.48885 0.01625 0.0
H751 H 0.92231 0.42108 0.02673 0.0
H752 H 0.98347 0.53658 0.01785 0.0
H753 H 0.04242 0.45079 0.9967 0.0
H754 H 0.92338 0.52376 0.01562 0.0
H755 H 0.04552 0.55171 0.98553 0.0
H756 H 0.01849 0.46219 0.99413 0.0
H757 H 0.08078 0.57733 0.98452 0.0
H758 H 0.88616 0.45436 0.01898 0.0
H759 H 0.07822 0.47457 0.99844 0.0
H760 H 0.10563 0.50943 0.99788 0.0
H761 H 0.89577 0.42898 0.02307 0.0
H762 H 0.1161 0.5439 0.99452 0.0
N763 N 0.04039 0.49222 0.9947 0.0
C764 C 0.03404 0.47276 0.99482 0.0
C765 C 0.06777 0.47968 0.9973 0.0
C766 C 0.07427 0.49956 0.99645 0.0
C767 C 0.04758 0.46622 0.99629 0.0
C768 C 0.06003 0.50543 0.99501 0.0
H769 H 0.10696 0.56931 0.98928 0.0
N770 N 0.0518 0.52965 0.99105 0.0
C771 C 0.07681 0.56263 0.98701 0.0
C772 C 0.06593 0.52478 0.99313 0.0
C773 C 0.05689 0.5481 0.98755 0.0
C774 C 0.09154 0.55805 0.98974 0.0
C775 C 0.08621 0.53887 0.99265 0.0
O776 O 0.01835 0.51458 0.97367 0.0
O777 O 0.99094 0.50356 0.99931 0.0
O778 O 0.96748 0.47218 0.00399 0.0
O779 O 0.99388 0.47256 0.99354 0.0
O780 O 0.00851 0.5263 0.98768 0.0
O781 O 0.01286 0.4853 0.97663 0.0
O782 O 0.98432 0.48438 0.03802 0.0
O783 O 0.01142 0.49562 0.01245 0.0
O784 O 0.03477 0.52724 0.0076 0.0
O785 O 0.00832 0.52652 0.01823 0.0
O786 O 0.99397 0.47277 0.02398 0.0
O787 O 0.98958 0.51361 0.03521 0.0
C788 C 0.99216 0.51812 0.99381 0.0
C789 C 0.02849 0.50081 0.95788 0.0
C790 C 0.0333 0.50148 0.93532 0.0
C791 C 0.02121 0.4991 0.94566 0.0
C792 C 0.05285 0.50558 0.93745 0.0
C793 C 0.04799 0.50489 0.95981 0.0
C794 C 0.06009 0.50725 0.94962 0.0
C795 C 0.97477 0.4643 0.99627 0.0
C796 C 0.01559 0.49854 0.96845 0.0
C797 C 0.10045 0.53326 0.99471 0.0
C798 C 0.09448 0.51363 0.99662 0.0
C799 C 0.01035 0.48111 0.0179 0.0
C800 C 0.97446 0.49801 0.05406 0.0
C801 C 0.9822 0.50012 0.06617 0.0
C802 C 0.97036 0.49766 0.07667 0.0
C803 C 0.9506 0.49306 0.0748 0.0
C804 C 0.95476 0.49345 0.05238 0.0
C805 C 0.94291 0.49099 0.06272 0.0
C806 C 0.02742 0.53493 0.01544 0.0
C807 C 0.98711 0.50037 0.04333 0.0
H808 H 0.00603 0.49569 0.94425 0.0
H809 H 0.06262 0.50774 0.9297 0.0
H810 H 0.05384 0.50624 0.96915 0.0
H811 H 0.07516 0.51046 0.95117 0.0
H812 H 0.99753 0.50391 0.06739 0.0
H813 H 0.94102 0.49082 0.08267 0.0
H814 H 0.94856 0.49178 0.04312 0.0
H815 H 0.92768 0.4874 0.06137 0.0
Eu816 Eu 0.51348 0.49543 0.02035 0.0
C817 C 0.4669 0.52759 0.98996 0.0
C818 C 0.43235 0.50326 0.99228 0.0
C819 C 0.44177 0.53716 0.9894 0.0
C820 C 0.45248 0.50848 0.99184 0.0
C821 C 0.4617 0.54211 0.98843 0.0
C822 C 0.42711 0.51777 0.99133 0.0
C823 C 0.49605 0.56495 0.98408 0.0
N824 N 0.48597 0.53182 0.98898 0.0
C825 C 0.50045 0.55002 0.98564 0.0
C826 C 0.47663 0.56103 0.98564 0.0
Eu827 Eu 0.49253 0.50609 0.99224 0.0
N828 N 0.45805 0.49483 0.99261 0.0
C829 C 0.44411 0.47553 0.9929 0.0
C830 C 0.41806 0.48358 0.99333 0.0
C831 C 0.42396 0.46964 0.99346 0.0
H832 H 0.51551 0.55314 0.98451 0.0
H833 H 0.41302 0.45434 0.99404 0.0
H834 H 0.41174 0.51408 0.99178 0.0
H835 H 0.50764 0.57945 0.98171 0.0
H836 H 0.44843 0.46458 0.99308 0.0
H837 H 0.59284 0.54757 0.02099 0.0
H838 H 0.40244 0.47898 0.99376 0.0
H839 H 0.49 0.4477 0.02636 0.0
H840 H 0.55736 0.53703 0.01995 0.0
H841 H 0.49787 0.42137 0.02897 0.0
H842 H 0.43749 0.54814 0.98837 0.0
H843 H 0.60356 0.52315 0.02264 0.0
H844 H 0.59446 0.48808 0.0236 0.0
H845 H 0.47324 0.5726 0.9844 0.0
H846 H 0.56864 0.45371 0.02553 0.0
N847 N 0.54792 0.50682 0.02044 0.0
C848 C 0.56176 0.52616 0.02048 0.0
C849 C 0.58794 0.5184 0.02188 0.0
C850 C 0.57371 0.49862 0.02208 0.0
C851 C 0.58194 0.53223 0.02106 0.0
C852 C 0.55353 0.49322 0.0215 0.0
H853 H 0.53261 0.42872 0.02765 0.0
N854 N 0.51986 0.4695 0.02312 0.0
C855 C 0.50959 0.43608 0.02719 0.0
C856 C 0.53905 0.47395 0.02278 0.0
C857 C 0.50519 0.45101 0.02574 0.0
C858 C 0.52921 0.44028 0.02641 0.0
C859 C 0.54427 0.45946 0.0244 0.0
O860 O 0.50087 0.48544 0.03887 0.0
O861 O 0.48823 0.49742 0.01225 0.0
O862 O 0.49866 0.5293 0.00668 0.0
O863 O 0.52266 0.5276 0.01887 0.0
O864 O 0.48088 0.47423 0.02391 0.0
O865 O 0.52598 0.51447 0.03666 0.0
O866 O 0.50503 0.51529 0.97362 0.0
O867 O 0.51791 0.50443 1.00045 0.0
O868 O 0.50826 0.47312 0.00548 0.0
O869 O 0.4832 0.47392 0.99403 0.0
O870 O 0.52513 0.52737 0.98864 0.0
O871 O 0.4797 0.48656 0.97619 0.0
C872 C 0.47389 0.483 0.01733 0.0
C873 C 0.52281 0.49886 0.05597 0.0
C874 C 0.52393 0.49846 0.07878 0.0
C875 C 0.51588 0.50101 0.06762 0.0
C876 C 0.53904 0.4937 0.07805 0.0
C877 C 0.53787 0.49415 0.05545 0.0
C878 C 0.54593 0.49159 0.06645 0.0
C879 C 0.51313 0.53664 0.01509 0.0
C880 C 0.51395 0.50136 0.0445 0.0
C881 C 0.56433 0.46464 0.02437 0.0
C882 C 0.57903 0.48421 0.02327 0.0
C883 C 0.53226 0.51889 0.9954 0.0
C884 C 0.48288 0.50157 0.95666 0.0
C885 C 0.48942 0.49871 0.94506 0.0
C886 C 0.48128 0.50096 0.93384 0.0
C887 C 0.46648 0.50615 0.93447 0.0
C888 C 0.46813 0.50672 0.95709 0.0
C889 C 0.45999 0.509 0.94602 0.0
C890 C 0.49338 0.46536 0.99739 0.0
C891 C 0.49177 0.49928 0.96819 0.0
H892 H 0.50439 0.50488 0.06796 0.0
H893 H 0.54536 0.49136 0.08644 0.0
H894 H 0.54338 0.49243 0.04657 0.0
H895 H 0.55752 0.48788 0.06599 0.0
H896 H 0.50067 0.49451 0.9448 0.0
H897 H 0.46009 0.50827 0.92603 0.0
H898 H 0.46293 0.50899 0.96594 0.0
H899 H 0.44864 0.51304 0.9464 0.0
Eu900 Eu 0.1571 0.31806 0.32377 0.0
C901 C 0.2053 0.39334 0.35671 0.0
C902 C 0.23909 0.39979 0.35643 0.0
C903 C 0.23259 0.42653 0.35893 0.0
C904 C 0.21855 0.38668 0.35555 0.0
C905 C 0.21214 0.41329 0.3587 0.0
C906 C 0.24605 0.41979 0.35782 0.0
C907 C 0.17814 0.40529 0.36141 0.0
N908 N 0.18567 0.38014 0.35671 0.0
C909 C 0.1721 0.38566 0.35951 0.0
C910 C 0.19824 0.41921 0.36084 0.0
Eu911 Eu 0.17645 0.34724 0.35316 0.0
N912 N 0.21134 0.36725 0.35433 0.0
C913 C 0.22384 0.35987 0.35472 0.0
C914 C 0.252 0.39234 0.35632 0.0
C915 C 0.24432 0.37229 0.35556 0.0
H916 H 0.15654 0.3749 0.35991 0.0
H917 H 0.25416 0.36636 0.35564 0.0
H918 H 0.26178 0.4301 0.35838 0.0
H919 H 0.1673 0.40968 0.36332 0.0
H920 H 0.2182 0.34442 0.35418 0.0
H921 H 0.07862 0.2968 0.32463 0.0
H922 H 0.26786 0.4019 0.3571 0.0
H923 H 0.1767 0.29175 0.31348 0.0
H924 H 0.11449 0.31952 0.32401 0.0
H925 H 0.1665 0.25728 0.30929 0.0
H926 H 0.23815 0.44194 0.36033 0.0
H927 H 0.0657 0.2613 0.32407 0.0
H928 H 0.07259 0.23372 0.32156 0.0
H929 H 0.2029 0.43441 0.3624 0.0
H930 H 0.09659 0.22289 0.31729 0.0
N931 N 0.12215 0.29725 0.32349 0.0
C932 C 0.1092 0.30412 0.32369 0.0
C933 C 0.08153 0.27124 0.3238 0.0
C934 C 0.09479 0.26431 0.32264 0.0
C935 C 0.08876 0.29125 0.32407 0.0
C936 C 0.11526 0.27789 0.32241 0.0
H937 H 0.13163 0.23162 0.31236 0.0
N938 N 0.14803 0.28547 0.31911 0.0
C939 C 0.15572 0.26113 0.31242 0.0
C940 C 0.12868 0.27178 0.32013 0.0
C941 C 0.16143 0.28061 0.31476 0.0
C942 C 0.13604 0.24669 0.31421 0.0
C943 C 0.12214 0.25196 0.31787 0.0
O944 O 0.17117 0.32207 0.30552 0.0
O945 O 0.18219 0.3433 0.33337 0.0
O946 O 0.17318 0.36616 0.33872 0.0
O947 O 0.14942 0.34223 0.32562 0.0
O948 O 0.18966 0.32754 0.32145 0.0
O949 O 0.14685 0.32749 0.30763 0.0
O950 O 0.16225 0.34508 0.37114 0.0
O951 O 0.15147 0.32157 0.34379 0.0
O952 O 0.16297 0.29938 0.33711 0.0
O953 O 0.18327 0.32248 0.35218 0.0
O954 O 0.14401 0.33801 0.35515 0.0
O955 O 0.1858 0.33826 0.36989 0.0
C956 C 0.1966 0.34247 0.32881 0.0
C957 C 0.15081 0.31664 0.28786 0.0
C958 C 0.14944 0.31777 0.26503 0.0
C959 C 0.15742 0.32702 0.27661 0.0
C960 C 0.13487 0.29792 0.26495 0.0
C961 C 0.13621 0.29693 0.28753 0.0
C962 C 0.12834 0.28764 0.27612 0.0
C963 C 0.15947 0.36039 0.32985 0.0
C964 C 0.15916 0.32652 0.29987 0.0
C965 C 0.10189 0.23822 0.31882 0.0
C966 C 0.08823 0.24439 0.32124 0.0
C967 C 0.13708 0.32253 0.34831 0.0
C968 C 0.18169 0.35013 0.38925 0.0
C969 C 0.17543 0.33957 0.40044 0.0
C970 C 0.18318 0.3488 0.41206 0.0
C971 C 0.19721 0.36881 0.41223 0.0
C972 C 0.19572 0.37001 0.38967 0.0
C973 C 0.2034 0.37929 0.40111 0.0
C974 C 0.17516 0.30498 0.34689 0.0
C975 C 0.17356 0.34017 0.37724 0.0
H976 H 0.16854 0.34232 0.27692 0.0
H977 H 0.12865 0.29023 0.25623 0.0
H978 H 0.13089 0.28875 0.29607 0.0
H979 H 0.11713 0.27239 0.27592 0.0
H980 H 0.16477 0.32413 0.40006 0.0
H981 H 0.20326 0.37646 0.42099 0.0
H982 H 0.20074 0.37834 0.38116 0.0
H983 H 0.21418 0.39467 0.40138 0.0
Eu984 Eu 0.68416 0.83756 0.32612 0.0
C985 C 0.60308 0.8073 0.35362 0.0
C986 C 0.59421 0.83231 0.35116 0.0
C987 C 0.56841 0.79852 0.35329 0.0
C988 C 0.60867 0.82662 0.35188 0.0
C989 C 0.5829 0.79308 0.35462 0.0
C990 C 0.57405 0.81811 0.35158 0.0
C991 C 0.59297 0.76952 0.35938 0.0
N992 N 0.61745 0.8026 0.3551 0.0
C993 C 0.61277 0.78418 0.35841 0.0
C994 C 0.57795 0.77393 0.35733 0.0
Eu995 Eu 0.6506 0.82805 0.35304 0.0
N996 N 0.62827 0.83998 0.35161 0.0
C997 C 0.63444 0.85939 0.35147 0.0
C998 C 0.60046 0.85214 0.35045 0.0
C999 C 0.62067 0.86575 0.35077 0.0
H1000 H 0.62434 0.7807 0.35995 0.0
H1001 H 0.62567 0.88115 0.35047 0.0
H1002 H 0.56274 0.82219 0.35091 0.0
H1003 H 0.5893 0.75484 0.36171 0.0
H1004 H 0.65 0.87007 0.35169 0.0
H1005 H 0.70854 0.78413 0.33055 0.0
H1006 H 0.58982 0.8571 0.34994 0.0
H1007 H 0.71077 0.88424 0.31787 0.0
H1008 H 0.68444 0.79535 0.32815 0.0
H1009 H 0.7459 0.90976 0.31582 0.0
H1010 H 0.55282 0.78778 0.35392 0.0
H1011 H 0.74439 0.80801 0.33147 0.0
H1012 H 0.77169 0.84281 0.32997 0.0
H1013 H 0.56262 0.76258 0.35815 0.0
H1014 H 0.7819 0.87705 0.32591 0.0
N1015 N 0.7063 0.8254 0.3281 0.0
C1016 C 0.70001 0.80597 0.32852 0.0
C1017 C 0.73386 0.81304 0.33044 0.0
C1018 C 0.74027 0.83286 0.32924 0.0
C1019 C 0.71364 0.79952 0.32988 0.0
C1020 C 0.72593 0.83864 0.32796 0.0
H1021 H 0.77239 0.90208 0.32035 0.0
N1022 N 0.71742 0.86258 0.32375 0.0
C1023 C 0.74211 0.89525 0.31867 0.0
C1024 C 0.73168 0.85786 0.32571 0.0
C1025 C 0.72226 0.88078 0.31982 0.0
C1026 C 0.75702 0.89087 0.32128 0.0
C1027 C 0.7519 0.87191 0.32465 0.0
O1028 O 0.68298 0.84681 0.3071 0.0
O1029 O 0.65693 0.83673 0.33312 0.0
O1030 O 0.63363 0.80545 0.33815 0.0
O1031 O 0.6597 0.8056 0.32744 0.0
O1032 O 0.67416 0.85922 0.32123 0.0
O1033 O 0.67821 0.81786 0.31033 0.0
O1034 O 0.65146 0.81829 0.37196 0.0
O1035 O 0.67795 0.82922 0.34608 0.0
O1036 O 0.70102 0.861 0.34061 0.0
O1037 O 0.6749 0.86004 0.35186 0.0
O1038 O 0.66091 0.80655 0.35785 0.0
O1039 O 0.65645 0.8474 0.36902 0.0
C1040 C 0.65803 0.85121 0.32758 0.0
C1041 C 0.69294 0.83293 0.29128 0.0
C1042 C 0.69719 0.83357 0.26867 0.0
C1043 C 0.68537 0.83126 0.27915 0.0
C1044 C 0.71676 0.83761 0.27057 0.0
C1045 C 0.71245 0.8369 0.29299 0.0
C1046 C 0.72429 0.83924 0.28266 0.0
C1047 C 0.64066 0.79743 0.33035 0.0
C1048 C 0.68034 0.83073 0.30201 0.0
C1049 C 0.76628 0.86643 0.32655 0.0
C1050 C 0.76047 0.84694 0.32886 0.0
C1051 C 0.67713 0.81487 0.3516 0.0
C1052 C 0.64165 0.832 0.38798 0.0
C1053 C 0.64958 0.8345 0.40006 0.0
C1054 C 0.63783 0.83208 0.4106 0.0
C1055 C 0.61795 0.82711 0.4088 0.0
C1056 C 0.62184 0.8271 0.38637 0.0
C1057 C 0.61006 0.82467 0.39675 0.0
C1058 C 0.69386 0.86864 0.34865 0.0
C1059 C 0.6542 0.83432 0.3772 0.0
H1060 H 0.67018 0.82792 0.27791 0.0
H1061 H 0.72633 0.83973 0.26271 0.0
H1062 H 0.71851 0.8382 0.30225 0.0
H1063 H 0.73937 0.84238 0.28403 0.0
H1064 H 0.665 0.83855 0.40123 0.0
H1065 H 0.60842 0.82487 0.4167 0.0
H1066 H 0.61548 0.82515 0.37714 0.0
H1067 H 0.59474 0.8208 0.39545 0.0
Eu1068 Eu 0.17953 0.83021 0.35238 0.0
C1069 C 0.13116 0.86061 0.32188 0.0
C1070 C 0.09668 0.8361 0.32427 0.0
C1071 C 0.10576 0.86982 0.32099 0.0
C1072 C 0.11687 0.84149 0.32393 0.0
C1073 C 0.12575 0.87495 0.32012 0.0
C1074 C 0.09125 0.85042 0.32306 0.0
C1075 C 0.16003 0.89795 0.31571 0.0
N1076 N 0.15028 0.86502 0.32095 0.0
C1077 C 0.16463 0.8832 0.31747 0.0
C1078 C 0.14054 0.89387 0.31719 0.0
Eu1079 Eu 0.15711 0.8395 0.32438 0.0
N1080 N 0.12263 0.82801 0.32498 0.0
C1081 C 0.10883 0.80868 0.32554 0.0
C1082 C 0.08254 0.8164 0.32547 0.0
C1083 C 0.08865 0.80261 0.32595 0.0
H1084 H 0.17974 0.88645 0.31637 0.0
H1085 H 0.07782 0.7873 0.32666 0.0
H1086 H 0.07583 0.84658 0.32342 0.0
H1087 H 0.17152 0.91245 0.31323 0.0
H1088 H 0.1133 0.79785 0.32595 0.0
H1089 H 0.25866 0.88299 0.34954 0.0
H1090 H 0.06689 0.81166 0.32576 0.0
H1091 H 0.15762 0.78329 0.36035 0.0
H1092 H 0.22316 0.87218 0.35115 0.0
H1093 H 0.1662 0.75737 0.36269 0.0
H1094 H 0.10132 0.88065 0.31977 0.0
H1095 H 0.26981 0.85878 0.34922 0.0
H1096 H 0.26118 0.82383 0.35092 0.0
H1097 H 0.137 0.9053 0.31578 0.0
H1098 H 0.23603 0.78963 0.35457 0.0
N1099 N 0.21407 0.84205 0.35144 0.0
C1100 C 0.22775 0.86142 0.35109 0.0
C1101 C 0.25416 0.85393 0.34995 0.0
C1102 C 0.24017 0.83416 0.35107 0.0
C1103 C 0.24794 0.86763 0.35017 0.0
C1104 C 0.21999 0.82863 0.35193 0.0
H1105 H 0.20063 0.76477 0.35919 0.0
N1106 N 0.18678 0.80489 0.35534 0.0
C1107 C 0.1775 0.77194 0.36017 0.0
C1108 C 0.20589 0.80944 0.35395 0.0
C1109 C 0.1727 0.78663 0.35888 0.0
C1110 C 0.19693 0.77616 0.35816 0.0
C1111 C 0.21149 0.79516 0.35519 0.0
O1112 O 0.16768 0.82105 0.37114 0.0
O1113 O 0.15373 0.83147 0.3445 0.0
O1114 O 0.16329 0.86296 0.33863 0.0
O1115 O 0.18811 0.86219 0.3505 0.0
O1116 O 0.1472 0.80892 0.3566 0.0
O1117 O 0.19295 0.84978 0.36836 0.0
O1118 O 0.16943 0.84816 0.30567 0.0
O1119 O 0.18286 0.8383 0.33232 0.0
O1120 O 0.17326 0.80685 0.33804 0.0
O1121 O 0.14814 0.80747 0.32648 0.0
O1122 O 0.18948 0.8609 0.32029 0.0
O1123 O 0.14371 0.81975 0.30847 0.0
C1124 C 0.13973 0.81718 0.34993 0.0
C1125 C 0.19041 0.83471 0.38781 0.0
C1126 C 0.19186 0.83399 0.41061 0.0
C1127 C 0.18353 0.83651 0.39956 0.0
C1128 C 0.20722 0.82962 0.40964 0.0
C1129 C 0.20573 0.83037 0.38705 0.0
C1130 C 0.21408 0.82785 0.39794 0.0
C1131 C 0.17811 0.8708 0.3468 0.0
C1132 C 0.18117 0.83706 0.37647 0.0
C1133 C 0.23145 0.80042 0.35378 0.0
C1134 C 0.24577 0.81989 0.3517 0.0
C1135 C 0.19692 0.85266 0.327 0.0
C1136 C 0.147 0.83465 0.28886 0.0
C1137 C 0.15414 0.8327 0.27723 0.0
C1138 C 0.14641 0.83561 0.26605 0.0
C1139 C 0.13137 0.84045 0.26672 0.0
C1140 C 0.13197 0.83943 0.28933 0.0
C1141 C 0.1242 0.84229 0.27829 0.0
C1142 C 0.15827 0.79892 0.33003 0.0
C1143 C 0.15583 0.83221 0.30037 0.0
H1144 H 0.17182 0.84008 0.40007 0.0
H1145 H 0.21378 0.82731 0.41793 0.0
H1146 H 0.21118 0.82889 0.37808 0.0
H1147 H 0.22586 0.82442 0.39731 0.0
H1148 H 0.16595 0.82926 0.27692 0.0
H1149 H 0.12497 0.84257 0.25829 0.0
H1150 H 0.1263 0.84098 0.29819 0.0
H1151 H 0.11258 0.84596 0.2787 0.0
Eu1152 Eu 0.82601 0.652 0.65778 0.0
C1153 C 0.87144 0.72828 0.69003 0.0
C1154 C 0.90576 0.73636 0.68997 0.0
C1155 C 0.89759 0.76206 0.69186 0.0
C1156 C 0.88541 0.7225 0.68912 0.0
C1157 C 0.87734 0.74809 0.69167 0.0
C1158 C 0.91178 0.75621 0.69103 0.0
C1159 C 0.84285 0.7386 0.69402 0.0
N1160 N 0.85204 0.71439 0.69006 0.0
C1161 C 0.83776 0.71913 0.69248 0.0
C1162 C 0.86272 0.75317 0.69346 0.0
Eu1163 Eu 0.84442 0.68184 0.68688 0.0
N1164 N 0.87909 0.70322 0.68817 0.0
C1165 C 0.89232 0.69673 0.68881 0.0
C1166 C 0.91941 0.72981 0.69013 0.0
C1167 C 0.91265 0.7099 0.68964 0.0
H1168 H 0.82239 0.7079 0.69286 0.0
H1169 H 0.92307 0.70467 0.68993 0.0
H1170 H 0.92735 0.76708 0.69154 0.0
H1171 H 0.83147 0.74234 0.69562 0.0
H1172 H 0.88737 0.6814 0.68845 0.0
H1173 H 0.74745 0.62967 0.65493 0.0
H1174 H 0.93516 0.73997 0.69093 0.0
H1175 H 0.84769 0.62581 0.65133 0.0
H1176 H 0.78318 0.65273 0.65642 0.0
H1177 H 0.83839 0.59137 0.64817 0.0
H1178 H 0.90242 0.77737 0.69299 0.0
H1179 H 0.73513 0.59435 0.6537 0.0
H1180 H 0.74269 0.56708 0.65278 0.0
H1181 H 0.86664 0.76824 0.69472 0.0
H1182 H 0.76745 0.55661 0.65103 0.0
N1183 N 0.79128 0.63078 0.65649 0.0
C1184 C 0.77814 0.6374 0.65596 0.0
C1185 C 0.75089 0.60441 0.6545 0.0
C1186 C 0.76444 0.59773 0.65454 0.0
C1187 C 0.75779 0.62434 0.65512 0.0
C1188 C 0.78482 0.61149 0.65541 0.0
H1189 H 0.80317 0.56559 0.64907 0.0
N1190 N 0.81811 0.61942 0.65433 0.0
C1191 C 0.82707 0.59516 0.64995 0.0
C1192 C 0.79869 0.60561 0.65435 0.0
C1193 C 0.83229 0.61462 0.65171 0.0
C1194 C 0.80718 0.58065 0.65051 0.0
C1195 C 0.79266 0.58581 0.65251 0.0
O1196 O 0.84016 0.6546 0.63973 0.0
O1197 O 0.85076 0.6777 0.66723 0.0
O1198 O 0.84119 0.70023 0.67206 0.0
O1199 O 0.81781 0.67588 0.65899 0.0
O1200 O 0.85871 0.66178 0.65585 0.0
O1201 O 0.81651 0.66123 0.6412 0.0
O1202 O 0.83004 0.67907 0.70485 0.0
O1203 O 0.81974 0.65601 0.67748 0.0
O1204 O 0.82976 0.63365 0.67247 0.0
O1205 O 0.85265 0.65799 0.68579 0.0
O1206 O 0.81169 0.67193 0.68878 0.0
O1207 O 0.85441 0.67345 0.70363 0.0
C1208 C 0.86537 0.67698 0.66292 0.0
C1209 C 0.8204 0.64941 0.62177 0.0
C1210 C 0.81858 0.65051 0.59896 0.0
C1211 C 0.82649 0.65986 0.61053 0.0
C1212 C 0.80456 0.63049 0.5989 0.0
C1213 C 0.80638 0.62952 0.62146 0.0
C1214 C 0.79854 0.62013 0.61006 0.0
C1215 C 0.82761 0.69414 0.6631 0.0
C1216 C 0.82869 0.65944 0.63374 0.0
C1217 C 0.77239 0.57192 0.65231 0.0
C1218 C 0.75829 0.57788 0.6533 0.0
C1219 C 0.80508 0.65666 0.68178 0.0
C1220 C 0.84989 0.68534 0.72288 0.0
C1221 C 0.84361 0.67522 0.73422 0.0
C1222 C 0.85078 0.68507 0.74573 0.0
C1223 C 0.86442 0.70517 0.74565 0.0
C1224 C 0.86352 0.70534 0.72303 0.0
C1225 C 0.87075 0.71518 0.73437 0.0
C1226 C 0.84318 0.6398 0.68155 0.0
C1227 C 0.8419 0.67491 0.71098 0.0
H1228 H 0.83715 0.6753 0.61083 0.0
H1229 H 0.79841 0.62274 0.59019 0.0
H1230 H 0.80151 0.62127 0.63 0.0
H1231 H 0.78778 0.60474 0.60988 0.0
H1232 H 0.83293 0.65978 0.73408 0.0
H1233 H 0.87042 0.71313 0.75431 0.0
H1234 H 0.86854 0.71333 0.71441 0.0
H1235 H 0.8813 0.73062 0.73443 0.0
Eu1236 Eu 0.35044 0.17126 0.65985 0.0
C1237 C 0.26933 0.14001 0.68797 0.0
C1238 C 0.26072 0.16534 0.68698 0.0
C1239 C 0.2348 0.1316 0.68902 0.0
C1240 C 0.27501 0.15942 0.68662 0.0
C1241 C 0.24918 0.1259 0.68937 0.0
C1242 C 0.24057 0.15131 0.68791 0.0
C1243 C 0.25913 0.10192 0.69283 0.0
N1244 N 0.28363 0.13509 0.68876 0.0
C1245 C 0.27892 0.11649 0.69162 0.0
C1246 C 0.24417 0.1066 0.69157 0.0
Eu1247 Eu 0.3168 0.16051 0.68677 0.0
N1248 N 0.29461 0.17266 0.68589 0.0
C1249 C 0.30096 0.19212 0.68593 0.0
C1250 C 0.26716 0.18524 0.68692 0.0
C1251 C 0.28735 0.19869 0.68632 0.0
H1252 H 0.29045 0.11282 0.69264 0.0
H1253 H 0.29247 0.21412 0.68633 0.0
H1254 H 0.22937 0.15558 0.68806 0.0
H1255 H 0.25544 0.08713 0.69479 0.0
H1256 H 0.31653 0.2027 0.68566 0.0
H1257 H 0.37424 0.11719 0.66222 0.0
H1258 H 0.25668 0.19038 0.68761 0.0
H1259 H 0.37758 0.21872 0.65347 0.0
H1260 H 0.35036 0.12876 0.66042 0.0
H1261 H 0.41286 0.24432 0.6525 0.0
H1262 H 0.21924 0.12096 0.69 0.0
H1263 H 0.4101 0.14083 0.6637 0.0
H1264 H 0.43758 0.17566 0.66346 0.0
H1265 H 0.22885 0.09533 0.69266 0.0
H1266 H 0.44811 0.21029 0.66082 0.0
N1267 N 0.37235 0.15875 0.66119 0.0
C1268 C 0.36593 0.13928 0.66102 0.0
C1269 C 0.39967 0.14602 0.66293 0.0
C1270 C 0.40622 0.16594 0.66242 0.0
C1271 C 0.37945 0.13264 0.66205 0.0
C1272 C 0.39201 0.17192 0.66142 0.0
H1273 H 0.43902 0.23599 0.65651 0.0
N1274 N 0.38384 0.19639 0.65829 0.0
C1275 C 0.40887 0.2295 0.65466 0.0
C1276 C 0.39795 0.19137 0.65996 0.0
C1277 C 0.38894 0.215 0.65518 0.0
C1278 C 0.42359 0.22475 0.65697 0.0
C1279 C 0.41823 0.20543 0.65945 0.0
O1280 O 0.35024 0.18208 0.64116 0.0
O1281 O 0.32297 0.16988 0.66696 0.0
O1282 O 0.29982 0.13837 0.67161 0.0
O1283 O 0.32593 0.13927 0.66046 0.0
O1284 O 0.34038 0.19314 0.6557 0.0
O1285 O 0.34478 0.1527 0.64345 0.0
O1286 O 0.31769 0.15002 0.70545 0.0
O1287 O 0.34414 0.16186 0.67962 0.0
O1288 O 0.36726 0.19342 0.67499 0.0
O1289 O 0.34114 0.1926 0.68604 0.0
O1290 O 0.32681 0.13861 0.69091 0.0
O1291 O 0.32283 0.17929 0.70309 0.0
C1292 C 0.32403 0.18462 0.66183 0.0
C1293 C 0.36029 0.16901 0.62488 0.0
C1294 C 0.36476 0.16979 0.6023 0.0
C1295 C 0.35264 0.1668 0.61273 0.0
C1296 C 0.38467 0.17503 0.60424 0.0
C1297 C 0.38014 0.17413 0.62664 0.0
C1298 C 0.39226 0.17713 0.61635 0.0
C1299 C 0.30692 0.1308 0.66349 0.0
C1300 C 0.34744 0.16627 0.63557 0.0
C1301 C 0.43245 0.19968 0.66105 0.0
C1302 C 0.42645 0.17996 0.66254 0.0
C1303 C 0.3431 0.14713 0.68474 0.0
C1304 C 0.30816 0.16325 0.72193 0.0
C1305 C 0.31609 0.16483 0.73393 0.0
C1306 C 0.30444 0.16198 0.74457 0.0
C1307 C 0.28467 0.15747 0.74301 0.0
C1308 C 0.28847 0.15887 0.72054 0.0
C1309 C 0.27679 0.15598 0.73104 0.0
C1310 C 0.36015 0.20106 0.68302 0.0
C1311 C 0.32057 0.16588 0.71101 0.0
H1312 H 0.33734 0.16304 0.6114 0.0
H1313 H 0.3943 0.17724 0.59639 0.0
H1314 H 0.38627 0.17583 0.63592 0.0
H1315 H 0.40758 0.18108 0.61777 0.0
H1316 H 0.33127 0.16802 0.73497 0.0
H1317 H 0.2754 0.15539 0.75103 0.0
H1318 H 0.28213 0.15768 0.71139 0.0
H1319 H 0.2616 0.15261 0.72991 0.0
Eu1320 Eu 0.84619 0.16221 0.68656 0.0
C1321 C 0.79855 0.19373 0.65652 0.0
C1322 C 0.76393 0.16947 0.65865 0.0
C1323 C 0.77349 0.20341 0.6558 0.0
C1324 C 0.78406 0.17462 0.65836 0.0
C1325 C 0.79343 0.20831 0.65497 0.0
C1326 C 0.75877 0.18402 0.65762 0.0
C1327 C 0.82787 0.23114 0.65087 0.0
N1328 N 0.81761 0.19792 0.65561 0.0
C1329 C 0.83218 0.21616 0.65238 0.0
C1330 C 0.80843 0.22726 0.65231 0.0
Eu1331 Eu 0.82394 0.172 0.6587 0.0
N1332 N 0.78955 0.16092 0.65925 0.0
C1333 C 0.77556 0.14164 0.65961 0.0
C1334 C 0.74958 0.1498 0.65961 0.0
C1335 C 0.75543 0.13581 0.65994 0.0
H1336 H 0.84724 0.21926 0.65131 0.0
H1337 H 0.74444 0.12053 0.66046 0.0
H1338 H 0.7434 0.18036 0.65795 0.0
H1339 H 0.83952 0.24567 0.6486 0.0
H1340 H 0.77984 0.13067 0.65991 0.0
H1341 H 0.9255 0.21432 0.68377 0.0
H1342 H 0.73397 0.14525 0.65983 0.0
H1343 H 0.82374 0.11519 0.69436 0.0
H1344 H 0.89008 0.20387 0.68523 0.0
H1345 H 0.83191 0.08901 0.69675 0.0
H1346 H 0.76927 0.21442 0.65474 0.0
H1347 H 0.93629 0.18984 0.68368 0.0
H1348 H 0.92728 0.1548 0.68545 0.0
H1349 H 0.80511 0.23887 0.65108 0.0
H1350 H 0.90182 0.12069 0.68903 0.0
N1351 N 0.88067 0.17367 0.68563 0.0
C1352 C 0.8945 0.19299 0.68525 0.0
C1353 C 0.92068 0.18515 0.68432 0.0
C1354 C 0.90652 0.16543 0.68544 0.0
C1355 C 0.91465 0.199 0.68441 0.0
C1356 C 0.88638 0.1601 0.6862 0.0
H1357 H 0.86627 0.09606 0.69345 0.0
N1358 N 0.85305 0.13661 0.6895 0.0
C1359 C 0.84335 0.10354 0.69429 0.0
C1360 C 0.87211 0.14096 0.68819 0.0
C1361 C 0.83878 0.11839 0.69297 0.0
C1362 C 0.86275 0.10757 0.69239 0.0
C1363 C 0.87749 0.12653 0.68949 0.0
O1364 O 0.83441 0.15314 0.70534 0.0
O1365 O 0.82047 0.16369 0.67876 0.0
O1366 O 0.83009 0.19512 0.67321 0.0
O1367 O 0.85518 0.19428 0.68467 0.0
O1368 O 0.81381 0.14107 0.69082 0.0
O1369 O 0.85971 0.18182 0.7025 0.0
O1370 O 0.83618 0.18085 0.64 0.0
O1371 O 0.84957 0.17038 0.66649 0.0
O1372 O 0.83959 0.13884 0.67216 0.0
O1373 O 0.81462 0.13984 0.66066 0.0
O1374 O 0.85635 0.19316 0.65458 0.0
O1375 O 0.81037 0.15246 0.64271 0.0
C1376 C 0.80641 0.1494 0.68416 0.0
C1377 C 0.85726 0.16679 0.72195 0.0
C1378 C 0.85888 0.16612 0.74474 0.0
C1379 C 0.85046 0.16861 0.73373 0.0
C1380 C 0.87424 0.16176 0.74373 0.0
C1381 C 0.87258 0.16246 0.72114 0.0
C1382 C 0.88101 0.15997 0.732 0.0
C1383 C 0.8451 0.20292 0.68122 0.0
C1384 C 0.84796 0.16914 0.71063 0.0
C1385 C 0.89741 0.13159 0.68818 0.0
C1386 C 0.91191 0.15102 0.68615 0.0
C1387 C 0.86368 0.1847 0.66117 0.0
C1388 C 0.81375 0.16757 0.62316 0.0
C1389 C 0.82082 0.16558 0.61153 0.0
C1390 C 0.81317 0.1686 0.60036 0.0
C1391 C 0.79825 0.17361 0.60104 0.0
C1392 C 0.79884 0.17252 0.62366 0.0
C1393 C 0.79114 0.1755 0.61263 0.0
C1394 C 0.82451 0.13105 0.6642 0.0
C1395 C 0.82251 0.16498 0.63465 0.0
H1396 H 0.83875 0.17218 0.73427 0.0
H1397 H 0.88086 0.15947 0.75199 0.0
H1398 H 0.87798 0.16097 0.71215 0.0
H1399 H 0.89279 0.15655 0.73133 0.0
H1400 H 0.83255 0.16201 0.6112 0.0
H1401 H 0.7919 0.17583 0.59262 0.0
H1402 H 0.79323 0.17413 0.63253 0.0
H1403 H 0.77961 0.1793 0.61305 0.0
H1404 H 0.30552 0.88184 0.06622 0.0
H1405 H 0.33546 0.90509 0.05521 0.0
H1406 H 0.34697 0.85893 0.0454 0.0
H1407 H 0.317 0.83556 0.05638 0.0
H1408 H 0.37343 0.91404 0.06059 0.0
H1409 H 0.35377 0.88584 0.01195 0.0
H1410 H 0.3356 0.87844 0.0242 0.0
H1411 H 0.35148 0.86812 0.02321 0.0
C1412 C 0.31442 0.87663 0.06172 0.0
C1413 C 0.30888 0.85684 0.06219 0.0
C1414 C 0.33146 0.88991 0.05537 0.0
C1415 C 0.34331 0.88371 0.04932 0.0
C1416 C 0.3378 0.86397 0.04972 0.0
H1417 H 0.4614 0.95121 0.01729 0.0
H1418 H 0.4294 0.92438 0.02423 0.0
C1419 C 0.32069 0.85064 0.05604 0.0
C1420 C 0.36205 0.89819 0.04332 0.0
H1421 H 0.38688 0.91117 0.01556 0.0
C1422 C 0.37632 0.91342 0.05074 0.0
C1423 C 0.36586 0.8973 0.03047 0.0
C1424 C 0.35082 0.88165 0.02194 0.0
C1425 C 0.39425 0.92777 0.04569 0.0
C1426 C 0.39796 0.92701 0.03284 0.0
C1427 C 0.38391 0.91167 0.02541 0.0
C1428 C 0.41622 0.94247 0.02703 0.0
C1429 C 0.40921 0.94363 0.05415 0.0
C1430 C 0.41913 0.96132 0.02599 0.0
C1431 C 0.43726 0.97656 0.02197 0.0
C1432 C 0.45269 0.97314 0.01875 0.0
C1433 C 0.44958 0.95413 0.01942 0.0
C1434 C 0.43137 0.93885 0.02343 0.0
H1435 H 0.40594 0.93993 0.06419 0.0
H1436 H 0.42439 0.94644 0.05219 0.0
H1437 H 0.40897 0.95729 0.05241 0.0
H1438 H 0.40756 0.96435 0.02869 0.0
H1439 H 0.43941 0.99113 0.02165 0.0
H1440 H 0.14979 0.44455 0.0476 0.0
H1441 H 0.1245 0.44979 0.0377 0.0
H1442 H 0.12485 0.4829 0.06986 0.0
H1443 H 0.14999 0.47758 0.07985 0.0
H1444 H 0.08778 0.45635 0.06301 0.0
H1445 H 0.12893 0.4976 0.02125 0.0
H1446 H 0.12809 0.4747 0.02283 0.0
H1447 H 0.14097 0.49349 0.03438 0.0
C1448 C 0.14469 0.45319 0.05249 0.0
C1449 C 0.15192 0.46065 0.06453 0.0
C1450 C 0.13026 0.45623 0.04679 0.0
C1451 C 0.12295 0.467 0.05294 0.0
C1452 C 0.13027 0.47458 0.06491 0.0
H1453 H 0.04866 0.50996 0.02193 0.0
H1454 H 0.07607 0.50642 0.03008 0.0
C1455 C 0.14459 0.47146 0.07064 0.0
C1456 C 0.1069 0.46949 0.04725 0.0
H1457 H 0.09435 0.48644 0.02148 0.0
C1458 C 0.08927 0.46298 0.05394 0.0
C1459 C 0.10888 0.47836 0.03547 0.0
C1460 C 0.12781 0.48662 0.02811 0.0
C1461 C 0.07351 0.46486 0.04916 0.0
C1462 C 0.07521 0.47308 0.0372 0.0
C1463 C 0.09295 0.47988 0.03056 0.0
C1464 C 0.05886 0.47507 0.03156 0.0
C1465 C 0.05535 0.45839 0.05711 0.0
C1466 C 0.04016 0.45861 0.02945 0.0
C1467 C 0.0245 0.46063 0.02479 0.0
C1468 C 0.02738 0.47908 0.02185 0.0
C1469 C 0.04614 0.49553 0.02381 0.0
C1470 C 0.06179 0.49352 0.02853 0.0
H1471 H 0.05854 0.45753 0.06714 0.0
H1472 H 0.04942 0.46846 0.05617 0.0
H1473 H 0.0437 0.44369 0.05402 0.0
H1474 H 0.03763 0.44421 0.03151 0.0
H1475 H 0.01011 0.44776 0.02347 0.0
H1476 H 0.55997 0.68838 0.082 0.0
H1477 H 0.55109 0.6572 0.07219 0.0
H1478 H 0.56082 0.68345 0.03579 0.0
H1479 H 0.5706 0.71491 0.04553 0.0
H1480 H 0.52071 0.63574 0.05593 0.0
H1481 H 0.59278 0.65584 0.03404 0.0
H1482 H 0.59017 0.67084 0.04574 0.0
H1483 H 0.58321 0.67143 0.02978 0.0
C1484 C 0.56059 0.68763 0.07192 0.0
C1485 C 0.56612 0.70418 0.06456 0.0
C1486 C 0.55535 0.66976 0.06632 0.0
C1487 C 0.55555 0.66808 0.05328 0.0
C1488 C 0.56093 0.68451 0.04589 0.0
H1489 H 0.49526 0.55857 0.012 0.0
H1490 H 0.50559 0.59067 0.02085 0.0
C1491 C 0.56627 0.70243 0.05147 0.0
C1492 C 0.5495 0.64896 0.04744 0.0
H1493 H 0.56543 0.62514 0.02829 0.0
C1494 C 0.53049 0.63339 0.04991 0.0
C1495 C 0.56239 0.64592 0.0397 0.0
C1496 C 0.58334 0.66183 0.03724 0.0
C1497 C 0.52394 0.61485 0.04478 0.0
C1498 C 0.53662 0.61195 0.03675 0.0
C1499 C 0.55568 0.62748 0.03435 0.0
C1500 C 0.53061 0.59276 0.03105 0.0
C1501 C 0.5037 0.59845 0.04825 0.0
C1502 C 0.5416 0.58355 0.03355 0.0
C1503 C 0.53597 0.56536 0.02832 0.0
C1504 C 0.51924 0.55605 0.02045 0.0
C1505 C 0.50834 0.56539 0.0179 0.0
C1506 C 0.51407 0.58366 0.02307 0.0
H1507 H 0.49815 0.6018 0.05692 0.0
H1508 H 0.49308 0.59612 0.04058 0.0
H1509 H 0.5039 0.5847 0.04963 0.0
H1510 H 0.55446 0.59037 0.03966 0.0
H1511 H 0.54473 0.55862 0.0305 0.0
H1512 H 0.87695 0.29892 0.93896 0.0
H1513 H 0.90066 0.32973 0.94898 0.0
H1514 H 0.85248 0.33606 0.96314 0.0
H1515 H 0.82867 0.30535 0.95309 0.0
H1516 H 0.90534 0.36671 0.94517 0.0
H1517 H 0.88613 0.34359 0.99445 0.0
H1518 H 0.87849 0.32645 0.98161 0.0
H1519 H 0.8654 0.33926 0.98481 0.0
C1520 C 0.87139 0.3069 0.94416 0.0
C1521 C 0.8509 0.29963 0.94526 0.0
C1522 C 0.88496 0.32445 0.94993 0.0
C1523 C 0.87832 0.33501 0.95696 0.0
C1524 C 0.85791 0.3279 0.958 0.0
H1525 H 0.93427 0.44532 0.99633 0.0
H1526 H 0.91137 0.41397 0.98672 0.0
C1527 C 0.84432 0.31035 0.95225 0.0
C1528 C 0.89278 0.35377 0.96289 0.0
H1529 H 0.90769 0.37732 0.99102 0.0
C1530 C 0.90596 0.36902 0.9552 0.0
C1531 C 0.8935 0.35671 0.97597 0.0
C1532 C 0.88026 0.3406 0.98472 0.0
C1533 C 0.91959 0.3873 0.96023 0.0
C1534 C 0.92025 0.39026 0.97331 0.0
C1535 C 0.90712 0.37499 0.981 0.0
C1536 C 0.9343 0.40919 0.9792 0.0
C1537 C 0.93281 0.40342 0.95148 0.0
C1538 C 0.95482 0.41679 0.97828 0.0
C1539 C 0.968 0.43469 0.98383 0.0
C1540 C 0.96088 0.44525 0.99047 0.0
C1541 C 0.94029 0.4375 0.99143 0.0
C1542 C 0.92715 0.4196 0.9859 0.0
H1543 H 0.92718 0.40026 0.9417 0.0
H1544 H 0.93419 0.41747 0.95445 0.0
H1545 H 0.94781 0.4051 0.95162 0.0
H1546 H 0.96063 0.40881 0.97334 0.0
H1547 H 0.98374 0.44017 0.98295 0.0
H1548 H 0.68537 0.51372 0.95286 0.0
H1549 H 0.65483 0.50781 0.9631 0.0
H1550 H 0.66611 0.56455 0.9519 0.0
H1551 H 0.69657 0.57054 0.94163 0.0
H1552 H 0.64883 0.52748 0.9822 0.0
H1553 H 0.60987 0.53 0.93946 0.0
H1554 H 0.63206 0.52826 0.93889 0.0
H1555 H 0.63364 0.5514 0.94159 0.0
C1556 C 0.68139 0.52498 0.95262 0.0
C1557 C 0.69337 0.54255 0.94633 0.0
C1558 C 0.66388 0.52154 0.95843 0.0
C1559 C 0.65794 0.53557 0.95806 0.0
C1560 C 0.67006 0.55328 0.95202 0.0
H1561 H 0.5656 0.55196 0.98925 0.0
H1562 H 0.59651 0.5553 0.98117 0.0
C1563 C 0.68751 0.55669 0.94616 0.0
C1564 C 0.63931 0.53191 0.96421 0.0
H1565 H 0.59563 0.53111 0.95894 0.0
C1566 C 0.63709 0.52803 0.97709 0.0
C1567 C 0.62396 0.53263 0.95754 0.0
C1568 C 0.62487 0.5356 0.94359 0.0
C1569 C 0.62024 0.52544 0.9835 0.0
C1570 C 0.60522 0.52672 0.9769 0.0
C1571 C 0.60726 0.53027 0.96401 0.0
C1572 C 0.58741 0.52488 0.98319 0.0
C1573 C 0.61897 0.52228 0.9974 0.0
C1574 C 0.57212 0.50669 0.98713 0.0
C1575 C 0.55439 0.50474 0.9917 0.0
C1576 C 0.55179 0.52101 0.99254 0.0
C1577 C 0.56733 0.53925 0.98888 0.0
C1578 C 0.58496 0.54117 0.98424 0.0
H1579 H 0.63221 0.52229 1.00128 0.0
H1580 H 0.61747 0.534 0.00205 0.0
H1581 H 0.60565 0.50817 0.99962 0.0
H1582 H 0.5736 0.49388 0.98622 0.0
H1583 H 0.5425 0.49041 0.9941 0.0
H1584 H 0.44635 0.13263 0.93285 0.0
H1585 H 0.45625 0.11144 0.94322 0.0
H1586 H 0.44525 0.12892 0.97914 0.0
H1587 H 0.43444 0.14948 0.96883 0.0
H1588 H 0.48665 0.12132 0.95987 0.0
H1589 H 0.41448 0.06995 0.98138 0.0
H1590 H 0.41686 0.08693 0.96942 0.0
H1591 H 0.42358 0.09503 0.98533 0.0
C1592 C 0.44567 0.13171 0.94295 0.0
C1593 C 0.43946 0.14265 0.95 0.0
C1594 C 0.45152 0.11973 0.94886 0.0
C1595 C 0.45126 0.11845 0.96193 0.0
C1596 C 0.44523 0.12945 0.96903 0.0
H1597 H 0.51127 0.0667 0.00248 0.0
H1598 H 0.5015 0.08958 0.99464 0.0
C1599 C 0.43927 0.14136 0.96312 0.0
C1600 C 0.45768 0.10584 0.96808 0.0
H1601 H 0.44186 0.06631 0.98693 0.0
C1602 C 0.47689 0.1093 0.9658 0.0
C1603 C 0.44483 0.0901 0.97574 0.0
C1604 C 0.42373 0.08511 0.97804 0.0
C1605 C 0.48356 0.09733 0.97089 0.0
C1606 C 0.4708 0.08175 0.97868 0.0
C1607 C 0.45165 0.07839 0.98104 0.0
C1608 C 0.47654 0.068 0.98385 0.0
C1609 C 0.50396 0.10108 0.96754 0.0
C1610 C 0.46544 0.04822 0.98066 0.0
C1611 C 0.47074 0.03506 0.9853 0.0
C1612 C 0.48727 0.04141 0.99326 0.0
C1613 C 0.49834 0.06126 0.99649 0.0
C1614 C 0.49292 0.07441 0.9919 0.0
H1615 H 0.50989 0.11049 0.95919 0.0
H1616 H 0.51424 0.10857 0.97548 0.0
H1617 H 0.50379 0.08723 0.96568 0.0
H1618 H 0.45274 0.04298 0.97446 0.0
H1619 H 0.46186 0.01992 0.98259 0.0
H1620 H 0.69592 0.11717 0.94363 0.0
H1621 H 0.66576 0.09437 0.9547 0.0
H1622 H 0.65596 0.1415 0.96486 0.0
H1623 H 0.68586 0.16434 0.95359 0.0
H1624 H 0.6563 0.09563 0.9807 0.0
H1625 H 0.60327 0.10054 0.94807 0.0
H1626 H 0.6286 0.10859 0.94387 0.0
H1627 H 0.623 0.12326 0.95401 0.0
C1628 C 0.68724 0.12266 0.94811 0.0
C1629 C 0.69324 0.14256 0.94767 0.0
C1630 C 0.6701 0.10964 0.95451 0.0
C1631 C 0.65855 0.11623 0.96049 0.0
C1632 C 0.66455 0.13609 0.96017 0.0
H1633 H 0.54204 0.0491 0.99481 0.0
H1634 H 0.57416 0.07621 0.98846 0.0
C1635 C 0.68173 0.14914 0.95382 0.0
C1636 C 0.64022 0.10227 0.96706 0.0
H1637 H 0.58988 0.08096 0.96583 0.0
C1638 C 0.64176 0.09244 0.97749 0.0
C1639 C 0.62132 0.09827 0.9629 0.0
C1640 C 0.6188 0.10807 0.95155 0.0
C1641 C 0.62486 0.07861 0.98385 0.0
C1642 C 0.60588 0.0742 0.97949 0.0
C1643 C 0.60441 0.08437 0.96921 0.0
C1644 C 0.58731 0.05825 0.98485 0.0
C1645 C 0.62758 0.06899 0.99522 0.0
C1646 C 0.58403 0.03917 0.98504 0.0
C1647 C 0.56583 0.02378 0.98886 0.0
C1648 C 0.55053 0.02712 0.99253 0.0
C1649 C 0.55378 0.04619 0.99239 0.0
C1650 C 0.57207 0.06165 0.98866 0.0
H1651 H 0.64205 0.07856 0.99988 0.0
H1652 H 0.61561 0.06514 0.0021 0.0
H1653 H 0.62738 0.05547 0.99229 0.0
H1654 H 0.59528 0.03605 0.98178 0.0
H1655 H 0.56351 0.00913 0.98863 0.0
H1656 H 0.87889 0.57115 0.94156 0.0
H1657 H 0.90368 0.56541 0.9517 0.0
H1658 H 0.85776 0.50857 0.96304 0.0
H1659 H 0.83287 0.51404 0.95271 0.0
H1660 H 0.90567 0.55628 0.97738 0.0
H1661 H 0.89853 0.4981 0.94502 0.0
H1662 H 0.88927 0.51423 0.94116 0.0
H1663 H 0.87584 0.49445 0.95174 0.0
C1664 C 0.87406 0.55735 0.94611 0.0
C1665 C 0.85389 0.543 0.94624 0.0
C1666 C 0.88824 0.55414 0.95197 0.0
C1667 C 0.8826 0.53648 0.95799 0.0
C1668 C 0.86247 0.5222 0.95829 0.0
H1669 H 0.95294 0.49039 0.99138 0.0
H1670 H 0.92581 0.49499 0.98406 0.0
C1671 C 0.84825 0.52543 0.95248 0.0
C1672 C 0.89782 0.53315 0.96405 0.0
H1673 H 0.91997 0.50543 0.96232 0.0
C1674 C 0.9088 0.54514 0.97412 0.0
C1675 C 0.90183 0.51858 0.9598 0.0
C1676 C 0.89089 0.50566 0.94878 0.0
C1677 C 0.92359 0.54289 0.98013 0.0
C1678 C 0.92787 0.5285 0.97577 0.0
C1679 C 0.91671 0.51639 0.96574 0.0
C1680 C 0.94416 0.52601 0.98115 0.0
C1681 C 0.93418 0.55584 0.9912 0.0
C1682 C 0.9636 0.54182 0.98196 0.0
C1683 C 0.979 0.53926 0.98648 0.0
C1684 C 0.97537 0.52082 0.99018 0.0
C1685 C 0.95606 0.5049 0.98906 0.0
C1686 C 0.94058 0.5075 0.98473 0.0
H1687 H 0.92462 0.56046 0.99607 0.0
H1688 H 0.93891 0.54851 0.99802 0.0
H1689 H 0.9475 0.56917 0.98789 0.0
H1690 H 0.96699 0.5561 0.97883 0.0
H1691 H 0.99386 0.55168 0.98691 0.0
H1692 H 0.46659 0.31598 0.93333 0.0
H1693 H 0.47709 0.34747 0.94337 0.0
H1694 H 0.43126 0.31925 0.97092 0.0
H1695 H 0.42108 0.28768 0.96111 0.0
H1696 H 0.45779 0.36675 0.94682 0.0
H1697 H 0.4787 0.35082 0.99295 0.0
H1698 H 0.47359 0.33512 0.97954 0.0
H1699 H 0.45359 0.3337 0.98869 0.0
C1700 C 0.45878 0.31654 0.94154 0.0
C1701 C 0.44311 0.29944 0.94651 0.0
C1702 C 0.46481 0.33449 0.94727 0.0
C1703 C 0.45521 0.33566 0.95803 0.0
C1704 C 0.43927 0.31862 0.96285 0.0
H1705 H 0.45903 0.44047 0.98512 0.0
H1706 H 0.45003 0.40905 0.97569 0.0
C1707 C 0.4334 0.30063 0.95721 0.0
C1708 C 0.46152 0.3548 0.96397 0.0
H1709 H 0.47624 0.37955 0.99171 0.0
C1710 C 0.46194 0.36959 0.95662 0.0
C1711 C 0.46726 0.35858 0.97671 0.0
C1712 C 0.46848 0.34378 0.9849 0.0
C1713 C 0.46758 0.38797 0.96169 0.0
C1714 C 0.47235 0.39143 0.97457 0.0
C1715 C 0.47232 0.37677 0.98187 0.0
C1716 C 0.47756 0.41021 0.98063 0.0
C1717 C 0.46873 0.40357 0.95314 0.0
C1718 C 0.49569 0.42093 0.98698 0.0
C1719 C 0.50074 0.43876 0.99257 0.0
C1720 C 0.48775 0.44619 0.99188 0.0
C1721 C 0.46946 0.43526 0.9857 0.0
C1722 C 0.46434 0.41735 0.98023 0.0
H1723 H 0.4706 0.40058 0.94323 0.0
H1724 H 0.45475 0.40399 0.95377 0.0
H1725 H 0.48121 0.41812 0.9558 0.0
H1726 H 0.50605 0.41562 0.98747 0.0
H1727 H 0.51497 0.44686 0.99724 0.0
H1728 H 0.15788 0.70939 0.0483 0.0
H1729 H 0.13391 0.67837 0.03874 0.0
H1730 H 0.11677 0.65268 0.07525 0.0
H1731 H 0.14142 0.68333 0.08488 0.0
H1732 H 0.12167 0.62922 0.05933 0.0
H1733 H 0.07454 0.65466 0.03698 0.0
H1734 H 0.1 0.66853 0.03243 0.0
H1735 H 0.09332 0.66902 0.04845 0.0
C1736 C 0.14915 0.69711 0.05431 0.0
C1737 C 0.15157 0.69893 0.06738 0.0
C1738 C 0.13523 0.67945 0.04882 0.0
C1739 C 0.12325 0.6633 0.05628 0.0
C1740 C 0.12573 0.665 0.06931 0.0
H1741 H 0.01844 0.55775 0.03021 0.0
H1742 H 0.04153 0.58854 0.04046 0.0
C1743 C 0.13973 0.6826 0.07481 0.0
C1744 C 0.10856 0.64446 0.05051 0.0
H1745 H 0.06858 0.62326 0.03081 0.0
C1746 C 0.11 0.6279 0.05315 0.0
C1747 C 0.09313 0.64268 0.0426 0.0
C1748 C 0.08999 0.65962 0.04004 0.0
C1749 C 0.09669 0.60969 0.0479 0.0
C1750 C 0.08182 0.60809 0.03954 0.0
C1751 C 0.08012 0.62456 0.0371 0.0
C1752 C 0.06787 0.58945 0.03325 0.0
C1753 C 0.09849 0.59229 0.05156 0.0
C1754 C 0.07498 0.57984 0.02567 0.0
C1755 C 0.06185 0.56215 0.01992 0.0
C1756 C 0.04128 0.55386 0.02141 0.0
C1757 C 0.03417 0.56369 0.02884 0.0
C1758 C 0.04735 0.58133 0.03469 0.0
H1759 H 0.10639 0.59472 0.06064 0.0
H1760 H 0.08372 0.579 0.05228 0.0
H1761 H 0.10711 0.58969 0.04435 0.0
H1762 H 0.09072 0.58602 0.0242 0.0
H1763 H 0.06791 0.55491 0.01441 0.0
H1764 H 0.32013 0.48849 0.05888 0.0
H1765 H 0.35039 0.49454 0.04815 0.0
H1766 H 0.33603 0.43547 0.05509 0.0
H1767 H 0.30567 0.42923 0.06571 0.0
H1768 H 0.38206 0.48984 0.05873 0.0
H1769 H 0.34763 0.4431 0.01687 0.0
H1770 H 0.33456 0.45146 0.0267 0.0
H1771 H 0.33775 0.43159 0.0316 0.0
C1772 C 0.3233 0.47672 0.05801 0.0
C1773 C 0.31045 0.45835 0.06314 0.0
C1774 C 0.34064 0.48023 0.05192 0.0
C1775 C 0.34534 0.46539 0.05069 0.0
C1776 C 0.33255 0.44705 0.05578 0.0
H1777 H 0.44015 0.45013 0.02328 0.0
H1778 H 0.40901 0.44708 0.03062 0.0
C1779 C 0.3153 0.44357 0.06195 0.0
C1780 C 0.36399 0.46925 0.04452 0.0
H1781 H 0.38206 0.45532 0.01996 0.0
C1782 C 0.38211 0.48245 0.05019 0.0
C1783 C 0.36398 0.45957 0.03339 0.0
C1784 C 0.34497 0.44574 0.02669 0.0
C1785 C 0.40021 0.48567 0.0453 0.0
C1786 C 0.40021 0.47579 0.03424 0.0
C1787 C 0.38207 0.4629 0.02842 0.0
C1788 C 0.41876 0.47773 0.02898 0.0
C1789 C 0.41908 0.49901 0.05232 0.0
C1790 C 0.43449 0.49592 0.02537 0.0
C1791 C 0.45235 0.49768 0.02126 0.0
C1792 C 0.45459 0.48121 0.02038 0.0
C1793 C 0.4387 0.463 0.02373 0.0
C1794 C 0.42092 0.46126 0.0279 0.0
H1795 H 0.41613 0.50158 0.0621 0.0
H1796 H 0.42917 0.49293 0.05253 0.0
H1797 H 0.4268 0.51329 0.04757 0.0
H1798 H 0.43307 0.50879 0.02588 0.0
H1799 H 0.46448 0.51196 0.01898 0.0
H1800 H 0.58467 0.88336 0.07035 0.0
H1801 H 0.57413 0.9041 0.05993 0.0
H1802 H 0.5227 0.85323 0.04514 0.0
H1803 H 0.53275 0.83237 0.05586 0.0
H1804 H 0.56762 0.90599 0.03419 0.0
H1805 H 0.49932 0.88398 0.06161 0.0
H1806 H 0.51831 0.87876 0.06662 0.0
H1807 H 0.50098 0.86425 0.05459 0.0
C1808 C 0.57097 0.87658 0.06503 0.0
C1809 C 0.5595 0.85622 0.06398 0.0
C1810 C 0.56506 0.88844 0.05901 0.0
C1811 C 0.54752 0.88017 0.0519 0.0
C1812 C 0.53611 0.85988 0.05075 0.0
H1813 H 0.49009 0.93327 0.01058 0.0
H1814 H 0.49917 0.9101 0.01893 0.0
C1815 C 0.542 0.848 0.05677 0.0
C1816 C 0.5414 0.89283 0.04552 0.0
H1817 H 0.50509 0.90488 0.0445 0.0
C1818 C 0.55396 0.90577 0.03644 0.0
C1819 C 0.52351 0.89239 0.04844 0.0
C1820 C 0.5098 0.87923 0.05842 0.0
C1821 C 0.54909 0.91832 0.03018 0.0
C1822 C 0.53137 0.9181 0.03325 0.0
C1823 C 0.51865 0.90495 0.04217 0.0
C1824 C 0.52624 0.93209 0.02776 0.0
C1825 C 0.56289 0.93162 0.02028 0.0
C1826 C 0.53838 0.95206 0.03007 0.0
C1827 C 0.5333 0.96531 0.02529 0.0
C1828 C 0.51592 0.95884 0.01814 0.0
C1829 C 0.50372 0.93878 0.01589 0.0
C1830 C 0.50882 0.92551 0.02069 0.0
H1831 H 0.57271 0.92635 0.01666 0.0
H1832 H 0.55446 0.93298 0.01234 0.0
H1833 H 0.57239 0.94632 0.02439 0.0
H1834 H 0.55167 0.95738 0.03572 0.0
H1835 H 0.54299 0.98063 0.02728 0.0
H1836 H 0.9608 0.19157 0.38061 0.0
H1837 H 0.99101 0.21454 0.36969 0.0
H1838 H 0.02627 0.21231 0.40012 0.0
H1839 H 0.9961 0.18955 0.41115 0.0
H1840 H 0.03799 0.24888 0.39371 0.0
H1841 H 0.0311 0.2064 0.35088 0.0
H1842 H 0.00982 0.20897 0.35356 0.0
H1843 H 0.01596 0.19558 0.36447 0.0
C1844 C 0.975 0.19578 0.38489 0.0
C1845 C 0.97607 0.18876 0.39675 0.0
C1846 C 0.99227 0.20884 0.37861 0.0
C1847 C 0.01094 0.2149 0.38397 0.0
C1848 C 0.01203 0.20778 0.39577 0.0
H1849 H 0.12722 0.28432 0.35026 0.0
H1850 H 0.09599 0.25742 0.35806 0.0
C1851 C 0.99478 0.19486 0.4021 0.0
C1852 C 0.02931 0.22968 0.37773 0.0
H1853 H 0.05565 0.24016 0.3506 0.0
C1854 C 0.04188 0.24689 0.38431 0.0
C1855 C 0.03452 0.22702 0.36551 0.0
C1856 C 0.02225 0.20841 0.35823 0.0
C1857 C 0.0593 0.26163 0.37896 0.0
C1858 C 0.06407 0.25933 0.36656 0.0
C1859 C 0.05178 0.24198 0.36004 0.0
C1860 C 0.08193 0.27484 0.36036 0.0
C1861 C 0.07259 0.27943 0.38673 0.0
C1862 C 0.08409 0.29331 0.35865 0.0
C1863 C 0.10186 0.30863 0.35424 0.0
C1864 C 0.11761 0.30563 0.35118 0.0
C1865 C 0.11517 0.28693 0.35236 0.0
C1866 C 0.09738 0.2716 0.35685 0.0
H1867 H 0.06966 0.27666 0.39689 0.0
H1868 H 0.08844 0.28436 0.38503 0.0
H1869 H 0.06985 0.29141 0.38416 0.0
H1870 H 0.07221 0.29603 0.3611 0.0
H1871 H 0.10345 0.32295 0.35343 0.0
H1872 H 0.79246 0.77166 0.40952 0.0
H1873 H 0.76768 0.77733 0.39939 0.0
H1874 H 0.81266 0.82057 0.37582 0.0
H1875 H 0.83779 0.81551 0.38616 0.0
H1876 H 0.76938 0.81572 0.3974 0.0
H1877 H 0.76661 0.78053 0.35171 0.0
H1878 H 0.77563 0.77509 0.36584 0.0
H1879 H 0.79064 0.79767 0.35797 0.0
C1880 C 0.79722 0.78256 0.40229 0.0
C1881 C 0.81723 0.79316 0.39872 0.0
C1882 C 0.78297 0.78567 0.39645 0.0
C1883 C 0.78832 0.79925 0.3868 0.0
C1884 C 0.8082 0.80983 0.38314 0.0
H1885 H 0.71544 0.84409 0.35506 0.0
H1886 H 0.74333 0.84108 0.36299 0.0
C1887 C 0.82252 0.80684 0.38904 0.0
C1888 C 0.77308 0.80255 0.38079 0.0
H1889 H 0.74633 0.79461 0.35383 0.0
C1890 C 0.76441 0.81123 0.38786 0.0
C1891 C 0.76659 0.79656 0.36835 0.0
C1892 C 0.7752 0.78683 0.36048 0.0
C1893 C 0.74937 0.81404 0.38282 0.0
C1894 C 0.74283 0.80799 0.37041 0.0
C1895 C 0.7515 0.79934 0.36332 0.0
C1896 C 0.72637 0.8098 0.36488 0.0
C1897 C 0.74021 0.82306 0.39087 0.0
C1898 C 0.7077 0.79319 0.36318 0.0
C1899 C 0.69177 0.79488 0.35865 0.0
C1900 C 0.69438 0.81316 0.35548 0.0
C1901 C 0.71313 0.82978 0.35713 0.0
C1902 C 0.72902 0.8281 0.36174 0.0
H1903 H 0.74506 0.82454 0.40079 0.0
H1904 H 0.74452 0.83774 0.38729 0.0
H1905 H 0.7238 0.81417 0.39044 0.0
H1906 H 0.70536 0.77896 0.36561 0.0
H1907 H 0.67739 0.78191 0.35763 0.0
H1908 H 0.234 0.04868 0.37857 0.0
H1909 H 0.22365 0.01751 0.36821 0.0
H1910 H 0.21296 0.98957 0.40408 0.0
H1911 H 0.22241 0.02047 0.41451 0.0
H1912 H 0.2391 0.99349 0.36981 0.0
H1913 H 0.1612 0.95535 0.38573 0.0
H1914 H 0.17709 0.98133 0.38723 0.0
H1915 H 0.17873 0.96528 0.39838 0.0
C1916 C 0.22918 0.03586 0.38426 0.0
C1917 C 0.22888 0.03705 0.39737 0.0
C1918 C 0.22342 0.01809 0.37832 0.0
C1919 C 0.21722 0.00119 0.38537 0.0
C1920 C 0.21729 0.00238 0.39846 0.0
H1921 H 0.20998 0.89363 0.36183 0.0
H1922 H 0.21942 0.92553 0.3706 0.0
C1923 C 0.22296 0.02011 0.4044 0.0
C1924 C 0.21103 0.98237 0.37904 0.0
H1925 H 0.17286 0.93564 0.3764 0.0
C1926 C 0.22458 0.98086 0.37118 0.0
C1927 C 0.19196 0.96602 0.38068 0.0
C1928 C 0.17633 0.96708 0.38836 0.0
C1929 C 0.21974 0.96328 0.36516 0.0
C1930 C 0.20101 0.9467 0.36729 0.0
C1931 C 0.18729 0.94833 0.37489 0.0
C1932 C 0.19539 0.92744 0.36182 0.0
C1933 C 0.23464 0.96273 0.35646 0.0
C1934 C 0.17838 0.91764 0.35429 0.0
C1935 C 0.17274 0.89923 0.34941 0.0
C1936 C 0.18407 0.89031 0.35193 0.0
C1937 C 0.20101 0.90012 0.35958 0.0
C1938 C 0.20654 0.91845 0.36453 0.0
H1939 H 0.24537 0.97747 0.35299 0.0
H1940 H 0.24312 0.9571 0.36158 0.0
H1941 H 0.22723 0.95303 0.34831 0.0
H1942 H 0.16945 0.92423 0.3522 0.0
H1943 H 0.1594 0.89196 0.34377 0.0
H1944 H 0.50885 0.62259 0.29772 0.0
H1945 H 0.53206 0.65362 0.30765 0.0
H1946 H 0.55078 0.67984 0.27139 0.0
H1947 H 0.52696 0.64919 0.26139 0.0
H1948 H 0.57208 0.67523 0.3061 0.0
H1949 H 0.53823 0.71771 0.28872 0.0
H1950 H 0.52587 0.69154 0.28755 0.0
H1951 H 0.54453 0.70639 0.27641 0.0
C1952 C 0.51767 0.63503 0.29185 0.0
C1953 C 0.5159 0.63339 0.27874 0.0
C1954 C 0.53106 0.65271 0.29754 0.0
C1955 C 0.54294 0.66913 0.29027 0.0
C1956 C 0.54147 0.66748 0.2772 0.0
H1957 H 0.64898 0.77388 0.31582 0.0
H1958 H 0.62544 0.74267 0.30625 0.0
C1959 C 0.52802 0.64984 0.27149 0.0
C1960 C 0.55708 0.68788 0.29637 0.0
H1961 H 0.56995 0.73572 0.29837 0.0
C1962 C 0.57158 0.68845 0.30446 0.0
C1963 C 0.55622 0.70505 0.29435 0.0
C1964 C 0.54026 0.70516 0.28639 0.0
C1965 C 0.58544 0.70578 0.31045 0.0
C1966 C 0.58505 0.72311 0.30805 0.0
C1967 C 0.57037 0.72247 0.30009 0.0
C1968 C 0.59945 0.74201 0.31388 0.0
C1969 C 0.60007 0.70526 0.31949 0.0
C1970 C 0.59266 0.75232 0.32103 0.0
C1971 C 0.60604 0.77031 0.32634 0.0
C1972 C 0.62654 0.77833 0.32469 0.0
C1973 C 0.63332 0.76806 0.31741 0.0
C1974 C 0.61988 0.75012 0.312 0.0
H1975 H 0.59488 0.69031 0.32294 0.0
H1976 H 0.61437 0.71027 0.31467 0.0
H1977 H 0.60273 0.71499 0.32765 0.0
H1978 H 0.57695 0.74645 0.3225 0.0
H1979 H 0.60023 0.77797 0.33164 0.0
H1980 H 0.37356 0.89103 0.29686 0.0
H1981 H 0.34312 0.88529 0.30711 0.0
H1982 H 0.3088 0.85019 0.27571 0.0
H1983 H 0.3392 0.85606 0.26536 0.0
H1984 H 0.29779 0.87584 0.28218 0.0
H1985 H 0.30085 0.83801 0.32479 0.0
H1986 H 0.32272 0.86122 0.32269 0.0
H1987 H 0.31662 0.84198 0.31152 0.0
C1988 C 0.35951 0.88186 0.29222 0.0
C1989 C 0.35883 0.874 0.28029 0.0
C1990 C 0.34209 0.87852 0.29811 0.0
C1991 C 0.32358 0.86702 0.2923 0.0
C1992 C 0.32287 0.85906 0.28042 0.0
H1993 H 0.2063 0.82381 0.32448 0.0
H1994 H 0.2374 0.82722 0.31668 0.0
C1995 C 0.34028 0.8625 0.27448 0.0
C1996 C 0.30507 0.86422 0.29819 0.0
H1997 H 0.27699 0.8485 0.32465 0.0
C1998 C 0.29323 0.86977 0.29144 0.0
C1999 C 0.29893 0.85609 0.31023 0.0
C2000 C 0.31033 0.84879 0.31769 0.0
C2001 C 0.27566 0.86771 0.29643 0.0
C2002 C 0.26995 0.86033 0.30866 0.0
C2003 C 0.28154 0.85442 0.31535 0.0
C2004 C 0.25183 0.85846 0.31452 0.0
C2005 C 0.2632 0.87317 0.28844 0.0
C2006 C 0.2498 0.87492 0.31624 0.0
C2007 C 0.23208 0.87299 0.32068 0.0
C2008 C 0.21623 0.85463 0.32379 0.0
C2009 C 0.21843 0.83819 0.32242 0.0
C2010 C 0.23616 0.84012 0.31791 0.0
H2011 H 0.26665 0.87342 0.27835 0.0
H2012 H 0.24717 0.86286 0.28977 0.0
H2013 H 0.26628 0.88794 0.29114 0.0
H2014 H 0.2618 0.88925 0.3139 0.0
H2015 H 0.23066 0.88584 0.32158 0.0
H2016 H 0.10569 0.48475 0.29856 0.0
H2017 H 0.11623 0.46402 0.30889 0.0
H2018 H 0.12857 0.44754 0.27304 0.0
H2019 H 0.11892 0.46892 0.26265 0.0
H2020 H 0.10125 0.42514 0.30694 0.0
H2021 H 0.17966 0.4639 0.29207 0.0
H2022 H 0.16374 0.47421 0.29041 0.0
H2023 H 0.16258 0.45673 0.27918 0.0
C2024 C 0.11092 0.47694 0.29287 0.0
C2025 C 0.11161 0.47863 0.27977 0.0
C2026 C 0.11681 0.465 0.29879 0.0
C2027 C 0.12353 0.45452 0.29175 0.0
C2028 C 0.12387 0.45585 0.27867 0.0
H2029 H 0.12905 0.35333 0.31396 0.0
H2030 H 0.12076 0.37675 0.30537 0.0
C2031 C 0.11807 0.46786 0.27273 0.0
C2032 C 0.1296 0.44175 0.29808 0.0
H2033 H 0.16772 0.4325 0.301 0.0
C2034 C 0.11583 0.42682 0.30572 0.0
C2035 C 0.14875 0.44421 0.29665 0.0
C2036 C 0.16461 0.46075 0.28924 0.0
C2037 C 0.12048 0.4139 0.31167 0.0
C2038 C 0.13926 0.41571 0.3097 0.0
C2039 C 0.15325 0.431 0.30238 0.0
C2040 C 0.1445 0.40162 0.31492 0.0
C2041 C 0.10529 0.39854 0.32011 0.0
C2042 C 0.16105 0.40793 0.3228 0.0
C2043 C 0.16603 0.39459 0.32762 0.0
C2044 C 0.1545 0.37468 0.32466 0.0
C2045 C 0.13814 0.3685 0.31657 0.0
C2046 C 0.13326 0.38185 0.31171 0.0
H2047 H 0.09454 0.40274 0.32359 0.0
H2048 H 0.09688 0.38473 0.31477 0.0
H2049 H 0.11244 0.39585 0.32826 0.0
H2050 H 0.17006 0.42318 0.32527 0.0
H2051 H 0.17898 0.39991 0.33358 0.0
H2052 H 0.3732 0.47641 0.29774 0.0
H2053 H 0.34337 0.4524 0.30855 0.0
H2054 H 0.30801 0.44771 0.27622 0.0
H2055 H 0.33778 0.47163 0.26532 0.0
H2056 H 0.30898 0.45233 0.31474 0.0
H2057 H 0.29298 0.39144 0.28229 0.0
H2058 H 0.31627 0.41401 0.2823 0.0
H2059 H 0.29491 0.4124 0.27465 0.0
C2060 C 0.35905 0.47036 0.29296 0.0
C2061 C 0.35787 0.47582 0.28063 0.0
C2062 C 0.34203 0.45661 0.29914 0.0
C2063 C 0.32352 0.44803 0.29312 0.0
C2064 C 0.32221 0.4538 0.28093 0.0
H2065 H 0.20706 0.38074 0.32652 0.0
H2066 H 0.23871 0.40722 0.31917 0.0
C2067 C 0.33923 0.46746 0.27472 0.0
C2068 C 0.3056 0.43297 0.29957 0.0
H2069 H 0.26821 0.38588 0.2971 0.0
C2070 C 0.30008 0.43775 0.31093 0.0
C2071 C 0.29419 0.41391 0.29467 0.0
C2072 C 0.29996 0.40753 0.28287 0.0
C2073 C 0.28327 0.42405 0.31745 0.0
C2074 C 0.27149 0.40513 0.31235 0.0
C2075 C 0.27718 0.40036 0.30104 0.0
C2076 C 0.25313 0.38994 0.31843 0.0
C2077 C 0.27861 0.42988 0.32985 0.0
C2078 C 0.25056 0.37133 0.32046 0.0
C2079 C 0.23235 0.35611 0.32444 0.0
C2080 C 0.21649 0.35928 0.32672 0.0
C2081 C 0.21921 0.37802 0.32516 0.0
C2082 C 0.23736 0.39321 0.32099 0.0
H2083 H 0.29193 0.44235 0.33415 0.0
H2084 H 0.26736 0.43435 0.32845 0.0
H2085 H 0.27262 0.41756 0.33645 0.0
H2086 H 0.26245 0.36841 0.31854 0.0
H2087 H 0.2305 0.34172 0.32545 0.0
H2088 H 0.54514 0.90482 0.27585 0.0
H2089 H 0.56982 0.89891 0.28599 0.0
H2090 H 0.52365 0.84227 0.29746 0.0
H2091 H 0.49888 0.8479 0.28713 0.0
H2092 H 0.57174 0.88976 0.31172 0.0
H2093 H 0.56412 0.83141 0.27934 0.0
H2094 H 0.55505 0.8477 0.27548 0.0
H2095 H 0.54151 0.82796 0.28606 0.0
C2096 C 0.54024 0.89103 0.28043 0.0
C2097 C 0.52003 0.87679 0.28061 0.0
C2098 C 0.55435 0.88772 0.28629 0.0
C2099 C 0.5486 0.87006 0.29234 0.0
C2100 C 0.52844 0.8559 0.29269 0.0
H2101 H 0.61874 0.82355 0.32548 0.0
H2102 H 0.59156 0.82822 0.31835 0.0
C2103 C 0.51429 0.85922 0.28688 0.0
C2104 C 0.56374 0.86661 0.29839 0.0
H2105 H 0.58561 0.83865 0.29659 0.0
C2106 C 0.57478 0.87856 0.30845 0.0
C2107 C 0.56761 0.85196 0.29412 0.0
C2108 C 0.55659 0.83908 0.2831 0.0
C2109 C 0.58951 0.87621 0.31443 0.0
C2110 C 0.59367 0.86175 0.31004 0.0
C2111 C 0.58244 0.84967 0.30003 0.0
C2112 C 0.60995 0.85922 0.31536 0.0
C2113 C 0.60019 0.88914 0.32549 0.0
C2114 C 0.62942 0.87499 0.31605 0.0
C2115 C 0.64485 0.87239 0.32045 0.0
C2116 C 0.64121 0.85395 0.32414 0.0
C2117 C 0.62187 0.83806 0.32316 0.0
C2118 C 0.60636 0.8407 0.31894 0.0
H2119 H 0.59071 0.89382 0.33039 0.0
H2120 H 0.6049 0.88175 0.33229 0.0
H2121 H 0.61354 0.90244 0.32217 0.0
H2122 H 0.63282 0.88927 0.31291 0.0
H2123 H 0.65974 0.88478 0.32078 0.0
H2124 H 0.13559 0.63638 0.28862 0.0
H2125 H 0.14435 0.66723 0.29894 0.0
H2126 H 0.09073 0.66359 0.28479 0.0
H2127 H 0.08151 0.63241 0.27478 0.0
H2128 H 0.15025 0.70123 0.28754 0.0
H2129 H 0.08945 0.67466 0.32211 0.0
H2130 H 0.0956 0.65854 0.31382 0.0
H2131 H 0.08129 0.66767 0.30625 0.0
C2132 C 0.12549 0.64198 0.28787 0.0
C2133 C 0.1078 0.63189 0.28093 0.0
C2134 C 0.13059 0.65965 0.2937 0.0
C2135 C 0.11806 0.66753 0.29276 0.0
C2136 C 0.10043 0.65757 0.28582 0.0
H2137 H 0.12492 0.77493 0.31649 0.0
H2138 H 0.11555 0.74306 0.30758 0.0
C2139 C 0.0953 0.63988 0.27998 0.0
C2140 C 0.12386 0.68656 0.29864 0.0
H2141 H 0.10943 0.70893 0.32004 0.0
C2142 C 0.1414 0.70292 0.2947 0.0
C2143 C 0.11224 0.68866 0.30795 0.0
C2144 C 0.09368 0.67144 0.31288 0.0
C2145 C 0.14746 0.72145 0.29967 0.0
C2146 C 0.13581 0.72357 0.30894 0.0
C2147 C 0.1183 0.70721 0.31291 0.0
C2148 C 0.14145 0.74271 0.31455 0.0
C2149 C 0.16603 0.73868 0.29473 0.0
C2150 C 0.159 0.75292 0.32154 0.0
C2151 C 0.16445 0.77118 0.3266 0.0
C2152 C 0.15233 0.77945 0.32487 0.0
C2153 C 0.13462 0.76902 0.31799 0.0
C2154 C 0.1292 0.75078 0.31292 0.0
H2155 H 0.17059 0.73533 0.28566 0.0
H2156 H 0.1639 0.7514 0.29348 0.0
H2157 H 0.17828 0.74282 0.30155 0.0
H2158 H 0.16851 0.74679 0.32305 0.0
H2159 H 0.17828 0.77886 0.33175 0.0
H2160 H 0.8103 0.01645 0.4172 0.0
H2161 H 0.78651 0.98567 0.40729 0.0
H2162 H 0.79637 0.01442 0.37176 0.0
H2163 H 0.81955 0.04547 0.3817 0.0
H2164 H 0.75725 0.98966 0.37593 0.0
H2165 H 0.80018 0.95257 0.38516 0.0
H2166 H 0.79498 0.96186 0.39908 0.0
H2167 H 0.81056 0.97844 0.38725 0.0
C2168 C 0.80727 0.0163 0.4073 0.0
C2169 C 0.81692 0.03345 0.40024 0.0
C2170 C 0.79385 0.99862 0.40162 0.0
C2171 C 0.78996 0.99768 0.38874 0.0
C2172 C 0.7993 0.01479 0.3817 0.0
H2173 H 0.734 0.89056 0.3455 0.0
H2174 H 0.75667 0.92231 0.35455 0.0
C2175 C 0.81266 0.0325 0.38738 0.0
C2176 C 0.776 0.97887 0.38263 0.0
H2177 H 0.76721 0.93271 0.37771 0.0
C2178 C 0.75945 0.97722 0.37626 0.0
C2179 C 0.77908 0.96276 0.3829 0.0
C2180 C 0.79726 0.964 0.38885 0.0
C2181 C 0.74573 0.95979 0.37029 0.0
C2182 C 0.74835 0.94341 0.37102 0.0
C2183 C 0.76506 0.94518 0.37726 0.0
C2184 C 0.73421 0.92438 0.36518 0.0
C2185 C 0.72885 0.95933 0.36305 0.0
C2186 C 0.71401 0.91481 0.36818 0.0
C2187 C 0.70086 0.89683 0.36271 0.0
C2188 C 0.70771 0.88785 0.35431 0.0
C2189 C 0.72805 0.89723 0.35162 0.0
C2190 C 0.74111 0.91535 0.35691 0.0
H2191 H 0.73237 0.97415 0.36018 0.0
H2192 H 0.72519 0.95006 0.35454 0.0
H2193 H 0.71554 0.95332 0.36905 0.0
H2194 H 0.70841 0.92113 0.37486 0.0
H2195 H 0.68536 0.88992 0.36518 0.0
H2196 H 0.99303 0.79321 0.41437 0.0
H2197 H 0.02295 0.79894 0.40363 0.0
H2198 H 0.99714 0.80076 0.36831 0.0
H2199 H 0.9666 0.79372 0.37887 0.0
H2200 H 0.01495 0.78032 0.36596 0.0
H2201 H 0.06653 0.84888 0.39035 0.0
H2202 H 0.05354 0.82948 0.4012 0.0
H2203 H 0.04003 0.83773 0.39176 0.0
C2204 C 0.99355 0.79461 0.4043 0.0
C2205 C 0.97726 0.79302 0.39754 0.0
C2206 C 0.01088 0.79824 0.39818 0.0
C2207 C 0.01257 0.80078 0.38517 0.0
C2208 C 0.99633 0.79908 0.37837 0.0
H2209 H 0.12909 0.84534 0.35066 0.0
H2210 H 0.09743 0.84161 0.35744 0.0
C2211 C 0.97889 0.79522 0.38446 0.0
C2212 C 0.03096 0.80447 0.37862 0.0
H2213 H 0.08133 0.83319 0.37919 0.0
C2214 C 0.02944 0.79202 0.36877 0.0
C2215 C 0.04991 0.81997 0.38206 0.0
C2216 C 0.0526 0.8349 0.39183 0.0
C2217 C 0.04631 0.7942 0.36259 0.0
C2218 C 0.06535 0.8089 0.3666 0.0
C2219 C 0.06681 0.82177 0.37616 0.0
C2220 C 0.08396 0.81083 0.36137 0.0
C2221 C 0.04339 0.78078 0.35175 0.0
C2222 C 0.08707 0.79485 0.36126 0.0
C2223 C 0.10496 0.79688 0.35707 0.0
C2224 C 0.12024 0.81497 0.353 0.0
C2225 C 0.11734 0.83107 0.35332 0.0
C2226 C 0.0993 0.82898 0.35733 0.0
H2227 H 0.02892 0.77585 0.34702 0.0
H2228 H 0.0553 0.78791 0.34475 0.0
H2229 H 0.0434 0.76766 0.35527 0.0
H2230 H 0.07587 0.78087 0.36476 0.0
H2231 H 0.10702 0.78436 0.35723 0.0
H2232 H 0.23413 0.18561 0.37928 0.0
H2233 H 0.22372 0.20668 0.3692 0.0
H2234 H 0.2155 0.22579 0.4053 0.0
H2235 H 0.2253 0.20435 0.41551 0.0
H2236 H 0.18512 0.20562 0.3741 0.0
H2237 H 0.25281 0.27653 0.3845 0.0
H2238 H 0.25284 0.25378 0.38435 0.0
H2239 H 0.24228 0.25981 0.39728 0.0
C2240 C 0.22997 0.19418 0.3851 0.0
C2241 C 0.23052 0.19325 0.39822 0.0
C2242 C 0.22415 0.20627 0.37931 0.0
C2243 C 0.219 0.21782 0.38653 0.0
C2244 C 0.21967 0.21712 0.3996 0.0
H2245 H 0.18471 0.30343 0.37115 0.0
H2246 H 0.19443 0.28144 0.38047 0.0
C2247 C 0.22537 0.20493 0.4054 0.0
C2248 C 0.21243 0.23027 0.38039 0.0
H2249 H 0.22586 0.27762 0.37524 0.0
C2250 C 0.194 0.22137 0.37428 0.0
C2251 C 0.2241 0.25074 0.38073 0.0
C2252 C 0.24419 0.26089 0.38698 0.0
C2253 C 0.18667 0.2325 0.3687 0.0
C2254 C 0.19837 0.25304 0.36899 0.0
C2255 C 0.21691 0.26188 0.37503 0.0
C2256 C 0.19161 0.26573 0.3633 0.0
C2257 C 0.16622 0.22215 0.36291 0.0
C2258 C 0.18681 0.26424 0.35053 0.0
C2259 C 0.18104 0.2767 0.3452 0.0
C2260 C 0.18032 0.29108 0.35248 0.0
C2261 C 0.18522 0.29257 0.36525 0.0
C2262 C 0.19076 0.28 0.3706 0.0
H2263 H 0.15719 0.20716 0.36659 0.0
H2264 H 0.15825 0.23023 0.36467 0.0
H2265 H 0.16753 0.22102 0.35266 0.0
H2266 H 0.1879 0.25371 0.34462 0.0
H2267 H 0.1778 0.27545 0.33533 0.0
H2268 H 0.66436 0.52767 0.74607 0.0
H2269 H 0.69418 0.55139 0.73513 0.0
H2270 H 0.65894 0.5464 0.70267 0.0
H2271 H 0.62904 0.52263 0.71354 0.0
H2272 H 0.69351 0.54626 0.69671 0.0
H2273 H 0.70917 0.60765 0.72864 0.0
H2274 H 0.70711 0.58675 0.73643 0.0
H2275 H 0.68586 0.58511 0.72862 0.0
C2276 C 0.66293 0.53173 0.73664 0.0
C2277 C 0.6443 0.52335 0.73071 0.0
C2278 C 0.67999 0.54528 0.73039 0.0
C2279 C 0.67874 0.55089 0.71815 0.0
C2280 C 0.66024 0.5423 0.71212 0.0
H2281 H 0.77083 0.65679 0.68498 0.0
H2282 H 0.73917 0.62997 0.69214 0.0
C2283 C 0.64317 0.52868 0.71834 0.0
C2284 C 0.6967 0.56587 0.71167 0.0
H2285 H 0.73387 0.61311 0.71383 0.0
C2286 C 0.70233 0.56092 0.70041 0.0
C2287 C 0.70802 0.58503 0.71643 0.0
C2288 C 0.70217 0.59156 0.72813 0.0
C2289 C 0.71913 0.57457 0.69384 0.0
C2290 C 0.73078 0.59361 0.69878 0.0
C2291 C 0.725 0.59854 0.71001 0.0
C2292 C 0.749 0.60883 0.69258 0.0
C2293 C 0.72392 0.56854 0.68156 0.0
C2294 C 0.76497 0.60583 0.69012 0.0
C2295 C 0.78297 0.6211 0.68581 0.0
C2296 C 0.78535 0.63967 0.68402 0.0
C2297 C 0.76927 0.64254 0.68617 0.0
C2298 C 0.75122 0.62724 0.6903 0.0
H2299 H 0.71069 0.55587 0.67734 0.0
H2300 H 0.72981 0.58069 0.67484 0.0
H2301 H 0.73532 0.56428 0.68312 0.0
H2302 H 0.76389 0.59197 0.69211 0.0
H2303 H 0.79529 0.61861 0.68452 0.0
H2304 H 0.4583 0.09344 0.7332 0.0
H2305 H 0.43343 0.099 0.72306 0.0
H2306 H 0.47803 0.15842 0.71581 0.0
H2307 H 0.50305 0.15287 0.72582 0.0
H2308 H 0.42119 0.12388 0.7298 0.0
H2309 H 0.45185 0.14195 0.68191 0.0
H2310 H 0.46069 0.13143 0.69338 0.0
H2311 H 0.46896 0.15703 0.69384 0.0
C2312 C 0.46284 0.10769 0.72942 0.0
C2313 C 0.48268 0.12271 0.73032 0.0
C2314 C 0.44861 0.11083 0.72358 0.0
C2315 C 0.45386 0.12905 0.71849 0.0
C2316 C 0.47367 0.14409 0.71935 0.0
H2317 H 0.3818 0.17564 0.68826 0.0
H2318 H 0.40917 0.17158 0.69598 0.0
C2319 C 0.48796 0.14092 0.72512 0.0
C2320 C 0.43833 0.13247 0.71291 0.0
H2321 H 0.42481 0.14688 0.68634 0.0
C2322 C 0.42196 0.1288 0.72027 0.0
C2323 C 0.43934 0.13901 0.70048 0.0
C2324 C 0.45605 0.14242 0.69189 0.0
C2325 C 0.40668 0.13155 0.71561 0.0
C2326 C 0.40765 0.13795 0.70319 0.0
C2327 C 0.42409 0.1419 0.69584 0.0
C2328 C 0.39148 0.14031 0.69767 0.0
C2329 C 0.38971 0.1278 0.72406 0.0
C2330 C 0.37257 0.12405 0.69585 0.0
C2331 C 0.357 0.12633 0.69133 0.0
C2332 C 0.36013 0.14486 0.68837 0.0
C2333 C 0.37909 0.16113 0.69013 0.0
C2334 C 0.3947 0.15884 0.69461 0.0
H2335 H 0.39333 0.12726 0.73405 0.0
H2336 H 0.38559 0.13924 0.72293 0.0
H2337 H 0.37661 0.1136 0.72153 0.0
H2338 H 0.36981 0.10961 0.69807 0.0
H2339 H 0.34246 0.1136 0.69022 0.0
H2340 H 0.92163 0.3686 0.7374 0.0
H2341 H 0.91223 0.33744 0.72727 0.0
H2342 H 0.85887 0.33434 0.71312 0.0
H2343 H 0.86799 0.36534 0.72334 0.0
H2344 H 0.87702 0.30134 0.73125 0.0
H2345 H 0.88402 0.32509 0.68185 0.0
H2346 H 0.89498 0.34207 0.6947 0.0
H2347 H 0.86894 0.33107 0.69146 0.0
C2348 C 0.90785 0.36125 0.73218 0.0
C2349 C 0.89558 0.36947 0.73115 0.0
C2350 C 0.90257 0.34352 0.72634 0.0
C2351 C 0.88502 0.33377 0.71931 0.0
C2352 C 0.8727 0.34187 0.71829 0.0
H2353 H 0.82538 0.22331 0.67965 0.0
H2354 H 0.83512 0.2551 0.68888 0.0
C2355 C 0.87794 0.35958 0.72413 0.0
C2356 C 0.87923 0.31475 0.71344 0.0
H2357 H 0.86983 0.29123 0.6853 0.0
C2358 C 0.87553 0.29912 0.72121 0.0
C2359 C 0.87722 0.31196 0.70034 0.0
C2360 C 0.88164 0.32845 0.69156 0.0
C2361 C 0.86959 0.28062 0.71623 0.0
C2362 C 0.86768 0.27784 0.70312 0.0
C2363 C 0.87132 0.29346 0.69535 0.0
C2364 C 0.86208 0.25883 0.6973 0.0
C2365 C 0.865 0.26413 0.72505 0.0
C2366 C 0.87422 0.2506 0.6988 0.0
C2367 C 0.86875 0.23248 0.69352 0.0
C2368 C 0.85111 0.22233 0.68654 0.0
C2369 C 0.83914 0.23079 0.68488 0.0
C2370 C 0.84464 0.24892 0.69018 0.0
H2371 H 0.86214 0.26738 0.73467 0.0
H2372 H 0.85191 0.25042 0.72176 0.0
H2373 H 0.87785 0.26175 0.72547 0.0
H2374 H 0.88795 0.25821 0.70406 0.0
H2375 H 0.87838 0.22647 0.69492 0.0
H2376 H 0.19411 0.98294 0.59361 0.0
H2377 H 0.21818 0.01356 0.60356 0.0
H2378 H 0.20039 0.98708 0.63982 0.0
H2379 H 0.17694 0.95613 0.62993 0.0
H2380 H 0.21229 0.03641 0.61975 0.0
H2381 H 0.25996 0.01137 0.64188 0.0
H2382 H 0.24153 0.99719 0.63018 0.0
H2383 H 0.2344 0.99711 0.64616 0.0
C2384 C 0.19553 0.9835 0.60369 0.0
C2385 C 0.18366 0.96698 0.61095 0.0
C2386 C 0.20919 0.00108 0.60937 0.0
C2387 C 0.21132 0.00254 0.62242 0.0
C2388 C 0.19932 0.98619 0.62972 0.0
H2389 H 0.26644 0.1106 0.66503 0.0
H2390 H 0.24347 0.07949 0.65524 0.0
C2391 C 0.18571 0.96856 0.62405 0.0
C2392 C 0.22572 0.02133 0.62838 0.0
H2393 H 0.26571 0.04262 0.64807 0.0
C2394 C 0.22402 0.03779 0.62591 0.0
C2395 C 0.2412 0.02317 0.63627 0.0
C2396 C 0.24455 0.00632 0.6387 0.0
C2397 C 0.23717 0.05598 0.63125 0.0
C2398 C 0.25216 0.05765 0.63952 0.0
C2399 C 0.25407 0.04127 0.64184 0.0
C2400 C 0.26617 0.07632 0.64575 0.0
C2401 C 0.2351 0.07329 0.62778 0.0
C2402 C 0.28664 0.0846 0.64402 0.0
C2403 C 0.2999 0.10225 0.64982 0.0
C2404 C 0.29292 0.11193 0.65751 0.0
C2405 C 0.27239 0.1035 0.65929 0.0
C2406 C 0.25917 0.0858 0.65356 0.0
H2407 H 0.22689 0.07082 0.61882 0.0
H2408 H 0.2267 0.07584 0.63517 0.0
H2409 H 0.24981 0.08663 0.62691 0.0
H2410 H 0.29236 0.0775 0.63807 0.0
H2411 H 0.31559 0.10829 0.64823 0.0
H2412 H 0.03035 0.2366 0.61064 0.0
H2413 H 1.00015 0.23081 0.62118 0.0
H2414 H 0.98714 0.17282 0.63054 0.0
H2415 H 0.01745 0.17858 0.62007 0.0
H2416 H 0.96229 0.20397 0.61554 0.0
H2417 H 0.97944 0.19205 0.66398 0.0
H2418 H 0.99804 0.20215 0.65198 0.0
H2419 H 0.98117 0.17637 0.65255 0.0
C2420 C 0.02108 0.2226 0.61494 0.0
C2421 C 0.02635 0.20805 0.6145 0.0
C2422 C 0.00385 0.21934 0.62103 0.0
C2423 C 0.99146 0.20148 0.62683 0.0
C2424 C 0.99667 0.1869 0.62642 0.0
H2425 H 0.87333 0.15592 0.65911 0.0
H2426 H 0.90457 0.15936 0.65146 0.0
C2427 C 0.01399 0.1902 0.62039 0.0
C2428 C 0.97263 0.19789 0.63269 0.0
H2429 H 0.9468 0.18599 0.66011 0.0
C2430 C 0.95898 0.2001 0.62529 0.0
C2431 C 0.96819 0.19271 0.64542 0.0
C2432 C 0.98254 0.19084 0.654 0.0
C2433 C 0.9411 0.19732 0.63024 0.0
C2434 C 0.93678 0.19238 0.64296 0.0
C2435 C 0.9502 0.18981 0.65035 0.0
C2436 C 0.91862 0.19045 0.64875 0.0
C2437 C 0.92686 0.19959 0.62177 0.0
C2438 C 0.91637 0.20683 0.65004 0.0
C2439 C 0.89867 0.20492 0.65451 0.0
C2440 C 0.88298 0.18664 0.65793 0.0
C2441 C 0.88535 0.17025 0.65684 0.0
C2442 C 0.90313 0.17219 0.65241 0.0
H2443 H 0.93027 0.19919 0.61174 0.0
H2444 H 0.91139 0.18795 0.62351 0.0
H2445 H 0.92786 0.2138 0.62373 0.0
H2446 H 0.92818 0.22107 0.64734 0.0
H2447 H 0.89712 0.21772 0.65512 0.0
H2448 H 0.80398 0.83429 0.62175 0.0
H2449 H 0.81473 0.81312 0.63131 0.0
H2450 H 0.76405 0.76286 0.6153 0.0
H2451 H 0.75304 0.78386 0.60583 0.0
H2452 H 0.7937 0.78208 0.64826 0.0
H2453 H 0.81145 0.75708 0.60416 0.0
H2454 H 0.8083 0.77811 0.60492 0.0
H2455 H 0.78704 0.75405 0.60457 0.0
C2456 C 0.79504 0.81871 0.62033 0.0
C2457 C 0.77768 0.81075 0.613 0.0
C2458 C 0.80126 0.80668 0.62575 0.0
C2459 C 0.79033 0.78649 0.62385 0.0
C2460 C 0.77291 0.77845 0.61665 0.0
H2461 H 0.79649 0.68644 0.64766 0.0
H2462 H 0.78824 0.70964 0.63858 0.0
C2463 C 0.76666 0.79047 0.61124 0.0
C2464 C 0.79692 0.77378 0.62962 0.0
H2465 H 0.81123 0.74063 0.6227 0.0
C2466 C 0.79768 0.7731 0.6427 0.0
C2467 C 0.80212 0.76216 0.6223 0.0
C2468 C 0.80239 0.76296 0.60821 0.0
C2469 C 0.80294 0.76062 0.64869 0.0
C2470 C 0.80787 0.7488 0.64136 0.0
C2471 C 0.80738 0.74969 0.62828 0.0
C2472 C 0.81301 0.73494 0.64706 0.0
C2473 C 0.80258 0.75974 0.66277 0.0
C2474 C 0.82982 0.74154 0.65473 0.0
C2475 C 0.8346 0.72829 0.65997 0.0
C2476 C 0.82266 0.70824 0.65758 0.0
C2477 C 0.80598 0.70175 0.64975 0.0
C2478 C 0.80122 0.71499 0.64453 0.0
H2479 H 0.79412 0.76626 0.66685 0.0
H2480 H 0.79592 0.74448 0.66601 0.0
H2481 H 0.81797 0.76796 0.66644 0.0
H2482 H 0.83936 0.75693 0.65656 0.0
H2483 H 0.84777 0.73382 0.66575 0.0
H2484 H 0.04119 0.81101 0.63068 0.0
H2485 H 0.01146 0.7873 0.64172 0.0
H2486 H 0.97596 0.78097 0.60912 0.0
H2487 H 0.00562 0.8046 0.59801 0.0
H2488 H 0.97682 0.78717 0.64752 0.0
H2489 H 0.9615 0.7251 0.61634 0.0
H2490 H 0.98466 0.74778 0.61611 0.0
H2491 H 0.96323 0.74566 0.60826 0.0
C2492 C 0.02703 0.80466 0.62589 0.0
C2493 C 0.02579 0.80959 0.61343 0.0
C2494 C 0.01007 0.79109 0.6322 0.0
C2495 C 0.99154 0.78214 0.62618 0.0
C2496 C 0.99017 0.78735 0.61385 0.0
H2497 H 0.87524 0.71499 0.65995 0.0
H2498 H 0.90668 0.74149 0.65235 0.0
C2499 C 0.00713 0.80085 0.60751 0.0
C2500 C 0.97369 0.76725 0.63279 0.0
H2501 H 0.93673 0.71988 0.63106 0.0
C2502 C 0.96807 0.77242 0.64397 0.0
C2503 C 0.96246 0.74795 0.62823 0.0
C2504 C 0.96834 0.74119 0.61664 0.0
C2505 C 0.95135 0.75887 0.65064 0.0
C2506 C 0.93977 0.7397 0.64588 0.0
C2507 C 0.94555 0.73455 0.63474 0.0
C2508 C 0.92155 0.7246 0.65214 0.0
C2509 C 0.94657 0.76514 0.66283 0.0
C2510 C 0.9193 0.70622 0.65458 0.0
C2511 C 0.90122 0.69099 0.65872 0.0
C2512 C 0.88514 0.69392 0.66073 0.0
C2513 C 0.88755 0.71247 0.65879 0.0
C2514 C 0.90558 0.72766 0.65447 0.0
H2515 H 0.95981 0.77787 0.66698 0.0
H2516 H 0.93521 0.76941 0.66116 0.0
H2517 H 0.94065 0.75312 0.66965 0.0
H2518 H 0.93135 0.70345 0.65285 0.0
H2519 H 0.89962 0.67674 0.66003 0.0
H2520 H 0.21132 0.23563 0.6063 0.0
H2521 H 0.23637 0.23012 0.6162 0.0
H2522 H 0.19081 0.17347 0.62815 0.0
H2523 H 0.16561 0.17892 0.61829 0.0
H2524 H 0.21705 0.19375 0.64687 0.0
H2525 H 0.25816 0.19613 0.60418 0.0
H2526 H 0.25588 0.21738 0.6062 0.0
H2527 H 0.23405 0.19408 0.60358 0.0
C2528 C 0.20663 0.22189 0.6109 0.0
C2529 C 0.18644 0.20767 0.61142 0.0
C2530 C 0.221 0.21874 0.61653 0.0
C2531 C 0.21555 0.20121 0.6227 0.0
C2532 C 0.19539 0.18707 0.62337 0.0
H2533 H 0.28478 0.15649 0.65971 0.0
H2534 H 0.2577 0.16026 0.65117 0.0
C2535 C 0.18099 0.19024 0.61778 0.0
C2536 C 0.23079 0.19797 0.62887 0.0
H2537 H 0.27379 0.19746 0.62369 0.0
C2538 C 0.22932 0.19432 0.64176 0.0
C2539 C 0.24687 0.1988 0.62223 0.0
C2540 C 0.24878 0.20162 0.60826 0.0
C2541 C 0.2437 0.19196 0.64822 0.0
C2542 C 0.25996 0.1932 0.64165 0.0
C2543 C 0.26135 0.19663 0.62874 0.0
C2544 C 0.27582 0.19118 0.648 0.0
C2545 C 0.24197 0.18907 0.66213 0.0
C2546 C 0.29496 0.20731 0.64915 0.0
C2547 C 0.31039 0.20523 0.6542 0.0
C2548 C 0.30699 0.18697 0.65817 0.0
C2549 C 0.28777 0.17084 0.6571 0.0
C2550 C 0.27229 0.17296 0.65214 0.0
H2551 H 0.22893 0.18937 0.666 0.0
H2552 H 0.24072 0.1749 0.66445 0.0
H2553 H 0.25557 0.20077 0.66668 0.0
H2554 H 0.29804 0.22147 0.64593 0.0
H2555 H 0.32511 0.21784 0.65473 0.0
H2556 H 0.74508 0.96379 0.61009 0.0
H2557 H 0.75524 0.99543 0.61979 0.0
H2558 H 0.80792 0.9975 0.63433 0.0
H2559 H 0.79824 0.96623 0.62434 0.0
H2560 H 0.76331 0.00676 0.64521 0.0
H2561 H 0.82932 0.049 0.61543 0.0
H2562 H 0.81021 0.02454 0.61154 0.0
H2563 H 0.82859 0.02864 0.62319 0.0
C2564 C 0.75891 0.97107 0.61526 0.0
C2565 C 0.77092 0.96256 0.61637 0.0
C2566 C 0.76461 0.98906 0.62086 0.0
C2567 C 0.78245 0.99889 0.62761 0.0
C2568 C 0.79425 0.99027 0.62898 0.0
H2569 H 0.84397 0.11046 0.6658 0.0
H2570 H 0.83319 0.07788 0.65758 0.0
C2571 C 0.78858 0.9723 0.62338 0.0
C2572 C 0.78873 0.01819 0.6332 0.0
H2573 H 0.82508 0.06587 0.63236 0.0
C2574 C 0.77677 0.01971 0.64239 0.0
C2575 C 0.80632 0.03501 0.62949 0.0
C2576 C 0.81929 0.03434 0.6193 0.0
C2577 C 0.78211 0.03763 0.6481 0.0
C2578 C 0.79968 0.05444 0.64437 0.0
C2579 C 0.81165 0.0529 0.63521 0.0
C2580 C 0.80579 0.07386 0.6497 0.0
C2581 C 0.7691 0.03838 0.65824 0.0
C2582 C 0.79402 0.08243 0.64787 0.0
C2583 C 0.80007 0.101 0.65261 0.0
C2584 C 0.81805 0.11136 0.65923 0.0
C2585 C 0.82989 0.10278 0.66093 0.0
C2586 C 0.82381 0.0842 0.65619 0.0
H2587 H 0.75913 0.02376 0.66218 0.0
H2588 H 0.77816 0.04832 0.66594 0.0
H2589 H 0.75974 0.04395 0.65426 0.0
H2590 H 0.78026 0.07483 0.64264 0.0
H2591 H 0.79065 0.10721 0.65105 0.0
H2592 H 0.50702 0.3606 0.72457 0.0
H2593 H 0.48279 0.32979 0.71477 0.0
H2594 H 0.43524 0.33667 0.72948 0.0
H2595 H 0.45933 0.36776 0.73899 0.0
H2596 H 0.45334 0.29664 0.72681 0.0
H2597 H 0.42052 0.32481 0.69238 0.0
H2598 H 0.44376 0.34033 0.70026 0.0
H2599 H 0.42077 0.33252 0.70822 0.0
C2600 C 0.49141 0.35572 0.72556 0.0
C2601 C 0.48512 0.36668 0.73253 0.0
C2602 C 0.47759 0.33805 0.72002 0.0
C2603 C 0.45723 0.33107 0.72127 0.0
C2604 C 0.45088 0.34195 0.72822 0.0
H2605 H 0.35157 0.22525 0.69664 0.0
H2606 H 0.37501 0.25658 0.70622 0.0
C2607 C 0.46468 0.35961 0.73377 0.0
C2608 C 0.44265 0.31206 0.71569 0.0
H2609 H 0.40456 0.29054 0.69461 0.0
C2610 C 0.44272 0.2953 0.71974 0.0
C2611 C 0.42876 0.31037 0.7065 0.0
C2612 C 0.42848 0.32796 0.70148 0.0
C2613 C 0.42911 0.27683 0.71495 0.0
C2614 C 0.4153 0.27515 0.70571 0.0
C2615 C 0.41515 0.29189 0.70171 0.0
C2616 C 0.40112 0.25617 0.69992 0.0
C2617 C 0.42939 0.25925 0.72 0.0
C2618 C 0.40805 0.24566 0.6931 0.0
C2619 C 0.39473 0.22775 0.68767 0.0
C2620 C 0.37418 0.22007 0.68881 0.0
C2621 C 0.36728 0.23071 0.69558 0.0
C2622 C 0.38065 0.24864 0.70104 0.0
H2623 H 0.43703 0.26234 0.72922 0.0
H2624 H 0.41414 0.24676 0.721 0.0
H2625 H 0.43748 0.25493 0.7134 0.0
H2626 H 0.42379 0.25135 0.69195 0.0
H2627 H 0.4006 0.21989 0.68265 0.0
H2628 H 0.64037 0.09677 0.73559 0.0
H2629 H 0.67083 0.10299 0.72512 0.0
H2630 H 0.68206 0.15996 0.71461 0.0
H2631 H 0.6518 0.15402 0.72526 0.0
H2632 H 0.6813 0.11293 0.69929 0.0
H2633 H 0.73414 0.17024 0.732 0.0
H2634 H 0.70862 0.15383 0.736 0.0
H2635 H 0.71481 0.17384 0.7257 0.0
C2636 C 0.64941 0.11071 0.73117 0.0
C2637 C 0.64367 0.12494 0.73134 0.0
C2638 C 0.66675 0.11419 0.72512 0.0
C2639 C 0.67883 0.13201 0.7192 0.0
C2640 C 0.6731 0.1462 0.71925 0.0
H2641 H 0.79581 0.17758 0.68539 0.0
H2642 H 0.76407 0.17362 0.69228 0.0
C2643 C 0.6557 0.1427 0.72525 0.0
C2644 C 0.6973 0.1356 0.71289 0.0
H2645 H 0.74771 0.16318 0.71448 0.0
C2646 C 0.69584 0.12395 0.70258 0.0
C2647 C 0.71623 0.15006 0.71714 0.0
C2648 C 0.71869 0.16266 0.72837 0.0
C2649 C 0.71279 0.12635 0.6964 0.0
C2650 C 0.73181 0.1405 0.70083 0.0
C2651 C 0.7332 0.15238 0.71103 0.0
C2652 C 0.75044 0.14264 0.6955 0.0
C2653 C 0.71003 0.11379 0.6851 0.0
C2654 C 0.75345 0.12661 0.69497 0.0
C2655 C 0.77142 0.12881 0.6908 0.0
C2656 C 0.78684 0.14709 0.68712 0.0
C2657 C 0.78398 0.1632 0.68776 0.0
C2658 C 0.76589 0.16096 0.69183 0.0
H2659 H 0.69568 0.10929 0.68033 0.0
H2660 H 0.72211 0.12142 0.67828 0.0
H2661 H 0.70992 0.10038 0.68812 0.0
H2662 H 0.74211 0.11246 0.69814 0.0
H2663 H 0.77343 0.11625 0.69068 0.0
H2664 H 0.89973 0.51805 0.71345 0.0
H2665 H 0.88944 0.53916 0.70336 0.0
H2666 H 0.8772 0.55515 0.73941 0.0
H2667 H 0.88666 0.53343 0.74956 0.0
H2668 H 0.84746 0.54627 0.72219 0.0
H2669 H 0.92077 0.59829 0.70238 0.0
H2670 H 0.91193 0.57341 0.69801 0.0
H2671 H 0.91767 0.58074 0.71412 0.0
C2672 C 0.89471 0.52595 0.71924 0.0
C2673 C 0.89406 0.52408 0.73233 0.0
C2674 C 0.88906 0.53818 0.71346 0.0
C2675 C 0.88285 0.54894 0.72066 0.0
C2676 C 0.88208 0.54706 0.7337 0.0
H2677 H 0.87295 0.64771 0.69821 0.0
H2678 H 0.8816 0.62495 0.70747 0.0
C2679 C 0.88766 0.53477 0.73949 0.0
C2680 C 0.87685 0.56194 0.71459 0.0
H2681 H 0.89361 0.60181 0.69595 0.0
C2682 C 0.85753 0.55843 0.71646 0.0
C2683 C 0.8901 0.57789 0.70722 0.0
C2684 C 0.91133 0.58297 0.70539 0.0
C2685 C 0.85108 0.57044 0.71113 0.0
C2686 C 0.8642 0.58613 0.70353 0.0
C2687 C 0.88352 0.58965 0.70169 0.0
C2688 C 0.85854 0.59965 0.69787 0.0
C2689 C 0.83046 0.56654 0.71395 0.0
C2690 C 0.84271 0.59298 0.68934 0.0
C2691 C 0.83757 0.60596 0.68408 0.0
C2692 C 0.84839 0.62589 0.68711 0.0
C2693 C 0.8643 0.63249 0.69562 0.0
C2694 C 0.86932 0.6195 0.70092 0.0
H2695 H 0.82419 0.55719 0.72231 0.0
H2696 H 0.83039 0.58033 0.71555 0.0
H2697 H 0.82061 0.55889 0.70587 0.0
H2698 H 0.83438 0.57775 0.68671 0.0
H2699 H 0.82509 0.60033 0.67769 0.0
H2700 H 0.43915 0.91642 0.17998 0.0
H2701 H 0.44731 0.93016 0.15894 0.0
H2702 H 0.50878 0.96432 0.16963 0.0
H2703 H 0.50079 0.95091 0.19068 0.0
H2704 H 0.46557 0.96948 0.15143 0.0
H2705 H 0.51051 0.93603 0.13784 0.0
H2706 H 0.49413 0.92785 0.1511 0.0
H2707 H 0.51812 0.94933 0.15233 0.0
C2708 C 0.4544 0.92696 0.17789 0.0
C2709 C 0.46933 0.93242 0.18704 0.0
C2710 C 0.45904 0.93472 0.16583 0.0
C2711 C 0.47871 0.948 0.16264 0.0
C2712 C 0.49358 0.95373 0.17178 0.0
H2713 H 0.54343 0.01694 0.09941 0.0
H2714 H 0.53193 0.00017 0.11933 0.0
C2715 C 0.48897 0.94602 0.18383 0.0
C2716 C 0.48371 0.95621 0.14984 0.0
H2717 H 0.5123 0.96081 0.12453 0.0
C2718 C 0.47564 0.96745 0.14549 0.0
C2719 C 0.49684 0.95353 0.14209 0.0
C2720 C 0.50528 0.94088 0.146 0.0
C2721 C 0.48089 0.97665 0.13379 0.0
C2722 C 0.49429 0.97424 0.12614 0.0
C2723 C 0.50207 0.9627 0.13041 0.0
C2724 C 0.50104 0.98414 0.11389 0.0
C2725 C 0.4726 0.98944 0.12995 0.0
C2726 C 0.48755 0.9805 0.10409 0.0
C2727 C 0.49407 0.99022 0.09268 0.0
C2728 C 0.51425 0.00371 0.09082 0.0
C2729 C 0.52775 0.00694 0.10057 0.0
C2730 C 0.52121 0.99725 0.11195 0.0
H2731 H 0.46647 0.9935 0.13803 0.0
H2732 H 0.48414 0.00296 0.12547 0.0
H2733 H 0.46044 0.98149 0.12307 0.0
H2734 H 0.47195 0.97016 0.10526 0.0
H2735 H 0.48324 0.98742 0.08542 0.0
H2736 H 0.0603 0.51039 0.18124 0.0
H2737 H 0.04655 0.50476 0.16001 0.0
H2738 H 0.01104 0.53024 0.17036 0.0
H2739 H 0.02441 0.53563 0.19162 0.0
H2740 H 0.0056 0.48321 0.1522 0.0
H2741 H 0.04198 0.56119 0.13917 0.0
H2742 H 0.04998 0.55268 0.15237 0.0
H2743 H 0.02841 0.55522 0.15354 0.0
C2744 C 0.04942 0.51463 0.17903 0.0
C2745 C 0.04355 0.52358 0.18811 0.0
C2746 C 0.04167 0.51149 0.16689 0.0
C2747 C 0.02804 0.51737 0.1636 0.0
C2748 C 0.02187 0.52597 0.17267 0.0
H2749 H 0.96464 0.51564 0.0968 0.0
H2750 H 0.97833 0.51944 0.1179 0.0
C2751 C 0.02956 0.52907 0.1848 0.0
C2752 C 0.02008 0.51437 0.15071 0.0
H2753 H 0.01781 0.5386 0.12506 0.0
C2754 C 0.00834 0.49528 0.14622 0.0
C2755 C 0.02371 0.53019 0.14297 0.0
C2756 C 0.03684 0.55099 0.14718 0.0
C2757 C 0.99967 0.49158 0.13426 0.0
C2758 C 0.00319 0.50741 0.12655 0.0
C2759 C 0.01509 0.5265 0.13101 0.0
C2760 C 0.99454 0.50455 0.11383 0.0
C2761 C 0.98638 0.47076 0.13014 0.0
C2762 C 0.99923 0.49502 0.10453 0.0
C2763 C 0.99129 0.49266 0.0925 0.0
C2764 C 0.97862 0.49994 0.08951 0.0
C2765 C 0.97408 0.50959 0.09884 0.0
C2766 C 0.982 0.5119 0.11088 0.0
H2767 H 0.98112 0.46067 0.1382 0.0
H2768 H 0.9733 0.46912 0.12489 0.0
H2769 H 0.99476 0.46633 0.12387 0.0
H2770 H 0.00918 0.48956 0.10655 0.0
H2771 H 0.99496 0.48502 0.08556 0.0
H2772 H 0.4387 0.50914 0.18036 0.0
H2773 H 0.44728 0.50238 0.15966 0.0
H2774 H 0.50836 0.52808 0.17121 0.0
H2775 H 0.49984 0.53428 0.192 0.0
H2776 H 0.47361 0.52877 0.14252 0.0
H2777 H 0.49705 0.4761 0.15645 0.0
H2778 H 0.48316 0.48297 0.16666 0.0
H2779 H 0.50947 0.49857 0.16507 0.0
C2780 C 0.45391 0.51308 0.17855 0.0
C2781 C 0.46858 0.52222 0.18786 0.0
C2782 C 0.4588 0.50932 0.1667 0.0
C2783 C 0.4784 0.51447 0.16395 0.0
C2784 C 0.49307 0.52364 0.17319 0.0
H2785 H 0.54568 0.516 0.09991 0.0
H2786 H 0.5336 0.51932 0.1203 0.0
C2787 C 0.48821 0.52739 0.18503 0.0
C2788 C 0.48373 0.51093 0.1513 0.0
H2789 H 0.5057 0.48901 0.13587 0.0
C2790 C 0.48044 0.51992 0.14103 0.0
C2791 C 0.49263 0.49937 0.1494 0.0
C2792 C 0.49562 0.48854 0.15996 0.0
C2793 C 0.48641 0.51818 0.12895 0.0
C2794 C 0.49569 0.50695 0.1271 0.0
C2795 C 0.49867 0.4977 0.13734 0.0
C2796 C 0.5028 0.50493 0.11467 0.0
C2797 C 0.48334 0.52886 0.11833 0.0
C2798 C 0.48944 0.49557 0.10477 0.0
C2799 C 0.49628 0.49353 0.09311 0.0
C2800 C 0.51661 0.50075 0.09115 0.0
C2801 C 0.52992 0.51006 0.10113 0.0
C2802 C 0.52306 0.51206 0.11277 0.0
H2803 H 0.48003 0.54016 0.12175 0.0
H2804 H 0.49664 0.53589 0.1123 0.0
H2805 H 0.47066 0.51833 0.11249 0.0
H2806 H 0.4737 0.48963 0.10611 0.0
H2807 H 0.4856 0.48599 0.0857 0.0
H2808 H 0.94706 0.49284 0.83005 0.0
H2809 H 0.96139 0.49902 0.85111 0.0
H2810 H 0.99609 0.47264 0.84078 0.0
H2811 H 0.98244 0.46707 0.8196 0.0
H2812 H 0.95909 0.47202 0.86823 0.0
H2813 H 0.03743 0.52378 0.85662 0.0
H2814 H 0.01736 0.51752 0.84572 0.0
H2815 H 0.02706 0.50139 0.84793 0.0
C2816 C 0.958 0.48866 0.83219 0.0
C2817 C 0.96366 0.47952 0.82312 0.0
C2818 C 0.96607 0.49208 0.84425 0.0
C2819 C 0.98001 0.48654 0.84745 0.0
C2820 C 0.98565 0.47738 0.83844 0.0
H2821 H 0.03924 0.48365 0.91516 0.0
H2822 H 0.02616 0.48047 0.89392 0.0
C2823 C 0.97763 0.47399 0.82638 0.0
C2824 C 0.98806 0.48961 0.86035 0.0
H2825 H 0.03112 0.51101 0.87727 0.0
C2826 C 0.97482 0.48068 0.87023 0.0
C2827 C 0.0086 0.5009 0.86291 0.0
C2828 C 0.02344 0.51161 0.85276 0.0
C2829 C 0.98161 0.48233 0.88258 0.0
C2830 C 0.00215 0.49341 0.88511 0.0
C2831 C 0.01539 0.50247 0.87526 0.0
C2832 C 0.01021 0.49564 0.89794 0.0
C2833 C 0.96682 0.47182 0.8928 0.0
C2834 C 0.00579 0.50547 0.90715 0.0
C2835 C 0.01334 0.50744 0.91927 0.0
C2836 C 0.02551 0.49964 0.92238 0.0
C2837 C 0.03009 0.49 0.91305 0.0
C2838 C 0.02256 0.48808 0.90093 0.0
H2839 H 0.95225 0.46056 0.88898 0.0
H2840 H 0.97238 0.46476 0.89932 0.0
H2841 H 0.96452 0.48246 0.89823 0.0
H2842 H 0.99658 0.51172 0.90495 0.0
H2843 H 0.00983 0.51527 0.92616 0.0
H2844 H 0.50357 0.46293 0.82078 0.0
H2845 H 0.49533 0.46855 0.84182 0.0
H2846 H 0.55669 0.49466 0.85279 0.0
H2847 H 0.56507 0.48889 0.83176 0.0
H2848 H 0.50176 0.4543 0.86452 0.0
H2849 H 0.54126 0.53514 0.86388 0.0
H2850 H 0.53573 0.52065 0.84981 0.0
H2851 H 0.55589 0.52424 0.85977 0.0
C2852 C 0.51533 0.46979 0.82767 0.0
C2853 C 0.535 0.47543 0.82457 0.0
C2854 C 0.5106 0.47308 0.83967 0.0
C2855 C 0.52541 0.48219 0.84882 0.0
C2856 C 0.54508 0.48793 0.8458 0.0
H2857 H 0.51929 0.51248 0.92664 0.0
H2858 H 0.53042 0.50727 0.90637 0.0
C2859 C 0.54984 0.48463 0.83377 0.0
C2860 C 0.52006 0.4851 0.86162 0.0
H2861 H 0.52633 0.51998 0.8829 0.0
C2862 C 0.50713 0.46865 0.86855 0.0
C2863 C 0.52718 0.50384 0.86687 0.0
C2864 C 0.54067 0.52202 0.85969 0.0
C2865 C 0.50112 0.47043 0.8806 0.0
C2866 C 0.50792 0.48917 0.88576 0.0
C2867 C 0.52112 0.50563 0.87891 0.0
C2868 C 0.50111 0.49203 0.89811 0.0
C2869 C 0.48774 0.45219 0.88776 0.0
C2870 C 0.48096 0.48535 0.90016 0.0
C2871 C 0.47453 0.48817 0.91175 0.0
C2872 C 0.48815 0.49787 0.92152 0.0
C2873 C 0.50837 0.50469 0.91939 0.0
C2874 C 0.51478 0.50186 0.90779 0.0
H2875 H 0.48852 0.43945 0.88412 0.0
H2876 H 0.49165 0.45404 0.89786 0.0
H2877 H 0.47221 0.44893 0.88678 0.0
H2878 H 0.47018 0.47805 0.89276 0.0
H2879 H 0.45885 0.4826 0.91308 0.0
H2880 H 0.50052 0.04643 0.8201 0.0
H2881 H 0.49248 0.03268 0.84107 0.0
H2882 H 0.55394 0.06684 0.85184 0.0
H2883 H 0.56202 0.08123 0.831 0.0
H2884 H 0.50601 0.01117 0.85342 0.0
H2885 H 0.52661 0.07909 0.87988 0.0
H2886 H 0.52369 0.07744 0.8631 0.0
H2887 H 0.54591 0.08025 0.8702 0.0
C2888 C 0.51232 0.05127 0.82696 0.0
C2889 C 0.53192 0.06509 0.82384 0.0
C2890 C 0.5077 0.04327 0.83894 0.0
C2891 C 0.52254 0.04893 0.84811 0.0
C2892 C 0.54216 0.06252 0.84501 0.0
H2893 H 0.51834 0.01064 0.92529 0.0
H2894 H 0.52908 0.0267 0.905 0.0
C2895 C 0.5468 0.07056 0.83302 0.0
C2896 C 0.51743 0.04015 0.86078 0.0
H2897 H 0.51777 0.05087 0.89182 0.0
C2898 C 0.50855 0.01986 0.86181 0.0
C2899 C 0.52084 0.05149 0.87175 0.0
C2900 C 0.52962 0.07326 0.87123 0.0
C2901 C 0.50306 0.01062 0.87347 0.0
C2902 C 0.50622 0.02192 0.88441 0.0
C2903 C 0.51536 0.04223 0.88342 0.0
C2904 C 0.49966 0.01281 0.89689 0.0
C2905 C 0.49412 0.98882 0.87398 0.0
C2906 C 0.47951 5e-05 0.89919 0.0
C2907 C 0.47332 0.99095 0.91077 0.0
C2908 C 0.48713 0.99445 0.92038 0.0
C2909 C 0.50728 0.00769 0.91816 0.0
C2910 C 0.51346 0.01682 0.90654 0.0
H2911 H 0.49751 0.98302 0.86545 0.0
H2912 H 0.49961 0.98453 0.88228 0.0
H2913 H 0.47779 0.98191 0.87468 0.0
H2914 H 0.46854 0.99709 0.89198 0.0
H2915 H 0.45765 0.98121 0.91221 0.0
H2916 H 0.16543 0.28499 0.52362 0.0
H2917 H 0.17277 0.29874 0.50262 0.0
H2918 H 0.11116 0.26378 0.4924 0.0
H2919 H 0.10367 0.24978 0.51338 0.0
H2920 H 0.1665 0.2793 0.47961 0.0
H2921 H 0.12443 0.31872 0.48211 0.0
H2922 H 0.13054 0.30956 0.49582 0.0
H2923 H 0.11048 0.29328 0.48577 0.0
C2924 C 0.15342 0.28011 0.5169 0.0
C2925 C 0.13393 0.26625 0.52023 0.0
C2926 C 0.15765 0.28807 0.50491 0.0
C2927 C 0.1425 0.28248 0.49598 0.0
C2928 C 0.12304 0.26862 0.49922 0.0
H2929 H 0.14566 0.3209 0.41891 0.0
H2930 H 0.13526 0.30343 0.43877 0.0
C2931 C 0.11878 0.26063 0.51123 0.0
C2932 C 0.14725 0.2909 0.48322 0.0
H2933 H 0.13893 0.31899 0.46271 0.0
C2934 C 0.16047 0.28797 0.47591 0.0
C2935 C 0.13929 0.30213 0.47837 0.0
C2936 C 0.12552 0.30629 0.48593 0.0
C2937 C 0.16593 0.29594 0.4639 0.0
C2938 C 0.15828 0.30749 0.45914 0.0
C2939 C 0.14479 0.31014 0.46636 0.0
C2940 C 0.16466 0.31755 0.44692 0.0
C2941 C 0.17969 0.29174 0.45636 0.0
C2942 C 0.18462 0.33136 0.44491 0.0
C2943 C 0.19062 0.34127 0.43357 0.0
C2944 C 0.17677 0.33771 0.42398 0.0
C2945 C 0.15676 0.32382 0.42601 0.0
C2946 C 0.15076 0.31392 0.43739 0.0
H2947 H 0.17951 0.27839 0.45964 0.0
H2948 H 0.17566 0.28995 0.44628 0.0
H2949 H 0.19505 0.30408 0.4574 0.0
H2950 H 0.19557 0.33467 0.45219 0.0
H2951 H 0.20617 0.35171 0.4323 0.0
H2952 H 0.68942 0.8679 0.52587 0.0
H2953 H 0.67649 0.86266 0.50449 0.0
H2954 H 0.71346 0.83875 0.49427 0.0
H2955 H 0.72675 0.84422 0.51559 0.0
H2956 H 0.6992 0.87809 0.48204 0.0
H2957 H 0.65699 0.79719 0.48243 0.0
H2958 H 0.66506 0.81163 0.49659 0.0
H2959 H 0.68243 0.80841 0.4874 0.0
C2960 C 0.6949 0.86163 0.51907 0.0
C2961 C 0.70912 0.85647 0.52244 0.0
C2962 C 0.68742 0.85856 0.50688 0.0
C2963 C 0.69387 0.85013 0.49787 0.0
C2964 C 0.70804 0.84495 0.50117 0.0
H2965 H 0.66292 0.8201 0.41957 0.0
H2966 H 0.67734 0.82516 0.44055 0.0
C2967 C 0.71558 0.84806 0.51335 0.0
C2968 C 0.68613 0.84728 0.48493 0.0
H2969 H 0.65843 0.81243 0.46322 0.0
C2970 C 0.69026 0.86375 0.47791 0.0
C2971 C 0.67459 0.82855 0.4796 0.0
C2972 C 0.66933 0.81038 0.48689 0.0
C2973 C 0.68325 0.86199 0.46561 0.0
C2974 C 0.67143 0.84324 0.46032 0.0
C2975 C 0.66747 0.82677 0.46732 0.0
C2976 C 0.66282 0.84039 0.4476 0.0
C2977 C 0.68887 0.88024 0.45831 0.0
C2978 C 0.64969 0.84707 0.44468 0.0
C2979 C 0.64158 0.84438 0.43267 0.0
C2980 C 0.64631 0.83478 0.4234 0.0
C2981 C 0.65924 0.82784 0.42643 0.0
C2982 C 0.66738 0.83059 0.43843 0.0
H2983 H 0.70227 0.89302 0.46229 0.0
H2984 H 0.6917 0.87848 0.44836 0.0
H2985 H 0.67653 0.88339 0.45866 0.0
H2986 H 0.64567 0.85433 0.45169 0.0
H2987 H 0.6318 0.85002 0.43063 0.0
H2988 H 0.10647 0.84227 0.51281 0.0
H2989 H 0.11509 0.83575 0.49205 0.0
H2990 H 0.1762 0.8616 0.50357 0.0
H2991 H 0.16763 0.86755 0.5244 0.0
H2992 H 0.14116 0.86235 0.47501 0.0
H2993 H 0.16548 0.81014 0.48838 0.0
H2994 H 0.15151 0.81671 0.49874 0.0
H2995 H 0.17778 0.83252 0.4971 0.0
C2996 C 0.12168 0.84627 0.51098 0.0
C2997 C 0.13635 0.85541 0.52029 0.0
C2998 C 0.12661 0.84265 0.49909 0.0
C2999 C 0.14624 0.84794 0.49631 0.0
C3000 C 0.16089 0.85706 0.50557 0.0
H3001 H 0.21365 0.85129 0.43178 0.0
H3002 H 0.20159 0.85405 0.45232 0.0
C3003 C 0.156 0.86067 0.51744 0.0
C3004 C 0.15162 0.84465 0.4836 0.0
H3005 H 0.17399 0.82339 0.46786 0.0
C3006 C 0.14815 0.85367 0.47341 0.0
C3007 C 0.16074 0.83332 0.48155 0.0
C3008 C 0.16393 0.82246 0.492 0.0
C3009 C 0.15415 0.85218 0.46129 0.0
C3010 C 0.16363 0.84117 0.45929 0.0
C3011 C 0.16681 0.8319 0.46944 0.0
C3012 C 0.17074 0.83941 0.44678 0.0
C3013 C 0.15086 0.86289 0.45078 0.0
C3014 C 0.15736 0.83008 0.4369 0.0
C3015 C 0.16419 0.82835 0.42515 0.0
C3016 C 0.18455 0.83587 0.42309 0.0
C3017 C 0.19787 0.84512 0.43307 0.0
C3018 C 0.19102 0.8468 0.4448 0.0
H3019 H 0.1474 0.87403 0.4543 0.0
H3020 H 0.16411 0.87011 0.44472 0.0
H3021 H 0.1382 0.85234 0.44493 0.0
H3022 H 0.1416 0.82393 0.4383 0.0
H3023 H 0.15348 0.82084 0.41775 0.0
H3024 H 0.61167 0.82681 0.16293 0.0
H3025 H 0.62459 0.83207 0.18436 0.0
H3026 H 0.66084 0.80718 0.17456 0.0
H3027 H 0.64833 0.80219 0.15309 0.0
H3028 H 0.63668 0.79146 0.19663 0.0
H3029 H 0.68125 0.87232 0.19719 0.0
H3030 H 0.65613 0.86177 0.19166 0.0
H3031 H 0.67367 0.85829 0.18285 0.0
C3032 C 0.62264 0.82276 0.16528 0.0
C3033 C 0.62895 0.81405 0.1563 0.0
C3034 C 0.62997 0.82574 0.17753 0.0
C3035 C 0.64375 0.82013 0.18098 0.0
C3036 C 0.65019 0.81159 0.17205 0.0
H3037 H 0.7026 0.81561 0.24841 0.0
H3038 H 0.68929 0.81255 0.22728 0.0
C3039 C 0.64294 0.80866 0.15981 0.0
C3040 C 0.65094 0.82243 0.19403 0.0
H3041 H 0.67898 0.85629 0.21618 0.0
C3042 C 0.64594 0.80562 0.20092 0.0
C3043 C 0.66287 0.84093 0.19959 0.0
C3044 C 0.66897 0.85941 0.19245 0.0
C3045 C 0.65253 0.8068 0.21328 0.0
C3046 C 0.66484 0.82531 0.21877 0.0
C3047 C 0.6696 0.84213 0.21193 0.0
C3048 C 0.67318 0.8275 0.23152 0.0
C3049 C 0.646 0.78822 0.22041 0.0
C3050 C 0.66905 0.83746 0.24081 0.0
C3051 C 0.67688 0.8395 0.25286 0.0
C3052 C 0.68907 0.83167 0.25582 0.0
C3053 C 0.69339 0.82193 0.24642 0.0
C3054 C 0.68559 0.81995 0.23438 0.0
H3055 H 0.63236 0.7759 0.21629 0.0
H3056 H 0.65786 0.78438 0.22005 0.0
H3057 H 0.64317 0.78994 0.23037 0.0
H3058 H 0.65964 0.84355 0.23876 0.0
H3059 H 0.67353 0.84736 0.25981 0.0
H3060 H 0.20714 0.83915 0.15308 0.0
H3061 H 0.19866 0.84549 0.17395 0.0
H3062 H 0.19071 0.79058 0.18665 0.0
H3063 H 0.19944 0.78427 0.1659 0.0
H3064 H 0.16197 0.82087 0.18658 0.0
H3065 H 0.22723 0.8303 0.21358 0.0
H3066 H 0.22734 0.83235 0.19677 0.0
H3067 H 0.21528 0.80881 0.20393 0.0
C3068 C 0.2039 0.82858 0.16037 0.0
C3069 C 0.20397 0.81121 0.15784 0.0
C3070 C 0.19896 0.83217 0.17226 0.0
C3071 C 0.19426 0.8186 0.18187 0.0
C3072 C 0.19456 0.80137 0.17942 0.0
H3073 H 0.15451 0.80733 0.25847 0.0
H3074 H 0.16629 0.80372 0.238 0.0
C3075 C 0.19937 0.79771 0.16753 0.0
C3076 C 0.18804 0.82195 0.19427 0.0
H3077 H 0.20033 0.8279 0.22528 0.0
C3078 C 0.17041 0.82256 0.19504 0.0
C3079 C 0.19903 0.82399 0.20527 0.0
C3080 C 0.21837 0.824 0.2049 0.0
C3081 C 0.1632 0.82472 0.20659 0.0
C3082 C 0.1742 0.82681 0.21763 0.0
C3083 C 0.19191 0.82631 0.21682 0.0
C3084 C 0.16747 0.82933 0.2301 0.0
C3085 C 0.14355 0.82413 0.20689 0.0
C3086 C 0.16455 0.84511 0.23254 0.0
C3087 C 0.15776 0.84716 0.2442 0.0
C3088 C 0.15399 0.83361 0.25373 0.0
C3089 C 0.15739 0.81808 0.25136 0.0
C3090 C 0.16406 0.81597 0.23966 0.0
H3091 H 0.13458 0.81712 0.19835 0.0
H3092 H 0.13483 0.81613 0.21519 0.0
H3093 H 0.14621 0.83921 0.20738 0.0
H3094 H 0.16758 0.85588 0.22542 0.0
H3095 H 0.15565 0.85949 0.24581 0.0
H3096 H 0.16948 0.38221 0.15326 0.0
H3097 H 0.1616 0.36825 0.17419 0.0
H3098 H 0.22326 0.40163 0.18463 0.0
H3099 H 0.23122 0.4162 0.16383 0.0
H3100 H 0.17522 0.34627 0.18615 0.0
H3101 H 0.19638 0.41396 0.21308 0.0
H3102 H 0.19311 0.41246 0.19632 0.0
H3103 H 0.21542 0.41507 0.20314 0.0
C3104 C 0.18137 0.38683 0.16005 0.0
C3105 C 0.20099 0.40047 0.15684 0.0
C3106 C 0.17684 0.37872 0.172 0.0
C3107 C 0.19178 0.38409 0.18106 0.0
C3108 C 0.21142 0.39753 0.17789 0.0
H3109 H 0.18731 0.34487 0.25809 0.0
H3110 H 0.19822 0.36125 0.2379 0.0
C3111 C 0.21597 0.40567 0.16592 0.0
C3112 C 0.18676 0.37516 0.19369 0.0
H3113 H 0.18722 0.38549 0.2248 0.0
C3114 C 0.17783 0.35485 0.1946 0.0
C3115 C 0.19026 0.38636 0.20473 0.0
C3116 C 0.19916 0.40815 0.20432 0.0
C3117 C 0.17235 0.34546 0.2062 0.0
C3118 C 0.17554 0.35662 0.21722 0.0
C3119 C 0.18476 0.37695 0.21635 0.0
C3120 C 0.16889 0.34734 0.22965 0.0
C3121 C 0.16338 0.32366 0.20658 0.0
C3122 C 0.14874 0.33447 0.23184 0.0
C3123 C 0.14245 0.32518 0.24336 0.0
C3124 C 0.15617 0.32858 0.25301 0.0
C3125 C 0.17632 0.34197 0.25092 0.0
C3126 C 0.1826 0.35128 0.23936 0.0
H3127 H 0.1669 0.318 0.19803 0.0
H3128 H 0.16872 0.3192 0.21487 0.0
H3129 H 0.14704 0.31674 0.20717 0.0
H3130 H 0.13783 0.33158 0.22461 0.0
H3131 H 0.12678 0.31533 0.24472 0.0
H3132 H 0.79753 0.62476 0.8582 0.0
H3133 H 0.80533 0.6392 0.83735 0.0
H3134 H 0.81801 0.59488 0.8249 0.0
H3135 H 0.80995 0.58015 0.84568 0.0
H3136 H 0.84239 0.65312 0.82443 0.0
H3137 H 0.77888 0.5943 0.79812 0.0
H3138 H 0.77889 0.59667 0.81492 0.0
H3139 H 0.79272 0.58673 0.80776 0.0
C3140 C 0.80173 0.61793 0.85099 0.0
C3141 C 0.80306 0.60125 0.85361 0.0
C3142 C 0.80628 0.62626 0.83909 0.0
C3143 C 0.81203 0.61799 0.82954 0.0
C3144 C 0.81334 0.60134 0.83209 0.0
H3145 H 0.84631 0.64954 0.75183 0.0
H3146 H 0.83698 0.63316 0.77209 0.0
C3147 C 0.80891 0.59306 0.84401 0.0
C3148 C 0.81734 0.62722 0.81704 0.0
H3149 H 0.80348 0.62007 0.78626 0.0
C3150 C 0.83386 0.64594 0.81608 0.0
C3151 C 0.80627 0.61774 0.80616 0.0
C3152 C 0.7881 0.5978 0.80673 0.0
C3153 C 0.83977 0.65538 0.80451 0.0
C3154 C 0.82853 0.64605 0.79363 0.0
C3155 C 0.81207 0.62724 0.79459 0.0
C3156 C 0.83353 0.65567 0.78121 0.0
C3157 C 0.85829 0.67509 0.80403 0.0
C3158 C 0.83423 0.67353 0.7795 0.0
C3159 C 0.83961 0.68292 0.76796 0.0
C3160 C 0.84416 0.67455 0.75782 0.0
C3161 C 0.84281 0.65634 0.75943 0.0
C3162 C 0.83755 0.647 0.77102 0.0
H3163 H 0.86816 0.67754 0.81218 0.0
H3164 H 0.86671 0.67677 0.79533 0.0
H3165 H 0.85411 0.68656 0.80423 0.0
H3166 H 0.83064 0.68025 0.7871 0.0
H3167 H 0.8401 0.69673 0.76696 0.0
H3168 H 0.40039 0.21389 0.84794 0.0
H3169 H 0.38612 0.20722 0.82684 0.0
H3170 H 0.33866 0.15169 0.83897 0.0
H3171 H 0.35263 0.15838 0.86016 0.0
H3172 H 0.37684 0.17379 0.81068 0.0
H3173 H 0.31106 0.18017 0.82307 0.0
H3174 H 0.33288 0.18986 0.8329 0.0
H3175 H 0.31564 0.16419 0.83259 0.0
C3176 C 0.38685 0.20031 0.84613 0.0
C3177 C 0.37755 0.18671 0.85572 0.0
C3178 C 0.3788 0.19648 0.83407 0.0
C3179 C 0.36126 0.17907 0.83143 0.0
C3180 C 0.3521 0.1653 0.8409 0.0
H3181 H 0.28741 0.13802 0.76454 0.0
H3182 H 0.30142 0.14125 0.78553 0.0
C3183 C 0.36019 0.16908 0.85295 0.0
C3184 C 0.35249 0.17544 0.81875 0.0
H3185 H 0.31292 0.17118 0.80231 0.0
C3186 C 0.36286 0.17319 0.80882 0.0
C3187 C 0.33423 0.17462 0.81643 0.0
C3188 C 0.3228 0.17746 0.82677 0.0
C3189 C 0.35537 0.17 0.79656 0.0
C3190 C 0.33726 0.16952 0.79419 0.0
C3191 C 0.3268 0.17156 0.80417 0.0
C3192 C 0.32907 0.16732 0.78139 0.0
C3193 C 0.36675 0.16688 0.78631 0.0
C3194 C 0.33989 0.18103 0.77217 0.0
C3195 C 0.33194 0.17922 0.76019 0.0
C3196 C 0.31292 0.16377 0.75726 0.0
C3197 C 0.30204 0.15016 0.76655 0.0
C3198 C 0.31004 0.15193 0.77852 0.0
H3199 H 0.37682 0.162 0.79011 0.0
H3200 H 0.35659 0.15594 0.77938 0.0
H3201 H 0.37596 0.18082 0.78138 0.0
H3202 H 0.35438 0.19332 0.77428 0.0
H3203 H 0.34053 0.19012 0.75328 0.0
H3204 H 0.83489 0.20173 0.85798 0.0
H3205 H 0.84329 0.19597 0.83703 0.0
H3206 H 0.78175 0.16819 0.82618 0.0
H3207 H 0.77328 0.17452 0.84702 0.0
H3208 H 0.83041 0.16112 0.82427 0.0
H3209 H 0.80889 0.2087 0.79883 0.0
H3210 H 0.8118 0.20959 0.8156 0.0
H3211 H 0.7898 0.19043 0.80836 0.0
C3212 C 0.82315 0.1946 0.8511 0.0
C3213 C 0.80342 0.18877 0.85416 0.0
C3214 C 0.82796 0.19119 0.83916 0.0
C3215 C 0.8132 0.18193 0.82998 0.0
C3216 C 0.79344 0.1757 0.83304 0.0
H3217 H 0.82055 0.15303 0.75202 0.0
H3218 H 0.80886 0.15612 0.77264 0.0
C3219 C 0.78859 0.17913 0.84501 0.0
C3220 C 0.81862 0.17868 0.81728 0.0
H3221 H 0.81901 0.19042 0.78655 0.0
C3222 C 0.82791 0.16752 0.81602 0.0
C3223 C 0.8153 0.18701 0.80652 0.0
C3224 C 0.80606 0.19975 0.80734 0.0
C3225 C 0.83396 0.16443 0.80431 0.0
C3226 C 0.83091 0.17299 0.79359 0.0
C3227 C 0.82133 0.18389 0.79479 0.0
C3228 C 0.83803 0.17122 0.78109 0.0
C3229 C 0.8434 0.15187 0.80349 0.0
C3230 C 0.85834 0.17897 0.77895 0.0
C3231 C 0.86509 0.17735 0.76717 0.0
C3232 C 0.85166 0.16802 0.75725 0.0
C3233 C 0.83132 0.16048 0.7594 0.0
C3234 C 0.82459 0.16214 0.77119 0.0
H3235 H 0.83994 0.14236 0.81178 0.0
H3236 H 0.83839 0.1426 0.79495 0.0
H3237 H 0.85972 0.16134 0.80303 0.0
H3238 H 0.869 0.18642 0.78639 0.0
H3239 H 0.88086 0.18366 0.7658 0.0
H3240 H 0.31927 0.17368 0.48661 0.0
H3241 H 0.33267 0.1788 0.50792 0.0
H3242 H 0.2846 0.12256 0.51847 0.0
H3243 H 0.27124 0.11729 0.4972 0.0
H3244 H 0.31609 0.17963 0.53045 0.0
H3245 H 0.33277 0.1194 0.52953 0.0
H3246 H 0.32685 0.12821 0.51558 0.0
H3247 H 0.30746 0.11177 0.52579 0.0
C3248 C 0.31152 0.16246 0.4935 0.0
C3249 C 0.29431 0.14501 0.49022 0.0
C3250 C 0.31922 0.16537 0.50564 0.0
C3251 C 0.30984 0.1509 0.5147 0.0
C3252 C 0.29237 0.13369 0.51154 0.0
H3253 H 0.3294 0.1406 0.59331 0.0
H3254 H 0.31603 0.13667 0.57207 0.0
C3255 C 0.28474 0.13072 0.49939 0.0
C3256 C 0.3182 0.15387 0.52751 0.0
H3257 H 0.33534 0.13441 0.54927 0.0
C3258 C 0.32042 0.16983 0.53454 0.0
C3259 C 0.32386 0.14106 0.53282 0.0
C3260 C 0.32281 0.12426 0.52551 0.0
C3261 C 0.32777 0.17308 0.54684 0.0
C3262 C 0.33319 0.16013 0.55217 0.0
C3263 C 0.33106 0.14424 0.54514 0.0
C3264 C 0.34116 0.16284 0.56504 0.0
C3265 C 0.32934 0.19009 0.55415 0.0
C3266 C 0.35977 0.17877 0.56804 0.0
C3267 C 0.36745 0.18105 0.58014 0.0
C3268 C 0.35662 0.16742 0.58945 0.0
C3269 C 0.33798 0.15146 0.58638 0.0
C3270 C 0.33037 0.14914 0.57426 0.0
H3271 H 0.32087 0.19629 0.54966 0.0
H3272 H 0.32385 0.18569 0.56382 0.0
H3273 H 0.34511 0.20169 0.55476 0.0
H3274 H 0.36842 0.18936 0.56098 0.0
H3275 H 0.38179 0.19356 0.58225 0.0
H3276 H 0.8635 0.11651 0.49962 0.0
H3277 H 0.8546 0.12287 0.52033 0.0
H3278 H 0.86559 0.17904 0.50803 0.0
H3279 H 0.87422 0.17267 0.48722 0.0
H3280 H 0.87794 0.15542 0.53737 0.0
H3281 H 0.80777 0.15112 0.52163 0.0
H3282 H 0.82033 0.14147 0.51246 0.0
H3283 H 0.82959 0.1672 0.51298 0.0
C3284 C 0.86395 0.13019 0.50131 0.0
C3285 C 0.86944 0.14403 0.49175 0.0
C3286 C 0.85898 0.13384 0.51316 0.0
C3287 C 0.85922 0.15131 0.51564 0.0
C3288 C 0.86509 0.16536 0.50623 0.0
H3289 H 0.82243 0.19246 0.58009 0.0
H3290 H 0.83459 0.18892 0.55975 0.0
C3291 C 0.87018 0.16177 0.49439 0.0
C3292 C 0.85307 0.1547 0.52806 0.0
H3293 H 0.81699 0.15956 0.54274 0.0
C3294 C 0.86463 0.15634 0.53857 0.0
C3295 C 0.83573 0.15593 0.52956 0.0
C3296 C 0.8225 0.15371 0.5186 0.0
C3297 C 0.8594 0.15939 0.55058 0.0
C3298 C 0.84187 0.16034 0.55212 0.0
C3299 C 0.83041 0.15883 0.54156 0.0
C3300 C 0.83499 0.16267 0.56459 0.0
C3301 C 0.8729 0.16194 0.56144 0.0
C3302 C 0.83096 0.14898 0.57404 0.0
C3303 C 0.82404 0.15099 0.58567 0.0
C3304 C 0.82076 0.16659 0.58804 0.0
C3305 C 0.82464 0.18018 0.57852 0.0
C3306 C 0.83167 0.17823 0.56692 0.0
H3307 H 0.88818 0.16658 0.55828 0.0
H3308 H 0.87356 0.17285 0.56825 0.0
H3309 H 0.86719 0.14785 0.56632 0.0
H3310 H 0.83287 0.13656 0.57236 0.0
H3311 H 0.82087 0.1401 0.59274 0.0
H3312 H 0.89733 0.74909 0.49776 0.0
H3313 H 0.88942 0.73403 0.51844 0.0
H3314 H 0.82784 0.70041 0.50784 0.0
H3315 H 0.83567 0.71487 0.48707 0.0
H3316 H 0.86379 0.73426 0.53661 0.0
H3317 H 0.8396 0.65895 0.52088 0.0
H3318 H 0.85319 0.67976 0.51094 0.0
H3319 H 0.82699 0.66965 0.51307 0.0
C3320 C 0.88213 0.73831 0.49977 0.0
C3321 C 0.86716 0.73315 0.49069 0.0
C3322 C 0.87762 0.72982 0.51163 0.0
C3323 C 0.85808 0.71588 0.51464 0.0
C3324 C 0.84308 0.71086 0.50567 0.0
H3325 H 0.79539 0.64726 0.57876 0.0
H3326 H 0.8058 0.6639 0.55872 0.0
C3327 C 0.84756 0.71934 0.49383 0.0
C3328 C 0.85328 0.70676 0.52721 0.0
H3329 H 0.83259 0.66288 0.54196 0.0
C3330 C 0.85711 0.71867 0.53781 0.0
C3331 C 0.84459 0.68642 0.52876 0.0
C3332 C 0.84101 0.67295 0.51783 0.0
C3333 C 0.85193 0.71073 0.54986 0.0
C3334 C 0.84296 0.69035 0.55137 0.0
C3335 C 0.83938 0.67849 0.54079 0.0
C3336 C 0.83678 0.68091 0.5638 0.0
C3337 C 0.85556 0.72414 0.56082 0.0
C3338 C 0.85074 0.6849 0.57335 0.0
C3339 C 0.84484 0.67532 0.58484 0.0
C3340 C 0.82486 0.66144 0.58697 0.0
C3341 C 0.81093 0.65764 0.5774 0.0
C3342 C 0.81684 0.66721 0.56594 0.0
H3343 H 0.85806 0.73857 0.55779 0.0
H3344 H 0.84287 0.71769 0.56736 0.0
H3345 H 0.86894 0.72647 0.56599 0.0
H3346 H 0.86628 0.69512 0.57183 0.0
H3347 H 0.85601 0.6784 0.59192 0.0
loop_
_geom_bond_atom_site_label_1
_geom_bond_atom_site_label_2
_geom_bond_distance
_geom_bond_site_symmetry_2
_ccdc_geom_bond_type
C0 C1 1.384 . S
C0 H13 0.947 . S
C0 C35 1.382 . S
C1 C0 1.384 . S
C1 C2 1.378 . S
C2 C1 1.378 . S
C2 C3 1.378 . S
C2 H14 0.952 . S
C3 C2 1.378 . S
C3 H15 0.950 . S
C3 C34 1.383 . S
H4 C23 0.947 . S
H5 C24 0.946 . S
H6 C26 0.953 . S
H7 C27 0.945 . S
H8 C29 0.952 . S
H9 C30 0.949 . S
H10 C32 0.950 . S
H11 C33 0.948 . S
H12 C35 0.951 . S
H13 C0 0.947 . S
H14 C2 0.952 . S
H15 C3 0.950 . S
N16 C19 1.382 . S
N16 C21 1.363 . S
N17 C19 1.371 . S
N17 C20 1.372 . S
N18 C20 1.361 . S
N18 C21 1.377 . S
C19 N16 1.382 . S
C19 N17 1.371 . S
C19 C22 1.480 . S
C20 N17 1.372 . S
C20 N18 1.361 . S
C20 C28 1.457 . S
C21 N16 1.363 . S
C21 N18 1.377 . S
C21 C34 1.479 . S
C22 C19 1.480 . S
C22 C23 1.383 . S
C22 C27 1.385 . S
C23 H4 0.947 . S
C23 C22 1.383 . S
C23 C24 1.388 . S
C24 H5 0.946 . S
C24 C23 1.388 . S
C24 C25 1.384 . S
C25 C24 1.384 . S
C25 C26 1.377 . S
C26 H6 0.953 . S
C26 C25 1.377 . S
C26 C27 1.369 . S
C27 H7 0.945 . S
C27 C22 1.385 . S
C27 C26 1.369 . S
C28 C20 1.457 . S
C28 C29 1.372 . S
C28 C33 1.364 . S
C29 H8 0.952 . S
C29 C28 1.372 . S
C29 C30 1.389 . S
C30 H9 0.949 . S
C30 C29 1.389 . S
C30 C31 1.387 . S
C31 C30 1.387 . S
C31 C32 1.372 . S
C32 H10 0.950 . S
C32 C31 1.372 . S
C32 C33 1.379 . S
C33 H11 0.948 . S
C33 C28 1.364 . S
C33 C32 1.379 . S
C34 C3 1.383 . S
C34 C21 1.479 . S
C34 C35 1.398 . S
C35 C0 1.382 . S
C35 H12 0.951 . S
C35 C34 1.398 . S
C36 C37 1.384 . S
C36 H49 0.947 . S
C36 C71 1.382 . S
C37 C36 1.384 . S
C37 C38 1.378 . S
C38 C37 1.378 . S
C38 C39 1.378 . S
C38 H50 0.952 . S
C39 C38 1.378 . S
C39 H51 0.950 . S
C39 C70 1.383 . S
H40 C59 0.947 . S
H41 C60 0.946 . S
H42 C62 0.953 . S
H43 C63 0.945 . S
H44 C65 0.952 . S
H45 C66 0.949 . S
H46 C68 0.950 . S
H47 C69 0.948 . S
H48 C71 0.951 . S
H49 C36 0.947 . S
H50 C38 0.952 . S
H51 C39 0.950 . S
N52 C55 1.382 . S
N52 C57 1.363 . S
N53 C55 1.371 . S
N53 C56 1.372 . S
N54 C56 1.361 . S
N54 C57 1.377 . S
C55 N52 1.382 . S
C55 N53 1.371 . S
C55 C58 1.480 . S
C56 N53 1.372 . S
C56 N54 1.361 . S
C56 C64 1.457 . S
C57 N52 1.363 . S
C57 N54 1.377 . S
C57 C70 1.479 . S
C58 C55 1.480 . S
C58 C59 1.383 . S
C58 C63 1.385 . S
C59 H40 0.947 . S
C59 C58 1.383 . S
C59 C60 1.388 . S
C60 H41 0.946 . S
C60 C59 1.388 . S
C60 C61 1.384 . S
C61 C60 1.384 . S
C61 C62 1.377 . S
C62 H42 0.953 . S
C62 C61 1.377 . S
C62 C63 1.369 . S
C63 H43 0.945 . S
C63 C58 1.385 . S
C63 C62 1.369 . S
C64 C56 1.457 . S
C64 C65 1.372 . S
C64 C69 1.364 . S
C65 H44 0.952 . S
C65 C64 1.372 . S
C65 C66 1.389 . S
C66 H45 0.949 . S
C66 C65 1.389 . S
C66 C67 1.387 . S
C67 C66 1.387 . S
C67 C68 1.372 . S
C68 H46 0.950 . S
C68 C67 1.372 . S
C68 C69 1.379 . S
C69 H47 0.948 . S
C69 C64 1.364 . S
C69 C68 1.379 . S
C70 C39 1.383 . S
C70 C57 1.479 . S
C70 C71 1.398 . S
C71 C36 1.382 . S
C71 H48 0.951 . S
C71 C70 1.398 . S
C72 C73 1.384 . S
C72 H85 0.947 . S
C72 C107 1.382 . S
C73 C72 1.384 . S
C73 C74 1.378 . S
C74 C73 1.378 . S
C74 C75 1.378 . S
C74 H86 0.952 . S
C75 C74 1.378 . S
C75 H87 0.950 . S
C75 C106 1.383 . S
H76 C95 0.947 . S
H77 C96 0.946 . S
H78 C98 0.953 . S
H79 C99 0.945 . S
H80 C101 0.952 . S
H81 C102 0.949 . S
H82 C104 0.950 . S
H83 C105 0.948 . S
H84 C107 0.951 . S
H85 C72 0.947 . S
H86 C74 0.952 . S
H87 C75 0.950 . S
N88 C91 1.382 . S
N88 C93 1.363 . S
N89 C91 1.371 . S
N89 C92 1.372 . S
N90 C92 1.361 . S
N90 C93 1.377 . S
C91 N88 1.382 . S
C91 N89 1.371 . S
C91 C94 1.480 . S
C92 N89 1.372 . S
C92 N90 1.361 . S
C92 C100 1.457 . S
C93 N88 1.363 . S
C93 N90 1.377 . S
C93 C106 1.479 . S
C94 C91 1.480 . S
C94 C95 1.383 . S
C94 C99 1.385 . S
C95 H76 0.947 . S
C95 C94 1.383 . S
C95 C96 1.388 . S
C96 H77 0.946 . S
C96 C95 1.388 . S
C96 C97 1.384 . S
C97 C96 1.384 . S
C97 C98 1.377 . S
C98 H78 0.953 . S
C98 C97 1.377 . S
C98 C99 1.369 . S
C99 H79 0.945 . S
C99 C94 1.385 . S
C99 C98 1.369 . S
C100 C92 1.457 . S
C100 C101 1.372 . S
C100 C105 1.364 . S
C101 H80 0.952 . S
C101 C100 1.372 . S
C101 C102 1.389 . S
C102 H81 0.949 . S
C102 C101 1.389 . S
C102 C103 1.387 . S
C103 C102 1.387 . S
C103 C104 1.372 . S
C104 H82 0.950 . S
C104 C103 1.372 . S
C104 C105 1.379 . S
C105 H83 0.948 . S
C105 C100 1.364 . S
C105 C104 1.379 . S
C106 C75 1.383 . S
C106 C93 1.479 . S
C106 C107 1.398 . S
C107 C72 1.382 . S
C107 H84 0.951 . S
C107 C106 1.398 . S
C108 C109 1.384 . S
C108 H121 0.947 . S
C108 C143 1.382 . S
C109 C108 1.384 . S
C109 C110 1.378 . S
C110 C109 1.378 . S
C110 C111 1.378 . S
C110 H122 0.952 . S
C111 C110 1.378 . S
C111 H123 0.950 . S
C111 C142 1.383 . S
H112 C131 0.947 . S
H113 C132 0.946 . S
H114 C134 0.953 . S
H115 C135 0.945 . S
H116 C137 0.952 . S
H117 C138 0.949 . S
H118 C140 0.950 . S
H119 C141 0.948 . S
H120 C143 0.951 . S
H121 C108 0.947 . S
H122 C110 0.952 . S
H123 C111 0.950 . S
N124 C127 1.382 . S
N124 C129 1.363 . S
N125 C127 1.371 . S
N125 C128 1.372 . S
N126 C128 1.361 . S
N126 C129 1.377 . S
C127 N124 1.382 . S
C127 N125 1.371 . S
C127 C130 1.480 . S
C128 N125 1.372 . S
C128 N126 1.361 . S
C128 C136 1.457 . S
C129 N124 1.363 . S
C129 N126 1.377 . S
C129 C142 1.479 . S
C130 C127 1.480 . S
C130 C131 1.383 . S
C130 C135 1.385 . S
C131 H112 0.947 . S
C131 C130 1.383 . S
C131 C132 1.388 . S
C132 H113 0.946 . S
C132 C131 1.388 . S
C132 C133 1.384 . S
C133 C132 1.384 . S
C133 C134 1.377 . S
C134 H114 0.953 . S
C134 C133 1.377 . S
C134 C135 1.369 . S
C135 H115 0.945 . S
C135 C130 1.385 . S
C135 C134 1.369 . S
C136 C128 1.457 . S
C136 C137 1.372 . S
C136 C141 1.364 . S
C137 H116 0.952 . S
C137 C136 1.372 . S
C137 C138 1.389 . S
C138 H117 0.949 . S
C138 C137 1.389 . S
C138 C139 1.387 . S
C139 C138 1.387 . S
C139 C140 1.372 . S
C140 H118 0.950 . S
C140 C139 1.372 . S
C140 C141 1.379 . S
C141 H119 0.948 . S
C141 C136 1.364 . S
C141 C140 1.379 . S
C142 C111 1.383 . S
C142 C129 1.479 . S
C142 C143 1.398 . S
C143 C108 1.382 . S
C143 H120 0.951 . S
C143 C142 1.398 . S
C144 C145 1.384 . S
C144 H157 0.947 . S
C144 C179 1.382 . S
C145 C144 1.384 . S
C145 C146 1.378 . S
C146 C145 1.378 . S
C146 C147 1.378 . S
C146 H158 0.952 . S
C147 C146 1.378 . S
C147 H159 0.950 . S
C147 C178 1.383 . S
H148 C167 0.947 . S
H149 C168 0.946 . S
H150 C170 0.953 . S
H151 C171 0.945 . S
H152 C173 0.952 . S
H153 C174 0.949 . S
H154 C176 0.950 . S
H155 C177 0.948 . S
H156 C179 0.951 . S
H157 C144 0.947 . S
H158 C146 0.952 . S
H159 C147 0.950 . S
N160 C163 1.382 . S
N160 C165 1.363 . S
N161 C163 1.371 . S
N161 C164 1.372 . S
N162 C164 1.361 . S
N162 C165 1.377 . S
C163 N160 1.382 . S
C163 N161 1.371 . S
C163 C166 1.480 . S
C164 N161 1.372 . S
C164 N162 1.361 . S
C164 C172 1.457 . S
C165 N160 1.363 . S
C165 N162 1.377 . S
C165 C178 1.479 . S
C166 C163 1.480 . S
C166 C167 1.383 . S
C166 C171 1.385 . S
C167 H148 0.947 . S
C167 C166 1.383 . S
C167 C168 1.388 . S
C168 H149 0.946 . S
C168 C167 1.388 . S
C168 C169 1.384 . S
C169 C168 1.384 . S
C169 C170 1.377 . S
C170 H150 0.953 . S
C170 C169 1.377 . S
C170 C171 1.369 . S
C171 H151 0.945 . S
C171 C166 1.385 . S
C171 C170 1.369 . S
C172 C164 1.457 . S
C172 C173 1.372 . S
C172 C177 1.364 . S
C173 H152 0.952 . S
C173 C172 1.372 . S
C173 C174 1.389 . S
C174 H153 0.949 . S
C174 C173 1.389 . S
C174 C175 1.387 . S
C175 C174 1.387 . S
C175 C176 1.372 . S
C176 H154 0.950 . S
C176 C175 1.372 . S
C176 C177 1.379 . S
C177 H155 0.948 . S
C177 C172 1.364 . S
C177 C176 1.379 . S
C178 C147 1.383 . S
C178 C165 1.479 . S
C178 C179 1.398 . S
C179 C144 1.382 . S
C179 H156 0.951 . S
C179 C178 1.398 . S
C180 C181 1.384 . S
C180 H193 0.947 . S
C180 C215 1.382 . S
C181 C180 1.384 . S
C181 C182 1.378 . S
C182 C181 1.378 . S
C182 C183 1.378 . S
C182 H194 0.952 . S
C183 C182 1.378 . S
C183 H195 0.950 . S
C183 C214 1.383 . S
H184 C203 0.947 . S
H185 C204 0.946 . S
H186 C206 0.953 . S
H187 C207 0.945 . S
H188 C209 0.952 . S
H189 C210 0.949 . S
H190 C212 0.950 . S
H191 C213 0.948 . S
H192 C215 0.951 . S
H193 C180 0.947 . S
H194 C182 0.952 . S
H195 C183 0.950 . S
N196 C199 1.382 . S
N196 C201 1.363 . S
N197 C199 1.371 . S
N197 C200 1.372 . S
N198 C200 1.361 . S
N198 C201 1.377 . S
C199 N196 1.382 . S
C199 N197 1.371 . S
C199 C202 1.480 . S
C200 N197 1.372 . S
C200 N198 1.361 . S
C200 C208 1.457 . S
C201 N196 1.363 . S
C201 N198 1.377 . S
C201 C214 1.479 . S
C202 C199 1.480 . S
C202 C203 1.383 . S
C202 C207 1.385 . S
C203 H184 0.947 . S
C203 C202 1.383 . S
C203 C204 1.388 . S
C204 H185 0.946 . S
C204 C203 1.388 . S
C204 C205 1.384 . S
C205 C204 1.384 . S
C205 C206 1.377 . S
C206 H186 0.953 . S
C206 C205 1.377 . S
C206 C207 1.369 . S
C207 H187 0.945 . S
C207 C202 1.385 . S
C207 C206 1.369 . S
C208 C200 1.457 . S
C208 C209 1.372 . S
C208 C213 1.364 . S
C209 H188 0.952 . S
C209 C208 1.372 . S
C209 C210 1.389 . S
C210 H189 0.949 . S
C210 C209 1.389 . S
C210 C211 1.387 . S
C211 C210 1.387 . S
C211 C212 1.372 . S
C212 H190 0.950 . S
C212 C211 1.372 . S
C212 C213 1.379 . S
C213 H191 0.948 . S
C213 C208 1.364 . S
C213 C212 1.379 . S
C214 C183 1.383 . S
C214 C201 1.479 . S
C214 C215 1.398 . S
C215 C180 1.382 . S
C215 H192 0.951 . S
C215 C214 1.398 . S
C216 C217 1.384 . S
C216 H229 0.947 . S
C216 C251 1.382 . S
C217 C216 1.384 . S
C217 C218 1.378 . S
C218 C217 1.378 . S
C218 C219 1.378 . S
C218 H230 0.952 . S
C219 C218 1.378 . S
C219 H231 0.950 . S
C219 C250 1.383 . S
H220 C239 0.947 . S
H221 C240 0.946 . S
H222 C242 0.953 . S
H223 C243 0.945 . S
H224 C245 0.952 . S
H225 C246 0.949 . S
H226 C248 0.950 . S
H227 C249 0.948 . S
H228 C251 0.951 . S
H229 C216 0.947 . S
H230 C218 0.952 . S
H231 C219 0.950 . S
N232 C235 1.382 . S
N232 C237 1.363 . S
N233 C235 1.371 . S
N233 C236 1.372 . S
N234 C236 1.361 . S
N234 C237 1.377 . S
C235 N232 1.382 . S
C235 N233 1.371 . S
C235 C238 1.480 . S
C236 N233 1.372 . S
C236 N234 1.361 . S
C236 C244 1.457 . S
C237 N232 1.363 . S
C237 N234 1.377 . S
C237 C250 1.479 . S
C238 C235 1.480 . S
C238 C239 1.383 . S
C238 C243 1.385 . S
C239 H220 0.947 . S
C239 C238 1.383 . S
C239 C240 1.388 . S
C240 H221 0.946 . S
C240 C239 1.388 . S
C240 C241 1.384 . S
C241 C240 1.384 . S
C241 C242 1.377 . S
C242 H222 0.953 . S
C242 C241 1.377 . S
C242 C243 1.369 . S
C243 H223 0.945 . S
C243 C238 1.385 . S
C243 C242 1.369 . S
C244 C236 1.457 . S
C244 C245 1.372 . S
C244 C249 1.364 . S
C245 H224 0.952 . S
C245 C244 1.372 . S
C245 C246 1.389 . S
C246 H225 0.949 . S
C246 C245 1.389 . S
C246 C247 1.387 . S
C247 C246 1.387 . S
C247 C248 1.372 . S
C248 H226 0.950 . S
C248 C247 1.372 . S
C248 C249 1.379 . S
C249 H227 0.948 . S
C249 C244 1.364 . S
C249 C248 1.379 . S
C250 C219 1.383 . S
C250 C237 1.479 . S
C250 C251 1.398 . S
C251 C216 1.382 . S
C251 H228 0.951 . S
C251 C250 1.398 . S
C252 C253 1.384 . S
C252 H265 0.947 . S
C252 C287 1.382 . S
C253 C252 1.384 . S
C253 C254 1.378 . S
C254 C253 1.378 . S
C254 C255 1.378 . S
C254 H266 0.952 . S
C255 C254 1.378 . S
C255 H267 0.950 . S
C255 C286 1.383 . S
H256 C275 0.947 . S
H257 C276 0.946 . S
H258 C278 0.953 . S
H259 C279 0.945 . S
H260 C281 0.952 . S
H261 C282 0.949 . S
H262 C284 0.950 . S
H263 C285 0.948 . S
H264 C287 0.951 . S
H265 C252 0.947 . S
H266 C254 0.952 . S
H267 C255 0.950 . S
N268 C271 1.382 . S
N268 C273 1.363 . S
N269 C271 1.371 . S
N269 C272 1.372 . S
N270 C272 1.361 . S
N270 C273 1.377 . S
C271 N268 1.382 . S
C271 N269 1.371 . S
C271 C274 1.480 . S
C272 N269 1.372 . S
C272 N270 1.361 . S
C272 C280 1.457 . S
C273 N268 1.363 . S
C273 N270 1.377 . S
C273 C286 1.479 . S
C274 C271 1.480 . S
C274 C275 1.383 . S
C274 C279 1.385 . S
C275 H256 0.947 . S
C275 C274 1.383 . S
C275 C276 1.388 . S
C276 H257 0.946 . S
C276 C275 1.388 . S
C276 C277 1.384 . S
C277 C276 1.384 . S
C277 C278 1.377 . S
C278 H258 0.953 . S
C278 C277 1.377 . S
C278 C279 1.369 . S
C279 H259 0.945 . S
C279 C274 1.385 . S
C279 C278 1.369 . S
C280 C272 1.457 . S
C280 C281 1.372 . S
C280 C285 1.364 . S
C281 H260 0.952 . S
C281 C280 1.372 . S
C281 C282 1.389 . S
C282 H261 0.949 . S
C282 C281 1.389 . S
C282 C283 1.387 . S
C283 C282 1.387 . S
C283 C284 1.372 . S
C284 H262 0.950 . S
C284 C283 1.372 . S
C284 C285 1.379 . S
C285 H263 0.948 . S
C285 C280 1.364 . S
C285 C284 1.379 . S
C286 C255 1.383 . S
C286 C273 1.479 . S
C286 C287 1.398 . S
C287 C252 1.382 . S
C287 H264 0.951 . S
C287 C286 1.398 . S
C288 C289 1.384 . S
C288 H301 0.947 . S
C288 C323 1.382 . S
C289 C288 1.384 . S
C289 C290 1.378 . S
C290 C289 1.378 . S
C290 C291 1.378 . S
C290 H302 0.952 . S
C291 C290 1.378 . S
C291 H303 0.950 . S
C291 C322 1.383 . S
H292 C311 0.947 . S
H293 C312 0.946 . S
H294 C314 0.953 . S
H295 C315 0.945 . S
H296 C317 0.952 . S
H297 C318 0.949 . S
H298 C320 0.950 . S
H299 C321 0.948 . S
H300 C323 0.951 . S
H301 C288 0.947 . S
H302 C290 0.952 . S
H303 C291 0.950 . S
N304 C307 1.382 . S
N304 C309 1.363 . S
N305 C307 1.371 . S
N305 C308 1.372 . S
N306 C308 1.361 . S
N306 C309 1.377 . S
C307 N304 1.382 . S
C307 N305 1.371 . S
C307 C310 1.480 . S
C308 N305 1.372 . S
C308 N306 1.361 . S
C308 C316 1.457 . S
C309 N304 1.363 . S
C309 N306 1.377 . S
C309 C322 1.479 . S
C310 C307 1.480 . S
C310 C311 1.383 . S
C310 C315 1.385 . S
C311 H292 0.947 . S
C311 C310 1.383 . S
C311 C312 1.388 . S
C312 H293 0.946 . S
C312 C311 1.388 . S
C312 C313 1.384 . S
C313 C312 1.384 . S
C313 C314 1.377 . S
C314 H294 0.953 . S
C314 C313 1.377 . S
C314 C315 1.369 . S
C315 H295 0.945 . S
C315 C310 1.385 . S
C315 C314 1.369 . S
C316 C308 1.457 . S
C316 C317 1.372 . S
C316 C321 1.364 . S
C317 H296 0.952 . S
C317 C316 1.372 . S
C317 C318 1.389 . S
C318 H297 0.949 . S
C318 C317 1.389 . S
C318 C319 1.387 . S
C319 C318 1.387 . S
C319 C320 1.372 . S
C320 H298 0.950 . S
C320 C319 1.372 . S
C320 C321 1.379 . S
C321 H299 0.948 . S
C321 C316 1.364 . S
C321 C320 1.379 . S
C322 C291 1.383 . S
C322 C309 1.479 . S
C322 C323 1.398 . S
C323 C288 1.382 . S
C323 H300 0.951 . S
C323 C322 1.398 . S
C324 C325 1.384 . S
C324 H337 0.947 . S
C324 C359 1.382 . S
C325 C324 1.384 . S
C325 C326 1.378 . S
C326 C325 1.378 . S
C326 C327 1.378 . S
C326 H338 0.952 . S
C327 C326 1.378 . S
C327 H339 0.950 . S
C327 C358 1.383 . S
H328 C347 0.947 . S
H329 C348 0.946 . S
H330 C350 0.953 . S
H331 C351 0.945 . S
H332 C353 0.952 . S
H333 C354 0.949 . S
H334 C356 0.950 . S
H335 C357 0.948 . S
H336 C359 0.951 . S
H337 C324 0.947 . S
H338 C326 0.952 . S
H339 C327 0.950 . S
N340 C343 1.382 . S
N340 C345 1.363 . S
N341 C343 1.371 . S
N341 C344 1.372 . S
N342 C344 1.361 . S
N342 C345 1.377 . S
C343 N340 1.382 . S
C343 N341 1.371 . S
C343 C346 1.480 . S
C344 N341 1.372 . S
C344 N342 1.361 . S
C344 C352 1.457 . S
C345 N340 1.363 . S
C345 N342 1.377 . S
C345 C358 1.479 . S
C346 C343 1.480 . S
C346 C347 1.383 . S
C346 C351 1.385 . S
C347 H328 0.947 . S
C347 C346 1.383 . S
C347 C348 1.388 . S
C348 H329 0.946 . S
C348 C347 1.388 . S
C348 C349 1.384 . S
C349 C348 1.384 . S
C349 C350 1.377 . S
C350 H330 0.953 . S
C350 C349 1.377 . S
C350 C351 1.369 . S
C351 H331 0.945 . S
C351 C346 1.385 . S
C351 C350 1.369 . S
C352 C344 1.457 . S
C352 C353 1.372 . S
C352 C357 1.364 . S
C353 H332 0.952 . S
C353 C352 1.372 . S
C353 C354 1.389 . S
C354 H333 0.949 . S
C354 C353 1.389 . S
C354 C355 1.387 . S
C355 C354 1.387 . S
C355 C356 1.372 . S
C356 H334 0.950 . S
C356 C355 1.372 . S
C356 C357 1.379 . S
C357 H335 0.948 . S
C357 C352 1.364 . S
C357 C356 1.379 . S
C358 C327 1.383 . S
C358 C345 1.479 . S
C358 C359 1.398 . S
C359 C324 1.382 . S
C359 H336 0.951 . S
C359 C358 1.398 . S
C360 C361 1.384 . S
C360 H373 0.947 . S
C360 C395 1.382 . S
C361 C360 1.384 . S
C361 C362 1.378 . S
C362 C361 1.378 . S
C362 C363 1.378 . S
C362 H374 0.952 . S
C363 C362 1.378 . S
C363 H375 0.950 . S
C363 C394 1.383 . S
H364 C383 0.947 . S
H365 C384 0.946 . S
H366 C386 0.953 . S
H367 C387 0.945 . S
H368 C389 0.952 . S
H369 C390 0.949 . S
H370 C392 0.950 . S
H371 C393 0.948 . S
H372 C395 0.951 . S
H373 C360 0.947 . S
H374 C362 0.952 . S
H375 C363 0.950 . S
N376 C379 1.382 . S
N376 C381 1.363 . S
N377 C379 1.371 . S
N377 C380 1.372 . S
N378 C380 1.361 . S
N378 C381 1.377 . S
C379 N376 1.382 . S
C379 N377 1.371 . S
C379 C382 1.480 . S
C380 N377 1.372 . S
C380 N378 1.361 . S
C380 C388 1.457 . S
C381 N376 1.363 . S
C381 N378 1.377 . S
C381 C394 1.479 . S
C382 C379 1.480 . S
C382 C383 1.383 . S
C382 C387 1.385 . S
C383 H364 0.947 . S
C383 C382 1.383 . S
C383 C384 1.388 . S
C384 H365 0.946 . S
C384 C383 1.388 . S
C384 C385 1.384 . S
C385 C384 1.384 . S
C385 C386 1.377 . S
C386 H366 0.953 . S
C386 C385 1.377 . S
C386 C387 1.369 . S
C387 H367 0.945 . S
C387 C382 1.385 . S
C387 C386 1.369 . S
C388 C380 1.457 . S
C388 C389 1.372 . S
C388 C393 1.364 . S
C389 H368 0.952 . S
C389 C388 1.372 . S
C389 C390 1.389 . S
C390 H369 0.949 . S
C390 C389 1.389 . S
C390 C391 1.387 . S
C391 C390 1.387 . S
C391 C392 1.372 . S
C392 H370 0.950 . S
C392 C391 1.372 . S
C392 C393 1.379 . S
C393 H371 0.948 . S
C393 C388 1.364 . S
C393 C392 1.379 . S
C394 C363 1.383 . S
C394 C381 1.479 . S
C394 C395 1.398 . S
C395 C360 1.382 . S
C395 H372 0.951 . S
C395 C394 1.398 . S
C396 C397 1.384 . S
C396 H409 0.947 . S
C396 C431 1.382 . S
C397 C396 1.384 . S
C397 C398 1.378 . S
C398 C397 1.378 . S
C398 C399 1.378 . S
C398 H410 0.952 . S
C399 C398 1.378 . S
C399 H411 0.950 . S
C399 C430 1.383 . S
H400 C419 0.947 . S
H401 C420 0.946 . S
H402 C422 0.953 . S
H403 C423 0.945 . S
H404 C425 0.952 . S
H405 C426 0.949 . S
H406 C428 0.950 . S
H407 C429 0.948 . S
H408 C431 0.951 . S
H409 C396 0.947 . S
H410 C398 0.952 . S
H411 C399 0.950 . S
N412 C415 1.382 . S
N412 C417 1.363 . S
N413 C415 1.371 . S
N413 C416 1.372 . S
N414 C416 1.361 . S
N414 C417 1.377 . S
C415 N412 1.382 . S
C415 N413 1.371 . S
C415 C418 1.480 . S
C416 N413 1.372 . S
C416 N414 1.361 . S
C416 C424 1.457 . S
C417 N412 1.363 . S
C417 N414 1.377 . S
C417 C430 1.479 . S
C418 C415 1.480 . S
C418 C419 1.383 . S
C418 C423 1.385 . S
C419 H400 0.947 . S
C419 C418 1.383 . S
C419 C420 1.388 . S
C420 H401 0.946 . S
C420 C419 1.388 . S
C420 C421 1.384 . S
C421 C420 1.384 . S
C421 C422 1.377 . S
C422 H402 0.953 . S
C422 C421 1.377 . S
C422 C423 1.369 . S
C423 H403 0.945 . S
C423 C418 1.385 . S
C423 C422 1.369 . S
C424 C416 1.457 . S
C424 C425 1.372 . S
C424 C429 1.364 . S
C425 H404 0.952 . S
C425 C424 1.372 . S
C425 C426 1.389 . S
C426 H405 0.949 . S
C426 C425 1.389 . S
C426 C427 1.387 . S
C427 C426 1.387 . S
C427 C428 1.372 . S
C428 H406 0.950 . S
C428 C427 1.372 . S
C428 C429 1.379 . S
C429 H407 0.948 . S
C429 C424 1.364 . S
C429 C428 1.379 . S
C430 C399 1.383 . S
C430 C417 1.479 . S
C430 C431 1.398 . S
C431 C396 1.382 . S
C431 H408 0.951 . S
C431 C430 1.398 . S
C432 C433 1.384 . S
C432 H445 0.947 . S
C432 C467 1.382 . S
C433 C432 1.384 . S
C433 C434 1.378 . S
C434 C433 1.378 . S
C434 C435 1.378 . S
C434 H446 0.952 . S
C435 C434 1.378 . S
C435 H447 0.950 . S
C435 C466 1.383 . S
H436 C455 0.947 . S
H437 C456 0.946 . S
H438 C458 0.953 . S
H439 C459 0.945 . S
H440 C461 0.952 . S
H441 C462 0.949 . S
H442 C464 0.950 . S
H443 C465 0.948 . S
H444 C467 0.951 . S
H445 C432 0.947 . S
H446 C434 0.952 . S
H447 C435 0.950 . S
N448 C451 1.382 . S
N448 C453 1.363 . S
N449 C451 1.371 . S
N449 C452 1.372 . S
N450 C452 1.361 . S
N450 C453 1.377 . S
C451 N448 1.382 . S
C451 N449 1.371 . S
C451 C454 1.480 . S
C452 N449 1.372 . S
C452 N450 1.361 . S
C452 C460 1.457 . S
C453 N448 1.363 . S
C453 N450 1.377 . S
C453 C466 1.479 . S
C454 C451 1.480 . S
C454 C455 1.383 . S
C454 C459 1.385 . S
C455 H436 0.947 . S
C455 C454 1.383 . S
C455 C456 1.388 . S
C456 H437 0.946 . S
C456 C455 1.388 . S
C456 C457 1.384 . S
C457 C456 1.384 . S
C457 C458 1.377 . S
C458 H438 0.953 . S
C458 C457 1.377 . S
C458 C459 1.369 . S
C459 H439 0.945 . S
C459 C454 1.385 . S
C459 C458 1.369 . S
C460 C452 1.457 . S
C460 C461 1.372 . S
C460 C465 1.364 . S
C461 H440 0.952 . S
C461 C460 1.372 . S
C461 C462 1.389 . S
C462 H441 0.949 . S
C462 C461 1.389 . S
C462 C463 1.387 . S
C463 C462 1.387 . S
C463 C464 1.372 . S
C464 H442 0.950 . S
C464 C463 1.372 . S
C464 C465 1.379 . S
C465 H443 0.948 . S
C465 C460 1.364 . S
C465 C464 1.379 . S
C466 C435 1.383 . S
C466 C453 1.479 . S
C466 C467 1.398 . S
C467 C432 1.382 . S
C467 H444 0.951 . S
C467 C466 1.398 . S
C468 C469 1.384 . S
C468 H481 0.947 . S
C468 C503 1.382 . S
C469 C468 1.384 . S
C469 C470 1.378 . S
C470 C469 1.378 . S
C470 C471 1.378 . S
C470 H482 0.952 . S
C471 C470 1.378 . S
C471 H483 0.950 . S
C471 C502 1.383 . S
H472 C491 0.947 . S
H473 C492 0.946 . S
H474 C494 0.953 . S
H475 C495 0.945 . S
H476 C497 0.952 . S
H477 C498 0.949 . S
H478 C500 0.950 . S
H479 C501 0.948 . S
H480 C503 0.951 . S
H481 C468 0.947 . S
H482 C470 0.952 . S
H483 C471 0.950 . S
N484 C487 1.382 . S
N484 C489 1.363 . S
N485 C487 1.371 . S
N485 C488 1.372 . S
N486 C488 1.361 . S
N486 C489 1.377 . S
C487 N484 1.382 . S
C487 N485 1.371 . S
C487 C490 1.480 . S
C488 N485 1.372 . S
C488 N486 1.361 . S
C488 C496 1.457 . S
C489 N484 1.363 . S
C489 N486 1.377 . S
C489 C502 1.479 . S
C490 C487 1.480 . S
C490 C491 1.383 . S
C490 C495 1.385 . S
C491 H472 0.947 . S
C491 C490 1.383 . S
C491 C492 1.388 . S
C492 H473 0.946 . S
C492 C491 1.388 . S
C492 C493 1.384 . S
C493 C492 1.384 . S
C493 C494 1.377 . S
C494 H474 0.953 . S
C494 C493 1.377 . S
C494 C495 1.369 . S
C495 H475 0.945 . S
C495 C490 1.385 . S
C495 C494 1.369 . S
C496 C488 1.457 . S
C496 C497 1.372 . S
C496 C501 1.364 . S
C497 H476 0.952 . S
C497 C496 1.372 . S
C497 C498 1.389 . S
C498 H477 0.949 . S
C498 C497 1.389 . S
C498 C499 1.387 . S
C499 C498 1.387 . S
C499 C500 1.372 . S
C500 H478 0.950 . S
C500 C499 1.372 . S
C500 C501 1.379 . S
C501 H479 0.948 . S
C501 C496 1.364 . S
C501 C500 1.379 . S
C502 C471 1.383 . S
C502 C489 1.479 . S
C502 C503 1.398 . S
C503 C468 1.382 . S
C503 H480 0.951 . S
C503 C502 1.398 . S
C504 C505 1.384 . S
C504 H517 0.947 . S
C504 C539 1.382 . S
C505 C504 1.384 . S
C505 C506 1.378 . S
C506 C505 1.378 . S
C506 C507 1.378 . S
C506 H518 0.952 . S
C507 C506 1.378 . S
C507 H519 0.950 . S
C507 C538 1.383 . S
H508 C527 0.947 . S
H509 C528 0.946 . S
H510 C530 0.953 . S
H511 C531 0.945 . S
H512 C533 0.952 . S
H513 C534 0.949 . S
H514 C536 0.950 . S
H515 C537 0.948 . S
H516 C539 0.951 . S
H517 C504 0.947 . S
H518 C506 0.952 . S
H519 C507 0.950 . S
N520 C523 1.382 . S
N520 C525 1.363 . S
N521 C523 1.371 . S
N521 C524 1.372 . S
N522 C524 1.361 . S
N522 C525 1.377 . S
C523 N520 1.382 . S
C523 N521 1.371 . S
C523 C526 1.480 . S
C524 N521 1.372 . S
C524 N522 1.361 . S
C524 C532 1.457 . S
C525 N520 1.363 . S
C525 N522 1.377 . S
C525 C538 1.479 . S
C526 C523 1.480 . S
C526 C527 1.383 . S
C526 C531 1.385 . S
C527 H508 0.947 . S
C527 C526 1.383 . S
C527 C528 1.388 . S
C528 H509 0.946 . S
C528 C527 1.388 . S
C528 C529 1.384 . S
C529 C528 1.384 . S
C529 C530 1.377 . S
C530 H510 0.953 . S
C530 C529 1.377 . S
C530 C531 1.369 . S
C531 H511 0.945 . S
C531 C526 1.385 . S
C531 C530 1.369 . S
C532 C524 1.457 . S
C532 C533 1.372 . S
C532 C537 1.364 . S
C533 H512 0.952 . S
C533 C532 1.372 . S
C533 C534 1.389 . S
C534 H513 0.949 . S
C534 C533 1.389 . S
C534 C535 1.387 . S
C535 C534 1.387 . S
C535 C536 1.372 . S
C536 H514 0.950 . S
C536 C535 1.372 . S
C536 C537 1.379 . S
C537 H515 0.948 . S
C537 C532 1.364 . S
C537 C536 1.379 . S
C538 C507 1.383 . S
C538 C525 1.479 . S
C538 C539 1.398 . S
C539 C504 1.382 . S
C539 H516 0.951 . S
C539 C538 1.398 . S
C540 C541 1.384 . S
C540 H553 0.947 . S
C540 C575 1.382 . S
C541 C540 1.384 . S
C541 C542 1.378 . S
C542 C541 1.378 . S
C542 C543 1.378 . S
C542 H554 0.952 . S
C543 C542 1.378 . S
C543 H555 0.950 . S
C543 C574 1.383 . S
H544 C563 0.947 . S
H545 C564 0.946 . S
H546 C566 0.953 . S
H547 C567 0.945 . S
H548 C569 0.952 . S
H549 C570 0.949 . S
H550 C572 0.950 . S
H551 C573 0.948 . S
H552 C575 0.951 . S
H553 C540 0.947 . S
H554 C542 0.952 . S
H555 C543 0.950 . S
N556 C559 1.382 . S
N556 C561 1.363 . S
N557 C559 1.371 . S
N557 C560 1.372 . S
N558 C560 1.361 . S
N558 C561 1.377 . S
C559 N556 1.382 . S
C559 N557 1.371 . S
C559 C562 1.480 . S
C560 N557 1.372 . S
C560 N558 1.361 . S
C560 C568 1.457 . S
C561 N556 1.363 . S
C561 N558 1.377 . S
C561 C574 1.479 . S
C562 C559 1.480 . S
C562 C563 1.383 . S
C562 C567 1.385 . S
C563 H544 0.947 . S
C563 C562 1.383 . S
C563 C564 1.388 . S
C564 H545 0.946 . S
C564 C563 1.388 . S
C564 C565 1.384 . S
C565 C564 1.384 . S
C565 C566 1.377 . S
C566 H546 0.953 . S
C566 C565 1.377 . S
C566 C567 1.369 . S
C567 H547 0.945 . S
C567 C562 1.385 . S
C567 C566 1.369 . S
C568 C560 1.457 . S
C568 C569 1.372 . S
C568 C573 1.364 . S
C569 H548 0.952 . S
C569 C568 1.372 . S
C569 C570 1.389 . S
C570 H549 0.949 . S
C570 C569 1.389 . S
C570 C571 1.387 . S
C571 C570 1.387 . S
C571 C572 1.372 . S
C572 H550 0.950 . S
C572 C571 1.372 . S
C572 C573 1.379 . S
C573 H551 0.948 . S
C573 C568 1.364 . S
C573 C572 1.379 . S
C574 C543 1.383 . S
C574 C561 1.479 . S
C574 C575 1.398 . S
C575 C540 1.382 . S
C575 H552 0.951 . S
C575 C574 1.398 . S
C576 C577 1.384 . S
C576 H589 0.947 . S
C576 C611 1.382 . S
C577 C576 1.384 . S
C577 C578 1.378 . S
C578 C577 1.378 . S
C578 C579 1.378 . S
C578 H590 0.952 . S
C579 C578 1.378 . S
C579 H591 0.950 . S
C579 C610 1.383 . S
H580 C599 0.947 . S
H581 C600 0.946 . S
H582 C602 0.953 . S
H583 C603 0.945 . S
H584 C605 0.952 . S
H585 C606 0.949 . S
H586 C608 0.950 . S
H587 C609 0.948 . S
H588 C611 0.951 . S
H589 C576 0.947 . S
H590 C578 0.952 . S
H591 C579 0.950 . S
N592 C595 1.382 . S
N592 C597 1.363 . S
N593 C595 1.371 . S
N593 C596 1.372 . S
N594 C596 1.361 . S
N594 C597 1.377 . S
C595 N592 1.382 . S
C595 N593 1.371 . S
C595 C598 1.480 . S
C596 N593 1.372 . S
C596 N594 1.361 . S
C596 C604 1.457 . S
C597 N592 1.363 . S
C597 N594 1.377 . S
C597 C610 1.479 . S
C598 C595 1.480 . S
C598 C599 1.383 . S
C598 C603 1.385 . S
C599 H580 0.947 . S
C599 C598 1.383 . S
C599 C600 1.388 . S
C600 H581 0.946 . S
C600 C599 1.388 . S
C600 C601 1.384 . S
C601 C600 1.384 . S
C601 C602 1.377 . S
C602 H582 0.953 . S
C602 C601 1.377 . S
C602 C603 1.369 . S
C603 H583 0.945 . S
C603 C598 1.385 . S
C603 C602 1.369 . S
C604 C596 1.457 . S
C604 C605 1.372 . S
C604 C609 1.364 . S
C605 H584 0.952 . S
C605 C604 1.372 . S
C605 C606 1.389 . S
C606 H585 0.949 . S
C606 C605 1.389 . S
C606 C607 1.387 . S
C607 C606 1.387 . S
C607 C608 1.372 . S
C608 H586 0.950 . S
C608 C607 1.372 . S
C608 C609 1.379 . S
C609 H587 0.948 . S
C609 C604 1.364 . S
C609 C608 1.379 . S
C610 C579 1.383 . S
C610 C597 1.479 . S
C610 C611 1.398 . S
C611 C576 1.382 . S
C611 H588 0.951 . S
C611 C610 1.398 . S
C612 C613 1.384 . S
C612 H625 0.947 . S
C612 C647 1.382 . S
C613 C612 1.384 . S
C613 C614 1.378 . S
C614 C613 1.378 . S
C614 C615 1.378 . S
C614 H626 0.952 . S
C615 C614 1.378 . S
C615 H627 0.950 . S
C615 C646 1.383 . S
H616 C635 0.947 . S
H617 C636 0.946 . S
H618 C638 0.953 . S
H619 C639 0.945 . S
H620 C641 0.952 . S
H621 C642 0.949 . S
H622 C644 0.950 . S
H623 C645 0.948 . S
H624 C647 0.951 . S
H625 C612 0.947 . S
H626 C614 0.952 . S
H627 C615 0.950 . S
N628 C631 1.382 . S
N628 C633 1.363 . S
N629 C631 1.371 . S
N629 C632 1.372 . S
N630 C632 1.361 . S
N630 C633 1.377 . S
C631 N628 1.382 . S
C631 N629 1.371 . S
C631 C634 1.480 . S
C632 N629 1.372 . S
C632 N630 1.361 . S
C632 C640 1.457 . S
C633 N628 1.363 . S
C633 N630 1.377 . S
C633 C646 1.479 . S
C634 C631 1.480 . S
C634 C635 1.383 . S
C634 C639 1.385 . S
C635 H616 0.947 . S
C635 C634 1.383 . S
C635 C636 1.388 . S
C636 H617 0.946 . S
C636 C635 1.388 . S
C636 C637 1.384 . S
C637 C636 1.384 . S
C637 C638 1.377 . S
C638 H618 0.953 . S
C638 C637 1.377 . S
C638 C639 1.369 . S
C639 H619 0.945 . S
C639 C634 1.385 . S
C639 C638 1.369 . S
C640 C632 1.457 . S
C640 C641 1.372 . S
C640 C645 1.364 . S
C641 H620 0.952 . S
C641 C640 1.372 . S
C641 C642 1.389 . S
C642 H621 0.949 . S
C642 C641 1.389 . S
C642 C643 1.387 . S
C643 C642 1.387 . S
C643 C644 1.372 . S
C644 H622 0.950 . S
C644 C643 1.372 . S
C644 C645 1.379 . S
C645 H623 0.948 . S
C645 C640 1.364 . S
C645 C644 1.379 . S
C646 C615 1.383 . S
C646 C633 1.479 . S
C646 C647 1.398 . S
C647 C612 1.382 . S
C647 H624 0.951 . S
C647 C646 1.398 . S
Eu648 N679 2.657 . S
Eu648 N686 2.609 . S
Eu648 O692 2.558 . S
Eu648 O693 2.595 1_566 S
Eu648 O695 2.339 1_565 S
Eu648 O696 2.563 1_565 S
Eu648 O697 2.419 . S
Eu648 O699 2.380 1_556 S
Eu648 O700 2.458 . S
Eu648 C712 2.848 . S
C649 C652 1.429 . S
C649 C653 1.411 . S
C649 N656 1.377 . S
C650 C652 1.420 . S
C650 C654 1.423 . S
C650 C662 1.392 . S
C651 C653 1.420 . S
C651 C654 1.351 . S
C651 H674 0.931 . S
C652 C649 1.429 . S
C652 C650 1.420 . S
C652 N660 1.362 . S
C653 C649 1.411 . S
C653 C651 1.420 . S
C653 C658 1.395 . S
C654 C650 1.423 . S
C654 C651 1.351 . S
C654 H666 0.930 . S
C655 C657 1.400 . S
C655 C658 1.386 . S
C655 H667 0.930 . S
N656 C649 1.377 . S
N656 C657 1.321 . S
N656 Eu659 2.609 . S
C657 C655 1.400 . S
C657 N656 1.321 . S
C657 H664 0.930 . S
C658 C653 1.395 . S
C658 C655 1.386 . S
C658 H677 0.930 . S
Eu659 N656 2.609 . S
Eu659 N660 2.657 . S
Eu659 O693 2.409 . S
Eu659 O694 2.432 . S
Eu659 O698 2.558 . S
Eu659 O699 2.612 1_545 S
Eu659 O701 2.339 1_545 S
Eu659 O702 2.563 1_545 S
Eu659 O703 2.419 . S
Eu659 C723 2.848 . S
N660 C652 1.362 . S
N660 Eu659 2.657 . S
N660 C661 1.334 . S
C661 N660 1.334 . S
C661 C663 1.413 . S
C661 H668 0.929 . S
C662 C650 1.392 . S
C662 C663 1.367 . S
C662 H670 0.930 . S
C663 C661 1.413 . S
C663 C662 1.367 . S
C663 H665 0.930 . S
H664 C657 0.930 . S
H665 C663 0.930 . S
H666 C654 0.930 . S
H667 C655 0.930 . S
H668 C661 0.929 . S
H669 C683 0.930 . S
H670 C662 0.930 . S
H671 C689 0.930 . S
H672 C680 0.929 . S
H673 C687 0.930 . S
H674 C651 0.931 . S
H675 C681 0.930 . S
H676 C714 0.930 . S
H677 C658 0.930 . S
H678 C713 0.931 . S
N679 Eu648 2.657 . S
N679 C680 1.334 . S
N679 C684 1.362 . S
C680 H672 0.929 . S
C680 N679 1.334 . S
C680 C683 1.413 . S
C681 H675 0.930 . S
C681 C682 1.392 . S
C681 C683 1.367 . S
C682 C681 1.392 . S
C682 C684 1.420 . S
C682 C714 1.423 . S
C683 H669 0.930 . S
C683 C680 1.413 . S
C683 C681 1.367 . S
C684 N679 1.362 . S
C684 C682 1.420 . S
C684 C688 1.429 . S
H685 C690 0.930 . S
N686 Eu648 2.609 . S
N686 C688 1.377 . S
N686 C689 1.321 . S
C687 H673 0.930 . S
C687 C689 1.400 . S
C687 C690 1.386 . S
C688 C684 1.429 . S
C688 N686 1.377 . S
C688 C691 1.411 . S
C689 H671 0.930 . S
C689 N686 1.321 . S
C689 C687 1.400 . S
C690 H685 0.930 . S
C690 C687 1.386 . S
C690 C691 1.395 . S
C691 C688 1.411 . S
C691 C690 1.395 . S
C691 C713 1.420 . S
O692 Eu648 2.558 . S
O692 C712 1.257 . S
O693 Eu648 2.595 1_544 S
O693 Eu659 2.409 . S
O693 C704 1.253 1_554 S
O694 Eu659 2.432 . S
O694 C711 1.264 1_554 S
O695 Eu648 2.339 1_545 S
O695 C711 1.254 . S
O696 Eu648 2.563 1_545 S
O696 C704 1.235 . S
O697 Eu648 2.419 . S
O697 C712 1.249 . S
O698 Eu659 2.558 . S
O698 C723 1.257 . S
O699 Eu648 2.380 1_554 S
O699 Eu659 2.612 1_565 S
O699 C715 1.276 . S
O700 Eu648 2.458 . S
O700 C722 1.218 1_556 S
O701 Eu659 2.339 1_565 S
O701 C722 1.254 . S
O702 Eu659 2.563 1_565 S
O702 C715 1.235 . S
O703 Eu659 2.419 . S
O703 C723 1.249 . S
C704 O693 1.253 1_556 S
C704 O696 1.235 . S
C705 C707 1.393 1_565 S
C705 C709 1.395 . S
C705 C712 1.492 . S
C706 C707 1.392 . S
C706 C708 1.386 1_545 S
C707 C705 1.393 1_545 S
C707 C706 1.392 . S
C707 H724 0.930 . S
C708 C706 1.386 1_565 S
C708 C710 1.395 . S
C708 H725 0.930 . S
C709 C705 1.395 . S
C709 C710 1.379 . S
C709 H726 0.930 . S
C710 C708 1.395 . S
C710 C709 1.379 . S
C710 H727 0.930 . S
C711 O694 1.264 1_556 S
C711 O695 1.254 . S
C712 Eu648 2.848 . S
C712 O692 1.257 . S
C712 O697 1.249 . S
C712 C705 1.492 . S
C713 H678 0.931 . S
C713 C691 1.420 . S
C713 C714 1.351 . S
C714 H676 0.930 . S
C714 C682 1.423 . S
C714 C713 1.351 . S
C715 O699 1.276 . S
C715 O702 1.235 . S
C716 C717 1.393 1_545 S
C716 C720 1.395 . S
C716 C723 1.492 . S
C717 C716 1.393 1_565 S
C717 C718 1.392 . S
C717 H728 0.930 . S
C718 C717 1.392 . S
C718 C719 1.386 1_565 S
C719 C718 1.386 1_545 S
C719 C721 1.395 . S
C719 H729 0.930 . S
C720 C716 1.395 . S
C720 C721 1.379 . S
C720 H730 0.930 . S
C721 C719 1.395 . S
C721 C720 1.379 . S
C721 H731 0.930 . S
C722 O700 1.218 1_554 S
C722 O701 1.254 . S
C723 Eu659 2.848 . S
C723 O698 1.257 . S
C723 O703 1.249 . S
C723 C716 1.492 . S
H724 C707 0.930 . S
H725 C708 0.930 . S
H726 C709 0.930 . S
H727 C710 0.930 . S
H728 C717 0.930 . S
H729 C719 0.930 . S
H730 C720 0.930 . S
H731 C721 0.930 . S
Eu732 N763 2.657 . S
Eu732 N770 2.609 . S
Eu732 O776 2.558 . S
Eu732 O777 2.609 1_455 S
Eu732 O779 2.339 1_455 S
Eu732 O780 2.563 1_455 S
Eu732 O781 2.419 . S
Eu732 O783 2.380 1_556 S
Eu732 O784 2.433 1_556 S
Eu732 C796 2.848 . S
C733 C736 1.429 . S
C733 C737 1.411 . S
C733 N740 1.377 . S
C734 C736 1.420 . S
C734 C738 1.423 . S
C734 C746 1.392 . S
C735 C737 1.420 . S
C735 C738 1.351 . S
C735 H758 0.931 . S
C736 C733 1.429 . S
C736 C734 1.420 . S
C736 N744 1.362 . S
C737 C733 1.411 . S
C737 C735 1.420 . S
C737 C742 1.395 . S
C738 C734 1.423 . S
C738 C735 1.351 . S
C738 H750 0.930 . S
C739 C741 1.400 . S
C739 C742 1.386 . S
C739 H751 0.930 . S
N740 C733 1.377 . S
N740 C741 1.321 . S
N740 Eu743 2.609 . S
C741 C739 1.400 . S
C741 N740 1.321 . S
C741 H748 0.930 . S
C742 C737 1.395 . S
C742 C739 1.386 . S
C742 H761 0.930 . S
Eu743 N740 2.609 . S
Eu743 N744 2.657 . S
Eu743 O777 2.387 1_554 S
Eu743 O778 2.432 . S
Eu743 O782 2.558 . S
Eu743 O783 2.612 1_655 S
Eu743 O785 2.339 1_655 S
Eu743 O786 2.563 1_655 S
Eu743 O787 2.419 . S
Eu743 C807 2.848 . S
N744 C736 1.362 . S
N744 Eu743 2.657 . S
N744 C745 1.334 . S
C745 N744 1.334 . S
C745 C747 1.413 . S
C745 H752 0.929 . S
C746 C734 1.392 . S
C746 C747 1.367 . S
C746 H754 0.930 . S
C747 C745 1.413 . S
C747 C746 1.367 . S
C747 H749 0.930 . S
H748 C741 0.930 . S
H749 C747 0.930 . S
H750 C738 0.930 . S
H751 C739 0.930 . S
H752 C745 0.929 . S
H753 C767 0.930 . S
H754 C746 0.930 . S
H755 C773 0.930 . S
H756 C764 0.929 . S
H757 C771 0.930 . S
H758 C735 0.931 . S
H759 C765 0.930 . S
H760 C798 0.930 . S
H761 C742 0.930 . S
H762 C797 0.931 . S
N763 Eu732 2.657 . S
N763 C764 1.334 . S
N763 C768 1.362 . S
C764 H756 0.929 . S
C764 N763 1.334 . S
C764 C767 1.413 . S
C765 H759 0.930 . S
C765 C766 1.392 . S
C765 C767 1.367 . S
C766 C765 1.392 . S
C766 C768 1.420 . S
C766 C798 1.423 . S
C767 H753 0.930 . S
C767 C764 1.413 . S
C767 C765 1.367 . S
C768 N763 1.362 . S
C768 C766 1.420 . S
C768 C772 1.429 . S
H769 C774 0.930 . S
N770 Eu732 2.609 . S
N770 C772 1.377 . S
N770 C773 1.321 . S
C771 H757 0.930 . S
C771 C773 1.400 . S
C771 C774 1.386 . S
C772 C768 1.429 . S
C772 N770 1.377 . S
C772 C775 1.411 . S
C773 H755 0.930 . S
C773 N770 1.321 . S
C773 C771 1.400 . S
C774 H769 0.930 . S
C774 C771 1.386 . S
C774 C775 1.395 . S
C775 C772 1.411 . S
C775 C774 1.395 . S
C775 C797 1.420 . S
O776 Eu732 2.558 . S
O776 C796 1.257 . S
O777 Eu732 2.609 1_655 S
O777 Eu743 2.387 1_556 S
O777 C788 1.271 . S
O778 Eu743 2.432 . S
O778 C795 1.264 1_554 S
O779 Eu732 2.339 1_655 S
O779 C795 1.254 . S
O780 Eu732 2.563 1_655 S
O780 C788 1.235 . S
O781 Eu732 2.419 . S
O781 C796 1.249 . S
O782 Eu743 2.558 . S
O782 C807 1.257 . S
O783 Eu732 2.380 1_554 S
O783 Eu743 2.612 1_455 S
O783 C799 1.276 . S
O784 Eu732 2.433 1_554 S
O784 C806 1.262 . S
O785 Eu743 2.339 1_455 S
O785 C806 1.254 . S
O786 Eu743 2.563 1_455 S
O786 C799 1.235 . S
O787 Eu743 2.419 . S
O787 C807 1.249 . S
C788 O777 1.271 . S
C788 O780 1.235 . S
C789 C791 1.393 1_455 S
C789 C793 1.395 . S
C789 C796 1.492 . S
C790 C791 1.392 . S
C790 C792 1.386 1_655 S
C791 C789 1.393 1_655 S
C791 C790 1.392 . S
C791 H808 0.930 . S
C792 C790 1.386 1_455 S
C792 C794 1.395 . S
C792 H809 0.930 . S
C793 C789 1.395 . S
C793 C794 1.379 . S
C793 H810 0.930 . S
C794 C792 1.395 . S
C794 C793 1.379 . S
C794 H811 0.930 . S
C795 O778 1.264 1_556 S
C795 O779 1.254 . S
C796 Eu732 2.848 . S
C796 O776 1.257 . S
C796 O781 1.249 . S
C796 C789 1.492 . S
C797 H762 0.931 . S
C797 C775 1.420 . S
C797 C798 1.351 . S
C798 H760 0.930 . S
C798 C766 1.423 . S
C798 C797 1.351 . S
C799 O783 1.276 . S
C799 O786 1.235 . S
C800 C801 1.393 1_655 S
C800 C804 1.395 . S
C800 C807 1.492 . S
C801 C800 1.393 1_455 S
C801 C802 1.392 . S
C801 H812 0.930 . S
C802 C801 1.392 . S
C802 C803 1.386 1_455 S
C803 C802 1.386 1_655 S
C803 C805 1.395 . S
C803 H813 0.930 . S
C804 C800 1.395 . S
C804 C805 1.379 . S
C804 H814 0.930 . S
C805 C803 1.395 . S
C805 C804 1.379 . S
C805 H815 0.930 . S
C806 O784 1.262 . S
C806 O785 1.254 . S
C807 Eu743 2.848 . S
C807 O782 1.257 . S
C807 O787 1.249 . S
C807 C800 1.492 . S
H808 C791 0.930 . S
H809 C792 0.930 . S
H810 C793 0.930 . S
H811 C794 0.930 . S
H812 C801 0.930 . S
H813 C803 0.930 . S
H814 C804 0.930 . S
H815 C805 0.930 . S
Eu816 N847 2.657 . S
Eu816 N854 2.609 . S
Eu816 O860 2.558 . S
Eu816 O861 2.612 . S
Eu816 O863 2.339 . S
Eu816 O864 2.563 . S
Eu816 O865 2.419 . S
Eu816 O867 2.385 . S
Eu816 O868 2.432 . S
Eu816 C880 2.848 . S
C817 C820 1.429 . S
C817 C821 1.411 . S
C817 N824 1.377 . S
C818 C820 1.420 . S
C818 C822 1.423 . S
C818 C830 1.392 . S
C819 C821 1.420 . S
C819 C822 1.351 . S
C819 H842 0.931 . S
C820 C817 1.429 . S
C820 C818 1.420 . S
C820 N828 1.362 . S
C821 C817 1.411 . S
C821 C819 1.420 . S
C821 C826 1.395 . S
C822 C818 1.423 . S
C822 C819 1.351 . S
C822 H834 0.930 . S
C823 C825 1.400 . S
C823 C826 1.386 . S
C823 H835 0.930 . S
N824 C817 1.377 . S
N824 C825 1.321 . S
N824 Eu827 2.609 . S
C825 C823 1.400 . S
C825 N824 1.321 . S
C825 H832 0.930 . S
C826 C821 1.395 . S
C826 C823 1.386 . S
C826 H845 0.930 . S
Eu827 N824 2.609 . S
Eu827 N828 2.657 . S
Eu827 O861 2.380 1_556 S
Eu827 O862 2.441 . S
Eu827 O866 2.558 . S
Eu827 O867 2.610 1_556 S
Eu827 O869 2.339 . S
Eu827 O870 2.563 . S
Eu827 O871 2.419 . S
Eu827 C891 2.848 . S
N828 C820 1.362 . S
N828 Eu827 2.657 . S
N828 C829 1.334 . S
C829 N828 1.334 . S
C829 C831 1.413 . S
C829 H836 0.929 . S
C830 C818 1.392 . S
C830 C831 1.367 . S
C830 H838 0.930 . S
C831 C829 1.413 . S
C831 C830 1.367 . S
C831 H833 0.930 . S
H832 C825 0.930 . S
H833 C831 0.930 . S
H834 C822 0.930 . S
H835 C823 0.930 . S
H836 C829 0.929 . S
H837 C851 0.930 . S
H838 C830 0.930 . S
H839 C857 0.930 . S
H840 C848 0.929 . S
H841 C855 0.930 . S
H842 C819 0.931 . S
H843 C849 0.930 . S
H844 C882 0.930 . S
H845 C826 0.930 . S
H846 C881 0.931 . S
N847 Eu816 2.657 . S
N847 C848 1.334 . S
N847 C852 1.362 . S
C848 H840 0.929 . S
C848 N847 1.334 . S
C848 C851 1.413 . S
C849 H843 0.930 . S
C849 C850 1.392 . S
C849 C851 1.367 . S
C850 C849 1.392 . S
C850 C852 1.420 . S
C850 C882 1.423 . S
C851 H837 0.930 . S
C851 C848 1.413 . S
C851 C849 1.367 . S
C852 N847 1.362 . S
C852 C850 1.420 . S
C852 C856 1.429 . S
H853 C858 0.930 . S
N854 Eu816 2.609 . S
N854 C856 1.377 . S
N854 C857 1.321 . S
C855 H841 0.930 . S
C855 C857 1.400 . S
C855 C858 1.386 . S
C856 C852 1.429 . S
C856 N854 1.377 . S
C856 C859 1.411 . S
C857 H839 0.930 . S
C857 N854 1.321 . S
C857 C855 1.400 . S
C858 H853 0.930 . S
C858 C855 1.386 . S
C858 C859 1.395 . S
C859 C856 1.411 . S
C859 C858 1.395 . S
C859 C881 1.420 . S
O860 Eu816 2.558 . S
O860 C880 1.257 . S
O861 Eu816 2.612 . S
O861 Eu827 2.380 1_554 S
O861 C872 1.276 . S
O862 Eu827 2.441 . S
O862 C879 1.248 1_556 S
O863 Eu816 2.339 . S
O863 C879 1.254 . S
O864 Eu816 2.563 . S
O864 C872 1.235 . S
O865 Eu816 2.419 . S
O865 C880 1.249 . S
O866 Eu827 2.558 . S
O866 C891 1.257 . S
O867 Eu816 2.385 . S
O867 Eu827 2.610 1_554 S
O867 C883 1.272 1_554 S
O868 Eu816 2.432 . S
O868 C890 1.264 1_554 S
O869 Eu827 2.339 . S
O869 C890 1.254 . S
O870 Eu827 2.563 . S
O870 C883 1.235 . S
O871 Eu827 2.419 . S
O871 C891 1.249 . S
C872 O861 1.276 . S
C872 O864 1.235 . S
C873 C875 1.393 . S
C873 C877 1.395 . S
C873 C880 1.492 . S
C874 C875 1.392 . S
C874 C876 1.386 . S
C875 C873 1.393 . S
C875 C874 1.392 . S
C875 H892 0.930 . S
C876 C874 1.386 . S
C876 C878 1.395 . S
C876 H893 0.930 . S
C877 C873 1.395 . S
C877 C878 1.379 . S
C877 H894 0.930 . S
C878 C876 1.395 . S
C878 C877 1.379 . S
C878 H895 0.930 . S
C879 O862 1.248 1_554 S
C879 O863 1.254 . S
C880 Eu816 2.848 . S
C880 O860 1.257 . S
C880 O865 1.249 . S
C880 C873 1.492 . S
C881 H846 0.931 . S
C881 C859 1.420 . S
C881 C882 1.351 . S
C882 H844 0.930 . S
C882 C850 1.423 . S
C882 C881 1.351 . S
C883 O867 1.272 1_556 S
C883 O870 1.235 . S
C884 C885 1.393 . S
C884 C888 1.395 . S
C884 C891 1.492 . S
C885 C884 1.393 . S
C885 C886 1.392 . S
C885 H896 0.930 . S
C886 C885 1.392 . S
C886 C887 1.386 . S
C887 C886 1.386 . S
C887 C889 1.395 . S
C887 H897 0.930 . S
C888 C884 1.395 . S
C888 C889 1.379 . S
C888 H898 0.930 . S
C889 C887 1.395 . S
C889 C888 1.379 . S
C889 H899 0.930 . S
C890 O868 1.264 1_556 S
C890 O869 1.254 . S
C891 Eu827 2.848 . S
C891 O866 1.257 . S
C891 O871 1.249 . S
C891 C884 1.492 . S
H892 C875 0.930 . S
H893 C876 0.930 . S
H894 C877 0.930 . S
H895 C878 0.930 . S
H896 C885 0.930 . S
H897 C887 0.930 . S
H898 C888 0.930 . S
H899 C889 0.930 . S
Eu900 N931 2.657 . S
Eu900 N938 2.609 . S
Eu900 O944 2.558 . S
Eu900 O945 2.612 . S
Eu900 O947 2.339 . S
Eu900 O948 2.563 . S
Eu900 O949 2.419 . S
Eu900 O951 2.380 . S
Eu900 O952 2.432 . S
Eu900 C964 2.848 . S
C901 C904 1.429 . S
C901 C905 1.411 . S
C901 N908 1.377 . S
C902 C904 1.420 . S
C902 C906 1.423 . S
C902 C914 1.392 . S
C903 C905 1.420 . S
C903 C906 1.351 . S
C903 H926 0.931 . S
C904 C901 1.429 . S
C904 C902 1.420 . S
C904 N912 1.362 . S
C905 C901 1.411 . S
C905 C903 1.420 . S
C905 C910 1.395 . S
C906 C902 1.423 . S
C906 C903 1.351 . S
C906 H918 0.930 . S
C907 C909 1.400 . S
C907 C910 1.386 . S
C907 H919 0.930 . S
N908 C901 1.377 . S
N908 C909 1.321 . S
N908 Eu911 2.609 . S
C909 C907 1.400 . S
C909 N908 1.321 . S
C909 H916 0.930 . S
C910 C905 1.395 . S
C910 C907 1.386 . S
C910 H929 0.930 . S
Eu911 N908 2.609 . S
Eu911 N912 2.657 . S
Eu911 O945 2.380 . S
Eu911 O946 2.432 . S
Eu911 O950 2.558 . S
Eu911 O951 2.612 . S
Eu911 O953 2.339 . S
Eu911 O954 2.563 . S
Eu911 O955 2.419 . S
Eu911 C975 2.848 . S
N912 C904 1.362 . S
N912 Eu911 2.657 . S
N912 C913 1.334 . S
C913 N912 1.334 . S
C913 C915 1.413 . S
C913 H920 0.929 . S
C914 C902 1.392 . S
C914 C915 1.367 . S
C914 H922 0.930 . S
C915 C913 1.413 . S
C915 C914 1.367 . S
C915 H917 0.930 . S
H916 C909 0.930 . S
H917 C915 0.930 . S
H918 C906 0.930 . S
H919 C907 0.930 . S
H920 C913 0.929 . S
H921 C935 0.930 . S
H922 C914 0.930 . S
H923 C941 0.930 . S
H924 C932 0.929 . S
H925 C939 0.930 . S
H926 C903 0.931 . S
H927 C933 0.930 . S
H928 C966 0.930 . S
H929 C910 0.930 . S
H930 C965 0.931 . S
N931 Eu900 2.657 . S
N931 C932 1.334 . S
N931 C936 1.362 . S
C932 H924 0.929 . S
C932 N931 1.334 . S
C932 C935 1.413 . S
C933 H927 0.930 . S
C933 C934 1.392 . S
C933 C935 1.367 . S
C934 C933 1.392 . S
C934 C936 1.420 . S
C934 C966 1.423 . S
C935 H921 0.930 . S
C935 C932 1.413 . S
C935 C933 1.367 . S
C936 N931 1.362 . S
C936 C934 1.420 . S
C936 C940 1.429 . S
H937 C942 0.930 . S
N938 Eu900 2.609 . S
N938 C940 1.377 . S
N938 C941 1.321 . S
C939 H925 0.930 . S
C939 C941 1.400 . S
C939 C942 1.386 . S
C940 C936 1.429 . S
C940 N938 1.377 . S
C940 C943 1.411 . S
C941 H923 0.930 . S
C941 N938 1.321 . S
C941 C939 1.400 . S
C942 H937 0.930 . S
C942 C939 1.386 . S
C942 C943 1.395 . S
C943 C940 1.411 . S
C943 C942 1.395 . S
C943 C965 1.420 . S
O944 Eu900 2.558 . S
O944 C964 1.257 . S
O945 Eu900 2.612 . S
O945 Eu911 2.380 . S
O945 C956 1.276 . S
O946 Eu911 2.432 . S
O946 C963 1.264 . S
O947 Eu900 2.339 . S
O947 C963 1.254 . S
O948 Eu900 2.563 . S
O948 C956 1.235 . S
O949 Eu900 2.419 . S
O949 C964 1.249 . S
O950 Eu911 2.558 . S
O950 C975 1.257 . S
O951 Eu900 2.380 . S
O951 Eu911 2.612 . S
O951 C967 1.276 . S
O952 Eu900 2.432 . S
O952 C974 1.264 . S
O953 Eu911 2.339 . S
O953 C974 1.254 . S
O954 Eu911 2.563 . S
O954 C967 1.235 . S
O955 Eu911 2.419 . S
O955 C975 1.249 . S
C956 O945 1.276 . S
C956 O948 1.235 . S
C957 C959 1.393 . S
C957 C961 1.395 . S
C957 C964 1.492 . S
C958 C959 1.392 . S
C958 C960 1.386 . S
C959 C957 1.393 . S
C959 C958 1.392 . S
C959 H976 0.930 . S
C960 C958 1.386 . S
C960 C962 1.395 . S
C960 H977 0.930 . S
C961 C957 1.395 . S
C961 C962 1.379 . S
C961 H978 0.930 . S
C962 C960 1.395 . S
C962 C961 1.379 . S
C962 H979 0.930 . S
C963 O946 1.264 . S
C963 O947 1.254 . S
C964 Eu900 2.848 . S
C964 O944 1.257 . S
C964 O949 1.249 . S
C964 C957 1.492 . S
C965 H930 0.931 . S
C965 C943 1.420 . S
C965 C966 1.351 . S
C966 H928 0.930 . S
C966 C934 1.423 . S
C966 C965 1.351 . S
C967 O951 1.276 . S
C967 O954 1.235 . S
C968 C969 1.393 . S
C968 C972 1.395 . S
C968 C975 1.492 . S
C969 C968 1.393 . S
C969 C970 1.392 . S
C969 H980 0.930 . S
C970 C969 1.392 . S
C970 C971 1.386 . S
C971 C970 1.386 . S
C971 C973 1.395 . S
C971 H981 0.930 . S
C972 C968 1.395 . S
C972 C973 1.379 . S
C972 H982 0.930 . S
C973 C971 1.395 . S
C973 C972 1.379 . S
C973 H983 0.930 . S
C974 O952 1.264 . S
C974 O953 1.254 . S
C975 Eu911 2.848 . S
C975 O950 1.257 . S
C975 O955 1.249 . S
C975 C968 1.492 . S
H976 C959 0.930 . S
H977 C960 0.930 . S
H978 C961 0.930 . S
H979 C962 0.930 . S
H980 C969 0.930 . S
H981 C971 0.930 . S
H982 C972 0.930 . S
H983 C973 0.930 . S
Eu984 N1015 2.657 . S
Eu984 N1022 2.609 . S
Eu984 O1028 2.558 . S
Eu984 O1029 2.612 . S
Eu984 O1031 2.339 . S
Eu984 O1032 2.563 . S
Eu984 O1033 2.419 . S
Eu984 O1035 2.380 . S
Eu984 O1036 2.432 . S
Eu984 C1048 2.848 . S
C985 C988 1.429 . S
C985 C989 1.411 . S
C985 N992 1.377 . S
C986 C988 1.420 . S
C986 C990 1.423 . S
C986 C998 1.392 . S
C987 C989 1.420 . S
C987 C990 1.351 . S
C987 H1010 0.931 . S
C988 C985 1.429 . S
C988 C986 1.420 . S
C988 N996 1.362 . S
C989 C985 1.411 . S
C989 C987 1.420 . S
C989 C994 1.395 . S
C990 C986 1.423 . S
C990 C987 1.351 . S
C990 H1002 0.930 . S
C991 C993 1.400 . S
C991 C994 1.386 . S
C991 H1003 0.930 . S
N992 C985 1.377 . S
N992 C993 1.321 . S
N992 Eu995 2.609 . S
C993 C991 1.400 . S
C993 N992 1.321 . S
C993 H1000 0.930 . S
C994 C989 1.395 . S
C994 C991 1.386 . S
C994 H1013 0.930 . S
Eu995 N992 2.609 . S
Eu995 N996 2.657 . S
Eu995 O1029 2.380 . S
Eu995 O1030 2.432 . S
Eu995 O1034 2.558 . S
Eu995 O1035 2.612 . S
Eu995 O1037 2.339 . S
Eu995 O1038 2.563 . S
Eu995 O1039 2.419 . S
Eu995 C1059 2.848 . S
N996 C988 1.362 . S
N996 Eu995 2.657 . S
N996 C997 1.334 . S
C997 N996 1.334 . S
C997 C999 1.413 . S
C997 H1004 0.929 . S
C998 C986 1.392 . S
C998 C999 1.367 . S
C998 H1006 0.930 . S
C999 C997 1.413 . S
C999 C998 1.367 . S
C999 H1001 0.930 . S
H1000 C993 0.930 . S
H1001 C999 0.930 . S
H1002 C990 0.930 . S
H1003 C991 0.930 . S
H1004 C997 0.929 . S
H1005 C1019 0.930 . S
H1006 C998 0.930 . S
H1007 C1025 0.930 . S
H1008 C1016 0.929 . S
H1009 C1023 0.930 . S
H1010 C987 0.931 . S
H1011 C1017 0.930 . S
H1012 C1050 0.930 . S
H1013 C994 0.930 . S
H1014 C1049 0.931 . S
N1015 Eu984 2.657 . S
N1015 C1016 1.334 . S
N1015 C1020 1.362 . S
C1016 H1008 0.929 . S
C1016 N1015 1.334 . S
C1016 C1019 1.413 . S
C1017 H1011 0.930 . S
C1017 C1018 1.392 . S
C1017 C1019 1.367 . S
C1018 C1017 1.392 . S
C1018 C1020 1.420 . S
C1018 C1050 1.423 . S
C1019 H1005 0.930 . S
C1019 C1016 1.413 . S
C1019 C1017 1.367 . S
C1020 N1015 1.362 . S
C1020 C1018 1.420 . S
C1020 C1024 1.429 . S
H1021 C1026 0.930 . S
N1022 Eu984 2.609 . S
N1022 C1024 1.377 . S
N1022 C1025 1.321 . S
C1023 H1009 0.930 . S
C1023 C1025 1.400 . S
C1023 C1026 1.386 . S
C1024 C1020 1.429 . S
C1024 N1022 1.377 . S
C1024 C1027 1.411 . S
C1025 H1007 0.930 . S
C1025 N1022 1.321 . S
C1025 C1023 1.400 . S
C1026 H1021 0.930 . S
C1026 C1023 1.386 . S
C1026 C1027 1.395 . S
C1027 C1024 1.411 . S
C1027 C1026 1.395 . S
C1027 C1049 1.420 . S
O1028 Eu984 2.558 . S
O1028 C1048 1.257 . S
O1029 Eu984 2.612 . S
O1029 Eu995 2.380 . S
O1029 C1040 1.276 . S
O1030 Eu995 2.432 . S
O1030 C1047 1.264 . S
O1031 Eu984 2.339 . S
O1031 C1047 1.254 . S
O1032 Eu984 2.563 . S
O1032 C1040 1.235 . S
O1033 Eu984 2.419 . S
O1033 C1048 1.249 . S
O1034 Eu995 2.558 . S
O1034 C1059 1.257 . S
O1035 Eu984 2.380 . S
O1035 Eu995 2.612 . S
O1035 C1051 1.276 . S
O1036 Eu984 2.432 . S
O1036 C1058 1.264 . S
O1037 Eu995 2.339 . S
O1037 C1058 1.254 . S
O1038 Eu995 2.563 . S
O1038 C1051 1.235 . S
O1039 Eu995 2.419 . S
O1039 C1059 1.249 . S
C1040 O1029 1.276 . S
C1040 O1032 1.235 . S
C1041 C1043 1.393 . S
C1041 C1045 1.395 . S
C1041 C1048 1.492 . S
C1042 C1043 1.392 . S
C1042 C1044 1.386 . S
C1043 C1041 1.393 . S
C1043 C1042 1.392 . S
C1043 H1060 0.930 . S
C1044 C1042 1.386 . S
C1044 C1046 1.395 . S
C1044 H1061 0.930 . S
C1045 C1041 1.395 . S
C1045 C1046 1.379 . S
C1045 H1062 0.930 . S
C1046 C1044 1.395 . S
C1046 C1045 1.379 . S
C1046 H1063 0.930 . S
C1047 O1030 1.264 . S
C1047 O1031 1.254 . S
C1048 Eu984 2.848 . S
C1048 O1028 1.257 . S
C1048 O1033 1.249 . S
C1048 C1041 1.492 . S
C1049 H1014 0.931 . S
C1049 C1027 1.420 . S
C1049 C1050 1.351 . S
C1050 H1012 0.930 . S
C1050 C1018 1.423 . S
C1050 C1049 1.351 . S
C1051 O1035 1.276 . S
C1051 O1038 1.235 . S
C1052 C1053 1.393 . S
C1052 C1056 1.395 . S
C1052 C1059 1.492 . S
C1053 C1052 1.393 . S
C1053 C1054 1.392 . S
C1053 H1064 0.930 . S
C1054 C1053 1.392 . S
C1054 C1055 1.386 . S
C1055 C1054 1.386 . S
C1055 C1057 1.395 . S
C1055 H1065 0.930 . S
C1056 C1052 1.395 . S
C1056 C1057 1.379 . S
C1056 H1066 0.930 . S
C1057 C1055 1.395 . S
C1057 C1056 1.379 . S
C1057 H1067 0.930 . S
C1058 O1036 1.264 . S
C1058 O1037 1.254 . S
C1059 Eu995 2.848 . S
C1059 O1034 1.257 . S
C1059 O1039 1.249 . S
C1059 C1052 1.492 . S
H1060 C1043 0.930 . S
H1061 C1044 0.930 . S
H1062 C1045 0.930 . S
H1063 C1046 0.930 . S
H1064 C1053 0.930 . S
H1065 C1055 0.930 . S
H1066 C1056 0.930 . S
H1067 C1057 0.930 . S
Eu1068 N1099 2.657 . S
Eu1068 N1106 2.609 . S
Eu1068 O1112 2.558 . S
Eu1068 O1113 2.612 . S
Eu1068 O1115 2.339 . S
Eu1068 O1116 2.563 . S
Eu1068 O1117 2.419 . S
Eu1068 O1119 2.380 . S
Eu1068 O1120 2.432 . S
Eu1068 C1132 2.848 . S
C1069 C1072 1.429 . S
C1069 C1073 1.411 . S
C1069 N1076 1.377 . S
C1070 C1072 1.420 . S
C1070 C1074 1.423 . S
C1070 C1082 1.392 . S
C1071 C1073 1.420 . S
C1071 C1074 1.351 . S
C1071 H1094 0.931 . S
C1072 C1069 1.429 . S
C1072 C1070 1.420 . S
C1072 N1080 1.362 . S
C1073 C1069 1.411 . S
C1073 C1071 1.420 . S
C1073 C1078 1.395 . S
C1074 C1070 1.423 . S
C1074 C1071 1.351 . S
C1074 H1086 0.930 . S
C1075 C1077 1.400 . S
C1075 C1078 1.386 . S
C1075 H1087 0.930 . S
N1076 C1069 1.377 . S
N1076 C1077 1.321 . S
N1076 Eu1079 2.609 . S
C1077 C1075 1.400 . S
C1077 N1076 1.321 . S
C1077 H1084 0.930 . S
C1078 C1073 1.395 . S
C1078 C1075 1.386 . S
C1078 H1097 0.930 . S
Eu1079 N1076 2.609 . S
Eu1079 N1080 2.657 . S
Eu1079 O1113 2.380 . S
Eu1079 O1114 2.432 . S
Eu1079 O1118 2.558 . S
Eu1079 O1119 2.612 . S
Eu1079 O1121 2.339 . S
Eu1079 O1122 2.563 . S
Eu1079 O1123 2.419 . S
Eu1079 C1143 2.848 . S
N1080 C1072 1.362 . S
N1080 Eu1079 2.657 . S
N1080 C1081 1.334 . S
C1081 N1080 1.334 . S
C1081 C1083 1.413 . S
C1081 H1088 0.929 . S
C1082 C1070 1.392 . S
C1082 C1083 1.367 . S
C1082 H1090 0.930 . S
C1083 C1081 1.413 . S
C1083 C1082 1.367 . S
C1083 H1085 0.930 . S
H1084 C1077 0.930 . S
H1085 C1083 0.930 . S
H1086 C1074 0.930 . S
H1087 C1075 0.930 . S
H1088 C1081 0.929 . S
H1089 C1103 0.930 . S
H1090 C1082 0.930 . S
H1091 C1109 0.930 . S
H1092 C1100 0.929 . S
H1093 C1107 0.930 . S
H1094 C1071 0.931 . S
H1095 C1101 0.930 . S
H1096 C1134 0.930 . S
H1097 C1078 0.930 . S
H1098 C1133 0.931 . S
N1099 Eu1068 2.657 . S
N1099 C1100 1.334 . S
N1099 C1104 1.362 . S
C1100 H1092 0.929 . S
C1100 N1099 1.334 . S
C1100 C1103 1.413 . S
C1101 H1095 0.930 . S
C1101 C1102 1.392 . S
C1101 C1103 1.367 . S
C1102 C1101 1.392 . S
C1102 C1104 1.420 . S
C1102 C1134 1.423 . S
C1103 H1089 0.930 . S
C1103 C1100 1.413 . S
C1103 C1101 1.367 . S
C1104 N1099 1.362 . S
C1104 C1102 1.420 . S
C1104 C1108 1.429 . S
H1105 C1110 0.930 . S
N1106 Eu1068 2.609 . S
N1106 C1108 1.377 . S
N1106 C1109 1.321 . S
C1107 H1093 0.930 . S
C1107 C1109 1.400 . S
C1107 C1110 1.386 . S
C1108 C1104 1.429 . S
C1108 N1106 1.377 . S
C1108 C1111 1.411 . S
C1109 H1091 0.930 . S
C1109 N1106 1.321 . S
C1109 C1107 1.400 . S
C1110 H1105 0.930 . S
C1110 C1107 1.386 . S
C1110 C1111 1.395 . S
C1111 C1108 1.411 . S
C1111 C1110 1.395 . S
C1111 C1133 1.420 . S
O1112 Eu1068 2.558 . S
O1112 C1132 1.257 . S
O1113 Eu1068 2.612 . S
O1113 Eu1079 2.380 . S
O1113 C1124 1.276 . S
O1114 Eu1079 2.432 . S
O1114 C1131 1.264 . S
O1115 Eu1068 2.339 . S
O1115 C1131 1.254 . S
O1116 Eu1068 2.563 . S
O1116 C1124 1.235 . S
O1117 Eu1068 2.419 . S
O1117 C1132 1.249 . S
O1118 Eu1079 2.558 . S
O1118 C1143 1.257 . S
O1119 Eu1068 2.380 . S
O1119 Eu1079 2.612 . S
O1119 C1135 1.276 . S
O1120 Eu1068 2.432 . S
O1120 C1142 1.264 . S
O1121 Eu1079 2.339 . S
O1121 C1142 1.254 . S
O1122 Eu1079 2.563 . S
O1122 C1135 1.235 . S
O1123 Eu1079 2.419 . S
O1123 C1143 1.249 . S
C1124 O1113 1.276 . S
C1124 O1116 1.235 . S
C1125 C1127 1.393 . S
C1125 C1129 1.395 . S
C1125 C1132 1.492 . S
C1126 C1127 1.392 . S
C1126 C1128 1.386 . S
C1127 C1125 1.393 . S
C1127 C1126 1.392 . S
C1127 H1144 0.930 . S
C1128 C1126 1.386 . S
C1128 C1130 1.395 . S
C1128 H1145 0.930 . S
C1129 C1125 1.395 . S
C1129 C1130 1.379 . S
C1129 H1146 0.930 . S
C1130 C1128 1.395 . S
C1130 C1129 1.379 . S
C1130 H1147 0.930 . S
C1131 O1114 1.264 . S
C1131 O1115 1.254 . S
C1132 Eu1068 2.848 . S
C1132 O1112 1.257 . S
C1132 O1117 1.249 . S
C1132 C1125 1.492 . S
C1133 H1098 0.931 . S
C1133 C1111 1.420 . S
C1133 C1134 1.351 . S
C1134 H1096 0.930 . S
C1134 C1102 1.423 . S
C1134 C1133 1.351 . S
C1135 O1119 1.276 . S
C1135 O1122 1.235 . S
C1136 C1137 1.393 . S
C1136 C1140 1.395 . S
C1136 C1143 1.492 . S
C1137 C1136 1.393 . S
C1137 C1138 1.392 . S
C1137 H1148 0.930 . S
C1138 C1137 1.392 . S
C1138 C1139 1.386 . S
C1139 C1138 1.386 . S
C1139 C1141 1.395 . S
C1139 H1149 0.930 . S
C1140 C1136 1.395 . S
C1140 C1141 1.379 . S
C1140 H1150 0.930 . S
C1141 C1139 1.395 . S
C1141 C1140 1.379 . S
C1141 H1151 0.930 . S
C1142 O1120 1.264 . S
C1142 O1121 1.254 . S
C1143 Eu1079 2.848 . S
C1143 O1118 1.257 . S
C1143 O1123 1.249 . S
C1143 C1136 1.492 . S
H1144 C1127 0.930 . S
H1145 C1128 0.930 . S
H1146 C1129 0.930 . S
H1147 C1130 0.930 . S
H1148 C1137 0.930 . S
H1149 C1139 0.930 . S
H1150 C1140 0.930 . S
H1151 C1141 0.930 . S
Eu1152 N1183 2.657 . S
Eu1152 N1190 2.609 . S
Eu1152 O1196 2.558 . S
Eu1152 O1197 2.612 . S
Eu1152 O1199 2.339 . S
Eu1152 O1200 2.563 . S
Eu1152 O1201 2.419 . S
Eu1152 O1203 2.380 . S
Eu1152 O1204 2.432 . S
Eu1152 C1216 2.848 . S
C1153 C1156 1.429 . S
C1153 C1157 1.411 . S
C1153 N1160 1.377 . S
C1154 C1156 1.420 . S
C1154 C1158 1.423 . S
C1154 C1166 1.392 . S
C1155 C1157 1.420 . S
C1155 C1158 1.351 . S
C1155 H1178 0.931 . S
C1156 C1153 1.429 . S
C1156 C1154 1.420 . S
C1156 N1164 1.362 . S
C1157 C1153 1.411 . S
C1157 C1155 1.420 . S
C1157 C1162 1.395 . S
C1158 C1154 1.423 . S
C1158 C1155 1.351 . S
C1158 H1170 0.930 . S
C1159 C1161 1.400 . S
C1159 C1162 1.386 . S
C1159 H1171 0.930 . S
N1160 C1153 1.377 . S
N1160 C1161 1.321 . S
N1160 Eu1163 2.609 . S
C1161 C1159 1.400 . S
C1161 N1160 1.321 . S
C1161 H1168 0.930 . S
C1162 C1157 1.395 . S
C1162 C1159 1.386 . S
C1162 H1181 0.930 . S
Eu1163 N1160 2.609 . S
Eu1163 N1164 2.657 . S
Eu1163 O1197 2.380 . S
Eu1163 O1198 2.432 . S
Eu1163 O1202 2.558 . S
Eu1163 O1203 2.612 . S
Eu1163 O1205 2.339 . S
Eu1163 O1206 2.563 . S
Eu1163 O1207 2.419 . S
Eu1163 C1227 2.848 . S
N1164 C1156 1.362 . S
N1164 Eu1163 2.657 . S
N1164 C1165 1.334 . S
C1165 N1164 1.334 . S
C1165 C1167 1.413 . S
C1165 H1172 0.929 . S
C1166 C1154 1.392 . S
C1166 C1167 1.367 . S
C1166 H1174 0.930 . S
C1167 C1165 1.413 . S
C1167 C1166 1.367 . S
C1167 H1169 0.930 . S
H1168 C1161 0.930 . S
H1169 C1167 0.930 . S
H1170 C1158 0.930 . S
H1171 C1159 0.930 . S
H1172 C1165 0.929 . S
H1173 C1187 0.930 . S
H1174 C1166 0.930 . S
H1175 C1193 0.930 . S
H1176 C1184 0.929 . S
H1177 C1191 0.930 . S
H1178 C1155 0.931 . S
H1179 C1185 0.930 . S
H1180 C1218 0.930 . S
H1181 C1162 0.930 . S
H1182 C1217 0.931 . S
N1183 Eu1152 2.657 . S
N1183 C1184 1.334 . S
N1183 C1188 1.362 . S
C1184 H1176 0.929 . S
C1184 N1183 1.334 . S
C1184 C1187 1.413 . S
C1185 H1179 0.930 . S
C1185 C1186 1.392 . S
C1185 C1187 1.367 . S
C1186 C1185 1.392 . S
C1186 C1188 1.420 . S
C1186 C1218 1.423 . S
C1187 H1173 0.930 . S
C1187 C1184 1.413 . S
C1187 C1185 1.367 . S
C1188 N1183 1.362 . S
C1188 C1186 1.420 . S
C1188 C1192 1.429 . S
H1189 C1194 0.930 . S
N1190 Eu1152 2.609 . S
N1190 C1192 1.377 . S
N1190 C1193 1.321 . S
C1191 H1177 0.930 . S
C1191 C1193 1.400 . S
C1191 C1194 1.386 . S
C1192 C1188 1.429 . S
C1192 N1190 1.377 . S
C1192 C1195 1.411 . S
C1193 H1175 0.930 . S
C1193 N1190 1.321 . S
C1193 C1191 1.400 . S
C1194 H1189 0.930 . S
C1194 C1191 1.386 . S
C1194 C1195 1.395 . S
C1195 C1192 1.411 . S
C1195 C1194 1.395 . S
C1195 C1217 1.420 . S
O1196 Eu1152 2.558 . S
O1196 C1216 1.257 . S
O1197 Eu1152 2.612 . S
O1197 Eu1163 2.380 . S
O1197 C1208 1.276 . S
O1198 Eu1163 2.432 . S
O1198 C1215 1.264 . S
O1199 Eu1152 2.339 . S
O1199 C1215 1.254 . S
O1200 Eu1152 2.563 . S
O1200 C1208 1.235 . S
O1201 Eu1152 2.419 . S
O1201 C1216 1.249 . S
O1202 Eu1163 2.558 . S
O1202 C1227 1.257 . S
O1203 Eu1152 2.380 . S
O1203 Eu1163 2.612 . S
O1203 C1219 1.276 . S
O1204 Eu1152 2.432 . S
O1204 C1226 1.264 . S
O1205 Eu1163 2.339 . S
O1205 C1226 1.254 . S
O1206 Eu1163 2.563 . S
O1206 C1219 1.235 . S
O1207 Eu1163 2.419 . S
O1207 C1227 1.249 . S
C1208 O1197 1.276 . S
C1208 O1200 1.235 . S
C1209 C1211 1.393 . S
C1209 C1213 1.395 . S
C1209 C1216 1.492 . S
C1210 C1211 1.392 . S
C1210 C1212 1.386 . S
C1211 C1209 1.393 . S
C1211 C1210 1.392 . S
C1211 H1228 0.930 . S
C1212 C1210 1.386 . S
C1212 C1214 1.395 . S
C1212 H1229 0.930 . S
C1213 C1209 1.395 . S
C1213 C1214 1.379 . S
C1213 H1230 0.930 . S
C1214 C1212 1.395 . S
C1214 C1213 1.379 . S
C1214 H1231 0.930 . S
C1215 O1198 1.264 . S
C1215 O1199 1.254 . S
C1216 Eu1152 2.848 . S
C1216 O1196 1.257 . S
C1216 O1201 1.249 . S
C1216 C1209 1.492 . S
C1217 H1182 0.931 . S
C1217 C1195 1.420 . S
C1217 C1218 1.351 . S
C1218 H1180 0.930 . S
C1218 C1186 1.423 . S
C1218 C1217 1.351 . S
C1219 O1203 1.276 . S
C1219 O1206 1.235 . S
C1220 C1221 1.393 . S
C1220 C1224 1.395 . S
C1220 C1227 1.492 . S
C1221 C1220 1.393 . S
C1221 C1222 1.392 . S
C1221 H1232 0.930 . S
C1222 C1221 1.392 . S
C1222 C1223 1.386 . S
C1223 C1222 1.386 . S
C1223 C1225 1.395 . S
C1223 H1233 0.930 . S
C1224 C1220 1.395 . S
C1224 C1225 1.379 . S
C1224 H1234 0.930 . S
C1225 C1223 1.395 . S
C1225 C1224 1.379 . S
C1225 H1235 0.930 . S
C1226 O1204 1.264 . S
C1226 O1205 1.254 . S
C1227 Eu1163 2.848 . S
C1227 O1202 1.257 . S
C1227 O1207 1.249 . S
C1227 C1220 1.492 . S
H1228 C1211 0.930 . S
H1229 C1212 0.930 . S
H1230 C1213 0.930 . S
H1231 C1214 0.930 . S
H1232 C1221 0.930 . S
H1233 C1223 0.930 . S
H1234 C1224 0.930 . S
H1235 C1225 0.930 . S
Eu1236 N1267 2.657 . S
Eu1236 N1274 2.609 . S
Eu1236 O1280 2.558 . S
Eu1236 O1281 2.612 . S
Eu1236 O1283 2.339 . S
Eu1236 O1284 2.563 . S
Eu1236 O1285 2.419 . S
Eu1236 O1287 2.380 . S
Eu1236 O1288 2.432 . S
Eu1236 C1300 2.848 . S
C1237 C1240 1.429 . S
C1237 C1241 1.411 . S
C1237 N1244 1.377 . S
C1238 C1240 1.420 . S
C1238 C1242 1.423 . S
C1238 C1250 1.392 . S
C1239 C1241 1.420 . S
C1239 C1242 1.351 . S
C1239 H1262 0.931 . S
C1240 C1237 1.429 . S
C1240 C1238 1.420 . S
C1240 N1248 1.362 . S
C1241 C1237 1.411 . S
C1241 C1239 1.420 . S
C1241 C1246 1.395 . S
C1242 C1238 1.423 . S
C1242 C1239 1.351 . S
C1242 H1254 0.930 . S
C1243 C1245 1.400 . S
C1243 C1246 1.386 . S
C1243 H1255 0.930 . S
N1244 C1237 1.377 . S
N1244 C1245 1.321 . S
N1244 Eu1247 2.609 . S
C1245 C1243 1.400 . S
C1245 N1244 1.321 . S
C1245 H1252 0.930 . S
C1246 C1241 1.395 . S
C1246 C1243 1.386 . S
C1246 H1265 0.930 . S
Eu1247 N1244 2.609 . S
Eu1247 N1248 2.657 . S
Eu1247 O1281 2.380 . S
Eu1247 O1282 2.432 . S
Eu1247 O1286 2.558 . S
Eu1247 O1287 2.612 . S
Eu1247 O1289 2.339 . S
Eu1247 O1290 2.563 . S
Eu1247 O1291 2.419 . S
Eu1247 C1311 2.848 . S
N1248 C1240 1.362 . S
N1248 Eu1247 2.657 . S
N1248 C1249 1.334 . S
C1249 N1248 1.334 . S
C1249 C1251 1.413 . S
C1249 H1256 0.929 . S
C1250 C1238 1.392 . S
C1250 C1251 1.367 . S
C1250 H1258 0.930 . S
C1251 C1249 1.413 . S
C1251 C1250 1.367 . S
C1251 H1253 0.930 . S
H1252 C1245 0.930 . S
H1253 C1251 0.930 . S
H1254 C1242 0.930 . S
H1255 C1243 0.930 . S
H1256 C1249 0.929 . S
H1257 C1271 0.930 . S
H1258 C1250 0.930 . S
H1259 C1277 0.930 . S
H1260 C1268 0.929 . S
H1261 C1275 0.930 . S
H1262 C1239 0.931 . S
H1263 C1269 0.930 . S
H1264 C1302 0.930 . S
H1265 C1246 0.930 . S
H1266 C1301 0.931 . S
N1267 Eu1236 2.657 . S
N1267 C1268 1.334 . S
N1267 C1272 1.362 . S
C1268 H1260 0.929 . S
C1268 N1267 1.334 . S
C1268 C1271 1.413 . S
C1269 H1263 0.930 . S
C1269 C1270 1.392 . S
C1269 C1271 1.367 . S
C1270 C1269 1.392 . S
C1270 C1272 1.420 . S
C1270 C1302 1.423 . S
C1271 H1257 0.930 . S
C1271 C1268 1.413 . S
C1271 C1269 1.367 . S
C1272 N1267 1.362 . S
C1272 C1270 1.420 . S
C1272 C1276 1.429 . S
H1273 C1278 0.930 . S
N1274 Eu1236 2.609 . S
N1274 C1276 1.377 . S
N1274 C1277 1.321 . S
C1275 H1261 0.930 . S
C1275 C1277 1.400 . S
C1275 C1278 1.386 . S
C1276 C1272 1.429 . S
C1276 N1274 1.377 . S
C1276 C1279 1.411 . S
C1277 H1259 0.930 . S
C1277 N1274 1.321 . S
C1277 C1275 1.400 . S
C1278 H1273 0.930 . S
C1278 C1275 1.386 . S
C1278 C1279 1.395 . S
C1279 C1276 1.411 . S
C1279 C1278 1.395 . S
C1279 C1301 1.420 . S
O1280 Eu1236 2.558 . S
O1280 C1300 1.257 . S
O1281 Eu1236 2.612 . S
O1281 Eu1247 2.380 . S
O1281 C1292 1.276 . S
O1282 Eu1247 2.432 . S
O1282 C1299 1.264 . S
O1283 Eu1236 2.339 . S
O1283 C1299 1.254 . S
O1284 Eu1236 2.563 . S
O1284 C1292 1.235 . S
O1285 Eu1236 2.419 . S
O1285 C1300 1.249 . S
O1286 Eu1247 2.558 . S
O1286 C1311 1.257 . S
O1287 Eu1236 2.380 . S
O1287 Eu1247 2.612 . S
O1287 C1303 1.276 . S
O1288 Eu1236 2.432 . S
O1288 C1310 1.264 . S
O1289 Eu1247 2.339 . S
O1289 C1310 1.254 . S
O1290 Eu1247 2.563 . S
O1290 C1303 1.235 . S
O1291 Eu1247 2.419 . S
O1291 C1311 1.249 . S
C1292 O1281 1.276 . S
C1292 O1284 1.235 . S
C1293 C1295 1.393 . S
C1293 C1297 1.395 . S
C1293 C1300 1.492 . S
C1294 C1295 1.392 . S
C1294 C1296 1.386 . S
C1295 C1293 1.393 . S
C1295 C1294 1.392 . S
C1295 H1312 0.930 . S
C1296 C1294 1.386 . S
C1296 C1298 1.395 . S
C1296 H1313 0.930 . S
C1297 C1293 1.395 . S
C1297 C1298 1.379 . S
C1297 H1314 0.930 . S
C1298 C1296 1.395 . S
C1298 C1297 1.379 . S
C1298 H1315 0.930 . S
C1299 O1282 1.264 . S
C1299 O1283 1.254 . S
C1300 Eu1236 2.848 . S
C1300 O1280 1.257 . S
C1300 O1285 1.249 . S
C1300 C1293 1.492 . S
C1301 H1266 0.931 . S
C1301 C1279 1.420 . S
C1301 C1302 1.351 . S
C1302 H1264 0.930 . S
C1302 C1270 1.423 . S
C1302 C1301 1.351 . S
C1303 O1287 1.276 . S
C1303 O1290 1.235 . S
C1304 C1305 1.393 . S
C1304 C1308 1.395 . S
C1304 C1311 1.492 . S
C1305 C1304 1.393 . S
C1305 C1306 1.392 . S
C1305 H1316 0.930 . S
C1306 C1305 1.392 . S
C1306 C1307 1.386 . S
C1307 C1306 1.386 . S
C1307 C1309 1.395 . S
C1307 H1317 0.930 . S
C1308 C1304 1.395 . S
C1308 C1309 1.379 . S
C1308 H1318 0.930 . S
C1309 C1307 1.395 . S
C1309 C1308 1.379 . S
C1309 H1319 0.930 . S
C1310 O1288 1.264 . S
C1310 O1289 1.254 . S
C1311 Eu1247 2.848 . S
C1311 O1286 1.257 . S
C1311 O1291 1.249 . S
C1311 C1304 1.492 . S
H1312 C1295 0.930 . S
H1313 C1296 0.930 . S
H1314 C1297 0.930 . S
H1315 C1298 0.930 . S
H1316 C1305 0.930 . S
H1317 C1307 0.930 . S
H1318 C1308 0.930 . S
H1319 C1309 0.930 . S
Eu1320 N1351 2.657 . S
Eu1320 N1358 2.609 . S
Eu1320 O1364 2.558 . S
Eu1320 O1365 2.612 . S
Eu1320 O1367 2.339 . S
Eu1320 O1368 2.563 . S
Eu1320 O1369 2.419 . S
Eu1320 O1371 2.380 . S
Eu1320 O1372 2.432 . S
Eu1320 C1384 2.848 . S
C1321 C1324 1.429 . S
C1321 C1325 1.411 . S
C1321 N1328 1.377 . S
C1322 C1324 1.420 . S
C1322 C1326 1.423 . S
C1322 C1334 1.392 . S
C1323 C1325 1.420 . S
C1323 C1326 1.351 . S
C1323 H1346 0.931 . S
C1324 C1321 1.429 . S
C1324 C1322 1.420 . S
C1324 N1332 1.362 . S
C1325 C1321 1.411 . S
C1325 C1323 1.420 . S
C1325 C1330 1.395 . S
C1326 C1322 1.423 . S
C1326 C1323 1.351 . S
C1326 H1338 0.930 . S
C1327 C1329 1.400 . S
C1327 C1330 1.386 . S
C1327 H1339 0.930 . S
N1328 C1321 1.377 . S
N1328 C1329 1.321 . S
N1328 Eu1331 2.609 . S
C1329 C1327 1.400 . S
C1329 N1328 1.321 . S
C1329 H1336 0.930 . S
C1330 C1325 1.395 . S
C1330 C1327 1.386 . S
C1330 H1349 0.930 . S
Eu1331 N1328 2.609 . S
Eu1331 N1332 2.657 . S
Eu1331 O1365 2.380 . S
Eu1331 O1366 2.432 . S
Eu1331 O1370 2.558 . S
Eu1331 O1371 2.612 . S
Eu1331 O1373 2.339 . S
Eu1331 O1374 2.563 . S
Eu1331 O1375 2.419 . S
Eu1331 C1395 2.848 . S
N1332 C1324 1.362 . S
N1332 Eu1331 2.657 . S
N1332 C1333 1.334 . S
C1333 N1332 1.334 . S
C1333 C1335 1.413 . S
C1333 H1340 0.929 . S
C1334 C1322 1.392 . S
C1334 C1335 1.367 . S
C1334 H1342 0.930 . S
C1335 C1333 1.413 . S
C1335 C1334 1.367 . S
C1335 H1337 0.930 . S
H1336 C1329 0.930 . S
H1337 C1335 0.930 . S
H1338 C1326 0.930 . S
H1339 C1327 0.930 . S
H1340 C1333 0.929 . S
H1341 C1355 0.930 . S
H1342 C1334 0.930 . S
H1343 C1361 0.930 . S
H1344 C1352 0.929 . S
H1345 C1359 0.930 . S
H1346 C1323 0.931 . S
H1347 C1353 0.930 . S
H1348 C1386 0.930 . S
H1349 C1330 0.930 . S
H1350 C1385 0.931 . S
N1351 Eu1320 2.657 . S
N1351 C1352 1.334 . S
N1351 C1356 1.362 . S
C1352 H1344 0.929 . S
C1352 N1351 1.334 . S
C1352 C1355 1.413 . S
C1353 H1347 0.930 . S
C1353 C1354 1.392 . S
C1353 C1355 1.367 . S
C1354 C1353 1.392 . S
C1354 C1356 1.420 . S
C1354 C1386 1.423 . S
C1355 H1341 0.930 . S
C1355 C1352 1.413 . S
C1355 C1353 1.367 . S
C1356 N1351 1.362 . S
C1356 C1354 1.420 . S
C1356 C1360 1.429 . S
H1357 C1362 0.930 . S
N1358 Eu1320 2.609 . S
N1358 C1360 1.377 . S
N1358 C1361 1.321 . S
C1359 H1345 0.930 . S
C1359 C1361 1.400 . S
C1359 C1362 1.386 . S
C1360 C1356 1.429 . S
C1360 N1358 1.377 . S
C1360 C1363 1.411 . S
C1361 H1343 0.930 . S
C1361 N1358 1.321 . S
C1361 C1359 1.400 . S
C1362 H1357 0.930 . S
C1362 C1359 1.386 . S
C1362 C1363 1.395 . S
C1363 C1360 1.411 . S
C1363 C1362 1.395 . S
C1363 C1385 1.420 . S
O1364 Eu1320 2.558 . S
O1364 C1384 1.257 . S
O1365 Eu1320 2.612 . S
O1365 Eu1331 2.380 . S
O1365 C1376 1.276 . S
O1366 Eu1331 2.432 . S
O1366 C1383 1.264 . S
O1367 Eu1320 2.339 . S
O1367 C1383 1.254 . S
O1368 Eu1320 2.563 . S
O1368 C1376 1.235 . S
O1369 Eu1320 2.419 . S
O1369 C1384 1.249 . S
O1370 Eu1331 2.558 . S
O1370 C1395 1.257 . S
O1371 Eu1320 2.380 . S
O1371 Eu1331 2.612 . S
O1371 C1387 1.276 . S
O1372 Eu1320 2.432 . S
O1372 C1394 1.264 . S
O1373 Eu1331 2.339 . S
O1373 C1394 1.254 . S
O1374 Eu1331 2.563 . S
O1374 C1387 1.235 . S
O1375 Eu1331 2.419 . S
O1375 C1395 1.249 . S
C1376 O1365 1.276 . S
C1376 O1368 1.235 . S
C1377 C1379 1.393 . S
C1377 C1381 1.395 . S
C1377 C1384 1.492 . S
C1378 C1379 1.392 . S
C1378 C1380 1.386 . S
C1379 C1377 1.393 . S
C1379 C1378 1.392 . S
C1379 H1396 0.930 . S
C1380 C1378 1.386 . S
C1380 C1382 1.395 . S
C1380 H1397 0.930 . S
C1381 C1377 1.395 . S
C1381 C1382 1.379 . S
C1381 H1398 0.930 . S
C1382 C1380 1.395 . S
C1382 C1381 1.379 . S
C1382 H1399 0.930 . S
C1383 O1366 1.264 . S
C1383 O1367 1.254 . S
C1384 Eu1320 2.848 . S
C1384 O1364 1.257 . S
C1384 O1369 1.249 . S
C1384 C1377 1.492 . S
C1385 H1350 0.931 . S
C1385 C1363 1.420 . S
C1385 C1386 1.351 . S
C1386 H1348 0.930 . S
C1386 C1354 1.423 . S
C1386 C1385 1.351 . S
C1387 O1371 1.276 . S
C1387 O1374 1.235 . S
C1388 C1389 1.393 . S
C1388 C1392 1.395 . S
C1388 C1395 1.492 . S
C1389 C1388 1.393 . S
C1389 C1390 1.392 . S
C1389 H1400 0.930 . S
C1390 C1389 1.392 . S
C1390 C1391 1.386 . S
C1391 C1390 1.386 . S
C1391 C1393 1.395 . S
C1391 H1401 0.930 . S
C1392 C1388 1.395 . S
C1392 C1393 1.379 . S
C1392 H1402 0.930 . S
C1393 C1391 1.395 . S
C1393 C1392 1.379 . S
C1393 H1403 0.930 . S
C1394 O1372 1.264 . S
C1394 O1373 1.254 . S
C1395 Eu1331 2.848 . S
C1395 O1370 1.257 . S
C1395 O1375 1.249 . S
C1395 C1388 1.492 . S
H1396 C1379 0.930 . S
H1397 C1380 0.930 . S
H1398 C1381 0.930 . S
H1399 C1382 0.930 . S
H1400 C1389 0.930 . S
H1401 C1391 0.930 . S
H1402 C1392 0.930 . S
H1403 C1393 0.930 . S
H1404 C1412 0.929 . S
H1405 C1414 0.930 . S
H1406 C1416 0.930 . S
H1407 C1419 0.929 . S
H1408 C1422 0.930 . S
H1409 C1424 0.960 . S
H1410 C1424 0.960 . S
H1411 C1424 0.960 . S
C1412 H1404 0.929 . S
C1412 C1413 1.377 . S
C1412 C1414 1.384 . S
C1413 C1412 1.377 . S
C1413 C1419 1.390 . S
C1414 H1405 0.930 . S
C1414 C1412 1.384 . S
C1414 C1415 1.372 . S
C1415 C1414 1.372 . S
C1415 C1416 1.400 . S
C1415 C1420 1.490 . S
C1416 H1406 0.930 . S
C1416 C1415 1.400 . S
C1416 C1419 1.386 . S
H1417 C1433 0.930 . S
H1418 C1434 0.931 . S
C1419 H1407 0.929 . S
C1419 C1413 1.390 . S
C1419 C1416 1.386 . S
C1420 C1415 1.490 . S
C1420 C1422 1.395 . S
C1420 C1423 1.403 . S
H1421 C1427 0.930 . S
C1422 H1408 0.930 . S
C1422 C1420 1.395 . S
C1422 C1425 1.403 . S
C1423 C1420 1.403 . S
C1423 C1424 1.524 . S
C1423 C1427 1.400 . S
C1424 H1409 0.960 . S
C1424 H1410 0.960 . S
C1424 H1411 0.960 . S
C1424 C1423 1.524 . S
C1425 C1422 1.403 . S
C1425 C1426 1.392 . S
C1425 C1429 1.495 . S
C1426 C1425 1.392 . S
C1426 C1427 1.385 . S
C1426 C1428 1.478 . S
C1427 H1421 0.930 . S
C1427 C1423 1.400 . S
C1427 C1426 1.385 . S
C1428 C1426 1.478 . S
C1428 C1430 1.381 . S
C1428 C1434 1.383 . S
C1429 C1425 1.495 . S
C1429 H1435 0.959 . S
C1429 H1436 0.961 . S
C1429 H1437 0.960 . S
C1430 C1428 1.381 . S
C1430 C1431 1.394 . S
C1430 H1438 0.930 . S
C1431 C1430 1.394 . S
C1431 C1432 1.383 . S
C1431 H1439 0.929 . S
C1432 C1431 1.383 . S
C1432 C1433 1.377 . S
C1433 H1417 0.930 . S
C1433 C1432 1.377 . S
C1433 C1434 1.379 . S
C1434 H1418 0.931 . S
C1434 C1428 1.383 . S
C1434 C1433 1.379 . S
H1435 C1429 0.959 . S
H1436 C1429 0.961 . S
H1437 C1429 0.960 . S
H1438 C1430 0.930 . S
H1439 C1431 0.929 . S
H1440 C1448 0.929 . S
H1441 C1450 0.930 . S
H1442 C1452 0.930 . S
H1443 C1455 0.929 . S
H1444 C1458 0.930 . S
H1445 C1460 0.960 . S
H1446 C1460 0.960 . S
H1447 C1460 0.960 . S
C1448 H1440 0.929 . S
C1448 C1449 1.377 . S
C1448 C1450 1.384 . S
C1449 C1448 1.377 . S
C1449 C1455 1.390 . S
C1450 H1441 0.930 . S
C1450 C1448 1.384 . S
C1450 C1451 1.372 . S
C1451 C1450 1.372 . S
C1451 C1452 1.400 . S
C1451 C1456 1.490 . S
C1452 H1442 0.930 . S
C1452 C1451 1.400 . S
C1452 C1455 1.386 . S
H1453 C1469 0.930 . S
H1454 C1470 0.931 . S
C1455 H1443 0.929 . S
C1455 C1449 1.390 . S
C1455 C1452 1.386 . S
C1456 C1451 1.490 . S
C1456 C1458 1.395 . S
C1456 C1459 1.403 . S
H1457 C1463 0.930 . S
C1458 H1444 0.930 . S
C1458 C1456 1.395 . S
C1458 C1461 1.403 . S
C1459 C1456 1.403 . S
C1459 C1460 1.524 . S
C1459 C1463 1.400 . S
C1460 H1445 0.960 . S
C1460 H1446 0.960 . S
C1460 H1447 0.960 . S
C1460 C1459 1.524 . S
C1461 C1458 1.403 . S
C1461 C1462 1.392 . S
C1461 C1465 1.495 . S
C1462 C1461 1.392 . S
C1462 C1463 1.385 . S
C1462 C1464 1.478 . S
C1463 H1457 0.930 . S
C1463 C1459 1.400 . S
C1463 C1462 1.385 . S
C1464 C1462 1.478 . S
C1464 C1466 1.381 . S
C1464 C1470 1.383 . S
C1465 C1461 1.495 . S
C1465 H1471 0.959 . S
C1465 H1472 0.961 . S
C1465 H1473 0.960 . S
C1466 C1464 1.381 . S
C1466 C1467 1.394 . S
C1466 H1474 0.930 . S
C1467 C1466 1.394 . S
C1467 C1468 1.383 . S
C1467 H1475 0.929 . S
C1468 C1467 1.383 . S
C1468 C1469 1.377 . S
C1469 H1453 0.930 . S
C1469 C1468 1.377 . S
C1469 C1470 1.379 . S
C1470 H1454 0.931 . S
C1470 C1464 1.383 . S
C1470 C1469 1.379 . S
H1471 C1465 0.959 . S
H1472 C1465 0.961 . S
H1473 C1465 0.960 . S
H1474 C1466 0.930 . S
H1475 C1467 0.929 . S
H1476 C1484 0.929 . S
H1477 C1486 0.930 . S
H1478 C1488 0.930 . S
H1479 C1491 0.929 . S
H1480 C1494 0.930 . S
H1481 C1496 0.960 . S
H1482 C1496 0.960 . S
H1483 C1496 0.960 . S
C1484 H1476 0.929 . S
C1484 C1485 1.377 . S
C1484 C1486 1.384 . S
C1485 C1484 1.377 . S
C1485 C1491 1.390 . S
C1486 H1477 0.930 . S
C1486 C1484 1.384 . S
C1486 C1487 1.372 . S
C1487 C1486 1.372 . S
C1487 C1488 1.400 . S
C1487 C1492 1.490 . S
C1488 H1478 0.930 . S
C1488 C1487 1.400 . S
C1488 C1491 1.386 . S
H1489 C1505 0.930 . S
H1490 C1506 0.931 . S
C1491 H1479 0.929 . S
C1491 C1485 1.390 . S
C1491 C1488 1.386 . S
C1492 C1487 1.490 . S
C1492 C1494 1.395 . S
C1492 C1495 1.403 . S
H1493 C1499 0.930 . S
C1494 H1480 0.930 . S
C1494 C1492 1.395 . S
C1494 C1497 1.403 . S
C1495 C1492 1.403 . S
C1495 C1496 1.524 . S
C1495 C1499 1.400 . S
C1496 H1481 0.960 . S
C1496 H1482 0.960 . S
C1496 H1483 0.960 . S
C1496 C1495 1.524 . S
C1497 C1494 1.403 . S
C1497 C1498 1.392 . S
C1497 C1501 1.495 . S
C1498 C1497 1.392 . S
C1498 C1499 1.385 . S
C1498 C1500 1.478 . S
C1499 H1493 0.930 . S
C1499 C1495 1.400 . S
C1499 C1498 1.385 . S
C1500 C1498 1.478 . S
C1500 C1502 1.381 . S
C1500 C1506 1.383 . S
C1501 C1497 1.495 . S
C1501 H1507 0.959 . S
C1501 H1508 0.961 . S
C1501 H1509 0.960 . S
C1502 C1500 1.381 . S
C1502 C1503 1.394 . S
C1502 H1510 0.930 . S
C1503 C1502 1.394 . S
C1503 C1504 1.383 . S
C1503 H1511 0.929 . S
C1504 C1503 1.383 . S
C1504 C1505 1.377 . S
C1505 H1489 0.930 . S
C1505 C1504 1.377 . S
C1505 C1506 1.379 . S
C1506 H1490 0.931 . S
C1506 C1500 1.383 . S
C1506 C1505 1.379 . S
H1507 C1501 0.959 . S
H1508 C1501 0.961 . S
H1509 C1501 0.960 . S
H1510 C1502 0.930 . S
H1511 C1503 0.929 . S
H1512 C1520 0.929 . S
H1513 C1522 0.930 . S
H1514 C1524 0.930 . S
H1515 C1527 0.929 . S
H1516 C1530 0.930 . S
H1517 C1532 0.960 . S
H1518 C1532 0.960 . S
H1519 C1532 0.960 . S
C1520 H1512 0.929 . S
C1520 C1521 1.377 . S
C1520 C1522 1.384 . S
C1521 C1520 1.377 . S
C1521 C1527 1.390 . S
C1522 H1513 0.930 . S
C1522 C1520 1.384 . S
C1522 C1523 1.372 . S
C1523 C1522 1.372 . S
C1523 C1524 1.400 . S
C1523 C1528 1.490 . S
C1524 H1514 0.930 . S
C1524 C1523 1.400 . S
C1524 C1527 1.386 . S
H1525 C1541 0.930 . S
H1526 C1542 0.931 . S
C1527 H1515 0.929 . S
C1527 C1521 1.390 . S
C1527 C1524 1.386 . S
C1528 C1523 1.490 . S
C1528 C1530 1.395 . S
C1528 C1531 1.403 . S
H1529 C1535 0.930 . S
C1530 H1516 0.930 . S
C1530 C1528 1.395 . S
C1530 C1533 1.403 . S
C1531 C1528 1.403 . S
C1531 C1532 1.524 . S
C1531 C1535 1.400 . S
C1532 H1517 0.960 . S
C1532 H1518 0.960 . S
C1532 H1519 0.960 . S
C1532 C1531 1.524 . S
C1533 C1530 1.403 . S
C1533 C1534 1.392 . S
C1533 C1537 1.495 . S
C1534 C1533 1.392 . S
C1534 C1535 1.385 . S
C1534 C1536 1.478 . S
C1535 H1529 0.930 . S
C1535 C1531 1.400 . S
C1535 C1534 1.385 . S
C1536 C1534 1.478 . S
C1536 C1538 1.381 . S
C1536 C1542 1.383 . S
C1537 C1533 1.495 . S
C1537 H1543 0.959 . S
C1537 H1544 0.961 . S
C1537 H1545 0.960 . S
C1538 C1536 1.381 . S
C1538 C1539 1.394 . S
C1538 H1546 0.930 . S
C1539 C1538 1.394 . S
C1539 C1540 1.383 . S
C1539 H1547 0.929 . S
C1540 C1539 1.383 . S
C1540 C1541 1.377 . S
C1541 H1525 0.930 . S
C1541 C1540 1.377 . S
C1541 C1542 1.379 . S
C1542 H1526 0.931 . S
C1542 C1536 1.383 . S
C1542 C1541 1.379 . S
H1543 C1537 0.959 . S
H1544 C1537 0.961 . S
H1545 C1537 0.960 . S
H1546 C1538 0.930 . S
H1547 C1539 0.929 . S
H1548 C1556 0.929 . S
H1549 C1558 0.930 . S
H1550 C1560 0.930 . S
H1551 C1563 0.929 . S
H1552 C1566 0.930 . S
H1553 C1568 0.960 . S
H1554 C1568 0.960 . S
H1555 C1568 0.960 . S
C1556 H1548 0.929 . S
C1556 C1557 1.377 . S
C1556 C1558 1.384 . S
C1557 C1556 1.377 . S
C1557 C1563 1.390 . S
C1558 H1549 0.930 . S
C1558 C1556 1.384 . S
C1558 C1559 1.372 . S
C1559 C1558 1.372 . S
C1559 C1560 1.400 . S
C1559 C1564 1.490 . S
C1560 H1550 0.930 . S
C1560 C1559 1.400 . S
C1560 C1563 1.386 . S
H1561 C1577 0.930 . S
H1562 C1578 0.931 . S
C1563 H1551 0.929 . S
C1563 C1557 1.390 . S
C1563 C1560 1.386 . S
C1564 C1559 1.490 . S
C1564 C1566 1.395 . S
C1564 C1567 1.403 . S
H1565 C1571 0.930 . S
C1566 H1552 0.930 . S
C1566 C1564 1.395 . S
C1566 C1569 1.403 . S
C1567 C1564 1.403 . S
C1567 C1568 1.524 . S
C1567 C1571 1.400 . S
C1568 H1553 0.960 . S
C1568 H1554 0.960 . S
C1568 H1555 0.960 . S
C1568 C1567 1.524 . S
C1569 C1566 1.403 . S
C1569 C1570 1.392 . S
C1569 C1573 1.495 . S
C1570 C1569 1.392 . S
C1570 C1571 1.385 . S
C1570 C1572 1.478 . S
C1571 H1565 0.930 . S
C1571 C1567 1.400 . S
C1571 C1570 1.385 . S
C1572 C1570 1.478 . S
C1572 C1574 1.381 . S
C1572 C1578 1.383 . S
C1573 C1569 1.495 . S
C1573 H1579 0.959 . S
C1573 H1580 0.961 . S
C1573 H1581 0.960 . S
C1574 C1572 1.381 . S
C1574 C1575 1.394 . S
C1574 H1582 0.930 . S
C1575 C1574 1.394 . S
C1575 C1576 1.383 . S
C1575 H1583 0.929 . S
C1576 C1575 1.383 . S
C1576 C1577 1.377 . S
C1577 H1561 0.930 . S
C1577 C1576 1.377 . S
C1577 C1578 1.379 . S
C1578 H1562 0.931 . S
C1578 C1572 1.383 . S
C1578 C1577 1.379 . S
H1579 C1573 0.959 . S
H1580 C1573 0.961 . S
H1581 C1573 0.960 . S
H1582 C1574 0.930 . S
H1583 C1575 0.929 . S
H1584 C1592 0.929 . S
H1585 C1594 0.930 . S
H1586 C1596 0.930 . S
H1587 C1599 0.929 . S
H1588 C1602 0.930 . S
H1589 C1604 0.960 . S
H1590 C1604 0.960 . S
H1591 C1604 0.960 . S
C1592 H1584 0.929 . S
C1592 C1593 1.377 . S
C1592 C1594 1.384 . S
C1593 C1592 1.377 . S
C1593 C1599 1.390 . S
C1594 H1585 0.930 . S
C1594 C1592 1.384 . S
C1594 C1595 1.372 . S
C1595 C1594 1.372 . S
C1595 C1596 1.400 . S
C1595 C1600 1.490 . S
C1596 H1586 0.930 . S
C1596 C1595 1.400 . S
C1596 C1599 1.386 . S
H1597 C1613 0.930 1_554 S
H1598 C1614 0.931 . S
C1599 H1587 0.929 . S
C1599 C1593 1.390 . S
C1599 C1596 1.386 . S
C1600 C1595 1.490 . S
C1600 C1602 1.395 . S
C1600 C1603 1.403 . S
H1601 C1607 0.930 . S
C1602 H1588 0.930 . S
C1602 C1600 1.395 . S
C1602 C1605 1.403 . S
C1603 C1600 1.403 . S
C1603 C1604 1.524 . S
C1603 C1607 1.400 . S
C1604 H1589 0.960 . S
C1604 H1590 0.960 . S
C1604 H1591 0.960 . S
C1604 C1603 1.524 . S
C1605 C1602 1.403 . S
C1605 C1606 1.392 . S
C1605 C1609 1.495 . S
C1606 C1605 1.392 . S
C1606 C1607 1.385 . S
C1606 C1608 1.478 . S
C1607 H1601 0.930 . S
C1607 C1603 1.400 . S
C1607 C1606 1.385 . S
C1608 C1606 1.478 . S
C1608 C1610 1.381 . S
C1608 C1614 1.383 . S
C1609 C1605 1.495 . S
C1609 H1615 0.959 . S
C1609 H1616 0.961 . S
C1609 H1617 0.960 . S
C1610 C1608 1.381 . S
C1610 C1611 1.394 . S
C1610 H1618 0.930 . S
C1611 C1610 1.394 . S
C1611 C1612 1.383 . S
C1611 H1619 0.929 . S
C1612 C1611 1.383 . S
C1612 C1613 1.377 . S
C1613 H1597 0.930 1_556 S
C1613 C1612 1.377 . S
C1613 C1614 1.379 . S
C1614 H1598 0.931 . S
C1614 C1608 1.383 . S
C1614 C1613 1.379 . S
H1615 C1609 0.959 . S
H1616 C1609 0.961 . S
H1617 C1609 0.960 . S
H1618 C1610 0.930 . S
H1619 C1611 0.929 . S
H1620 C1628 0.929 . S
H1621 C1630 0.930 . S
H1622 C1632 0.930 . S
H1623 C1635 0.929 . S
H1624 C1638 0.930 . S
H1625 C1640 0.960 . S
H1626 C1640 0.960 . S
H1627 C1640 0.960 . S
C1628 H1620 0.929 . S
C1628 C1629 1.377 . S
C1628 C1630 1.384 . S
C1629 C1628 1.377 . S
C1629 C1635 1.390 . S
C1630 H1621 0.930 . S
C1630 C1628 1.384 . S
C1630 C1631 1.372 . S
C1631 C1630 1.372 . S
C1631 C1632 1.400 . S
C1631 C1636 1.490 . S
C1632 H1622 0.930 . S
C1632 C1631 1.400 . S
C1632 C1635 1.386 . S
H1633 C1649 0.930 . S
H1634 C1650 0.931 . S
C1635 H1623 0.929 . S
C1635 C1629 1.390 . S
C1635 C1632 1.386 . S
C1636 C1631 1.490 . S
C1636 C1638 1.395 . S
C1636 C1639 1.403 . S
H1637 C1643 0.930 . S
C1638 H1624 0.930 . S
C1638 C1636 1.395 . S
C1638 C1641 1.403 . S
C1639 C1636 1.403 . S
C1639 C1640 1.524 . S
C1639 C1643 1.400 . S
C1640 H1625 0.960 . S
C1640 H1626 0.960 . S
C1640 H1627 0.960 . S
C1640 C1639 1.524 . S
C1641 C1638 1.403 . S
C1641 C1642 1.392 . S
C1641 C1645 1.495 . S
C1642 C1641 1.392 . S
C1642 C1643 1.385 . S
C1642 C1644 1.478 . S
C1643 H1637 0.930 . S
C1643 C1639 1.400 . S
C1643 C1642 1.385 . S
C1644 C1642 1.478 . S
C1644 C1646 1.381 . S
C1644 C1650 1.383 . S
C1645 C1641 1.495 . S
C1645 H1651 0.959 . S
C1645 H1652 0.961 . S
C1645 H1653 0.960 . S
C1646 C1644 1.381 . S
C1646 C1647 1.394 . S
C1646 H1654 0.930 . S
C1647 C1646 1.394 . S
C1647 C1648 1.383 . S
C1647 H1655 0.929 . S
C1648 C1647 1.383 . S
C1648 C1649 1.377 . S
C1649 H1633 0.930 . S
C1649 C1648 1.377 . S
C1649 C1650 1.379 . S
C1650 H1634 0.931 . S
C1650 C1644 1.383 . S
C1650 C1649 1.379 . S
H1651 C1645 0.959 . S
H1652 C1645 0.961 . S
H1653 C1645 0.960 . S
H1654 C1646 0.930 . S
H1655 C1647 0.929 . S
H1656 C1664 0.929 . S
H1657 C1666 0.930 . S
H1658 C1668 0.930 . S
H1659 C1671 0.929 . S
H1660 C1674 0.930 . S
H1661 C1676 0.960 . S
H1662 C1676 0.960 . S
H1663 C1676 0.960 . S
C1664 H1656 0.929 . S
C1664 C1665 1.377 . S
C1664 C1666 1.384 . S
C1665 C1664 1.377 . S
C1665 C1671 1.390 . S
C1666 H1657 0.930 . S
C1666 C1664 1.384 . S
C1666 C1667 1.372 . S
C1667 C1666 1.372 . S
C1667 C1668 1.400 . S
C1667 C1672 1.490 . S
C1668 H1658 0.930 . S
C1668 C1667 1.400 . S
C1668 C1671 1.386 . S
H1669 C1685 0.930 . S
H1670 C1686 0.931 . S
C1671 H1659 0.929 . S
C1671 C1665 1.390 . S
C1671 C1668 1.386 . S
C1672 C1667 1.490 . S
C1672 C1674 1.395 . S
C1672 C1675 1.403 . S
H1673 C1679 0.930 . S
C1674 H1660 0.930 . S
C1674 C1672 1.395 . S
C1674 C1677 1.403 . S
C1675 C1672 1.403 . S
C1675 C1676 1.524 . S
C1675 C1679 1.400 . S
C1676 H1661 0.960 . S
C1676 H1662 0.960 . S
C1676 H1663 0.960 . S
C1676 C1675 1.524 . S
C1677 C1674 1.403 . S
C1677 C1678 1.392 . S
C1677 C1681 1.495 . S
C1678 C1677 1.392 . S
C1678 C1679 1.385 . S
C1678 C1680 1.478 . S
C1679 H1673 0.930 . S
C1679 C1675 1.400 . S
C1679 C1678 1.385 . S
C1680 C1678 1.478 . S
C1680 C1682 1.381 . S
C1680 C1686 1.383 . S
C1681 C1677 1.495 . S
C1681 H1687 0.959 . S
C1681 H1688 0.961 . S
C1681 H1689 0.960 . S
C1682 C1680 1.381 . S
C1682 C1683 1.394 . S
C1682 H1690 0.930 . S
C1683 C1682 1.394 . S
C1683 C1684 1.383 . S
C1683 H1691 0.929 . S
C1684 C1683 1.383 . S
C1684 C1685 1.377 . S
C1685 H1669 0.930 . S
C1685 C1684 1.377 . S
C1685 C1686 1.379 . S
C1686 H1670 0.931 . S
C1686 C1680 1.383 . S
C1686 C1685 1.379 . S
H1687 C1681 0.959 . S
H1688 C1681 0.961 . S
H1689 C1681 0.960 . S
H1690 C1682 0.930 . S
H1691 C1683 0.929 . S
H1692 C1700 0.929 . S
H1693 C1702 0.930 . S
H1694 C1704 0.930 . S
H1695 C1707 0.929 . S
H1696 C1710 0.930 . S
H1697 C1712 0.960 . S
H1698 C1712 0.960 . S
H1699 C1712 0.960 . S
C1700 H1692 0.929 . S
C1700 C1701 1.377 . S
C1700 C1702 1.384 . S
C1701 C1700 1.377 . S
C1701 C1707 1.390 . S
C1702 H1693 0.930 . S
C1702 C1700 1.384 . S
C1702 C1703 1.372 . S
C1703 C1702 1.372 . S
C1703 C1704 1.400 . S
C1703 C1708 1.490 . S
C1704 H1694 0.930 . S
C1704 C1703 1.400 . S
C1704 C1707 1.386 . S
H1705 C1721 0.930 . S
H1706 C1722 0.931 . S
C1707 H1695 0.929 . S
C1707 C1701 1.390 . S
C1707 C1704 1.386 . S
C1708 C1703 1.490 . S
C1708 C1710 1.395 . S
C1708 C1711 1.403 . S
H1709 C1715 0.930 . S
C1710 H1696 0.930 . S
C1710 C1708 1.395 . S
C1710 C1713 1.403 . S
C1711 C1708 1.403 . S
C1711 C1712 1.524 . S
C1711 C1715 1.400 . S
C1712 H1697 0.960 . S
C1712 H1698 0.960 . S
C1712 H1699 0.960 . S
C1712 C1711 1.524 . S
C1713 C1710 1.403 . S
C1713 C1714 1.392 . S
C1713 C1717 1.495 . S
C1714 C1713 1.392 . S
C1714 C1715 1.385 . S
C1714 C1716 1.478 . S
C1715 H1709 0.930 . S
C1715 C1711 1.400 . S
C1715 C1714 1.385 . S
C1716 C1714 1.478 . S
C1716 C1718 1.381 . S
C1716 C1722 1.383 . S
C1717 C1713 1.495 . S
C1717 H1723 0.959 . S
C1717 H1724 0.961 . S
C1717 H1725 0.960 . S
C1718 C1716 1.381 . S
C1718 C1719 1.394 . S
C1718 H1726 0.930 . S
C1719 C1718 1.394 . S
C1719 C1720 1.383 . S
C1719 H1727 0.929 . S
C1720 C1719 1.383 . S
C1720 C1721 1.377 . S
C1721 H1705 0.930 . S
C1721 C1720 1.377 . S
C1721 C1722 1.379 . S
C1722 H1706 0.931 . S
C1722 C1716 1.383 . S
C1722 C1721 1.379 . S
H1723 C1717 0.959 . S
H1724 C1717 0.961 . S
H1725 C1717 0.960 . S
H1726 C1718 0.930 . S
H1727 C1719 0.929 . S
H1728 C1736 0.929 . S
H1729 C1738 0.930 . S
H1730 C1740 0.930 . S
H1731 C1743 0.929 . S
H1732 C1746 0.930 . S
H1733 C1748 0.960 . S
H1734 C1748 0.960 . S
H1735 C1748 0.960 . S
C1736 H1728 0.929 . S
C1736 C1737 1.377 . S
C1736 C1738 1.384 . S
C1737 C1736 1.377 . S
C1737 C1743 1.390 . S
C1738 H1729 0.930 . S
C1738 C1736 1.384 . S
C1738 C1739 1.372 . S
C1739 C1738 1.372 . S
C1739 C1740 1.400 . S
C1739 C1744 1.490 . S
C1740 H1730 0.930 . S
C1740 C1739 1.400 . S
C1740 C1743 1.386 . S
H1741 C1757 0.930 . S
H1742 C1758 0.931 . S
C1743 H1731 0.929 . S
C1743 C1737 1.390 . S
C1743 C1740 1.386 . S
C1744 C1739 1.490 . S
C1744 C1746 1.395 . S
C1744 C1747 1.403 . S
H1745 C1751 0.930 . S
C1746 H1732 0.930 . S
C1746 C1744 1.395 . S
C1746 C1749 1.403 . S
C1747 C1744 1.403 . S
C1747 C1748 1.524 . S
C1747 C1751 1.400 . S
C1748 H1733 0.960 . S
C1748 H1734 0.960 . S
C1748 H1735 0.960 . S
C1748 C1747 1.524 . S
C1749 C1746 1.403 . S
C1749 C1750 1.392 . S
C1749 C1753 1.495 . S
C1750 C1749 1.392 . S
C1750 C1751 1.385 . S
C1750 C1752 1.478 . S
C1751 H1745 0.930 . S
C1751 C1747 1.400 . S
C1751 C1750 1.385 . S
C1752 C1750 1.478 . S
C1752 C1754 1.381 . S
C1752 C1758 1.383 . S
C1753 C1749 1.495 . S
C1753 H1759 0.959 . S
C1753 H1760 0.961 . S
C1753 H1761 0.960 . S
C1754 C1752 1.381 . S
C1754 C1755 1.394 . S
C1754 H1762 0.930 . S
C1755 C1754 1.394 . S
C1755 C1756 1.383 . S
C1755 H1763 1.004 . S
C1756 C1755 1.383 . S
C1756 C1757 1.377 . S
C1757 H1741 0.930 . S
C1757 C1756 1.377 . S
C1757 C1758 1.379 . S
C1758 H1742 0.931 . S
C1758 C1752 1.383 . S
C1758 C1757 1.379 . S
H1759 C1753 0.959 . S
H1760 C1753 0.961 . S
H1761 C1753 0.960 . S
H1762 C1754 0.930 . S
H1763 C1755 1.004 . S
H1764 C1772 0.929 . S
H1765 C1774 0.930 . S
H1766 C1776 0.930 . S
H1767 C1779 0.929 . S
H1768 C1782 0.930 . S
H1769 C1784 0.960 . S
H1770 C1784 0.960 . S
H1771 C1784 0.960 . S
C1772 H1764 0.929 . S
C1772 C1773 1.377 . S
C1772 C1774 1.384 . S
C1773 C1772 1.377 . S
C1773 C1779 1.390 . S
C1774 H1765 0.930 . S
C1774 C1772 1.384 . S
C1774 C1775 1.372 . S
C1775 C1774 1.372 . S
C1775 C1776 1.400 . S
C1775 C1780 1.490 . S
C1776 H1766 0.930 . S
C1776 C1775 1.400 . S
C1776 C1779 1.386 . S
H1777 C1793 0.930 . S
H1778 C1794 0.931 . S
C1779 H1767 0.929 . S
C1779 C1773 1.390 . S
C1779 C1776 1.386 . S
C1780 C1775 1.490 . S
C1780 C1782 1.395 . S
C1780 C1783 1.403 . S
H1781 C1787 0.930 . S
C1782 H1768 0.930 . S
C1782 C1780 1.395 . S
C1782 C1785 1.403 . S
C1783 C1780 1.403 . S
C1783 C1784 1.524 . S
C1783 C1787 1.400 . S
C1784 H1769 0.960 . S
C1784 H1770 0.960 . S
C1784 H1771 0.960 . S
C1784 C1783 1.524 . S
C1785 C1782 1.403 . S
C1785 C1786 1.392 . S
C1785 C1789 1.495 . S
C1786 C1785 1.392 . S
C1786 C1787 1.385 . S
C1786 C1788 1.478 . S
C1787 H1781 0.930 . S
C1787 C1783 1.400 . S
C1787 C1786 1.385 . S
C1788 C1786 1.478 . S
C1788 C1790 1.381 . S
C1788 C1794 1.383 . S
C1789 C1785 1.495 . S
C1789 H1795 0.959 . S
C1789 H1796 0.961 . S
C1789 H1797 0.960 . S
C1790 C1788 1.381 . S
C1790 C1791 1.394 . S
C1790 H1798 0.930 . S
C1791 C1790 1.394 . S
C1791 C1792 1.383 . S
C1791 H1799 0.929 . S
C1792 C1791 1.383 . S
C1792 C1793 1.377 . S
C1793 H1777 0.930 . S
C1793 C1792 1.377 . S
C1793 C1794 1.379 . S
C1794 H1778 0.931 . S
C1794 C1788 1.383 . S
C1794 C1793 1.379 . S
H1795 C1789 0.959 . S
H1796 C1789 0.961 . S
H1797 C1789 0.960 . S
H1798 C1790 0.930 . S
H1799 C1791 0.929 . S
H1800 C1808 0.929 . S
H1801 C1810 0.930 . S
H1802 C1812 0.930 . S
H1803 C1815 0.929 . S
H1804 C1818 0.930 . S
H1805 C1820 0.960 . S
H1806 C1820 0.960 . S
H1807 C1820 0.960 . S
C1808 H1800 0.929 . S
C1808 C1809 1.377 . S
C1808 C1810 1.384 . S
C1809 C1808 1.377 . S
C1809 C1815 1.390 . S
C1810 H1801 0.930 . S
C1810 C1808 1.384 . S
C1810 C1811 1.372 . S
C1811 C1810 1.372 . S
C1811 C1812 1.400 . S
C1811 C1816 1.490 . S
C1812 H1802 0.930 . S
C1812 C1811 1.400 . S
C1812 C1815 1.386 . S
H1813 C1829 0.930 . S
H1814 C1830 0.931 . S
C1815 H1803 0.929 . S
C1815 C1809 1.390 . S
C1815 C1812 1.386 . S
C1816 C1811 1.490 . S
C1816 C1818 1.395 . S
C1816 C1819 1.403 . S
H1817 C1823 0.930 . S
C1818 H1804 0.930 . S
C1818 C1816 1.395 . S
C1818 C1821 1.403 . S
C1819 C1816 1.403 . S
C1819 C1820 1.524 . S
C1819 C1823 1.400 . S
C1820 H1805 0.960 . S
C1820 H1806 0.960 . S
C1820 H1807 0.960 . S
C1820 C1819 1.524 . S
C1821 C1818 1.403 . S
C1821 C1822 1.392 . S
C1821 C1825 1.495 . S
C1822 C1821 1.392 . S
C1822 C1823 1.385 . S
C1822 C1824 1.478 . S
C1823 H1817 0.930 . S
C1823 C1819 1.400 . S
C1823 C1822 1.385 . S
C1824 C1822 1.478 . S
C1824 C1826 1.381 . S
C1824 C1830 1.383 . S
C1825 C1821 1.495 . S
C1825 H1831 0.959 . S
C1825 H1832 0.961 . S
C1825 H1833 0.960 . S
C1826 C1824 1.381 . S
C1826 C1827 1.394 . S
C1826 H1834 0.930 . S
C1827 C1826 1.394 . S
C1827 C1828 1.383 . S
C1827 H1835 0.929 . S
C1828 C1827 1.383 . S
C1828 C1829 1.377 . S
C1829 H1813 0.930 . S
C1829 C1828 1.377 . S
C1829 C1830 1.379 . S
C1830 H1814 0.931 . S
C1830 C1824 1.383 . S
C1830 C1829 1.379 . S
H1831 C1825 0.959 . S
H1832 C1825 0.961 . S
H1833 C1825 0.960 . S
H1834 C1826 0.930 . S
H1835 C1827 0.929 . S
H1836 C1844 0.929 . S
H1837 C1846 0.930 . S
H1838 C1848 0.930 . S
H1839 C1851 0.929 . S
H1840 C1854 0.930 . S
H1841 C1856 0.960 . S
H1842 C1856 0.960 . S
H1843 C1856 0.960 . S
C1844 H1836 0.929 . S
C1844 C1845 1.377 . S
C1844 C1846 1.384 . S
C1845 C1844 1.377 . S
C1845 C1851 1.390 . S
C1846 H1837 0.930 . S
C1846 C1844 1.384 . S
C1846 C1847 1.372 1_655 S
C1847 C1846 1.372 1_455 S
C1847 C1848 1.400 . S
C1847 C1852 1.490 . S
C1848 H1838 0.930 . S
C1848 C1847 1.400 . S
C1848 C1851 1.386 1_455 S
H1849 C1865 0.930 . S
H1850 C1866 0.931 . S
C1851 H1839 0.929 . S
C1851 C1845 1.390 . S
C1851 C1848 1.386 1_655 S
C1852 C1847 1.490 . S
C1852 C1854 1.395 . S
C1852 C1855 1.403 . S
H1853 C1859 0.930 . S
C1854 H1840 0.930 . S
C1854 C1852 1.395 . S
C1854 C1857 1.403 . S
C1855 C1852 1.403 . S
C1855 C1856 1.524 . S
C1855 C1859 1.400 . S
C1856 H1841 0.960 . S
C1856 H1842 0.960 . S
C1856 H1843 0.960 . S
C1856 C1855 1.524 . S
C1857 C1854 1.403 . S
C1857 C1858 1.392 . S
C1857 C1861 1.495 . S
C1858 C1857 1.392 . S
C1858 C1859 1.385 . S
C1858 C1860 1.478 . S
C1859 H1853 0.930 . S
C1859 C1855 1.400 . S
C1859 C1858 1.385 . S
C1860 C1858 1.478 . S
C1860 C1862 1.381 . S
C1860 C1866 1.383 . S
C1861 C1857 1.495 . S
C1861 H1867 0.959 . S
C1861 H1868 0.961 . S
C1861 H1869 0.960 . S
C1862 C1860 1.381 . S
C1862 C1863 1.394 . S
C1862 H1870 0.930 . S
C1863 C1862 1.394 . S
C1863 C1864 1.383 . S
C1863 H1871 0.929 . S
C1864 C1863 1.383 . S
C1864 C1865 1.377 . S
C1865 H1849 0.930 . S
C1865 C1864 1.377 . S
C1865 C1866 1.379 . S
C1866 H1850 0.931 . S
C1866 C1860 1.383 . S
C1866 C1865 1.379 . S
H1867 C1861 0.959 . S
H1868 C1861 0.961 . S
H1869 C1861 0.960 . S
H1870 C1862 0.930 . S
H1871 C1863 0.929 . S
H1872 C1880 0.929 . S
H1873 C1882 0.930 . S
H1874 C1884 0.930 . S
H1875 C1887 0.929 . S
H1876 C1890 0.930 . S
H1877 C1892 0.960 . S
H1878 C1892 0.960 . S
H1879 C1892 0.960 . S
C1880 H1872 0.929 . S
C1880 C1881 1.377 . S
C1880 C1882 1.384 . S
C1881 C1880 1.377 . S
C1881 C1887 1.390 . S
C1882 H1873 0.930 . S
C1882 C1880 1.384 . S
C1882 C1883 1.372 . S
C1883 C1882 1.372 . S
C1883 C1884 1.400 . S
C1883 C1888 1.490 . S
C1884 H1874 0.930 . S
C1884 C1883 1.400 . S
C1884 C1887 1.386 . S
H1885 C1901 0.930 . S
H1886 C1902 0.931 . S
C1887 H1875 0.929 . S
C1887 C1881 1.390 . S
C1887 C1884 1.386 . S
C1888 C1883 1.490 . S
C1888 C1890 1.395 . S
C1888 C1891 1.403 . S
H1889 C1895 0.930 . S
C1890 H1876 0.930 . S
C1890 C1888 1.395 . S
C1890 C1893 1.403 . S
C1891 C1888 1.403 . S
C1891 C1892 1.524 . S
C1891 C1895 1.400 . S
C1892 H1877 0.960 . S
C1892 H1878 0.960 . S
C1892 H1879 0.960 . S
C1892 C1891 1.524 . S
C1893 C1890 1.403 . S
C1893 C1894 1.392 . S
C1893 C1897 1.495 . S
C1894 C1893 1.392 . S
C1894 C1895 1.385 . S
C1894 C1896 1.478 . S
C1895 H1889 0.930 . S
C1895 C1891 1.400 . S
C1895 C1894 1.385 . S
C1896 C1894 1.478 . S
C1896 C1898 1.381 . S
C1896 C1902 1.383 . S
C1897 C1893 1.495 . S
C1897 H1903 0.959 . S
C1897 H1904 0.961 . S
C1897 H1905 0.960 . S
C1898 C1896 1.381 . S
C1898 C1899 1.394 . S
C1898 H1906 0.930 . S
C1899 C1898 1.394 . S
C1899 C1900 1.383 . S
C1899 H1907 0.929 . S
C1900 C1899 1.383 . S
C1900 C1901 1.377 . S
C1901 H1885 0.930 . S
C1901 C1900 1.377 . S
C1901 C1902 1.379 . S
C1902 H1886 0.931 . S
C1902 C1896 1.383 . S
C1902 C1901 1.379 . S
H1903 C1897 0.959 . S
H1904 C1897 0.961 . S
H1905 C1897 0.960 . S
H1906 C1898 0.930 . S
H1907 C1899 0.929 . S
H1908 C1916 0.929 . S
H1909 C1918 0.930 . S
H1910 C1920 0.930 1_565 S
H1911 C1923 0.929 . S
H1912 C1926 0.930 . S
H1913 C1928 0.960 . S
H1914 C1928 0.960 . S
H1915 C1928 0.960 . S
C1916 H1908 0.929 . S
C1916 C1917 1.377 . S
C1916 C1918 1.384 . S
C1917 C1916 1.377 . S
C1917 C1923 1.390 . S
C1918 H1909 0.930 . S
C1918 C1916 1.384 . S
C1918 C1919 1.372 . S
C1919 C1918 1.372 . S
C1919 C1920 1.400 . S
C1919 C1924 1.490 1_545 S
C1920 H1910 0.930 1_545 S
C1920 C1919 1.400 . S
C1920 C1923 1.386 . S
H1921 C1937 0.930 . S
H1922 C1938 0.931 . S
C1923 H1911 0.929 . S
C1923 C1917 1.390 . S
C1923 C1920 1.386 . S
C1924 C1919 1.490 1_565 S
C1924 C1926 1.395 . S
C1924 C1927 1.403 . S
H1925 C1931 0.930 . S
C1926 H1912 0.930 . S
C1926 C1924 1.395 . S
C1926 C1929 1.403 . S
C1927 C1924 1.403 . S
C1927 C1928 1.524 . S
C1927 C1931 1.400 . S
C1928 H1913 0.960 . S
C1928 H1914 0.960 . S
C1928 H1915 0.960 . S
C1928 C1927 1.524 . S
C1929 C1926 1.403 . S
C1929 C1930 1.392 . S
C1929 C1933 1.495 . S
C1930 C1929 1.392 . S
C1930 C1931 1.385 . S
C1930 C1932 1.478 . S
C1931 H1925 0.930 . S
C1931 C1927 1.400 . S
C1931 C1930 1.385 . S
C1932 C1930 1.478 . S
C1932 C1934 1.381 . S
C1932 C1938 1.383 . S
C1933 C1929 1.495 . S
C1933 H1939 0.959 . S
C1933 H1940 0.961 . S
C1933 H1941 0.960 . S
C1934 C1932 1.381 . S
C1934 C1935 1.394 . S
C1934 H1942 0.930 . S
C1935 C1934 1.394 . S
C1935 C1936 1.383 . S
C1935 H1943 0.929 . S
C1936 C1935 1.383 . S
C1936 C1937 1.377 . S
C1937 H1921 0.930 . S
C1937 C1936 1.377 . S
C1937 C1938 1.379 . S
C1938 H1922 0.931 . S
C1938 C1932 1.383 . S
C1938 C1937 1.379 . S
H1939 C1933 0.959 . S
H1940 C1933 0.961 . S
H1941 C1933 0.960 . S
H1942 C1934 0.930 . S
H1943 C1935 0.929 . S
H1944 C1952 0.929 . S
H1945 C1954 0.930 . S
H1946 C1956 0.930 . S
H1947 C1959 0.929 . S
H1948 C1962 0.930 . S
H1949 C1964 0.960 . S
H1950 C1964 0.960 . S
H1951 C1964 0.960 . S
C1952 H1944 0.929 . S
C1952 C1953 1.377 . S
C1952 C1954 1.384 . S
C1953 C1952 1.377 . S
C1953 C1959 1.390 . S
C1954 H1945 0.930 . S
C1954 C1952 1.384 . S
C1954 C1955 1.372 . S
C1955 C1954 1.372 . S
C1955 C1956 1.400 . S
C1955 C1960 1.490 . S
C1956 H1946 0.930 . S
C1956 C1955 1.400 . S
C1956 C1959 1.386 . S
H1957 C1973 0.930 . S
H1958 C1974 0.931 . S
C1959 H1947 0.929 . S
C1959 C1953 1.390 . S
C1959 C1956 1.386 . S
C1960 C1955 1.490 . S
C1960 C1962 1.395 . S
C1960 C1963 1.403 . S
H1961 C1967 0.930 . S
C1962 H1948 0.930 . S
C1962 C1960 1.395 . S
C1962 C1965 1.403 . S
C1963 C1960 1.403 . S
C1963 C1964 1.524 . S
C1963 C1967 1.400 . S
C1964 H1949 0.960 . S
C1964 H1950 0.960 . S
C1964 H1951 0.960 . S
C1964 C1963 1.524 . S
C1965 C1962 1.403 . S
C1965 C1966 1.392 . S
C1965 C1969 1.495 . S
C1966 C1965 1.392 . S
C1966 C1967 1.385 . S
C1966 C1968 1.478 . S
C1967 H1961 0.930 . S
C1967 C1963 1.400 . S
C1967 C1966 1.385 . S
C1968 C1966 1.478 . S
C1968 C1970 1.381 . S
C1968 C1974 1.383 . S
C1969 C1965 1.495 . S
C1969 H1975 0.959 . S
C1969 H1976 0.961 . S
C1969 H1977 0.960 . S
C1970 C1968 1.381 . S
C1970 C1971 1.394 . S
C1970 H1978 0.930 . S
C1971 C1970 1.394 . S
C1971 C1972 1.383 . S
C1971 H1979 0.929 . S
C1972 C1971 1.383 . S
C1972 C1973 1.377 . S
C1973 H1957 0.930 . S
C1973 C1972 1.377 . S
C1973 C1974 1.379 . S
C1974 H1958 0.931 . S
C1974 C1968 1.383 . S
C1974 C1973 1.379 . S
H1975 C1969 0.959 . S
H1976 C1969 0.961 . S
H1977 C1969 0.960 . S
H1978 C1970 0.930 . S
H1979 C1971 0.929 . S
H1980 C1988 0.929 . S
H1981 C1990 0.930 . S
H1982 C1992 0.930 . S
H1983 C1995 0.929 . S
H1984 C1998 0.930 . S
H1985 C2000 0.960 . S
H1986 C2000 0.960 . S
H1987 C2000 0.960 . S
C1988 H1980 0.929 . S
C1988 C1989 1.377 . S
C1988 C1990 1.384 . S
C1989 C1988 1.377 . S
C1989 C1995 1.390 . S
C1990 H1981 0.930 . S
C1990 C1988 1.384 . S
C1990 C1991 1.372 . S
C1991 C1990 1.372 . S
C1991 C1992 1.400 . S
C1991 C1996 1.490 . S
C1992 H1982 0.930 . S
C1992 C1991 1.400 . S
C1992 C1995 1.386 . S
H1993 C2009 0.930 . S
H1994 C2010 0.931 . S
C1995 H1983 0.929 . S
C1995 C1989 1.390 . S
C1995 C1992 1.386 . S
C1996 C1991 1.490 . S
C1996 C1998 1.395 . S
C1996 C1999 1.403 . S
H1997 C2003 0.930 . S
C1998 H1984 0.930 . S
C1998 C1996 1.395 . S
C1998 C2001 1.403 . S
C1999 C1996 1.403 . S
C1999 C2000 1.524 . S
C1999 C2003 1.400 . S
C2000 H1985 0.960 . S
C2000 H1986 0.960 . S
C2000 H1987 0.960 . S
C2000 C1999 1.524 . S
C2001 C1998 1.403 . S
C2001 C2002 1.392 . S
C2001 C2005 1.495 . S
C2002 C2001 1.392 . S
C2002 C2003 1.385 . S
C2002 C2004 1.478 . S
C2003 H1997 0.930 . S
C2003 C1999 1.400 . S
C2003 C2002 1.385 . S
C2004 C2002 1.478 . S
C2004 C2006 1.381 . S
C2004 C2010 1.383 . S
C2005 C2001 1.495 . S
C2005 H2011 0.959 . S
C2005 H2012 0.961 . S
C2005 H2013 0.960 . S
C2006 C2004 1.381 . S
C2006 C2007 1.394 . S
C2006 H2014 0.930 . S
C2007 C2006 1.394 . S
C2007 C2008 1.383 . S
C2007 H2015 0.929 . S
C2008 C2007 1.383 . S
C2008 C2009 1.377 . S
C2009 H1993 0.930 . S
C2009 C2008 1.377 . S
C2009 C2010 1.379 . S
C2010 H1994 0.931 . S
C2010 C2004 1.383 . S
C2010 C2009 1.379 . S
H2011 C2005 0.959 . S
H2012 C2005 0.961 . S
H2013 C2005 0.960 . S
H2014 C2006 0.930 . S
H2015 C2007 0.929 . S
H2016 C2024 0.929 . S
H2017 C2026 0.930 . S
H2018 C2028 0.930 . S
H2019 C2031 0.929 . S
H2020 C2034 0.930 . S
H2021 C2036 0.960 . S
H2022 C2036 0.960 . S
H2023 C2036 0.960 . S
C2024 H2016 0.929 . S
C2024 C2025 1.377 . S
C2024 C2026 1.384 . S
C2025 C2024 1.377 . S
C2025 C2031 1.390 . S
C2026 H2017 0.930 . S
C2026 C2024 1.384 . S
C2026 C2027 1.372 . S
C2027 C2026 1.372 . S
C2027 C2028 1.400 . S
C2027 C2032 1.490 . S
C2028 H2018 0.930 . S
C2028 C2027 1.400 . S
C2028 C2031 1.386 . S
H2029 C2045 0.930 . S
H2030 C2046 0.931 . S
C2031 H2019 0.929 . S
C2031 C2025 1.390 . S
C2031 C2028 1.386 . S
C2032 C2027 1.490 . S
C2032 C2034 1.395 . S
C2032 C2035 1.403 . S
H2033 C2039 0.930 . S
C2034 H2020 0.930 . S
C2034 C2032 1.395 . S
C2034 C2037 1.403 . S
C2035 C2032 1.403 . S
C2035 C2036 1.524 . S
C2035 C2039 1.400 . S
C2036 H2021 0.960 . S
C2036 H2022 0.960 . S
C2036 H2023 0.960 . S
C2036 C2035 1.524 . S
C2037 C2034 1.403 . S
C2037 C2038 1.392 . S
C2037 C2041 1.495 . S
C2038 C2037 1.392 . S
C2038 C2039 1.385 . S
C2038 C2040 1.478 . S
C2039 H2033 0.930 . S
C2039 C2035 1.400 . S
C2039 C2038 1.385 . S
C2040 C2038 1.478 . S
C2040 C2042 1.381 . S
C2040 C2046 1.383 . S
C2041 C2037 1.495 . S
C2041 H2047 0.959 . S
C2041 H2048 0.961 . S
C2041 H2049 0.960 . S
C2042 C2040 1.381 . S
C2042 C2043 1.394 . S
C2042 H2050 0.930 . S
C2043 C2042 1.394 . S
C2043 C2044 1.383 . S
C2043 H2051 0.929 . S
C2044 C2043 1.383 . S
C2044 C2045 1.377 . S
C2045 H2029 0.930 . S
C2045 C2044 1.377 . S
C2045 C2046 1.379 . S
C2046 H2030 0.931 . S
C2046 C2040 1.383 . S
C2046 C2045 1.379 . S
H2047 C2041 0.959 . S
H2048 C2041 0.961 . S
H2049 C2041 0.960 . S
H2050 C2042 0.930 . S
H2051 C2043 0.929 . S
H2052 C2060 0.929 . S
H2053 C2062 0.930 . S
H2054 C2064 0.930 . S
H2055 C2067 0.929 . S
H2056 C2070 0.930 . S
H2057 C2072 0.960 . S
H2058 C2072 0.960 . S
H2059 C2072 0.960 . S
C2060 H2052 0.929 . S
C2060 C2061 1.377 . S
C2060 C2062 1.384 . S
C2061 C2060 1.377 . S
C2061 C2067 1.390 . S
C2062 H2053 0.930 . S
C2062 C2060 1.384 . S
C2062 C2063 1.372 . S
C2063 C2062 1.372 . S
C2063 C2064 1.400 . S
C2063 C2068 1.490 . S
C2064 H2054 0.930 . S
C2064 C2063 1.400 . S
C2064 C2067 1.386 . S
H2065 C2081 0.930 . S
H2066 C2082 0.931 . S
C2067 H2055 0.929 . S
C2067 C2061 1.390 . S
C2067 C2064 1.386 . S
C2068 C2063 1.490 . S
C2068 C2070 1.395 . S
C2068 C2071 1.403 . S
H2069 C2075 0.930 . S
C2070 H2056 0.930 . S
C2070 C2068 1.395 . S
C2070 C2073 1.403 . S
C2071 C2068 1.403 . S
C2071 C2072 1.524 . S
C2071 C2075 1.400 . S
C2072 H2057 0.960 . S
C2072 H2058 0.960 . S
C2072 H2059 0.960 . S
C2072 C2071 1.524 . S
C2073 C2070 1.403 . S
C2073 C2074 1.392 . S
C2073 C2077 1.495 . S
C2074 C2073 1.392 . S
C2074 C2075 1.385 . S
C2074 C2076 1.478 . S
C2075 H2069 0.930 . S
C2075 C2071 1.400 . S
C2075 C2074 1.385 . S
C2076 C2074 1.478 . S
C2076 C2078 1.381 . S
C2076 C2082 1.383 . S
C2077 C2073 1.495 . S
C2077 H2083 0.959 . S
C2077 H2084 0.961 . S
C2077 H2085 0.960 . S
C2078 C2076 1.381 . S
C2078 C2079 1.394 . S
C2078 H2086 0.930 . S
C2079 C2078 1.394 . S
C2079 C2080 1.383 . S
C2079 H2087 0.929 . S
C2080 C2079 1.383 . S
C2080 C2081 1.377 . S
C2081 H2065 0.930 . S
C2081 C2080 1.377 . S
C2081 C2082 1.379 . S
C2082 H2066 0.931 . S
C2082 C2076 1.383 . S
C2082 C2081 1.379 . S
H2083 C2077 0.959 . S
H2084 C2077 0.961 . S
H2085 C2077 0.960 . S
H2086 C2078 0.930 . S
H2087 C2079 0.929 . S
H2088 C2096 0.929 . S
H2089 C2098 0.930 . S
H2090 C2100 0.930 . S
H2091 C2103 0.929 . S
H2092 C2106 0.930 . S
H2093 C2108 0.960 . S
H2094 C2108 0.960 . S
H2095 C2108 0.960 . S
C2096 H2088 0.929 . S
C2096 C2097 1.377 . S
C2096 C2098 1.384 . S
C2097 C2096 1.377 . S
C2097 C2103 1.390 . S
C2098 H2089 0.930 . S
C2098 C2096 1.384 . S
C2098 C2099 1.372 . S
C2099 C2098 1.372 . S
C2099 C2100 1.400 . S
C2099 C2104 1.490 . S
C2100 H2090 0.930 . S
C2100 C2099 1.400 . S
C2100 C2103 1.386 . S
H2101 C2117 0.930 . S
H2102 C2118 0.931 . S
C2103 H2091 0.929 . S
C2103 C2097 1.390 . S
C2103 C2100 1.386 . S
C2104 C2099 1.490 . S
C2104 C2106 1.395 . S
C2104 C2107 1.403 . S
H2105 C2111 0.930 . S
C2106 H2092 0.930 . S
C2106 C2104 1.395 . S
C2106 C2109 1.403 . S
C2107 C2104 1.403 . S
C2107 C2108 1.524 . S
C2107 C2111 1.400 . S
C2108 H2093 0.960 . S
C2108 H2094 0.960 . S
C2108 H2095 0.960 . S
C2108 C2107 1.524 . S
C2109 C2106 1.403 . S
C2109 C2110 1.392 . S
C2109 C2113 1.495 . S
C2110 C2109 1.392 . S
C2110 C2111 1.385 . S
C2110 C2112 1.478 . S
C2111 H2105 0.930 . S
C2111 C2107 1.400 . S
C2111 C2110 1.385 . S
C2112 C2110 1.478 . S
C2112 C2114 1.381 . S
C2112 C2118 1.383 . S
C2113 C2109 1.495 . S
C2113 H2119 0.959 . S
C2113 H2120 0.961 . S
C2113 H2121 0.960 . S
C2114 C2112 1.381 . S
C2114 C2115 1.394 . S
C2114 H2122 0.930 . S
C2115 C2114 1.394 . S
C2115 C2116 1.383 . S
C2115 H2123 0.929 . S
C2116 C2115 1.383 . S
C2116 C2117 1.377 . S
C2117 H2101 0.930 . S
C2117 C2116 1.377 . S
C2117 C2118 1.379 . S
C2118 H2102 0.931 . S
C2118 C2112 1.383 . S
C2118 C2117 1.379 . S
H2119 C2113 0.959 . S
H2120 C2113 0.961 . S
H2121 C2113 0.960 . S
H2122 C2114 0.930 . S
H2123 C2115 0.929 . S
H2124 C2132 0.929 . S
H2125 C2134 0.930 . S
H2126 C2136 0.930 . S
H2127 C2139 0.929 . S
H2128 C2142 0.930 . S
H2129 C2144 0.960 . S
H2130 C2144 0.960 . S
H2131 C2144 0.960 . S
C2132 H2124 0.929 . S
C2132 C2133 1.377 . S
C2132 C2134 1.384 . S
C2133 C2132 1.377 . S
C2133 C2139 1.390 . S
C2134 H2125 0.930 . S
C2134 C2132 1.384 . S
C2134 C2135 1.372 . S
C2135 C2134 1.372 . S
C2135 C2136 1.400 . S
C2135 C2140 1.490 . S
C2136 H2126 0.930 . S
C2136 C2135 1.400 . S
C2136 C2139 1.386 . S
H2137 C2153 0.930 . S
H2138 C2154 0.931 . S
C2139 H2127 0.929 . S
C2139 C2133 1.390 . S
C2139 C2136 1.386 . S
C2140 C2135 1.490 . S
C2140 C2142 1.395 . S
C2140 C2143 1.403 . S
H2141 C2147 0.930 . S
C2142 H2128 0.930 . S
C2142 C2140 1.395 . S
C2142 C2145 1.403 . S
C2143 C2140 1.403 . S
C2143 C2144 1.524 . S
C2143 C2147 1.400 . S
C2144 H2129 0.960 . S
C2144 H2130 0.960 . S
C2144 H2131 0.960 . S
C2144 C2143 1.524 . S
C2145 C2142 1.403 . S
C2145 C2146 1.392 . S
C2145 C2149 1.495 . S
C2146 C2145 1.392 . S
C2146 C2147 1.385 . S
C2146 C2148 1.478 . S
C2147 H2141 0.930 . S
C2147 C2143 1.400 . S
C2147 C2146 1.385 . S
C2148 C2146 1.478 . S
C2148 C2150 1.381 . S
C2148 C2154 1.383 . S
C2149 C2145 1.495 . S
C2149 H2155 0.959 . S
C2149 H2156 0.961 . S
C2149 H2157 0.960 . S
C2150 C2148 1.381 . S
C2150 C2151 1.394 . S
C2150 H2158 0.930 . S
C2151 C2150 1.394 . S
C2151 C2152 1.383 . S
C2151 H2159 0.929 . S
C2152 C2151 1.383 . S
C2152 C2153 1.377 . S
C2153 H2137 0.930 . S
C2153 C2152 1.377 . S
C2153 C2154 1.379 . S
C2154 H2138 0.931 . S
C2154 C2148 1.383 . S
C2154 C2153 1.379 . S
H2155 C2149 0.959 . S
H2156 C2149 0.961 . S
H2157 C2149 0.960 . S
H2158 C2150 0.930 . S
H2159 C2151 0.929 . S
H2160 C2168 0.929 . S
H2161 C2170 0.930 1_565 S
H2162 C2172 0.930 . S
H2163 C2175 0.929 . S
H2164 C2178 0.930 . S
H2165 C2180 0.960 . S
H2166 C2180 0.960 . S
H2167 C2180 0.960 . S
C2168 H2160 0.929 . S
C2168 C2169 1.377 . S
C2168 C2170 1.384 . S
C2169 C2168 1.377 . S
C2169 C2175 1.390 . S
C2170 H2161 0.930 1_545 S
C2170 C2168 1.384 . S
C2170 C2171 1.373 1_545 S
C2171 C2170 1.373 1_565 S
C2171 C2172 1.363 1_565 S
C2171 C2176 1.526 . S
C2172 H2162 0.930 . S
C2172 C2171 1.363 1_545 S
C2172 C2175 1.386 . S
H2173 C2189 0.930 . S
H2174 C2190 0.931 . S
C2175 H2163 0.929 . S
C2175 C2169 1.390 . S
C2175 C2172 1.386 . S
C2176 C2171 1.526 . S
C2176 C2178 1.395 . S
C2176 C2179 1.403 . S
H2177 C2183 0.930 . S
C2178 H2164 0.930 . S
C2178 C2176 1.395 . S
C2178 C2181 1.403 . S
C2179 C2176 1.403 . S
C2179 C2180 1.524 . S
C2179 C2183 1.400 . S
C2180 H2165 0.960 . S
C2180 H2166 0.960 . S
C2180 H2167 0.960 . S
C2180 C2179 1.524 . S
C2181 C2178 1.403 . S
C2181 C2182 1.392 . S
C2181 C2185 1.495 . S
C2182 C2181 1.392 . S
C2182 C2183 1.385 . S
C2182 C2184 1.478 . S
C2183 H2177 0.930 . S
C2183 C2179 1.400 . S
C2183 C2182 1.385 . S
C2184 C2182 1.478 . S
C2184 C2186 1.381 . S
C2184 C2190 1.383 . S
C2185 C2181 1.495 . S
C2185 H2191 0.959 . S
C2185 H2192 0.961 . S
C2185 H2193 0.960 . S
C2186 C2184 1.381 . S
C2186 C2187 1.394 . S
C2186 H2194 0.930 . S
C2187 C2186 1.394 . S
C2187 C2188 1.383 . S
C2187 H2195 0.929 . S
C2188 C2187 1.383 . S
C2188 C2189 1.377 . S
C2189 H2173 0.930 . S
C2189 C2188 1.377 . S
C2189 C2190 1.379 . S
C2190 H2174 0.931 . S
C2190 C2184 1.383 . S
C2190 C2189 1.379 . S
H2191 C2185 0.959 . S
H2192 C2185 0.961 . S
H2193 C2185 0.960 . S
H2194 C2186 0.930 . S
H2195 C2187 0.929 . S
H2196 C2204 0.929 . S
H2197 C2206 0.930 . S
H2198 C2208 0.930 . S
H2199 C2211 0.929 . S
H2200 C2214 0.930 . S
H2201 C2216 0.960 . S
H2202 C2216 0.960 . S
H2203 C2216 0.960 . S
C2204 H2196 0.929 . S
C2204 C2205 1.377 . S
C2204 C2206 1.384 1_655 S
C2205 C2204 1.377 . S
C2205 C2211 1.390 . S
C2206 H2197 0.930 . S
C2206 C2204 1.384 1_455 S
C2206 C2207 1.372 . S
C2207 C2206 1.372 . S
C2207 C2208 1.400 1_455 S
C2207 C2212 1.490 . S
C2208 H2198 0.930 . S
C2208 C2207 1.400 1_655 S
C2208 C2211 1.386 . S
H2209 C2225 0.930 . S
H2210 C2226 0.931 . S
C2211 H2199 0.929 . S
C2211 C2205 1.390 . S
C2211 C2208 1.386 . S
C2212 C2207 1.490 . S
C2212 C2214 1.395 . S
C2212 C2215 1.403 . S
H2213 C2219 0.930 . S
C2214 H2200 0.930 . S
C2214 C2212 1.395 . S
C2214 C2217 1.403 . S
C2215 C2212 1.403 . S
C2215 C2216 1.524 . S
C2215 C2219 1.400 . S
C2216 H2201 0.960 . S
C2216 H2202 0.960 . S
C2216 H2203 0.960 . S
C2216 C2215 1.524 . S
C2217 C2214 1.403 . S
C2217 C2218 1.392 . S
C2217 C2221 1.495 . S
C2218 C2217 1.392 . S
C2218 C2219 1.385 . S
C2218 C2220 1.478 . S
C2219 H2213 0.930 . S
C2219 C2215 1.400 . S
C2219 C2218 1.385 . S
C2220 C2218 1.478 . S
C2220 C2222 1.381 . S
C2220 C2226 1.383 . S
C2221 C2217 1.495 . S
C2221 H2227 0.959 . S
C2221 H2228 0.961 . S
C2221 H2229 0.960 . S
C2222 C2220 1.381 . S
C2222 C2223 1.394 . S
C2222 H2230 0.930 . S
C2223 C2222 1.394 . S
C2223 C2224 1.383 . S
C2223 H2231 0.929 . S
C2224 C2223 1.383 . S
C2224 C2225 1.377 . S
C2225 H2209 0.930 . S
C2225 C2224 1.377 . S
C2225 C2226 1.379 . S
C2226 H2210 0.931 . S
C2226 C2220 1.383 . S
C2226 C2225 1.379 . S
H2227 C2221 0.959 . S
H2228 C2221 0.961 . S
H2229 C2221 0.960 . S
H2230 C2222 0.930 . S
H2231 C2223 0.929 . S
H2232 C2240 0.929 . S
H2233 C2242 0.930 . S
H2234 C2244 0.930 . S
H2235 C2247 0.929 . S
H2236 C2250 0.930 . S
H2237 C2252 0.960 . S
H2238 C2252 0.960 . S
H2239 C2252 0.960 . S
C2240 H2232 0.929 . S
C2240 C2241 1.377 . S
C2240 C2242 1.384 . S
C2241 C2240 1.377 . S
C2241 C2247 1.390 . S
C2242 H2233 0.930 . S
C2242 C2240 1.384 . S
C2242 C2243 1.372 . S
C2243 C2242 1.372 . S
C2243 C2244 1.400 . S
C2243 C2248 1.490 . S
C2244 H2234 0.930 . S
C2244 C2243 1.400 . S
C2244 C2247 1.386 . S
H2245 C2261 0.930 . S
H2246 C2262 0.931 . S
C2247 H2235 0.929 . S
C2247 C2241 1.390 . S
C2247 C2244 1.386 . S
C2248 C2243 1.490 . S
C2248 C2250 1.395 . S
C2248 C2251 1.403 . S
H2249 C2255 0.930 . S
C2250 H2236 0.930 . S
C2250 C2248 1.395 . S
C2250 C2253 1.403 . S
C2251 C2248 1.403 . S
C2251 C2252 1.524 . S
C2251 C2255 1.400 . S
C2252 H2237 0.960 . S
C2252 H2238 0.960 . S
C2252 H2239 0.960 . S
C2252 C2251 1.524 . S
C2253 C2250 1.403 . S
C2253 C2254 1.392 . S
C2253 C2257 1.495 . S
C2254 C2253 1.392 . S
C2254 C2255 1.385 . S
C2254 C2256 1.478 . S
C2255 H2249 0.930 . S
C2255 C2251 1.400 . S
C2255 C2254 1.385 . S
C2256 C2254 1.478 . S
C2256 C2258 1.381 . S
C2256 C2262 1.383 . S
C2257 C2253 1.495 . S
C2257 H2263 0.959 . S
C2257 H2264 0.961 . S
C2257 H2265 0.960 . S
C2258 C2256 1.381 . S
C2258 C2259 1.394 . S
C2258 H2266 0.930 . S
C2259 C2258 1.394 . S
C2259 C2260 1.383 . S
C2259 H2267 0.929 . S
C2260 C2259 1.383 . S
C2260 C2261 1.377 . S
C2261 H2245 0.930 . S
C2261 C2260 1.377 . S
C2261 C2262 1.379 . S
C2262 H2246 0.931 . S
C2262 C2256 1.383 . S
C2262 C2261 1.379 . S
H2263 C2257 0.959 . S
H2264 C2257 0.961 . S
H2265 C2257 0.960 . S
H2266 C2258 0.930 . S
H2267 C2259 0.929 . S
H2268 C2276 0.929 . S
H2269 C2278 0.930 . S
H2270 C2280 0.930 . S
H2271 C2283 0.929 . S
H2272 C2286 0.930 . S
H2273 C2288 0.960 . S
H2274 C2288 0.960 . S
H2275 C2288 0.960 . S
C2276 H2268 0.929 . S
C2276 C2277 1.377 . S
C2276 C2278 1.384 . S
C2277 C2276 1.377 . S
C2277 C2283 1.390 . S
C2278 H2269 0.930 . S
C2278 C2276 1.384 . S
C2278 C2279 1.372 . S
C2279 C2278 1.372 . S
C2279 C2280 1.400 . S
C2279 C2284 1.490 . S
C2280 H2270 0.930 . S
C2280 C2279 1.400 . S
C2280 C2283 1.386 . S
H2281 C2297 0.930 . S
H2282 C2298 0.931 . S
C2283 H2271 0.929 . S
C2283 C2277 1.390 . S
C2283 C2280 1.386 . S
C2284 C2279 1.490 . S
C2284 C2286 1.395 . S
C2284 C2287 1.403 . S
H2285 C2291 0.930 . S
C2286 H2272 0.930 . S
C2286 C2284 1.395 . S
C2286 C2289 1.403 . S
C2287 C2284 1.403 . S
C2287 C2288 1.524 . S
C2287 C2291 1.400 . S
C2288 H2273 0.960 . S
C2288 H2274 0.960 . S
C2288 H2275 0.960 . S
C2288 C2287 1.524 . S
C2289 C2286 1.403 . S
C2289 C2290 1.392 . S
C2289 C2293 1.495 . S
C2290 C2289 1.392 . S
C2290 C2291 1.385 . S
C2290 C2292 1.478 . S
C2291 H2285 0.930 . S
C2291 C2287 1.400 . S
C2291 C2290 1.385 . S
C2292 C2290 1.478 . S
C2292 C2294 1.381 . S
C2292 C2298 1.383 . S
C2293 C2289 1.495 . S
C2293 H2299 0.959 . S
C2293 H2300 0.961 . S
C2293 H2301 0.960 . S
C2294 C2292 1.381 . S
C2294 C2295 1.394 . S
C2294 H2302 0.930 . S
C2295 C2294 1.394 . S
C2295 C2296 1.383 . S
C2295 H2303 0.929 . S
C2296 C2295 1.383 . S
C2296 C2297 1.377 . S
C2297 H2281 0.930 . S
C2297 C2296 1.377 . S
C2297 C2298 1.379 . S
C2298 H2282 0.931 . S
C2298 C2292 1.383 . S
C2298 C2297 1.379 . S
H2299 C2293 0.959 . S
H2300 C2293 0.961 . S
H2301 C2293 0.960 . S
H2302 C2294 0.930 . S
H2303 C2295 0.929 . S
H2304 C2312 0.929 . S
H2305 C2314 0.930 . S
H2306 C2316 0.930 . S
H2307 C2319 0.929 . S
H2308 C2322 0.930 . S
H2309 C2324 0.960 . S
H2310 C2324 0.960 . S
H2311 C2324 0.960 . S
C2312 H2304 0.929 . S
C2312 C2313 1.377 . S
C2312 C2314 1.384 . S
C2313 C2312 1.377 . S
C2313 C2319 1.390 . S
C2314 H2305 0.930 . S
C2314 C2312 1.384 . S
C2314 C2315 1.372 . S
C2315 C2314 1.372 . S
C2315 C2316 1.400 . S
C2315 C2320 1.490 . S
C2316 H2306 0.930 . S
C2316 C2315 1.400 . S
C2316 C2319 1.386 . S
H2317 C2333 0.930 . S
H2318 C2334 0.931 . S
C2319 H2307 0.929 . S
C2319 C2313 1.390 . S
C2319 C2316 1.386 . S
C2320 C2315 1.490 . S
C2320 C2322 1.395 . S
C2320 C2323 1.403 . S
H2321 C2327 0.930 . S
C2322 H2308 0.930 . S
C2322 C2320 1.395 . S
C2322 C2325 1.403 . S
C2323 C2320 1.403 . S
C2323 C2324 1.524 . S
C2323 C2327 1.400 . S
C2324 H2309 0.960 . S
C2324 H2310 0.960 . S
C2324 H2311 0.960 . S
C2324 C2323 1.524 . S
C2325 C2322 1.403 . S
C2325 C2326 1.392 . S
C2325 C2329 1.495 . S
C2326 C2325 1.392 . S
C2326 C2327 1.385 . S
C2326 C2328 1.478 . S
C2327 H2321 0.930 . S
C2327 C2323 1.400 . S
C2327 C2326 1.385 . S
C2328 C2326 1.478 . S
C2328 C2330 1.381 . S
C2328 C2334 1.383 . S
C2329 C2325 1.495 . S
C2329 H2335 0.959 . S
C2329 H2336 0.961 . S
C2329 H2337 0.960 . S
C2330 C2328 1.381 . S
C2330 C2331 1.394 . S
C2330 H2338 0.930 . S
C2331 C2330 1.394 . S
C2331 C2332 1.383 . S
C2331 H2339 0.929 . S
C2332 C2331 1.383 . S
C2332 C2333 1.377 . S
C2333 H2317 0.930 . S
C2333 C2332 1.377 . S
C2333 C2334 1.379 . S
C2334 H2318 0.931 . S
C2334 C2328 1.383 . S
C2334 C2333 1.379 . S
H2335 C2329 0.959 . S
H2336 C2329 0.961 . S
H2337 C2329 0.960 . S
H2338 C2330 0.930 . S
H2339 C2331 0.929 . S
H2340 C2348 0.929 . S
H2341 C2350 0.930 . S
H2342 C2352 0.930 . S
H2343 C2355 0.929 . S
H2344 C2358 0.930 . S
H2345 C2360 0.960 . S
H2346 C2360 0.960 . S
H2347 C2360 0.960 . S
C2348 H2340 0.929 . S
C2348 C2349 1.377 . S
C2348 C2350 1.384 . S
C2349 C2348 1.377 . S
C2349 C2355 1.390 . S
C2350 H2341 0.930 . S
C2350 C2348 1.384 . S
C2350 C2351 1.372 . S
C2351 C2350 1.372 . S
C2351 C2352 1.400 . S
C2351 C2356 1.490 . S
C2352 H2342 0.930 . S
C2352 C2351 1.400 . S
C2352 C2355 1.386 . S
H2353 C2369 0.930 . S
H2354 C2370 0.931 . S
C2355 H2343 0.929 . S
C2355 C2349 1.390 . S
C2355 C2352 1.386 . S
C2356 C2351 1.490 . S
C2356 C2358 1.395 . S
C2356 C2359 1.403 . S
H2357 C2363 0.930 . S
C2358 H2344 0.930 . S
C2358 C2356 1.395 . S
C2358 C2361 1.403 . S
C2359 C2356 1.403 . S
C2359 C2360 1.524 . S
C2359 C2363 1.400 . S
C2360 H2345 0.960 . S
C2360 H2346 0.960 . S
C2360 H2347 0.960 . S
C2360 C2359 1.524 . S
C2361 C2358 1.403 . S
C2361 C2362 1.392 . S
C2361 C2365 1.495 . S
C2362 C2361 1.392 . S
C2362 C2363 1.385 . S
C2362 C2364 1.478 . S
C2363 H2357 0.930 . S
C2363 C2359 1.400 . S
C2363 C2362 1.385 . S
C2364 C2362 1.478 . S
C2364 C2366 1.381 . S
C2364 C2370 1.383 . S
C2365 C2361 1.495 . S
C2365 H2371 0.959 . S
C2365 H2372 0.961 . S
C2365 H2373 0.960 . S
C2366 C2364 1.381 . S
C2366 C2367 1.394 . S
C2366 H2374 0.930 . S
C2367 C2366 1.394 . S
C2367 C2368 1.383 . S
C2367 H2375 0.929 . S
C2368 C2367 1.383 . S
C2368 C2369 1.377 . S
C2369 H2353 0.930 . S
C2369 C2368 1.377 . S
C2369 C2370 1.379 . S
C2370 H2354 0.931 . S
C2370 C2364 1.383 . S
C2370 C2369 1.379 . S
H2371 C2365 0.959 . S
H2372 C2365 0.961 . S
H2373 C2365 0.960 . S
H2374 C2366 0.930 . S
H2375 C2367 0.929 . S
H2376 C2384 0.929 . S
H2377 C2386 0.930 1_545 S
H2378 C2388 0.930 . S
H2379 C2391 0.929 . S
H2380 C2394 0.930 . S
H2381 C2396 0.960 . S
H2382 C2396 0.960 . S
H2383 C2396 0.950 1_565 S
C2384 H2376 0.929 . S
C2384 C2385 1.377 . S
C2384 C2386 1.384 . S
C2385 C2384 1.377 . S
C2385 C2391 1.390 . S
C2386 H2377 0.930 1_565 S
C2386 C2384 1.384 . S
C2386 C2387 1.372 1_565 S
C2387 C2386 1.372 1_545 S
C2387 C2388 1.400 1_545 S
C2387 C2392 1.490 . S
C2388 H2378 0.930 . S
C2388 C2387 1.400 1_565 S
C2388 C2391 1.386 . S
H2389 C2405 0.930 . S
H2390 C2406 0.931 . S
C2391 H2379 0.929 . S
C2391 C2385 1.390 . S
C2391 C2388 1.386 . S
C2392 C2387 1.490 . S
C2392 C2394 1.395 . S
C2392 C2395 1.403 . S
H2393 C2399 0.930 . S
C2394 H2380 0.930 . S
C2394 C2392 1.395 . S
C2394 C2397 1.403 . S
C2395 C2392 1.403 . S
C2395 C2396 1.524 . S
C2395 C2399 1.400 . S
C2396 H2381 0.960 . S
C2396 H2382 0.960 . S
C2396 H2383 0.950 1_545 S
C2396 C2395 1.524 . S
C2397 C2394 1.403 . S
C2397 C2398 1.392 . S
C2397 C2401 1.495 . S
C2398 C2397 1.392 . S
C2398 C2399 1.385 . S
C2398 C2400 1.478 . S
C2399 H2393 0.930 . S
C2399 C2395 1.400 . S
C2399 C2398 1.385 . S
C2400 C2398 1.478 . S
C2400 C2402 1.381 . S
C2400 C2406 1.383 . S
C2401 C2397 1.495 . S
C2401 H2407 0.959 . S
C2401 H2408 0.961 . S
C2401 H2409 0.960 . S
C2402 C2400 1.381 . S
C2402 C2403 1.394 . S
C2402 H2410 0.930 . S
C2403 C2402 1.394 . S
C2403 C2404 1.383 . S
C2403 H2411 0.929 . S
C2404 C2403 1.383 . S
C2404 C2405 1.377 . S
C2405 H2389 0.930 . S
C2405 C2404 1.377 . S
C2405 C2406 1.379 . S
C2406 H2390 0.931 . S
C2406 C2400 1.383 . S
C2406 C2405 1.379 . S
H2407 C2401 0.959 . S
H2408 C2401 0.961 . S
H2409 C2401 0.960 . S
H2410 C2402 0.930 . S
H2411 C2403 0.929 . S
H2412 C2420 0.929 . S
H2413 C2422 0.930 . S
H2414 C2424 0.934 . S
H2415 C2427 0.929 . S
H2416 C2430 0.930 . S
H2417 C2432 0.960 . S
H2418 C2432 0.960 . S
H2419 C2432 0.960 . S
C2420 H2412 0.929 . S
C2420 C2421 1.377 . S
C2420 C2422 1.384 . S
C2421 C2420 1.377 . S
C2421 C2427 1.390 . S
C2422 H2413 0.930 . S
C2422 C2420 1.384 . S
C2422 C2423 1.372 1_455 S
C2423 C2422 1.372 1_655 S
C2423 C2424 1.417 . S
C2423 C2428 1.490 . S
C2424 H2414 0.934 . S
C2424 C2423 1.417 . S
C2424 C2427 1.365 1_655 S
H2425 C2441 0.930 . S
H2426 C2442 0.931 . S
C2427 H2415 0.929 . S
C2427 C2421 1.390 . S
C2427 C2424 1.365 1_455 S
C2428 C2423 1.490 . S
C2428 C2430 1.395 . S
C2428 C2431 1.403 . S
H2429 C2435 0.930 . S
C2430 H2416 0.930 . S
C2430 C2428 1.395 . S
C2430 C2433 1.403 . S
C2431 C2428 1.403 . S
C2431 C2432 1.524 . S
C2431 C2435 1.400 . S
C2432 H2417 0.960 . S
C2432 H2418 0.960 . S
C2432 H2419 0.960 . S
C2432 C2431 1.524 . S
C2433 C2430 1.403 . S
C2433 C2434 1.392 . S
C2433 C2437 1.495 . S
C2434 C2433 1.392 . S
C2434 C2435 1.385 . S
C2434 C2436 1.478 . S
C2435 H2429 0.930 . S
C2435 C2431 1.400 . S
C2435 C2434 1.385 . S
C2436 C2434 1.478 . S
C2436 C2438 1.381 . S
C2436 C2442 1.383 . S
C2437 C2433 1.495 . S
C2437 H2443 0.959 . S
C2437 H2444 0.961 . S
C2437 H2445 0.960 . S
C2438 C2436 1.381 . S
C2438 C2439 1.394 . S
C2438 H2446 0.930 . S
C2439 C2438 1.394 . S
C2439 C2440 1.383 . S
C2439 H2447 0.929 . S
C2440 C2439 1.383 . S
C2440 C2441 1.377 . S
C2441 H2425 0.930 . S
C2441 C2440 1.377 . S
C2441 C2442 1.379 . S
C2442 H2426 0.931 . S
C2442 C2436 1.383 . S
C2442 C2441 1.379 . S
H2443 C2437 0.959 . S
H2444 C2437 0.961 . S
H2445 C2437 0.960 . S
H2446 C2438 0.930 . S
H2447 C2439 0.929 . S
H2448 C2456 0.929 . S
H2449 C2458 0.930 . S
H2450 C2460 0.930 . S
H2451 C2463 0.929 . S
H2452 C2466 0.930 . S
H2453 C2468 0.960 . S
H2454 C2468 0.960 . S
H2455 C2468 0.960 . S
C2456 H2448 0.929 . S
C2456 C2457 1.377 . S
C2456 C2458 1.384 . S
C2457 C2456 1.377 . S
C2457 C2463 1.390 . S
C2458 H2449 0.930 . S
C2458 C2456 1.384 . S
C2458 C2459 1.372 . S
C2459 C2458 1.372 . S
C2459 C2460 1.400 . S
C2459 C2464 1.490 . S
C2460 H2450 0.930 . S
C2460 C2459 1.400 . S
C2460 C2463 1.386 . S
H2461 C2477 0.930 . S
H2462 C2478 0.931 . S
C2463 H2451 0.929 . S
C2463 C2457 1.390 . S
C2463 C2460 1.386 . S
C2464 C2459 1.490 . S
C2464 C2466 1.395 . S
C2464 C2467 1.403 . S
H2465 C2471 0.930 . S
C2466 H2452 0.930 . S
C2466 C2464 1.395 . S
C2466 C2469 1.403 . S
C2467 C2464 1.403 . S
C2467 C2468 1.524 . S
C2467 C2471 1.400 . S
C2468 H2453 0.960 . S
C2468 H2454 0.960 . S
C2468 H2455 0.960 . S
C2468 C2467 1.524 . S
C2469 C2466 1.403 . S
C2469 C2470 1.392 . S
C2469 C2473 1.495 . S
C2470 C2469 1.392 . S
C2470 C2471 1.385 . S
C2470 C2472 1.478 . S
C2471 H2465 0.930 . S
C2471 C2467 1.400 . S
C2471 C2470 1.385 . S
C2472 C2470 1.478 . S
C2472 C2474 1.381 . S
C2472 C2478 1.383 . S
C2473 C2469 1.495 . S
C2473 H2479 0.959 . S
C2473 H2480 0.961 . S
C2473 H2481 0.960 . S
C2474 C2472 1.381 . S
C2474 C2475 1.394 . S
C2474 H2482 0.930 . S
C2475 C2474 1.394 . S
C2475 C2476 1.383 . S
C2475 H2483 0.929 . S
C2476 C2475 1.383 . S
C2476 C2477 1.377 . S
C2477 H2461 0.930 . S
C2477 C2476 1.377 . S
C2477 C2478 1.379 . S
C2478 H2462 0.931 . S
C2478 C2472 1.383 . S
C2478 C2477 1.379 . S
H2479 C2473 0.959 . S
H2480 C2473 0.961 . S
H2481 C2473 0.960 . S
H2482 C2474 0.930 . S
H2483 C2475 0.929 . S
H2484 C2492 0.929 . S
H2485 C2494 0.930 . S
H2486 C2496 0.930 . S
H2487 C2499 0.929 . S
H2488 C2502 0.930 . S
H2489 C2504 0.960 . S
H2490 C2504 0.960 . S
H2491 C2504 0.960 . S
C2492 H2484 0.929 . S
C2492 C2493 1.377 . S
C2492 C2494 1.384 . S
C2493 C2492 1.377 . S
C2493 C2499 1.390 . S
C2494 H2485 0.930 . S
C2494 C2492 1.384 . S
C2494 C2495 1.372 1_455 S
C2495 C2494 1.372 1_655 S
C2495 C2496 1.400 . S
C2495 C2500 1.490 . S
C2496 H2486 0.930 . S
C2496 C2495 1.400 . S
C2496 C2499 1.386 1_655 S
H2497 C2513 0.930 . S
H2498 C2514 0.931 . S
C2499 H2487 0.929 . S
C2499 C2493 1.390 . S
C2499 C2496 1.386 1_455 S
C2500 C2495 1.490 . S
C2500 C2502 1.395 . S
C2500 C2503 1.403 . S
H2501 C2507 0.930 . S
C2502 H2488 0.930 . S
C2502 C2500 1.395 . S
C2502 C2505 1.403 . S
C2503 C2500 1.403 . S
C2503 C2504 1.524 . S
C2503 C2507 1.400 . S
C2504 H2489 0.960 . S
C2504 H2490 0.960 . S
C2504 H2491 0.960 . S
C2504 C2503 1.524 . S
C2505 C2502 1.403 . S
C2505 C2506 1.392 . S
C2505 C2509 1.495 . S
C2506 C2505 1.392 . S
C2506 C2507 1.385 . S
C2506 C2508 1.478 . S
C2507 H2501 0.930 . S
C2507 C2503 1.400 . S
C2507 C2506 1.385 . S
C2508 C2506 1.478 . S
C2508 C2510 1.381 . S
C2508 C2514 1.383 . S
C2509 C2505 1.495 . S
C2509 H2515 0.959 . S
C2509 H2516 0.961 . S
C2509 H2517 0.960 . S
C2510 C2508 1.381 . S
C2510 C2511 1.394 . S
C2510 H2518 0.930 . S
C2511 C2510 1.394 . S
C2511 C2512 1.383 . S
C2511 H2519 0.929 . S
C2512 C2511 1.383 . S
C2512 C2513 1.377 . S
C2513 H2497 0.930 . S
C2513 C2512 1.377 . S
C2513 C2514 1.379 . S
C2514 H2498 0.931 . S
C2514 C2508 1.383 . S
C2514 C2513 1.379 . S
H2515 C2509 0.959 . S
H2516 C2509 0.961 . S
H2517 C2509 0.960 . S
H2518 C2510 0.930 . S
H2519 C2511 0.929 . S
H2520 C2528 0.929 . S
H2521 C2530 0.930 . S
H2522 C2532 0.930 . S
H2523 C2535 0.929 . S
H2524 C2538 0.930 . S
H2525 C2540 0.960 . S
H2526 C2540 0.960 . S
H2527 C2540 0.960 . S
C2528 H2520 0.929 . S
C2528 C2529 1.377 . S
C2528 C2530 1.384 . S
C2529 C2528 1.377 . S
C2529 C2535 1.390 . S
C2530 H2521 0.930 . S
C2530 C2528 1.384 . S
C2530 C2531 1.372 . S
C2531 C2530 1.372 . S
C2531 C2532 1.400 . S
C2531 C2536 1.490 . S
C2532 H2522 0.930 . S
C2532 C2531 1.400 . S
C2532 C2535 1.386 . S
H2533 C2549 0.930 . S
H2534 C2550 0.931 . S
C2535 H2523 0.929 . S
C2535 C2529 1.390 . S
C2535 C2532 1.386 . S
C2536 C2531 1.490 . S
C2536 C2538 1.395 . S
C2536 C2539 1.403 . S
H2537 C2543 0.930 . S
C2538 H2524 0.930 . S
C2538 C2536 1.395 . S
C2538 C2541 1.403 . S
C2539 C2536 1.403 . S
C2539 C2540 1.524 . S
C2539 C2543 1.400 . S
C2540 H2525 0.960 . S
C2540 H2526 0.960 . S
C2540 H2527 0.960 . S
C2540 C2539 1.524 . S
C2541 C2538 1.403 . S
C2541 C2542 1.392 . S
C2541 C2545 1.495 . S
C2542 C2541 1.392 . S
C2542 C2543 1.385 . S
C2542 C2544 1.478 . S
C2543 H2537 0.930 . S
C2543 C2539 1.400 . S
C2543 C2542 1.385 . S
C2544 C2542 1.478 . S
C2544 C2546 1.381 . S
C2544 C2550 1.383 . S
C2545 C2541 1.495 . S
C2545 H2551 0.959 . S
C2545 H2552 0.961 . S
C2545 H2553 0.960 . S
C2546 C2544 1.381 . S
C2546 C2547 1.394 . S
C2546 H2554 0.930 . S
C2547 C2546 1.394 . S
C2547 C2548 1.383 . S
C2547 H2555 0.929 . S
C2548 C2547 1.383 . S
C2548 C2549 1.377 . S
C2549 H2533 0.930 . S
C2549 C2548 1.377 . S
C2549 C2550 1.379 . S
C2550 H2534 0.931 . S
C2550 C2544 1.383 . S
C2550 C2549 1.379 . S
H2551 C2545 0.959 . S
H2552 C2545 0.961 . S
H2553 C2545 0.960 . S
H2554 C2546 0.930 . S
H2555 C2547 0.929 . S
H2556 C2564 0.929 . S
H2557 C2566 0.930 . S
H2558 C2568 0.930 . S
H2559 C2571 0.929 . S
H2560 C2574 0.930 . S
H2561 C2576 0.960 . S
H2562 C2576 0.960 . S
H2563 C2576 0.960 . S
C2564 H2556 0.929 . S
C2564 C2565 1.377 . S
C2564 C2566 1.384 . S
C2565 C2564 1.377 . S
C2565 C2571 1.390 . S
C2566 H2557 0.930 . S
C2566 C2564 1.384 . S
C2566 C2567 1.373 . S
C2567 C2566 1.373 . S
C2567 C2568 1.405 . S
C2567 C2572 1.484 1_565 S
C2568 H2558 0.930 . S
C2568 C2567 1.405 . S
C2568 C2571 1.386 . S
H2569 C2585 0.930 . S
H2570 C2586 0.931 . S
C2571 H2559 0.929 . S
C2571 C2565 1.390 . S
C2571 C2568 1.386 . S
C2572 C2567 1.484 1_545 S
C2572 C2574 1.395 . S
C2572 C2575 1.403 . S
H2573 C2579 0.930 . S
C2574 H2560 0.930 . S
C2574 C2572 1.395 . S
C2574 C2577 1.403 . S
C2575 C2572 1.403 . S
C2575 C2576 1.524 . S
C2575 C2579 1.400 . S
C2576 H2561 0.960 . S
C2576 H2562 0.960 . S
C2576 H2563 0.960 . S
C2576 C2575 1.524 . S
C2577 C2574 1.403 . S
C2577 C2578 1.392 . S
C2577 C2581 1.495 . S
C2578 C2577 1.392 . S
C2578 C2579 1.385 . S
C2578 C2580 1.478 . S
C2579 H2573 0.930 . S
C2579 C2575 1.400 . S
C2579 C2578 1.385 . S
C2580 C2578 1.478 . S
C2580 C2582 1.381 . S
C2580 C2586 1.383 . S
C2581 C2577 1.495 . S
C2581 H2587 0.959 . S
C2581 H2588 0.961 . S
C2581 H2589 0.960 . S
C2582 C2580 1.381 . S
C2582 C2583 1.394 . S
C2582 H2590 0.930 . S
C2583 C2582 1.394 . S
C2583 C2584 1.383 . S
C2583 H2591 0.929 . S
C2584 C2583 1.383 . S
C2584 C2585 1.377 . S
C2585 H2569 0.930 . S
C2585 C2584 1.377 . S
C2585 C2586 1.379 . S
C2586 H2570 0.931 . S
C2586 C2580 1.383 . S
C2586 C2585 1.379 . S
H2587 C2581 0.959 . S
H2588 C2581 0.961 . S
H2589 C2581 0.960 . S
H2590 C2582 0.930 . S
H2591 C2583 0.929 . S
H2592 C2600 0.929 . S
H2593 C2602 0.930 . S
H2594 C2604 0.930 . S
H2595 C2607 0.929 . S
H2596 C2610 0.930 . S
H2597 C2612 0.960 . S
H2598 C2612 0.960 . S
H2599 C2612 0.960 . S
C2600 H2592 0.929 . S
C2600 C2601 1.377 . S
C2600 C2602 1.384 . S
C2601 C2600 1.377 . S
C2601 C2607 1.390 . S
C2602 H2593 0.930 . S
C2602 C2600 1.384 . S
C2602 C2603 1.372 . S
C2603 C2602 1.372 . S
C2603 C2604 1.400 . S
C2603 C2608 1.490 . S
C2604 H2594 0.930 . S
C2604 C2603 1.400 . S
C2604 C2607 1.386 . S
H2605 C2621 0.930 . S
H2606 C2622 0.931 . S
C2607 H2595 0.929 . S
C2607 C2601 1.390 . S
C2607 C2604 1.386 . S
C2608 C2603 1.490 . S
C2608 C2610 1.395 . S
C2608 C2611 1.403 . S
H2609 C2615 0.930 . S
C2610 H2596 0.930 . S
C2610 C2608 1.395 . S
C2610 C2613 1.403 . S
C2611 C2608 1.403 . S
C2611 C2612 1.524 . S
C2611 C2615 1.400 . S
C2612 H2597 0.960 . S
C2612 H2598 0.960 . S
C2612 H2599 0.960 . S
C2612 C2611 1.524 . S
C2613 C2610 1.403 . S
C2613 C2614 1.392 . S
C2613 C2617 1.495 . S
C2614 C2613 1.392 . S
C2614 C2615 1.385 . S
C2614 C2616 1.478 . S
C2615 H2609 0.930 . S
C2615 C2611 1.400 . S
C2615 C2614 1.385 . S
C2616 C2614 1.478 . S
C2616 C2618 1.381 . S
C2616 C2622 1.383 . S
C2617 C2613 1.495 . S
C2617 H2623 0.959 . S
C2617 H2624 0.961 . S
C2617 H2625 0.960 . S
C2618 C2616 1.381 . S
C2618 C2619 1.394 . S
C2618 H2626 0.930 . S
C2619 C2618 1.394 . S
C2619 C2620 1.383 . S
C2619 H2627 0.929 . S
C2620 C2619 1.383 . S
C2620 C2621 1.377 . S
C2621 H2605 0.930 . S
C2621 C2620 1.377 . S
C2621 C2622 1.379 . S
C2622 H2606 0.931 . S
C2622 C2616 1.383 . S
C2622 C2621 1.379 . S
H2623 C2617 0.959 . S
H2624 C2617 0.961 . S
H2625 C2617 0.960 . S
H2626 C2618 0.930 . S
H2627 C2619 0.929 . S
H2628 C2636 0.929 . S
H2629 C2638 0.930 . S
H2630 C2640 0.930 . S
H2631 C2643 0.929 . S
H2632 C2646 0.930 . S
H2633 C2648 0.960 . S
H2634 C2648 0.960 . S
H2635 C2648 0.960 . S
C2636 H2628 0.929 . S
C2636 C2637 1.377 . S
C2636 C2638 1.384 . S
C2637 C2636 1.377 . S
C2637 C2643 1.390 . S
C2638 H2629 0.930 . S
C2638 C2636 1.384 . S
C2638 C2639 1.372 . S
C2639 C2638 1.372 . S
C2639 C2640 1.400 . S
C2639 C2644 1.490 . S
C2640 H2630 0.930 . S
C2640 C2639 1.400 . S
C2640 C2643 1.386 . S
H2641 C2657 0.930 . S
H2642 C2658 0.931 . S
C2643 H2631 0.929 . S
C2643 C2637 1.390 . S
C2643 C2640 1.386 . S
C2644 C2639 1.490 . S
C2644 C2646 1.395 . S
C2644 C2647 1.403 . S
H2645 C2651 0.930 . S
C2646 H2632 0.930 . S
C2646 C2644 1.395 . S
C2646 C2649 1.403 . S
C2647 C2644 1.403 . S
C2647 C2648 1.524 . S
C2647 C2651 1.400 . S
C2648 H2633 0.960 . S
C2648 H2634 0.960 . S
C2648 H2635 0.960 . S
C2648 C2647 1.524 . S
C2649 C2646 1.403 . S
C2649 C2650 1.392 . S
C2649 C2653 1.495 . S
C2650 C2649 1.392 . S
C2650 C2651 1.385 . S
C2650 C2652 1.478 . S
C2651 H2645 0.930 . S
C2651 C2647 1.400 . S
C2651 C2650 1.385 . S
C2652 C2650 1.478 . S
C2652 C2654 1.381 . S
C2652 C2658 1.383 . S
C2653 C2649 1.495 . S
C2653 H2659 0.959 . S
C2653 H2660 0.961 . S
C2653 H2661 0.960 . S
C2654 C2652 1.381 . S
C2654 C2655 1.394 . S
C2654 H2662 0.930 . S
C2655 C2654 1.394 . S
C2655 C2656 1.383 . S
C2655 H2663 0.929 . S
C2656 C2655 1.383 . S
C2656 C2657 1.377 . S
C2657 H2641 0.930 . S
C2657 C2656 1.377 . S
C2657 C2658 1.379 . S
C2658 H2642 0.931 . S
C2658 C2652 1.383 . S
C2658 C2657 1.379 . S
H2659 C2653 0.959 . S
H2660 C2653 0.961 . S
H2661 C2653 0.960 . S
H2662 C2654 0.930 . S
H2663 C2655 0.929 . S
H2664 C2672 0.929 . S
H2665 C2674 0.930 . S
H2666 C2676 0.930 . S
H2667 C2679 0.929 . S
H2668 C2682 0.930 . S
H2669 C2684 0.960 . S
H2670 C2684 0.960 . S
H2671 C2684 0.960 . S
C2672 H2664 0.929 . S
C2672 C2673 1.377 . S
C2672 C2674 1.384 . S
C2673 C2672 1.377 . S
C2673 C2679 1.390 . S
C2674 H2665 0.930 . S
C2674 C2672 1.384 . S
C2674 C2675 1.372 . S
C2675 C2674 1.372 . S
C2675 C2676 1.400 . S
C2675 C2680 1.490 . S
C2676 H2666 0.930 . S
C2676 C2675 1.400 . S
C2676 C2679 1.386 . S
H2677 C2693 0.930 . S
H2678 C2694 0.931 . S
C2679 H2667 0.929 . S
C2679 C2673 1.390 . S
C2679 C2676 1.386 . S
C2680 C2675 1.490 . S
C2680 C2682 1.395 . S
C2680 C2683 1.403 . S
H2681 C2687 0.930 . S
C2682 H2668 0.930 . S
C2682 C2680 1.395 . S
C2682 C2685 1.403 . S
C2683 C2680 1.403 . S
C2683 C2684 1.524 . S
C2683 C2687 1.400 . S
C2684 H2669 0.960 . S
C2684 H2670 0.960 . S
C2684 H2671 0.960 . S
C2684 C2683 1.524 . S
C2685 C2682 1.403 . S
C2685 C2686 1.392 . S
C2685 C2689 1.495 . S
C2686 C2685 1.392 . S
C2686 C2687 1.385 . S
C2686 C2688 1.478 . S
C2687 H2681 0.930 . S
C2687 C2683 1.400 . S
C2687 C2686 1.385 . S
C2688 C2686 1.478 . S
C2688 C2690 1.381 . S
C2688 C2694 1.383 . S
C2689 C2685 1.495 . S
C2689 H2695 0.959 . S
C2689 H2696 0.961 . S
C2689 H2697 0.960 . S
C2690 C2688 1.381 . S
C2690 C2691 1.394 . S
C2690 H2698 0.930 . S
C2691 C2690 1.394 . S
C2691 C2692 1.383 . S
C2691 H2699 0.929 . S
C2692 C2691 1.383 . S
C2692 C2693 1.377 . S
C2693 H2677 0.930 . S
C2693 C2692 1.377 . S
C2693 C2694 1.379 . S
C2694 H2678 0.931 . S
C2694 C2688 1.383 . S
C2694 C2693 1.379 . S
H2695 C2689 0.959 . S
H2696 C2689 0.961 . S
H2697 C2689 0.960 . S
H2698 C2690 0.930 . S
H2699 C2691 0.929 . S
H2700 C2708 0.929 . S
H2701 C2710 0.930 . S
H2702 C2712 0.930 . S
H2703 C2715 0.929 . S
H2704 C2718 0.930 . S
H2705 C2720 0.960 . S
H2706 C2720 0.960 . S
H2707 C2720 0.960 . S
C2708 H2700 0.929 . S
C2708 C2709 1.377 . S
C2708 C2710 1.384 . S
C2709 C2708 1.377 . S
C2709 C2715 1.390 . S
C2710 H2701 0.930 . S
C2710 C2708 1.384 . S
C2710 C2711 1.372 . S
C2711 C2710 1.372 . S
C2711 C2712 1.400 . S
C2711 C2716 1.490 . S
C2712 H2702 0.930 . S
C2712 C2711 1.400 . S
C2712 C2715 1.386 . S
H2713 C2729 0.930 1_545 S
H2714 C2730 0.931 . S
C2715 H2703 0.929 . S
C2715 C2709 1.390 . S
C2715 C2712 1.386 . S
C2716 C2711 1.490 . S
C2716 C2718 1.395 . S
C2716 C2719 1.403 . S
H2717 C2723 0.930 . S
C2718 H2704 0.930 . S
C2718 C2716 1.395 . S
C2718 C2721 1.403 . S
C2719 C2716 1.403 . S
C2719 C2720 1.524 . S
C2719 C2723 1.400 . S
C2720 H2705 0.960 . S
C2720 H2706 0.960 . S
C2720 H2707 0.960 . S
C2720 C2719 1.524 . S
C2721 C2718 1.403 . S
C2721 C2722 1.392 . S
C2721 C2725 1.495 . S
C2722 C2721 1.392 . S
C2722 C2723 1.385 . S
C2722 C2724 1.478 . S
C2723 H2717 0.930 . S
C2723 C2719 1.400 . S
C2723 C2722 1.385 . S
C2724 C2722 1.478 . S
C2724 C2726 1.381 . S
C2724 C2730 1.383 . S
C2725 C2721 1.495 . S
C2725 H2731 0.959 . S
C2725 H2732 0.961 . S
C2725 H2733 0.960 . S
C2726 C2724 1.381 . S
C2726 C2727 1.394 . S
C2726 H2734 0.930 . S
C2727 C2726 1.394 . S
C2727 C2728 1.383 . S
C2727 H2735 0.929 . S
C2728 C2727 1.383 . S
C2728 C2729 1.377 . S
C2729 H2713 0.930 1_565 S
C2729 C2728 1.377 . S
C2729 C2730 1.379 . S
C2730 H2714 0.931 . S
C2730 C2724 1.383 . S
C2730 C2729 1.379 . S
H2731 C2725 0.959 . S
H2732 C2725 0.961 . S
H2733 C2725 0.960 . S
H2734 C2726 0.930 . S
H2735 C2727 0.929 . S
H2736 C2744 0.929 . S
H2737 C2746 0.930 . S
H2738 C2748 0.930 . S
H2739 C2751 0.929 . S
H2740 C2754 0.930 . S
H2741 C2756 0.960 . S
H2742 C2756 0.960 . S
H2743 C2756 0.960 . S
C2744 H2736 0.929 . S
C2744 C2745 1.377 . S
C2744 C2746 1.384 . S
C2745 C2744 1.377 . S
C2745 C2751 1.390 . S
C2746 H2737 0.930 . S
C2746 C2744 1.384 . S
C2746 C2747 1.372 . S
C2747 C2746 1.372 . S
C2747 C2748 1.400 . S
C2747 C2752 1.490 . S
C2748 H2738 0.930 . S
C2748 C2747 1.400 . S
C2748 C2751 1.386 . S
H2749 C2765 0.930 1_655 S
H2750 C2766 0.931 . S
C2751 H2739 0.929 . S
C2751 C2745 1.390 . S
C2751 C2748 1.386 . S
C2752 C2747 1.490 . S
C2752 C2754 1.395 . S
C2752 C2755 1.403 . S
H2753 C2759 0.930 . S
C2754 H2740 0.930 . S
C2754 C2752 1.395 . S
C2754 C2757 1.403 . S
C2755 C2752 1.403 . S
C2755 C2756 1.524 . S
C2755 C2759 1.400 . S
C2756 H2741 0.960 . S
C2756 H2742 0.960 . S
C2756 H2743 0.960 . S
C2756 C2755 1.524 . S
C2757 C2754 1.403 . S
C2757 C2758 1.392 . S
C2757 C2761 1.495 . S
C2758 C2757 1.392 . S
C2758 C2759 1.385 . S
C2758 C2760 1.478 . S
C2759 H2753 0.930 . S
C2759 C2755 1.400 . S
C2759 C2758 1.385 . S
C2760 C2758 1.478 . S
C2760 C2762 1.381 . S
C2760 C2766 1.383 . S
C2761 C2757 1.495 . S
C2761 H2767 0.959 . S
C2761 H2768 0.961 . S
C2761 H2769 0.960 . S
C2762 C2760 1.381 . S
C2762 C2763 1.394 . S
C2762 H2770 0.930 . S
C2763 C2762 1.394 . S
C2763 C2764 1.383 . S
C2763 H2771 0.929 . S
C2764 C2763 1.383 . S
C2764 C2765 1.377 . S
C2765 H2749 0.930 1_455 S
C2765 C2764 1.377 . S
C2765 C2766 1.379 . S
C2766 H2750 0.931 . S
C2766 C2760 1.383 . S
C2766 C2765 1.379 . S
H2767 C2761 0.959 . S
H2768 C2761 0.961 . S
H2769 C2761 0.960 . S
H2770 C2762 0.930 . S
H2771 C2763 0.929 . S
H2772 C2780 0.929 . S
H2773 C2782 0.930 . S
H2774 C2784 0.930 . S
H2775 C2787 0.929 . S
H2776 C2790 0.930 . S
H2777 C2792 0.960 . S
H2778 C2792 0.960 . S
H2779 C2792 0.960 . S
C2780 H2772 0.929 . S
C2780 C2781 1.377 . S
C2780 C2782 1.384 . S
C2781 C2780 1.377 . S
C2781 C2787 1.390 . S
C2782 H2773 0.930 . S
C2782 C2780 1.384 . S
C2782 C2783 1.372 . S
C2783 C2782 1.372 . S
C2783 C2784 1.400 . S
C2783 C2788 1.490 . S
C2784 H2774 0.930 . S
C2784 C2783 1.400 . S
C2784 C2787 1.386 . S
H2785 C2801 0.930 . S
H2786 C2802 0.931 . S
C2787 H2775 0.929 . S
C2787 C2781 1.390 . S
C2787 C2784 1.386 . S
C2788 C2783 1.490 . S
C2788 C2790 1.395 . S
C2788 C2791 1.403 . S
H2789 C2795 0.930 . S
C2790 H2776 0.930 . S
C2790 C2788 1.395 . S
C2790 C2793 1.403 . S
C2791 C2788 1.403 . S
C2791 C2792 1.524 . S
C2791 C2795 1.400 . S
C2792 H2777 0.960 . S
C2792 H2778 0.960 . S
C2792 H2779 0.960 . S
C2792 C2791 1.524 . S
C2793 C2790 1.403 . S
C2793 C2794 1.392 . S
C2793 C2797 1.495 . S
C2794 C2793 1.392 . S
C2794 C2795 1.385 . S
C2794 C2796 1.478 . S
C2795 H2789 0.930 . S
C2795 C2791 1.400 . S
C2795 C2794 1.385 . S
C2796 C2794 1.478 . S
C2796 C2798 1.381 . S
C2796 C2802 1.383 . S
C2797 C2793 1.495 . S
C2797 H2803 0.959 . S
C2797 H2804 0.961 . S
C2797 H2805 0.960 . S
C2798 C2796 1.381 . S
C2798 C2799 1.394 . S
C2798 H2806 0.930 . S
C2799 C2798 1.394 . S
C2799 C2800 1.383 . S
C2799 H2807 0.929 . S
C2800 C2799 1.383 . S
C2800 C2801 1.377 . S
C2801 H2785 0.930 . S
C2801 C2800 1.377 . S
C2801 C2802 1.379 . S
C2802 H2786 0.931 . S
C2802 C2796 1.383 . S
C2802 C2801 1.379 . S
H2803 C2797 0.959 . S
H2804 C2797 0.961 . S
H2805 C2797 0.960 . S
H2806 C2798 0.930 . S
H2807 C2799 0.929 . S
H2808 C2816 0.929 . S
H2809 C2818 0.930 . S
H2810 C2820 0.930 . S
H2811 C2823 0.929 . S
H2812 C2826 0.930 . S
H2813 C2828 0.960 1_455 S
H2814 C2828 0.960 . S
H2815 C2828 0.960 . S
C2816 H2808 0.929 . S
C2816 C2817 1.377 . S
C2816 C2818 1.384 . S
C2817 C2816 1.377 . S
C2817 C2823 1.390 . S
C2818 H2809 0.930 . S
C2818 C2816 1.384 . S
C2818 C2819 1.372 . S
C2819 C2818 1.372 . S
C2819 C2820 1.400 . S
C2819 C2824 1.490 . S
C2820 H2810 0.930 . S
C2820 C2819 1.400 . S
C2820 C2823 1.386 . S
H2821 C2837 0.930 . S
H2822 C2838 0.931 . S
C2823 H2811 0.929 . S
C2823 C2817 1.390 . S
C2823 C2820 1.386 . S
C2824 C2819 1.490 . S
C2824 C2826 1.395 . S
C2824 C2827 1.403 . S
H2825 C2831 0.930 . S
C2826 H2812 0.930 . S
C2826 C2824 1.395 . S
C2826 C2829 1.403 . S
C2827 C2824 1.403 . S
C2827 C2828 1.524 . S
C2827 C2831 1.400 . S
C2828 H2813 0.960 1_655 S
C2828 H2814 0.960 . S
C2828 H2815 0.960 . S
C2828 C2827 1.524 . S
C2829 C2826 1.403 . S
C2829 C2830 1.392 . S
C2829 C2833 1.495 . S
C2830 C2829 1.392 . S
C2830 C2831 1.385 . S
C2830 C2832 1.478 . S
C2831 H2825 0.930 . S
C2831 C2827 1.400 . S
C2831 C2830 1.385 . S
C2832 C2830 1.478 . S
C2832 C2834 1.381 . S
C2832 C2838 1.383 . S
C2833 C2829 1.495 . S
C2833 H2839 0.959 . S
C2833 H2840 0.961 . S
C2833 H2841 0.960 . S
C2834 C2832 1.381 . S
C2834 C2835 1.394 . S
C2834 H2842 0.930 . S
C2835 C2834 1.394 . S
C2835 C2836 1.383 . S
C2835 H2843 0.929 . S
C2836 C2835 1.383 . S
C2836 C2837 1.377 . S
C2837 H2821 0.930 . S
C2837 C2836 1.377 . S
C2837 C2838 1.379 . S
C2838 H2822 0.931 . S
C2838 C2832 1.383 . S
C2838 C2837 1.379 . S
H2839 C2833 0.959 . S
H2840 C2833 0.961 . S
H2841 C2833 0.960 . S
H2842 C2834 0.930 . S
H2843 C2835 0.929 . S
H2844 C2852 0.929 . S
H2845 C2854 0.930 . S
H2846 C2856 0.930 . S
H2847 C2859 0.929 . S
H2848 C2862 0.930 . S
H2849 C2864 0.960 . S
H2850 C2864 0.960 . S
H2851 C2864 0.960 . S
C2852 H2844 0.929 . S
C2852 C2853 1.377 . S
C2852 C2854 1.384 . S
C2853 C2852 1.377 . S
C2853 C2859 1.390 . S
C2854 H2845 0.930 . S
C2854 C2852 1.384 . S
C2854 C2855 1.372 . S
C2855 C2854 1.372 . S
C2855 C2856 1.400 . S
C2855 C2860 1.490 . S
C2856 H2846 0.930 . S
C2856 C2855 1.400 . S
C2856 C2859 1.386 . S
H2857 C2873 0.930 . S
H2858 C2874 0.931 . S
C2859 H2847 0.929 . S
C2859 C2853 1.390 . S
C2859 C2856 1.386 . S
C2860 C2855 1.490 . S
C2860 C2862 1.395 . S
C2860 C2863 1.403 . S
H2861 C2867 0.930 . S
C2862 H2848 0.930 . S
C2862 C2860 1.395 . S
C2862 C2865 1.403 . S
C2863 C2860 1.403 . S
C2863 C2864 1.524 . S
C2863 C2867 1.400 . S
C2864 H2849 0.960 . S
C2864 H2850 0.960 . S
C2864 H2851 0.960 . S
C2864 C2863 1.524 . S
C2865 C2862 1.403 . S
C2865 C2866 1.392 . S
C2865 C2869 1.495 . S
C2866 C2865 1.392 . S
C2866 C2867 1.385 . S
C2866 C2868 1.478 . S
C2867 H2861 0.930 . S
C2867 C2863 1.400 . S
C2867 C2866 1.385 . S
C2868 C2866 1.478 . S
C2868 C2870 1.381 . S
C2868 C2874 1.383 . S
C2869 C2865 1.495 . S
C2869 H2875 0.959 . S
C2869 H2876 0.961 . S
C2869 H2877 0.960 . S
C2870 C2868 1.381 . S
C2870 C2871 1.394 . S
C2870 H2878 0.930 . S
C2871 C2870 1.394 . S
C2871 C2872 1.383 . S
C2871 H2879 0.929 . S
C2872 C2871 1.383 . S
C2872 C2873 1.377 . S
C2873 H2857 0.930 . S
C2873 C2872 1.377 . S
C2873 C2874 1.379 . S
C2874 H2858 0.931 . S
C2874 C2868 1.383 . S
C2874 C2873 1.379 . S
H2875 C2869 0.959 . S
H2876 C2869 0.961 . S
H2877 C2869 0.960 . S
H2878 C2870 0.930 . S
H2879 C2871 0.929 . S
H2880 C2888 0.929 . S
H2881 C2890 0.930 . S
H2882 C2892 0.930 . S
H2883 C2895 0.929 . S
H2884 C2898 0.930 . S
H2885 C2900 0.960 . S
H2886 C2900 0.960 . S
H2887 C2900 0.960 . S
C2888 H2880 0.929 . S
C2888 C2889 1.377 . S
C2888 C2890 1.384 . S
C2889 C2888 1.377 . S
C2889 C2895 1.390 . S
C2890 H2881 0.930 . S
C2890 C2888 1.384 . S
C2890 C2891 1.372 . S
C2891 C2890 1.372 . S
C2891 C2892 1.400 . S
C2891 C2896 1.490 . S
C2892 H2882 0.930 . S
C2892 C2891 1.400 . S
C2892 C2895 1.386 . S
H2893 C2909 0.930 . S
H2894 C2910 0.931 . S
C2895 H2883 0.929 . S
C2895 C2889 1.390 . S
C2895 C2892 1.386 . S
C2896 C2891 1.490 . S
C2896 C2898 1.395 . S
C2896 C2899 1.403 . S
H2897 C2903 0.930 . S
C2898 H2884 0.930 . S
C2898 C2896 1.395 . S
C2898 C2901 1.403 . S
C2899 C2896 1.403 . S
C2899 C2900 1.524 . S
C2899 C2903 1.400 . S
C2900 H2885 0.960 . S
C2900 H2886 0.960 . S
C2900 H2887 0.960 . S
C2900 C2899 1.524 . S
C2901 C2898 1.403 . S
C2901 C2902 1.392 . S
C2901 C2905 1.495 . S
C2902 C2901 1.392 . S
C2902 C2903 1.385 . S
C2902 C2904 1.478 . S
C2903 H2897 0.930 . S
C2903 C2899 1.400 . S
C2903 C2902 1.385 . S
C2904 C2902 1.478 . S
C2904 C2906 1.381 . S
C2904 C2910 1.383 . S
C2905 C2901 1.495 . S
C2905 H2911 0.959 1_545 S
C2905 H2912 0.961 1_545 S
C2905 H2913 0.955 . S
C2906 C2904 1.381 . S
C2906 C2907 1.394 . S
C2906 H2914 0.930 . S
C2907 C2906 1.394 . S
C2907 C2908 1.383 . S
C2907 H2915 0.929 . S
C2908 C2907 1.383 . S
C2908 C2909 1.377 . S
C2909 H2893 0.930 . S
C2909 C2908 1.377 . S
C2909 C2910 1.379 . S
C2910 H2894 0.931 . S
C2910 C2904 1.383 . S
C2910 C2909 1.379 . S
H2911 C2905 0.959 1_565 S
H2912 C2905 0.961 1_565 S
H2913 C2905 0.955 . S
H2914 C2906 0.930 . S
H2915 C2907 0.929 . S
H2916 C2924 0.929 . S
H2917 C2926 0.930 . S
H2918 C2928 0.930 . S
H2919 C2931 0.929 . S
H2920 C2934 0.930 . S
H2921 C2936 0.960 . S
H2922 C2936 0.960 . S
H2923 C2936 0.960 . S
C2924 H2916 0.929 . S
C2924 C2925 1.377 . S
C2924 C2926 1.384 . S
C2925 C2924 1.377 . S
C2925 C2931 1.390 . S
C2926 H2917 0.930 . S
C2926 C2924 1.384 . S
C2926 C2927 1.372 . S
C2927 C2926 1.372 . S
C2927 C2928 1.400 . S
C2927 C2932 1.490 . S
C2928 H2918 0.930 . S
C2928 C2927 1.400 . S
C2928 C2931 1.386 . S
H2929 C2945 0.930 . S
H2930 C2946 0.931 . S
C2931 H2919 0.929 . S
C2931 C2925 1.390 . S
C2931 C2928 1.386 . S
C2932 C2927 1.490 . S
C2932 C2934 1.395 . S
C2932 C2935 1.403 . S
H2933 C2939 0.930 . S
C2934 H2920 0.930 . S
C2934 C2932 1.395 . S
C2934 C2937 1.403 . S
C2935 C2932 1.403 . S
C2935 C2936 1.524 . S
C2935 C2939 1.400 . S
C2936 H2921 0.960 . S
C2936 H2922 0.960 . S
C2936 H2923 0.960 . S
C2936 C2935 1.524 . S
C2937 C2934 1.403 . S
C2937 C2938 1.392 . S
C2937 C2941 1.495 . S
C2938 C2937 1.392 . S
C2938 C2939 1.385 . S
C2938 C2940 1.478 . S
C2939 H2933 0.930 . S
C2939 C2935 1.400 . S
C2939 C2938 1.385 . S
C2940 C2938 1.478 . S
C2940 C2942 1.381 . S
C2940 C2946 1.383 . S
C2941 C2937 1.495 . S
C2941 H2947 0.959 . S
C2941 H2948 0.961 . S
C2941 H2949 0.960 . S
C2942 C2940 1.381 . S
C2942 C2943 1.394 . S
C2942 H2950 0.930 . S
C2943 C2942 1.394 . S
C2943 C2944 1.383 . S
C2943 H2951 0.929 . S
C2944 C2943 1.383 . S
C2944 C2945 1.377 . S
C2945 H2929 0.930 . S
C2945 C2944 1.377 . S
C2945 C2946 1.379 . S
C2946 H2930 0.931 . S
C2946 C2940 1.383 . S
C2946 C2945 1.379 . S
H2947 C2941 0.959 . S
H2948 C2941 0.961 . S
H2949 C2941 0.960 . S
H2950 C2942 0.930 . S
H2951 C2943 0.929 . S
H2952 C2960 0.929 . S
H2953 C2962 0.930 . S
H2954 C2964 0.930 . S
H2955 C2967 0.929 . S
H2956 C2970 0.930 . S
H2957 C2972 0.960 . S
H2958 C2972 0.960 . S
H2959 C2972 0.960 . S
C2960 H2952 0.929 . S
C2960 C2961 1.377 . S
C2960 C2962 1.384 . S
C2961 C2960 1.377 . S
C2961 C2967 1.390 . S
C2962 H2953 0.930 . S
C2962 C2960 1.384 . S
C2962 C2963 1.372 . S
C2963 C2962 1.372 . S
C2963 C2964 1.400 . S
C2963 C2968 1.490 . S
C2964 H2954 0.930 . S
C2964 C2963 1.400 . S
C2964 C2967 1.386 . S
H2965 C2981 0.930 . S
H2966 C2982 0.931 . S
C2967 H2955 0.929 . S
C2967 C2961 1.390 . S
C2967 C2964 1.386 . S
C2968 C2963 1.490 . S
C2968 C2970 1.395 . S
C2968 C2971 1.403 . S
H2969 C2975 0.930 . S
C2970 H2956 0.930 . S
C2970 C2968 1.395 . S
C2970 C2973 1.403 . S
C2971 C2968 1.403 . S
C2971 C2972 1.524 . S
C2971 C2975 1.400 . S
C2972 H2957 0.960 . S
C2972 H2958 0.960 . S
C2972 H2959 0.960 . S
C2972 C2971 1.524 . S
C2973 C2970 1.403 . S
C2973 C2974 1.392 . S
C2973 C2977 1.495 . S
C2974 C2973 1.392 . S
C2974 C2975 1.385 . S
C2974 C2976 1.478 . S
C2975 H2969 0.930 . S
C2975 C2971 1.400 . S
C2975 C2974 1.385 . S
C2976 C2974 1.478 . S
C2976 C2978 1.381 . S
C2976 C2982 1.383 . S
C2977 C2973 1.495 . S
C2977 H2983 0.959 . S
C2977 H2984 0.961 . S
C2977 H2985 0.960 . S
C2978 C2976 1.381 . S
C2978 C2979 1.394 . S
C2978 H2986 0.930 . S
C2979 C2978 1.394 . S
C2979 C2980 1.383 . S
C2979 H2987 0.929 . S
C2980 C2979 1.383 . S
C2980 C2981 1.377 . S
C2981 H2965 0.930 . S
C2981 C2980 1.377 . S
C2981 C2982 1.379 . S
C2982 H2966 0.931 . S
C2982 C2976 1.383 . S
C2982 C2981 1.379 . S
H2983 C2977 0.959 . S
H2984 C2977 0.961 . S
H2985 C2977 0.960 . S
H2986 C2978 0.930 . S
H2987 C2979 0.929 . S
H2988 C2996 0.929 . S
H2989 C2998 0.930 . S
H2990 C3000 0.930 . S
H2991 C3003 0.929 . S
H2992 C3006 0.930 . S
H2993 C3008 0.960 . S
H2994 C3008 0.960 . S
H2995 C3008 0.960 . S
C2996 H2988 0.929 . S
C2996 C2997 1.377 . S
C2996 C2998 1.384 . S
C2997 C2996 1.377 . S
C2997 C3003 1.390 . S
C2998 H2989 0.930 . S
C2998 C2996 1.384 . S
C2998 C2999 1.372 . S
C2999 C2998 1.372 . S
C2999 C3000 1.400 . S
C2999 C3004 1.490 . S
C3000 H2990 0.930 . S
C3000 C2999 1.400 . S
C3000 C3003 1.386 . S
H3001 C3017 0.930 . S
H3002 C3018 0.931 . S
C3003 H2991 0.929 . S
C3003 C2997 1.390 . S
C3003 C3000 1.386 . S
C3004 C2999 1.490 . S
C3004 C3006 1.395 . S
C3004 C3007 1.403 . S
H3005 C3011 0.930 . S
C3006 H2992 0.930 . S
C3006 C3004 1.395 . S
C3006 C3009 1.403 . S
C3007 C3004 1.403 . S
C3007 C3008 1.524 . S
C3007 C3011 1.400 . S
C3008 H2993 0.960 . S
C3008 H2994 0.960 . S
C3008 H2995 0.960 . S
C3008 C3007 1.524 . S
C3009 C3006 1.403 . S
C3009 C3010 1.392 . S
C3009 C3013 1.495 . S
C3010 C3009 1.392 . S
C3010 C3011 1.385 . S
C3010 C3012 1.478 . S
C3011 H3005 0.930 . S
C3011 C3007 1.400 . S
C3011 C3010 1.385 . S
C3012 C3010 1.478 . S
C3012 C3014 1.381 . S
C3012 C3018 1.383 . S
C3013 C3009 1.495 . S
C3013 H3019 0.959 . S
C3013 H3020 0.961 . S
C3013 H3021 0.960 . S
C3014 C3012 1.381 . S
C3014 C3015 1.394 . S
C3014 H3022 0.930 . S
C3015 C3014 1.394 . S
C3015 C3016 1.383 . S
C3015 H3023 0.929 . S
C3016 C3015 1.383 . S
C3016 C3017 1.377 . S
C3017 H3001 0.930 . S
C3017 C3016 1.377 . S
C3017 C3018 1.379 . S
C3018 H3002 0.931 . S
C3018 C3012 1.383 . S
C3018 C3017 1.379 . S
H3019 C3013 0.959 . S
H3020 C3013 0.961 . S
H3021 C3013 0.960 . S
H3022 C3014 0.930 . S
H3023 C3015 0.929 . S
H3024 C3032 0.929 . S
H3025 C3034 0.930 . S
H3026 C3036 0.930 . S
H3027 C3039 0.929 . S
H3028 C3042 0.930 . S
H3029 C3044 0.960 . S
H3030 C3044 0.960 . S
H3031 C3044 0.960 . S
C3032 H3024 0.929 . S
C3032 C3033 1.377 . S
C3032 C3034 1.384 . S
C3033 C3032 1.377 . S
C3033 C3039 1.390 . S
C3034 H3025 0.930 . S
C3034 C3032 1.384 . S
C3034 C3035 1.372 . S
C3035 C3034 1.372 . S
C3035 C3036 1.400 . S
C3035 C3040 1.490 . S
C3036 H3026 0.930 . S
C3036 C3035 1.400 . S
C3036 C3039 1.386 . S
H3037 C3053 0.930 . S
H3038 C3054 0.931 . S
C3039 H3027 0.929 . S
C3039 C3033 1.390 . S
C3039 C3036 1.386 . S
C3040 C3035 1.490 . S
C3040 C3042 1.395 . S
C3040 C3043 1.403 . S
H3041 C3047 0.930 . S
C3042 H3028 0.930 . S
C3042 C3040 1.395 . S
C3042 C3045 1.403 . S
C3043 C3040 1.403 . S
C3043 C3044 1.524 . S
C3043 C3047 1.400 . S
C3044 H3029 0.960 . S
C3044 H3030 0.960 . S
C3044 H3031 0.960 . S
C3044 C3043 1.524 . S
C3045 C3042 1.403 . S
C3045 C3046 1.392 . S
C3045 C3049 1.495 . S
C3046 C3045 1.392 . S
C3046 C3047 1.385 . S
C3046 C3048 1.478 . S
C3047 H3041 0.930 . S
C3047 C3043 1.400 . S
C3047 C3046 1.385 . S
C3048 C3046 1.478 . S
C3048 C3050 1.381 . S
C3048 C3054 1.383 . S
C3049 C3045 1.495 . S
C3049 H3055 0.959 . S
C3049 H3056 0.961 . S
C3049 H3057 0.960 . S
C3050 C3048 1.381 . S
C3050 C3051 1.394 . S
C3050 H3058 0.930 . S
C3051 C3050 1.394 . S
C3051 C3052 1.383 . S
C3051 H3059 0.929 . S
C3052 C3051 1.383 . S
C3052 C3053 1.377 . S
C3053 H3037 0.930 . S
C3053 C3052 1.377 . S
C3053 C3054 1.379 . S
C3054 H3038 0.931 . S
C3054 C3048 1.383 . S
C3054 C3053 1.379 . S
H3055 C3049 0.959 . S
H3056 C3049 0.961 . S
H3057 C3049 0.960 . S
H3058 C3050 0.930 . S
H3059 C3051 0.929 . S
H3060 C3068 0.929 . S
H3061 C3070 0.930 . S
H3062 C3072 0.930 . S
H3063 C3075 0.929 . S
H3064 C3078 0.930 . S
H3065 C3080 0.960 . S
H3066 C3080 0.960 . S
H3067 C3080 0.960 . S
C3068 H3060 0.929 . S
C3068 C3069 1.377 . S
C3068 C3070 1.384 . S
C3069 C3068 1.377 . S
C3069 C3075 1.390 . S
C3070 H3061 0.930 . S
C3070 C3068 1.384 . S
C3070 C3071 1.372 . S
C3071 C3070 1.372 . S
C3071 C3072 1.400 . S
C3071 C3076 1.490 . S
C3072 H3062 0.930 . S
C3072 C3071 1.400 . S
C3072 C3075 1.386 . S
H3073 C3089 0.930 . S
H3074 C3090 0.931 . S
C3075 H3063 0.929 . S
C3075 C3069 1.390 . S
C3075 C3072 1.386 . S
C3076 C3071 1.490 . S
C3076 C3078 1.395 . S
C3076 C3079 1.403 . S
H3077 C3083 0.930 . S
C3078 H3064 0.930 . S
C3078 C3076 1.395 . S
C3078 C3081 1.403 . S
C3079 C3076 1.403 . S
C3079 C3080 1.524 . S
C3079 C3083 1.400 . S
C3080 H3065 0.960 . S
C3080 H3066 0.960 . S
C3080 H3067 0.960 . S
C3080 C3079 1.524 . S
C3081 C3078 1.403 . S
C3081 C3082 1.392 . S
C3081 C3085 1.495 . S
C3082 C3081 1.392 . S
C3082 C3083 1.385 . S
C3082 C3084 1.478 . S
C3083 H3077 0.930 . S
C3083 C3079 1.400 . S
C3083 C3082 1.385 . S
C3084 C3082 1.478 . S
C3084 C3086 1.381 . S
C3084 C3090 1.383 . S
C3085 C3081 1.495 . S
C3085 H3091 0.959 . S
C3085 H3092 0.961 . S
C3085 H3093 0.960 . S
C3086 C3084 1.381 . S
C3086 C3087 1.394 . S
C3086 H3094 0.930 . S
C3087 C3086 1.394 . S
C3087 C3088 1.383 . S
C3087 H3095 0.929 . S
C3088 C3087 1.383 . S
C3088 C3089 1.377 . S
C3089 H3073 0.930 . S
C3089 C3088 1.377 . S
C3089 C3090 1.379 . S
C3090 H3074 0.931 . S
C3090 C3084 1.383 . S
C3090 C3089 1.379 . S
H3091 C3085 0.959 . S
H3092 C3085 0.961 . S
H3093 C3085 0.960 . S
H3094 C3086 0.930 . S
H3095 C3087 0.929 . S
H3096 C3104 0.929 . S
H3097 C3106 0.930 . S
H3098 C3108 0.930 . S
H3099 C3111 0.929 . S
H3100 C3114 0.930 . S
H3101 C3116 0.960 . S
H3102 C3116 0.960 . S
H3103 C3116 0.960 . S
C3104 H3096 0.929 . S
C3104 C3105 1.377 . S
C3104 C3106 1.384 . S
C3105 C3104 1.377 . S
C3105 C3111 1.390 . S
C3106 H3097 0.930 . S
C3106 C3104 1.384 . S
C3106 C3107 1.372 . S
C3107 C3106 1.372 . S
C3107 C3108 1.400 . S
C3107 C3112 1.490 . S
C3108 H3098 0.930 . S
C3108 C3107 1.400 . S
C3108 C3111 1.386 . S
H3109 C3125 0.930 . S
H3110 C3126 0.931 . S
C3111 H3099 0.929 . S
C3111 C3105 1.390 . S
C3111 C3108 1.386 . S
C3112 C3107 1.490 . S
C3112 C3114 1.395 . S
C3112 C3115 1.403 . S
H3113 C3119 0.930 . S
C3114 H3100 0.930 . S
C3114 C3112 1.395 . S
C3114 C3117 1.403 . S
C3115 C3112 1.403 . S
C3115 C3116 1.524 . S
C3115 C3119 1.400 . S
C3116 H3101 0.960 . S
C3116 H3102 0.960 . S
C3116 H3103 0.960 . S
C3116 C3115 1.524 . S
C3117 C3114 1.403 . S
C3117 C3118 1.392 . S
C3117 C3121 1.495 . S
C3118 C3117 1.392 . S
C3118 C3119 1.385 . S
C3118 C3120 1.478 . S
C3119 H3113 0.930 . S
C3119 C3115 1.400 . S
C3119 C3118 1.385 . S
C3120 C3118 1.478 . S
C3120 C3122 1.381 . S
C3120 C3126 1.383 . S
C3121 C3117 1.495 . S
C3121 H3127 0.959 . S
C3121 H3128 0.961 . S
C3121 H3129 0.960 . S
C3122 C3120 1.381 . S
C3122 C3123 1.394 . S
C3122 H3130 0.930 . S
C3123 C3122 1.394 . S
C3123 C3124 1.383 . S
C3123 H3131 0.929 . S
C3124 C3123 1.383 . S
C3124 C3125 1.377 . S
C3125 H3109 0.930 . S
C3125 C3124 1.377 . S
C3125 C3126 1.379 . S
C3126 H3110 0.931 . S
C3126 C3120 1.383 . S
C3126 C3125 1.379 . S
H3127 C3121 0.959 . S
H3128 C3121 0.961 . S
H3129 C3121 0.960 . S
H3130 C3122 0.930 . S
H3131 C3123 0.929 . S
H3132 C3140 0.929 . S
H3133 C3142 0.930 . S
H3134 C3144 0.930 . S
H3135 C3147 0.929 . S
H3136 C3150 0.930 . S
H3137 C3152 0.960 . S
H3138 C3152 0.960 . S
H3139 C3152 0.960 . S
C3140 H3132 0.929 . S
C3140 C3141 1.377 . S
C3140 C3142 1.384 . S
C3141 C3140 1.377 . S
C3141 C3147 1.390 . S
C3142 H3133 0.930 . S
C3142 C3140 1.384 . S
C3142 C3143 1.372 . S
C3143 C3142 1.372 . S
C3143 C3144 1.400 . S
C3143 C3148 1.490 . S
C3144 H3134 0.930 . S
C3144 C3143 1.400 . S
C3144 C3147 1.386 . S
H3145 C3161 0.930 . S
H3146 C3162 0.931 . S
C3147 H3135 0.929 . S
C3147 C3141 1.390 . S
C3147 C3144 1.386 . S
C3148 C3143 1.490 . S
C3148 C3150 1.395 . S
C3148 C3151 1.403 . S
H3149 C3155 0.930 . S
C3150 H3136 0.930 . S
C3150 C3148 1.395 . S
C3150 C3153 1.403 . S
C3151 C3148 1.403 . S
C3151 C3152 1.524 . S
C3151 C3155 1.400 . S
C3152 H3137 0.960 . S
C3152 H3138 0.960 . S
C3152 H3139 0.960 . S
C3152 C3151 1.524 . S
C3153 C3150 1.403 . S
C3153 C3154 1.392 . S
C3153 C3157 1.495 . S
C3154 C3153 1.392 . S
C3154 C3155 1.385 . S
C3154 C3156 1.478 . S
C3155 H3149 0.930 . S
C3155 C3151 1.400 . S
C3155 C3154 1.385 . S
C3156 C3154 1.478 . S
C3156 C3158 1.381 . S
C3156 C3162 1.383 . S
C3157 C3153 1.495 . S
C3157 H3163 0.959 . S
C3157 H3164 0.961 . S
C3157 H3165 0.960 . S
C3158 C3156 1.381 . S
C3158 C3159 1.394 . S
C3158 H3166 0.930 . S
C3159 C3158 1.394 . S
C3159 C3160 1.383 . S
C3159 H3167 0.929 . S
C3160 C3159 1.383 . S
C3160 C3161 1.377 . S
C3161 H3145 0.930 . S
C3161 C3160 1.377 . S
C3161 C3162 1.379 . S
C3162 H3146 0.931 . S
C3162 C3156 1.383 . S
C3162 C3161 1.379 . S
H3163 C3157 0.959 . S
H3164 C3157 0.961 . S
H3165 C3157 0.960 . S
H3166 C3158 0.930 . S
H3167 C3159 0.929 . S
H3168 C3176 0.929 . S
H3169 C3178 0.930 . S
H3170 C3180 0.930 . S
H3171 C3183 0.929 . S
H3172 C3186 0.930 . S
H3173 C3188 0.960 . S
H3174 C3188 0.960 . S
H3175 C3188 0.960 . S
C3176 H3168 0.929 . S
C3176 C3177 1.377 . S
C3176 C3178 1.384 . S
C3177 C3176 1.377 . S
C3177 C3183 1.390 . S
C3178 H3169 0.930 . S
C3178 C3176 1.384 . S
C3178 C3179 1.372 . S
C3179 C3178 1.372 . S
C3179 C3180 1.400 . S
C3179 C3184 1.490 . S
C3180 H3170 0.930 . S
C3180 C3179 1.400 . S
C3180 C3183 1.386 . S
H3181 C3197 0.930 . S
H3182 C3198 0.931 . S
C3183 H3171 0.929 . S
C3183 C3177 1.390 . S
C3183 C3180 1.386 . S
C3184 C3179 1.490 . S
C3184 C3186 1.395 . S
C3184 C3187 1.403 . S
H3185 C3191 0.930 . S
C3186 H3172 0.930 . S
C3186 C3184 1.395 . S
C3186 C3189 1.403 . S
C3187 C3184 1.403 . S
C3187 C3188 1.524 . S
C3187 C3191 1.400 . S
C3188 H3173 0.960 . S
C3188 H3174 0.960 . S
C3188 H3175 0.960 . S
C3188 C3187 1.524 . S
C3189 C3186 1.403 . S
C3189 C3190 1.392 . S
C3189 C3193 1.495 . S
C3190 C3189 1.392 . S
C3190 C3191 1.385 . S
C3190 C3192 1.478 . S
C3191 H3185 0.930 . S
C3191 C3187 1.400 . S
C3191 C3190 1.385 . S
C3192 C3190 1.478 . S
C3192 C3194 1.381 . S
C3192 C3198 1.383 . S
C3193 C3189 1.495 . S
C3193 H3199 0.959 . S
C3193 H3200 0.961 . S
C3193 H3201 0.960 . S
C3194 C3192 1.381 . S
C3194 C3195 1.394 . S
C3194 H3202 0.930 . S
C3195 C3194 1.394 . S
C3195 C3196 1.383 . S
C3195 H3203 0.929 . S
C3196 C3195 1.383 . S
C3196 C3197 1.377 . S
C3197 H3181 0.930 . S
C3197 C3196 1.377 . S
C3197 C3198 1.379 . S
C3198 H3182 0.931 . S
C3198 C3192 1.383 . S
C3198 C3197 1.379 . S
H3199 C3193 0.959 . S
H3200 C3193 0.961 . S
H3201 C3193 0.960 . S
H3202 C3194 0.930 . S
H3203 C3195 0.929 . S
H3204 C3212 0.929 . S
H3205 C3214 0.930 . S
H3206 C3216 0.930 . S
H3207 C3219 0.929 . S
H3208 C3222 0.930 . S
H3209 C3224 0.960 . S
H3210 C3224 0.960 . S
H3211 C3224 0.960 . S
C3212 H3204 0.929 . S
C3212 C3213 1.377 . S
C3212 C3214 1.384 . S
C3213 C3212 1.377 . S
C3213 C3219 1.390 . S
C3214 H3205 0.930 . S
C3214 C3212 1.384 . S
C3214 C3215 1.372 . S
C3215 C3214 1.372 . S
C3215 C3216 1.400 . S
C3215 C3220 1.490 . S
C3216 H3206 0.930 . S
C3216 C3215 1.400 . S
C3216 C3219 1.386 . S
H3217 C3233 0.930 . S
H3218 C3234 0.931 . S
C3219 H3207 0.929 . S
C3219 C3213 1.390 . S
C3219 C3216 1.386 . S
C3220 C3215 1.490 . S
C3220 C3222 1.395 . S
C3220 C3223 1.403 . S
H3221 C3227 0.930 . S
C3222 H3208 0.930 . S
C3222 C3220 1.395 . S
C3222 C3225 1.403 . S
C3223 C3220 1.403 . S
C3223 C3224 1.524 . S
C3223 C3227 1.400 . S
C3224 H3209 0.960 . S
C3224 H3210 0.960 . S
C3224 H3211 0.960 . S
C3224 C3223 1.524 . S
C3225 C3222 1.403 . S
C3225 C3226 1.392 . S
C3225 C3229 1.495 . S
C3226 C3225 1.392 . S
C3226 C3227 1.385 . S
C3226 C3228 1.478 . S
C3227 H3221 0.930 . S
C3227 C3223 1.400 . S
C3227 C3226 1.385 . S
C3228 C3226 1.478 . S
C3228 C3230 1.381 . S
C3228 C3234 1.383 . S
C3229 C3225 1.495 . S
C3229 H3235 0.959 . S
C3229 H3236 0.961 . S
C3229 H3237 0.960 . S
C3230 C3228 1.381 . S
C3230 C3231 1.394 . S
C3230 H3238 0.930 . S
C3231 C3230 1.394 . S
C3231 C3232 1.383 . S
C3231 H3239 0.929 . S
C3232 C3231 1.383 . S
C3232 C3233 1.377 . S
C3233 H3217 0.930 . S
C3233 C3232 1.377 . S
C3233 C3234 1.379 . S
C3234 H3218 0.931 . S
C3234 C3228 1.383 . S
C3234 C3233 1.379 . S
H3235 C3229 0.959 . S
H3236 C3229 0.961 . S
H3237 C3229 0.960 . S
H3238 C3230 0.930 . S
H3239 C3231 0.929 . S
H3240 C3248 0.929 . S
H3241 C3250 0.930 . S
H3242 C3252 0.930 . S
H3243 C3255 0.929 . S
H3244 C3258 0.930 . S
H3245 C3260 0.960 . S
H3246 C3260 0.960 . S
H3247 C3260 0.960 . S
C3248 H3240 0.929 . S
C3248 C3249 1.377 . S
C3248 C3250 1.384 . S
C3249 C3248 1.377 . S
C3249 C3255 1.390 . S
C3250 H3241 0.930 . S
C3250 C3248 1.384 . S
C3250 C3251 1.372 . S
C3251 C3250 1.372 . S
C3251 C3252 1.400 . S
C3251 C3256 1.490 . S
C3252 H3242 0.930 . S
C3252 C3251 1.400 . S
C3252 C3255 1.386 . S
H3253 C3269 0.930 . S
H3254 C3270 0.931 . S
C3255 H3243 0.929 . S
C3255 C3249 1.390 . S
C3255 C3252 1.386 . S
C3256 C3251 1.490 . S
C3256 C3258 1.395 . S
C3256 C3259 1.403 . S
H3257 C3263 0.930 . S
C3258 H3244 0.930 . S
C3258 C3256 1.395 . S
C3258 C3261 1.403 . S
C3259 C3256 1.403 . S
C3259 C3260 1.524 . S
C3259 C3263 1.400 . S
C3260 H3245 0.960 . S
C3260 H3246 0.960 . S
C3260 H3247 0.960 . S
C3260 C3259 1.524 . S
C3261 C3258 1.403 . S
C3261 C3262 1.392 . S
C3261 C3265 1.495 . S
C3262 C3261 1.392 . S
C3262 C3263 1.385 . S
C3262 C3264 1.478 . S
C3263 H3257 0.930 . S
C3263 C3259 1.400 . S
C3263 C3262 1.385 . S
C3264 C3262 1.478 . S
C3264 C3266 1.381 . S
C3264 C3270 1.383 . S
C3265 C3261 1.495 . S
C3265 H3271 0.959 . S
C3265 H3272 0.961 . S
C3265 H3273 0.960 . S
C3266 C3264 1.381 . S
C3266 C3267 1.394 . S
C3266 H3274 0.930 . S
C3267 C3266 1.394 . S
C3267 C3268 1.383 . S
C3267 H3275 0.929 . S
C3268 C3267 1.383 . S
C3268 C3269 1.377 . S
C3269 H3253 0.930 . S
C3269 C3268 1.377 . S
C3269 C3270 1.379 . S
C3270 H3254 0.931 . S
C3270 C3264 1.383 . S
C3270 C3269 1.379 . S
H3271 C3265 0.959 . S
H3272 C3265 0.961 . S
H3273 C3265 0.960 . S
H3274 C3266 0.930 . S
H3275 C3267 0.929 . S
H3276 C3284 0.929 . S
H3277 C3286 0.930 . S
H3278 C3288 0.930 . S
H3279 C3291 0.929 . S
H3280 C3294 0.930 . S
H3281 C3296 0.960 . S
H3282 C3296 0.960 . S
H3283 C3296 0.960 . S
C3284 H3276 0.929 . S
C3284 C3285 1.377 . S
C3284 C3286 1.384 . S
C3285 C3284 1.377 . S
C3285 C3291 1.390 . S
C3286 H3277 0.930 . S
C3286 C3284 1.384 . S
C3286 C3287 1.372 . S
C3287 C3286 1.372 . S
C3287 C3288 1.400 . S
C3287 C3292 1.490 . S
C3288 H3278 0.930 . S
C3288 C3287 1.400 . S
C3288 C3291 1.386 . S
H3289 C3305 0.930 . S
H3290 C3306 0.931 . S
C3291 H3279 0.929 . S
C3291 C3285 1.390 . S
C3291 C3288 1.386 . S
C3292 C3287 1.490 . S
C3292 C3294 1.395 . S
C3292 C3295 1.403 . S
H3293 C3299 0.930 . S
C3294 H3280 0.930 . S
C3294 C3292 1.395 . S
C3294 C3297 1.403 . S
C3295 C3292 1.403 . S
C3295 C3296 1.524 . S
C3295 C3299 1.400 . S
C3296 H3281 0.960 . S
C3296 H3282 0.960 . S
C3296 H3283 0.960 . S
C3296 C3295 1.524 . S
C3297 C3294 1.403 . S
C3297 C3298 1.392 . S
C3297 C3301 1.495 . S
C3298 C3297 1.392 . S
C3298 C3299 1.385 . S
C3298 C3300 1.478 . S
C3299 H3293 0.930 . S
C3299 C3295 1.400 . S
C3299 C3298 1.385 . S
C3300 C3298 1.478 . S
C3300 C3302 1.381 . S
C3300 C3306 1.383 . S
C3301 C3297 1.495 . S
C3301 H3307 0.959 . S
C3301 H3308 0.961 . S
C3301 H3309 0.960 . S
C3302 C3300 1.381 . S
C3302 C3303 1.394 . S
C3302 H3310 0.930 . S
C3303 C3302 1.394 . S
C3303 C3304 1.383 . S
C3303 H3311 0.929 . S
C3304 C3303 1.383 . S
C3304 C3305 1.377 . S
C3305 H3289 0.930 . S
C3305 C3304 1.377 . S
C3305 C3306 1.379 . S
C3306 H3290 0.931 . S
C3306 C3300 1.383 . S
C3306 C3305 1.379 . S
H3307 C3301 0.959 . S
H3308 C3301 0.961 . S
H3309 C3301 0.960 . S
H3310 C3302 0.930 . S
H3311 C3303 0.929 . S
H3312 C3320 0.929 . S
H3313 C3322 0.930 . S
H3314 C3324 0.930 . S
H3315 C3327 0.929 . S
H3316 C3330 0.930 . S
H3317 C3332 0.960 . S
H3318 C3332 0.960 . S
H3319 C3332 0.960 . S
C3320 H3312 0.929 . S
C3320 C3321 1.377 . S
C3320 C3322 1.384 . S
C3321 C3320 1.377 . S
C3321 C3327 1.390 . S
C3322 H3313 0.930 . S
C3322 C3320 1.384 . S
C3322 C3323 1.372 . S
C3323 C3322 1.372 . S
C3323 C3324 1.400 . S
C3323 C3328 1.490 . S
C3324 H3314 0.930 . S
C3324 C3323 1.400 . S
C3324 C3327 1.386 . S
H3325 C3341 0.930 . S
H3326 C3342 0.931 . S
C3327 H3315 0.929 . S
C3327 C3321 1.390 . S
C3327 C3324 1.386 . S
C3328 C3323 1.490 . S
C3328 C3330 1.395 . S
C3328 C3331 1.403 . S
H3329 C3335 0.930 . S
C3330 H3316 0.930 . S
C3330 C3328 1.395 . S
C3330 C3333 1.403 . S
C3331 C3328 1.403 . S
C3331 C3332 1.524 . S
C3331 C3335 1.400 . S
C3332 H3317 0.960 . S
C3332 H3318 0.960 . S
C3332 H3319 0.960 . S
C3332 C3331 1.524 . S
C3333 C3330 1.403 . S
C3333 C3334 1.392 . S
C3333 C3337 1.495 . S
C3334 C3333 1.392 . S
C3334 C3335 1.385 . S
C3334 C3336 1.478 . S
C3335 H3329 0.930 . S
C3335 C3331 1.400 . S
C3335 C3334 1.385 . S
C3336 C3334 1.478 . S
C3336 C3338 1.381 . S
C3336 C3342 1.383 . S
C3337 C3333 1.495 . S
C3337 H3343 0.959 . S
C3337 H3344 0.961 . S
C3337 H3345 0.960 . S
C3338 C3336 1.381 . S
C3338 C3339 1.394 . S
C3338 H3346 0.930 . S
C3339 C3338 1.394 . S
C3339 C3340 1.383 . S
C3339 H3347 0.929 . S
C3340 C3339 1.383 . S
C3340 C3341 1.377 . S
C3341 H3325 0.930 . S
C3341 C3340 1.377 . S
C3341 C3342 1.379 . S
C3342 H3326 0.931 . S
C3342 C3336 1.383 . S
C3342 C3341 1.379 . S
H3343 C3337 0.959 . S
H3344 C3337 0.961 . S
H3345 C3337 0.960 . S
H3346 C3338 0.930 . S
H3347 C3339 0.929 . S
C1413 C469 1.415 . S
C1432 C715 1.302 . S
C1449 C505 1.445 . S
C1468 C799 1.354 . S
C1485 C433 1.453 . S
C1504 C879 1.432 . S
C1521 C397 1.405 . S
C1540 C795 1.379 . S
C1576 C883 1.332 . S
C1557 C325 1.371 . S
C1593 C361 1.382 . S
C1612 C711 1.363 . S
C1648 C704 1.340 . S
C1629 C421 1.413 . S
C1684 C788 1.383 . S
C1665 C349 1.442 . S
C1701 C385 1.451 . S
C1720 C890 1.410 . S
C1737 C493 1.403 . S
C1756 C806 1.384 . S
C1773 C529 1.372 . S
C1792 C872 1.307 . S
C1828 C722 1.309 . S
C1809 C457 1.378 . S
C1864 C967 1.306 . S
C1845 C37 1.415 . S
C1881 C73 1.445 . S
C1900 C1051 1.359 . S
C1917 C1 1.452 . S
C1936 C1131 1.386 . S
C1953 C613 1.404 . S
C1972 C1047 1.347 . S
C1989 C541 1.371 . S
C2008 C1135 1.262 . S
C2025 C577 1.380 . S
C2044 C963 1.315 . S
C2061 C637 1.414 . S
C2080 C956 1.369 . S
C2097 C565 1.442 . S
C2116 C1040 1.379 . S
C2152 C1142 1.430 . S
C2133 C601 1.452 . S
C2169 C61 1.403 . S
C2188 C1058 1.352 . S
C2224 C1124 1.272 . S
C2205 C97 1.370 . S
C2241 C25 1.379 . S
C2260 C974 1.344 . S
C2296 C1219 1.357 . S
C2277 C253 1.416 . S
C2313 C289 1.445 . S
C2332 C1303 1.340 . S
C2368 C1383 1.399 . S
C2349 C217 1.453 . S
C2404 C1299 1.388 . S
C2385 C181 1.405 . S
C2440 C1387 1.263 . S
C2421 C109 1.371 . S
C2457 C145 1.380 . S
C2476 C1215 1.337 . S
C2493 C205 1.414 . S
C2512 C1208 1.371 . S
C2529 C133 1.442 . S
C2548 C1292 1.398 . S
C2584 C1394 1.382 . S
C2565 C169 1.449 . S
C2601 C277 1.404 . S
C2620 C1310 1.385 . S
C2637 C313 1.369 . S
C2656 C1376 1.315 . S
C2673 C241 1.381 . S
C2692 C1226 1.361 . S
C2709 C571 1.418 . S
C2728 C718 1.279 . S
C2764 C802 1.337 . S
C2745 C607 1.499 . S
C2781 C643 1.455 . S
C2800 C874 1.364 . S
C2817 C247 1.498 . S
C2836 C790 1.392 . S
C2853 C283 1.453 . S
C2872 C886 1.352 . S
C2908 C706 1.263 . S
C2889 C319 1.417 . S
C2925 C139 1.415 . S
C2944 C970 1.340 . S
C2961 C175 1.497 . S
C2980 C1054 1.363 . S
C2997 C211 1.455 . S
C3016 C1126 1.364 . S
C3033 C463 1.499 . S
C3052 C1042 1.386 . S
C3088 C1138 1.282 . S
C3069 C499 1.454 . S
C3105 C535 1.417 . S
C3124 C958 1.262 . S
C3141 C355 1.416 . S
C3160 C1222 1.278 . S
C3177 C391 1.498 . S
C3196 C1306 1.394 . S
C3232 C1378 1.282 . S
C3213 C427 1.454 . S
C3249 C31 1.498 . S
C3268 C1294 1.356 . S
C3285 C67 1.454 . S
C3304 C1390 1.362 . S
C3321 C103 1.417 . S
C3340 C1210 1.343 . S
