# Generated by pormake.
# Topology nom, (4,4)-cn, num edge types: 1
# Building blocks:
#     Node 0, Type 0, BuildingBlock: NAHDIM_clean_linker_0, # of connection points: 4
#     Node 1, Type 0, BuildingBlock: NAHDIM_clean_linker_0, # of connection points: 4
#     Node 2, Type 0, BuildingBlock: NAHDIM_clean_linker_0, # of connection points: 4
#     Node 3, Type 0, BuildingBlock: NAHDIM_clean_linker_0, # of connection points: 4
#     Node 4, Type 0, BuildingBlock: NAHDIM_clean_linker_0, # of connection points: 4
#     Node 5, Type 0, BuildingBlock: NAHDIM_clean_linker_0, # of connection points: 4
#     Node 6, Type 1, BuildingBlock: GALJAG_clean_sbu_0, # of connection points: 4
#     Node 7, Type 1, BuildingBlock: GALJAG_clean_sbu_0, # of connection points: 4
#     Node 8, Type 1, BuildingBlock: GALJAG_clean_sbu_0, # of connection points: 4
#     Node 9, Type 1, BuildingBlock: GALJAG_clean_sbu_0, # of connection points: 4
#     Node 10, Type 1, BuildingBlock: GALJAG_clean_sbu_0, # of connection points: 4
#     Node 11, Type 1, BuildingBlock: GALJAG_clean_sbu_0, # of connection points: 4
#     Edge 12, Type (0, 1), BuildingBlock: TEMPAE_clean_linker_10, # of connection points: 2
#     Edge 13, Type (0, 1), BuildingBlock: TEMPAE_clean_linker_10, # of connection points: 2
#     Edge 14, Type (0, 1), BuildingBlock: TEMPAE_clean_linker_10, # of connection points: 2
#     Edge 15, Type (0, 1), BuildingBlock: TEMPAE_clean_linker_10, # of connection points: 2
#     Edge 16, Type (0, 1), BuildingBlock: TEMPAE_clean_linker_10, # of connection points: 2
#     Edge 17, Type (0, 1), BuildingBlock: TEMPAE_clean_linker_10, # of connection points: 2
#     Edge 18, Type (0, 1), BuildingBlock: TEMPAE_clean_linker_10, # of connection points: 2
#     Edge 19, Type (0, 1), BuildingBlock: TEMPAE_clean_linker_10, # of connection points: 2
#     Edge 20, Type (0, 1), BuildingBlock: TEMPAE_clean_linker_10, # of connection points: 2
#     Edge 21, Type (0, 1), BuildingBlock: TEMPAE_clean_linker_10, # of connection points: 2
#     Edge 22, Type (0, 1), BuildingBlock: TEMPAE_clean_linker_10, # of connection points: 2
#     Edge 23, Type (0, 1), BuildingBlock: TEMPAE_clean_linker_10, # of connection points: 2
#     Edge 24, Type (0, 1), BuildingBlock: TEMPAE_clean_linker_10, # of connection points: 2
#     Edge 25, Type (0, 1), BuildingBlock: TEMPAE_clean_linker_10, # of connection points: 2
#     Edge 26, Type (0, 1), BuildingBlock: TEMPAE_clean_linker_10, # of connection points: 2
#     Edge 27, Type (0, 1), BuildingBlock: TEMPAE_clean_linker_10, # of connection points: 2
#     Edge 28, Type (0, 1), BuildingBlock: TEMPAE_clean_linker_10, # of connection points: 2
#     Edge 29, Type (0, 1), BuildingBlock: TEMPAE_clean_linker_10, # of connection points: 2
#     Edge 30, Type (0, 1), BuildingBlock: TEMPAE_clean_linker_10, # of connection points: 2
#     Edge 31, Type (0, 1), BuildingBlock: TEMPAE_clean_linker_10, # of connection points: 2
#     Edge 32, Type (0, 1), BuildingBlock: TEMPAE_clean_linker_10, # of connection points: 2
#     Edge 33, Type (0, 1), BuildingBlock: TEMPAE_clean_linker_10, # of connection points: 2
#     Edge 34, Type (0, 1), BuildingBlock: TEMPAE_clean_linker_10, # of connection points: 2
#     Edge 35, Type (0, 1), BuildingBlock: TEMPAE_clean_linker_10, # of connection points: 2
# Relax obj value: 0.026
# Max RMSD: 0.127
# Mean RMSD: 0.098
data_MOF--net-nom--node1-GALJAG_clean_sbu_0--node2-NAHDIM_clean_linker_0--edge1-TEMPAE_clean_linker_10
_symmetry_space_group_name_H-M    P1
_symmetry_Int_Tables_number       1
_symmetry_cell_setting            triclinic
loop_
_symmetry_equiv_pos_as_xyz
'x, y, z'
_cell_length_a     58.042637
_cell_length_b     57.948252
_cell_length_c     72.628628
_cell_angle_alpha  90.135848
_cell_angle_beta   90.1337
_cell_angle_gamma 120.07444
loop_
_atom_site_label
_atom_site_type_symbol
_atom_site_fract_x
_atom_site_fract_y
_atom_site_fract_z
_atom_type_partial_charge
C0 C 0.17107 0.64391 0.24298 0.0
C1 C 0.18426 0.65265 0.26199 0.0
C2 C 0.14485 0.64233 0.28052 0.0
C3 C 0.13524 0.61489 0.28272 0.0
C4 C 0.10955 0.59798 0.28952 0.0
C5 C 0.09293 0.60859 0.29383 0.0
C6 C 0.10273 0.63629 0.29197 0.0
C7 C 0.12878 0.65284 0.28564 0.0
C8 C 0.1 0.56865 0.29176 0.0
C9 C 0.08547 0.64829 0.29613 0.0
C10 C 0.99579 0.49795 0.20542 0.0
C11 C 0.97459 0.50596 0.20831 0.0
C12 C 0.97586 0.51258 0.24123 0.0
C13 C 0.98124 0.53882 0.24347 0.0
C14 C 0.99464 0.55362 0.25921 0.0
C15 C 0.00314 0.54195 0.27277 0.0
C16 C 0.99722 0.51521 0.27063 0.0
C17 C 0.98311 0.50067 0.255 0.0
C18 C 0.00012 0.58186 0.2612 0.0
C19 C 0.00653 0.50223 0.2845 0.0
C20 C 0.8989 0.49439 0.37136 0.0
C21 C 0.90802 0.52082 0.36606 0.0
C22 C 0.93528 0.53859 0.36349 0.0
C23 C 0.95363 0.52956 0.36613 0.0
C24 C 0.94451 0.50322 0.37229 0.0
C25 C 0.91718 0.48605 0.37508 0.0
C26 C 0.9444 0.56682 0.35758 0.0
C27 C 0.96354 0.49301 0.37547 0.0
C28 C 0.15394 0.65472 0.41892 0.0
C29 C 0.13084 0.62809 0.42565 0.0
C30 C 0.08645 0.61539 0.41445 0.0
C31 C 0.07322 0.62799 0.40734 0.0
C32 C 0.05294 0.61526 0.39413 0.0
C33 C 0.04568 0.58923 0.38814 0.0
C34 C 0.05768 0.57568 0.39629 0.0
C35 C 0.07784 0.58886 0.40947 0.0
C36 C 0.04005 0.62997 0.38601 0.0
C37 C 0.04981 0.5476 0.39062 0.0
C38 C 0.06472 0.59042 0.29895 0.0
C39 C 0.04694 0.57583 0.28482 0.0
C40 C 0.02005 0.55828 0.28839 0.0
C41 C 0.01028 0.55572 0.30652 0.0
C42 C 0.98315 0.53908 0.3105 0.0
C43 C 0.97385 0.53624 0.32847 0.0
C44 C 0.99132 0.55004 0.34315 0.0
C45 C 0.98211 0.54714 0.36149 0.0
C46 C 0.00011 0.56057 0.37581 0.0
C47 C 0.02725 0.57697 0.37231 0.0
C48 C 0.03678 0.5806 0.35402 0.0
C49 C 0.06395 0.59723 0.35 0.0
C50 C 0.07317 0.60052 0.33199 0.0
C51 C 0.05559 0.58724 0.31731 0.0
C52 C 0.02819 0.57008 0.32106 0.0
C53 C 0.01873 0.567 0.33941 0.0
C54 C 0.84399 0.446 0.35025 0.0
C55 C 0.8534 0.4727 0.36 0.0
O56 O 0.16921 0.65928 0.27332 0.0
O57 O 0.10764 0.62942 0.4258 0.0
O58 O 0.87258 0.47655 0.37297 0.0
O59 O 0.96388 0.49847 0.22579 0.0
H60 H 0.18608 0.63616 0.26825 0.0
H61 H 0.15109 0.62586 0.24422 0.0
H62 H 0.16878 0.66005 0.23658 0.0
H63 H 0.18327 0.63894 0.2338 0.0
H64 H 0.14751 0.6064 0.27916 0.0
H65 H 0.13643 0.67405 0.28403 0.0
H66 H 0.08519 0.55721 0.28082 0.0
H67 H 0.11655 0.5643 0.29074 0.0
H68 H 0.09003 0.56147 0.30526 0.0
H69 H 0.09531 0.66975 0.29244 0.0
H70 H 0.06634 0.63739 0.28847 0.0
H71 H 0.08074 0.64632 0.31104 0.0
H72 H 0.9842 0.52799 0.2068 0.0
H73 H 0.00475 0.50398 0.19151 0.0
H74 H 0.01198 0.50808 0.21577 0.0
H75 H 0.98693 0.47603 0.2069 0.0
H76 H 0.97497 0.54768 0.23289 0.0
H77 H 0.97862 0.48028 0.25309 0.0
H78 H 0.99492 0.5852 0.27528 0.0
H79 H 0.02169 0.59593 0.25917 0.0
H80 H 0.9888 0.58658 0.251 0.0
H81 H 0.00269 0.48235 0.27981 0.0
H82 H 0.02819 0.51514 0.28716 0.0
H83 H 0.99603 0.49971 0.29773 0.0
H84 H 0.86184 0.48843 0.34922 0.0
H85 H 0.89382 0.52751 0.36389 0.0
H86 H 0.90986 0.4657 0.3795 0.0
H87 H 0.95152 0.56958 0.34314 0.0
H88 H 0.92818 0.57167 0.3584 0.0
H89 H 0.96133 0.58114 0.36631 0.0
H90 H 0.95306 0.4715 0.37907 0.0
H91 H 0.97567 0.49606 0.36294 0.0
H92 H 0.97741 0.50447 0.38686 0.0
H93 H 0.1296 0.61309 0.41548 0.0
H94 H 0.17312 0.65492 0.42023 0.0
H95 H 0.15081 0.65748 0.40417 0.0
H96 H 0.15516 0.67179 0.42673 0.0
H97 H 0.07961 0.64827 0.4116 0.0
H98 H 0.08707 0.57852 0.41569 0.0
H99 H 0.04525 0.63386 0.3712 0.0
H100 H 0.01805 0.61748 0.38691 0.0
H101 H 0.0465 0.6493 0.39308 0.0
H102 H 0.06022 0.53941 0.39884 0.0
H103 H 0.028 0.53437 0.39224 0.0
H104 H 0.05454 0.54727 0.37585 0.0
H105 H 0.05424 0.57789 0.27083 0.0
H106 H 0.96882 0.52802 0.29976 0.0
H107 H 0.95279 0.52298 0.33069 0.0
H108 H 0.99297 0.55791 0.38987 0.0
H109 H 0.07845 0.60795 0.36073 0.0
H110 H 0.09428 0.61353 0.32973 0.0
H111 H 0.83539 0.42932 0.36028 0.0
H112 H 0.8287 0.44251 0.33966 0.0
H113 H 0.86108 0.44615 0.34328 0.0
C114 C 0.37662 0.87533 0.579 0.0
C115 C 0.37881 0.86092 0.56196 0.0
C116 C 0.39301 0.89608 0.53918 0.0
C117 C 0.41986 0.90355 0.53696 0.0
C118 C 0.43849 0.92926 0.53099 0.0
C119 C 0.43008 0.94788 0.52731 0.0
C120 C 0.40278 0.93997 0.52873 0.0
C121 C 0.3845 0.91394 0.53439 0.0
C122 C 0.46729 0.93675 0.52904 0.0
C123 C 0.39309 0.95928 0.5249 0.0
C124 C 0.54219 0.11184 0.62544 0.0
C125 C 0.52439 0.09811 0.6095 0.0
C126 C 0.5167 0.0646 0.58608 0.0
C127 C 0.49651 0.06655 0.57672 0.0
C128 C 0.4851 0.05185 0.56056 0.0
C129 C 0.49454 0.03543 0.55335 0.0
C130 C 0.51514 0.03375 0.56259 0.0
C131 C 0.52574 0.04817 0.57896 0.0
C132 C 0.46274 0.05367 0.55129 0.0
C133 C 0.52583 0.01659 0.55523 0.0
C134 C 0.5662 0.14588 0.46007 0.0
C135 C 0.53967 0.13864 0.46366 0.0
C136 C 0.51973 0.11169 0.46438 0.0
C137 C 0.52657 0.09169 0.46156 0.0
C138 C 0.55304 0.09901 0.45694 0.0
C139 C 0.57248 0.12611 0.45604 0.0
C140 C 0.49151 0.10458 0.46867 0.0
C141 C 0.56096 0.07823 0.45357 0.0
C142 C 0.38738 0.89827 0.40261 0.0
C143 C 0.41561 0.91942 0.39693 0.0
C144 C 0.43307 0.96475 0.40818 0.0
C145 C 0.4229 0.98014 0.41543 0.0
C146 C 0.43693 0.99947 0.42903 0.0
C147 C 0.46182 0.00354 0.43526 0.0
C148 C 0.47317 0.98955 0.42685 0.0
C149 C 0.4587 0.97035 0.41331 0.0
C150 C 0.4246 0.01456 0.43742 0.0
C151 C 0.50007 0.99406 0.43275 0.0
C152 C 0.45013 0.97614 0.52357 0.0
C153 C 0.46303 0.99251 0.53873 0.0
C154 C 0.48224 0.01932 0.5365 0.0
C155 C 0.48887 0.03033 0.51863 0.0
C156 C 0.50843 0.05712 0.51587 0.0
C157 C 0.51436 0.06792 0.49827 0.0
C158 C 0.50099 0.05233 0.48272 0.0
C159 C 0.50657 0.06326 0.46478 0.0
C160 C 0.4933 0.04707 0.4496 0.0
C161 C 0.47456 0.02007 0.45185 0.0
C162 C 0.46851 0.00885 0.4697 0.0
C163 C 0.44971 0.98173 0.47244 0.0
C164 C 0.44378 0.97091 0.49004 0.0
C165 C 0.45632 0.98679 0.5056 0.0
C166 C 0.47563 0.01406 0.50314 0.0
C167 C 0.4817 0.02509 0.48518 0.0
C168 C 0.61451 0.20299 0.48296 0.0
C169 C 0.58803 0.19111 0.47255 0.0
O170 O 0.37497 0.87198 0.54613 0.0
O171 O 0.41751 0.94424 0.39668 0.0
O172 O 0.5862 0.17165 0.46052 0.0
O173 O 0.52783 0.07803 0.602 0.0
H174 H 0.39896 0.86312 0.56189 0.0
H175 H 0.39238 0.89668 0.57874 0.0
H176 H 0.35689 0.87409 0.5794 0.0
H177 H 0.37928 0.86633 0.59175 0.0
H178 H 0.42634 0.88938 0.53988 0.0
H179 H 0.36362 0.90778 0.53589 0.0
H180 H 0.47917 0.95093 0.54018 0.0
H181 H 0.47001 0.91912 0.52991 0.0
H182 H 0.4753 0.9469 0.51569 0.0
H183 H 0.37131 0.95017 0.52703 0.0
H184 H 0.40362 0.97699 0.53403 0.0
H185 H 0.39775 0.96637 0.51047 0.0
H186 H 0.50309 0.09201 0.61177 0.0
H187 H 0.52838 0.10731 0.63746 0.0
H188 H 0.54998 0.09854 0.63028 0.0
H189 H 0.56712 0.15069 0.61591 0.0
H190 H 0.48929 0.07921 0.58203 0.0
H191 H 0.54134 0.04682 0.58625 0.0
H192 H 0.46952 0.06347 0.53771 0.0
H193 H 0.44554 0.03338 0.54881 0.0
H194 H 0.45593 0.06523 0.5596 0.0
H195 H 0.54401 0.02002 0.56271 0.0
H196 H 0.51039 0.99527 0.55664 0.0
H197 H 0.53055 0.02059 0.54037 0.0
H198 H 0.57213 0.18227 0.48319 0.0
H199 H 0.53454 0.15399 0.46599 0.0
H200 H 0.59295 0.13199 0.45293 0.0
H201 H 0.48621 0.09584 0.48267 0.0
H202 H 0.48878 0.12223 0.46816 0.0
H203 H 0.47747 0.08933 0.45877 0.0
H204 H 0.58254 0.08723 0.45061 0.0
H205 H 0.55604 0.06513 0.4658 0.0
H206 H 0.54948 0.06547 0.44172 0.0
H207 H 0.42881 0.91847 0.4077 0.0
H208 H 0.3848 0.87798 0.40145 0.0
H209 H 0.38395 0.90163 0.41717 0.0
H210 H 0.37209 0.89935 0.39403 0.0
H211 H 0.40334 0.97607 0.41105 0.0
H212 H 0.4672 0.95937 0.40701 0.0
H213 H 0.41938 0.00842 0.45199 0.0
H214 H 0.43915 0.03629 0.43737 0.0
H215 H 0.40632 0.01087 0.42997 0.0
H216 H 0.50689 0.98287 0.42403 0.0
H217 H 0.51505 0.01563 0.43209 0.0
H218 H 0.49908 0.98766 0.44726 0.0
H219 H 0.45798 0.98426 0.5525 0.0
H220 H 0.51931 0.07008 0.5273 0.0
H221 H 0.52954 0.0887 0.49703 0.0
H222 H 0.49779 0.05551 0.43587 0.0
H223 H 0.43927 0.96852 0.46101 0.0
H224 H 0.42913 0.94995 0.49132 0.0
H225 H 0.61644 0.21864 0.49275 0.0
H226 H 0.61541 0.18712 0.49093 0.0
H227 H 0.63154 0.21188 0.47324 0.0
C228 C 0.55814 0.40206 0.73739 0.0
C229 C 0.55936 0.39041 0.71867 0.0
C230 C 0.52807 0.39889 0.70117 0.0
C231 C 0.54579 0.42591 0.6973 0.0
C232 C 0.53644 0.44232 0.69041 0.0
C233 C 0.50881 0.43166 0.68762 0.0
C234 C 0.491 0.40431 0.69096 0.0
C235 C 0.50097 0.38819 0.69745 0.0
C236 C 0.55607 0.4713 0.68663 0.0
C237 C 0.46138 0.39234 0.68829 0.0
C238 C 0.45685 0.56412 0.74447 0.0
C239 C 0.45251 0.54087 0.75679 0.0
C240 C 0.47606 0.52227 0.74024 0.0
C241 C 0.4545 0.49877 0.73315 0.0
C242 C 0.45793 0.48544 0.71821 0.0
C243 C 0.48341 0.49587 0.71021 0.0
C244 C 0.5053 0.51916 0.71762 0.0
C245 C 0.50136 0.53189 0.73273 0.0
C246 C 0.43434 0.46016 0.71098 0.0
C247 C 0.53276 0.53067 0.70948 0.0
C248 C 0.43702 0.55525 0.61392 0.0
C249 C 0.41877 0.52899 0.61906 0.0
C250 C 0.42674 0.50988 0.62062 0.0
C251 C 0.45359 0.51735 0.61715 0.0
C252 C 0.47164 0.54346 0.61099 0.0
C253 C 0.46297 0.56202 0.60923 0.0
C254 C 0.4067 0.48193 0.62652 0.0
C255 C 0.5003 0.55199 0.60696 0.0
C256 C 0.47803 0.35858 0.55197 0.0
C257 C 0.49289 0.38901 0.55352 0.0
C258 C 0.47455 0.41483 0.56701 0.0
C259 C 0.45038 0.41009 0.57434 0.0
C260 C 0.44962 0.42654 0.58822 0.0
C261 C 0.47369 0.4488 0.59439 0.0
C262 C 0.4981 0.45472 0.58609 0.0
C263 C 0.49831 0.43742 0.57262 0.0
C264 C 0.42319 0.41971 0.59661 0.0
C265 C 0.52397 0.47898 0.59169 0.0
C266 C 0.49854 0.44976 0.68292 0.0
C267 C 0.49553 0.46398 0.69736 0.0
C268 C 0.48708 0.4823 0.69411 0.0
C269 C 0.48165 0.4869 0.67595 0.0
C270 C 0.47384 0.50578 0.67218 0.0
C271 C 0.46812 0.50986 0.65429 0.0
C272 C 0.46973 0.49504 0.63949 0.0
C273 C 0.46321 0.49853 0.62132 0.0
C274 C 0.4652 0.48362 0.6069 0.0
C275 C 0.47336 0.46499 0.61014 0.0
C276 C 0.47989 0.46115 0.62824 0.0
C277 C 0.48803 0.44247 0.63204 0.0
C278 C 0.49453 0.43897 0.64988 0.0
C279 C 0.49247 0.45347 0.66468 0.0
C280 C 0.48407 0.4722 0.6612 0.0
C281 C 0.47799 0.4762 0.64295 0.0
C282 C 0.43312 0.60553 0.63616 0.0
C283 C 0.41561 0.57836 0.62703 0.0
O284 O 0.53611 0.38263 0.70877 0.0
O285 O 0.47424 0.39722 0.55458 0.0
O286 O 0.43023 0.57449 0.61354 0.0
O287 O 0.47331 0.53585 0.7545 0.0
H288 H 0.57671 0.40567 0.71081 0.0
H289 H 0.55643 0.42015 0.73546 0.0
H290 H 0.54066 0.38722 0.74536 0.0
H291 H 0.57656 0.40789 0.74545 0.0
H292 H 0.56689 0.43453 0.69973 0.0
H293 H 0.48747 0.36729 0.70032 0.0
H294 H 0.55379 0.48388 0.69718 0.0
H295 H 0.57701 0.47562 0.68697 0.0
H296 H 0.55202 0.4771 0.67297 0.0
H297 H 0.45015 0.37078 0.69172 0.0
H298 H 0.45407 0.40301 0.69708 0.0
H299 H 0.45708 0.39483 0.67376 0.0
H300 H 0.43325 0.52314 0.75287 0.0
H301 H 0.45716 0.55888 0.72979 0.0
H302 H 0.44042 0.56851 0.74631 0.0
H303 H 0.47609 0.58231 0.74784 0.0
H304 H 0.43508 0.49042 0.73942 0.0
H305 H 0.51793 0.54982 0.7385 0.0
H306 H 0.43005 0.46324 0.69658 0.0
H307 H 0.43904 0.44378 0.71083 0.0
H308 H 0.41616 0.45383 0.71935 0.0
H309 H 0.54737 0.54978 0.71615 0.0
H310 H 0.53985 0.5162 0.71109 0.0
H311 H 0.53205 0.53411 0.6945 0.0
H312 H 0.40973 0.56319 0.63813 0.0
H313 H 0.39836 0.52352 0.62199 0.0
H314 H 0.47674 0.58226 0.60495 0.0
H315 H 0.41132 0.47861 0.64078 0.0
H316 H 0.38601 0.47832 0.62621 0.0
H317 H 0.40789 0.4671 0.61746 0.0
H318 H 0.51188 0.57309 0.60242 0.0
H319 H 0.50987 0.54952 0.61947 0.0
H320 H 0.5012 0.53905 0.59602 0.0
H321 H 0.50503 0.3944 0.56639 0.0
H322 H 0.49226 0.35104 0.55184 0.0
H323 H 0.46464 0.34971 0.56398 0.0
H324 H 0.46582 0.35192 0.53918 0.0
H325 H 0.43214 0.39279 0.56964 0.0
H326 H 0.51696 0.44154 0.56645 0.0
H327 H 0.42413 0.41832 0.61182 0.0
H328 H 0.41869 0.4358 0.59355 0.0
H329 H 0.4066 0.40058 0.59125 0.0
H330 H 0.54031 0.48312 0.58194 0.0
H331 H 0.52153 0.49678 0.59248 0.0
H332 H 0.52989 0.47579 0.60557 0.0
H333 H 0.49988 0.46077 0.71136 0.0
H334 H 0.47208 0.51765 0.68303 0.0
H335 H 0.46226 0.52471 0.65226 0.0
H336 H 0.45999 0.48628 0.59302 0.0
H337 H 0.48957 0.43039 0.62127 0.0
H338 H 0.5009 0.42451 0.65197 0.0
H339 H 0.44015 0.62181 0.62586 0.0
H340 H 0.42184 0.60906 0.64708 0.0
H341 H 0.45076 0.60608 0.64261 0.0
C342 C 0.15569 0.52218 0.91488 0.0
C343 C 0.17035 0.53552 0.89706 0.0
C344 C 0.13568 0.51251 0.87397 0.0
C345 C 0.13018 0.53266 0.86901 0.0
C346 C 0.10531 0.52626 0.86163 0.0
C347 C 0.0856 0.49918 0.85918 0.0
C348 C 0.09159 0.47889 0.86327 0.0
C349 C 0.11678 0.48589 0.87041 0.0
C350 C 0.0998 0.5484 0.85696 0.0
C351 C 0.07104 0.44983 0.8608 0.0
C352 C 0.94804 0.46955 0.9618 0.0
C353 C 0.96699 0.47687 0.94619 0.0
C354 C 0.96883 0.47626 0.91332 0.0
C355 C 0.96912 0.45415 0.90586 0.0
C356 C 0.98386 0.45662 0.88999 0.0
C357 C 0.99843 0.48178 0.88138 0.0
C358 C 0.9977 0.50407 0.88869 0.0
C359 C 0.98278 0.501 0.90464 0.0
C360 C 0.98423 0.43245 0.88258 0.0
C361 C 0.01291 0.5311 0.87977 0.0
C362 C 0.89508 0.44737 0.78376 0.0
C363 C 0.90011 0.42723 0.78956 0.0
C364 C 0.92631 0.43231 0.79146 0.0
C365 C 0.94783 0.4582 0.78782 0.0
C366 C 0.94273 0.47813 0.78112 0.0
C367 C 0.91631 0.47229 0.77892 0.0
C368 C 0.93099 0.41023 0.79786 0.0
C369 C 0.96516 0.50585 0.77692 0.0
C370 C 0.11433 0.45655 0.72005 0.0
C371 C 0.10478 0.4768 0.7213 0.0
C372 C 0.06299 0.4653 0.73632 0.0
C373 C 0.0422 0.44221 0.74398 0.0
C374 C 0.02741 0.44363 0.75874 0.0
C375 C 0.03301 0.46889 0.76546 0.0
C376 C 0.05323 0.4924 0.75707 0.0
C377 C 0.06833 0.49034 0.74274 0.0
C378 C 0.00599 0.41809 0.76722 0.0
C379 C 0.0589 0.51965 0.76322 0.0
C380 C 0.05802 0.49216 0.85424 0.0
C381 C 0.04144 0.49087 0.86859 0.0
C382 C 0.01532 0.48483 0.86523 0.0
C383 C 0.00543 0.48044 0.84701 0.0
C384 C 0.97949 0.47511 0.84312 0.0
C385 C 0.96981 0.47045 0.82517 0.0
C386 C 0.98552 0.47046 0.81043 0.0
C387 C 0.9755 0.4649 0.7922 0.0
C388 C 0.99164 0.46514 0.77788 0.0
C389 C 0.01763 0.47054 0.78123 0.0
C390 C 0.02802 0.47613 0.79939 0.0
C391 C 0.054 0.48149 0.80335 0.0
C392 C 0.06405 0.48715 0.82125 0.0
C393 C 0.04826 0.48697 0.83595 0.0
C394 C 0.02189 0.48125 0.83232 0.0
C395 C 0.01185 0.47606 0.81402 0.0
C396 C 0.83657 0.44441 0.80114 0.0
C397 C 0.8499 0.42852 0.79534 0.0
O398 O 0.15886 0.51808 0.88233 0.0
O399 O 0.07726 0.46281 0.72252 0.0
O400 O 0.87004 0.44351 0.78295 0.0
O401 O 0.95531 0.47375 0.92902 0.0
H402 H 0.16884 0.55372 0.895 0.0
H403 H 0.13462 0.51731 0.91392 0.0
H404 H 0.15605 0.50345 0.91734 0.0
H405 H 0.16509 0.53586 0.92679 0.0
H406 H 0.14521 0.55338 0.8709 0.0
H407 H 0.12142 0.47053 0.874 0.0
H408 H 0.08487 0.54798 0.8667 0.0
H409 H 0.11802 0.56838 0.85775 0.0
H410 H 0.09124 0.54539 0.84287 0.0
H411 H 0.07905 0.43648 0.86418 0.0
H412 H 0.05369 0.44468 0.86979 0.0
H413 H 0.06375 0.44602 0.84635 0.0
H414 H 0.98599 0.49624 0.9477 0.0
H415 H 0.94783 0.43633 0.97345 0.0
H416 H 0.9549 0.48871 0.96963 0.0
H417 H 0.92956 0.46875 0.95614 0.0
H418 H 0.95813 0.43505 0.91263 0.0
H419 H 0.98224 0.51792 0.91054 0.0
H420 H 0.97759 0.42901 0.86798 0.0
H421 H 0.00489 0.43602 0.88298 0.0
H422 H 0.97121 0.41415 0.89057 0.0
H423 H 0.00968 0.54627 0.88683 0.0
H424 H 0.03452 0.53793 0.87996 0.0
H425 H 0.00674 0.52966 0.86513 0.0
H426 H 0.8584 0.42508 0.80814 0.0
H427 H 0.8836 0.40761 0.7927 0.0
H428 H 0.91212 0.48753 0.77417 0.0
H429 H 0.93837 0.41417 0.81228 0.0
H430 H 0.91252 0.39043 0.79731 0.0
H431 H 0.94643 0.40953 0.78926 0.0
H432 H 0.95783 0.51931 0.77232 0.0
H433 H 0.97781 0.51459 0.78935 0.0
H434 H 0.97793 0.50486 0.76594 0.0
H435 H 0.11381 0.48898 0.73397 0.0
H436 H 0.13642 0.46676 0.72004 0.0
H437 H 0.10705 0.44305 0.73214 0.0
H438 H 0.10657 0.44432 0.70732 0.0
H439 H 0.03809 0.42301 0.73869 0.0
H440 H 0.084 0.50819 0.73635 0.0
H441 H 0.00831 0.41887 0.78243 0.0
H442 H 0.98618 0.41568 0.76408 0.0
H443 H 0.00638 0.40029 0.76192 0.0
H444 H 0.07224 0.53553 0.75352 0.0
H445 H 0.04005 0.52006 0.76452 0.0
H446 H 0.0686 0.52426 0.77697 0.0
H447 H 0.0489 0.49436 0.88263 0.0
H448 H 0.96642 0.47457 0.85393 0.0
H449 H 0.94973 0.46663 0.82303 0.0
H450 H 0.98373 0.46067 0.76396 0.0
H451 H 0.06694 0.48149 0.79264 0.0
H452 H 0.08425 0.49136 0.82347 0.0
H453 H 0.82797 0.44912 0.789 0.0
H454 H 0.82046 0.4329 0.81122 0.0
H455 H 0.85147 0.46343 0.80775 0.0
C456 C 0.54142 0.88345 0.91135 0.0
C457 C 0.5198 0.87354 0.92612 0.0
C458 C 0.53511 0.90727 0.95002 0.0
C459 C 0.51382 0.91201 0.95179 0.0
C460 C 0.5181 0.93676 0.95808 0.0
C461 C 0.54427 0.95714 0.96252 0.0
C462 C 0.56564 0.952 0.96136 0.0
C463 C 0.56066 0.92686 0.95538 0.0
C464 C 0.49478 0.94135 0.95957 0.0
C465 C 0.59381 0.9733 0.96588 0.0
C466 C 0.57381 0.09193 0.85697 0.0
C467 C 0.56411 0.07317 0.87277 0.0
C468 C 0.56885 0.07213 0.90576 0.0
C469 C 0.59039 0.07782 0.91723 0.0
C470 C 0.58683 0.06327 0.93342 0.0
C471 C 0.56081 0.04347 0.93865 0.0
C472 C 0.53877 0.03859 0.92747 0.0
C473 C 0.54308 0.0528 0.91101 0.0
C474 C 0.61098 0.06864 0.94463 0.0
C475 C 0.5107 0.01809 0.93274 0.0
C476 C 0.58949 0.14822 0.03223 0.0
C477 C 0.60947 0.14176 0.02919 0.0
C478 C 0.60339 0.1151 0.02891 0.0
C479 C 0.57676 0.09455 0.03162 0.0
C480 C 0.55697 0.10111 0.03595 0.0
C481 C 0.56371 0.128 0.03638 0.0
C482 C 0.62519 0.10886 0.0249 0.0
C483 C 0.5285 0.07968 0.03919 0.0
C484 C 0.56867 0.92048 0.09823 0.0
C485 C 0.55181 0.93399 0.09839 0.0
C486 C 0.5666 0.97713 0.08396 0.0
C487 C 0.58998 0.99781 0.07653 0.0
C488 C 0.58915 0.01373 0.06234 0.0
C489 C 0.56421 0.00927 0.05587 0.0
C490 C 0.54046 0.98939 0.06416 0.0
C491 C 0.54189 0.97333 0.07806 0.0
C492 C 0.61491 0.03488 0.05397 0.0
C493 C 0.51361 0.9848 0.05809 0.0
C494 C 0.54949 0.98434 0.96697 0.0
C495 C 0.55216 0.00092 0.95223 0.0
C496 C 0.55684 0.02675 0.95513 0.0
C497 C 0.55867 0.03636 0.9733 0.0
C498 C 0.56243 0.06188 0.97676 0.0
C499 C 0.5655 0.07163 0.99464 0.0
C500 C 0.56483 0.05618 0.00978 0.0
C501 C 0.56925 0.06644 0.02795 0.0
C502 C 0.56816 0.05049 0.04271 0.0
C503 C 0.56307 0.02447 0.03981 0.0
C504 C 0.55883 0.01394 0.02171 0.0
C505 C 0.55394 0.98794 0.01824 0.0
C506 C 0.55033 0.97799 0.00037 0.0
C507 C 0.55208 0.99384 0.98523 0.0
C508 C 0.55677 0.02 0.98839 0.0
C509 C 0.55992 0.02996 0.00665 0.0
C510 C 0.59677 0.20408 0.00783 0.0
C511 C 0.61136 0.19202 0.01798 0.0
O512 O 0.53147 0.88396 0.94308 0.0
O513 O 0.56862 0.96128 0.0968 0.0
O514 O 0.59431 0.1736 0.0307 0.0
O515 O 0.57342 0.08556 0.8897 0.0
H516 H 0.50561 0.8804 0.9223 0.0
H517 H 0.55195 0.90557 0.91071 0.0
H518 H 0.55618 0.87715 0.91457 0.0
H519 H 0.53244 0.87542 0.89762 0.0
H520 H 0.49389 0.89638 0.9482 0.0
H521 H 0.57686 0.92274 0.95416 0.0
H522 H 0.4964 0.95562 0.94879 0.0
H523 H 0.47541 0.92261 0.95782 0.0
H524 H 0.49502 0.95032 0.97315 0.0
H525 H 0.60831 0.96638 0.96363 0.0
H526 H 0.5996 0.99117 0.95724 0.0
H527 H 0.59507 0.97951 0.98049 0.0
H528 H 0.54238 0.05834 0.87254 0.0
H529 H 0.59826 0.08122 0.84248 0.0
H530 H 0.55531 0.09041 0.85077 0.0
H531 H 0.58134 0.11249 0.86288 0.0
H532 H 0.61017 0.09302 0.91308 0.0
H533 H 0.52631 0.04899 0.90236 0.0
H534 H 0.61125 0.07869 0.95771 0.0
H535 H 0.61024 0.04964 0.94816 0.0
H536 H 0.62986 0.08162 0.93722 0.0
H537 H 0.49565 0.02026 0.92461 0.0
H538 H 0.50763 0.99785 0.93019 0.0
H539 H 0.50731 0.0197 0.94761 0.0
H540 H 0.61684 0.18198 0.00714 0.0
H541 H 0.62972 0.1575 0.02671 0.0
H542 H 0.54855 0.13328 0.03905 0.0
H543 H 0.62221 0.10004 0.01091 0.0
H544 H 0.64528 0.12693 0.02556 0.0
H545 H 0.62438 0.09395 0.03485 0.0
H546 H 0.51567 0.08807 0.04309 0.0
H547 H 0.52031 0.06752 0.02648 0.0
H548 H 0.5277 0.06614 0.05027 0.0
H549 H 0.53808 0.92601 0.08632 0.0
H550 H 0.55574 0.89846 0.099 0.0
H551 H 0.58026 0.92535 0.08525 0.0
H552 H 0.5828 0.92747 0.11005 0.0
H553 H 0.60894 0.0008 0.08146 0.0
H554 H 0.52378 0.95789 0.08432 0.0
H555 H 0.61443 0.03213 0.03881 0.0
H556 H 0.61734 0.05485 0.05667 0.0
H557 H 0.6325 0.03451 0.05967 0.0
H558 H 0.49741 0.97102 0.06743 0.0
H559 H 0.5138 0.00404 0.05754 0.0
H560 H 0.50913 0.97611 0.04401 0.0
H561 H 0.55078 0.99366 0.93825 0.0
H562 H 0.56329 0.07471 0.96564 0.0
H563 H 0.56861 0.09155 0.99642 0.0
H564 H 0.57195 0.05865 0.05657 0.0
H565 H 0.55289 0.97498 0.02931 0.0
H566 H 0.54656 0.95783 0.99853 0.0
H567 H 0.61028 0.2193 0.99781 0.0
H568 H 0.57951 0.18818 0.00015 0.0
H569 H 0.58923 0.2135 0.01762 0.0
C570 C 0.65956 0.52035 0.07854 0.0
C571 C 0.65394 0.50018 0.09393 0.0
C572 C 0.63907 0.5182 0.11834 0.0
C573 C 0.61211 0.49884 0.12002 0.0
C574 C 0.59366 0.50569 0.12671 0.0
C575 C 0.6024 0.53251 0.13158 0.0
C576 C 0.6298 0.55187 0.13046 0.0
C577 C 0.64788 0.54428 0.12416 0.0
C578 C 0.56474 0.48442 0.12819 0.0
C579 C 0.63987 0.58075 0.13527 0.0
C580 C 0.50798 0.57725 0.02622 0.0
C581 C 0.52206 0.57282 0.04179 0.0
C582 C 0.51905 0.56596 0.07476 0.0
C583 C 0.54479 0.58498 0.08055 0.0
C584 C 0.55523 0.5819 0.09718 0.0
C585 C 0.53976 0.55907 0.10809 0.0
C586 C 0.51354 0.54016 0.10251 0.0
C587 C 0.50333 0.54417 0.08603 0.0
C588 C 0.58301 0.60285 0.10292 0.0
C589 C 0.49663 0.5154 0.11367 0.0
C590 C 0.48152 0.60842 0.20306 0.0
C591 C 0.50867 0.6263 0.20008 0.0
C592 C 0.52691 0.61717 0.19913 0.0
C593 C 0.51773 0.58963 0.20116 0.0
C594 C 0.49066 0.57186 0.20533 0.0
C595 C 0.47291 0.5816 0.20642 0.0
C596 C 0.55582 0.63677 0.1953 0.0
C597 C 0.48031 0.54245 0.20786 0.0
C598 C 0.65305 0.52565 0.25017 0.0
C599 C 0.62609 0.51944 0.2581 0.0
C600 C 0.60935 0.54891 0.24964 0.0
C601 C 0.62001 0.57459 0.2425 0.0
C602 C 0.60537 0.58073 0.23002 0.0
C603 C 0.5794 0.56069 0.22488 0.0
C604 C 0.56767 0.5354 0.23339 0.0
C605 C 0.58278 0.52978 0.24575 0.0
C606 C 0.61819 0.6081 0.22151 0.0
C607 C 0.53969 0.51387 0.22866 0.0
C608 C 0.58269 0.54078 0.13622 0.0
C609 C 0.56927 0.54455 0.12162 0.0
C610 C 0.55186 0.55422 0.12456 0.0
C611 C 0.54755 0.56032 0.14263 0.0
C612 C 0.53067 0.5707 0.14607 0.0
C613 C 0.52663 0.57667 0.16391 0.0
C614 C 0.53957 0.5728 0.17901 0.0
C615 C 0.53579 0.57906 0.19721 0.0
C616 C 0.54905 0.5751 0.21189 0.0
C617 C 0.56601 0.56487 0.20888 0.0
C618 C 0.56998 0.55841 0.1908 0.0
C619 C 0.58686 0.54797 0.18732 0.0
C620 C 0.59085 0.54192 0.16949 0.0
C621 C 0.57821 0.54616 0.15444 0.0
C622 C 0.56073 0.55618 0.15763 0.0
C623 C 0.55673 0.56244 0.17583 0.0
C624 C 0.43784 0.61866 0.1776 0.0
C625 C 0.46258 0.63379 0.18977 0.0
O626 O 0.65694 0.51232 0.11094 0.0
O627 O 0.62533 0.5429 0.25974 0.0
O628 O 0.46318 0.61637 0.20257 0.0
O629 O 0.5089 0.56826 0.05848 0.0
H630 H 0.63319 0.48336 0.09225 0.0
H631 H 0.64508 0.52755 0.0792 0.0
H632 H 0.68 0.53777 0.07994 0.0
H633 H 0.65751 0.5109 0.06485 0.0
H634 H 0.60548 0.4784 0.11612 0.0
H635 H 0.66884 0.55895 0.12298 0.0
H636 H 0.5531 0.4876 0.11736 0.0
H637 H 0.56178 0.46404 0.12649 0.0
H638 H 0.55667 0.48575 0.14175 0.0
H639 H 0.66139 0.59364 0.1322 0.0
H640 H 0.6285 0.58829 0.12751 0.0
H641 H 0.63679 0.58256 0.15016 0.0
H642 H 0.52901 0.55835 0.03904 0.0
H643 H 0.53431 0.61685 0.0184 0.0
H644 H 0.50208 0.5598 0.01668 0.0
H645 H 0.48704 0.57025 0.03099 0.0
H646 H 0.55676 0.60241 0.07227 0.0
H647 H 0.48335 0.52977 0.08153 0.0
H648 H 0.58333 0.60827 0.11763 0.0
H649 H 0.59661 0.59471 0.10137 0.0
H650 H 0.59081 0.6212 0.09447 0.0
H651 H 0.47726 0.50188 0.10688 0.0
H652 H 0.50745 0.50435 0.11589 0.0
H653 H 0.4927 0.52109 0.12741 0.0
H654 H 0.48002 0.64155 0.18037 0.0
H655 H 0.51553 0.64732 0.19831 0.0
H656 H 0.45198 0.5681 0.20908 0.0
H657 H 0.56097 0.63301 0.18133 0.0
H658 H 0.56031 0.65777 0.19605 0.0
H659 H 0.56871 0.63398 0.20531 0.0
H660 H 0.45885 0.53137 0.2115 0.0
H661 H 0.48318 0.53387 0.19497 0.0
H662 H 0.49179 0.53942 0.2189 0.0
H663 H 0.6111 0.50563 0.24791 0.0
H664 H 0.65497 0.50751 0.25025 0.0
H665 H 0.6546 0.53245 0.2357 0.0
H666 H 0.66983 0.5418 0.25804 0.0
H667 H 0.64034 0.5894 0.24595 0.0
H668 H 0.57407 0.51027 0.25201 0.0
H669 H 0.62184 0.60659 0.20667 0.0
H670 H 0.6046 0.61634 0.22249 0.0
H671 H 0.63743 0.62219 0.22824 0.0
H672 H 0.53257 0.49621 0.23774 0.0
H673 H 0.52587 0.52181 0.22981 0.0
H674 H 0.53902 0.50738 0.21418 0.0
H675 H 0.57291 0.54048 0.10765 0.0
H676 H 0.52037 0.57429 0.13499 0.0
H677 H 0.51329 0.58447 0.16569 0.0
H678 H 0.54605 0.57992 0.2258 0.0
H679 H 0.59729 0.54441 0.19832 0.0
H680 H 0.60404 0.53395 0.16764 0.0
H681 H 0.4369 0.63229 0.16728 0.0
H682 H 0.43872 0.60236 0.17013 0.0
H683 H 0.41942 0.60973 0.18602 0.0
In684 In 0.62005 0.4096 0.40897 0.0
O685 O 0.66433 0.44054 0.41375 0.0
O686 O 0.65377 0.41013 0.39356 0.0
C687 C 0.59436 0.41713 0.43692 0.0
C688 C 0.60606 0.4257 0.37832 0.0
C689 C 0.60892 0.36078 0.4198 0.0
O690 O 0.61911 0.43236 0.43453 0.0
O691 O 0.58284 0.39912 0.42489 0.0
O692 O 0.59626 0.36404 0.4068 0.0
O693 O 0.62689 0.38203 0.42711 0.0
C694 C 0.67213 0.43018 0.40169 0.0
O695 O 0.60394 0.403 0.37961 0.0
O696 O 0.61419 0.43982 0.3927 0.0
In697 In 0.22179 0.61013 0.57896 0.0
O698 O 0.24335 0.58641 0.57504 0.0
O699 O 0.25902 0.61814 0.59452 0.0
C700 C 0.19273 0.59791 0.54772 0.0
C701 C 0.18798 0.58247 0.6064 0.0
C702 C 0.24944 0.66352 0.57469 0.0
O703 O 0.21402 0.59715 0.54892 0.0
O704 O 0.18539 0.60369 0.56252 0.0
O705 O 0.23439 0.65272 0.58835 0.0
O706 O 0.25029 0.64742 0.5634 0.0
C707 C 0.2612 0.5998 0.58684 0.0
O708 O 0.19776 0.60735 0.60465 0.0
O709 O 0.1947 0.57166 0.59405 0.0
In710 In 0.63547 0.22312 0.7437 0.0
O711 O 0.68135 0.24484 0.74255 0.0
O712 O 0.66304 0.26209 0.7582 0.0
C713 C 0.6236 0.19619 0.71155 0.0
C714 C 0.62332 0.18642 0.77033 0.0
C715 C 0.607 0.24789 0.73902 0.0
O716 O 0.64402 0.21892 0.71364 0.0
O717 O 0.60969 0.18672 0.72585 0.0
O718 O 0.60884 0.23887 0.75442 0.0
O719 O 0.61905 0.24396 0.72607 0.0
C720 C 0.6844 0.26392 0.75267 0.0
O721 O 0.6096 0.19736 0.76726 0.0
O722 O 0.64313 0.19386 0.75987 0.0
In723 In 0.42009 0.6214 0.91253 0.0
O724 O 0.37816 0.59985 0.92502 0.0
O725 O 0.3819 0.60848 0.89647 0.0
C726 C 0.44639 0.61349 0.9403 0.0
C727 C 0.433 0.6039 0.88198 0.0
C728 C 0.43687 0.67385 0.91584 0.0
O729 O 0.42265 0.59648 0.93618 0.0
O730 O 0.45664 0.63397 0.93032 0.0
O731 O 0.44681 0.66468 0.9046 0.0
O732 O 0.41816 0.65647 0.92548 0.0
C733 C 0.36655 0.59846 0.90999 0.0
O734 O 0.43411 0.62613 0.883 0.0
O735 O 0.42561 0.5903 0.89657 0.0
In736 In 0.81177 0.40794 0.07335 0.0
O737 O 0.8333 0.40094 0.09734 0.0
O738 O 0.835 0.43838 0.09571 0.0
C739 C 0.77299 0.35869 0.06341 0.0
C740 C 0.77993 0.42873 0.078 0.0
C741 C 0.84953 0.42167 0.0473 0.0
O742 O 0.78461 0.36318 0.07884 0.0
O743 O 0.78128 0.3788 0.05316 0.0
O744 O 0.83761 0.43461 0.04982 0.0
O745 O 0.84249 0.40215 0.05795 0.0
C746 C 0.84174 0.4238 0.10427 0.0
O747 O 0.79727 0.43655 0.06542 0.0
O748 O 0.77888 0.4106 0.08821 0.0
In749 In 0.42896 0.82391 0.24475 0.0
O750 O 0.45076 0.8005 0.2491 0.0
O751 O 0.42024 0.78677 0.22879 0.0
C752 C 0.44318 0.85277 0.2761 0.0
C753 C 0.4571 0.85779 0.21754 0.0
C754 C 0.37549 0.79739 0.24828 0.0
O755 O 0.44157 0.83029 0.27483 0.0
O756 O 0.43879 0.86133 0.26131 0.0
O757 O 0.38677 0.80942 0.23363 0.0
O758 O 0.39114 0.79924 0.26097 0.0
C759 C 0.43764 0.78342 0.23679 0.0
O760 O 0.43356 0.85213 0.22123 0.0
O761 O 0.46651 0.84715 0.22798 0.0
C762 C 0.23331 0.67186 0.25647 0.0
C763 C 0.2121 0.6763 0.25993 0.0
C764 C 0.25925 0.69318 0.25402 0.0
C765 C 0.26415 0.71967 0.25508 0.0
C766 C 0.24277 0.72436 0.25822 0.0
C767 C 0.21691 0.70259 0.26038 0.0
C768 C 0.28147 0.68735 0.25046 0.0
C769 C 0.24729 0.75233 0.25955 0.0
C770 C 0.33536 0.77038 0.26748 0.0
C771 C 0.34636 0.78039 0.25014 0.0
C772 C 0.30829 0.75154 0.26937 0.0
C773 C 0.29187 0.74232 0.25352 0.0
C774 C 0.30259 0.75324 0.23606 0.0
C775 C 0.32976 0.7723 0.23459 0.0
C776 C 0.29755 0.74062 0.28825 0.0
C777 C 0.28571 0.7438 0.21884 0.0
H778 H 0.22952 0.65156 0.25568 0.0
H779 H 0.20049 0.70616 0.26255 0.0
H780 H 0.29194 0.69713 0.23753 0.0
H781 H 0.29632 0.69568 0.26179 0.0
H782 H 0.27414 0.66564 0.24932 0.0
H783 H 0.22848 0.75258 0.26172 0.0
H784 H 0.26106 0.7631 0.27114 0.0
H785 H 0.25686 0.76352 0.2468 0.0
H786 H 0.34811 0.77674 0.27956 0.0
H787 H 0.33822 0.77998 0.22117 0.0
H788 H 0.29207 0.71934 0.2889 0.0
H789 H 0.27924 0.74157 0.29098 0.0
H790 H 0.31227 0.75166 0.29934 0.0
H791 H 0.27996 0.72276 0.21598 0.0
H792 H 0.29635 0.75601 0.20664 0.0
H793 H 0.26706 0.74441 0.22075 0.0
C794 C 0.57209 0.22425 0.46968 0.0
C795 C 0.58624 0.21276 0.46216 0.0
C796 C 0.57304 0.24666 0.46157 0.0
C797 C 0.58875 0.25798 0.44566 0.0
C798 C 0.60219 0.2458 0.43757 0.0
C799 C 0.60086 0.22338 0.44596 0.0
C800 C 0.55842 0.25906 0.4706 0.0
C801 C 0.6192 0.25731 0.42065 0.0
C802 C 0.58224 0.3108 0.41883 0.0
C803 C 0.60345 0.3343 0.42615 0.0
C804 C 0.57708 0.28569 0.42504 0.0
C805 C 0.59361 0.28419 0.4388 0.0
C806 C 0.61507 0.30789 0.44616 0.0
C807 C 0.61968 0.33262 0.43978 0.0
C808 C 0.55395 0.26081 0.41696 0.0
C809 C 0.63323 0.30716 0.46081 0.0
H810 H 0.56097 0.21621 0.48228 0.0
H811 H 0.61205 0.2147 0.44024 0.0
H812 H 0.57301 0.27852 0.47681 0.0
H813 H 0.54673 0.26297 0.46024 0.0
H814 H 0.54475 0.2462 0.48159 0.0
H815 H 0.62596 0.24391 0.41493 0.0
H816 H 0.60805 0.26114 0.40981 0.0
H817 H 0.63701 0.27672 0.42418 0.0
H818 H 0.56962 0.31203 0.40831 0.0
H819 H 0.63614 0.35071 0.44547 0.0
H820 H 0.53987 0.24888 0.42803 0.0
H821 H 0.56117 0.24819 0.4106 0.0
H822 H 0.54299 0.26539 0.40638 0.0
H823 H 0.62149 0.29664 0.47318 0.0
H824 H 0.64912 0.32743 0.46501 0.0
H825 H 0.64275 0.29589 0.4557 0.0
C826 C 0.39261 0.59049 0.60237 0.0
C827 C 0.39101 0.57704 0.61878 0.0
C828 C 0.37072 0.59216 0.59584 0.0
C829 C 0.34675 0.58028 0.60604 0.0
C830 C 0.34473 0.56588 0.62225 0.0
C831 C 0.36694 0.56455 0.62847 0.0
C832 C 0.37367 0.60773 0.57851 0.0
C833 C 0.31953 0.55294 0.63351 0.0
C834 C 0.30346 0.61203 0.60337 0.0
C835 C 0.28304 0.59465 0.59144 0.0
C836 C 0.32435 0.60761 0.60809 0.0
C837 C 0.32477 0.58516 0.60079 0.0
C838 C 0.30422 0.5675 0.58873 0.0
C839 C 0.28359 0.57251 0.58413 0.0
C840 C 0.34595 0.62699 0.62095 0.0
C841 C 0.30396 0.54328 0.58079 0.0
H842 H 0.4113 0.60044 0.59498 0.0
H843 H 0.36573 0.55438 0.64125 0.0
H844 H 0.35684 0.59586 0.56895 0.0
H845 H 0.37314 0.62611 0.58202 0.0
H846 H 0.39263 0.61354 0.57126 0.0
H847 H 0.32031 0.54032 0.64472 0.0
H848 H 0.31631 0.56858 0.63978 0.0
H849 H 0.30207 0.54043 0.62459 0.0
H850 H 0.30318 0.62921 0.60903 0.0
H851 H 0.26779 0.559 0.57494 0.0
H852 H 0.36565 0.63548 0.61417 0.0
H853 H 0.34665 0.61643 0.63347 0.0
H854 H 0.34286 0.64366 0.62522 0.0
H855 H 0.32253 0.54943 0.57296 0.0
H856 H 0.28666 0.53161 0.57151 0.0
H857 H 0.30332 0.53011 0.59208 0.0
C858 C 0.81791 0.37908 0.7977 0.0
C859 C 0.82954 0.40215 0.78689 0.0
C860 C 0.79633 0.35524 0.7911 0.0
C861 C 0.78597 0.35456 0.77331 0.0
C862 C 0.79845 0.37745 0.76199 0.0
C863 C 0.82003 0.40103 0.76895 0.0
C864 C 0.78359 0.33128 0.80361 0.0
C865 C 0.788 0.37754 0.74295 0.0
C866 C 0.73438 0.28765 0.75288 0.0
C867 C 0.71062 0.28693 0.75762 0.0
C868 C 0.75921 0.30959 0.75782 0.0
C869 C 0.76014 0.33123 0.76759 0.0
C870 C 0.73617 0.33062 0.77223 0.0
C871 C 0.71176 0.30847 0.76725 0.0
C872 C 0.78438 0.30955 0.75273 0.0
C873 C 0.73627 0.35334 0.78256 0.0
H874 H 0.82509 0.37996 0.81163 0.0
H875 H 0.82882 0.41893 0.76063 0.0
H876 H 0.76385 0.32778 0.80812 0.0
H877 H 0.78028 0.31313 0.79616 0.0
H878 H 0.7959 0.33399 0.81605 0.0
H879 H 0.80187 0.39564 0.73507 0.0
H880 H 0.78456 0.35966 0.73507 0.0
H881 H 0.76859 0.37681 0.74407 0.0
H882 H 0.73357 0.27102 0.74544 0.0
H883 H 0.69347 0.30809 0.77088 0.0
H884 H 0.79564 0.31065 0.76538 0.0
H885 H 0.7974 0.3274 0.74438 0.0
H886 H 0.78027 0.29143 0.74483 0.0
H887 H 0.74612 0.35609 0.79615 0.0
H888 H 0.71587 0.34992 0.78485 0.0
H889 H 0.74782 0.3722 0.77482 0.0
C890 C 0.51427 0.82953 0.93717 0.0
C891 C 0.50486 0.84338 0.92663 0.0
C892 C 0.5017 0.80163 0.93643 0.0
C893 C 0.47961 0.7873 0.92453 0.0
C894 C 0.46987 0.80112 0.91399 0.0
C895 C 0.48264 0.82901 0.91516 0.0
C896 C 0.5126 0.78755 0.94792 0.0
C897 C 0.44658 0.78656 0.90097 0.0
C898 C 0.46807 0.72081 0.90671 0.0
C899 C 0.44705 0.70274 0.91782 0.0
C900 C 0.47866 0.74836 0.90868 0.0
C901 C 0.46798 0.75808 0.9221 0.0
C902 C 0.44657 0.73995 0.93326 0.0
C903 C 0.43632 0.71242 0.93098 0.0
C904 C 0.50144 0.76707 0.89647 0.0
C905 C 0.43472 0.74964 0.94771 0.0
H906 H 0.53178 0.84056 0.94576 0.0
H907 H 0.47566 0.83972 0.90675 0.0
H908 H 0.49641 0.77137 0.95603 0.0
H909 H 0.52091 0.77817 0.93879 0.0
H910 H 0.5285 0.80135 0.95754 0.0
H911 H 0.4404 0.80006 0.89464 0.0
H912 H 0.45198 0.77705 0.88981 0.0
H913 H 0.42931 0.77042 0.90833 0.0
H914 H 0.47642 0.71342 0.89651 0.0
H915 H 0.42006 0.6985 0.93959 0.0
H916 H 0.51913 0.7802 0.90503 0.0
H917 H 0.49598 0.78012 0.88873 0.0
H918 H 0.50709 0.75625 0.88646 0.0
H919 H 0.4502 0.76221 0.95797 0.0
H920 H 0.41783 0.73295 0.95504 0.0
H921 H 0.42759 0.76228 0.94127 0.0
C922 C 0.6983 0.50298 0.1003 0.0
C923 C 0.6728 0.48938 0.09235 0.0
C924 C 0.71614 0.49349 0.09824 0.0
C925 C 0.70852 0.47022 0.08762 0.0
C926 C 0.68302 0.45671 0.07927 0.0
C927 C 0.66548 0.46648 0.08173 0.0
C928 C 0.74315 0.50836 0.10739 0.0
C929 C 0.67432 0.43203 0.06766 0.0
C930 C 0.76265 0.45863 0.06827 0.0
C931 C 0.76203 0.43971 0.08056 0.0
C932 C 0.74538 0.46881 0.07043 0.0
C933 C 0.72719 0.45993 0.08527 0.0
C934 C 0.72663 0.44098 0.09779 0.0
C935 C 0.74403 0.43106 0.09526 0.0
C936 C 0.74644 0.4889 0.05675 0.0
C937 C 0.70759 0.43113 0.11383 0.0
H938 H 0.70431 0.52109 0.10812 0.0
H939 H 0.64602 0.45631 0.07523 0.0
H940 H 0.74587 0.49485 0.1168 0.0
H941 H 0.75903 0.51528 0.09686 0.0
H942 H 0.74585 0.52591 0.1154 0.0
H943 H 0.6539 0.42401 0.062 0.0
H944 H 0.6883 0.4366 0.05603 0.0
H945 H 0.67483 0.41627 0.07599 0.0
H946 H 0.77651 0.46535 0.05687 0.0
H947 H 0.74349 0.41645 0.10482 0.0
H948 H 0.75081 0.50756 0.06398 0.0
H949 H 0.72679 0.48103 0.0499 0.0
H950 H 0.7618 0.49382 0.04601 0.0
H951 H 0.7108 0.4482 0.12261 0.0
H952 H 0.70995 0.41665 0.12248 0.0
H953 H 0.68676 0.42139 0.10871 0.0
C954 C 0.36536 0.81381 0.57082 0.0
C955 C 0.35835 0.83152 0.56296 0.0
C956 C 0.34658 0.78667 0.57275 0.0
C957 C 0.32006 0.77699 0.56674 0.0
C958 C 0.31273 0.79479 0.55898 0.0
C959 C 0.33192 0.82192 0.55734 0.0
C960 C 0.35513 0.76834 0.58121 0.0
C961 C 0.28467 0.78516 0.55236 0.0
C962 C 0.28062 0.70298 0.55609 0.0
C963 C 0.26585 0.6927 0.57227 0.0
C964 C 0.29773 0.73046 0.5539 0.0
C965 C 0.30024 0.74809 0.56828 0.0
C966 C 0.28485 0.73791 0.58447 0.0
C967 C 0.26775 0.71028 0.58626 0.0
C968 C 0.31366 0.74054 0.53638 0.0
C969 C 0.28707 0.75613 0.60011 0.0
H970 H 0.38562 0.82129 0.57556 0.0
H971 H 0.32626 0.83566 0.55167 0.0
H972 H 0.34274 0.7583 0.59345 0.0
H973 H 0.35203 0.75253 0.57121 0.0
H974 H 0.37639 0.77912 0.58548 0.0
H975 H 0.2822 0.80156 0.54666 0.0
H976 H 0.2792 0.76969 0.54155 0.0
H977 H 0.27048 0.77576 0.56388 0.0
H978 H 0.27912 0.68948 0.54518 0.0
H979 H 0.25636 0.7024 0.59878 0.0
H980 H 0.3352 0.74969 0.53956 0.0
H981 H 0.31059 0.75625 0.53013 0.0
H982 H 0.30819 0.72439 0.52608 0.0
H983 H 0.3075 0.76589 0.60596 0.0
H984 H 0.27266 0.74526 0.6113 0.0
H985 H 0.2836 0.77216 0.595 0.0
C986 C 0.58934 0.37104 0.72273 0.0
C987 C 0.5634 0.36682 0.72158 0.0
C988 C 0.59393 0.34988 0.72607 0.0
C989 C 0.57202 0.3238 0.72835 0.0
C990 C 0.54575 0.3194 0.7275 0.0
C991 C 0.54174 0.34104 0.72433 0.0
C992 C 0.62227 0.35545 0.72713 0.0
C993 C 0.52194 0.29185 0.72983 0.0
C994 C 0.58921 0.26998 0.71875 0.0
C995 C 0.59416 0.26412 0.73653 0.0
C996 C 0.58042 0.28825 0.71595 0.0
C997 C 0.5769 0.30124 0.73131 0.0
C998 C 0.58061 0.29442 0.74935 0.0
C999 C 0.58905 0.27576 0.75176 0.0
C1000 C 0.57623 0.29465 0.69652 0.0
C1001 C 0.57726 0.308 0.76606 0.0
H1002 H 0.6061 0.39104 0.72106 0.0
H1003 H 0.52166 0.33779 0.72395 0.0
H1004 H 0.62581 0.34863 0.74055 0.0
H1005 H 0.62574 0.34415 0.71619 0.0
H1006 H 0.63706 0.37697 0.72552 0.0
H1007 H 0.50281 0.29181 0.72886 0.0
H1008 H 0.52211 0.27828 0.7191 0.0
H1009 H 0.52291 0.28358 0.74338 0.0
H1010 H 0.59293 0.26082 0.70696 0.0
H1011 H 0.59291 0.27129 0.76552 0.0
H1012 H 0.59197 0.31523 0.69303 0.0
H1013 H 0.55679 0.29385 0.69528 0.0
H1014 H 0.57688 0.28071 0.68628 0.0
H1015 H 0.59331 0.32921 0.76634 0.0
H1016 H 0.5781 0.29847 0.7791 0.0
H1017 H 0.55802 0.30771 0.7654 0.0
C1018 C 0.20763 0.52472 0.89723 0.0
C1019 C 0.19945 0.54369 0.89875 0.0
C1020 C 0.23452 0.5321 0.89933 0.0
C1021 C 0.25359 0.55903 0.9032 0.0
C1022 C 0.24538 0.57817 0.90502 0.0
C1023 C 0.2184 0.57024 0.90285 0.0
C1024 C 0.24254 0.51114 0.89733 0.0
C1025 C 0.26513 0.60707 0.90917 0.0
C1026 C 0.32097 0.57745 0.92378 0.0
C1027 C 0.33743 0.5869 0.90827 0.0
C1028 C 0.29348 0.56771 0.92228 0.0
C1029 C 0.28229 0.56747 0.90488 0.0
C1030 C 0.29875 0.57641 0.88913 0.0
C1031 C 0.32612 0.58603 0.89102 0.0
C1032 C 0.2765 0.55827 0.93937 0.0
C1033 C 0.28756 0.57642 0.87033 0.0
H1034 H 0.19293 0.50409 0.89441 0.0
H1035 H 0.21207 0.58484 0.90436 0.0
H1036 H 0.2569 0.51645 0.88586 0.0
H1037 H 0.25272 0.51031 0.91005 0.0
H1038 H 0.22521 0.491 0.8946 0.0
H1039 H 0.25543 0.61936 0.91044 0.0
H1040 H 0.27588 0.60869 0.92219 0.0
H1041 H 0.28021 0.61552 0.89808 0.0
H1042 H 0.32964 0.57804 0.93713 0.0
H1043 H 0.33874 0.59322 0.87897 0.0
H1044 H 0.25959 0.53773 0.93727 0.0
H1045 H 0.26795 0.57128 0.94217 0.0
H1046 H 0.28799 0.55844 0.95168 0.0
H1047 H 0.27099 0.55617 0.86688 0.0
H1048 H 0.30284 0.58289 0.85935 0.0
H1049 H 0.27929 0.59002 0.87037 0.0
C1050 C 0.6614 0.21907 0.02153 0.0
C1051 C 0.63616 0.2135 0.02747 0.0
C1052 C 0.68462 0.24067 0.02885 0.0
C1053 C 0.68248 0.25736 0.04218 0.0
C1054 C 0.65709 0.25106 0.04887 0.0
C1055 C 0.63424 0.22903 0.04155 0.0
C1056 C 0.71134 0.2464 0.02164 0.0
C1057 C 0.65395 0.2685 0.06294 0.0
C1058 C 0.74345 0.30952 0.06839 0.0
C1059 C 0.75058 0.33238 0.05788 0.0
C1060 C 0.72159 0.28473 0.0633 0.0
C1061 C 0.70638 0.28299 0.04753 0.0
C1062 C 0.71366 0.30602 0.03685 0.0
C1063 C 0.73575 0.33036 0.04208 0.0
C1064 C 0.71467 0.26047 0.07481 0.0
C1065 C 0.69784 0.30508 0.02002 0.0
H1066 H 0.66298 0.20693 0.01078 0.0
H1067 H 0.61475 0.22453 0.04632 0.0
H1068 H 0.71994 0.26451 0.01292 0.0
H1069 H 0.72543 0.25042 0.03319 0.0
H1070 H 0.70982 0.22962 0.01327 0.0
H1071 H 0.63312 0.25961 0.06787 0.0
H1072 H 0.66716 0.27203 0.07496 0.0
H1073 H 0.65996 0.28822 0.05677 0.0
H1074 H 0.75494 0.31101 0.08058 0.0
H1075 H 0.74111 0.34797 0.03393 0.0
H1076 H 0.71418 0.24452 0.06606 0.0
H1077 H 0.69451 0.25248 0.08076 0.0
H1078 H 0.7291 0.26496 0.08623 0.0
H1079 H 0.69761 0.29067 0.00983 0.0
H1080 H 0.70608 0.32484 0.01328 0.0
H1081 H 0.67688 0.29807 0.0239 0.0
C1082 C 0.44438 0.65199 0.21385 0.0
C1083 C 0.46224 0.65676 0.19944 0.0
C1084 C 0.44178 0.67281 0.22153 0.0
C1085 C 0.45737 0.69898 0.21457 0.0
C1086 C 0.47616 0.70408 0.2005 0.0
C1087 C 0.47827 0.68286 0.19304 0.0
C1088 C 0.42148 0.66657 0.23648 0.0
C1089 C 0.49317 0.73171 0.19273 0.0
C1090 C 0.42834 0.74468 0.21686 0.0
C1091 C 0.44253 0.76158 0.23159 0.0
C1092 C 0.43298 0.72422 0.21127 0.0
C1093 C 0.4522 0.72045 0.2207 0.0
C1094 C 0.46646 0.73728 0.2357 0.0
C1095 C 0.46149 0.75774 0.24096 0.0
C1096 C 0.41743 0.70676 0.19514 0.0
C1097 C 0.48704 0.73377 0.24609 0.0
H1098 H 0.43183 0.63178 0.21872 0.0
H1099 H 0.49198 0.68658 0.18182 0.0
H1100 H 0.43065 0.68046 0.24827 0.0
H1101 H 0.40513 0.66938 0.2311 0.0
H1102 H 0.41275 0.64578 0.24154 0.0
H1103 H 0.50852 0.7328 0.1831 0.0
H1104 H 0.48038 0.73776 0.18523 0.0
H1105 H 0.50325 0.74638 0.204 0.0
H1106 H 0.4137 0.74757 0.20953 0.0
H1107 H 0.47249 0.77077 0.25236 0.0
H1108 H 0.40633 0.68556 0.19943 0.0
H1109 H 0.43128 0.70845 0.18404 0.0
H1110 H 0.40303 0.71219 0.1894 0.0
H1111 H 0.47788 0.71324 0.25166 0.0
H1112 H 0.49604 0.74819 0.25766 0.0
H1113 H 0.50313 0.73641 0.2366 0.0
C1114 C 0.82046 0.46041 0.38613 0.0
C1115 C 0.83008 0.47289 0.3691 0.0
C1116 C 0.79656 0.45704 0.39333 0.0
C1117 C 0.78172 0.46593 0.38308 0.0
C1118 C 0.79198 0.47967 0.36631 0.0
C1119 C 0.816 0.48289 0.35949 0.0
C1120 C 0.78631 0.44231 0.41126 0.0
C1121 C 0.77669 0.4893 0.35491 0.0
C1122 C 0.70674 0.42431 0.38596 0.0
C1123 C 0.70037 0.43984 0.39738 0.0
C1124 C 0.73313 0.43257 0.38141 0.0
C1125 C 0.7538 0.45715 0.38831 0.0
C1126 C 0.74761 0.473 0.39989 0.0
C1127 C 0.72086 0.46407 0.40438 0.0
C1128 C 0.73884 0.41494 0.36912 0.0
C1129 C 0.76919 0.49939 0.40738 0.0
H1130 H 0.83108 0.45231 0.39348 0.0
H1131 H 0.82323 0.49225 0.34622 0.0
H1132 H 0.77898 0.45273 0.42027 0.0
H1133 H 0.76927 0.42207 0.40844 0.0
H1134 H 0.80184 0.44024 0.41881 0.0
H1135 H 0.78894 0.5027 0.34361 0.0
H1136 H 0.75897 0.4719 0.34873 0.0
H1137 H 0.76944 0.50004 0.36366 0.0
H1138 H 0.691 0.40547 0.38059 0.0
H1139 H 0.71599 0.47613 0.41319 0.0
H1140 H 0.75239 0.40954 0.37626 0.0
H1141 H 0.74904 0.42585 0.35642 0.0
H1142 H 0.72047 0.39628 0.36509 0.0
H1143 H 0.78382 0.49645 0.41539 0.0
H1144 H 0.76113 0.50919 0.41637 0.0
H1145 H 0.78015 0.51299 0.39585 0.0
C1146 C 0.14548 0.63923 0.4591 0.0
C1147 C 0.13591 0.62062 0.44462 0.0
C1148 C 0.15222 0.63291 0.47616 0.0
C1149 C 0.14813 0.60696 0.47911 0.0
C1150 C 0.13647 0.58746 0.46506 0.0
C1151 C 0.13072 0.5946 0.44792 0.0
C1152 C 0.16485 0.65437 0.49075 0.0
C1153 C 0.1308 0.5593 0.46793 0.0
C1154 C 0.19461 0.60232 0.51366 0.0
C1155 C 0.17973 0.59623 0.5299 0.0
C1156 C 0.18425 0.60518 0.49693 0.0
C1157 C 0.15806 0.60105 0.49633 0.0
C1158 C 0.14231 0.59319 0.51246 0.0
C1159 C 0.15352 0.59133 0.52917 0.0
C1160 C 0.20189 0.61411 0.48014 0.0
C1161 C 0.11399 0.58769 0.51223 0.0
H1162 H 0.14851 0.65904 0.45695 0.0
H1163 H 0.12257 0.57989 0.43696 0.0
H1164 H 0.15328 0.64766 0.50369 0.0
H1165 H 0.18524 0.65829 0.49386 0.0
H1166 H 0.16615 0.67336 0.48642 0.0
H1167 H 0.11864 0.54576 0.45657 0.0
H1168 H 0.14982 0.55917 0.46876 0.0
H1169 H 0.12018 0.55131 0.48112 0.0
H1170 H 0.21496 0.60633 0.51422 0.0
H1171 H 0.14194 0.58649 0.54171 0.0
H1172 H 0.20536 0.6339 0.47564 0.0
H1173 H 0.19201 0.59997 0.46857 0.0
H1174 H 0.22149 0.61568 0.48278 0.0
H1175 H 0.11393 0.60669 0.51067 0.0
H1176 H 0.10323 0.57789 0.52508 0.0
H1177 H 0.10291 0.57479 0.50033 0.0
C1178 C 0.57375 0.12584 0.60232 0.0
C1179 C 0.54028 0.12288 0.60101 0.0
C1180 C 0.59047 0.13763 0.62417 0.0
C1181 C 0.57742 0.15052 0.64142 0.0
C1182 C 0.5486 0.15398 0.6372 0.0
C1183 C 0.53046 0.14269 0.61583 0.0
C1184 C 0.615 0.13631 0.62807 0.0
C1185 C 0.53977 0.16636 0.65148 0.0
C1186 C 0.59463 0.1565 0.69203 0.0
C1187 C 0.61464 0.18332 0.69335 0.0
C1188 C 0.58333 0.14503 0.67493 0.0
C1189 C 0.59189 0.16093 0.65892 0.0
C1190 C 0.61275 0.18771 0.66007 0.0
C1191 C 0.62413 0.19854 0.67728 0.0
C1192 C 0.56162 0.11618 0.67411 0.0
C1193 C 0.62196 0.20539 0.6433 0.0
H1194 H 0.58007 0.11614 0.59244 0.0
H1195 H 0.51191 0.14252 0.61378 0.0
H1196 H 0.63261 0.15658 0.62688 0.0
H1197 H 0.61438 0.12932 0.64237 0.0
H1198 H 0.61691 0.12284 0.61809 0.0
H1199 H 0.52243 0.16775 0.64649 0.0
H1200 H 0.53439 0.1542 0.66419 0.0
H1201 H 0.55651 0.1865 0.65496 0.0
H1202 H 0.58736 0.14463 0.70443 0.0
H1203 H 0.63948 0.21935 0.67826 0.0
H1204 H 0.56607 0.10557 0.66319 0.0
H1205 H 0.54244 0.11498 0.67057 0.0
H1206 H 0.55924 0.1058 0.68742 0.0
H1207 H 0.62756 0.19595 0.63222 0.0
H1208 H 0.63924 0.22543 0.64634 0.0
H1209 H 0.60537 0.20784 0.63798 0.0
C1210 C 0.42602 0.54035 0.78436 0.0
C1211 C 0.45087 0.54752 0.77672 0.0
C1212 C 0.42399 0.5482 0.80226 0.0
C1213 C 0.44741 0.56369 0.81276 0.0
C1214 C 0.47253 0.57052 0.80531 0.0
C1215 C 0.474 0.56262 0.78727 0.0
C1216 C 0.39686 0.54081 0.80966 0.0
C1217 C 0.49791 0.58691 0.81614 0.0
C1218 C 0.44331 0.6091 0.84852 0.0
C1219 C 0.43851 0.59419 0.86466 0.0
C1220 C 0.44677 0.59959 0.83162 0.0
C1221 C 0.44566 0.57465 0.83087 0.0
C1222 C 0.44165 0.55984 0.84721 0.0
C1223 C 0.43797 0.56975 0.86396 0.0
C1224 C 0.45084 0.61591 0.81447 0.0
C1225 C 0.44068 0.53332 0.84693 0.0
H1226 H 0.40817 0.52907 0.77612 0.0
H1227 H 0.49329 0.56865 0.7813 0.0
H1228 H 0.39364 0.53086 0.8232 0.0
H1229 H 0.39565 0.55914 0.81183 0.0
H1230 H 0.38053 0.52735 0.80018 0.0
H1231 H 0.51551 0.58824 0.8091 0.0
H1232 H 0.50139 0.6074 0.81813 0.0
H1233 H 0.4962 0.5782 0.83 0.0
H1234 H 0.44376 0.62802 0.84899 0.0
H1235 H 0.43437 0.55822 0.87643 0.0
H1236 H 0.43415 0.60454 0.8047 0.0
H1237 H 0.46942 0.61992 0.80743 0.0
H1238 H 0.45201 0.63527 0.81752 0.0
H1239 H 0.42326 0.51872 0.83873 0.0
H1240 H 0.4392 0.52516 0.86098 0.0
H1241 H 0.45875 0.53538 0.84018 0.0
C1242 C 0.98323 0.46725 0.97495 0.0
C1243 C 0.96784 0.45423 0.95199 0.0
C1244 C 0.96003 0.46337 0.99276 0.0
C1245 C 0.92459 0.44343 0.98879 0.0
C1246 C 0.91088 0.42512 0.96763 0.0
C1247 C 0.93238 0.42764 0.94899 0.0
C1248 C 0.97019 0.47654 0.01097 0.0
C1249 C 0.88152 0.40765 0.9656 0.0
C1250 C 0.88117 0.41217 0.03036 0.0
C1251 C 0.86957 0.42816 0.03272 0.0
C1252 C 0.89946 0.41726 0.0162 0.0
C1253 C 0.90634 0.43885 0.00417 0.0
C1254 C 0.89508 0.45533 0.00661 0.0
C1255 C 0.87675 0.4498 0.02089 0.0
C1256 C 0.91116 0.39928 0.01396 0.0
C1257 C 0.90219 0.47858 0.994 0.0
H1258 H 0.00436 0.48089 0.97658 0.0
H1259 H 0.9243 0.4183 0.93582 0.0
H1260 H 0.96136 0.48917 0.01421 0.0
H1261 H 0.96372 0.46107 0.0218 0.0
H1262 H 0.99223 0.4888 0.01087 0.0
H1263 H 0.87635 0.39896 0.95154 0.0
H1264 H 0.87426 0.39147 0.97595 0.0
H1265 H 0.87168 0.41948 0.96843 0.0
H1266 H 0.87573 0.39543 0.03946 0.0
H1267 H 0.86788 0.46225 0.02267 0.0
H1268 H 0.93322 0.4113 0.01448 0.0
H1269 H 0.90554 0.38934 0.00029 0.0
H1270 H 0.90426 0.38371 0.02478 0.0
H1271 H 0.92406 0.49232 0.99422 0.0
H1272 H 0.89217 0.4899 0.99796 0.0
H1273 H 0.89643 0.47125 0.97965 0.0
C1274 C 0.54579 0.94308 0.13182 0.0
C1275 C 0.53574 0.92712 0.11597 0.0
C1276 C 0.53235 0.93484 0.14868 0.0
C1277 C 0.50879 0.9097 0.14984 0.0
C1278 C 0.49819 0.89386 0.13379 0.0
C1279 C 0.51174 0.90283 0.11705 0.0
C1280 C 0.54403 0.95248 0.16542 0.0
C1281 C 0.47336 0.86673 0.1345 0.0
C1282 C 0.49353 0.87175 0.19473 0.0
C1283 C 0.47166 0.87337 0.20121 0.0
C1284 C 0.50604 0.88391 0.1782 0.0
C1285 C 0.49685 0.89858 0.16808 0.0
C1286 C 0.47551 0.9013 0.17496 0.0
C1287 C 0.46292 0.88836 0.19137 0.0
C1288 C 0.52844 0.88013 0.1712 0.0
C1289 C 0.46561 0.91733 0.16476 0.0
H1290 H 0.56455 0.96169 0.13118 0.0
H1291 H 0.50417 0.89032 0.10489 0.0
H1292 H 0.52836 0.95413 0.17303 0.0
H1293 H 0.55237 0.94351 0.17491 0.0
H1294 H 0.56017 0.97282 0.16175 0.0
H1295 H 0.46666 0.85778 0.12059 0.0
H1296 H 0.47727 0.85309 0.14293 0.0
H1297 H 0.45692 0.86809 0.14118 0.0
H1298 H 0.50027 0.86006 0.20224 0.0
H1299 H 0.44607 0.88974 0.1964 0.0
H1300 H 0.54652 0.89976 0.16884 0.0
H1301 H 0.5227 0.86945 0.15779 0.0
H1302 H 0.53355 0.86858 0.18092 0.0
H1303 H 0.48249 0.9374 0.16142 0.0
H1304 H 0.45067 0.91969 0.17282 0.0
H1305 H 0.45636 0.90733 0.15153 0.0
C1306 C 0.59542 0.4833 0.27999 0.0
C1307 C 0.62047 0.50566 0.27661 0.0
C1308 C 0.58985 0.46968 0.2968 0.0
C1309 C 0.60999 0.47835 0.31042 0.0
C1310 C 0.63502 0.50145 0.30735 0.0
C1311 C 0.63973 0.51519 0.29066 0.0
C1312 C 0.56259 0.44576 0.29986 0.0
C1313 C 0.65715 0.51118 0.32145 0.0
C1314 C 0.59686 0.45692 0.36043 0.0
C1315 C 0.6031 0.4365 0.3607 0.0
C1316 C 0.59746 0.46973 0.3439 0.0
C1317 C 0.60554 0.4626 0.32749 0.0
C1318 C 0.61116 0.44147 0.32766 0.0
C1319 C 0.60942 0.42836 0.34423 0.0
C1320 C 0.59035 0.49147 0.34413 0.0
C1321 C 0.62052 0.43374 0.31056 0.0
H1322 H 0.58021 0.47626 0.26938 0.0
H1323 H 0.65877 0.53303 0.28847 0.0
H1324 H 0.56408 0.42744 0.30057 0.0
H1325 H 0.55438 0.44769 0.31319 0.0
H1326 H 0.54839 0.44322 0.28869 0.0
H1327 H 0.67548 0.52941 0.3169 0.0
H1328 H 0.6506 0.51559 0.33467 0.0
H1329 H 0.66214 0.49533 0.32417 0.0
H1330 H 0.59189 0.46313 0.37319 0.0
H1331 H 0.61456 0.41277 0.3445 0.0
H1332 H 0.57659 0.48869 0.33261 0.0
H1333 H 0.60858 0.51113 0.34223 0.0
H1334 H 0.58087 0.49195 0.35729 0.0
H1335 H 0.60604 0.4289 0.29916 0.0
H1336 H 0.62326 0.41632 0.31287 0.0
H1337 H 0.63977 0.45083 0.30601 0.0
C1338 C 0.4479 0.91477 0.37613 0.0
C1339 C 0.4233 0.91354 0.37831 0.0
C1340 C 0.45497 0.90816 0.35929 0.0
C1341 C 0.43675 0.89959 0.34439 0.0
C1342 C 0.41241 0.89948 0.34624 0.0
C1343 C 0.40627 0.90707 0.36304 0.0
C1344 C 0.48158 0.90959 0.35761 0.0
C1345 C 0.39228 0.89018 0.33074 0.0
C1346 C 0.45426 0.89315 0.29502 0.0
C1347 C 0.44555 0.86584 0.294 0.0
C1348 C 0.4531 0.90488 0.31169 0.0
C1349 C 0.44198 0.88863 0.32741 0.0
C1350 C 0.43393 0.86119 0.32653 0.0
C1351 C 0.43625 0.85024 0.3099 0.0
C1352 C 0.46286 0.93441 0.31228 0.0
C1353 C 0.42139 0.84304 0.34284 0.0
H1354 H 0.46148 0.92049 0.38773 0.0
H1355 H 0.38771 0.9071 0.36437 0.0
H1356 H 0.47856 0.88915 0.35673 0.0
H1357 H 0.49177 0.92016 0.34481 0.0
H1358 H 0.49481 0.91995 0.36955 0.0
H1359 H 0.37451 0.89175 0.33429 0.0
H1360 H 0.40147 0.9021 0.31818 0.0
H1361 H 0.38564 0.86907 0.32731 0.0
H1362 H 0.46156 0.90524 0.28272 0.0
H1363 H 0.42926 0.82905 0.30908 0.0
H1364 H 0.47517 0.94361 0.32478 0.0
H1365 H 0.44561 0.93766 0.31295 0.0
H1366 H 0.4748 0.94484 0.29994 0.0
H1367 H 0.43475 0.85079 0.355 0.0
H1368 H 0.4169 0.82233 0.34004 0.0
H1369 H 0.40256 0.84249 0.34652 0.0
C1370 C 0.53487 0.40033 0.53648 0.0
C1371 C 0.51118 0.40121 0.53714 0.0
C1372 C 0.55021 0.40714 0.52042 0.0
C1373 C 0.54191 0.41553 0.50472 0.0
C1374 C 0.51911 0.41838 0.50572 0.0
C1375 C 0.50371 0.41071 0.52181 0.0
C1376 C 0.57409 0.40331 0.51984 0.0
C1377 C 0.51005 0.42798 0.48943 0.0
C1378 C 0.59046 0.44097 0.4646 0.0
C1379 C 0.58021 0.41808 0.4535 0.0
C1380 C 0.57761 0.44093 0.48101 0.0
C1381 C 0.55458 0.41719 0.48663 0.0
C1382 C 0.54407 0.39418 0.47531 0.0
C1383 C 0.5568 0.39505 0.45878 0.0
C1384 C 0.58886 0.46606 0.49246 0.0
C1385 C 0.5199 0.36826 0.48096 0.0
H1386 H 0.5406 0.39289 0.54829 0.0
H1387 H 0.4854 0.41139 0.5221 0.0
H1388 H 0.5697 0.38623 0.51066 0.0
H1389 H 0.59159 0.42119 0.5141 0.0
H1390 H 0.57942 0.39926 0.53369 0.0
H1391 H 0.49512 0.43371 0.49342 0.0
H1392 H 0.52723 0.44534 0.48289 0.0
H1393 H 0.5009 0.41187 0.47895 0.0
H1394 H 0.60852 0.45883 0.46047 0.0
H1395 H 0.54892 0.37724 0.45031 0.0
H1396 H 0.59694 0.46323 0.50557 0.0
H1397 H 0.57291 0.47053 0.49603 0.0
H1398 H 0.60503 0.48351 0.48521 0.0
H1399 H 0.52381 0.36152 0.4943 0.0
H1400 H 0.51439 0.35216 0.47061 0.0
H1401 H 0.50262 0.37121 0.48296 0.0
C1402 C 0.09697 0.49279 0.69033 0.0
C1403 C 0.11428 0.49512 0.7047 0.0
C1404 C 0.10666 0.50838 0.67437 0.0
C1405 C 0.13437 0.52604 0.67248 0.0
C1406 C 0.15181 0.52895 0.6871 0.0
C1407 C 0.14149 0.51373 0.70309 0.0
C1408 C 0.08737 0.50529 0.65928 0.0
C1409 C 0.18154 0.54719 0.68551 0.0
C1410 C 0.1653 0.54086 0.62496 0.0
C1411 C 0.17176 0.56741 0.62242 0.0
C1412 C 0.15242 0.52695 0.64097 0.0
C1413 C 0.14552 0.53979 0.65469 0.0
C1414 C 0.1509 0.56621 0.65184 0.0
C1415 C 0.16416 0.5798 0.63576 0.0
C1416 C 0.14725 0.49888 0.64354 0.0
C1417 C 0.1434 0.58037 0.66601 0.0
H1418 H 0.07589 0.4785 0.69135 0.0
H1419 H 0.1549 0.51562 0.71417 0.0
H1420 H 0.09122 0.52512 0.65461 0.0
H1421 H 0.09018 0.49515 0.64725 0.0
H1422 H 0.06633 0.49343 0.66381 0.0
H1423 H 0.19224 0.548 0.69842 0.0
H1424 H 0.18932 0.54013 0.6742 0.0
H1425 H 0.18618 0.56769 0.68201 0.0
H1426 H 0.17111 0.53116 0.61469 0.0
H1427 H 0.16902 0.60029 0.63382 0.0
H1428 H 0.12587 0.48511 0.64641 0.0
H1429 H 0.15871 0.49824 0.65559 0.0
H1430 H 0.15294 0.49142 0.63126 0.0
H1431 H 0.12226 0.56767 0.67006 0.0
H1432 H 0.14641 0.59974 0.66089 0.0
H1433 H 0.15567 0.58417 0.6786 0.0
C1434 C 0.56206 0.05155 0.84292 0.0
C1435 C 0.58063 0.06457 0.86494 0.0
C1436 C 0.57024 0.07638 0.8254 0.0
C1437 C 0.59818 0.10972 0.82838 0.0
C1438 C 0.62016 0.1191 0.8481 0.0
C1439 C 0.61372 0.09567 0.86637 0.0
C1440 C 0.55397 0.06925 0.80822 0.0
C1441 C 0.64346 0.14663 0.84953 0.0
C1442 C 0.6292 0.15123 0.78581 0.0
C1443 C 0.61678 0.16664 0.7851 0.0
C1444 C 0.62306 0.13235 0.79979 0.0
C1445 C 0.60449 0.12923 0.81352 0.0
C1446 C 0.59198 0.14478 0.81291 0.0
C1447 C 0.59812 0.16319 0.79861 0.0
C1448 C 0.63614 0.11547 0.79973 0.0
C1449 C 0.5723 0.14218 0.82744 0.0
H1450 H 0.54413 0.03225 0.84203 0.0
H1451 H 0.62546 0.10163 0.87888 0.0
H1452 H 0.54413 0.0814 0.80733 0.0
H1453 H 0.56721 0.07415 0.79611 0.0
H1454 H 0.53872 0.04774 0.80811 0.0
H1455 H 0.65258 0.15019 0.86344 0.0
H1456 H 0.65842 0.14927 0.83904 0.0
H1457 H 0.63697 0.1613 0.84658 0.0
H1458 H 0.64351 0.15371 0.77531 0.0
H1459 H 0.58853 0.17513 0.79815 0.0
H1460 H 0.62065 0.09402 0.79944 0.0
H1461 H 0.6479 0.11904 0.81255 0.0
H1462 H 0.64954 0.11975 0.78775 0.0
H1463 H 0.55515 0.12151 0.82746 0.0
H1464 H 0.5647 0.15614 0.82518 0.0
H1465 H 0.58188 0.14622 0.84122 0.0
C1466 C 0.52069 0.61593 0.04288 0.0
C1467 C 0.54083 0.59964 0.03854 0.0
C1468 C 0.5004 0.61473 0.02372 0.0
C1469 C 0.50433 0.60345 0.00137 0.0
C1470 C 0.52964 0.59477 0.99686 0.0
C1471 C 0.55093 0.5953 0.0151 0.0
C1472 C 0.48056 0.6236 0.02627 0.0
C1473 C 0.53297 0.5871 0.97787 0.0
C1474 C 0.45012 0.58662 0.96595 0.0
C1475 C 0.46108 0.61035 0.95581 0.0
C1476 C 0.4641 0.58395 0.98086 0.0
C1477 C 0.48938 0.60553 0.98571 0.0
C1478 C 0.50047 0.62948 0.97557 0.0
C1479 C 0.48625 0.63157 0.96069 0.0
C1480 C 0.45193 0.55814 0.99142 0.0
C1481 C 0.52727 0.65303 0.98057 0.0
H1482 H 0.51729 0.62077 0.05664 0.0
H1483 H 0.56453 0.5879 0.01295 0.0
H1484 H 0.48579 0.64093 0.01723 0.0
H1485 H 0.4606 0.60732 0.02199 0.0
H1486 H 0.48014 0.62915 0.04084 0.0
H1487 H 0.54779 0.58035 0.97776 0.0
H1488 H 0.51347 0.57103 0.97267 0.0
H1489 H 0.53962 0.60448 0.96862 0.0
H1490 H 0.43068 0.57016 0.96222 0.0
H1491 H 0.4948 0.65001 0.95297 0.0
H1492 H 0.44965 0.56198 0.00609 0.0
H1493 H 0.46541 0.54974 0.99094 0.0
H1494 H 0.43215 0.54311 0.98585 0.0
H1495 H 0.52695 0.65924 0.99499 0.0
H1496 H 0.53299 0.67038 0.9714 0.0
H1497 H 0.54282 0.64727 0.97973 0.0
C1498 C 0.92933 0.46896 0.19707 0.0
C1499 C 0.95307 0.49295 0.19372 0.0
C1500 C 0.90997 0.45665 0.18322 0.0
C1501 C 0.91486 0.46808 0.16545 0.0
C1502 C 0.93899 0.49197 0.16188 0.0
C1503 C 0.95769 0.50417 0.17609 0.0
C1504 C 0.88427 0.43146 0.18761 0.0
C1505 C 0.94518 0.50449 0.143 0.0
C1506 C 0.87683 0.42445 0.12451 0.0
C1507 C 0.85898 0.43342 0.1207 0.0
C1508 C 0.89508 0.43544 0.13915 0.0
C1509 C 0.89477 0.45519 0.15052 0.0
C1510 C 0.87596 0.46344 0.14715 0.0
C1511 C 0.85857 0.45276 0.13208 0.0
C1512 C 0.91532 0.42667 0.142 0.0
C1513 C 0.8745 0.48388 0.15927 0.0
H1514 H 0.9258 0.45979 0.21053 0.0
H1515 H 0.97623 0.52242 0.17339 0.0
H1516 H 0.86709 0.43422 0.18446 0.0
H1517 H 0.88221 0.41481 0.17887 0.0
H1518 H 0.88316 0.42564 0.20229 0.0
H1519 H 0.96519 0.52266 0.14239 0.0
H1520 H 0.94424 0.48993 0.13264 0.0
H1521 H 0.93008 0.50996 0.13902 0.0
H1522 H 0.87726 0.40965 0.11559 0.0
H1523 H 0.8446 0.45955 0.12917 0.0
H1524 H 0.91413 0.41934 0.15626 0.0
H1525 H 0.93568 0.44394 0.14016 0.0
H1526 H 0.91248 0.41066 0.13224 0.0
H1527 H 0.87285 0.47792 0.17394 0.0
H1528 H 0.85731 0.48647 0.15571 0.0
H1529 H 0.89304 0.50342 0.15789 0.0
loop_
_geom_bond_atom_site_label_1
_geom_bond_atom_site_label_2
_geom_bond_distance
_geom_bond_site_symmetry_2
_ccdc_geom_bond_type
C0 C1 1.560 . S
C0 H61 0.959 . S
C0 H62 0.959 . S
C0 H63 0.960 . S
C1 C0 1.560 . S
C1 O56 1.426 . S
C1 H60 0.980 . S
C2 C3 1.407 . S
C2 C7 1.418 . S
C2 O56 1.334 . S
C3 C2 1.407 . S
C3 C4 1.360 . S
C3 H64 0.929 . S
C4 C3 1.360 . S
C4 C5 1.401 . S
C4 C8 1.527 . S
C5 C4 1.401 . S
C5 C6 1.405 . S
C5 C38 1.587 . S
C6 C5 1.405 . S
C6 C7 1.332 . S
C6 C9 1.496 . S
C7 C2 1.418 . S
C7 C6 1.332 . S
C7 H65 0.929 . S
C8 C4 1.527 . S
C8 H66 0.959 . S
C8 H67 0.961 . S
C8 H68 0.961 . S
C9 C6 1.496 . S
C9 H69 0.960 . S
C9 H70 0.960 . S
C9 H71 0.961 . S
C10 C11 1.517 . S
C10 H73 0.961 . S
C10 H74 0.960 . S
C10 H75 0.959 . S
C11 C10 1.517 . S
C11 O59 1.468 . S
C11 H72 0.980 . S
C12 C13 1.349 . S
C12 C17 1.367 . S
C12 O59 1.408 . S
C13 C12 1.349 . S
C13 C14 1.407 1_655 S
C13 H76 0.930 . S
C14 C13 1.407 1_455 S
C14 C15 1.449 . S
C14 C18 1.535 . S
C15 C14 1.449 . S
C15 C16 1.384 . S
C15 C40 1.553 . S
C16 C15 1.384 . S
C16 C17 1.363 1_455 S
C16 C19 1.451 . S
C17 C12 1.367 . S
C17 C16 1.363 1_655 S
C17 H77 0.931 . S
C18 C14 1.535 . S
C18 H78 0.959 . S
C18 H79 0.961 . S
C18 H80 0.959 1_455 S
C19 C16 1.451 . S
C19 H81 0.960 . S
C19 H82 0.960 . S
C19 H83 0.959 . S
C20 C21 1.309 . S
C20 C25 1.304 . S
C20 O58 1.435 . S
C21 C20 1.309 . S
C21 C22 1.476 . S
C21 H85 0.930 . S
C22 C21 1.476 . S
C22 C23 1.400 . S
C22 C26 1.567 . S
C23 C22 1.400 . S
C23 C24 1.373 . S
C23 C45 1.432 . S
C24 C23 1.373 . S
C24 C25 1.339 . S
C24 C27 1.530 . S
C25 C20 1.304 . S
C25 C24 1.339 . S
C25 H86 0.930 . S
C26 C22 1.567 . S
C26 H87 0.961 . S
C26 H88 0.960 . S
C26 H89 0.958 . S
C27 C24 1.530 . S
C27 H90 0.961 . S
C27 H91 0.960 . S
C27 H92 0.960 . S
C28 C29 1.530 . S
C28 H94 0.961 . S
C28 H95 0.961 . S
C28 H96 0.959 . S
C29 C28 1.530 . S
C29 O57 1.412 . S
C29 H93 0.980 . S
C30 C31 1.288 . S
C30 C35 1.377 . S
C30 O57 1.393 . S
C31 C30 1.288 . S
C31 C32 1.369 . S
C31 H97 0.932 . S
C32 C31 1.369 . S
C32 C33 1.398 . S
C32 C36 1.527 . S
C33 C32 1.398 . S
C33 C34 1.380 . S
C33 C47 1.497 . S
C34 C33 1.380 . S
C34 C35 1.383 . S
C34 C37 1.603 . S
C35 C30 1.377 . S
C35 C34 1.383 . S
C35 H98 0.929 . S
C36 C32 1.527 . S
C36 H99 0.961 . S
C36 H100 0.959 . S
C36 H101 0.959 . S
C37 C34 1.603 . S
C37 H102 0.960 . S
C37 H103 0.962 . S
C37 H104 0.961 . S
C38 C5 1.587 . S
C38 C39 1.360 . S
C38 C51 1.412 . S
C39 C38 1.360 . S
C39 C40 1.365 . S
C39 H105 0.929 . S
C40 C15 1.553 . S
C40 C39 1.365 . S
C40 C41 1.404 . S
C41 C40 1.404 . S
C41 C42 1.395 1_455 S
C41 C52 1.451 . S
C42 C41 1.395 1_655 S
C42 C43 1.322 . S
C42 H106 0.930 . S
C43 C42 1.322 . S
C43 C44 1.459 . S
C43 H107 0.929 . S
C44 C43 1.459 . S
C44 C45 1.445 . S
C44 C53 1.395 1_655 S
C45 C23 1.432 . S
C45 C44 1.445 . S
C45 C46 1.370 . S
C46 C45 1.370 . S
C46 C47 1.438 1_655 S
C46 H108 0.930 . S
C47 C33 1.497 . S
C47 C46 1.438 1_455 S
C47 C48 1.360 . S
C48 C47 1.360 . S
C48 C49 1.401 . S
C48 C53 1.446 . S
C49 C48 1.401 . S
C49 C50 1.347 . S
C49 H109 0.929 . S
C50 C49 1.347 . S
C50 C51 1.455 . S
C50 H110 0.930 . S
C51 C38 1.412 . S
C51 C50 1.455 . S
C51 C52 1.331 . S
C52 C41 1.451 . S
C52 C51 1.331 . S
C52 C53 1.497 . S
C53 C44 1.395 1_455 S
C53 C48 1.446 . S
C53 C52 1.497 . S
C54 C55 1.582 . S
C54 H111 0.962 . S
C54 H112 0.959 . S
C54 H113 0.958 . S
C55 C54 1.582 . S
C55 O58 1.458 . S
C55 H84 0.980 . S
O56 C1 1.426 . S
O56 C2 1.334 . S
O57 C29 1.412 . S
O57 C30 1.393 . S
O58 C20 1.435 . S
O58 C55 1.458 . S
O59 C11 1.468 . S
O59 C12 1.408 . S
H60 C1 0.980 . S
H61 C0 0.959 . S
H62 C0 0.959 . S
H63 C0 0.960 . S
H64 C3 0.929 . S
H65 C7 0.929 . S
H66 C8 0.959 . S
H67 C8 0.961 . S
H68 C8 0.961 . S
H69 C9 0.960 . S
H70 C9 0.960 . S
H71 C9 0.961 . S
H72 C11 0.980 . S
H73 C10 0.961 . S
H74 C10 0.960 . S
H75 C10 0.959 . S
H76 C13 0.930 . S
H77 C17 0.931 . S
H78 C18 0.959 . S
H79 C18 0.961 . S
H80 C18 0.959 1_655 S
H81 C19 0.960 . S
H82 C19 0.960 . S
H83 C19 0.959 . S
H84 C55 0.980 . S
H85 C21 0.930 . S
H86 C25 0.930 . S
H87 C26 0.961 . S
H88 C26 0.960 . S
H89 C26 0.958 . S
H90 C27 0.961 . S
H91 C27 0.960 . S
H92 C27 0.960 . S
H93 C29 0.980 . S
H94 C28 0.961 . S
H95 C28 0.961 . S
H96 C28 0.959 . S
H97 C31 0.932 . S
H98 C35 0.929 . S
H99 C36 0.961 . S
H100 C36 0.959 . S
H101 C36 0.959 . S
H102 C37 0.960 . S
H103 C37 0.962 . S
H104 C37 0.961 . S
H105 C39 0.929 . S
H106 C42 0.930 . S
H107 C43 0.929 . S
H108 C46 0.930 . S
H109 C49 0.929 . S
H110 C50 0.930 . S
H111 C54 0.962 . S
H112 C54 0.959 . S
H113 C54 0.958 . S
C114 C115 1.560 . S
C114 H175 0.959 . S
C114 H176 0.959 . S
C114 H177 0.960 . S
C115 C114 1.560 . S
C115 O170 1.426 . S
C115 H174 0.980 . S
C116 C117 1.407 . S
C116 C121 1.418 . S
C116 O170 1.334 . S
C117 C116 1.407 . S
C117 C118 1.360 . S
C117 H178 0.929 . S
C118 C117 1.360 . S
C118 C119 1.401 . S
C118 C122 1.527 . S
C119 C118 1.401 . S
C119 C120 1.405 . S
C119 C152 1.587 . S
C120 C119 1.405 . S
C120 C121 1.332 . S
C120 C123 1.496 . S
C121 C116 1.418 . S
C121 C120 1.332 . S
C121 H179 0.929 . S
C122 C118 1.527 . S
C122 H180 0.959 . S
C122 H181 0.961 . S
C122 H182 0.961 . S
C123 C120 1.496 . S
C123 H183 0.960 . S
C123 H184 0.960 . S
C123 H185 0.961 . S
C124 C125 1.517 . S
C124 H187 0.961 . S
C124 H188 0.960 . S
C124 H189 0.959 . S
C125 C124 1.517 . S
C125 O173 1.468 . S
C125 H186 0.980 . S
C126 C127 1.349 . S
C126 C131 1.367 . S
C126 O173 1.408 . S
C127 C126 1.349 . S
C127 C128 1.407 . S
C127 H190 0.930 . S
C128 C127 1.407 . S
C128 C129 1.449 . S
C128 C132 1.535 . S
C129 C128 1.449 . S
C129 C130 1.384 . S
C129 C154 1.553 . S
C130 C129 1.384 . S
C130 C131 1.364 . S
C130 C133 1.450 . S
C131 C126 1.367 . S
C131 C130 1.364 . S
C131 H191 0.931 . S
C132 C128 1.535 . S
C132 H192 0.959 . S
C132 H193 0.961 . S
C132 H194 0.959 . S
C133 C130 1.450 . S
C133 H195 0.960 . S
C133 H196 0.960 . S
C133 H197 0.960 . S
C134 C135 1.309 . S
C134 C139 1.304 . S
C134 O172 1.435 . S
C135 C134 1.309 . S
C135 C136 1.476 . S
C135 H199 0.930 . S
C136 C135 1.476 . S
C136 C137 1.400 . S
C136 C140 1.567 . S
C137 C136 1.400 . S
C137 C138 1.373 . S
C137 C159 1.432 . S
C138 C137 1.373 . S
C138 C139 1.339 . S
C138 C141 1.530 . S
C139 C134 1.304 . S
C139 C138 1.339 . S
C139 H200 0.930 . S
C140 C136 1.567 . S
C140 H201 0.961 . S
C140 H202 0.960 . S
C140 H203 0.958 . S
C141 C138 1.530 . S
C141 H204 0.961 . S
C141 H205 0.960 . S
C141 H206 0.960 . S
C142 C143 1.530 . S
C142 H208 0.961 . S
C142 H209 0.961 . S
C142 H210 0.959 . S
C143 C142 1.530 . S
C143 O171 1.412 . S
C143 H207 0.980 . S
C144 C145 1.288 . S
C144 C149 1.377 . S
C144 O171 1.393 . S
C145 C144 1.288 . S
C145 C146 1.381 . S
C145 H211 0.932 . S
C146 C145 1.381 . S
C146 C147 1.413 1_565 S
C146 C150 1.500 1_565 S
C147 C146 1.413 1_545 S
C147 C148 1.380 1_545 S
C147 C161 1.497 . S
C148 C147 1.380 1_565 S
C148 C149 1.383 . S
C148 C151 1.603 . S
C149 C144 1.377 . S
C149 C148 1.383 . S
C149 H212 0.929 . S
C150 C146 1.500 1_545 S
C150 H213 0.961 . S
C150 H214 0.959 . S
C150 H215 0.959 . S
C151 C148 1.603 . S
C151 H216 0.960 . S
C151 H217 0.962 1_565 S
C151 H218 0.961 . S
C152 C119 1.587 . S
C152 C153 1.360 . S
C152 C165 1.412 . S
C153 C152 1.360 . S
C153 C154 1.365 1_565 S
C153 H219 0.929 . S
C154 C129 1.553 . S
C154 C153 1.365 1_545 S
C154 C155 1.404 . S
C155 C154 1.404 . S
C155 C156 1.395 . S
C155 C166 1.451 . S
C156 C155 1.395 . S
C156 C157 1.322 . S
C156 H220 0.930 . S
C157 C156 1.322 . S
C157 C158 1.459 . S
C157 H221 0.929 . S
C158 C157 1.459 . S
C158 C159 1.445 . S
C158 C167 1.395 . S
C159 C137 1.432 . S
C159 C158 1.445 . S
C159 C160 1.370 . S
C160 C159 1.370 . S
C160 C161 1.438 . S
C160 H222 0.930 . S
C161 C147 1.497 . S
C161 C160 1.438 . S
C161 C162 1.360 . S
C162 C161 1.360 . S
C162 C163 1.401 1_545 S
C162 C167 1.446 . S
C163 C162 1.401 1_565 S
C163 C164 1.347 . S
C163 H223 0.929 . S
C164 C163 1.347 . S
C164 C165 1.455 . S
C164 H224 0.930 . S
C165 C152 1.412 . S
C165 C164 1.455 . S
C165 C166 1.331 1_565 S
C166 C155 1.451 . S
C166 C165 1.331 1_545 S
C166 C167 1.497 . S
C167 C158 1.395 . S
C167 C162 1.446 . S
C167 C166 1.497 . S
C168 C169 1.582 . S
C168 H225 0.962 . S
C168 H226 0.959 . S
C168 H227 0.958 . S
C169 C168 1.582 . S
C169 O172 1.458 . S
C169 H198 0.980 . S
O170 C115 1.426 . S
O170 C116 1.334 . S
O171 C143 1.412 . S
O171 C144 1.393 . S
O172 C134 1.435 . S
O172 C169 1.458 . S
O173 C125 1.468 . S
O173 C126 1.408 . S
H174 C115 0.980 . S
H175 C114 0.959 . S
H176 C114 0.959 . S
H177 C114 0.960 . S
H178 C117 0.929 . S
H179 C121 0.929 . S
H180 C122 0.959 . S
H181 C122 0.961 . S
H182 C122 0.961 . S
H183 C123 0.960 . S
H184 C123 0.960 . S
H185 C123 0.961 . S
H186 C125 0.980 . S
H187 C124 0.961 . S
H188 C124 0.960 . S
H189 C124 0.959 . S
H190 C127 0.930 . S
H191 C131 0.931 . S
H192 C132 0.959 . S
H193 C132 0.961 . S
H194 C132 0.959 . S
H195 C133 0.960 . S
H196 C133 0.960 . S
H197 C133 0.960 . S
H198 C169 0.980 . S
H199 C135 0.930 . S
H200 C139 0.930 . S
H201 C140 0.961 . S
H202 C140 0.960 . S
H203 C140 0.958 . S
H204 C141 0.961 . S
H205 C141 0.960 . S
H206 C141 0.960 . S
H207 C143 0.980 . S
H208 C142 0.961 . S
H209 C142 0.961 . S
H210 C142 0.959 . S
H211 C145 0.932 . S
H212 C149 0.929 . S
H213 C150 0.961 . S
H214 C150 0.959 . S
H215 C150 0.959 . S
H216 C151 0.960 . S
H217 C151 0.962 1_545 S
H218 C151 0.961 . S
H219 C153 0.929 . S
H220 C156 0.930 . S
H221 C157 0.929 . S
H222 C160 0.930 . S
H223 C163 0.929 . S
H224 C164 0.930 . S
H225 C168 0.962 . S
H226 C168 0.959 . S
H227 C168 0.958 . S
C228 C229 1.560 . S
C228 H289 0.959 . S
C228 H290 0.959 . S
C228 H291 0.960 . S
C229 C228 1.560 . S
C229 O284 1.426 . S
C229 H288 0.980 . S
C230 C231 1.407 . S
C230 C235 1.418 . S
C230 O284 1.334 . S
C231 C230 1.407 . S
C231 C232 1.360 . S
C231 H292 0.929 . S
C232 C231 1.360 . S
C232 C233 1.401 . S
C232 C236 1.527 . S
C233 C232 1.401 . S
C233 C234 1.405 . S
C233 C266 1.587 . S
C234 C233 1.405 . S
C234 C235 1.332 . S
C234 C237 1.496 . S
C235 C230 1.418 . S
C235 C234 1.332 . S
C235 H293 0.929 . S
C236 C232 1.527 . S
C236 H294 0.959 . S
C236 H295 0.961 . S
C236 H296 0.961 . S
C237 C234 1.496 . S
C237 H297 0.960 . S
C237 H298 0.960 . S
C237 H299 0.961 . S
C238 C239 1.517 . S
C238 H301 0.961 . S
C238 H302 0.960 . S
C238 H303 0.959 . S
C239 C238 1.517 . S
C239 O287 1.468 . S
C239 H300 0.980 . S
C240 C241 1.349 . S
C240 C245 1.367 . S
C240 O287 1.408 . S
C241 C240 1.349 . S
C241 C242 1.407 . S
C241 H304 0.930 . S
C242 C241 1.407 . S
C242 C243 1.449 . S
C242 C246 1.535 . S
C243 C242 1.449 . S
C243 C244 1.384 . S
C243 C268 1.553 . S
C244 C243 1.384 . S
C244 C245 1.364 . S
C244 C247 1.450 . S
C245 C240 1.367 . S
C245 C244 1.364 . S
C245 H305 0.931 . S
C246 C242 1.535 . S
C246 H306 0.959 . S
C246 H307 0.961 . S
C246 H308 0.959 . S
C247 C244 1.450 . S
C247 H309 0.960 . S
C247 H310 0.960 . S
C247 H311 0.960 . S
C248 C249 1.309 . S
C248 C253 1.304 . S
C248 O286 1.435 . S
C249 C248 1.309 . S
C249 C250 1.476 . S
C249 H313 0.930 . S
C250 C249 1.476 . S
C250 C251 1.400 . S
C250 C254 1.567 . S
C251 C250 1.400 . S
C251 C252 1.373 . S
C251 C273 1.432 . S
C252 C251 1.373 . S
C252 C253 1.339 . S
C252 C255 1.530 . S
C253 C248 1.304 . S
C253 C252 1.339 . S
C253 H314 0.930 . S
C254 C250 1.567 . S
C254 H315 0.961 . S
C254 H316 0.960 . S
C254 H317 0.958 . S
C255 C252 1.530 . S
C255 H318 0.961 . S
C255 H319 0.960 . S
C255 H320 0.960 . S
C256 C257 1.530 . S
C256 H322 0.961 . S
C256 H323 0.961 . S
C256 H324 0.959 . S
C257 C256 1.530 . S
C257 O285 1.412 . S
C257 H321 0.980 . S
C258 C259 1.288 . S
C258 C263 1.377 . S
C258 O285 1.393 . S
C259 C258 1.288 . S
C259 C260 1.369 . S
C259 H325 0.932 . S
C260 C259 1.369 . S
C260 C261 1.398 . S
C260 C264 1.527 . S
C261 C260 1.398 . S
C261 C262 1.380 . S
C261 C275 1.497 . S
C262 C261 1.380 . S
C262 C263 1.383 . S
C262 C265 1.603 . S
C263 C258 1.377 . S
C263 C262 1.383 . S
C263 H326 0.929 . S
C264 C260 1.527 . S
C264 H327 0.961 . S
C264 H328 0.959 . S
C264 H329 0.959 . S
C265 C262 1.603 . S
C265 H330 0.960 . S
C265 H331 0.962 . S
C265 H332 0.961 . S
C266 C233 1.587 . S
C266 C267 1.360 . S
C266 C279 1.412 . S
C267 C266 1.360 . S
C267 C268 1.365 . S
C267 H333 0.929 . S
C268 C243 1.553 . S
C268 C267 1.365 . S
C268 C269 1.404 . S
C269 C268 1.404 . S
C269 C270 1.395 . S
C269 C280 1.451 . S
C270 C269 1.395 . S
C270 C271 1.322 . S
C270 H334 0.930 . S
C271 C270 1.322 . S
C271 C272 1.459 . S
C271 H335 0.929 . S
C272 C271 1.459 . S
C272 C273 1.445 . S
C272 C281 1.395 . S
C273 C251 1.432 . S
C273 C272 1.445 . S
C273 C274 1.370 . S
C274 C273 1.370 . S
C274 C275 1.438 . S
C274 H336 0.930 . S
C275 C261 1.497 . S
C275 C274 1.438 . S
C275 C276 1.360 . S
C276 C275 1.360 . S
C276 C277 1.401 . S
C276 C281 1.446 . S
C277 C276 1.401 . S
C277 C278 1.347 . S
C277 H337 0.929 . S
C278 C277 1.347 . S
C278 C279 1.455 . S
C278 H338 0.930 . S
C279 C266 1.412 . S
C279 C278 1.455 . S
C279 C280 1.331 . S
C280 C269 1.451 . S
C280 C279 1.331 . S
C280 C281 1.497 . S
C281 C272 1.395 . S
C281 C276 1.446 . S
C281 C280 1.497 . S
C282 C283 1.582 . S
C282 H339 0.962 . S
C282 H340 0.959 . S
C282 H341 0.958 . S
C283 C282 1.582 . S
C283 O286 1.458 . S
C283 H312 0.980 . S
O284 C229 1.426 . S
O284 C230 1.334 . S
O285 C257 1.412 . S
O285 C258 1.393 . S
O286 C248 1.435 . S
O286 C283 1.458 . S
O287 C239 1.468 . S
O287 C240 1.408 . S
H288 C229 0.980 . S
H289 C228 0.959 . S
H290 C228 0.959 . S
H291 C228 0.960 . S
H292 C231 0.929 . S
H293 C235 0.929 . S
H294 C236 0.959 . S
H295 C236 0.961 . S
H296 C236 0.961 . S
H297 C237 0.960 . S
H298 C237 0.960 . S
H299 C237 0.961 . S
H300 C239 0.980 . S
H301 C238 0.961 . S
H302 C238 0.960 . S
H303 C238 0.959 . S
H304 C241 0.930 . S
H305 C245 0.931 . S
H306 C246 0.959 . S
H307 C246 0.961 . S
H308 C246 0.959 . S
H309 C247 0.960 . S
H310 C247 0.960 . S
H311 C247 0.960 . S
H312 C283 0.980 . S
H313 C249 0.930 . S
H314 C253 0.930 . S
H315 C254 0.961 . S
H316 C254 0.960 . S
H317 C254 0.958 . S
H318 C255 0.961 . S
H319 C255 0.960 . S
H320 C255 0.960 . S
H321 C257 0.980 . S
H322 C256 0.961 . S
H323 C256 0.961 . S
H324 C256 0.959 . S
H325 C259 0.932 . S
H326 C263 0.929 . S
H327 C264 0.961 . S
H328 C264 0.959 . S
H329 C264 0.959 . S
H330 C265 0.960 . S
H331 C265 0.962 . S
H332 C265 0.961 . S
H333 C267 0.929 . S
H334 C270 0.930 . S
H335 C271 0.929 . S
H336 C274 0.930 . S
H337 C277 0.929 . S
H338 C278 0.930 . S
H339 C282 0.962 . S
H340 C282 0.959 . S
H341 C282 0.958 . S
C342 C343 1.560 . S
C342 H403 0.959 . S
C342 H404 0.959 . S
C342 H405 0.960 . S
C343 C342 1.560 . S
C343 O398 1.426 . S
C343 H402 0.980 . S
C344 C345 1.407 . S
C344 C349 1.418 . S
C344 O398 1.334 . S
C345 C344 1.407 . S
C345 C346 1.360 . S
C345 H406 0.929 . S
C346 C345 1.360 . S
C346 C347 1.401 . S
C346 C350 1.527 . S
C347 C346 1.401 . S
C347 C348 1.405 . S
C347 C380 1.587 . S
C348 C347 1.405 . S
C348 C349 1.332 . S
C348 C351 1.496 . S
C349 C344 1.418 . S
C349 C348 1.332 . S
C349 H407 0.929 . S
C350 C346 1.527 . S
C350 H408 0.959 . S
C350 H409 0.961 . S
C350 H410 0.961 . S
C351 C348 1.496 . S
C351 H411 0.960 . S
C351 H412 0.960 . S
C351 H413 0.961 . S
C352 C353 1.517 . S
C352 H415 0.961 . S
C352 H416 0.960 . S
C352 H417 0.959 . S
C353 C352 1.517 . S
C353 O401 1.468 . S
C353 H414 0.980 . S
C354 C355 1.349 . S
C354 C359 1.367 . S
C354 O401 1.408 . S
C355 C354 1.349 . S
C355 C356 1.407 1_655 S
C355 H418 0.930 . S
C356 C355 1.407 1_455 S
C356 C357 1.449 . S
C356 C360 1.535 . S
C357 C356 1.449 . S
C357 C358 1.384 1_455 S
C357 C382 1.553 . S
C358 C357 1.384 1_655 S
C358 C359 1.364 . S
C358 C361 1.450 1_655 S
C359 C354 1.367 . S
C359 C358 1.364 . S
C359 H419 0.931 . S
C360 C356 1.535 . S
C360 H420 0.959 . S
C360 H421 0.961 . S
C360 H422 0.959 1_455 S
C361 C358 1.450 1_455 S
C361 H423 0.960 . S
C361 H424 0.960 . S
C361 H425 0.958 1_455 S
C362 C363 1.309 . S
C362 C367 1.304 . S
C362 O400 1.435 . S
C363 C362 1.309 . S
C363 C364 1.476 . S
C363 H427 0.930 . S
C364 C363 1.476 . S
C364 C365 1.400 . S
C364 C368 1.567 . S
C365 C364 1.400 . S
C365 C366 1.373 . S
C365 C387 1.432 . S
C366 C365 1.373 . S
C366 C367 1.339 . S
C366 C369 1.530 . S
C367 C362 1.304 . S
C367 C366 1.339 . S
C367 H428 0.930 . S
C368 C364 1.567 . S
C368 H429 0.961 . S
C368 H430 0.960 . S
C368 H431 0.958 . S
C369 C366 1.530 . S
C369 H432 0.961 . S
C369 H433 0.960 . S
C369 H434 0.960 . S
C370 C371 1.530 . S
C370 H436 0.961 . S
C370 H437 0.961 . S
C370 H438 0.959 . S
C371 C370 1.530 . S
C371 O399 1.412 . S
C371 H435 0.980 . S
C372 C373 1.288 . S
C372 C377 1.377 . S
C372 O399 1.393 . S
C373 C372 1.288 . S
C373 C374 1.369 . S
C373 H439 0.932 . S
C374 C373 1.369 . S
C374 C375 1.398 . S
C374 C378 1.527 . S
C375 C374 1.398 . S
C375 C376 1.380 . S
C375 C389 1.497 . S
C376 C375 1.380 . S
C376 C377 1.383 . S
C376 C379 1.603 . S
C377 C372 1.377 . S
C377 C376 1.383 . S
C377 H440 0.929 . S
C378 C374 1.527 . S
C378 H441 0.961 . S
C378 H442 0.959 . S
C378 H443 0.959 . S
C379 C376 1.603 . S
C379 H444 0.960 . S
C379 H445 0.962 . S
C379 H446 0.961 . S
C380 C347 1.587 . S
C380 C381 1.360 . S
C380 C393 1.412 . S
C381 C380 1.360 . S
C381 C382 1.365 . S
C381 H447 0.929 . S
C382 C357 1.553 . S
C382 C381 1.365 . S
C382 C383 1.404 . S
C383 C382 1.404 . S
C383 C384 1.395 1_455 S
C383 C394 1.451 . S
C384 C383 1.395 1_655 S
C384 C385 1.322 . S
C384 H448 0.930 . S
C385 C384 1.322 . S
C385 C386 1.459 . S
C385 H449 0.929 . S
C386 C385 1.459 . S
C386 C387 1.445 . S
C386 C395 1.395 1_655 S
C387 C365 1.432 . S
C387 C386 1.445 . S
C387 C388 1.370 . S
C388 C387 1.370 . S
C388 C389 1.438 1_655 S
C388 H450 0.930 . S
C389 C375 1.497 . S
C389 C388 1.438 1_455 S
C389 C390 1.360 . S
C390 C389 1.360 . S
C390 C391 1.401 . S
C390 C395 1.446 . S
C391 C390 1.401 . S
C391 C392 1.347 . S
C391 H451 0.929 . S
C392 C391 1.347 . S
C392 C393 1.455 . S
C392 H452 0.930 . S
C393 C380 1.412 . S
C393 C392 1.455 . S
C393 C394 1.331 . S
C394 C383 1.451 . S
C394 C393 1.331 . S
C394 C395 1.497 . S
C395 C386 1.395 1_455 S
C395 C390 1.446 . S
C395 C394 1.497 . S
C396 C397 1.582 . S
C396 H453 0.962 . S
C396 H454 0.959 . S
C396 H455 0.958 . S
C397 C396 1.582 . S
C397 O400 1.458 . S
C397 H426 0.980 . S
O398 C343 1.426 . S
O398 C344 1.334 . S
O399 C371 1.412 . S
O399 C372 1.393 . S
O400 C362 1.435 . S
O400 C397 1.458 . S
O401 C353 1.468 . S
O401 C354 1.408 . S
H402 C343 0.980 . S
H403 C342 0.959 . S
H404 C342 0.959 . S
H405 C342 0.960 . S
H406 C345 0.929 . S
H407 C349 0.929 . S
H408 C350 0.959 . S
H409 C350 0.961 . S
H410 C350 0.961 . S
H411 C351 0.960 . S
H412 C351 0.960 . S
H413 C351 0.961 . S
H414 C353 0.980 . S
H415 C352 0.961 . S
H416 C352 0.960 . S
H417 C352 0.959 . S
H418 C355 0.930 . S
H419 C359 0.931 . S
H420 C360 0.959 . S
H421 C360 0.961 . S
H422 C360 0.959 1_655 S
H423 C361 0.960 . S
H424 C361 0.960 . S
H425 C361 0.958 1_655 S
H426 C397 0.980 . S
H427 C363 0.930 . S
H428 C367 0.930 . S
H429 C368 0.961 . S
H430 C368 0.960 . S
H431 C368 0.958 . S
H432 C369 0.961 . S
H433 C369 0.960 . S
H434 C369 0.960 . S
H435 C371 0.980 . S
H436 C370 0.961 . S
H437 C370 0.961 . S
H438 C370 0.959 . S
H439 C373 0.932 . S
H440 C377 0.929 . S
H441 C378 0.961 . S
H442 C378 0.959 . S
H443 C378 0.959 . S
H444 C379 0.960 . S
H445 C379 0.962 . S
H446 C379 0.961 . S
H447 C381 0.929 . S
H448 C384 0.930 . S
H449 C385 0.929 . S
H450 C388 0.930 . S
H451 C391 0.929 . S
H452 C392 0.930 . S
H453 C396 0.962 . S
H454 C396 0.959 . S
H455 C396 0.958 . S
C456 C457 1.560 . S
C456 H517 0.959 . S
C456 H518 0.959 . S
C456 H519 0.960 . S
C457 C456 1.560 . S
C457 O512 1.426 . S
C457 H516 0.980 . S
C458 C459 1.407 . S
C458 C463 1.418 . S
C458 O512 1.334 . S
C459 C458 1.407 . S
C459 C460 1.360 . S
C459 H520 0.929 . S
C460 C459 1.360 . S
C460 C461 1.401 . S
C460 C464 1.527 . S
C461 C460 1.401 . S
C461 C462 1.405 . S
C461 C494 1.587 . S
C462 C461 1.405 . S
C462 C463 1.332 . S
C462 C465 1.496 . S
C463 C458 1.418 . S
C463 C462 1.332 . S
C463 H521 0.929 . S
C464 C460 1.527 . S
C464 H522 0.959 . S
C464 H523 0.961 . S
C464 H524 0.961 . S
C465 C462 1.496 . S
C465 H525 0.960 . S
C465 H526 0.960 . S
C465 H527 0.961 . S
C466 C467 1.517 . S
C466 H529 0.961 . S
C466 H530 0.960 . S
C466 H531 0.959 . S
C467 C466 1.517 . S
C467 O515 1.468 . S
C467 H528 0.980 . S
C468 C469 1.349 . S
C468 C473 1.367 . S
C468 O515 1.408 . S
C469 C468 1.349 . S
C469 C470 1.407 . S
C469 H532 0.930 . S
C470 C469 1.407 . S
C470 C471 1.449 . S
C470 C474 1.535 . S
C471 C470 1.449 . S
C471 C472 1.384 . S
C471 C496 1.553 . S
C472 C471 1.384 . S
C472 C473 1.364 . S
C472 C475 1.450 . S
C473 C468 1.367 . S
C473 C472 1.364 . S
C473 H533 0.931 . S
C474 C470 1.535 . S
C474 H534 0.959 . S
C474 H535 0.961 . S
C474 H536 0.959 . S
C475 C472 1.450 . S
C475 H537 0.960 . S
C475 H538 0.960 . S
C475 H539 0.960 . S
C476 C477 1.309 . S
C476 C481 1.304 . S
C476 O514 1.435 . S
C477 C476 1.309 . S
C477 C478 1.476 . S
C477 H541 0.930 . S
C478 C477 1.476 . S
C478 C479 1.400 . S
C478 C482 1.567 . S
C479 C478 1.400 . S
C479 C480 1.373 . S
C479 C501 1.432 . S
C480 C479 1.373 . S
C480 C481 1.339 . S
C480 C483 1.530 . S
C481 C476 1.304 . S
C481 C480 1.339 . S
C481 H542 0.930 . S
C482 C478 1.567 . S
C482 H543 0.961 . S
C482 H544 0.960 . S
C482 H545 0.958 . S
C483 C480 1.530 . S
C483 H546 0.961 . S
C483 H547 0.960 . S
C483 H548 0.960 . S
C484 C485 1.530 . S
C484 H550 0.961 . S
C484 H551 0.961 . S
C484 H552 0.959 . S
C485 C484 1.530 . S
C485 O513 1.412 . S
C485 H549 0.980 . S
C486 C487 1.288 . S
C486 C491 1.377 . S
C486 O513 1.393 . S
C487 C486 1.288 . S
C487 C488 1.375 . S
C487 H553 0.932 . S
C488 C487 1.375 . S
C488 C489 1.392 1_565 S
C488 C492 1.526 1_565 S
C489 C488 1.392 1_545 S
C489 C490 1.380 1_545 S
C489 C503 1.497 . S
C490 C489 1.380 1_565 S
C490 C491 1.383 . S
C490 C493 1.603 . S
C491 C486 1.377 . S
C491 C490 1.383 . S
C491 H554 0.929 . S
C492 C488 1.526 1_545 S
C492 H555 0.961 . S
C492 H556 0.959 . S
C492 H557 0.959 . S
C493 C490 1.603 . S
C493 H558 0.960 . S
C493 H559 0.962 1_565 S
C493 H560 0.961 . S
C494 C461 1.587 . S
C494 C495 1.360 . S
C494 C507 1.412 . S
C495 C494 1.360 . S
C495 C496 1.365 1_565 S
C495 H561 0.929 . S
C496 C471 1.553 . S
C496 C495 1.365 1_545 S
C496 C497 1.404 . S
C497 C496 1.404 . S
C497 C498 1.395 . S
C497 C508 1.451 . S
C498 C497 1.395 . S
C498 C499 1.322 . S
C498 H562 0.930 . S
C499 C498 1.322 . S
C499 C500 1.455 1_556 S
C499 H563 0.929 . S
C500 C499 1.455 1_554 S
C500 C501 1.449 . S
C500 C509 1.395 1_554 S
C501 C479 1.432 . S
C501 C500 1.449 . S
C501 C502 1.370 . S
C502 C501 1.370 . S
C502 C503 1.438 . S
C502 H564 0.930 . S
C503 C489 1.497 . S
C503 C502 1.438 . S
C503 C504 1.360 . S
C504 C503 1.360 . S
C504 C505 1.401 1_545 S
C504 C509 1.446 1_554 S
C505 C504 1.401 1_565 S
C505 C506 1.347 1_554 S
C505 H565 0.929 . S
C506 C505 1.347 1_556 S
C506 C507 1.455 . S
C506 H566 0.930 . S
C507 C494 1.412 . S
C507 C506 1.455 . S
C507 C508 1.331 1_565 S
C508 C497 1.451 . S
C508 C507 1.331 1_545 S
C508 C509 1.497 . S
C509 C500 1.395 1_556 S
C509 C504 1.446 1_556 S
C509 C508 1.497 . S
C510 C511 1.582 . S
C510 H567 0.962 . S
C510 H568 0.959 . S
C510 H569 0.958 . S
C511 C510 1.582 . S
C511 O514 1.458 . S
C511 H540 0.980 . S
O512 C457 1.426 . S
O512 C458 1.334 . S
O513 C485 1.412 . S
O513 C486 1.393 . S
O514 C476 1.435 . S
O514 C511 1.458 . S
O515 C467 1.468 . S
O515 C468 1.408 . S
H516 C457 0.980 . S
H517 C456 0.959 . S
H518 C456 0.959 . S
H519 C456 0.960 . S
H520 C459 0.929 . S
H521 C463 0.929 . S
H522 C464 0.959 . S
H523 C464 0.961 . S
H524 C464 0.961 . S
H525 C465 0.960 . S
H526 C465 0.960 . S
H527 C465 0.961 . S
H528 C467 0.980 . S
H529 C466 0.961 . S
H530 C466 0.960 . S
H531 C466 0.959 . S
H532 C469 0.930 . S
H533 C473 0.931 . S
H534 C474 0.959 . S
H535 C474 0.961 . S
H536 C474 0.959 . S
H537 C475 0.960 . S
H538 C475 0.960 . S
H539 C475 0.960 . S
H540 C511 0.980 . S
H541 C477 0.930 . S
H542 C481 0.930 . S
H543 C482 0.961 . S
H544 C482 0.960 . S
H545 C482 0.958 . S
H546 C483 0.961 . S
H547 C483 0.960 . S
H548 C483 0.960 . S
H549 C485 0.980 . S
H550 C484 0.961 . S
H551 C484 0.961 . S
H552 C484 0.959 . S
H553 C487 0.932 . S
H554 C491 0.929 . S
H555 C492 0.961 . S
H556 C492 0.959 . S
H557 C492 0.959 . S
H558 C493 0.960 . S
H559 C493 0.962 1_545 S
H560 C493 0.961 . S
H561 C495 0.929 . S
H562 C498 0.930 . S
H563 C499 0.929 . S
H564 C502 0.930 . S
H565 C505 0.929 . S
H566 C506 0.930 . S
H567 C510 0.962 . S
H568 C510 0.959 . S
H569 C510 0.958 . S
C570 C571 1.560 . S
C570 H631 0.959 . S
C570 H632 0.959 . S
C570 H633 0.960 . S
C571 C570 1.560 . S
C571 O626 1.426 . S
C571 H630 0.980 . S
C572 C573 1.407 . S
C572 C577 1.418 . S
C572 O626 1.334 . S
C573 C572 1.407 . S
C573 C574 1.360 . S
C573 H634 0.929 . S
C574 C573 1.360 . S
C574 C575 1.401 . S
C574 C578 1.527 . S
C575 C574 1.401 . S
C575 C576 1.405 . S
C575 C608 1.587 . S
C576 C575 1.405 . S
C576 C577 1.332 . S
C576 C579 1.496 . S
C577 C572 1.418 . S
C577 C576 1.332 . S
C577 H635 0.929 . S
C578 C574 1.527 . S
C578 H636 0.959 . S
C578 H637 0.961 . S
C578 H638 0.961 . S
C579 C576 1.496 . S
C579 H639 0.960 . S
C579 H640 0.960 . S
C579 H641 0.961 . S
C580 C581 1.517 . S
C580 H643 0.961 . S
C580 H644 0.960 . S
C580 H645 0.959 . S
C581 C580 1.517 . S
C581 O629 1.468 . S
C581 H642 0.980 . S
C582 C583 1.349 . S
C582 C587 1.367 . S
C582 O629 1.408 . S
C583 C582 1.349 . S
C583 C584 1.407 . S
C583 H646 0.930 . S
C584 C583 1.407 . S
C584 C585 1.449 . S
C584 C588 1.535 . S
C585 C584 1.449 . S
C585 C586 1.384 . S
C585 C610 1.553 . S
C586 C585 1.384 . S
C586 C587 1.364 . S
C586 C589 1.450 . S
C587 C582 1.367 . S
C587 C586 1.364 . S
C587 H647 0.931 . S
C588 C584 1.535 . S
C588 H648 0.959 . S
C588 H649 0.961 . S
C588 H650 0.959 . S
C589 C586 1.450 . S
C589 H651 0.960 . S
C589 H652 0.960 . S
C589 H653 0.960 . S
C590 C591 1.309 . S
C590 C595 1.304 . S
C590 O628 1.435 . S
C591 C590 1.309 . S
C591 C592 1.476 . S
C591 H655 0.930 . S
C592 C591 1.476 . S
C592 C593 1.400 . S
C592 C596 1.567 . S
C593 C592 1.400 . S
C593 C594 1.373 . S
C593 C615 1.432 . S
C594 C593 1.373 . S
C594 C595 1.339 . S
C594 C597 1.530 . S
C595 C590 1.304 . S
C595 C594 1.339 . S
C595 H656 0.930 . S
C596 C592 1.567 . S
C596 H657 0.961 . S
C596 H658 0.960 . S
C596 H659 0.958 . S
C597 C594 1.530 . S
C597 H660 0.961 . S
C597 H661 0.960 . S
C597 H662 0.960 . S
C598 C599 1.530 . S
C598 H664 0.961 . S
C598 H665 0.961 . S
C598 H666 0.959 . S
C599 C598 1.530 . S
C599 O627 1.412 . S
C599 H663 0.980 . S
C600 C601 1.288 . S
C600 C605 1.377 . S
C600 O627 1.393 . S
C601 C600 1.288 . S
C601 C602 1.369 . S
C601 H667 0.932 . S
C602 C601 1.369 . S
C602 C603 1.398 . S
C602 C606 1.527 . S
C603 C602 1.398 . S
C603 C604 1.380 . S
C603 C617 1.497 . S
C604 C603 1.380 . S
C604 C605 1.383 . S
C604 C607 1.603 . S
C605 C600 1.377 . S
C605 C604 1.383 . S
C605 H668 0.929 . S
C606 C602 1.527 . S
C606 H669 0.961 . S
C606 H670 0.959 . S
C606 H671 0.959 . S
C607 C604 1.603 . S
C607 H672 0.960 . S
C607 H673 0.962 . S
C607 H674 0.961 . S
C608 C575 1.587 . S
C608 C609 1.360 . S
C608 C621 1.412 . S
C609 C608 1.360 . S
C609 C610 1.365 . S
C609 H675 0.929 . S
C610 C585 1.553 . S
C610 C609 1.365 . S
C610 C611 1.404 . S
C611 C610 1.404 . S
C611 C612 1.395 . S
C611 C622 1.451 . S
C612 C611 1.395 . S
C612 C613 1.322 . S
C612 H676 0.930 . S
C613 C612 1.322 . S
C613 C614 1.459 . S
C613 H677 0.929 . S
C614 C613 1.459 . S
C614 C615 1.445 . S
C614 C623 1.395 . S
C615 C593 1.432 . S
C615 C614 1.445 . S
C615 C616 1.370 . S
C616 C615 1.370 . S
C616 C617 1.438 . S
C616 H678 0.930 . S
C617 C603 1.497 . S
C617 C616 1.438 . S
C617 C618 1.360 . S
C618 C617 1.360 . S
C618 C619 1.401 . S
C618 C623 1.446 . S
C619 C618 1.401 . S
C619 C620 1.347 . S
C619 H679 0.929 . S
C620 C619 1.347 . S
C620 C621 1.455 . S
C620 H680 0.930 . S
C621 C608 1.412 . S
C621 C620 1.455 . S
C621 C622 1.331 . S
C622 C611 1.451 . S
C622 C621 1.331 . S
C622 C623 1.497 . S
C623 C614 1.395 . S
C623 C618 1.446 . S
C623 C622 1.497 . S
C624 C625 1.582 . S
C624 H681 0.962 . S
C624 H682 0.959 . S
C624 H683 0.958 . S
C625 C624 1.582 . S
C625 O628 1.458 . S
C625 H654 0.980 . S
O626 C571 1.426 . S
O626 C572 1.334 . S
O627 C599 1.412 . S
O627 C600 1.393 . S
O628 C590 1.435 . S
O628 C625 1.458 . S
O629 C581 1.468 . S
O629 C582 1.408 . S
H630 C571 0.980 . S
H631 C570 0.959 . S
H632 C570 0.959 . S
H633 C570 0.960 . S
H634 C573 0.929 . S
H635 C577 0.929 . S
H636 C578 0.959 . S
H637 C578 0.961 . S
H638 C578 0.961 . S
H639 C579 0.960 . S
H640 C579 0.960 . S
H641 C579 0.961 . S
H642 C581 0.980 . S
H643 C580 0.961 . S
H644 C580 0.960 . S
H645 C580 0.959 . S
H646 C583 0.930 . S
H647 C587 0.931 . S
H648 C588 0.959 . S
H649 C588 0.961 . S
H650 C588 0.959 . S
H651 C589 0.960 . S
H652 C589 0.960 . S
H653 C589 0.960 . S
H654 C625 0.980 . S
H655 C591 0.930 . S
H656 C595 0.930 . S
H657 C596 0.961 . S
H658 C596 0.960 . S
H659 C596 0.958 . S
H660 C597 0.961 . S
H661 C597 0.960 . S
H662 C597 0.960 . S
H663 C599 0.980 . S
H664 C598 0.961 . S
H665 C598 0.961 . S
H666 C598 0.959 . S
H667 C601 0.932 . S
H668 C605 0.929 . S
H669 C606 0.961 . S
H670 C606 0.959 . S
H671 C606 0.959 . S
H672 C607 0.960 . S
H673 C607 0.962 . S
H674 C607 0.961 . S
H675 C609 0.929 . S
H676 C612 0.930 . S
H677 C613 0.929 . S
H678 C616 0.930 . S
H679 C619 0.929 . S
H680 C620 0.930 . S
H681 C624 0.962 . S
H682 C624 0.959 . S
H683 C624 0.958 . S
In684 O685 2.294 . S
In684 O686 2.326 . S
In684 O690 2.266 . S
In684 O691 2.326 . S
In684 O692 2.266 . S
In684 O693 2.326 . S
In684 O695 2.294 . S
In684 O696 2.326 . S
O685 In684 2.294 . S
O685 C694 1.240 . S
O686 In684 2.326 . S
O686 C694 1.252 . S
C687 O690 1.252 . S
C687 O691 1.260 . S
C688 O695 1.240 . S
C688 O696 1.252 . S
C689 O692 1.252 . S
C689 O693 1.260 . S
O690 In684 2.266 . S
O690 C687 1.252 . S
O691 In684 2.326 . S
O691 C687 1.260 . S
O692 In684 2.266 . S
O692 C689 1.252 . S
O693 In684 2.326 . S
O693 C689 1.260 . S
C694 O685 1.240 . S
C694 O686 1.252 . S
O695 In684 2.294 . S
O695 C688 1.240 . S
O696 In684 2.326 . S
O696 C688 1.252 . S
In697 O698 2.294 . S
In697 O699 2.326 . S
In697 O703 2.266 . S
In697 O704 2.326 . S
In697 O705 2.266 . S
In697 O706 2.326 . S
In697 O708 2.294 . S
In697 O709 2.326 . S
O698 In697 2.294 . S
O698 C707 1.240 . S
O699 In697 2.326 . S
O699 C707 1.252 . S
C700 O703 1.252 . S
C700 O704 1.260 . S
C701 O708 1.240 . S
C701 O709 1.252 . S
C702 O705 1.252 . S
C702 O706 1.260 . S
O703 In697 2.266 . S
O703 C700 1.252 . S
O704 In697 2.326 . S
O704 C700 1.260 . S
O705 In697 2.266 . S
O705 C702 1.252 . S
O706 In697 2.326 . S
O706 C702 1.260 . S
C707 O698 1.240 . S
C707 O699 1.252 . S
O708 In697 2.294 . S
O708 C701 1.240 . S
O709 In697 2.326 . S
O709 C701 1.252 . S
In710 O711 2.294 . S
In710 O712 2.326 . S
In710 O716 2.266 . S
In710 O717 2.326 . S
In710 O718 2.266 . S
In710 O719 2.326 . S
In710 O721 2.294 . S
In710 O722 2.326 . S
O711 In710 2.294 . S
O711 C720 1.240 . S
O712 In710 2.326 . S
O712 C720 1.252 . S
C713 O716 1.252 . S
C713 O717 1.260 . S
C714 O721 1.240 . S
C714 O722 1.252 . S
C715 O718 1.252 . S
C715 O719 1.260 . S
O716 In710 2.266 . S
O716 C713 1.252 . S
O717 In710 2.326 . S
O717 C713 1.260 . S
O718 In710 2.266 . S
O718 C715 1.252 . S
O719 In710 2.326 . S
O719 C715 1.260 . S
C720 O711 1.240 . S
C720 O712 1.252 . S
O721 In710 2.294 . S
O721 C714 1.240 . S
O722 In710 2.326 . S
O722 C714 1.252 . S
In723 O724 2.294 . S
In723 O725 2.326 . S
In723 O729 2.266 . S
In723 O730 2.326 . S
In723 O731 2.266 . S
In723 O732 2.326 . S
In723 O734 2.294 . S
In723 O735 2.326 . S
O724 In723 2.294 . S
O724 C733 1.240 . S
O725 In723 2.326 . S
O725 C733 1.252 . S
C726 O729 1.252 . S
C726 O730 1.260 . S
C727 O734 1.240 . S
C727 O735 1.252 . S
C728 O731 1.252 . S
C728 O732 1.260 . S
O729 In723 2.266 . S
O729 C726 1.252 . S
O730 In723 2.326 . S
O730 C726 1.260 . S
O731 In723 2.266 . S
O731 C728 1.252 . S
O732 In723 2.326 . S
O732 C728 1.260 . S
C733 O724 1.240 . S
C733 O725 1.252 . S
O734 In723 2.294 . S
O734 C727 1.240 . S
O735 In723 2.326 . S
O735 C727 1.252 . S
In736 O737 2.294 . S
In736 O738 2.326 . S
In736 O742 2.266 . S
In736 O743 2.326 . S
In736 O744 2.266 . S
In736 O745 2.326 . S
In736 O747 2.294 . S
In736 O748 2.326 . S
O737 In736 2.294 . S
O737 C746 1.240 . S
O738 In736 2.326 . S
O738 C746 1.252 . S
C739 O742 1.252 . S
C739 O743 1.260 . S
C740 O747 1.240 . S
C740 O748 1.252 . S
C741 O744 1.252 . S
C741 O745 1.260 . S
O742 In736 2.266 . S
O742 C739 1.252 . S
O743 In736 2.326 . S
O743 C739 1.260 . S
O744 In736 2.266 . S
O744 C741 1.252 . S
O745 In736 2.326 . S
O745 C741 1.260 . S
C746 O737 1.240 . S
C746 O738 1.252 . S
O747 In736 2.294 . S
O747 C740 1.240 . S
O748 In736 2.326 . S
O748 C740 1.252 . S
In749 O750 2.294 . S
In749 O751 2.326 . S
In749 O755 2.266 . S
In749 O756 2.326 . S
In749 O757 2.266 . S
In749 O758 2.326 . S
In749 O760 2.294 . S
In749 O761 2.326 . S
O750 In749 2.294 . S
O750 C759 1.240 . S
O751 In749 2.326 . S
O751 C759 1.252 . S
C752 O755 1.252 . S
C752 O756 1.260 . S
C753 O760 1.240 . S
C753 O761 1.252 . S
C754 O757 1.252 . S
C754 O758 1.260 . S
O755 In749 2.266 . S
O755 C752 1.252 . S
O756 In749 2.326 . S
O756 C752 1.260 . S
O757 In749 2.266 . S
O757 C754 1.252 . S
O758 In749 2.326 . S
O758 C754 1.260 . S
C759 O750 1.240 . S
C759 O751 1.252 . S
O760 In749 2.294 . S
O760 C753 1.240 . S
O761 In749 2.326 . S
O761 C753 1.252 . S
C762 C763 1.391 . S
C762 C764 1.394 . S
C762 H778 0.931 . S
C763 C762 1.391 . S
C763 C767 1.376 . S
C764 C762 1.394 . S
C764 C765 1.369 . S
C764 C768 1.531 . S
C765 C764 1.369 . S
C765 C766 1.410 . S
C765 C773 1.503 . S
C766 C765 1.410 . S
C766 C767 1.392 . S
C766 C769 1.511 . S
C767 C763 1.376 . S
C767 C766 1.392 . S
C767 H779 0.929 . S
C768 C764 1.531 . S
C768 H780 0.960 . S
C768 H781 0.962 . S
C768 H782 0.960 . S
C769 C766 1.511 . S
C769 H783 0.961 . S
C769 H784 0.961 . S
C769 H785 0.961 . S
C770 C771 1.370 . S
C770 C772 1.363 . S
C770 H786 0.931 . S
C771 C770 1.370 . S
C771 C775 1.408 . S
C772 C770 1.363 . S
C772 C773 1.370 . S
C772 C776 1.524 . S
C773 C765 1.503 . S
C773 C772 1.370 . S
C773 C774 1.403 . S
C774 C773 1.403 . S
C774 C775 1.404 . S
C774 C777 1.539 . S
C775 C771 1.408 . S
C775 C774 1.404 . S
C775 H787 0.930 . S
C776 C772 1.524 . S
C776 H788 0.956 . S
C776 H789 0.961 . S
C776 H790 0.961 . S
C777 C774 1.539 . S
C777 H791 0.958 . S
C777 H792 0.961 . S
C777 H793 0.960 . S
H778 C762 0.931 . S
H779 C767 0.929 . S
H780 C768 0.960 . S
H781 C768 0.962 . S
H782 C768 0.960 . S
H783 C769 0.961 . S
H784 C769 0.961 . S
H785 C769 0.961 . S
H786 C770 0.931 . S
H787 C775 0.930 . S
H788 C776 0.956 . S
H789 C776 0.961 . S
H790 C776 0.961 . S
H791 C777 0.958 . S
H792 C777 0.961 . S
H793 C777 0.960 . S
C794 C795 1.391 . S
C794 C796 1.394 . S
C794 H810 0.931 . S
C795 C794 1.391 . S
C795 C799 1.376 . S
C796 C794 1.394 . S
C796 C797 1.369 . S
C796 C800 1.531 . S
C797 C796 1.369 . S
C797 C798 1.410 . S
C797 C805 1.503 . S
C798 C797 1.410 . S
C798 C799 1.392 . S
C798 C801 1.511 . S
C799 C795 1.376 . S
C799 C798 1.392 . S
C799 H811 0.929 . S
C800 C796 1.531 . S
C800 H812 0.960 . S
C800 H813 0.962 . S
C800 H814 0.960 . S
C801 C798 1.511 . S
C801 H815 0.961 . S
C801 H816 0.961 . S
C801 H817 0.961 . S
C802 C803 1.370 . S
C802 C804 1.363 . S
C802 H818 0.931 . S
C803 C802 1.370 . S
C803 C807 1.408 . S
C804 C802 1.363 . S
C804 C805 1.370 . S
C804 C808 1.524 . S
C805 C797 1.503 . S
C805 C804 1.370 . S
C805 C806 1.403 . S
C806 C805 1.403 . S
C806 C807 1.404 . S
C806 C809 1.539 . S
C807 C803 1.408 . S
C807 C806 1.404 . S
C807 H819 0.930 . S
C808 C804 1.524 . S
C808 H820 0.956 . S
C808 H821 0.961 . S
C808 H822 0.961 . S
C809 C806 1.539 . S
C809 H823 0.958 . S
C809 H824 0.961 . S
C809 H825 0.960 . S
H810 C794 0.931 . S
H811 C799 0.929 . S
H812 C800 0.960 . S
H813 C800 0.962 . S
H814 C800 0.960 . S
H815 C801 0.961 . S
H816 C801 0.961 . S
H817 C801 0.961 . S
H818 C802 0.931 . S
H819 C807 0.930 . S
H820 C808 0.956 . S
H821 C808 0.961 . S
H822 C808 0.961 . S
H823 C809 0.958 . S
H824 C809 0.961 . S
H825 C809 0.960 . S
C826 C827 1.391 . S
C826 C828 1.394 . S
C826 H842 0.931 . S
C827 C826 1.391 . S
C827 C831 1.376 . S
C828 C826 1.394 . S
C828 C829 1.369 . S
C828 C832 1.531 . S
C829 C828 1.369 . S
C829 C830 1.410 . S
C829 C837 1.503 . S
C830 C829 1.410 . S
C830 C831 1.392 . S
C830 C833 1.511 . S
C831 C827 1.376 . S
C831 C830 1.392 . S
C831 H843 0.929 . S
C832 C828 1.531 . S
C832 H844 0.960 . S
C832 H845 0.962 . S
C832 H846 0.960 . S
C833 C830 1.511 . S
C833 H847 0.961 . S
C833 H848 0.961 . S
C833 H849 0.961 . S
C834 C835 1.370 . S
C834 C836 1.363 . S
C834 H850 0.931 . S
C835 C834 1.370 . S
C835 C839 1.408 . S
C836 C834 1.363 . S
C836 C837 1.370 . S
C836 C840 1.524 . S
C837 C829 1.503 . S
C837 C836 1.370 . S
C837 C838 1.403 . S
C838 C837 1.403 . S
C838 C839 1.404 . S
C838 C841 1.539 . S
C839 C835 1.408 . S
C839 C838 1.404 . S
C839 H851 0.930 . S
C840 C836 1.524 . S
C840 H852 0.956 . S
C840 H853 0.961 . S
C840 H854 0.961 . S
C841 C838 1.539 . S
C841 H855 0.958 . S
C841 H856 0.961 . S
C841 H857 0.960 . S
H842 C826 0.931 . S
H843 C831 0.929 . S
H844 C832 0.960 . S
H845 C832 0.962 . S
H846 C832 0.960 . S
H847 C833 0.961 . S
H848 C833 0.961 . S
H849 C833 0.961 . S
H850 C834 0.931 . S
H851 C839 0.930 . S
H852 C840 0.956 . S
H853 C840 0.961 . S
H854 C840 0.961 . S
H855 C841 0.958 . S
H856 C841 0.961 . S
H857 C841 0.960 . S
C858 C859 1.391 . S
C858 C860 1.394 . S
C858 H874 0.931 . S
C859 C858 1.391 . S
C859 C863 1.376 . S
C860 C858 1.394 . S
C860 C861 1.369 . S
C860 C864 1.531 . S
C861 C860 1.369 . S
C861 C862 1.410 . S
C861 C869 1.503 . S
C862 C861 1.410 . S
C862 C863 1.392 . S
C862 C865 1.511 . S
C863 C859 1.376 . S
C863 C862 1.392 . S
C863 H875 0.929 . S
C864 C860 1.531 . S
C864 H876 0.960 . S
C864 H877 0.962 . S
C864 H878 0.960 . S
C865 C862 1.511 . S
C865 H879 0.961 . S
C865 H880 0.961 . S
C865 H881 0.961 . S
C866 C867 1.370 . S
C866 C868 1.363 . S
C866 H882 0.931 . S
C867 C866 1.370 . S
C867 C871 1.408 . S
C868 C866 1.363 . S
C868 C869 1.370 . S
C868 C872 1.524 . S
C869 C861 1.503 . S
C869 C868 1.370 . S
C869 C870 1.403 . S
C870 C869 1.403 . S
C870 C871 1.404 . S
C870 C873 1.539 . S
C871 C867 1.408 . S
C871 C870 1.404 . S
C871 H883 0.930 . S
C872 C868 1.524 . S
C872 H884 0.956 . S
C872 H885 0.961 . S
C872 H886 0.961 . S
C873 C870 1.539 . S
C873 H887 0.958 . S
C873 H888 0.961 . S
C873 H889 0.960 . S
H874 C858 0.931 . S
H875 C863 0.929 . S
H876 C864 0.960 . S
H877 C864 0.962 . S
H878 C864 0.960 . S
H879 C865 0.961 . S
H880 C865 0.961 . S
H881 C865 0.961 . S
H882 C866 0.931 . S
H883 C871 0.930 . S
H884 C872 0.956 . S
H885 C872 0.961 . S
H886 C872 0.961 . S
H887 C873 0.958 . S
H888 C873 0.961 . S
H889 C873 0.960 . S
C890 C891 1.391 . S
C890 C892 1.394 . S
C890 H906 0.931 . S
C891 C890 1.391 . S
C891 C895 1.376 . S
C892 C890 1.394 . S
C892 C893 1.369 . S
C892 C896 1.531 . S
C893 C892 1.369 . S
C893 C894 1.410 . S
C893 C901 1.503 . S
C894 C893 1.410 . S
C894 C895 1.392 . S
C894 C897 1.511 . S
C895 C891 1.376 . S
C895 C894 1.392 . S
C895 H907 0.929 . S
C896 C892 1.531 . S
C896 H908 0.960 . S
C896 H909 0.962 . S
C896 H910 0.960 . S
C897 C894 1.511 . S
C897 H911 0.961 . S
C897 H912 0.961 . S
C897 H913 0.961 . S
C898 C899 1.370 . S
C898 C900 1.363 . S
C898 H914 0.931 . S
C899 C898 1.370 . S
C899 C903 1.408 . S
C900 C898 1.363 . S
C900 C901 1.370 . S
C900 C904 1.524 . S
C901 C893 1.503 . S
C901 C900 1.370 . S
C901 C902 1.403 . S
C902 C901 1.403 . S
C902 C903 1.404 . S
C902 C905 1.539 . S
C903 C899 1.408 . S
C903 C902 1.404 . S
C903 H915 0.930 . S
C904 C900 1.524 . S
C904 H916 0.956 . S
C904 H917 0.961 . S
C904 H918 0.961 . S
C905 C902 1.539 . S
C905 H919 0.958 . S
C905 H920 0.961 . S
C905 H921 0.960 . S
H906 C890 0.931 . S
H907 C895 0.929 . S
H908 C896 0.960 . S
H909 C896 0.962 . S
H910 C896 0.960 . S
H911 C897 0.961 . S
H912 C897 0.961 . S
H913 C897 0.961 . S
H914 C898 0.931 . S
H915 C903 0.930 . S
H916 C904 0.956 . S
H917 C904 0.961 . S
H918 C904 0.961 . S
H919 C905 0.958 . S
H920 C905 0.961 . S
H921 C905 0.960 . S
C922 C923 1.391 . S
C922 C924 1.394 . S
C922 H938 0.931 . S
C923 C922 1.391 . S
C923 C927 1.376 . S
C924 C922 1.394 . S
C924 C925 1.369 . S
C924 C928 1.531 . S
C925 C924 1.369 . S
C925 C926 1.410 . S
C925 C933 1.503 . S
C926 C925 1.410 . S
C926 C927 1.392 . S
C926 C929 1.511 . S
C927 C923 1.376 . S
C927 C926 1.392 . S
C927 H939 0.929 . S
C928 C924 1.531 . S
C928 H940 0.960 . S
C928 H941 0.962 . S
C928 H942 0.960 . S
C929 C926 1.511 . S
C929 H943 0.961 . S
C929 H944 0.961 . S
C929 H945 0.961 . S
C930 C931 1.370 . S
C930 C932 1.363 . S
C930 H946 0.931 . S
C931 C930 1.370 . S
C931 C935 1.408 . S
C932 C930 1.363 . S
C932 C933 1.370 . S
C932 C936 1.524 . S
C933 C925 1.503 . S
C933 C932 1.370 . S
C933 C934 1.403 . S
C934 C933 1.403 . S
C934 C935 1.404 . S
C934 C937 1.539 . S
C935 C931 1.408 . S
C935 C934 1.404 . S
C935 H947 0.930 . S
C936 C932 1.524 . S
C936 H948 0.956 . S
C936 H949 0.961 . S
C936 H950 0.961 . S
C937 C934 1.539 . S
C937 H951 0.958 . S
C937 H952 0.961 . S
C937 H953 0.960 . S
H938 C922 0.931 . S
H939 C927 0.929 . S
H940 C928 0.960 . S
H941 C928 0.962 . S
H942 C928 0.960 . S
H943 C929 0.961 . S
H944 C929 0.961 . S
H945 C929 0.961 . S
H946 C930 0.931 . S
H947 C935 0.930 . S
H948 C936 0.956 . S
H949 C936 0.961 . S
H950 C936 0.961 . S
H951 C937 0.958 . S
H952 C937 0.961 . S
H953 C937 0.960 . S
C954 C955 1.391 . S
C954 C956 1.394 . S
C954 H970 0.931 . S
C955 C954 1.391 . S
C955 C959 1.376 . S
C956 C954 1.394 . S
C956 C957 1.369 . S
C956 C960 1.531 . S
C957 C956 1.369 . S
C957 C958 1.410 . S
C957 C965 1.503 . S
C958 C957 1.410 . S
C958 C959 1.392 . S
C958 C961 1.511 . S
C959 C955 1.376 . S
C959 C958 1.392 . S
C959 H971 0.929 . S
C960 C956 1.531 . S
C960 H972 0.960 . S
C960 H973 0.962 . S
C960 H974 0.960 . S
C961 C958 1.511 . S
C961 H975 0.961 . S
C961 H976 0.961 . S
C961 H977 0.961 . S
C962 C963 1.370 . S
C962 C964 1.363 . S
C962 H978 0.931 . S
C963 C962 1.370 . S
C963 C967 1.408 . S
C964 C962 1.363 . S
C964 C965 1.370 . S
C964 C968 1.524 . S
C965 C957 1.503 . S
C965 C964 1.370 . S
C965 C966 1.403 . S
C966 C965 1.403 . S
C966 C967 1.404 . S
C966 C969 1.539 . S
C967 C963 1.408 . S
C967 C966 1.404 . S
C967 H979 0.930 . S
C968 C964 1.524 . S
C968 H980 0.956 . S
C968 H981 0.961 . S
C968 H982 0.961 . S
C969 C966 1.539 . S
C969 H983 0.958 . S
C969 H984 0.961 . S
C969 H985 0.960 . S
H970 C954 0.931 . S
H971 C959 0.929 . S
H972 C960 0.960 . S
H973 C960 0.962 . S
H974 C960 0.960 . S
H975 C961 0.961 . S
H976 C961 0.961 . S
H977 C961 0.961 . S
H978 C962 0.931 . S
H979 C967 0.930 . S
H980 C968 0.956 . S
H981 C968 0.961 . S
H982 C968 0.961 . S
H983 C969 0.958 . S
H984 C969 0.961 . S
H985 C969 0.960 . S
C986 C987 1.391 . S
C986 C988 1.394 . S
C986 H1002 0.931 . S
C987 C986 1.391 . S
C987 C991 1.376 . S
C988 C986 1.394 . S
C988 C989 1.369 . S
C988 C992 1.531 . S
C989 C988 1.369 . S
C989 C990 1.410 . S
C989 C997 1.503 . S
C990 C989 1.410 . S
C990 C991 1.392 . S
C990 C993 1.511 . S
C991 C987 1.376 . S
C991 C990 1.392 . S
C991 H1003 0.929 . S
C992 C988 1.531 . S
C992 H1004 0.960 . S
C992 H1005 0.962 . S
C992 H1006 0.960 . S
C993 C990 1.511 . S
C993 H1007 0.961 . S
C993 H1008 0.961 . S
C993 H1009 0.961 . S
C994 C995 1.370 . S
C994 C996 1.363 . S
C994 H1010 0.931 . S
C995 C994 1.370 . S
C995 C999 1.408 . S
C996 C994 1.363 . S
C996 C997 1.370 . S
C996 C1000 1.524 . S
C997 C989 1.503 . S
C997 C996 1.370 . S
C997 C998 1.403 . S
C998 C997 1.403 . S
C998 C999 1.404 . S
C998 C1001 1.539 . S
C999 C995 1.408 . S
C999 C998 1.404 . S
C999 H1011 0.930 . S
C1000 C996 1.524 . S
C1000 H1012 0.956 . S
C1000 H1013 0.961 . S
C1000 H1014 0.961 . S
C1001 C998 1.539 . S
C1001 H1015 0.958 . S
C1001 H1016 0.961 . S
C1001 H1017 0.960 . S
H1002 C986 0.931 . S
H1003 C991 0.929 . S
H1004 C992 0.960 . S
H1005 C992 0.962 . S
H1006 C992 0.960 . S
H1007 C993 0.961 . S
H1008 C993 0.961 . S
H1009 C993 0.961 . S
H1010 C994 0.931 . S
H1011 C999 0.930 . S
H1012 C1000 0.956 . S
H1013 C1000 0.961 . S
H1014 C1000 0.961 . S
H1015 C1001 0.958 . S
H1016 C1001 0.961 . S
H1017 C1001 0.960 . S
C1018 C1019 1.391 . S
C1018 C1020 1.394 . S
C1018 H1034 0.931 . S
C1019 C1018 1.391 . S
C1019 C1023 1.376 . S
C1020 C1018 1.394 . S
C1020 C1021 1.369 . S
C1020 C1024 1.531 . S
C1021 C1020 1.369 . S
C1021 C1022 1.410 . S
C1021 C1029 1.503 . S
C1022 C1021 1.410 . S
C1022 C1023 1.392 . S
C1022 C1025 1.511 . S
C1023 C1019 1.376 . S
C1023 C1022 1.392 . S
C1023 H1035 0.929 . S
C1024 C1020 1.531 . S
C1024 H1036 0.960 . S
C1024 H1037 0.962 . S
C1024 H1038 0.960 . S
C1025 C1022 1.511 . S
C1025 H1039 0.961 . S
C1025 H1040 0.961 . S
C1025 H1041 0.961 . S
C1026 C1027 1.370 . S
C1026 C1028 1.363 . S
C1026 H1042 0.931 . S
C1027 C1026 1.370 . S
C1027 C1031 1.408 . S
C1028 C1026 1.363 . S
C1028 C1029 1.370 . S
C1028 C1032 1.524 . S
C1029 C1021 1.503 . S
C1029 C1028 1.370 . S
C1029 C1030 1.403 . S
C1030 C1029 1.403 . S
C1030 C1031 1.404 . S
C1030 C1033 1.539 . S
C1031 C1027 1.408 . S
C1031 C1030 1.404 . S
C1031 H1043 0.930 . S
C1032 C1028 1.524 . S
C1032 H1044 0.956 . S
C1032 H1045 0.961 . S
C1032 H1046 0.961 . S
C1033 C1030 1.539 . S
C1033 H1047 0.958 . S
C1033 H1048 0.961 . S
C1033 H1049 0.960 . S
H1034 C1018 0.931 . S
H1035 C1023 0.929 . S
H1036 C1024 0.960 . S
H1037 C1024 0.962 . S
H1038 C1024 0.960 . S
H1039 C1025 0.961 . S
H1040 C1025 0.961 . S
H1041 C1025 0.961 . S
H1042 C1026 0.931 . S
H1043 C1031 0.930 . S
H1044 C1032 0.956 . S
H1045 C1032 0.961 . S
H1046 C1032 0.961 . S
H1047 C1033 0.958 . S
H1048 C1033 0.961 . S
H1049 C1033 0.960 . S
C1050 C1051 1.391 . S
C1050 C1052 1.394 . S
C1050 H1066 0.931 . S
C1051 C1050 1.391 . S
C1051 C1055 1.376 . S
C1052 C1050 1.394 . S
C1052 C1053 1.369 . S
C1052 C1056 1.531 . S
C1053 C1052 1.369 . S
C1053 C1054 1.410 . S
C1053 C1061 1.503 . S
C1054 C1053 1.410 . S
C1054 C1055 1.392 . S
C1054 C1057 1.511 . S
C1055 C1051 1.376 . S
C1055 C1054 1.392 . S
C1055 H1067 0.929 . S
C1056 C1052 1.531 . S
C1056 H1068 0.960 . S
C1056 H1069 0.962 . S
C1056 H1070 0.960 . S
C1057 C1054 1.511 . S
C1057 H1071 0.961 . S
C1057 H1072 0.961 . S
C1057 H1073 0.961 . S
C1058 C1059 1.370 . S
C1058 C1060 1.363 . S
C1058 H1074 0.931 . S
C1059 C1058 1.370 . S
C1059 C1063 1.408 . S
C1060 C1058 1.363 . S
C1060 C1061 1.370 . S
C1060 C1064 1.524 . S
C1061 C1053 1.503 . S
C1061 C1060 1.370 . S
C1061 C1062 1.403 . S
C1062 C1061 1.403 . S
C1062 C1063 1.404 . S
C1062 C1065 1.539 . S
C1063 C1059 1.408 . S
C1063 C1062 1.404 . S
C1063 H1075 0.930 . S
C1064 C1060 1.524 . S
C1064 H1076 0.956 . S
C1064 H1077 0.961 . S
C1064 H1078 0.961 . S
C1065 C1062 1.539 . S
C1065 H1079 0.958 . S
C1065 H1080 0.961 . S
C1065 H1081 0.960 . S
H1066 C1050 0.931 . S
H1067 C1055 0.929 . S
H1068 C1056 0.960 . S
H1069 C1056 0.962 . S
H1070 C1056 0.960 . S
H1071 C1057 0.961 . S
H1072 C1057 0.961 . S
H1073 C1057 0.961 . S
H1074 C1058 0.931 . S
H1075 C1063 0.930 . S
H1076 C1064 0.956 . S
H1077 C1064 0.961 . S
H1078 C1064 0.961 . S
H1079 C1065 0.958 . S
H1080 C1065 0.961 . S
H1081 C1065 0.960 . S
C1082 C1083 1.391 . S
C1082 C1084 1.394 . S
C1082 H1098 0.931 . S
C1083 C1082 1.391 . S
C1083 C1087 1.376 . S
C1084 C1082 1.394 . S
C1084 C1085 1.369 . S
C1084 C1088 1.531 . S
C1085 C1084 1.369 . S
C1085 C1086 1.410 . S
C1085 C1093 1.503 . S
C1086 C1085 1.410 . S
C1086 C1087 1.392 . S
C1086 C1089 1.511 . S
C1087 C1083 1.376 . S
C1087 C1086 1.392 . S
C1087 H1099 0.929 . S
C1088 C1084 1.531 . S
C1088 H1100 0.960 . S
C1088 H1101 0.962 . S
C1088 H1102 0.960 . S
C1089 C1086 1.511 . S
C1089 H1103 0.961 . S
C1089 H1104 0.961 . S
C1089 H1105 0.961 . S
C1090 C1091 1.370 . S
C1090 C1092 1.363 . S
C1090 H1106 0.931 . S
C1091 C1090 1.370 . S
C1091 C1095 1.408 . S
C1092 C1090 1.363 . S
C1092 C1093 1.370 . S
C1092 C1096 1.524 . S
C1093 C1085 1.503 . S
C1093 C1092 1.370 . S
C1093 C1094 1.403 . S
C1094 C1093 1.403 . S
C1094 C1095 1.404 . S
C1094 C1097 1.539 . S
C1095 C1091 1.408 . S
C1095 C1094 1.404 . S
C1095 H1107 0.930 . S
C1096 C1092 1.524 . S
C1096 H1108 0.956 . S
C1096 H1109 0.961 . S
C1096 H1110 0.961 . S
C1097 C1094 1.539 . S
C1097 H1111 0.958 . S
C1097 H1112 0.961 . S
C1097 H1113 0.960 . S
H1098 C1082 0.931 . S
H1099 C1087 0.929 . S
H1100 C1088 0.960 . S
H1101 C1088 0.962 . S
H1102 C1088 0.960 . S
H1103 C1089 0.961 . S
H1104 C1089 0.961 . S
H1105 C1089 0.961 . S
H1106 C1090 0.931 . S
H1107 C1095 0.930 . S
H1108 C1096 0.956 . S
H1109 C1096 0.961 . S
H1110 C1096 0.961 . S
H1111 C1097 0.958 . S
H1112 C1097 0.961 . S
H1113 C1097 0.960 . S
C1114 C1115 1.391 . S
C1114 C1116 1.394 . S
C1114 H1130 0.931 . S
C1115 C1114 1.391 . S
C1115 C1119 1.376 . S
C1116 C1114 1.394 . S
C1116 C1117 1.369 . S
C1116 C1120 1.531 . S
C1117 C1116 1.369 . S
C1117 C1118 1.410 . S
C1117 C1125 1.503 . S
C1118 C1117 1.410 . S
C1118 C1119 1.392 . S
C1118 C1121 1.511 . S
C1119 C1115 1.376 . S
C1119 C1118 1.392 . S
C1119 H1131 0.929 . S
C1120 C1116 1.531 . S
C1120 H1132 0.960 . S
C1120 H1133 0.962 . S
C1120 H1134 0.960 . S
C1121 C1118 1.511 . S
C1121 H1135 0.961 . S
C1121 H1136 0.961 . S
C1121 H1137 0.961 . S
C1122 C1123 1.370 . S
C1122 C1124 1.363 . S
C1122 H1138 0.931 . S
C1123 C1122 1.370 . S
C1123 C1127 1.408 . S
C1124 C1122 1.363 . S
C1124 C1125 1.370 . S
C1124 C1128 1.524 . S
C1125 C1117 1.503 . S
C1125 C1124 1.370 . S
C1125 C1126 1.403 . S
C1126 C1125 1.403 . S
C1126 C1127 1.404 . S
C1126 C1129 1.539 . S
C1127 C1123 1.408 . S
C1127 C1126 1.404 . S
C1127 H1139 0.930 . S
C1128 C1124 1.524 . S
C1128 H1140 0.956 . S
C1128 H1141 0.961 . S
C1128 H1142 0.961 . S
C1129 C1126 1.539 . S
C1129 H1143 0.958 . S
C1129 H1144 0.961 . S
C1129 H1145 0.960 . S
H1130 C1114 0.931 . S
H1131 C1119 0.929 . S
H1132 C1120 0.960 . S
H1133 C1120 0.962 . S
H1134 C1120 0.960 . S
H1135 C1121 0.961 . S
H1136 C1121 0.961 . S
H1137 C1121 0.961 . S
H1138 C1122 0.931 . S
H1139 C1127 0.930 . S
H1140 C1128 0.956 . S
H1141 C1128 0.961 . S
H1142 C1128 0.961 . S
H1143 C1129 0.958 . S
H1144 C1129 0.961 . S
H1145 C1129 0.960 . S
C1146 C1147 1.391 . S
C1146 C1148 1.394 . S
C1146 H1162 0.931 . S
C1147 C1146 1.391 . S
C1147 C1151 1.376 . S
C1148 C1146 1.394 . S
C1148 C1149 1.369 . S
C1148 C1152 1.531 . S
C1149 C1148 1.369 . S
C1149 C1150 1.410 . S
C1149 C1157 1.503 . S
C1150 C1149 1.410 . S
C1150 C1151 1.392 . S
C1150 C1153 1.511 . S
C1151 C1147 1.376 . S
C1151 C1150 1.392 . S
C1151 H1163 0.929 . S
C1152 C1148 1.531 . S
C1152 H1164 0.960 . S
C1152 H1165 0.962 . S
C1152 H1166 0.960 . S
C1153 C1150 1.511 . S
C1153 H1167 0.961 . S
C1153 H1168 0.961 . S
C1153 H1169 0.961 . S
C1154 C1155 1.370 . S
C1154 C1156 1.363 . S
C1154 H1170 0.931 . S
C1155 C1154 1.370 . S
C1155 C1159 1.408 . S
C1156 C1154 1.363 . S
C1156 C1157 1.370 . S
C1156 C1160 1.524 . S
C1157 C1149 1.503 . S
C1157 C1156 1.370 . S
C1157 C1158 1.403 . S
C1158 C1157 1.403 . S
C1158 C1159 1.404 . S
C1158 C1161 1.539 . S
C1159 C1155 1.408 . S
C1159 C1158 1.404 . S
C1159 H1171 0.930 . S
C1160 C1156 1.524 . S
C1160 H1172 0.956 . S
C1160 H1173 0.961 . S
C1160 H1174 0.961 . S
C1161 C1158 1.539 . S
C1161 H1175 0.958 . S
C1161 H1176 0.961 . S
C1161 H1177 0.960 . S
H1162 C1146 0.931 . S
H1163 C1151 0.929 . S
H1164 C1152 0.960 . S
H1165 C1152 0.962 . S
H1166 C1152 0.960 . S
H1167 C1153 0.961 . S
H1168 C1153 0.961 . S
H1169 C1153 0.961 . S
H1170 C1154 0.931 . S
H1171 C1159 0.930 . S
H1172 C1160 0.956 . S
H1173 C1160 0.961 . S
H1174 C1160 0.961 . S
H1175 C1161 0.958 . S
H1176 C1161 0.961 . S
H1177 C1161 0.960 . S
C1178 C1179 1.391 . S
C1178 C1180 1.394 . S
C1178 H1194 0.931 . S
C1179 C1178 1.391 . S
C1179 C1183 1.376 . S
C1180 C1178 1.394 . S
C1180 C1181 1.369 . S
C1180 C1184 1.531 . S
C1181 C1180 1.369 . S
C1181 C1182 1.410 . S
C1181 C1189 1.503 . S
C1182 C1181 1.410 . S
C1182 C1183 1.392 . S
C1182 C1185 1.511 . S
C1183 C1179 1.376 . S
C1183 C1182 1.392 . S
C1183 H1195 0.929 . S
C1184 C1180 1.531 . S
C1184 H1196 0.960 . S
C1184 H1197 0.962 . S
C1184 H1198 0.960 . S
C1185 C1182 1.511 . S
C1185 H1199 0.961 . S
C1185 H1200 0.961 . S
C1185 H1201 0.961 . S
C1186 C1187 1.370 . S
C1186 C1188 1.363 . S
C1186 H1202 0.931 . S
C1187 C1186 1.370 . S
C1187 C1191 1.408 . S
C1188 C1186 1.363 . S
C1188 C1189 1.370 . S
C1188 C1192 1.524 . S
C1189 C1181 1.503 . S
C1189 C1188 1.370 . S
C1189 C1190 1.403 . S
C1190 C1189 1.403 . S
C1190 C1191 1.404 . S
C1190 C1193 1.539 . S
C1191 C1187 1.408 . S
C1191 C1190 1.404 . S
C1191 H1203 0.930 . S
C1192 C1188 1.524 . S
C1192 H1204 0.956 . S
C1192 H1205 0.961 . S
C1192 H1206 0.961 . S
C1193 C1190 1.539 . S
C1193 H1207 0.958 . S
C1193 H1208 0.961 . S
C1193 H1209 0.960 . S
H1194 C1178 0.931 . S
H1195 C1183 0.929 . S
H1196 C1184 0.960 . S
H1197 C1184 0.962 . S
H1198 C1184 0.960 . S
H1199 C1185 0.961 . S
H1200 C1185 0.961 . S
H1201 C1185 0.961 . S
H1202 C1186 0.931 . S
H1203 C1191 0.930 . S
H1204 C1192 0.956 . S
H1205 C1192 0.961 . S
H1206 C1192 0.961 . S
H1207 C1193 0.958 . S
H1208 C1193 0.961 . S
H1209 C1193 0.960 . S
C1210 C1211 1.391 . S
C1210 C1212 1.394 . S
C1210 H1226 0.931 . S
C1211 C1210 1.391 . S
C1211 C1215 1.376 . S
C1212 C1210 1.394 . S
C1212 C1213 1.369 . S
C1212 C1216 1.531 . S
C1213 C1212 1.369 . S
C1213 C1214 1.410 . S
C1213 C1221 1.503 . S
C1214 C1213 1.410 . S
C1214 C1215 1.392 . S
C1214 C1217 1.511 . S
C1215 C1211 1.376 . S
C1215 C1214 1.392 . S
C1215 H1227 0.929 . S
C1216 C1212 1.531 . S
C1216 H1228 0.960 . S
C1216 H1229 0.962 . S
C1216 H1230 0.960 . S
C1217 C1214 1.511 . S
C1217 H1231 0.961 . S
C1217 H1232 0.961 . S
C1217 H1233 0.961 . S
C1218 C1219 1.370 . S
C1218 C1220 1.363 . S
C1218 H1234 0.931 . S
C1219 C1218 1.370 . S
C1219 C1223 1.408 . S
C1220 C1218 1.363 . S
C1220 C1221 1.370 . S
C1220 C1224 1.524 . S
C1221 C1213 1.503 . S
C1221 C1220 1.370 . S
C1221 C1222 1.403 . S
C1222 C1221 1.403 . S
C1222 C1223 1.404 . S
C1222 C1225 1.539 . S
C1223 C1219 1.408 . S
C1223 C1222 1.404 . S
C1223 H1235 0.930 . S
C1224 C1220 1.524 . S
C1224 H1236 0.956 . S
C1224 H1237 0.961 . S
C1224 H1238 0.961 . S
C1225 C1222 1.539 . S
C1225 H1239 0.958 . S
C1225 H1240 0.961 . S
C1225 H1241 0.960 . S
H1226 C1210 0.931 . S
H1227 C1215 0.929 . S
H1228 C1216 0.960 . S
H1229 C1216 0.962 . S
H1230 C1216 0.960 . S
H1231 C1217 0.961 . S
H1232 C1217 0.961 . S
H1233 C1217 0.961 . S
H1234 C1218 0.931 . S
H1235 C1223 0.930 . S
H1236 C1224 0.956 . S
H1237 C1224 0.961 . S
H1238 C1224 0.961 . S
H1239 C1225 0.958 . S
H1240 C1225 0.961 . S
H1241 C1225 0.960 . S
C1242 C1243 1.391 . S
C1242 C1244 1.394 . S
C1242 H1258 0.931 . S
C1243 C1242 1.391 . S
C1243 C1247 1.376 . S
C1244 C1242 1.394 . S
C1244 C1245 1.369 . S
C1244 C1248 1.531 . S
C1245 C1244 1.369 . S
C1245 C1246 1.410 . S
C1245 C1253 1.503 . S
C1246 C1245 1.410 . S
C1246 C1247 1.392 . S
C1246 C1249 1.511 . S
C1247 C1243 1.376 . S
C1247 C1246 1.392 . S
C1247 H1259 0.929 . S
C1248 C1244 1.531 . S
C1248 H1260 0.964 . S
C1248 H1261 0.959 . S
C1248 H1262 0.960 . S
C1249 C1246 1.511 . S
C1249 H1263 0.961 . S
C1249 H1264 0.961 . S
C1249 H1265 0.961 . S
C1250 C1251 1.370 . S
C1250 C1252 1.363 . S
C1250 H1266 0.931 . S
C1251 C1250 1.370 . S
C1251 C1255 1.408 . S
C1252 C1250 1.363 . S
C1252 C1253 1.370 1_554 S
C1252 C1256 1.538 . S
C1253 C1245 1.503 . S
C1253 C1252 1.370 1_556 S
C1253 C1254 1.405 . S
C1254 C1253 1.405 . S
C1254 C1255 1.395 1_556 S
C1254 C1257 1.546 . S
C1255 C1251 1.408 . S
C1255 C1254 1.395 1_554 S
C1255 H1267 0.930 . S
C1256 C1252 1.538 . S
C1256 H1268 0.955 . S
C1256 H1269 0.914 1_554 S
C1256 H1270 0.996 . S
C1257 C1254 1.546 . S
C1257 H1271 0.958 . S
C1257 H1272 0.961 . S
C1257 H1273 0.960 . S
H1258 C1242 0.931 . S
H1259 C1247 0.929 . S
H1260 C1248 0.964 . S
H1261 C1248 0.959 . S
H1262 C1248 0.960 . S
H1263 C1249 0.961 . S
H1264 C1249 0.961 . S
H1265 C1249 0.961 . S
H1266 C1250 0.931 . S
H1267 C1255 0.930 . S
H1268 C1256 0.955 . S
H1269 C1256 0.914 1_556 S
H1270 C1256 0.996 . S
H1271 C1257 0.958 . S
H1272 C1257 0.961 . S
H1273 C1257 0.960 . S
C1274 C1275 1.391 . S
C1274 C1276 1.394 . S
C1274 H1290 0.931 . S
C1275 C1274 1.391 . S
C1275 C1279 1.376 . S
C1276 C1274 1.394 . S
C1276 C1277 1.369 . S
C1276 C1280 1.531 . S
C1277 C1276 1.369 . S
C1277 C1278 1.410 . S
C1277 C1285 1.503 . S
C1278 C1277 1.410 . S
C1278 C1279 1.392 . S
C1278 C1281 1.511 . S
C1279 C1275 1.376 . S
C1279 C1278 1.392 . S
C1279 H1291 0.929 . S
C1280 C1276 1.531 . S
C1280 H1292 0.960 . S
C1280 H1293 0.962 . S
C1280 H1294 0.960 . S
C1281 C1278 1.511 . S
C1281 H1295 0.961 . S
C1281 H1296 0.961 . S
C1281 H1297 0.961 . S
C1282 C1283 1.370 . S
C1282 C1284 1.363 . S
C1282 H1298 0.931 . S
C1283 C1282 1.370 . S
C1283 C1287 1.408 . S
C1284 C1282 1.363 . S
C1284 C1285 1.370 . S
C1284 C1288 1.524 . S
C1285 C1277 1.503 . S
C1285 C1284 1.370 . S
C1285 C1286 1.403 . S
C1286 C1285 1.403 . S
C1286 C1287 1.404 . S
C1286 C1289 1.539 . S
C1287 C1283 1.408 . S
C1287 C1286 1.404 . S
C1287 H1299 0.930 . S
C1288 C1284 1.524 . S
C1288 H1300 0.956 . S
C1288 H1301 0.961 . S
C1288 H1302 0.961 . S
C1289 C1286 1.539 . S
C1289 H1303 0.958 . S
C1289 H1304 0.961 . S
C1289 H1305 0.960 . S
H1290 C1274 0.931 . S
H1291 C1279 0.929 . S
H1292 C1280 0.960 . S
H1293 C1280 0.962 . S
H1294 C1280 0.960 . S
H1295 C1281 0.961 . S
H1296 C1281 0.961 . S
H1297 C1281 0.961 . S
H1298 C1282 0.931 . S
H1299 C1287 0.930 . S
H1300 C1288 0.956 . S
H1301 C1288 0.961 . S
H1302 C1288 0.961 . S
H1303 C1289 0.958 . S
H1304 C1289 0.961 . S
H1305 C1289 0.960 . S
C1306 C1307 1.391 . S
C1306 C1308 1.394 . S
C1306 H1322 0.931 . S
C1307 C1306 1.391 . S
C1307 C1311 1.376 . S
C1308 C1306 1.394 . S
C1308 C1309 1.369 . S
C1308 C1312 1.531 . S
C1309 C1308 1.369 . S
C1309 C1310 1.410 . S
C1309 C1317 1.503 . S
C1310 C1309 1.410 . S
C1310 C1311 1.392 . S
C1310 C1313 1.511 . S
C1311 C1307 1.376 . S
C1311 C1310 1.392 . S
C1311 H1323 0.929 . S
C1312 C1308 1.531 . S
C1312 H1324 0.960 . S
C1312 H1325 0.962 . S
C1312 H1326 0.960 . S
C1313 C1310 1.511 . S
C1313 H1327 0.961 . S
C1313 H1328 0.961 . S
C1313 H1329 0.961 . S
C1314 C1315 1.370 . S
C1314 C1316 1.363 . S
C1314 H1330 0.931 . S
C1315 C1314 1.370 . S
C1315 C1319 1.408 . S
C1316 C1314 1.363 . S
C1316 C1317 1.370 . S
C1316 C1320 1.524 . S
C1317 C1309 1.503 . S
C1317 C1316 1.370 . S
C1317 C1318 1.403 . S
C1318 C1317 1.403 . S
C1318 C1319 1.404 . S
C1318 C1321 1.539 . S
C1319 C1315 1.408 . S
C1319 C1318 1.404 . S
C1319 H1331 0.930 . S
C1320 C1316 1.524 . S
C1320 H1332 0.956 . S
C1320 H1333 0.961 . S
C1320 H1334 0.961 . S
C1321 C1318 1.539 . S
C1321 H1335 0.958 . S
C1321 H1336 0.961 . S
C1321 H1337 0.960 . S
H1322 C1306 0.931 . S
H1323 C1311 0.929 . S
H1324 C1312 0.960 . S
H1325 C1312 0.962 . S
H1326 C1312 0.960 . S
H1327 C1313 0.961 . S
H1328 C1313 0.961 . S
H1329 C1313 0.961 . S
H1330 C1314 0.931 . S
H1331 C1319 0.930 . S
H1332 C1320 0.956 . S
H1333 C1320 0.961 . S
H1334 C1320 0.961 . S
H1335 C1321 0.958 . S
H1336 C1321 0.961 . S
H1337 C1321 0.960 . S
C1338 C1339 1.391 . S
C1338 C1340 1.394 . S
C1338 H1354 0.931 . S
C1339 C1338 1.391 . S
C1339 C1343 1.376 . S
C1340 C1338 1.394 . S
C1340 C1341 1.369 . S
C1340 C1344 1.531 . S
C1341 C1340 1.369 . S
C1341 C1342 1.410 . S
C1341 C1349 1.503 . S
C1342 C1341 1.410 . S
C1342 C1343 1.392 . S
C1342 C1345 1.511 . S
C1343 C1339 1.376 . S
C1343 C1342 1.392 . S
C1343 H1355 0.929 . S
C1344 C1340 1.531 . S
C1344 H1356 0.960 . S
C1344 H1357 0.962 . S
C1344 H1358 0.960 . S
C1345 C1342 1.511 . S
C1345 H1359 0.961 . S
C1345 H1360 0.961 . S
C1345 H1361 0.961 . S
C1346 C1347 1.370 . S
C1346 C1348 1.363 . S
C1346 H1362 0.931 . S
C1347 C1346 1.370 . S
C1347 C1351 1.408 . S
C1348 C1346 1.363 . S
C1348 C1349 1.370 . S
C1348 C1352 1.524 . S
C1349 C1341 1.503 . S
C1349 C1348 1.370 . S
C1349 C1350 1.403 . S
C1350 C1349 1.403 . S
C1350 C1351 1.404 . S
C1350 C1353 1.539 . S
C1351 C1347 1.408 . S
C1351 C1350 1.404 . S
C1351 H1363 0.930 . S
C1352 C1348 1.524 . S
C1352 H1364 0.956 . S
C1352 H1365 0.961 . S
C1352 H1366 0.961 . S
C1353 C1350 1.539 . S
C1353 H1367 0.958 . S
C1353 H1368 0.961 . S
C1353 H1369 0.960 . S
H1354 C1338 0.931 . S
H1355 C1343 0.929 . S
H1356 C1344 0.960 . S
H1357 C1344 0.962 . S
H1358 C1344 0.960 . S
H1359 C1345 0.961 . S
H1360 C1345 0.961 . S
H1361 C1345 0.961 . S
H1362 C1346 0.931 . S
H1363 C1351 0.930 . S
H1364 C1352 0.956 . S
H1365 C1352 0.961 . S
H1366 C1352 0.961 . S
H1367 C1353 0.958 . S
H1368 C1353 0.961 . S
H1369 C1353 0.960 . S
C1370 C1371 1.391 . S
C1370 C1372 1.394 . S
C1370 H1386 0.931 . S
C1371 C1370 1.391 . S
C1371 C1375 1.376 . S
C1372 C1370 1.394 . S
C1372 C1373 1.369 . S
C1372 C1376 1.531 . S
C1373 C1372 1.369 . S
C1373 C1374 1.410 . S
C1373 C1381 1.503 . S
C1374 C1373 1.410 . S
C1374 C1375 1.392 . S
C1374 C1377 1.511 . S
C1375 C1371 1.376 . S
C1375 C1374 1.392 . S
C1375 H1387 0.929 . S
C1376 C1372 1.531 . S
C1376 H1388 0.960 . S
C1376 H1389 0.962 . S
C1376 H1390 0.960 . S
C1377 C1374 1.511 . S
C1377 H1391 0.961 . S
C1377 H1392 0.961 . S
C1377 H1393 0.961 . S
C1378 C1379 1.370 . S
C1378 C1380 1.363 . S
C1378 H1394 0.931 . S
C1379 C1378 1.370 . S
C1379 C1383 1.408 . S
C1380 C1378 1.363 . S
C1380 C1381 1.370 . S
C1380 C1384 1.524 . S
C1381 C1373 1.503 . S
C1381 C1380 1.370 . S
C1381 C1382 1.403 . S
C1382 C1381 1.403 . S
C1382 C1383 1.404 . S
C1382 C1385 1.539 . S
C1383 C1379 1.408 . S
C1383 C1382 1.404 . S
C1383 H1395 0.930 . S
C1384 C1380 1.524 . S
C1384 H1396 0.956 . S
C1384 H1397 0.961 . S
C1384 H1398 0.961 . S
C1385 C1382 1.539 . S
C1385 H1399 0.958 . S
C1385 H1400 0.961 . S
C1385 H1401 0.960 . S
H1386 C1370 0.931 . S
H1387 C1375 0.929 . S
H1388 C1376 0.960 . S
H1389 C1376 0.962 . S
H1390 C1376 0.960 . S
H1391 C1377 0.961 . S
H1392 C1377 0.961 . S
H1393 C1377 0.961 . S
H1394 C1378 0.931 . S
H1395 C1383 0.930 . S
H1396 C1384 0.956 . S
H1397 C1384 0.961 . S
H1398 C1384 0.961 . S
H1399 C1385 0.958 . S
H1400 C1385 0.961 . S
H1401 C1385 0.960 . S
C1402 C1403 1.391 . S
C1402 C1404 1.394 . S
C1402 H1418 0.931 . S
C1403 C1402 1.391 . S
C1403 C1407 1.376 . S
C1404 C1402 1.394 . S
C1404 C1405 1.369 . S
C1404 C1408 1.531 . S
C1405 C1404 1.369 . S
C1405 C1406 1.410 . S
C1405 C1413 1.503 . S
C1406 C1405 1.410 . S
C1406 C1407 1.392 . S
C1406 C1409 1.511 . S
C1407 C1403 1.376 . S
C1407 C1406 1.392 . S
C1407 H1419 0.929 . S
C1408 C1404 1.531 . S
C1408 H1420 0.960 . S
C1408 H1421 0.962 . S
C1408 H1422 0.960 . S
C1409 C1406 1.511 . S
C1409 H1423 0.961 . S
C1409 H1424 0.961 . S
C1409 H1425 0.961 . S
C1410 C1411 1.370 . S
C1410 C1412 1.363 . S
C1410 H1426 0.931 . S
C1411 C1410 1.370 . S
C1411 C1415 1.408 . S
C1412 C1410 1.363 . S
C1412 C1413 1.370 . S
C1412 C1416 1.524 . S
C1413 C1405 1.503 . S
C1413 C1412 1.370 . S
C1413 C1414 1.403 . S
C1414 C1413 1.403 . S
C1414 C1415 1.404 . S
C1414 C1417 1.539 . S
C1415 C1411 1.408 . S
C1415 C1414 1.404 . S
C1415 H1427 0.930 . S
C1416 C1412 1.524 . S
C1416 H1428 0.956 . S
C1416 H1429 0.961 . S
C1416 H1430 0.961 . S
C1417 C1414 1.539 . S
C1417 H1431 0.958 . S
C1417 H1432 0.961 . S
C1417 H1433 0.960 . S
H1418 C1402 0.931 . S
H1419 C1407 0.929 . S
H1420 C1408 0.960 . S
H1421 C1408 0.962 . S
H1422 C1408 0.960 . S
H1423 C1409 0.961 . S
H1424 C1409 0.961 . S
H1425 C1409 0.961 . S
H1426 C1410 0.931 . S
H1427 C1415 0.930 . S
H1428 C1416 0.956 . S
H1429 C1416 0.961 . S
H1430 C1416 0.961 . S
H1431 C1417 0.958 . S
H1432 C1417 0.961 . S
H1433 C1417 0.960 . S
C1434 C1435 1.391 . S
C1434 C1436 1.394 . S
C1434 H1450 0.931 . S
C1435 C1434 1.391 . S
C1435 C1439 1.376 . S
C1436 C1434 1.394 . S
C1436 C1437 1.369 . S
C1436 C1440 1.531 . S
C1437 C1436 1.369 . S
C1437 C1438 1.410 . S
C1437 C1445 1.503 . S
C1438 C1437 1.410 . S
C1438 C1439 1.392 . S
C1438 C1441 1.511 . S
C1439 C1435 1.376 . S
C1439 C1438 1.392 . S
C1439 H1451 0.929 . S
C1440 C1436 1.531 . S
C1440 H1452 0.960 . S
C1440 H1453 0.962 . S
C1440 H1454 0.960 . S
C1441 C1438 1.511 . S
C1441 H1455 0.961 . S
C1441 H1456 0.961 . S
C1441 H1457 0.961 . S
C1442 C1443 1.370 . S
C1442 C1444 1.363 . S
C1442 H1458 0.931 . S
C1443 C1442 1.370 . S
C1443 C1447 1.408 . S
C1444 C1442 1.363 . S
C1444 C1445 1.370 . S
C1444 C1448 1.524 . S
C1445 C1437 1.503 . S
C1445 C1444 1.370 . S
C1445 C1446 1.403 . S
C1446 C1445 1.403 . S
C1446 C1447 1.404 . S
C1446 C1449 1.539 . S
C1447 C1443 1.408 . S
C1447 C1446 1.404 . S
C1447 H1459 0.930 . S
C1448 C1444 1.524 . S
C1448 H1460 0.956 . S
C1448 H1461 0.961 . S
C1448 H1462 0.961 . S
C1449 C1446 1.539 . S
C1449 H1463 0.958 . S
C1449 H1464 0.961 . S
C1449 H1465 0.960 . S
H1450 C1434 0.931 . S
H1451 C1439 0.929 . S
H1452 C1440 0.960 . S
H1453 C1440 0.962 . S
H1454 C1440 0.960 . S
H1455 C1441 0.961 . S
H1456 C1441 0.961 . S
H1457 C1441 0.961 . S
H1458 C1442 0.931 . S
H1459 C1447 0.930 . S
H1460 C1448 0.956 . S
H1461 C1448 0.961 . S
H1462 C1448 0.961 . S
H1463 C1449 0.958 . S
H1464 C1449 0.961 . S
H1465 C1449 0.960 . S
C1466 C1467 1.391 . S
C1466 C1468 1.394 . S
C1466 H1482 0.931 . S
C1467 C1466 1.391 . S
C1467 C1471 1.376 . S
C1468 C1466 1.394 . S
C1468 C1469 1.369 . S
C1468 C1472 1.531 . S
C1469 C1468 1.369 . S
C1469 C1470 1.410 . S
C1469 C1477 1.503 1_554 S
C1470 C1469 1.410 . S
C1470 C1471 1.392 . S
C1470 C1473 1.511 1_554 S
C1471 C1467 1.376 . S
C1471 C1470 1.392 . S
C1471 H1483 0.929 . S
C1472 C1468 1.531 . S
C1472 H1484 0.960 . S
C1472 H1485 0.962 . S
C1472 H1486 0.960 . S
C1473 C1470 1.511 1_556 S
C1473 H1487 0.961 . S
C1473 H1488 0.961 . S
C1473 H1489 0.961 . S
C1474 C1475 1.370 . S
C1474 C1476 1.363 . S
C1474 H1490 0.931 . S
C1475 C1474 1.370 . S
C1475 C1479 1.408 . S
C1476 C1474 1.363 . S
C1476 C1477 1.370 . S
C1476 C1480 1.524 1_556 S
C1477 C1469 1.503 1_556 S
C1477 C1476 1.370 . S
C1477 C1478 1.403 . S
C1478 C1477 1.403 . S
C1478 C1479 1.404 . S
C1478 C1481 1.539 . S
C1479 C1475 1.408 . S
C1479 C1478 1.404 . S
C1479 H1491 0.930 . S
C1480 C1476 1.524 1_554 S
C1480 H1492 0.956 . S
C1480 H1493 0.961 . S
C1480 H1494 0.961 1_554 S
C1481 C1478 1.539 . S
C1481 H1495 0.958 . S
C1481 H1496 0.961 . S
C1481 H1497 0.960 . S
H1482 C1466 0.931 . S
H1483 C1471 0.929 . S
H1484 C1472 0.960 . S
H1485 C1472 0.962 . S
H1486 C1472 0.960 . S
H1487 C1473 0.961 . S
H1488 C1473 0.961 . S
H1489 C1473 0.961 . S
H1490 C1474 0.931 . S
H1491 C1479 0.930 . S
H1492 C1480 0.956 . S
H1493 C1480 0.961 . S
H1494 C1480 0.961 1_556 S
H1495 C1481 0.958 . S
H1496 C1481 0.961 . S
H1497 C1481 0.960 . S
C1498 C1499 1.391 . S
C1498 C1500 1.394 . S
C1498 H1514 0.931 . S
C1499 C1498 1.391 . S
C1499 C1503 1.376 . S
C1500 C1498 1.394 . S
C1500 C1501 1.369 . S
C1500 C1504 1.531 . S
C1501 C1500 1.369 . S
C1501 C1502 1.410 . S
C1501 C1509 1.503 . S
C1502 C1501 1.410 . S
C1502 C1503 1.392 . S
C1502 C1505 1.511 . S
C1503 C1499 1.376 . S
C1503 C1502 1.392 . S
C1503 H1515 0.929 . S
C1504 C1500 1.531 . S
C1504 H1516 0.960 . S
C1504 H1517 0.962 . S
C1504 H1518 0.960 . S
C1505 C1502 1.511 . S
C1505 H1519 0.961 . S
C1505 H1520 0.961 . S
C1505 H1521 0.961 . S
C1506 C1507 1.370 . S
C1506 C1508 1.363 . S
C1506 H1522 0.931 . S
C1507 C1506 1.370 . S
C1507 C1511 1.408 . S
C1508 C1506 1.363 . S
C1508 C1509 1.370 . S
C1508 C1512 1.524 . S
C1509 C1501 1.503 . S
C1509 C1508 1.370 . S
C1509 C1510 1.403 . S
C1510 C1509 1.403 . S
C1510 C1511 1.404 . S
C1510 C1513 1.539 . S
C1511 C1507 1.408 . S
C1511 C1510 1.404 . S
C1511 H1523 0.930 . S
C1512 C1508 1.524 . S
C1512 H1524 0.956 . S
C1512 H1525 0.961 . S
C1512 H1526 0.961 . S
C1513 C1510 1.539 . S
C1513 H1527 0.958 . S
C1513 H1528 0.961 . S
C1513 H1529 0.960 . S
H1514 C1498 0.931 . S
H1515 C1503 0.929 . S
H1516 C1504 0.960 . S
H1517 C1504 0.962 . S
H1518 C1504 0.960 . S
H1519 C1505 0.961 . S
H1520 C1505 0.961 . S
H1521 C1505 0.961 . S
H1522 C1506 0.931 . S
H1523 C1511 0.930 . S
H1524 C1512 0.956 . S
H1525 C1512 0.961 . S
H1526 C1512 0.961 . S
H1527 C1513 0.958 . S
H1528 C1513 0.961 . S
H1529 C1513 0.960 . S
C771 C754 1.590 . S
C763 C1 1.150 . S
C795 C169 1.306 . S
C803 C689 1.716 . S
C827 C283 1.391 . S
C835 C707 1.698 . S
C859 C397 1.157 . S
C867 C720 1.541 . S
C899 C728 1.429 . S
C891 C457 1.154 . S
C923 C571 1.182 . S
C931 C740 1.450 . S
C955 C115 1.139 . S
C963 C702 1.586 . S
C987 C229 1.081 . S
C995 C715 1.452 . S
C1019 C343 1.162 . S
C1027 C733 1.427 . S
C1059 C739 1.559 . S
C1051 C511 1.160 . S
C1091 C759 1.681 . S
C1083 C625 1.363 . S
C1123 C694 1.729 . S
C1115 C55 1.406 . S
C1147 C29 1.338 . S
C1155 C700 1.540 . S
C1179 C125 1.009 . S
C1187 C713 1.646 . S
C1219 C727 1.579 . S
C1211 C239 0.834 . S
C1243 C353 0.855 . S
C1251 C741 1.579 . S
C1283 C753 1.466 . S
C1275 C485 1.296 . S
C1315 C688 1.535 . S
C1307 C599 1.248 . S
C1347 C752 1.543 . S
C1339 C143 1.254 . S
C1371 C257 1.230 . S
C1379 C687 1.533 . S
C1411 C701 1.469 . S
C1403 C371 1.223 . S
C1435 C467 0.883 . S
C1443 C714 1.558 . S
C1467 C581 0.929 . S
C1475 C726 1.585 . S
C1499 C11 1.017 . S
C1507 C746 1.634 . S
