# Generated by pormake.
# Topology pth, (4,4)-cn, num edge types: 1
# Building blocks:
#     Node 0, Type 0, BuildingBlock: QUQFOY_clean_sbu_1, # of connection points: 4
#     Node 1, Type 0, BuildingBlock: QUQFOY_clean_sbu_1, # of connection points: 4
#     Node 2, Type 0, BuildingBlock: QUQFOY_clean_sbu_1, # of connection points: 4
#     Node 3, Type 1, BuildingBlock: NAWXER_clean_linker_0, # of connection points: 4
#     Node 4, Type 1, BuildingBlock: NAWXER_clean_linker_0, # of connection points: 4
#     Node 5, Type 1, BuildingBlock: NAWXER_clean_linker_0, # of connection points: 4
#     Edge 6, Type (0, 1), BuildingBlock: TEMPAE_clean_linker_10, # of connection points: 2
#     Edge 7, Type (0, 1), BuildingBlock: TEMPAE_clean_linker_10, # of connection points: 2
#     Edge 8, Type (0, 1), BuildingBlock: TEMPAE_clean_linker_10, # of connection points: 2
#     Edge 9, Type (0, 1), BuildingBlock: TEMPAE_clean_linker_10, # of connection points: 2
#     Edge 10, Type (0, 1), BuildingBlock: TEMPAE_clean_linker_10, # of connection points: 2
#     Edge 11, Type (0, 1), BuildingBlock: TEMPAE_clean_linker_10, # of connection points: 2
#     Edge 12, Type (0, 1), BuildingBlock: TEMPAE_clean_linker_10, # of connection points: 2
#     Edge 13, Type (0, 1), BuildingBlock: TEMPAE_clean_linker_10, # of connection points: 2
#     Edge 14, Type (0, 1), BuildingBlock: TEMPAE_clean_linker_10, # of connection points: 2
#     Edge 15, Type (0, 1), BuildingBlock: TEMPAE_clean_linker_10, # of connection points: 2
#     Edge 16, Type (0, 1), BuildingBlock: TEMPAE_clean_linker_10, # of connection points: 2
#     Edge 17, Type (0, 1), BuildingBlock: TEMPAE_clean_linker_10, # of connection points: 2
# Relax obj value: 0.022
# Max RMSD: 0.123
# Mean RMSD: 0.072
data_MOF--net-pth--node1-QUQFOY_clean_sbu_1--node2-NAWXER_clean_linker_0--edge1-TEMPAE_clean_linker_10
_symmetry_space_group_name_H-M    P1
_symmetry_Int_Tables_number       1
_symmetry_cell_setting            triclinic
loop_
_symmetry_equiv_pos_as_xyz
'x, y, z'
_cell_length_a     28.217482
_cell_length_b     30.624059
_cell_length_c     68.288162
_cell_angle_alpha  89.990742
_cell_angle_beta   89.990492
_cell_angle_gamma 120.1214
loop_
_atom_site_label
_atom_site_type_symbol
_atom_site_fract_x
_atom_site_fract_y
_atom_site_fract_z
_atom_type_partial_charge
O0 O 0.03674 0.07456 0.05752 0.0
Cd1 Cd 0.97088 0.02629 0.0746 0.0
Cd2 Cd 0.02526 0.97579 0.07513 0.0
O3 O 0.08815 0.04035 0.06269 0.0
O4 O 0.93813 0.06794 0.08255 0.0
O5 O 0.97582 0.03949 0.10362 0.0
C6 C 0.95315 0.06641 0.10025 0.0
C7 C 0.03775 0.93592 0.10202 0.0
C8 C 0.08172 0.0751 0.05527 0.0
C9 C 0.91742 0.92747 0.05405 0.0
O10 O 0.96235 0.92826 0.0569 0.0
O11 O 0.90987 0.96172 0.06135 0.0
O12 O 0.05762 0.93535 0.08507 0.0
O13 O 0.01294 0.96148 0.10397 0.0
O14 O 0.95247 0.0316 0.41761 0.0
Cd15 Cd 0.02175 0.05409 0.40088 0.0
Cd16 Cd 0.9819 0.95287 0.401 0.0
O17 O 0.91458 0.9491 0.41452 0.0
O18 O 0.04387 0.12457 0.39335 0.0
O19 O 0.01805 0.06298 0.37176 0.0
C20 C 0.03334 0.10962 0.37542 0.0
C21 C 0.97181 0.89646 0.37611 0.0
C22 C 0.91314 0.98729 0.42103 0.0
C23 C 0.08932 0.01963 0.42176 0.0
O24 O 0.04993 0.97544 0.41829 0.0
O25 O 0.08861 0.0579 0.41492 0.0
O26 O 0.96079 0.88227 0.39411 0.0
O27 O 0.98653 0.94276 0.37201 0.0
O28 O 0.92529 0.96028 0.72303 0.0
Cd29 Cd 0.97767 0.95232 0.74192 0.0
Cd30 Cd 0.0229 0.05025 0.74161 0.0
O31 O 0.94954 0.03863 0.73061 0.0
O32 O 0.93475 0.88093 0.75088 0.0
O33 O 0.96195 0.94618 0.77083 0.0
C34 C 0.93495 0.89787 0.7682 0.0
C35 C 0.06686 0.10256 0.76829 0.0
C36 C 0.91789 0.99782 0.72164 0.0
C37 C 0.08062 0.0047 0.72043 0.0
O38 O 0.07288 0.04204 0.72171 0.0
O39 O 0.05054 0.96444 0.72997 0.0
O40 O 0.06641 0.1209 0.75132 0.0
O41 O 0.0401 0.05404 0.77032 0.0
C42 C 0.96475 0.3353 0.26787 0.0
C43 C 0.01013 0.34946 0.28018 0.0
C44 C 0.96033 0.37157 0.25683 0.0
C45 C 0.00131 0.42265 0.25785 0.0
C46 C 0.05072 0.40072 0.28133 0.0
C47 C 0.04613 0.43697 0.27037 0.0
C48 C 0.9977 0.46147 0.24608 0.0
C49 C 0.02305 0.36194 0.20398 0.0
C50 C 0.97623 0.33236 0.19253 0.0
C51 C 0.02793 0.40291 0.21469 0.0
C52 C 0.98614 0.41509 0.21408 0.0
C53 C 0.93468 0.34491 0.19185 0.0
C54 C 0.93986 0.38621 0.20239 0.0
C55 C 0.9904 0.45785 0.22556 0.0
C56 C 0.0498 0.66816 0.2041 0.0
C57 C 0.0077 0.66148 0.19121 0.0
C58 C 0.04516 0.62777 0.21512 0.0
C59 C 0.99871 0.57962 0.21334 0.0
C60 C 0.96126 0.61288 0.18944 0.0
C61 C 0.9572 0.57225 0.2002 0.0
C62 C 0.99376 0.53717 0.22523 0.0
C63 C 0.95667 0.63243 0.26466 0.0
C64 C 0.99152 0.65379 0.28089 0.0
C65 C 0.95868 0.59543 0.25334 0.0
C66 C 0.99669 0.57982 0.25758 0.0
C67 C 0.02889 0.63745 0.28533 0.0
C68 C 0.03138 0.60086 0.27381 0.0
C69 C 0.99806 0.53956 0.24587 0.0
H70 H 0.93285 0.29611 0.26666 0.0
H71 H 0.92481 0.35973 0.24755 0.0
H72 H 0.08568 0.41291 0.29094 0.0
H73 H 0.07797 0.47623 0.2715 0.0
H74 H 0.05566 0.35309 0.20478 0.0
H75 H 0.06434 0.42515 0.22343 0.0
H76 H 0.89853 0.32319 0.18293 0.0
H77 H 0.90735 0.39521 0.20164 0.0
H78 H 0.08682 0.70447 0.20554 0.0
H79 H 0.07811 0.63404 0.22496 0.0
H80 H 0.92754 0.60619 0.17996 0.0
H81 H 0.92101 0.53532 0.19865 0.0
H82 H 0.9276 0.64417 0.26067 0.0
H83 H 0.92973 0.57849 0.24145 0.0
H84 H 0.05557 0.65217 0.29795 0.0
H85 H 0.06041 0.58889 0.27762 0.0
N86 N 0.00092 0.50203 0.25548 0.0
N87 N 0.98905 0.49601 0.21586 0.0
C88 C 0.668 0.00877 0.53634 0.0
C89 C 0.64507 0.9702 0.52219 0.0
C90 C 0.63438 0.01588 0.54944 0.0
C91 C 0.57726 0.98424 0.54875 0.0
C92 C 0.58803 0.93769 0.52195 0.0
C93 C 0.5545 0.94482 0.53503 0.0
C94 C 0.5404 0.99529 0.56043 0.0
C95 C 0.62569 0.95735 0.60904 0.0
C96 C 0.66249 1.00077 0.61951 0.0
C97 C 0.58951 0.95933 0.59555 0.0
C98 C 0.58918 0.00453 0.59269 0.0
C99 C 0.66326 0.04631 0.61613 0.0
C100 C 0.62631 0.04798 0.603 0.0
C101 C 0.54658 0.00563 0.58064 0.0
C102 C 0.33333 0.99288 0.60232 0.0
C103 C 0.35131 0.02066 0.61988 0.0
C104 C 0.37079 0.99194 0.58917 0.0
C105 C 0.42742 0.02064 0.59276 0.0
C106 C 0.40805 0.04929 0.6234 0.0
C107 C 0.44546 0.04965 0.60995 0.0
C108 C 0.46789 0.01574 0.58041 0.0
C109 C 0.38265 0.06209 0.53577 0.0
C110 C 0.35909 0.02894 0.51987 0.0
C111 C 0.41564 0.05497 0.54921 0.0
C112 C 0.42445 0.01388 0.54719 0.0
C113 C 0.36765 0.98777 0.51798 0.0
C114 C 0.39998 0.98036 0.53148 0.0
C115 C 0.46358 0.00821 0.55988 0.0
H116 H 0.71173 0.03496 0.53669 0.0
H117 H 0.65293 0.04759 0.55942 0.0
H118 H 0.56919 0.90728 0.51139 0.0
H119 H 0.5105 0.92012 0.53415 0.0
H120 H 0.62455 0.92188 0.61147 0.0
H121 H 0.56053 0.92527 0.5879 0.0
H122 H 0.69111 0.0801 0.62416 0.0
H123 H 0.62614 0.08303 0.60109 0.0
H124 H 0.29018 0.97096 0.5988 0.0
H125 H 0.355 0.9673 0.57658 0.0
H126 H 0.42395 0.07025 0.63687 0.0
H127 H 0.48876 0.07153 0.61335 0.0
H128 H 0.37695 0.09433 0.53745 0.0
H129 H 0.4354 0.08233 0.56082 0.0
H130 H 0.34936 0.96128 0.506 0.0
H131 H 0.40642 0.9486 0.5295 0.0
N132 N 0.4995 0.99749 0.55087 0.0
N133 N 0.5099 0.0149 0.58983 0.0
C134 C 0.36511 0.33027 0.88047 0.0
C135 C 0.33298 0.34189 0.86817 0.0
C136 C 0.40657 0.36782 0.89197 0.0
C137 C 0.41667 0.41762 0.8913 0.0
C138 C 0.34341 0.39182 0.8675 0.0
C139 C 0.38518 0.42939 0.87883 0.0
C140 C 0.46051 0.45798 0.90321 0.0
C141 C 0.33195 0.35263 0.94661 0.0
C142 C 0.35233 0.33426 0.96129 0.0
C143 C 0.36787 0.39112 0.93401 0.0
C144 C 0.42472 0.41119 0.93566 0.0
C145 C 0.40915 0.35421 0.96282 0.0
C146 C 0.44492 0.39233 0.95017 0.0
C147 C 0.46402 0.45479 0.92374 0.0
C148 C 0.62639 0.66766 0.94634 0.0
C149 C 0.65069 0.65791 0.96246 0.0
C150 C 0.59225 0.6287 0.9336 0.0
C151 C 0.58251 0.57946 0.93659 0.0
C152 C 0.6408 0.6086 0.96541 0.0
C153 C 0.60688 0.56977 0.95265 0.0
C154 C 0.54343 0.53699 0.92414 0.0
C155 C 0.68211 0.63798 0.88456 0.0
C156 C 0.66833 0.65572 0.86772 0.0
C157 C 0.64135 0.60027 0.89618 0.0
C158 C 0.58564 0.58044 0.89164 0.0
C159 C 0.61252 0.63507 0.86301 0.0
C160 C 0.57174 0.59795 0.87484 0.0
C161 C 0.54193 0.5391 0.90348 0.0
H162 H 0.35796 0.2921 0.88126 0.0
H163 H 0.43097 0.35807 0.90128 0.0
H164 H 0.31986 0.40201 0.85793 0.0
H165 H 0.39261 0.46766 0.87799 0.0
H166 H 0.28836 0.33846 0.9453 0.0
H167 H 0.35123 0.40616 0.92342 0.0
H168 H 0.42596 0.34048 0.9739 0.0
H169 H 0.48863 0.40751 0.95183 0.0
H170 H 0.63265 0.70513 0.94386 0.0
H171 H 0.57254 0.63687 0.9217 0.0
H172 H 0.65948 0.60005 0.97756 0.0
H173 H 0.5996 0.53202 0.95535 0.0
H174 H 0.72448 0.65306 0.88878 0.0
H175 H 0.65366 0.58619 0.90855 0.0
H176 H 0.60017 0.64674 0.84993 0.0
H177 H 0.52919 0.5827 0.87077 0.0
N178 N 0.4998 0.49985 0.89387 0.0
N179 N 0.50507 0.49459 0.93335 0.0
C180 C 0.9674 0.09882 0.13478 0.0
C181 C 0.94876 0.09826 0.11568 0.0
C182 C 0.96934 0.13338 0.14877 0.0
C183 C 0.95272 0.16841 0.14346 0.0
C184 C 0.93197 0.1667 0.12444 0.0
C185 C 0.93001 0.13153 0.11083 0.0
C186 C 0.991 0.13362 0.16901 0.0
C187 C 0.91402 0.20349 0.11815 0.0
C188 C 0.9225 0.24248 0.18121 0.0
C189 C 0.97123 0.28927 0.18092 0.0
C190 C 0.91652 0.20209 0.16964 0.0
C191 C 0.96004 0.20897 0.15728 0.0
C192 C 0.00969 0.25591 0.1572 0.0
C193 C 0.01478 0.29538 0.16912 0.0
C194 C 0.86329 0.15242 0.17034 0.0
C195 C 0.05683 0.265 0.14406 0.0
H196 H 0.98185 0.07318 0.13866 0.0
H197 H 0.91547 0.13139 0.09613 0.0
H198 H 0.03067 0.16896 0.17118 0.0
H199 H 0.96227 0.13275 0.1803 0.0
H200 H 0.99737 0.10104 0.1714 0.0
H201 H 0.89636 0.19556 0.10316 0.0
H202 H 0.88302 0.2022 0.12848 0.0
H203 H 0.94962 0.24248 0.11846 0.0
H204 H 0.889 0.23749 0.19051 0.0
H205 H 0.05233 0.33164 0.16874 0.0
H206 H 0.87135 0.12109 0.17325 0.0
H207 H 0.84244 0.14488 0.15593 0.0
H208 H 0.83505 0.15202 0.18176 0.0
H209 H 0.06867 0.23603 0.14675 0.0
H210 H 0.09337 0.30294 0.1463 0.0
H211 H 0.04403 0.26158 0.1285 0.0
C212 C 0.86481 0.02285 0.44016 0.0
C213 C 0.86773 0.98058 0.43394 0.0
C214 C 0.82573 0.01818 0.45394 0.0
C215 C 0.78864 0.97008 0.46175 0.0
C216 C 0.79007 0.92698 0.45509 0.0
C217 C 0.82958 0.93272 0.44122 0.0
C218 C 0.82521 0.06501 0.46056 0.0
C219 C 0.75099 0.87507 0.46306 0.0
C220 C 0.73118 0.97179 0.51181 0.0
C221 C 0.68013 0.96609 0.50693 0.0
C222 C 0.7662 0.97151 0.49728 0.0
C223 C 0.74978 0.96551 0.4774 0.0
C224 C 0.69768 0.95833 0.47243 0.0
C225 C 0.6635 0.95876 0.48725 0.0
C226 C 0.82141 0.97904 0.50315 0.0
C227 C 0.67882 0.952 0.4514 0.0
H228 H 0.89388 0.05995 0.43455 0.0
H229 H 0.83154 0.89986 0.43652 0.0
H230 H 0.78375 0.06002 0.45859 0.0
H231 H 0.83512 0.0714 0.47639 0.0
H232 H 0.85514 0.09924 0.45239 0.0
H233 H 0.75533 0.84508 0.45555 0.0
H234 H 0.75861 0.87383 0.47893 0.0
H235 H 0.70806 0.86658 0.46145 0.0
H236 H 0.74393 0.97685 0.52701 0.0
H237 H 0.62441 0.95503 0.48334 0.0
H238 H 0.85439 0.01494 0.49688 0.0
H239 H 0.82681 0.94812 0.49718 0.0
H240 H 0.8267 0.98027 0.5193 0.0
H241 H 0.7052 0.9873 0.44316 0.0
H242 H 0.63559 0.94302 0.45012 0.0
H243 H 0.68282 0.92146 0.44427 0.0
C244 C 0.86111 0.81338 0.7795 0.0
C245 C 0.90173 0.86291 0.78408 0.0
C246 C 0.82554 0.78085 0.79392 0.0
C247 C 0.83131 0.79787 0.81352 0.0
C248 C 0.87347 0.84725 0.81839 0.0
C249 C 0.90788 0.87942 0.80356 0.0
C250 C 0.78063 0.72875 0.78806 0.0
C251 C 0.88162 0.86633 0.8392 0.0
C252 C 0.70397 0.73094 0.8453 0.0
C253 C 0.71184 0.69438 0.8548 0.0
C254 C 0.74303 0.76551 0.83215 0.0
C255 C 0.79182 0.76432 0.82866 0.0
C256 C 0.80111 0.7289 0.83872 0.0
C257 C 0.76082 0.69405 0.85148 0.0
C258 C 0.73131 0.80236 0.82155 0.0
C259 C 0.85296 0.72689 0.8356 0.0
H260 H 0.85585 0.80043 0.76446 0.0
H261 H 0.93931 0.9176 0.8072 0.0
H262 H 0.78374 0.69964 0.7967 0.0
H263 H 0.74005 0.72467 0.79128 0.0
H264 H 0.78222 0.72103 0.77225 0.0
H265 H 0.91846 0.90437 0.84078 0.0
H266 H 0.84524 0.86829 0.84408 0.0
H267 H 0.88575 0.83976 0.84914 0.0
H268 H 0.66696 0.73239 0.84804 0.0
H269 H 0.76725 0.66566 0.85845 0.0
H270 H 0.72918 0.79528 0.80555 0.0
H271 H 0.76499 0.84158 0.82406 0.0
H272 H 0.69216 0.79941 0.82631 0.0
H273 H 0.85393 0.71445 0.82043 0.0
H274 H 0.85632 0.70052 0.84592 0.0
H275 H 0.8894 0.76502 0.83744 0.0
C276 C 0.99692 0.88348 0.13199 0.0
C277 C 0.03902 0.90406 0.11803 0.0
C278 C 0.99241 0.84641 0.14521 0.0
C279 C 0.03175 0.8306 0.14475 0.0
C280 C 0.07627 0.85368 0.13149 0.0
C281 C 0.07894 0.88963 0.11811 0.0
C282 C 0.94377 0.82206 0.15885 0.0
C283 C 0.11991 0.83892 0.13089 0.0
C284 C 0.03911 0.754 0.18731 0.0
C285 C 0.01262 0.70485 0.17952 0.0
C286 C 0.04577 0.79533 0.17619 0.0
C287 C 0.02419 0.7873 0.15699 0.0
C288 C 0.9963 0.73779 0.14919 0.0
C289 C 0.99151 0.69737 0.16042 0.0
C290 C 0.0766 0.84767 0.18489 0.0
C291 C 0.97195 0.7275 0.12886 0.0
H292 H 0.96569 0.89422 0.13185 0.0
H293 H 0.11172 0.90571 0.1074 0.0
H294 H 0.91689 0.78197 0.1546 0.0
H295 H 0.95735 0.82236 0.17411 0.0
H296 H 0.91923 0.84126 0.15849 0.0
H297 H 0.15481 0.86425 0.12129 0.0
H298 H 0.13573 0.83975 0.14584 0.0
H299 H 0.10202 0.79974 0.12534 0.0
H300 H 0.05465 0.76034 0.20216 0.0
H301 H 0.9719 0.65997 0.15403 0.0
H302 H 0.05004 0.86477 0.18523 0.0
H303 H 0.11253 0.87226 0.17559 0.0
H304 H 0.09116 0.84761 0.2 0.0
H305 H 0.94412 0.74308 0.12732 0.0
H306 H 0.94862 0.68653 0.12541 0.0
H307 H 0.00501 0.74662 0.11784 0.0
C308 C 0.17858 0.07403 0.43916 0.0
C309 C 0.13417 0.02597 0.4349 0.0
C310 C 0.21919 0.08005 0.4526 0.0
C311 C 0.21494 0.03707 0.46205 0.0
C312 C 0.17066 0.9885 0.4576 0.0
C313 C 0.13104 0.98355 0.44404 0.0
C314 C 0.26626 0.13235 0.45685 0.0
C315 C 0.16458 0.94169 0.46739 0.0
C316 C 0.33544 0.03426 0.48506 0.0
C317 C 0.32594 0.03703 0.50505 0.0
C318 C 0.30134 0.03707 0.4708 0.0
C319 C 0.25634 0.04224 0.47672 0.0
C320 C 0.24795 0.04723 0.49686 0.0
C321 C 0.28311 0.04482 0.51082 0.0
C322 C 0.31205 0.03224 0.44947 0.0
C323 C 0.20016 0.05241 0.50374 0.0
H324 H 0.18137 0.107 0.43216 0.0
H325 H 0.09692 0.94623 0.44089 0.0
H326 H 0.26566 0.14161 0.47252 0.0
H327 H 0.30581 0.13385 0.45411 0.0
H328 H 0.26465 0.16168 0.44777 0.0
H329 H 0.1277 0.90669 0.46228 0.0
H330 H 0.20122 0.93824 0.46444 0.0
H331 H 0.16166 0.9446 0.48349 0.0
H332 H 0.36913 0.02903 0.48059 0.0
H333 H 0.27566 0.0468 0.52628 0.0
H334 H 0.31167 0.06263 0.44075 0.0
H335 H 0.27903 0.99569 0.44368 0.0
H336 H 0.35195 0.03397 0.4472 0.0
H337 H 0.19872 0.08312 0.49565 0.0
H338 H 0.20218 0.06039 0.51969 0.0
H339 H 0.1613 0.01691 0.50067 0.0
C340 C 0.09806 0.11713 0.80333 0.0
C341 C 0.10009 0.13628 0.78448 0.0
C342 C 0.13264 0.14837 0.81831 0.0
C343 C 0.17055 0.19974 0.81426 0.0
C344 C 0.17197 0.21944 0.79537 0.0
C345 C 0.13654 0.18758 0.78078 0.0
C346 C 0.12941 0.12622 0.83835 0.0
C347 C 0.21206 0.2739 0.7904 0.0
C348 C 0.23785 0.298 0.85438 0.0
C349 C 0.28978 0.30259 0.85557 0.0
C350 C 0.19777 0.2632 0.84156 0.0
C351 C 0.21024 0.23279 0.82945 0.0
C352 C 0.26218 0.23642 0.83094 0.0
C353 C 0.30122 0.27109 0.84407 0.0
C354 C 0.14263 0.25993 0.84061 0.0
C355 C 0.2773 0.20507 0.81812 0.0
H356 H 0.06992 0.07756 0.80632 0.0
H357 H 0.13854 0.20271 0.76625 0.0
H358 H 0.16849 0.12738 0.8417 0.0
H359 H 0.12352 0.14902 0.84969 0.0
H360 H 0.09543 0.0865 0.83947 0.0
H361 H 0.20716 0.2836 0.77514 0.0
H362 H 0.20663 0.29934 0.80055 0.0
H363 H 0.25461 0.28151 0.79226 0.0
H364 H 0.22869 0.32191 0.86344 0.0
H365 H 0.34148 0.27485 0.84482 0.0
H366 H 0.10931 0.22016 0.84229 0.0
H367 H 0.13734 0.27311 0.82608 0.0
H368 H 0.13787 0.28314 0.8521 0.0
H369 H 0.24641 0.16444 0.81963 0.0
H370 H 0.31828 0.2105 0.82178 0.0
H371 H 0.27746 0.21544 0.80254 0.0
C372 C 0.85668 0.95996 0.69276 0.0
C373 C 0.87572 0.99525 0.70808 0.0
C374 C 0.82067 0.95971 0.67858 0.0
C375 C 0.8022 0.99484 0.68 0.0
C376 C 0.81964 0.02937 0.69583 0.0
C377 C 0.8568 0.02959 0.70957 0.0
C378 C 0.80387 0.92298 0.66171 0.0
C379 C 0.79972 0.06657 0.69806 0.0
C380 C 0.75516 0.03 0.63357 0.0
C381 C 0.69832 0.99832 0.63468 0.0
C382 C 0.78952 0.02901 0.64819 0.0
C383 C 0.76616 0.99649 0.6645 0.0
C384 C 0.7086 0.96484 0.66576 0.0
C385 C 0.67534 0.96571 0.65067 0.0
C386 C 0.85078 0.06243 0.6461 0.0
C387 C 0.68217 0.93049 0.68312 0.0
H388 H 0.87152 0.93359 0.69142 0.0
H389 H 0.87122 0.05677 0.72143 0.0
H390 H 0.75859 0.89952 0.66098 0.0
H391 H 0.81788 0.94407 0.6477 0.0
H392 H 0.82121 0.89757 0.66292 0.0
H393 H 0.81409 0.08841 0.71191 0.0
H394 H 0.81453 0.09346 0.68561 0.0
H395 H 0.75428 0.04647 0.69775 0.0
H396 H 0.77266 0.05515 0.62113 0.0
H397 H 0.63121 0.94172 0.65156 0.0
H398 H 0.8707 0.03907 0.64629 0.0
H399 H 0.86736 0.08886 0.65866 0.0
H400 H 0.86236 0.08479 0.63233 0.0
H401 H 0.69651 0.90284 0.6842 0.0
H402 H 0.63673 0.90948 0.68215 0.0
H403 H 0.69447 0.95292 0.69684 0.0
C404 C 0.8259 0.88677 0.03728 0.0
C405 C 0.87486 0.88737 0.04157 0.0
C406 C 0.78663 0.85009 0.02474 0.0
C407 C 0.79666 0.81325 0.01631 0.0
C408 C 0.8456 0.81325 0.02079 0.0
C409 C 0.88402 0.85022 0.03337 0.0
C410 C 0.73475 0.85106 0.02033 0.0
C411 C 0.85773 0.77451 0.01212 0.0
C412 C 0.68064 0.69 0.99655 0.0
C413 C 0.686 0.69881 0.97629 0.0
C414 C 0.71534 0.72747 0.0098 0.0
C415 C 0.75645 0.77484 0.0026 0.0
C416 C 0.76119 0.78442 0.9822 0.0
C417 C 0.72583 0.74627 0.96928 0.0
C418 C 0.70885 0.71595 0.03146 0.0
C419 C 0.80469 0.83443 0.97398 0.0
H420 H 0.81844 0.91529 0.04354 0.0
H421 H 0.92164 0.85023 0.0366 0.0
H422 H 0.73228 0.85692 0.00441 0.0
H423 H 0.69844 0.81425 0.02419 0.0
H424 H 0.73251 0.88141 0.02844 0.0
H425 H 0.89743 0.77936 0.01728 0.0
H426 H 0.82469 0.73591 0.01601 0.0
H427 H 0.85887 0.77731 0.99591 0.0
H428 H 0.64928 0.65364 0.00206 0.0
H429 H 0.73039 0.75312 0.95363 0.0
H430 H 0.70424 0.7451 0.03948 0.0
H431 H 0.74616 0.71694 0.03719 0.0
H432 H 0.67288 0.67831 0.03473 0.0
H433 H 0.80217 0.86585 0.98102 0.0
H434 H 0.80091 0.83688 0.95788 0.0
H435 H 0.84588 0.84001 0.97726 0.0
C436 C 0.9778 0.87429 0.34112 0.0
C437 C 0.97067 0.86116 0.36102 0.0
C438 C 0.97989 0.84188 0.32699 0.0
C439 C 0.97553 0.79568 0.33296 0.0
C440 C 0.96773 0.78208 0.353 0.0
C441 C 0.96503 0.81477 0.36674 0.0
C442 C 0.98736 0.85725 0.3057 0.0
C443 C 0.96341 0.73341 0.36001 0.0
C444 C 0.93666 0.6872 0.29757 0.0
C445 C 0.98777 0.69184 0.29343 0.0
C446 C 0.93229 0.72185 0.3098 0.0
C447 C 0.98004 0.76169 0.31843 0.0
C448 C 0.03182 0.7671 0.31413 0.0
C449 C 0.03509 0.73237 0.30159 0.0
C450 C 0.87636 0.71501 0.3139 0.0
C451 C 0.08367 0.80886 0.32318 0.0
H452 H 0.98208 0.91002 0.33659 0.0
H453 H 0.95977 0.80437 0.38209 0.0
H454 H 0.02647 0.8616 0.30018 0.0
H455 H 0.95391 0.82736 0.29681 0.0
H456 H 0.98774 0.89333 0.30335 0.0
H457 H 0.957 0.72821 0.37609 0.0
H458 H 0.9289 0.70075 0.35256 0.0
H459 H 0.00138 0.73291 0.35621 0.0
H460 H 0.89969 0.65569 0.29163 0.0
H461 H 0.07486 0.73694 0.29823 0.0
H462 H 0.87651 0.75078 0.31114 0.0
H463 H 0.86575 0.7052 0.32954 0.0
H464 H 0.8439 0.68478 0.30477 0.0
H465 H 0.08779 0.84608 0.31989 0.0
H466 H 0.12089 0.80892 0.31783 0.0
H467 H 0.08169 0.80454 0.33934 0.0
C468 C 0.12526 0.02842 0.68787 0.0
C469 C 0.12116 0.00685 0.70632 0.0
C470 C 0.16197 0.02957 0.67379 0.0
C471 C 0.19692 0.01045 0.67858 0.0
C472 C 0.19366 0.98944 0.69738 0.0
C473 C 0.15486 0.98692 0.71093 0.0
C474 C 0.16272 0.05054 0.65369 0.0
C475 C 0.2316 0.97032 0.70324 0.0
C476 C 0.26031 0.97397 0.63725 0.0
C477 C 0.31132 0.01822 0.63483 0.0
C478 C 0.22256 0.97106 0.65132 0.0
C479 C 0.23684 0.01261 0.66385 0.0
C480 C 0.28848 0.05695 0.66185 0.0
C481 C 0.32451 0.05963 0.64712 0.0
C482 C 0.16713 0.92367 0.65261 0.0
C483 C 0.30572 0.10166 0.67526 0.0
H484 H 0.09857 0.04323 0.68426 0.0
H485 H 0.15167 0.97043 0.72527 0.0
H486 H 0.20349 0.08396 0.65075 0.0
H487 H 0.15555 0.02191 0.64234 0.0
H488 H 0.13115 0.06182 0.65207 0.0
H489 H 0.22517 0.95687 0.71865 0.0
H490 H 0.22527 0.93882 0.69353 0.0
H491 H 0.27484 1.00081 0.70147 0.0
H492 H 0.24976 0.94116 0.6283 0.0
H493 H 0.36301 0.09449 0.64524 0.0
H494 H 0.13425 0.93318 0.65081 0.0
H495 H 0.16169 0.90611 0.66725 0.0
H496 H 0.16163 0.89542 0.6413 0.0
H497 H 0.27905 0.11816 0.67287 0.0
H498 H 0.34895 0.13164 0.67284 0.0
H499 H 0.30082 0.08939 0.69078 0.0
C500 C 0.16911 0.10982 0.03615 0.0
C501 C 0.12525 0.11492 0.043 0.0
C502 C 0.20796 0.14532 0.02317 0.0
C503 C 0.20306 0.18708 0.01708 0.0
C504 C 0.15984 0.19321 0.0244 0.0
C505 C 0.12136 0.15696 0.0372 0.0
C506 C 0.25342 0.13749 0.01559 0.0
C507 C 0.15366 0.23759 0.01843 0.0
C508 C 0.32653 0.30232 0.99558 0.0
C509 C 0.3147 0.2958 0.97549 0.0
C510 C 0.29085 0.26696 0.00928 0.0
C511 C 0.24236 0.2239 0.0027 0.0
C512 C 0.23053 0.21679 0.98241 0.0
C513 C 0.26675 0.25299 0.96904 0.0
C514 C 0.30453 0.27613 0.03081 0.0
C515 C 0.1794 0.17111 0.97484 0.0
H516 H 0.1723 0.07736 0.0405 0.0
H517 H 0.08779 0.16137 0.04251 0.0
H518 H 0.25001 0.13267 0.99945 0.0
H519 H 0.29383 0.1712 0.01873 0.0
H520 H 0.25242 0.10387 0.02219 0.0
H521 H 0.11911 0.23795 0.02608 0.0
H522 H 0.19191 0.27348 0.02163 0.0
H523 H 0.14653 0.23645 0.00241 0.0
H524 H 0.36325 0.33572 1.00063 0.0
H525 H 0.2578 0.24766 0.9535 0.0
H526 H 0.30575 0.24353 0.03733 0.0
H527 H 0.27214 0.27973 0.0386 0.0
H528 H 0.34457 0.31085 0.03347 0.0
H529 H 0.17797 0.13608 0.97996 0.0
H530 H 0.17714 0.17034 0.95859 0.0
H531 H 0.14258 0.17077 0.98073 0.0
C532 C 0.04837 0.19369 0.36485 0.0
C533 C 0.03559 0.14449 0.3599 0.0
C534 C 0.046 0.22608 0.35088 0.0
C535 C 0.0308 0.20908 0.33139 0.0
C536 C 0.01959 0.16007 0.3261 0.0
C537 C 0.02195 0.12824 0.34045 0.0
C538 C 0.05817 0.27802 0.35714 0.0
C539 C 0.00375 0.14082 0.30542 0.0
C540 C 0.96911 0.27475 0.30269 0.0
C541 C 0.01456 0.31121 0.29221 0.0
C542 C 0.97346 0.24027 0.31504 0.0
C543 C 0.02443 0.2421 0.31688 0.0
C544 C 0.07003 0.27779 0.30586 0.0
C545 C 0.0646 0.31205 0.29372 0.0
C546 C 0.92397 0.20306 0.32666 0.0
C547 C 0.1249 0.28062 0.30727 0.0
H548 H 0.05901 0.20666 0.37983 0.0
H549 H 0.01209 0.09032 0.3365 0.0
H550 H 0.09094 0.30728 0.34783 0.0
H551 H 0.02112 0.28143 0.35517 0.0
H552 H 0.07123 0.28613 0.37269 0.0
H553 H 0.99994 0.1032 0.30337 0.0
H554 H 0.96398 0.13786 0.30168 0.0
H555 H 0.03462 0.16778 0.29493 0.0
H556 H 0.93048 0.27422 0.30173 0.0
H557 H 0.09965 0.33972 0.28542 0.0
H558 H 0.93204 0.21114 0.34253 0.0
H559 H 0.9158 0.16409 0.32418 0.0
H560 H 0.88662 0.20462 0.32276 0.0
H561 H 0.14162 0.29222 0.32228 0.0
H562 H 0.15512 0.30794 0.29668 0.0
H563 H 0.12018 0.24291 0.30457 0.0
loop_
_geom_bond_atom_site_label_1
_geom_bond_atom_site_label_2
_geom_bond_distance
_geom_bond_site_symmetry_2
_ccdc_geom_bond_type
O0 Cd1 2.223 1_455 S
O0 C8 1.315 . S
Cd1 O0 2.223 1_655 S
Cd1 O4 2.297 . S
Cd1 O5 2.439 . S
Cd1 O11 2.240 1_545 S
Cd2 O3 2.240 1_565 S
Cd2 O10 2.223 1_455 S
Cd2 O12 2.297 . S
Cd2 O13 2.439 . S
O3 Cd2 2.240 1_545 S
O3 C8 1.279 . S
O4 Cd1 2.297 . S
O4 C6 1.247 . S
O5 Cd1 2.439 . S
O5 C6 1.208 . S
C6 O4 1.247 . S
C6 O5 1.208 . S
C7 O12 1.247 . S
C7 O13 1.208 . S
C8 O0 1.315 . S
C8 O3 1.279 . S
C9 O10 1.315 . S
C9 O11 1.279 . S
O10 Cd2 2.223 1_655 S
O10 C9 1.315 . S
O11 Cd1 2.240 1_565 S
O11 C9 1.279 . S
O12 Cd2 2.297 . S
O12 C7 1.247 . S
O13 Cd2 2.439 . S
O13 C7 1.208 . S
O14 Cd15 2.223 1_655 S
O14 C22 1.315 . S
Cd15 O14 2.223 1_455 S
Cd15 O18 2.297 . S
Cd15 O19 2.439 . S
Cd15 O25 2.240 . S
Cd16 O17 2.240 . S
Cd16 O24 2.223 1_655 S
Cd16 O26 2.297 . S
Cd16 O27 2.439 . S
O17 Cd16 2.240 . S
O17 C22 1.279 1_565 S
O18 Cd15 2.297 . S
O18 C20 1.247 . S
O19 Cd15 2.439 . S
O19 C20 1.208 . S
C20 O18 1.247 . S
C20 O19 1.208 . S
C21 O26 1.247 . S
C21 O27 1.208 . S
C22 O14 1.315 . S
C22 O17 1.279 1_545 S
C23 O24 1.315 . S
C23 O25 1.279 1_565 S
O24 Cd16 2.223 1_455 S
O24 C23 1.315 . S
O25 Cd15 2.240 . S
O25 C23 1.279 1_545 S
O26 Cd16 2.297 . S
O26 C21 1.247 . S
O27 Cd16 2.439 . S
O27 C21 1.208 . S
O28 Cd29 2.223 . S
O28 C36 1.315 . S
Cd29 O28 2.223 . S
Cd29 O32 2.297 . S
Cd29 O33 2.439 . S
Cd29 O39 2.240 1_655 S
Cd30 O31 2.240 1_455 S
Cd30 O38 2.223 . S
Cd30 O40 2.297 . S
Cd30 O41 2.439 . S
O31 Cd30 2.240 1_655 S
O31 C36 1.279 1_545 S
O32 Cd29 2.297 . S
O32 C34 1.247 . S
O33 Cd29 2.439 . S
O33 C34 1.208 . S
C34 O32 1.247 . S
C34 O33 1.208 . S
C35 O40 1.247 . S
C35 O41 1.208 . S
C36 O28 1.315 . S
C36 O31 1.279 1_565 S
C37 O38 1.315 . S
C37 O39 1.279 1_545 S
O38 Cd30 2.223 . S
O38 C37 1.315 . S
O39 Cd29 2.240 1_455 S
O39 C37 1.279 1_565 S
O40 Cd30 2.297 . S
O40 C35 1.247 . S
O41 Cd30 2.439 . S
O41 C35 1.208 . S
C42 C43 1.384 1_655 S
C42 C44 1.384 . S
C42 H70 0.931 . S
C43 C42 1.384 1_455 S
C43 C46 1.382 . S
C44 C42 1.384 . S
C44 C45 1.381 1_655 S
C44 H71 0.930 . S
C45 C44 1.381 1_455 S
C45 C47 1.381 . S
C45 C48 1.487 . S
C46 C43 1.382 . S
C46 C47 1.387 . S
C46 H72 0.930 . S
C47 C45 1.381 . S
C47 C46 1.387 . S
C47 H73 0.931 . S
C48 C45 1.487 . S
C48 C55 1.399 1_455 S
C48 N86 1.343 . S
C49 C50 1.384 1_455 S
C49 C51 1.384 . S
C49 H74 0.931 . S
C50 C49 1.384 1_655 S
C50 C53 1.382 . S
C51 C49 1.384 . S
C51 C52 1.381 1_455 S
C51 H75 0.930 . S
C52 C51 1.381 1_655 S
C52 C54 1.381 . S
C52 C55 1.487 . S
C53 C50 1.382 . S
C53 C54 1.387 . S
C53 H76 0.930 . S
C54 C52 1.381 . S
C54 C53 1.387 . S
C54 H77 0.931 . S
C55 C48 1.399 1_655 S
C55 C52 1.487 . S
C55 N87 1.343 . S
C56 C57 1.384 1_455 S
C56 C58 1.384 . S
C56 H78 0.931 . S
C57 C56 1.384 1_655 S
C57 C60 1.382 . S
C58 C56 1.384 . S
C58 C59 1.381 1_455 S
C58 H79 0.930 . S
C59 C58 1.381 1_655 S
C59 C61 1.381 . S
C59 C62 1.487 . S
C60 C57 1.382 . S
C60 C61 1.387 . S
C60 H80 0.930 . S
C61 C59 1.381 . S
C61 C60 1.387 . S
C61 H81 0.931 . S
C62 C59 1.487 . S
C62 C69 1.399 1_655 S
C62 N87 1.343 . S
C63 C64 1.384 1_655 S
C63 C65 1.384 . S
C63 H82 0.931 . S
C64 C63 1.384 1_455 S
C64 C67 1.382 . S
C65 C63 1.384 . S
C65 C66 1.381 1_655 S
C65 H83 0.930 . S
C66 C65 1.381 1_455 S
C66 C68 1.381 . S
C66 C69 1.487 . S
C67 C64 1.382 . S
C67 C68 1.387 . S
C67 H84 0.930 . S
C68 C66 1.381 . S
C68 C67 1.387 . S
C68 H85 0.931 . S
C69 C62 1.399 1_455 S
C69 C66 1.487 . S
C69 N86 1.343 . S
H70 C42 0.931 . S
H71 C44 0.930 . S
H72 C46 0.930 . S
H73 C47 0.931 . S
H74 C49 0.931 . S
H75 C51 0.930 . S
H76 C53 0.930 . S
H77 C54 0.931 . S
H78 C56 0.931 . S
H79 C58 0.930 . S
H80 C60 0.930 . S
H81 C61 0.931 . S
H82 C63 0.931 . S
H83 C65 0.930 . S
H84 C67 0.930 . S
H85 C68 0.931 . S
N86 C48 1.343 . S
N86 C69 1.343 . S
N87 C55 1.343 . S
N87 C62 1.343 . S
C88 C89 1.384 1_545 S
C88 C90 1.384 . S
C88 H116 0.931 . S
C89 C88 1.384 1_565 S
C89 C92 1.382 . S
C90 C88 1.384 . S
C90 C91 1.381 1_545 S
C90 H117 0.930 . S
C91 C90 1.381 1_565 S
C91 C93 1.381 . S
C91 C94 1.487 . S
C92 C89 1.382 . S
C92 C93 1.387 . S
C92 H118 0.930 . S
C93 C91 1.381 . S
C93 C92 1.387 . S
C93 H119 0.931 . S
C94 C91 1.487 . S
C94 C101 1.399 1_565 S
C94 N132 1.343 . S
C95 C96 1.384 1_565 S
C95 C97 1.384 . S
C95 H120 0.931 . S
C96 C95 1.384 1_545 S
C96 C99 1.382 . S
C97 C95 1.384 . S
C97 C98 1.381 1_565 S
C97 H121 0.930 . S
C98 C97 1.381 1_545 S
C98 C100 1.381 . S
C98 C101 1.487 . S
C99 C96 1.382 . S
C99 C100 1.387 . S
C99 H122 0.930 . S
C100 C98 1.381 . S
C100 C99 1.387 . S
C100 H123 0.931 . S
C101 C94 1.399 1_545 S
C101 C98 1.487 . S
C101 N133 1.343 . S
C102 C103 1.384 1_565 S
C102 C104 1.384 . S
C102 H124 0.931 . S
C103 C102 1.384 1_545 S
C103 C106 1.382 . S
C104 C102 1.384 . S
C104 C105 1.381 1_565 S
C104 H125 0.930 . S
C105 C104 1.381 1_545 S
C105 C107 1.381 . S
C105 C108 1.487 . S
C106 C103 1.382 . S
C106 C107 1.387 . S
C106 H126 0.930 . S
C107 C105 1.381 . S
C107 C106 1.387 . S
C107 H127 0.931 . S
C108 C105 1.487 . S
C108 C115 1.399 1_545 S
C108 N133 1.343 . S
C109 C110 1.384 1_545 S
C109 C111 1.384 . S
C109 H128 0.931 . S
C110 C109 1.384 1_565 S
C110 C113 1.382 . S
C111 C109 1.384 . S
C111 C112 1.381 1_545 S
C111 H129 0.930 . S
C112 C111 1.381 1_565 S
C112 C114 1.381 . S
C112 C115 1.487 . S
C113 C110 1.382 . S
C113 C114 1.387 . S
C113 H130 0.930 . S
C114 C112 1.381 . S
C114 C113 1.387 . S
C114 H131 0.931 . S
C115 C108 1.399 1_565 S
C115 C112 1.487 . S
C115 N132 1.343 . S
H116 C88 0.931 . S
H117 C90 0.930 . S
H118 C92 0.930 . S
H119 C93 0.931 . S
H120 C95 0.931 . S
H121 C97 0.930 . S
H122 C99 0.930 . S
H123 C100 0.931 . S
H124 C102 0.931 . S
H125 C104 0.930 . S
H126 C106 0.930 . S
H127 C107 0.931 . S
H128 C109 0.931 . S
H129 C111 0.930 . S
H130 C113 0.930 . S
H131 C114 0.931 . S
N132 C94 1.343 . S
N132 C115 1.343 . S
N133 C101 1.343 . S
N133 C108 1.343 . S
C134 C135 1.384 . S
C134 C136 1.384 . S
C134 H162 0.931 . S
C135 C134 1.384 . S
C135 C138 1.382 . S
C136 C134 1.384 . S
C136 C137 1.381 . S
C136 H163 0.930 . S
C137 C136 1.381 . S
C137 C139 1.381 . S
C137 C140 1.487 . S
C138 C135 1.382 . S
C138 C139 1.387 . S
C138 H164 0.930 . S
C139 C137 1.381 . S
C139 C138 1.387 . S
C139 H165 0.931 . S
C140 C137 1.487 . S
C140 C147 1.399 . S
C140 N178 1.343 . S
C141 C142 1.384 . S
C141 C143 1.384 . S
C141 H166 0.931 . S
C142 C141 1.384 . S
C142 C145 1.382 . S
C143 C141 1.384 . S
C143 C144 1.381 . S
C143 H167 0.930 . S
C144 C143 1.381 . S
C144 C146 1.381 . S
C144 C147 1.487 . S
C145 C142 1.382 . S
C145 C146 1.387 . S
C145 H168 0.930 . S
C146 C144 1.381 . S
C146 C145 1.387 . S
C146 H169 0.931 . S
C147 C140 1.399 . S
C147 C144 1.487 . S
C147 N179 1.343 . S
C148 C149 1.384 . S
C148 C150 1.384 . S
C148 H170 0.931 . S
C149 C148 1.384 . S
C149 C152 1.382 . S
C150 C148 1.384 . S
C150 C151 1.381 . S
C150 H171 0.930 . S
C151 C150 1.381 . S
C151 C153 1.381 . S
C151 C154 1.487 . S
C152 C149 1.382 . S
C152 C153 1.387 . S
C152 H172 0.930 . S
C153 C151 1.381 . S
C153 C152 1.387 . S
C153 H173 0.931 . S
C154 C151 1.487 . S
C154 C161 1.399 . S
C154 N179 1.343 . S
C155 C156 1.384 . S
C155 C157 1.384 . S
C155 H174 0.931 . S
C156 C155 1.384 . S
C156 C159 1.382 . S
C157 C155 1.384 . S
C157 C158 1.381 . S
C157 H175 0.930 . S
C158 C157 1.381 . S
C158 C160 1.381 . S
C158 C161 1.487 . S
C159 C156 1.382 . S
C159 C160 1.387 . S
C159 H176 0.930 . S
C160 C158 1.381 . S
C160 C159 1.387 . S
C160 H177 0.931 . S
C161 C154 1.399 . S
C161 C158 1.487 . S
C161 N178 1.343 . S
H162 C134 0.931 . S
H163 C136 0.930 . S
H164 C138 0.930 . S
H165 C139 0.931 . S
H166 C141 0.931 . S
H167 C143 0.930 . S
H168 C145 0.930 . S
H169 C146 0.931 . S
H170 C148 0.931 . S
H171 C150 0.930 . S
H172 C152 0.930 . S
H173 C153 0.931 . S
H174 C155 0.931 . S
H175 C157 0.930 . S
H176 C159 0.930 . S
H177 C160 0.931 . S
N178 C140 1.343 . S
N178 C161 1.343 . S
N179 C147 1.343 . S
N179 C154 1.343 . S
C180 C181 1.390 1_455 S
C180 C182 1.394 . S
C180 H196 0.931 . S
C181 C180 1.390 1_655 S
C181 C185 1.377 . S
C182 C180 1.394 . S
C182 C183 1.348 1_455 S
C182 C186 1.531 . S
C183 C182 1.348 1_655 S
C183 C184 1.421 . S
C183 C191 1.504 . S
C184 C183 1.421 . S
C184 C185 1.392 . S
C184 C187 1.511 . S
C185 C181 1.377 . S
C185 C184 1.392 . S
C185 H197 0.929 . S
C186 C182 1.531 . S
C186 H198 0.960 . S
C186 H199 0.962 . S
C186 H200 0.960 . S
C187 C184 1.511 . S
C187 H201 0.961 . S
C187 H202 0.961 . S
C187 H203 0.961 . S
C188 C189 1.363 1_455 S
C188 C190 1.363 . S
C188 H204 0.931 . S
C189 C188 1.363 1_655 S
C189 C193 1.411 . S
C190 C188 1.363 . S
C190 C191 1.366 1_455 S
C190 C194 1.524 . S
C191 C183 1.504 . S
C191 C190 1.366 1_655 S
C191 C192 1.415 . S
C192 C191 1.415 . S
C192 C193 1.404 . S
C192 C195 1.539 . S
C193 C189 1.411 . S
C193 C192 1.404 . S
C193 H205 0.930 . S
C194 C190 1.524 . S
C194 H206 0.956 . S
C194 H207 0.961 1_455 S
C194 H208 0.961 . S
C195 C192 1.539 . S
C195 H209 0.958 1_655 S
C195 H210 0.961 . S
C195 H211 0.960 . S
H196 C180 0.931 . S
H197 C185 0.929 . S
H198 C186 0.960 . S
H199 C186 0.962 . S
H200 C186 0.960 . S
H201 C187 0.961 . S
H202 C187 0.961 . S
H203 C187 0.961 . S
H204 C188 0.931 . S
H205 C193 0.930 . S
H206 C194 0.956 . S
H207 C194 0.961 1_655 S
H208 C194 0.961 . S
H209 C195 0.958 1_455 S
H210 C195 0.961 . S
H211 C195 0.960 . S
C212 C213 1.391 . S
C212 C214 1.394 . S
C212 H228 0.931 . S
C213 C212 1.391 . S
C213 C217 1.376 1_545 S
C214 C212 1.394 . S
C214 C215 1.369 1_545 S
C214 C218 1.531 . S
C215 C214 1.369 1_565 S
C215 C216 1.410 . S
C215 C223 1.503 . S
C216 C215 1.410 . S
C216 C217 1.392 . S
C216 C219 1.511 . S
C217 C213 1.376 1_565 S
C217 C216 1.392 . S
C217 H229 0.929 . S
C218 C214 1.531 . S
C218 H230 0.960 . S
C218 H231 0.962 . S
C218 H232 0.960 . S
C219 C216 1.511 . S
C219 H233 0.961 . S
C219 H234 0.961 . S
C219 H235 0.961 . S
C220 C221 1.372 1_545 S
C220 C222 1.363 . S
C220 H236 0.931 . S
C221 C220 1.372 1_565 S
C221 C225 1.411 . S
C222 C220 1.363 . S
C222 C223 1.370 1_545 S
C222 C226 1.524 . S
C223 C215 1.503 . S
C223 C222 1.370 1_565 S
C223 C224 1.403 . S
C224 C223 1.403 . S
C224 C225 1.404 . S
C224 C227 1.539 . S
C225 C221 1.411 . S
C225 C224 1.404 . S
C225 H237 0.930 . S
C226 C222 1.524 . S
C226 H238 0.956 . S
C226 H239 0.961 . S
C226 H240 0.961 . S
C227 C224 1.539 . S
C227 H241 0.958 . S
C227 H242 0.961 . S
C227 H243 0.960 . S
H228 C212 0.931 . S
H229 C217 0.929 . S
H230 C218 0.960 . S
H231 C218 0.962 . S
H232 C218 0.960 . S
H233 C219 0.961 . S
H234 C219 0.961 . S
H235 C219 0.961 . S
H236 C220 0.931 . S
H237 C225 0.930 . S
H238 C226 0.956 . S
H239 C226 0.961 . S
H240 C226 0.961 . S
H241 C227 0.958 . S
H242 C227 0.961 . S
H243 C227 0.960 . S
C244 C245 1.391 . S
C244 C246 1.394 . S
C244 H260 0.931 . S
C245 C244 1.391 . S
C245 C249 1.376 . S
C246 C244 1.394 . S
C246 C247 1.369 . S
C246 C250 1.531 . S
C247 C246 1.369 . S
C247 C248 1.410 . S
C247 C255 1.503 . S
C248 C247 1.410 . S
C248 C249 1.392 . S
C248 C251 1.511 . S
C249 C245 1.376 . S
C249 C248 1.392 . S
C249 H261 0.929 . S
C250 C246 1.531 . S
C250 H262 0.960 . S
C250 H263 0.962 . S
C250 H264 0.960 . S
C251 C248 1.511 . S
C251 H265 0.961 . S
C251 H266 0.961 . S
C251 H267 0.961 . S
C252 C253 1.370 . S
C252 C254 1.363 . S
C252 H268 0.931 . S
C253 C252 1.370 . S
C253 C257 1.408 . S
C254 C252 1.363 . S
C254 C255 1.370 . S
C254 C258 1.524 . S
C255 C247 1.503 . S
C255 C254 1.370 . S
C255 C256 1.403 . S
C256 C255 1.403 . S
C256 C257 1.404 . S
C256 C259 1.539 . S
C257 C253 1.408 . S
C257 C256 1.404 . S
C257 H269 0.930 . S
C258 C254 1.524 . S
C258 H270 0.956 . S
C258 H271 0.961 . S
C258 H272 0.961 . S
C259 C256 1.539 . S
C259 H273 0.958 . S
C259 H274 0.961 . S
C259 H275 0.960 . S
H260 C244 0.931 . S
H261 C249 0.929 . S
H262 C250 0.960 . S
H263 C250 0.962 . S
H264 C250 0.960 . S
H265 C251 0.961 . S
H266 C251 0.961 . S
H267 C251 0.961 . S
H268 C252 0.931 . S
H269 C257 0.930 . S
H270 C258 0.956 . S
H271 C258 0.961 . S
H272 C258 0.961 . S
H273 C259 0.958 . S
H274 C259 0.961 . S
H275 C259 0.960 . S
C276 C277 1.382 1_655 S
C276 C278 1.394 . S
C276 H292 0.931 . S
C277 C276 1.382 1_455 S
C277 C281 1.395 . S
C278 C276 1.394 . S
C278 C279 1.369 1_655 S
C278 C282 1.531 . S
C279 C278 1.369 1_455 S
C279 C280 1.410 . S
C279 C287 1.503 . S
C280 C279 1.410 . S
C280 C281 1.392 . S
C280 C283 1.511 . S
C281 C277 1.395 . S
C281 C280 1.392 . S
C281 H293 0.929 . S
C282 C278 1.531 . S
C282 H294 0.960 . S
C282 H295 0.962 . S
C282 H296 0.960 . S
C283 C280 1.511 . S
C283 H297 0.961 . S
C283 H298 0.961 . S
C283 H299 0.961 . S
C284 C285 1.354 1_655 S
C284 C286 1.363 . S
C284 H300 0.931 . S
C285 C284 1.354 1_455 S
C285 C289 1.416 . S
C286 C284 1.363 . S
C286 C287 1.370 1_655 S
C286 C290 1.524 . S
C287 C279 1.503 . S
C287 C286 1.370 1_455 S
C287 C288 1.403 . S
C288 C287 1.403 . S
C288 C289 1.404 . S
C288 C291 1.539 . S
C289 C285 1.416 . S
C289 C288 1.404 . S
C289 H301 0.930 . S
C290 C286 1.524 . S
C290 H302 0.956 . S
C290 H303 0.961 1_655 S
C290 H304 0.961 . S
C291 C288 1.539 . S
C291 H305 0.958 . S
C291 H306 0.961 . S
C291 H307 0.960 . S
H292 C276 0.931 . S
H293 C281 0.929 . S
H294 C282 0.960 . S
H295 C282 0.962 . S
H296 C282 0.960 . S
H297 C283 0.961 . S
H298 C283 0.961 . S
H299 C283 0.961 . S
H300 C284 0.931 . S
H301 C289 0.930 . S
H302 C290 0.956 . S
H303 C290 0.961 1_455 S
H304 C290 0.961 . S
H305 C291 0.958 . S
H306 C291 0.961 . S
H307 C291 0.960 . S
C308 C309 1.391 1_545 S
C308 C310 1.394 . S
C308 H324 0.931 . S
C309 C308 1.391 1_565 S
C309 C313 1.376 . S
C310 C308 1.394 . S
C310 C311 1.369 1_545 S
C310 C314 1.531 . S
C311 C310 1.369 1_565 S
C311 C312 1.410 . S
C311 C319 1.503 . S
C312 C311 1.410 . S
C312 C313 1.392 . S
C312 C315 1.511 . S
C313 C309 1.376 . S
C313 C312 1.392 . S
C313 H325 0.929 . S
C314 C310 1.531 . S
C314 H326 0.960 . S
C314 H327 0.962 . S
C314 H328 0.960 . S
C315 C312 1.511 . S
C315 H329 0.961 . S
C315 H330 0.961 . S
C315 H331 0.961 . S
C316 C317 1.370 1_545 S
C316 C318 1.363 . S
C316 H332 0.931 . S
C317 C316 1.370 1_565 S
C317 C321 1.408 . S
C318 C316 1.363 . S
C318 C319 1.370 1_545 S
C318 C322 1.524 . S
C319 C311 1.503 . S
C319 C318 1.370 1_565 S
C319 C320 1.403 . S
C320 C319 1.403 . S
C320 C321 1.404 . S
C320 C323 1.539 . S
C321 C317 1.408 . S
C321 C320 1.404 . S
C321 H333 0.930 . S
C322 C318 1.524 . S
C322 H334 0.956 . S
C322 H335 0.961 . S
C322 H336 0.961 . S
C323 C320 1.539 . S
C323 H337 0.958 . S
C323 H338 0.961 . S
C323 H339 0.960 . S
H324 C308 0.931 . S
H325 C313 0.929 . S
H326 C314 0.960 . S
H327 C314 0.962 . S
H328 C314 0.960 . S
H329 C315 0.961 . S
H330 C315 0.961 . S
H331 C315 0.961 . S
H332 C316 0.931 . S
H333 C321 0.930 . S
H334 C322 0.956 . S
H335 C322 0.961 . S
H336 C322 0.961 . S
H337 C323 0.958 . S
H338 C323 0.961 . S
H339 C323 0.960 . S
C340 C341 1.391 . S
C340 C342 1.394 . S
C340 H356 0.931 . S
C341 C340 1.391 . S
C341 C345 1.376 . S
C342 C340 1.394 . S
C342 C343 1.369 . S
C342 C346 1.531 . S
C343 C342 1.369 . S
C343 C344 1.410 . S
C343 C351 1.503 . S
C344 C343 1.410 . S
C344 C345 1.392 . S
C344 C347 1.511 . S
C345 C341 1.376 . S
C345 C344 1.392 . S
C345 H357 0.929 . S
C346 C342 1.531 . S
C346 H358 0.960 . S
C346 H359 0.962 . S
C346 H360 0.960 . S
C347 C344 1.511 . S
C347 H361 0.961 . S
C347 H362 0.961 . S
C347 H363 0.961 . S
C348 C349 1.370 . S
C348 C350 1.363 . S
C348 H364 0.931 . S
C349 C348 1.370 . S
C349 C353 1.408 . S
C350 C348 1.363 . S
C350 C351 1.370 . S
C350 C354 1.524 . S
C351 C343 1.503 . S
C351 C350 1.370 . S
C351 C352 1.403 . S
C352 C351 1.403 . S
C352 C353 1.404 . S
C352 C355 1.539 . S
C353 C349 1.408 . S
C353 C352 1.404 . S
C353 H365 0.930 . S
C354 C350 1.524 . S
C354 H366 0.956 . S
C354 H367 0.961 . S
C354 H368 0.961 . S
C355 C352 1.539 . S
C355 H369 0.958 . S
C355 H370 0.961 . S
C355 H371 0.960 . S
H356 C340 0.931 . S
H357 C345 0.929 . S
H358 C346 0.960 . S
H359 C346 0.962 . S
H360 C346 0.960 . S
H361 C347 0.961 . S
H362 C347 0.961 . S
H363 C347 0.961 . S
H364 C348 0.931 . S
H365 C353 0.930 . S
H366 C354 0.956 . S
H367 C354 0.961 . S
H368 C354 0.961 . S
H369 C355 0.958 . S
H370 C355 0.961 . S
H371 C355 0.960 . S
C372 C373 1.391 . S
C372 C374 1.394 . S
C372 H388 0.931 . S
C373 C372 1.391 . S
C373 C377 1.376 1_565 S
C374 C372 1.394 . S
C374 C375 1.369 . S
C374 C378 1.531 . S
C375 C374 1.369 . S
C375 C376 1.410 1_565 S
C375 C383 1.503 . S
C376 C375 1.410 1_545 S
C376 C377 1.392 . S
C376 C379 1.511 . S
C377 C373 1.376 1_545 S
C377 C376 1.392 . S
C377 H389 0.929 . S
C378 C374 1.531 . S
C378 H390 0.960 . S
C378 H391 0.962 . S
C378 H392 0.960 . S
C379 C376 1.511 . S
C379 H393 0.961 . S
C379 H394 0.961 . S
C379 H395 0.961 . S
C380 C381 1.370 1_545 S
C380 C382 1.363 . S
C380 H396 0.931 . S
C381 C380 1.370 1_565 S
C381 C385 1.408 . S
C382 C380 1.363 . S
C382 C383 1.370 1_545 S
C382 C386 1.524 . S
C383 C375 1.503 . S
C383 C382 1.370 1_565 S
C383 C384 1.403 . S
C384 C383 1.403 . S
C384 C385 1.404 . S
C384 C387 1.539 . S
C385 C381 1.408 . S
C385 C384 1.404 . S
C385 H397 0.930 . S
C386 C382 1.524 . S
C386 H398 0.956 . S
C386 H399 0.961 . S
C386 H400 0.961 . S
C387 C384 1.539 . S
C387 H401 0.958 . S
C387 H402 0.961 . S
C387 H403 0.960 . S
H388 C372 0.931 . S
H389 C377 0.929 . S
H390 C378 0.960 . S
H391 C378 0.962 . S
H392 C378 0.960 . S
H393 C379 0.961 . S
H394 C379 0.961 . S
H395 C379 0.961 . S
H396 C380 0.931 . S
H397 C385 0.930 . S
H398 C386 0.956 . S
H399 C386 0.961 . S
H400 C386 0.961 . S
H401 C387 0.958 . S
H402 C387 0.961 . S
H403 C387 0.960 . S
C404 C405 1.391 . S
C404 C406 1.394 . S
C404 H420 0.931 . S
C405 C404 1.391 . S
C405 C409 1.376 . S
C406 C404 1.394 . S
C406 C407 1.369 . S
C406 C410 1.531 1_554 S
C407 C406 1.369 . S
C407 C408 1.410 . S
C407 C415 1.503 1_554 S
C408 C407 1.410 . S
C408 C409 1.392 . S
C408 C411 1.511 . S
C409 C405 1.376 . S
C409 C408 1.392 . S
C409 H421 0.929 . S
C410 C406 1.531 1_556 S
C410 H422 0.960 . S
C410 H423 0.962 . S
C410 H424 0.960 . S
C411 C408 1.511 . S
C411 H425 0.961 . S
C411 H426 0.961 . S
C411 H427 0.961 . S
C412 C413 1.370 . S
C412 C414 1.363 . S
C412 H428 0.931 . S
C413 C412 1.370 . S
C413 C417 1.408 . S
C414 C412 1.363 . S
C414 C415 1.370 . S
C414 C418 1.524 1_556 S
C415 C407 1.503 1_556 S
C415 C414 1.370 . S
C415 C416 1.403 . S
C416 C415 1.403 . S
C416 C417 1.404 . S
C416 C419 1.539 . S
C417 C413 1.408 . S
C417 C416 1.404 . S
C417 H429 0.930 . S
C418 C414 1.524 1_554 S
C418 H430 0.956 . S
C418 H431 0.961 . S
C418 H432 0.961 . S
C419 C416 1.539 . S
C419 H433 0.958 . S
C419 H434 0.961 . S
C419 H435 0.960 . S
H420 C404 0.931 . S
H421 C409 0.929 . S
H422 C410 0.960 . S
H423 C410 0.962 . S
H424 C410 0.960 . S
H425 C411 0.961 . S
H426 C411 0.961 . S
H427 C411 0.961 . S
H428 C412 0.931 . S
H429 C417 0.930 . S
H430 C418 0.956 . S
H431 C418 0.961 . S
H432 C418 0.961 . S
H433 C419 0.958 . S
H434 C419 0.961 . S
H435 C419 0.960 . S
C436 C437 1.391 1_655 S
C436 C438 1.394 . S
C436 H452 0.931 . S
C437 C436 1.391 1_455 S
C437 C441 1.376 . S
C438 C436 1.394 . S
C438 C439 1.369 1_655 S
C438 C442 1.531 . S
C439 C438 1.369 1_455 S
C439 C440 1.410 . S
C439 C447 1.503 . S
C440 C439 1.410 . S
C440 C441 1.392 . S
C440 C443 1.511 . S
C441 C437 1.376 . S
C441 C440 1.392 . S
C441 H453 0.929 . S
C442 C438 1.531 . S
C442 H454 0.960 . S
C442 H455 0.962 . S
C442 H456 0.960 . S
C443 C440 1.511 . S
C443 H457 0.961 . S
C443 H458 0.961 . S
C443 H459 0.961 . S
C444 C445 1.370 1_655 S
C444 C446 1.363 . S
C444 H460 0.931 . S
C445 C444 1.370 1_455 S
C445 C449 1.408 . S
C446 C444 1.363 . S
C446 C447 1.370 1_655 S
C446 C450 1.524 . S
C447 C439 1.503 . S
C447 C446 1.370 1_455 S
C447 C448 1.403 . S
C448 C447 1.403 . S
C448 C449 1.404 . S
C448 C451 1.539 . S
C449 C445 1.408 . S
C449 C448 1.404 . S
C449 H461 0.930 . S
C450 C446 1.524 . S
C450 H462 0.956 . S
C450 H463 0.961 . S
C450 H464 0.961 . S
C451 C448 1.539 . S
C451 H465 0.958 . S
C451 H466 0.961 . S
C451 H467 0.960 . S
H452 C436 0.931 . S
H453 C441 0.929 . S
H454 C442 0.960 . S
H455 C442 0.962 . S
H456 C442 0.960 . S
H457 C443 0.961 . S
H458 C443 0.961 . S
H459 C443 0.961 . S
H460 C444 0.931 . S
H461 C449 0.930 . S
H462 C450 0.956 . S
H463 C450 0.961 . S
H464 C450 0.961 . S
H465 C451 0.958 . S
H466 C451 0.961 . S
H467 C451 0.960 . S
C468 C469 1.391 . S
C468 C470 1.394 . S
C468 H484 0.931 1_545 S
C469 C468 1.391 . S
C469 C473 1.376 . S
C470 C468 1.394 . S
C470 C471 1.369 . S
C470 C474 1.531 1_545 S
C471 C470 1.369 . S
C471 C472 1.410 . S
C471 C479 1.503 . S
C472 C471 1.410 . S
C472 C473 1.392 . S
C472 C475 1.511 . S
C473 C469 1.376 . S
C473 C472 1.392 . S
C473 H485 0.929 . S
C474 C470 1.531 1_565 S
C474 H486 0.960 1_565 S
C474 H487 0.962 . S
C474 H488 0.960 1_565 S
C475 C472 1.511 . S
C475 H489 0.961 . S
C475 H490 0.961 . S
C475 H491 0.961 . S
C476 C477 1.370 1_565 S
C476 C478 1.363 . S
C476 H492 0.931 . S
C477 C476 1.370 1_545 S
C477 C481 1.408 . S
C478 C476 1.363 . S
C478 C479 1.370 1_565 S
C478 C482 1.524 . S
C479 C471 1.503 . S
C479 C478 1.370 1_545 S
C479 C480 1.403 . S
C480 C479 1.403 . S
C480 C481 1.404 . S
C480 C483 1.539 . S
C481 C477 1.408 . S
C481 C480 1.404 . S
C481 H493 0.930 . S
C482 C478 1.524 . S
C482 H494 0.956 . S
C482 H495 0.961 . S
C482 H496 0.961 . S
C483 C480 1.539 . S
C483 H497 0.958 . S
C483 H498 0.961 . S
C483 H499 0.960 . S
H484 C468 0.931 1_565 S
H485 C473 0.929 . S
H486 C474 0.960 1_545 S
H487 C474 0.962 . S
H488 C474 0.960 1_545 S
H489 C475 0.961 . S
H490 C475 0.961 . S
H491 C475 0.961 . S
H492 C476 0.931 . S
H493 C481 0.930 . S
H494 C482 0.956 . S
H495 C482 0.961 . S
H496 C482 0.961 . S
H497 C483 0.958 . S
H498 C483 0.961 . S
H499 C483 0.960 . S
C500 C501 1.391 . S
C500 C502 1.394 . S
C500 H516 0.931 . S
C501 C500 1.391 . S
C501 C505 1.376 . S
C502 C500 1.394 . S
C502 C503 1.369 . S
C502 C506 1.531 1_554 S
C503 C502 1.369 . S
C503 C504 1.410 . S
C503 C511 1.503 1_554 S
C504 C503 1.410 . S
C504 C505 1.392 . S
C504 C507 1.511 . S
C505 C501 1.376 . S
C505 C504 1.392 . S
C505 H517 0.929 . S
C506 C502 1.531 1_556 S
C506 H518 0.960 . S
C506 H519 0.962 1_556 S
C506 H520 0.960 . S
C507 C504 1.511 . S
C507 H521 0.961 . S
C507 H522 0.961 . S
C507 H523 0.961 1_554 S
C508 C509 1.370 . S
C508 C510 1.363 1_556 S
C508 H524 0.931 . S
C509 C508 1.370 . S
C509 C513 1.408 . S
C510 C508 1.363 1_554 S
C510 C511 1.370 1_554 S
C510 C514 1.524 . S
C511 C503 1.503 1_556 S
C511 C510 1.370 1_556 S
C511 C512 1.403 . S
C512 C511 1.403 . S
C512 C513 1.404 . S
C512 C515 1.539 . S
C513 C509 1.408 . S
C513 C512 1.404 . S
C513 H525 0.930 . S
C514 C510 1.524 . S
C514 H526 0.956 . S
C514 H527 0.961 . S
C514 H528 0.961 . S
C515 C512 1.539 . S
C515 H529 0.958 . S
C515 H530 0.961 . S
C515 H531 0.960 . S
H516 C500 0.931 . S
H517 C505 0.929 . S
H518 C506 0.960 . S
H519 C506 0.962 1_554 S
H520 C506 0.960 . S
H521 C507 0.961 . S
H522 C507 0.961 . S
H523 C507 0.961 1_556 S
H524 C508 0.931 . S
H525 C513 0.930 . S
H526 C514 0.956 . S
H527 C514 0.961 . S
H528 C514 0.961 . S
H529 C515 0.958 . S
H530 C515 0.961 . S
H531 C515 0.960 . S
C532 C533 1.389 1_455 S
C532 C534 1.394 . S
C532 H548 0.931 . S
C533 C532 1.389 1_655 S
C533 C537 1.385 . S
C534 C532 1.394 . S
C534 C535 1.369 . S
C534 C538 1.531 . S
C535 C534 1.369 . S
C535 C536 1.410 1_455 S
C535 C543 1.503 . S
C536 C535 1.410 1_655 S
C536 C537 1.392 . S
C536 C539 1.511 . S
C537 C533 1.385 . S
C537 C536 1.392 . S
C537 H549 0.929 . S
C538 C534 1.531 . S
C538 H550 0.960 . S
C538 H551 0.962 . S
C538 H552 0.960 . S
C539 C536 1.511 . S
C539 H553 0.961 . S
C539 H554 0.961 . S
C539 H555 0.961 . S
C540 C541 1.370 1_655 S
C540 C542 1.363 . S
C540 H556 0.931 . S
C541 C540 1.370 1_455 S
C541 C545 1.408 . S
C542 C540 1.363 . S
C542 C543 1.370 1_655 S
C542 C546 1.524 . S
C543 C535 1.503 . S
C543 C542 1.370 1_455 S
C543 C544 1.403 . S
C544 C543 1.403 . S
C544 C545 1.404 . S
C544 C547 1.539 . S
C545 C541 1.408 . S
C545 C544 1.404 . S
C545 H557 0.930 . S
C546 C542 1.524 . S
C546 H558 0.956 . S
C546 H559 0.961 . S
C546 H560 0.961 . S
C547 C544 1.539 . S
C547 H561 0.958 . S
C547 H562 0.961 . S
C547 H563 0.960 . S
H548 C532 0.931 . S
H549 C537 0.929 . S
H550 C538 0.960 . S
H551 C538 0.962 . S
H552 C538 0.960 . S
H553 C539 0.961 . S
H554 C539 0.961 . S
H555 C539 0.961 . S
H556 C540 0.931 . S
H557 C545 0.930 . S
H558 C546 0.956 . S
H559 C546 0.961 . S
H560 C546 0.961 . S
H561 C547 0.958 . S
H562 C547 0.961 . S
H563 C547 0.960 . S
C189 C50 1.490 . S
C181 C6 1.440 . S
C213 C22 1.575 . S
C221 C89 1.599 . S
C245 C34 1.223 . S
C253 C156 1.273 . S
C277 C7 1.436 . S
C285 C57 1.497 1_455 S
C317 C110 1.600 . S
C309 C23 1.567 . S
C341 C35 1.273 . S
C349 C135 1.269 . S
C381 C96 1.602 1_565 S
C373 C36 1.564 . S
C405 C9 1.780 . S
C413 C149 1.831 . S
C445 C64 1.479 . S
C437 C21 1.478 1_455 S
C477 C103 1.599 . S
C469 C37 1.562 . S
C509 C142 1.829 . S
C501 C8 1.793 . S
C533 C20 1.442 1_655 S
C541 C43 1.478 . S
