# Generated by pormake.
# Topology zzz, (3,6)-cn, num edge types: 1
# Building blocks:
#     Node 0, Type 0, BuildingBlock: VETTIZ_charged_linker_0, # of connection points: 3
#     Node 1, Type 0, BuildingBlock: VETTIZ_charged_linker_0, # of connection points: 3
#     Node 2, Type 0, BuildingBlock: VETTIZ_charged_linker_0, # of connection points: 3
#     Node 3, Type 0, BuildingBlock: VETTIZ_charged_linker_0, # of connection points: 3
#     Node 4, Type 0, BuildingBlock: VETTIZ_charged_linker_0, # of connection points: 3
#     Node 5, Type 0, BuildingBlock: VETTIZ_charged_linker_0, # of connection points: 3
#     Node 6, Type 0, BuildingBlock: VETTIZ_charged_linker_0, # of connection points: 3
#     Node 7, Type 0, BuildingBlock: VETTIZ_charged_linker_0, # of connection points: 3
#     Node 8, Type 1, BuildingBlock: MIFKUJ_clean_sbu_0, # of connection points: 6
#     Node 9, Type 1, BuildingBlock: MIFKUJ_clean_sbu_0, # of connection points: 6
#     Node 10, Type 1, BuildingBlock: MIFKUJ_clean_sbu_0, # of connection points: 6
#     Node 11, Type 1, BuildingBlock: MIFKUJ_clean_sbu_0, # of connection points: 6
#     Edge 12, Type (0, 1), BuildingBlock: EZIPEK_clean_linker_0, # of connection points: 2
#     Edge 13, Type (0, 1), BuildingBlock: EZIPEK_clean_linker_0, # of connection points: 2
#     Edge 14, Type (0, 1), BuildingBlock: EZIPEK_clean_linker_0, # of connection points: 2
#     Edge 15, Type (0, 1), BuildingBlock: EZIPEK_clean_linker_0, # of connection points: 2
#     Edge 16, Type (0, 1), BuildingBlock: EZIPEK_clean_linker_0, # of connection points: 2
#     Edge 17, Type (0, 1), BuildingBlock: EZIPEK_clean_linker_0, # of connection points: 2
#     Edge 18, Type (0, 1), BuildingBlock: EZIPEK_clean_linker_0, # of connection points: 2
#     Edge 19, Type (0, 1), BuildingBlock: EZIPEK_clean_linker_0, # of connection points: 2
#     Edge 20, Type (0, 1), BuildingBlock: EZIPEK_clean_linker_0, # of connection points: 2
#     Edge 21, Type (0, 1), BuildingBlock: EZIPEK_clean_linker_0, # of connection points: 2
#     Edge 22, Type (0, 1), BuildingBlock: EZIPEK_clean_linker_0, # of connection points: 2
#     Edge 23, Type (0, 1), BuildingBlock: EZIPEK_clean_linker_0, # of connection points: 2
#     Edge 24, Type (0, 1), BuildingBlock: EZIPEK_clean_linker_0, # of connection points: 2
#     Edge 25, Type (0, 1), BuildingBlock: EZIPEK_clean_linker_0, # of connection points: 2
#     Edge 26, Type (0, 1), BuildingBlock: EZIPEK_clean_linker_0, # of connection points: 2
#     Edge 27, Type (0, 1), BuildingBlock: EZIPEK_clean_linker_0, # of connection points: 2
#     Edge 28, Type (0, 1), BuildingBlock: EZIPEK_clean_linker_0, # of connection points: 2
#     Edge 29, Type (0, 1), BuildingBlock: EZIPEK_clean_linker_0, # of connection points: 2
#     Edge 30, Type (0, 1), BuildingBlock: EZIPEK_clean_linker_0, # of connection points: 2
#     Edge 31, Type (0, 1), BuildingBlock: EZIPEK_clean_linker_0, # of connection points: 2
#     Edge 32, Type (0, 1), BuildingBlock: EZIPEK_clean_linker_0, # of connection points: 2
#     Edge 33, Type (0, 1), BuildingBlock: EZIPEK_clean_linker_0, # of connection points: 2
#     Edge 34, Type (0, 1), BuildingBlock: EZIPEK_clean_linker_0, # of connection points: 2
#     Edge 35, Type (0, 1), BuildingBlock: EZIPEK_clean_linker_0, # of connection points: 2
# Relax obj value: 0.333
# Max RMSD: 0.213
# Mean RMSD: 0.197
data_MOF--net-zzz--node1-MIFKUJ_clean_sbu_0--node2-VETTIZ_charged_linker_0--edge1-EZIPEK_clean_linker_0
_symmetry_space_group_name_H-M    P1
_symmetry_Int_Tables_number       1
_symmetry_cell_setting            triclinic
loop_
_symmetry_equiv_pos_as_xyz
'x, y, z'
_cell_length_a     44.559741
_cell_length_b     44.765755
_cell_length_c     16.7181
_cell_angle_alpha  89.882403
_cell_angle_beta   89.871376
_cell_angle_gamma 90.587508
loop_
_atom_site_label
_atom_site_type_symbol
_atom_site_fract_x
_atom_site_fract_y
_atom_site_fract_z
_atom_type_partial_charge
C0 C 0.75842 0.54877 0.32845 0.0
C1 C 0.78959 0.55391 0.3448 0.0
C2 C 0.8071 0.56874 0.28685 0.0
C3 C 0.76636 0.56652 0.19323 0.0
C4 C 0.74714 0.55557 0.25082 0.0
C5 C 0.71541 0.5523 0.21583 0.0
H6 H 0.6351 0.55096 0.85979 0.0
C7 C 0.75093 0.56813 0.11677 0.0
C8 C 0.72035 0.56118 0.12745 0.0
H9 H 0.59677 0.53198 0.09117 0.0
H10 H 0.6455 0.54415 0.15491 0.0
H11 H 0.66666 0.60552 0.89108 0.0
H12 H 0.6994 0.51543 0.89655 0.0
H13 H 0.71996 0.53777 0.82804 0.0
H14 H 0.68106 0.53336 0.81398 0.0
H15 H 0.68284 0.58905 0.80378 0.0
H16 H 0.70558 0.60914 0.87572 0.0
C17 C 0.6945 0.57437 0.25821 0.0
C18 C 0.70468 0.51971 0.22483 0.0
C19 C 0.81222 0.55216 0.87059 0.0
C20 C 0.80722 0.55733 0.78914 0.0
C21 C 0.78057 0.5707 0.76364 0.0
C22 C 0.75834 0.5774 0.82016 0.0
C23 C 0.76324 0.57025 0.90129 0.0
C24 C 0.79072 0.56029 0.92547 0.0
C25 C 0.79548 0.56318 0.01351 0.0
C26 C 0.76358 0.57065 0.03969 0.0
C27 C 0.74477 0.57281 0.97345 0.0
C28 C 0.8185 0.58912 0.02649 0.0
C29 C 0.80631 0.53293 0.04732 0.0
C30 C 0.6369 0.54938 0.92435 0.0
C31 C 0.6124 0.54 0.96976 0.0
C32 C 0.61565 0.53868 0.05419 0.0
C33 C 0.64378 0.54558 0.09088 0.0
C34 C 0.66857 0.55377 0.04249 0.0
C35 C 0.66417 0.55582 0.96062 0.0
C36 C 0.69167 0.56358 0.9148 0.0
C37 C 0.71377 0.56735 0.9822 0.0
C38 C 0.701 0.56109 0.05819 0.0
C39 C 0.68653 0.59323 0.86852 0.0
C40 C 0.69861 0.53632 0.86043 0.0
H41 H 0.80915 0.58837 0.17287 0.0
H42 H 0.74377 0.53902 0.37336 0.0
H43 H 0.72133 0.50428 0.19816 0.0
H44 H 0.68304 0.51575 0.19447 0.0
H45 H 0.70185 0.51379 0.28902 0.0
H46 H 0.7039 0.59745 0.25468 0.0
H47 H 0.69185 0.56835 0.32238 0.0
H48 H 0.67203 0.57468 0.23043 0.0
H49 H 0.83353 0.5437 0.89143 0.0
H50 H 0.77715 0.57597 0.70108 0.0
H51 H 0.73812 0.58744 0.799 0.0
H52 H 0.82961 0.59679 0.97032 0.0
H53 H 0.83716 0.58222 0.06616 0.0
H54 H 0.80747 0.60921 0.0515 0.0
H55 H 0.79004 0.51475 0.03279 0.0
H56 H 0.80908 0.53348 0.11292 0.0
H57 H 0.8285 0.52692 0.02195 0.0
H58 H 0.83051 0.57404 0.29799 0.0
C59 C 0.7953 0.57591 0.21282 0.0
C60 C 0.02447 0.78748 0.84482 0.0
C61 C 0.0381 0.81536 0.86172 0.0
C62 C 0.05194 0.82036 0.93627 0.0
C63 C 0.02956 0.77515 0.98354 0.0
C64 C 0.02212 0.76674 0.90733 0.0
C65 C 0.01381 0.73394 0.90552 0.0
H66 H 0.9599 0.61308 0.04157 0.0
C67 C 0.02182 0.75163 0.03784 0.0
C68 C 0.01949 0.72562 0.99388 0.0
H69 H 0.03188 0.6199 0.86674 0.0
H70 H 0.04681 0.66809 0.92344 0.0
H71 H 0.01331 0.65193 0.19669 0.0
H72 H 0.93764 0.68867 0.06606 0.0
H73 H 0.93829 0.69024 0.17377 0.0
H74 H 0.93201 0.65505 0.12412 0.0
H75 H 0.97833 0.63133 0.19641 0.0
H76 H 0.98116 0.66587 0.25011 0.0
C77 C 0.03371 0.71792 0.84399 0.0
C78 C 0.98033 0.73012 0.88431 0.0
C79 C 0.96453 0.78874 0.27154 0.0
C80 C 0.97371 0.78157 0.34881 0.0
C81 C 0.98283 0.75188 0.36448 0.0
C82 C 0.98477 0.73072 0.30134 0.0
C83 C 0.97953 0.73993 0.22191 0.0
C84 C 0.97249 0.76986 0.20881 0.0
C85 C 0.98583 0.78127 0.13164 0.0
C86 C 0.0045 0.75444 0.10771 0.0
C87 C 0.99502 0.72889 0.14933 0.0
C88 C 0.00477 0.81019 0.14327 0.0
C89 C 0.96025 0.78659 0.07153 0.0
C90 C 0.97836 0.62527 0.01429 0.0
C91 C 0.99337 0.61388 0.94513 0.0
C92 C 0.0189 0.62907 0.91567 0.0
C93 C 0.02678 0.65698 0.94507 0.0
C94 C 0.00847 0.66997 0.00217 0.0
C95 C 0.98762 0.65359 0.04456 0.0
C96 C 0.97858 0.67108 0.12007 0.0
C97 C -0.00354 0.70053 0.1092 0.0
C98 C 0.011 0.69942 0.03479 0.0
C99 C 0.98848 0.65411 0.19529 0.0
C100 C 0.9446 0.67659 0.12103 0.0
H101 H 0.05801 0.80368 0.05569 0.0
H102 H 0.01532 0.78258 0.78629 0.0
H103 H 0.96593 0.74246 0.92713 0.0
H104 H 0.97362 0.70615 0.88657 0.0
H105 H 0.97582 0.73866 0.82309 0.0
H106 H 0.03462 0.7305 0.78667 0.0
H107 H 0.0243 0.69571 0.82826 0.0
H108 H 0.05703 0.71578 0.86652 0.0
H109 H 0.95791 0.81146 0.25872 0.0
H110 H 0.991 0.74596 0.42329 0.0
H111 H 0.99459 0.70922 0.31337 0.0
H112 H 0.9934 0.82713 0.18031 0.0
H113 H 0.00826 0.82196 0.08579 0.0
H114 H 0.02667 0.80518 0.17153 0.0
H115 H 0.94647 0.76597 0.06314 0.0
H116 H 0.96931 0.79344 0.01229 0.0
H117 H 0.9453 0.80458 0.09331 0.0
H118 H 0.06365 0.84119 0.94844 0.0
C119 C 0.04797 0.79979 -0.00224 0.0
C120 C 0.874 0.95922 0.03266 0.0
C121 C 0.88303 0.95623 0.95064 0.0
C122 C 0.86328 0.94168 0.89771 0.0
C123 C 0.82547 0.93767 -0.00067 0.0
C124 C 0.84446 0.94979 0.05576 0.0
C125 C 0.82791 0.95209 0.13646 0.0
H126 H 0.68565 0.93943 0.31154 0.0
C127 C 0.79534 0.93458 0.03242 0.0
C128 C 0.79575 0.94209 0.11447 0.0
H129 H 0.76442 0.9674 0.44029 0.0
H130 H 0.79571 0.95855 0.3192 0.0
H131 H 0.70309 0.98554 0.19408 0.0
H132 H 0.70516 0.8903 0.20056 0.0
H133 H 0.69327 0.89848 0.10307 0.0
H134 H 0.6716 0.91153 0.18685 0.0
H135 H 0.67117 0.96367 0.16529 0.0
H136 H 0.6988 0.97667 0.0933 0.0
C137 C 0.82886 0.98457 0.1661 0.0
C138 C 0.84206 0.93051 0.19687 0.0
C139 C 0.71081 0.93368 0.83054 0.0
C140 C 0.68073 0.94139 0.8413 0.0
C141 C 0.66866 0.94296 0.9191 0.0
C142 C 0.68608 0.93711 0.98498 0.0
C143 C 0.71673 0.93238 0.97462 0.0
C144 C 0.72874 0.93066 0.89873 0.0
C145 C 0.76216 0.92749 0.90069 0.0
C146 C 0.76805 0.93049 0.99062 0.0
C147 C 0.74128 0.93216 0.03244 0.0
C148 C 0.77651 0.95331 0.84989 0.0
C149 C 0.76927 0.89553 0.87055 0.0
C150 C 0.70981 0.94243 0.31568 0.0
C151 C 0.7224 0.95337 0.3854 0.0
C152 C 0.75401 0.95852 0.38683 0.0
C153 C 0.77198 0.95382 0.31679 0.0
C154 C 0.7579 0.945 0.2448 0.0
C155 C 0.72715 0.93986 0.24707 0.0
C156 C 0.71345 0.93763 0.16722 0.0
C157 C 0.74098 0.9366 0.11562 0.0
C158 C 0.76776 0.94162 0.15872 0.0
C159 C 0.69553 0.96713 0.15392 0.0
C160 C 0.6947 0.90813 0.16378 0.0
H161 H 0.82246 0.91991 0.87884 0.0
H162 H 0.88903 0.96897 0.07635 0.0
H163 H 0.84199 0.90736 0.17285 0.0
H164 H 0.82949 0.93023 0.25403 0.0
H165 H 0.86568 0.93716 0.20941 0.0
H166 H 0.81974 -0.00017 0.11981 0.0
H167 H 0.8523 0.99164 0.17943 0.0
H168 H 0.81533 0.98729 0.22109 0.0
H169 H 0.72042 0.93145 0.77133 0.0
H170 H 0.6454 0.94876 0.92933 0.0
H171 H 0.67471 0.93739 0.04113 0.0
H172 H 0.75966 0.96862 0.82372 0.0
H173 H 0.7897 0.94466 0.79869 0.0
H174 H 0.79114 0.9681 0.88635 0.0
H175 H 0.75118 0.87934 0.88735 0.0
H176 H 0.78976 0.88626 0.898 0.0
H177 H 0.77145 0.89506 0.80436 0.0
H178 H 0.86916 0.93841 0.83538 0.0
C179 C 0.83553 0.93141 0.92238 0.0
C180 C 0.50397 0.74194 0.31953 0.0
C181 C 0.48967 0.71557 0.35 0.0
C182 C 0.45959 0.70961 0.32914 0.0
C183 C 0.46314 0.74688 0.22705 0.0
C184 C 0.48914 0.75828 0.25866 0.0
C185 C 0.49754 0.78712 0.21407 0.0
H186 H 0.47897 0.85827 0.84812 0.0
C187 C 0.45868 0.75943 0.14821 0.0
C188 C 0.47691 0.7851 0.14024 0.0
H189 H 0.52203 0.89878 0.052 0.0
H190 H 0.51155 0.85325 0.13169 0.0
H191 H 0.5157 0.80185 0.87333 0.0
H192 H 0.42443 0.82464 0.91924 0.0
H193 H 0.42441 0.7889 0.87465 0.0
H194 H 0.44103 0.81997 0.82201 0.0
H195 H 0.48728 0.79469 0.80055 0.0
H196 H 0.49748 0.76699 0.87427 0.0
C197 C 0.53096 0.78768 0.1913 0.0
C198 C 0.48909 0.81352 0.2683 0.0
C199 C 0.43777 0.68014 0.94187 0.0
C200 C 0.4436 0.67973 0.85974 0.0
C201 C 0.44809 0.7067 0.8181 0.0
C202 C 0.44863 0.73381 0.85952 0.0
C203 C 0.44612 0.7336 0.94346 0.0
C204 C 0.44029 0.70709 0.98309 0.0
C205 C 0.44204 0.71013 0.07225 0.0
C206 C 0.4491 0.74354 0.07967 0.0
C207 C 0.4525 0.75657 0.00426 0.0
C208 C 0.46838 0.69056 0.10186 0.0
C209 C 0.41146 0.70063 0.10923 0.0
C210 C 0.48566 0.85783 0.91041 0.0
C211 C 0.50045 0.88234 0.9441 0.0
C212 C 0.50988 0.88033 0.02498 0.0
C213 C 0.50378 0.85416 0.07102 0.0
C214 C 0.48886 0.82975 0.035 0.0
C215 C 0.48077 0.83206 0.9553 0.0
C216 C 0.4689 0.80358 0.92161 0.0
C217 C 0.4657 0.78525 0.99682 0.0
C218 C 0.4783 0.79978 0.06384 0.0
C219 C 0.49334 0.79107 0.86421 0.0
C220 C 0.43812 0.80942 0.88175 0.0
H221 H 0.42313 0.72089 0.25202 0.0
H222 H 0.52625 0.74834 0.33909 0.0
H223 H 0.465 0.81212 0.28573 0.0
H224 H 0.49266 0.83527 0.23871 0.0
H225 H 0.50273 0.81329 0.32389 0.0
H226 H 0.53663 0.76767 0.15525 0.0
H227 H 0.54521 0.78789 0.24575 0.0
H228 H 0.5366 0.80785 0.15556 0.0
H229 H 0.43429 0.65939 0.97424 0.0
H230 H 0.45232 0.70662 0.75424 0.0
H231 H 0.45218 0.75368 0.82487 0.0
H232 H 0.48985 0.69779 0.0734 0.0
H233 H 0.46447 0.66665 0.08732 0.0
H234 H 0.4715 0.69146 0.16714 0.0
H235 H 0.39742 0.68734 0.06718 0.0
H236 H 0.39806 0.7204 0.12653 0.0
H237 H 0.41449 0.68599 0.16218 0.0
H238 H 0.44745 0.69097 0.35576 0.0
C239 C 0.44596 0.72576 0.26826 0.0
C240 C 0.37013 0.462 0.17228 0.0
C241 C 0.3811 0.46715 0.25146 0.0
C242 C 0.36036 0.47086 0.31363 0.0
C243 C 0.31939 0.4593 0.22533 0.0
C244 C 0.33848 0.45911 0.16027 0.0
C245 C 0.32022 0.45551 0.08286 0.0
H246 H 0.17351 0.45316 0.9415 0.0
C247 C 0.28891 0.45192 0.19913 0.0
C248 C 0.2881 0.45026 0.11503 0.0
H249 H 0.2515 0.45766 0.78951 0.0
H250 H 0.28423 0.45127 0.90788 0.0
H251 H 0.18946 0.40002 0.01088 0.0
H252 H 0.19738 0.48754 0.10953 0.0
H253 H 0.17647 0.46245 0.17126 0.0
H254 H 0.16461 0.46846 0.07185 0.0
H255 H 0.16422 0.41161 0.08695 0.0
H256 H 0.19875 0.39246 0.11112 0.0
C257 C 0.33132 0.42846 0.03511 0.0
C258 C 0.32285 0.48472 0.03458 0.0
C259 C 0.20577 0.45126 0.40385 0.0
C260 C 0.17487 0.44745 0.39124 0.0
C261 C 0.16473 0.42942 0.32787 0.0
C262 C 0.18469 0.4207 0.26828 0.0
C263 C 0.21418 0.4316 0.27131 0.0
C264 C 0.2252 0.4433 0.34165 0.0
C265 C 0.25796 0.45077 0.33487 0.0
C266 C 0.26327 0.4453 0.24599 0.0
C267 C 0.23712 0.43543 0.20894 0.0
C268 C 0.27494 0.42797 0.38781 0.0
C269 C 0.26273 0.48422 0.35794 0.0
C270 C 0.19763 0.4536 0.93308 0.0
C271 C 0.20964 0.45718 0.85657 0.0
C272 C 0.24142 0.45605 0.84836 0.0
C273 C 0.26034 0.45263 0.91667 0.0
C274 C 0.24734 0.44964 0.99343 0.0
C275 C 0.2163 0.44892 -0.00132 0.0
C276 C 0.20497 0.44031 0.07928 0.0
C277 C 0.23418 0.4383 0.12509 0.0
C278 C 0.25948 0.44496 0.07646 0.0
C279 C 0.18844 0.40964 0.07215 0.0
C280 C 0.1848 0.46594 0.10998 0.0
H281 H 0.31649 0.46782 0.35386 0.0
H282 H 0.38554 0.45989 0.12253 0.0
H283 H 0.31533 0.50397 0.07116 0.0
H284 H 0.30901 0.4841 0.97999 0.0
H285 H 0.34653 0.4889 0.01632 0.0
H286 H 0.33081 0.40802 0.07299 0.0
H287 H 0.35473 0.43222 0.01403 0.0
H288 H 0.31696 0.42426 0.98227 0.0
H289 H 0.21397 0.4641 0.45428 0.0
H290 H 0.14098 0.42493 0.31984 0.0
H291 H 0.17593 0.40824 0.21915 0.0
H292 H 0.26336 0.40581 0.38826 0.0
H293 H 0.27633 0.43573 0.45075 0.0
H294 H 0.29775 0.4231 0.36559 0.0
H295 H 0.24211 0.49751 0.34961 0.0
H296 H 0.27933 0.49587 0.3193 0.0
H297 H 0.26958 0.48659 0.42145 0.0
H298 H 0.36785 0.47581 0.37393 0.0
C299 C 0.33013 0.46615 0.30167 0.0
C300 C 0.98691 0.21508 0.37933 0.0
C301 C 0.9779 0.18508 0.3722 0.0
C302 C 0.98006 0.17053 0.29818 0.0
C303 C -0.00202 0.21597 0.23748 0.0
C304 C -0.00227 0.22995 0.31096 0.0
C305 C 0.00952 0.26154 0.30568 0.0
H306 H 0.98699 0.38171 0.14835 0.0
C307 C 0.00718 0.23779 0.1769 0.0
C308 C 0.01617 0.26392 0.21561 0.0
H309 H 0.0457 0.36542 0.35023 0.0
H310 H 0.05773 0.31621 0.29479 0.0
H311 H 0.04277 0.33435 0.00473 0.0
H312 H 0.95619 0.31261 0.1127 0.0
H313 H 0.9617 0.30974 0.00621 0.0
H314 H 0.95945 0.34597 0.0524 0.0
H315 H 0.0143 0.36267 0.00274 0.0
H316 H 0.00943 0.32972 0.94418 0.0
C317 C 0.03781 0.26473 0.35875 0.0
C318 C 0.98435 0.28286 0.33212 0.0
C319 C 0.99061 0.20915 0.89228 0.0
C320 C 0.00463 0.21946 0.8231 0.0
C321 C 0.01692 0.24885 0.82244 0.0
C322 C 0.01593 0.2669 0.89253 0.0
C323 C 0.00286 0.2552 0.96295 0.0
C324 C 0.99227 0.22598 0.96189 0.0
C325 C 0.99157 0.21198 0.04278 0.0
C326 C 0.00258 0.23761 0.0935 0.0
C327 C 0.00705 0.26371 0.04825 0.0
C328 C 0.0143 0.18564 0.04381 0.0
C329 C 0.95845 0.20308 0.06017 0.0
C330 C 0.00244 0.36765 0.18063 0.0
C331 C 0.0139 0.37649 0.25684 0.0
C332 C 0.0354 0.35842 0.29457 0.0
C333 C 0.04147 0.33002 0.26537 0.0
C334 C 0.02553 0.31984 0.19932 0.0
C335 C 0.01016 0.33903 0.1507 0.0
C336 C 0.00202 0.32299 0.07253 0.0
C337 C 0.01355 0.29113 0.08893 0.0
C338 C 0.02254 0.28976 0.16931 0.0
C339 C 0.01819 0.33818 0.0019 0.0
C340 C 0.9678 0.32284 0.06028 0.0
H341 H 0.99048 0.17332 0.17661 0.0
H342 H 0.98604 0.22632 0.43656 0.0
H343 H 0.96452 0.2807 0.29216 0.0
H344 H 0.992 0.30638 0.33121 0.0
H345 H 0.97706 0.2779 0.39438 0.0
H346 H 0.03766 0.24855 0.40927 0.0
H347 H 0.03915 0.287 0.38742 0.0
H348 H 0.05861 0.26085 0.32363 0.0
H349 H 0.98263 0.18618 0.89566 0.0
H350 H 0.02878 0.25695 0.77002 0.0
H351 H 0.0279 0.28795 0.89311 0.0
H352 H 0.0318 0.18807 0.99657 0.0
H353 H 0.00277 0.16383 0.03422 0.0
H354 H 0.02751 0.18468 0.09983 0.0
H355 H 0.94295 0.22081 0.03941 0.0
H356 H 0.95323 0.20021 0.1241 0.0
H357 H 0.9523 0.18212 0.02843 0.0
H358 H 0.97409 0.14707 0.29255 0.0
C359 C 0.99003 0.18576 0.23102 0.0
C360 C 0.26552 0.04778 0.86407 0.0
C361 C 0.29612 0.04004 0.84873 0.0
C362 C 0.31313 0.02809 0.91112 0.0
C363 C 0.27398 0.03897 0.00513 0.0
C364 C 0.25449 0.0459 0.94434 0.0
C365 C 0.22258 0.04889 0.97892 0.0
H366 H 0.1439 0.04373 0.34086 0.0
C367 C 0.25916 0.04311 0.08197 0.0
C368 C 0.22823 0.04707 0.07 0.0
H369 H 0.10134 0.04286 0.10962 0.0
H370 H 0.1511 0.04934 0.0446 0.0
H371 H 0.19505 0.00555 0.31511 0.0
H372 H 0.18513 0.10019 0.29101 0.0
H373 H 0.22156 0.0957 0.32816 0.0
H374 H 0.18985 0.08236 0.38615 0.0
H375 H 0.19437 0.03026 0.3994 0.0
H376 H 0.22891 0.02056 0.35026 0.0
C377 C 0.20357 0.02236 0.94876 0.0
C378 C 0.209 0.07903 0.95529 0.0
C379 C 0.32698 0.05715 0.31916 0.0
C380 C 0.32069 0.05308 0.40016 0.0
C381 C 0.29167 0.058 0.42952 0.0
C382 C 0.2681 0.06224 0.37551 0.0
C383 C 0.27396 0.06003 0.29267 0.0
C384 C 0.30319 0.05823 0.26597 0.0
C385 C 0.30537 0.04867 0.18048 0.0
C386 C 0.27243 0.04825 0.15735 0.0
C387 C 0.2544 0.05445 0.22308 0.0
C388 C 0.31924 0.01677 0.17879 0.0
C389 C 0.32392 0.07267 0.13486 0.0
C390 C 0.14484 0.04463 0.27607 0.0
C391 C 0.11872 0.0417 0.23099 0.0
C392 C 0.12131 0.04393 0.14629 0.0
C393 C 0.14998 0.04733 0.10866 0.0
C394 C 0.17605 0.04895 0.15634 0.0
C395 C 0.17244 0.04883 0.23874 0.0
C396 C 0.20086 0.05339 0.28319 0.0
C397 C 0.22298 0.05346 0.21545 0.0
C398 C 0.2092 0.05063 0.13955 0.0
C399 C 0.20515 0.02629 0.34048 0.0
C400 C 0.19942 0.08435 0.32495 0.0
H401 H 0.31673 0.01832 0.03203 0.0
H402 H 0.25108 0.05503 0.816 0.0
H403 H 0.22377 0.09774 0.97519 0.0
H404 H 0.18666 0.08187 0.98345 0.0
H405 H 0.20633 0.0806 0.88935 0.0
H406 H 0.21437 0.00086 0.96444 0.0
H407 H 0.20119 0.02339 0.88263 0.0
H408 H 0.18088 0.02205 0.97511 0.0
H409 H 0.34938 0.05292 0.29644 0.0
H410 H 0.28678 0.05513 0.49259 0.0
H411 H 0.24601 0.0637 0.40057 0.0
H412 H 0.32197 0.00666 0.23908 0.0
H413 H 0.3419 0.01709 0.15085 0.0
H414 H 0.30453 0.00048 0.14723 0.0
H415 H 0.31292 0.0948 0.13915 0.0
H416 H 0.32684 0.06766 0.07091 0.0
H417 H 0.34681 0.0748 0.16059 0.0
H418 H 0.33572 0.02016 0.90048 0.0
C419 C 0.3022 0.02736 0.98827 0.0
C420 C 0.49059 0.25802 0.86884 0.0
C421 C 0.50197 0.28719 0.84935 0.0
C422 C 0.52521 0.29944 0.89612 0.0
C423 C 0.51753 0.26102 0.9931 0.0
C424 C 0.50004 0.2446 0.94183 0.0
C425 C 0.49474 0.2133 0.97798 0.0
H426 H 0.52305 0.13006 0.32235 0.0
C427 C 0.5193 0.24621 0.06919 0.0
C428 C 0.50859 0.21683 0.06214 0.0
H429 H 0.47676 0.09531 0.11606 0.0
H430 H 0.4832 0.14425 0.0476 0.0
H431 H 0.57044 0.17623 0.25789 0.0
H432 H 0.47756 0.17771 0.32257 0.0
H433 H 0.48966 0.21411 0.3424 0.0
H434 H 0.50633 0.18334 0.39552 0.0
H435 H 0.55654 0.17377 0.35862 0.0
H436 H 0.56511 0.20933 0.31275 0.0
C437 C 0.51185 0.19024 0.9279 0.0
C438 C 0.46096 0.20626 0.98199 0.0
C439 C 0.51807 0.31335 0.30991 0.0
C440 C 0.52529 0.30827 0.38991 0.0
C441 C 0.53046 0.27925 0.41792 0.0
C442 C 0.52961 0.25531 0.36437 0.0
C443 C 0.52404 0.26095 0.28279 0.0
C444 C 0.51899 0.28969 0.2566 0.0
C445 C 0.51865 0.29233 0.16717 0.0
C446 C 0.52302 0.25965 0.14444 0.0
C447 C 0.52403 0.24164 0.21203 0.0
C448 C 0.54458 0.31352 0.1407 0.0
C449 C 0.4878 0.30389 0.13972 0.0
C450 C 0.51519 0.13236 0.26127 0.0
C451 C 0.50015 0.10885 0.22412 0.0
C452 C 0.48898 0.11316 0.14553 0.0
C453 C 0.49256 0.14131 0.10634 0.0
C454 C 0.50622 0.16521 0.14794 0.0
C455 C 0.51626 0.16018 0.22521 0.0
C456 C 0.52268 0.18799 0.27043 0.0
C457 C 0.51943 0.21063 0.205 0.0
C458 C 0.51017 0.19785 0.13163 0.0
C459 C 0.55532 0.18688 0.30227 0.0
C460 C 0.49809 0.19109 0.33645 0.0
H461 H 0.55305 0.29397 -0.00175 0.0
H462 H 0.47468 0.24676 0.83018 0.0
H463 H 0.44901 0.22406 0.0152 0.0
H464 H 0.45656 0.18479 0.01302 0.0
H465 H 0.45133 0.20479 0.92085 0.0
H466 H 0.53607 0.19636 0.92419 0.0
H467 H 0.50277 0.18928 0.86609 0.0
H468 H 0.51015 0.16764 0.95433 0.0
H469 H 0.51451 0.33588 0.28824 0.0
H470 H 0.53631 0.27543 0.47993 0.0
H471 H 0.53436 0.23355 0.38788 0.0
H472 H 0.54961 0.33119 0.18527 0.0
H473 H 0.53868 0.32615 0.08595 0.0
H474 H 0.5657 0.30098 0.13163 0.0
H475 H 0.46944 0.28873 0.16049 0.0
H476 H 0.48664 0.30538 0.07355 0.0
H477 H 0.48364 0.32656 0.16399 0.0
H478 H 0.53622 0.32022 0.87907 0.0
C479 C 0.53371 0.28577 0.9667 0.0
Zn480 Zn 0.99366 0.04682 0.612 0.0
Zn481 Zn 0.00177 0.95604 0.56415 0.0
C482 C 0.99619 0.10296 0.70047 0.0
O483 O 0.9705 0.09236 0.72751 0.0
C484 C 0.00161 0.89782 0.48669 0.0
O485 O 0.03028 0.90269 0.49965 0.0
O486 O 0.9582 0.06459 0.55823 0.0
O487 O 0.01897 0.02886 0.52143 0.0
O488 O 0.02549 0.982 0.48514 0.0
C489 C 0.96094 0.07314 0.48631 0.0
O490 O 0.97488 0.0559 0.43515 0.0
O491 O 0.01248 0.08601 0.65725 0.0
C492 C 0.01728 0.91735 0.67422 0.0
O493 O 0.98823 0.91536 0.6638 0.0
O494 O 0.03209 0.93685 0.63523 0.0
O495 O 0.97359 0.97409 0.65194 0.0
O496 O 0.97515 0.02033 0.69822 0.0
O497 O 0.98326 0.91876 0.50364 0.0
C498 C 0.03079 0.00975 0.47496 0.0
C499 C 0.96399 0.99402 0.70034 0.0
Zn500 Zn 0.45208 -0.00145 0.58697 0.0
Zn501 Zn 0.55093 -0.00255 0.58728 0.0
C502 C 0.3959 0.01128 0.67016 0.0
O503 O 0.39821 0.98241 0.68269 0.0
C504 C 0.61041 0.98918 0.52906 0.0
O505 O 0.60953 0.0167 0.55593 0.0
O506 O 0.43421 0.97421 0.49947 0.0
O507 O 0.49019 0.01833 0.53559 0.0
O508 O 0.53748 0.02937 0.50959 0.0
C509 C 0.42573 0.98856 0.43831 0.0
O510 O 0.44608 -0.00164 0.38744 0.0
O511 O 0.41746 0.02471 0.63371 0.0
C512 C 0.57868 0.98617 0.71414 0.0
O513 O 0.56388 0.96295 0.68641 0.0
O514 O 0.57341 0.01148 0.68298 0.0
O515 O 0.51197 0.97901 0.6379 0.0
O516 O 0.46556 0.96948 0.67246 0.0
O517 O 0.58593 0.97367 0.53074 0.0
C518 C 0.50974 0.03242 0.49331 0.0
C519 C 0.49337 0.96496 0.68313 0.0
Zn520 Zn 0.50678 0.45369 0.61584 0.0
Zn521 Zn 0.49926 0.54431 0.56893 0.0
C522 C 0.50296 0.39852 0.70712 0.0
O523 O 0.52954 0.40844 0.72901 0.0
C524 C 0.49829 0.60359 0.49525 0.0
O525 O 0.46944 0.59809 0.50235 0.0
O526 O 0.54111 0.43398 0.56213 0.0
O527 O 0.48324 0.47232 0.52329 0.0
O528 O 0.47805 0.51909 0.48463 0.0
C529 C 0.53925 0.42765 0.48849 0.0
O530 O 0.52645 0.4465 0.43936 0.0
O531 O 0.48653 0.41551 0.66434 0.0
C532 C 0.4786 0.57873 0.68427 0.0
O533 O 0.50772 0.5831 0.67976 0.0
O534 O 0.46656 0.55959 0.63856 0.0
O535 O 0.52741 0.52672 0.65615 0.0
O536 O 0.52653 0.48005 0.69955 0.0
O537 O 0.51685 0.58338 0.51615 0.0
C538 C 0.47247 0.49142 0.47495 0.0
C539 C 0.53706 0.50657 0.70364 0.0
Zn540 Zn 0.04549 0.49744 0.60422 0.0
Zn541 Zn 0.94762 0.5022 0.5902 0.0
C542 C 0.1031 0.48856 0.68368 0.0
O543 O 0.09869 0.51714 0.69631 0.0
C544 C 0.89093 0.51245 0.52106 0.0
O545 O 0.89009 0.48523 0.55038 0.0
O546 O 0.05845 0.52445 0.51675 0.0
O547 O 0.00982 0.47558 0.5418 0.0
O548 O 0.96105 0.46906 0.51906 0.0
C549 C 0.07072 0.51525 0.45297 0.0
O550 O 0.06257 0.5275 0.38513 0.0
O551 O 0.08272 0.4738 0.64652 0.0
C552 C 0.91688 0.51405 0.71248 0.0
O553 O 0.93288 0.53705 0.688 0.0
O554 O 0.9228 0.48882 0.68231 0.0
O555 O 0.98602 0.51783 0.64346 0.0
O556 O 0.03041 0.52532 0.69245 0.0
O557 O 0.91578 0.52715 0.52628 0.0
C558 C 0.98825 0.46243 0.50424 0.0
C559 C 0.00258 0.531 0.69486 0.0
C560 C 0.07278 0.01027 0.27285 0.0
C561 C 0.08992 0.03716 0.27771 0.0
C562 C 0.06897 0.04585 0.41172 0.0
C563 C 0.05008 0.02011 0.40526 0.0
N564 N 0.02708 0.98477 0.3137 0.0
N565 N 0.09487 0.08544 0.33985 0.0
C566 C 0.04979 0.00441 0.33088 0.0
C567 C 0.08433 0.05674 0.34273 0.0
N568 N 0.07914 0.9895 0.21582 0.0
N569 N 0.07465 0.05859 0.48438 0.0
H570 H 0.10602 0.09398 0.28962 0.0
H571 H 0.08965 0.10124 0.38338 0.0
H572 H 0.0669 0.04968 0.53826 0.0
H573 H 0.09024 0.07588 0.49184 0.0
H574 H 0.06942 0.96822 0.21574 0.0
H575 H 0.0957 0.99262 0.17249 0.0
H576 H 0.02486 0.97459 0.25796 0.0
H577 H 0.00845 0.98172 0.35072 0.0
C578 C 0.47691 0.0892 0.34818 0.0
C579 C 0.49313 0.08274 0.27729 0.0
C580 C 0.51243 0.03776 0.34301 0.0
C581 C 0.5015 0.04826 0.418 0.0
N582 N 0.47862 0.08802 0.49258 0.0
N583 N 0.5274 0.0509 0.20733 0.0
C584 C 0.4849 0.07496 0.4208 0.0
C585 C 0.51082 0.05666 0.27415 0.0
N586 N 0.4551 0.11035 0.34649 0.0
N587 N 0.52433 0.00983 0.33768 0.0
H588 H 0.52579 0.06383 0.15555 0.0
H589 H 0.54363 0.03434 0.20478 0.0
H590 H 0.52552 0.99538 0.3866 0.0
H591 H 0.53041 7e-05 0.28359 0.0
H592 H 0.44127 0.11476 0.39535 0.0
H593 H 0.44916 0.12117 0.29349 0.0
H594 H 0.46948 0.10929 0.49718 0.0
H595 H 0.48429 0.07836 0.54729 0.0
C596 C 0.41947 0.44562 0.3398 0.0
C597 C 0.41321 0.4665 0.27853 0.0
C598 C 0.4549 0.49723 0.32991 0.0
C599 C 0.45405 0.48116 0.40399 0.0
N600 N 0.42866 0.4423 0.48112 0.0
N601 N 0.42638 0.51263 0.21329 0.0
C602 C 0.43501 0.45544 0.40915 0.0
C603 C 0.43171 0.49228 0.27214 0.0
N604 N 0.40744 0.41756 0.33546 0.0
N605 N 0.4781 0.51641 0.31335 0.0
H606 H 0.41036 0.50887 0.16891 0.0
H607 H 0.43692 0.53352 0.21107 0.0
H608 H 0.4967 0.5187 0.35063 0.0
H609 H 0.48062 0.52702 0.25815 0.0
H610 H 0.41245 0.40087 0.37683 0.0
H611 H 0.39496 0.41065 0.28584 0.0
H612 H 0.41293 0.42503 0.4873 0.0
H613 H 0.43591 0.45082 0.53571 0.0
C614 C 0.01168 0.43093 0.29971 0.0
C615 C 0.00114 0.40108 0.30683 0.0
C616 C 0.98317 0.41149 0.44302 0.0
C617 C 0.99378 0.44136 0.43658 0.0
N618 N 0.00812 0.48185 0.34824 0.0
N619 N 0.96805 0.36632 0.37333 0.0
C620 C 0.00508 0.45187 0.36166 0.0
C621 C 0.98392 0.39257 0.37477 0.0
N622 N 0.02864 0.43908 0.23507 0.0
N623 N 0.97318 0.40084 0.51511 0.0
H624 H 0.96734 0.35282 0.32256 0.0
H625 H 0.95308 0.35978 0.41813 0.0
H626 H 0.97248 0.41392 0.56666 0.0
H627 H 0.96804 0.37842 0.52551 0.0
H628 H 0.03968 0.45966 0.23063 0.0
H629 H 0.03279 0.4245 0.18776 0.0
H630 H 0.01294 0.49084 0.29206 0.0
H631 H 0.00306 0.49775 0.39162 0.0
C632 C 0.91614 -0.00205 0.89577 0.0
C633 C 0.912 0.9671 0.9126 0.0
C634 C 0.93657 0.95475 0.78603 0.0
C635 C 0.94298 0.9853 0.76937 0.0
N636 N 0.92825 0.03616 0.79712 0.0
N637 N 0.92799 0.91703 0.88731 0.0
C638 C 0.93044 0.00718 0.82224 0.0
C639 C 0.92675 0.94613 0.86345 0.0
N640 N 0.90608 0.01838 0.9498 0.0
N641 N 0.93446 0.93458 0.72522 0.0
H642 H 0.92009 0.91022 0.94343 0.0
H643 H 0.93906 0.90074 0.85428 0.0
H644 H 0.93419 0.94103 0.6653 0.0
H645 H 0.92762 0.91246 0.73401 0.0
H646 H 0.91068 0.04117 0.94654 0.0
H647 H 0.89554 0.01215 0.00294 0.0
H648 H 0.91867 0.05319 0.83037 0.0
H649 H 0.93177 0.04255 0.73791 0.0
C650 C 0.49193 0.93581 0.8971 0.0
C651 C 0.50703 0.90818 0.8889 0.0
C652 C 0.51757 0.91988 0.74745 0.0
C653 C 0.50265 0.94753 0.75549 0.0
N654 N 0.48336 0.98545 0.84323 0.0
N655 N 0.54216 0.8787 0.81434 0.0
C656 C 0.49248 0.95669 0.83232 0.0
C657 C 0.52265 0.90202 0.81662 0.0
N658 N 0.47538 0.94134 0.96421 0.0
N659 N 0.52546 0.90981 0.67334 0.0
H660 H 0.5467 0.86573 0.8648 0.0
H661 H 0.55613 0.87444 0.76574 0.0
H662 H 0.52237 0.92234 0.62139 0.0
H663 H 0.53326 0.88831 0.6629 0.0
H664 H 0.46091 0.95937 0.96936 0.0
H665 H 0.47461 0.92685 0.01302 0.0
H666 H 0.47819 0.9943 0.8991 0.0
H667 H 0.48393 0.00128 0.7973 0.0
C668 C 0.57319 0.55326 0.87114 0.0
C669 C 0.58507 0.53118 0.92239 0.0
C670 C 0.56901 0.49253 0.82618 0.0
C671 C 0.55734 0.51497 0.77388 0.0
N672 N 0.56518 0.5664 0.73352 0.0
N673 N 0.58838 0.47943 0.95771 0.0
C674 C 0.56357 0.54544 0.79281 0.0
C675 C 0.58076 0.50067 0.90293 0.0
N676 N 0.57281 0.58223 0.89626 0.0
N677 N 0.57296 0.46416 0.79824 0.0
H678 H 0.59725 0.48487 0.01348 0.0
H679 H 0.58305 0.45685 0.95164 0.0
H680 H 0.57082 0.45871 0.73796 0.0
H681 H 0.58303 0.44719 0.83087 0.0
H682 H 0.56234 0.59917 0.86418 0.0
H683 H 0.5803 0.58834 0.95316 0.0
H684 H 0.57174 0.58849 0.74354 0.0
H685 H 0.56528 0.56081 0.67308 0.0
C686 C 0.97149 0.59599 0.81778 0.0
C687 C 0.98263 0.58842 0.89445 0.0
C688 C 0.99517 0.53859 0.8434 0.0
C689 C 0.99051 0.54878 0.76371 0.0
N690 N 0.9747 0.58801 0.67462 0.0
N691 N 0.00382 0.55203 0.98263 0.0
C692 C 0.97826 0.57757 0.75081 0.0
C693 C 0.99349 0.55926 0.90837 0.0
N694 N 0.95525 0.62149 0.80927 0.0
N695 N 0.00119 0.50914 0.85659 0.0
H696 H 0.00164 0.56646 0.03123 0.0
H697 H 0.01541 0.5325 0.99521 0.0
H698 H 0.00209 0.49362 0.81015 0.0
H699 H 0.0025 0.49967 0.91339 0.0
H700 H 0.94425 0.62727 0.75665 0.0
H701 H 0.9503 0.63516 0.85801 0.0
H702 H 0.96911 0.61001 0.66141 0.0
H703 H 0.97894 0.57503 0.6242 0.0
C704 C 0.99274 0.15179 0.47794 0.0
C705 C 0.96895 0.16653 0.44081 0.0
C706 C 0.9369 0.12236 0.45868 0.0
C707 C 0.96312 0.10565 0.47422 0.0
N708 N 0.01702 0.10472 0.49516 0.0
N709 N 0.91698 0.1689 0.4065 0.0
C710 C 0.99133 0.12045 0.48413 0.0
C711 C 0.94019 0.15296 0.43734 0.0
N712 N 0.01718 0.16772 0.50322 0.0
N713 N 0.90929 0.1089 0.46256 0.0
H714 H 0.91948 0.19156 0.39259 0.0
H715 H 0.89608 0.15971 0.39264 0.0
H716 H 0.90643 0.08626 0.47579 0.0
H717 H 0.88924 0.12049 0.45772 0.0
H718 H 0.03443 0.15836 0.53669 0.0
H719 H 0.01824 0.19094 0.4985 0.0
H720 H 0.03837 0.11443 0.49356 0.0
H721 H 0.01721 0.08169 0.50053 0.0
C722 C 0.36767 0.04892 0.47375 0.0
C723 C 0.3422 0.03448 0.44329 0.0
C724 C 0.37014 0.98816 0.42403 0.0
C725 C 0.39677 0.00415 0.44335 0.0
N726 N 0.42142 0.04985 0.48425 0.0
N727 N 0.31606 0.98967 0.40388 0.0
C728 C 0.39565 0.0345 0.46836 0.0
C729 C 0.34242 0.00358 0.42422 0.0
N730 N 0.36473 0.07657 0.50709 0.0
N731 N 0.3717 0.95864 0.40327 0.0
H732 H 0.29547 0.00045 0.40672 0.0
H733 H 0.31395 0.9675 0.38648 0.0
H734 H 0.39179 0.9469 0.4017 0.0
H735 H 0.35343 0.94533 0.38759 0.0
H736 H 0.38181 0.0877 0.53766 0.0
H737 H 0.34391 0.08701 0.51078 0.0
H738 H 0.42225 0.07279 0.49354 0.0
H739 H 0.44207 0.03945 0.48683 0.0
C740 C 0.55993 0.3494 0.42609 0.0
C741 C 0.53199 0.33462 0.43828 0.0
C742 C 0.50899 0.38052 0.48185 0.0
C743 C 0.53692 0.3957 0.46992 0.0
N744 N 0.59019 0.39411 0.44552 0.0
N745 N 0.48323 0.33296 0.49874 0.0
C746 C 0.56289 0.37992 0.4472 0.0
C747 C 0.50762 0.34921 0.47361 0.0
N748 N 0.58295 0.33459 0.38996 0.0
N749 N 0.48354 0.39606 0.49817 0.0
H750 H 0.48211 0.30976 0.49291 0.0
H751 H 0.46583 0.3419 0.53254 0.0
H752 H 0.48357 0.419 0.5058 0.0
H753 H 0.46214 0.38651 0.49858 0.0
H754 H 0.60245 0.34503 0.36924 0.0
H755 H 0.58192 0.31176 0.37756 0.0
H756 H 0.6104 0.38309 0.43702 0.0
H757 H 0.59285 0.41684 0.45771 0.0
C758 C 0.15065 0.49759 0.40281 0.0
C759 C 0.15295 0.46741 0.429 0.0
C760 C 0.10153 0.46869 0.47687 0.0
C761 C 0.09971 0.49933 0.45537 0.0
N762 N 0.12515 0.54441 0.4104 0.0
N763 N 0.13414 0.42788 0.51305 0.0
C764 C 0.12539 0.51432 0.42451 0.0
C765 C 0.1297 0.45443 0.47487 0.0
N766 N 0.17088 0.51068 0.35225 0.0
N767 N 0.07618 0.45227 0.49034 0.0
H768 H 0.15479 0.41705 0.51141 0.0
H769 H 0.11841 0.41856 0.55235 0.0
H770 H 0.05512 0.4614 0.48301 0.0
H771 H 0.07622 0.42922 0.49936 0.0
H772 H 0.18923 0.49994 0.32702 0.0
H773 H 0.18923 0.49994 0.32702 0.0
H774 H 0.14351 0.55584 0.38572 0.0
H775 H 0.10742 0.55806 0.4275 0.0
C776 C 0.01489 0.86437 0.84006 0.0
C777 C 0.03363 0.8415 0.81023 0.0
C778 C 0.05016 0.8737 0.70011 0.0
C779 C 0.03085 0.8961 0.7297 0.0
N780 N 0.00306 0.91698 0.83869 0.0
N781 N 0.06726 0.82234 0.71033 0.0
C782 C 0.01597 0.89271 0.80364 0.0
C783 C 0.05091 0.84557 0.73976 0.0
N784 N 0.99498 0.85839 0.90065 0.0
N785 N 0.06837 0.87988 0.63628 0.0
H786 H 0.06851 0.80173 0.7392 0.0
H787 H 0.07833 0.82264 0.65554 0.0
H788 H 0.07015 0.90118 0.61155 0.0
H789 H 0.0838 0.8651 0.6123 0.0
H790 H 0.97907 0.87352 0.92066 0.0
H791 H 0.99238 0.83723 0.92619 0.0
H792 H 0.99421 0.91677 0.89639 0.0
H793 H 0.00417 0.9382 0.81268 0.0
C794 C 0.63286 0.93313 0.78197 0.0
C795 C 0.66037 0.9483 0.77504 0.0
C796 C 0.63417 0.99407 0.73781 0.0
C797 C 0.6067 0.97923 0.75666 0.0
N798 N 0.58297 0.93999 0.83256 0.0
N799 N 0.68839 0.98977 0.72165 0.0
C800 C 0.60705 0.9503 0.79002 0.0
C801 C 0.66141 0.97779 0.74432 0.0
N802 N 0.6323 0.90297 0.79291 0.0
N803 N 0.63436 0.02389 0.72062 0.0
H804 H 0.70811 0.97752 0.72424 0.0
H805 H 0.69103 0.01044 0.69389 0.0
H806 H 0.61543 0.03706 0.7279 0.0
H807 H 0.65361 0.03634 0.70791 0.0
H808 H 0.61232 0.8907 0.79704 0.0
H809 H 0.65203 0.89057 0.79092 0.0
H810 H 0.58347 0.92009 0.865 0.0
H811 H 0.5643 0.95341 0.84275 0.0
C812 C 0.47254 0.63259 0.84648 0.0
C813 C 0.44868 0.65087 0.81997 0.0
C814 C 0.43763 0.61578 0.71185 0.0
C815 C 0.46148 0.59764 0.73951 0.0
N816 N 0.49292 0.5828 0.84896 0.0
N817 N 0.40388 0.65653 0.74103 0.0
C818 C 0.47566 0.60397 0.81298 0.0
C819 C 0.42968 0.64138 0.7569 0.0
N820 N 0.49356 0.64324 0.899 0.0
N821 N 0.42356 0.60962 0.64127 0.0
H822 H 0.39734 0.67528 0.77339 0.0
H823 H 0.38769 0.64903 0.70076 0.0
H824 H 0.42608 0.58965 0.61053 0.0
H825 H 0.40968 0.62473 0.61222 0.0
H826 H 0.51288 0.63152 0.9137 0.0
H827 H 0.49354 0.66499 0.92116 0.0
H828 H 0.50216 0.58551 0.90576 0.0
H829 H 0.49514 0.56137 0.82517 0.0
C830 C 0.83401 0.52163 0.70723 0.0
C831 C 0.83245 0.55113 0.73603 0.0
C832 C 0.88443 0.55044 0.77485 0.0
C833 C 0.88698 0.52118 0.7444 0.0
N834 N 0.86184 0.47538 0.70672 0.0
N835 N 0.85753 0.59695 0.76899 0.0
C836 C 0.86111 0.50561 0.71675 0.0
C837 C 0.85863 0.56684 0.75756 0.0
N838 N 0.80929 0.50927 0.67195 0.0
N839 N 0.90646 0.56181 0.82278 0.0
H840 H 0.83782 0.60878 0.75845 0.0
H841 H 0.87649 0.60994 0.78154 0.0
H842 H 0.92478 0.5489 0.83978 0.0
H843 H 0.90472 0.58227 0.85202 0.0
H844 H 0.80923 0.48862 0.6434 0.0
H845 H 0.78957 0.52139 0.66504 0.0
H846 H 0.84331 0.46251 0.69007 0.0
H847 H 0.88013 0.4627 0.72469 0.0
C848 C 0.98574 0.18794 0.71106 0.0
C849 C 0.00997 0.19609 0.76075 0.0
C850 C 0.03008 0.14505 0.75102 0.0
C851 C 0.00336 0.13567 0.71127 0.0
N852 N 0.95645 0.14857 0.648 0.0
N853 N 0.05929 0.186 0.80944 0.0
C854 C 0.98166 0.15741 0.68836 0.0
C855 C 0.03368 0.17574 0.77354 0.0
N856 N 0.96656 0.20976 0.68676 0.0
N857 N 0.05075 0.12424 0.77307 0.0
H858 H 0.06199 0.20833 0.82594 0.0
H859 H 0.07856 0.17346 0.8173 0.0
H860 H 0.04877 0.10169 0.75857 0.0
H861 H 0.0693 0.12873 0.80881 0.0
H862 H 0.94929 0.20661 0.64583 0.0
H863 H 0.9698 0.23204 0.70331 0.0
H864 H 0.93828 0.16227 0.63631 0.0
H865 H 0.95317 0.12693 0.627 0.0
C866 C 0.3386 0.06255 0.7732 0.0
C867 C 0.31306 0.04336 0.77141 0.0
C868 C 0.33913 0.01194 0.67372 0.0
C869 C 0.36693 0.0264 0.69268 0.0
N870 N 0.39273 0.06693 0.75987 0.0
N871 N 0.28706 0.00226 0.71121 0.0
C872 C 0.36648 0.05276 0.74021 0.0
C873 C 0.3125 0.01934 0.71688 0.0
N874 N 0.3363 0.08925 0.81184 0.0
N875 N 0.33828 0.99095 0.61468 0.0
H876 H 0.26716 0.00826 0.73973 0.0
H877 H 0.28583 0.98203 0.68076 0.0
H878 H 0.35734 0.98473 0.58297 0.0
H879 H 0.31851 0.98168 0.59227 0.0
H880 H 0.35314 0.10554 0.81185 0.0
H881 H 0.31607 0.09591 0.8377 0.0
H882 H 0.39416 0.08406 0.80174 0.0
H883 H 0.41359 0.0604 0.73832 0.0
C884 C 0.51103 0.31352 0.72131 0.0
C885 C 0.49082 0.30719 0.78418 0.0
C886 C 0.47028 0.35802 0.77171 0.0
C887 C 0.49513 0.36619 0.72228 0.0
N888 N 0.53874 0.35107 0.64651 0.0
N889 N 0.44691 0.32012 0.85814 0.0
C890 C 0.51499 0.34356 0.69458 0.0
C891 C 0.46854 0.32832 0.80417 0.0
N892 N 0.52731 0.29061 0.69028 0.0
N893 N 0.44941 0.37901 0.79073 0.0
H894 H 0.44511 0.29825 0.87951 0.0
H895 H 0.43074 0.33431 0.8812 0.0
H896 H 0.45067 0.40095 0.77001 0.0
H897 H 0.4302 0.37477 0.82443 0.0
H898 H 0.54101 0.29261 0.63999 0.0
H899 H 0.52459 0.26876 0.71137 0.0
H900 H 0.55588 0.33647 0.63152 0.0
H901 H 0.54212 0.37249 0.62376 0.0
C902 C 0.18537 0.48731 0.74347 0.0
C903 C 0.18729 0.46054 0.78887 0.0
C904 C 0.13484 0.44821 0.75224 0.0
C905 C 0.13278 0.47536 0.70834 0.0
N906 N 0.16016 0.51349 0.63607 0.0
N907 N 0.16764 0.41085 0.80983 0.0
C908 C 0.15945 0.49248 0.69539 0.0
C909 C 0.16328 0.43935 0.78339 0.0
N910 N 0.20715 0.50882 0.74973 0.0
N911 N 0.10961 0.43185 0.76951 0.0
H912 H 0.18834 0.40387 0.83184 0.0
H913 H 0.15195 0.39369 0.80203 0.0
H914 H 0.08831 0.43759 0.74964 0.0
H915 H 0.10952 0.41383 0.80907 0.0
H916 H 0.20499 0.53009 0.7251 0.0
H917 H 0.2264 0.50624 0.7841 0.0
H918 H 0.17973 0.52479 0.61904 0.0
H919 H 0.14204 0.51693 0.59786 0.0
C920 C 0.00873 0.8241 0.3763 0.0
C921 C 0.98269 0.80782 0.39982 0.0
C922 C 0.96869 0.85005 0.48658 0.0
C923 C 0.99234 0.8679 0.45284 0.0
N924 N 0.02969 0.87294 0.34855 0.0
N925 N 0.93637 0.80608 0.47319 0.0
C926 C 0.01097 0.85511 0.39314 0.0
C927 C 0.96224 0.82103 0.45402 0.0
N928 N 0.03128 0.80995 0.3365 0.0
N929 N 0.95309 0.86005 0.55138 0.0
H930 H 0.93199 0.78435 0.45348 0.0
H931 H 0.91881 0.81572 0.50487 0.0
H932 H 0.95656 0.881 0.57655 0.0
H933 H 0.93818 0.84665 0.58384 0.0
H934 H 0.05193 0.82012 0.32414 0.0
H935 H 0.03045 0.78721 0.32313 0.0
H936 H 0.0417 0.86514 0.29939 0.0
H937 H 0.0303 0.89615 0.35409 0.0
C938 C 0.68804 0.99302 0.43237 0.0
C939 C 0.6998 0.9642 0.44566 0.0
C940 C 0.65344 0.95126 0.52128 0.0
C941 C 0.63998 0.97843 0.49587 0.0
N942 N 0.64327 0.02181 0.41007 0.0
N943 N 0.69282 0.91477 0.49926 0.0
C944 C 0.65709 -0.00153 0.4472 0.0
C945 C 0.68227 0.94307 0.48989 0.0
N946 N 0.7063 0.01506 0.40258 0.0
N947 N 0.63931 0.93367 0.57682 0.0
H948 H 0.71433 0.90882 0.48067 0.0
H949 H 0.67988 0.89716 0.52182 0.0
H950 H 0.61845 0.93881 0.60109 0.0
H951 H 0.64935 0.91526 0.6035 0.0
H952 H 0.69973 0.03727 0.39808 0.0
H953 H 0.729 0.0117 0.39079 0.0
H954 H 0.65396 0.03546 0.36801 0.0
H955 H 0.62018 0.02527 0.41352 0.0
C956 C 0.51824 0.66777 0.3537 0.0
C957 C 0.50509 0.69166 0.3968 0.0
C958 C 0.50079 0.65918 0.51505 0.0
C959 C 0.50793 0.63402 0.46709 0.0
N960 N 0.52537 0.61407 0.34216 0.0
N961 N 0.48607 0.71138 0.51985 0.0
C962 C 0.51801 0.63834 0.3873 0.0
C963 C 0.49771 0.68785 0.47865 0.0
N964 N 0.52997 0.67322 0.27947 0.0
N965 N 0.49683 0.65543 0.59544 0.0
H966 H 0.4851 0.73279 0.49515 0.0
H967 H 0.47661 0.70965 0.57667 0.0
H968 H 0.4997 0.63481 0.62305 0.0
H969 H 0.4935 0.67284 0.63551 0.0
H970 H 0.54182 0.65759 0.24641 0.0
H971 H 0.53003 0.69445 0.25368 0.0
H972 H 0.52945 0.61491 0.2809 0.0
H973 H 0.52627 0.59253 0.3659 0.0
C974 C 0.81496 0.51211 0.41506 0.0
C975 C 0.80674 0.54245 0.41593 0.0
C976 C 0.8512 0.55306 0.50061 0.0
C977 C 0.86268 0.52418 0.483 0.0
N978 N 0.85648 0.4782 0.40834 0.0
N979 N 0.81616 0.59218 0.464 0.0
C980 C 0.84463 0.50412 0.43695 0.0
C981 C 0.82445 0.56293 0.46142 0.0
N982 N 0.79475 0.49087 0.39124 0.0
N983 N 0.86513 0.57072 0.55603 0.0
H984 H 0.79585 0.59934 0.43989 0.0
H985 H 0.82978 0.60921 0.48655 0.0
H986 H 0.88425 0.5642 0.58694 0.0
H987 H 0.85622 0.5907 0.57664 0.0
H988 H 0.7988 0.46805 0.39635 0.0
H989 H 0.77275 0.49595 0.37603 0.0
H990 H 0.84497 0.46409 0.36923 0.0
H991 H 0.87903 0.47272 0.41474 0.0
loop_
_geom_bond_atom_site_label_1
_geom_bond_atom_site_label_2
_geom_bond_distance
_geom_bond_site_symmetry_2
_ccdc_geom_bond_type
C0 C1 1.391 . S
C0 C4 1.391 . S
C0 H42 0.948 . S
C1 C0 1.391 . S
C1 C2 1.391 . S
C2 C1 1.391 . S
C2 H58 0.947 . S
C2 C59 1.392 . S
C3 C4 1.391 . S
C3 C7 1.397 . S
C3 C59 1.419 . S
C4 C0 1.391 . S
C4 C3 1.391 . S
C4 C5 1.399 . S
C5 C4 1.399 . S
C5 C8 1.396 . S
C5 C17 1.453 . S
C5 C18 1.684 . S
H6 C30 0.948 . S
C7 C3 1.397 . S
C7 C8 1.394 . S
C7 C26 1.723 . S
C8 C5 1.396 . S
C8 C7 1.394 . S
C8 C38 1.723 . S
H9 C32 0.947 . S
H10 C33 0.948 . S
H11 C39 0.982 . S
H12 C40 0.979 . S
H13 C40 0.980 . S
H14 C40 0.983 . S
H15 C39 0.979 . S
H16 C39 0.977 . S
C17 C5 1.453 . S
C17 H46 0.982 . S
C17 H47 0.979 . S
C17 H48 0.977 . S
C18 C5 1.684 . S
C18 H43 0.979 . S
C18 H44 0.980 . S
C18 H45 0.983 . S
C19 C20 1.391 . S
C19 C24 1.391 . S
C19 H49 0.948 . S
C20 C19 1.391 . S
C20 C21 1.391 . S
C21 C20 1.391 . S
C21 C22 1.392 . S
C21 H50 0.947 . S
C22 C21 1.392 . S
C22 C23 1.419 . S
C22 H51 0.948 . S
C23 C22 1.419 . S
C23 C24 1.391 . S
C23 C27 1.397 . S
C24 C19 1.391 . S
C24 C23 1.391 . S
C24 C25 1.399 1_556 S
C25 C24 1.399 1_554 S
C25 C26 1.396 . S
C25 C28 1.453 . S
C25 C29 1.684 . S
C26 C7 1.723 . S
C26 C25 1.396 . S
C26 C27 1.394 1_554 S
C27 C23 1.397 . S
C27 C26 1.394 1_556 S
C27 C37 1.723 . S
C28 C25 1.453 . S
C28 H52 0.982 . S
C28 H53 0.979 . S
C28 H54 0.977 . S
C29 C25 1.684 . S
C29 H55 0.979 . S
C29 H56 0.980 . S
C29 H57 0.983 . S
C30 H6 0.948 . S
C30 C31 1.391 . S
C30 C35 1.391 . S
C31 C30 1.391 . S
C31 C32 1.391 1_556 S
C32 H9 0.947 . S
C32 C31 1.391 1_554 S
C32 C33 1.392 . S
C33 H10 0.948 . S
C33 C32 1.392 . S
C33 C34 1.419 . S
C34 C33 1.419 . S
C34 C35 1.391 1_554 S
C34 C38 1.397 . S
C35 C30 1.391 . S
C35 C34 1.391 1_556 S
C35 C36 1.399 . S
C36 C35 1.399 . S
C36 C37 1.396 . S
C36 C39 1.453 . S
C36 C40 1.684 . S
C37 C27 1.723 . S
C37 C36 1.396 . S
C37 C38 1.394 1_556 S
C38 C8 1.723 . S
C38 C34 1.397 . S
C38 C37 1.394 1_554 S
C39 H11 0.982 . S
C39 H15 0.979 . S
C39 H16 0.977 . S
C39 C36 1.453 . S
C40 H12 0.979 . S
C40 H13 0.980 . S
C40 H14 0.983 . S
C40 C36 1.684 . S
H41 C59 0.948 . S
H42 C0 0.948 . S
H43 C18 0.979 . S
H44 C18 0.980 . S
H45 C18 0.983 . S
H46 C17 0.982 . S
H47 C17 0.979 . S
H48 C17 0.977 . S
H49 C19 0.948 . S
H50 C21 0.947 . S
H51 C22 0.948 . S
H52 C28 0.982 . S
H53 C28 0.979 . S
H54 C28 0.977 . S
H55 C29 0.979 . S
H56 C29 0.980 . S
H57 C29 0.983 . S
H58 C2 0.947 . S
C59 C2 1.392 . S
C59 C3 1.419 . S
C59 H41 0.948 . S
C60 C61 1.391 . S
C60 C64 1.391 . S
C60 H102 0.948 . S
C61 C60 1.391 . S
C61 C62 1.391 . S
C62 C61 1.391 . S
C62 H118 0.947 . S
C62 C119 1.392 . S
C63 C64 1.391 . S
C63 C67 1.397 . S
C63 C119 1.419 . S
C64 C60 1.391 . S
C64 C63 1.391 . S
C64 C65 1.399 . S
C65 C64 1.399 . S
C65 C68 1.396 . S
C65 C77 1.453 1_655 S
C65 C78 1.684 . S
H66 C90 0.948 . S
C67 C63 1.397 . S
C67 C68 1.394 . S
C67 C86 1.723 1_556 S
C68 C65 1.396 . S
C68 C67 1.394 . S
C68 C98 1.723 1_556 S
H69 C92 0.947 . S
H70 C93 0.948 . S
H71 C99 0.982 . S
H72 C100 0.979 . S
H73 C100 0.980 . S
H74 C100 0.983 . S
H75 C99 0.979 . S
H76 C99 0.977 . S
C77 C65 1.453 1_455 S
C77 H106 0.982 . S
C77 H107 0.979 . S
C77 H108 0.977 . S
C78 C65 1.684 . S
C78 H103 0.979 . S
C78 H104 0.980 . S
C78 H105 0.983 . S
C79 C80 1.391 . S
C79 C84 1.391 . S
C79 H109 0.948 . S
C80 C79 1.391 . S
C80 C81 1.391 . S
C81 C80 1.391 . S
C81 C82 1.392 . S
C81 H110 0.947 . S
C82 C81 1.392 . S
C82 C83 1.419 . S
C82 H111 0.948 . S
C83 C82 1.419 . S
C83 C84 1.391 . S
C83 C87 1.397 . S
C84 C79 1.391 . S
C84 C83 1.391 . S
C84 C85 1.399 . S
C85 C84 1.399 . S
C85 C86 1.396 . S
C85 C88 1.453 1_655 S
C85 C89 1.684 . S
C86 C67 1.723 1_554 S
C86 C85 1.396 . S
C86 C87 1.394 . S
C87 C83 1.397 . S
C87 C86 1.394 . S
C87 C97 1.723 . S
C88 C85 1.453 1_455 S
C88 H112 0.982 . S
C88 H113 0.979 . S
C88 H114 0.977 . S
C89 C85 1.684 . S
C89 H115 0.979 . S
C89 H116 0.980 . S
C89 H117 0.983 . S
C90 H66 0.948 . S
C90 C91 1.391 1_554 S
C90 C95 1.391 . S
C91 C90 1.391 1_556 S
C91 C92 1.391 . S
C92 H69 0.947 . S
C92 C91 1.391 . S
C92 C93 1.392 . S
C93 H70 0.948 . S
C93 C92 1.392 . S
C93 C94 1.419 . S
C94 C93 1.419 . S
C94 C95 1.391 1_556 S
C94 C98 1.397 1_556 S
C95 C90 1.391 . S
C95 C94 1.391 1_554 S
C95 C96 1.399 . S
C96 C95 1.399 . S
C96 C97 1.396 . S
C96 C99 1.453 1_655 S
C96 C100 1.684 . S
C97 C87 1.723 . S
C97 C96 1.396 . S
C97 C98 1.394 . S
C98 C68 1.723 1_554 S
C98 C94 1.397 1_554 S
C98 C97 1.394 . S
C99 H71 0.982 . S
C99 H75 0.979 . S
C99 H76 0.977 . S
C99 C96 1.453 1_455 S
C100 H72 0.979 . S
C100 H73 0.980 . S
C100 H74 0.983 . S
C100 C96 1.684 . S
H101 C119 0.948 1_554 S
H102 C60 0.948 . S
H103 C78 0.979 . S
H104 C78 0.980 . S
H105 C78 0.983 . S
H106 C77 0.982 . S
H107 C77 0.979 . S
H108 C77 0.977 . S
H109 C79 0.948 . S
H110 C81 0.947 . S
H111 C82 0.948 . S
H112 C88 0.982 . S
H113 C88 0.979 . S
H114 C88 0.977 . S
H115 C89 0.979 . S
H116 C89 0.980 . S
H117 C89 0.983 . S
H118 C62 0.947 . S
C119 C62 1.392 . S
C119 C63 1.419 . S
C119 H101 0.948 1_556 S
C120 C121 1.391 1_554 S
C120 C124 1.391 . S
C120 H162 0.948 . S
C121 C120 1.391 1_556 S
C121 C122 1.391 . S
C122 C121 1.391 . S
C122 H178 0.947 . S
C122 C179 1.392 . S
C123 C124 1.391 1_556 S
C123 C127 1.397 1_556 S
C123 C179 1.419 . S
C124 C120 1.391 . S
C124 C123 1.391 1_554 S
C124 C125 1.399 . S
C125 C124 1.399 . S
C125 C128 1.396 . S
C125 C137 1.453 . S
C125 C138 1.684 . S
H126 C150 0.948 . S
C127 C123 1.397 1_554 S
C127 C128 1.394 . S
C127 C146 1.723 1_554 S
C128 C125 1.396 . S
C128 C127 1.394 . S
C128 C158 1.723 . S
H129 C152 0.947 . S
H130 C153 0.948 . S
H131 C159 0.982 . S
H132 C160 0.979 . S
H133 C160 0.980 . S
H134 C160 0.983 . S
H135 C159 0.979 . S
H136 C159 0.977 . S
C137 C125 1.453 . S
C137 H166 0.982 . S
C137 H167 0.979 . S
C137 H168 0.977 . S
C138 C125 1.684 . S
C138 H163 0.979 . S
C138 H164 0.980 . S
C138 H165 0.983 . S
C139 C140 1.391 . S
C139 C144 1.391 . S
C139 H169 0.948 . S
C140 C139 1.391 . S
C140 C141 1.391 . S
C141 C140 1.391 . S
C141 C142 1.392 . S
C141 H170 0.947 . S
C142 C141 1.392 . S
C142 C143 1.419 . S
C142 H171 0.948 1_556 S
C143 C142 1.419 . S
C143 C144 1.391 . S
C143 C147 1.397 1_556 S
C144 C139 1.391 . S
C144 C143 1.391 . S
C144 C145 1.399 . S
C145 C144 1.399 . S
C145 C146 1.396 . S
C145 C148 1.453 . S
C145 C149 1.684 . S
C146 C127 1.723 1_556 S
C146 C145 1.396 . S
C146 C147 1.394 1_556 S
C147 C143 1.397 1_554 S
C147 C146 1.394 1_554 S
C147 C157 1.723 . S
C148 C145 1.453 . S
C148 H172 0.982 . S
C148 H173 0.979 . S
C148 H174 0.977 . S
C149 C145 1.684 . S
C149 H175 0.979 . S
C149 H176 0.980 . S
C149 H177 0.983 . S
C150 H126 0.948 . S
C150 C151 1.391 . S
C150 C155 1.391 . S
C151 C150 1.391 . S
C151 C152 1.391 . S
C152 H129 0.947 . S
C152 C151 1.391 . S
C152 C153 1.392 . S
C153 H130 0.948 . S
C153 C152 1.392 . S
C153 C154 1.419 . S
C154 C153 1.419 . S
C154 C155 1.391 . S
C154 C158 1.397 . S
C155 C150 1.391 . S
C155 C154 1.391 . S
C155 C156 1.399 . S
C156 C155 1.399 . S
C156 C157 1.396 . S
C156 C159 1.453 . S
C156 C160 1.684 . S
C157 C147 1.723 . S
C157 C156 1.396 . S
C157 C158 1.394 . S
C158 C128 1.723 . S
C158 C154 1.397 . S
C158 C157 1.394 . S
C159 H131 0.982 . S
C159 H135 0.979 . S
C159 H136 0.977 . S
C159 C156 1.453 . S
C160 H132 0.979 . S
C160 H133 0.980 . S
C160 H134 0.983 . S
C160 C156 1.684 . S
H161 C179 0.948 . S
H162 C120 0.948 . S
H163 C138 0.979 . S
H164 C138 0.980 . S
H165 C138 0.983 . S
H166 C137 0.982 . S
H167 C137 0.979 . S
H168 C137 0.977 . S
H169 C139 0.948 . S
H170 C141 0.947 . S
H171 C142 0.948 1_554 S
H172 C148 0.982 . S
H173 C148 0.979 . S
H174 C148 0.977 . S
H175 C149 0.979 . S
H176 C149 0.980 . S
H177 C149 0.983 . S
H178 C122 0.947 . S
C179 C122 1.392 . S
C179 C123 1.419 . S
C179 H161 0.948 . S
C180 C181 1.391 . S
C180 C184 1.391 . S
C180 H222 0.948 . S
C181 C180 1.391 . S
C181 C182 1.391 . S
C182 C181 1.391 . S
C182 H238 0.947 . S
C182 C239 1.392 . S
C183 C184 1.391 . S
C183 C187 1.397 . S
C183 C239 1.419 . S
C184 C180 1.391 . S
C184 C183 1.391 . S
C184 C185 1.399 . S
C185 C184 1.399 . S
C185 C188 1.396 . S
C185 C197 1.453 . S
C185 C198 1.684 . S
H186 C210 0.948 . S
C187 C183 1.397 . S
C187 C188 1.394 . S
C187 C206 1.723 . S
C188 C185 1.396 . S
C188 C187 1.394 . S
C188 C218 1.723 . S
H189 C212 0.947 . S
H190 C213 0.948 . S
H191 C219 0.982 . S
H192 C220 0.979 . S
H193 C220 0.980 . S
H194 C220 0.983 . S
H195 C219 0.979 . S
H196 C219 0.977 . S
C197 C185 1.453 . S
C197 H226 0.982 . S
C197 H227 0.979 . S
C197 H228 0.977 . S
C198 C185 1.684 . S
C198 H223 0.979 . S
C198 H224 0.980 . S
C198 H225 0.983 . S
C199 C200 1.391 . S
C199 C204 1.391 . S
C199 H229 0.948 . S
C200 C199 1.391 . S
C200 C201 1.391 . S
C201 C200 1.391 . S
C201 C202 1.392 . S
C201 H230 0.947 . S
C202 C201 1.392 . S
C202 C203 1.419 . S
C202 H231 0.948 . S
C203 C202 1.419 . S
C203 C204 1.391 . S
C203 C207 1.397 . S
C204 C199 1.391 . S
C204 C203 1.391 . S
C204 C205 1.399 1_556 S
C205 C204 1.399 1_554 S
C205 C206 1.396 . S
C205 C208 1.453 . S
C205 C209 1.684 . S
C206 C187 1.723 . S
C206 C205 1.396 . S
C206 C207 1.394 1_554 S
C207 C203 1.397 . S
C207 C206 1.394 1_556 S
C207 C217 1.723 . S
C208 C205 1.453 . S
C208 H232 0.982 . S
C208 H233 0.979 . S
C208 H234 0.977 . S
C209 C205 1.684 . S
C209 H235 0.979 . S
C209 H236 0.980 . S
C209 H237 0.983 . S
C210 H186 0.948 . S
C210 C211 1.391 . S
C210 C215 1.391 . S
C211 C210 1.391 . S
C211 C212 1.391 1_556 S
C212 H189 0.947 . S
C212 C211 1.391 1_554 S
C212 C213 1.392 . S
C213 H190 0.948 . S
C213 C212 1.392 . S
C213 C214 1.419 . S
C214 C213 1.419 . S
C214 C215 1.391 1_554 S
C214 C218 1.397 . S
C215 C210 1.391 . S
C215 C214 1.391 1_556 S
C215 C216 1.399 . S
C216 C215 1.399 . S
C216 C217 1.396 . S
C216 C219 1.453 . S
C216 C220 1.684 . S
C217 C207 1.723 . S
C217 C216 1.396 . S
C217 C218 1.394 1_556 S
C218 C188 1.723 . S
C218 C214 1.397 . S
C218 C217 1.394 1_554 S
C219 H191 0.982 . S
C219 H195 0.979 . S
C219 H196 0.977 . S
C219 C216 1.453 . S
C220 H192 0.979 . S
C220 H193 0.980 . S
C220 H194 0.983 . S
C220 C216 1.684 . S
H221 C239 0.948 . S
H222 C180 0.948 . S
H223 C198 0.979 . S
H224 C198 0.980 . S
H225 C198 0.983 . S
H226 C197 0.982 . S
H227 C197 0.979 . S
H228 C197 0.977 . S
H229 C199 0.948 . S
H230 C201 0.947 . S
H231 C202 0.948 . S
H232 C208 0.982 . S
H233 C208 0.979 . S
H234 C208 0.977 . S
H235 C209 0.979 . S
H236 C209 0.980 . S
H237 C209 0.983 . S
H238 C182 0.947 . S
C239 C182 1.392 . S
C239 C183 1.419 . S
C239 H221 0.948 . S
C240 C241 1.391 . S
C240 C244 1.391 . S
C240 H282 0.948 . S
C241 C240 1.391 . S
C241 C242 1.391 . S
C242 C241 1.391 . S
C242 H298 0.947 . S
C242 C299 1.392 . S
C243 C244 1.391 . S
C243 C247 1.397 . S
C243 C299 1.419 . S
C244 C240 1.391 . S
C244 C243 1.391 . S
C244 C245 1.399 . S
C245 C244 1.399 . S
C245 C248 1.396 . S
C245 C257 1.453 . S
C245 C258 1.684 . S
H246 C270 0.948 . S
C247 C243 1.397 . S
C247 C248 1.394 . S
C247 C266 1.723 . S
C248 C245 1.396 . S
C248 C247 1.394 . S
C248 C278 1.723 . S
H249 C272 0.947 . S
H250 C273 0.948 . S
H251 C279 0.982 . S
H252 C280 0.979 . S
H253 C280 0.980 . S
H254 C280 0.983 . S
H255 C279 0.979 . S
H256 C279 0.977 . S
C257 C245 1.453 . S
C257 H286 0.982 . S
C257 H287 0.979 . S
C257 H288 0.977 1_554 S
C258 C245 1.684 . S
C258 H283 0.979 . S
C258 H284 0.980 1_554 S
C258 H285 0.983 . S
C259 C260 1.391 . S
C259 C264 1.391 . S
C259 H289 0.948 . S
C260 C259 1.391 . S
C260 C261 1.391 . S
C261 C260 1.391 . S
C261 C262 1.392 . S
C261 H290 0.947 . S
C262 C261 1.392 . S
C262 C263 1.419 . S
C262 H291 0.948 . S
C263 C262 1.419 . S
C263 C264 1.391 . S
C263 C267 1.397 . S
C264 C259 1.391 . S
C264 C263 1.391 . S
C264 C265 1.399 . S
C265 C264 1.399 . S
C265 C266 1.396 . S
C265 C268 1.453 . S
C265 C269 1.684 . S
C266 C247 1.723 . S
C266 C265 1.396 . S
C266 C267 1.394 . S
C267 C263 1.397 . S
C267 C266 1.394 . S
C267 C277 1.723 . S
C268 C265 1.453 . S
C268 H292 0.982 . S
C268 H293 0.979 . S
C268 H294 0.977 . S
C269 C265 1.684 . S
C269 H295 0.979 . S
C269 H296 0.980 . S
C269 H297 0.983 . S
C270 H246 0.948 . S
C270 C271 1.391 . S
C270 C275 1.391 . S
C271 C270 1.391 . S
C271 C272 1.391 . S
C272 H249 0.947 . S
C272 C271 1.391 . S
C272 C273 1.392 . S
C273 H250 0.948 . S
C273 C272 1.392 . S
C273 C274 1.419 . S
C274 C273 1.419 . S
C274 C275 1.391 . S
C274 C278 1.397 1_556 S
C275 C270 1.391 . S
C275 C274 1.391 . S
C275 C276 1.399 1_556 S
C276 C275 1.399 1_554 S
C276 C277 1.396 . S
C276 C279 1.453 . S
C276 C280 1.684 . S
C277 C267 1.723 . S
C277 C276 1.396 . S
C277 C278 1.394 . S
C278 C248 1.723 . S
C278 C274 1.397 1_554 S
C278 C277 1.394 . S
C279 H251 0.982 . S
C279 H255 0.979 . S
C279 H256 0.977 . S
C279 C276 1.453 . S
C280 H252 0.979 . S
C280 H253 0.980 . S
C280 H254 0.983 . S
C280 C276 1.684 . S
H281 C299 0.948 . S
H282 C240 0.948 . S
H283 C258 0.979 . S
H284 C258 0.980 1_556 S
H285 C258 0.983 . S
H286 C257 0.982 . S
H287 C257 0.979 . S
H288 C257 0.977 1_556 S
H289 C259 0.948 . S
H290 C261 0.947 . S
H291 C262 0.948 . S
H292 C268 0.982 . S
H293 C268 0.979 . S
H294 C268 0.977 . S
H295 C269 0.979 . S
H296 C269 0.980 . S
H297 C269 0.983 . S
H298 C242 0.947 . S
C299 C242 1.392 . S
C299 C243 1.419 . S
C299 H281 0.948 . S
C300 C301 1.391 . S
C300 C304 1.391 . S
C300 H342 0.948 . S
C301 C300 1.391 . S
C301 C302 1.391 . S
C302 C301 1.391 . S
C302 H358 0.947 . S
C302 C359 1.392 . S
C303 C304 1.391 . S
C303 C307 1.396 1_655 S
C303 C359 1.419 . S
C304 C300 1.391 . S
C304 C303 1.391 . S
C304 C305 1.399 . S
C305 C304 1.399 . S
C305 C308 1.396 1_655 S
C305 C317 1.453 1_655 S
C305 C318 1.684 . S
H306 C330 0.948 . S
C307 C303 1.396 1_455 S
C307 C308 1.395 . S
C307 C326 1.724 . S
C308 C305 1.396 1_455 S
C308 C307 1.395 . S
C308 C338 1.723 . S
H309 C332 0.947 . S
H310 C333 0.948 . S
H311 C339 0.982 . S
H312 C340 0.981 . S
H313 C340 0.972 1_556 S
H314 C340 0.981 1_556 S
H315 C339 0.979 . S
H316 C339 0.977 1_556 S
C317 C305 1.453 1_455 S
C317 H346 0.982 . S
C317 H347 0.979 . S
C317 H348 0.977 . S
C318 C305 1.684 . S
C318 H343 0.979 . S
C318 H344 0.980 . S
C318 H345 0.983 . S
C319 C320 1.391 . S
C319 C324 1.391 . S
C319 H349 0.948 . S
C320 C319 1.391 . S
C320 C321 1.391 . S
C321 C320 1.391 . S
C321 C322 1.392 . S
C321 H350 0.947 . S
C322 C321 1.392 . S
C322 C323 1.419 . S
C322 H351 0.948 . S
C323 C322 1.419 . S
C323 C324 1.391 . S
C323 C327 1.396 1_656 S
C324 C319 1.391 . S
C324 C323 1.391 . S
C324 C325 1.399 1_556 S
C325 C324 1.399 1_554 S
C325 C326 1.396 1_655 S
C325 C328 1.453 1_655 S
C325 C329 1.684 . S
C326 C307 1.724 . S
C326 C325 1.396 1_455 S
C326 C327 1.395 . S
C327 C323 1.396 1_454 S
C327 C326 1.395 . S
C327 C337 1.723 . S
C328 C325 1.453 1_455 S
C328 H352 0.982 . S
C328 H353 0.979 . S
C328 H354 0.977 . S
C329 C325 1.684 . S
C329 H355 0.979 . S
C329 H356 0.980 . S
C329 H357 0.983 . S
C330 H306 0.948 . S
C330 C331 1.391 . S
C330 C335 1.391 . S
C331 C330 1.391 . S
C331 C332 1.391 . S
C332 H309 0.947 . S
C332 C331 1.391 . S
C332 C333 1.392 . S
C333 H310 0.948 . S
C333 C332 1.392 . S
C333 C334 1.419 . S
C334 C333 1.419 . S
C334 C335 1.391 . S
C334 C338 1.397 1_655 S
C335 C330 1.391 . S
C335 C334 1.391 . S
C335 C336 1.399 . S
C336 C335 1.399 . S
C336 C337 1.396 1_655 S
C336 C339 1.453 1_655 S
C336 C340 1.691 . S
C337 C327 1.723 . S
C337 C336 1.396 1_455 S
C337 C338 1.394 . S
C338 C308 1.723 . S
C338 C334 1.397 1_455 S
C338 C337 1.394 . S
C339 H311 0.982 . S
C339 H315 0.979 . S
C339 H316 0.977 1_554 S
C339 C336 1.453 1_455 S
C340 H312 0.981 . S
C340 H313 0.972 1_554 S
C340 H314 0.981 1_554 S
C340 C336 1.691 . S
H341 C359 0.948 . S
H342 C300 0.948 . S
H343 C318 0.979 . S
H344 C318 0.980 . S
H345 C318 0.983 . S
H346 C317 0.982 . S
H347 C317 0.979 . S
H348 C317 0.977 . S
H349 C319 0.948 . S
H350 C321 0.947 . S
H351 C322 0.948 . S
H352 C328 0.982 . S
H353 C328 0.979 . S
H354 C328 0.977 . S
H355 C329 0.979 . S
H356 C329 0.980 . S
H357 C329 0.983 . S
H358 C302 0.947 . S
C359 C302 1.392 . S
C359 C303 1.419 . S
C359 H341 0.948 . S
C360 C361 1.391 . S
C360 C364 1.391 . S
C360 H402 0.948 . S
C361 C360 1.391 . S
C361 C362 1.391 . S
C362 C361 1.391 . S
C362 H418 0.947 . S
C362 C419 1.392 . S
C363 C364 1.391 . S
C363 C367 1.397 1_556 S
C363 C419 1.419 . S
C364 C360 1.391 . S
C364 C363 1.391 . S
C364 C365 1.399 . S
C365 C364 1.399 . S
C365 C368 1.396 1_556 S
C365 C377 1.453 . S
C365 C378 1.684 . S
H366 C390 0.948 . S
C367 C363 1.397 1_554 S
C367 C368 1.394 . S
C367 C386 1.723 . S
C368 C365 1.396 1_554 S
C368 C367 1.394 . S
C368 C398 1.723 . S
H369 C392 0.947 . S
H370 C393 0.948 . S
H371 C399 0.982 . S
H372 C400 0.979 . S
H373 C400 0.980 . S
H374 C400 0.983 . S
H375 C399 0.979 . S
H376 C399 0.977 . S
C377 C365 1.453 . S
C377 H406 0.982 . S
C377 H407 0.979 . S
C377 H408 0.977 . S
C378 C365 1.684 . S
C378 H403 0.979 . S
C378 H404 0.980 . S
C378 H405 0.983 . S
C379 C380 1.391 . S
C379 C384 1.391 . S
C379 H409 0.948 . S
C380 C379 1.391 . S
C380 C381 1.391 . S
C381 C380 1.391 . S
C381 C382 1.392 . S
C381 H410 0.947 . S
C382 C381 1.392 . S
C382 C383 1.419 . S
C382 H411 0.948 . S
C383 C382 1.419 . S
C383 C384 1.391 . S
C383 C387 1.397 . S
C384 C379 1.391 . S
C384 C383 1.391 . S
C384 C385 1.399 . S
C385 C384 1.399 . S
C385 C386 1.396 . S
C385 C388 1.453 . S
C385 C389 1.684 . S
C386 C367 1.723 . S
C386 C385 1.396 . S
C386 C387 1.394 . S
C387 C383 1.397 . S
C387 C386 1.394 . S
C387 C397 1.723 . S
C388 C385 1.453 . S
C388 H412 0.982 . S
C388 H413 0.979 . S
C388 H414 0.977 . S
C389 C385 1.684 . S
C389 H415 0.979 . S
C389 H416 0.980 . S
C389 H417 0.983 . S
C390 H366 0.948 . S
C390 C391 1.391 . S
C390 C395 1.391 . S
C391 C390 1.391 . S
C391 C392 1.391 . S
C392 H369 0.947 . S
C392 C391 1.391 . S
C392 C393 1.392 . S
C393 H370 0.948 . S
C393 C392 1.392 . S
C393 C394 1.419 . S
C394 C393 1.419 . S
C394 C395 1.391 . S
C394 C398 1.397 . S
C395 C390 1.391 . S
C395 C394 1.391 . S
C395 C396 1.399 . S
C396 C395 1.399 . S
C396 C397 1.396 . S
C396 C399 1.453 . S
C396 C400 1.684 . S
C397 C387 1.723 . S
C397 C396 1.396 . S
C397 C398 1.394 . S
C398 C368 1.723 . S
C398 C394 1.397 . S
C398 C397 1.394 . S
C399 H371 0.982 . S
C399 H375 0.979 . S
C399 H376 0.977 . S
C399 C396 1.453 . S
C400 H372 0.979 . S
C400 H373 0.980 . S
C400 H374 0.983 . S
C400 C396 1.684 . S
H401 C419 0.948 1_554 S
H402 C360 0.948 . S
H403 C378 0.979 . S
H404 C378 0.980 . S
H405 C378 0.983 . S
H406 C377 0.982 . S
H407 C377 0.979 . S
H408 C377 0.977 . S
H409 C379 0.948 . S
H410 C381 0.947 . S
H411 C382 0.948 . S
H412 C388 0.982 . S
H413 C388 0.979 . S
H414 C388 0.977 . S
H415 C389 0.979 . S
H416 C389 0.980 . S
H417 C389 0.983 . S
H418 C362 0.947 . S
C419 C362 1.392 . S
C419 C363 1.419 . S
C419 H401 0.948 1_556 S
C420 C421 1.391 . S
C420 C424 1.391 . S
C420 H462 0.948 . S
C421 C420 1.391 . S
C421 C422 1.391 . S
C422 C421 1.391 . S
C422 H478 0.947 . S
C422 C479 1.392 . S
C423 C424 1.391 . S
C423 C427 1.397 1_556 S
C423 C479 1.419 . S
C424 C420 1.391 . S
C424 C423 1.391 . S
C424 C425 1.399 . S
C425 C424 1.399 . S
C425 C428 1.396 1_556 S
C425 C437 1.453 . S
C425 C438 1.684 . S
H426 C450 0.948 . S
C427 C423 1.397 1_554 S
C427 C428 1.394 . S
C427 C446 1.723 . S
C428 C425 1.396 1_554 S
C428 C427 1.394 . S
C428 C458 1.723 . S
H429 C452 0.947 . S
H430 C453 0.948 . S
H431 C459 0.982 . S
H432 C460 0.979 . S
H433 C460 0.980 . S
H434 C460 0.983 . S
H435 C459 0.979 . S
H436 C459 0.977 . S
C437 C425 1.453 . S
C437 H466 0.982 . S
C437 H467 0.979 . S
C437 H468 0.977 . S
C438 C425 1.684 . S
C438 H463 0.979 . S
C438 H464 0.980 . S
C438 H465 0.983 . S
C439 C440 1.391 . S
C439 C444 1.391 . S
C439 H469 0.948 . S
C440 C439 1.391 . S
C440 C441 1.391 . S
C441 C440 1.391 . S
C441 C442 1.392 . S
C441 H470 0.947 . S
C442 C441 1.392 . S
C442 C443 1.419 . S
C442 H471 0.948 . S
C443 C442 1.419 . S
C443 C444 1.391 . S
C443 C447 1.397 . S
C444 C439 1.391 . S
C444 C443 1.391 . S
C444 C445 1.399 . S
C445 C444 1.399 . S
C445 C446 1.396 . S
C445 C448 1.453 . S
C445 C449 1.684 . S
C446 C427 1.723 . S
C446 C445 1.396 . S
C446 C447 1.394 . S
C447 C443 1.397 . S
C447 C446 1.394 . S
C447 C457 1.723 . S
C448 C445 1.453 . S
C448 H472 0.982 . S
C448 H473 0.979 . S
C448 H474 0.977 . S
C449 C445 1.684 . S
C449 H475 0.979 . S
C449 H476 0.980 . S
C449 H477 0.983 . S
C450 H426 0.948 . S
C450 C451 1.391 . S
C450 C455 1.391 . S
C451 C450 1.391 . S
C451 C452 1.391 . S
C452 H429 0.947 . S
C452 C451 1.391 . S
C452 C453 1.392 . S
C453 H430 0.948 . S
C453 C452 1.392 . S
C453 C454 1.419 . S
C454 C453 1.419 . S
C454 C455 1.391 . S
C454 C458 1.397 . S
C455 C450 1.391 . S
C455 C454 1.391 . S
C455 C456 1.399 . S
C456 C455 1.399 . S
C456 C457 1.396 . S
C456 C459 1.453 . S
C456 C460 1.684 . S
C457 C447 1.723 . S
C457 C456 1.396 . S
C457 C458 1.394 . S
C458 C428 1.723 . S
C458 C454 1.397 . S
C458 C457 1.394 . S
C459 H431 0.982 . S
C459 H435 0.979 . S
C459 H436 0.977 . S
C459 C456 1.453 . S
C460 H432 0.979 . S
C460 H433 0.980 . S
C460 H434 0.983 . S
C460 C456 1.684 . S
H461 C479 0.948 1_554 S
H462 C420 0.948 . S
H463 C438 0.979 . S
H464 C438 0.980 . S
H465 C438 0.983 . S
H466 C437 0.982 . S
H467 C437 0.979 . S
H468 C437 0.977 . S
H469 C439 0.948 . S
H470 C441 0.947 . S
H471 C442 0.948 . S
H472 C448 0.982 . S
H473 C448 0.979 . S
H474 C448 0.977 . S
H475 C449 0.979 . S
H476 C449 0.980 . S
H477 C449 0.983 . S
H478 C422 0.947 . S
C479 C422 1.392 . S
C479 C423 1.419 . S
C479 H461 0.948 1_556 S
Zn480 O486 1.985 . S
Zn480 O487 1.949 1_655 S
Zn480 O491 2.006 1_655 S
Zn480 O496 1.993 . S
Zn481 O488 1.969 . S
Zn481 O494 1.969 . S
Zn481 O495 1.965 1_455 S
Zn481 O497 2.024 1_455 S
C482 O483 1.229 1_455 S
C482 O491 1.058 . S
O483 C482 1.229 1_655 S
C484 O485 1.229 1_655 S
C484 O497 1.058 . S
O485 C484 1.229 1_455 S
O486 Zn480 1.985 . S
O486 C489 1.267 . S
O487 Zn480 1.949 1_455 S
O487 C498 1.260 . S
O488 Zn481 1.969 . S
O488 C498 1.258 1_565 S
C489 O486 1.267 . S
C489 O490 1.228 1_655 S
O490 C489 1.228 1_455 S
O491 Zn480 2.006 1_455 S
O491 C482 1.058 . S
C492 O493 1.228 1_455 S
C492 O494 1.267 . S
O493 C492 1.228 1_655 S
O494 Zn481 1.969 . S
O494 C492 1.267 . S
O495 Zn481 1.965 1_655 S
O495 C499 1.260 1_565 S
O496 Zn480 1.993 . S
O496 C499 1.258 . S
O497 Zn481 2.024 1_655 S
O497 C484 1.058 . S
C498 O487 1.260 . S
C498 O488 1.258 1_545 S
C499 O495 1.260 1_545 S
C499 O496 1.258 . S
Zn500 O506 1.969 1_545 S
Zn500 O507 1.965 . S
Zn500 O511 2.024 . S
Zn500 O516 1.969 1_545 S
Zn501 O508 1.969 1_565 S
Zn501 O514 1.969 1_565 S
Zn501 O515 1.965 . S
Zn501 O517 2.024 . S
C502 O503 1.229 . S
C502 O511 1.058 . S
O503 C502 1.229 . S
C504 O505 1.229 . S
C504 O517 1.058 . S
O505 C504 1.229 . S
O506 Zn500 1.969 1_565 S
O506 C509 1.267 1_565 S
O507 Zn500 1.965 . S
O507 C518 1.260 . S
O508 Zn501 1.969 1_545 S
O508 C518 1.258 . S
C509 O506 1.267 1_545 S
C509 O510 1.228 . S
O510 C509 1.228 . S
O511 Zn500 2.024 . S
O511 C502 1.058 . S
C512 O513 1.228 . S
C512 O514 1.267 1_565 S
O513 C512 1.228 . S
O514 Zn501 1.969 1_545 S
O514 C512 1.267 1_545 S
O515 Zn501 1.965 . S
O515 C519 1.260 . S
O516 Zn500 1.969 1_565 S
O516 C519 1.258 . S
O517 Zn501 2.024 . S
O517 C504 1.058 . S
C518 O507 1.260 . S
C518 O508 1.258 . S
C519 O515 1.260 . S
C519 O516 1.258 . S
Zn520 O526 1.969 . S
Zn520 O527 1.965 . S
Zn520 O531 2.024 . S
Zn520 O536 1.969 . S
Zn521 O528 1.969 . S
Zn521 O534 1.969 . S
Zn521 O535 1.965 . S
Zn521 O537 2.024 . S
C522 O523 1.229 . S
C522 O531 1.058 . S
O523 C522 1.229 . S
C524 O525 1.229 . S
C524 O537 1.058 . S
O525 C524 1.229 . S
O526 Zn520 1.969 . S
O526 C529 1.267 . S
O527 Zn520 1.965 . S
O527 C538 1.260 . S
O528 Zn521 1.969 . S
O528 C538 1.258 . S
C529 O526 1.267 . S
C529 O530 1.228 . S
O530 C529 1.228 . S
O531 Zn520 2.024 . S
O531 C522 1.058 . S
C532 O533 1.228 . S
C532 O534 1.267 . S
O533 C532 1.228 . S
O534 Zn521 1.969 . S
O534 C532 1.267 . S
O535 Zn521 1.965 . S
O535 C539 1.260 . S
O536 Zn520 1.969 . S
O536 C539 1.258 . S
O537 Zn521 2.024 . S
O537 C524 1.058 . S
C538 O527 1.260 . S
C538 O528 1.258 . S
C539 O535 1.260 . S
C539 O536 1.258 . S
Zn540 O546 1.969 . S
Zn540 O547 1.965 . S
Zn540 O551 2.024 . S
Zn540 O556 1.969 . S
Zn541 O548 1.969 . S
Zn541 O554 1.969 . S
Zn541 O555 1.965 . S
Zn541 O557 2.024 . S
C542 O543 1.229 . S
C542 O551 1.058 . S
O543 C542 1.229 . S
C544 O545 1.229 . S
C544 O557 1.058 . S
O545 C544 1.229 . S
O546 Zn540 1.969 . S
O546 C549 1.267 . S
O547 Zn540 1.965 . S
O547 C558 1.260 1_455 S
O548 Zn541 1.969 . S
O548 C558 1.258 . S
C549 O546 1.267 . S
C549 O550 1.228 . S
O550 C549 1.228 . S
O551 Zn540 2.024 . S
O551 C542 1.058 . S
C552 O553 1.228 . S
C552 O554 1.267 . S
O553 C552 1.228 . S
O554 Zn541 1.969 . S
O554 C552 1.267 . S
O555 Zn541 1.965 . S
O555 C559 1.260 1_655 S
O556 Zn540 1.969 . S
O556 C559 1.258 . S
O557 Zn541 2.024 . S
O557 C544 1.058 . S
C558 O547 1.260 1_655 S
C558 O548 1.258 . S
C559 O555 1.260 1_455 S
C559 O556 1.258 . S
C560 C561 1.363 . S
C560 C566 1.379 . S
C560 N568 1.356 . S
C561 C560 1.363 . S
C561 C567 1.363 . S
C562 C563 1.363 . S
C562 C567 1.379 . S
C562 N569 1.356 . S
C563 C562 1.363 . S
C563 C566 1.363 . S
N564 C566 1.356 1_565 S
N564 H576 0.984 . S
N564 H577 0.985 . S
N565 C567 1.356 . S
N565 H570 0.984 . S
N565 H571 0.985 . S
C566 C560 1.379 . S
C566 C563 1.363 . S
C566 N564 1.356 1_545 S
C567 C561 1.363 . S
C567 C562 1.379 . S
C567 N565 1.356 . S
N568 C560 1.356 . S
N568 H574 0.984 1_545 S
N568 H575 0.984 . S
N569 C562 1.356 . S
N569 H572 0.984 . S
N569 H573 0.985 . S
H570 N565 0.984 . S
H571 N565 0.985 . S
H572 N569 0.984 . S
H573 N569 0.985 . S
H574 N568 0.984 1_565 S
H575 N568 0.984 . S
H576 N564 0.984 . S
H577 N564 0.985 . S
C578 C579 1.363 . S
C578 C584 1.379 . S
C578 N586 1.356 . S
C579 C578 1.363 . S
C579 C585 1.363 . S
C580 C581 1.363 . S
C580 C585 1.379 . S
C580 N587 1.356 . S
C581 C580 1.363 . S
C581 C584 1.363 . S
N582 C584 1.356 . S
N582 H594 0.984 . S
N582 H595 0.985 . S
N583 C585 1.356 . S
N583 H588 0.984 . S
N583 H589 0.985 . S
C584 C578 1.379 . S
C584 C581 1.363 . S
C584 N582 1.356 . S
C585 C579 1.363 . S
C585 C580 1.379 . S
C585 N583 1.356 . S
N586 C578 1.356 . S
N586 H592 0.984 . S
N586 H593 0.984 . S
N587 C580 1.356 . S
N587 H590 0.984 . S
N587 H591 0.985 . S
H588 N583 0.984 . S
H589 N583 0.985 . S
H590 N587 0.984 . S
H591 N587 0.985 . S
H592 N586 0.984 . S
H593 N586 0.984 . S
H594 N582 0.984 . S
H595 N582 0.985 . S
C596 C597 1.363 . S
C596 C602 1.379 . S
C596 N604 1.356 . S
C597 C596 1.363 . S
C597 C603 1.363 . S
C598 C599 1.363 . S
C598 C603 1.379 . S
C598 N605 1.356 . S
C599 C598 1.363 . S
C599 C602 1.363 . S
N600 C602 1.356 . S
N600 H612 0.984 . S
N600 H613 0.985 . S
N601 C603 1.356 . S
N601 H606 0.984 . S
N601 H607 0.985 . S
C602 C596 1.379 . S
C602 C599 1.363 . S
C602 N600 1.356 . S
C603 C597 1.363 . S
C603 C598 1.379 . S
C603 N601 1.356 . S
N604 C596 1.356 . S
N604 H610 0.984 . S
N604 H611 0.984 . S
N605 C598 1.356 . S
N605 H608 0.984 . S
N605 H609 0.985 . S
H606 N601 0.984 . S
H607 N601 0.985 . S
H608 N605 0.984 . S
H609 N605 0.985 . S
H610 N604 0.984 . S
H611 N604 0.984 . S
H612 N600 0.984 . S
H613 N600 0.985 . S
C614 C615 1.363 1_455 S
C614 C620 1.379 . S
C614 N622 1.356 . S
C615 C614 1.363 1_655 S
C615 C621 1.363 . S
C616 C617 1.363 . S
C616 C621 1.379 . S
C616 N623 1.356 . S
C617 C616 1.363 . S
C617 C620 1.363 1_655 S
N618 C620 1.356 . S
N618 H630 0.984 . S
N618 H631 0.985 . S
N619 C621 1.356 . S
N619 H624 0.984 . S
N619 H625 0.985 . S
C620 C614 1.379 . S
C620 C617 1.363 1_455 S
C620 N618 1.356 . S
C621 C615 1.363 . S
C621 C616 1.379 . S
C621 N619 1.356 . S
N622 C614 1.356 . S
N622 H628 0.984 . S
N622 H629 0.984 . S
N623 C616 1.356 . S
N623 H626 0.984 . S
N623 H627 0.985 . S
H624 N619 0.984 . S
H625 N619 0.985 . S
H626 N623 0.984 . S
H627 N623 0.985 . S
H628 N622 0.984 . S
H629 N622 0.984 . S
H630 N618 0.984 . S
H631 N618 0.985 . S
C632 C633 1.363 . S
C632 C638 1.379 1_565 S
C632 N640 1.356 1_565 S
C633 C632 1.363 . S
C633 C639 1.363 . S
C634 C635 1.363 . S
C634 C639 1.379 . S
C634 N641 1.356 . S
C635 C634 1.363 . S
C635 C638 1.363 1_565 S
N636 C638 1.356 . S
N636 H648 0.984 . S
N636 H649 0.985 . S
N637 C639 1.356 . S
N637 H642 0.984 . S
N637 H643 0.985 . S
C638 C632 1.379 1_545 S
C638 C635 1.363 1_545 S
C638 N636 1.356 . S
C639 C633 1.363 . S
C639 C634 1.379 . S
C639 N637 1.356 . S
N640 C632 1.356 1_545 S
N640 H646 0.984 . S
N640 H647 0.984 1_545 S
N641 C634 1.356 . S
N641 H644 0.984 . S
N641 H645 0.985 . S
H642 N637 0.984 . S
H643 N637 0.985 . S
H644 N641 0.984 . S
H645 N641 0.985 . S
H646 N640 0.984 . S
H647 N640 0.984 1_565 S
H648 N636 0.984 . S
H649 N636 0.985 . S
C650 C651 1.363 . S
C650 C656 1.379 . S
C650 N658 1.356 . S
C651 C650 1.363 . S
C651 C657 1.363 . S
C652 C653 1.363 . S
C652 C657 1.379 . S
C652 N659 1.356 . S
C653 C652 1.363 . S
C653 C656 1.363 . S
N654 C656 1.356 . S
N654 H666 0.984 . S
N654 H667 0.985 . S
N655 C657 1.356 . S
N655 H660 0.984 . S
N655 H661 0.985 . S
C656 C650 1.379 . S
C656 C653 1.363 . S
C656 N654 1.356 . S
C657 C651 1.363 . S
C657 C652 1.379 . S
C657 N655 1.356 . S
N658 C650 1.356 . S
N658 H664 0.984 . S
N658 H665 0.984 . S
N659 C652 1.356 . S
N659 H662 0.984 . S
N659 H663 0.985 . S
H660 N655 0.984 . S
H661 N655 0.985 . S
H662 N659 0.984 . S
H663 N659 0.985 . S
H664 N658 0.984 . S
H665 N658 0.984 . S
H666 N654 0.984 . S
H667 N654 0.985 . S
C668 C669 1.363 . S
C668 C674 1.379 . S
C668 N676 1.356 . S
C669 C668 1.363 . S
C669 C675 1.363 . S
C670 C671 1.363 . S
C670 C675 1.379 . S
C670 N677 1.356 . S
C671 C670 1.363 . S
C671 C674 1.363 . S
N672 C674 1.356 . S
N672 H684 0.984 . S
N672 H685 0.985 . S
N673 C675 1.356 . S
N673 H678 0.984 . S
N673 H679 0.985 . S
C674 C668 1.379 . S
C674 C671 1.363 . S
C674 N672 1.356 . S
C675 C669 1.363 . S
C675 C670 1.379 . S
C675 N673 1.356 . S
N676 C668 1.356 . S
N676 H682 0.984 . S
N676 H683 0.984 . S
N677 C670 1.356 . S
N677 H680 0.984 . S
N677 H681 0.985 . S
H678 N673 0.984 . S
H679 N673 0.985 . S
H680 N677 0.984 . S
H681 N677 0.985 . S
H682 N676 0.984 . S
H683 N676 0.984 . S
H684 N672 0.984 . S
H685 N672 0.985 . S
C686 C687 1.363 . S
C686 C692 1.379 . S
C686 N694 1.356 . S
C687 C686 1.363 . S
C687 C693 1.365 . S
C688 C689 1.364 . S
C688 C693 1.377 1_455 S
C688 N695 1.356 . S
C689 C688 1.364 . S
C689 C692 1.361 1_455 S
N690 C692 1.356 . S
N690 H702 0.984 . S
N690 H703 0.985 . S
N691 C693 1.356 1_455 S
N691 H696 0.982 1_456 S
N691 H697 0.989 . S
C692 C686 1.379 . S
C692 C689 1.361 1_655 S
C692 N690 1.356 . S
C693 C687 1.365 . S
C693 C688 1.377 1_655 S
C693 N691 1.356 1_655 S
N694 C686 1.356 . S
N694 H700 0.984 . S
N694 H701 0.984 . S
N695 C688 1.356 . S
N695 H698 0.984 . S
N695 H699 0.985 . S
H696 N691 0.982 1_654 S
H697 N691 0.989 . S
H698 N695 0.984 . S
H699 N695 0.985 . S
H700 N694 0.984 . S
H701 N694 0.984 . S
H702 N690 0.984 . S
H703 N690 0.985 . S
C704 C705 1.367 . S
C704 C710 1.379 . S
C704 N712 1.356 . S
C705 C704 1.367 . S
C705 C711 1.358 1_455 S
C706 C707 1.363 . S
C706 C711 1.379 . S
C706 N713 1.356 . S
C707 C706 1.363 . S
C707 C710 1.363 1_655 S
N708 C710 1.356 . S
N708 H720 0.984 . S
N708 H721 0.985 . S
N709 C711 1.356 . S
N709 H714 0.984 . S
N709 H715 0.985 . S
C710 C704 1.379 . S
C710 C707 1.363 1_455 S
C710 N708 1.356 . S
C711 C705 1.358 1_655 S
C711 C706 1.379 . S
C711 N709 1.356 . S
N712 C704 1.356 . S
N712 H718 0.984 . S
N712 H719 0.984 . S
N713 C706 1.356 . S
N713 H716 0.984 . S
N713 H717 0.985 . S
H714 N709 0.984 . S
H715 N709 0.985 . S
H716 N713 0.984 . S
H717 N713 0.985 . S
H718 N712 0.984 . S
H719 N712 0.984 . S
H720 N708 0.984 . S
H721 N708 0.985 . S
C722 C723 1.363 . S
C722 C728 1.379 . S
C722 N730 1.356 . S
C723 C722 1.363 . S
C723 C729 1.363 . S
C724 C725 1.363 . S
C724 C729 1.379 . S
C724 N731 1.356 1_545 S
C725 C724 1.363 . S
C725 C728 1.363 . S
N726 C728 1.356 . S
N726 H738 0.984 . S
N726 H739 0.985 . S
N727 C729 1.356 . S
N727 H732 0.984 . S
N727 H733 0.985 . S
C728 C722 1.379 . S
C728 C725 1.363 . S
C728 N726 1.356 . S
C729 C723 1.363 . S
C729 C724 1.379 . S
C729 N727 1.356 . S
N730 C722 1.356 . S
N730 H736 0.984 . S
N730 H737 0.984 . S
N731 C724 1.356 1_565 S
N731 H734 0.984 . S
N731 H735 0.985 . S
H732 N727 0.984 . S
H733 N727 0.985 . S
H734 N731 0.984 . S
H735 N731 0.985 . S
H736 N730 0.984 . S
H737 N730 0.984 . S
H738 N726 0.984 . S
H739 N726 0.985 . S
C740 C741 1.363 . S
C740 C746 1.379 . S
C740 N748 1.356 . S
C741 C740 1.363 . S
C741 C747 1.363 . S
C742 C743 1.363 . S
C742 C747 1.379 . S
C742 N749 1.356 . S
C743 C742 1.363 . S
C743 C746 1.363 . S
N744 C746 1.356 . S
N744 H756 0.984 . S
N744 H757 0.985 . S
N745 C747 1.356 . S
N745 H750 0.984 . S
N745 H751 0.985 . S
C746 C740 1.379 . S
C746 C743 1.363 . S
C746 N744 1.356 . S
C747 C741 1.363 . S
C747 C742 1.379 . S
C747 N745 1.356 . S
N748 C740 1.356 . S
N748 H754 0.984 . S
N748 H755 0.984 . S
N749 C742 1.356 . S
N749 H752 0.984 . S
N749 H753 0.985 . S
H750 N745 0.984 . S
H751 N745 0.985 . S
H752 N749 0.984 . S
H753 N749 0.985 . S
H754 N748 0.984 . S
H755 N748 0.984 . S
H756 N744 0.984 . S
H757 N744 0.985 . S
C758 C759 1.363 . S
C758 C764 1.379 . S
C758 N766 1.356 . S
C759 C758 1.363 . S
C759 C765 1.363 . S
C760 C761 1.363 . S
C760 C765 1.379 . S
C760 N767 1.356 . S
C761 C760 1.363 . S
C761 C764 1.363 . S
N762 C764 1.356 . S
N762 H774 0.984 . S
N762 H775 0.985 . S
N763 C765 1.356 . S
N763 H768 0.984 . S
N763 H769 0.985 . S
C764 C758 1.379 . S
C764 C761 1.363 . S
C764 N762 1.356 . S
C765 C759 1.363 . S
C765 C760 1.379 . S
C765 N763 1.356 . S
N766 C758 1.356 . S
N766 H772 0.984 . S
N766 H773 0.984 . S
N767 C760 1.356 . S
N767 H770 0.984 . S
N767 H771 0.985 . S
H768 N763 0.984 . S
H769 N763 0.985 . S
H770 N767 0.984 . S
H771 N767 0.985 . S
H772 N766 0.984 . S
H773 N766 0.984 . S
H774 N762 0.984 . S
H775 N762 0.985 . S
C776 C777 1.363 . S
C776 C782 1.378 1_655 S
C776 N784 1.356 . S
C777 C776 1.363 . S
C777 C783 1.363 1_655 S
C778 C779 1.363 . S
C778 C783 1.379 . S
C778 N785 1.356 . S
C779 C778 1.363 . S
C779 C782 1.364 . S
N780 C782 1.356 1_655 S
N780 H792 0.984 . S
N780 H793 0.985 1_655 S
N781 C783 1.356 . S
N781 H786 0.984 . S
N781 H787 0.985 . S
C782 C776 1.378 1_455 S
C782 C779 1.364 . S
C782 N780 1.356 1_455 S
C783 C777 1.363 1_455 S
C783 C778 1.379 . S
C783 N781 1.356 . S
N784 C776 1.356 . S
N784 H790 0.984 . S
N784 H791 0.984 . S
N785 C778 1.356 . S
N785 H788 0.984 . S
N785 H789 0.985 . S
H786 N781 0.984 . S
H787 N781 0.985 . S
H788 N785 0.984 . S
H789 N785 0.985 . S
H790 N784 0.984 . S
H791 N784 0.984 . S
H792 N780 0.984 . S
H793 N780 0.985 1_455 S
C794 C795 1.363 . S
C794 C800 1.379 . S
C794 N802 1.356 . S
C795 C794 1.363 . S
C795 C801 1.363 . S
C796 C797 1.363 . S
C796 C801 1.379 . S
C796 N803 1.356 1_565 S
C797 C796 1.363 . S
C797 C800 1.363 . S
N798 C800 1.356 . S
N798 H810 0.984 . S
N798 H811 0.985 . S
N799 C801 1.356 . S
N799 H804 0.984 . S
N799 H805 0.985 . S
C800 C794 1.379 . S
C800 C797 1.363 . S
C800 N798 1.356 . S
C801 C795 1.363 . S
C801 C796 1.379 . S
C801 N799 1.356 . S
N802 C794 1.356 . S
N802 H808 0.984 . S
N802 H809 0.984 . S
N803 C796 1.356 1_545 S
N803 H806 0.984 . S
N803 H807 0.985 . S
H804 N799 0.984 . S
H805 N799 0.985 . S
H806 N803 0.984 . S
H807 N803 0.985 . S
H808 N802 0.984 . S
H809 N802 0.984 . S
H810 N798 0.984 . S
H811 N798 0.985 . S
C812 C813 1.363 . S
C812 C818 1.379 . S
C812 N820 1.356 . S
C813 C812 1.363 . S
C813 C819 1.363 . S
C814 C815 1.363 . S
C814 C819 1.379 . S
C814 N821 1.356 . S
C815 C814 1.363 . S
C815 C818 1.363 . S
N816 C818 1.356 . S
N816 H828 0.984 . S
N816 H829 0.985 . S
N817 C819 1.356 . S
N817 H822 0.984 . S
N817 H823 0.985 . S
C818 C812 1.379 . S
C818 C815 1.363 . S
C818 N816 1.356 . S
C819 C813 1.363 . S
C819 C814 1.379 . S
C819 N817 1.356 . S
N820 C812 1.356 . S
N820 H826 0.984 . S
N820 H827 0.984 . S
N821 C814 1.356 . S
N821 H824 0.984 . S
N821 H825 0.985 . S
H822 N817 0.984 . S
H823 N817 0.985 . S
H824 N821 0.984 . S
H825 N821 0.985 . S
H826 N820 0.984 . S
H827 N820 0.984 . S
H828 N816 0.984 . S
H829 N816 0.985 . S
C830 C831 1.363 . S
C830 C836 1.379 . S
C830 N838 1.356 . S
C831 C830 1.363 . S
C831 C837 1.363 . S
C832 C833 1.363 . S
C832 C837 1.379 . S
C832 N839 1.356 . S
C833 C832 1.363 . S
C833 C836 1.363 . S
N834 C836 1.356 . S
N834 H846 0.984 . S
N834 H847 0.985 . S
N835 C837 1.356 . S
N835 H840 0.984 . S
N835 H841 0.985 . S
C836 C830 1.379 . S
C836 C833 1.363 . S
C836 N834 1.356 . S
C837 C831 1.363 . S
C837 C832 1.379 . S
C837 N835 1.356 . S
N838 C830 1.356 . S
N838 H844 0.984 . S
N838 H845 0.984 . S
N839 C832 1.356 . S
N839 H842 0.984 . S
N839 H843 0.985 . S
H840 N835 0.984 . S
H841 N835 0.985 . S
H842 N839 0.984 . S
H843 N839 0.985 . S
H844 N838 0.984 . S
H845 N838 0.984 . S
H846 N834 0.984 . S
H847 N834 0.985 . S
C848 C849 1.363 1_655 S
C848 C854 1.379 . S
C848 N856 1.356 . S
C849 C848 1.363 1_455 S
C849 C855 1.363 . S
C850 C851 1.363 . S
C850 C855 1.379 . S
C850 N857 1.356 . S
C851 C850 1.363 . S
C851 C854 1.363 1_455 S
N852 C854 1.356 . S
N852 H864 0.984 . S
N852 H865 0.985 . S
N853 C855 1.356 . S
N853 H858 0.984 . S
N853 H859 0.985 . S
C854 C848 1.379 . S
C854 C851 1.363 1_655 S
C854 N852 1.356 . S
C855 C849 1.363 . S
C855 C850 1.379 . S
C855 N853 1.356 . S
N856 C848 1.356 . S
N856 H862 0.984 . S
N856 H863 0.984 . S
N857 C850 1.356 . S
N857 H860 0.984 . S
N857 H861 0.985 . S
H858 N853 0.984 . S
H859 N853 0.985 . S
H860 N857 0.984 . S
H861 N857 0.985 . S
H862 N856 0.984 . S
H863 N856 0.984 . S
H864 N852 0.984 . S
H865 N852 0.985 . S
C866 C867 1.363 . S
C866 C872 1.379 . S
C866 N874 1.356 . S
C867 C866 1.363 . S
C867 C873 1.363 . S
C868 C869 1.363 . S
C868 C873 1.379 . S
C868 N875 1.356 . S
C869 C868 1.363 . S
C869 C872 1.363 . S
N870 C872 1.356 . S
N870 H882 0.984 . S
N870 H883 0.985 . S
N871 C873 1.356 . S
N871 H876 0.984 . S
N871 H877 0.985 . S
C872 C866 1.379 . S
C872 C869 1.363 . S
C872 N870 1.356 . S
C873 C867 1.363 . S
C873 C868 1.379 . S
C873 N871 1.356 . S
N874 C866 1.356 . S
N874 H880 0.984 . S
N874 H881 0.984 . S
N875 C868 1.356 . S
N875 H878 0.984 . S
N875 H879 0.985 . S
H876 N871 0.984 . S
H877 N871 0.985 . S
H878 N875 0.984 . S
H879 N875 0.985 . S
H880 N874 0.984 . S
H881 N874 0.984 . S
H882 N870 0.984 . S
H883 N870 0.985 . S
C884 C885 1.363 . S
C884 C890 1.379 . S
C884 N892 1.356 . S
C885 C884 1.363 . S
C885 C891 1.363 . S
C886 C887 1.363 . S
C886 C891 1.379 . S
C886 N893 1.356 . S
C887 C886 1.363 . S
C887 C890 1.363 . S
N888 C890 1.356 . S
N888 H900 0.984 . S
N888 H901 0.985 . S
N889 C891 1.356 . S
N889 H894 0.984 . S
N889 H895 0.985 . S
C890 C884 1.379 . S
C890 C887 1.363 . S
C890 N888 1.356 . S
C891 C885 1.363 . S
C891 C886 1.379 . S
C891 N889 1.356 . S
N892 C884 1.356 . S
N892 H898 0.984 . S
N892 H899 0.984 . S
N893 C886 1.356 . S
N893 H896 0.984 . S
N893 H897 0.985 . S
H894 N889 0.984 . S
H895 N889 0.985 . S
H896 N893 0.984 . S
H897 N893 0.985 . S
H898 N892 0.984 . S
H899 N892 0.984 . S
H900 N888 0.984 . S
H901 N888 0.985 . S
C902 C903 1.363 . S
C902 C908 1.379 . S
C902 N910 1.356 . S
C903 C902 1.363 . S
C903 C909 1.363 . S
C904 C905 1.363 . S
C904 C909 1.379 . S
C904 N911 1.356 . S
C905 C904 1.363 . S
C905 C908 1.363 . S
N906 C908 1.356 . S
N906 H918 0.984 . S
N906 H919 0.985 . S
N907 C909 1.356 . S
N907 H912 0.984 . S
N907 H913 0.985 . S
C908 C902 1.379 . S
C908 C905 1.363 . S
C908 N906 1.356 . S
C909 C903 1.363 . S
C909 C904 1.379 . S
C909 N907 1.356 . S
N910 C902 1.356 . S
N910 H916 0.984 . S
N910 H917 0.984 . S
N911 C904 1.356 . S
N911 H914 0.984 . S
N911 H915 0.985 . S
H912 N907 0.984 . S
H913 N907 0.985 . S
H914 N911 0.984 . S
H915 N911 0.985 . S
H916 N910 0.984 . S
H917 N910 0.984 . S
H918 N906 0.984 . S
H919 N906 0.985 . S
C920 C921 1.363 1_455 S
C920 C926 1.379 . S
C920 N928 1.356 . S
C921 C920 1.363 1_655 S
C921 C927 1.363 . S
C922 C923 1.363 . S
C922 C927 1.379 . S
C922 N929 1.356 . S
C923 C922 1.363 . S
C923 C926 1.363 1_655 S
N924 C926 1.356 . S
N924 H936 0.984 . S
N924 H937 0.985 . S
N925 C927 1.356 . S
N925 H930 0.984 . S
N925 H931 0.985 . S
C926 C920 1.379 . S
C926 C923 1.363 1_455 S
C926 N924 1.356 . S
C927 C921 1.363 . S
C927 C922 1.379 . S
C927 N925 1.356 . S
N928 C920 1.356 . S
N928 H934 0.984 . S
N928 H935 0.984 . S
N929 C922 1.356 . S
N929 H932 0.984 . S
N929 H933 0.985 . S
H930 N925 0.984 . S
H931 N925 0.985 . S
H932 N929 0.984 . S
H933 N929 0.985 . S
H934 N928 0.984 . S
H935 N928 0.984 . S
H936 N924 0.984 . S
H937 N924 0.985 . S
C938 C939 1.363 . S
C938 C944 1.379 . S
C938 N946 1.378 . S
C939 C938 1.363 . S
C939 C945 1.363 . S
C940 C941 1.363 . S
C940 C945 1.379 . S
C940 N947 1.356 . S
C941 C940 1.363 . S
C941 C944 1.363 . S
N942 C944 1.356 1_545 S
N942 H954 0.984 . S
N942 H955 0.985 . S
N943 C945 1.356 . S
N943 H948 0.984 . S
N943 H949 0.985 . S
C944 C938 1.379 . S
C944 C941 1.363 . S
C944 N942 1.356 1_565 S
C945 C939 1.363 . S
C945 C940 1.379 . S
C945 N943 1.356 . S
N946 C938 1.378 . S
N946 H952 0.946 1_565 S
N946 H953 1.002 . S
N947 C940 1.356 . S
N947 H950 0.984 . S
N947 H951 0.985 . S
H948 N943 0.984 . S
H949 N943 0.985 . S
H950 N947 0.984 . S
H951 N947 0.985 . S
H952 N946 0.946 1_545 S
H953 N946 1.002 . S
H954 N942 0.984 . S
H955 N942 0.985 . S
C956 C957 1.363 . S
C956 C962 1.379 . S
C956 N964 1.356 . S
C957 C956 1.363 . S
C957 C963 1.363 . S
C958 C959 1.363 . S
C958 C963 1.379 . S
C958 N965 1.356 . S
C959 C958 1.363 . S
C959 C962 1.363 . S
N960 C962 1.356 . S
N960 H972 0.984 . S
N960 H973 0.985 . S
N961 C963 1.356 . S
N961 H966 0.984 . S
N961 H967 0.985 . S
C962 C956 1.379 . S
C962 C959 1.363 . S
C962 N960 1.356 . S
C963 C957 1.363 . S
C963 C958 1.379 . S
C963 N961 1.356 . S
N964 C956 1.356 . S
N964 H970 0.984 . S
N964 H971 0.984 . S
N965 C958 1.356 . S
N965 H968 0.984 . S
N965 H969 0.985 . S
H966 N961 0.984 . S
H967 N961 0.985 . S
H968 N965 0.984 . S
H969 N965 0.985 . S
H970 N964 0.984 . S
H971 N964 0.984 . S
H972 N960 0.984 . S
H973 N960 0.985 . S
C974 C975 1.363 . S
C974 C980 1.379 . S
C974 N982 1.356 . S
C975 C974 1.363 . S
C975 C981 1.363 . S
C976 C977 1.363 . S
C976 C981 1.379 . S
C976 N983 1.356 . S
C977 C976 1.363 . S
C977 C980 1.363 . S
N978 C980 1.356 . S
N978 H990 0.984 . S
N978 H991 0.985 . S
N979 C981 1.356 . S
N979 H984 0.984 . S
N979 H985 0.985 . S
C980 C974 1.379 . S
C980 C977 1.363 . S
C980 N978 1.356 . S
C981 C975 1.363 . S
C981 C976 1.379 . S
C981 N979 1.356 . S
N982 C974 1.356 . S
N982 H988 0.984 . S
N982 H989 0.984 . S
N983 C976 1.356 . S
N983 H986 0.984 . S
N983 H987 0.985 . S
H984 N979 0.984 . S
H985 N979 0.985 . S
H986 N983 0.984 . S
H987 N983 0.985 . S
H988 N982 0.984 . S
H989 N982 0.984 . S
H990 N978 0.984 . S
H991 N978 0.985 . S
C561 C391 2.047 . S
C563 C498 1.962 . S
C581 C518 1.710 . S
C579 C451 1.823 . S
C599 C538 1.897 . S
C597 C241 1.673 . S
C617 C558 1.765 . S
C615 C331 1.622 . S
C635 C499 1.965 1_565 S
C633 C121 1.792 . S
C651 C211 1.851 . S
C653 C519 1.712 . S
C669 C31 1.910 . S
C671 C539 1.908 . S
C687 C91 1.557 . S
C689 C559 1.700 . S
C707 C489 0.807 . S
C705 C301 0.801 1_455 S
C725 C509 1.039 . S
C723 C380 1.182 . S
C743 C529 0.924 . S
C741 C440 1.007 . S
C759 C260 0.947 . S
C761 C549 0.966 . S
C777 C61 0.914 . S
C779 C492 0.883 . S
C797 C512 1.018 . S
C795 C140 1.074 . S
C815 C532 0.888 . S
C813 C200 0.941 . S
C831 C20 1.008 . S
C833 C552 0.941 . S
C849 C320 2.255 1_455 S
C851 C482 2.060 . S
C867 C361 1.990 . S
C869 C502 2.162 . S
C887 C522 2.119 . S
C885 C421 1.921 . S
C905 C542 2.206 . S
C903 C271 2.355 . S
C921 C80 2.269 . S
C923 C484 2.119 . S
C941 C504 2.178 . S
C939 C151 2.347 . S
C959 C524 2.123 . S
C957 C181 1.978 . S
C975 C1 1.886 . S
C977 C544 2.094 . S
