# Generated by pormake.
# Topology zzz, (3,6)-cn, num edge types: 1
# Building blocks:
#     Node 0, Type 0, BuildingBlock: KAKCAD_clean_linker_0, # of connection points: 3
#     Node 1, Type 0, BuildingBlock: KAKCAD_clean_linker_0, # of connection points: 3
#     Node 2, Type 0, BuildingBlock: KAKCAD_clean_linker_0, # of connection points: 3
#     Node 3, Type 0, BuildingBlock: KAKCAD_clean_linker_0, # of connection points: 3
#     Node 4, Type 0, BuildingBlock: KAKCAD_clean_linker_0, # of connection points: 3
#     Node 5, Type 0, BuildingBlock: KAKCAD_clean_linker_0, # of connection points: 3
#     Node 6, Type 0, BuildingBlock: KAKCAD_clean_linker_0, # of connection points: 3
#     Node 7, Type 0, BuildingBlock: KAKCAD_clean_linker_0, # of connection points: 3
#     Node 8, Type 1, BuildingBlock: KUMBUR_clean_sbu_1, # of connection points: 6
#     Node 9, Type 1, BuildingBlock: KUMBUR_clean_sbu_1, # of connection points: 6
#     Node 10, Type 1, BuildingBlock: KUMBUR_clean_sbu_1, # of connection points: 6
#     Node 11, Type 1, BuildingBlock: KUMBUR_clean_sbu_1, # of connection points: 6
#     Edge 12, Type (0, 1), BuildingBlock: EZIPEK_clean_linker_0, # of connection points: 2
#     Edge 13, Type (0, 1), BuildingBlock: EZIPEK_clean_linker_0, # of connection points: 2
#     Edge 14, Type (0, 1), BuildingBlock: EZIPEK_clean_linker_0, # of connection points: 2
#     Edge 15, Type (0, 1), BuildingBlock: EZIPEK_clean_linker_0, # of connection points: 2
#     Edge 16, Type (0, 1), BuildingBlock: EZIPEK_clean_linker_0, # of connection points: 2
#     Edge 17, Type (0, 1), BuildingBlock: EZIPEK_clean_linker_0, # of connection points: 2
#     Edge 18, Type (0, 1), BuildingBlock: EZIPEK_clean_linker_0, # of connection points: 2
#     Edge 19, Type (0, 1), BuildingBlock: EZIPEK_clean_linker_0, # of connection points: 2
#     Edge 20, Type (0, 1), BuildingBlock: EZIPEK_clean_linker_0, # of connection points: 2
#     Edge 21, Type (0, 1), BuildingBlock: EZIPEK_clean_linker_0, # of connection points: 2
#     Edge 22, Type (0, 1), BuildingBlock: EZIPEK_clean_linker_0, # of connection points: 2
#     Edge 23, Type (0, 1), BuildingBlock: EZIPEK_clean_linker_0, # of connection points: 2
#     Edge 24, Type (0, 1), BuildingBlock: EZIPEK_clean_linker_0, # of connection points: 2
#     Edge 25, Type (0, 1), BuildingBlock: EZIPEK_clean_linker_0, # of connection points: 2
#     Edge 26, Type (0, 1), BuildingBlock: EZIPEK_clean_linker_0, # of connection points: 2
#     Edge 27, Type (0, 1), BuildingBlock: EZIPEK_clean_linker_0, # of connection points: 2
#     Edge 28, Type (0, 1), BuildingBlock: EZIPEK_clean_linker_0, # of connection points: 2
#     Edge 29, Type (0, 1), BuildingBlock: EZIPEK_clean_linker_0, # of connection points: 2
#     Edge 30, Type (0, 1), BuildingBlock: EZIPEK_clean_linker_0, # of connection points: 2
#     Edge 31, Type (0, 1), BuildingBlock: EZIPEK_clean_linker_0, # of connection points: 2
#     Edge 32, Type (0, 1), BuildingBlock: EZIPEK_clean_linker_0, # of connection points: 2
#     Edge 33, Type (0, 1), BuildingBlock: EZIPEK_clean_linker_0, # of connection points: 2
#     Edge 34, Type (0, 1), BuildingBlock: EZIPEK_clean_linker_0, # of connection points: 2
#     Edge 35, Type (0, 1), BuildingBlock: EZIPEK_clean_linker_0, # of connection points: 2
# Relax obj value: 0.351
# Max RMSD: 0.204
# Mean RMSD: 0.183
data_MOF--net-zzz--node1-KUMBUR_clean_sbu_1--node2-KAKCAD_clean_linker_0--edge1-EZIPEK_clean_linker_0
_symmetry_space_group_name_H-M    P1
_symmetry_Int_Tables_number       1
_symmetry_cell_setting            triclinic
loop_
_symmetry_equiv_pos_as_xyz
'x, y, z'
_cell_length_a     44.443595
_cell_length_b     44.51735
_cell_length_c     16.658245
_cell_angle_alpha  89.902069
_cell_angle_beta   90.01425
_cell_angle_gamma 90.334301
loop_
_atom_site_label
_atom_site_type_symbol
_atom_site_fract_x
_atom_site_fract_y
_atom_site_fract_z
_atom_type_partial_charge
C0 C 0.83561 0.64679 0.10692 0.0
C1 C 0.84326 0.63802 0.02836 0.0
C2 C 0.81017 0.63464 0.14432 0.0
C3 C 0.7918 0.61391 0.10344 0.0
C4 C 0.79587 0.61014 0.02086 0.0
C5 C 0.82104 0.62245 0.98333 0.0
C6 C 0.77316 0.59199 0.14876 0.0
C7 C 0.74523 0.58232 0.12031 0.0
C8 C 0.72821 0.55979 0.15971 0.0
C9 C 0.74162 0.54561 0.22902 0.0
C10 C 0.77066 0.55529 0.25791 0.0
C11 C 0.78555 0.57821 0.21594 0.0
C12 C 0.7879 0.54368 0.33038 0.0
C13 C 0.80015 0.56507 0.38419 0.0
C14 C 0.80029 0.51458 0.33282 0.0
C15 C 0.82512 0.50788 0.38361 0.0
C16 C 0.83934 0.53041 0.43067 0.0
C17 C 0.69726 0.55251 0.1235 0.0
C18 C 0.68126 0.57528 0.08219 0.0
C19 C 0.68473 0.5233 0.1203 0.0
C20 C 0.65851 0.51712 0.07373 0.0
C21 C 0.64467 0.53962 0.02588 0.0
C22 C 0.65658 0.56883 0.03238 0.0
C23 C 0.8257 0.5589 0.43112 0.0
H24 H 0.85047 0.66058 0.14259 0.0
H25 H 0.80657 0.63915 0.20748 0.0
H26 H 0.78172 0.59488 0.98692 0.0
H27 H 0.82452 0.61616 0.92138 0.0
H28 H 0.73711 0.59238 0.06532 0.0
H29 H 0.80808 0.58474 0.23436 0.0
H30 H 0.72955 0.52805 0.26066 0.0
H31 H 0.79167 0.58785 0.384 0.0
H32 H 0.79218 0.49757 0.29164 0.0
H33 H 0.83441 0.48545 0.38229 0.0
H34 H 0.68842 0.59851 0.08567 0.0
H35 H 0.69569 0.50499 0.15131 0.0
H36 H 0.83553 0.577 0.4659 0.0
H37 H 0.64687 0.58705 0.99804 0.0
H38 H 0.64974 0.49439 0.07267 0.0
C39 C 0.93658 0.78946 0.90262 0.0
C40 C 0.95502 0.81496 0.89617 0.0
C41 C 0.92588 0.78083 0.97831 0.0
C42 C 0.93566 0.79657 0.04729 0.0
C43 C 0.94691 0.82597 0.03615 0.0
C44 C 0.9567 0.83502 0.96059 0.0
C45 C 0.94585 0.77953 0.11996 0.0
C46 C 0.95682 0.75026 0.10952 0.0
C47 C 0.97827 0.73787 0.16108 0.0
C48 C 0.98832 0.75523 0.22813 0.0
C49 C 0.97542 0.78402 0.24369 0.0
C50 C 0.95331 0.79486 0.19096 0.0
C51 C 0.98684 0.80613 0.30535 0.0
C52 C 0.97526 0.80655 0.38409 0.0
C53 C 1.00323 0.83157 0.27926 0.0
C54 C 1.00724 0.85686 0.32904 0.0
C55 C 0.99491 0.85775 0.40685 0.0
C56 C 0.99174 0.70881 0.13227 0.0
C57 C 0.97614 0.68149 0.14487 0.0
C58 C 0.01296 0.70972 0.06927 0.0
C59 C 0.01724 0.68486 0.01812 0.0
C60 C 1.00041 0.65821 0.02814 0.0
C61 C 0.98069 0.65648 0.09415 0.0
C62 C 0.97946 0.83186 0.43435 0.0
H63 H 0.93412 0.77421 0.85243 0.0
H64 H 0.91468 0.75925 0.98382 0.0
H65 H 0.95332 0.84006 0.08616 0.0
H66 H 0.96996 0.85547 0.95557 0.0
H67 H 0.95144 0.73781 0.05554 0.0
H68 H 0.9441 0.81699 0.20156 0.0
H69 H 1.00632 0.74696 0.26581 0.0
H70 H 0.96167 0.78791 0.40543 0.0
H71 H 0.01164 0.83253 0.21826 0.0
H72 H 0.01926 0.87623 0.30572 0.0
H73 H 0.95882 0.68018 0.19049 0.0
H74 H 0.02447 0.73061 0.05537 0.0
H75 H 0.96972 0.83162 0.49391 0.0
H76 H 0.96774 0.63616 0.10388 0.0
H77 H 0.03261 0.687 0.96797 0.0
C78 C 0.72163 0.88479 0.12731 0.0
C79 C 0.71603 0.89343 0.04734 0.0
C80 C 0.74374 0.89968 0.17212 0.0
C81 C 0.76112 0.92255 0.13651 0.0
C82 C 0.76004 0.92602 0.05285 0.0
C83 C 0.73784 0.91148 1.00856 0.0
C84 C 0.77411 0.94724 0.18546 0.0
C85 C 0.80035 0.96187 0.16045 0.0
C86 C 0.80834 0.99027 0.18988 0.0
C87 C 0.78965 1.00383 0.24982 0.0
C88 C 0.76389 0.98799 0.28051 0.0
C89 C 0.7567 0.95999 0.24653 0.0
C90 C 0.74243 0.99915 0.34468 0.0
C91 C 0.73391 0.97942 0.40738 0.0
C92 C 0.7254 0.02558 0.3353 0.0
C93 C 0.69993 0.03118 0.38447 0.0
C94 C 0.69047 0.01033 0.44376 0.0
C95 C 0.8352 1.00457 0.14944 0.0
C96 C 0.86382 0.99142 0.1592 0.0
C97 C 0.831 0.02342 0.08231 0.0
C98 C 0.85409 0.02775 0.02495 0.0
C99 C 0.88203 0.01314 0.03256 0.0
C100 C 0.88686 0.99571 0.10193 0.0
C101 C 0.70843 0.98477 0.45537 0.0
H102 H 0.70702 0.8691 0.15799 0.0
H103 H 0.74512 0.8955 0.2361 0.0
H104 H 0.77346 0.94302 0.02275 0.0
H105 H 0.73538 0.91818 0.94642 0.0
H106 H 0.81379 0.95183 0.11328 0.0
H107 H 0.73592 0.94893 0.26421 0.0
H108 H 0.79522 0.02592 0.27263 0.0
H109 H 0.74613 0.9587 0.41645 0.0
H110 H 0.73068 0.04105 0.28703 0.0
H111 H 0.68686 0.05126 0.37397 0.0
H112 H 0.86765 0.97593 0.20835 0.0
H113 H 0.80905 0.03297 0.07082 0.0
H114 H 0.70215 0.96825 0.50024 0.0
H115 H 0.90804 0.98416 0.10985 0.0
H116 H 0.84956 0.04129 0.9723 0.0
C117 C 0.51761 0.7037 0.45494 0.0
C118 C 0.53748 0.67891 0.45824 0.0
C119 C 0.52263 0.7282 0.40171 0.0
C120 C 0.54775 0.72883 0.35007 0.0
C121 C 0.56824 0.7047 0.35648 0.0
C122 C 0.56319 0.68031 0.40907 0.0
C123 C 0.54991 0.74989 0.27816 0.0
C124 C 0.54913 0.78221 0.28024 0.0
C125 C 0.55356 0.79922 0.20772 0.0
C126 C 0.55841 0.78367 0.13634 0.0
C127 C 0.55441 0.75268 0.13152 0.0
C128 C 0.55144 0.73595 0.20249 0.0
C129 C 0.54703 0.73916 0.05248 0.0
C130 C 0.52908 0.75557 0.99819 0.0
C131 C 0.55349 0.70893 0.03536 0.0
C132 C 0.5397 0.69474 0.97011 0.0
C133 C 0.51971 0.71082 0.92132 0.0
C134 C 0.54989 0.83263 0.19566 0.0
C135 C 0.52116 0.84362 0.17492 0.0
C136 C 0.57501 0.84973 0.16996 0.0
C137 C 0.57163 0.87536 0.12063 0.0
C138 C 0.54302 0.88489 0.09496 0.0
C139 C 0.51778 0.8693 0.12559 0.0
C140 C 0.51578 0.74154 0.93291 0.0
H141 H 0.49738 0.70356 0.49105 0.0
H142 H 0.50592 0.74575 0.3977 0.0
H143 H 0.5877 0.70398 0.3174 0.0
H144 H 0.57903 0.6619 0.40933 0.0
H145 H 0.54557 0.79374 0.33656 0.0
H146 H 0.54844 0.71181 0.19888 0.0
H147 H 0.56215 0.79636 0.08148 0.0
H148 H 0.52292 0.77866 1.00944 0.0
H149 H 0.56762 0.69583 0.07494 0.0
H150 H 0.54279 0.67084 0.96135 0.0
H151 H 0.5013 0.83062 0.19024 0.0
H152 H 0.59751 0.84154 0.18144 0.0
H153 H 0.50019 0.75404 0.89582 0.0
H154 H 0.49538 0.87594 0.10741 0.0
H155 H 0.59152 0.88673 0.0983 0.0
C156 C 0.22435 0.41782 0.33898 0.0
C157 C 0.19619 0.413 0.3036 0.0
C158 C 0.25026 0.41321 0.29413 0.0
C159 C 0.24755 0.40573 0.21224 0.0
C160 C 0.22056 0.3915 0.18788 0.0
C161 C 0.19438 0.39582 0.23322 0.0
C162 C 0.26395 0.42569 0.1544 0.0
C163 C 0.29193 0.43794 0.17604 0.0
C164 C 0.30027 0.46716 0.15308 0.0
C165 C 0.28093 0.48332 0.09942 0.0
C166 C 0.25459 0.4691 0.06701 0.0
C167 C 0.24719 0.44021 0.09438 0.0
C168 C 0.23169 0.48326 1.01117 0.0
C169 C 0.2121 0.506 0.03782 0.0
C170 C 0.22362 0.468 0.93994 0.0
C171 C 0.19652 0.47411 0.8991 0.0
C172 C 0.17627 0.4959 0.92733 0.0
C173 C 0.32705 0.4801 0.1972 0.0
C174 C 0.32267 0.49587 0.26961 0.0
C175 C 0.35618 0.46891 0.18204 0.0
C176 C 0.37981 0.47273 0.23801 0.0
C177 C 0.37496 0.48724 0.31194 0.0
C178 C 0.34624 0.49943 0.32596 0.0
C179 C 0.18499 0.51239 0.99622 0.0
H180 H 0.22623 0.42942 0.39595 0.0
H181 H 0.27106 0.42189 0.3189 0.0
H182 H 0.21827 0.38289 0.12741 0.0
H183 H 0.17271 0.39039 0.20711 0.0
H184 H 0.30564 0.42619 0.21975 0.0
H185 H 0.2259 0.4307 0.07512 0.0
H186 H 0.28631 0.50628 0.08311 0.0
H187 H 0.21677 0.51755 0.09365 0.0
H188 H 0.23753 0.4498 0.91847 0.0
H189 H 0.19084 0.46092 0.8466 0.0
H190 H 0.30041 0.50375 0.28514 0.0
H191 H 0.36027 0.45575 0.12856 0.0
H192 H 0.17015 0.52943 0.01986 0.0
H193 H 0.34172 0.51082 0.38202 0.0
H194 H 0.4017 0.46347 0.2247 0.0
C195 C 0.11305 0.21208 0.37416 0.0
C196 C 0.1312 0.19124 0.33299 0.0
C197 C 0.10162 0.23702 0.3345 0.0
C198 C 0.10817 0.24164 0.25314 0.0
C199 C 0.13084 0.22438 0.2171 0.0
C200 C 0.14268 0.19952 0.25744 0.0
C201 C 0.08625 0.25835 0.20353 0.0
C202 C 0.07405 0.28534 0.23068 0.0
C203 C 0.04849 0.29802 0.19456 0.0
C204 C 0.03474 0.28234 0.12873 0.0
C205 C 0.04782 0.25519 0.09881 0.0
C206 C 0.0735 0.24403 0.13699 0.0
C207 C 0.03601 0.23607 0.03074 0.0
C208 C 0.01235 0.21537 0.04365 0.0
C209 C 0.05455 0.23137 0.9631 0.0
C210 C 0.05067 0.20617 0.91281 0.0
C211 C 0.02805 0.18463 0.92807 0.0
C212 C 0.03768 0.32727 0.23051 0.0
C213 C 0.01022 0.3294 0.27183 0.0
C214 C 0.05858 0.3507 0.24227 0.0
C215 C 0.05257 0.37506 0.29335 0.0
C216 C 0.02432 0.37891 0.33181 0.0
C217 C 1.00397 0.35422 0.32247 0.0
C218 C 1.0083 0.19019 0.99281 0.0
H219 H 0.10415 0.20718 0.43328 0.0
H220 H 0.08455 0.25014 0.36454 0.0
H221 H 0.13714 0.22826 0.1551 0.0
H222 H 0.15843 0.18535 0.22615 0.0
H223 H 0.084 0.29606 0.28284 0.0
H224 H 0.08252 0.22263 0.11758 0.0
H225 H 0.01473 0.2913 0.10065 0.0
H226 H 0.99831 0.21745 0.09646 0.0
H227 H 0.07362 0.24612 0.95252 0.0
H228 H 0.06634 0.20276 0.86392 0.0
H229 H 0.99435 0.31087 0.2695 0.0
H230 H 0.08082 0.34914 0.21594 0.0
H231 H 0.9906 0.17416 1.00653 0.0
H232 H 0.98366 0.3526 0.35766 0.0
H233 H 0.07148 0.38957 0.3053 0.0
C234 C 0.29278 0.11345 0.43275 0.0
C235 C 0.3212 0.12623 0.418 0.0
C236 C 0.27126 0.11318 0.37232 0.0
C237 C 0.27823 0.12553 0.29671 0.0
C238 C 0.30289 0.14541 0.29115 0.0
C239 C 0.3242 0.14626 0.35303 0.0
C240 C 0.26688 0.10946 0.22443 0.0
C241 C 0.23793 0.09732 0.22525 0.0
C242 C 0.23079 0.07163 0.18087 0.0
C243 C 0.25222 0.06072 0.12349 0.0
C244 C 0.28071 0.07574 0.11298 0.0
C245 C 0.28761 0.09908 0.16738 0.0
C246 C 0.30524 0.06714 0.05241 0.0
C247 C 0.30983 0.03756 0.02443 0.0
C248 C 0.32646 0.08908 0.02665 0.0
C249 C 0.35227 0.08159 0.98235 0.0
C250 C 0.35751 0.05204 0.95658 0.0
C251 C 0.20281 0.05556 0.20937 0.0
C252 C 0.20518 0.03584 0.27549 0.0
C253 C 0.17431 0.06827 0.1943 0.0
C254 C 0.14963 0.06267 0.24579 0.0
C255 C 0.15273 0.04474 0.31499 0.0
C256 C 0.1806 0.03056 0.32747 0.0
C257 C 0.33525 0.03027 0.97641 0.0
H258 H 0.28902 0.09897 0.48416 0.0
H259 H 0.25193 0.09861 0.38084 0.0
H260 H 0.30805 0.15657 0.23494 0.0
H261 H 0.34531 0.15795 0.3428 0.0
H262 H 0.22194 0.10548 0.2693 0.0
H263 H 0.31044 0.10756 0.17037 0.0
H264 H 0.24682 0.04099 0.08839 0.0
H265 H 0.29437 0.0198 0.04148 0.0
H266 H 0.32365 0.11249 0.04216 0.0
H267 H 0.36837 0.09918 0.96829 0.0
H268 H 0.2269 0.02663 0.29131 0.0
H269 H 0.17172 0.08442 0.14613 0.0
H270 H 0.33804 1.00726 0.9569 0.0
H271 H 0.18382 0.01657 0.38 0.0
H272 H 0.12836 0.07341 0.23371 0.0
C273 C 0.48853 0.32505 0.92358 0.0
C274 C 0.51078 0.34703 0.93815 0.0
C275 C 0.48537 0.29964 0.97385 0.0
C276 C 0.50434 0.29501 0.04082 0.0
C277 C 0.52755 0.31627 0.0533 0.0
C278 C 0.53083 0.34173 1.00255 0.0
C279 C 0.49372 0.27447 0.108 0.0
C280 C 0.50898 0.24846 0.13834 0.0
C281 C 0.49634 0.23146 0.20368 0.0
C282 C 0.46933 0.24131 0.23792 0.0
C283 C 0.45526 0.26762 0.21193 0.0
C284 C 0.46706 0.28329 0.14596 0.0
C285 C 0.43255 0.28257 0.26326 0.0
C286 C 0.40975 0.30026 0.22929 0.0
C287 C 0.43807 0.28488 0.34589 0.0
C288 C 0.42523 0.30796 0.39003 0.0
C289 C 0.40675 0.32952 0.35232 0.0
C290 C 0.51057 0.20478 0.24493 0.0
C291 C 0.50047 0.17537 0.22763 0.0
C292 C 0.52604 0.2091 0.31805 0.0
C293 C 0.53026 0.18527 0.37308 0.0
C294 C 0.51901 0.15617 0.35738 0.0
C295 C 0.50486 0.15143 0.28248 0.0
C296 C 0.39672 0.32342 0.27378 0.0
H297 H 0.47267 0.32817 0.87495 0.0
H298 H 0.46665 0.28445 0.96335 0.0
H299 H 0.54194 0.31429 0.10548 0.0
H300 H 0.54829 0.35806 0.01581 0.0
H301 H 0.53013 0.24166 0.11196 0.0
H302 H 0.45657 0.30409 0.12718 0.0
H303 H 0.46003 0.2292 0.28887 0.0
H304 H 0.40408 0.29809 0.16631 0.0
H305 H 0.4552 0.27142 0.3747 0.0
H306 H 0.43319 0.31085 0.45095 0.0
H307 H 0.48742 0.17126 0.17381 0.0
H308 H 0.53307 0.23152 0.33532 0.0
H309 H 0.38095 0.33793 0.24378 0.0
H310 H 0.49587 0.12943 0.26804 0.0
H311 H 0.54119 0.18991 0.42987 0.0
Tb312 Tb 0.98178 0.0397 0.58705 0.0
C313 C 0.08135 0.02484 0.87605 0.0
N314 N 0.08309 0.02143 0.79518 0.0
C315 C 0.13145 0.04586 0.79502 0.0
C316 C 0.10427 0.0397 0.91943 0.0
C317 C 0.10821 0.03086 0.7547 0.0
C318 C 0.12932 0.05064 0.87758 0.0
C319 C 0.05481 0.01437 1.00006 0.0
C320 C 0.05685 0.0126 0.91563 0.0
C321 C 0.07706 0.02998 0.04337 0.0
C322 C 0.10172 0.04268 1.0031 0.0
Tb323 Tb 0.04192 0.9999 0.73488 0.0
N324 N 0.03559 0.99802 0.87167 0.0
C325 C 0.03083 0.99985 0.03851 0.0
C326 C 0.01363 0.98168 0.90976 0.0
C327 C 0.01047 0.98296 0.99322 0.0
H328 H 0.1109 0.02663 0.69149 0.0
H329 H 0.99252 0.97063 0.02261 0.0
H330 H 0.92898 0.07571 0.69207 0.0
H331 H 0.9702 0.9674 0.32891 0.0
H332 H 0.99846 0.96736 0.87647 0.0
H333 H 0.02843 1.00068 0.1032 0.0
H334 H 0.99655 1.00214 0.42125 0.0
H335 H 0.1511 0.05355 0.76237 0.0
H336 H 0.07571 0.03185 0.10813 0.0
H337 H 0.11898 0.05421 0.03739 0.0
H338 H 0.8745 0.07061 0.71692 0.0
H339 H 0.14742 0.06217 0.90865 0.0
H340 H 0.91635 0.95539 0.3508 0.0
N341 N 0.93062 0.03936 0.60896 0.0
C342 C 0.91429 0.01927 0.56572 0.0
C343 C 0.88544 0.05585 0.67458 0.0
C344 C 0.88295 0.01613 0.57626 0.0
C345 C 0.9164 0.05847 0.66073 0.0
C346 C 0.86868 0.03432 0.63288 0.0
N347 N 0.95875 1.00796 0.49741 0.0
C348 C 0.97328 0.99657 0.43186 0.0
C349 C 0.91265 0.98394 0.45546 0.0
C350 C 0.92883 1.00326 0.50691 0.0
C351 C 0.92795 0.97035 0.39182 0.0
C352 C 0.95833 0.97708 0.37925 0.0
H353 H 0.84466 0.03256 0.64303 0.0
H354 H 0.84276 0.9928 0.53574 0.0
H355 H 0.86881 0.9647 0.42933 0.0
O356 O 0.99324 0.05857 0.47627 0.0
O357 O 0.98181 0.98971 0.59238 0.0
O358 O 0.03077 0.98414 0.61464 0.0
O359 O 0.96215 0.08111 0.55339 0.0
O360 O 0.02801 0.03718 0.53768 0.0
O361 O 0.06413 0.02049 0.62888 0.0
O362 O 0.03311 0.95419 0.74917 0.0
O363 O 0.03881 0.04829 0.76216 0.0
O364 O 1.00206 0.06987 0.6796 0.0
O365 O 0.07947 0.97042 0.73559 0.0
O366 O 0.99278 0.99785 0.7606 0.0
O367 O 0.97066 0.04085 0.71537 0.0
C368 C 1.00534 0.9719 0.59335 0.0
C369 C 0.99721 0.11114 0.48074 0.0
C370 C 0.04485 0.13611 0.44909 0.0
C371 C 0.03112 0.16406 0.46097 0.0
C372 C 0.98382 0.13929 0.49188 0.0
C373 C 1.00077 0.16559 0.48238 0.0
C374 C 0.02798 0.10975 0.45981 0.0
C375 C 0.05627 0.03244 0.55909 0.0
C376 C 0.97909 0.08341 0.49005 0.0
C377 C 0.86682 0.9957 0.5282 0.0
C378 C 0.88164 0.97968 0.46765 0.0
C379 C 0.02244 0.07139 0.73826 0.0
C380 C 0.07132 0.91594 0.74534 0.0
C381 C 0.05593 0.86337 0.75017 0.0
C382 C 0.08351 0.85507 0.71602 0.0
C383 C 0.0993 0.90739 0.71399 0.0
C384 C 0.05023 0.89371 0.76552 0.0
C385 C 0.10537 0.87702 0.69982 0.0
C386 C 0.97279 0.01948 0.7695 0.0
C387 C 0.0614 0.94734 0.74094 0.0
H388 H 0.04382 0.18468 0.45257 0.0
H389 H 0.96026 0.14092 0.50789 0.0
H390 H 0.99031 0.18723 0.49114 0.0
H391 H 0.03886 0.08838 0.44985 0.0
H392 H 0.0881 0.83176 0.70251 0.0
H393 H 0.11578 0.92419 0.6965 0.0
H394 H 0.02849 0.90005 0.78962 0.0
H395 H 0.1267 0.87058 0.67389 0.0
Tb396 Tb 0.54591 0.04757 0.7989 0.0
C397 C 0.53385 0.93566 0.55864 0.0
N398 N 0.52728 0.96506 0.5476 0.0
C399 C 0.54388 0.9622 0.41099 0.0
C400 C 0.54708 0.91854 0.49719 0.0
C401 C 0.5303 0.97802 0.47373 0.0
C402 C 0.55292 0.93249 0.4233 0.0
C403 C 0.52721 0.89091 0.63951 0.0
C404 C 0.52401 0.92211 0.62849 0.0
C405 C 0.54256 0.87402 0.58136 0.0
C406 C 0.55245 0.88783 0.51016 0.0
Tb407 Tb 0.50863 0.98969 0.65626 0.0
N408 N 0.50827 0.93905 0.68124 0.0
C409 C 0.51344 0.87749 0.70623 0.0
C410 C 0.49229 0.92561 0.74176 0.0
C411 C 0.49538 0.89482 0.75664 0.0
H412 H 0.52264 1.00072 0.46394 0.0
H413 H 0.48372 0.88448 0.80668 0.0
H414 H 0.4987 0.04694 0.95362 0.0
H415 H 0.62643 0.13174 0.70581 0.0
H416 H 0.47821 0.93893 0.78047 0.0
H417 H 0.51546 0.85359 0.7172 0.0
H418 H 0.60536 0.08068 0.71652 0.0
H419 H 0.54715 0.97282 0.35311 0.0
H420 H 0.54564 0.85007 0.58914 0.0
H421 H 0.56299 0.8743 0.46416 0.0
H422 H 0.47605 0.08343 0.04622 0.0
H423 H 0.56305 0.92014 0.37435 0.0
H424 H 0.60332 0.17352 0.78141 0.0
N425 N 0.52543 0.07931 0.89235 0.0
C426 C 0.53434 0.10842 0.88919 0.0
C427 C 0.49238 0.09084 1.00213 0.0
C428 C 0.52226 0.13018 0.94128 0.0
C429 C 0.50534 0.07012 0.94953 0.0
C430 C 0.50066 0.1211 0.99751 0.0
N431 N 0.56916 0.09349 0.79266 0.0
C432 C 0.59441 0.09871 0.74791 0.0
C433 C 0.56882 0.1453 0.83461 0.0
C434 C 0.5571 0.11583 0.83703 0.0
C435 C 0.5936 0.15118 0.78512 0.0
C436 C 0.6067 0.12766 0.74241 0.0
H437 H 0.49079 0.13708 0.03867 0.0
H438 H 0.52369 0.1771 0.97605 0.0
H439 H 0.56458 0.19039 0.88226 0.0
O440 O 0.5746 0.01181 0.81642 0.0
O441 O 0.53717 0.07035 0.68339 0.0
O442 O 0.51677 0.03427 0.5967 0.0
O443 O 0.57714 0.05118 0.89445 0.0
O444 O 0.57568 0.03637 0.69556 0.0
O445 O 0.55523 0.99852 0.61552 0.0
O446 O 0.47036 0.01391 0.62787 0.0
O447 O 0.52851 0.9719 0.76987 0.0
O448 O 0.525 1.00915 0.8636 0.0
O449 O 0.47419 0.96672 0.59157 0.0
O450 O 0.48025 1.00087 0.76011 0.0
O451 O 0.49543 0.04848 0.79617 0.0
C452 C 0.52585 0.06222 0.61308 0.0
C453 C 0.61826 0.01611 0.89274 0.0
C454 C 0.65324 0.97628 0.92565 0.0
C455 C 0.67738 0.9958 0.90894 0.0
C456 C 0.64228 0.03568 0.87624 0.0
C457 C 0.67186 0.02543 0.88456 0.0
C458 C 0.62386 0.98658 0.91722 0.0
C459 C 0.57751 0.01679 0.63568 0.0
C460 C 0.58684 0.02392 0.87989 0.0
C461 C 0.53281 0.15997 0.937 0.0
C462 C 0.55607 0.16753 0.88361 0.0
C463 C 0.52698 0.98024 0.84611 0.0
C464 C 0.42786 0.99336 0.55664 0.0
C465 C 0.38742 0.02548 0.5113 0.0
C466 C 0.37292 1.00058 0.47678 0.0
C467 C 0.41328 0.96841 0.52254 0.0
C468 C 0.41425 0.02161 0.55301 0.0
C469 C 0.38566 0.97202 0.48354 0.0
C470 C 0.47442 0.02715 0.79278 0.0
C471 C 0.45777 0.99088 0.59295 0.0
H472 H 0.70036 0.98816 0.9152 0.0
H473 H 0.6382 0.05841 0.85588 0.0
H474 H 0.69053 0.04037 0.87151 0.0
H475 H 0.60524 0.97142 0.92984 0.0
H476 H 0.3522 1.00338 0.44341 0.0
H477 H 0.42334 0.94632 0.52517 0.0
H478 H 0.42503 0.04106 0.57938 0.0
H479 H 0.37452 0.95283 0.45668 0.0
Tb480 Tb 0.53804 0.49775 0.59435 0.0
C481 C 0.44482 0.48293 0.87758 0.0
N482 N 0.44501 0.48636 0.79659 0.0
C483 C 0.40682 0.44836 0.78391 0.0
C484 C 0.42717 0.46048 0.91466 0.0
C485 C 0.42454 0.47123 0.75035 0.0
C486 C 0.40865 0.44249 0.86628 0.0
C487 C 0.46071 0.50122 1.00781 0.0
C488 C 0.461 0.50324 0.92334 0.0
C489 C 0.44442 0.47792 0.04519 0.0
C490 C 0.42761 0.45763 0.9987 0.0
Tb491 Tb 0.47443 0.52438 0.74754 0.0
N492 N 0.47593 0.52577 0.88499 0.0
C493 C 0.47625 0.52305 0.05205 0.0
C494 C 0.48977 0.54803 0.9281 0.0
C495 C 0.49058 0.54673 1.01199 0.0
H496 H 0.4224 0.47669 0.68757 0.0
H497 H 0.50195 0.5642 0.04569 0.0
H498 H 0.59993 0.47108 0.68092 0.0
H499 H 0.53302 0.57401 0.33997 0.0
H500 H 0.4998 0.56704 0.89769 0.0
H501 H 0.47665 0.52227 0.11707 0.0
H502 H 0.51741 0.53016 0.42136 0.0
H503 H 0.39149 0.43559 0.74653 0.0
H504 H 0.44408 0.47585 0.11001 0.0
H505 H 0.41444 0.44033 0.02842 0.0
H506 H 0.65169 0.48897 0.70863 0.0
H507 H 0.3947 0.42499 0.89237 0.0
H508 H 0.57941 0.60211 0.37519 0.0
N509 N 0.58796 0.50978 0.61316 0.0
C510 C 0.59801 0.53526 0.57747 0.0
C511 C 0.63673 0.5024 0.67222 0.0
C512 C 0.62743 0.54621 0.59047 0.0
C513 C 0.60744 0.49233 0.65633 0.0
C514 C 0.64657 0.52982 0.64057 0.0
N515 N 0.55282 0.53523 0.5065 0.0
C516 C 0.53732 0.54263 0.43807 0.0
C517 C 0.59012 0.57306 0.4755 0.0
C518 C 0.57971 0.54848 0.52143 0.0
C519 C 0.57237 0.58316 0.41167 0.0
C520 C 0.54622 0.56733 0.39154 0.0
H521 H 0.66935 0.53745 0.65228 0.0
H522 H 0.65949 0.58134 0.56004 0.0
H523 H 0.62666 0.60496 0.45896 0.0
O524 O 0.52945 0.47872 0.48166 0.0
O525 O 0.51526 0.5418 0.58367 0.0
O526 O 0.50538 0.56084 0.70769 0.0
O527 O 0.56358 0.46032 0.55642 0.0
O528 O 0.49107 0.48185 0.57859 0.0
O529 O 0.46199 0.52059 0.61939 0.0
O530 O 0.44536 0.55389 0.80757 0.0
O531 O 0.48406 0.47524 0.74549 0.0
O532 O 0.53218 0.46669 0.69691 0.0
O533 O 0.43719 0.54141 0.68495 0.0
O534 O 0.52085 0.53497 0.78933 0.0
O535 O 0.5541 0.50439 0.71957 0.0
C536 C 0.51539 0.56465 0.63373 0.0
C537 C 0.53404 0.42617 0.48056 0.0
C538 C 0.49049 0.39383 0.45499 0.0
C539 C 0.50911 0.36856 0.46035 0.0
C540 C 0.55235 0.40065 0.48499 0.0
C541 C 0.53988 0.372 0.47511 0.0
C542 C 0.50297 0.42253 0.4655 0.0
C543 C 0.46753 0.49914 0.5677 0.0
C544 C 0.54736 0.45632 0.49264 0.0
C545 C 0.63714 0.57224 0.54993 0.0
C546 C 0.61847 0.58568 0.49239 0.0
C547 C 0.50903 0.45921 0.74279 0.0
C548 C 0.42401 0.59019 0.7214 0.0
C549 C 0.43777 0.64281 0.73043 0.0
C550 C 0.4142 0.65032 0.67834 0.0
C551 C 0.4005 0.59765 0.6688 0.0
C552 C 0.44288 0.61284 0.75062 0.0
C553 C 0.39578 0.62763 0.64694 0.0
C554 C 0.54727 0.52142 0.78217 0.0
C555 C 0.42926 0.55878 0.74368 0.0
H556 H 0.49982 0.3462 0.45238 0.0
H557 H 0.57625 0.40288 0.49651 0.0
H558 H 0.55411 0.35241 0.47892 0.0
H559 H 0.48838 0.44182 0.46078 0.0
H560 H 0.40985 0.67358 0.66333 0.0
H561 H 0.38589 0.58031 0.64466 0.0
H562 H 0.46124 0.60739 0.79099 0.0
H563 H 0.37758 0.63332 0.60663 0.0
Tb564 Tb 0.02341 0.54602 0.60801 0.0
C565 C 1.00702 0.44046 0.87917 0.0
N566 N 0.99505 0.44319 0.80425 0.0
C567 C 0.99828 0.38975 0.78638 0.0
C568 C 0.01599 0.41227 0.90945 0.0
C569 C 0.98913 0.41806 0.75966 0.0
C570 C 0.0123 0.3869 0.86094 0.0
C571 C 0.01624 0.46288 1.00969 0.0
C572 C 1.00751 0.46554 0.92855 0.0
C573 C 0.02692 0.43527 0.03853 0.0
C574 C 0.02693 0.41004 0.98837 0.0
Tb575 Tb 0.98409 0.49148 0.76618 0.0
N576 N 0.99707 0.49196 0.89878 0.0
C577 C 0.01263 0.48765 0.06032 0.0
C578 C 0.99153 0.51547 0.94929 0.0
C579 C 0.99963 0.51384 0.03031 0.0
H580 H 0.97708 0.41951 0.70378 0.0
H581 H 0.99577 0.53279 0.06956 0.0
H582 H 0.05402 0.60561 0.70506 0.0
H583 H 0.95562 0.54688 0.34038 0.0
H584 H 0.98097 0.53564 0.92807 0.0
H585 H 0.01886 0.48645 0.12314 0.0
H586 H 0.99257 0.52629 0.43723 0.0
H587 H 0.99408 0.37006 0.74993 0.0
H588 H 0.03418 0.43291 0.10033 0.0
H589 H 0.03423 0.38863 1.0123 0.0
H590 H 0.04073 0.65843 0.72861 0.0
H591 H 0.01892 0.36486 0.88196 0.0
H592 H 0.93439 0.59755 0.36203 0.0
N593 N 0.01689 0.59706 0.62659 0.0
C594 C 0.99468 0.60986 0.58247 0.0
C595 C 0.02733 0.64493 0.68797 0.0
C596 C 0.98702 0.64035 0.59167 0.0
C597 C 0.03451 0.61476 0.67512 0.0
C598 C 1.00307 0.65765 0.64728 0.0
N599 N 0.99079 0.5642 0.51405 0.0
C600 C 0.9831 0.54825 0.44713 0.0
C601 C 0.96054 0.60574 0.46966 0.0
C602 C 0.98151 0.59294 0.52285 0.0
C603 C 0.95043 0.58854 0.4046 0.0
C604 C 0.96238 0.55994 0.39215 0.0
H605 H 0.99781 0.68113 0.65651 0.0
H606 H 0.95815 0.67615 0.54925 0.0
H607 H 0.93504 0.6458 0.4418 0.0
O608 O 0.04705 0.53008 0.50837 0.0
O609 O 0.97321 0.54232 0.61477 0.0
O610 O 0.96166 0.49371 0.64782 0.0
O611 O 0.05851 0.57269 0.55963 0.0
O612 O 0.01925 0.499 0.56531 0.0
O613 O 0.99891 0.46563 0.65904 0.0
O614 O 0.94112 0.50956 0.7687 0.0
O615 O 0.03316 0.49634 0.79255 0.0
O616 O 0.05606 0.5271 0.69652 0.0
O617 O 0.94989 0.46798 0.83006 0.0
O618 O 0.98502 0.5409 0.7855 0.0
O619 O 0.02886 0.55916 0.7339 0.0
C620 C 0.95576 0.51832 0.60676 0.0
C621 C 0.09819 0.54334 0.50462 0.0
C622 C 0.13597 0.50751 0.45999 0.0
C623 C 0.1583 0.52421 0.49966 0.0
C624 C 0.12079 0.55987 0.54416 0.0
C625 C 0.15072 0.55042 0.54097 0.0
C626 C 0.1062 0.51763 0.46079 0.0
C627 C 0.01118 0.47155 0.58808 0.0
C628 C 0.06622 0.55218 0.50837 0.0
C629 C 0.9646 0.65285 0.54253 0.0
C630 C 0.95144 0.63559 0.48133 0.0
C631 C 0.05748 0.50903 0.76035 0.0
C632 C 0.91632 0.50264 0.89123 0.0
C633 C 0.89977 0.54701 0.96431 0.0
C634 C 0.88187 0.52857 0.01369 0.0
C635 C 0.89837 0.48449 0.9409 0.0
C636 C 0.91797 0.53374 0.90605 0.0
C637 C 0.8816 0.49742 1.00275 0.0
C638 C 1.00773 0.56004 0.78864 0.0
C639 C 0.93099 0.48987 0.81972 0.0
H640 H 0.18153 0.51702 0.49829 0.0
H641 H 0.11538 0.57994 0.57772 0.0
H642 H 0.16804 0.56322 0.57151 0.0
H643 H 0.08931 0.50554 0.42667 0.0
H644 H 0.86774 0.53834 0.05964 0.0
H645 H 0.89685 0.4605 0.93078 0.0
H646 H 0.93178 0.54822 0.8687 0.0
H647 H 0.86761 0.48337 0.0407 0.0
C648 C 0.10249 0.02306 0.36288 0.0
C649 C 0.12757 0.04229 0.37678 0.0
C650 C 0.10508 0.05681 0.50799 0.0
C651 C 0.08066 0.03644 0.4955 0.0
N652 N 0.05954 0.99604 0.41708 0.0
N653 N 0.15159 0.07997 0.45835 0.0
C654 C 0.08016 0.01874 0.42407 0.0
C655 C 0.1286 0.0597 0.44868 0.0
N656 N 0.09971 1.00909 0.29017 0.0
N657 N 0.10573 0.07331 0.57714 0.0
H658 H 0.16848 0.08317 0.4157 0.0
H659 H 0.15379 0.09457 0.50656 0.0
H660 H 0.08794 0.07355 0.61794 0.0
H661 H 0.12379 0.08644 0.59588 0.0
H662 H 0.08019 0.99814 0.27136 0.0
H663 H 0.11618 0.01026 0.24569 0.0
H664 H 0.05989 0.97993 0.37191 0.0
H665 H 0.04365 0.99136 0.46111 0.0
C666 C 0.49413 0.12044 0.45947 0.0
C667 C 0.52069 0.13141 0.42108 0.0
C668 C 0.55078 0.09934 0.5128 0.0
C669 C 0.52418 0.08614 0.5464 0.0
N670 N 0.47006 0.08335 0.54555 0.0
N671 N 0.57409 0.1268 0.40244 0.0
C672 C 0.49579 0.09635 0.51716 0.0
C673 C 0.54892 0.11964 0.44568 0.0
N674 N 0.4673 0.13424 0.44429 0.0
N675 N 0.57813 0.09287 0.54535 0.0
H676 H 0.57367 0.14114 0.35288 0.0
H677 H 0.59478 0.11636 0.41067 0.0
H678 H 0.5809 0.07699 0.59026 0.0
H679 H 0.5978 0.10459 0.5314 0.0
H680 H 0.44763 0.1299 0.47626 0.0
H681 H 0.46513 0.1521 0.4042 0.0
H682 H 0.44898 0.08641 0.51962 0.0
H683 H 0.47011 0.06822 0.59303 0.0
C684 C 0.42007 0.51388 0.37489 0.0
C685 C 0.39969 0.48924 0.37518 0.0
C686 C 0.42636 0.46861 0.49469 0.0
C687 C 0.44567 0.49435 0.49746 0.0
N688 N 0.45807 0.54319 0.44381 0.0
N689 N 0.38439 0.44181 0.43108 0.0
C690 C 0.4417 0.51732 0.43827 0.0
C691 C 0.40311 0.46627 0.43427 0.0
N692 N 0.41942 0.5337 0.31207 0.0
N693 N 0.42953 0.44694 0.55213 0.0
H694 H 0.36739 0.43952 0.38829 0.0
H695 H 0.38574 0.42326 0.46872 0.0
H696 H 0.44752 0.44655 0.59224 0.0
H697 H 0.41403 0.42986 0.56284 0.0
H698 H 0.43597 0.54986 0.30152 0.0
H699 H 0.40347 0.53256 0.26621 0.0
H700 H 0.45377 0.5625 0.41055 0.0
H701 H 0.47512 0.54594 0.48551 0.0
C702 C 0.99002 0.41047 0.42854 0.0
C703 C 0.01806 0.4061 0.38858 0.0
C704 C 0.03994 0.4449 0.4774 0.0
C705 C 0.01345 0.44672 0.52453 0.0
N706 N 0.96248 0.42814 0.54432 0.0
N707 N 0.05709 0.43968 0.34184 0.0
C708 C 0.98839 0.42834 0.50054 0.0
C709 C 0.03998 0.42886 0.40345 0.0
N710 N 0.96409 0.40306 0.38918 0.0
N711 N 0.06588 0.45785 0.50367 0.0
H712 H 0.0526 0.43384 0.28232 0.0
H713 H 0.07183 0.45785 0.34842 0.0
H714 H 0.06769 0.46862 0.55902 0.0
H715 H 0.08603 0.45458 0.47333 0.0
H716 H 0.94269 0.40819 0.41045 0.0
H717 H 0.96421 0.39668 0.32893 0.0
H718 H 0.94553 0.41216 0.5359 0.0
H719 H 0.95832 0.44276 0.59128 0.0
C720 C 0.9098 0.98969 0.91383 0.0
C721 C 0.90539 0.0146 0.96579 0.0
C722 C 0.94175 0.04381 0.88394 0.0
C723 C 0.94899 0.01789 0.83656 0.0
N724 N 0.93923 0.96517 0.81083 0.0
N725 N 0.92134 0.06364 1.00841 0.0
C726 C 0.93297 0.99053 0.85345 0.0
C727 C 0.92252 0.04111 0.95284 0.0
N728 N 0.89068 0.96559 0.91934 0.0
N729 N 0.95244 0.07154 0.86298 0.0
H730 H 0.90747 0.06269 0.05889 0.0
H731 H 0.93612 0.08189 1.00865 0.0
H732 H 0.96744 0.0754 0.81659 0.0
H733 H 0.94454 0.09139 0.88815 0.0
H734 H 0.88989 0.94825 0.87754 0.0
H735 H 0.87365 0.96403 0.96223 0.0
H736 H 0.93233 0.94376 0.82841 0.0
H737 H 0.9523 0.96512 0.75929 0.0
C738 C 0.55052 0.90625 0.95315 0.0
C739 C 0.53962 0.9099 0.0328 0.0
C740 C 0.51913 0.9593 0.99165 0.0
C741 C 0.53232 0.95686 0.91315 0.0
N742 N 0.57041 0.93109 0.83537 0.0
N743 N 0.5198 0.94364 0.13178 0.0
C744 C 0.55074 0.93115 0.89841 0.0
C745 C 0.52583 0.93756 0.05305 0.0
N746 N 0.56018 0.87872 0.92837 0.0
N747 N 0.49905 0.98149 1.00801 0.0
H748 H 0.52439 0.92853 0.17807 0.0
H749 H 0.51311 0.96472 0.15195 0.0
H750 H 0.49283 0.99773 0.96691 0.0
H751 H 0.48611 0.98201 0.06012 0.0
H752 H 0.56531 0.87406 0.86862 0.0
H753 H 0.5601 0.85985 0.96558 0.0
H754 H 0.58598 0.91402 0.82629 0.0
H755 H 0.57454 0.94987 0.79963 0.0
C756 C 0.59346 0.55338 0.96282 0.0
C757 C 0.61841 0.53339 0.96793 0.0
C758 C 0.59249 0.50232 0.86587 0.0
C759 C 0.57124 0.52549 0.84822 0.0
N760 N 0.55892 0.57779 0.8723 0.0
N761 N 0.64402 0.49221 0.90282 0.0
C762 C 0.57372 0.55236 0.89469 0.0
C763 C 0.61862 0.50881 0.91327 0.0
N764 N 0.58774 0.57286 0.024 0.0
N765 N 0.58729 0.47351 0.84191 0.0
H766 H 0.66446 0.49751 0.9301 0.0
H767 H 0.64555 0.47549 0.85924 0.0
H768 H 0.56724 0.46673 0.81541 0.0
H769 H 0.60119 0.45576 0.85861 0.0
H770 H 0.56852 0.58618 0.02541 0.0
H771 H 0.6001 0.57285 0.07726 0.0
H772 H 0.5621 0.59828 0.90147 0.0
H773 H 0.54659 0.57951 0.81946 0.0
C774 C 0.02755 0.61393 0.96422 0.0
C775 C 1.00212 0.63305 0.96661 0.0
C776 C 0.98094 0.60562 0.84946 0.0
C777 C 1.00673 0.58664 0.84661 0.0
N778 N 0.0586 0.5802 0.88691 0.0
N779 N 0.95627 0.64989 0.90485 0.0
C780 C 0.0312 0.593 0.89969 0.0
C781 C 0.97915 0.62949 0.90755 0.0
N782 N 0.04798 0.61504 0.02548 0.0
N783 N 0.95871 0.60168 0.7938 0.0
H784 H 0.95407 0.66726 0.94631 0.0
H785 H 0.94032 0.65101 0.85933 0.0
H786 H 0.96146 0.58822 0.74332 0.0
H787 H 0.93769 0.61172 0.79656 0.0
H788 H 0.06498 0.59926 0.03294 0.0
H789 H 0.04629 0.6301 0.07318 0.0
H790 H 0.07801 0.58651 0.91775 0.0
H791 H 0.06291 0.56544 0.84021 0.0
C792 C 0.12786 0.15376 0.44108 0.0
C793 C 0.12928 0.15903 0.35791 0.0
C794 C 0.08252 0.13168 0.33746 0.0
C795 C 0.07652 0.13508 0.42069 0.0
N796 N 0.09568 0.14164 0.55482 0.0
N797 N 0.12052 0.13419 0.23261 0.0
C798 C 0.10033 0.14282 0.47403 0.0
C799 C 0.111 0.14101 0.30804 0.0
N800 N 0.15156 0.16269 0.48718 0.0
N801 N 0.06061 0.12173 0.28639 0.0
H802 H 0.14241 0.13913 0.21412 0.0
H803 H 0.10832 0.12083 0.19284 0.0
H804 H 0.03961 0.11427 0.30616 0.0
H805 H 0.06279 0.12208 0.22416 0.0
H806 H 0.15283 0.15963 0.54901 0.0
H807 H 0.1708 0.17195 0.46056 0.0
H808 H 0.11118 0.1489 0.59745 0.0
H809 H 0.07605 0.1325 0.57887 0.0
C810 C 0.36661 0.09441 0.39405 0.0
C811 C 0.34762 0.10933 0.44962 0.0
C812 C 0.35971 0.07209 0.5525 0.0
C813 C 0.37683 0.05624 0.49489 0.0
N814 N 0.40615 0.05793 0.37326 0.0
N815 N 0.33507 0.11893 0.58717 0.0
C816 C 0.38367 0.06943 0.4198 0.0
C817 C 0.34761 0.10048 0.53127 0.0
N818 N 0.36545 0.10253 0.31525 0.0
N819 N 0.35367 0.05935 0.62539 0.0
H820 H 0.32615 0.13977 0.57127 0.0
H821 H 0.33606 0.11487 0.64872 0.0
H822 H 0.36279 0.03886 0.64335 0.0
H823 H 0.33828 0.06824 0.66591 0.0
H824 H 0.37593 0.09102 0.26861 0.0
H825 H 0.37593 0.09102 0.26861 0.0
H826 H 0.41445 0.06873 0.32229 0.0
H827 H 0.41869 0.03921 0.39015 0.0
C828 C 0.41104 0.36337 0.4692 0.0
C829 C 0.40591 0.36073 0.38613 0.0
C830 C 0.44705 0.39513 0.35784 0.0
C831 C 0.458 0.38975 0.43668 0.0
N832 N 0.44701 0.37628 0.57389 0.0
N833 N 0.40298 0.39321 0.27171 0.0
C834 C 0.4385 0.37681 0.49528 0.0
C835 C 0.4185 0.38326 0.33685 0.0
N836 N 0.39113 0.35006 0.52036 0.0
N837 N 0.4643 0.40977 0.30226 0.0
H838 H 0.38077 0.38647 0.2617 0.0
H839 H 0.4107 0.41044 0.23457 0.0
H840 H 0.48534 0.41894 0.31552 0.0
H841 H 0.45827 0.41138 0.24195 0.0
H842 H 0.39276 0.3509 0.58261 0.0
H843 H 0.37191 0.33926 0.49813 0.0
H844 H 0.43496 0.36552 0.61919 0.0
H845 H 0.46621 0.38755 0.59364 0.0
C846 C 0.15962 0.4275 0.40868 0.0
C847 C 0.17122 0.43236 0.33088 0.0
C848 C 0.15126 0.48365 0.331 0.0
C849 C 0.14423 0.4804 0.41331 0.0
N850 N 0.14057 0.44922 0.53144 0.0
N851 N 0.17509 0.46538 0.21383 0.0
C852 C 0.1477 0.45214 0.45221 0.0
C853 C 0.16564 0.46001 0.29031 0.0
N854 N 0.16014 0.39917 0.4403 0.0
N855 N 0.14571 0.51006 0.29175 0.0
H856 H 0.18614 0.44991 0.17766 0.0
H857 H 0.18614 0.44991 0.17766 0.0
H858 H 0.13549 0.52843 0.319 0.0
H859 H 0.15089 0.51332 0.23121 0.0
H860 H 0.14995 0.39319 0.49428 0.0
H861 H 0.1686 0.38095 0.40816 0.0
H862 H 0.14625 0.43075 0.56656 0.0
H863 H 0.12904 0.4658 0.56227 0.0
C864 C 0.97688 0.83466 0.76791 0.0
C865 C 0.97968 0.81643 0.83675 0.0
C866 C 0.03447 0.82111 0.83318 0.0
C867 C 0.03166 0.84124 0.76766 0.0
N868 N 1.00223 0.85896 0.65626 0.0
N869 N 0.01043 0.78324 0.91617 0.0
C870 C 1.00342 0.84495 0.72902 0.0
C871 C 1.00836 0.80623 0.86201 0.0
N872 N 0.94901 0.84336 0.74286 0.0
N873 N 0.0613 0.81822 0.87249 0.0
H874 H 0.99159 0.77218 0.93924 0.0
H875 H 0.03072 0.77318 0.93177 0.0
H876 H 0.08104 0.82885 0.85401 0.0
H877 H 0.06358 0.80687 0.92685 0.0
H878 H 0.94544 0.85952 0.69863 0.0
H879 H 0.92935 0.83497 0.76915 0.0
H880 H 0.98265 0.86084 0.6224 0.0
H881 H 0.02171 0.86618 0.62699 0.0
C882 C 0.68186 0.89619 0.9302 0.0
C883 C 0.68466 0.89333 0.01425 0.0
C884 C 0.65418 0.93744 0.03542 0.0
C885 C 0.65858 0.94512 0.95347 0.0
N886 N 0.666 0.92761 0.81799 0.0
N887 N 0.65334 0.89632 0.1311 0.0
C888 C 0.66858 0.92282 0.89861 0.0
C889 C 0.66363 0.90881 0.06167 0.0
N890 N 0.69543 0.87531 0.88302 0.0
N891 N 0.64258 0.95762 0.08853 0.0
H892 H 0.65841 0.87416 0.14612 0.0
H893 H 0.63713 0.90642 0.16714 0.0
H894 H 0.63557 0.97903 0.07178 0.0
H895 H 0.64179 0.95361 0.15017 0.0
H896 H 0.6966 0.87646 0.82074 0.0
H897 H 0.70571 0.85656 0.90879 0.0
H898 H 0.67234 0.91213 0.77457 0.0
H899 H 0.65574 0.94676 0.79475 0.0
C900 C 0.50407 0.69145 0.78681 0.0
C901 C 0.49802 0.69496 0.86971 0.0
C902 C 0.44855 0.67134 0.85441 0.0
C903 C 0.45556 0.66578 0.77298 0.0
N904 N 0.48562 0.67565 0.65623 0.0
N905 N 0.46583 0.68773 0.9852 0.0
C906 C 0.48206 0.67743 0.73741 0.0
C907 C 0.47046 0.68503 0.90423 0.0
N908 N 0.53132 0.70042 0.75665 0.0
N909 N 0.42059 0.66397 0.88298 0.0
H910 H 0.4809 0.69847 0.02376 0.0
H911 H 0.44792 0.67792 0.01587 0.0
H912 H 0.40398 0.65419 0.84708 0.0
H913 H 0.41273 0.66962 0.93973 0.0
H914 H 0.53856 0.69615 0.69848 0.0
H915 H 0.54771 0.71099 0.79163 0.0
H916 H 0.50288 0.68634 0.62523 0.0
H917 H 0.46967 0.66558 0.61887 0.0
C918 C 0.89583 0.62451 0.05779 0.0
C919 C 0.87567 0.63711 1.00178 0.0
C920 C 0.88696 0.59834 0.90666 0.0
C921 C 0.89808 0.58029 0.97116 0.0
N922 N 0.92181 0.57931 0.10162 0.0
N923 N 0.87159 0.64754 0.86176 0.0
C924 C 0.90577 0.59452 0.0449 0.0
C925 C 0.88025 0.62872 0.92168 0.0
N926 N 0.90501 0.64133 0.12147 0.0
N927 N 0.87906 0.58691 0.83398 0.0
H928 H 0.86421 0.66926 0.87457 0.0
H929 H 0.87292 0.6415 0.80131 0.0
H930 H 0.87997 0.56421 0.8192 0.0
H931 H 0.87997 0.56421 0.8192 0.0
H932 H 0.91933 0.63367 0.16634 0.0
H933 H 0.89965 0.66411 0.12487 0.0
H934 H 0.92611 0.58755 0.15893 0.0
H935 H 0.93076 0.55807 0.09071 0.0
C936 C 0.03113 0.12728 0.91659 0.0
C937 C 0.02637 0.15565 0.87932 0.0
C938 C 0.02342 0.12925 0.74848 0.0
C939 C 0.02443 0.10059 0.78688 0.0
N940 N 0.01986 0.07419 0.91353 0.0
N941 N 0.01194 0.18243 0.75969 0.0
C942 C 0.02588 0.10011 0.87265 0.0
C943 C 0.02075 0.15623 0.79518 0.0
N944 N 0.04146 0.126 0.99374 0.0
N945 N 0.02643 0.13106 0.66722 0.0
H946 H 0.00928 0.20236 0.79165 0.0
H947 H 1.00439 0.18363 0.70055 0.0
H948 H 0.03034 0.11231 0.63152 0.0
H949 H 0.0288 0.15139 0.63682 0.0
H950 H 0.04825 0.10601 0.02078 0.0
H951 H 0.04623 0.14511 0.02764 0.0
H952 H 0.01789 0.07329 0.97584 0.0
H953 H 0.01255 0.05465 0.8853 0.0
C954 C 0.39606 0.06169 0.84312 0.0
C955 C 0.38653 0.04441 0.91095 0.0
C956 C 0.43101 0.01209 0.88947 0.0
C957 C 0.44347 0.03242 0.83134 0.0
N958 N 0.43697 0.07872 0.75741 0.0
N959 N 0.4009 1.0075 1.00989 0.0
C960 C 0.42582 0.05802 0.8103 0.0
C961 C 0.4056 0.02076 0.93691 0.0
N962 N 0.37611 0.08059 0.80685 0.0
N963 N 0.44273 0.98411 0.89997 0.0
H964 H 0.38411 0.01428 0.04944 0.0
H965 H 0.41599 0.99231 0.0351 0.0
H966 H 0.46157 0.97627 0.87019 0.0
H967 H 0.43209 0.96768 0.93472 0.0
H968 H 0.38069 0.09204 0.75364 0.0
H969 H 0.35371 0.08224 0.82484 0.0
H970 H 0.42701 0.09953 0.74761 0.0
H971 H 0.45715 0.07601 0.72674 0.0
C972 C 0.51847 0.37513 0.80436 0.0
C973 C 0.51195 0.37595 0.88819 0.0
C974 C 0.50924 0.43145 0.87784 0.0
C975 C 0.51088 0.43034 0.79257 0.0
N976 N 0.51567 0.39993 0.67418 0.0
N977 N 0.49613 0.40569 1.00145 0.0
C978 C 0.51529 0.40179 0.75585 0.0
C979 C 0.506 0.40437 0.92391 0.0
N980 N 0.52866 0.34902 0.77136 0.0
N981 N 0.51288 0.45833 0.91582 0.0
H982 H 0.49275 0.38664 0.03688 0.0
H983 H 0.48863 0.42548 0.0279 0.0
H984 H 0.51688 0.47826 0.88462 0.0
H985 H 0.51521 0.46027 0.97786 0.0
H986 H 0.53688 0.34741 0.71304 0.0
H987 H 0.53159 0.32943 0.80483 0.0
H988 H 0.51636 0.37973 0.64295 0.0
H989 H 0.51257 0.41859 0.6374 0.0
C990 C 0.11826 0.49631 0.92742 0.0
C991 C 0.14589 0.50048 0.8857 0.0
C992 C 0.11603 0.50674 0.76087 0.0
C993 C 0.08819 0.50605 0.80389 0.0
N994 N 0.06672 0.51207 0.93606 0.0
N995 N 0.16969 0.51797 0.7644 0.0
C996 C 0.09036 0.50391 0.88945 0.0
C997 C 0.1443 0.50828 0.80296 0.0
N998 N 0.11822 0.48459 1.00319 0.0
N999 N 0.11605 0.50432 0.67951 0.0
H1000 H 0.19043 0.52004 0.79324 0.0
H1001 H 0.16943 0.52712 0.70681 0.0
H1002 H 0.09676 0.50004 0.64597 0.0
H1003 H 0.13588 0.5028 0.64688 0.0
H1004 H 0.0984 0.47868 0.03298 0.0
H1005 H 0.13779 0.47795 0.03265 0.0
H1006 H 0.06817 0.51368 0.99838 0.0
H1007 H 0.0478 0.52208 0.9117 0.0
C1008 C 0.02666 0.89626 0.48367 0.0
C1009 C 0.99795 0.88594 0.45822 0.0
C1010 C 0.97529 0.92648 0.539 0.0
C1011 C 1.00392 0.9407 0.55217 0.0
N1012 N 0.0584 0.9369 0.52732 0.0
N1013 N 0.94471 0.89531 0.45145 0.0
C1014 C 0.03004 0.92499 0.52215 0.0
C1015 C 0.97226 0.90232 0.48277 0.0
N1016 N 0.05091 0.87775 0.47539 0.0
N1017 N 0.95094 0.93447 0.5839 0.0
H1018 H 0.94151 0.8783 0.40929 0.0
H1019 H 0.92567 0.90835 0.46136 0.0
H1020 H 0.95236 0.94923 0.63192 0.0
H1021 H 0.93036 0.92318 0.58113 0.0
H1022 H 0.07163 0.88195 0.50264 0.0
H1023 H 0.04946 0.85652 0.44926 0.0
H1024 H 0.0763 0.92869 0.4936 0.0
H1025 H 0.06488 0.95547 0.5603 0.0
C1026 C 0.66223 0.0145 0.57758 0.0
C1027 C 0.66148 0.01416 0.49213 0.0
C1028 C 0.60606 0.01985 0.50041 0.0
C1029 C 0.60647 0.01604 0.58554 0.0
N1030 N 0.63603 1.00129 0.69997 0.0
N1031 N 0.63066 1.00989 0.37325 0.0
C1032 C 0.63492 0.01125 0.6227 0.0
C1033 C 0.6328 0.01505 0.45385 0.0
N1034 N 0.68904 0.01846 0.6163 0.0
N1035 N 0.58046 0.02935 0.46352 0.0
H1036 H 0.64925 1.00538 0.33722 0.0
H1037 H 0.61013 1.00702 0.34389 0.0
H1038 H 0.56099 0.0342 0.49527 0.0
H1039 H 0.57961 0.03552 0.40319 0.0
H1040 H 0.69059 0.02175 0.67812 0.0
H1041 H 0.7093 0.02167 0.58575 0.0
H1042 H 0.65596 0.99498 0.72803 0.0
H1043 H 0.61672 0.99549 0.73171 0.0
C1044 C 0.55135 0.64113 0.57022 0.0
C1045 C 0.53094 0.65086 0.50917 0.0
C1046 C 0.49727 0.60875 0.54823 0.0
C1047 C 0.51959 0.59622 0.59916 0.0
N1048 N 0.56915 0.60045 0.65599 0.0
N1049 N 0.48646 0.63935 0.43158 0.0
C1050 C 0.54694 0.61257 0.60975 0.0
C1051 C 0.5044 0.63344 0.49619 0.0
N1052 N 0.57443 0.65968 0.59258 0.0
N1053 N 0.46858 0.59794 0.55192 0.0
H1054 H 0.49123 0.65623 0.38998 0.0
H1055 H 0.46859 0.62545 0.41481 0.0
H1056 H 0.46257 0.5804 0.59011 0.0
H1057 H 0.45051 0.60824 0.52324 0.0
H1058 H 0.58832 0.6555 0.64163 0.0
H1059 H 0.57786 0.68081 0.56695 0.0
H1060 H 0.59084 0.6093 0.65943 0.0
H1061 H 0.5665 0.58007 0.68623 0.0
C1062 C 0.89472 0.51255 0.43946 0.0
C1063 C 0.86885 0.52529 0.47691 0.0
C1064 C 0.90129 0.53712 0.59419 0.0
C1065 C 0.92577 0.52064 0.56182 0.0
N1066 N 0.94303 0.48824 0.45588 0.0
N1067 N 0.84716 0.54217 0.60177 0.0
C1068 C 0.92138 0.50664 0.48572 0.0
C1069 C 0.87211 0.53545 0.55763 0.0
N1070 N 0.89503 0.50823 0.35831 0.0
N1071 N 0.90566 0.55511 0.65919 0.0
H1072 H 0.82536 0.53913 0.57995 0.0
H1073 H 0.84816 0.54727 0.6628 0.0
H1074 H 0.92601 0.55641 0.68978 0.0
H1075 H 0.88983 0.57101 0.67652 0.0
H1076 H 0.91421 0.50177 0.32699 0.0
H1077 H 0.87739 0.51458 0.32089 0.0
H1078 H 0.93978 0.47476 0.40547 0.0
H1079 H 0.96352 0.48521 0.48474 0.0
loop_
_geom_bond_atom_site_label_1
_geom_bond_atom_site_label_2
_geom_bond_distance
_geom_bond_site_symmetry_2
_ccdc_geom_bond_type
C0 C1 1.386 . S
C0 C2 1.397 . S
C0 H24 0.931 . S
C1 C0 1.386 . S
C1 C5 1.397 . S
C2 C0 1.397 . S
C2 C3 1.384 . S
C2 H25 0.930 . S
C3 C2 1.384 . S
C3 C4 1.377 . S
C3 C6 1.481 . S
C4 C3 1.377 . S
C4 C5 1.389 . S
C4 H26 0.929 . S
C5 C1 1.397 . S
C5 C4 1.389 . S
C5 H27 0.931 . S
C6 C3 1.481 . S
C6 C7 1.387 . S
C6 C11 1.390 . S
C7 C6 1.387 . S
C7 C8 1.401 . S
C7 H28 0.930 . S
C8 C7 1.401 . S
C8 C9 1.376 . S
C8 C17 1.511 . S
C9 C8 1.376 . S
C9 C10 1.392 . S
C9 H30 0.931 . S
C10 C9 1.392 . S
C10 C11 1.361 . S
C10 C12 1.500 . S
C11 C6 1.390 . S
C11 C10 1.361 . S
C11 H29 0.931 . S
C12 C10 1.500 . S
C12 C13 1.371 . S
C12 C14 1.365 . S
C13 C12 1.371 . S
C13 C23 1.386 . S
C13 H31 0.931 . S
C14 C12 1.365 . S
C14 C15 1.409 . S
C14 H32 0.929 . S
C15 C14 1.409 . S
C15 C16 1.380 . S
C15 H33 0.930 . S
C16 C15 1.380 . S
C16 C23 1.357 . S
C17 C8 1.511 . S
C17 C18 1.341 . S
C17 C19 1.371 . S
C18 C17 1.341 . S
C18 C22 1.394 . S
C18 H34 0.930 . S
C19 C17 1.371 . S
C19 C20 1.392 . S
C19 H35 0.931 . S
C20 C19 1.392 . S
C20 C21 1.331 . S
C20 H38 0.932 . S
C21 C20 1.331 . S
C21 C22 1.336 . S
C22 C18 1.394 . S
C22 C21 1.336 . S
C22 H37 0.929 . S
C23 C13 1.386 . S
C23 C16 1.357 . S
C23 H36 0.928 . S
H24 C0 0.931 . S
H25 C2 0.930 . S
H26 C4 0.929 . S
H27 C5 0.931 . S
H28 C7 0.930 . S
H29 C11 0.931 . S
H30 C9 0.931 . S
H31 C13 0.931 . S
H32 C14 0.929 . S
H33 C15 0.930 . S
H34 C18 0.930 . S
H35 C19 0.931 . S
H36 C23 0.928 . S
H37 C22 0.929 . S
H38 C20 0.932 . S
C39 C40 1.386 . S
C39 C41 1.397 . S
C39 H63 0.931 . S
C40 C39 1.386 . S
C40 C44 1.397 . S
C41 C39 1.397 . S
C41 C42 1.384 . S
C41 H64 0.930 . S
C42 C41 1.384 . S
C42 C43 1.377 . S
C42 C45 1.481 . S
C43 C42 1.377 . S
C43 C44 1.389 . S
C43 H65 0.929 1_655 S
C44 C40 1.397 . S
C44 C43 1.389 . S
C44 H66 0.931 1_655 S
C45 C42 1.481 . S
C45 C46 1.387 . S
C45 C50 1.390 . S
C46 C45 1.387 . S
C46 C47 1.401 . S
C46 H67 0.930 . S
C47 C46 1.401 . S
C47 C48 1.376 . S
C47 C56 1.511 . S
C48 C47 1.376 . S
C48 C49 1.392 . S
C48 H69 0.931 . S
C49 C48 1.392 . S
C49 C50 1.361 . S
C49 C51 1.500 . S
C50 C45 1.390 . S
C50 C49 1.361 . S
C50 H68 0.931 . S
C51 C49 1.500 . S
C51 C52 1.371 . S
C51 C53 1.365 . S
C52 C51 1.371 . S
C52 C62 1.386 . S
C52 H70 0.931 . S
C53 C51 1.365 . S
C53 C54 1.409 . S
C53 H71 0.945 . S
C54 C53 1.409 . S
C54 C55 1.380 . S
C54 H72 0.930 . S
C55 C54 1.380 . S
C55 C62 1.357 . S
C56 C47 1.511 . S
C56 C57 1.341 . S
C56 C58 1.371 . S
C57 C56 1.341 . S
C57 C61 1.394 . S
C57 H73 0.930 . S
C58 C56 1.371 . S
C58 C59 1.392 . S
C58 H74 0.931 . S
C59 C58 1.392 . S
C59 C60 1.331 . S
C59 H77 0.932 . S
C60 C59 1.331 . S
C60 C61 1.336 . S
C61 C57 1.394 . S
C61 C60 1.336 . S
C61 H76 0.929 . S
C62 C52 1.386 . S
C62 C55 1.357 . S
C62 H75 0.928 . S
H63 C39 0.931 . S
H64 C41 0.930 . S
H65 C43 0.929 1_455 S
H66 C44 0.931 1_455 S
H67 C46 0.930 . S
H68 C50 0.931 . S
H69 C48 0.931 . S
H70 C52 0.931 . S
H71 C53 0.945 . S
H72 C54 0.930 . S
H73 C57 0.930 . S
H74 C58 0.931 . S
H75 C62 0.928 . S
H76 C61 0.929 . S
H77 C59 0.932 . S
C78 C79 1.386 . S
C78 C80 1.397 . S
C78 H102 0.931 . S
C79 C78 1.386 . S
C79 C83 1.397 . S
C80 C78 1.397 . S
C80 C81 1.384 . S
C80 H103 0.930 . S
C81 C80 1.384 . S
C81 C82 1.377 . S
C81 C84 1.481 . S
C82 C81 1.377 . S
C82 C83 1.389 . S
C82 H104 0.929 1_565 S
C83 C79 1.397 . S
C83 C82 1.389 . S
C83 H105 0.931 1_565 S
C84 C81 1.481 . S
C84 C85 1.387 . S
C84 C89 1.390 . S
C85 C84 1.387 . S
C85 C86 1.401 . S
C85 H106 0.930 . S
C86 C85 1.401 . S
C86 C87 1.376 . S
C86 C95 1.511 . S
C87 C86 1.376 . S
C87 C88 1.392 . S
C87 H108 0.931 . S
C88 C87 1.392 . S
C88 C89 1.361 . S
C88 C90 1.500 . S
C89 C84 1.390 . S
C89 C88 1.361 . S
C89 H107 0.931 . S
C90 C88 1.500 . S
C90 C91 1.371 . S
C90 C92 1.365 . S
C91 C90 1.371 . S
C91 C101 1.386 . S
C91 H109 0.931 . S
C92 C90 1.365 . S
C92 C93 1.409 . S
C92 H110 0.929 . S
C93 C92 1.409 . S
C93 C94 1.380 . S
C93 H111 0.930 . S
C94 C93 1.380 . S
C94 C101 1.357 . S
C95 C86 1.511 . S
C95 C96 1.341 . S
C95 C97 1.371 . S
C96 C95 1.341 . S
C96 C100 1.394 . S
C96 H112 0.930 . S
C97 C95 1.371 . S
C97 C98 1.392 . S
C97 H113 0.931 . S
C98 C97 1.392 . S
C98 C99 1.331 . S
C98 H116 0.932 . S
C99 C98 1.331 . S
C99 C100 1.336 . S
C100 C96 1.394 . S
C100 C99 1.336 . S
C100 H115 0.929 . S
C101 C91 1.386 . S
C101 C94 1.357 . S
C101 H114 0.928 . S
H102 C78 0.931 . S
H103 C80 0.930 . S
H104 C82 0.929 1_545 S
H105 C83 0.931 1_545 S
H106 C85 0.930 . S
H107 C89 0.931 . S
H108 C87 0.931 . S
H109 C91 0.931 . S
H110 C92 0.929 . S
H111 C93 0.930 . S
H112 C96 0.930 . S
H113 C97 0.931 . S
H114 C101 0.928 . S
H115 C100 0.929 . S
H116 C98 0.932 . S
C117 C118 1.386 . S
C117 C119 1.397 . S
C117 H141 0.931 . S
C118 C117 1.386 . S
C118 C122 1.397 . S
C119 C117 1.397 . S
C119 C120 1.384 . S
C119 H142 0.930 . S
C120 C119 1.384 . S
C120 C121 1.377 . S
C120 C123 1.481 . S
C121 C120 1.377 . S
C121 C122 1.389 . S
C121 H143 0.929 . S
C122 C118 1.397 . S
C122 C121 1.389 . S
C122 H144 0.931 . S
C123 C120 1.481 . S
C123 C124 1.387 . S
C123 C128 1.390 . S
C124 C123 1.387 . S
C124 C125 1.401 . S
C124 H145 0.930 . S
C125 C124 1.401 . S
C125 C126 1.376 . S
C125 C134 1.511 . S
C126 C125 1.376 . S
C126 C127 1.392 . S
C126 H147 0.931 . S
C127 C126 1.392 . S
C127 C128 1.361 . S
C127 C129 1.500 . S
C128 C123 1.390 . S
C128 C127 1.361 . S
C128 H146 0.931 . S
C129 C127 1.500 . S
C129 C130 1.371 . S
C129 C131 1.365 . S
C130 C129 1.371 . S
C130 C140 1.386 . S
C130 H148 0.931 . S
C131 C129 1.365 . S
C131 C132 1.409 . S
C131 H149 0.929 . S
C132 C131 1.409 . S
C132 C133 1.380 . S
C132 H150 0.930 . S
C133 C132 1.380 . S
C133 C140 1.357 . S
C134 C125 1.511 . S
C134 C135 1.341 . S
C134 C136 1.371 . S
C135 C134 1.341 . S
C135 C139 1.394 . S
C135 H151 0.930 . S
C136 C134 1.371 . S
C136 C137 1.392 . S
C136 H152 0.931 . S
C137 C136 1.392 . S
C137 C138 1.331 . S
C137 H155 0.932 . S
C138 C137 1.331 . S
C138 C139 1.336 . S
C139 C135 1.394 . S
C139 C138 1.336 . S
C139 H154 0.929 . S
C140 C130 1.386 . S
C140 C133 1.357 . S
C140 H153 0.928 . S
H141 C117 0.931 . S
H142 C119 0.930 . S
H143 C121 0.929 . S
H144 C122 0.931 . S
H145 C124 0.930 . S
H146 C128 0.931 . S
H147 C126 0.931 . S
H148 C130 0.931 . S
H149 C131 0.929 . S
H150 C132 0.930 . S
H151 C135 0.930 . S
H152 C136 0.931 . S
H153 C140 0.928 . S
H154 C139 0.929 . S
H155 C137 0.932 . S
C156 C157 1.386 . S
C156 C158 1.397 . S
C156 H180 0.931 . S
C157 C156 1.386 . S
C157 C161 1.397 . S
C158 C156 1.397 . S
C158 C159 1.384 . S
C158 H181 0.930 . S
C159 C158 1.384 . S
C159 C160 1.377 . S
C159 C162 1.481 . S
C160 C159 1.377 . S
C160 C161 1.389 . S
C160 H182 0.929 . S
C161 C157 1.397 . S
C161 C160 1.389 . S
C161 H183 0.931 . S
C162 C159 1.481 . S
C162 C163 1.387 . S
C162 C167 1.390 . S
C163 C162 1.387 . S
C163 C164 1.401 . S
C163 H184 0.930 . S
C164 C163 1.401 . S
C164 C165 1.376 1_554 S
C164 C173 1.511 . S
C165 C164 1.376 1_556 S
C165 C166 1.392 . S
C165 H186 0.931 . S
C166 C165 1.392 . S
C166 C167 1.361 1_556 S
C166 C168 1.500 . S
C167 C162 1.390 . S
C167 C166 1.361 1_554 S
C167 H185 0.931 . S
C168 C166 1.500 . S
C168 C169 1.371 . S
C168 C170 1.365 . S
C169 C168 1.371 . S
C169 C179 1.386 . S
C169 H187 0.931 . S
C170 C168 1.365 . S
C170 C171 1.409 . S
C170 H188 0.929 . S
C171 C170 1.409 . S
C171 C172 1.380 . S
C171 H189 0.930 . S
C172 C171 1.380 . S
C172 C179 1.357 . S
C173 C164 1.511 . S
C173 C174 1.341 . S
C173 C175 1.371 . S
C174 C173 1.341 . S
C174 C178 1.394 . S
C174 H190 0.930 . S
C175 C173 1.371 . S
C175 C176 1.392 . S
C175 H191 0.931 1_554 S
C176 C175 1.392 . S
C176 C177 1.331 . S
C176 H194 0.932 . S
C177 C176 1.331 . S
C177 C178 1.336 . S
C178 C174 1.394 . S
C178 C177 1.336 . S
C178 H193 0.929 . S
C179 C169 1.386 . S
C179 C172 1.357 . S
C179 H192 0.928 . S
H180 C156 0.931 . S
H181 C158 0.930 . S
H182 C160 0.929 . S
H183 C161 0.931 . S
H184 C163 0.930 . S
H185 C167 0.931 . S
H186 C165 0.931 . S
H187 C169 0.931 . S
H188 C170 0.929 . S
H189 C171 0.930 . S
H190 C174 0.930 . S
H191 C175 0.931 1_556 S
H192 C179 0.928 . S
H193 C178 0.929 . S
H194 C176 0.932 . S
C195 C196 1.386 . S
C195 C197 1.397 . S
C195 H219 0.931 . S
C196 C195 1.386 . S
C196 C200 1.397 . S
C197 C195 1.397 . S
C197 C198 1.384 . S
C197 H220 0.930 . S
C198 C197 1.384 . S
C198 C199 1.377 . S
C198 C201 1.481 . S
C199 C198 1.377 . S
C199 C200 1.389 . S
C199 H221 0.929 . S
C200 C196 1.397 . S
C200 C199 1.389 . S
C200 H222 0.931 . S
C201 C198 1.481 . S
C201 C202 1.387 . S
C201 C206 1.390 . S
C202 C201 1.387 . S
C202 C203 1.401 . S
C202 H223 0.930 . S
C203 C202 1.401 . S
C203 C204 1.376 1_554 S
C203 C212 1.511 . S
C204 C203 1.376 1_556 S
C204 C205 1.392 . S
C204 H225 0.931 . S
C205 C204 1.392 . S
C205 C206 1.361 1_556 S
C205 C207 1.500 . S
C206 C201 1.390 . S
C206 C205 1.361 1_554 S
C206 H224 0.931 . S
C207 C205 1.500 . S
C207 C208 1.371 . S
C207 C209 1.365 . S
C208 C207 1.371 . S
C208 C218 1.386 . S
C208 H226 0.931 . S
C209 C207 1.365 . S
C209 C210 1.409 . S
C209 H227 0.929 . S
C210 C209 1.409 . S
C210 C211 1.380 . S
C210 H228 0.930 . S
C211 C210 1.380 . S
C211 C218 1.357 . S
C212 C203 1.511 . S
C212 C213 1.341 . S
C212 C214 1.371 . S
C213 C212 1.341 . S
C213 C217 1.394 . S
C213 H229 0.930 . S
C214 C212 1.371 . S
C214 C215 1.392 . S
C214 H230 0.931 1_554 S
C215 C214 1.392 . S
C215 C216 1.331 . S
C215 H233 0.932 . S
C216 C215 1.331 . S
C216 C217 1.336 . S
C217 C213 1.394 . S
C217 C216 1.336 . S
C217 H232 0.929 . S
C218 C208 1.386 . S
C218 C211 1.357 . S
C218 H231 0.928 . S
H219 C195 0.931 . S
H220 C197 0.930 . S
H221 C199 0.929 . S
H222 C200 0.931 . S
H223 C202 0.930 . S
H224 C206 0.931 . S
H225 C204 0.931 . S
H226 C208 0.931 . S
H227 C209 0.929 . S
H228 C210 0.930 . S
H229 C213 0.930 . S
H230 C214 0.931 1_556 S
H231 C218 0.928 . S
H232 C217 0.929 . S
H233 C215 0.932 . S
C234 C235 1.386 . S
C234 C236 1.397 . S
C234 H258 0.931 . S
C235 C234 1.386 . S
C235 C239 1.397 . S
C236 C234 1.397 . S
C236 C237 1.384 . S
C236 H259 0.930 . S
C237 C236 1.384 . S
C237 C238 1.377 . S
C237 C240 1.481 . S
C238 C237 1.377 . S
C238 C239 1.389 . S
C238 H260 0.929 . S
C239 C235 1.397 . S
C239 C238 1.389 . S
C239 H261 0.931 . S
C240 C237 1.481 . S
C240 C241 1.387 . S
C240 C245 1.390 . S
C241 C240 1.387 . S
C241 C242 1.401 . S
C241 H262 0.930 . S
C242 C241 1.401 . S
C242 C243 1.376 1_554 S
C242 C251 1.511 . S
C243 C242 1.376 1_556 S
C243 C244 1.392 . S
C243 H264 0.931 . S
C244 C243 1.392 . S
C244 C245 1.361 1_556 S
C244 C246 1.500 . S
C245 C240 1.390 . S
C245 C244 1.361 1_554 S
C245 H263 0.931 . S
C246 C244 1.500 . S
C246 C247 1.371 . S
C246 C248 1.365 . S
C247 C246 1.371 . S
C247 C257 1.386 . S
C247 H265 0.931 . S
C248 C246 1.365 . S
C248 C249 1.409 . S
C248 H266 0.929 . S
C249 C248 1.409 . S
C249 C250 1.380 . S
C249 H267 0.930 . S
C250 C249 1.380 . S
C250 C257 1.357 . S
C251 C242 1.511 . S
C251 C252 1.341 . S
C251 C253 1.371 . S
C252 C251 1.341 . S
C252 C256 1.394 . S
C252 H268 0.930 . S
C253 C251 1.371 . S
C253 C254 1.392 . S
C253 H269 0.931 1_554 S
C254 C253 1.392 . S
C254 C255 1.331 . S
C254 H272 0.932 . S
C255 C254 1.331 . S
C255 C256 1.336 . S
C256 C252 1.394 . S
C256 C255 1.336 . S
C256 H271 0.929 . S
C257 C247 1.386 . S
C257 C250 1.357 . S
C257 H270 0.928 . S
H258 C234 0.931 . S
H259 C236 0.930 . S
H260 C238 0.929 . S
H261 C239 0.931 . S
H262 C241 0.930 . S
H263 C245 0.931 . S
H264 C243 0.931 . S
H265 C247 0.931 . S
H266 C248 0.929 . S
H267 C249 0.930 . S
H268 C252 0.930 . S
H269 C253 0.931 1_556 S
H270 C257 0.928 . S
H271 C256 0.929 . S
H272 C254 0.932 . S
C273 C274 1.386 . S
C273 C275 1.397 . S
C273 H297 0.931 . S
C274 C273 1.386 . S
C274 C278 1.397 . S
C275 C273 1.397 . S
C275 C276 1.384 . S
C275 H298 0.930 . S
C276 C275 1.384 . S
C276 C277 1.377 . S
C276 C279 1.481 . S
C277 C276 1.377 . S
C277 C278 1.389 . S
C277 H299 0.929 . S
C278 C274 1.397 . S
C278 C277 1.389 . S
C278 H300 0.931 . S
C279 C276 1.481 . S
C279 C280 1.387 . S
C279 C284 1.390 1_556 S
C280 C279 1.387 . S
C280 C281 1.401 1_556 S
C280 H301 0.930 . S
C281 C280 1.401 1_554 S
C281 C282 1.376 . S
C281 C290 1.511 . S
C282 C281 1.376 . S
C282 C283 1.392 . S
C282 H303 0.931 . S
C283 C282 1.392 . S
C283 C284 1.361 . S
C283 C285 1.500 . S
C284 C279 1.390 1_554 S
C284 C283 1.361 . S
C284 H302 0.931 . S
C285 C283 1.500 . S
C285 C286 1.371 . S
C285 C287 1.365 . S
C286 C285 1.371 . S
C286 C296 1.386 . S
C286 H304 0.931 . S
C287 C285 1.365 . S
C287 C288 1.409 . S
C287 H305 0.929 . S
C288 C287 1.409 . S
C288 C289 1.380 . S
C288 H306 0.930 . S
C289 C288 1.380 . S
C289 C296 1.357 . S
C290 C281 1.511 . S
C290 C291 1.341 . S
C290 C292 1.371 . S
C291 C290 1.341 . S
C291 C295 1.394 . S
C291 H307 0.930 1_554 S
C292 C290 1.371 . S
C292 C293 1.392 . S
C292 H308 0.931 . S
C293 C292 1.392 . S
C293 C294 1.331 . S
C293 H311 0.932 . S
C294 C293 1.331 . S
C294 C295 1.336 . S
C295 C291 1.394 . S
C295 C294 1.336 . S
C295 H310 0.929 . S
C296 C286 1.386 . S
C296 C289 1.357 . S
C296 H309 0.928 . S
H297 C273 0.931 . S
H298 C275 0.930 . S
H299 C277 0.929 . S
H300 C278 0.931 . S
H301 C280 0.930 . S
H302 C284 0.931 . S
H303 C282 0.931 . S
H304 C286 0.931 . S
H305 C287 0.929 . S
H306 C288 0.930 . S
H307 C291 0.930 1_556 S
H308 C292 0.931 . S
H309 C296 0.928 . S
H310 C295 0.929 . S
H311 C293 0.932 . S
Tb312 N341 2.617 . S
Tb312 N347 2.572 . S
Tb312 O356 2.465 . S
Tb312 O357 2.387 1_545 S
Tb312 O359 2.428 . S
Tb312 O360 2.308 1_655 S
Tb312 O364 2.349 1_655 S
Tb312 O367 2.393 . S
Tb312 C376 2.802 . S
C313 N314 1.379 . S
C313 C316 1.416 . S
C313 C320 1.424 . S
N314 C313 1.379 . S
N314 C317 1.334 1_545 S
N314 Tb323 2.617 1_545 S
C315 C317 1.390 1_545 S
C315 C318 1.339 . S
C315 H335 0.930 . S
C316 C313 1.416 . S
C316 C318 1.416 . S
C316 C322 1.448 . S
C317 N314 1.334 1_565 S
C317 C315 1.390 1_565 S
C317 H328 0.930 . S
C318 C315 1.339 . S
C318 C316 1.416 . S
C318 H339 0.930 . S
C319 C320 1.413 . S
C319 C321 1.427 1_556 S
C319 C325 1.416 1_556 S
C320 C313 1.424 . S
C320 C319 1.413 . S
C320 N324 1.361 . S
C321 C319 1.427 1_554 S
C321 C322 1.328 1_554 S
C321 H336 0.929 . S
C322 C316 1.448 . S
C322 C321 1.328 1_556 S
C322 H337 0.930 . S
Tb323 N314 2.617 1_565 S
Tb323 N324 2.572 1_565 S
Tb323 O358 2.349 . S
Tb323 O361 2.393 . S
Tb323 O362 2.465 . S
Tb323 O363 2.387 1_565 S
Tb323 O365 2.428 . S
Tb323 O366 2.306 1_465 S
Tb323 C387 2.802 . S
N324 C320 1.361 . S
N324 Tb323 2.572 1_545 S
N324 C326 1.340 . S
C325 C319 1.416 1_554 S
C325 C327 1.332 . S
C325 H333 0.931 . S
C326 N324 1.340 . S
C326 C327 1.407 1_556 S
C326 H332 0.930 . S
C327 C325 1.332 . S
C327 C326 1.407 1_554 S
C327 H329 0.929 . S
H328 C317 0.930 . S
H329 C327 0.929 . S
H330 C345 0.930 . S
H331 C352 0.929 1_455 S
H332 C326 0.930 . S
H333 C325 0.931 . S
H334 C348 0.930 1_455 S
H335 C315 0.930 . S
H336 C321 0.929 . S
H337 C322 0.930 . S
H338 C343 0.930 . S
H339 C318 0.930 . S
H340 C351 0.931 . S
N341 Tb312 2.617 . S
N341 C342 1.371 1_545 S
N341 C345 1.334 . S
C342 N341 1.371 1_565 S
C342 C344 1.422 . S
C342 C350 1.426 . S
C343 H338 0.930 . S
C343 C345 1.390 . S
C343 C346 1.339 1_545 S
C344 C342 1.422 . S
C344 C346 1.416 . S
C344 C377 1.448 . S
C345 H330 0.930 . S
C345 N341 1.334 . S
C345 C343 1.390 . S
C346 C343 1.339 1_565 S
C346 C344 1.416 . S
C346 H353 0.930 . S
N347 Tb312 2.572 . S
N347 C348 1.340 . S
N347 C350 1.361 1_545 S
C348 H334 0.930 1_655 S
C348 N347 1.340 . S
C348 C352 1.407 1_545 S
C349 C350 1.413 . S
C349 C351 1.416 . S
C349 C378 1.427 . S
C350 C342 1.426 . S
C350 N347 1.361 1_565 S
C350 C349 1.413 . S
C351 H340 0.931 . S
C351 C349 1.416 . S
C351 C352 1.332 . S
C352 H331 0.929 1_655 S
C352 C348 1.407 1_565 S
C352 C351 1.332 . S
H353 C346 0.930 . S
H354 C377 0.930 . S
H355 C378 0.929 . S
O356 Tb312 2.465 . S
O356 C376 1.264 . S
O357 Tb312 2.387 1_565 S
O357 C368 1.264 . S
O358 Tb323 2.349 . S
O358 C368 1.243 1_455 S
O359 Tb312 2.428 . S
O359 C376 1.256 . S
O360 Tb312 2.308 1_455 S
O360 C375 1.266 . S
O361 Tb323 2.393 . S
O361 C375 1.248 1_565 S
O362 Tb323 2.465 . S
O362 C387 1.264 . S
O363 Tb323 2.387 1_545 S
O363 C379 1.264 . S
O364 Tb312 2.349 1_455 S
O364 C379 1.243 . S
O365 Tb323 2.428 . S
O365 C387 1.256 . S
O366 Tb323 2.306 1_645 S
O366 C386 1.268 . S
O367 Tb312 2.393 . S
O367 C386 1.248 . S
C368 O357 1.264 . S
C368 O358 1.243 1_655 S
C369 C372 1.399 . S
C369 C374 1.383 . S
C369 C376 1.496 . S
C370 C371 1.399 . S
C370 C374 1.389 . S
C371 C370 1.399 . S
C371 C373 1.380 . S
C371 H388 0.929 . S
C372 C369 1.399 . S
C372 C373 1.392 . S
C372 H389 0.929 . S
C373 C371 1.380 . S
C373 C372 1.392 . S
C373 H390 0.929 . S
C374 C369 1.383 . S
C374 C370 1.389 . S
C374 H391 0.931 1_655 S
C375 O360 1.266 . S
C375 O361 1.248 1_545 S
C376 Tb312 2.802 . S
C376 O356 1.264 . S
C376 O359 1.256 . S
C376 C369 1.496 . S
C377 C344 1.448 . S
C377 H354 0.930 . S
C377 C378 1.328 . S
C378 C349 1.427 . S
C378 H355 0.929 . S
C378 C377 1.328 . S
C379 O363 1.264 . S
C379 O364 1.243 . S
C380 C383 1.399 . S
C380 C384 1.383 . S
C380 C387 1.496 . S
C381 C382 1.399 . S
C381 C384 1.389 . S
C382 C381 1.399 . S
C382 C385 1.380 . S
C382 H392 0.929 . S
C383 C380 1.399 . S
C383 C385 1.392 . S
C383 H393 0.929 . S
C384 C380 1.383 . S
C384 C381 1.389 . S
C384 H394 0.931 . S
C385 C382 1.380 . S
C385 C383 1.392 . S
C385 H395 0.929 . S
C386 O366 1.268 . S
C386 O367 1.248 . S
C387 Tb323 2.802 . S
C387 O362 1.264 . S
C387 O365 1.256 . S
C387 C380 1.496 . S
H388 C371 0.929 . S
H389 C372 0.929 . S
H390 C373 0.929 . S
H391 C374 0.931 1_455 S
H392 C382 0.929 . S
H393 C383 0.929 . S
H394 C384 0.931 . S
H395 C385 0.929 . S
Tb396 N425 2.617 . S
Tb396 N431 2.572 . S
Tb396 O440 2.465 . S
Tb396 O441 2.387 . S
Tb396 O443 2.428 . S
Tb396 O444 2.308 . S
Tb396 O448 2.349 1_545 S
Tb396 O451 2.393 . S
Tb396 C460 2.802 . S
C397 N398 1.379 . S
C397 C400 1.416 . S
C397 C404 1.424 . S
N398 C397 1.379 . S
N398 C401 1.334 . S
N398 Tb407 2.617 . S
C399 C401 1.390 . S
C399 C402 1.339 . S
C399 H419 0.930 . S
C400 C397 1.416 . S
C400 C402 1.416 . S
C400 C406 1.448 . S
C401 N398 1.334 . S
C401 C399 1.390 . S
C401 H412 0.930 . S
C402 C399 1.339 . S
C402 C400 1.416 . S
C402 H423 0.930 . S
C403 C404 1.413 . S
C403 C405 1.427 . S
C403 C409 1.416 . S
C404 C397 1.424 . S
C404 C403 1.413 . S
C404 N408 1.361 . S
C405 C403 1.427 . S
C405 C406 1.328 . S
C405 H420 0.929 . S
C406 C400 1.448 . S
C406 C405 1.328 . S
C406 H421 0.930 . S
Tb407 N398 2.617 . S
Tb407 N408 2.572 . S
Tb407 O442 2.349 1_565 S
Tb407 O445 2.393 . S
Tb407 O446 2.465 . S
Tb407 O447 2.387 . S
Tb407 O449 2.428 . S
Tb407 O450 2.308 1_565 S
Tb407 C471 2.802 . S
N408 C404 1.361 . S
N408 Tb407 2.572 . S
N408 C410 1.340 . S
C409 C403 1.416 . S
C409 C411 1.332 . S
C409 H417 0.931 . S
C410 N408 1.340 . S
C410 C411 1.407 . S
C410 H416 0.930 . S
C411 C409 1.332 . S
C411 C410 1.407 . S
C411 H413 0.929 . S
H412 C401 0.930 . S
H413 C411 0.929 . S
H414 C429 0.930 . S
H415 C436 0.929 . S
H416 C410 0.930 . S
H417 C409 0.931 . S
H418 C432 0.930 . S
H419 C399 0.930 . S
H420 C405 0.929 . S
H421 C406 0.930 . S
H422 C427 0.930 . S
H423 C402 0.930 . S
H424 C435 0.931 . S
N425 Tb396 2.617 . S
N425 C426 1.379 . S
N425 C429 1.334 . S
C426 N425 1.379 . S
C426 C428 1.416 . S
C426 C434 1.424 . S
C427 H422 0.930 . S
C427 C429 1.390 . S
C427 C430 1.339 . S
C428 C426 1.416 . S
C428 C430 1.416 . S
C428 C461 1.448 . S
C429 H414 0.930 . S
C429 N425 1.334 . S
C429 C427 1.390 . S
C430 C427 1.339 . S
C430 C428 1.416 . S
C430 H437 0.930 . S
N431 Tb396 2.572 . S
N431 C432 1.340 . S
N431 C434 1.361 . S
C432 H418 0.930 . S
C432 N431 1.340 . S
C432 C436 1.407 . S
C433 C434 1.413 . S
C433 C435 1.416 . S
C433 C462 1.427 . S
C434 C426 1.424 . S
C434 N431 1.361 . S
C434 C433 1.413 . S
C435 H424 0.931 . S
C435 C433 1.416 . S
C435 C436 1.332 . S
C436 H415 0.929 . S
C436 C432 1.407 . S
C436 C435 1.332 . S
H437 C430 0.930 . S
H438 C461 0.930 . S
H439 C462 0.929 . S
O440 Tb396 2.465 . S
O440 C460 1.264 . S
O441 Tb396 2.387 . S
O441 C452 1.264 . S
O442 Tb407 2.349 1_545 S
O442 C452 1.243 . S
O443 Tb396 2.428 . S
O443 C460 1.256 . S
O444 Tb396 2.308 . S
O444 C459 1.266 1_545 S
O445 Tb407 2.393 . S
O445 C459 1.248 . S
O446 Tb407 2.465 . S
O446 C471 1.264 . S
O447 Tb407 2.387 . S
O447 C463 1.264 . S
O448 Tb396 2.349 1_565 S
O448 C463 1.243 . S
O449 Tb407 2.428 . S
O449 C471 1.256 . S
O450 Tb407 2.308 1_545 S
O450 C470 1.266 . S
O451 Tb396 2.393 . S
O451 C470 1.248 . S
C452 O441 1.264 . S
C452 O442 1.243 . S
C453 C456 1.399 1_556 S
C453 C458 1.383 . S
C453 C460 1.496 . S
C454 C455 1.399 1_556 S
C454 C458 1.389 . S
C455 C454 1.399 1_554 S
C455 C457 1.380 . S
C455 H472 0.929 . S
C456 C453 1.399 1_554 S
C456 C457 1.392 . S
C456 H473 0.929 . S
C457 C455 1.380 . S
C457 C456 1.392 . S
C457 H474 0.929 . S
C458 C453 1.383 . S
C458 C454 1.389 . S
C458 H475 0.931 . S
C459 O444 1.266 1_565 S
C459 O445 1.248 . S
C460 Tb396 2.802 . S
C460 O440 1.264 . S
C460 O443 1.256 . S
C460 C453 1.496 . S
C461 C428 1.448 . S
C461 H438 0.930 . S
C461 C462 1.328 . S
C462 C433 1.427 . S
C462 H439 0.929 . S
C462 C461 1.328 . S
C463 O447 1.264 . S
C463 O448 1.243 . S
C464 C467 1.399 . S
C464 C468 1.383 . S
C464 C471 1.496 . S
C465 C466 1.399 . S
C465 C468 1.389 . S
C466 C465 1.399 . S
C466 C469 1.380 . S
C466 H476 0.929 . S
C467 C464 1.399 . S
C467 C469 1.392 . S
C467 H477 0.929 . S
C468 C464 1.383 . S
C468 C465 1.389 . S
C468 H478 0.945 . S
C469 C466 1.380 . S
C469 C467 1.392 . S
C469 H479 0.929 . S
C470 O450 1.266 . S
C470 O451 1.248 . S
C471 Tb407 2.802 . S
C471 O446 1.264 . S
C471 O449 1.256 . S
C471 C464 1.496 . S
H472 C455 0.929 . S
H473 C456 0.929 . S
H474 C457 0.929 . S
H475 C458 0.931 . S
H476 C466 0.929 . S
H477 C467 0.929 . S
H478 C468 0.945 . S
H479 C469 0.929 . S
Tb480 N509 2.617 . S
Tb480 N515 2.572 . S
Tb480 O524 2.465 . S
Tb480 O525 2.387 . S
Tb480 O527 2.428 . S
Tb480 O528 2.308 . S
Tb480 O532 2.349 . S
Tb480 O535 2.393 . S
Tb480 C544 2.802 . S
C481 N482 1.379 . S
C481 C484 1.416 . S
C481 C488 1.424 . S
N482 C481 1.379 . S
N482 C485 1.334 . S
N482 Tb491 2.617 . S
C483 C485 1.390 . S
C483 C486 1.339 . S
C483 H503 0.930 . S
C484 C481 1.416 . S
C484 C486 1.416 . S
C484 C490 1.448 . S
C485 N482 1.334 . S
C485 C483 1.390 . S
C485 H496 0.930 . S
C486 C483 1.339 . S
C486 C484 1.416 . S
C486 H507 0.930 . S
C487 C488 1.413 . S
C487 C489 1.427 1_556 S
C487 C493 1.416 1_556 S
C488 C481 1.424 . S
C488 C487 1.413 . S
C488 N492 1.361 . S
C489 C487 1.427 1_554 S
C489 C490 1.328 1_554 S
C489 H504 0.929 . S
C490 C484 1.448 . S
C490 C489 1.328 1_556 S
C490 H505 0.930 . S
Tb491 N482 2.617 . S
Tb491 N492 2.572 . S
Tb491 O526 2.349 . S
Tb491 O529 2.393 . S
Tb491 O530 2.465 . S
Tb491 O531 2.387 . S
Tb491 O533 2.428 . S
Tb491 O534 2.308 . S
Tb491 C555 2.802 . S
N492 C488 1.361 . S
N492 Tb491 2.572 . S
N492 C494 1.340 . S
C493 C487 1.416 1_554 S
C493 C495 1.332 . S
C493 H501 0.931 . S
C494 N492 1.340 . S
C494 C495 1.407 1_556 S
C494 H500 0.930 . S
C495 C493 1.332 . S
C495 C494 1.407 1_554 S
C495 H497 0.929 . S
H496 C485 0.930 . S
H497 C495 0.929 . S
H498 C513 0.930 . S
H499 C520 0.929 . S
H500 C494 0.930 . S
H501 C493 0.931 . S
H502 C516 0.930 . S
H503 C483 0.930 . S
H504 C489 0.929 . S
H505 C490 0.930 . S
H506 C511 0.930 . S
H507 C486 0.930 . S
H508 C519 0.931 . S
N509 Tb480 2.617 . S
N509 C510 1.379 . S
N509 C513 1.334 . S
C510 N509 1.379 . S
C510 C512 1.416 . S
C510 C518 1.424 . S
C511 H506 0.930 . S
C511 C513 1.390 . S
C511 C514 1.339 . S
C512 C510 1.416 . S
C512 C514 1.416 . S
C512 C545 1.448 . S
C513 H498 0.930 . S
C513 N509 1.334 . S
C513 C511 1.390 . S
C514 C511 1.339 . S
C514 C512 1.416 . S
C514 H521 0.930 . S
N515 Tb480 2.572 . S
N515 C516 1.340 . S
N515 C518 1.361 . S
C516 H502 0.930 . S
C516 N515 1.340 . S
C516 C520 1.407 . S
C517 C518 1.413 . S
C517 C519 1.416 . S
C517 C546 1.427 . S
C518 C510 1.424 . S
C518 N515 1.361 . S
C518 C517 1.413 . S
C519 H508 0.931 . S
C519 C517 1.416 . S
C519 C520 1.332 . S
C520 H499 0.929 . S
C520 C516 1.407 . S
C520 C519 1.332 . S
H521 C514 0.930 . S
H522 C545 0.930 . S
H523 C546 0.929 . S
O524 Tb480 2.465 . S
O524 C544 1.264 . S
O525 Tb480 2.387 . S
O525 C536 1.264 . S
O526 Tb491 2.349 . S
O526 C536 1.243 . S
O527 Tb480 2.428 . S
O527 C544 1.256 . S
O528 Tb480 2.308 . S
O528 C543 1.266 . S
O529 Tb491 2.393 . S
O529 C543 1.248 . S
O530 Tb491 2.465 . S
O530 C555 1.264 . S
O531 Tb491 2.387 . S
O531 C547 1.264 . S
O532 Tb480 2.349 . S
O532 C547 1.243 . S
O533 Tb491 2.428 . S
O533 C555 1.256 . S
O534 Tb491 2.308 . S
O534 C554 1.266 . S
O535 Tb480 2.393 . S
O535 C554 1.248 . S
C536 O525 1.264 . S
C536 O526 1.243 . S
C537 C540 1.399 . S
C537 C542 1.383 . S
C537 C544 1.496 . S
C538 C539 1.399 . S
C538 C542 1.389 . S
C539 C538 1.399 . S
C539 C541 1.380 . S
C539 H556 0.929 . S
C540 C537 1.399 . S
C540 C541 1.392 . S
C540 H557 0.929 . S
C541 C539 1.380 . S
C541 C540 1.392 . S
C541 H558 0.929 . S
C542 C537 1.383 . S
C542 C538 1.389 . S
C542 H559 0.931 . S
C543 O528 1.266 . S
C543 O529 1.248 . S
C544 Tb480 2.802 . S
C544 O524 1.264 . S
C544 O527 1.256 . S
C544 C537 1.496 . S
C545 C512 1.448 . S
C545 H522 0.930 . S
C545 C546 1.328 . S
C546 C517 1.427 . S
C546 H523 0.929 . S
C546 C545 1.328 . S
C547 O531 1.264 . S
C547 O532 1.243 . S
C548 C551 1.399 . S
C548 C552 1.383 . S
C548 C555 1.496 . S
C549 C550 1.399 . S
C549 C552 1.389 . S
C550 C549 1.399 . S
C550 C553 1.380 . S
C550 H560 0.929 . S
C551 C548 1.399 . S
C551 C553 1.392 . S
C551 H561 0.929 . S
C552 C548 1.383 . S
C552 C549 1.389 . S
C552 H562 0.931 . S
C553 C550 1.380 . S
C553 C551 1.392 . S
C553 H563 0.929 . S
C554 O534 1.266 . S
C554 O535 1.248 . S
C555 Tb491 2.802 . S
C555 O530 1.264 . S
C555 O533 1.256 . S
C555 C548 1.496 . S
H556 C539 0.929 . S
H557 C540 0.929 . S
H558 C541 0.929 . S
H559 C542 0.931 . S
H560 C550 0.929 . S
H561 C551 0.929 . S
H562 C552 0.931 . S
H563 C553 0.929 . S
Tb564 N593 2.617 . S
Tb564 N599 2.572 . S
Tb564 O608 2.465 . S
Tb564 O609 2.387 1_455 S
Tb564 O611 2.428 . S
Tb564 O612 2.308 . S
Tb564 O616 2.349 . S
Tb564 O619 2.393 . S
Tb564 C628 2.802 . S
C565 N566 1.379 1_455 S
C565 C568 1.416 . S
C565 C572 1.424 . S
N566 C565 1.379 1_655 S
N566 C569 1.334 . S
N566 Tb575 2.617 . S
C567 C569 1.390 1_455 S
C567 C570 1.339 . S
C567 H587 0.930 . S
C568 C565 1.416 . S
C568 C570 1.416 . S
C568 C574 1.448 . S
C569 N566 1.334 . S
C569 C567 1.390 1_655 S
C569 H580 0.930 . S
C570 C567 1.339 . S
C570 C568 1.416 . S
C570 H591 0.930 . S
C571 C572 1.413 . S
C571 C573 1.427 1_556 S
C571 C577 1.416 1_556 S
C572 C565 1.424 . S
C572 C571 1.413 . S
C572 N576 1.361 . S
C573 C571 1.427 1_554 S
C573 C574 1.328 1_554 S
C573 H588 0.929 . S
C574 C568 1.448 . S
C574 C573 1.328 1_556 S
C574 H589 0.930 . S
Tb575 N566 2.617 . S
Tb575 N576 2.572 1_655 S
Tb575 O610 2.349 . S
Tb575 O613 2.393 . S
Tb575 O614 2.465 . S
Tb575 O615 2.387 1_655 S
Tb575 O617 2.428 . S
Tb575 O618 2.308 . S
Tb575 C639 2.802 . S
N576 C572 1.361 . S
N576 Tb575 2.572 1_455 S
N576 C578 1.340 . S
C577 C571 1.416 1_554 S
C577 C579 1.332 . S
C577 H585 0.931 . S
C578 N576 1.340 . S
C578 C579 1.407 1_556 S
C578 H584 0.929 1_455 S
C579 C577 1.332 . S
C579 C578 1.407 1_554 S
C579 H581 0.929 . S
H580 C569 0.930 . S
H581 C579 0.929 . S
H582 C597 0.930 . S
H583 C604 0.929 . S
H584 C578 0.929 1_655 S
H585 C577 0.931 . S
H586 C600 0.930 . S
H587 C567 0.930 . S
H588 C573 0.929 . S
H589 C574 0.930 . S
H590 C595 0.930 . S
H591 C570 0.930 . S
H592 C603 0.931 . S
N593 Tb564 2.617 . S
N593 C594 1.370 1_455 S
N593 C597 1.334 . S
C594 N593 1.370 1_655 S
C594 C596 1.423 . S
C594 C602 1.426 . S
C595 H590 0.930 . S
C595 C597 1.390 . S
C595 C598 1.339 1_455 S
C596 C594 1.423 . S
C596 C598 1.416 . S
C596 C629 1.448 . S
C597 H582 0.930 . S
C597 N593 1.334 . S
C597 C595 1.390 . S
C598 C595 1.339 1_655 S
C598 C596 1.416 . S
C598 H605 0.930 . S
N599 Tb564 2.572 . S
N599 C600 1.340 . S
N599 C602 1.361 1_455 S
C600 H586 0.930 . S
C600 N599 1.340 . S
C600 C604 1.407 1_455 S
C601 C602 1.413 . S
C601 C603 1.416 . S
C601 C630 1.427 . S
C602 C594 1.426 . S
C602 N599 1.361 1_655 S
C602 C601 1.413 . S
C603 H592 0.931 . S
C603 C601 1.416 . S
C603 C604 1.332 . S
C604 H583 0.929 . S
C604 C600 1.407 1_655 S
C604 C603 1.332 . S
H605 C598 0.930 . S
H606 C629 0.930 . S
H607 C630 0.929 . S
O608 Tb564 2.465 . S
O608 C628 1.264 . S
O609 Tb564 2.387 1_655 S
O609 C620 1.264 . S
O610 Tb575 2.349 . S
O610 C620 1.243 . S
O611 Tb564 2.428 . S
O611 C628 1.256 . S
O612 Tb564 2.308 . S
O612 C627 1.266 . S
O613 Tb575 2.393 . S
O613 C627 1.248 1_655 S
O614 Tb575 2.465 . S
O614 C639 1.264 . S
O615 Tb575 2.387 1_455 S
O615 C631 1.264 . S
O616 Tb564 2.349 . S
O616 C631 1.243 . S
O617 Tb575 2.428 . S
O617 C639 1.256 . S
O618 Tb575 2.308 . S
O618 C638 1.266 1_655 S
O619 Tb564 2.393 . S
O619 C638 1.248 . S
C620 O609 1.264 . S
C620 O610 1.243 . S
C621 C624 1.399 . S
C621 C626 1.383 . S
C621 C628 1.496 . S
C622 C623 1.399 . S
C622 C626 1.389 . S
C623 C622 1.399 . S
C623 C625 1.380 . S
C623 H640 0.929 . S
C624 C621 1.399 . S
C624 C625 1.392 . S
C624 H641 0.929 . S
C625 C623 1.380 . S
C625 C624 1.392 . S
C625 H642 0.929 . S
C626 C621 1.383 . S
C626 C622 1.389 . S
C626 H643 0.931 . S
C627 O612 1.266 . S
C627 O613 1.248 1_455 S
C628 Tb564 2.802 . S
C628 O608 1.264 . S
C628 O611 1.256 . S
C628 C621 1.496 . S
C629 C596 1.448 . S
C629 H606 0.930 . S
C629 C630 1.328 . S
C630 C601 1.427 . S
C630 H607 0.929 . S
C630 C629 1.328 . S
C631 O615 1.264 . S
C631 O616 1.243 . S
C632 C635 1.399 . S
C632 C636 1.383 . S
C632 C639 1.496 . S
C633 C634 1.399 . S
C633 C636 1.389 . S
C634 C633 1.399 . S
C634 C637 1.380 . S
C634 H644 0.929 . S
C635 C632 1.399 . S
C635 C637 1.392 . S
C635 H645 0.929 . S
C636 C632 1.383 . S
C636 C633 1.389 . S
C636 H646 0.931 . S
C637 C634 1.380 . S
C637 C635 1.392 . S
C637 H647 0.929 . S
C638 O618 1.266 1_455 S
C638 O619 1.248 . S
C639 Tb575 2.802 . S
C639 O614 1.264 . S
C639 O617 1.256 . S
C639 C632 1.496 . S
H640 C623 0.929 . S
H641 C624 0.929 . S
H642 C625 0.929 . S
H643 C626 0.931 . S
H644 C634 0.929 . S
H645 C635 0.929 . S
H646 C636 0.931 . S
H647 C637 0.929 . S
C648 C649 1.363 . S
C648 C654 1.379 . S
C648 N656 1.356 1_545 S
C649 C648 1.363 . S
C649 C655 1.363 . S
C650 C651 1.363 . S
C650 C655 1.379 . S
C650 N657 1.356 . S
C651 C650 1.363 . S
C651 C654 1.363 . S
N652 C654 1.356 1_565 S
N652 H664 0.984 . S
N652 H665 0.985 . S
N653 C655 1.356 . S
N653 H658 0.984 . S
N653 H659 0.985 . S
C654 C648 1.379 . S
C654 C651 1.363 . S
C654 N652 1.356 1_545 S
C655 C649 1.363 . S
C655 C650 1.379 . S
C655 N653 1.356 . S
N656 C648 1.356 1_565 S
N656 H662 0.984 . S
N656 H663 0.984 1_565 S
N657 C650 1.356 . S
N657 H660 0.984 . S
N657 H661 0.985 . S
H658 N653 0.984 . S
H659 N653 0.985 . S
H660 N657 0.984 . S
H661 N657 0.985 . S
H662 N656 0.984 . S
H663 N656 0.984 1_545 S
H664 N652 0.984 . S
H665 N652 0.985 . S
C666 C667 1.363 . S
C666 C672 1.379 . S
C666 N674 1.356 . S
C667 C666 1.363 . S
C667 C673 1.363 . S
C668 C669 1.363 . S
C668 C673 1.379 . S
C668 N675 1.356 . S
C669 C668 1.363 . S
C669 C672 1.363 . S
N670 C672 1.356 . S
N670 H682 0.984 . S
N670 H683 0.985 . S
N671 C673 1.356 . S
N671 H676 0.984 . S
N671 H677 0.985 . S
C672 C666 1.379 . S
C672 C669 1.363 . S
C672 N670 1.356 . S
C673 C667 1.363 . S
C673 C668 1.379 . S
C673 N671 1.356 . S
N674 C666 1.356 . S
N674 H680 0.984 . S
N674 H681 0.984 . S
N675 C668 1.356 . S
N675 H678 0.984 . S
N675 H679 0.985 . S
H676 N671 0.984 . S
H677 N671 0.985 . S
H678 N675 0.984 . S
H679 N675 0.985 . S
H680 N674 0.984 . S
H681 N674 0.984 . S
H682 N670 0.984 . S
H683 N670 0.985 . S
C684 C685 1.363 . S
C684 C690 1.379 . S
C684 N692 1.356 . S
C685 C684 1.363 . S
C685 C691 1.363 . S
C686 C687 1.363 . S
C686 C691 1.379 . S
C686 N693 1.356 . S
C687 C686 1.363 . S
C687 C690 1.363 . S
N688 C690 1.356 . S
N688 H700 0.984 . S
N688 H701 0.985 . S
N689 C691 1.356 . S
N689 H694 0.984 . S
N689 H695 0.985 . S
C690 C684 1.379 . S
C690 C687 1.363 . S
C690 N688 1.356 . S
C691 C685 1.363 . S
C691 C686 1.379 . S
C691 N689 1.356 . S
N692 C684 1.356 . S
N692 H698 0.984 . S
N692 H699 0.984 . S
N693 C686 1.356 . S
N693 H696 0.984 . S
N693 H697 0.985 . S
H694 N689 0.984 . S
H695 N689 0.985 . S
H696 N693 0.984 . S
H697 N693 0.985 . S
H698 N692 0.984 . S
H699 N692 0.984 . S
H700 N688 0.984 . S
H701 N688 0.985 . S
C702 C703 1.363 . S
C702 C708 1.379 . S
C702 N710 1.356 1_455 S
C703 C702 1.363 . S
C703 C709 1.363 . S
C704 C705 1.363 . S
C704 C709 1.379 . S
C704 N711 1.356 . S
C705 C704 1.363 . S
C705 C708 1.363 . S
N706 C708 1.356 1_655 S
N706 H718 0.984 . S
N706 H719 0.985 . S
N707 C709 1.356 . S
N707 H712 0.984 . S
N707 H713 0.985 . S
C708 C702 1.379 . S
C708 C705 1.363 . S
C708 N706 1.356 1_455 S
C709 C703 1.363 . S
C709 C704 1.379 . S
C709 N707 1.356 . S
N710 C702 1.356 1_655 S
N710 H716 0.984 . S
N710 H717 0.984 1_655 S
N711 C704 1.356 . S
N711 H714 0.984 . S
N711 H715 0.985 . S
H712 N707 0.984 . S
H713 N707 0.985 . S
H714 N711 0.984 . S
H715 N711 0.985 . S
H716 N710 0.984 . S
H717 N710 0.984 1_455 S
H718 N706 0.984 . S
H719 N706 0.985 . S
C720 C721 1.363 . S
C720 C726 1.379 1_554 S
C720 N728 1.356 . S
C721 C720 1.363 . S
C721 C727 1.363 1_565 S
C722 C723 1.363 1_545 S
C722 C727 1.379 1_556 S
C722 N729 1.356 . S
C723 C722 1.363 1_565 S
C723 C726 1.363 . S
N724 C726 1.356 . S
N724 H736 0.984 . S
N724 H737 0.985 . S
N725 C727 1.356 . S
N725 H730 0.984 . S
N725 H731 0.985 . S
C726 C720 1.379 1_556 S
C726 C723 1.363 . S
C726 N724 1.356 . S
C727 C721 1.363 1_545 S
C727 C722 1.379 1_554 S
C727 N725 1.356 . S
N728 C720 1.356 . S
N728 H734 0.984 . S
N728 H735 0.984 . S
N729 C722 1.356 . S
N729 H732 0.984 . S
N729 H733 0.985 . S
H730 N725 0.984 . S
H731 N725 0.985 . S
H732 N729 0.984 . S
H733 N729 0.985 . S
H734 N728 0.984 . S
H735 N728 0.984 . S
H736 N724 0.984 . S
H737 N724 0.985 . S
C738 C739 1.363 . S
C738 C744 1.379 1_554 S
C738 N746 1.356 . S
C739 C738 1.363 . S
C739 C745 1.363 . S
C740 C741 1.363 . S
C740 C745 1.379 1_556 S
C740 N747 1.356 . S
C741 C740 1.363 . S
C741 C744 1.363 . S
N742 C744 1.356 . S
N742 H754 0.984 . S
N742 H755 0.985 . S
N743 C745 1.356 . S
N743 H748 0.984 . S
N743 H749 0.985 . S
C744 C738 1.379 1_556 S
C744 C741 1.363 . S
C744 N742 1.356 . S
C745 C739 1.363 . S
C745 C740 1.379 1_554 S
C745 N743 1.356 . S
N746 C738 1.356 . S
N746 H752 0.984 . S
N746 H753 0.984 . S
N747 C740 1.356 . S
N747 H750 0.984 . S
N747 H751 0.985 . S
H748 N743 0.984 . S
H749 N743 0.985 . S
H750 N747 0.984 . S
H751 N747 0.985 . S
H752 N746 0.984 . S
H753 N746 0.984 . S
H754 N742 0.984 . S
H755 N742 0.985 . S
C756 C757 1.363 . S
C756 C762 1.379 1_554 S
C756 N764 1.356 . S
C757 C756 1.363 . S
C757 C763 1.363 . S
C758 C759 1.363 . S
C758 C763 1.379 1_556 S
C758 N765 1.356 . S
C759 C758 1.363 . S
C759 C762 1.363 . S
N760 C762 1.356 . S
N760 H772 0.984 . S
N760 H773 0.985 . S
N761 C763 1.356 . S
N761 H766 0.984 . S
N761 H767 0.985 . S
C762 C756 1.379 1_556 S
C762 C759 1.363 . S
C762 N760 1.356 . S
C763 C757 1.363 . S
C763 C758 1.379 1_554 S
C763 N761 1.356 . S
N764 C756 1.356 . S
N764 H770 0.984 . S
N764 H771 0.984 . S
N765 C758 1.356 . S
N765 H768 0.984 . S
N765 H769 0.985 . S
H766 N761 0.984 . S
H767 N761 0.985 . S
H768 N765 0.984 . S
H769 N765 0.985 . S
H770 N764 0.984 . S
H771 N764 0.984 . S
H772 N760 0.984 . S
H773 N760 0.985 . S
C774 C775 1.363 . S
C774 C780 1.379 1_654 S
C774 N782 1.356 1_655 S
C775 C774 1.363 . S
C775 C781 1.363 . S
C776 C777 1.363 . S
C776 C781 1.379 1_556 S
C776 N783 1.356 . S
C777 C776 1.363 . S
C777 C780 1.363 1_655 S
N778 C780 1.356 . S
N778 H790 0.984 . S
N778 H791 0.985 . S
N779 C781 1.356 . S
N779 H784 0.984 . S
N779 H785 0.985 . S
C780 C774 1.379 1_456 S
C780 C777 1.363 1_455 S
C780 N778 1.356 . S
C781 C775 1.363 . S
C781 C776 1.379 1_554 S
C781 N779 1.356 . S
N782 C774 1.356 1_455 S
N782 H788 0.984 . S
N782 H789 0.981 1_455 S
N783 C776 1.356 . S
N783 H786 0.984 . S
N783 H787 0.985 . S
H784 N779 0.984 . S
H785 N779 0.985 . S
H786 N783 0.984 . S
H787 N783 0.985 . S
H788 N782 0.984 . S
H789 N782 0.981 1_655 S
H790 N778 0.984 . S
H791 N778 0.985 . S
C792 C793 1.363 . S
C792 C798 1.379 . S
C792 N800 1.356 . S
C793 C792 1.363 . S
C793 C799 1.363 . S
C794 C795 1.363 . S
C794 C799 1.379 1_655 S
C794 N801 1.356 . S
C795 C794 1.363 . S
C795 C798 1.363 1_655 S
N796 C798 1.356 . S
N796 H808 0.984 . S
N796 H809 0.995 . S
N797 C799 1.356 . S
N797 H802 0.984 . S
N797 H803 0.985 1_455 S
C798 C792 1.379 . S
C798 C795 1.363 1_455 S
C798 N796 1.356 . S
C799 C793 1.363 . S
C799 C794 1.379 1_455 S
C799 N797 1.356 . S
N800 C792 1.356 . S
N800 H806 0.984 . S
N800 H807 0.984 . S
N801 C794 1.356 . S
N801 H804 0.984 . S
N801 H805 0.985 . S
H802 N797 0.984 . S
H803 N797 0.985 1_655 S
H804 N801 0.984 . S
H805 N801 0.985 . S
H806 N800 0.984 . S
H807 N800 0.984 . S
H808 N796 0.984 . S
H809 N796 0.995 . S
C810 C811 1.363 . S
C810 C816 1.379 1_545 S
C810 N818 1.356 . S
C811 C810 1.363 . S
C811 C817 1.363 . S
C812 C813 1.363 1_545 S
C812 C817 1.379 . S
C812 N819 1.356 . S
C813 C812 1.363 1_565 S
C813 C816 1.363 . S
N814 C816 1.356 . S
N814 H826 0.984 . S
N814 H827 0.985 . S
N815 C817 1.356 . S
N815 H820 0.984 . S
N815 H821 0.985 . S
C816 C810 1.379 1_565 S
C816 C813 1.363 . S
C816 N814 1.356 . S
C817 C811 1.363 . S
C817 C812 1.379 . S
C817 N815 1.356 . S
N818 C810 1.356 . S
N818 H824 0.984 . S
N818 H825 0.984 . S
N819 C812 1.356 . S
N819 H822 0.984 1_545 S
N819 H823 0.985 . S
H820 N815 0.984 . S
H821 N815 0.985 . S
H822 N819 0.984 1_565 S
H823 N819 0.985 . S
H824 N818 0.984 . S
H825 N818 0.984 . S
H826 N814 0.984 . S
H827 N814 0.985 . S
C828 C829 1.363 . S
C828 C834 1.379 . S
C828 N836 1.356 . S
C829 C828 1.363 . S
C829 C835 1.363 . S
C830 C831 1.363 . S
C830 C835 1.379 . S
C830 N837 1.356 . S
C831 C830 1.363 . S
C831 C834 1.363 . S
N832 C834 1.356 . S
N832 H844 0.984 . S
N832 H845 0.985 . S
N833 C835 1.356 . S
N833 H838 0.984 . S
N833 H839 0.985 . S
C834 C828 1.379 . S
C834 C831 1.363 . S
C834 N832 1.356 . S
C835 C829 1.363 . S
C835 C830 1.379 . S
C835 N833 1.356 . S
N836 C828 1.356 . S
N836 H842 0.984 . S
N836 H843 0.984 . S
N837 C830 1.356 . S
N837 H840 0.984 . S
N837 H841 0.985 . S
H838 N833 0.984 . S
H839 N833 0.985 . S
H840 N837 0.984 . S
H841 N837 0.985 . S
H842 N836 0.984 . S
H843 N836 0.984 . S
H844 N832 0.984 . S
H845 N832 0.985 . S
C846 C847 1.363 . S
C846 C852 1.379 . S
C846 N854 1.356 . S
C847 C846 1.363 . S
C847 C853 1.363 . S
C848 C849 1.363 . S
C848 C853 1.379 . S
C848 N855 1.356 . S
C849 C848 1.363 . S
C849 C852 1.363 . S
N850 C852 1.356 . S
N850 H862 0.984 . S
N850 H863 0.985 . S
N851 C853 1.356 . S
N851 H856 0.984 . S
N851 H857 0.985 . S
C852 C846 1.379 . S
C852 C849 1.363 . S
C852 N850 1.356 . S
C853 C847 1.363 . S
C853 C848 1.379 . S
C853 N851 1.356 . S
N854 C846 1.356 . S
N854 H860 0.984 . S
N854 H861 0.984 . S
N855 C848 1.356 . S
N855 H858 0.984 . S
N855 H859 0.985 . S
H856 N851 0.984 . S
H857 N851 0.985 . S
H858 N855 0.984 . S
H859 N855 0.985 . S
H860 N854 0.984 . S
H861 N854 0.984 . S
H862 N850 0.984 . S
H863 N850 0.985 . S
C864 C865 1.363 1_556 S
C864 C870 1.379 . S
C864 N872 1.356 . S
C865 C864 1.363 1_554 S
C865 C871 1.363 1_655 S
C866 C867 1.363 1_554 S
C866 C871 1.379 . S
C866 N873 1.356 . S
C867 C866 1.363 1_556 S
C867 C870 1.363 1_455 S
N868 C870 1.356 . S
N868 H880 0.984 . S
N868 H881 0.985 1_655 S
N869 C871 1.356 . S
N869 H874 0.984 1_455 S
N869 H875 0.985 . S
C870 C864 1.379 . S
C870 C867 1.363 1_655 S
C870 N868 1.356 . S
C871 C865 1.363 1_455 S
C871 C866 1.379 . S
C871 N869 1.356 . S
N872 C864 1.356 . S
N872 H878 0.984 . S
N872 H879 0.984 1_556 S
N873 C866 1.356 . S
N873 H876 0.984 . S
N873 H877 0.985 . S
H874 N869 0.984 1_655 S
H875 N869 0.985 . S
H876 N873 0.984 . S
H877 N873 0.985 . S
H878 N872 0.984 . S
H879 N872 0.984 1_554 S
H880 N868 0.984 . S
H881 N868 0.985 1_455 S
C882 C883 1.363 1_556 S
C882 C888 1.379 1_565 S
C882 N890 1.356 . S
C883 C882 1.363 1_554 S
C883 C889 1.363 . S
C884 C885 1.363 1_554 S
C884 C889 1.379 1_545 S
C884 N891 1.356 . S
C885 C884 1.363 1_556 S
C885 C888 1.363 . S
N886 C888 1.356 . S
N886 H898 0.984 . S
N886 H899 0.985 . S
N887 C889 1.356 . S
N887 H892 0.984 . S
N887 H893 0.985 . S
C888 C882 1.379 1_545 S
C888 C885 1.363 . S
C888 N886 1.356 . S
C889 C883 1.363 . S
C889 C884 1.379 1_565 S
C889 N887 1.356 . S
N890 C882 1.356 . S
N890 H896 0.984 . S
N890 H897 0.984 . S
N891 C884 1.356 . S
N891 H894 0.984 . S
N891 H895 0.985 . S
H892 N887 0.984 . S
H893 N887 0.985 . S
H894 N891 0.984 . S
H895 N891 0.985 . S
H896 N890 0.984 . S
H897 N890 0.984 . S
H898 N886 0.984 . S
H899 N886 0.985 . S
C900 C901 1.363 1_556 S
C900 C906 1.379 . S
C900 N908 1.356 . S
C901 C900 1.363 1_554 S
C901 C907 1.363 . S
C902 C903 1.363 1_554 S
C902 C907 1.379 . S
C902 N909 1.356 . S
C903 C902 1.363 1_556 S
C903 C906 1.363 . S
N904 C906 1.356 . S
N904 H916 0.984 . S
N904 H917 0.985 . S
N905 C907 1.356 . S
N905 H910 0.984 . S
N905 H911 0.985 . S
C906 C900 1.379 . S
C906 C903 1.363 . S
C906 N904 1.356 . S
C907 C901 1.363 . S
C907 C902 1.379 . S
C907 N905 1.356 . S
N908 C900 1.356 . S
N908 H914 0.984 . S
N908 H915 0.984 . S
N909 C902 1.356 . S
N909 H912 0.984 . S
N909 H913 0.985 . S
H910 N905 0.984 . S
H911 N905 0.985 . S
H912 N909 0.984 . S
H913 N909 0.985 . S
H914 N908 0.984 . S
H915 N908 0.984 . S
H916 N904 0.984 . S
H917 N904 0.985 . S
C918 C919 1.363 . S
C918 C924 1.379 . S
C918 N926 1.356 . S
C919 C918 1.363 . S
C919 C925 1.363 1_554 S
C920 C921 1.363 . S
C920 C925 1.379 . S
C920 N927 1.356 . S
C921 C920 1.363 . S
C921 C924 1.363 1_556 S
N922 C924 1.356 . S
N922 H934 0.984 . S
N922 H935 0.985 . S
N923 C925 1.356 . S
N923 H928 0.984 . S
N923 H929 0.985 . S
C924 C918 1.379 . S
C924 C921 1.363 1_554 S
C924 N922 1.356 . S
C925 C919 1.363 1_556 S
C925 C920 1.379 . S
C925 N923 1.356 . S
N926 C918 1.356 . S
N926 H932 0.984 . S
N926 H933 0.984 . S
N927 C920 1.356 . S
N927 H930 0.984 . S
N927 H931 0.985 . S
H928 N923 0.984 . S
H929 N923 0.985 . S
H930 N927 0.984 . S
H931 N927 0.985 . S
H932 N926 0.984 . S
H933 N926 0.984 . S
H934 N922 0.984 . S
H935 N922 0.985 . S
C936 C937 1.363 . S
C936 C942 1.379 . S
C936 N944 1.356 . S
C937 C936 1.363 . S
C937 C943 1.363 . S
C938 C939 1.363 . S
C938 C943 1.379 . S
C938 N945 1.356 1_455 S
C939 C938 1.363 . S
C939 C942 1.363 . S
N940 C942 1.356 . S
N940 H952 0.984 . S
N940 H953 0.985 . S
N941 C943 1.355 . S
N941 H946 0.984 . S
N941 H947 0.987 1_455 S
C942 C936 1.379 . S
C942 C939 1.363 . S
C942 N940 1.356 . S
C943 C937 1.363 . S
C943 C938 1.379 . S
C943 N941 1.355 . S
N944 C936 1.356 . S
N944 H950 0.984 . S
N944 H951 0.984 . S
N945 C938 1.356 1_655 S
N945 H948 0.984 . S
N945 H949 0.985 . S
H946 N941 0.984 . S
H947 N941 0.987 1_655 S
H948 N945 0.984 . S
H949 N945 0.985 . S
H950 N944 0.984 . S
H951 N944 0.984 . S
H952 N940 0.984 . S
H953 N940 0.985 . S
C954 C955 1.363 . S
C954 C960 1.379 . S
C954 N962 1.356 . S
C955 C954 1.363 . S
C955 C961 1.363 . S
C956 C957 1.363 . S
C956 C961 1.379 . S
C956 N963 1.356 1_545 S
C957 C956 1.363 . S
C957 C960 1.363 . S
N958 C960 1.356 . S
N958 H970 0.984 . S
N958 H971 0.985 . S
N959 C961 1.356 1_565 S
N959 H964 0.984 1_565 S
N959 H965 0.985 . S
C960 C954 1.379 . S
C960 C957 1.363 . S
C960 N958 1.356 . S
C961 C955 1.363 . S
C961 C956 1.379 . S
C961 N959 1.356 1_545 S
N962 C954 1.356 . S
N962 H968 0.984 . S
N962 H969 0.984 . S
N963 C956 1.356 1_565 S
N963 H966 0.984 . S
N963 H967 0.985 . S
H964 N959 0.984 1_545 S
H965 N959 0.985 . S
H966 N963 0.984 . S
H967 N963 0.985 . S
H968 N962 0.984 . S
H969 N962 0.984 . S
H970 N958 0.984 . S
H971 N958 0.985 . S
C972 C973 1.363 . S
C972 C978 1.379 . S
C972 N980 1.356 . S
C973 C972 1.363 . S
C973 C979 1.363 . S
C974 C975 1.363 . S
C974 C979 1.379 . S
C974 N981 1.356 . S
C975 C974 1.363 . S
C975 C978 1.363 . S
N976 C978 1.356 . S
N976 H988 0.984 . S
N976 H989 0.985 . S
N977 C979 1.356 . S
N977 H982 0.984 . S
N977 H983 0.985 . S
C978 C972 1.379 . S
C978 C975 1.363 . S
C978 N976 1.356 . S
C979 C973 1.363 . S
C979 C974 1.379 . S
C979 N977 1.356 . S
N980 C972 1.356 . S
N980 H986 0.984 . S
N980 H987 0.984 . S
N981 C974 1.356 . S
N981 H984 0.984 . S
N981 H985 0.985 . S
H982 N977 0.984 . S
H983 N977 0.985 . S
H984 N981 0.984 . S
H985 N981 0.985 . S
H986 N980 0.984 . S
H987 N980 0.984 . S
H988 N976 0.984 . S
H989 N976 0.985 . S
C990 C991 1.363 . S
C990 C996 1.379 . S
C990 N998 1.356 . S
C991 C990 1.363 . S
C991 C997 1.363 . S
C992 C993 1.363 . S
C992 C997 1.379 . S
C992 N999 1.356 . S
C993 C992 1.363 . S
C993 C996 1.363 . S
N994 C996 1.356 . S
N994 H1006 0.984 . S
N994 H1007 0.985 . S
N995 C997 1.356 . S
N995 H1000 0.984 . S
N995 H1001 0.985 . S
C996 C990 1.379 . S
C996 C993 1.363 . S
C996 N994 1.356 . S
C997 C991 1.363 . S
C997 C992 1.379 . S
C997 N995 1.356 . S
N998 C990 1.356 . S
N998 H1004 0.984 . S
N998 H1005 0.984 . S
N999 C992 1.356 . S
N999 H1002 0.984 . S
N999 H1003 0.985 . S
H1000 N995 0.984 . S
H1001 N995 0.985 . S
H1002 N999 0.984 . S
H1003 N999 0.985 . S
H1004 N998 0.984 . S
H1005 N998 0.984 . S
H1006 N994 0.984 . S
H1007 N994 0.985 . S
C1008 C1009 1.363 . S
C1008 C1014 1.382 . S
C1008 N1016 1.356 1_655 S
C1009 C1008 1.363 . S
C1009 C1015 1.363 . S
C1010 C1011 1.363 . S
C1010 C1015 1.379 . S
C1010 N1017 1.356 . S
C1011 C1010 1.363 . S
C1011 C1014 1.382 . S
N1012 C1014 1.339 1_455 S
N1012 H1024 0.984 . S
N1012 H1025 0.985 . S
N1013 C1015 1.356 . S
N1013 H1018 0.984 . S
N1013 H1019 0.985 . S
C1014 C1008 1.382 . S
C1014 C1011 1.382 . S
C1014 N1012 1.339 1_655 S
C1015 C1009 1.363 . S
C1015 C1010 1.379 . S
C1015 N1013 1.356 . S
N1016 C1008 1.356 1_455 S
N1016 H1022 0.984 . S
N1016 H1023 0.984 . S
N1017 C1010 1.356 . S
N1017 H1020 0.984 . S
N1017 H1021 0.985 . S
H1018 N1013 0.984 . S
H1019 N1013 0.985 . S
H1020 N1017 0.984 . S
H1021 N1017 0.985 . S
H1022 N1016 0.984 . S
H1023 N1016 0.984 . S
H1024 N1012 0.984 . S
H1025 N1012 0.985 . S
C1026 C1027 1.378 . S
C1026 C1032 1.377 1_565 S
C1026 N1034 1.347 1_565 S
C1027 C1026 1.378 . S
C1027 C1033 1.363 . S
C1028 C1029 1.363 . S
C1028 C1033 1.379 . S
C1028 N1035 1.356 . S
C1029 C1028 1.363 . S
C1029 C1032 1.363 1_565 S
N1030 C1032 1.356 . S
N1030 H1042 0.984 . S
N1030 H1043 0.985 . S
N1031 C1033 1.356 . S
N1031 H1036 0.984 . S
N1031 H1037 0.985 . S
C1032 C1026 1.377 1_545 S
C1032 C1029 1.363 1_545 S
C1032 N1030 1.356 . S
C1033 C1027 1.363 . S
C1033 C1028 1.379 . S
C1033 N1031 1.356 . S
N1034 C1026 1.347 1_545 S
N1034 H1040 0.984 . S
N1034 H1041 0.984 . S
N1035 C1028 1.356 . S
N1035 H1038 0.984 . S
N1035 H1039 0.985 . S
H1036 N1031 0.984 . S
H1037 N1031 0.985 . S
H1038 N1035 0.984 . S
H1039 N1035 0.985 . S
H1040 N1034 0.984 . S
H1041 N1034 0.984 . S
H1042 N1030 0.984 . S
H1043 N1030 0.985 . S
C1044 C1045 1.363 . S
C1044 C1050 1.379 . S
C1044 N1052 1.356 . S
C1045 C1044 1.363 . S
C1045 C1051 1.363 . S
C1046 C1047 1.363 . S
C1046 C1051 1.379 . S
C1046 N1053 1.356 . S
C1047 C1046 1.363 . S
C1047 C1050 1.363 . S
N1048 C1050 1.356 . S
N1048 H1060 0.984 . S
N1048 H1061 0.985 . S
N1049 C1051 1.356 . S
N1049 H1054 0.984 . S
N1049 H1055 0.985 . S
C1050 C1044 1.379 . S
C1050 C1047 1.363 . S
C1050 N1048 1.356 . S
C1051 C1045 1.363 . S
C1051 C1046 1.379 . S
C1051 N1049 1.356 . S
N1052 C1044 1.356 . S
N1052 H1058 0.984 . S
N1052 H1059 0.984 . S
N1053 C1046 1.356 . S
N1053 H1056 0.984 . S
N1053 H1057 0.985 . S
H1054 N1049 0.984 . S
H1055 N1049 0.985 . S
H1056 N1053 0.984 . S
H1057 N1053 0.985 . S
H1058 N1052 0.984 . S
H1059 N1052 0.984 . S
H1060 N1048 0.984 . S
H1061 N1048 0.985 . S
C1062 C1063 1.363 . S
C1062 C1068 1.379 . S
C1062 N1070 1.356 . S
C1063 C1062 1.363 . S
C1063 C1069 1.363 . S
C1064 C1065 1.363 . S
C1064 C1069 1.379 . S
C1064 N1071 1.356 . S
C1065 C1064 1.363 . S
C1065 C1068 1.363 . S
N1066 C1068 1.356 . S
N1066 H1078 0.984 . S
N1066 H1079 0.985 . S
N1067 C1069 1.356 . S
N1067 H1072 0.984 . S
N1067 H1073 0.985 . S
C1068 C1062 1.379 . S
C1068 C1065 1.363 . S
C1068 N1066 1.356 . S
C1069 C1063 1.363 . S
C1069 C1064 1.379 . S
C1069 N1067 1.356 . S
N1070 C1062 1.356 . S
N1070 H1076 0.984 . S
N1070 H1077 0.984 . S
N1071 C1064 1.356 . S
N1071 H1074 0.984 . S
N1071 H1075 0.985 . S
H1072 N1067 0.984 . S
H1073 N1067 0.985 . S
H1074 N1071 0.984 . S
H1075 N1071 0.985 . S
H1076 N1070 0.984 . S
H1077 N1070 0.984 . S
H1078 N1066 0.984 . S
H1079 N1066 0.985 . S
C649 C255 2.588 . S
C651 C375 2.847 . S
C669 C452 2.851 . S
C667 C294 2.582 . S
C687 C543 2.853 . S
C685 C177 2.594 . S
C705 C627 2.835 . S
C703 C216 2.579 . S
C723 C386 2.846 1_565 S
C721 C99 2.597 . S
C739 C138 2.574 . S
C741 C463 2.851 . S
C757 C21 2.601 . S
C759 C554 2.853 . S
C775 C60 2.587 . S
C777 C638 2.835 1_655 S
C795 C370 0.766 . S
C793 C196 0.762 . S
C813 C465 0.760 . S
C811 C235 0.758 . S
C831 C538 0.782 . S
C829 C289 0.773 . S
C847 C157 0.758 . S
C849 C622 0.761 . S
C865 C40 0.762 . S
C867 C381 0.766 . S
C885 C454 0.760 . S
C883 C79 0.758 . S
C903 C549 0.782 . S
C901 C133 0.774 . S
C919 C1 0.758 . S
C921 C633 0.761 . S
C937 C211 2.903 . S
C939 C379 3.307 . S
C955 C250 2.900 . S
C957 C470 3.407 . S
C975 C547 3.329 . S
C973 C274 2.930 . S
C993 C631 3.324 . S
C991 C172 2.919 . S
C1009 C55 2.901 . S
C1011 C368 3.307 . S
C1029 C459 3.407 . S
C1027 C94 2.898 . S
C1047 C536 3.329 . S
C1045 C118 2.927 . S
C1063 C16 2.917 . S
C1065 C620 3.324 . S
