# Generated by pormake.
# Topology csq, (4,8)-cn, num edge types: 1
# Building blocks:
#     Node 0, Type 0, BuildingBlock: GIZVER_clean_linker_0, # of connection points: 4
#     Node 1, Type 0, BuildingBlock: GIZVER_clean_linker_0, # of connection points: 4
#     Node 2, Type 0, BuildingBlock: GIZVER_clean_linker_0, # of connection points: 4
#     Node 3, Type 0, BuildingBlock: GIZVER_clean_linker_0, # of connection points: 4
#     Node 4, Type 0, BuildingBlock: GIZVER_clean_linker_0, # of connection points: 4
#     Node 5, Type 0, BuildingBlock: GIZVER_clean_linker_0, # of connection points: 4
#     Node 6, Type 1, BuildingBlock: TAGTUT_clean_sbu_1, # of connection points: 8
#     Node 7, Type 1, BuildingBlock: TAGTUT_clean_sbu_1, # of connection points: 8
#     Node 8, Type 1, BuildingBlock: TAGTUT_clean_sbu_1, # of connection points: 8
#     Edge 9, Type (0, 1), BuildingBlock: XIVTED_clean_linker_0, # of connection points: 2
#     Edge 10, Type (0, 1), BuildingBlock: XIVTED_clean_linker_0, # of connection points: 2
#     Edge 11, Type (0, 1), BuildingBlock: XIVTED_clean_linker_0, # of connection points: 2
#     Edge 12, Type (0, 1), BuildingBlock: XIVTED_clean_linker_0, # of connection points: 2
#     Edge 13, Type (0, 1), BuildingBlock: XIVTED_clean_linker_0, # of connection points: 2
#     Edge 14, Type (0, 1), BuildingBlock: XIVTED_clean_linker_0, # of connection points: 2
#     Edge 15, Type (0, 1), BuildingBlock: XIVTED_clean_linker_0, # of connection points: 2
#     Edge 16, Type (0, 1), BuildingBlock: XIVTED_clean_linker_0, # of connection points: 2
#     Edge 17, Type (0, 1), BuildingBlock: XIVTED_clean_linker_0, # of connection points: 2
#     Edge 18, Type (0, 1), BuildingBlock: XIVTED_clean_linker_0, # of connection points: 2
#     Edge 19, Type (0, 1), BuildingBlock: XIVTED_clean_linker_0, # of connection points: 2
#     Edge 20, Type (0, 1), BuildingBlock: XIVTED_clean_linker_0, # of connection points: 2
#     Edge 21, Type (0, 1), BuildingBlock: XIVTED_clean_linker_0, # of connection points: 2
#     Edge 22, Type (0, 1), BuildingBlock: XIVTED_clean_linker_0, # of connection points: 2
#     Edge 23, Type (0, 1), BuildingBlock: XIVTED_clean_linker_0, # of connection points: 2
#     Edge 24, Type (0, 1), BuildingBlock: XIVTED_clean_linker_0, # of connection points: 2
#     Edge 25, Type (0, 1), BuildingBlock: XIVTED_clean_linker_0, # of connection points: 2
#     Edge 26, Type (0, 1), BuildingBlock: XIVTED_clean_linker_0, # of connection points: 2
#     Edge 27, Type (0, 1), BuildingBlock: XIVTED_clean_linker_0, # of connection points: 2
#     Edge 28, Type (0, 1), BuildingBlock: XIVTED_clean_linker_0, # of connection points: 2
#     Edge 29, Type (0, 1), BuildingBlock: XIVTED_clean_linker_0, # of connection points: 2
#     Edge 30, Type (0, 1), BuildingBlock: XIVTED_clean_linker_0, # of connection points: 2
#     Edge 31, Type (0, 1), BuildingBlock: XIVTED_clean_linker_0, # of connection points: 2
#     Edge 32, Type (0, 1), BuildingBlock: XIVTED_clean_linker_0, # of connection points: 2
# Relax obj value: 0.046
# Max RMSD: 0.134
# Mean RMSD: 0.097
data_MOF--net-csq--node1-TAGTUT_clean_sbu_1--node2-GIZVER_clean_linker_0--edge1-XIVTED_clean_linker_0
_symmetry_space_group_name_H-M    P1
_symmetry_Int_Tables_number       1
_symmetry_cell_setting            triclinic
loop_
_symmetry_equiv_pos_as_xyz
'x, y, z'
_cell_length_a     54.213142
_cell_length_b     54.000626
_cell_length_c     18.905609
_cell_angle_alpha  93.375823
_cell_angle_beta   91.524448
_cell_angle_gamma 119.8457
loop_
_atom_site_label
_atom_site_type_symbol
_atom_site_fract_x
_atom_site_fract_y
_atom_site_fract_z
_atom_type_partial_charge
H0 H 0.25996 0.54312 0.04886 0.0
H1 H 0.25545 0.54369 0.27606 0.0
H2 H 0.17856 0.50211 0.13918 0.0
H3 H 0.30117 0.57767 0.12878 0.0
H4 H 0.30025 0.57577 0.22279 0.0
H5 H 0.31326 0.54687 0.0542 0.0
H6 H 0.34515 0.49924 0.16012 0.0
H7 H 0.30416 0.53763 0.27816 0.0
C8 C 0.24748 0.53667 0.09511 0.0
C9 C 0.2177 0.52115 0.08632 0.0
C10 C 0.26127 0.54457 0.16325 0.0
C11 C 0.24489 0.53705 0.2233 0.0
C12 C 0.2149 0.52132 0.21517 0.0
C13 C 0.20162 0.51315 0.14626 0.0
C14 C 0.29333 0.56252 0.17109 0.0
C15 C 0.30675 0.54383 0.16654 0.0
C16 C 0.31605 0.53808 0.10188 0.0
C17 C 0.32944 0.52147 0.09909 0.0
C18 C 0.33348 0.51074 0.16154 0.0
C19 C 0.3249 0.51686 0.22669 0.0
C20 C 0.31096 0.53286 0.22828 0.0
H21 H 0.81532 0.23903 0.00192 0.0
H22 H 0.82021 0.25341 0.23001 0.0
H23 H 0.855 0.32461 0.10158 0.0
H24 H 0.80295 0.19957 0.07569 0.0
H25 H 0.80955 0.20633 0.17006 0.0
H26 H 0.75776 0.19153 0.0186 0.0
H27 H 0.68775 0.16888 0.15157 0.0
H28 H 0.77276 0.20429 0.2461 0.0
C29 C 0.82066 0.25347 0.04934 0.0
C30 C 0.83484 0.28316 0.04387 0.0
C31 C 0.81445 0.24256 0.11651 0.0
C32 C 0.82341 0.26162 0.17806 0.0
C33 C 0.83774 0.29129 0.17265 0.0
C34 C 0.84235 0.30167 0.10552 0.0
C35 C 0.79997 0.21077 0.12316 0.0
C36 C 0.76863 0.19911 0.13143 0.0
C37 C 0.74972 0.19027 0.07094 0.0
C38 C 0.72053 0.17959 0.0778 0.0
C39 C 0.71046 0.17827 0.14597 0.0
C40 C 0.72903 0.18698 0.2071 0.0
C41 C 0.7582 0.19751 0.19938 0.0
H42 H 0.54971 0.79585 0.92313 0.0
H43 H 0.55936 0.81505 0.15015 0.0
H44 H 0.51887 0.84833 0.01916 0.0
H45 H 0.58227 0.78737 -0.00279 0.0
H46 H 0.58739 0.79687 0.09062 0.0
H47 H 0.55324 0.73913 0.95541 0.0
H48 H 0.50195 0.67603 0.09582 0.0
H49 H 0.55112 0.76462 0.17329 0.0
C50 C 0.54524 0.80495 0.97031 0.0
C51 C 0.53183 0.82134 0.96352 0.0
C52 C 0.55434 0.80175 0.03812 0.0
C53 C 0.55072 0.81582 0.09847 0.0
C54 C 0.53772 0.83246 0.09168 0.0
C55 C 0.5273 0.83401 0.0247 0.0
C56 C 0.57082 0.78625 0.04597 0.0
C57 C 0.55127 0.75546 0.06031 0.0
C58 C 0.54401 0.73353 0.00618 0.0
C59 C 0.52744 0.70462 0.01994 0.0
C60 C 0.51556 0.69825 0.08583 0.0
C61 C 0.52559 0.7193 0.14288 0.0
C62 C 0.54285 0.74815 0.12949 0.0
H63 H 0.76814 0.55795 0.92067 0.0
H64 H 0.76147 0.56776 0.14595 0.0
H65 H 0.68628 0.51558 0.00709 0.0
H66 H 0.80808 0.59712 0.00125 0.0
H67 H 0.80685 0.59577 0.0954 0.0
H68 H 0.81616 0.56247 0.92646 0.0
H69 H 0.84935 0.51635 0.03319 0.0
H70 H 0.81857 0.56425 0.15455 0.0
C71 C 0.75535 0.55263 0.96643 0.0
C72 C 0.72576 0.53533 0.95657 0.0
C73 C 0.76846 0.56345 0.035 0.0
C74 C 0.75141 0.55803 0.09373 0.0
C75 C 0.72146 0.54137 0.08422 0.0
C76 C 0.70919 0.52903 0.01563 0.0
C77 C 0.80045 0.58225 0.04417 0.0
C78 C 0.81466 0.56425 0.04095 0.0
C79 C 0.82092 0.55562 0.97517 0.0
C80 C 0.83347 0.53831 0.97235 0.0
C81 C 0.83978 0.52982 0.03582 0.0
C82 C 0.83558 0.53979 0.10229 0.0
C83 C 0.82217 0.55637 0.10413 0.0
H84 H 0.29338 0.76402 0.97837 0.0
H85 H 0.30398 0.78 0.20597 0.0
H86 H 0.34197 0.8503 0.07335 0.0
H87 H 0.28342 0.72498 0.05592 0.0
H88 H 0.28645 0.73157 0.15049 0.0
H89 H 0.24066 0.71618 -0.01362 0.0
H90 H 0.16734 0.70047 0.0992 0.0
H91 H 0.24818 0.73294 0.21411 0.0
C92 C 0.30173 0.77894 0.02538 0.0
C93 C 0.3176 0.80844 0.01823 0.0
C94 C 0.29663 0.76863 0.09306 0.0
C95 C 0.30787 0.78805 0.15386 0.0
C96 C 0.32422 0.81768 0.14756 0.0
C97 C 0.32862 0.82761 0.07933 0.0
C98 C 0.27964 0.73691 0.10032 0.0
C99 C 0.24836 0.72736 0.09983 0.0
C100 C 0.2314 0.71753 0.03553 0.0
C101 C 0.20217 0.70815 0.03526 0.0
C102 C 0.19025 0.70948 0.09899 0.0
C103 C 0.20644 0.71774 0.16369 0.0
C104 C 0.23567 0.72715 0.16399 0.0
H105 H 0.52791 0.27871 0.04122 0.0
H106 H 0.52073 0.28832 0.26667 0.0
H107 H 0.47908 0.31576 0.12069 0.0
H108 H 0.55617 0.26865 0.12389 0.0
H109 H 0.55821 0.27901 0.21658 0.0
H110 H 0.51485 0.2215 0.07165 0.0
H111 H 0.47691 0.15592 0.21572 0.0
H112 H 0.53282 0.24303 0.29772 0.0
C113 C 0.51878 0.28431 0.08538 0.0
C114 C 0.50181 0.2967 0.07292 0.0
C115 C 0.52477 0.28018 0.15536 0.0
C116 C 0.51472 0.28976 0.21256 0.0
C117 C 0.49794 0.30231 0.19996 0.0
C118 C 0.49071 0.30459 0.13019 0.0
C119 C 0.54314 0.26712 0.16968 0.0
C120 C 0.52461 0.2361 0.18327 0.0
C121 C 0.51104 0.21533 0.12558 0.0
C122 C 0.49357 0.18646 0.13749 0.0
C123 C 0.48917 0.1785 0.20691 0.0
C124 C 0.50365 0.19855 0.26471 0.0
C125 C 0.52124 0.2275 0.25307 0.0
C126 C 0.98431 0.4307 0.78422 0.0
C127 C 0.07156 0.48792 0.72573 0.0
C128 C 0.04128 0.56646 0.70583 0.0
Mg129 Mg 0.01421 0.45008 0.64461 0.0
O130 O 1.00266 0.4772 0.66421 0.0
Mg131 Mg 0.0175 0.50125 0.75606 0.0
Mg132 Mg 0.0136 0.50773 0.59873 0.0
O133 O 0.02466 0.53816 0.5334 0.0
Mg134 Mg 0.01406 0.56614 0.55337 0.0
Mg135 Mg 1.00923 0.51357 0.442 0.0
C136 C 0.98716 0.44937 0.49194 0.0
C137 C 0.06226 0.50705 0.50113 0.0
O138 O 0.99315 0.45707 0.80568 0.0
O139 O 0.9903 0.42329 0.72443 0.0
O140 O 0.0593 0.49973 0.75869 0.0
O141 O 0.05878 0.4687 0.67454 0.0
O142 O 0.99679 0.43816 0.53506 0.0
O143 O 0.98882 0.47369 0.50751 0.0
C144 C 0.96396 0.50676 0.69484 0.0
O145 O 0.97358 0.50975 0.63273 0.0
O146 O 0.97661 0.50305 0.74777 0.0
O147 O 0.03422 0.55729 0.39213 0.0
O148 O 0.03833 0.59208 0.47202 0.0
O149 O 0.96848 0.51665 0.44061 0.0
C150 C 0.0439 0.58389 0.41258 0.0
O151 O 0.9692 0.54801 0.52384 0.0
O152 O 0.03259 0.57857 0.6629 0.0
C153 C 0.95631 0.52874 0.47266 0.0
O154 O 0.0378 0.54137 0.69015 0.0
O155 O 0.05395 0.50609 0.56443 0.0
O156 O 0.04887 0.50966 0.44809 0.0
C157 C 0.45989 0.01693 0.8358 0.0
C158 C 0.43027 0.9405 0.69219 0.0
C159 C 0.53985 0.97083 0.67955 0.0
Mg160 Mg 0.45408 0.00405 0.67244 0.0
O161 O 0.49149 0.01208 0.69526 0.0
Mg162 Mg 0.49702 0.98801 0.76287 0.0
Mg163 Mg 0.51326 0.00875 0.61695 0.0
O164 O 0.53461 0.00532 0.538 0.0
Mg165 Mg 0.57193 0.0132 0.55994 0.0
Mg166 Mg 0.52908 0.02961 0.47048 0.0
C167 C 0.48726 0.04715 0.55453 0.0
C168 C 0.46721 0.97301 0.48379 0.0
O169 O 0.47621 0.00604 0.84172 0.0
O170 O 0.44887 0.01791 0.776 0.0
O171 O 0.45329 0.9486 0.73006 0.0
O172 O 0.42611 0.95812 0.65875 0.0
O173 O 0.46474 0.03396 0.58921 0.0
O174 O 0.50816 0.04235 0.56086 0.0
C175 C 0.55782 0.04588 0.75123 0.0
O176 O 0.55361 0.0434 0.68347 0.0
O177 O 0.53979 0.02774 0.7904 0.0
O178 O 0.5485 0.01044 0.39054 0.0
O179 O 0.57633 0.9991 0.45613 0.0
O180 O 0.57397 0.06842 0.49982 0.0
C181 C 0.56493 0.99967 0.3965 0.0
O182 O 0.60059 0.0588 0.57244 0.0
O183 O 0.56203 0.98383 0.64369 0.0
C184 C 0.59715 0.07635 0.53686 0.0
O185 O 0.51888 0.97558 0.67374 0.0
O186 O 0.47279 0.97416 0.55066 0.0
O187 O 0.48492 0.99139 0.44449 0.0
C188 C 0.54552 0.58245 0.41035 0.0
C189 C 0.58454 0.52935 0.44304 0.0
C190 C 0.47864 0.44767 0.49588 0.0
Mg191 Mg 0.56773 0.56474 0.54027 0.0
O192 O 0.52894 0.53659 0.53096 0.0
Mg193 Mg 0.51447 0.51212 0.43962 0.0
Mg194 Mg 0.51463 0.50672 0.59887 0.0
O195 O 0.49977 0.4767 0.66669 0.0
Mg196 Mg 0.46074 0.44898 0.65637 0.0
Mg197 Mg 0.51402 0.50159 0.75748 0.0
C198 C 0.55103 0.56604 0.70067 0.0
C199 C 0.5683 0.50632 0.67675 0.0
O200 O 0.52782 0.55585 0.39095 0.0
O201 O 0.56305 0.5904 0.46492 0.0
O202 O 0.55853 0.51672 0.41842 0.0
O203 O 0.59317 0.54762 0.49697 0.0
O204 O 0.56869 0.57742 0.65235 0.0
O205 O 0.52886 0.54096 0.69013 0.0
C206 C 0.45935 0.50413 0.52113 0.0
O207 O 0.47097 0.50382 0.58065 0.0
O208 O 0.47166 0.50707 0.46305 0.0
O209 O 0.4987 0.45826 0.80871 0.0
O210 O 0.46428 0.42329 0.73388 0.0
O211 O 0.471 0.49986 0.77541 0.0
C212 C 0.48105 0.43161 0.79007 0.0
O213 O 0.43619 0.46755 0.69892 0.0
O214 O 0.46059 0.43628 0.54359 0.0
C215 C 0.44514 0.48721 0.74992 0.0
O216 O 0.5009 0.47266 0.50704 0.0
O217 O 0.5581 0.50912 0.61776 0.0
O218 O 0.55552 0.5032 0.73426 0.0
H219 H 0.16751 0.47104 0.24048 0.0
H220 H 0.11838 0.54481 0.54153 0.0
H221 H 0.22077 0.5581 0.32987 0.0
H222 H 0.06295 0.46443 0.4212 0.0
H223 H 0.15959 0.54569 0.48701 0.0
H224 H 0.13295 0.46405 0.32857 0.0
C225 C 0.17212 0.48858 0.27942 0.0
C226 C 0.19688 0.51532 0.27711 0.0
C227 C 0.13848 0.52751 0.47394 0.0
C228 C 0.15716 0.50757 0.37808 0.0
C229 C 0.11506 0.52689 0.50559 0.0
C230 C 0.0874 0.50441 0.48594 0.0
C231 C 0.134 0.50547 0.42258 0.0
C232 C 0.08403 0.48203 0.43791 0.0
C233 C 0.15237 0.4846 0.32974 0.0
C234 C 0.20195 0.53715 0.32965 0.0
N235 N 0.10698 0.48322 0.40751 0.0
N236 N 0.18205 0.53295 0.3773 0.0
H237 H 0.68932 0.19967 0.25712 0.0
H238 H 0.65384 0.09347 0.55979 0.0
H239 H 0.74113 0.16349 0.31826 0.0
H240 H 0.59771 0.12216 0.48052 0.0
H241 H 0.69264 0.13058 0.4989 0.0
H242 H 0.66268 0.18278 0.36286 0.0
C243 C 0.69539 0.18858 0.29352 0.0
C244 C 0.71708 0.18245 0.27812 0.0
C245 C 0.67202 0.12922 0.49631 0.0
C246 C 0.68655 0.16286 0.39913 0.0
C247 C 0.64986 0.10817 0.53169 0.0
C248 C 0.62223 0.10415 0.52361 0.0
C249 C 0.66646 0.14634 0.45279 0.0
C250 C 0.6185 0.12403 0.48684 0.0
C251 C 0.68022 0.17898 0.35398 0.0
C252 C 0.72446 0.16853 0.32784 0.0
N253 N 0.64017 0.14384 0.45154 0.0
N254 N 0.70886 0.15871 0.38541 0.0
H255 H 0.48027 0.67896 0.20993 0.0
H256 H 0.58533 0.63934 0.41336 0.0
H257 H 0.57135 0.73475 0.23434 0.0
H258 H 0.49962 0.5776 0.33269 0.0
H259 H 0.57865 0.67766 0.37125 0.0
H260 H 0.48469 0.64621 0.28654 0.0
C261 C 0.50103 0.68501 0.23425 0.0
C262 C 0.52555 0.70923 0.2142 0.0
C263 C 0.56133 0.65572 0.36273 0.0
C264 C 0.53084 0.67165 0.30015 0.0
C265 C 0.56519 0.63379 0.38611 0.0
C266 C 0.54311 0.60512 0.37577 0.0
C267 C 0.53508 0.64907 0.32944 0.0
C268 C 0.5174 0.5993 0.34074 0.0
C269 C 0.50361 0.66603 0.27672 0.0
C270 C 0.5519 0.71617 0.24764 0.0
N271 N 0.51406 0.62109 0.31902 0.0
N272 N 0.55397 0.69707 0.2875 0.0
H273 H 0.8155 0.53298 0.23816 0.0
H274 H 0.91943 0.48371 0.38066 0.0
H275 H 0.88416 0.53643 0.11946 0.0
H276 H 0.93018 0.56117 0.49077 0.0
H277 H 0.8827 0.48256 0.30087 0.0
H278 H 0.83757 0.52601 0.34534 0.0
C279 C 0.83495 0.53214 0.23408 0.0
C280 C 0.84755 0.53478 0.16857 0.0
C281 C 0.89245 0.4992 0.34418 0.0
C282 C 0.87188 0.52583 0.28985 0.0
C283 C 0.91347 0.49999 0.38963 0.0
C284 C 0.9285 0.52307 0.4412 0.0
C285 C 0.8862 0.52141 0.35073 0.0
C286 C 0.91942 0.54325 0.451 0.0
C287 C 0.84731 0.528 0.29515 0.0
C288 C 0.87275 0.53335 0.16718 0.0
N289 N 0.89924 0.54239 0.40475 0.0
N290 N 0.88383 0.52869 0.22651 0.0
H291 H 0.35034 0.81121 0.26632 0.0
H292 H 0.43668 0.97705 0.37415 0.0
H293 H 0.33106 0.87134 0.17389 0.0
H294 H 0.43649 0.91652 0.51338 0.0
H295 H 0.39622 0.93804 0.30393 0.0
H296 H 0.37965 0.84807 0.36127 0.0
C297 C 0.35176 0.83194 0.26665 0.0
C298 C 0.33852 0.83827 0.21119 0.0
C299 C 0.40466 0.9332 0.35035 0.0
C300 C 0.37251 0.88069 0.31911 0.0
C301 C 0.42782 0.95548 0.39037 0.0
C302 C 0.44008 0.9499 0.44909 0.0
C303 C 0.39398 0.90491 0.36801 0.0
C304 C 0.42764 0.92164 0.46826 0.0
C305 C 0.36862 0.85301 0.32082 0.0
C306 C 0.34143 0.86566 0.21435 0.0
N307 N 0.40555 0.90002 0.42689 0.0
N308 N 0.3584 0.88591 0.26667 0.0
H309 H 0.53748 0.34521 0.29117 0.0
H310 H 0.43337 0.3964 0.44188 0.0
H311 H 0.44736 0.29845 0.23219 0.0
H312 H 0.52308 0.45341 0.42002 0.0
H313 H 0.4367 0.35826 0.37402 0.0
H314 H 0.53133 0.38189 0.35722 0.0
C315 C 0.51624 0.3422 0.29433 0.0
C316 C 0.49284 0.31881 0.25674 0.0
C317 C 0.4555 0.37927 0.38325 0.0
C318 C 0.48581 0.36099 0.32965 0.0
C319 C 0.45358 0.40112 0.42127 0.0
C320 C 0.47805 0.42805 0.43733 0.0
C321 C 0.48214 0.38435 0.3623 0.0
C322 C 0.50367 0.433 0.40918 0.0
C323 C 0.51283 0.36339 0.33063 0.0
C324 C 0.46585 0.31619 0.261 0.0
N325 N 0.50516 0.41116 0.37421 0.0
N326 N 0.46305 0.33719 0.29648 0.0
H327 H 0.57239 0.84828 0.87025 0.0
H328 H 0.49234 0.92928 0.7382 0.0
H329 H 0.48456 0.82053 0.90614 0.0
H330 H 0.58077 0.95676 0.70872 0.0
H331 H 0.48721 0.8864 0.78894 0.0
H332 H 0.57298 0.88289 0.79181 0.0
C333 C 0.55283 0.84858 0.85904 0.0
C334 C 0.52847 0.83175 0.8952 0.0
C335 C 0.50772 0.90184 0.77132 0.0
C336 C 0.52933 0.87223 0.80839 0.0
C337 C 0.51076 0.92654 0.7432 0.0
C338 C 0.53707 0.94684 0.7195 0.0
C339 C 0.53116 0.89741 0.7758 0.0
C340 C 0.56007 0.94183 0.72639 0.0
C341 C 0.55332 0.86878 0.81541 0.0
C342 C 0.50382 0.83331 0.87948 0.0
N343 N 0.55657 0.91769 0.75381 0.0
N344 N 0.50505 0.85372 0.83857 0.0
H345 H 0.68683 0.48163 0.89989 0.0
H346 H 0.62127 0.54776 0.64364 0.0
H347 H 0.73043 0.57003 0.85256 0.0
H348 H 0.57591 0.4642 0.72224 0.0
H349 H 0.66653 0.55145 0.68499 0.0
H350 H 0.6525 0.47028 0.79967 0.0
C351 C 0.68962 0.49846 0.86685 0.0
C352 C 0.7111 0.52683 0.88488 0.0
C353 C 0.6467 0.53195 0.69117 0.0
C354 C 0.67146 0.51433 0.77188 0.0
C355 C 0.62098 0.52981 0.66722 0.0
C356 C 0.59509 0.5058 0.68057 0.0
C357 C 0.64619 0.50986 0.7283 0.0
C358 C 0.59558 0.48317 0.71177 0.0
C359 C 0.66997 0.49206 0.8099 0.0
C360 C 0.71399 0.5479 0.8404 0.0
N361 N 0.6207 0.4859 0.73544 0.0
N362 N 0.6939 0.54138 0.7869 0.0
H363 H 0.16108 0.71628 0.97298 0.0
H364 H 0.08014 0.55783 0.77967 0.0
H365 H 0.1968 0.6606 0.96268 0.0
H366 H 0.04996 0.61786 0.76469 0.0
H367 H 0.12133 0.594 0.85436 0.0
H368 H 0.12 0.68051 0.89681 0.0
C369 C 0.1606 0.69684 0.95274 0.0
C370 C 0.18236 0.69139 0.97347 0.0
C371 C 0.10555 0.59917 0.83523 0.0
C372 C 0.13506 0.64995 0.88894 0.0
C373 C 0.08177 0.57834 0.79348 0.0
C374 C 0.06165 0.58486 0.76536 0.0
C375 C 0.10913 0.62664 0.84925 0.0
C376 C 0.06505 0.61195 0.7847 0.0
C377 C 0.13702 0.67627 0.91016 0.0
C378 C 0.18063 0.66574 0.94694 0.0
N379 N 0.08847 0.63191 0.82493 0.0
N380 N 0.15716 0.64576 0.90672 0.0
H381 H 0.43982 0.14329 0.09475 0.0
H382 H 0.50115 0.04679 0.94152 0.0
H383 H 0.5285 0.17607 0.05826 0.0
H384 H 0.41853 0.03056 0.86253 0.0
H385 H 0.50752 0.08902 0.01275 0.0
H386 H 0.42822 0.09789 0.02786 0.0
C387 C 0.45664 0.14117 0.07052 0.0
C388 C 0.48506 0.16342 0.08063 0.0
C389 C 0.48779 0.07586 0.98073 0.0
C390 C 0.4723 0.11155 0.00883 0.0
C391 C 0.48389 0.05146 0.94117 0.0
C392 C 0.45935 0.03531 0.89568 0.0
C393 C 0.46684 0.0838 0.97556 0.0
C394 C 0.43784 0.04263 0.89667 0.0
C395 C 0.45011 0.11528 0.03351 0.0
C396 C 0.5063 0.15956 0.05024 0.0
N397 N 0.44217 0.06658 0.93557 0.0
N398 N 0.49955 0.13388 0.01666 0.0
H399 H 0.36842 0.56257 0.02068 0.0
H400 H 0.38748 0.45233 0.75726 0.0
H401 H 0.31961 0.47107 0.03033 0.0
H402 H 0.45659 0.53701 0.82567 0.0
H403 H 0.35595 0.4613 0.83212 0.0
H404 H 0.39435 0.55554 0.92393 0.0
C405 C 0.36273 0.54099 0.00123 0.0
C406 C 0.34187 0.51734 0.03336 0.0
C407 C 0.37793 0.47802 0.82984 0.0
C408 C 0.37131 0.50917 0.92305 0.0
C409 C 0.39588 0.47301 0.7868 0.0
C410 C 0.42478 0.49388 0.78555 0.0
C411 C 0.38879 0.50428 0.87083 0.0
C412 C 0.43453 0.52022 0.82546 0.0
C413 C 0.37765 0.53701 0.94654 0.0
C414 C 0.33558 0.48984 0.00693 0.0
N415 N 0.41661 0.52466 0.86651 0.0
N416 N 0.35024 0.48649 0.95337 0.0
H417 H 0.87021 0.27271 0.96392 0.0
H418 H 0.94734 0.434 0.87441 0.0
H419 H 0.83073 0.32496 0.97976 0.0
H420 H 0.97056 0.3745 0.77876 0.0
H421 H 0.90584 0.39391 0.91995 0.0
H422 H 0.9065 0.3079 0.89299 0.0
C423 C 0.86843 0.29093 0.94966 0.0
C424 C 0.8477 0.29619 0.97823 0.0
C425 C 0.92006 0.38964 0.88906 0.0
C426 C 0.88971 0.33699 0.90064 0.0
C427 C 0.94405 0.41258 0.86421 0.0
C428 C 0.96253 0.4076 0.82313 0.0
C429 C 0.91472 0.36156 0.87356 0.0
C430 C 0.95686 0.37927 0.81041 0.0
C431 C 0.88942 0.31125 0.91029 0.0
C432 C 0.84657 0.32033 0.95906 0.0
N433 N 0.93348 0.35729 0.83575 0.0
N434 N 0.86778 0.34026 0.92307 0.0
H435 H 0.86653 0.57465 0.87534 0.0
H436 H 0.91784 0.46652 0.75425 0.0
H437 H 0.82344 0.48579 0.91891 0.0
H438 H 0.95088 0.54861 0.66897 0.0
H439 H 0.87869 0.47127 0.80024 0.0
H440 H 0.89266 0.56429 0.78519 0.0
C441 C 0.86189 0.55279 0.86426 0.0
C442 C 0.84309 0.5311 0.90527 0.0
C443 C 0.89407 0.48809 0.77031 0.0
C444 C 0.87329 0.51922 0.80359 0.0
C445 C 0.91639 0.4853 0.74391 0.0
C446 C 0.93749 0.50719 0.7079 0.0
C447 C 0.89326 0.51342 0.76269 0.0
C448 C 0.93483 0.53119 0.69616 0.0
C449 C 0.87697 0.54692 0.81318 0.0
C450 C 0.83807 0.50321 0.88921 0.0
N451 N 0.91342 0.53398 0.72486 0.0
N452 N 0.85341 0.49819 0.84063 0.0
H453 H 0.30879 0.84897 0.96199 0.0
H454 H 0.43221 0.89205 0.71481 0.0
H455 H 0.34342 0.7937 0.91526 0.0
H456 H 0.37397 0.92426 0.69654 0.0
H457 H 0.39647 0.85159 0.7739 0.0
H458 H 0.32854 0.87325 0.85497 0.0
C459 C 0.32011 0.84163 0.92822 0.0
C460 C 0.32477 0.81956 0.9475 0.0
C461 C 0.39111 0.86698 0.75503 0.0
C462 C 0.34788 0.84747 0.82593 0.0
C463 C 0.41148 0.89002 0.72094 0.0
C464 C 0.40617 0.91173 0.70176 0.0
C465 C 0.36562 0.86614 0.77168 0.0
C466 C 0.37898 0.90806 0.71083 0.0
C467 C 0.33127 0.85537 0.86702 0.0
C468 C 0.33945 0.8107 0.90206 0.0
N469 N 0.36 0.88618 0.74714 0.0
N470 N 0.35106 0.82511 0.84414 0.0
H471 H 0.54537 0.33786 0.00738 0.0
H472 H 0.44105 0.37475 0.78958 0.0
H473 H 0.45421 0.2827 -0.01072 0.0
H474 H 0.52584 0.43757 0.8741 0.0
H475 H 0.44711 0.33725 0.84008 0.0
H476 H 0.54054 0.36987 0.92879 0.0
C477 C 0.52447 0.33179 -0.01605 0.0
C478 C 0.50014 0.30769 0.00449 0.0
C479 C 0.46433 0.35926 0.84759 0.0
C480 C 0.49432 0.34456 0.91729 0.0
C481 C 0.46083 0.3807 0.81935 0.0
C482 C 0.48285 0.40941 0.82836 0.0
C483 C 0.4902 0.3665 0.88411 0.0
C484 C 0.50812 0.41582 0.86683 0.0
C485 C 0.52165 0.35034 0.94042 0.0
C486 C 0.47344 0.30107 0.97414 0.0
N487 N 0.51115 0.39451 0.89299 0.0
N488 N 0.47117 0.31969 0.93287 0.0
H489 H 0.22594 0.56063 -0.0071 0.0
H490 H 0.09211 0.4511 0.73283 0.0
H491 H 0.17577 0.47041 0.02039 0.0
H492 H 0.11457 0.53888 0.78657 0.0
H493 H 0.13393 0.45925 0.80629 0.0
H494 H 0.19592 0.55341 0.88553 0.0
C495 C 0.20906 0.53919 0.97516 0.0
C496 C 0.20308 0.51607 0.01545 0.0
C497 C 0.12999 0.47684 0.80044 0.0
C498 C 0.16898 0.50772 0.8933 0.0
C499 C 0.10634 0.4723 0.75825 0.0
C500 C 0.09981 0.4943 0.7545 0.0
C501 C 0.14738 0.50367 0.8377 0.0
C502 C 0.11874 0.5213 0.7889 0.0
C503 C 0.19193 0.53513 0.91431 0.0
C504 C 0.18082 0.48876 -0.00916 0.0
N505 N 0.14161 0.5252 0.82957 0.0
N506 N 0.16441 0.48533 0.93141 0.0
H507 H 0.67579 0.18799 0.04731 0.0
H508 H 0.55835 0.07562 0.87109 0.0
H509 H 0.71825 0.14381 0.96532 0.0
H510 H 0.61376 0.07313 0.71487 0.0
H511 H 0.59944 0.11428 0.93971 0.0
H512 H 0.63716 0.16132 0.95567 0.0
C513 C 0.67705 0.1728 0.00965 0.0
C514 C 0.6999 0.16759 0.01491 0.0
C515 C 0.60271 0.10595 0.88952 0.0
C516 C 0.65552 0.13655 0.9111 0.0
C517 C 0.57926 0.08361 0.85075 0.0
C518 C 0.58276 0.07123 0.78738 0.0
C519 C 0.63007 0.11585 0.86541 0.0
C520 C 0.61026 0.08234 0.76328 0.0
C521 C 0.65496 0.1575 0.95765 0.0
C522 C 0.70089 0.14829 0.96346 0.0
N523 N 0.63307 0.10374 0.80322 0.0
N524 N 0.67875 0.13311 0.91418 0.0
H525 H 0.52734 0.65643 0.06083 0.0
H526 H 0.58362 0.62428 0.71536 0.0
H527 H 0.5301 0.70015 0.8737 0.0
H528 H 0.5195 0.55277 0.81873 0.0
H529 H 0.57544 0.65674 0.79277 0.0
H530 H 0.53279 0.62141 -0.01215 0.0
C531 C 0.52825 0.65848 0.00426 0.0
C532 C 0.52767 0.68143 0.97359 0.0
C533 C 0.56343 0.63394 0.79867 0.0
C534 C 0.53607 0.642 0.89112 0.0
C535 C 0.5683 0.61534 0.75539 0.0
C536 C 0.55188 0.58557 0.75983 0.0
C537 C 0.54264 0.62284 0.84802 0.0
C538 C 0.53243 0.57548 0.81306 0.0
C539 C 0.53183 0.63852 0.96301 0.0
C540 C 0.53067 0.68321 0.9002 0.0
N541 N 0.52826 0.59416 0.85531 0.0
N542 N 0.53518 0.66396 0.86154 0.0
H543 H 0.45914 0.16932 0.34644 0.0
H544 H 0.53526 0.08773 0.49628 0.0
H545 H 0.54859 0.199 0.3321 0.0
H546 H 0.44721 0.06241 0.52415 0.0
H547 H 0.54158 0.13057 0.44349 0.0
H548 H 0.45601 0.13401 0.42632 0.0
C549 C 0.47838 0.16919 0.36285 0.0
C550 C 0.50417 0.18706 0.33316 0.0
C551 C 0.52089 0.11564 0.46124 0.0
C552 C 0.50055 0.14584 0.42111 0.0
C553 C 0.51716 0.09095 0.49057 0.0
C554 C 0.4906 0.07125 0.51432 0.0
C555 C 0.49788 0.12066 0.45532 0.0
C556 C 0.46805 0.07687 0.50639 0.0
C557 C 0.47653 0.14872 0.40735 0.0
C558 C 0.5284 0.18574 0.35462 0.0
N559 N 0.47221 0.10099 0.47753 0.0
N560 N 0.5259 0.16499 0.39615 0.0
H561 H 0.34767 0.55112 0.35049 0.0
H562 H 0.41103 0.45582 0.47455 0.0
H563 H 0.32351 0.4669 0.25522 0.0
H564 H 0.44361 0.544 0.55004 0.0
H565 H 0.36808 0.45396 0.42401 0.0
H566 H 0.37159 0.54319 0.45039 0.0
C567 C 0.34671 0.53062 0.35144 0.0
C568 C 0.33401 0.50982 0.2937 0.0
C569 C 0.38415 0.47349 0.45355 0.0
C570 C 0.36185 0.50086 0.40746 0.0
C571 C 0.40847 0.47442 0.48299 0.0
C572 C 0.4306 0.50007 0.51635 0.0
C573 C 0.38241 0.49863 0.45622 0.0
C574 C 0.42676 0.5238 0.52498 0.0
C575 C 0.36054 0.52619 0.40841 0.0
C576 C 0.33363 0.48377 0.29781 0.0
N577 N 0.40333 0.52272 0.4937 0.0
N578 N 0.34778 0.48022 0.3531 0.0
H579 H 0.87392 0.28852 0.26953 0.0
H580 H 0.9437 0.45209 0.42146 0.0
H581 H 0.83951 0.34187 0.21139 0.0
H582 H 0.98545 0.40185 0.42948 0.0
H583 H 0.90383 0.41225 0.34983 0.0
H584 H 0.9114 0.32895 0.34393 0.0
C585 C 0.87368 0.30849 0.27445 0.0
C586 C 0.85371 0.31195 0.23421 0.0
C587 C 0.92192 0.41017 0.36664 0.0
C588 C 0.89716 0.35862 0.31668 0.0
C589 C 0.94488 0.43305 0.40654 0.0
C590 C 0.96777 0.43013 0.43217 0.0
C591 C 0.92196 0.38433 0.3529 0.0
C592 C 0.96805 0.40488 0.41166 0.0
C593 C 0.89543 0.33176 0.31569 0.0
C594 C 0.85468 0.33847 0.24155 0.0
N595 N 0.94531 0.38282 0.37414 0.0
N596 N 0.87633 0.36098 0.28129 0.0
H597 H 0.49673 0.84405 0.13623 0.0
H598 H 0.60659 0.98665 0.37116 0.0
H599 H 0.58552 0.87008 0.17334 0.0
H600 H 0.52372 0.96912 0.29067 0.0
H601 H 0.59982 0.94416 0.30047 0.0
H602 H 0.50545 0.88813 0.20293 0.0
C603 C 0.51789 0.85874 0.16014 0.0
C604 C 0.54046 0.85353 0.14923 0.0
C605 C 0.58334 0.94989 0.29729 0.0
C606 C 0.55078 0.90419 0.22363 0.0
C607 C 0.58733 0.97432 0.33687 0.0
C608 C 0.56558 0.98124 0.33709 0.0
C609 C 0.55727 0.93215 0.25848 0.0
C610 C 0.54106 0.96459 0.2919 0.0
C611 C 0.52297 0.88405 0.19714 0.0
C612 C 0.56749 0.87317 0.18113 0.0
N613 N 0.53732 0.94044 0.25535 0.0
N614 N 0.57198 0.89783 0.21638 0.0
H615 H 0.67005 0.53957 0.07488 0.0
H616 H 0.64247 0.55244 0.47375 0.0
H617 H 0.72951 0.53806 0.22909 0.0
H618 H 0.57481 0.49869 0.31519 0.0
H619 H 0.6773 0.55341 0.39119 0.0
H620 H 0.63762 0.53226 0.16722 0.0
C621 C 0.67626 0.53723 0.12785 0.0
C622 C 0.70243 0.53849 0.14308 0.0
C623 C 0.65476 0.54105 0.37543 0.0
C624 C 0.66531 0.53141 0.25074 0.0
C625 C 0.63486 0.54045 0.42233 0.0
C626 C 0.60559 0.5258 0.40114 0.0
C627 C 0.64529 0.5274 0.30671 0.0
C628 C 0.59705 0.51056 0.3339 0.0
C629 C 0.65766 0.53327 0.18081 0.0
C630 C 0.70959 0.53704 0.21439 0.0
N631 N 0.61679 0.51224 0.2888 0.0
N632 N 0.69115 0.53368 0.26582 0.0
H633 H 0.16899 0.73294 0.21739 0.0
H634 H 0.07967 0.57699 0.3259 0.0
H635 H 0.20577 0.67948 0.25028 0.0
H636 H 0.06158 0.64126 0.4154 0.0
H637 H 0.12363 0.61483 0.2836 0.0
H638 H 0.12873 0.70172 0.28595 0.0
C639 C 0.16921 0.71542 0.24198 0.0
C640 C 0.19056 0.70861 0.22814 0.0
C641 C 0.10996 0.62061 0.31234 0.0
C642 C 0.14429 0.67234 0.30266 0.0
C643 C 0.08459 0.59901 0.33527 0.0
C644 C 0.06687 0.60598 0.37403 0.0
C645 C 0.11747 0.64936 0.32702 0.0
C646 C 0.07466 0.635 0.38559 0.0
C647 C 0.14611 0.69744 0.28009 0.0
C648 C 0.18976 0.68548 0.26002 0.0
N649 N 0.09941 0.65573 0.36186 0.0
N650 N 0.16652 0.66763 0.29409 0.0
loop_
_geom_bond_atom_site_label_1
_geom_bond_atom_site_label_2
_geom_bond_distance
_geom_bond_site_symmetry_2
_ccdc_geom_bond_type
H0 C8 0.930 . S
H1 C11 0.930 . S
H2 C13 0.930 . S
H3 C14 0.970 . S
H4 C14 0.970 . S
H5 C16 0.930 . S
H6 C18 0.930 . S
H7 C20 0.930 . S
C8 H0 0.930 . S
C8 C9 1.382 . S
C8 C10 1.426 . S
C9 C8 1.382 . S
C9 C13 1.389 . S
C10 C8 1.426 . S
C10 C11 1.375 . S
C10 C14 1.532 . S
C11 H1 0.930 . S
C11 C10 1.375 . S
C11 C12 1.416 . S
C12 C11 1.416 . S
C12 C13 1.371 . S
C13 H2 0.930 . S
C13 C9 1.389 . S
C13 C12 1.371 . S
C14 H3 0.970 . S
C14 H4 0.970 . S
C14 C10 1.532 . S
C14 C15 1.499 . S
C15 C14 1.499 . S
C15 C16 1.370 . S
C15 C20 1.415 . S
C16 H5 0.930 . S
C16 C15 1.370 . S
C16 C17 1.407 . S
C17 C16 1.407 . S
C17 C18 1.365 . S
C18 H6 0.930 . S
C18 C17 1.365 . S
C18 C19 1.393 . S
C19 C18 1.393 . S
C19 C20 1.387 . S
C20 H7 0.930 . S
C20 C15 1.415 . S
C20 C19 1.387 . S
H21 C29 0.930 . S
H22 C32 0.930 . S
H23 C34 0.930 . S
H24 C35 0.970 . S
H25 C35 0.970 . S
H26 C37 0.930 . S
H27 C39 0.930 . S
H28 C41 0.930 . S
C29 H21 0.930 . S
C29 C30 1.382 . S
C29 C31 1.426 . S
C30 C29 1.382 . S
C30 C34 1.389 . S
C31 C29 1.426 . S
C31 C32 1.375 . S
C31 C35 1.532 . S
C32 H22 0.930 . S
C32 C31 1.375 . S
C32 C33 1.416 . S
C33 C32 1.416 . S
C33 C34 1.371 . S
C34 H23 0.930 . S
C34 C30 1.389 . S
C34 C33 1.371 . S
C35 H24 0.970 . S
C35 H25 0.970 . S
C35 C31 1.532 . S
C35 C36 1.499 . S
C36 C35 1.499 . S
C36 C37 1.370 . S
C36 C41 1.415 . S
C37 H26 0.930 . S
C37 C36 1.370 . S
C37 C38 1.407 . S
C38 C37 1.407 . S
C38 C39 1.365 . S
C39 H27 0.930 . S
C39 C38 1.365 . S
C39 C40 1.393 . S
C40 C39 1.393 . S
C40 C41 1.387 . S
C41 H28 0.930 . S
C41 C36 1.415 . S
C41 C40 1.387 . S
H42 C50 0.930 . S
H43 C53 0.930 . S
H44 C55 0.930 . S
H45 C56 0.970 1_556 S
H46 C56 0.970 . S
H47 C58 0.930 . S
H48 C60 0.930 . S
H49 C62 0.930 . S
C50 H42 0.930 . S
C50 C51 1.382 . S
C50 C52 1.426 1_556 S
C51 C50 1.382 . S
C51 C55 1.389 1_556 S
C52 C50 1.426 1_554 S
C52 C53 1.375 . S
C52 C56 1.532 . S
C53 H43 0.930 . S
C53 C52 1.375 . S
C53 C54 1.416 . S
C54 C53 1.416 . S
C54 C55 1.371 . S
C55 H44 0.930 . S
C55 C51 1.389 1_554 S
C55 C54 1.371 . S
C56 H45 0.970 1_554 S
C56 H46 0.970 . S
C56 C52 1.532 . S
C56 C57 1.499 . S
C57 C56 1.499 . S
C57 C58 1.370 1_554 S
C57 C62 1.415 . S
C58 H47 0.930 . S
C58 C57 1.370 1_556 S
C58 C59 1.407 . S
C59 C58 1.407 . S
C59 C60 1.365 1_556 S
C60 H48 0.930 . S
C60 C59 1.365 1_554 S
C60 C61 1.393 . S
C61 C60 1.393 . S
C61 C62 1.387 . S
C62 H49 0.930 . S
C62 C57 1.415 . S
C62 C61 1.387 . S
H63 C71 0.930 1_556 S
H64 C74 0.930 . S
H65 C76 0.930 . S
H66 C77 0.970 . S
H67 C77 0.970 . S
H68 C79 0.930 1_556 S
H69 C81 0.930 . S
H70 C83 0.930 . S
C71 H63 0.930 1_554 S
C71 C72 1.382 1_554 S
C71 C73 1.426 . S
C72 C71 1.382 1_556 S
C72 C76 1.389 1_556 S
C73 C71 1.426 . S
C73 C74 1.375 . S
C73 C77 1.532 . S
C74 H64 0.930 . S
C74 C73 1.375 . S
C74 C75 1.416 . S
C75 C74 1.416 . S
C75 C76 1.371 . S
C76 H65 0.930 . S
C76 C72 1.389 1_554 S
C76 C75 1.371 . S
C77 H66 0.970 . S
C77 H67 0.970 . S
C77 C73 1.532 . S
C77 C78 1.499 . S
C78 C77 1.499 . S
C78 C79 1.370 . S
C78 C83 1.415 . S
C79 H68 0.930 1_554 S
C79 C78 1.370 . S
C79 C80 1.407 . S
C80 C79 1.407 . S
C80 C81 1.365 . S
C81 H69 0.930 . S
C81 C80 1.365 . S
C81 C82 1.393 . S
C82 C81 1.393 . S
C82 C83 1.387 . S
C83 H70 0.930 . S
C83 C78 1.415 . S
C83 C82 1.387 . S
H84 C92 0.930 1_556 S
H85 C95 0.930 . S
H86 C97 0.930 . S
H87 C98 0.970 . S
H88 C98 0.970 . S
H89 C100 0.930 1_556 S
H90 C102 0.930 . S
H91 C104 0.930 . S
C92 H84 0.930 1_554 S
C92 C93 1.382 . S
C92 C94 1.426 . S
C93 C92 1.382 . S
C93 C97 1.389 . S
C94 C92 1.426 . S
C94 C95 1.375 . S
C94 C98 1.532 . S
C95 H85 0.930 . S
C95 C94 1.375 . S
C95 C96 1.416 . S
C96 C95 1.416 . S
C96 C97 1.371 . S
C97 H86 0.930 . S
C97 C93 1.389 . S
C97 C96 1.371 . S
C98 H87 0.970 . S
C98 H88 0.970 . S
C98 C94 1.532 . S
C98 C99 1.499 . S
C99 C98 1.499 . S
C99 C100 1.370 . S
C99 C104 1.415 . S
C100 H89 0.930 1_554 S
C100 C99 1.370 . S
C100 C101 1.407 . S
C101 C100 1.407 . S
C101 C102 1.365 . S
C102 H90 0.930 . S
C102 C101 1.365 . S
C102 C103 1.393 . S
C103 C102 1.393 . S
C103 C104 1.387 . S
C104 H91 0.930 . S
C104 C99 1.415 . S
C104 C103 1.387 . S
H105 C113 0.930 . S
H106 C116 0.930 . S
H107 C118 0.930 . S
H108 C119 0.970 . S
H109 C119 0.970 . S
H110 C121 0.930 . S
H111 C123 0.930 . S
H112 C125 0.930 . S
C113 H105 0.930 . S
C113 C114 1.382 . S
C113 C115 1.426 . S
C114 C113 1.382 . S
C114 C118 1.389 . S
C115 C113 1.426 . S
C115 C116 1.375 . S
C115 C119 1.532 . S
C116 H106 0.930 . S
C116 C115 1.375 . S
C116 C117 1.416 . S
C117 C116 1.416 . S
C117 C118 1.371 . S
C118 H107 0.930 . S
C118 C114 1.389 . S
C118 C117 1.371 . S
C119 H108 0.970 . S
C119 H109 0.970 . S
C119 C115 1.532 . S
C119 C120 1.499 . S
C120 C119 1.499 . S
C120 C121 1.370 . S
C120 C125 1.415 . S
C121 H110 0.930 . S
C121 C120 1.370 . S
C121 C122 1.407 . S
C122 C121 1.407 . S
C122 C123 1.365 . S
C123 H111 0.930 . S
C123 C122 1.365 . S
C123 C124 1.393 . S
C124 C123 1.393 . S
C124 C125 1.387 . S
C125 H112 0.930 . S
C125 C120 1.415 . S
C125 C124 1.387 . S
C126 O138 1.241 . S
C126 O139 1.280 . S
C127 O140 1.277 . S
C127 O141 1.245 . S
C128 O152 1.247 . S
C128 O154 1.289 . S
Mg129 O130 1.926 . S
Mg129 O139 1.984 . S
Mg129 O141 1.988 1_655 S
Mg129 O142 2.061 . S
O130 Mg129 1.926 . S
O130 Mg131 1.986 1_655 S
O130 Mg132 1.917 1_655 S
Mg131 O130 1.986 1_455 S
Mg131 O138 2.042 1_455 S
Mg131 O140 2.041 . S
Mg131 O146 2.038 1_455 S
Mg131 O154 2.238 . S
Mg132 O130 1.917 1_455 S
Mg132 O133 1.917 . S
Mg132 O143 2.106 1_455 S
Mg132 O145 2.079 1_455 S
Mg132 O154 2.106 . S
Mg132 O155 2.079 . S
O133 Mg132 1.917 . S
O133 Mg134 1.926 . S
O133 Mg135 1.986 . S
Mg134 O133 1.926 . S
Mg134 O148 1.984 . S
Mg134 O151 1.988 1_455 S
Mg134 O152 2.061 . S
Mg135 O133 1.986 . S
Mg135 O143 2.238 1_455 S
Mg135 O147 2.042 . S
Mg135 O149 2.041 1_455 S
Mg135 O156 2.038 . S
C136 O142 1.247 . S
C136 O143 1.289 . S
C137 O155 1.245 . S
C137 O156 1.274 . S
O138 C126 1.241 . S
O138 Mg131 2.042 1_655 S
O139 C126 1.280 . S
O139 Mg129 1.984 . S
O140 C127 1.277 . S
O140 Mg131 2.041 . S
O141 C127 1.245 . S
O141 Mg129 1.988 1_455 S
O142 Mg129 2.061 . S
O142 C136 1.247 . S
O143 Mg132 2.106 1_655 S
O143 Mg135 2.238 1_655 S
O143 C136 1.289 . S
C144 O145 1.245 . S
C144 O146 1.274 . S
O145 Mg132 2.079 1_655 S
O145 C144 1.245 . S
O146 Mg131 2.038 1_655 S
O146 C144 1.274 . S
O147 Mg135 2.042 . S
O147 C150 1.241 . S
O148 Mg134 1.984 . S
O148 C150 1.280 . S
O149 Mg135 2.041 1_655 S
O149 C153 1.277 . S
C150 O147 1.241 . S
C150 O148 1.280 . S
O151 Mg134 1.988 1_655 S
O151 C153 1.245 . S
O152 C128 1.247 . S
O152 Mg134 2.061 . S
C153 O149 1.277 . S
C153 O151 1.245 . S
O154 C128 1.289 . S
O154 Mg131 2.238 . S
O154 Mg132 2.106 . S
O155 Mg132 2.079 . S
O155 C137 1.245 . S
O156 Mg135 2.038 . S
O156 C137 1.274 . S
C157 O169 1.241 . S
C157 O170 1.280 . S
C158 O171 1.277 . S
C158 O172 1.245 . S
C159 O183 1.247 . S
C159 O185 1.289 . S
Mg160 O161 1.926 . S
Mg160 O170 1.984 . S
Mg160 O172 1.988 1_545 S
Mg160 O173 2.061 . S
O161 Mg160 1.926 . S
O161 Mg162 1.986 . S
O161 Mg163 1.917 . S
Mg162 O161 1.986 . S
Mg162 O169 2.042 . S
Mg162 O171 2.041 1_545 S
Mg162 O177 2.038 . S
Mg162 O185 2.238 1_545 S
Mg163 O161 1.917 . S
Mg163 O164 1.917 1_545 S
Mg163 O174 2.106 . S
Mg163 O176 2.079 . S
Mg163 O185 2.106 1_545 S
Mg163 O186 2.079 1_545 S
O164 Mg163 1.917 1_565 S
O164 Mg165 1.926 . S
O164 Mg166 1.986 1_565 S
Mg165 O164 1.926 . S
Mg165 O179 1.984 . S
Mg165 O182 1.988 1_565 S
Mg165 O183 2.061 . S
Mg166 O164 1.986 1_545 S
Mg166 O174 2.238 . S
Mg166 O178 2.042 1_545 S
Mg166 O180 2.041 . S
Mg166 O187 2.038 1_545 S
C167 O173 1.247 . S
C167 O174 1.289 . S
C168 O186 1.245 . S
C168 O187 1.274 . S
O169 C157 1.241 . S
O169 Mg162 2.042 . S
O170 C157 1.280 . S
O170 Mg160 1.984 . S
O171 C158 1.277 . S
O171 Mg162 2.041 1_565 S
O172 C158 1.245 . S
O172 Mg160 1.988 1_565 S
O173 Mg160 2.061 . S
O173 C167 1.247 . S
O174 Mg163 2.106 . S
O174 Mg166 2.238 . S
O174 C167 1.289 . S
C175 O176 1.245 . S
C175 O177 1.274 . S
O176 Mg163 2.079 . S
O176 C175 1.245 . S
O177 Mg162 2.038 . S
O177 C175 1.274 . S
O178 Mg166 2.042 1_565 S
O178 C181 1.241 . S
O179 Mg165 1.984 . S
O179 C181 1.280 . S
O180 Mg166 2.041 . S
O180 C184 1.277 . S
C181 O178 1.241 . S
C181 O179 1.280 . S
O182 Mg165 1.988 1_545 S
O182 C184 1.245 . S
O183 C159 1.247 . S
O183 Mg165 2.061 . S
C184 O180 1.277 . S
C184 O182 1.245 . S
O185 C159 1.289 . S
O185 Mg162 2.238 1_565 S
O185 Mg163 2.106 1_565 S
O186 Mg163 2.079 1_565 S
O186 C168 1.245 . S
O187 Mg166 2.038 1_565 S
O187 C168 1.274 . S
C188 O200 1.241 . S
C188 O201 1.280 . S
C189 O202 1.277 . S
C189 O203 1.245 . S
C190 O214 1.247 . S
C190 O216 1.289 . S
Mg191 O192 1.926 . S
Mg191 O201 1.984 . S
Mg191 O203 1.988 . S
Mg191 O204 2.061 . S
O192 Mg191 1.926 . S
O192 Mg193 1.986 . S
O192 Mg194 1.917 . S
Mg193 O192 1.986 . S
Mg193 O200 2.042 . S
Mg193 O202 2.041 . S
Mg193 O208 2.038 . S
Mg193 O216 2.238 . S
Mg194 O192 1.917 . S
Mg194 O195 1.917 . S
Mg194 O205 2.106 . S
Mg194 O207 2.079 . S
Mg194 O216 2.106 . S
Mg194 O217 2.079 . S
O195 Mg194 1.917 . S
O195 Mg196 1.926 . S
O195 Mg197 1.986 . S
Mg196 O195 1.926 . S
Mg196 O210 1.984 . S
Mg196 O213 1.988 . S
Mg196 O214 2.061 . S
Mg197 O195 1.986 . S
Mg197 O205 2.238 . S
Mg197 O209 2.042 . S
Mg197 O211 2.041 . S
Mg197 O218 2.038 . S
C198 O204 1.247 . S
C198 O205 1.289 . S
C199 O217 1.245 . S
C199 O218 1.274 . S
O200 C188 1.241 . S
O200 Mg193 2.042 . S
O201 C188 1.280 . S
O201 Mg191 1.984 . S
O202 C189 1.277 . S
O202 Mg193 2.041 . S
O203 C189 1.245 . S
O203 Mg191 1.988 . S
O204 Mg191 2.061 . S
O204 C198 1.247 . S
O205 Mg194 2.106 . S
O205 Mg197 2.238 . S
O205 C198 1.289 . S
C206 O207 1.245 . S
C206 O208 1.274 . S
O207 Mg194 2.079 . S
O207 C206 1.245 . S
O208 Mg193 2.038 . S
O208 C206 1.274 . S
O209 Mg197 2.042 . S
O209 C212 1.241 . S
O210 Mg196 1.984 . S
O210 C212 1.280 . S
O211 Mg197 2.041 . S
O211 C215 1.277 . S
C212 O209 1.241 . S
C212 O210 1.280 . S
O213 Mg196 1.988 . S
O213 C215 1.245 . S
O214 C190 1.247 . S
O214 Mg196 2.061 . S
C215 O211 1.277 . S
C215 O213 1.245 . S
O216 C190 1.289 . S
O216 Mg193 2.238 . S
O216 Mg194 2.106 . S
O217 Mg194 2.079 . S
O217 C199 1.245 . S
O218 Mg197 2.038 . S
O218 C199 1.274 . S
H219 C225 0.930 . S
H220 C229 0.930 . S
H221 C234 0.929 . S
H222 C232 0.929 . S
H223 C227 0.929 . S
H224 C233 0.929 . S
C225 H219 0.930 . S
C225 C226 1.367 . S
C225 C233 1.378 . S
C226 C225 1.367 . S
C226 C234 1.433 . S
C227 H223 0.929 . S
C227 C229 1.378 . S
C227 C231 1.350 . S
C228 C231 1.463 . S
C228 C233 1.350 . S
C228 N236 1.427 . S
C229 H220 0.930 . S
C229 C227 1.378 . S
C229 C230 1.367 . S
C230 C229 1.367 . S
C230 C232 1.433 . S
C231 C227 1.350 . S
C231 C228 1.463 . S
C231 N235 1.427 . S
C232 H222 0.929 . S
C232 C230 1.433 . S
C232 N235 1.384 . S
C233 H224 0.929 . S
C233 C225 1.378 . S
C233 C228 1.350 . S
C234 H221 0.929 . S
C234 C226 1.433 . S
C234 N236 1.384 . S
N235 C231 1.427 . S
N235 C232 1.384 . S
N236 C228 1.427 . S
N236 C234 1.384 . S
H237 C243 0.930 . S
H238 C247 0.930 . S
H239 C252 0.929 . S
H240 C250 0.929 . S
H241 C245 0.929 . S
H242 C251 0.929 . S
C243 H237 0.930 . S
C243 C244 1.367 . S
C243 C251 1.378 . S
C244 C243 1.367 . S
C244 C252 1.433 . S
C245 H241 0.929 . S
C245 C247 1.378 . S
C245 C249 1.350 . S
C246 C249 1.463 . S
C246 C251 1.350 . S
C246 N254 1.427 . S
C247 H238 0.930 . S
C247 C245 1.378 . S
C247 C248 1.367 . S
C248 C247 1.367 . S
C248 C250 1.433 . S
C249 C245 1.350 . S
C249 C246 1.463 . S
C249 N253 1.427 . S
C250 H240 0.929 . S
C250 C248 1.433 . S
C250 N253 1.384 . S
C251 H242 0.929 . S
C251 C243 1.378 . S
C251 C246 1.350 . S
C252 H239 0.929 . S
C252 C244 1.433 . S
C252 N254 1.384 . S
N253 C249 1.427 . S
N253 C250 1.384 . S
N254 C246 1.427 . S
N254 C252 1.384 . S
H255 C261 0.930 . S
H256 C265 0.930 . S
H257 C270 0.929 . S
H258 C268 0.929 . S
H259 C263 0.929 . S
H260 C269 0.929 . S
C261 H255 0.930 . S
C261 C262 1.367 . S
C261 C269 1.378 . S
C262 C261 1.367 . S
C262 C270 1.433 . S
C263 H259 0.929 . S
C263 C265 1.378 . S
C263 C267 1.350 . S
C264 C267 1.463 . S
C264 C269 1.350 . S
C264 N272 1.427 . S
C265 H256 0.930 . S
C265 C263 1.378 . S
C265 C266 1.367 . S
C266 C265 1.367 . S
C266 C268 1.433 . S
C267 C263 1.350 . S
C267 C264 1.463 . S
C267 N271 1.427 . S
C268 H258 0.929 . S
C268 C266 1.433 . S
C268 N271 1.384 . S
C269 H260 0.929 . S
C269 C261 1.378 . S
C269 C264 1.350 . S
C270 H257 0.929 . S
C270 C262 1.433 . S
C270 N272 1.384 . S
N271 C267 1.427 . S
N271 C268 1.384 . S
N272 C264 1.427 . S
N272 C270 1.384 . S
H273 C279 0.930 . S
H274 C283 0.930 . S
H275 C288 0.929 . S
H276 C286 0.929 . S
H277 C281 0.929 . S
H278 C287 0.929 . S
C279 H273 0.930 . S
C279 C280 1.367 . S
C279 C287 1.378 . S
C280 C279 1.367 . S
C280 C288 1.433 . S
C281 H277 0.929 . S
C281 C283 1.378 . S
C281 C285 1.350 . S
C282 C285 1.463 . S
C282 C287 1.350 . S
C282 N290 1.427 . S
C283 H274 0.930 . S
C283 C281 1.378 . S
C283 C284 1.367 . S
C284 C283 1.367 . S
C284 C286 1.433 . S
C285 C281 1.350 . S
C285 C282 1.463 . S
C285 N289 1.427 . S
C286 H276 0.929 . S
C286 C284 1.433 . S
C286 N289 1.384 . S
C287 H278 0.929 . S
C287 C279 1.378 . S
C287 C282 1.350 . S
C288 H275 0.929 . S
C288 C280 1.433 . S
C288 N290 1.384 . S
N289 C285 1.427 . S
N289 C286 1.384 . S
N290 C282 1.427 . S
N290 C288 1.384 . S
H291 C297 0.930 . S
H292 C301 0.930 . S
H293 C306 0.929 . S
H294 C304 0.929 . S
H295 C299 0.929 . S
H296 C305 0.929 . S
C297 H291 0.930 . S
C297 C298 1.367 . S
C297 C305 1.378 . S
C298 C297 1.367 . S
C298 C306 1.433 . S
C299 H295 0.929 . S
C299 C301 1.378 . S
C299 C303 1.350 . S
C300 C303 1.463 . S
C300 C305 1.350 . S
C300 N308 1.427 . S
C301 H292 0.930 . S
C301 C299 1.378 . S
C301 C302 1.367 . S
C302 C301 1.367 . S
C302 C304 1.433 . S
C303 C299 1.350 . S
C303 C300 1.463 . S
C303 N307 1.427 . S
C304 H294 0.929 . S
C304 C302 1.433 . S
C304 N307 1.384 . S
C305 H296 0.929 . S
C305 C297 1.378 . S
C305 C300 1.350 . S
C306 H293 0.929 . S
C306 C298 1.433 . S
C306 N308 1.384 . S
N307 C303 1.427 . S
N307 C304 1.384 . S
N308 C300 1.427 . S
N308 C306 1.384 . S
H309 C315 0.930 . S
H310 C319 0.930 . S
H311 C324 0.929 . S
H312 C322 0.929 . S
H313 C317 0.929 . S
H314 C323 0.929 . S
C315 H309 0.930 . S
C315 C316 1.367 . S
C315 C323 1.378 . S
C316 C315 1.367 . S
C316 C324 1.433 . S
C317 H313 0.929 . S
C317 C319 1.378 . S
C317 C321 1.350 . S
C318 C321 1.463 . S
C318 C323 1.350 . S
C318 N326 1.427 . S
C319 H310 0.930 . S
C319 C317 1.378 . S
C319 C320 1.367 . S
C320 C319 1.367 . S
C320 C322 1.433 . S
C321 C317 1.350 . S
C321 C318 1.463 . S
C321 N325 1.427 . S
C322 H312 0.929 . S
C322 C320 1.433 . S
C322 N325 1.384 . S
C323 H314 0.929 . S
C323 C315 1.378 . S
C323 C318 1.350 . S
C324 H311 0.929 . S
C324 C316 1.433 . S
C324 N326 1.384 . S
N325 C321 1.427 . S
N325 C322 1.384 . S
N326 C318 1.427 . S
N326 C324 1.384 . S
H327 C333 0.930 . S
H328 C337 0.930 . S
H329 C342 0.929 . S
H330 C340 0.929 . S
H331 C335 0.929 . S
H332 C341 0.929 . S
C333 H327 0.930 . S
C333 C334 1.367 . S
C333 C341 1.378 . S
C334 C333 1.367 . S
C334 C342 1.433 . S
C335 H331 0.929 . S
C335 C337 1.378 . S
C335 C339 1.350 . S
C336 C339 1.463 . S
C336 C341 1.350 . S
C336 N344 1.427 . S
C337 H328 0.930 . S
C337 C335 1.378 . S
C337 C338 1.367 . S
C338 C337 1.367 . S
C338 C340 1.433 . S
C339 C335 1.350 . S
C339 C336 1.463 . S
C339 N343 1.427 . S
C340 H330 0.929 . S
C340 C338 1.433 . S
C340 N343 1.384 . S
C341 H332 0.929 . S
C341 C333 1.378 . S
C341 C336 1.350 . S
C342 H329 0.929 . S
C342 C334 1.433 . S
C342 N344 1.384 . S
N343 C339 1.427 . S
N343 C340 1.384 . S
N344 C336 1.427 . S
N344 C342 1.384 . S
H345 C351 0.930 . S
H346 C355 0.930 . S
H347 C360 0.929 1_554 S
H348 C358 0.929 . S
H349 C353 0.929 . S
H350 C359 0.929 . S
C351 H345 0.930 . S
C351 C352 1.367 . S
C351 C359 1.378 . S
C352 C351 1.367 . S
C352 C360 1.433 . S
C353 H349 0.929 . S
C353 C355 1.378 . S
C353 C357 1.350 . S
C354 C357 1.463 . S
C354 C359 1.350 . S
C354 N362 1.427 . S
C355 H346 0.930 . S
C355 C353 1.378 . S
C355 C356 1.367 . S
C356 C355 1.367 . S
C356 C358 1.433 . S
C357 C353 1.350 . S
C357 C354 1.463 . S
C357 N361 1.427 . S
C358 H348 0.929 . S
C358 C356 1.433 . S
C358 N361 1.384 . S
C359 H350 0.929 . S
C359 C351 1.378 . S
C359 C354 1.350 . S
C360 H347 0.929 1_556 S
C360 C352 1.433 . S
C360 N362 1.384 . S
N361 C357 1.427 . S
N361 C358 1.384 . S
N362 C354 1.427 . S
N362 C360 1.384 . S
H363 C369 0.930 . S
H364 C373 0.930 . S
H365 C378 0.937 . S
H366 C376 0.929 . S
H367 C371 0.929 . S
H368 C377 0.929 . S
C369 H363 0.930 . S
C369 C370 1.367 . S
C369 C377 1.378 . S
C370 C369 1.367 . S
C370 C378 1.429 1_556 S
C371 H367 0.929 . S
C371 C373 1.378 . S
C371 C375 1.350 . S
C372 C375 1.463 . S
C372 C377 1.350 . S
C372 N380 1.427 . S
C373 H364 0.930 . S
C373 C371 1.378 . S
C373 C374 1.367 . S
C374 C373 1.367 . S
C374 C376 1.433 . S
C375 C371 1.350 . S
C375 C372 1.463 . S
C375 N379 1.427 . S
C376 H366 0.929 . S
C376 C374 1.433 . S
C376 N379 1.384 . S
C377 H368 0.929 . S
C377 C369 1.378 . S
C377 C372 1.350 . S
C378 H365 0.937 . S
C378 C370 1.429 1_554 S
C378 N380 1.380 1_554 S
N379 C375 1.427 . S
N379 C376 1.384 . S
N380 C372 1.427 . S
N380 C378 1.380 1_556 S
H381 C387 0.930 . S
H382 C391 0.930 . S
H383 C396 0.929 . S
H384 C394 0.929 . S
H385 C389 0.929 . S
H386 C395 0.929 . S
C387 H381 0.930 . S
C387 C388 1.367 . S
C387 C395 1.378 . S
C388 C387 1.367 . S
C388 C396 1.433 . S
C389 H385 0.929 . S
C389 C391 1.378 . S
C389 C393 1.350 . S
C390 C393 1.463 1_554 S
C390 C395 1.350 . S
C390 N398 1.427 . S
C391 H382 0.930 . S
C391 C389 1.378 . S
C391 C392 1.367 . S
C392 C391 1.367 . S
C392 C394 1.433 . S
C393 C389 1.350 . S
C393 C390 1.463 1_556 S
C393 N397 1.427 . S
C394 H384 0.929 . S
C394 C392 1.433 . S
C394 N397 1.384 . S
C395 H386 0.929 . S
C395 C387 1.378 . S
C395 C390 1.350 . S
C396 H383 0.929 . S
C396 C388 1.433 . S
C396 N398 1.384 . S
N397 C393 1.427 . S
N397 C394 1.384 . S
N398 C390 1.427 . S
N398 C396 1.384 . S
H399 C405 0.930 . S
H400 C409 0.930 . S
H401 C414 0.929 . S
H402 C412 0.929 . S
H403 C407 0.929 . S
H404 C413 0.929 . S
C405 H399 0.930 . S
C405 C406 1.367 . S
C405 C413 1.378 1_554 S
C406 C405 1.367 . S
C406 C414 1.433 . S
C407 H403 0.929 . S
C407 C409 1.378 . S
C407 C411 1.350 . S
C408 C411 1.463 . S
C408 C413 1.350 . S
C408 N416 1.427 . S
C409 H400 0.930 . S
C409 C407 1.378 . S
C409 C410 1.367 . S
C410 C409 1.367 . S
C410 C412 1.433 . S
C411 C407 1.350 . S
C411 C408 1.463 . S
C411 N415 1.427 . S
C412 H402 0.929 . S
C412 C410 1.433 . S
C412 N415 1.384 . S
C413 H404 0.929 . S
C413 C405 1.378 1_556 S
C413 C408 1.350 . S
C414 H401 0.929 . S
C414 C406 1.433 . S
C414 N416 1.384 1_554 S
N415 C411 1.427 . S
N415 C412 1.384 . S
N416 C408 1.427 . S
N416 C414 1.384 1_556 S
H417 C423 0.930 . S
H418 C427 0.930 . S
H419 C432 0.929 . S
H420 C430 0.929 . S
H421 C425 0.929 . S
H422 C431 0.929 . S
C423 H417 0.930 . S
C423 C424 1.367 . S
C423 C431 1.378 . S
C424 C423 1.367 . S
C424 C432 1.433 1_554 S
C425 H421 0.929 . S
C425 C427 1.378 . S
C425 C429 1.350 . S
C426 C429 1.463 . S
C426 C431 1.350 1_556 S
C426 N434 1.427 . S
C427 H418 0.930 . S
C427 C425 1.378 . S
C427 C428 1.367 . S
C428 C427 1.367 . S
C428 C430 1.433 . S
C429 C425 1.350 . S
C429 C426 1.463 . S
C429 N433 1.427 . S
C430 H420 0.929 . S
C430 C428 1.433 . S
C430 N433 1.384 . S
C431 H422 0.929 . S
C431 C423 1.378 . S
C431 C426 1.350 1_554 S
C432 H419 0.929 . S
C432 C424 1.433 1_556 S
C432 N434 1.384 . S
N433 C429 1.427 . S
N433 C430 1.384 . S
N434 C426 1.427 . S
N434 C432 1.384 . S
H435 C441 0.930 . S
H436 C445 0.930 . S
H437 C450 0.929 . S
H438 C448 0.929 . S
H439 C443 0.929 . S
H440 C449 0.929 . S
C441 H435 0.930 . S
C441 C442 1.367 . S
C441 C449 1.378 . S
C442 C441 1.367 . S
C442 C450 1.433 . S
C443 H439 0.929 . S
C443 C445 1.378 . S
C443 C447 1.350 . S
C444 C447 1.463 . S
C444 C449 1.350 . S
C444 N452 1.427 . S
C445 H436 0.930 . S
C445 C443 1.378 . S
C445 C446 1.367 . S
C446 C445 1.367 . S
C446 C448 1.433 . S
C447 C443 1.350 . S
C447 C444 1.463 . S
C447 N451 1.427 . S
C448 H438 0.929 . S
C448 C446 1.433 . S
C448 N451 1.384 . S
C449 H440 0.929 . S
C449 C441 1.378 . S
C449 C444 1.350 . S
C450 H437 0.929 . S
C450 C442 1.433 . S
C450 N452 1.384 . S
N451 C447 1.427 . S
N451 C448 1.384 . S
N452 C444 1.427 . S
N452 C450 1.384 . S
H453 C459 0.930 . S
H454 C463 0.930 . S
H455 C468 0.929 . S
H456 C466 0.929 . S
H457 C461 0.929 . S
H458 C467 0.929 . S
C459 H453 0.930 . S
C459 C460 1.367 . S
C459 C467 1.378 . S
C460 C459 1.367 . S
C460 C468 1.433 1_556 S
C461 H457 0.929 . S
C461 C463 1.378 . S
C461 C465 1.350 . S
C462 C465 1.463 . S
C462 C467 1.350 . S
C462 N470 1.427 . S
C463 H454 0.930 . S
C463 C461 1.378 . S
C463 C464 1.367 . S
C464 C463 1.367 . S
C464 C466 1.433 . S
C465 C461 1.350 . S
C465 C462 1.463 . S
C465 N469 1.427 . S
C466 H456 0.929 . S
C466 C464 1.433 . S
C466 N469 1.384 . S
C467 H458 0.929 . S
C467 C459 1.378 . S
C467 C462 1.350 . S
C468 H455 0.929 . S
C468 C460 1.433 1_554 S
C468 N470 1.384 1_554 S
N469 C465 1.427 . S
N469 C466 1.384 . S
N470 C462 1.427 . S
N470 C468 1.384 1_556 S
H471 C477 0.930 . S
H472 C481 0.930 . S
H473 C486 0.929 1_556 S
H474 C484 0.929 . S
H475 C479 0.929 . S
H476 C485 0.929 . S
C477 H471 0.930 . S
C477 C478 1.367 . S
C477 C485 1.378 . S
C478 C477 1.367 . S
C478 C486 1.433 . S
C479 H475 0.929 . S
C479 C481 1.378 . S
C479 C483 1.350 . S
C480 C483 1.463 1_554 S
C480 C485 1.350 . S
C480 N488 1.427 1_554 S
C481 H472 0.930 . S
C481 C479 1.378 . S
C481 C482 1.367 . S
C482 C481 1.367 . S
C482 C484 1.433 . S
C483 C479 1.350 . S
C483 C480 1.463 1_556 S
C483 N487 1.427 . S
C484 H474 0.929 . S
C484 C482 1.433 . S
C484 N487 1.384 . S
C485 H476 0.929 . S
C485 C477 1.378 . S
C485 C480 1.350 . S
C486 H473 0.929 1_554 S
C486 C478 1.433 . S
C486 N488 1.384 1_554 S
N487 C483 1.427 . S
N487 C484 1.384 . S
N488 C480 1.427 1_556 S
N488 C486 1.384 1_556 S
H489 C495 0.930 . S
H490 C499 0.930 . S
H491 C504 0.929 . S
H492 C502 0.929 . S
H493 C497 0.929 . S
H494 C503 0.929 . S
C495 H489 0.930 . S
C495 C496 1.367 1_556 S
C495 C503 1.378 . S
C496 C495 1.367 1_554 S
C496 C504 1.433 . S
C497 H493 0.929 . S
C497 C499 1.378 . S
C497 C501 1.350 . S
C498 C501 1.463 . S
C498 C503 1.350 . S
C498 N506 1.427 1_556 S
C499 H490 0.930 . S
C499 C497 1.378 . S
C499 C500 1.367 . S
C500 C499 1.367 . S
C500 C502 1.433 . S
C501 C497 1.350 . S
C501 C498 1.463 . S
C501 N505 1.427 . S
C502 H492 0.929 . S
C502 C500 1.433 . S
C502 N505 1.384 . S
C503 H494 0.929 . S
C503 C495 1.378 . S
C503 C498 1.350 . S
C504 H491 0.929 . S
C504 C496 1.433 . S
C504 N506 1.384 . S
N505 C501 1.427 . S
N505 C502 1.384 . S
N506 C498 1.427 1_554 S
N506 C504 1.384 . S
H507 C513 0.930 . S
H508 C517 0.930 . S
H509 C522 0.929 . S
H510 C520 0.929 . S
H511 C515 0.929 . S
H512 C521 0.929 . S
C513 H507 0.930 . S
C513 C514 1.367 1_556 S
C513 C521 1.378 . S
C514 C513 1.367 1_554 S
C514 C522 1.433 . S
C515 H511 0.929 . S
C515 C517 1.378 . S
C515 C519 1.350 . S
C516 C519 1.463 . S
C516 C521 1.350 . S
C516 N524 1.427 . S
C517 H508 0.930 . S
C517 C515 1.378 . S
C517 C518 1.367 . S
C518 C517 1.367 . S
C518 C520 1.433 . S
C519 C515 1.350 . S
C519 C516 1.463 . S
C519 N523 1.427 . S
C520 H510 0.929 . S
C520 C518 1.433 . S
C520 N523 1.384 . S
C521 H512 0.929 . S
C521 C513 1.378 . S
C521 C516 1.350 . S
C522 H509 0.929 . S
C522 C514 1.433 . S
C522 N524 1.384 1_554 S
N523 C519 1.427 . S
N523 C520 1.384 . S
N524 C516 1.427 . S
N524 C522 1.384 1_556 S
H525 C531 0.930 . S
H526 C535 0.930 . S
H527 C540 0.929 . S
H528 C538 0.929 . S
H529 C533 0.929 . S
H530 C539 0.929 . S
C531 H525 0.930 . S
C531 C532 1.367 . S
C531 C539 1.378 . S
C532 C531 1.367 . S
C532 C540 1.433 . S
C533 H529 0.929 . S
C533 C535 1.378 . S
C533 C537 1.350 . S
C534 C537 1.463 . S
C534 C539 1.350 . S
C534 N542 1.427 . S
C535 H526 0.930 . S
C535 C533 1.378 . S
C535 C536 1.367 . S
C536 C535 1.367 . S
C536 C538 1.433 . S
C537 C533 1.350 . S
C537 C534 1.463 . S
C537 N541 1.427 . S
C538 H528 0.929 . S
C538 C536 1.433 . S
C538 N541 1.384 . S
C539 H530 0.929 . S
C539 C531 1.378 . S
C539 C534 1.350 . S
C540 H527 0.929 . S
C540 C532 1.433 . S
C540 N542 1.384 . S
N541 C537 1.427 . S
N541 C538 1.384 . S
N542 C534 1.427 . S
N542 C540 1.384 . S
H543 C549 0.930 . S
H544 C553 0.930 . S
H545 C558 0.929 . S
H546 C556 0.929 . S
H547 C551 0.929 . S
H548 C557 0.929 . S
C549 H543 0.930 . S
C549 C550 1.367 . S
C549 C557 1.378 . S
C550 C549 1.367 . S
C550 C558 1.433 . S
C551 H547 0.929 . S
C551 C553 1.378 . S
C551 C555 1.350 . S
C552 C555 1.463 . S
C552 C557 1.350 . S
C552 N560 1.427 . S
C553 H544 0.930 . S
C553 C551 1.378 . S
C553 C554 1.367 . S
C554 C553 1.367 . S
C554 C556 1.433 . S
C555 C551 1.350 . S
C555 C552 1.463 . S
C555 N559 1.427 . S
C556 H546 0.929 . S
C556 C554 1.433 . S
C556 N559 1.384 . S
C557 H548 0.929 . S
C557 C549 1.378 . S
C557 C552 1.350 . S
C558 H545 0.929 . S
C558 C550 1.433 . S
C558 N560 1.384 . S
N559 C555 1.427 . S
N559 C556 1.384 . S
N560 C552 1.427 . S
N560 C558 1.384 . S
H561 C567 0.930 . S
H562 C571 0.930 . S
H563 C576 0.929 . S
H564 C574 0.929 . S
H565 C569 0.929 . S
H566 C575 0.929 . S
C567 H561 0.930 . S
C567 C568 1.367 . S
C567 C575 1.378 . S
C568 C567 1.367 . S
C568 C576 1.433 . S
C569 H565 0.929 . S
C569 C571 1.378 . S
C569 C573 1.350 . S
C570 C573 1.463 . S
C570 C575 1.350 . S
C570 N578 1.427 . S
C571 H562 0.930 . S
C571 C569 1.378 . S
C571 C572 1.367 . S
C572 C571 1.367 . S
C572 C574 1.433 . S
C573 C569 1.350 . S
C573 C570 1.463 . S
C573 N577 1.427 . S
C574 H564 0.929 . S
C574 C572 1.433 . S
C574 N577 1.384 . S
C575 H566 0.929 . S
C575 C567 1.378 . S
C575 C570 1.350 . S
C576 H563 0.929 . S
C576 C568 1.433 . S
C576 N578 1.384 . S
N577 C573 1.427 . S
N577 C574 1.384 . S
N578 C570 1.427 . S
N578 C576 1.384 . S
H579 C585 0.930 . S
H580 C589 0.930 . S
H581 C594 0.929 . S
H582 C592 0.929 . S
H583 C587 0.929 . S
H584 C593 0.929 . S
C585 H579 0.930 . S
C585 C586 1.367 . S
C585 C593 1.378 . S
C586 C585 1.367 . S
C586 C594 1.433 . S
C587 H583 0.929 . S
C587 C589 1.378 . S
C587 C591 1.350 . S
C588 C591 1.463 . S
C588 C593 1.350 . S
C588 N596 1.427 . S
C589 H580 0.930 . S
C589 C587 1.378 . S
C589 C590 1.367 . S
C590 C589 1.367 . S
C590 C592 1.433 . S
C591 C587 1.350 . S
C591 C588 1.463 . S
C591 N595 1.427 . S
C592 H582 0.929 . S
C592 C590 1.433 . S
C592 N595 1.384 . S
C593 H584 0.929 . S
C593 C585 1.378 . S
C593 C588 1.350 . S
C594 H581 0.929 . S
C594 C586 1.433 . S
C594 N596 1.384 . S
N595 C591 1.427 . S
N595 C592 1.384 . S
N596 C588 1.427 . S
N596 C594 1.384 . S
H597 C603 0.930 . S
H598 C607 0.930 . S
H599 C612 0.929 . S
H600 C610 0.929 . S
H601 C605 0.929 . S
H602 C611 0.929 . S
C603 H597 0.930 . S
C603 C604 1.367 . S
C603 C611 1.378 . S
C604 C603 1.367 . S
C604 C612 1.433 . S
C605 H601 0.929 . S
C605 C607 1.378 . S
C605 C609 1.350 . S
C606 C609 1.463 . S
C606 C611 1.350 . S
C606 N614 1.427 . S
C607 H598 0.930 . S
C607 C605 1.378 . S
C607 C608 1.367 . S
C608 C607 1.367 . S
C608 C610 1.433 . S
C609 C605 1.350 . S
C609 C606 1.463 . S
C609 N613 1.427 . S
C610 H600 0.929 . S
C610 C608 1.433 . S
C610 N613 1.384 . S
C611 H602 0.929 . S
C611 C603 1.378 . S
C611 C606 1.350 . S
C612 H599 0.929 . S
C612 C604 1.433 . S
C612 N614 1.384 . S
N613 C609 1.427 . S
N613 C610 1.384 . S
N614 C606 1.427 . S
N614 C612 1.384 . S
H615 C621 0.930 . S
H616 C625 0.930 . S
H617 C630 0.929 . S
H618 C628 0.929 . S
H619 C623 0.929 . S
H620 C629 0.929 . S
C621 H615 0.930 . S
C621 C622 1.367 . S
C621 C629 1.378 . S
C622 C621 1.367 . S
C622 C630 1.433 . S
C623 H619 0.929 . S
C623 C625 1.378 . S
C623 C627 1.350 . S
C624 C627 1.463 . S
C624 C629 1.350 . S
C624 N632 1.427 . S
C625 H616 0.930 . S
C625 C623 1.378 . S
C625 C626 1.367 . S
C626 C625 1.367 . S
C626 C628 1.433 . S
C627 C623 1.350 . S
C627 C624 1.463 . S
C627 N631 1.427 . S
C628 H618 0.929 . S
C628 C626 1.433 . S
C628 N631 1.384 . S
C629 H620 0.929 . S
C629 C621 1.378 . S
C629 C624 1.350 . S
C630 H617 0.929 . S
C630 C622 1.433 . S
C630 N632 1.384 . S
N631 C627 1.427 . S
N631 C628 1.384 . S
N632 C624 1.427 . S
N632 C630 1.384 . S
H633 C639 0.930 . S
H634 C643 0.930 . S
H635 C648 0.929 . S
H636 C646 0.929 . S
H637 C641 0.929 . S
H638 C647 0.929 . S
C639 H633 0.930 . S
C639 C640 1.367 . S
C639 C647 1.378 . S
C640 C639 1.367 . S
C640 C648 1.433 . S
C641 H637 0.929 . S
C641 C643 1.378 . S
C641 C645 1.350 . S
C642 C645 1.463 . S
C642 C647 1.350 . S
C642 N650 1.427 . S
C643 H634 0.930 . S
C643 C641 1.378 . S
C643 C644 1.367 . S
C644 C643 1.367 . S
C644 C646 1.433 . S
C645 C641 1.350 . S
C645 C642 1.463 . S
C645 N649 1.427 . S
C646 H636 0.929 . S
C646 C644 1.433 . S
C646 N649 1.384 . S
C647 H638 0.929 . S
C647 C639 1.378 . S
C647 C642 1.350 . S
C648 H635 0.929 . S
C648 C640 1.433 . S
C648 N650 1.384 . S
N649 C645 1.427 . S
N649 C646 1.384 . S
N650 C642 1.427 . S
N650 C648 1.384 . S
C226 C12 1.757 . S
C230 C137 1.853 . S
C244 C40 1.599 . S
C248 C184 1.611 . S
C266 C188 1.793 . S
C262 C61 1.831 . S
C284 C153 1.510 . S
C280 C82 1.526 . S
C298 C96 1.681 . S
C302 C168 1.753 . S
C320 C190 1.142 . S
C316 C117 1.075 . S
C338 C159 1.550 . S
C334 C51 1.529 . S
C352 C72 1.450 . S
C356 C199 1.439 . S
C374 C128 1.422 . S
C370 C101 1.373 1_556 S
C388 C122 1.410 . S
C392 C157 1.462 . S
C406 C17 1.846 . S
C410 C215 1.899 . S
C428 C126 1.544 . S
C424 C30 1.523 . S
C446 C144 1.838 . S
C442 C80 1.835 1_556 S
C464 C158 1.610 . S
C460 C93 1.550 1_556 S
C482 C212 1.795 . S
C478 C114 1.757 . S
C500 C127 1.504 . S
C496 C9 1.473 . S
C518 C175 1.731 . S
C514 C38 1.776 . S
C532 C59 1.093 . S
C536 C198 1.124 . S
C554 C167 1.523 . S
C550 C124 1.472 . S
C572 C206 1.401 . S
C568 C19 1.361 . S
C590 C136 1.403 . S
C586 C33 1.409 . S
C608 C181 1.430 . S
C604 C54 1.433 . S
C622 C75 1.867 . S
C626 C189 1.890 . S
C640 C103 1.468 . S
C644 C150 1.518 . S
