# Generated by pormake.
# Topology pyr, (3,6)-cn, num edge types: 1
# Building blocks:
#     Node 0, Type 0, BuildingBlock: PAMTOO_clean_linker_0, # of connection points: 3
#     Node 1, Type 0, BuildingBlock: PAMTOO_clean_linker_0, # of connection points: 3
#     Node 2, Type 0, BuildingBlock: PAMTOO_clean_linker_0, # of connection points: 3
#     Node 3, Type 0, BuildingBlock: PAMTOO_clean_linker_0, # of connection points: 3
#     Node 4, Type 0, BuildingBlock: PAMTOO_clean_linker_0, # of connection points: 3
#     Node 5, Type 0, BuildingBlock: PAMTOO_clean_linker_0, # of connection points: 3
#     Node 6, Type 0, BuildingBlock: PAMTOO_clean_linker_0, # of connection points: 3
#     Node 7, Type 0, BuildingBlock: PAMTOO_clean_linker_0, # of connection points: 3
#     Node 8, Type 1, BuildingBlock: PAMTUU_clean_sbu_0, # of connection points: 6
#     Node 9, Type 1, BuildingBlock: PAMTUU_clean_sbu_0, # of connection points: 6
#     Node 10, Type 1, BuildingBlock: PAMTUU_clean_sbu_0, # of connection points: 6
#     Node 11, Type 1, BuildingBlock: PAMTUU_clean_sbu_0, # of connection points: 6
#     Edge 12, Type (0, 1), BuildingBlock: EZIPEK_clean_linker_0, # of connection points: 2
#     Edge 13, Type (0, 1), BuildingBlock: EZIPEK_clean_linker_0, # of connection points: 2
#     Edge 14, Type (0, 1), BuildingBlock: EZIPEK_clean_linker_0, # of connection points: 2
#     Edge 15, Type (0, 1), BuildingBlock: EZIPEK_clean_linker_0, # of connection points: 2
#     Edge 16, Type (0, 1), BuildingBlock: EZIPEK_clean_linker_0, # of connection points: 2
#     Edge 17, Type (0, 1), BuildingBlock: EZIPEK_clean_linker_0, # of connection points: 2
#     Edge 18, Type (0, 1), BuildingBlock: EZIPEK_clean_linker_0, # of connection points: 2
#     Edge 19, Type (0, 1), BuildingBlock: EZIPEK_clean_linker_0, # of connection points: 2
#     Edge 20, Type (0, 1), BuildingBlock: EZIPEK_clean_linker_0, # of connection points: 2
#     Edge 21, Type (0, 1), BuildingBlock: EZIPEK_clean_linker_0, # of connection points: 2
#     Edge 22, Type (0, 1), BuildingBlock: EZIPEK_clean_linker_0, # of connection points: 2
#     Edge 23, Type (0, 1), BuildingBlock: EZIPEK_clean_linker_0, # of connection points: 2
#     Edge 24, Type (0, 1), BuildingBlock: EZIPEK_clean_linker_0, # of connection points: 2
#     Edge 25, Type (0, 1), BuildingBlock: EZIPEK_clean_linker_0, # of connection points: 2
#     Edge 26, Type (0, 1), BuildingBlock: EZIPEK_clean_linker_0, # of connection points: 2
#     Edge 27, Type (0, 1), BuildingBlock: EZIPEK_clean_linker_0, # of connection points: 2
#     Edge 28, Type (0, 1), BuildingBlock: EZIPEK_clean_linker_0, # of connection points: 2
#     Edge 29, Type (0, 1), BuildingBlock: EZIPEK_clean_linker_0, # of connection points: 2
#     Edge 30, Type (0, 1), BuildingBlock: EZIPEK_clean_linker_0, # of connection points: 2
#     Edge 31, Type (0, 1), BuildingBlock: EZIPEK_clean_linker_0, # of connection points: 2
#     Edge 32, Type (0, 1), BuildingBlock: EZIPEK_clean_linker_0, # of connection points: 2
#     Edge 33, Type (0, 1), BuildingBlock: EZIPEK_clean_linker_0, # of connection points: 2
#     Edge 34, Type (0, 1), BuildingBlock: EZIPEK_clean_linker_0, # of connection points: 2
#     Edge 35, Type (0, 1), BuildingBlock: EZIPEK_clean_linker_0, # of connection points: 2
# Relax obj value: 0.253
# Max RMSD: 0.255
# Mean RMSD: 0.150
data_MOF--net-pyr--node1-PAMTUU_clean_sbu_0--node2-PAMTOO_clean_linker_0--edge1-EZIPEK_clean_linker_0
_symmetry_space_group_name_H-M    P1
_symmetry_Int_Tables_number       1
_symmetry_cell_setting            triclinic
loop_
_symmetry_equiv_pos_as_xyz
'x, y, z'
_cell_length_a     27.279343
_cell_length_b     29.532438
_cell_length_c     28.214737
_cell_angle_alpha  90.917697
_cell_angle_beta   89.519093
_cell_angle_gamma 107.74361
loop_
_atom_site_label
_atom_site_type_symbol
_atom_site_fract_x
_atom_site_fract_y
_atom_site_fract_z
_atom_type_partial_charge
H0 H 0.33963 0.36405 0.31724 0.0
H1 H 0.45918 0.29781 0.31506 0.0
H2 H 0.42723 0.36439 0.19009 0.0
H3 H 0.41705 0.26732 0.17948 0.0
C4 C 0.44471 0.26251 0.20626 0.0
O5 O 0.47351 0.30636 0.22424 0.0
H6 H 0.4199 0.2408 0.23438 0.0
C7 C 0.37293 0.35845 0.29974 0.0
C8 C 0.3823 0.37008 0.25193 0.0
C9 C 0.40085 0.33269 0.32274 0.0
C10 C 0.4407 0.32128 0.29873 0.0
C11 C 0.44952 0.33186 0.25064 0.0
C12 C 0.42242 0.35874 0.22792 0.0
H13 H 0.19382 0.87703 0.76348 0.0
H14 H 0.13471 0.79845 0.63587 0.0
H15 H 0.2298 0.74821 0.72957 0.0
H16 H 0.2136 0.76368 0.58828 0.0
C17 C 0.21416 0.73479 0.61269 0.0
O18 O 0.17958 0.73214 0.64951 0.0
H19 H 0.19958 0.70243 0.59003 0.0
C20 C 0.18894 0.84596 0.74079 0.0
C21 C 0.21494 0.81316 0.75129 0.0
C22 C 0.1594 0.84066 0.69965 0.0
C23 C 0.15594 0.80199 0.66871 0.0
C24 C 0.18155 0.76874 0.67952 0.0
C25 C 0.20966 0.77361 0.72153 0.0
H26 H 0.75813 0.35092 0.97118 0.0
H27 H 0.6471 0.3366 0.85941 0.0
H28 H 0.7725 0.46682 0.87571 0.0
H29 H 0.64556 0.45733 0.84278 0.0
C30 C 0.65382 0.43913 0.81043 0.0
O31 O 0.69555 0.4217 0.81931 0.0
H32 H 0.61885 0.40799 0.80614 0.0
C33 C 0.74366 0.36581 0.94146 0.0
C34 C 0.77095 0.41234 0.92691 0.0
C35 C 0.69798 0.33812 0.91896 0.0
C36 C 0.68083 0.35777 0.8784 0.0
C37 C 0.70748 0.40465 0.86212 0.0
C38 C 0.75157 0.43155 0.88781 0.0
H39 H 0.87989 0.78009 0.47931 0.0
H40 H 0.87469 0.66343 0.3837 0.0
H41 H 0.99929 0.79497 0.37381 0.0
H42 H 0.93083 0.71917 0.27502 0.0
C43 C 0.94137 0.68983 0.29202 0.0
O44 O 0.96206 0.70546 0.33742 0.0
H45 H 0.90368 0.66211 0.29687 0.0
C46 C 0.89639 0.76564 0.44985 0.0
C47 C 0.94296 0.79402 0.42939 0.0
C48 C 0.87082 0.71888 0.4335 0.0
C49 C 0.89326 0.69965 0.3955 0.0
C50 C 0.93917 0.72663 0.37237 0.0
C51 C 0.96349 0.77416 0.38983 0.0
H52 H 0.70645 0.88092 0.86203 0.0
H53 H 0.6958 0.86127 1.01309 0.0
H54 H 0.79354 0.80155 0.92996 0.0
H55 H 0.71486 0.74295 1.01328 0.0
C56 C 0.75209 0.76565 1.02735 0.0
O57 O 0.76065 0.81271 1.01612 0.0
H58 H 0.74579 0.76125 0.06611 0.0
C59 C 0.71629 0.86522 0.89365 0.0
C60 C 0.75085 0.83851 0.8908 0.0
C61 C 0.6974 0.8746 0.93781 0.0
C62 C 0.70997 0.85403 0.97868 0.0
C63 C 0.74388 0.82705 0.9759 0.0
C64 C 0.76482 0.81988 0.93202 0.0
H65 H 0.92031 0.21841 0.39075 0.0
H66 H 0.88722 0.35104 0.40948 0.0
H67 H 0.9819 0.30943 0.51054 0.0
H68 H 0.93015 0.40949 0.54808 0.0
C69 C 0.90988 0.37815 0.5258 0.0
O70 O 0.94102 0.37575 0.48756 0.0
H71 H 0.90629 0.34842 0.55043 0.0
C72 C 0.92556 0.25147 0.4103 0.0
C73 C 0.95431 0.26009 0.4522 0.0
C74 C 0.90102 0.28389 0.39502 0.0
C75 C 0.90663 0.32609 0.42085 0.0
C76 C 0.93608 0.33536 0.46234 0.0
C77 C 0.96006 0.3025 0.47789 0.0
H78 H 0.36219 0.76973 0.14653 0.0
H79 H 0.35484 0.66011 0.24757 0.0
H80 H 0.47973 0.79152 0.25381 0.0
H81 H 0.50825 0.70372 0.28972 0.0
C82 C 0.47005 0.68256 0.30364 0.0
O83 O 0.43553 0.70923 0.29864 0.0
H84 H 0.45864 0.65122 0.2793 0.0
C85 C 0.37887 0.75704 0.17632 0.0
C86 C 0.42472 0.78741 0.19706 0.0
C87 C 0.35391 0.71053 0.19279 0.0
C88 C 0.3746 0.69472 0.23322 0.0
C89 C 0.4199 0.72351 0.25604 0.0
C90 C 0.44504 0.7694 0.23686 0.0
H91 H 0.10236 0.32531 0.8226 0.0
H92 H 0.22109 0.45965 0.80142 0.0
H93 H 0.20688 0.34397 0.70326 0.0
H94 H 0.31467 0.40266 0.73608 0.0
C95 C 0.30957 0.43742 0.72705 0.0
O96 O 0.25739 0.43249 0.72178 0.0
H97 H 0.32431 0.46023 0.7587 0.0
C98 C 0.13484 0.34729 0.80279 0.0
C99 C 0.15164 0.32771 0.76058 0.0
C100 C 0.15979 0.39559 0.81896 0.0
C101 C 0.20184 0.42306 0.79118 0.0
C102 C 0.21907 0.40441 0.74988 0.0
C103 C 0.19385 0.35737 0.73541 0.0
Tb104 Tb 0.11198 0.0743 0.57662 0.0
Tb105 Tb 0.99906 1.04289 0.62105 0.0
C106 C 1.0249 0.97924 0.53695 0.0
C107 C 0.24216 0.13935 0.52992 0.0
C108 C 0.30622 0.21565 0.4797 0.0
C109 C 0.31765 0.17253 0.48139 0.0
C110 C 0.28565 0.13447 0.50639 0.0
C111 C 0.23307 0.18364 0.53157 0.0
C112 C 0.26509 0.22181 0.50647 0.0
C113 C 0.20442 0.09701 0.54862 0.0
O114 O 0.06998 0.10593 0.52867 0.0
O115 O 1.00145 0.1032 0.57758 0.0
O116 O 0.04467 0.10311 0.66726 0.0
O117 O 0.10833 0.13964 0.61496 0.0
O118 O 0.91896 1.02523 0.61315 0.0
O119 O 0.95389 1.02857 0.68235 0.0
O120 O 0.03327 0.98745 0.63882 0.0
O121 O 0.11284 1.03892 0.64331 0.0
O122 O 0.07445 1.00216 0.54405 0.0
O123 O 0.98957 0.99463 0.55839 0.0
C124 C 0.0292 0.1187 0.53967 0.0
O125 O 0.19069 0.09975 0.59254 0.0
O126 O 0.16501 0.07758 0.52146 0.0
C127 C 0.08254 0.14124 0.65457 0.0
C128 C 0.87628 0.96969 0.67001 0.0
C129 C 0.82789 0.88476 0.71605 0.0
C130 C 0.81149 0.92496 0.72416 0.0
C131 C 0.83571 0.9673 0.70129 0.0
C132 C 0.88869 0.9282 0.65753 0.0
C133 C 0.86403 0.88552 0.68023 0.0
C134 C 0.91115 1.01629 0.65816 0.0
C135 C 0.08151 0.99657 0.65073 0.0
H136 H 0.34891 0.16722 0.46034 0.0
H137 H 0.29314 0.10048 0.50506 0.0
H138 H 0.19976 0.18788 0.55003 0.0
H139 H 0.25548 0.25474 0.50484 0.0
H140 H 0.7835 0.9249 0.75168 0.0
H141 H 0.82582 0.99906 0.71117 0.0
H142 H 0.92014 0.92973 0.63327 0.0
H143 H 0.87668 0.85465 0.67327 0.0
Tb144 Tb 0.61207 0.07418 0.09155 0.0
Tb145 Tb 0.50877 0.05324 1.02701 0.0
C146 C 0.59639 1.0073 1.0031 0.0
C147 C 0.72221 0.12582 0.17287 0.0
C148 C 0.77963 0.19465 0.23686 0.0
C149 C 0.7953 0.15485 0.22515 0.0
C150 C 0.76667 0.12056 0.19332 0.0
C151 C 0.70781 0.16681 0.1827 0.0
C152 C 0.73646 0.20117 0.2147 0.0
C153 C 0.68946 0.08676 0.1442 0.0
O154 O 0.63014 0.13974 0.04948 0.0
O155 O 0.56207 0.11973 0.99732 0.0
O156 O 0.49895 0.10553 0.07736 0.0
O157 O 0.57195 0.12036 0.12335 0.0
O158 O 0.47941 1.048 0.9582 0.0
O159 O 0.42881 1.0373 1.01916 0.0
O160 O 0.484 0.99845 0.08213 0.0
O161 O 0.56303 1.00141 0.11146 0.0
O162 O 0.62906 1.04103 1.0274 0.0
O163 O 0.54682 1.00146 1.00436 0.0
C164 C 0.60613 0.14978 1.01241 0.0
O165 O 0.64199 0.06973 0.15876 0.0
O166 O 0.6924 0.09229 0.09846 0.0
C167 C 0.52885 0.12835 0.11166 0.0
C168 C 0.39857 0.99122 0.95109 0.0
C169 C 0.33958 0.9119 0.89977 0.0
C170 C 0.32318 0.95238 0.90444 0.0
C171 C 0.35255 0.99189 0.9301 0.0
C172 C 0.4137 0.94984 0.94849 0.0
C173 C 0.38403 0.91007 0.9232 0.0
C174 C 0.43187 1.03461 0.97317 0.0
C175 C 0.51283 0.97988 0.10812 0.0
H176 H 0.82842 0.14935 0.24225 0.0
H177 H 0.77819 0.08912 0.18597 0.0
H178 H 0.67351 0.17131 0.167 0.0
H179 H 0.72386 0.23165 0.22372 0.0
H180 H 0.289 0.95419 0.88626 0.0
H181 H 0.34043 1.02358 0.93198 0.0
H182 H 0.4495 0.9491 0.96416 0.0
H183 H 0.39724 0.87912 0.91947 0.0
Tb184 Tb 0.57089 0.52563 0.53006 0.0
Tb185 Tb 0.5757 0.62096 0.59051 0.0
C186 C 0.52907 0.60518 0.48297 0.0
C187 C 0.619 0.42935 0.48652 0.0
C188 C 0.70986 0.40289 0.48916 0.0
C189 C 0.67689 0.39551 0.52857 0.0
C190 C 0.63175 0.40849 0.52728 0.0
C191 C 0.6504 0.43359 0.446 0.0
C192 C 0.6955 0.42048 0.44731 0.0
C193 C 0.57699 0.4515 0.48757 0.0
O194 O 0.65106 0.57164 0.52088 0.0
O195 O 0.64943 0.64375 0.55212 0.0
O196 O 0.62309 0.58758 0.63383 0.0
O197 O 0.5916 0.51204 0.60337 0.0
O198 O 0.58641 0.69465 0.5945 0.0
O199 O 0.55744 0.6506 0.65427 0.0
O200 O 0.50874 0.56486 0.61674 0.0
O201 O 0.4907 0.51313 0.55375 0.0
O202 O 0.54284 0.56631 0.47709 0.0
O203 O 0.53315 0.62655 0.52496 0.0
C204 C 0.67251 0.61783 0.52739 0.0
O205 O 0.55305 0.4511 0.52775 0.0
O206 O 0.58767 0.49293 0.46786 0.0
C207 C 0.61612 0.54121 0.63752 0.0
C208 C 0.51635 0.70761 0.63647 0.0
C209 C 0.42167 0.72792 0.6418 0.0
C210 C 0.45687 0.74066 0.67949 0.0
C211 C 0.50385 0.73028 0.67693 0.0
C212 C 0.48156 0.69641 0.59842 0.0
C213 C 0.43475 0.70632 0.60111 0.0
C214 C 0.56284 0.6916 0.63517 0.0
C215 C 0.47746 0.52784 0.5949 0.0
H216 H 0.68719 0.3815 0.56098 0.0
H217 H 0.60818 0.40414 0.55896 0.0
H218 H 0.64131 0.44913 0.41399 0.0
H219 H 0.72039 0.42603 0.41643 0.0
H220 H 0.44734 0.75734 0.71125 0.0
H221 H 0.52981 0.73893 0.70687 0.0
H222 H 0.48981 0.67884 0.56688 0.0
H223 H 0.40814 0.69621 0.57171 0.0
Tb224 Tb 0.0713 0.59384 1.02607 0.0
Tb225 Tb 0.06073 0.50623 0.09227 0.0
C226 C 0.10338 0.5032 0.98559 0.0
C227 C 1.0212 0.68037 0.97508 0.0
C228 C 0.93488 0.71299 0.97862 0.0
C229 C 0.97576 0.73393 0.9474 0.0
C230 C 1.01913 0.71768 0.94578 0.0
C231 C 0.9794 0.65909 1.00482 0.0
C232 C 0.93687 0.67529 1.00683 0.0
C233 C 0.06589 0.66255 0.97634 0.0
O234 O 0.98882 0.55376 1.02526 0.0
O235 O 0.99077 0.48092 0.0485 0.0
O236 O 1.01373 0.54592 0.13008 0.0
O237 O 0.05567 0.61744 0.09899 0.0
O238 O 0.04925 0.43331 0.10247 0.0
O239 O 0.06606 0.4825 0.16132 0.0
O240 O 0.13262 0.56078 0.11461 0.0
O241 O 0.15138 0.60825 0.0496 0.0
O242 O 0.08839 0.54077 0.97631 0.0
O243 O 0.10449 0.49031 1.03021 0.0
C244 C 0.96744 0.50755 1.02666 0.0
O245 O 0.08915 0.66776 1.01704 0.0
O246 O 0.05722 0.61947 0.95997 0.0
C247 C 0.02637 0.59293 0.13322 0.0
C248 C 0.11076 0.42684 0.15775 0.0
C249 C 0.20438 0.41279 0.18264 0.0
C250 C 0.16457 0.40589 0.2162 0.0
C251 C 0.11793 0.41295 0.2038 0.0
C252 C 0.15076 0.43348 0.12426 0.0
C253 C 0.19713 0.42623 0.13655 0.0
C254 C 0.06478 0.4404 0.14623 0.0
C255 C 0.16451 0.59607 0.09128 0.0
H256 H 0.97454 0.76328 0.92541 0.0
H257 H 0.05094 0.73442 0.92237 0.0
H258 H 0.98008 0.63067 1.02782 0.0
H259 H 0.90576 0.6589 1.03114 0.0
H260 H 0.16971 0.39511 0.25187 0.0
H261 H 0.08791 0.40852 0.2303 0.0
H262 H 0.14663 0.44512 0.08877 0.0
H263 H 0.22748 0.43142 0.11029 0.0
C264 C 0.33552 0.26224 0.35615 0.0
C265 C 0.37706 0.3043 0.36423 0.0
C266 C 0.37261 0.28906 0.4495 0.0
C267 C 0.32902 0.24888 0.4413 0.0
N268 N 0.26187 0.20312 0.38889 0.0
N269 N 0.432 0.36147 0.41779 0.0
C270 C 0.30825 0.23739 0.39524 0.0
C271 C 0.39474 0.31893 0.41079 0.0
N272 N 0.32336 0.24485 0.31107 0.0
N273 N 0.39328 0.29781 0.4939 0.0
H274 H 0.44946 0.38339 0.38985 0.0
H275 H 0.4434 0.37646 0.45109 0.0
H276 H 0.37682 0.27722 0.52301 0.0
H277 H 0.42798 0.32367 0.50153 0.0
H278 H 0.29769 0.2114 0.30362 0.0
H279 H 0.34228 0.2616 0.28096 0.0
H280 H 0.24203 0.19736 0.35687 0.0
H281 H 0.24063 0.18323 0.41649 0.0
C282 C 0.30387 0.84903 0.78175 0.0
C283 C 0.25159 0.82408 0.79123 0.0
C284 C 0.26521 0.8424 0.87587 0.0
C285 C 0.31379 0.8749 0.86472 0.0
N286 N 0.38046 0.91019 0.80762 0.0
N287 N 0.18244 0.79272 0.84653 0.0
C288 C 0.33407 0.87763 0.81802 0.0
C289 C 0.23248 0.81872 0.83833 0.0
N290 N 0.3242 0.84628 0.73778 0.0
N291 N 0.25062 0.83488 0.92225 0.0
H292 H 0.15869 0.77317 0.81975 0.0
H293 H 0.16398 0.79149 0.87912 0.0
H294 H 0.27438 0.85204 0.9501 0.0
H295 H 0.21726 0.80923 0.93335 0.0
H296 H 0.36331 0.85947 0.72999 0.0
H297 H 0.30264 0.8269 0.70994 0.0
H298 H 0.39401 0.91846 0.77325 0.0
H299 H 0.40447 0.93143 0.83319 0.0
C300 C 0.65165 0.51708 0.76827 0.0
C301 C 0.65768 0.47068 0.76458 0.0
C302 C 0.65252 0.47892 0.67677 0.0
C303 C 0.63466 0.51969 0.68153 0.0
N304 N 0.60901 0.57139 0.73746 0.0
N305 N 0.65943 0.40625 0.71168 0.0
C306 C 0.63242 0.5373 0.72884 0.0
C307 C 0.65699 0.45144 0.71769 0.0
N308 N 0.66554 0.54295 0.80917 0.0
N309 N 0.66799 0.46744 0.63332 0.0
H310 H 0.66439 0.38561 0.73978 0.0
H311 H 0.65307 0.38834 0.67908 0.0
H312 H 0.66923 0.48819 0.60351 0.0
H313 H 0.68586 0.44115 0.62837 0.0
H314 H 0.66567 0.57818 0.81261 0.0
H315 H 0.68388 0.53169 0.83686 0.0
H316 H 0.60214 0.58201 0.77165 0.0
H317 H 0.59092 0.58489 0.71133 0.0
C318 C 0.99462 0.69209 0.21391 0.0
C319 C 0.9745 0.66814 0.25658 0.0
C320 C 0.99999 0.59917 0.22307 0.0
C321 C 1.00913 0.61927 0.17644 0.0
N322 N 1.00416 0.68575 0.12913 0.0
N323 N 0.957 0.59542 0.29989 0.0
C324 C 1.00381 0.66614 0.17258 0.0
C325 C 0.97691 0.62064 0.26041 0.0
N326 N 1.00613 0.74038 0.21269 0.0
N327 N 1.0166 0.56132 0.2334 0.0
H328 H 0.94358 0.61053 0.32895 0.0
H329 H 0.95142 0.55903 0.30254 0.0
H330 H 0.03837 0.54784 0.20988 0.0
H331 H 1.01513 0.54767 0.26739 0.0
H332 H 1.02498 0.76044 0.18414 0.0
H333 H 1.00324 0.76065 0.24261 0.0
H334 H 0.99524 0.71724 0.1241 0.0
H335 H 1.00662 0.66803 0.09773 0.0
C336 C 0.4909 0.2408 0.13556 0.0
C337 C 0.47846 0.23547 0.18428 0.0
C338 C 0.50756 0.16483 0.18721 0.0
C339 C 0.51418 0.16667 0.13716 0.0
N340 N 0.51097 0.20585 0.06287 0.0
N341 N 0.49407 0.2053 0.25945 0.0
C342 C 0.50606 0.2048 0.11114 0.0
C343 C 0.49294 0.2015 0.21112 0.0
N344 N 0.49025 0.28141 0.11329 0.0
N345 N 0.51111 0.12617 0.21142 0.0
H346 H 0.48566 0.23307 0.27761 0.0
H347 H 0.50881 0.18447 0.2812 0.0
H348 H 0.51987 0.09761 0.19523 0.0
H349 H 0.50093 0.12016 0.24692 0.0
H350 H 0.50397 0.29017 0.07905 0.0
H351 H 0.48115 0.30914 0.13093 0.0
H352 H 0.49847 0.22847 1.04146 0.0
H353 H 0.5256 0.18269 1.04342 0.0
C354 C 0.16827 0.9164 0.65728 0.0
C355 C 0.13843 0.87961 0.68645 0.0
C356 C 0.07553 0.9232 0.69845 0.0
C357 C 0.10228 0.95732 0.66472 0.0
N358 N 0.16811 0.97832 0.60325 0.0
N359 N 0.06064 0.84428 0.73063 0.0
C360 C 0.14728 0.95203 0.64199 0.0
C361 C 0.09103 0.88186 0.70574 0.0
N362 N 0.21723 0.91785 0.64454 0.0
N363 N 0.03693 0.93133 0.72515 0.0
H364 H 0.07141 0.81396 0.73727 0.0
H365 H 1.02322 0.84149 0.74134 0.0
H366 H 0.02592 0.96203 0.7223 0.0
H367 H 1.0194 0.91014 0.75342 0.0
H368 H 0.24295 0.94714 0.62836 0.0
H369 H 0.23386 0.89178 0.65376 0.0
H370 H 0.197 0.97172 0.58245 0.0
H371 H 0.15296 1.00281 0.58804 0.0
C372 C 0.8683 0.45644 0.92708 0.0
C373 C 0.8209 0.43972 0.95236 0.0
C374 C 0.87002 0.46498 1.02726 0.0
C375 C 0.91639 0.48522 1.00145 0.0
N376 N 0.95523 0.51054 0.92522 0.0
N377 N 0.77636 0.4391 1.02668 0.0
C378 C 0.91399 0.48439 0.95095 0.0
C379 C 0.82179 0.44704 1.00259 0.0
N380 N 0.87096 0.44319 0.88075 0.0
N381 N 0.87176 0.46314 0.07552 0.0
H382 H 0.74071 0.42845 1.00982 0.0
H383 H 0.77412 0.44788 0.06235 0.0
H384 H 0.90546 0.47805 0.09478 0.0
H385 H 0.84063 0.44411 0.09609 0.0
H386 H 0.90556 0.45005 0.86214 0.0
H387 H 0.83965 0.42082 0.86242 0.0
H388 H 0.95356 0.51547 0.88884 0.0
H389 H 0.98985 0.53035 0.94058 0.0
C390 C 0.77251 0.68123 0.43235 0.0
C391 C 0.82012 0.6904 0.45686 0.0
C392 C 0.7709 0.65399 0.52868 0.0
C393 C 0.72375 0.64217 0.5032 0.0
N394 N 0.68081 0.63864 0.42836 0.0
N395 N 0.86472 0.67829 0.52648 0.0
C396 C 0.72508 0.65394 0.45427 0.0
C397 C 0.81919 0.67479 0.50459 0.0
N398 N 0.77215 0.70067 0.38876 0.0
N399 N 0.76953 0.64587 0.57628 0.0
H400 H 0.90036 0.69265 0.51001 0.0
H401 H 0.8673 0.66341 0.55919 0.0
H402 H 0.73548 0.62921 0.59444 0.0
H403 H 0.80133 0.65837 0.59835 0.0
H404 H 0.73865 0.70039 0.37121 0.0
H405 H 0.80553 0.7207 0.37159 0.0
H406 H 0.67979 0.64089 0.39162 0.0
H407 H 0.64526 0.62037 0.44317 0.0
C408 C 0.3392 0.43063 0.22996 0.0
C409 C 0.34207 0.38358 0.22569 0.0
C410 C 0.25585 0.35653 0.19064 0.0
C411 C 0.25294 0.40349 0.19509 0.0
N412 N 0.29374 0.48697 0.2105 0.0
N413 N 0.30803 0.30354 0.19403 0.0
C414 C 0.29539 0.44119 0.21197 0.0
C415 C 0.30202 0.34716 0.20324 0.0
N416 N 0.37766 0.46467 0.25268 0.0
N417 N 0.2136 0.32053 0.17606 0.0
H418 H 0.34009 0.29413 0.20426 0.0
H419 H 0.28312 0.2775 0.17289 0.0
H420 H 0.17976 0.32619 0.16448 0.0
H421 H 0.21055 0.28462 0.17809 0.0
H422 H 0.37545 0.49817 0.26223 0.0
H423 H 0.41143 0.45856 0.26393 0.0
H424 H 0.32517 0.51664 0.21766 0.0
H425 H 0.26155 0.49568 0.19894 0.0
C426 C 0.651 0.28641 0.98779 0.0
C427 C 0.66934 0.28913 0.94009 0.0
C428 C 0.64165 0.20024 0.93798 0.0
C429 C 0.62861 0.1979 0.98736 0.0
N430 N 0.62993 0.24187 0.06064 0.0
N431 N 0.68847 0.24717 0.87214 0.0
C432 C 0.6362 0.24193 1.01255 0.0
C433 C 0.66591 0.24553 0.91574 0.0
N434 N 0.64558 0.32645 1.00921 0.0
N435 N 0.63164 0.15901 0.91204 0.0
H436 H 0.70643 0.27897 0.85498 0.0
H437 H 0.69308 0.21745 0.85459 0.0
H438 H 0.61813 0.12547 0.92708 0.0
H439 H 0.63389 0.15801 0.8752 0.0
H440 H 0.6272 0.32629 1.04175 0.0
H441 H 0.65435 0.35903 0.9921 0.0
H442 H 0.64119 0.27263 0.08159 0.0
H443 H 0.61681 0.211 0.08032 0.0
C444 C 1.00921 0.85035 0.48594 0.0
C445 C 0.96933 0.84379 0.45172 0.0
C446 C 0.97183 0.92819 0.46808 0.0
C447 C 1.00774 0.9331 0.50592 0.0
N448 N 0.0541 0.89398 0.55471 0.0
N449 N 0.90954 0.87653 0.41354 0.0
C450 C 1.02507 0.89295 0.51535 0.0
C451 C 0.94993 0.88288 0.44385 0.0
N452 N 0.0321 0.8155 0.49073 0.0
N453 N 0.96008 0.96759 0.4537 0.0
H454 H 0.89474 0.84554 0.3933 0.0
H455 H 0.88882 0.90067 0.41046 0.0
H456 H 0.97596 1.00103 0.4694 0.0
H457 H 0.93864 0.96832 0.42354 0.0
H458 H 0.06522 0.81973 0.51062 0.0
H459 H 1.0205 0.78355 0.47156 0.0
H460 H 0.06326 0.86464 0.56734 0.0
H461 H 0.06493 0.92319 0.57752 0.0
C462 C 0.31041 0.77884 0.62286 0.0
C463 C 0.26794 0.73733 0.63033 0.0
C464 C 0.32765 0.69736 0.66172 0.0
C465 C 0.36977 0.73477 0.6447 0.0
N466 N 0.40223 0.8114 0.60842 0.0
N467 N 0.23615 0.65654 0.65833 0.0
C468 C 0.36145 0.7758 0.6254 0.0
C469 C 0.27653 0.69665 0.65087 0.0
N470 N 0.30222 0.82152 0.61511 0.0
N471 N 0.3366 0.66265 0.68858 0.0
H472 H 0.19782 0.65479 0.65338 0.0
H473 H 0.24072 0.62393 0.66701 0.0
H474 H 0.37361 0.66209 0.69682 0.0
H475 H 0.30772 0.63721 0.70645 0.0
H476 H 0.33181 0.85354 0.6132 0.0
H477 H 0.26594 0.82621 0.61722 0.0
H478 H 0.39812 0.83946 0.58859 0.0
H479 H 0.44028 0.81135 0.61183 0.0
C480 C 0.82888 0.85631 0.8379 0.0
C481 C 0.77536 0.83374 0.8448 0.0
C482 C 0.76324 0.82147 0.75934 0.0
C483 C 0.81536 0.84808 0.75296 0.0
N484 N 0.90124 0.86902 0.78413 0.0
N485 N 0.69591 0.7806 0.81434 0.0
C486 C 0.84943 0.8569 0.79174 0.0
C487 C 0.74399 0.811 0.80612 0.0
N488 N 0.85914 0.88117 0.87385 0.0
N489 N 0.73193 0.80968 0.72073 0.0
H490 H 0.68151 0.77229 0.84858 0.0
H491 H 0.67245 0.76067 0.78773 0.0
H492 H 0.74667 0.81632 0.68636 0.0
H493 H 0.69211 0.79496 0.72281 0.0
H494 H 0.89701 0.90231 0.86869 0.0
H495 H 0.84553 0.88466 0.90785 0.0
H496 H 0.92774 0.8729 0.81146 0.0
H497 H 0.91691 0.86953 0.75027 0.0
C498 C 0.81493 0.24006 0.36213 0.0
C499 C 0.86555 0.27048 0.35423 0.0
C500 C 0.8524 0.26205 0.26839 0.0
C501 C 0.80532 0.22596 0.27656 0.0
N502 N 0.74109 0.17921 0.33031 0.0
N503 N 0.93339 0.31181 0.30112 0.0
C504 C 0.78587 0.21518 0.32319 0.0
C505 C 0.88432 0.28252 0.30763 0.0
N506 N 0.795 0.23477 0.40704 0.0
N507 N 0.86628 0.27646 0.2231 0.0
H508 H 0.95688 0.32865 0.32924 0.0
H509 H 0.95175 0.3179 0.26832 0.0
H510 H 0.84347 0.26169 0.19386 0.0
H511 H 0.89794 0.3053 0.21467 0.0
H512 H 0.75659 0.21723 0.41481 0.0
H513 H 0.81607 0.25133 0.4365 0.0
H514 H 0.72824 0.16539 0.36344 0.0
H515 H 0.71777 0.16103 0.30269 0.0
C516 C 0.51757 0.69432 0.38512 0.0
C517 C 0.47702 0.66612 0.35573 0.0
C518 C 0.46376 0.60118 0.41529 0.0
C519 C 0.50946 0.62682 0.44019 0.0
N520 N 0.58265 0.69742 0.44473 0.0
N521 N 0.40792 0.59308 0.34624 0.0
C522 C 0.53664 0.67351 0.42422 0.0
C523 C 0.44892 0.61975 0.37218 0.0
N524 N 0.53736 0.74176 0.37631 0.0
N525 N 0.43323 0.55966 0.43402 0.0
H526 H 0.39211 0.60721 0.31874 0.0
H527 H 0.39001 0.55697 0.35127 0.0
H528 H 0.44252 0.54558 0.46516 0.0
H529 H 0.39698 0.54093 0.42116 0.0
H530 H 0.56338 0.76557 0.39865 0.0
H531 H 0.52321 0.75825 0.34952 0.0
H532 H 0.60757 0.72873 0.43131 0.0
H533 H 0.59827 0.68389 0.47277 0.0
C534 C 0.17833 0.43717 0.90236 0.0
C535 C 0.14319 0.41921 0.86399 0.0
C536 C 0.08005 0.44998 0.90927 0.0
C537 C 0.11733 0.47333 0.94424 0.0
N538 N 0.20501 0.49176 0.97011 0.0
N539 N 0.06189 0.41643 0.82942 0.0
C540 C 0.16721 0.4673 0.93965 0.0
C541 C 0.09438 0.42777 0.86729 0.0
N542 N 0.22206 0.42393 0.90427 0.0
N543 N 0.02969 0.44655 0.91735 0.0
H544 H 0.07052 0.40065 0.79845 0.0
H545 H 0.02858 0.42652 0.82712 0.0
H546 H 1.01755 0.45942 0.94847 0.0
H547 H 0.99961 0.42632 0.89617 0.0
H548 H 0.24687 0.43116 0.93316 0.0
H549 H 0.23088 0.40148 0.87892 0.0
H550 H 0.24356 0.49372 0.96598 0.0
H551 H 0.1985 0.51344 0.99745 0.0
C552 C 0.68891 0.95738 0.93538 0.0
C553 C 0.66645 0.90781 0.94279 0.0
C554 C 0.59623 0.92302 0.98696 0.0
C555 C 0.61651 0.97233 0.97751 0.0
N556 N 0.67435 1.03419 0.93126 0.0
N557 N 0.59076 0.84318 0.96141 0.0
C558 C 0.66022 0.98876 0.94767 0.0
C559 C 0.61696 0.89062 0.96314 0.0
N560 N 0.73859 0.97503 0.91985 0.0
N561 N 0.56158 0.90735 1.02258 0.0
H562 H 0.60534 0.81857 0.94395 0.0
H563 H 0.55274 0.82946 0.97293 0.0
H564 H 0.55097 0.9307 0.04524 0.0
H565 H 0.54943 0.87214 1.03365 0.0
H566 H 0.75824 1.0113 0.919 0.0
H567 H 0.76176 0.95374 0.91159 0.0
H568 H 0.70333 1.04668 0.9061 0.0
H569 H 0.65347 0.05767 0.93912 0.0
C570 C 0.94036 0.17862 0.48505 0.0
C571 C 0.97495 0.2228 0.47087 0.0
C572 C 0.04771 0.19801 0.49848 0.0
C573 C 1.01312 0.15261 0.50977 0.0
N574 N 0.92896 0.09566 0.4999 0.0
N575 N 0.06199 0.27009 0.45332 0.0
C576 C 0.96018 0.14166 0.49853 0.0
C577 C 0.02885 0.23108 0.47412 0.0
N578 N 0.88869 0.17256 0.48797 0.0
N579 N 0.09763 0.21096 0.51344 0.0
H580 H 0.04948 0.2949 0.43499 0.0
H581 H 0.10143 0.27535 0.45038 0.0
H582 H 0.11309 0.18867 0.53237 0.0
H583 H 0.12255 0.24547 0.51086 0.0
H584 H 0.86258 0.14261 0.50274 0.0
H585 H 0.87246 0.19929 0.48024 0.0
H586 H 0.89107 0.08513 0.48792 0.0
H587 H 0.94267 0.06734 0.50795 0.0
C588 C 0.30267 0.63552 0.14509 0.0
C589 C 0.30481 0.67961 0.16798 0.0
C590 C 0.21808 0.67142 0.13516 0.0
C591 C 0.21414 0.6256 0.11559 0.0
N592 N 0.25057 0.5611 0.10864 0.0
N593 N 0.25816 0.73316 0.19314 0.0
C594 C 0.25577 0.60675 0.12288 0.0
C595 C 0.2607 0.69575 0.16511 0.0
N596 N 0.34626 0.62199 0.14241 0.0
N597 N 0.18102 0.69218 0.12514 0.0
H598 H 0.28724 0.75065 0.21675 0.0
H599 H 0.22515 0.74362 0.19685 0.0
H600 H 0.14866 0.67547 0.10489 0.0
H601 H 0.18449 0.72749 0.1335 0.0
H602 H 0.34907 0.59308 0.12219 0.0
H603 H 0.38122 0.64212 0.15704 0.0
H604 H 0.27647 0.54306 0.11767 0.0
H605 H 0.21838 0.54005 0.09035 0.0
C606 C 0.36434 0.43086 0.65344 0.0
C607 C 0.34294 0.4594 0.68323 0.0
C608 C 0.39729 0.52996 0.64071 0.0
C609 C 0.42679 0.50255 0.6195 0.0
N610 N 0.43983 0.42537 0.61084 0.0
N611 N 0.33833 0.5376 0.70318 0.0
C612 C 0.41025 0.45242 0.62664 0.0
C613 C 0.35887 0.50937 0.67582 0.0
N614 N 0.34039 0.38307 0.65006 0.0
N615 N 0.40477 0.57545 0.62604 0.0
H616 H 0.30739 0.52403 0.72619 0.0
H617 H 0.35383 0.57443 0.70473 0.0
H618 H 0.43055 0.59069 0.59899 0.0
H619 H 0.38156 0.59599 0.63668 0.0
H620 H 0.35176 0.36098 0.62606 0.0
H621 H 0.3053 0.36676 0.66676 0.0
H622 H 0.43235 0.38975 0.61964 0.0
H623 H 0.4745 0.43926 0.59289 0.0
C624 C 0.79856 0.72056 0.97315 0.0
C625 C 0.79952 0.75183 1.01259 0.0
C626 C 0.89305 0.76677 1.01946 0.0
C627 C 0.89026 0.73098 0.98484 0.0
N628 N 0.84046 0.66975 0.93195 0.0
N629 N 0.84817 0.80241 0.07569 0.0
C630 C 0.84303 0.70674 0.96261 0.0
C631 C 0.84698 0.77437 1.03631 0.0
N632 N 0.75669 0.70588 0.94397 0.0
N633 N 0.94 0.79379 1.03609 0.0
H634 H 0.81681 0.8121 0.08841 0.0
H635 H 0.87982 0.81388 0.09809 0.0
H636 H 0.97454 0.78837 1.02554 0.0
H637 H 0.94537 0.82423 0.05707 0.0
H638 H 0.75687 0.68767 0.91208 0.0
H639 H 0.72365 0.71613 0.94768 0.0
H640 H 0.8059 0.64632 0.9198 0.0
H641 H 0.87285 0.66057 0.92097 0.0
C642 C 0.46498 0.88032 0.20389 0.0
C643 C 0.45004 0.83749 0.17576 0.0
C644 C 0.46576 0.88904 0.10467 0.0
C645 C 0.48876 0.93121 0.13204 0.0
N646 N 0.51411 0.96444 0.20991 0.0
N647 N 0.45321 0.80449 0.09734 0.0
C648 C 0.4901 0.92583 0.18227 0.0
C649 C 0.4553 0.843 0.12559 0.0
N650 N 0.45205 0.87855 0.25081 0.0
N651 N 0.4531 0.89212 0.05843 0.0
H652 H 0.45018 0.77113 0.11099 0.0
H653 H 0.46107 0.80722 0.06108 0.0
H654 H 0.46045 0.92423 1.04098 0.0
H655 H 0.43168 0.8627 1.03867 0.0
H656 H 0.45735 0.90881 0.27208 0.0
H657 H 0.43064 0.84738 0.26722 0.0
H658 H 0.5216 0.96192 0.24577 0.0
H659 H 0.5293 0.99853 0.19634 0.0
C660 C 0.13826 0.23662 0.75531 0.0
C661 C 0.1258 0.27739 0.73916 0.0
C662 C 0.08407 0.22886 0.66847 0.0
C663 C 0.09569 0.18772 0.68493 0.0
N664 N 0.1272 0.15136 0.74874 0.0
N665 N 0.07842 0.30883 0.68411 0.0
C666 C 0.12049 0.19138 0.72996 0.0
C667 C 0.09622 0.27221 0.69677 0.0
N668 N 0.16931 0.24168 0.79401 0.0
N669 N 0.06159 0.22674 0.62511 0.0
H670 H 0.08606 0.34032 0.70397 0.0
H671 H 0.05256 0.30678 0.65667 0.0
H672 H 0.04855 0.19529 0.60546 0.0
H673 H 0.05805 0.25625 0.60747 0.0
H674 H 0.18554 0.21594 0.80488 0.0
H675 H 0.18129 0.27313 0.81399 0.0
H676 H 0.13947 0.1495 0.78327 0.0
H677 H 0.11713 0.11874 0.73069 0.0
C678 C 0.81331 0.34252 0.50743 0.0
C679 C 0.85836 0.38276 0.50965 0.0
C680 C 0.80598 0.43564 0.49612 0.0
C681 C 0.76125 0.39564 0.49321 0.0
N682 N 0.72343 0.31096 0.48473 0.0
N683 N 0.89865 0.46513 0.4896 0.0
C684 C 0.76526 0.349 0.4955 0.0
C685 C 0.85503 0.42851 0.49859 0.0
N686 N 0.81587 0.29817 0.51744 0.0
N687 N 0.80165 0.48055 0.49881 0.0
H688 H 0.93542 0.46138 0.48975 0.0
H689 H 0.89795 0.49784 0.47684 0.0
H690 H 0.76647 0.48758 0.4977 0.0
H691 H 0.83258 0.51056 0.50649 0.0
H692 H 0.78349 0.26923 0.52374 0.0
H693 H 0.85017 0.28994 0.52038 0.0
H694 H 0.72509 0.27637 0.48049 0.0
H695 H 0.68779 0.31458 0.47578 0.0
loop_
_geom_bond_atom_site_label_1
_geom_bond_atom_site_label_2
_geom_bond_distance
_geom_bond_site_symmetry_2
_ccdc_geom_bond_type
H0 C7 0.929 . S
H1 C10 0.930 . S
H2 C12 0.929 . S
H3 C4 0.969 . S
C4 H3 0.969 . S
C4 O5 1.550 . S
C4 H6 0.973 . S
O5 C4 1.550 . S
O5 C11 1.412 . S
H6 C4 0.973 . S
C7 H0 0.929 . S
C7 C8 1.400 . S
C7 C9 1.364 . S
C8 C7 1.400 . S
C8 C12 1.377 . S
C9 C7 1.364 . S
C9 C10 1.374 . S
C10 H1 0.930 . S
C10 C9 1.374 . S
C10 C11 1.383 . S
C11 O5 1.412 . S
C11 C10 1.383 . S
C11 C12 1.394 . S
C12 H2 0.929 . S
C12 C8 1.377 . S
C12 C11 1.394 . S
H13 C20 0.929 . S
H14 C23 0.930 . S
H15 C25 0.929 . S
H16 C17 0.969 . S
C17 H16 0.969 . S
C17 O18 1.550 . S
C17 H19 0.973 . S
O18 C17 1.550 . S
O18 C24 1.412 . S
H19 C17 0.973 . S
C20 H13 0.929 . S
C20 C21 1.400 . S
C20 C22 1.364 . S
C21 C20 1.400 . S
C21 C25 1.377 . S
C22 C20 1.364 . S
C22 C23 1.374 . S
C23 H14 0.930 . S
C23 C22 1.374 . S
C23 C24 1.383 . S
C24 O18 1.412 . S
C24 C23 1.383 . S
C24 C25 1.394 . S
C25 H15 0.929 . S
C25 C21 1.377 . S
C25 C24 1.394 . S
H26 C33 0.929 . S
H27 C36 0.930 . S
H28 C38 0.929 . S
H29 C30 0.969 . S
C30 H29 0.969 . S
C30 O31 1.550 . S
C30 H32 0.973 . S
O31 C30 1.550 . S
O31 C37 1.412 . S
H32 C30 0.973 . S
C33 H26 0.929 . S
C33 C34 1.400 . S
C33 C35 1.364 . S
C34 C33 1.400 . S
C34 C38 1.377 . S
C35 C33 1.364 . S
C35 C36 1.374 . S
C36 H27 0.930 . S
C36 C35 1.374 . S
C36 C37 1.383 . S
C37 O31 1.412 . S
C37 C36 1.383 . S
C37 C38 1.394 . S
C38 H28 0.929 . S
C38 C34 1.377 . S
C38 C37 1.394 . S
H39 C46 0.929 . S
H40 C49 0.930 . S
H41 C51 0.929 . S
H42 C43 0.969 . S
C43 H42 0.969 . S
C43 O44 1.550 . S
C43 H45 0.973 . S
O44 C43 1.550 . S
O44 C50 1.412 . S
H45 C43 0.973 . S
C46 H39 0.929 . S
C46 C47 1.400 . S
C46 C48 1.364 . S
C47 C46 1.400 . S
C47 C51 1.377 . S
C48 C46 1.364 . S
C48 C49 1.374 . S
C49 H40 0.930 . S
C49 C48 1.374 . S
C49 C50 1.383 . S
C50 O44 1.412 . S
C50 C49 1.383 . S
C50 C51 1.394 . S
C51 H41 0.929 . S
C51 C47 1.377 . S
C51 C50 1.394 . S
H52 C59 0.929 . S
H53 C62 0.930 . S
H54 C64 0.929 . S
H55 C56 0.969 . S
C56 H55 0.969 . S
C56 O57 1.550 . S
C56 H58 0.973 . S
O57 C56 1.550 . S
O57 C63 1.412 . S
H58 C56 0.973 . S
C59 H52 0.929 . S
C59 C60 1.400 . S
C59 C61 1.364 . S
C60 C59 1.400 . S
C60 C64 1.377 . S
C61 C59 1.364 . S
C61 C62 1.374 . S
C62 H53 0.930 . S
C62 C61 1.374 . S
C62 C63 1.383 . S
C63 O57 1.412 . S
C63 C62 1.383 . S
C63 C64 1.394 . S
C64 H54 0.929 . S
C64 C60 1.377 . S
C64 C63 1.394 . S
H65 C72 0.929 . S
H66 C75 0.930 . S
H67 C77 0.929 . S
H68 C69 0.969 . S
C69 H68 0.969 . S
C69 O70 1.550 . S
C69 H71 0.973 . S
O70 C69 1.550 . S
O70 C76 1.412 . S
H71 C69 0.973 . S
C72 H65 0.929 . S
C72 C73 1.400 . S
C72 C74 1.364 . S
C73 C72 1.400 . S
C73 C77 1.377 . S
C74 C72 1.364 . S
C74 C75 1.374 . S
C75 H66 0.930 . S
C75 C74 1.374 . S
C75 C76 1.383 . S
C76 O70 1.412 . S
C76 C75 1.383 . S
C76 C77 1.394 . S
C77 H67 0.929 . S
C77 C73 1.377 . S
C77 C76 1.394 . S
H78 C85 0.929 . S
H79 C88 0.930 . S
H80 C90 0.929 . S
H81 C82 0.969 . S
C82 H81 0.969 . S
C82 O83 1.550 . S
C82 H84 0.973 . S
O83 C82 1.550 . S
O83 C89 1.412 . S
H84 C82 0.973 . S
C85 H78 0.929 . S
C85 C86 1.400 . S
C85 C87 1.364 . S
C86 C85 1.400 . S
C86 C90 1.377 . S
C87 C85 1.364 . S
C87 C88 1.374 . S
C88 H79 0.930 . S
C88 C87 1.374 . S
C88 C89 1.383 . S
C89 O83 1.412 . S
C89 C88 1.383 . S
C89 C90 1.394 . S
C90 H80 0.929 . S
C90 C86 1.377 . S
C90 C89 1.394 . S
H91 C98 0.929 . S
H92 C101 0.930 . S
H93 C103 0.929 . S
H94 C95 0.969 . S
C95 H94 0.969 . S
C95 O96 1.550 . S
C95 H97 0.973 . S
O96 C95 1.550 . S
O96 C102 1.412 . S
H97 C95 0.973 . S
C98 H91 0.929 . S
C98 C99 1.400 . S
C98 C100 1.364 . S
C99 C98 1.400 . S
C99 C103 1.377 . S
C100 C98 1.364 . S
C100 C101 1.374 . S
C101 H92 0.930 . S
C101 C100 1.374 . S
C101 C102 1.383 . S
C102 O96 1.412 . S
C102 C101 1.383 . S
C102 C103 1.394 . S
C103 H93 0.929 . S
C103 C99 1.377 . S
C103 C102 1.394 . S
Tb104 C113 2.764 . S
Tb104 O114 2.325 . S
Tb104 O117 2.303 . S
Tb104 O121 2.322 1_545 S
Tb104 O122 2.349 1_545 S
Tb104 O125 2.415 . S
Tb104 O126 2.399 . S
Tb105 O115 2.322 . S
Tb105 O116 2.345 1_655 S
Tb105 O118 2.415 1_545 S
Tb105 O119 2.399 . S
Tb105 O120 2.325 1_645 S
Tb105 O123 2.303 1_545 S
Tb105 C134 2.764 1_545 S
C106 O122 1.261 1_655 S
C106 O123 1.257 . S
C107 C110 1.358 . S
C107 C111 1.332 . S
C107 C113 1.504 . S
C108 C109 1.373 . S
C108 C112 1.308 . S
C109 C108 1.373 . S
C109 C110 1.429 . S
C109 H136 0.932 . S
C110 C107 1.358 . S
C110 C109 1.429 . S
C110 H137 0.930 . S
C111 C107 1.332 . S
C111 C112 1.394 . S
C111 H138 0.932 . S
C112 C108 1.308 . S
C112 C111 1.394 . S
C112 H139 0.929 . S
C113 Tb104 2.764 . S
C113 C107 1.504 . S
C113 O125 1.239 . S
C113 O126 1.263 . S
O114 Tb104 2.325 . S
O114 C124 1.236 1_455 S
O115 Tb105 2.322 . S
O115 C124 1.257 . S
O116 Tb105 2.345 1_455 S
O116 C127 1.272 . S
O117 Tb104 2.303 . S
O117 C127 1.257 . S
O118 Tb105 2.415 1_565 S
O118 C134 1.239 . S
O119 Tb105 2.399 . S
O119 C134 1.263 1_545 S
O120 Tb105 2.325 1_465 S
O120 C135 1.236 . S
O121 Tb104 2.322 1_565 S
O121 C135 1.257 . S
O122 Tb104 2.349 1_565 S
O122 C106 1.261 1_455 S
O123 Tb105 2.303 1_565 S
O123 C106 1.257 . S
C124 O114 1.236 1_655 S
C124 O115 1.257 . S
O125 Tb104 2.415 . S
O125 C113 1.239 . S
O126 Tb104 2.399 . S
O126 C113 1.263 . S
C127 O116 1.272 . S
C127 O117 1.257 . S
C128 C131 1.358 . S
C128 C132 1.332 . S
C128 C134 1.504 . S
C129 C130 1.373 . S
C129 C133 1.308 . S
C130 C129 1.373 . S
C130 C131 1.429 . S
C130 H140 0.932 . S
C131 C128 1.358 . S
C131 C130 1.429 . S
C131 H141 0.930 . S
C132 C128 1.332 . S
C132 C133 1.394 . S
C132 H142 0.932 . S
C133 C129 1.308 . S
C133 C132 1.394 . S
C133 H143 0.929 . S
C134 Tb105 2.764 1_565 S
C134 O118 1.239 . S
C134 O119 1.263 1_565 S
C134 C128 1.504 . S
C135 O120 1.236 . S
C135 O121 1.257 . S
H136 C109 0.932 . S
H137 C110 0.930 . S
H138 C111 0.932 . S
H139 C112 0.929 . S
H140 C130 0.932 . S
H141 C131 0.930 . S
H142 C132 0.932 . S
H143 C133 0.929 . S
Tb144 C153 2.764 . S
Tb144 O154 2.325 . S
Tb144 O157 2.303 . S
Tb144 O161 2.322 1_545 S
Tb144 O162 2.349 1_545 S
Tb144 O165 2.415 . S
Tb144 O166 2.399 . S
Tb145 O155 2.322 . S
Tb145 O156 2.349 1_556 S
Tb145 O158 2.415 1_545 S
Tb145 O159 2.399 1_545 S
Tb145 O160 2.325 1_546 S
Tb145 O163 2.303 1_545 S
Tb145 C174 2.764 1_545 S
C146 O162 1.261 1_556 S
C146 O163 1.257 . S
C147 C150 1.358 . S
C147 C151 1.332 . S
C147 C153 1.504 . S
C148 C149 1.373 . S
C148 C152 1.308 . S
C149 C148 1.373 . S
C149 C150 1.429 . S
C149 H176 0.932 . S
C150 C147 1.358 . S
C150 C149 1.429 . S
C150 H177 0.930 . S
C151 C147 1.332 . S
C151 C152 1.394 . S
C151 H178 0.932 . S
C152 C148 1.308 . S
C152 C151 1.394 . S
C152 H179 0.929 . S
C153 Tb144 2.764 . S
C153 C147 1.504 . S
C153 O165 1.239 . S
C153 O166 1.263 . S
O154 Tb144 2.325 . S
O154 C164 1.236 1_554 S
O155 Tb145 2.322 . S
O155 C164 1.257 . S
O156 Tb145 2.349 1_554 S
O156 C167 1.261 . S
O157 Tb144 2.303 . S
O157 C167 1.257 . S
O158 Tb145 2.415 1_565 S
O158 C174 1.239 . S
O159 Tb145 2.399 1_565 S
O159 C174 1.263 . S
O160 Tb145 2.325 1_564 S
O160 C175 1.236 . S
O161 Tb144 2.322 1_565 S
O161 C175 1.257 . S
O162 Tb144 2.349 1_565 S
O162 C146 1.261 1_554 S
O163 Tb145 2.303 1_565 S
O163 C146 1.257 . S
C164 O154 1.236 1_556 S
C164 O155 1.257 . S
O165 Tb144 2.415 . S
O165 C153 1.239 . S
O166 Tb144 2.399 . S
O166 C153 1.263 . S
C167 O156 1.261 . S
C167 O157 1.257 . S
C168 C171 1.358 . S
C168 C172 1.332 . S
C168 C174 1.504 . S
C169 C170 1.373 . S
C169 C173 1.308 . S
C170 C169 1.373 . S
C170 C171 1.429 . S
C170 H180 0.932 . S
C171 C168 1.358 . S
C171 C170 1.429 . S
C171 H181 0.930 . S
C172 C168 1.332 . S
C172 C173 1.394 . S
C172 H182 0.932 . S
C173 C169 1.308 . S
C173 C172 1.394 . S
C173 H183 0.929 . S
C174 Tb145 2.764 1_565 S
C174 O158 1.239 . S
C174 O159 1.263 . S
C174 C168 1.504 . S
C175 O160 1.236 . S
C175 O161 1.257 . S
H176 C149 0.932 . S
H177 C150 0.930 . S
H178 C151 0.932 . S
H179 C152 0.929 . S
H180 C170 0.932 . S
H181 C171 0.930 . S
H182 C172 0.932 . S
H183 C173 0.929 . S
Tb184 C193 2.764 . S
Tb184 O194 2.325 . S
Tb184 O197 2.303 . S
Tb184 O201 2.322 . S
Tb184 O202 2.349 . S
Tb184 O205 2.415 . S
Tb184 O206 2.399 . S
Tb185 O195 2.322 . S
Tb185 O196 2.349 . S
Tb185 O198 2.415 . S
Tb185 O199 2.399 . S
Tb185 O200 2.325 . S
Tb185 O203 2.303 . S
Tb185 C214 2.764 . S
C186 O202 1.261 . S
C186 O203 1.257 . S
C187 C190 1.358 . S
C187 C191 1.332 . S
C187 C193 1.504 . S
C188 C189 1.373 . S
C188 C192 1.308 . S
C189 C188 1.373 . S
C189 C190 1.429 . S
C189 H216 0.932 . S
C190 C187 1.358 . S
C190 C189 1.429 . S
C190 H217 0.930 . S
C191 C187 1.332 . S
C191 C192 1.394 . S
C191 H218 0.932 . S
C192 C188 1.308 . S
C192 C191 1.394 . S
C192 H219 0.929 . S
C193 Tb184 2.764 . S
C193 C187 1.504 . S
C193 O205 1.239 . S
C193 O206 1.263 . S
O194 Tb184 2.325 . S
O194 C204 1.236 . S
O195 Tb185 2.322 . S
O195 C204 1.257 . S
O196 Tb185 2.349 . S
O196 C207 1.261 . S
O197 Tb184 2.303 . S
O197 C207 1.257 . S
O198 Tb185 2.415 . S
O198 C214 1.239 . S
O199 Tb185 2.399 . S
O199 C214 1.263 . S
O200 Tb185 2.325 . S
O200 C215 1.236 . S
O201 Tb184 2.322 . S
O201 C215 1.257 . S
O202 Tb184 2.349 . S
O202 C186 1.261 . S
O203 Tb185 2.303 . S
O203 C186 1.257 . S
C204 O194 1.236 . S
C204 O195 1.257 . S
O205 Tb184 2.415 . S
O205 C193 1.239 . S
O206 Tb184 2.399 . S
O206 C193 1.263 . S
C207 O196 1.261 . S
C207 O197 1.257 . S
C208 C211 1.358 . S
C208 C212 1.332 . S
C208 C214 1.504 . S
C209 C210 1.373 . S
C209 C213 1.308 . S
C210 C209 1.373 . S
C210 C211 1.429 . S
C210 H220 0.932 . S
C211 C208 1.358 . S
C211 C210 1.429 . S
C211 H221 0.930 . S
C212 C208 1.332 . S
C212 C213 1.394 . S
C212 H222 0.932 . S
C213 C209 1.308 . S
C213 C212 1.394 . S
C213 H223 0.929 . S
C214 Tb185 2.764 . S
C214 O198 1.239 . S
C214 O199 1.263 . S
C214 C208 1.504 . S
C215 O200 1.236 . S
C215 O201 1.257 . S
H216 C189 0.932 . S
H217 C190 0.930 . S
H218 C191 0.932 . S
H219 C192 0.929 . S
H220 C210 0.932 . S
H221 C211 0.930 . S
H222 C212 0.932 . S
H223 C213 0.929 . S
Tb224 C233 2.764 1_454 S
Tb224 O234 2.325 1_455 S
Tb224 O237 2.306 . S
Tb224 O241 2.322 . S
Tb224 O242 2.349 1_554 S
Tb224 O245 2.415 1_455 S
Tb224 O246 2.399 1_454 S
Tb225 O235 2.322 1_455 S
Tb225 O236 2.349 1_455 S
Tb225 O238 2.415 . S
Tb225 O239 2.399 . S
Tb225 O240 2.325 . S
Tb225 O243 2.303 . S
Tb225 C254 2.764 . S
C226 O242 1.261 . S
C226 O243 1.257 1_556 S
C227 C230 1.358 . S
C227 C231 1.332 . S
C227 C233 1.504 . S
C228 C229 1.373 . S
C228 C232 1.308 . S
C229 C228 1.373 . S
C229 C230 1.429 . S
C229 H256 0.932 . S
C230 C227 1.358 . S
C230 C229 1.429 . S
C230 H257 0.930 . S
C231 C227 1.332 . S
C231 C232 1.394 . S
C231 H258 0.932 1_556 S
C232 C228 1.308 . S
C232 C231 1.394 . S
C232 H259 0.929 . S
C233 Tb224 2.764 1_656 S
C233 C227 1.504 . S
C233 O245 1.239 1_556 S
C233 O246 1.263 . S
O234 Tb224 2.325 1_655 S
O234 C244 1.236 . S
O235 Tb225 2.322 1_655 S
O235 C244 1.257 . S
O236 Tb225 2.349 1_655 S
O236 C247 1.261 . S
O237 Tb224 2.306 . S
O237 C247 1.252 1_455 S
O238 Tb225 2.415 . S
O238 C254 1.239 . S
O239 Tb225 2.399 . S
O239 C254 1.263 . S
O240 Tb225 2.325 . S
O240 C255 1.236 . S
O241 Tb224 2.322 . S
O241 C255 1.257 . S
O242 Tb224 2.349 1_556 S
O242 C226 1.261 . S
O243 Tb225 2.303 . S
O243 C226 1.257 1_554 S
C244 O234 1.236 . S
C244 O235 1.257 . S
O245 Tb224 2.415 1_655 S
O245 C233 1.239 1_554 S
O246 Tb224 2.399 1_656 S
O246 C233 1.263 . S
C247 O236 1.261 . S
C247 O237 1.252 1_655 S
C248 C251 1.358 . S
C248 C252 1.332 . S
C248 C254 1.504 . S
C249 C250 1.373 . S
C249 C253 1.308 . S
C250 C249 1.373 . S
C250 C251 1.429 . S
C250 H260 0.932 . S
C251 C248 1.358 . S
C251 C250 1.429 . S
C251 H261 0.930 . S
C252 C248 1.332 . S
C252 C253 1.394 . S
C252 H262 0.932 . S
C253 C249 1.308 . S
C253 C252 1.394 . S
C253 H263 0.929 . S
C254 Tb225 2.764 . S
C254 O238 1.239 . S
C254 O239 1.263 . S
C254 C248 1.504 . S
C255 O240 1.236 . S
C255 O241 1.257 . S
H256 C229 0.932 . S
H257 C230 0.930 . S
H258 C231 0.932 1_554 S
H259 C232 0.929 . S
H260 C250 0.932 . S
H261 C251 0.930 . S
H262 C252 0.932 . S
H263 C253 0.929 . S
C264 C265 1.363 . S
C264 C270 1.379 . S
C264 N272 1.356 . S
C265 C264 1.363 . S
C265 C271 1.363 . S
C266 C267 1.363 . S
C266 C271 1.379 . S
C266 N273 1.356 . S
C267 C266 1.363 . S
C267 C270 1.363 . S
N268 C270 1.356 . S
N268 H280 0.984 . S
N268 H281 0.985 . S
N269 C271 1.356 . S
N269 H274 0.984 . S
N269 H275 0.985 . S
C270 C264 1.379 . S
C270 C267 1.363 . S
C270 N268 1.356 . S
C271 C265 1.363 . S
C271 C266 1.379 . S
C271 N269 1.356 . S
N272 C264 1.356 . S
N272 H278 0.984 . S
N272 H279 0.984 . S
N273 C266 1.356 . S
N273 H276 0.984 . S
N273 H277 0.985 . S
H274 N269 0.984 . S
H275 N269 0.985 . S
H276 N273 0.984 . S
H277 N273 0.985 . S
H278 N272 0.984 . S
H279 N272 0.984 . S
H280 N268 0.984 . S
H281 N268 0.985 . S
C282 C283 1.363 . S
C282 C288 1.379 . S
C282 N290 1.356 . S
C283 C282 1.363 . S
C283 C289 1.363 . S
C284 C285 1.363 . S
C284 C289 1.379 . S
C284 N291 1.356 . S
C285 C284 1.363 . S
C285 C288 1.363 . S
N286 C288 1.356 . S
N286 H298 0.984 . S
N286 H299 0.985 . S
N287 C289 1.356 . S
N287 H292 0.984 . S
N287 H293 0.985 . S
C288 C282 1.379 . S
C288 C285 1.363 . S
C288 N286 1.356 . S
C289 C283 1.363 . S
C289 C284 1.379 . S
C289 N287 1.356 . S
N290 C282 1.356 . S
N290 H296 0.984 . S
N290 H297 0.984 . S
N291 C284 1.356 . S
N291 H294 0.984 . S
N291 H295 0.985 . S
H292 N287 0.984 . S
H293 N287 0.985 . S
H294 N291 0.984 . S
H295 N291 0.985 . S
H296 N290 0.984 . S
H297 N290 0.984 . S
H298 N286 0.984 . S
H299 N286 0.985 . S
C300 C301 1.363 . S
C300 C306 1.379 . S
C300 N308 1.356 . S
C301 C300 1.363 . S
C301 C307 1.363 . S
C302 C303 1.363 . S
C302 C307 1.379 . S
C302 N309 1.356 . S
C303 C302 1.363 . S
C303 C306 1.363 . S
N304 C306 1.356 . S
N304 H316 0.984 . S
N304 H317 0.985 . S
N305 C307 1.356 . S
N305 H310 0.984 . S
N305 H311 0.985 . S
C306 C300 1.379 . S
C306 C303 1.363 . S
C306 N304 1.356 . S
C307 C301 1.363 . S
C307 C302 1.379 . S
C307 N305 1.356 . S
N308 C300 1.356 . S
N308 H314 0.984 . S
N308 H315 0.984 . S
N309 C302 1.356 . S
N309 H312 0.984 . S
N309 H313 0.985 . S
H310 N305 0.984 . S
H311 N305 0.985 . S
H312 N309 0.984 . S
H313 N309 0.985 . S
H314 N308 0.984 . S
H315 N308 0.984 . S
H316 N304 0.984 . S
H317 N304 0.985 . S
C318 C319 1.363 . S
C318 C324 1.379 . S
C318 N326 1.356 . S
C319 C318 1.363 . S
C319 C325 1.363 . S
C320 C321 1.363 . S
C320 C325 1.379 . S
C320 N327 1.356 . S
C321 C320 1.363 . S
C321 C324 1.363 . S
N322 C324 1.356 . S
N322 H334 0.984 . S
N322 H335 0.985 . S
N323 C325 1.356 . S
N323 H328 0.984 . S
N323 H329 0.985 . S
C324 C318 1.379 . S
C324 C321 1.363 . S
C324 N322 1.356 . S
C325 C319 1.363 . S
C325 C320 1.379 . S
C325 N323 1.356 . S
N326 C318 1.356 . S
N326 H332 0.984 . S
N326 H333 0.984 . S
N327 C320 1.356 . S
N327 H330 0.984 . S
N327 H331 0.976 1_655 S
H328 N323 0.984 . S
H329 N323 0.985 . S
H330 N327 0.984 . S
H331 N327 0.976 1_455 S
H332 N326 0.984 . S
H333 N326 0.984 . S
H334 N322 0.984 . S
H335 N322 0.985 . S
C336 C337 1.363 . S
C336 C342 1.379 . S
C336 N344 1.356 . S
C337 C336 1.363 . S
C337 C343 1.363 . S
C338 C339 1.363 . S
C338 C343 1.379 . S
C338 N345 1.356 . S
C339 C338 1.363 . S
C339 C342 1.363 . S
N340 C342 1.356 . S
N340 H352 0.984 1_554 S
N340 H353 0.985 . S
N341 C343 1.356 . S
N341 H346 0.984 . S
N341 H347 0.985 . S
C342 C336 1.379 . S
C342 C339 1.363 . S
C342 N340 1.356 . S
C343 C337 1.363 . S
C343 C338 1.379 . S
C343 N341 1.356 . S
N344 C336 1.356 . S
N344 H350 0.984 . S
N344 H351 0.984 . S
N345 C338 1.356 . S
N345 H348 0.984 . S
N345 H349 0.985 . S
H346 N341 0.984 . S
H347 N341 0.985 . S
H348 N345 0.984 . S
H349 N345 0.985 . S
H350 N344 0.984 . S
H351 N344 0.984 . S
H352 N340 0.984 1_556 S
H353 N340 0.985 . S
C354 C355 1.363 . S
C354 C360 1.379 . S
C354 N362 1.356 . S
C355 C354 1.363 . S
C355 C361 1.363 . S
C356 C357 1.363 . S
C356 C361 1.379 . S
C356 N363 1.356 . S
C357 C356 1.363 . S
C357 C360 1.363 . S
N358 C360 1.356 . S
N358 H370 0.984 . S
N358 H371 0.985 . S
N359 C361 1.356 . S
N359 H364 0.984 . S
N359 H365 0.985 . S
C360 C354 1.379 . S
C360 C357 1.363 . S
C360 N358 1.356 . S
C361 C355 1.363 . S
C361 C356 1.379 . S
C361 N359 1.356 . S
N362 C354 1.356 . S
N362 H368 0.984 . S
N362 H369 0.984 . S
N363 C356 1.356 . S
N363 H366 0.984 . S
N363 H367 0.985 . S
H364 N359 0.984 . S
H365 N359 0.985 . S
H366 N363 0.984 . S
H367 N363 0.985 . S
H368 N362 0.984 . S
H369 N362 0.984 . S
H370 N358 0.984 . S
H371 N358 0.985 . S
C372 C373 1.363 . S
C372 C378 1.379 . S
C372 N380 1.356 . S
C373 C372 1.363 . S
C373 C379 1.363 . S
C374 C375 1.363 . S
C374 C379 1.379 1_554 S
C374 N381 1.356 . S
C375 C374 1.363 . S
C375 C378 1.363 1_554 S
N376 C378 1.356 . S
N376 H388 0.984 . S
N376 H389 0.985 . S
N377 C379 1.356 . S
N377 H382 0.984 . S
N377 H383 0.985 1_556 S
C378 C372 1.379 . S
C378 C375 1.363 1_556 S
C378 N376 1.356 . S
C379 C373 1.363 . S
C379 C374 1.379 1_556 S
C379 N377 1.356 . S
N380 C372 1.356 . S
N380 H386 0.984 . S
N380 H387 0.984 . S
N381 C374 1.356 . S
N381 H384 0.984 . S
N381 H385 0.985 . S
H382 N377 0.984 . S
H383 N377 0.985 1_554 S
H384 N381 0.984 . S
H385 N381 0.985 . S
H386 N380 0.984 . S
H387 N380 0.984 . S
H388 N376 0.984 . S
H389 N376 0.985 . S
C390 C391 1.363 . S
C390 C396 1.379 . S
C390 N398 1.356 . S
C391 C390 1.363 . S
C391 C397 1.363 . S
C392 C393 1.363 . S
C392 C397 1.379 . S
C392 N399 1.356 . S
C393 C392 1.363 . S
C393 C396 1.363 . S
N394 C396 1.356 . S
N394 H406 0.984 . S
N394 H407 0.985 . S
N395 C397 1.356 . S
N395 H400 0.984 . S
N395 H401 0.985 . S
C396 C390 1.379 . S
C396 C393 1.363 . S
C396 N394 1.356 . S
C397 C391 1.363 . S
C397 C392 1.379 . S
C397 N395 1.356 . S
N398 C390 1.356 . S
N398 H404 0.984 . S
N398 H405 0.984 . S
N399 C392 1.356 . S
N399 H402 0.984 . S
N399 H403 0.985 . S
H400 N395 0.984 . S
H401 N395 0.985 . S
H402 N399 0.984 . S
H403 N399 0.985 . S
H404 N398 0.984 . S
H405 N398 0.984 . S
H406 N394 0.984 . S
H407 N394 0.985 . S
C408 C409 1.363 . S
C408 C414 1.379 . S
C408 N416 1.356 . S
C409 C408 1.363 . S
C409 C415 1.363 . S
C410 C411 1.363 . S
C410 C415 1.379 . S
C410 N417 1.356 . S
C411 C410 1.363 . S
C411 C414 1.363 . S
N412 C414 1.356 . S
N412 H424 0.984 . S
N412 H425 0.985 . S
N413 C415 1.356 . S
N413 H418 0.984 . S
N413 H419 0.985 . S
C414 C408 1.379 . S
C414 C411 1.363 . S
C414 N412 1.356 . S
C415 C409 1.363 . S
C415 C410 1.379 . S
C415 N413 1.356 . S
N416 C408 1.356 . S
N416 H422 0.984 . S
N416 H423 0.984 . S
N417 C410 1.356 . S
N417 H420 0.984 . S
N417 H421 0.985 . S
H418 N413 0.984 . S
H419 N413 0.985 . S
H420 N417 0.984 . S
H421 N417 0.985 . S
H422 N416 0.984 . S
H423 N416 0.984 . S
H424 N412 0.984 . S
H425 N412 0.985 . S
C426 C427 1.363 . S
C426 C432 1.379 . S
C426 N434 1.356 . S
C427 C426 1.363 . S
C427 C433 1.363 . S
C428 C429 1.363 . S
C428 C433 1.379 . S
C428 N435 1.356 . S
C429 C428 1.363 . S
C429 C432 1.363 . S
N430 C432 1.356 1_554 S
N430 H442 0.984 . S
N430 H443 0.985 . S
N431 C433 1.356 . S
N431 H436 0.984 . S
N431 H437 0.985 . S
C432 C426 1.379 . S
C432 C429 1.363 . S
C432 N430 1.356 1_556 S
C433 C427 1.363 . S
C433 C428 1.379 . S
C433 N431 1.356 . S
N434 C426 1.356 . S
N434 H440 0.984 1_556 S
N434 H441 0.984 . S
N435 C428 1.356 . S
N435 H438 0.984 . S
N435 H439 0.985 . S
H436 N431 0.984 . S
H437 N431 0.985 . S
H438 N435 0.984 . S
H439 N435 0.985 . S
H440 N434 0.984 1_554 S
H441 N434 0.984 . S
H442 N430 0.984 . S
H443 N430 0.985 . S
C444 C445 1.363 . S
C444 C450 1.379 . S
C444 N452 1.356 . S
C445 C444 1.363 . S
C445 C451 1.363 . S
C446 C447 1.363 . S
C446 C451 1.379 . S
C446 N453 1.356 1_655 S
C447 C446 1.363 . S
C447 C450 1.363 . S
N448 C450 1.356 . S
N448 H460 0.984 . S
N448 H461 0.985 . S
N449 C451 1.356 . S
N449 H454 0.984 . S
N449 H455 0.985 1_655 S
C450 C444 1.379 . S
C450 C447 1.363 . S
C450 N448 1.356 . S
C451 C445 1.363 . S
C451 C446 1.379 . S
C451 N449 1.356 . S
N452 C444 1.356 . S
N452 H458 0.984 . S
N452 H459 0.984 . S
N453 C446 1.356 1_455 S
N453 H456 0.984 . S
N453 H457 0.985 . S
H454 N449 0.984 . S
H455 N449 0.985 1_455 S
H456 N453 0.984 . S
H457 N453 0.985 . S
H458 N452 0.984 . S
H459 N452 0.984 . S
H460 N448 0.984 . S
H461 N448 0.985 . S
C462 C463 1.363 . S
C462 C468 1.379 . S
C462 N470 1.356 . S
C463 C462 1.363 . S
C463 C469 1.363 . S
C464 C465 1.363 . S
C464 C469 1.379 . S
C464 N471 1.356 . S
C465 C464 1.363 . S
C465 C468 1.363 . S
N466 C468 1.356 . S
N466 H478 0.984 . S
N466 H479 0.985 . S
N467 C469 1.356 . S
N467 H472 0.984 . S
N467 H473 0.985 . S
C468 C462 1.379 . S
C468 C465 1.363 . S
C468 N466 1.356 . S
C469 C463 1.363 . S
C469 C464 1.379 . S
C469 N467 1.356 . S
N470 C462 1.356 . S
N470 H476 0.984 . S
N470 H477 0.984 . S
N471 C464 1.356 . S
N471 H474 0.984 . S
N471 H475 0.985 . S
H472 N467 0.984 . S
H473 N467 0.985 . S
H474 N471 0.984 . S
H475 N471 0.985 . S
H476 N470 0.984 . S
H477 N470 0.984 . S
H478 N466 0.984 . S
H479 N466 0.985 . S
C480 C481 1.363 . S
C480 C486 1.379 . S
C480 N488 1.356 . S
C481 C480 1.363 . S
C481 C487 1.363 . S
C482 C483 1.363 . S
C482 C487 1.379 . S
C482 N489 1.356 . S
C483 C482 1.363 . S
C483 C486 1.363 . S
N484 C486 1.356 . S
N484 H496 0.984 . S
N484 H497 0.985 . S
N485 C487 1.356 . S
N485 H490 0.984 . S
N485 H491 0.985 . S
C486 C480 1.379 . S
C486 C483 1.363 . S
C486 N484 1.356 . S
C487 C481 1.363 . S
C487 C482 1.379 . S
C487 N485 1.356 . S
N488 C480 1.356 . S
N488 H494 0.984 . S
N488 H495 0.984 . S
N489 C482 1.356 . S
N489 H492 0.984 . S
N489 H493 0.985 . S
H490 N485 0.984 . S
H491 N485 0.985 . S
H492 N489 0.984 . S
H493 N489 0.985 . S
H494 N488 0.984 . S
H495 N488 0.984 . S
H496 N484 0.984 . S
H497 N484 0.985 . S
C498 C499 1.363 . S
C498 C504 1.379 . S
C498 N506 1.356 . S
C499 C498 1.363 . S
C499 C505 1.363 . S
C500 C501 1.363 . S
C500 C505 1.379 . S
C500 N507 1.356 . S
C501 C500 1.363 . S
C501 C504 1.363 . S
N502 C504 1.356 . S
N502 H514 0.984 . S
N502 H515 0.985 . S
N503 C505 1.356 . S
N503 H508 0.984 . S
N503 H509 0.985 . S
C504 C498 1.379 . S
C504 C501 1.363 . S
C504 N502 1.356 . S
C505 C499 1.363 . S
C505 C500 1.379 . S
C505 N503 1.356 . S
N506 C498 1.356 . S
N506 H512 0.984 . S
N506 H513 0.984 . S
N507 C500 1.356 . S
N507 H510 0.984 . S
N507 H511 0.985 . S
H508 N503 0.984 . S
H509 N503 0.985 . S
H510 N507 0.984 . S
H511 N507 0.985 . S
H512 N506 0.984 . S
H513 N506 0.984 . S
H514 N502 0.984 . S
H515 N502 0.985 . S
C516 C517 1.363 . S
C516 C522 1.379 . S
C516 N524 1.356 . S
C517 C516 1.363 . S
C517 C523 1.363 . S
C518 C519 1.363 . S
C518 C523 1.379 . S
C518 N525 1.356 . S
C519 C518 1.363 . S
C519 C522 1.363 . S
N520 C522 1.356 . S
N520 H532 0.984 . S
N520 H533 0.985 . S
N521 C523 1.356 . S
N521 H526 0.984 . S
N521 H527 0.985 . S
C522 C516 1.379 . S
C522 C519 1.363 . S
C522 N520 1.356 . S
C523 C517 1.363 . S
C523 C518 1.379 . S
C523 N521 1.356 . S
N524 C516 1.356 . S
N524 H530 0.984 . S
N524 H531 0.984 . S
N525 C518 1.356 . S
N525 H528 0.984 . S
N525 H529 0.985 . S
H526 N521 0.984 . S
H527 N521 0.985 . S
H528 N525 0.984 . S
H529 N525 0.985 . S
H530 N524 0.984 . S
H531 N524 0.984 . S
H532 N520 0.984 . S
H533 N520 0.985 . S
C534 C535 1.363 . S
C534 C540 1.379 . S
C534 N542 1.356 . S
C535 C534 1.363 . S
C535 C541 1.363 . S
C536 C537 1.363 . S
C536 C541 1.379 . S
C536 N543 1.356 . S
C537 C536 1.363 . S
C537 C540 1.363 . S
N538 C540 1.356 . S
N538 H550 0.984 . S
N538 H551 0.985 . S
N539 C541 1.356 . S
N539 H544 0.984 . S
N539 H545 0.985 . S
C540 C534 1.379 . S
C540 C537 1.363 . S
C540 N538 1.356 . S
C541 C535 1.363 . S
C541 C536 1.379 . S
C541 N539 1.356 . S
N542 C534 1.356 . S
N542 H548 0.984 . S
N542 H549 0.984 . S
N543 C536 1.356 . S
N543 H546 0.984 . S
N543 H547 0.989 . S
H544 N539 0.984 . S
H545 N539 0.985 . S
H546 N543 0.984 . S
H547 N543 0.989 . S
H548 N542 0.984 . S
H549 N542 0.984 . S
H550 N538 0.984 . S
H551 N538 0.985 . S
C552 C553 1.363 . S
C552 C558 1.379 . S
C552 N560 1.356 . S
C553 C552 1.363 . S
C553 C559 1.363 . S
C554 C555 1.363 . S
C554 C559 1.379 . S
C554 N561 1.356 1_556 S
C555 C554 1.363 . S
C555 C558 1.363 . S
N556 C558 1.356 . S
N556 H568 0.984 . S
N556 H569 0.985 . S
N557 C559 1.356 . S
N557 H562 0.984 . S
N557 H563 0.985 . S
C558 C552 1.379 . S
C558 C555 1.363 . S
C558 N556 1.356 . S
C559 C553 1.363 . S
C559 C554 1.379 . S
C559 N557 1.356 . S
N560 C552 1.356 . S
N560 H566 0.984 . S
N560 H567 0.984 . S
N561 C554 1.356 1_554 S
N561 H564 0.984 . S
N561 H565 0.985 . S
H562 N557 0.984 . S
H563 N557 0.985 . S
H564 N561 0.984 . S
H565 N561 0.985 . S
H566 N560 0.984 . S
H567 N560 0.984 . S
H568 N556 0.984 . S
H569 N556 0.985 . S
C570 C571 1.363 . S
C570 C576 1.379 . S
C570 N578 1.356 . S
C571 C570 1.363 . S
C571 C577 1.363 1_655 S
C572 C573 1.363 1_455 S
C572 C577 1.379 . S
C572 N579 1.356 . S
C573 C572 1.363 1_655 S
C573 C576 1.363 . S
N574 C576 1.356 . S
N574 H586 0.984 . S
N574 H587 0.985 . S
N575 C577 1.356 . S
N575 H580 0.984 . S
N575 H581 0.985 . S
C576 C570 1.379 . S
C576 C573 1.363 . S
C576 N574 1.356 . S
C577 C571 1.363 1_455 S
C577 C572 1.379 . S
C577 N575 1.356 . S
N578 C570 1.356 . S
N578 H584 0.984 . S
N578 H585 0.984 . S
N579 C572 1.356 . S
N579 H582 0.984 . S
N579 H583 0.985 . S
H580 N575 0.984 . S
H581 N575 0.985 . S
H582 N579 0.984 . S
H583 N579 0.985 . S
H584 N578 0.984 . S
H585 N578 0.984 . S
H586 N574 0.984 . S
H587 N574 0.985 . S
C588 C589 1.363 . S
C588 C594 1.379 . S
C588 N596 1.356 . S
C589 C588 1.363 . S
C589 C595 1.363 . S
C590 C591 1.363 . S
C590 C595 1.379 . S
C590 N597 1.356 . S
C591 C590 1.363 . S
C591 C594 1.363 . S
N592 C594 1.356 . S
N592 H604 0.984 . S
N592 H605 0.985 . S
N593 C595 1.356 . S
N593 H598 0.984 . S
N593 H599 0.985 . S
C594 C588 1.379 . S
C594 C591 1.363 . S
C594 N592 1.356 . S
C595 C589 1.363 . S
C595 C590 1.379 . S
C595 N593 1.356 . S
N596 C588 1.356 . S
N596 H602 0.984 . S
N596 H603 0.984 . S
N597 C590 1.356 . S
N597 H600 0.984 . S
N597 H601 0.985 . S
H598 N593 0.984 . S
H599 N593 0.985 . S
H600 N597 0.984 . S
H601 N597 0.985 . S
H602 N596 0.984 . S
H603 N596 0.984 . S
H604 N592 0.984 . S
H605 N592 0.985 . S
C606 C607 1.363 . S
C606 C612 1.379 . S
C606 N614 1.356 . S
C607 C606 1.363 . S
C607 C613 1.363 . S
C608 C609 1.363 . S
C608 C613 1.379 . S
C608 N615 1.356 . S
C609 C608 1.363 . S
C609 C612 1.363 . S
N610 C612 1.356 . S
N610 H622 0.984 . S
N610 H623 0.985 . S
N611 C613 1.356 . S
N611 H616 0.984 . S
N611 H617 0.985 . S
C612 C606 1.379 . S
C612 C609 1.363 . S
C612 N610 1.356 . S
C613 C607 1.363 . S
C613 C608 1.379 . S
C613 N611 1.356 . S
N614 C606 1.356 . S
N614 H620 0.984 . S
N614 H621 0.984 . S
N615 C608 1.356 . S
N615 H618 0.984 . S
N615 H619 0.985 . S
H616 N611 0.984 . S
H617 N611 0.985 . S
H618 N615 0.984 . S
H619 N615 0.985 . S
H620 N614 0.984 . S
H621 N614 0.984 . S
H622 N610 0.984 . S
H623 N610 0.985 . S
C624 C625 1.363 . S
C624 C630 1.379 . S
C624 N632 1.356 . S
C625 C624 1.363 . S
C625 C631 1.363 . S
C626 C627 1.363 . S
C626 C631 1.379 . S
C626 N633 1.356 . S
C627 C626 1.363 . S
C627 C630 1.363 . S
N628 C630 1.356 . S
N628 H640 0.984 . S
N628 H641 0.985 . S
N629 C631 1.356 . S
N629 H634 0.984 . S
N629 H635 0.985 1_556 S
C630 C624 1.379 . S
C630 C627 1.363 . S
C630 N628 1.356 . S
C631 C625 1.363 . S
C631 C626 1.379 . S
C631 N629 1.356 . S
N632 C624 1.356 . S
N632 H638 0.984 . S
N632 H639 0.984 . S
N633 C626 1.356 . S
N633 H636 0.984 . S
N633 H637 0.985 1_556 S
H634 N629 0.984 . S
H635 N629 0.985 1_554 S
H636 N633 0.984 . S
H637 N633 0.985 1_554 S
H638 N632 0.984 . S
H639 N632 0.984 . S
H640 N628 0.984 . S
H641 N628 0.985 . S
C642 C643 1.363 . S
C642 C648 1.379 . S
C642 N650 1.356 . S
C643 C642 1.363 . S
C643 C649 1.363 . S
C644 C645 1.363 . S
C644 C649 1.379 . S
C644 N651 1.356 . S
C645 C644 1.363 . S
C645 C648 1.363 . S
N646 C648 1.356 . S
N646 H658 0.984 . S
N646 H659 0.985 . S
N647 C649 1.356 . S
N647 H652 0.984 . S
N647 H653 0.985 . S
C648 C642 1.379 . S
C648 C645 1.363 . S
C648 N646 1.356 . S
C649 C643 1.363 . S
C649 C644 1.379 . S
C649 N647 1.356 . S
N650 C642 1.356 . S
N650 H656 0.984 . S
N650 H657 0.984 . S
N651 C644 1.356 . S
N651 H654 0.984 . S
N651 H655 0.985 1_554 S
H652 N647 0.984 . S
H653 N647 0.985 . S
H654 N651 0.984 . S
H655 N651 0.985 1_556 S
H656 N650 0.984 . S
H657 N650 0.984 . S
H658 N646 0.984 . S
H659 N646 0.985 . S
C660 C661 1.363 . S
C660 C666 1.379 . S
C660 N668 1.356 . S
C661 C660 1.363 . S
C661 C667 1.363 . S
C662 C663 1.363 . S
C662 C667 1.379 . S
C662 N669 1.356 . S
C663 C662 1.363 . S
C663 C666 1.363 . S
N664 C666 1.356 . S
N664 H676 0.984 . S
N664 H677 0.985 . S
N665 C667 1.356 . S
N665 H670 0.984 . S
N665 H671 0.985 . S
C666 C660 1.379 . S
C666 C663 1.363 . S
C666 N664 1.356 . S
C667 C661 1.363 . S
C667 C662 1.379 . S
C667 N665 1.356 . S
N668 C660 1.356 . S
N668 H674 0.984 . S
N668 H675 0.984 . S
N669 C662 1.356 . S
N669 H672 0.984 . S
N669 H673 0.985 . S
H670 N665 0.984 . S
H671 N665 0.985 . S
H672 N669 0.984 . S
H673 N669 0.985 . S
H674 N668 0.984 . S
H675 N668 0.984 . S
H676 N664 0.984 . S
H677 N664 0.985 . S
C678 C679 1.363 . S
C678 C684 1.379 . S
C678 N686 1.356 . S
C679 C678 1.363 . S
C679 C685 1.363 . S
C680 C681 1.363 . S
C680 C685 1.379 . S
C680 N687 1.356 . S
C681 C680 1.363 . S
C681 C684 1.363 . S
N682 C684 1.356 . S
N682 H694 0.984 . S
N682 H695 0.985 . S
N683 C685 1.356 . S
N683 H688 0.984 . S
N683 H689 0.985 . S
C684 C678 1.379 . S
C684 C681 1.363 . S
C684 N682 1.356 . S
C685 C679 1.363 . S
C685 C680 1.379 . S
C685 N683 1.356 . S
N686 C678 1.356 . S
N686 H692 0.984 . S
N686 H693 0.984 . S
N687 C680 1.356 . S
N687 H690 0.984 . S
N687 H691 0.985 . S
H688 N683 0.984 . S
H689 N683 0.985 . S
H690 N687 0.984 . S
H691 N687 0.985 . S
H692 N686 0.984 . S
H693 N686 0.984 . S
H694 N682 0.984 . S
H695 N682 0.985 . S
C265 C9 1.230 . S
C267 C108 1.306 . S
C283 C21 1.131 . S
C285 C169 1.185 . S
C303 C207 2.314 . S
C301 C30 2.340 . S
C319 C43 2.219 . S
C321 C247 2.336 . S
C339 C167 1.358 . S
C337 C4 1.118 . S
C357 C135 2.315 . S
C355 C22 2.199 . S
C375 C244 1.569 . S
C373 C34 1.621 . S
C393 C204 1.876 . S
C391 C48 1.889 . S
C409 C8 1.375 . S
C411 C249 1.409 . S
C429 C164 2.378 . S
C427 C35 2.360 . S
C445 C47 2.472 . S
C447 C106 2.411 . S
C463 C17 1.443 . S
C465 C209 1.509 . S
C483 C129 0.884 . S
C481 C60 0.876 . S
C499 C74 1.207 . S
C501 C148 1.196 . S
C517 C82 2.115 . S
C519 C186 2.111 . S
C535 C100 2.839 . S
C537 C226 2.771 . S
C553 C61 1.521 . S
C555 C146 1.609 . S
C573 C124 1.835 . S
C571 C73 1.690 . S
C591 C255 1.989 . S
C589 C87 2.019 . S
C609 C215 1.725 . S
C607 C95 1.756 . S
C625 C56 1.293 . S
C627 C228 1.245 . S
C645 C175 2.527 . S
C643 C86 2.526 . S
C663 C127 2.360 . S
C661 C99 2.407 . S
C679 C69 1.110 . S
C681 C188 1.355 . S
