# Generated by pormake.
# Topology pyr, (3,6)-cn, num edge types: 1
# Building blocks:
#     Node 0, Type 0, BuildingBlock: ESEHIV_clean_linker_0, # of connection points: 3
#     Node 1, Type 0, BuildingBlock: ESEHIV_clean_linker_0, # of connection points: 3
#     Node 2, Type 0, BuildingBlock: ESEHIV_clean_linker_0, # of connection points: 3
#     Node 3, Type 0, BuildingBlock: ESEHIV_clean_linker_0, # of connection points: 3
#     Node 4, Type 0, BuildingBlock: ESEHIV_clean_linker_0, # of connection points: 3
#     Node 5, Type 0, BuildingBlock: ESEHIV_clean_linker_0, # of connection points: 3
#     Node 6, Type 0, BuildingBlock: ESEHIV_clean_linker_0, # of connection points: 3
#     Node 7, Type 0, BuildingBlock: ESEHIV_clean_linker_0, # of connection points: 3
#     Node 8, Type 1, BuildingBlock: BETFEN_clean_sbu_0, # of connection points: 6
#     Node 9, Type 1, BuildingBlock: BETFEN_clean_sbu_0, # of connection points: 6
#     Node 10, Type 1, BuildingBlock: BETFEN_clean_sbu_0, # of connection points: 6
#     Node 11, Type 1, BuildingBlock: BETFEN_clean_sbu_0, # of connection points: 6
#     Edge 12, Type (0, 1), BuildingBlock: EZIPEK_clean_linker_0, # of connection points: 2
#     Edge 13, Type (0, 1), BuildingBlock: EZIPEK_clean_linker_0, # of connection points: 2
#     Edge 14, Type (0, 1), BuildingBlock: EZIPEK_clean_linker_0, # of connection points: 2
#     Edge 15, Type (0, 1), BuildingBlock: EZIPEK_clean_linker_0, # of connection points: 2
#     Edge 16, Type (0, 1), BuildingBlock: EZIPEK_clean_linker_0, # of connection points: 2
#     Edge 17, Type (0, 1), BuildingBlock: EZIPEK_clean_linker_0, # of connection points: 2
#     Edge 18, Type (0, 1), BuildingBlock: EZIPEK_clean_linker_0, # of connection points: 2
#     Edge 19, Type (0, 1), BuildingBlock: EZIPEK_clean_linker_0, # of connection points: 2
#     Edge 20, Type (0, 1), BuildingBlock: EZIPEK_clean_linker_0, # of connection points: 2
#     Edge 21, Type (0, 1), BuildingBlock: EZIPEK_clean_linker_0, # of connection points: 2
#     Edge 22, Type (0, 1), BuildingBlock: EZIPEK_clean_linker_0, # of connection points: 2
#     Edge 23, Type (0, 1), BuildingBlock: EZIPEK_clean_linker_0, # of connection points: 2
#     Edge 24, Type (0, 1), BuildingBlock: EZIPEK_clean_linker_0, # of connection points: 2
#     Edge 25, Type (0, 1), BuildingBlock: EZIPEK_clean_linker_0, # of connection points: 2
#     Edge 26, Type (0, 1), BuildingBlock: EZIPEK_clean_linker_0, # of connection points: 2
#     Edge 27, Type (0, 1), BuildingBlock: EZIPEK_clean_linker_0, # of connection points: 2
#     Edge 28, Type (0, 1), BuildingBlock: EZIPEK_clean_linker_0, # of connection points: 2
#     Edge 29, Type (0, 1), BuildingBlock: EZIPEK_clean_linker_0, # of connection points: 2
#     Edge 30, Type (0, 1), BuildingBlock: EZIPEK_clean_linker_0, # of connection points: 2
#     Edge 31, Type (0, 1), BuildingBlock: EZIPEK_clean_linker_0, # of connection points: 2
#     Edge 32, Type (0, 1), BuildingBlock: EZIPEK_clean_linker_0, # of connection points: 2
#     Edge 33, Type (0, 1), BuildingBlock: EZIPEK_clean_linker_0, # of connection points: 2
#     Edge 34, Type (0, 1), BuildingBlock: EZIPEK_clean_linker_0, # of connection points: 2
#     Edge 35, Type (0, 1), BuildingBlock: EZIPEK_clean_linker_0, # of connection points: 2
# Relax obj value: 0.255
# Max RMSD: 0.302
# Mean RMSD: 0.149
data_MOF--net-pyr--node1-BETFEN_clean_sbu_0--node2-ESEHIV_clean_linker_0--edge1-EZIPEK_clean_linker_0
_symmetry_space_group_name_H-M    P1
_symmetry_Int_Tables_number       1
_symmetry_cell_setting            triclinic
loop_
_symmetry_equiv_pos_as_xyz
'x, y, z'
_cell_length_a     24.720598
_cell_length_b     28.129379
_cell_length_c     24.957184
_cell_angle_alpha  91.456941
_cell_angle_beta   99.655046
_cell_angle_gamma 113.19974
loop_
_atom_site_label
_atom_site_type_symbol
_atom_site_fract_x
_atom_site_fract_y
_atom_site_fract_z
_atom_type_partial_charge
H0 H 0.48639 0.43017 0.32082 0.0
H1 H 0.44587 0.29836 0.21068 0.0
H2 H 0.48568 0.44492 0.14792 0.0
C3 C 0.48502 0.41576 0.28003 0.0
C4 C 0.4871 0.4468 0.23589 0.0
C5 C 0.4652 0.36186 0.27024 0.0
C6 C 0.46271 0.34031 0.21876 0.0
C7 C 0.4733 0.37136 0.17561 0.0
C8 C 0.485 0.42415 0.18375 0.0
H9 H 0.26468 0.89041 0.75534 0.0
H10 H 0.38838 0.82297 0.735 0.0
H11 H 0.28191 0.84956 0.59345 0.0
C12 C 0.28176 0.87108 0.72853 0.0
C13 C 0.26572 0.86995 0.67187 0.0
C14 C 0.32681 0.85533 0.75105 0.0
C15 C 0.35175 0.83323 0.71711 0.0
C16 C 0.33569 0.83067 0.6602 0.0
C17 C 0.29196 0.84858 0.63727 0.0
H18 H 0.69524 0.29359 0.92732 0.0
H19 H 0.71868 0.417 0.82435 0.0
H20 H 0.55537 0.27677 0.78961 0.0
C21 C 0.67786 0.30877 0.89205 0.0
C22 C 0.62146 0.27838 0.86034 0.0
C23 C 0.71299 0.35797 0.879 0.0
C24 C 0.69119 0.37855 0.83384 0.0
C25 C 0.63405 0.35039 0.80133 0.0
C26 C 0.59911 0.29944 0.81445 0.0
H27 H 0.85913 0.71707 0.43561 0.0
H28 H 0.97711 0.73567 0.32155 0.0
H29 H 0.83983 0.58423 0.33218 0.0
C30 C 0.87345 0.70047 0.40386 0.0
C31 C 0.84359 0.64702 0.38683 0.0
C32 C 0.92116 0.733 0.38059 0.0
C33 C 0.93983 0.71095 0.33918 0.0
C34 C 0.91129 0.65688 0.3213 0.0
C35 C 0.86265 0.62543 0.34543 0.0
H36 H 0.69827 0.73385 0.73023 0.0
H37 H 0.72828 0.63792 0.85141 0.0
H38 H 0.62039 0.72251 0.87313 0.0
C39 C 0.68791 0.71547 0.76707 0.0
C40 C 0.65461 0.73102 0.79838 0.0
C41 C 0.71758 0.68467 0.78802 0.0
C42 C 0.70449 0.66117 0.83549 0.0
C43 C 0.67146 0.67636 0.86799 0.0
C44 C 0.64505 0.70995 0.84822 0.0
H45 H 0.69344 0.22294 0.35512 0.0
H46 H 0.83406 0.1725 0.34466 0.0
H47 H 0.81144 0.22049 0.50171 0.0
C48 C 0.733 0.21757 0.37472 0.0
C49 C 0.75199 0.22813 0.43147 0.0
C50 C 0.76227 0.19744 0.34342 0.0
C51 C 0.81236 0.18942 0.36896 0.0
C52 C 0.82849 0.19492 0.42599 0.0
C53 C 0.79962 0.21628 0.45752 0.0
H54 H 0.39946 0.78073 0.19657 0.0
H55 H 0.35452 0.67095 0.31315 0.0
H56 H 0.54105 0.77219 0.31724 0.0
C57 C 0.41388 0.76502 0.23286 0.0
C58 C 0.47439 0.78564 0.25805 0.0
C59 C 0.37233 0.72176 0.2506 0.0
C60 C 0.38926 0.70229 0.29849 0.0
C61 C 0.45048 0.71708 0.32241 0.0
C62 C 0.49358 0.7598 0.30128 0.0
H63 H 0.11141 0.32705 0.79983 0.0
H64 H 0.22775 0.34785 0.68398 0.0
H65 H 0.24878 0.47907 0.79086 0.0
C66 C 0.14823 0.35223 0.78197 0.0
C67 C 0.17716 0.40614 0.80093 0.0
C68 C 0.16646 0.33094 0.73956 0.0
C69 C 0.2137 0.36396 0.71635 0.0
C70 C 0.24372 0.41712 0.73418 0.0
C71 C 0.2254 0.43812 0.77662 0.0
Pr72 Pr 1.00799 1.01333 0.582 0.0
Pr73 Pr 0.09287 0.05702 0.52533 0.0
C74 C 0.9301 0.95146 0.63959 0.0
C75 C 0.91018 0.89732 0.65142 0.0
C76 C 0.85567 0.8739 0.66878 0.0
C77 C 0.8381 0.82379 0.68441 0.0
C78 C 0.87515 0.79676 0.68348 0.0
C79 C 0.92842 0.81906 0.66353 0.0
C80 C 0.94575 0.86926 0.6472 0.0
C81 C 0.06607 0.12029 0.62332 0.0
C82 C 0.13046 0.99532 0.61383 0.0
C83 C 0.17407 0.10876 0.46498 0.0
C84 C 0.21823 0.15327 0.44468 0.0
C85 C 0.20921 0.15856 0.38859 0.0
C86 C 0.25441 0.19496 0.36644 0.0
C87 C 0.30937 0.22642 0.4 0.0
C88 C 0.31821 0.22245 0.45634 0.0
C89 C 0.27284 0.18589 0.47864 0.0
C90 C 1.03165 0.949 0.48567 0.0
C91 C 0.97229 0.07874 0.49538 0.0
O92 O 0.91394 0.9592 0.58925 0.0
O93 O 0.98554 0.98164 0.66119 0.0
O94 O 0.09362 0.0927 0.61126 0.0
O95 O 1.0089 0.09299 0.61345 0.0
O96 O 0.15325 0.04223 0.59914 0.0
O97 O 0.07198 0.97079 0.60354 0.0
O98 O 0.18805 0.09722 0.51411 0.0
O99 O 0.11655 0.09471 0.44772 0.0
O100 O 1.0063 0.97869 0.49612 0.0
O101 O 0.08893 0.97495 0.49592 0.0
O102 O 0.94857 0.03211 0.51068 0.0
O103 O 1.03109 0.10222 0.50431 0.0
H104 H 0.82751 0.89486 0.67164 0.0
H105 H 0.79656 0.80667 0.69934 0.0
H106 H 0.95725 0.79851 0.66241 0.0
H107 H 0.98752 0.88664 0.63278 0.0
H108 H 0.16791 0.13336 0.36156 0.0
H109 H 0.24691 0.1981 0.32287 0.0
H110 H 0.36026 0.24705 0.4827 0.0
H111 H 0.28113 0.18224 0.52203 0.0
Pr112 Pr 0.50067 0.03048 0.06271 0.0
Pr113 Pr 0.59453 1.013 1.03656 0.0
C114 C 0.40301 0.04077 0.08501 0.0
C115 C 0.38807 0.08673 0.08361 0.0
C116 C 0.36551 0.1005 1.03341 0.0
C117 C 0.36907 0.15099 1.02886 0.0
C118 C 0.39378 0.1876 0.07472 0.0
C119 C 0.4093 0.17216 0.126 0.0
C120 C 0.40636 0.12202 0.1305 0.0
C121 C 0.55518 0.10464 0.9911 0.0
C122 C 0.63152 0.10134 0.13139 0.0
C123 C 0.67434 0.99061 0.99227 0.0
C124 C 0.67258 0.97126 0.93696 0.0
C125 C 0.70123 0.93812 0.93094 0.0
C126 C 0.68693 0.90715 0.88219 0.0
C127 C 0.64414 0.90921 0.83832 0.0
C128 C 0.61893 0.94554 0.84273 0.0
C129 C 0.63271 0.97621 0.89225 0.0
C130 C 0.558 0.9587 0.12798 0.0
C131 C 0.46392 0.94265 0.96447 0.0
O132 O 0.44771 0.04337 0.1233 0.0
O133 O 0.40478 1.02115 1.03771 0.0
O134 O 0.54391 0.05654 0.98519 0.0
O135 O 0.54152 0.11543 1.03627 0.0
O136 O 0.64817 0.09356 0.08615 0.0
O137 O 0.57697 0.07259 0.13832 0.0
O138 O 0.67829 0.03805 0.99981 0.0
O139 O 0.63505 0.95745 1.01671 0.0
O140 O 0.52295 0.95984 0.08517 0.0
O141 O 0.6125 0.98806 0.12507 0.0
O142 O 0.44404 0.95429 1.00595 0.0
O143 O 0.52069 0.96591 0.96213 0.0
H144 H 0.34977 0.07374 0.99667 0.0
H145 H 0.35624 0.16234 0.9892 0.0
H146 H 0.42776 0.20009 0.16196 0.0
H147 H 0.42284 0.11231 0.16989 0.0
H148 H 0.73127 0.93328 0.96525 0.0
H149 H 0.70685 0.87923 0.87993 0.0
H150 H 0.58642 0.9481 0.80923 0.0
H151 H 0.60958 1.00133 0.89664 0.0
Pr152 Pr 0.57191 0.56897 0.59431 0.0
Pr153 Pr 0.50883 0.48569 0.51806 0.0
C154 C 0.60285 0.65793 0.65629 0.0
C155 C 0.5706 0.6926 0.65096 0.0
C156 C 0.51653 0.67872 0.66989 0.0
C157 C 0.48166 0.7072 0.65898 0.0
C158 C 0.49893 0.74926 0.62744 0.0
C159 C 0.55232 0.76285 0.60741 0.0
C160 C 0.58874 0.73562 0.62039 0.0
C161 C 0.59315 0.48146 0.63203 0.0
C162 C 0.43312 0.49836 0.60707 0.0
C163 C 0.47631 0.39778 0.45283 0.0
C164 C 0.50938 0.36392 0.45236 0.0
C165 C 0.55388 0.37432 0.42057 0.0
C166 C 0.59193 0.34829 0.42646 0.0
C167 C 0.58673 0.31164 0.46454 0.0
C168 C 0.54157 0.30026 0.49555 0.0
C169 C 0.50274 0.32568 0.48904 0.0
C170 C 0.48423 0.57261 0.4829 0.0
C171 C 0.64888 0.55734 0.50732 0.0
O172 O 0.62976 0.65508 0.61645 0.0
O173 O 0.57499 0.61264 0.67292 0.0
O174 O 0.54334 0.48123 0.60935 0.0
O175 O 0.63419 0.52797 0.63432 0.0
O176 O 0.43821 0.46278 0.57561 0.0
O177 O 0.4736 0.54648 0.61155 0.0
O178 O 0.45371 0.39924 0.49613 0.0
O179 O 0.50177 0.44381 0.4368 0.0
O180 O 0.53495 0.57322 0.50356 0.0
O181 O 0.4447 0.52513 0.48015 0.0
O182 O 0.64271 0.5928 0.53768 0.0
O183 O 0.60837 0.50907 0.50232 0.0
H184 H 0.50042 0.6453 0.69264 0.0
H185 H 0.44052 0.6959 0.67469 0.0
H186 H 0.56599 0.79474 0.58227 0.0
H187 H 0.62983 0.74688 0.60464 0.0
H188 H 0.56033 0.40349 0.39197 0.0
H189 H 0.62631 0.35744 0.40191 0.0
H190 H 0.53709 0.27234 0.52542 0.0
H191 H 0.46923 0.31694 0.51445 0.0
Pr192 Pr 1.04077 0.57116 1.02916 0.0
Pr193 Pr 0.05146 0.49004 0.09867 0.0
C194 C 0.99495 0.63099 0.97298 0.0
C195 C 0.94325 0.6429 0.97819 0.0
C196 C 0.90257 0.64047 0.9309 0.0
C197 C 0.84908 0.64456 0.93486 0.0
C198 C 0.83528 0.6511 0.98612 0.0
C199 C 0.87597 0.65393 1.03371 0.0
C200 C 0.92991 0.65009 1.02976 0.0
C201 C 0.15441 0.60396 0.09375 0.0
C202 C 0.99666 0.56523 0.15237 0.0
C203 C 0.10095 0.43434 0.15871 0.0
C204 C 0.16513 0.4475 0.17826 0.0
C205 C 0.18715 0.40852 0.18068 0.0
C206 C 0.24899 0.42187 0.1937 0.0
C207 C 0.28924 0.47431 0.20437 0.0
C208 C 0.26723 0.51324 0.20249 0.0
C209 C 0.20565 0.49998 0.18914 0.0
C210 C 0.93834 0.459 1.03171 0.0
C211 C 0.09842 0.49664 0.97688 0.0
O212 O 1.04167 0.65019 1.01278 0.0
O213 O 0.98135 0.5826 0.95602 0.0
O214 O 0.10591 0.57838 0.10925 0.0
O215 O 0.14495 0.6147 1.04352 0.0
O216 O 1.02178 0.53215 0.16403 0.0
O217 O 0.99232 0.58021 0.10242 0.0
O218 O 0.07927 0.46421 0.18005 0.0
O219 O 0.08303 0.4245 0.10589 0.0
O220 O 0.98781 0.48344 1.01814 0.0
O221 O 0.946 0.44432 0.0804 0.0
O222 O 0.07485 0.53099 0.96526 0.0
O223 O 0.10057 0.48044 1.02641 0.0
H224 H 0.91156 0.63419 0.89088 0.0
H225 H 0.81829 0.64236 0.8977 0.0
H226 H 0.86604 0.65916 0.07355 0.0
H227 H 0.96056 0.65191 0.06695 0.0
H228 H 0.15667 0.36796 0.17149 0.0
H229 H 0.26552 0.39144 0.19506 0.0
H230 H 0.29773 0.55382 0.21058 0.0
H231 H 0.18975 0.53082 0.18636 0.0
C232 C 0.3769 0.33449 0.31634 0.0
C233 C 0.42885 0.32793 0.30711 0.0
C234 C 0.40296 0.25282 0.36041 0.0
C235 C 0.3562 0.26462 0.37504 0.0
N236 N 0.30832 0.32426 0.37764 0.0
N237 N 0.49412 0.28263 0.3231 0.0
C238 C 0.34689 0.30833 0.35695 0.0
C239 C 0.44282 0.2875 0.33 0.0
N240 N 0.35243 0.36146 0.28277 0.0
N241 N 0.40767 0.2076 0.37363 0.0
H242 H 0.52434 0.30781 0.30149 0.0
H243 H 0.50931 0.25667 0.3426 0.0
H244 H 0.38061 0.18234 0.3975 0.0
H245 H 0.43553 0.19348 0.35793 0.0
H246 H 0.31114 0.36247 0.28493 0.0
H247 H 0.36867 0.37659 0.24823 0.0
H248 H 0.30417 0.35884 0.36878 0.0
H249 H 0.28532 0.3057 0.40775 0.0
C250 C 0.36117 0.84165 0.84813 0.0
C251 C 0.35921 0.87562 0.80747 0.0
C252 C 0.41191 0.95063 0.87482 0.0
C253 C 0.42143 0.9177 0.91363 0.0
N254 N 0.4103 0.8325 0.9378 0.0
N255 N 0.39869 0.96276 0.77941 0.0
C256 C 0.39742 0.86318 0.90062 0.0
C257 C 0.38909 0.93028 0.81996 0.0
N258 N 0.32785 0.78941 0.83682 0.0
N259 N 0.42398 1.00128 0.89041 0.0
H260 H 0.38629 0.94953 0.73797 0.0
H261 H 0.42534 1.0025 0.787 0.0
H262 H 0.43774 1.01689 0.93113 0.0
H263 H 0.41317 1.02562 0.86387 0.0
H264 H 0.32337 0.76322 0.86624 0.0
H265 H 0.30102 0.77274 0.79863 0.0
H266 H 0.39933 0.79308 0.92869 0.0
H267 H 0.43509 0.84742 0.97713 0.0
C268 C 0.594 0.41698 0.76748 0.0
C269 C 0.61299 0.37703 0.75501 0.0
C270 C 0.61139 0.40133 0.65991 0.0
C271 C 0.59833 0.44449 0.67401 0.0
N272 N 0.58348 0.49665 0.74361 0.0
N273 N 0.64449 0.33365 0.69025 0.0
C274 C 0.59113 0.453 0.72847 0.0
C275 C 0.62249 0.36967 0.70123 0.0
N276 N 0.57775 0.41994 0.81678 0.0
N277 N 0.61293 0.39042 0.6067 0.0
H278 H 0.6508 0.30877 0.71859 0.0
H279 H 0.65957 0.33009 0.65447 0.0
H280 H 0.60627 0.41312 0.57593 0.0
H281 H 0.61696 0.35721 0.59233 0.0
H282 H 0.5577 0.44437 0.82689 0.0
H283 H 0.57935 0.39437 0.84598 0.0
H284 H 0.58553 0.50891 0.78389 0.0
H285 H 0.57883 0.52278 0.71622 0.0
C286 C 0.89753 0.61424 0.22469 0.0
C287 C 0.93305 0.63303 0.27805 0.0
C288 C 1.01198 0.6106 0.2483 0.0
C289 C 0.97415 0.58738 0.19649 0.0
N290 N 0.87485 0.55749 0.14152 0.0
N291 N 1.02022 0.63995 0.3431 0.0
C292 C 0.91533 0.58684 0.18638 0.0
C293 C 0.98918 0.62858 0.29041 0.0
N294 N 0.84721 0.62368 0.20984 0.0
N295 N 0.07089 0.61786 0.2569 0.0
H296 H 1.00528 0.65293 0.37486 0.0
H297 H 0.05777 0.63199 0.35624 0.0
H298 H 0.08984 0.60588 0.22788 0.0
H299 H 0.10241 0.64007 0.29089 0.0
H300 H 0.82307 0.61637 0.1699 0.0
H301 H 0.83268 0.64323 0.23642 0.0
H302 H 0.82981 0.55156 0.13397 0.0
H303 H 0.8847 0.53404 0.11523 0.0
C304 C 0.39476 0.31879 0.09917 0.0
C305 C 0.45669 0.3438 0.12048 0.0
C306 C 0.47421 0.27481 0.07626 0.0
C307 C 0.41192 0.24369 0.06976 0.0
N308 N 0.31091 0.23673 0.06209 0.0
N309 N 0.55731 0.35482 0.11931 0.0
C310 C 0.37111 0.2665 0.07529 0.0
C311 C 0.49724 0.32545 0.10383 0.0
N312 N 0.36029 0.34491 0.10746 0.0
N313 N 0.51079 0.25417 0.05927 0.0
H314 H 0.57345 0.39236 0.13902 0.0
H315 H 0.59054 0.34253 0.11312 0.0
H316 H 0.49388 0.21642 1.04014 0.0
H317 H 0.55647 0.27489 0.06088 0.0
H318 H 0.31405 0.33087 0.09377 0.0
H319 H 0.31405 0.33087 0.09377 0.0
H320 H 0.27793 0.24898 0.06909 0.0
H321 H 0.2939 0.19866 1.04376 0.0
C322 C 0.17349 0.88778 0.66781 0.0
C323 C 0.22928 0.89947 0.65158 0.0
C324 C 0.21805 0.97146 0.60546 0.0
C325 C 0.16788 0.96552 0.62988 0.0
N326 N 0.10784 0.92406 0.69615 0.0
N327 N 0.31261 0.96351 0.61866 0.0
C328 C 0.1484 0.92534 0.66457 0.0
C329 C 0.25409 0.94456 0.62448 0.0
N330 N 0.14438 0.84083 0.68615 0.0
N331 N 0.2298 0.99955 0.56183 0.0
H332 H 0.34223 0.94718 0.63453 0.0
H333 H 0.33325 0.99909 0.60345 0.0
H334 H 0.20162 1.01535 0.54161 0.0
H335 H 0.26339 1.00076 0.54089 0.0
H336 H 0.10113 0.82887 0.69413 0.0
H337 H 0.161 0.81195 0.68774 0.0
H338 H 0.09571 0.89756 0.72498 0.0
H339 H 0.09186 0.95316 0.69822 0.0
C340 C 0.78393 0.43202 0.94856 0.0
C341 C 0.77323 0.3873 0.91385 0.0
C342 C 0.87026 0.38818 0.95806 0.0
C343 C 0.88201 0.43454 0.99058 0.0
N344 N 0.85846 0.50884 1.00391 0.0
N345 N 0.81146 0.32953 0.87687 0.0
C346 C 0.84141 0.459 0.98199 0.0
C347 C 0.81812 0.36738 0.91597 0.0
N348 N 0.73857 0.44743 0.95184 0.0
N349 N 0.90842 0.36366 0.96785 0.0
H350 H 0.77434 0.31424 0.84492 0.0
H351 H 0.84501 0.31681 0.87299 0.0
H352 H 0.9479 0.37853 0.99724 0.0
H353 H 0.89894 0.32686 0.94955 0.0
H354 H 0.74237 0.4754 0.98203 0.0
H355 H 0.69554 0.42896 0.92824 0.0
H356 H 0.83272 0.53028 0.99429 0.0
H357 H 0.90121 0.53048 1.02662 0.0
C358 C 0.7993 0.59008 0.45959 0.0
C359 C 0.79073 0.61544 0.41225 0.0
C360 C 0.68624 0.59444 0.42273 0.0
C361 C 0.69663 0.57354 0.4729 0.0
N362 N 0.76339 0.55343 0.54094 0.0
N363 N 0.72702 0.64351 0.34927 0.0
C364 C 0.75316 0.57144 0.49154 0.0
C365 C 0.73417 0.61762 0.39377 0.0
N366 N 0.85174 0.58379 0.47384 0.0
N367 N 0.62999 0.59159 0.40247 0.0
H368 H 0.75957 0.65807 0.32526 0.0
H369 H 0.69031 0.6528 0.33722 0.0
H370 H 0.5943 0.57578 0.4228 0.0
H371 H 0.61711 0.60137 0.36394 0.0
H372 H 0.85959 0.56178 0.50467 0.0
H373 H 0.88639 0.59774 0.45197 0.0
H374 H 0.80514 0.55579 0.5604 0.0
H375 H 0.73021 0.53832 0.56424 0.0
C376 C 0.45231 0.51209 0.19251 0.0
C377 C 0.47092 0.49316 0.24084 0.0
C378 C 0.38094 0.48496 0.27273 0.0
C379 C 0.35458 0.48837 0.21869 0.0
N380 N 0.36787 0.51411 0.12832 0.0
N381 N 0.47557 0.51071 0.33615 0.0
C382 C 0.39151 0.50619 0.17906 0.0
C383 C 0.44284 0.49651 0.28448 0.0
N384 N 0.49319 0.53568 0.16084 0.0
N385 N 0.34731 0.46995 0.31224 0.0
H386 H 0.52153 0.51967 0.34355 0.0
H387 H 0.45776 0.5162 0.3696 0.0
H388 H 0.30181 0.46266 0.30559 0.0
H389 H 0.36458 0.46256 0.35067 0.0
H390 H 0.48432 0.5538 0.12663 0.0
H391 H 0.53758 0.53973 0.17227 0.0
H392 H 0.39144 0.52244 0.09646 0.0
H393 H 0.32355 0.51009 0.11742 0.0
C394 C 0.61835 0.18923 0.87728 0.0
C395 C 0.59006 0.22459 0.87778 0.0
C396 C 0.52464 0.16796 0.9354 0.0
C397 C 0.56214 0.14028 0.94545 0.0
N398 N 0.64467 0.12392 0.9231 0.0
N399 N 0.51628 0.24785 0.90987 0.0
C400 C 0.6083 0.15006 0.91468 0.0
C401 C 0.54256 0.21358 0.90692 0.0
N402 N 0.65549 0.19375 0.84113 0.0
N403 N 0.47023 0.14916 0.95073 0.0
H404 H 0.52709 0.28083 0.88874 0.0
H405 H 0.48642 0.245 0.9358 0.0
H406 H 0.45428 0.11426 0.96833 0.0
H407 H 0.43844 0.16463 0.93976 0.0
H408 H 0.67389 0.16701 0.83493 0.0
H409 H 0.66304 0.2218 0.81342 0.0
H410 H 0.68351 0.13327 0.90716 0.0
H411 H 0.63764 0.09451 0.94884 0.0
C412 C 0.92564 0.8254 0.38756 0.0
C413 C 0.95223 0.78983 0.4027 0.0
C414 C 1.02519 0.85613 0.47512 0.0
C415 C 1.00195 0.89361 0.45755 0.0
N416 N 0.93703 0.91529 0.38819 0.0
N417 N 1.03391 0.77477 0.45514 0.0
C418 C 0.95381 0.87852 0.41146 0.0
C419 C 1.00424 0.80652 0.44441 0.0
N420 N 0.87289 0.8083 0.35049 0.0
N421 N 0.0649 0.86641 0.52341 0.0
H422 H 1.01881 0.73743 0.4355 0.0
H423 H 0.07618 0.78703 0.48007 0.0
H424 H 0.07988 0.90083 0.54825 0.0
H425 H 0.07801 0.83885 0.54188 0.0
H426 H 0.84709 0.82993 0.34274 0.0
H427 H 0.85297 0.77099 0.32987 0.0
H428 H 0.90678 0.90781 0.35135 0.0
H429 H 0.9576 0.95457 0.40249 0.0
C430 C 0.35479 0.76751 0.6012 0.0
C431 C 0.37424 0.81804 0.62773 0.0
C432 C 0.47895 0.82996 0.63898 0.0
C433 C 0.45953 0.77784 0.61612 0.0
N434 N 0.3828 0.70463 0.5578 0.0
N435 N 0.45287 0.90351 0.65125 0.0
C436 C 0.39853 0.74937 0.59072 0.0
C437 C 0.43592 0.85156 0.63844 0.0
N438 N 0.2951 0.73587 0.58956 0.0
N439 N 0.53679 0.85725 0.66567 0.0
H440 H 0.42145 0.91954 0.65201 0.0
H441 H 0.49698 0.93074 0.65554 0.0
H442 H 0.56991 0.84287 0.66856 0.0
H443 H 0.55099 0.89288 0.68874 0.0
H444 H 0.27851 0.69646 0.57624 0.0
H445 H 0.26227 0.74893 0.5955 0.0
H446 H 0.33976 0.68392 0.53512 0.0
H447 H 0.41459 0.69122 0.54925 0.0
C448 C 0.76714 0.67315 0.71315 0.0
C449 C 0.77314 0.6906 0.76822 0.0
C450 C 0.87485 0.75301 0.76659 0.0
C451 C 0.85894 0.74777 0.70927 0.0
N452 N 0.79794 0.69653 0.62647 0.0
N453 N 0.83776 0.74399 0.8508 0.0
C454 C 0.8085 0.70436 0.68209 0.0
C455 C 0.82951 0.7281 0.79677 0.0
N456 N 0.72055 0.62818 0.69064 0.0
N457 N 0.93188 0.78493 0.79142 0.0
H458 H 0.8067 0.72657 0.87524 0.0
H459 H 0.87494 0.77602 0.87126 0.0
H460 H 0.96457 0.8041 0.76874 0.0
H461 H 0.94787 0.78804 0.83328 0.0
H462 H 0.71635 0.61201 0.65147 0.0
H463 H 0.68991 0.6056 0.71364 0.0
H464 H 0.75841 0.66922 0.6029 0.0
H465 H 0.82934 0.7192 0.60416 0.0
C466 C 0.7231 0.12428 0.26892 0.0
C467 C 0.73458 0.17651 0.28573 0.0
C468 C 0.68244 0.18307 0.19555 0.0
C469 C 0.67681 0.13272 0.17865 0.0
N470 N 0.71708 0.06774 0.19243 0.0
N471 N 0.73839 0.25993 0.2597 0.0
C472 C 0.70566 0.10739 0.21301 0.0
C473 C 0.71838 0.20753 0.24737 0.0
N474 N 0.72446 0.08954 0.30587 0.0
N475 N 0.65326 0.20705 0.16266 0.0
H476 H 0.76704 0.27926 0.29636 0.0
H477 H 0.73142 0.2846 0.23148 0.0
H478 H 0.62898 0.1907 0.1235 0.0
H479 H 0.65082 0.24159 0.17544 0.0
H480 H 0.71202 0.05025 0.29399 0.0
H481 H 0.73003 0.0981 0.34784 0.0
H482 H 0.74059 0.04973 0.21662 0.0
H483 H 0.71109 0.05885 0.15047 0.0
C484 C 0.42909 0.62836 0.35767 0.0
C485 C 0.46558 0.68271 0.36455 0.0
C486 C 0.51791 0.66671 0.45196 0.0
C487 C 0.47517 0.61361 0.44697 0.0
N488 N 0.37207 0.5586 0.40578 0.0
N489 N 0.53518 0.75465 0.42951 0.0
C490 C 0.425 0.5988 0.40329 0.0
C491 C 0.50788 0.70237 0.41476 0.0
N492 N 0.39807 0.60441 0.30725 0.0
N493 N 0.56687 0.6843 0.49319 0.0
H494 H 0.52562 0.78152 0.40616 0.0
H495 H 0.56185 0.77079 0.46783 0.0
H496 H 0.57195 0.66285 0.52542 0.0
H497 H 0.60289 0.71999 0.49442 0.0
H498 H 0.36595 0.56656 0.30118 0.0
H499 H 0.40765 0.62176 0.27162 0.0
H500 H 0.33366 0.54938 0.37576 0.0
H501 H 0.36343 0.54098 0.44139 0.0
C502 C 0.1909 0.4411 0.90077 0.0
C503 C 0.15717 0.4291 0.84635 0.0
C504 C 0.08199 0.45479 0.87912 0.0
C505 C 0.11905 0.47278 0.93226 0.0
N506 N 0.21318 0.48635 0.99124 0.0
N507 N 0.07447 0.4323 0.78252 0.0
C508 C 0.17457 0.46653 0.94238 0.0
C509 C 0.10393 0.43832 0.83534 0.0
N510 N 0.23782 0.42658 0.91337 0.0
N511 N 1.02384 0.44977 0.87102 0.0
H512 H 0.08832 0.4197 0.74969 0.0
H513 H 1.0396 0.44412 0.77082 0.0
H514 H 1.00431 0.45761 0.90214 0.0
H515 H 0.99281 0.43193 0.83516 0.0
H516 H 0.25996 0.42807 0.95314 0.0
H517 H 0.25154 0.4088 0.88432 0.0
H518 H 0.25722 0.48944 0.99874 0.0
H519 H 0.20297 0.50324 1.02343 0.0
C520 C 0.58193 0.77451 0.78884 0.0
C521 C 0.6397 0.77644 0.78505 0.0
C522 C 0.66977 0.86728 0.76698 0.0
C523 C 0.62356 0.86905 0.79134 0.0
N524 N 0.52488 0.824 0.80933 0.0
N525 N 0.74355 0.83149 0.78002 0.0
C526 C 0.57496 0.8221 0.79511 0.0
C527 C 0.68473 0.82411 0.77431 0.0
N528 N 0.53516 0.7278 0.7886 0.0
N529 N 0.70505 0.91043 0.74622 0.0
H530 H 0.76046 0.80536 0.79633 0.0
H531 H 0.77741 0.8671 0.776 0.0
H532 H 0.69558 0.94353 0.74522 0.0
H533 H 0.7389 0.91089 0.72602 0.0
H534 H 0.49129 0.72365 0.7878 0.0
H535 H 0.53946 0.69253 0.78462 0.0
H536 H 0.49007 0.79209 0.8193 0.0
H537 H 0.519 0.85869 0.81156 0.0
C538 C 0.84497 0.12528 0.47929 0.0
C539 C 0.86805 0.16946 0.45047 0.0
C540 C 0.9534 0.14795 0.44275 0.0
C541 C 0.93477 0.10841 0.47838 0.0
N542 N 0.87125 0.07371 0.54528 0.0
N543 N 0.95188 0.22962 0.416 0.0
C544 C 0.88311 0.10109 0.50113 0.0
C545 C 0.92506 0.18318 0.4362 0.0
N546 N 0.78597 0.10423 0.48368 0.0
N547 N 0.9956 0.15032 0.41268 0.0
H548 H 0.93244 0.25655 0.41158 0.0
H549 H 0.99568 0.24332 0.40917 0.0
H550 H 1.01352 0.12244 0.41218 0.0
H551 H 1.007 0.17607 0.38308 0.0
H552 H 0.76666 0.06899 0.49996 0.0
H553 H 0.75485 0.1183 0.46572 0.0
H554 H 0.83658 0.0719 0.56502 0.0
H555 H 0.89963 0.05878 0.56693 0.0
C556 C 0.31729 0.65793 0.16808 0.0
C557 C 0.31555 0.69037 0.21193 0.0
C558 C 0.20957 0.66956 0.17566 0.0
C559 C 0.21056 0.63552 0.13301 0.0
N560 N 0.26708 0.60566 0.08134 0.0
N561 N 0.25975 0.72199 0.26248 0.0
C562 C 0.26496 0.63197 0.12724 0.0
C563 C 0.26153 0.69465 0.21721 0.0
N564 N 0.36868 0.65069 0.16662 0.0
N565 N 0.1607 0.68143 0.17377 0.0
H566 H 0.29756 0.74213 0.29272 0.0
H567 H 0.22026 0.72154 0.27228 0.0
H568 H 0.12325 0.66664 0.14219 0.0
H569 H 0.15927 0.70982 0.20037 0.0
H570 H 0.37123 0.62276 0.14024 0.0
H571 H 0.40864 0.67013 0.19457 0.0
H572 H 0.30616 0.60527 0.07152 0.0
H573 H 0.22999 0.58748 0.05005 0.0
C574 C 0.29086 0.47803 0.66496 0.0
C575 C 0.29681 0.44818 0.709 0.0
C576 C 0.39223 0.4526 0.68718 0.0
C577 C 0.38695 0.48298 0.64328 0.0
N578 N 0.33708 0.53307 0.59724 0.0
N579 N 0.3599 0.41843 0.77029 0.0
C580 C 0.33826 0.49869 0.63465 0.0
C581 C 0.34982 0.43924 0.72263 0.0
N582 N 0.23863 0.48459 0.65048 0.0
N583 N 0.43716 0.4353 0.69451 0.0
H584 H 0.32987 0.40857 0.79709 0.0
H585 H 0.40021 0.41569 0.78598 0.0
H586 H 0.47065 0.44582 0.6715 0.0
H587 H 0.43925 0.40781 0.72099 0.0
H588 H 0.228 0.50046 0.61508 0.0
H589 H 0.20423 0.47148 0.6727 0.0
H590 H 0.30663 0.55047 0.59289 0.0
H591 H 0.36934 0.54705 0.57287 0.0
C592 C 0.72596 0.71203 0.96127 0.0
C593 C 0.68114 0.66886 0.9271 0.0
C594 C 0.72412 0.61269 0.97254 0.0
C595 C 0.77878 0.65702 0.98781 0.0
N596 N 0.83027 0.75 1.00675 0.0
N597 N 0.6249 0.57697 0.91395 0.0
C598 C 0.77882 0.70723 0.98705 0.0
C599 C 0.67473 0.6185 0.93964 0.0
N600 N 0.71892 0.75742 0.96686 0.0
N601 N 0.72137 0.56565 0.98727 0.0
H602 H 0.58967 0.5824 0.88918 0.0
H603 H 0.61912 0.53843 0.91624 0.0
H604 H 0.75792 0.56242 1.01219 0.0
H605 H 0.68238 0.53165 0.97899 0.0
H606 H 0.67893 0.76033 0.95027 0.0
H607 H 0.74939 0.78957 0.99324 0.0
H608 H 0.8348 0.78784 1.00099 0.0
H609 H 0.8691 0.74712 1.02722 0.0
C610 C 0.52177 0.82274 0.17848 0.0
C611 C 0.51452 0.83143 0.23266 0.0
C612 C 0.54753 0.92524 0.22121 0.0
C613 C 0.54435 0.91489 0.16432 0.0
N614 N 0.53035 0.85331 0.0887 0.0
N615 N 0.51993 0.89108 0.30599 0.0
C616 C 0.53237 0.86348 0.14303 0.0
C617 C 0.52831 0.88296 0.25439 0.0
N618 N 0.51841 0.77499 0.16124 0.0
N619 N 0.56909 0.97557 0.24368 0.0
H620 H 0.50872 0.86156 0.33186 0.0
H621 H 0.52147 0.92614 0.32223 0.0
H622 H 0.5818 1.0072 0.22063 0.0
H623 H 0.57869 0.98624 0.28556 0.0
H624 H 0.52783 0.76622 0.12406 0.0
H625 H 0.51148 0.74522 0.18686 0.0
H626 H 0.51476 0.81601 0.06902 0.0
H627 H 0.54161 0.88218 0.06219 0.0
C628 C 0.08553 0.25832 0.67346 0.0
C629 C 0.13641 0.27442 0.71632 0.0
C630 C 0.13968 0.18795 0.70209 0.0
C631 C 0.0933 0.17422 0.6547 0.0
N632 N 1.03013 0.20242 0.59041 0.0
N633 N 0.21636 0.25645 0.76806 0.0
C634 C 0.06814 0.21098 0.63949 0.0
C635 C 0.16475 0.2397 0.72954 0.0
N636 N 0.05377 0.28861 0.6647 0.0
N637 N 0.15776 0.15103 0.72302 0.0
H638 H 0.23385 0.2925 0.79118 0.0
H639 H 0.24357 0.23597 0.77477 0.0
H640 H 0.13951 0.11258 0.70588 0.0
H641 H 0.18668 0.15715 0.76045 0.0
H642 H 1.01227 0.27635 0.63845 0.0
H643 H 0.06609 0.32416 0.68738 0.0
H644 H 1.01536 0.22984 0.57398 0.0
H645 H 1.01874 0.17014 0.56308 0.0
C646 C 0.65509 0.21196 0.45906 0.0
C647 C 0.71571 0.24613 0.46181 0.0
C648 C 0.69259 0.31914 0.48858 0.0
C649 C 0.63043 0.28696 0.47239 0.0
N650 N 0.55192 0.20192 0.44004 0.0
N651 N 0.79399 0.33236 0.48113 0.0
C652 C 0.61128 0.23279 0.45834 0.0
C653 C 0.73536 0.29968 0.47847 0.0
N654 N 0.63957 0.15956 0.45498 0.0
N655 N 0.71044 0.36825 0.51323 0.0
H656 H 0.82667 0.31895 0.47567 0.0
H657 H 0.80959 0.37271 0.4862 0.0
H658 H 0.67999 0.38343 0.52123 0.0
H659 H 0.75491 0.39195 0.53019 0.0
H660 H 0.59693 0.13244 0.45728 0.0
H661 H 0.67138 0.14384 0.45487 0.0
H662 H 0.53644 0.1636 0.42309 0.0
H663 H 0.51813 0.21547 0.43771 0.0
loop_
_geom_bond_atom_site_label_1
_geom_bond_atom_site_label_2
_geom_bond_distance
_geom_bond_site_symmetry_2
_ccdc_geom_bond_type
H0 C3 0.931 . S
H1 C6 0.928 . S
H2 C8 0.930 . S
C3 H0 0.931 . S
C3 C4 1.413 . S
C3 C5 1.360 . S
C4 C3 1.413 . S
C4 C8 1.429 . S
C5 C3 1.360 . S
C5 C6 1.372 . S
C6 H1 0.928 . S
C6 C5 1.372 . S
C6 C7 1.404 . S
C7 C6 1.404 . S
C7 C8 1.391 . S
C8 H2 0.930 . S
C8 C4 1.429 . S
C8 C7 1.391 . S
H9 C12 0.931 . S
H10 C15 0.928 . S
H11 C17 0.930 . S
C12 H9 0.931 . S
C12 C13 1.413 . S
C12 C14 1.360 . S
C13 C12 1.413 . S
C13 C17 1.429 . S
C14 C12 1.360 . S
C14 C15 1.372 . S
C15 H10 0.928 . S
C15 C14 1.372 . S
C15 C16 1.404 . S
C16 C15 1.404 . S
C16 C17 1.391 . S
C17 H11 0.930 . S
C17 C13 1.429 . S
C17 C16 1.391 . S
H18 C21 0.931 . S
H19 C24 0.928 . S
H20 C26 0.930 . S
C21 H18 0.931 . S
C21 C22 1.413 . S
C21 C23 1.360 . S
C22 C21 1.413 . S
C22 C26 1.429 . S
C23 C21 1.360 . S
C23 C24 1.372 . S
C24 H19 0.928 . S
C24 C23 1.372 . S
C24 C25 1.404 . S
C25 C24 1.404 . S
C25 C26 1.391 . S
C26 H20 0.930 . S
C26 C22 1.429 . S
C26 C25 1.391 . S
H27 C30 0.931 . S
H28 C33 0.928 . S
H29 C35 0.930 . S
C30 H27 0.931 . S
C30 C31 1.413 . S
C30 C32 1.360 . S
C31 C30 1.413 . S
C31 C35 1.429 . S
C32 C30 1.360 . S
C32 C33 1.372 . S
C33 H28 0.928 . S
C33 C32 1.372 . S
C33 C34 1.404 . S
C34 C33 1.404 . S
C34 C35 1.391 . S
C35 H29 0.930 . S
C35 C31 1.429 . S
C35 C34 1.391 . S
H36 C39 0.931 . S
H37 C42 0.928 . S
H38 C44 0.930 . S
C39 H36 0.931 . S
C39 C40 1.413 . S
C39 C41 1.360 . S
C40 C39 1.413 . S
C40 C44 1.429 . S
C41 C39 1.360 . S
C41 C42 1.372 . S
C42 H37 0.928 . S
C42 C41 1.372 . S
C42 C43 1.404 . S
C43 C42 1.404 . S
C43 C44 1.391 . S
C44 H38 0.930 . S
C44 C40 1.429 . S
C44 C43 1.391 . S
H45 C48 0.931 . S
H46 C51 0.928 . S
H47 C53 0.930 . S
C48 H45 0.931 . S
C48 C49 1.413 . S
C48 C50 1.360 . S
C49 C48 1.413 . S
C49 C53 1.429 . S
C50 C48 1.360 . S
C50 C51 1.372 . S
C51 H46 0.928 . S
C51 C50 1.372 . S
C51 C52 1.404 . S
C52 C51 1.404 . S
C52 C53 1.391 . S
C53 H47 0.930 . S
C53 C49 1.429 . S
C53 C52 1.391 . S
H54 C57 0.931 . S
H55 C60 0.928 . S
H56 C62 0.930 . S
C57 H54 0.931 . S
C57 C58 1.413 . S
C57 C59 1.360 . S
C58 C57 1.413 . S
C58 C62 1.429 . S
C59 C57 1.360 . S
C59 C60 1.372 . S
C60 H55 0.928 . S
C60 C59 1.372 . S
C60 C61 1.404 . S
C61 C60 1.404 . S
C61 C62 1.391 . S
C62 H56 0.930 . S
C62 C58 1.429 . S
C62 C61 1.391 . S
H63 C66 0.931 . S
H64 C69 0.928 . S
H65 C71 0.930 . S
C66 H63 0.931 . S
C66 C67 1.413 . S
C66 C68 1.360 . S
C67 C66 1.413 . S
C67 C71 1.429 . S
C68 C66 1.360 . S
C68 C69 1.372 . S
C69 H64 0.928 . S
C69 C68 1.372 . S
C69 C70 1.404 . S
C70 C69 1.404 . S
C70 C71 1.391 . S
C71 H65 0.930 . S
C71 C67 1.429 . S
C71 C70 1.391 . S
Pr72 C74 2.880 . S
Pr72 O92 2.562 . S
Pr72 O93 2.490 . S
Pr72 O94 2.695 1_665 S
Pr72 O95 2.512 1_565 S
Pr72 O97 2.437 1_655 S
Pr72 O100 2.436 . S
Pr72 O102 2.438 1_565 S
Pr73 C83 2.880 . S
Pr73 O94 2.436 . S
Pr73 O96 2.438 1_545 S
Pr73 O98 2.562 . S
Pr73 O99 2.490 . S
Pr73 O100 2.695 1_445 S
Pr73 O101 2.512 1_545 S
Pr73 O103 2.437 1_455 S
C74 Pr72 2.880 . S
C74 C75 1.491 . S
C74 O92 1.254 . S
C74 O93 1.225 . S
C75 C74 1.491 . S
C75 C76 1.392 . S
C75 C80 1.356 . S
C76 C75 1.392 . S
C76 C77 1.368 . S
C76 H104 0.929 . S
C77 C76 1.368 . S
C77 C78 1.386 . S
C77 H105 0.929 . S
C78 C77 1.386 . S
C78 C79 1.373 . S
C79 C78 1.373 . S
C79 C80 1.409 . S
C79 H106 0.931 . S
C80 C75 1.356 . S
C80 C79 1.409 . S
C80 H107 0.930 . S
C81 O94 1.270 . S
C81 O95 1.248 1_455 S
C82 O96 1.267 . S
C82 O97 1.278 . S
C83 Pr73 2.880 . S
C83 C84 1.491 . S
C83 O98 1.254 . S
C83 O99 1.225 . S
C84 C83 1.491 . S
C84 C85 1.392 . S
C84 C89 1.356 . S
C85 C84 1.392 . S
C85 C86 1.368 . S
C85 H108 0.929 . S
C86 C85 1.368 . S
C86 C87 1.386 . S
C86 H109 0.929 . S
C87 C86 1.386 . S
C87 C88 1.373 . S
C88 C87 1.373 . S
C88 C89 1.409 . S
C88 H110 0.931 . S
C89 C84 1.356 . S
C89 C88 1.409 . S
C89 H111 0.930 . S
C90 O100 1.270 . S
C90 O101 1.248 1_655 S
C91 O102 1.267 . S
C91 O103 1.278 . S
O92 Pr72 2.562 . S
O92 C74 1.254 . S
O93 Pr72 2.490 . S
O93 C74 1.225 . S
O94 Pr72 2.695 1_445 S
O94 Pr73 2.436 . S
O94 C81 1.270 . S
O95 Pr72 2.512 1_545 S
O95 C81 1.248 1_655 S
O96 Pr73 2.438 1_565 S
O96 C82 1.267 . S
O97 Pr72 2.437 1_455 S
O97 C82 1.278 . S
O98 Pr73 2.562 . S
O98 C83 1.254 . S
O99 Pr73 2.490 . S
O99 C83 1.225 . S
O100 Pr72 2.436 . S
O100 Pr73 2.695 1_665 S
O100 C90 1.270 . S
O101 Pr73 2.512 1_565 S
O101 C90 1.248 1_455 S
O102 Pr72 2.438 1_545 S
O102 C91 1.267 . S
O103 Pr73 2.437 1_655 S
O103 C91 1.278 . S
H104 C76 0.929 . S
H105 C77 0.929 . S
H106 C79 0.931 . S
H107 C80 0.930 . S
H108 C85 0.929 . S
H109 C86 0.929 . S
H110 C88 0.931 . S
H111 C89 0.930 . S
Pr112 C114 2.880 . S
Pr112 O132 2.562 . S
Pr112 O133 2.490 . S
Pr112 O134 2.695 1_554 S
Pr112 O135 2.512 1_554 S
Pr112 O137 2.437 . S
Pr112 O140 2.436 1_545 S
Pr112 O142 2.438 1_544 S
Pr113 C123 2.880 . S
Pr113 O134 2.436 1_565 S
Pr113 O136 2.438 1_566 S
Pr113 O138 2.562 . S
Pr113 O139 2.490 . S
Pr113 O140 2.695 1_556 S
Pr113 O141 2.512 1_556 S
Pr113 O143 2.437 . S
C114 Pr112 2.880 . S
C114 C115 1.491 . S
C114 O132 1.254 . S
C114 O133 1.225 . S
C115 C114 1.491 . S
C115 C116 1.392 . S
C115 C120 1.356 . S
C116 C115 1.392 . S
C116 C117 1.368 . S
C116 H144 0.929 . S
C117 C116 1.368 . S
C117 C118 1.386 . S
C117 H145 0.929 . S
C118 C117 1.386 . S
C118 C119 1.373 . S
C119 C118 1.373 . S
C119 C120 1.409 . S
C119 H146 0.931 . S
C120 C115 1.356 . S
C120 C119 1.409 . S
C120 H147 0.930 . S
C121 O134 1.270 . S
C121 O135 1.248 . S
C122 O136 1.267 . S
C122 O137 1.278 . S
C123 Pr113 2.880 . S
C123 C124 1.491 . S
C123 O138 1.254 . S
C123 O139 1.225 . S
C124 C123 1.491 . S
C124 C125 1.392 . S
C124 C129 1.356 . S
C125 C124 1.392 . S
C125 C126 1.368 . S
C125 H148 0.929 . S
C126 C125 1.368 . S
C126 C127 1.386 . S
C126 H149 0.929 . S
C127 C126 1.386 . S
C127 C128 1.373 . S
C128 C127 1.373 . S
C128 C129 1.409 . S
C128 H150 0.931 . S
C129 C124 1.356 . S
C129 C128 1.409 . S
C129 H151 0.930 . S
C130 O140 1.270 . S
C130 O141 1.248 . S
C131 O142 1.267 . S
C131 O143 1.278 . S
O132 Pr112 2.562 . S
O132 C114 1.254 . S
O133 Pr112 2.490 . S
O133 C114 1.225 . S
O134 Pr112 2.695 1_556 S
O134 Pr113 2.436 1_545 S
O134 C121 1.270 . S
O135 Pr112 2.512 1_556 S
O135 C121 1.248 . S
O136 Pr113 2.438 1_544 S
O136 C122 1.267 . S
O137 Pr112 2.437 . S
O137 C122 1.278 . S
O138 Pr113 2.562 . S
O138 C123 1.254 . S
O139 Pr113 2.490 . S
O139 C123 1.225 . S
O140 Pr112 2.436 1_565 S
O140 Pr113 2.695 1_554 S
O140 C130 1.270 . S
O141 Pr113 2.512 1_554 S
O141 C130 1.248 . S
O142 Pr112 2.438 1_566 S
O142 C131 1.267 . S
O143 Pr113 2.437 . S
O143 C131 1.278 . S
H144 C116 0.929 . S
H145 C117 0.929 . S
H146 C119 0.931 . S
H147 C120 0.930 . S
H148 C125 0.929 . S
H149 C126 0.929 . S
H150 C128 0.931 . S
H151 C129 0.930 . S
Pr152 C154 2.880 . S
Pr152 O172 2.562 . S
Pr152 O173 2.490 . S
Pr152 O174 2.695 . S
Pr152 O175 2.512 . S
Pr152 O177 2.437 . S
Pr152 O180 2.436 . S
Pr152 O182 2.438 . S
Pr153 C163 2.880 . S
Pr153 O174 2.436 . S
Pr153 O176 2.438 . S
Pr153 O178 2.562 . S
Pr153 O179 2.490 . S
Pr153 O180 2.695 . S
Pr153 O181 2.512 . S
Pr153 O183 2.437 . S
C154 Pr152 2.880 . S
C154 C155 1.491 . S
C154 O172 1.254 . S
C154 O173 1.225 . S
C155 C154 1.491 . S
C155 C156 1.392 . S
C155 C160 1.356 . S
C156 C155 1.392 . S
C156 C157 1.368 . S
C156 H184 0.929 . S
C157 C156 1.368 . S
C157 C158 1.386 . S
C157 H185 0.929 . S
C158 C157 1.386 . S
C158 C159 1.373 . S
C159 C158 1.373 . S
C159 C160 1.409 . S
C159 H186 0.931 . S
C160 C155 1.356 . S
C160 C159 1.409 . S
C160 H187 0.930 . S
C161 O174 1.270 . S
C161 O175 1.248 . S
C162 O176 1.267 . S
C162 O177 1.278 . S
C163 Pr153 2.880 . S
C163 C164 1.491 . S
C163 O178 1.254 . S
C163 O179 1.225 . S
C164 C163 1.491 . S
C164 C165 1.392 . S
C164 C169 1.356 . S
C165 C164 1.392 . S
C165 C166 1.368 . S
C165 H188 0.929 . S
C166 C165 1.368 . S
C166 C167 1.386 . S
C166 H189 0.929 . S
C167 C166 1.386 . S
C167 C168 1.373 . S
C168 C167 1.373 . S
C168 C169 1.409 . S
C168 H190 0.931 . S
C169 C164 1.356 . S
C169 C168 1.409 . S
C169 H191 0.930 . S
C170 O180 1.270 . S
C170 O181 1.248 . S
C171 O182 1.267 . S
C171 O183 1.278 . S
O172 Pr152 2.562 . S
O172 C154 1.254 . S
O173 Pr152 2.490 . S
O173 C154 1.225 . S
O174 Pr152 2.695 . S
O174 Pr153 2.436 . S
O174 C161 1.270 . S
O175 Pr152 2.512 . S
O175 C161 1.248 . S
O176 Pr153 2.438 . S
O176 C162 1.267 . S
O177 Pr152 2.437 . S
O177 C162 1.278 . S
O178 Pr153 2.562 . S
O178 C163 1.254 . S
O179 Pr153 2.490 . S
O179 C163 1.225 . S
O180 Pr152 2.436 . S
O180 Pr153 2.695 . S
O180 C170 1.270 . S
O181 Pr153 2.512 . S
O181 C170 1.248 . S
O182 Pr152 2.438 . S
O182 C171 1.267 . S
O183 Pr153 2.437 . S
O183 C171 1.278 . S
H184 C156 0.929 . S
H185 C157 0.929 . S
H186 C159 0.931 . S
H187 C160 0.930 . S
H188 C165 0.929 . S
H189 C166 0.929 . S
H190 C168 0.931 . S
H191 C169 0.930 . S
Pr192 C194 2.880 . S
Pr192 O212 2.562 . S
Pr192 O213 2.490 . S
Pr192 O214 2.695 1_656 S
Pr192 O215 2.512 1_656 S
Pr192 O217 2.437 1_556 S
Pr192 O220 2.436 . S
Pr192 O222 2.438 1_655 S
Pr193 C203 2.880 . S
Pr193 O214 2.436 . S
Pr193 O216 2.438 1_455 S
Pr193 O218 2.562 . S
Pr193 O219 2.490 . S
Pr193 O220 2.695 1_454 S
Pr193 O221 2.512 1_454 S
Pr193 O223 2.437 1_554 S
C194 Pr192 2.880 . S
C194 C195 1.491 . S
C194 O212 1.254 . S
C194 O213 1.225 . S
C195 C194 1.491 . S
C195 C196 1.392 . S
C195 C200 1.356 . S
C196 C195 1.392 . S
C196 C197 1.368 . S
C196 H224 0.929 . S
C197 C196 1.368 . S
C197 C198 1.386 . S
C197 H225 0.929 . S
C198 C197 1.386 . S
C198 C199 1.373 . S
C199 C198 1.373 . S
C199 C200 1.409 . S
C199 H226 0.931 . S
C200 C195 1.356 . S
C200 C199 1.409 . S
C200 H227 0.930 . S
C201 O214 1.270 . S
C201 O215 1.248 . S
C202 O216 1.267 . S
C202 O217 1.278 . S
C203 Pr193 2.880 . S
C203 C204 1.491 . S
C203 O218 1.254 . S
C203 O219 1.225 . S
C204 C203 1.491 . S
C204 C205 1.392 . S
C204 C209 1.356 . S
C205 C204 1.392 . S
C205 C206 1.368 . S
C205 H228 0.929 . S
C206 C205 1.368 . S
C206 C207 1.386 . S
C206 H229 0.929 . S
C207 C206 1.386 . S
C207 C208 1.373 . S
C208 C207 1.373 . S
C208 C209 1.409 . S
C208 H230 0.931 . S
C209 C204 1.356 . S
C209 C208 1.409 . S
C209 H231 0.930 . S
C210 O220 1.270 . S
C210 O221 1.248 . S
C211 O222 1.267 . S
C211 O223 1.278 . S
O212 Pr192 2.562 . S
O212 C194 1.254 . S
O213 Pr192 2.490 . S
O213 C194 1.225 . S
O214 Pr192 2.695 1_454 S
O214 Pr193 2.436 . S
O214 C201 1.270 . S
O215 Pr192 2.512 1_454 S
O215 C201 1.248 . S
O216 Pr193 2.438 1_655 S
O216 C202 1.267 . S
O217 Pr192 2.437 1_554 S
O217 C202 1.278 . S
O218 Pr193 2.562 . S
O218 C203 1.254 . S
O219 Pr193 2.490 . S
O219 C203 1.225 . S
O220 Pr192 2.436 . S
O220 Pr193 2.695 1_656 S
O220 C210 1.270 . S
O221 Pr193 2.512 1_656 S
O221 C210 1.248 . S
O222 Pr192 2.438 1_455 S
O222 C211 1.267 . S
O223 Pr193 2.437 1_556 S
O223 C211 1.278 . S
H224 C196 0.929 . S
H225 C197 0.929 . S
H226 C199 0.931 . S
H227 C200 0.930 . S
H228 C205 0.929 . S
H229 C206 0.929 . S
H230 C208 0.931 . S
H231 C209 0.930 . S
C232 C233 1.363 . S
C232 C238 1.379 . S
C232 N240 1.356 . S
C233 C232 1.363 . S
C233 C239 1.363 . S
C234 C235 1.363 . S
C234 C239 1.379 . S
C234 N241 1.356 . S
C235 C234 1.363 . S
C235 C238 1.363 . S
N236 C238 1.356 . S
N236 H248 0.984 . S
N236 H249 0.985 . S
N237 C239 1.356 . S
N237 H242 0.984 . S
N237 H243 0.985 . S
C238 C232 1.379 . S
C238 C235 1.363 . S
C238 N236 1.356 . S
C239 C233 1.363 . S
C239 C234 1.379 . S
C239 N237 1.356 . S
N240 C232 1.356 . S
N240 H246 0.984 . S
N240 H247 0.984 . S
N241 C234 1.356 . S
N241 H244 0.984 . S
N241 H245 0.985 . S
H242 N237 0.984 . S
H243 N237 0.985 . S
H244 N241 0.984 . S
H245 N241 0.985 . S
H246 N240 0.984 . S
H247 N240 0.984 . S
H248 N236 0.984 . S
H249 N236 0.985 . S
C250 C251 1.363 . S
C250 C256 1.379 . S
C250 N258 1.356 . S
C251 C250 1.363 . S
C251 C257 1.363 . S
C252 C253 1.363 . S
C252 C257 1.379 . S
C252 N259 1.356 . S
C253 C252 1.363 . S
C253 C256 1.363 . S
N254 C256 1.356 . S
N254 H266 0.984 . S
N254 H267 0.985 . S
N255 C257 1.356 . S
N255 H260 0.984 . S
N255 H261 0.985 . S
C256 C250 1.379 . S
C256 C253 1.363 . S
C256 N254 1.356 . S
C257 C251 1.363 . S
C257 C252 1.379 . S
C257 N255 1.356 . S
N258 C250 1.356 . S
N258 H264 0.984 . S
N258 H265 0.984 . S
N259 C252 1.356 . S
N259 H262 0.984 . S
N259 H263 0.985 . S
H260 N255 0.984 . S
H261 N255 0.985 . S
H262 N259 0.984 . S
H263 N259 0.985 . S
H264 N258 0.984 . S
H265 N258 0.984 . S
H266 N254 0.984 . S
H267 N254 0.985 . S
C268 C269 1.363 . S
C268 C274 1.379 . S
C268 N276 1.356 . S
C269 C268 1.363 . S
C269 C275 1.363 . S
C270 C271 1.363 . S
C270 C275 1.379 . S
C270 N277 1.356 . S
C271 C270 1.363 . S
C271 C274 1.363 . S
N272 C274 1.356 . S
N272 H284 0.984 . S
N272 H285 0.985 . S
N273 C275 1.356 . S
N273 H278 0.984 . S
N273 H279 0.985 . S
C274 C268 1.379 . S
C274 C271 1.363 . S
C274 N272 1.356 . S
C275 C269 1.363 . S
C275 C270 1.379 . S
C275 N273 1.356 . S
N276 C268 1.356 . S
N276 H282 0.984 . S
N276 H283 0.984 . S
N277 C270 1.356 . S
N277 H280 0.984 . S
N277 H281 0.985 . S
H278 N273 0.984 . S
H279 N273 0.985 . S
H280 N277 0.984 . S
H281 N277 0.985 . S
H282 N276 0.984 . S
H283 N276 0.984 . S
H284 N272 0.984 . S
H285 N272 0.985 . S
C286 C287 1.363 . S
C286 C292 1.379 . S
C286 N294 1.356 . S
C287 C286 1.363 . S
C287 C293 1.363 . S
C288 C289 1.363 . S
C288 C293 1.379 . S
C288 N295 1.356 . S
C289 C288 1.363 . S
C289 C292 1.363 . S
N290 C292 1.356 . S
N290 H302 0.984 . S
N290 H303 0.985 . S
N291 C293 1.356 . S
N291 H296 0.984 . S
N291 H297 0.985 . S
C292 C286 1.379 . S
C292 C289 1.363 . S
C292 N290 1.356 . S
C293 C287 1.363 . S
C293 C288 1.379 . S
C293 N291 1.356 . S
N294 C286 1.356 . S
N294 H300 0.984 . S
N294 H301 0.984 . S
N295 C288 1.356 . S
N295 H298 0.984 . S
N295 H299 0.985 . S
H296 N291 0.984 . S
H297 N291 0.985 . S
H298 N295 0.984 . S
H299 N295 0.985 . S
H300 N294 0.984 . S
H301 N294 0.984 . S
H302 N290 0.984 . S
H303 N290 0.985 . S
C304 C305 1.363 . S
C304 C310 1.379 . S
C304 N312 1.356 . S
C305 C304 1.363 . S
C305 C311 1.363 . S
C306 C307 1.363 . S
C306 C311 1.379 . S
C306 N313 1.356 . S
C307 C306 1.363 . S
C307 C310 1.363 . S
N308 C310 1.356 . S
N308 H320 0.984 . S
N308 H321 0.985 . S
N309 C311 1.356 . S
N309 H314 0.984 . S
N309 H315 0.985 . S
C310 C304 1.379 . S
C310 C307 1.363 . S
C310 N308 1.356 . S
C311 C305 1.363 . S
C311 C306 1.379 . S
C311 N309 1.356 . S
N312 C304 1.356 . S
N312 H318 0.984 . S
N312 H319 0.984 . S
N313 C306 1.356 . S
N313 H316 0.984 . S
N313 H317 0.985 . S
H314 N309 0.984 . S
H315 N309 0.985 . S
H316 N313 0.984 . S
H317 N313 0.985 . S
H318 N312 0.984 . S
H319 N312 0.984 . S
H320 N308 0.984 . S
H321 N308 0.985 . S
C322 C323 1.363 . S
C322 C328 1.379 . S
C322 N330 1.356 . S
C323 C322 1.363 . S
C323 C329 1.363 . S
C324 C325 1.363 . S
C324 C329 1.379 . S
C324 N331 1.356 . S
C325 C324 1.363 . S
C325 C328 1.363 . S
N326 C328 1.356 . S
N326 H338 0.984 . S
N326 H339 0.985 . S
N327 C329 1.356 . S
N327 H332 0.984 . S
N327 H333 0.985 . S
C328 C322 1.379 . S
C328 C325 1.363 . S
C328 N326 1.356 . S
C329 C323 1.363 . S
C329 C324 1.379 . S
C329 N327 1.356 . S
N330 C322 1.356 . S
N330 H336 0.984 . S
N330 H337 0.984 . S
N331 C324 1.356 . S
N331 H334 0.984 . S
N331 H335 0.985 . S
H332 N327 0.984 . S
H333 N327 0.985 . S
H334 N331 0.984 . S
H335 N331 0.985 . S
H336 N330 0.984 . S
H337 N330 0.984 . S
H338 N326 0.984 . S
H339 N326 0.985 . S
C340 C341 1.363 . S
C340 C346 1.379 . S
C340 N348 1.356 . S
C341 C340 1.363 . S
C341 C347 1.363 . S
C342 C343 1.363 . S
C342 C347 1.379 . S
C342 N349 1.356 . S
C343 C342 1.363 . S
C343 C346 1.363 . S
N344 C346 1.356 . S
N344 H356 0.984 . S
N344 H357 0.985 . S
N345 C347 1.356 . S
N345 H350 0.984 . S
N345 H351 0.985 . S
C346 C340 1.379 . S
C346 C343 1.363 . S
C346 N344 1.356 . S
C347 C341 1.363 . S
C347 C342 1.379 . S
C347 N345 1.356 . S
N348 C340 1.356 . S
N348 H354 0.984 . S
N348 H355 0.984 . S
N349 C342 1.356 . S
N349 H352 0.984 . S
N349 H353 0.985 . S
H350 N345 0.984 . S
H351 N345 0.985 . S
H352 N349 0.984 . S
H353 N349 0.985 . S
H354 N348 0.984 . S
H355 N348 0.984 . S
H356 N344 0.984 . S
H357 N344 0.985 . S
C358 C359 1.363 . S
C358 C364 1.379 . S
C358 N366 1.356 . S
C359 C358 1.363 . S
C359 C365 1.363 . S
C360 C361 1.363 . S
C360 C365 1.379 . S
C360 N367 1.356 . S
C361 C360 1.363 . S
C361 C364 1.363 . S
N362 C364 1.356 . S
N362 H374 0.984 . S
N362 H375 0.985 . S
N363 C365 1.356 . S
N363 H368 0.984 . S
N363 H369 0.985 . S
C364 C358 1.379 . S
C364 C361 1.363 . S
C364 N362 1.356 . S
C365 C359 1.363 . S
C365 C360 1.379 . S
C365 N363 1.356 . S
N366 C358 1.356 . S
N366 H372 0.984 . S
N366 H373 0.984 . S
N367 C360 1.356 . S
N367 H370 0.984 . S
N367 H371 0.985 . S
H368 N363 0.984 . S
H369 N363 0.985 . S
H370 N367 0.984 . S
H371 N367 0.985 . S
H372 N366 0.984 . S
H373 N366 0.984 . S
H374 N362 0.984 . S
H375 N362 0.985 . S
C376 C377 1.363 . S
C376 C382 1.379 . S
C376 N384 1.356 . S
C377 C376 1.363 . S
C377 C383 1.363 . S
C378 C379 1.363 . S
C378 C383 1.379 . S
C378 N385 1.356 . S
C379 C378 1.363 . S
C379 C382 1.363 . S
N380 C382 1.356 . S
N380 H392 0.984 . S
N380 H393 0.985 . S
N381 C383 1.356 . S
N381 H386 0.984 . S
N381 H387 0.985 . S
C382 C376 1.379 . S
C382 C379 1.363 . S
C382 N380 1.356 . S
C383 C377 1.363 . S
C383 C378 1.379 . S
C383 N381 1.356 . S
N384 C376 1.356 . S
N384 H390 0.984 . S
N384 H391 0.984 . S
N385 C378 1.356 . S
N385 H388 0.984 . S
N385 H389 0.985 . S
H386 N381 0.984 . S
H387 N381 0.985 . S
H388 N385 0.984 . S
H389 N385 0.985 . S
H390 N384 0.984 . S
H391 N384 0.984 . S
H392 N380 0.984 . S
H393 N380 0.985 . S
C394 C395 1.363 . S
C394 C400 1.379 . S
C394 N402 1.356 . S
C395 C394 1.363 . S
C395 C401 1.363 . S
C396 C397 1.363 . S
C396 C401 1.379 . S
C396 N403 1.356 . S
C397 C396 1.363 . S
C397 C400 1.363 . S
N398 C400 1.356 . S
N398 H410 0.984 . S
N398 H411 0.985 . S
N399 C401 1.356 . S
N399 H404 0.984 . S
N399 H405 0.985 . S
C400 C394 1.379 . S
C400 C397 1.363 . S
C400 N398 1.356 . S
C401 C395 1.363 . S
C401 C396 1.379 . S
C401 N399 1.356 . S
N402 C394 1.356 . S
N402 H408 0.984 . S
N402 H409 0.984 . S
N403 C396 1.356 . S
N403 H406 0.984 . S
N403 H407 0.985 . S
H404 N399 0.984 . S
H405 N399 0.985 . S
H406 N403 0.984 . S
H407 N403 0.985 . S
H408 N402 0.984 . S
H409 N402 0.984 . S
H410 N398 0.984 . S
H411 N398 0.985 . S
C412 C413 1.363 . S
C412 C418 1.379 . S
C412 N420 1.356 . S
C413 C412 1.363 . S
C413 C419 1.363 . S
C414 C415 1.363 . S
C414 C419 1.379 . S
C414 N421 1.356 . S
C415 C414 1.363 . S
C415 C418 1.363 . S
N416 C418 1.356 . S
N416 H428 0.984 . S
N416 H429 0.985 . S
N417 C419 1.356 . S
N417 H422 0.984 . S
N417 H423 0.985 . S
C418 C412 1.379 . S
C418 C415 1.363 . S
C418 N416 1.356 . S
C419 C413 1.363 . S
C419 C414 1.379 . S
C419 N417 1.356 . S
N420 C412 1.356 . S
N420 H426 0.984 . S
N420 H427 0.984 . S
N421 C414 1.356 . S
N421 H424 0.984 . S
N421 H425 0.985 . S
H422 N417 0.984 . S
H423 N417 0.985 . S
H424 N421 0.984 . S
H425 N421 0.985 . S
H426 N420 0.984 . S
H427 N420 0.984 . S
H428 N416 0.984 . S
H429 N416 0.985 . S
C430 C431 1.363 . S
C430 C436 1.379 . S
C430 N438 1.356 . S
C431 C430 1.363 . S
C431 C437 1.363 . S
C432 C433 1.363 . S
C432 C437 1.379 . S
C432 N439 1.356 . S
C433 C432 1.363 . S
C433 C436 1.363 . S
N434 C436 1.356 . S
N434 H446 0.984 . S
N434 H447 0.985 . S
N435 C437 1.356 . S
N435 H440 0.984 . S
N435 H441 0.985 . S
C436 C430 1.379 . S
C436 C433 1.363 . S
C436 N434 1.356 . S
C437 C431 1.363 . S
C437 C432 1.379 . S
C437 N435 1.356 . S
N438 C430 1.356 . S
N438 H444 0.984 . S
N438 H445 0.984 . S
N439 C432 1.356 . S
N439 H442 0.984 . S
N439 H443 0.985 . S
H440 N435 0.984 . S
H441 N435 0.985 . S
H442 N439 0.984 . S
H443 N439 0.985 . S
H444 N438 0.984 . S
H445 N438 0.984 . S
H446 N434 0.984 . S
H447 N434 0.985 . S
C448 C449 1.363 . S
C448 C454 1.379 . S
C448 N456 1.356 . S
C449 C448 1.363 . S
C449 C455 1.363 . S
C450 C451 1.363 . S
C450 C455 1.379 . S
C450 N457 1.356 . S
C451 C450 1.363 . S
C451 C454 1.363 . S
N452 C454 1.356 . S
N452 H464 0.984 . S
N452 H465 0.985 . S
N453 C455 1.356 . S
N453 H458 0.984 . S
N453 H459 0.985 . S
C454 C448 1.379 . S
C454 C451 1.363 . S
C454 N452 1.356 . S
C455 C449 1.363 . S
C455 C450 1.379 . S
C455 N453 1.356 . S
N456 C448 1.356 . S
N456 H462 0.984 . S
N456 H463 0.984 . S
N457 C450 1.356 . S
N457 H460 0.984 . S
N457 H461 0.985 . S
H458 N453 0.984 . S
H459 N453 0.985 . S
H460 N457 0.984 . S
H461 N457 0.985 . S
H462 N456 0.984 . S
H463 N456 0.984 . S
H464 N452 0.984 . S
H465 N452 0.985 . S
C466 C467 1.363 . S
C466 C472 1.379 . S
C466 N474 1.356 . S
C467 C466 1.363 . S
C467 C473 1.363 . S
C468 C469 1.363 . S
C468 C473 1.379 . S
C468 N475 1.356 . S
C469 C468 1.363 . S
C469 C472 1.363 . S
N470 C472 1.356 . S
N470 H482 0.984 . S
N470 H483 0.985 . S
N471 C473 1.356 . S
N471 H476 0.984 . S
N471 H477 0.985 . S
C472 C466 1.379 . S
C472 C469 1.363 . S
C472 N470 1.356 . S
C473 C467 1.363 . S
C473 C468 1.379 . S
C473 N471 1.356 . S
N474 C466 1.356 . S
N474 H480 0.984 . S
N474 H481 0.984 . S
N475 C468 1.356 . S
N475 H478 0.984 . S
N475 H479 0.985 . S
H476 N471 0.984 . S
H477 N471 0.985 . S
H478 N475 0.984 . S
H479 N475 0.985 . S
H480 N474 0.984 . S
H481 N474 0.984 . S
H482 N470 0.984 . S
H483 N470 0.985 . S
C484 C485 1.363 . S
C484 C490 1.379 . S
C484 N492 1.356 . S
C485 C484 1.363 . S
C485 C491 1.363 . S
C486 C487 1.363 . S
C486 C491 1.379 . S
C486 N493 1.356 . S
C487 C486 1.363 . S
C487 C490 1.363 . S
N488 C490 1.356 . S
N488 H500 0.984 . S
N488 H501 0.985 . S
N489 C491 1.356 . S
N489 H494 0.984 . S
N489 H495 0.985 . S
C490 C484 1.379 . S
C490 C487 1.363 . S
C490 N488 1.356 . S
C491 C485 1.363 . S
C491 C486 1.379 . S
C491 N489 1.356 . S
N492 C484 1.356 . S
N492 H498 0.984 . S
N492 H499 0.984 . S
N493 C486 1.356 . S
N493 H496 0.984 . S
N493 H497 0.985 . S
H494 N489 0.984 . S
H495 N489 0.985 . S
H496 N493 0.984 . S
H497 N493 0.985 . S
H498 N492 0.984 . S
H499 N492 0.984 . S
H500 N488 0.984 . S
H501 N488 0.985 . S
C502 C503 1.363 . S
C502 C508 1.379 . S
C502 N510 1.356 . S
C503 C502 1.363 . S
C503 C509 1.363 . S
C504 C505 1.363 . S
C504 C509 1.379 . S
C504 N511 1.356 . S
C505 C504 1.363 . S
C505 C508 1.363 . S
N506 C508 1.356 . S
N506 H518 0.984 . S
N506 H519 0.985 . S
N507 C509 1.356 . S
N507 H512 0.984 . S
N507 H513 0.985 . S
C508 C502 1.379 . S
C508 C505 1.363 . S
C508 N506 1.356 . S
C509 C503 1.363 . S
C509 C504 1.379 . S
C509 N507 1.356 . S
N510 C502 1.356 . S
N510 H516 0.984 . S
N510 H517 0.984 . S
N511 C504 1.356 . S
N511 H514 0.984 . S
N511 H515 0.985 . S
H512 N507 0.984 . S
H513 N507 0.985 . S
H514 N511 0.984 . S
H515 N511 0.985 . S
H516 N510 0.984 . S
H517 N510 0.984 . S
H518 N506 0.984 . S
H519 N506 0.985 . S
C520 C521 1.363 . S
C520 C526 1.379 . S
C520 N528 1.356 . S
C521 C520 1.363 . S
C521 C527 1.363 . S
C522 C523 1.363 . S
C522 C527 1.379 . S
C522 N529 1.356 . S
C523 C522 1.363 . S
C523 C526 1.363 . S
N524 C526 1.356 . S
N524 H536 0.984 . S
N524 H537 0.985 . S
N525 C527 1.356 . S
N525 H530 0.984 . S
N525 H531 0.985 . S
C526 C520 1.379 . S
C526 C523 1.363 . S
C526 N524 1.356 . S
C527 C521 1.363 . S
C527 C522 1.379 . S
C527 N525 1.356 . S
N528 C520 1.356 . S
N528 H534 0.984 . S
N528 H535 0.984 . S
N529 C522 1.356 . S
N529 H532 0.984 . S
N529 H533 0.985 . S
H530 N525 0.984 . S
H531 N525 0.985 . S
H532 N529 0.984 . S
H533 N529 0.985 . S
H534 N528 0.984 . S
H535 N528 0.984 . S
H536 N524 0.984 . S
H537 N524 0.985 . S
C538 C539 1.363 . S
C538 C544 1.379 . S
C538 N546 1.356 . S
C539 C538 1.363 . S
C539 C545 1.363 . S
C540 C541 1.363 . S
C540 C545 1.379 . S
C540 N547 1.356 . S
C541 C540 1.363 . S
C541 C544 1.363 . S
N542 C544 1.356 . S
N542 H554 0.984 . S
N542 H555 0.985 . S
N543 C545 1.356 . S
N543 H548 0.984 . S
N543 H549 0.985 . S
C544 C538 1.379 . S
C544 C541 1.363 . S
C544 N542 1.356 . S
C545 C539 1.363 . S
C545 C540 1.379 . S
C545 N543 1.356 . S
N546 C538 1.356 . S
N546 H552 0.984 . S
N546 H553 0.984 . S
N547 C540 1.356 . S
N547 H550 0.984 . S
N547 H551 0.985 . S
H548 N543 0.984 . S
H549 N543 0.985 . S
H550 N547 0.984 . S
H551 N547 0.985 . S
H552 N546 0.984 . S
H553 N546 0.984 . S
H554 N542 0.984 . S
H555 N542 0.985 . S
C556 C557 1.363 . S
C556 C562 1.379 . S
C556 N564 1.356 . S
C557 C556 1.363 . S
C557 C563 1.363 . S
C558 C559 1.363 . S
C558 C563 1.379 . S
C558 N565 1.356 . S
C559 C558 1.363 . S
C559 C562 1.363 . S
N560 C562 1.356 . S
N560 H572 0.984 . S
N560 H573 0.985 . S
N561 C563 1.356 . S
N561 H566 0.984 . S
N561 H567 0.985 . S
C562 C556 1.379 . S
C562 C559 1.363 . S
C562 N560 1.356 . S
C563 C557 1.363 . S
C563 C558 1.379 . S
C563 N561 1.356 . S
N564 C556 1.356 . S
N564 H570 0.984 . S
N564 H571 0.984 . S
N565 C558 1.356 . S
N565 H568 0.984 . S
N565 H569 0.985 . S
H566 N561 0.984 . S
H567 N561 0.985 . S
H568 N565 0.984 . S
H569 N565 0.985 . S
H570 N564 0.984 . S
H571 N564 0.984 . S
H572 N560 0.984 . S
H573 N560 0.985 . S
C574 C575 1.363 . S
C574 C580 1.379 . S
C574 N582 1.356 . S
C575 C574 1.363 . S
C575 C581 1.363 . S
C576 C577 1.363 . S
C576 C581 1.379 . S
C576 N583 1.356 . S
C577 C576 1.363 . S
C577 C580 1.363 . S
N578 C580 1.356 . S
N578 H590 0.984 . S
N578 H591 0.985 . S
N579 C581 1.356 . S
N579 H584 0.984 . S
N579 H585 0.985 . S
C580 C574 1.379 . S
C580 C577 1.363 . S
C580 N578 1.356 . S
C581 C575 1.363 . S
C581 C576 1.379 . S
C581 N579 1.356 . S
N582 C574 1.356 . S
N582 H588 0.984 . S
N582 H589 0.984 . S
N583 C576 1.356 . S
N583 H586 0.984 . S
N583 H587 0.985 . S
H584 N579 0.984 . S
H585 N579 0.985 . S
H586 N583 0.984 . S
H587 N583 0.985 . S
H588 N582 0.984 . S
H589 N582 0.984 . S
H590 N578 0.984 . S
H591 N578 0.985 . S
C592 C593 1.363 . S
C592 C598 1.379 . S
C592 N600 1.356 . S
C593 C592 1.363 . S
C593 C599 1.363 . S
C594 C595 1.363 . S
C594 C599 1.379 . S
C594 N601 1.356 . S
C595 C594 1.363 . S
C595 C598 1.363 . S
N596 C598 1.356 . S
N596 H608 0.984 . S
N596 H609 0.985 . S
N597 C599 1.356 . S
N597 H602 0.984 . S
N597 H603 0.985 . S
C598 C592 1.379 . S
C598 C595 1.363 . S
C598 N596 1.356 . S
C599 C593 1.363 . S
C599 C594 1.379 . S
C599 N597 1.356 . S
N600 C592 1.356 . S
N600 H606 0.984 . S
N600 H607 0.984 . S
N601 C594 1.356 . S
N601 H604 0.984 . S
N601 H605 0.985 . S
H602 N597 0.984 . S
H603 N597 0.985 . S
H604 N601 0.984 . S
H605 N601 0.985 . S
H606 N600 0.984 . S
H607 N600 0.984 . S
H608 N596 0.984 . S
H609 N596 0.985 . S
C610 C611 1.363 . S
C610 C616 1.379 . S
C610 N618 1.356 . S
C611 C610 1.363 . S
C611 C617 1.363 . S
C612 C613 1.363 . S
C612 C617 1.379 . S
C612 N619 1.356 . S
C613 C612 1.363 . S
C613 C616 1.363 . S
N614 C616 1.356 . S
N614 H626 0.984 . S
N614 H627 0.985 . S
N615 C617 1.356 . S
N615 H620 0.984 . S
N615 H621 0.985 . S
C616 C610 1.379 . S
C616 C613 1.363 . S
C616 N614 1.356 . S
C617 C611 1.363 . S
C617 C612 1.379 . S
C617 N615 1.356 . S
N618 C610 1.356 . S
N618 H624 0.984 . S
N618 H625 0.984 . S
N619 C612 1.356 . S
N619 H622 0.984 . S
N619 H623 0.985 . S
H620 N615 0.984 . S
H621 N615 0.985 . S
H622 N619 0.984 . S
H623 N619 0.985 . S
H624 N618 0.984 . S
H625 N618 0.984 . S
H626 N614 0.984 . S
H627 N614 0.985 . S
C628 C629 1.363 . S
C628 C634 1.379 . S
C628 N636 1.356 . S
C629 C628 1.363 . S
C629 C635 1.363 . S
C630 C631 1.363 . S
C630 C635 1.379 . S
C630 N637 1.356 . S
C631 C630 1.363 . S
C631 C634 1.363 . S
N632 C634 1.356 . S
N632 H644 0.984 . S
N632 H645 0.985 . S
N633 C635 1.356 . S
N633 H638 0.984 . S
N633 H639 0.985 . S
C634 C628 1.379 . S
C634 C631 1.363 . S
C634 N632 1.356 . S
C635 C629 1.363 . S
C635 C630 1.379 . S
C635 N633 1.356 . S
N636 C628 1.356 . S
N636 H642 0.984 . S
N636 H643 0.984 . S
N637 C630 1.356 . S
N637 H640 0.984 . S
N637 H641 0.985 . S
H638 N633 0.984 . S
H639 N633 0.985 . S
H640 N637 0.984 . S
H641 N637 0.985 . S
H642 N636 0.984 . S
H643 N636 0.984 . S
H644 N632 0.984 . S
H645 N632 0.985 . S
C646 C647 1.363 . S
C646 C652 1.379 . S
C646 N654 1.356 . S
C647 C646 1.363 . S
C647 C653 1.363 . S
C648 C649 1.363 . S
C648 C653 1.379 . S
C648 N655 1.356 . S
C649 C648 1.363 . S
C649 C652 1.363 . S
N650 C652 1.356 . S
N650 H662 0.984 . S
N650 H663 0.985 . S
N651 C653 1.356 . S
N651 H656 0.984 . S
N651 H657 0.985 . S
C652 C646 1.379 . S
C652 C649 1.363 . S
C652 N650 1.356 . S
C653 C647 1.363 . S
C653 C648 1.379 . S
C653 N651 1.356 . S
N654 C646 1.356 . S
N654 H660 0.984 . S
N654 H661 0.984 . S
N655 C648 1.356 . S
N655 H658 0.984 . S
N655 H659 0.985 . S
H656 N651 0.984 . S
H657 N651 0.985 . S
H658 N655 0.984 . S
H659 N655 0.985 . S
H660 N654 0.984 . S
H661 N654 0.984 . S
H662 N650 0.984 . S
H663 N650 0.985 . S
C233 C5 1.094 . S
C235 C87 1.151 . S
C251 C14 1.314 . S
C253 C131 1.350 . S
C271 C161 2.332 . S
C269 C25 2.289 . S
C287 C34 2.764 . S
C289 C202 2.709 . S
C307 C118 0.919 . S
C305 C7 0.887 . S
C325 C82 2.193 . S
C323 C13 2.147 . S
C343 C210 1.155 . S
C341 C23 1.136 . S
C361 C171 2.288 . S
C359 C31 2.362 . S
C377 C4 1.445 . S
C379 C207 1.517 . S
C397 C121 2.070 . S
C395 C22 2.114 . S
C413 C32 1.956 . S
C415 C90 1.910 . S
C431 C16 1.995 . S
C433 C158 1.993 . S
C451 C78 1.144 . S
C449 C41 1.085 . S
C467 C50 1.320 . S
C469 C122 1.356 . S
C485 C61 2.291 . S
C487 C170 2.331 . S
C503 C67 2.773 . S
C505 C211 2.717 . S
C521 C40 0.898 . S
C523 C127 0.930 . S
C541 C91 2.176 . S
C539 C52 2.121 . S
C559 C201 1.157 . S
C557 C59 1.144 . S
C577 C162 2.295 . S
C575 C70 2.361 . S
C593 C43 1.437 . S
C595 C198 1.507 . S
C613 C130 2.084 . S
C611 C58 2.131 . S
C631 C81 1.896 . S
C629 C68 1.936 . S
C647 C49 2.012 . S
C649 C167 1.997 . S
