# Generated by pormake.
# Topology pto, (3,4)-cn, num edge types: 1
# Building blocks:
#     Node 0, Type 0, BuildingBlock: OLANEW_clean_sbu_2, # of connection points: 3
#     Node 1, Type 0, BuildingBlock: OLANEW_clean_sbu_2, # of connection points: 3
#     Node 2, Type 0, BuildingBlock: OLANEW_clean_sbu_2, # of connection points: 3
#     Node 3, Type 0, BuildingBlock: OLANEW_clean_sbu_2, # of connection points: 3
#     Node 4, Type 0, BuildingBlock: OLANEW_clean_sbu_2, # of connection points: 3
#     Node 5, Type 0, BuildingBlock: OLANEW_clean_sbu_2, # of connection points: 3
#     Node 6, Type 0, BuildingBlock: OLANEW_clean_sbu_2, # of connection points: 3
#     Node 7, Type 0, BuildingBlock: OLANEW_clean_sbu_2, # of connection points: 3
#     Node 8, Type 1, BuildingBlock: GIZVER_clean_linker_0, # of connection points: 4
#     Node 9, Type 1, BuildingBlock: GIZVER_clean_linker_0, # of connection points: 4
#     Node 10, Type 1, BuildingBlock: GIZVER_clean_linker_0, # of connection points: 4
#     Node 11, Type 1, BuildingBlock: GIZVER_clean_linker_0, # of connection points: 4
#     Node 12, Type 1, BuildingBlock: GIZVER_clean_linker_0, # of connection points: 4
#     Node 13, Type 1, BuildingBlock: GIZVER_clean_linker_0, # of connection points: 4
#     Edge 14, Type (0, 1), BuildingBlock: MIFKUJ_clean_linker_0, # of connection points: 2
#     Edge 15, Type (0, 1), BuildingBlock: MIFKUJ_clean_linker_0, # of connection points: 2
#     Edge 16, Type (0, 1), BuildingBlock: MIFKUJ_clean_linker_0, # of connection points: 2
#     Edge 17, Type (0, 1), BuildingBlock: MIFKUJ_clean_linker_0, # of connection points: 2
#     Edge 18, Type (0, 1), BuildingBlock: MIFKUJ_clean_linker_0, # of connection points: 2
#     Edge 19, Type (0, 1), BuildingBlock: MIFKUJ_clean_linker_0, # of connection points: 2
#     Edge 20, Type (0, 1), BuildingBlock: MIFKUJ_clean_linker_0, # of connection points: 2
#     Edge 21, Type (0, 1), BuildingBlock: MIFKUJ_clean_linker_0, # of connection points: 2
#     Edge 22, Type (0, 1), BuildingBlock: MIFKUJ_clean_linker_0, # of connection points: 2
#     Edge 23, Type (0, 1), BuildingBlock: MIFKUJ_clean_linker_0, # of connection points: 2
#     Edge 24, Type (0, 1), BuildingBlock: MIFKUJ_clean_linker_0, # of connection points: 2
#     Edge 25, Type (0, 1), BuildingBlock: MIFKUJ_clean_linker_0, # of connection points: 2
#     Edge 26, Type (0, 1), BuildingBlock: MIFKUJ_clean_linker_0, # of connection points: 2
#     Edge 27, Type (0, 1), BuildingBlock: MIFKUJ_clean_linker_0, # of connection points: 2
#     Edge 28, Type (0, 1), BuildingBlock: MIFKUJ_clean_linker_0, # of connection points: 2
#     Edge 29, Type (0, 1), BuildingBlock: MIFKUJ_clean_linker_0, # of connection points: 2
#     Edge 30, Type (0, 1), BuildingBlock: MIFKUJ_clean_linker_0, # of connection points: 2
#     Edge 31, Type (0, 1), BuildingBlock: MIFKUJ_clean_linker_0, # of connection points: 2
#     Edge 32, Type (0, 1), BuildingBlock: MIFKUJ_clean_linker_0, # of connection points: 2
#     Edge 33, Type (0, 1), BuildingBlock: MIFKUJ_clean_linker_0, # of connection points: 2
#     Edge 34, Type (0, 1), BuildingBlock: MIFKUJ_clean_linker_0, # of connection points: 2
#     Edge 35, Type (0, 1), BuildingBlock: MIFKUJ_clean_linker_0, # of connection points: 2
#     Edge 36, Type (0, 1), BuildingBlock: MIFKUJ_clean_linker_0, # of connection points: 2
#     Edge 37, Type (0, 1), BuildingBlock: MIFKUJ_clean_linker_0, # of connection points: 2
# Relax obj value: 0.016
# Max RMSD: 0.163
# Mean RMSD: 0.075
data_MOF--net-pto--node1-OLANEW_clean_sbu_2--node2-GIZVER_clean_linker_0--edge1-MIFKUJ_clean_linker_0
_symmetry_space_group_name_H-M    P1
_symmetry_Int_Tables_number       1
_symmetry_cell_setting            triclinic
loop_
_symmetry_equiv_pos_as_xyz
'x, y, z'
_cell_length_a     67.501411
_cell_length_b     56.723619
_cell_length_c     40.238337
_cell_angle_alpha  94.090889
_cell_angle_beta   90.141209
_cell_angle_gamma 100.02247
loop_
_atom_site_label
_atom_site_type_symbol
_atom_site_fract_x
_atom_site_fract_y
_atom_site_fract_z
_atom_type_partial_charge
O0 O 0.32182 0.42376 0.24895 0.0
Cd1 Cd 0.28829 0.40698 0.26783 0.0
O2 O 0.31273 0.45559 0.22943 0.0
Cd3 Cd 0.28072 0.44531 0.23983 0.0
O4 O 0.24831 0.44483 0.23626 0.0
C5 C 0.24126 0.44637 0.20732 0.0
O6 O 0.25353 0.44716 0.18196 0.0
C7 C 0.32635 0.44342 0.23518 0.0
C8 C 0.29076 0.36631 0.30153 0.0
O9 O 0.28578 0.36441 0.27057 0.0
O10 O 0.29413 0.38733 0.31658 0.0
O11 O 0.30899 0.875 0.86399 0.0
Cd12 Cd 0.28702 0.90508 0.86757 0.0
O13 O 0.28169 0.84795 0.8624 0.0
Cd14 Cd 0.26076 0.81382 0.86285 0.0
O15 O 0.23368 0.78627 0.86012 0.0
C16 C 0.22168 0.78458 0.88447 0.0
O17 O 0.22622 0.79899 0.91147 0.0
C18 C 0.30083 0.85299 0.86236 0.0
C19 C 0.29923 0.94203 0.82614 0.0
O20 O 0.30527 0.94386 0.85659 0.0
O21 O 0.28746 0.92274 0.8154 0.0
O22 O 0.78105 0.73998 0.2346 0.0
Cd23 Cd 0.77559 0.69908 0.20841 0.0
O24 O 0.75109 0.74718 0.2212 0.0
Cd25 Cd 0.73795 0.71214 0.19716 0.0
O26 O 0.70964 0.69033 0.17817 0.0
C27 C 0.69402 0.69561 0.19238 0.0
O28 O 0.69632 0.71224 0.21723 0.0
C29 C 0.76835 0.75415 0.23476 0.0
C30 C 0.81176 0.68159 0.20112 0.0
O31 O 0.80491 0.69241 0.17788 0.0
O32 O 0.80151 0.67901 0.22779 0.0
O33 O 0.78998 0.33321 0.79657 0.0
Cd34 Cd 0.75627 0.3095 0.78675 0.0
O35 O 0.77969 0.35441 0.83893 0.0
Cd36 Cd 0.74759 0.34067 0.83148 0.0
O37 O 0.71699 0.3484 0.83162 0.0
C38 C 0.71443 0.36714 0.81782 0.0
O39 O 0.72971 0.37939 0.80277 0.0
C40 C 0.79384 0.34929 0.8205 0.0
C41 C 0.7571 0.26639 0.74917 0.0
O42 O 0.75557 0.2856 0.73516 0.0
O43 O 0.75825 0.26754 0.78107 0.0
O44 O 0.77438 0.75313 0.67771 0.0
Cd45 Cd 0.7733 0.71099 0.68803 0.0
O46 O 0.74316 0.74865 0.69392 0.0
Cd47 Cd 0.71396 0.75767 0.70832 0.0
O48 O 0.6845 0.7557 0.73148 0.0
C49 C 0.67462 0.73493 0.73566 0.0
O50 O 0.68228 0.71603 0.72511 0.0
C51 C 0.75849 0.76195 0.68276 0.0
C52 C 0.80977 0.70029 0.70978 0.0
O53 O 0.80573 0.70037 0.67864 0.0
O54 O 0.79667 0.70568 0.73069 0.0
O55 O 0.8014 0.32896 0.20865 0.0
Cd56 Cd 0.76733 0.30658 0.21436 0.0
O57 O 0.79674 0.33725 0.15694 0.0
Cd58 Cd 0.76405 0.32683 0.15873 0.0
O59 O 0.7339 0.33599 0.1574 0.0
C60 C 0.73222 0.3567 0.17019 0.0
O61 O 0.74816 0.3704 0.1843 0.0
C62 C 0.80835 0.33776 0.182 0.0
C63 C 0.76894 0.26476 0.2462 0.0
O64 O 0.76879 0.26448 0.21432 0.0
O65 O 0.76801 0.28466 0.26283 0.0
O66 O 0.30855 0.48663 0.88886 0.0
Cd67 Cd 0.27686 0.45805 0.88945 0.0
O68 O 0.31805 0.45602 0.86155 0.0
Cd69 Cd 0.33811 0.43325 0.8389 0.0
O70 O 0.34681 0.40391 0.80752 0.0
C71 C 0.34789 0.38383 0.81892 0.0
O72 O 0.34489 0.38122 0.8508 0.0
C73 C 0.32244 0.47742 0.87452 0.0
C74 C 0.24108 0.47574 0.88407 0.0
O75 O 0.24934 0.47488 0.91259 0.0
O76 O 0.25014 0.46901 0.85804 0.0
O77 O 0.32504 0.77584 0.34842 0.0
Cd78 Cd 0.30896 0.795 0.3947 0.0
O79 O 0.29711 0.77353 0.31981 0.0
Cd80 Cd 0.27533 0.76207 0.27896 0.0
O81 O 0.24743 0.74925 0.2507 0.0
C82 C 0.2468 0.73866 0.2217 0.0
O83 O 0.2637 0.73562 0.20726 0.0
C84 C 0.31499 0.76939 0.32159 0.0
C85 C 0.3179 0.845 0.39773 0.0
O86 O 0.32912 0.83277 0.41243 0.0
O87 O 0.30251 0.83354 0.38121 0.0
H88 H 0.00184 0.50309 0.12002 0.0
H89 H 0.99992 0.57874 0.12451 0.0
H90 H 0.95617 0.5309 0.1766 0.0
H91 H 0.02021 0.52849 0.07984 0.0
H92 H 0.01838 0.55955 0.08008 0.0
H93 H 0.03983 0.51537 0.13 0.0
H94 H 0.09422 0.56568 0.15379 0.0
H95 H 0.04624 0.58822 0.10128 0.0
C96 C 0.99536 0.51831 0.1298 0.0
C97 C 0.97864 0.51457 0.15055 0.0
C98 C 0.00332 0.5415 0.12075 0.0
C99 C 0.99416 0.56096 0.13228 0.0
C100 C 0.97716 0.55735 0.15268 0.0
C101 C 0.96982 0.53414 0.16218 0.0
C102 C 0.02037 0.54509 0.09642 0.0
C103 C 0.04051 0.55121 0.11424 0.0
C104 C 0.04846 0.53336 0.1299 0.0
C105 C 0.06767 0.53863 0.14494 0.0
C106 C 0.07904 0.56166 0.14343 0.0
C107 C 0.07147 0.57944 0.12762 0.0
C108 C 0.05204 0.57442 0.11365 0.0
H109 H 0.03218 0.60337 0.80604 0.0
H110 H 0.03392 0.52858 0.81534 0.0
H111 H 0.07538 0.58307 0.87173 0.0
H112 H 0.01758 0.57144 0.76227 0.0
H113 H 0.01591 0.54047 0.76931 0.0
H114 H 0.99299 0.59451 0.78537 0.0
H115 H 0.93822 0.55465 0.82156 0.0
H116 H 0.98992 0.52062 0.80635 0.0
C117 C 0.03804 0.58948 0.81813 0.0
C118 C 0.05396 0.59589 0.8413 0.0
C119 C 0.03041 0.56516 0.80922 0.0
C120 C 0.03908 0.54731 0.82336 0.0
C121 C 0.05529 0.55361 0.84609 0.0
C122 C 0.06218 0.57793 0.85565 0.0
C123 C 0.01479 0.55834 0.78177 0.0
C124 C 0.99385 0.55777 0.79501 0.0
C125 C 0.98468 0.57817 0.79444 0.0
C126 C 0.96461 0.57726 0.80419 0.0
C127 C 0.954 0.55588 0.81555 0.0
C128 C 0.96295 0.53536 0.8164 0.0
C129 C 0.98297 0.53647 0.80629 0.0
H130 H 0.35774 0.16485 0.47457 0.0
H131 H 0.37136 0.17924 0.5794 0.0
H132 H 0.32943 0.21592 0.53225 0.0
H133 H 0.38693 0.15183 0.49964 0.0
H134 H 0.39252 0.15775 0.54322 0.0
H135 H 0.36422 0.11556 0.47889 0.0
H136 H 0.34374 0.06244 0.54795 0.0
H137 H 0.37255 0.13296 0.58481 0.0
C138 C 0.35521 0.17391 0.49842 0.0
C139 C 0.34215 0.19063 0.50032 0.0
C140 C 0.36541 0.16932 0.52711 0.0
C141 C 0.36277 0.18201 0.55766 0.0
C142 C 0.35002 0.19916 0.5597 0.0
C143 C 0.33929 0.2027 0.53107 0.0
C144 C 0.38002 0.15202 0.52472 0.0
C145 C 0.36947 0.12713 0.53112 0.0
C146 C 0.36225 0.11048 0.5043 0.0
C147 C 0.35268 0.08722 0.51032 0.0
C148 C 0.3506 0.08063 0.54318 0.0
C149 C 0.35783 0.0969 0.57001 0.0
C150 C 0.36691 0.12032 0.56404 0.0
H151 H 0.45808 0.72521 0.96367 0.0
H152 H 0.45123 0.71215 0.06718 0.0
H153 H 0.39925 0.70198 0.0024 0.0
H154 H 0.48311 0.74485 0.00881 0.0
H155 H 0.48208 0.73345 0.04888 0.0
H156 H 0.49545 0.72303 0.96057 0.0
H157 H 0.53567 0.67578 0.985 0.0
H158 H 0.49435 0.6964 0.05808 0.0
C159 C 0.4486 0.71866 0.98393 0.0
C160 C 0.42765 0.71305 0.97904 0.0
C161 C 0.45723 0.71774 0.01553 0.0
C162 C 0.44468 0.71114 0.04239 0.0
C163 C 0.42366 0.70577 0.03801 0.0
C164 C 0.41545 0.70568 0.00589 0.0
C165 C 0.47917 0.72808 0.02192 0.0
C166 C 0.49287 0.71089 0.01021 0.0
C167 C 0.50059 0.71148 0.97782 0.0
C168 C 0.51586 0.69851 0.96836 0.0
C169 C 0.5229 0.68436 0.99142 0.0
C170 C 0.51534 0.68345 0.0239 0.0
C171 C 0.49996 0.69641 0.03287 0.0
H172 H 0.80143 0.05459 0.43385 0.0
H173 H 0.79289 0.04597 0.53863 0.0
H174 H 0.76821 0.1004 0.49219 0.0
H175 H 0.82021 0.02939 0.46136 0.0
H176 H 0.82121 0.03123 0.50578 0.0
H177 H 0.79966 0.9956 0.43097 0.0
H178 H 0.77069 0.93734 0.48635 0.0
H179 H 0.79569 0.00447 0.53793 0.0
C180 C 0.79463 0.05935 0.45719 0.0
C181 C 0.78439 0.07895 0.45958 0.0
C182 C 0.79749 0.04706 0.48556 0.0
C183 C 0.78986 0.05447 0.51635 0.0
C184 C 0.77905 0.07351 0.51877 0.0
C185 C 0.77602 0.0852 0.49015 0.0
C186 C 0.8107 0.02809 0.48393 0.0
C187 C 0.79845 0.00315 0.48423 0.0
C188 C 0.79443 0.98853 0.45432 0.0
C189 C 0.78445 0.9646 0.4547 0.0
C190 C 0.7777 0.95595 0.48524 0.0
C191 C 0.78147 0.97028 0.51508 0.0
C192 C 0.79204 0.99378 0.51463 0.0
H193 H 0.53563 0.53648 0.9941 0.0
H194 H 0.53866 0.51383 0.09399 0.0
H195 H 0.48151 0.51607 0.04891 0.0
H196 H 0.56794 0.54108 0.02197 0.0
H197 H 0.56899 0.53849 0.06595 0.0
H198 H 0.56764 0.50527 0.98251 0.0
H199 H 0.58909 0.44542 0.02099 0.0
H200 H 0.57339 0.50091 0.08858 0.0
C201 C 0.52822 0.5303 0.01654 0.0
C202 C 0.50718 0.52742 0.01853 0.0
C203 C 0.53973 0.52558 0.04381 0.0
C204 C 0.52998 0.51757 0.07291 0.0
C205 C 0.50899 0.51411 0.0745 0.0
C206 C 0.49779 0.5191 0.04748 0.0
C207 C 0.56235 0.52928 0.04211 0.0
C208 C 0.56933 0.5055 0.03619 0.0
C209 C 0.57115 0.49563 0.00345 0.0
C210 C 0.57809 0.47375 0.99776 0.0
C211 C 0.58268 0.46162 0.02514 0.0
C212 C 0.58103 0.47119 0.05787 0.0
C213 C 0.57434 0.49318 0.06333 0.0
H214 H 0.21159 0.44572 0.25403 0.0
H215 H 0.17758 0.45421 0.24612 0.0
H216 H 0.18917 0.46235 0.14185 0.0
H217 H 0.22305 0.45393 0.14944 0.0
H218 H 0.17502 0.50043 0.17193 0.0
H219 H 0.15769 0.41432 0.16496 0.0
H220 H 0.15662 0.37387 0.18437 0.0
H221 H 0.12445 0.39304 0.27126 0.0
H222 H 0.12558 0.43374 0.25259 0.0
H223 H 0.07054 0.49386 0.11749 0.0
H224 H 0.09517 0.46951 0.13362 0.0
H225 H 0.1118 0.51802 0.22048 0.0
H226 H 0.08708 0.54214 0.20486 0.0
H227 H 0.11032 0.44913 0.19799 0.0
H228 H 0.16032 0.54072 0.20351 0.0
H229 H 0.16047 0.58088 0.18339 0.0
H230 H 0.12703 0.54885 0.09581 0.0
H231 H 0.12707 0.50853 0.11509 0.0
C232 C 0.20681 0.44904 0.22934 0.0
C233 C 0.22009 0.4493 0.2024 0.0
C234 C 0.18735 0.45379 0.22485 0.0
C235 C 0.18086 0.45888 0.19338 0.0
C236 C 0.1939 0.4585 0.16634 0.0
C237 C 0.21327 0.45365 0.17075 0.0
C238 C 0.16108 0.46634 0.18894 0.0
C239 C 0.16092 0.48911 0.17756 0.0
C240 C 0.14265 0.45163 0.19632 0.0
C241 C 0.14189 0.42716 0.20753 0.0
C242 C 0.15054 0.40998 0.18835 0.0
C243 C 0.14989 0.38699 0.19919 0.0
C244 C 0.14052 0.3809 0.22907 0.0
C245 C 0.13173 0.39778 0.24814 0.0
C246 C 0.13235 0.42081 0.23742 0.0
C247 C 0.07874 0.49863 0.14087 0.0
C248 C 0.07719 0.52007 0.15966 0.0
C249 C 0.09279 0.4847 0.15007 0.0
C250 C 0.1054 0.49218 0.178 0.0
C251 C 0.10219 0.512 0.19882 0.0
C252 C 0.08816 0.52582 0.18976 0.0
C253 C 0.12449 0.48308 0.18117 0.0
C254 C 0.1245 0.46025 0.19239 0.0
C255 C 0.14288 0.49757 0.1734 0.0
C256 C 0.14357 0.52167 0.16088 0.0
C257 C 0.15314 0.54227 0.17985 0.0
C258 C 0.15318 0.56505 0.1686 0.0
C259 C 0.14375 0.5674 0.13834 0.0
C260 C 0.13432 0.54699 0.11923 0.0
C261 C 0.13431 0.52419 0.13031 0.0
H262 H 0.14382 0.58502 0.12962 0.0
H263 H 0.14004 0.36309 0.23742 0.0
H264 H 0.20599 0.75561 0.83007 0.0
H265 H 0.17393 0.72785 0.8256 0.0
H266 H 0.16166 0.7468 0.92827 0.0
H267 H 0.1938 0.77459 0.93306 0.0
H268 H 0.15413 0.6983 0.91317 0.0
H269 H 0.1371 0.76798 0.86759 0.0
H270 H 0.141 0.80138 0.83078 0.0
H271 H 0.13352 0.75113 0.74478 0.0
H272 H 0.12986 0.71742 0.78107 0.0
H273 H 0.0589 0.62477 0.89892 0.0
H274 H 0.08329 0.66209 0.90918 0.0
H275 H 0.0997 0.65845 0.8055 0.0
H276 H 0.07454 0.62206 0.79506 0.0
H277 H 0.10299 0.70291 0.82618 0.0
H278 H 0.12458 0.63398 0.87001 0.0
H279 H 0.12166 0.59979 0.90542 0.0
H280 H 0.12222 0.64776 0.99302 0.0
H281 H 0.12472 0.68218 0.95808 0.0
C282 C 0.1965 0.75389 0.85174 0.0
C283 C 0.20245 0.76735 0.88192 0.0
C284 C 0.17811 0.73812 0.84906 0.0
C285 C 0.16529 0.73552 0.87648 0.0
C286 C 0.17129 0.74865 0.90677 0.0
C287 C 0.18965 0.76453 0.90944 0.0
C288 C 0.14589 0.71853 0.87365 0.0
C289 C 0.14275 0.69954 0.89457 0.0
C290 C 0.13126 0.71994 0.84897 0.0
C291 C 0.13335 0.74018 0.82707 0.0
C292 C 0.13643 0.76405 0.84082 0.0
C293 C 0.13857 0.78304 0.82005 0.0
C294 C 0.13755 0.77838 0.78546 0.0
C295 C 0.13433 0.75472 0.77158 0.0
C296 C 0.13219 0.73566 0.79224 0.0
C297 C 0.06725 0.63254 0.87823 0.0
C298 C 0.06483 0.62082 0.84619 0.0
C299 C 0.08134 0.65364 0.88411 0.0
C300 C 0.09376 0.66275 0.8583 0.0
C301 C 0.09037 0.6518 0.82586 0.0
C302 C 0.07595 0.63107 0.81984 0.0
C303 C 0.11136 0.68231 0.86524 0.0
C304 C 0.11421 0.70181 0.84509 0.0
C305 C 0.12587 0.68123 0.89041 0.0
C306 C 0.12457 0.66058 0.91142 0.0
C307 C 0.12393 0.63718 0.8968 0.0
C308 C 0.12236 0.61778 0.91677 0.0
C309 C 0.12171 0.62159 0.95141 0.0
C310 C 0.12268 0.64483 0.96617 0.0
C311 C 0.12415 0.66428 0.9463 0.0
H312 H 0.12051 0.60654 0.96682 0.0
H313 H 0.13921 0.79311 0.76943 0.0
H314 H 0.8312 0.66013 0.24711 0.0
H315 H 0.86216 0.64358 0.23989 0.0
H316 H 0.86646 0.66504 0.13909 0.0
H317 H 0.83543 0.68151 0.14603 0.0
H318 H 0.87188 0.61909 0.14251 0.0
H319 H 0.89777 0.69541 0.1996 0.0
H320 H 0.89969 0.72775 0.24443 0.0
H321 H 0.91207 0.67948 0.31615 0.0
H322 H 0.90994 0.64674 0.27181 0.0
H323 H 0.96686 0.5894 0.11099 0.0
H324 H 0.94191 0.61551 0.12078 0.0
H325 H 0.93461 0.59416 0.22139 0.0
H326 H 0.95996 0.56846 0.21206 0.0
H327 H 0.93174 0.64183 0.21737 0.0
H328 H 0.90366 0.56523 0.16233 0.0
H329 H 0.90148 0.53215 0.11849 0.0
H330 H 0.89257 0.5802 0.04427 0.0
H331 H 0.895 0.61367 0.08761 0.0
C332 C 0.83877 0.66144 0.22344 0.0
C333 C 0.83083 0.67213 0.19713 0.0
C334 C 0.85654 0.65208 0.21942 0.0
C335 C 0.86674 0.65327 0.18904 0.0
C336 C 0.85886 0.66397 0.16276 0.0
C337 C 0.84114 0.67342 0.1668 0.0
C338 C 0.88515 0.64247 0.18423 0.0
C339 C 0.88509 0.62438 0.15853 0.0
C340 C 0.90219 0.6489 0.20569 0.0
C341 C 0.90351 0.66856 0.23241 0.0
C342 C 0.90073 0.69163 0.22497 0.0
C343 C 0.90189 0.71005 0.25029 0.0
C344 C 0.90595 0.70565 0.28313 0.0
C345 C 0.9089 0.68285 0.29071 0.0
C346 C 0.90774 0.66436 0.26549 0.0
C347 C 0.96045 0.59085 0.13555 0.0
C348 C 0.96527 0.5767 0.16068 0.0
C349 C 0.94604 0.60561 0.141 0.0
C350 C 0.93614 0.60642 0.17161 0.0
C351 C 0.94199 0.59372 0.19753 0.0
C352 C 0.9564 0.57895 0.1921 0.0
C353 C 0.91845 0.61862 0.17557 0.0
C354 C 0.91858 0.63678 0.20119 0.0
C355 C 0.90137 0.61217 0.15421 0.0
C356 C 0.89972 0.59201 0.12816 0.0
C357 C 0.90139 0.56879 0.13663 0.0
C358 C 0.90009 0.54996 0.11189 0.0
C359 C 0.89695 0.55409 0.07862 0.0
C360 C 0.89504 0.57704 0.07004 0.0
C361 C 0.89636 0.59594 0.09468 0.0
H362 H 0.89595 0.53949 0.0595 0.0
H363 H 0.90684 0.71994 0.30269 0.0
H364 H 0.80772 0.38119 0.87285 0.0
H365 H 0.83982 0.4087 0.8777 0.0
H366 H 0.85848 0.37776 0.78446 0.0
H367 H 0.82639 0.34979 0.77957 0.0
H368 H 0.89013 0.39011 0.8306 0.0
H369 H 0.83821 0.42686 0.78416 0.0
H370 H 0.8049 0.43902 0.78252 0.0
H371 H 0.81828 0.48126 0.87527 0.0
H372 H 0.85158 0.46906 0.87769 0.0
H373 H 0.95916 0.49193 0.78089 0.0
H374 H 0.93377 0.45629 0.78792 0.0
H375 H 0.91268 0.49138 0.87628 0.0
H376 H 0.93785 0.52718 0.86896 0.0
H377 H 0.88282 0.4758 0.8345 0.0
H378 H 0.93615 0.44129 0.8789 0.0
H379 H 0.96947 0.42914 0.87989 0.0
H380 H 0.95402 0.38315 0.79083 0.0
H381 H 0.92069 0.39528 0.78903 0.0
C382 C 0.81874 0.37994 0.85356 0.0
C383 C 0.81436 0.36351 0.82556 0.0
C384 C 0.83709 0.3957 0.8564 0.0
C385 C 0.85138 0.39555 0.83115 0.0
C386 C 0.84762 0.3782 0.80418 0.0
C387 C 0.82925 0.36229 0.80138 0.0
C388 C 0.86929 0.41488 0.83153 0.0
C389 C 0.88861 0.40886 0.83118 0.0
C390 C 0.86725 0.43933 0.83282 0.0
C391 C 0.8473 0.44685 0.83127 0.0
C392 C 0.83399 0.4386 0.80432 0.0
C393 C 0.81512 0.44552 0.80324 0.0
C394 C 0.80945 0.46085 0.82882 0.0
C395 C 0.82267 0.46935 0.8555 0.0
C396 C 0.84155 0.46246 0.85673 0.0
C397 C 0.94949 0.49175 0.80235 0.0
C398 C 0.9504 0.51234 0.82432 0.0
C399 C 0.93497 0.47136 0.80637 0.0
C400 C 0.9213 0.47111 0.83267 0.0
C401 C 0.923 0.49118 0.85572 0.0
C402 C 0.93739 0.5116 0.85156 0.0
C403 C 0.90386 0.45121 0.83402 0.0
C404 C 0.88451 0.45711 0.83435 0.0
C405 C 0.90596 0.42674 0.83264 0.0
C406 C 0.92598 0.41937 0.83367 0.0
C407 C 0.93991 0.42874 0.85937 0.0
C408 C 0.95879 0.42182 0.86011 0.0
C409 C 0.96387 0.40542 0.8354 0.0
C410 C 0.95007 0.39586 0.80994 0.0
C411 C 0.93117 0.40274 0.80907 0.0
H412 H 0.9785 0.40009 0.83601 0.0
H413 H 0.79484 0.46618 0.82794 0.0
H414 H 0.30966 0.36557 0.36121 0.0
H415 H 0.31561 0.33062 0.38906 0.0
H416 H 0.28294 0.28388 0.31042 0.0
H417 H 0.27769 0.31894 0.28165 0.0
H418 H 0.29352 0.29672 0.41582 0.0
H419 H 0.30117 0.23154 0.3008 0.0
H420 H 0.31176 0.23309 0.2422 0.0
H421 H 0.34935 0.30152 0.26583 0.0
H422 H 0.33918 0.30022 0.32459 0.0
H423 H 0.30276 0.1916 0.48645 0.0
H424 H 0.29017 0.2148 0.44452 0.0
H425 H 0.35015 0.23253 0.40612 0.0
H426 H 0.36255 0.20857 0.44713 0.0
H427 H 0.32375 0.23185 0.35737 0.0
H428 H 0.33434 0.26832 0.46861 0.0
H429 H 0.33019 0.27027 0.52957 0.0
H430 H 0.26651 0.26632 0.51677 0.0
H431 H 0.27027 0.26418 0.45562 0.0
C432 C 0.3037 0.34786 0.34985 0.0
C433 C 0.29329 0.34501 0.31916 0.0
C434 C 0.30707 0.32785 0.36585 0.0
C435 C 0.29992 0.30454 0.35173 0.0
C436 C 0.28898 0.30164 0.32151 0.0
C437 C 0.28589 0.3217 0.30518 0.0
C438 C 0.30411 0.28347 0.36877 0.0
C439 C 0.29998 0.28248 0.40286 0.0
C440 C 0.31289 0.26501 0.35219 0.0
C441 C 0.3192 0.2659 0.31697 0.0
C442 C 0.31172 0.24688 0.29347 0.0
C443 C 0.31765 0.24772 0.26024 0.0
C444 C 0.33116 0.26744 0.25028 0.0
C445 C 0.33882 0.28631 0.27355 0.0
C446 C 0.33296 0.28554 0.3068 0.0
C447 C 0.31304 0.1997 0.46816 0.0
C448 C 0.33361 0.19849 0.47001 0.0
C449 C 0.30589 0.21305 0.44437 0.0
C450 C 0.31933 0.22593 0.42278 0.0
C451 C 0.33952 0.22282 0.42257 0.0
C452 C 0.3466 0.20911 0.44598 0.0
C453 C 0.31315 0.24524 0.40422 0.0
C454 C 0.31692 0.2459 0.37 0.0
C455 C 0.30487 0.26403 0.42092 0.0
C456 C 0.30255 0.26584 0.45761 0.0
C457 C 0.31944 0.26777 0.47881 0.0
C458 C 0.31717 0.2689 0.51336 0.0
C459 C 0.2981 0.26829 0.527 0.0
C460 C 0.28126 0.26672 0.50613 0.0
C461 C 0.28346 0.26559 0.47152 0.0
H462 H 0.29639 0.26909 0.55372 0.0
H463 H 0.33572 0.26806 0.22454 0.0
H464 H 0.29086 0.80447 0.84339 0.0
H465 H 0.31201 0.77391 0.84772 0.0
H466 H 0.36163 0.82871 0.88265 0.0
H467 H 0.34047 0.85921 0.87946 0.0
H468 H 0.37317 0.79407 0.83673 0.0
H469 H 0.33321 0.79807 0.93777 0.0
H470 H 0.3011 0.7954 0.9676 0.0
H471 H 0.28264 0.72306 0.92582 0.0
H472 H 0.31457 0.72545 0.8954 0.0
H473 H 0.43668 0.75506 0.94941 0.0
H474 H 0.41507 0.77122 0.91194 0.0
H475 H 0.3743 0.70335 0.90379 0.0
H476 H 0.3959 0.68716 0.94212 0.0
H477 H 0.35477 0.73648 0.92334 0.0
H478 H 0.39837 0.72894 0.83369 0.0
H479 H 0.43037 0.73099 0.80377 0.0
H480 H 0.44193 0.80773 0.82124 0.0
H481 H 0.41016 0.80616 0.85173 0.0
C482 C 0.3061 0.81002 0.85256 0.0
C483 C 0.31369 0.83425 0.86221 0.0
C484 C 0.3183 0.79254 0.85449 0.0
C485 C 0.33833 0.79904 0.86577 0.0
C486 C 0.34621 0.82331 0.87381 0.0
C487 C 0.33403 0.84071 0.87212 0.0
C488 C 0.35079 0.78064 0.87188 0.0
C489 C 0.36923 0.78139 0.85559 0.0
C490 C 0.34521 0.7635 0.89553 0.0
C491 C 0.32613 0.76204 0.914 0.0
C492 C 0.32223 0.78167 0.93476 0.0
C493 C 0.30408 0.7802 0.9518 0.0
C494 C 0.2898 0.75911 0.94851 0.0
C495 C 0.29368 0.73941 0.92827 0.0
C496 C 0.3118 0.74081 0.91113 0.0
C497 C 0.4236 0.7432 0.93852 0.0
C498 C 0.41794 0.71986 0.94885 0.0
C499 C 0.41118 0.75249 0.91699 0.0
C500 C 0.39298 0.73854 0.90492 0.0
C501 C 0.38821 0.7145 0.91286 0.0
C502 C 0.40058 0.70524 0.93466 0.0
C503 C 0.37771 0.75033 0.88904 0.0
C504 C 0.35865 0.74847 0.90361 0.0
C505 C 0.3827 0.76625 0.86358 0.0
C506 C 0.40186 0.7674 0.84514 0.0
C507 C 0.40779 0.74625 0.83136 0.0
C508 C 0.42589 0.74733 0.81426 0.0
C509 C 0.43818 0.76947 0.81062 0.0
C510 C 0.43238 0.79059 0.82405 0.0
C511 C 0.4143 0.78962 0.84119 0.0
H512 H 0.45219 0.77027 0.79738 0.0
H513 H 0.27576 0.758 0.96172 0.0
H514 H 0.74589 0.78986 0.23544 0.0
H515 H 0.75235 0.82874 0.26716 0.0
H516 H 0.80803 0.81274 0.30481 0.0
H517 H 0.80162 0.77357 0.27325 0.0
H518 H 0.78579 0.82809 0.35411 0.0
H519 H 0.8088 0.85497 0.24926 0.0
H520 H 0.80721 0.85897 0.18874 0.0
H521 H 0.75553 0.89324 0.2014 0.0
H522 H 0.75663 0.88914 0.26196 0.0
H523 H 0.81245 0.96177 0.40574 0.0
H524 H 0.81255 0.92908 0.36265 0.0
H525 H 0.75415 0.89497 0.39381 0.0
H526 H 0.75333 0.92809 0.43565 0.0
H527 H 0.78334 0.90669 0.30881 0.0
H528 H 0.76211 0.83526 0.40478 0.0
H529 H 0.76664 0.83021 0.46457 0.0
H530 H 0.81918 0.88529 0.46879 0.0
H531 H 0.81523 0.89029 0.40893 0.0
C532 C 0.75962 0.79465 0.25018 0.0
C533 C 0.77319 0.77852 0.2519 0.0
C534 C 0.76335 0.81699 0.26815 0.0
C535 C 0.78074 0.82373 0.28817 0.0
C536 C 0.79454 0.8079 0.28945 0.0
C537 C 0.79085 0.78555 0.27135 0.0
C538 C 0.78369 0.84651 0.30959 0.0
C539 C 0.78535 0.84527 0.34415 0.0
C540 C 0.78339 0.86899 0.29656 0.0
C541 C 0.78271 0.87158 0.26015 0.0
C542 C 0.797 0.86319 0.23912 0.0
C543 C 0.79621 0.86551 0.20481 0.0
C544 C 0.78126 0.87631 0.19123 0.0
C545 C 0.7671 0.88487 0.21195 0.0
C546 C 0.76781 0.88258 0.24628 0.0
C547 C 0.79929 0.9478 0.40271 0.0
C548 C 0.78298 0.94749 0.42454 0.0
C549 C 0.79947 0.92903 0.37822 0.0
C550 C 0.78351 0.9095 0.37553 0.0
C551 C 0.76672 0.90979 0.39584 0.0
C552 C 0.76634 0.9287 0.41984 0.0
C553 C 0.78485 0.88799 0.35318 0.0
C554 C 0.78391 0.88948 0.3186 0.0
C555 C 0.78604 0.86573 0.36612 0.0
C556 C 0.78823 0.86332 0.4024 0.0
C557 C 0.77465 0.84626 0.41845 0.0
C558 C 0.77717 0.84332 0.45232 0.0
C559 C 0.79324 0.85733 0.47042 0.0
C560 C 0.80675 0.87442 0.45473 0.0
C561 C 0.80435 0.87735 0.42084 0.0
H562 H 0.79514 0.85507 0.49665 0.0
H563 H 0.78067 0.87809 0.16466 0.0
H564 H 0.70648 0.40987 0.79889 0.0
H565 H 0.67788 0.42905 0.81492 0.0
H566 H 0.6513 0.36632 0.86404 0.0
H567 H 0.67992 0.34692 0.84821 0.0
H568 H 0.6226 0.38952 0.83049 0.0
H569 H 0.67873 0.40791 0.90963 0.0
H570 H 0.71433 0.42226 0.92554 0.0
H571 H 0.71141 0.49071 0.88839 0.0
H572 H 0.67583 0.47661 0.87183 0.0
H573 H 0.57078 0.42752 0.97048 0.0
H574 H 0.58873 0.41126 0.92437 0.0
H575 H 0.61551 0.48308 0.90214 0.0
H576 H 0.59832 0.49941 0.94952 0.0
H577 H 0.64336 0.45879 0.91295 0.0
H578 H 0.58486 0.443 0.84418 0.0
H579 H 0.5492 0.42873 0.82879 0.0
H580 H 0.55566 0.3565 0.84542 0.0
H581 H 0.5913 0.37036 0.8614 0.0
C582 C 0.69438 0.39991 0.81253 0.0
C583 C 0.69563 0.37699 0.82273 0.0
C584 C 0.67803 0.41091 0.82159 0.0
C585 C 0.66261 0.39917 0.8409 0.0
C586 C 0.66306 0.37564 0.84907 0.0
C587 C 0.67949 0.36465 0.84018 0.0
C588 C 0.6475 0.41248 0.85617 0.0
C589 C 0.62701 0.40466 0.84857 0.0
C590 C 0.65341 0.4326 0.87903 0.0
C591 C 0.67474 0.44112 0.88912 0.0
C592 C 0.68574 0.42595 0.9046 0.0
C593 C 0.7059 0.43405 0.91378 0.0
C594 C 0.71515 0.45735 0.90787 0.0
C595 C 0.70424 0.47264 0.89287 0.0
C596 C 0.68408 0.46461 0.88359 0.0
C597 C 0.58005 0.43989 0.95517 0.0
C598 C 0.58341 0.46472 0.96399 0.0
C599 C 0.59018 0.43056 0.92853 0.0
C600 C 0.60357 0.44592 0.90973 0.0
C601 C 0.60532 0.47087 0.91637 0.0
C602 C 0.59532 0.48021 0.94329 0.0
C603 C 0.61814 0.43588 0.88763 0.0
C604 C 0.63871 0.44413 0.8942 0.0
C605 C 0.61221 0.41626 0.8638 0.0
C606 C 0.59076 0.40777 0.85417 0.0
C607 C 0.57865 0.42409 0.8448 0.0
C608 C 0.55844 0.41607 0.83593 0.0
C609 C 0.55017 0.39173 0.83617 0.0
C610 C 0.5621 0.37535 0.84524 0.0
C611 C 0.58232 0.38328 0.85415 0.0
H612 H 0.53451 0.38556 0.82929 0.0
H613 H 0.73075 0.46359 0.915 0.0
H614 H 0.29273 0.94102 0.75909 0.0
H615 H 0.30426 0.9726 0.72196 0.0
H616 H 0.33146 0.01891 0.80559 0.0
H617 H 0.32042 0.98706 0.84285 0.0
H618 H 0.29672 0.01566 0.71675 0.0
H619 H 0.37356 0.05521 0.77925 0.0
H620 H 0.39946 0.04264 0.81409 0.0
H621 H 0.38146 0.96966 0.77457 0.0
H622 H 0.35565 0.98186 0.73923 0.0
H623 H 0.3371 0.11285 0.62275 0.0
H624 H 0.32913 0.09257 0.67436 0.0
H625 H 0.36677 0.04099 0.64367 0.0
H626 H 0.37475 0.06124 0.59253 0.0
H627 H 0.36909 0.05113 0.71066 0.0
H628 H 0.31831 0.0285 0.62429 0.0
H629 H 0.29363 0.03633 0.58304 0.0
H630 H 0.26085 0.06725 0.66118 0.0
H631 H 0.2856 0.05988 0.70282 0.0
C632 C 0.30115 0.95792 0.76963 0.0
C633 C 0.30576 0.96149 0.80388 0.0
C634 C 0.30766 0.97601 0.74838 0.0
C635 C 0.31886 0.99808 0.76092 0.0
C636 C 0.32311 0.00191 0.79526 0.0
C637 C 0.31675 0.98371 0.81653 0.0
C638 C 0.32632 0.01675 0.73771 0.0
C639 C 0.31252 0.02359 0.71574 0.0
C640 C 0.34697 0.02694 0.736 0.0
C641 C 0.36252 0.01942 0.75696 0.0
C642 C 0.37517 0.0365 0.77798 0.0
C643 C 0.38983 0.02944 0.7978 0.0
C644 C 0.39205 0.00535 0.79664 0.0
C645 C 0.37967 0.98829 0.77556 0.0
C646 C 0.365 0.99527 0.75566 0.0
C647 C 0.3441 0.09764 0.62769 0.0
C648 C 0.35641 0.08842 0.60385 0.0
C649 C 0.33949 0.08601 0.65697 0.0
C650 C 0.3472 0.06512 0.66262 0.0
C651 C 0.36071 0.05709 0.63988 0.0
C652 C 0.36519 0.06857 0.61066 0.0
C653 C 0.3395 0.04987 0.68979 0.0
C654 C 0.35324 0.04365 0.7124 0.0
C655 C 0.31889 0.03962 0.69141 0.0
C656 C 0.30392 0.04393 0.66655 0.0
C657 C 0.30593 0.03714 0.6326 0.0
C658 C 0.29192 0.04147 0.60917 0.0
C659 C 0.27571 0.05236 0.61947 0.0
C660 C 0.27345 0.05887 0.65323 0.0
C661 C 0.28746 0.05462 0.67676 0.0
H662 H 0.26486 0.0557 0.6013 0.0
H663 H 0.4034 0.99992 0.81202 0.0
H664 H 0.65841 0.70703 0.21389 0.0
H665 H 0.62508 0.69316 0.18954 0.0
H666 H 0.64951 0.64623 0.11767 0.0
H667 H 0.68327 0.66069 0.14146 0.0
H668 H 0.62669 0.6702 0.0872 0.0
H669 H 0.61704 0.62389 0.18087 0.0
H670 H 0.61807 0.61492 0.23984 0.0
H671 H 0.5783 0.6647 0.26475 0.0
H672 H 0.57725 0.67425 0.20602 0.0
H673 H 0.52988 0.64107 0.01798 0.0
H674 H 0.55657 0.63067 0.05241 0.0
H675 H 0.55264 0.69123 0.1216 0.0
H676 H 0.52642 0.70212 0.08708 0.0
H677 H 0.56414 0.65019 0.15166 0.0
H678 H 0.58118 0.70183 0.05946 0.0
H679 H 0.5788 0.70941 9e-05 0.0
H680 H 0.60459 0.64686 0.97261 0.0
H681 H 0.6067 0.63863 0.03186 0.0
C682 C 0.65673 0.69351 0.19318 0.0
C683 C 0.67355 0.68505 0.17953 0.0
C684 C 0.63755 0.68541 0.17942 0.0
C685 C 0.63464 0.66835 0.15201 0.0
C686 C 0.65134 0.65933 0.13889 0.0
C687 C 0.67063 0.66759 0.15253 0.0
C688 C 0.61452 0.6619 0.13537 0.0
C689 C 0.61309 0.66515 0.10123 0.0
C690 C 0.59663 0.65556 0.15357 0.0
C691 C 0.59715 0.64987 0.189 0.0
C692 C 0.60862 0.63305 0.19895 0.0
C693 C 0.60919 0.62785 0.23234 0.0
C694 C 0.59827 0.63926 0.25603 0.0
C695 C 0.58674 0.65587 0.24637 0.0
C696 C 0.58612 0.66116 0.21301 0.0
C697 C 0.53429 0.65176 0.04105 0.0
C698 C 0.52632 0.67273 0.04939 0.0
C699 C 0.54946 0.6457 0.06076 0.0
C700 C 0.55677 0.66044 0.0892 0.0
C701 C 0.54717 0.67963 0.09974 0.0
C702 C 0.53211 0.68581 0.07993 0.0
C703 C 0.57657 0.65897 0.10406 0.0
C704 C 0.57787 0.65447 0.13771 0.0
C705 C 0.59438 0.66398 0.08546 0.0
C706 C 0.59391 0.66948 0.05001 0.0
C707 C 0.58626 0.68964 0.04073 0.0
C708 C 0.58494 0.69404 0.00712 0.0
C709 C 0.5915 0.6786 0.98258 0.0
C710 C 0.59948 0.65878 0.99164 0.0
C711 C 0.60073 0.65423 0.02523 0.0
H712 H 0.59042 0.682 0.95657 0.0
H713 H 0.59874 0.6352 0.28187 0.0
H714 H 0.75565 0.25879 0.68139 0.0
H715 H 0.75734 0.22155 0.64801 0.0
H716 H 0.76194 0.18531 0.73766 0.0
H717 H 0.76004 0.22252 0.77135 0.0
H718 H 0.78689 0.19616 0.64354 0.0
H719 H 0.73952 0.12557 0.72145 0.0
H720 H 0.71095 0.12242 0.75998 0.0
H721 H 0.68929 0.17943 0.7144 0.0
H722 H 0.71757 0.1827 0.67534 0.0
H723 H 0.80292 0.0856 0.57419 0.0
H724 H 0.79716 0.11305 0.62145 0.0
H725 H 0.73751 0.11397 0.58356 0.0
H726 H 0.7431 0.08627 0.53643 0.0
H727 H 0.74001 0.11932 0.6539 0.0
H728 H 0.77314 0.15336 0.55752 0.0
H729 H 0.79924 0.15721 0.51451 0.0
H730 H 0.84524 0.17563 0.59043 0.0
H731 H 0.81939 0.17163 0.63395 0.0
C732 C 0.75693 0.2429 0.69406 0.0
C733 C 0.75773 0.24364 0.72904 0.0
C734 C 0.75794 0.22163 0.67493 0.0
C735 C 0.75968 0.20062 0.69033 0.0
C736 C 0.76037 0.20123 0.72526 0.0
C737 C 0.75937 0.22255 0.74446 0.0
C738 C 0.76135 0.17836 0.6696 0.0
C739 C 0.7767 0.17936 0.64604 0.0
C740 C 0.74794 0.15645 0.67255 0.0
C741 C 0.73081 0.15456 0.69576 0.0
C742 C 0.72864 0.13739 0.71962 0.0
C743 C 0.71249 0.13559 0.74155 0.0
C744 C 0.69836 0.15078 0.73973 0.0
C745 C 0.7003 0.16775 0.71589 0.0
C746 C 0.7164 0.16961 0.69389 0.0
C747 C 0.78828 0.09083 0.57669 0.0
C748 C 0.77352 0.08404 0.55149 0.0
C749 C 0.78505 0.10662 0.6036 0.0
C750 C 0.76704 0.11583 0.60564 0.0
C751 C 0.75152 0.1071 0.58239 0.0
C752 C 0.75476 0.09138 0.55542 0.0
C753 C 0.76564 0.13722 0.62828 0.0
C754 C 0.75037 0.13607 0.65198 0.0
C755 C 0.77882 0.15921 0.62505 0.0
C756 C 0.79437 0.16195 0.59897 0.0
C757 C 0.78884 0.15808 0.56504 0.0
C758 C 0.80357 0.16029 0.54057 0.0
C759 C 0.82389 0.16656 0.54973 0.0
C760 C 0.8295 0.17073 0.58338 0.0
C761 C 0.81481 0.16851 0.60796 0.0
H762 H 0.83528 0.16826 0.53074 0.0
H763 H 0.68588 0.14936 0.75673 0.0
H764 H 0.35962 0.42312 0.24583 0.0
H765 H 0.39386 0.4362 0.22663 0.0
H766 H 0.3749 0.49597 0.18275 0.0
H767 H 0.34064 0.48299 0.20161 0.0
H768 H 0.39565 0.47244 0.13955 0.0
H769 H 0.40393 0.50511 0.25233 0.0
H770 H 0.40231 0.50493 0.31351 0.0
H771 H 0.44236 0.45378 0.31228 0.0
H772 H 0.44399 0.4534 0.251 0.0
H773 H 0.5007 0.53952 0.13089 0.0
H774 H 0.47264 0.52711 0.16819 0.0
H775 H 0.46287 0.45612 0.11828 0.0
H776 H 0.49084 0.46852 0.08113 0.0
H777 H 0.45739 0.48787 0.21078 0.0
H778 H 0.41502 0.44744 0.09053 0.0
H779 H 0.41686 0.45185 0.02993 0.0
H780 H 0.44415 0.5259 0.04814 0.0
H781 H 0.44244 0.52192 0.10876 0.0
C782 C 0.36275 0.43913 0.2323 0.0
C783 C 0.34735 0.45193 0.22514 0.0
C784 C 0.38236 0.44667 0.22149 0.0
C785 C 0.38694 0.46713 0.20339 0.0
C786 C 0.37168 0.48012 0.19666 0.0
C787 C 0.35211 0.47267 0.20752 0.0
C788 C 0.40734 0.47425 0.18977 0.0
C789 C 0.4091 0.47579 0.15523 0.0
C790 C 0.42492 0.47894 0.2102 0.0
C791 C 0.42391 0.47904 0.24703 0.0
C792 C 0.41224 0.49365 0.26507 0.0
C793 C 0.41135 0.49369 0.29978 0.0
C794 C 0.42218 0.47931 0.31677 0.0
C795 C 0.43396 0.46489 0.29908 0.0
C796 C 0.43488 0.46477 0.26436 0.0
C797 C 0.49319 0.52096 0.12917 0.0
C798 C 0.49791 0.50483 0.10357 0.0
C799 C 0.47715 0.51392 0.15032 0.0
C800 C 0.46561 0.4908 0.14567 0.0
C801 C 0.47161 0.47404 0.12218 0.0
C802 C 0.48763 0.48105 0.10115 0.0
C803 C 0.44552 0.48551 0.16076 0.0
C804 C 0.44386 0.48436 0.19534 0.0
C805 C 0.42792 0.48167 0.14055 0.0
C806 C 0.42876 0.48429 0.10413 0.0
C807 C 0.42137 0.46466 0.08156 0.0
C808 C 0.42244 0.46708 0.04722 0.0
C809 C 0.43071 0.48912 0.03518 0.0
C810 C 0.43785 0.50881 0.05747 0.0
C811 C 0.4369 0.50646 0.09181 0.0
H812 H 0.43153 0.49096 0.0086 0.0
H813 H 0.42149 0.47937 0.34364 0.0
H814 H 0.81994 0.69134 0.77291 0.0
H815 H 0.84975 0.67625 0.79057 0.0
H816 H 0.87214 0.6784 0.69027 0.0
H817 H 0.84209 0.69285 0.67225 0.0
H818 H 0.87421 0.637 0.71296 0.0
H819 H 0.89383 0.71876 0.75596 0.0
H820 H 0.88986 0.75633 0.78796 0.0
H821 H 0.88444 0.71991 0.87831 0.0
H822 H 0.8881 0.68203 0.84679 0.0
H823 H 0.96614 0.60367 0.74978 0.0
H824 H 0.94369 0.63114 0.73616 0.0
H825 H 0.91524 0.62277 0.83146 0.0
H826 H 0.93804 0.5957 0.84567 0.0
H827 H 0.91797 0.66938 0.81082 0.0
H828 H 0.89547 0.58759 0.76759 0.0
H829 H 0.89921 0.54967 0.73629 0.0
H830 H 0.90958 0.58639 0.64656 0.0
H831 H 0.90622 0.62463 0.6775 0.0
C832 C 0.83132 0.68886 0.75468 0.0
C833 C 0.82862 0.69321 0.72115 0.0
C834 C 0.84843 0.68036 0.76487 0.0
C835 C 0.86333 0.6764 0.74183 0.0
C836 C 0.86087 0.68131 0.7085 0.0
C837 C 0.84368 0.6896 0.69824 0.0
C838 C 0.88071 0.66549 0.75189 0.0
C839 C 0.884 0.64442 0.73395 0.0
C840 C 0.89317 0.67472 0.77989 0.0
C841 C 0.89108 0.69751 0.79895 0.0
C842 C 0.89165 0.71872 0.78261 0.0
C843 C 0.88948 0.74008 0.80068 0.0
C844 C 0.88685 0.74049 0.83513 0.0
C845 C 0.88645 0.71956 0.85162 0.0
C846 C 0.8886 0.69814 0.83367 0.0
C847 C 0.95558 0.60827 0.76832 0.0
C848 C 0.95373 0.59732 0.7987 0.0
C849 C 0.94265 0.62384 0.76038 0.0
C850 C 0.9276 0.62864 0.78258 0.0
C851 C 0.92671 0.61921 0.81393 0.0
C852 C 0.93964 0.60362 0.82191 0.0
C853 C 0.91145 0.64116 0.77165 0.0
C854 C 0.9083 0.6623 0.78956 0.0
C855 C 0.89903 0.63202 0.74365 0.0
C856 C 0.90081 0.609 0.72492 0.0
C857 C 0.8987 0.58761 0.74124 0.0
C858 C 0.90073 0.56605 0.72356 0.0
C859 C 0.90468 0.56563 0.68947 0.0
C860 C 0.90655 0.58676 0.67298 0.0
C861 C 0.90458 0.60837 0.69057 0.0
H862 H 0.90625 0.54893 0.67582 0.0
H863 H 0.88517 0.75705 0.84907 0.0
H864 H 0.83019 0.35061 0.12699 0.0
H865 H 0.86391 0.37479 0.12564 0.0
H866 H 0.86786 0.37776 0.23286 0.0
H867 H 0.83425 0.35329 0.23448 0.0
H868 H 0.87517 0.42309 0.20491 0.0
H869 H 0.89684 0.34681 0.19199 0.0
H870 H 0.8968 0.30593 0.16662 0.0
H871 H 0.91313 0.33442 0.07251 0.0
H872 H 0.91298 0.37546 0.09721 0.0
H873 H 0.96898 0.49639 0.21039 0.0
H874 H 0.94509 0.45978 0.21975 0.0
H875 H 0.93997 0.44219 0.11358 0.0
H876 H 0.96444 0.47827 0.10434 0.0
H877 H 0.93477 0.402 0.14555 0.0
H878 H 0.90917 0.47605 0.15347 0.0
H879 H 0.90863 0.51772 0.17514 0.0
H880 H 0.8976 0.49429 0.27358 0.0
H881 H 0.89856 0.45253 0.25264 0.0
C882 C 0.83835 0.35609 0.15026 0.0
C883 C 0.82952 0.35012 0.18085 0.0
C884 C 0.85764 0.36982 0.14942 0.0
C885 C 0.86835 0.37798 0.17915 0.0
C886 C 0.85982 0.37155 0.20966 0.0
C887 C 0.84065 0.35753 0.21051 0.0
C888 C 0.88767 0.39491 0.17841 0.0
C889 C 0.88836 0.41835 0.19259 0.0
C890 C 0.90458 0.38886 0.16131 0.0
C891 C 0.90474 0.3642 0.14641 0.0
C892 C 0.90026 0.34435 0.16582 0.0
C893 C 0.9003 0.32115 0.15157 0.0
C894 C 0.90492 0.31757 0.11796 0.0
C895 C 0.90954 0.33721 0.09854 0.0
C896 C 0.9095 0.36045 0.11267 0.0
C897 C 0.96323 0.48423 0.18921 0.0
C898 C 0.96837 0.49011 0.15668 0.0
C899 C 0.94955 0.46342 0.19452 0.0
C900 C 0.94035 0.4486 0.1673 0.0
C901 C 0.94681 0.45339 0.13494 0.0
C902 C 0.96078 0.47399 0.12967 0.0
C903 C 0.92228 0.43018 0.17213 0.0
C904 C 0.92172 0.4066 0.15844 0.0
C905 C 0.90525 0.43619 0.18908 0.0
C906 C 0.90416 0.4612 0.20156 0.0
C907 C 0.90674 0.4798 0.17978 0.0
C908 C 0.90637 0.50344 0.19191 0.0
C909 C 0.90311 0.50865 0.2257 0.0
C910 C 0.90016 0.49023 0.24741 0.0
C911 C 0.90064 0.46657 0.23544 0.0
H912 H 0.90283 0.52696 0.23505 0.0
H913 H 0.90494 0.2996 0.10697 0.0
H914 H 0.21775 0.48984 0.93466 0.0
H915 H 0.18386 0.49917 0.93033 0.0
H916 H 0.18521 0.48695 0.82337 0.0
H917 H 0.21921 0.47793 0.82743 0.0
H918 H 0.16949 0.5261 0.84084 0.0
H919 H 0.15967 0.44456 0.87097 0.0
H920 H 0.16467 0.41147 0.90485 0.0
H921 H 0.14105 0.44644 0.99024 0.0
H922 H 0.13615 0.47992 0.95695 0.0
H923 H 0.06905 0.52083 0.80371 0.0
H924 H 0.09791 0.50153 0.81354 0.0
H925 H 0.09996 0.5281 0.91679 0.0
H926 H 0.07092 0.54748 0.90717 0.0
H927 H 0.11318 0.48079 0.90211 0.0
H928 H 0.12376 0.56264 0.87158 0.0
H929 H 0.11693 0.59438 0.83662 0.0
H930 H 0.1392 0.55809 0.7511 0.0
H931 H 0.14548 0.52567 0.78539 0.0
C932 C 0.2109 0.48929 0.91019 0.0
C933 C 0.22115 0.48304 0.88139 0.0
C934 C 0.19147 0.49448 0.90778 0.0
C935 C 0.18188 0.49336 0.87657 0.0
C936 C 0.1923 0.48781 0.84772 0.0
C937 C 0.21173 0.48265 0.85009 0.0
C938 C 0.16096 0.49792 0.87393 0.0
C939 C 0.15717 0.51596 0.85392 0.0
C940 C 0.14491 0.48501 0.89151 0.0
C941 C 0.14773 0.46486 0.91155 0.0
C942 C 0.15568 0.44528 0.89703 0.0
C943 C 0.15848 0.42644 0.91612 0.0
C944 C 0.15324 0.42689 0.9497 0.0
C945 C 0.14513 0.44614 0.96424 0.0
C946 C 0.14233 0.46505 0.94526 0.0
C947 C 0.075 0.52163 0.82887 0.0
C948 C 0.06788 0.53588 0.85462 0.0
C949 C 0.09157 0.51068 0.83439 0.0
C950 C 0.1012 0.51376 0.86573 0.0
C951 C 0.09271 0.52557 0.89243 0.0
C952 C 0.0762 0.5367 0.88687 0.0
C953 C 0.12186 0.50872 0.86888 0.0
C954 C 0.12556 0.49078 0.88903 0.0
C955 C 0.13788 0.52168 0.85143 0.0
C956 C 0.13488 0.54161 0.831 0.0
C957 C 0.12706 0.56135 0.84528 0.0
C958 C 0.12328 0.57946 0.8256 0.0
C959 C 0.12765 0.57827 0.79167 0.0
C960 C 0.13581 0.55898 0.77739 0.0
C961 C 0.13944 0.5407 0.79693 0.0
H962 H 0.12472 0.59231 0.77646 0.0
H963 H 0.15541 0.41228 0.96444 0.0
H964 H 0.23952 0.70977 0.16384 0.0
H965 H 0.20685 0.6896 0.14092 0.0
H966 H 0.17695 0.7242 0.22017 0.0
H967 H 0.20947 0.74405 0.24354 0.0
H968 H 0.16391 0.6774 0.21533 0.0
H969 H 0.17443 0.73903 0.13862 0.0
H970 H 0.19271 0.76403 0.09699 0.0
H971 H 0.1933 0.70128 0.03094 0.0
H972 H 0.17529 0.67583 0.07237 0.0
H973 H 0.06806 0.62231 0.1599 0.0
H974 H 0.09515 0.65732 0.16825 0.0
H975 H 0.1323 0.62308 0.09979 0.0
H976 H 0.10534 0.58817 0.09163 0.0
H977 H 0.13949 0.67359 0.09831 0.0
H978 H 0.1349 0.6123 0.1761 0.0
H979 H 0.11737 0.58526 0.21614 0.0
H980 H 0.10711 0.64618 0.27924 0.0
H981 H 0.12432 0.67352 0.23912 0.0
C982 C 0.22598 0.71332 0.17615 0.0
C983 C 0.22712 0.72835 0.20569 0.0
C984 C 0.2073 0.70189 0.16288 0.0
C985 C 0.18942 0.70549 0.17871 0.0
C986 C 0.19053 0.72114 0.20754 0.0
C987 C 0.20916 0.73247 0.22088 0.0
C988 C 0.16971 0.6913 0.16713 0.0
C989 C 0.15838 0.67708 0.18993 0.0
C990 C 0.16276 0.69024 0.13371 0.0
C991 C 0.17365 0.70549 0.10876 0.0
C992 C 0.17861 0.73052 0.11534 0.0
C993 C 0.1889 0.74478 0.09175 0.0
C994 C 0.1942 0.73424 0.06137 0.0
C995 C 0.1892 0.70942 0.0545 0.0
C996 C 0.17893 0.69507 0.07802 0.0
C997 C 0.08171 0.62281 0.14565 0.0
C998 C 0.08475 0.60276 0.12515 0.0
C999 C 0.09717 0.64269 0.15049 0.0
C1000 C 0.11578 0.64262 0.1349 0.0
C1001 C 0.11804 0.62353 0.11193 0.0
C1002 C 0.10268 0.60362 0.10731 0.0
C1003 C 0.13382 0.66005 0.14661 0.0
C1004 C 0.14489 0.67452 0.12386 0.0
C1005 C 0.14075 0.66122 0.18 0.0
C1006 C 0.13067 0.6449 0.20444 0.0
C1007 C 0.12877 0.61988 0.19839 0.0
C1008 C 0.11891 0.60451 0.2211 0.0
C1009 C 0.11107 0.614 0.25019 0.0
C1010 C 0.11315 0.63886 0.25665 0.0
C1011 C 0.12295 0.6543 0.23393 0.0
H1012 H 0.10344 0.60209 0.26778 0.0
H1013 H 0.20215 0.74532 0.04314 0.0
H1014 H 0.79027 0.79866 0.68239 0.0
H1015 H 0.79059 0.8389 0.66421 0.0
H1016 H 0.72646 0.822 0.64654 0.0
H1017 H 0.72616 0.78145 0.66366 0.0
H1018 H 0.74563 0.84095 0.59412 0.0
H1019 H 0.74636 0.86188 0.71137 0.0
H1020 H 0.75817 0.8629 0.76956 0.0
H1021 H 0.81647 0.89949 0.74293 0.0
H1022 H 0.80509 0.8984 0.68446 0.0
H1023 H 0.74426 0.95297 0.53754 0.0
H1024 H 0.73653 0.92295 0.57864 0.0
H1025 H 0.79985 0.92983 0.60162 0.0
H1026 H 0.80747 0.96048 0.56142 0.0
H1027 H 0.77727 0.91727 0.65553 0.0
H1028 H 0.77784 0.89266 0.53805 0.0
H1029 H 0.76652 0.89235 0.47968 0.0
H1030 H 0.70661 0.86117 0.50608 0.0
H1031 H 0.71734 0.86222 0.56492 0.0
C1032 C 0.77618 0.80363 0.67508 0.0
C1033 C 0.75812 0.78699 0.67506 0.0
C1034 C 0.77637 0.8267 0.66491 0.0
C1035 C 0.75849 0.83362 0.6545 0.0
C1036 C 0.74038 0.81714 0.65486 0.0
C1037 C 0.74019 0.79404 0.66508 0.0
C1038 C 0.75907 0.8573 0.64066 0.0
C1039 C 0.75212 0.85769 0.60785 0.0
C1040 C 0.76803 0.87908 0.65825 0.0
C1041 C 0.7749 0.87991 0.69346 0.0
C1042 C 0.76174 0.87 0.71786 0.0
C1043 C 0.76835 0.87061 0.75092 0.0
C1044 C 0.78807 0.88121 0.75993 0.0
C1045 C 0.8012 0.89128 0.73591 0.0
C1046 C 0.79467 0.8907 0.70282 0.0
C1047 C 0.75638 0.94883 0.55258 0.0
C1048 C 0.77643 0.95888 0.54649 0.0
C1049 C 0.75199 0.9316 0.57583 0.0
C1050 C 0.76767 0.9237 0.59249 0.0
C1051 C 0.78754 0.93558 0.58893 0.0
C1052 C 0.79189 0.95312 0.56605 0.0
C1053 C 0.76384 0.90084 0.60908 0.0
C1054 C 0.77038 0.90056 0.64215 0.0
C1055 C 0.75464 0.87906 0.59164 0.0
C1056 C 0.74834 0.87781 0.55603 0.0
C1057 C 0.76221 0.88593 0.53151 0.0
C1058 C 0.75589 0.88567 0.49834 0.0
C1059 C 0.73588 0.87673 0.48918 0.0
C1060 C 0.72211 0.86812 0.51322 0.0
C1061 C 0.72827 0.86864 0.54651 0.0
H1062 H 0.73108 0.87646 0.46345 0.0
H1063 H 0.79316 0.88167 0.78553 0.0
H1064 H 0.72487 0.40101 0.19195 0.0
H1065 H 0.69472 0.41796 0.18243 0.0
H1066 H 0.66632 0.35098 0.13173 0.0
H1067 H 0.69668 0.33396 0.14062 0.0
H1068 H 0.6626 0.38744 0.09606 0.0
H1069 H 0.65096 0.37012 0.2096 0.0
H1070 H 0.65918 0.3703 0.26936 0.0
H1071 H 0.66791 0.4473 0.27828 0.0
H1072 H 0.66002 0.44762 0.21844 0.0
H1073 H 0.57193 0.42409 0.07057 0.0
H1074 H 0.59324 0.40233 0.10159 0.0
H1075 H 0.63026 0.46935 0.13654 0.0
H1076 H 0.60904 0.49124 0.10531 0.0
H1077 H 0.62725 0.43062 0.18254 0.0
H1078 H 0.64295 0.44776 0.06835 0.0
H1079 H 0.63386 0.44819 0.00901 0.0
H1080 H 0.61752 0.37138 0.00186 0.0
H1081 H 0.6261 0.37054 0.06141 0.0
C1082 C 0.71215 0.38975 0.17909 0.0
C1083 C 0.71322 0.36613 0.16694 0.0
C1084 C 0.69484 0.39945 0.17384 0.0
C1085 C 0.67815 0.38569 0.15665 0.0
C1086 C 0.679 0.36192 0.14512 0.0
C1087 C 0.69635 0.35221 0.15028 0.0
C1088 C 0.66044 0.39669 0.1487 0.0
C1089 C 0.65464 0.39642 0.11512 0.0
C1090 C 0.65033 0.409 0.17342 0.0
C1091 C 0.65505 0.40889 0.20945 0.0
C1092 C 0.65479 0.3871 0.22423 0.0
C1093 C 0.65936 0.38711 0.25814 0.0
C1094 C 0.66411 0.4088 0.27759 0.0
C1095 C 0.66425 0.43052 0.26318 0.0
C1096 C 0.6597 0.43061 0.22928 0.0
C1097 C 0.58414 0.43421 0.08597 0.0
C1098 C 0.58906 0.45928 0.0852 0.0
C1099 C 0.59628 0.42178 0.10365 0.0
C1100 C 0.6135 0.43426 0.12076 0.0
C1101 C 0.61702 0.45945 0.12341 0.0
C1102 C 0.60486 0.47193 0.10564 0.0
C1103 C 0.62956 0.42117 0.13017 0.0
C1104 C 0.6351 0.42126 0.16376 0.0
C1105 C 0.63953 0.40873 0.10551 0.0
C1106 C 0.63496 0.40911 0.06943 0.0
C1107 C 0.63729 0.43097 0.05419 0.0
C1108 C 0.63224 0.4313 0.02051 0.0
C1109 C 0.62508 0.40983 0.00169 0.0
C1110 C 0.62303 0.388 0.01649 0.0
C1111 C 0.62799 0.38759 0.0502 0.0
H1112 H 0.62116 0.41013 0.97563 0.0
H1113 H 0.66764 0.40877 0.30383 0.0
H1114 H 0.35075 0.33819 0.83436 0.0
H1115 H 0.35109 0.303 0.79542 0.0
H1116 H 0.35014 0.34704 0.71259 0.0
H1117 H 0.34982 0.38218 0.75108 0.0
H1118 H 0.32072 0.3062 0.7079 0.0
H1119 H 0.39226 0.32795 0.7325 0.0
H1120 H 0.42212 0.33621 0.7697 0.0
H1121 H 0.40763 0.26524 0.80356 0.0
H1122 H 0.37751 0.25667 0.76685 0.0
H1123 H 0.35006 0.24728 0.56395 0.0
H1124 H 0.34821 0.27383 0.61354 0.0
H1125 H 0.34796 0.2147 0.67529 0.0
H1126 H 0.34909 0.18749 0.62518 0.0
H1127 H 0.37483 0.25716 0.69787 0.0
H1128 H 0.30612 0.23329 0.66781 0.0
H1129 H 0.27583 0.22465 0.63164 0.0
H1130 H 0.28383 0.29867 0.60984 0.0
H1131 H 0.31444 0.30769 0.64527 0.0
C1132 C 0.35084 0.34043 0.80785 0.0
C1133 C 0.35015 0.36298 0.79583 0.0
C1134 C 0.35106 0.3203 0.78567 0.0
C1135 C 0.35056 0.32243 0.75116 0.0
C1136 C 0.35041 0.34502 0.73916 0.0
C1137 C 0.35031 0.3651 0.76123 0.0
C1138 C 0.34931 0.30112 0.72723 0.0
C1139 C 0.3326 0.29556 0.70553 0.0
C1140 C 0.3644 0.28663 0.72524 0.0
C1141 C 0.3825 0.29178 0.74725 0.0
C1142 C 0.39533 0.31418 0.74811 0.0
C1143 C 0.41233 0.31891 0.76905 0.0
C1144 C 0.41674 0.30129 0.78906 0.0
C1145 C 0.40418 0.27888 0.7881 0.0
C1146 C 0.38715 0.27408 0.76722 0.0
C1147 C 0.34916 0.2397 0.58795 0.0
C1148 C 0.34927 0.21511 0.5905 0.0
C1149 C 0.34827 0.25498 0.61633 0.0
C1150 C 0.34766 0.24616 0.64802 0.0
C1151 C 0.34832 0.22179 0.65097 0.0
C1152 C 0.34901 0.20632 0.62237 0.0
C1153 C 0.34659 0.26287 0.6777 0.0
C1154 C 0.36278 0.26754 0.70056 0.0
C1155 C 0.33094 0.27651 0.68094 0.0
C1156 C 0.31269 0.27113 0.65909 0.0
C1157 C 0.30156 0.24769 0.65503 0.0
C1158 C 0.2843 0.24273 0.6347 0.0
C1159 C 0.27789 0.26111 0.61849 0.0
C1160 C 0.28877 0.28447 0.6225 0.0
C1161 C 0.3061 0.28951 0.64267 0.0
H1162 H 0.26453 0.25724 0.60276 0.0
H1163 H 0.42991 0.30497 0.80525 0.0
H1164 H 0.30803 0.77082 0.25476 0.0
H1165 H 0.32449 0.75181 0.20881 0.0
H1166 H 0.35969 0.72175 0.27913 0.0
H1167 H 0.34324 0.74083 0.32523 0.0
H1168 H 0.383 0.74177 0.23368 0.0
H1169 H 0.32159 0.68593 0.2311 0.0
H1170 H 0.28486 0.67226 0.23018 0.0
H1171 H 0.28014 0.70293 0.1366 0.0
H1172 H 0.31683 0.7171 0.13715 0.0
H1173 H 0.42747 0.68419 0.09651 0.0
H1174 H 0.40735 0.68701 0.14693 0.0
H1175 H 0.36968 0.72764 0.09641 0.0
H1176 H 0.38978 0.72559 0.04677 0.0
H1177 H 0.3476 0.69498 0.1355 0.0
H1178 H 0.40805 0.75607 0.14392 0.0
H1179 H 0.44479 0.7699 0.14485 0.0
H1180 H 0.45084 0.72852 0.22844 0.0
H1181 H 0.41414 0.71417 0.22767 0.0
C1182 C 0.31882 0.7596 0.26045 0.0
C1183 C 0.32405 0.75693 0.29359 0.0
C1184 C 0.32831 0.7488 0.23414 0.0
C1185 C 0.34311 0.73499 0.24048 0.0
C1186 C 0.34826 0.73221 0.27361 0.0
C1187 C 0.33886 0.74312 0.29991 0.0
C1188 C 0.35417 0.72494 0.21255 0.0
C1189 C 0.37525 0.73104 0.21259 0.0
C1190 C 0.34409 0.71121 0.18478 0.0
C1191 C 0.32199 0.7027 0.18427 0.0
C1192 C 0.31272 0.68991 0.21042 0.0
C1193 C 0.2919 0.68203 0.20994 0.0
C1194 C 0.28018 0.68669 0.18333 0.0
C1195 C 0.28925 0.69928 0.15715 0.0
C1196 C 0.31007 0.70722 0.15752 0.0
C1197 C 0.41479 0.69354 0.09609 0.0
C1198 C 0.41024 0.70453 0.06742 0.0
C1199 C 0.40328 0.69505 0.12484 0.0
C1200 C 0.38705 0.70759 0.12537 0.0
C1201 C 0.38199 0.71766 0.09643 0.0
C1202 C 0.39351 0.71632 0.06791 0.0
C1203 C 0.37627 0.71222 0.15656 0.0
C1204 C 0.35528 0.7052 0.15703 0.0
C1205 C 0.38639 0.72506 0.18487 0.0
C1206 C 0.40841 0.73381 0.18547 0.0
C1207 C 0.41724 0.74977 0.16232 0.0
C1208 C 0.43805 0.75773 0.16284 0.0
C1209 C 0.45015 0.75003 0.18662 0.0
C1210 C 0.44146 0.73442 0.20999 0.0
C1211 C 0.42066 0.72637 0.20952 0.0
H1212 H 0.46625 0.75622 0.18699 0.0
H1213 H 0.26406 0.68059 0.18302 0.0
H1214 H 0.76664 0.21862 0.21886 0.0
H1215 H 0.77056 0.183 0.24775 0.0
H1216 H 0.77937 0.22617 0.34099 0.0
H1217 H 0.77537 0.26168 0.31252 0.0
H1218 H 0.80825 0.1967 0.32931 0.0
H1219 H 0.73548 0.19103 0.32407 0.0
H1220 H 0.70294 0.18799 0.29465 0.0
H1221 H 0.71249 0.12295 0.24063 0.0
H1222 H 0.74524 0.12579 0.26946 0.0
H1223 H 0.79205 0.12766 0.46397 0.0
H1224 H 0.79079 0.15456 0.42012 0.0
H1225 H 0.77671 0.09394 0.34779 0.0
H1226 H 0.77708 0.06651 0.39249 0.0
H1227 H 0.75328 0.12701 0.33827 0.0
H1228 H 0.82337 0.12886 0.34955 0.0
H1229 H 0.85586 0.13127 0.37885 0.0
H1230 H 0.85235 0.20249 0.41942 0.0
H1231 H 0.81969 0.2004 0.39075 0.0
C1232 C 0.76934 0.22049 0.24554 0.0
C1233 C 0.77068 0.24297 0.26342 0.0
C1234 C 0.77155 0.20012 0.26198 0.0
C1235 C 0.77525 0.20198 0.29648 0.0
C1236 C 0.77658 0.22439 0.31432 0.0
C1237 C 0.7742 0.24464 0.29802 0.0
C1238 C 0.77797 0.18079 0.31438 0.0
C1239 C 0.79624 0.18147 0.33136 0.0
C1240 C 0.76258 0.16049 0.31584 0.0
C1241 C 0.74291 0.15879 0.29858 0.0
C1242 C 0.73072 0.1762 0.30569 0.0
C1243 C 0.71223 0.17449 0.28917 0.0
C1244 C 0.70568 0.15533 0.2657 0.0
C1245 C 0.7176 0.13781 0.25877 0.0
C1246 C 0.73612 0.13946 0.27519 0.0
C1247 C 0.78846 0.11993 0.43884 0.0
C1248 C 0.78437 0.0949 0.43181 0.0
C1249 C 0.78803 0.13539 0.41364 0.0
C1250 C 0.78396 0.12632 0.38053 0.0
C1251 C 0.77999 0.10132 0.37317 0.0
C1252 C 0.78032 0.0857 0.39863 0.0
C1253 C 0.78334 0.14335 0.35432 0.0
C1254 C 0.7655 0.14192 0.33566 0.0
C1255 C 0.79923 0.16291 0.35103 0.0
C1256 C 0.81902 0.16442 0.36805 0.0
C1257 C 0.82947 0.14499 0.36485 0.0
C1258 C 0.84792 0.14631 0.38134 0.0
C1259 C 0.85615 0.16702 0.401 0.0
C1260 C 0.84596 0.18647 0.40415 0.0
C1261 C 0.82749 0.18525 0.38773 0.0
H1262 H 0.87043 0.16799 0.41377 0.0
H1263 H 0.69136 0.15403 0.25295 0.0
H1264 H 0.35253 0.4737 0.8297 0.0
H1265 H 0.3884 0.49008 0.83769 0.0
H1266 H 0.37553 0.5275 0.93006 0.0
H1267 H 0.33975 0.51104 0.92231 0.0
H1268 H 0.40668 0.55368 0.89635 0.0
H1269 H 0.38665 0.47116 0.92942 0.0
H1270 H 0.37191 0.42847 0.91689 0.0
H1271 H 0.41527 0.42281 0.84013 0.0
H1272 H 0.43008 0.46558 0.85193 0.0
H1273 H 0.47688 0.5532 0.02196 0.0
H1274 H 0.45042 0.5524 0.98068 0.0
H1275 H 0.48188 0.51168 0.91039 0.0
H1276 H 0.50814 0.51154 0.95268 0.0
H1277 H 0.44571 0.48938 0.91596 0.0
H1278 H 0.47189 0.56922 0.89495 0.0
H1279 H 0.48672 0.61184 0.90727 0.0
H1280 H 0.43331 0.62366 0.95882 0.0
H1281 H 0.41826 0.58104 0.94731 0.0
C1282 C 0.35737 0.48538 0.85171 0.0
C1283 C 0.34347 0.49036 0.87603 0.0
C1284 C 0.37782 0.49498 0.85601 0.0
C1285 C 0.38467 0.50963 0.8848 0.0
C1286 C 0.37059 0.51619 0.9077 0.0
C1287 C 0.35015 0.50668 0.90332 0.0
C1288 C 0.40642 0.51562 0.89352 0.0
C1289 C 0.41533 0.53973 0.90056 0.0
C1290 C 0.4179 0.49739 0.89776 0.0
C1291 C 0.40932 0.47157 0.8913 0.0
C1292 C 0.39298 0.46081 0.90978 0.0
C1293 C 0.38461 0.43662 0.90281 0.0
C1294 C 0.39262 0.42296 0.87766 0.0
C1295 C 0.40906 0.43343 0.85954 0.0
C1296 C 0.41745 0.45764 0.86636 0.0
C1297 C 0.47841 0.54457 0.99742 0.0
C1298 C 0.49439 0.53215 0.99063 0.0
C1299 C 0.46336 0.54435 0.97362 0.0
C1300 C 0.46414 0.53212 0.94219 0.0
C1301 C 0.48095 0.52128 0.93443 0.0
C1302 C 0.49602 0.52134 0.95848 0.0
C1303 C 0.44596 0.52757 0.92014 0.0
C1304 C 0.43755 0.5036 0.9107 0.0
C1305 C 0.43508 0.54601 0.9135 0.0
C1306 C 0.44395 0.57182 0.92029 0.0
C1307 C 0.46333 0.58085 0.90907 0.0
C1308 C 0.47178 0.60504 0.9159 0.0
C1309 C 0.46097 0.62044 0.93383 0.0
C1310 C 0.44166 0.61171 0.9449 0.0
C1311 C 0.43314 0.58753 0.93815 0.0
H1312 H 0.46755 0.63915 0.93914 0.0
H1313 H 0.38612 0.40424 0.87228 0.0
H1314 H 0.2957 0.8761 0.37302 0.0
H1315 H 0.30166 0.9199 0.38201 0.0
H1316 H 0.35577 0.91774 0.43814 0.0
H1317 H 0.34978 0.87402 0.42971 0.0
H1318 H 0.33308 0.94446 0.47136 0.0
H1319 H 0.3576 0.93839 0.35988 0.0
H1320 H 0.35604 0.92508 0.30009 0.0
H1321 H 0.30593 0.96094 0.28621 0.0
H1322 H 0.30702 0.9742 0.34604 0.0
H1323 H 0.37539 0.07244 0.45963 0.0
H1324 H 0.36819 0.03345 0.4274 0.0
H1325 H 0.30879 0.0204 0.46888 0.0
H1326 H 0.3159 0.0592 0.50105 0.0
H1327 H 0.33554 0.00246 0.38399 0.0
H1328 H 0.30872 0.97218 0.51073 0.0
H1329 H 0.31262 0.98694 0.57009 0.0
H1330 H 0.37228 0.02385 0.55192 0.0
H1331 H 0.36876 0.00922 0.49264 0.0
C1332 C 0.30898 0.88497 0.387 0.0
C1333 C 0.32222 0.87156 0.40081 0.0
C1334 C 0.31241 0.91002 0.39198 0.0
C1335 C 0.32921 0.92211 0.41063 0.0
C1336 C 0.34269 0.90878 0.42372 0.0
C1337 C 0.33925 0.88378 0.41884 0.0
C1338 C 0.3321 0.94846 0.41848 0.0
C1339 C 0.33364 0.95703 0.45213 0.0
C1340 C 0.33293 0.965 0.39349 0.0
C1341 C 0.33228 0.9571 0.35751 0.0
C1342 C 0.34614 0.94328 0.34414 0.0
C1343 C 0.34537 0.93577 0.31023 0.0
C1344 C 0.33087 0.94211 0.28938 0.0
C1345 C 0.31714 0.95602 0.30239 0.0
C1346 C 0.31785 0.96356 0.33629 0.0
C1347 C 0.36048 0.06174 0.46054 0.0
C1348 C 0.34626 0.06857 0.48303 0.0
C1349 C 0.35638 0.0395 0.44214 0.0
C1350 C 0.33807 0.02401 0.44618 0.0
C1351 C 0.32302 0.03212 0.46556 0.0
C1352 C 0.32711 0.05423 0.48395 0.0
C1353 C 0.33628 0.99807 0.43661 0.0
C1354 C 0.33492 0.98968 0.40293 0.0
C1355 C 0.33595 0.98159 0.46144 0.0
C1356 C 0.33842 0.98972 0.4973 0.0
C1357 C 0.3227 0.98333 0.51951 0.0
C1358 C 0.32483 0.99172 0.5531 0.0
C1359 C 0.34268 0.00634 0.56475 0.0
C1360 C 0.35845 0.01258 0.54287 0.0
C1361 C 0.35638 0.00428 0.50928 0.0
H1362 H 0.34435 0.01276 0.59074 0.0
H1363 H 0.33029 0.93629 0.26314 0.0
H1364 H 0.65457 0.77006 0.76128 0.0
H1365 H 0.62412 0.76498 0.79474 0.0
H1366 H 0.62104 0.68819 0.7855 0.0
H1367 H 0.65122 0.69306 0.75158 0.0
H1368 H 0.58413 0.6993 0.78036 0.0
H1369 H 0.6411 0.72139 0.85513 0.0
H1370 H 0.67249 0.74649 0.87748 0.0
H1371 H 0.6417 0.80623 0.89565 0.0
H1372 H 0.61018 0.78155 0.87298 0.0
H1373 H 0.52894 0.66501 0.9254 0.0
H1374 H 0.55244 0.67259 0.87966 0.0
H1375 H 0.55126 0.74842 0.89411 0.0
H1376 H 0.52832 0.74107 0.94055 0.0
H1377 H 0.58888 0.73984 0.89421 0.0
H1378 H 0.53055 0.71519 0.8239 0.0
H1379 H 0.49946 0.68857 0.80332 0.0
H1380 H 0.5329 0.63208 0.77843 0.0
H1381 H 0.56416 0.65825 0.79931 0.0
C1382 C 0.64733 0.75208 0.76613 0.0
C1383 C 0.65544 0.73197 0.754 0.0
C1384 C 0.62995 0.74921 0.78533 0.0
C1385 C 0.62046 0.72622 0.79301 0.0
C1386 C 0.62811 0.7061 0.77992 0.0
C1387 C 0.64544 0.70893 0.76063 0.0
C1388 C 0.60316 0.72314 0.81596 0.0
C1389 C 0.58518 0.70804 0.80534 0.0
C1390 C 0.60442 0.73485 0.84835 0.0
C1391 C 0.62335 0.74971 0.862 0.0
C1392 C 0.64107 0.73994 0.86363 0.0
C1393 C 0.65888 0.75408 0.87641 0.0
C1394 C 0.65911 0.77796 0.88788 0.0
C1395 C 0.64151 0.78774 0.88669 0.0
C1396 C 0.62367 0.77368 0.8739 0.0
C1397 C 0.53344 0.68326 0.91846 0.0
C1398 C 0.52679 0.70243 0.93665 0.0
C1399 C 0.54677 0.68755 0.89216 0.0
C1400 C 0.55356 0.71108 0.88337 0.0
C1401 C 0.54619 0.73012 0.90044 0.0
C1402 C 0.53289 0.72585 0.92677 0.0
C1403 C 0.56978 0.71602 0.85866 0.0
C1404 C 0.58766 0.73137 0.86906 0.0
C1405 C 0.56843 0.70437 0.82623 0.0
C1406 C 0.54968 0.68864 0.81341 0.0
C1407 C 0.53126 0.69704 0.81426 0.0
C1408 C 0.51361 0.68204 0.8025 0.0
C1409 C 0.5142 0.65863 0.78964 0.0
C1410 C 0.53246 0.65021 0.78842 0.0
C1411 C 0.55015 0.66513 0.80017 0.0
H1412 H 0.50052 0.64705 0.78056 0.0
H1413 H 0.6729 0.78888 0.89777 0.0
loop_
_geom_bond_atom_site_label_1
_geom_bond_atom_site_label_2
_geom_bond_distance
_geom_bond_site_symmetry_2
_ccdc_geom_bond_type
O0 Cd1 2.300 . S
O0 C7 1.275 . S
Cd1 O0 2.300 . S
Cd1 O9 2.381 . S
Cd1 O10 2.378 . S
O2 Cd3 2.385 . S
O2 C7 1.255 . S
Cd3 O2 2.385 . S
Cd3 O4 2.317 . S
O4 Cd3 2.317 . S
O4 C5 1.232 . S
C5 O4 1.232 . S
C5 O6 1.218 . S
O6 C5 1.218 . S
C7 O0 1.275 . S
C7 O2 1.255 . S
C8 O9 1.258 . S
C8 O10 1.256 . S
O9 Cd1 2.381 . S
O9 C8 1.258 . S
O10 Cd1 2.378 . S
O10 C8 1.256 . S
O11 Cd12 2.300 . S
O11 C18 1.275 . S
Cd12 O11 2.300 . S
Cd12 O20 2.381 . S
Cd12 O21 2.378 . S
O13 Cd14 2.385 . S
O13 C18 1.255 . S
Cd14 O13 2.385 . S
Cd14 O15 2.317 . S
O15 Cd14 2.317 . S
O15 C16 1.232 . S
C16 O15 1.232 . S
C16 O17 1.218 . S
O17 C16 1.218 . S
C18 O11 1.275 . S
C18 O13 1.255 . S
C19 O20 1.258 . S
C19 O21 1.256 . S
O20 Cd12 2.381 . S
O20 C19 1.258 . S
O21 Cd12 2.378 . S
O21 C19 1.256 . S
O22 Cd23 2.300 . S
O22 C29 1.275 . S
Cd23 O22 2.300 . S
Cd23 O31 2.381 . S
Cd23 O32 2.378 . S
O24 Cd25 2.385 . S
O24 C29 1.255 . S
Cd25 O24 2.385 . S
Cd25 O26 2.317 . S
O26 Cd25 2.317 . S
O26 C27 1.232 . S
C27 O26 1.232 . S
C27 O28 1.218 . S
O28 C27 1.218 . S
C29 O22 1.275 . S
C29 O24 1.255 . S
C30 O31 1.258 . S
C30 O32 1.256 . S
O31 Cd23 2.381 . S
O31 C30 1.258 . S
O32 Cd23 2.378 . S
O32 C30 1.256 . S
O33 Cd34 2.300 . S
O33 C40 1.275 . S
Cd34 O33 2.300 . S
Cd34 O42 2.381 . S
Cd34 O43 2.378 . S
O35 Cd36 2.385 . S
O35 C40 1.255 . S
Cd36 O35 2.385 . S
Cd36 O37 2.317 . S
O37 Cd36 2.317 . S
O37 C38 1.232 . S
C38 O37 1.232 . S
C38 O39 1.218 . S
O39 C38 1.218 . S
C40 O33 1.275 . S
C40 O35 1.255 . S
C41 O42 1.258 . S
C41 O43 1.256 . S
O42 Cd34 2.381 . S
O42 C41 1.258 . S
O43 Cd34 2.378 . S
O43 C41 1.256 . S
O44 Cd45 2.300 . S
O44 C51 1.275 . S
Cd45 O44 2.300 . S
Cd45 O53 2.381 . S
Cd45 O54 2.378 . S
O46 Cd47 2.385 . S
O46 C51 1.255 . S
Cd47 O46 2.385 . S
Cd47 O48 2.317 . S
O48 Cd47 2.317 . S
O48 C49 1.232 . S
C49 O48 1.232 . S
C49 O50 1.218 . S
O50 C49 1.218 . S
C51 O44 1.275 . S
C51 O46 1.255 . S
C52 O53 1.258 . S
C52 O54 1.256 . S
O53 Cd45 2.381 . S
O53 C52 1.258 . S
O54 Cd45 2.378 . S
O54 C52 1.256 . S
O55 Cd56 2.300 . S
O55 C62 1.275 . S
Cd56 O55 2.300 . S
Cd56 O64 2.381 . S
Cd56 O65 2.378 . S
O57 Cd58 2.385 . S
O57 C62 1.255 . S
Cd58 O57 2.385 . S
Cd58 O59 2.317 . S
O59 Cd58 2.317 . S
O59 C60 1.232 . S
C60 O59 1.232 . S
C60 O61 1.218 . S
O61 C60 1.218 . S
C62 O55 1.275 . S
C62 O57 1.255 . S
C63 O64 1.258 . S
C63 O65 1.256 . S
O64 Cd56 2.381 . S
O64 C63 1.258 . S
O65 Cd56 2.378 . S
O65 C63 1.256 . S
O66 Cd67 2.300 . S
O66 C73 1.275 . S
Cd67 O66 2.300 . S
Cd67 O75 2.381 . S
Cd67 O76 2.378 . S
O68 Cd69 2.385 . S
O68 C73 1.255 . S
Cd69 O68 2.385 . S
Cd69 O70 2.317 . S
O70 Cd69 2.317 . S
O70 C71 1.232 . S
C71 O70 1.232 . S
C71 O72 1.218 . S
O72 C71 1.218 . S
C73 O66 1.275 . S
C73 O68 1.255 . S
C74 O75 1.258 . S
C74 O76 1.256 . S
O75 Cd67 2.381 . S
O75 C74 1.258 . S
O76 Cd67 2.378 . S
O76 C74 1.256 . S
O77 Cd78 2.300 . S
O77 C84 1.275 . S
Cd78 O77 2.300 . S
Cd78 O86 2.381 . S
Cd78 O87 2.378 . S
O79 Cd80 2.385 . S
O79 C84 1.255 . S
Cd80 O79 2.385 . S
Cd80 O81 2.317 . S
O81 Cd80 2.317 . S
O81 C82 1.232 . S
C82 O81 1.232 . S
C82 O83 1.218 . S
O83 C82 1.218 . S
C84 O77 1.275 . S
C84 O79 1.255 . S
C85 O86 1.258 . S
C85 O87 1.256 . S
O86 Cd78 2.381 . S
O86 C85 1.258 . S
O87 Cd78 2.378 . S
O87 C85 1.256 . S
H88 C96 0.930 . S
H89 C99 0.930 . S
H90 C101 0.930 . S
H91 C102 0.970 . S
H92 C102 0.970 . S
H93 C104 0.930 . S
H94 C106 0.930 . S
H95 C108 0.930 . S
C96 H88 0.930 . S
C96 C97 1.382 1_455 S
C96 C98 1.426 . S
C97 C96 1.382 1_655 S
C97 C101 1.389 . S
C98 C96 1.426 . S
C98 C99 1.375 . S
C98 C102 1.532 . S
C99 H89 0.930 . S
C99 C98 1.375 . S
C99 C100 1.416 1_455 S
C100 C99 1.416 1_655 S
C100 C101 1.371 . S
C101 H90 0.930 . S
C101 C97 1.389 . S
C101 C100 1.371 . S
C102 H91 0.970 . S
C102 H92 0.970 . S
C102 C98 1.532 . S
C102 C103 1.499 . S
C103 C102 1.499 . S
C103 C104 1.370 . S
C103 C108 1.415 . S
C104 H93 0.930 . S
C104 C103 1.370 . S
C104 C105 1.407 . S
C105 C104 1.407 . S
C105 C106 1.365 . S
C106 H94 0.930 . S
C106 C105 1.365 . S
C106 C107 1.393 . S
C107 C106 1.393 . S
C107 C108 1.387 . S
C108 H95 0.930 . S
C108 C103 1.415 . S
C108 C107 1.387 . S
H109 C117 0.930 . S
H110 C120 0.930 . S
H111 C122 0.930 . S
H112 C123 0.970 . S
H113 C123 0.970 . S
H114 C125 0.930 . S
H115 C127 0.930 . S
H116 C129 0.930 . S
C117 H109 0.930 . S
C117 C118 1.382 . S
C117 C119 1.426 . S
C118 C117 1.382 . S
C118 C122 1.389 . S
C119 C117 1.426 . S
C119 C120 1.375 . S
C119 C123 1.532 . S
C120 H110 0.930 . S
C120 C119 1.375 . S
C120 C121 1.416 . S
C121 C120 1.416 . S
C121 C122 1.371 . S
C122 H111 0.930 . S
C122 C118 1.389 . S
C122 C121 1.371 . S
C123 H112 0.970 . S
C123 H113 0.970 . S
C123 C119 1.532 . S
C123 C124 1.499 1_455 S
C124 C123 1.499 1_655 S
C124 C125 1.370 . S
C124 C129 1.415 . S
C125 H114 0.930 . S
C125 C124 1.370 . S
C125 C126 1.407 . S
C126 C125 1.407 . S
C126 C127 1.365 . S
C127 H115 0.930 . S
C127 C126 1.365 . S
C127 C128 1.393 . S
C128 C127 1.393 . S
C128 C129 1.387 . S
C129 H116 0.930 . S
C129 C124 1.415 . S
C129 C128 1.387 . S
H130 C138 0.930 . S
H131 C141 0.930 . S
H132 C143 0.930 . S
H133 C144 0.970 . S
H134 C144 0.970 . S
H135 C146 0.930 . S
H136 C148 0.930 . S
H137 C150 0.930 . S
C138 H130 0.930 . S
C138 C139 1.382 . S
C138 C140 1.426 . S
C139 C138 1.382 . S
C139 C143 1.389 . S
C140 C138 1.426 . S
C140 C141 1.375 . S
C140 C144 1.532 . S
C141 H131 0.930 . S
C141 C140 1.375 . S
C141 C142 1.416 . S
C142 C141 1.416 . S
C142 C143 1.371 . S
C143 H132 0.930 . S
C143 C139 1.389 . S
C143 C142 1.371 . S
C144 H133 0.970 . S
C144 H134 0.970 . S
C144 C140 1.532 . S
C144 C145 1.499 . S
C145 C144 1.499 . S
C145 C146 1.370 . S
C145 C150 1.415 . S
C146 H135 0.930 . S
C146 C145 1.370 . S
C146 C147 1.407 . S
C147 C146 1.407 . S
C147 C148 1.365 . S
C148 H136 0.930 . S
C148 C147 1.365 . S
C148 C149 1.393 . S
C149 C148 1.393 . S
C149 C150 1.387 . S
C150 H137 0.930 . S
C150 C145 1.415 . S
C150 C149 1.387 . S
H151 C159 0.930 . S
H152 C162 0.930 . S
H153 C164 0.930 . S
H154 C165 0.970 1_556 S
H155 C165 0.970 . S
H156 C167 0.930 . S
H157 C169 0.930 . S
H158 C171 0.930 . S
C159 H151 0.930 . S
C159 C160 1.382 . S
C159 C161 1.426 1_556 S
C160 C159 1.382 . S
C160 C164 1.389 1_556 S
C161 C159 1.426 1_554 S
C161 C162 1.375 . S
C161 C165 1.532 . S
C162 H152 0.930 . S
C162 C161 1.375 . S
C162 C163 1.416 . S
C163 C162 1.416 . S
C163 C164 1.371 . S
C164 H153 0.930 . S
C164 C160 1.389 1_554 S
C164 C163 1.371 . S
C165 H154 0.970 1_554 S
C165 H155 0.970 . S
C165 C161 1.532 . S
C165 C166 1.499 . S
C166 C165 1.499 . S
C166 C167 1.370 1_554 S
C166 C171 1.415 . S
C167 H156 0.930 . S
C167 C166 1.370 1_556 S
C167 C168 1.407 . S
C168 C167 1.407 . S
C168 C169 1.365 . S
C169 H157 0.930 . S
C169 C168 1.365 . S
C169 C170 1.393 1_556 S
C170 C169 1.393 1_554 S
C170 C171 1.387 . S
C171 H158 0.930 . S
C171 C166 1.415 . S
C171 C170 1.387 . S
H172 C180 0.930 . S
H173 C183 0.930 . S
H174 C185 0.930 . S
H175 C186 0.970 . S
H176 C186 0.970 . S
H177 C188 0.930 . S
H178 C190 0.930 . S
H179 C192 0.930 . S
C180 H172 0.930 . S
C180 C181 1.382 . S
C180 C182 1.426 . S
C181 C180 1.382 . S
C181 C185 1.389 . S
C182 C180 1.426 . S
C182 C183 1.375 . S
C182 C186 1.532 . S
C183 H173 0.930 . S
C183 C182 1.375 . S
C183 C184 1.416 . S
C184 C183 1.416 . S
C184 C185 1.371 . S
C185 H174 0.930 . S
C185 C181 1.389 . S
C185 C184 1.371 . S
C186 H175 0.970 . S
C186 H176 0.970 . S
C186 C182 1.532 . S
C186 C187 1.499 1_545 S
C187 C186 1.499 1_565 S
C187 C188 1.370 . S
C187 C192 1.415 . S
C188 H177 0.930 . S
C188 C187 1.370 . S
C188 C189 1.407 . S
C189 C188 1.407 . S
C189 C190 1.365 . S
C190 H178 0.930 . S
C190 C189 1.365 . S
C190 C191 1.393 . S
C191 C190 1.393 . S
C191 C192 1.387 . S
C192 H179 0.930 . S
C192 C187 1.415 . S
C192 C191 1.387 . S
H193 C201 0.930 . S
H194 C204 0.930 . S
H195 C206 0.930 . S
H196 C207 0.970 . S
H197 C207 0.970 . S
H198 C209 0.930 . S
H199 C211 0.930 . S
H200 C213 0.930 . S
C201 H193 0.930 . S
C201 C202 1.382 . S
C201 C203 1.426 1_556 S
C202 C201 1.382 . S
C202 C206 1.389 1_556 S
C203 C201 1.426 1_554 S
C203 C204 1.375 . S
C203 C207 1.532 . S
C204 H194 0.930 . S
C204 C203 1.375 . S
C204 C205 1.416 . S
C205 C204 1.416 . S
C205 C206 1.371 . S
C206 H195 0.930 . S
C206 C202 1.389 1_554 S
C206 C205 1.371 . S
C207 H196 0.970 . S
C207 H197 0.970 . S
C207 C203 1.532 . S
C207 C208 1.499 . S
C208 C207 1.499 . S
C208 C209 1.370 1_554 S
C208 C213 1.415 . S
C209 H198 0.930 . S
C209 C208 1.370 1_556 S
C209 C210 1.407 . S
C210 C209 1.407 . S
C210 C211 1.365 1_556 S
C211 H199 0.930 . S
C211 C210 1.365 1_554 S
C211 C212 1.393 . S
C212 C211 1.393 . S
C212 C213 1.387 . S
C213 H200 0.930 . S
C213 C208 1.415 . S
C213 C212 1.387 . S
H214 C232 0.951 . S
H215 C234 0.951 . S
H216 C236 0.950 . S
H217 C237 0.950 . S
H218 C239 0.950 . S
H219 C242 0.950 . S
H220 C243 0.950 . S
H221 C245 0.950 . S
H222 C246 0.950 . S
H223 C247 0.951 . S
H224 C249 0.951 . S
H225 C251 0.950 . S
H226 C252 0.950 . S
H227 C254 0.950 . S
H228 C257 0.950 . S
H229 C258 0.950 . S
H230 C260 0.950 . S
H231 C261 0.950 . S
C232 H214 0.951 . S
C232 C233 1.366 . S
C232 C234 1.388 . S
C233 C232 1.366 . S
C233 C237 1.385 . S
C234 H215 0.951 . S
C234 C232 1.388 . S
C234 C235 1.366 . S
C235 C234 1.366 . S
C235 C236 1.414 . S
C235 C238 1.499 . S
C236 H216 0.950 . S
C236 C235 1.414 . S
C236 C237 1.374 . S
C237 H217 0.950 . S
C237 C233 1.385 . S
C237 C236 1.374 . S
C238 C235 1.499 . S
C238 C239 1.373 . S
C238 C240 1.389 . S
C239 H218 0.950 . S
C239 C238 1.373 . S
C239 C255 1.377 . S
C240 C238 1.389 . S
C240 C241 1.524 . S
C240 C254 1.377 . S
C241 C240 1.524 . S
C241 C242 1.397 . S
C241 C246 1.363 . S
C242 H219 0.950 . S
C242 C241 1.397 . S
C242 C243 1.334 . S
C243 H220 0.950 . S
C243 C242 1.334 . S
C243 C244 1.287 . S
C244 C243 1.287 . S
C244 C245 1.524 . S
C244 H263 0.913 . S
C245 H221 0.950 . S
C245 C244 1.524 . S
C245 C246 1.415 . S
C246 H222 0.950 . S
C246 C241 1.363 . S
C246 C245 1.415 . S
C247 H223 0.951 . S
C247 C248 1.366 . S
C247 C249 1.388 . S
C248 C247 1.366 . S
C248 C252 1.385 . S
C249 H224 0.951 . S
C249 C247 1.388 . S
C249 C250 1.366 . S
C250 C249 1.366 . S
C250 C251 1.414 . S
C250 C253 1.499 . S
C251 H225 0.950 . S
C251 C250 1.414 . S
C251 C252 1.374 . S
C252 H226 0.950 . S
C252 C248 1.385 . S
C252 C251 1.374 . S
C253 C250 1.499 . S
C253 C254 1.373 . S
C253 C255 1.389 . S
C254 H227 0.950 . S
C254 C240 1.377 . S
C254 C253 1.373 . S
C255 C239 1.377 . S
C255 C253 1.389 . S
C255 C256 1.524 . S
C256 C255 1.524 . S
C256 C257 1.397 . S
C256 C261 1.363 . S
C257 H228 0.950 . S
C257 C256 1.397 . S
C257 C258 1.334 . S
C258 H229 0.950 . S
C258 C257 1.334 . S
C258 C259 1.287 . S
C259 C258 1.287 . S
C259 C260 1.524 . S
C259 H262 0.999 . S
C260 H230 0.950 . S
C260 C259 1.524 . S
C260 C261 1.415 . S
C261 H231 0.950 . S
C261 C256 1.363 . S
C261 C260 1.415 . S
H262 C259 0.999 . S
H263 C244 0.913 . S
H264 C282 0.951 . S
H265 C284 0.951 . S
H266 C286 0.950 . S
H267 C287 0.950 . S
H268 C289 0.950 . S
H269 C292 0.950 . S
H270 C293 0.950 . S
H271 C295 0.950 . S
H272 C296 0.950 . S
H273 C297 0.951 . S
H274 C299 0.951 . S
H275 C301 0.950 . S
H276 C302 0.950 . S
H277 C304 0.950 . S
H278 C307 0.950 . S
H279 C308 0.950 . S
H280 C310 0.950 . S
H281 C311 0.950 . S
C282 H264 0.951 . S
C282 C283 1.366 . S
C282 C284 1.388 . S
C283 C282 1.366 . S
C283 C287 1.385 . S
C284 H265 0.951 . S
C284 C282 1.388 . S
C284 C285 1.366 . S
C285 C284 1.366 . S
C285 C286 1.414 . S
C285 C288 1.499 . S
C286 H266 0.950 . S
C286 C285 1.414 . S
C286 C287 1.374 . S
C287 H267 0.950 . S
C287 C283 1.385 . S
C287 C286 1.374 . S
C288 C285 1.499 . S
C288 C289 1.373 . S
C288 C290 1.389 . S
C289 H268 0.950 . S
C289 C288 1.373 . S
C289 C305 1.377 . S
C290 C288 1.389 . S
C290 C291 1.524 . S
C290 C304 1.377 . S
C291 C290 1.524 . S
C291 C292 1.397 . S
C291 C296 1.363 . S
C292 H269 0.950 . S
C292 C291 1.397 . S
C292 C293 1.334 . S
C293 H270 0.950 . S
C293 C292 1.334 . S
C293 C294 1.287 . S
C294 C293 1.287 . S
C294 C295 1.524 . S
C294 H313 0.913 . S
C295 H271 0.950 . S
C295 C294 1.524 . S
C295 C296 1.415 . S
C296 H272 0.950 . S
C296 C291 1.363 . S
C296 C295 1.415 . S
C297 H273 0.951 . S
C297 C298 1.366 . S
C297 C299 1.388 . S
C298 C297 1.366 . S
C298 C302 1.385 . S
C299 H274 0.951 . S
C299 C297 1.388 . S
C299 C300 1.366 . S
C300 C299 1.366 . S
C300 C301 1.414 . S
C300 C303 1.499 . S
C301 H275 0.950 . S
C301 C300 1.414 . S
C301 C302 1.374 . S
C302 H276 0.950 . S
C302 C298 1.385 . S
C302 C301 1.374 . S
C303 C300 1.499 . S
C303 C304 1.373 . S
C303 C305 1.389 . S
C304 H277 0.950 . S
C304 C290 1.377 . S
C304 C303 1.373 . S
C305 C289 1.377 . S
C305 C303 1.389 . S
C305 C306 1.524 . S
C306 C305 1.524 . S
C306 C307 1.397 . S
C306 C311 1.363 . S
C307 H278 0.950 . S
C307 C306 1.397 . S
C307 C308 1.334 . S
C308 H279 0.950 . S
C308 C307 1.334 . S
C308 C309 1.287 . S
C309 C308 1.287 . S
C309 C310 1.524 . S
C309 H312 0.999 . S
C310 H280 0.950 . S
C310 C309 1.524 . S
C310 C311 1.415 . S
C311 H281 0.950 . S
C311 C306 1.363 . S
C311 C310 1.415 . S
H312 C309 0.999 . S
H313 C294 0.913 . S
H314 C332 0.951 . S
H315 C334 0.951 . S
H316 C336 0.950 . S
H317 C337 0.950 . S
H318 C339 0.950 . S
H319 C342 0.950 . S
H320 C343 0.950 . S
H321 C345 0.950 . S
H322 C346 0.950 . S
H323 C347 0.951 . S
H324 C349 0.951 . S
H325 C351 0.950 . S
H326 C352 0.950 . S
H327 C354 0.950 . S
H328 C357 0.950 . S
H329 C358 0.950 . S
H330 C360 0.950 . S
H331 C361 0.950 . S
C332 H314 0.951 . S
C332 C333 1.366 . S
C332 C334 1.388 . S
C333 C332 1.366 . S
C333 C337 1.385 . S
C334 H315 0.951 . S
C334 C332 1.388 . S
C334 C335 1.366 . S
C335 C334 1.366 . S
C335 C336 1.414 . S
C335 C338 1.499 . S
C336 H316 0.950 . S
C336 C335 1.414 . S
C336 C337 1.374 . S
C337 H317 0.950 . S
C337 C333 1.385 . S
C337 C336 1.374 . S
C338 C335 1.499 . S
C338 C339 1.373 . S
C338 C340 1.389 . S
C339 H318 0.950 . S
C339 C338 1.373 . S
C339 C355 1.377 . S
C340 C338 1.389 . S
C340 C341 1.524 . S
C340 C354 1.377 . S
C341 C340 1.524 . S
C341 C342 1.397 . S
C341 C346 1.363 . S
C342 H319 0.950 . S
C342 C341 1.397 . S
C342 C343 1.334 . S
C343 H320 0.950 . S
C343 C342 1.334 . S
C343 C344 1.287 . S
C344 C343 1.287 . S
C344 C345 1.524 . S
C344 H363 0.913 . S
C345 H321 0.950 . S
C345 C344 1.524 . S
C345 C346 1.415 . S
C346 H322 0.950 . S
C346 C341 1.363 . S
C346 C345 1.415 . S
C347 H323 0.951 . S
C347 C348 1.366 . S
C347 C349 1.388 . S
C348 C347 1.366 . S
C348 C352 1.385 . S
C349 H324 0.951 . S
C349 C347 1.388 . S
C349 C350 1.366 . S
C350 C349 1.366 . S
C350 C351 1.414 . S
C350 C353 1.499 . S
C351 H325 0.950 . S
C351 C350 1.414 . S
C351 C352 1.374 . S
C352 H326 0.950 . S
C352 C348 1.385 . S
C352 C351 1.374 . S
C353 C350 1.499 . S
C353 C354 1.373 . S
C353 C355 1.389 . S
C354 H327 0.950 . S
C354 C340 1.377 . S
C354 C353 1.373 . S
C355 C339 1.377 . S
C355 C353 1.389 . S
C355 C356 1.524 . S
C356 C355 1.524 . S
C356 C357 1.397 . S
C356 C361 1.363 . S
C357 H328 0.950 . S
C357 C356 1.397 . S
C357 C358 1.334 . S
C358 H329 0.950 . S
C358 C357 1.334 . S
C358 C359 1.287 . S
C359 C358 1.287 . S
C359 C360 1.524 . S
C359 H362 0.999 . S
C360 H330 0.950 . S
C360 C359 1.524 . S
C360 C361 1.415 . S
C361 H331 0.950 . S
C361 C356 1.363 . S
C361 C360 1.415 . S
H362 C359 0.999 . S
H363 C344 0.913 . S
H364 C382 0.951 . S
H365 C384 0.951 . S
H366 C386 0.950 . S
H367 C387 0.950 . S
H368 C389 0.950 . S
H369 C392 0.950 . S
H370 C393 0.950 . S
H371 C395 0.950 . S
H372 C396 0.950 . S
H373 C397 0.951 . S
H374 C399 0.951 . S
H375 C401 0.950 . S
H376 C402 0.950 . S
H377 C404 0.950 . S
H378 C407 0.950 . S
H379 C408 0.950 . S
H380 C410 0.950 . S
H381 C411 0.950 . S
C382 H364 0.951 . S
C382 C383 1.366 . S
C382 C384 1.388 . S
C383 C382 1.366 . S
C383 C387 1.385 . S
C384 H365 0.951 . S
C384 C382 1.388 . S
C384 C385 1.366 . S
C385 C384 1.366 . S
C385 C386 1.414 . S
C385 C388 1.499 . S
C386 H366 0.950 . S
C386 C385 1.414 . S
C386 C387 1.374 . S
C387 H367 0.950 . S
C387 C383 1.385 . S
C387 C386 1.374 . S
C388 C385 1.499 . S
C388 C389 1.373 . S
C388 C390 1.389 . S
C389 H368 0.950 . S
C389 C388 1.373 . S
C389 C405 1.377 . S
C390 C388 1.389 . S
C390 C391 1.524 . S
C390 C404 1.377 . S
C391 C390 1.524 . S
C391 C392 1.397 . S
C391 C396 1.363 . S
C392 H369 0.950 . S
C392 C391 1.397 . S
C392 C393 1.334 . S
C393 H370 0.950 . S
C393 C392 1.334 . S
C393 C394 1.287 . S
C394 C393 1.287 . S
C394 C395 1.524 . S
C394 H413 0.913 . S
C395 H371 0.950 . S
C395 C394 1.524 . S
C395 C396 1.415 . S
C396 H372 0.950 . S
C396 C391 1.363 . S
C396 C395 1.415 . S
C397 H373 0.951 . S
C397 C398 1.366 . S
C397 C399 1.388 . S
C398 C397 1.366 . S
C398 C402 1.385 . S
C399 H374 0.951 . S
C399 C397 1.388 . S
C399 C400 1.366 . S
C400 C399 1.366 . S
C400 C401 1.414 . S
C400 C403 1.499 . S
C401 H375 0.950 . S
C401 C400 1.414 . S
C401 C402 1.374 . S
C402 H376 0.950 . S
C402 C398 1.385 . S
C402 C401 1.374 . S
C403 C400 1.499 . S
C403 C404 1.373 . S
C403 C405 1.389 . S
C404 H377 0.950 . S
C404 C390 1.377 . S
C404 C403 1.373 . S
C405 C389 1.377 . S
C405 C403 1.389 . S
C405 C406 1.524 . S
C406 C405 1.524 . S
C406 C407 1.397 . S
C406 C411 1.363 . S
C407 H378 0.950 . S
C407 C406 1.397 . S
C407 C408 1.334 . S
C408 H379 0.950 . S
C408 C407 1.334 . S
C408 C409 1.287 . S
C409 C408 1.287 . S
C409 C410 1.524 . S
C409 H412 0.999 . S
C410 H380 0.950 . S
C410 C409 1.524 . S
C410 C411 1.415 . S
C411 H381 0.950 . S
C411 C406 1.363 . S
C411 C410 1.415 . S
H412 C409 0.999 . S
H413 C394 0.913 . S
H414 C432 0.951 . S
H415 C434 0.951 . S
H416 C436 0.950 . S
H417 C437 0.950 . S
H418 C439 0.950 . S
H419 C442 0.950 . S
H420 C443 0.950 . S
H421 C445 0.950 . S
H422 C446 0.950 . S
H423 C447 0.951 . S
H424 C449 0.951 . S
H425 C451 0.950 . S
H426 C452 0.950 . S
H427 C454 0.950 . S
H428 C457 0.950 . S
H429 C458 0.950 . S
H430 C460 0.950 . S
H431 C461 0.950 . S
C432 H414 0.951 . S
C432 C433 1.366 . S
C432 C434 1.388 . S
C433 C432 1.366 . S
C433 C437 1.385 . S
C434 H415 0.951 . S
C434 C432 1.388 . S
C434 C435 1.366 . S
C435 C434 1.366 . S
C435 C436 1.414 . S
C435 C438 1.499 . S
C436 H416 0.950 . S
C436 C435 1.414 . S
C436 C437 1.374 . S
C437 H417 0.950 . S
C437 C433 1.385 . S
C437 C436 1.374 . S
C438 C435 1.499 . S
C438 C439 1.373 . S
C438 C440 1.389 . S
C439 H418 0.950 . S
C439 C438 1.373 . S
C439 C455 1.377 . S
C440 C438 1.389 . S
C440 C441 1.524 . S
C440 C454 1.377 . S
C441 C440 1.524 . S
C441 C442 1.397 . S
C441 C446 1.363 . S
C442 H419 0.950 . S
C442 C441 1.397 . S
C442 C443 1.334 . S
C443 H420 0.950 . S
C443 C442 1.334 . S
C443 C444 1.287 . S
C444 C443 1.287 . S
C444 C445 1.524 . S
C444 H463 0.913 . S
C445 H421 0.950 . S
C445 C444 1.524 . S
C445 C446 1.415 . S
C446 H422 0.950 . S
C446 C441 1.363 . S
C446 C445 1.415 . S
C447 H423 0.951 . S
C447 C448 1.366 . S
C447 C449 1.388 . S
C448 C447 1.366 . S
C448 C452 1.385 . S
C449 H424 0.951 . S
C449 C447 1.388 . S
C449 C450 1.366 . S
C450 C449 1.366 . S
C450 C451 1.414 . S
C450 C453 1.499 . S
C451 H425 0.950 . S
C451 C450 1.414 . S
C451 C452 1.374 . S
C452 H426 0.950 . S
C452 C448 1.385 . S
C452 C451 1.374 . S
C453 C450 1.499 . S
C453 C454 1.373 . S
C453 C455 1.389 . S
C454 H427 0.950 . S
C454 C440 1.377 . S
C454 C453 1.373 . S
C455 C439 1.377 . S
C455 C453 1.389 . S
C455 C456 1.524 . S
C456 C455 1.524 . S
C456 C457 1.397 . S
C456 C461 1.363 . S
C457 H428 0.950 . S
C457 C456 1.397 . S
C457 C458 1.334 . S
C458 H429 0.950 . S
C458 C457 1.334 . S
C458 C459 1.287 . S
C459 C458 1.287 . S
C459 C460 1.524 . S
C459 H462 0.999 . S
C460 H430 0.950 . S
C460 C459 1.524 . S
C460 C461 1.415 . S
C461 H431 0.950 . S
C461 C456 1.363 . S
C461 C460 1.415 . S
H462 C459 0.999 . S
H463 C444 0.913 . S
H464 C482 0.951 . S
H465 C484 0.951 . S
H466 C486 0.950 . S
H467 C487 0.950 . S
H468 C489 0.950 . S
H469 C492 0.950 . S
H470 C493 0.950 . S
H471 C495 0.950 . S
H472 C496 0.950 . S
H473 C497 0.951 . S
H474 C499 0.951 . S
H475 C501 0.950 . S
H476 C502 0.950 . S
H477 C504 0.950 . S
H478 C507 0.950 . S
H479 C508 0.950 . S
H480 C510 0.950 . S
H481 C511 0.950 . S
C482 H464 0.951 . S
C482 C483 1.366 . S
C482 C484 1.388 . S
C483 C482 1.366 . S
C483 C487 1.385 . S
C484 H465 0.951 . S
C484 C482 1.388 . S
C484 C485 1.366 . S
C485 C484 1.366 . S
C485 C486 1.414 . S
C485 C488 1.499 . S
C486 H466 0.950 . S
C486 C485 1.414 . S
C486 C487 1.374 . S
C487 H467 0.950 . S
C487 C483 1.385 . S
C487 C486 1.374 . S
C488 C485 1.499 . S
C488 C489 1.373 . S
C488 C490 1.389 . S
C489 H468 0.950 . S
C489 C488 1.373 . S
C489 C505 1.377 . S
C490 C488 1.389 . S
C490 C491 1.524 . S
C490 C504 1.377 . S
C491 C490 1.524 . S
C491 C492 1.397 . S
C491 C496 1.363 . S
C492 H469 0.950 . S
C492 C491 1.397 . S
C492 C493 1.334 . S
C493 H470 0.950 . S
C493 C492 1.334 . S
C493 C494 1.287 . S
C494 C493 1.287 . S
C494 C495 1.524 . S
C494 H513 0.913 1_556 S
C495 H471 0.950 . S
C495 C494 1.524 . S
C495 C496 1.415 . S
C496 H472 0.950 . S
C496 C491 1.363 . S
C496 C495 1.415 . S
C497 H473 0.951 . S
C497 C498 1.366 . S
C497 C499 1.388 . S
C498 C497 1.366 . S
C498 C502 1.385 . S
C499 H474 0.951 . S
C499 C497 1.388 . S
C499 C500 1.366 . S
C500 C499 1.366 . S
C500 C501 1.414 . S
C500 C503 1.499 . S
C501 H475 0.950 . S
C501 C500 1.414 . S
C501 C502 1.374 . S
C502 H476 0.950 . S
C502 C498 1.385 . S
C502 C501 1.374 . S
C503 C500 1.499 . S
C503 C504 1.373 . S
C503 C505 1.389 . S
C504 H477 0.950 . S
C504 C490 1.377 . S
C504 C503 1.373 . S
C505 C489 1.377 . S
C505 C503 1.389 . S
C505 C506 1.524 . S
C506 C505 1.524 . S
C506 C507 1.397 . S
C506 C511 1.363 . S
C507 H478 0.950 . S
C507 C506 1.397 . S
C507 C508 1.334 . S
C508 H479 0.950 . S
C508 C507 1.334 . S
C508 C509 1.287 . S
C509 C508 1.287 . S
C509 C510 1.524 . S
C509 H512 0.999 . S
C510 H480 0.950 . S
C510 C509 1.524 . S
C510 C511 1.415 . S
C511 H481 0.950 . S
C511 C506 1.363 . S
C511 C510 1.415 . S
H512 C509 0.999 . S
H513 C494 0.913 1_554 S
H514 C532 0.951 . S
H515 C534 0.951 . S
H516 C536 0.950 . S
H517 C537 0.950 . S
H518 C539 0.950 . S
H519 C542 0.950 . S
H520 C543 0.950 . S
H521 C545 0.950 . S
H522 C546 0.950 . S
H523 C547 0.951 . S
H524 C549 0.951 . S
H525 C551 0.950 . S
H526 C552 0.950 . S
H527 C554 0.950 . S
H528 C557 0.950 . S
H529 C558 0.950 . S
H530 C560 0.950 . S
H531 C561 0.950 . S
C532 H514 0.951 . S
C532 C533 1.366 . S
C532 C534 1.388 . S
C533 C532 1.366 . S
C533 C537 1.385 . S
C534 H515 0.951 . S
C534 C532 1.388 . S
C534 C535 1.366 . S
C535 C534 1.366 . S
C535 C536 1.414 . S
C535 C538 1.499 . S
C536 H516 0.950 . S
C536 C535 1.414 . S
C536 C537 1.374 . S
C537 H517 0.950 . S
C537 C533 1.385 . S
C537 C536 1.374 . S
C538 C535 1.499 . S
C538 C539 1.373 . S
C538 C540 1.389 . S
C539 H518 0.950 . S
C539 C538 1.373 . S
C539 C555 1.377 . S
C540 C538 1.389 . S
C540 C541 1.524 . S
C540 C554 1.377 . S
C541 C540 1.524 . S
C541 C542 1.397 . S
C541 C546 1.363 . S
C542 H519 0.950 . S
C542 C541 1.397 . S
C542 C543 1.334 . S
C543 H520 0.950 . S
C543 C542 1.334 . S
C543 C544 1.287 . S
C544 C543 1.287 . S
C544 C545 1.524 . S
C544 H563 0.913 . S
C545 H521 0.950 . S
C545 C544 1.524 . S
C545 C546 1.415 . S
C546 H522 0.950 . S
C546 C541 1.363 . S
C546 C545 1.415 . S
C547 H523 0.951 . S
C547 C548 1.366 . S
C547 C549 1.388 . S
C548 C547 1.366 . S
C548 C552 1.385 . S
C549 H524 0.951 . S
C549 C547 1.388 . S
C549 C550 1.366 . S
C550 C549 1.366 . S
C550 C551 1.414 . S
C550 C553 1.499 . S
C551 H525 0.950 . S
C551 C550 1.414 . S
C551 C552 1.374 . S
C552 H526 0.950 . S
C552 C548 1.385 . S
C552 C551 1.374 . S
C553 C550 1.499 . S
C553 C554 1.373 . S
C553 C555 1.389 . S
C554 H527 0.950 . S
C554 C540 1.377 . S
C554 C553 1.373 . S
C555 C539 1.377 . S
C555 C553 1.389 . S
C555 C556 1.524 . S
C556 C555 1.524 . S
C556 C557 1.397 . S
C556 C561 1.363 . S
C557 H528 0.950 . S
C557 C556 1.397 . S
C557 C558 1.334 . S
C558 H529 0.950 . S
C558 C557 1.334 . S
C558 C559 1.287 . S
C559 C558 1.287 . S
C559 C560 1.524 . S
C559 H562 0.999 . S
C560 H530 0.950 . S
C560 C559 1.524 . S
C560 C561 1.415 . S
C561 H531 0.950 . S
C561 C556 1.363 . S
C561 C560 1.415 . S
H562 C559 0.999 . S
H563 C544 0.913 . S
H564 C582 0.951 . S
H565 C584 0.951 . S
H566 C586 0.950 . S
H567 C587 0.950 . S
H568 C589 0.950 . S
H569 C592 0.950 . S
H570 C593 0.950 . S
H571 C595 0.950 . S
H572 C596 0.950 . S
H573 C597 0.951 . S
H574 C599 0.951 . S
H575 C601 0.950 . S
H576 C602 0.950 . S
H577 C604 0.950 . S
H578 C607 0.950 . S
H579 C608 0.950 . S
H580 C610 0.950 . S
H581 C611 0.950 . S
C582 H564 0.951 . S
C582 C583 1.366 . S
C582 C584 1.388 . S
C583 C582 1.366 . S
C583 C587 1.385 . S
C584 H565 0.951 . S
C584 C582 1.388 . S
C584 C585 1.366 . S
C585 C584 1.366 . S
C585 C586 1.414 . S
C585 C588 1.499 . S
C586 H566 0.950 . S
C586 C585 1.414 . S
C586 C587 1.374 . S
C587 H567 0.950 . S
C587 C583 1.385 . S
C587 C586 1.374 . S
C588 C585 1.499 . S
C588 C589 1.373 . S
C588 C590 1.389 . S
C589 H568 0.950 . S
C589 C588 1.373 . S
C589 C605 1.377 . S
C590 C588 1.389 . S
C590 C591 1.524 . S
C590 C604 1.377 . S
C591 C590 1.524 . S
C591 C592 1.397 . S
C591 C596 1.363 . S
C592 H569 0.950 . S
C592 C591 1.397 . S
C592 C593 1.334 . S
C593 H570 0.950 . S
C593 C592 1.334 . S
C593 C594 1.287 . S
C594 C593 1.287 . S
C594 C595 1.524 . S
C594 H613 0.913 . S
C595 H571 0.950 . S
C595 C594 1.524 . S
C595 C596 1.415 . S
C596 H572 0.950 . S
C596 C591 1.363 . S
C596 C595 1.415 . S
C597 H573 0.951 . S
C597 C598 1.366 . S
C597 C599 1.388 . S
C598 C597 1.366 . S
C598 C602 1.385 . S
C599 H574 0.951 . S
C599 C597 1.388 . S
C599 C600 1.366 . S
C600 C599 1.366 . S
C600 C601 1.414 . S
C600 C603 1.499 . S
C601 H575 0.950 . S
C601 C600 1.414 . S
C601 C602 1.374 . S
C602 H576 0.950 . S
C602 C598 1.385 . S
C602 C601 1.374 . S
C603 C600 1.499 . S
C603 C604 1.373 . S
C603 C605 1.389 . S
C604 H577 0.950 . S
C604 C590 1.377 . S
C604 C603 1.373 . S
C605 C589 1.377 . S
C605 C603 1.389 . S
C605 C606 1.524 . S
C606 C605 1.524 . S
C606 C607 1.397 . S
C606 C611 1.363 . S
C607 H578 0.950 . S
C607 C606 1.397 . S
C607 C608 1.334 . S
C608 H579 0.950 . S
C608 C607 1.334 . S
C608 C609 1.287 . S
C609 C608 1.287 . S
C609 C610 1.524 . S
C609 H612 0.999 . S
C610 H580 0.950 . S
C610 C609 1.524 . S
C610 C611 1.415 . S
C611 H581 0.950 . S
C611 C606 1.363 . S
C611 C610 1.415 . S
H612 C609 0.999 . S
H613 C594 0.913 . S
H614 C632 0.951 . S
H615 C634 0.951 . S
H616 C636 0.950 . S
H617 C637 0.950 . S
H618 C639 0.950 . S
H619 C642 0.950 . S
H620 C643 0.950 . S
H621 C645 0.950 . S
H622 C646 0.950 . S
H623 C647 0.951 . S
H624 C649 0.951 . S
H625 C651 0.950 . S
H626 C652 0.950 . S
H627 C654 0.950 1_545 S
H628 C657 0.950 . S
H629 C658 0.950 . S
H630 C660 0.950 . S
H631 C661 0.950 . S
C632 H614 0.951 . S
C632 C633 1.366 . S
C632 C634 1.388 . S
C633 C632 1.366 . S
C633 C637 1.385 . S
C634 H615 0.951 . S
C634 C632 1.388 . S
C634 C635 1.366 . S
C635 C634 1.366 . S
C635 C636 1.414 . S
C635 C638 1.499 . S
C636 H616 0.950 . S
C636 C635 1.414 . S
C636 C637 1.374 . S
C637 H617 0.950 . S
C637 C633 1.385 . S
C637 C636 1.374 . S
C638 C635 1.499 . S
C638 C639 1.373 . S
C638 C640 1.389 . S
C639 H618 0.950 . S
C639 C638 1.373 . S
C639 C655 1.377 . S
C640 C638 1.389 . S
C640 C641 1.524 . S
C640 C654 1.377 . S
C641 C640 1.524 . S
C641 C642 1.397 . S
C641 C646 1.363 . S
C642 H619 0.950 . S
C642 C641 1.397 . S
C642 C643 1.334 . S
C643 H620 0.950 . S
C643 C642 1.334 . S
C643 C644 1.287 . S
C644 C643 1.287 . S
C644 C645 1.524 . S
C644 H663 0.913 . S
C645 H621 0.950 . S
C645 C644 1.524 . S
C645 C646 1.415 . S
C646 H622 0.950 . S
C646 C641 1.363 . S
C646 C645 1.415 . S
C647 H623 0.951 . S
C647 C648 1.366 . S
C647 C649 1.388 . S
C648 C647 1.366 . S
C648 C652 1.385 . S
C649 H624 0.951 . S
C649 C647 1.388 . S
C649 C650 1.366 . S
C650 C649 1.366 . S
C650 C651 1.414 . S
C650 C653 1.499 . S
C651 H625 0.950 . S
C651 C650 1.414 . S
C651 C652 1.374 . S
C652 H626 0.950 . S
C652 C648 1.385 . S
C652 C651 1.374 . S
C653 C650 1.499 . S
C653 C654 1.373 1_545 S
C653 C655 1.389 1_545 S
C654 H627 0.950 1_565 S
C654 C640 1.377 . S
C654 C653 1.373 1_565 S
C655 C639 1.377 . S
C655 C653 1.389 1_565 S
C655 C656 1.524 1_565 S
C656 C655 1.524 1_545 S
C656 C657 1.397 . S
C656 C661 1.363 . S
C657 H628 0.950 . S
C657 C656 1.397 . S
C657 C658 1.334 . S
C658 H629 0.950 . S
C658 C657 1.334 . S
C658 C659 1.287 . S
C659 C658 1.287 . S
C659 C660 1.524 . S
C659 H662 0.999 . S
C660 H630 0.950 . S
C660 C659 1.524 . S
C660 C661 1.415 . S
C661 H631 0.950 . S
C661 C656 1.363 . S
C661 C660 1.415 . S
H662 C659 0.999 . S
H663 C644 0.913 . S
H664 C682 0.951 . S
H665 C684 0.951 . S
H666 C686 0.950 . S
H667 C687 0.950 . S
H668 C689 0.950 . S
H669 C692 0.950 . S
H670 C693 0.950 . S
H671 C695 0.950 . S
H672 C696 0.950 . S
H673 C697 0.951 . S
H674 C699 0.951 . S
H675 C701 0.950 . S
H676 C702 0.950 . S
H677 C704 0.950 . S
H678 C707 0.950 . S
H679 C708 0.950 . S
H680 C710 0.950 . S
H681 C711 0.950 . S
C682 H664 0.951 . S
C682 C683 1.366 . S
C682 C684 1.388 . S
C683 C682 1.366 . S
C683 C687 1.385 . S
C684 H665 0.951 . S
C684 C682 1.388 . S
C684 C685 1.366 . S
C685 C684 1.366 . S
C685 C686 1.414 . S
C685 C688 1.499 . S
C686 H666 0.950 . S
C686 C685 1.414 . S
C686 C687 1.374 . S
C687 H667 0.950 . S
C687 C683 1.385 . S
C687 C686 1.374 . S
C688 C685 1.499 . S
C688 C689 1.373 . S
C688 C690 1.389 . S
C689 H668 0.950 . S
C689 C688 1.373 . S
C689 C705 1.377 . S
C690 C688 1.389 . S
C690 C691 1.524 . S
C690 C704 1.377 . S
C691 C690 1.524 . S
C691 C692 1.397 . S
C691 C696 1.363 . S
C692 H669 0.950 . S
C692 C691 1.397 . S
C692 C693 1.334 . S
C693 H670 0.950 . S
C693 C692 1.334 . S
C693 C694 1.287 . S
C694 C693 1.287 . S
C694 C695 1.524 . S
C694 H713 0.913 . S
C695 H671 0.950 . S
C695 C694 1.524 . S
C695 C696 1.415 . S
C696 H672 0.950 . S
C696 C691 1.363 . S
C696 C695 1.415 . S
C697 H673 0.951 . S
C697 C698 1.366 . S
C697 C699 1.388 . S
C698 C697 1.366 . S
C698 C702 1.385 . S
C699 H674 0.951 . S
C699 C697 1.388 . S
C699 C700 1.366 . S
C700 C699 1.366 . S
C700 C701 1.414 . S
C700 C703 1.499 . S
C701 H675 0.950 . S
C701 C700 1.414 . S
C701 C702 1.374 . S
C702 H676 0.950 . S
C702 C698 1.385 . S
C702 C701 1.374 . S
C703 C700 1.499 . S
C703 C704 1.373 . S
C703 C705 1.389 . S
C704 H677 0.950 . S
C704 C690 1.377 . S
C704 C703 1.373 . S
C705 C689 1.377 . S
C705 C703 1.389 . S
C705 C706 1.524 . S
C706 C705 1.524 . S
C706 C707 1.397 . S
C706 C711 1.363 . S
C707 H678 0.950 . S
C707 C706 1.397 . S
C707 C708 1.334 . S
C708 H679 0.950 . S
C708 C707 1.334 . S
C708 C709 1.287 1_554 S
C709 C708 1.287 1_556 S
C709 C710 1.524 . S
C709 H712 0.999 . S
C710 H680 0.950 . S
C710 C709 1.524 . S
C710 C711 1.415 1_556 S
C711 H681 0.950 . S
C711 C706 1.363 . S
C711 C710 1.415 1_554 S
H712 C709 0.999 . S
H713 C694 0.913 . S
H714 C732 0.951 . S
H715 C734 0.951 . S
H716 C736 0.950 . S
H717 C737 0.950 . S
H718 C739 0.950 . S
H719 C742 0.950 . S
H720 C743 0.950 . S
H721 C745 0.950 . S
H722 C746 0.950 . S
H723 C747 0.951 . S
H724 C749 0.951 . S
H725 C751 0.950 . S
H726 C752 0.950 . S
H727 C754 0.950 . S
H728 C757 0.950 . S
H729 C758 0.950 . S
H730 C760 0.950 . S
H731 C761 0.950 . S
C732 H714 0.951 . S
C732 C733 1.366 . S
C732 C734 1.388 . S
C733 C732 1.366 . S
C733 C737 1.385 . S
C734 H715 0.951 . S
C734 C732 1.388 . S
C734 C735 1.366 . S
C735 C734 1.366 . S
C735 C736 1.414 . S
C735 C738 1.499 . S
C736 H716 0.950 . S
C736 C735 1.414 . S
C736 C737 1.374 . S
C737 H717 0.950 . S
C737 C733 1.385 . S
C737 C736 1.374 . S
C738 C735 1.499 . S
C738 C739 1.373 . S
C738 C740 1.389 . S
C739 H718 0.950 . S
C739 C738 1.373 . S
C739 C755 1.377 . S
C740 C738 1.389 . S
C740 C741 1.524 . S
C740 C754 1.377 . S
C741 C740 1.524 . S
C741 C742 1.397 . S
C741 C746 1.363 . S
C742 H719 0.950 . S
C742 C741 1.397 . S
C742 C743 1.334 . S
C743 H720 0.950 . S
C743 C742 1.334 . S
C743 C744 1.287 . S
C744 C743 1.287 . S
C744 C745 1.524 . S
C744 H763 0.913 . S
C745 H721 0.950 . S
C745 C744 1.524 . S
C745 C746 1.415 . S
C746 H722 0.950 . S
C746 C741 1.363 . S
C746 C745 1.415 . S
C747 H723 0.951 . S
C747 C748 1.366 . S
C747 C749 1.388 . S
C748 C747 1.366 . S
C748 C752 1.385 . S
C749 H724 0.951 . S
C749 C747 1.388 . S
C749 C750 1.366 . S
C750 C749 1.366 . S
C750 C751 1.414 . S
C750 C753 1.499 . S
C751 H725 0.950 . S
C751 C750 1.414 . S
C751 C752 1.374 . S
C752 H726 0.950 . S
C752 C748 1.385 . S
C752 C751 1.374 . S
C753 C750 1.499 . S
C753 C754 1.373 . S
C753 C755 1.389 . S
C754 H727 0.950 . S
C754 C740 1.377 . S
C754 C753 1.373 . S
C755 C739 1.377 . S
C755 C753 1.389 . S
C755 C756 1.524 . S
C756 C755 1.524 . S
C756 C757 1.397 . S
C756 C761 1.363 . S
C757 H728 0.950 . S
C757 C756 1.397 . S
C757 C758 1.334 . S
C758 H729 0.950 . S
C758 C757 1.334 . S
C758 C759 1.287 . S
C759 C758 1.287 . S
C759 C760 1.524 . S
C759 H762 0.999 . S
C760 H730 0.950 . S
C760 C759 1.524 . S
C760 C761 1.415 . S
C761 H731 0.950 . S
C761 C756 1.363 . S
C761 C760 1.415 . S
H762 C759 0.999 . S
H763 C744 0.913 . S
H764 C782 0.951 . S
H765 C784 0.951 . S
H766 C786 0.950 . S
H767 C787 0.950 . S
H768 C789 0.950 . S
H769 C792 0.950 . S
H770 C793 0.950 . S
H771 C795 0.950 . S
H772 C796 0.950 . S
H773 C797 0.951 . S
H774 C799 0.951 . S
H775 C801 0.950 . S
H776 C802 0.950 . S
H777 C804 0.950 . S
H778 C807 0.950 . S
H779 C808 0.950 . S
H780 C810 0.950 . S
H781 C811 0.950 . S
C782 H764 0.951 . S
C782 C783 1.366 . S
C782 C784 1.388 . S
C783 C782 1.366 . S
C783 C787 1.385 . S
C784 H765 0.951 . S
C784 C782 1.388 . S
C784 C785 1.366 . S
C785 C784 1.366 . S
C785 C786 1.414 . S
C785 C788 1.499 . S
C786 H766 0.950 . S
C786 C785 1.414 . S
C786 C787 1.374 . S
C787 H767 0.950 . S
C787 C783 1.385 . S
C787 C786 1.374 . S
C788 C785 1.499 . S
C788 C789 1.373 . S
C788 C790 1.389 . S
C789 H768 0.950 . S
C789 C788 1.373 . S
C789 C805 1.377 . S
C790 C788 1.389 . S
C790 C791 1.524 . S
C790 C804 1.377 . S
C791 C790 1.524 . S
C791 C792 1.397 . S
C791 C796 1.363 . S
C792 H769 0.950 . S
C792 C791 1.397 . S
C792 C793 1.334 . S
C793 H770 0.950 . S
C793 C792 1.334 . S
C793 C794 1.287 . S
C794 C793 1.287 . S
C794 C795 1.524 . S
C794 H813 0.913 . S
C795 H771 0.950 . S
C795 C794 1.524 . S
C795 C796 1.415 . S
C796 H772 0.950 . S
C796 C791 1.363 . S
C796 C795 1.415 . S
C797 H773 0.951 . S
C797 C798 1.366 . S
C797 C799 1.388 . S
C798 C797 1.366 . S
C798 C802 1.385 . S
C799 H774 0.951 . S
C799 C797 1.388 . S
C799 C800 1.366 . S
C800 C799 1.366 . S
C800 C801 1.414 . S
C800 C803 1.499 . S
C801 H775 0.950 . S
C801 C800 1.414 . S
C801 C802 1.374 . S
C802 H776 0.950 . S
C802 C798 1.385 . S
C802 C801 1.374 . S
C803 C800 1.499 . S
C803 C804 1.373 . S
C803 C805 1.389 . S
C804 H777 0.950 . S
C804 C790 1.377 . S
C804 C803 1.373 . S
C805 C789 1.377 . S
C805 C803 1.389 . S
C805 C806 1.524 . S
C806 C805 1.524 . S
C806 C807 1.397 . S
C806 C811 1.363 . S
C807 H778 0.950 . S
C807 C806 1.397 . S
C807 C808 1.334 . S
C808 H779 0.950 . S
C808 C807 1.334 . S
C808 C809 1.287 . S
C809 C808 1.287 . S
C809 C810 1.524 . S
C809 H812 0.999 . S
C810 H780 0.950 . S
C810 C809 1.524 . S
C810 C811 1.415 . S
C811 H781 0.950 . S
C811 C806 1.363 . S
C811 C810 1.415 . S
H812 C809 0.999 . S
H813 C794 0.913 . S
H814 C832 0.951 . S
H815 C834 0.951 . S
H816 C836 0.950 . S
H817 C837 0.950 . S
H818 C839 0.950 . S
H819 C842 0.950 . S
H820 C843 0.950 . S
H821 C845 0.950 . S
H822 C846 0.950 . S
H823 C847 0.951 . S
H824 C849 0.951 . S
H825 C851 0.950 . S
H826 C852 0.950 . S
H827 C854 0.950 . S
H828 C857 0.950 . S
H829 C858 0.950 . S
H830 C860 0.950 . S
H831 C861 0.950 . S
C832 H814 0.951 . S
C832 C833 1.366 . S
C832 C834 1.388 . S
C833 C832 1.366 . S
C833 C837 1.385 . S
C834 H815 0.951 . S
C834 C832 1.388 . S
C834 C835 1.366 . S
C835 C834 1.366 . S
C835 C836 1.414 . S
C835 C838 1.499 . S
C836 H816 0.950 . S
C836 C835 1.414 . S
C836 C837 1.374 . S
C837 H817 0.950 . S
C837 C833 1.385 . S
C837 C836 1.374 . S
C838 C835 1.499 . S
C838 C839 1.373 . S
C838 C840 1.389 . S
C839 H818 0.950 . S
C839 C838 1.373 . S
C839 C855 1.377 . S
C840 C838 1.389 . S
C840 C841 1.524 . S
C840 C854 1.377 . S
C841 C840 1.524 . S
C841 C842 1.397 . S
C841 C846 1.363 . S
C842 H819 0.950 . S
C842 C841 1.397 . S
C842 C843 1.334 . S
C843 H820 0.950 . S
C843 C842 1.334 . S
C843 C844 1.287 . S
C844 C843 1.287 . S
C844 C845 1.524 . S
C844 H863 0.913 . S
C845 H821 0.950 . S
C845 C844 1.524 . S
C845 C846 1.415 . S
C846 H822 0.950 . S
C846 C841 1.363 . S
C846 C845 1.415 . S
C847 H823 0.951 . S
C847 C848 1.366 . S
C847 C849 1.388 . S
C848 C847 1.366 . S
C848 C852 1.385 . S
C849 H824 0.951 . S
C849 C847 1.388 . S
C849 C850 1.366 . S
C850 C849 1.366 . S
C850 C851 1.414 . S
C850 C853 1.499 . S
C851 H825 0.950 . S
C851 C850 1.414 . S
C851 C852 1.374 . S
C852 H826 0.950 . S
C852 C848 1.385 . S
C852 C851 1.374 . S
C853 C850 1.499 . S
C853 C854 1.373 . S
C853 C855 1.389 . S
C854 H827 0.950 . S
C854 C840 1.377 . S
C854 C853 1.373 . S
C855 C839 1.377 . S
C855 C853 1.389 . S
C855 C856 1.524 . S
C856 C855 1.524 . S
C856 C857 1.397 . S
C856 C861 1.363 . S
C857 H828 0.950 . S
C857 C856 1.397 . S
C857 C858 1.334 . S
C858 H829 0.950 . S
C858 C857 1.334 . S
C858 C859 1.287 . S
C859 C858 1.287 . S
C859 C860 1.524 . S
C859 H862 0.999 . S
C860 H830 0.950 . S
C860 C859 1.524 . S
C860 C861 1.415 . S
C861 H831 0.950 . S
C861 C856 1.363 . S
C861 C860 1.415 . S
H862 C859 0.999 . S
H863 C844 0.913 . S
H864 C882 0.951 . S
H865 C884 0.951 . S
H866 C886 0.950 . S
H867 C887 0.950 . S
H868 C889 0.950 . S
H869 C892 0.950 . S
H870 C893 0.950 . S
H871 C895 0.950 . S
H872 C896 0.950 . S
H873 C897 0.951 . S
H874 C899 0.951 . S
H875 C901 0.950 . S
H876 C902 0.950 . S
H877 C904 0.950 . S
H878 C907 0.950 . S
H879 C908 0.950 . S
H880 C910 0.950 . S
H881 C911 0.950 . S
C882 H864 0.951 . S
C882 C883 1.366 . S
C882 C884 1.388 . S
C883 C882 1.366 . S
C883 C887 1.385 . S
C884 H865 0.951 . S
C884 C882 1.388 . S
C884 C885 1.366 . S
C885 C884 1.366 . S
C885 C886 1.414 . S
C885 C888 1.499 . S
C886 H866 0.950 . S
C886 C885 1.414 . S
C886 C887 1.374 . S
C887 H867 0.950 . S
C887 C883 1.385 . S
C887 C886 1.374 . S
C888 C885 1.499 . S
C888 C889 1.373 . S
C888 C890 1.389 . S
C889 H868 0.950 . S
C889 C888 1.373 . S
C889 C905 1.377 . S
C890 C888 1.389 . S
C890 C891 1.524 . S
C890 C904 1.377 . S
C891 C890 1.524 . S
C891 C892 1.397 . S
C891 C896 1.363 . S
C892 H869 0.950 . S
C892 C891 1.397 . S
C892 C893 1.334 . S
C893 H870 0.950 . S
C893 C892 1.334 . S
C893 C894 1.287 . S
C894 C893 1.287 . S
C894 C895 1.524 . S
C894 H913 0.913 . S
C895 H871 0.950 . S
C895 C894 1.524 . S
C895 C896 1.415 . S
C896 H872 0.950 . S
C896 C891 1.363 . S
C896 C895 1.415 . S
C897 H873 0.951 . S
C897 C898 1.366 . S
C897 C899 1.388 . S
C898 C897 1.366 . S
C898 C902 1.385 . S
C899 H874 0.951 . S
C899 C897 1.388 . S
C899 C900 1.366 . S
C900 C899 1.366 . S
C900 C901 1.414 . S
C900 C903 1.499 . S
C901 H875 0.950 . S
C901 C900 1.414 . S
C901 C902 1.374 . S
C902 H876 0.950 . S
C902 C898 1.385 . S
C902 C901 1.374 . S
C903 C900 1.499 . S
C903 C904 1.373 . S
C903 C905 1.389 . S
C904 H877 0.950 . S
C904 C890 1.377 . S
C904 C903 1.373 . S
C905 C889 1.377 . S
C905 C903 1.389 . S
C905 C906 1.524 . S
C906 C905 1.524 . S
C906 C907 1.397 . S
C906 C911 1.363 . S
C907 H878 0.950 . S
C907 C906 1.397 . S
C907 C908 1.334 . S
C908 H879 0.950 . S
C908 C907 1.334 . S
C908 C909 1.287 . S
C909 C908 1.287 . S
C909 C910 1.524 . S
C909 H912 0.999 . S
C910 H880 0.950 . S
C910 C909 1.524 . S
C910 C911 1.415 . S
C911 H881 0.950 . S
C911 C906 1.363 . S
C911 C910 1.415 . S
H912 C909 0.999 . S
H913 C894 0.913 . S
H914 C932 0.951 . S
H915 C934 0.951 . S
H916 C936 0.950 . S
H917 C937 0.950 . S
H918 C939 0.950 . S
H919 C942 0.950 . S
H920 C943 0.950 . S
H921 C945 0.950 . S
H922 C946 0.950 . S
H923 C947 0.951 . S
H924 C949 0.951 . S
H925 C951 0.950 . S
H926 C952 0.950 . S
H927 C954 0.950 . S
H928 C957 0.950 . S
H929 C958 0.950 . S
H930 C960 0.950 . S
H931 C961 0.950 . S
C932 H914 0.951 . S
C932 C933 1.366 . S
C932 C934 1.388 . S
C933 C932 1.366 . S
C933 C937 1.385 . S
C934 H915 0.951 . S
C934 C932 1.388 . S
C934 C935 1.366 . S
C935 C934 1.366 . S
C935 C936 1.414 . S
C935 C938 1.499 . S
C936 H916 0.950 . S
C936 C935 1.414 . S
C936 C937 1.374 . S
C937 H917 0.950 . S
C937 C933 1.385 . S
C937 C936 1.374 . S
C938 C935 1.499 . S
C938 C939 1.373 . S
C938 C940 1.389 . S
C939 H918 0.950 . S
C939 C938 1.373 . S
C939 C955 1.377 . S
C940 C938 1.389 . S
C940 C941 1.524 . S
C940 C954 1.377 . S
C941 C940 1.524 . S
C941 C942 1.397 . S
C941 C946 1.363 . S
C942 H919 0.950 . S
C942 C941 1.397 . S
C942 C943 1.334 . S
C943 H920 0.950 . S
C943 C942 1.334 . S
C943 C944 1.287 . S
C944 C943 1.287 . S
C944 C945 1.524 . S
C944 H963 0.913 . S
C945 H921 0.950 . S
C945 C944 1.524 . S
C945 C946 1.415 . S
C946 H922 0.950 . S
C946 C941 1.363 . S
C946 C945 1.415 . S
C947 H923 0.951 . S
C947 C948 1.366 . S
C947 C949 1.388 . S
C948 C947 1.366 . S
C948 C952 1.385 . S
C949 H924 0.951 . S
C949 C947 1.388 . S
C949 C950 1.366 . S
C950 C949 1.366 . S
C950 C951 1.414 . S
C950 C953 1.499 . S
C951 H925 0.950 . S
C951 C950 1.414 . S
C951 C952 1.374 . S
C952 H926 0.950 . S
C952 C948 1.385 . S
C952 C951 1.374 . S
C953 C950 1.499 . S
C953 C954 1.373 . S
C953 C955 1.389 . S
C954 H927 0.950 . S
C954 C940 1.377 . S
C954 C953 1.373 . S
C955 C939 1.377 . S
C955 C953 1.389 . S
C955 C956 1.524 . S
C956 C955 1.524 . S
C956 C957 1.397 . S
C956 C961 1.363 . S
C957 H928 0.950 . S
C957 C956 1.397 . S
C957 C958 1.334 . S
C958 H929 0.950 . S
C958 C957 1.334 . S
C958 C959 1.287 . S
C959 C958 1.287 . S
C959 C960 1.524 . S
C959 H962 0.999 . S
C960 H930 0.950 . S
C960 C959 1.524 . S
C960 C961 1.415 . S
C961 H931 0.950 . S
C961 C956 1.363 . S
C961 C960 1.415 . S
H962 C959 0.999 . S
H963 C944 0.913 . S
H964 C982 0.951 . S
H965 C984 0.951 . S
H966 C986 0.950 . S
H967 C987 0.950 . S
H968 C989 0.950 . S
H969 C992 0.950 . S
H970 C993 0.950 . S
H971 C995 0.950 . S
H972 C996 0.950 . S
H973 C997 0.951 . S
H974 C999 0.951 . S
H975 C1001 0.950 . S
H976 C1002 0.950 . S
H977 C1004 0.950 . S
H978 C1007 0.950 . S
H979 C1008 0.950 . S
H980 C1010 0.950 . S
H981 C1011 0.950 . S
C982 H964 0.951 . S
C982 C983 1.366 . S
C982 C984 1.388 . S
C983 C982 1.366 . S
C983 C987 1.385 . S
C984 H965 0.951 . S
C984 C982 1.388 . S
C984 C985 1.366 . S
C985 C984 1.366 . S
C985 C986 1.414 . S
C985 C988 1.499 . S
C986 H966 0.950 . S
C986 C985 1.414 . S
C986 C987 1.374 . S
C987 H967 0.950 . S
C987 C983 1.385 . S
C987 C986 1.374 . S
C988 C985 1.499 . S
C988 C989 1.373 . S
C988 C990 1.389 . S
C989 H968 0.950 . S
C989 C988 1.373 . S
C989 C1005 1.377 . S
C990 C988 1.389 . S
C990 C991 1.524 . S
C990 C1004 1.377 . S
C991 C990 1.524 . S
C991 C992 1.397 . S
C991 C996 1.363 . S
C992 H969 0.950 . S
C992 C991 1.397 . S
C992 C993 1.334 . S
C993 H970 0.950 . S
C993 C992 1.334 . S
C993 C994 1.287 . S
C994 C993 1.287 . S
C994 C995 1.524 . S
C994 H1013 0.913 . S
C995 H971 0.950 . S
C995 C994 1.524 . S
C995 C996 1.415 . S
C996 H972 0.950 . S
C996 C991 1.363 . S
C996 C995 1.415 . S
C997 H973 0.951 . S
C997 C998 1.366 . S
C997 C999 1.388 . S
C998 C997 1.366 . S
C998 C1002 1.385 . S
C999 H974 0.951 . S
C999 C997 1.388 . S
C999 C1000 1.366 . S
C1000 C999 1.366 . S
C1000 C1001 1.414 . S
C1000 C1003 1.499 . S
C1001 H975 0.950 . S
C1001 C1000 1.414 . S
C1001 C1002 1.374 . S
C1002 H976 0.950 . S
C1002 C998 1.385 . S
C1002 C1001 1.374 . S
C1003 C1000 1.499 . S
C1003 C1004 1.373 . S
C1003 C1005 1.389 . S
C1004 H977 0.950 . S
C1004 C990 1.377 . S
C1004 C1003 1.373 . S
C1005 C989 1.377 . S
C1005 C1003 1.389 . S
C1005 C1006 1.524 . S
C1006 C1005 1.524 . S
C1006 C1007 1.397 . S
C1006 C1011 1.363 . S
C1007 H978 0.950 . S
C1007 C1006 1.397 . S
C1007 C1008 1.334 . S
C1008 H979 0.950 . S
C1008 C1007 1.334 . S
C1008 C1009 1.287 . S
C1009 C1008 1.287 . S
C1009 C1010 1.524 . S
C1009 H1012 0.999 . S
C1010 H980 0.950 . S
C1010 C1009 1.524 . S
C1010 C1011 1.415 . S
C1011 H981 0.950 . S
C1011 C1006 1.363 . S
C1011 C1010 1.415 . S
H1012 C1009 0.999 . S
H1013 C994 0.913 . S
H1014 C1032 0.951 . S
H1015 C1034 0.951 . S
H1016 C1036 0.950 . S
H1017 C1037 0.950 . S
H1018 C1039 0.950 . S
H1019 C1042 0.950 . S
H1020 C1043 0.950 . S
H1021 C1045 0.950 . S
H1022 C1046 0.950 . S
H1023 C1047 0.951 . S
H1024 C1049 0.951 . S
H1025 C1051 0.950 . S
H1026 C1052 0.950 . S
H1027 C1054 0.950 . S
H1028 C1057 0.950 . S
H1029 C1058 0.950 . S
H1030 C1060 0.950 . S
H1031 C1061 0.950 . S
C1032 H1014 0.951 . S
C1032 C1033 1.366 . S
C1032 C1034 1.388 . S
C1033 C1032 1.366 . S
C1033 C1037 1.385 . S
C1034 H1015 0.951 . S
C1034 C1032 1.388 . S
C1034 C1035 1.366 . S
C1035 C1034 1.366 . S
C1035 C1036 1.414 . S
C1035 C1038 1.499 . S
C1036 H1016 0.950 . S
C1036 C1035 1.414 . S
C1036 C1037 1.374 . S
C1037 H1017 0.950 . S
C1037 C1033 1.385 . S
C1037 C1036 1.374 . S
C1038 C1035 1.499 . S
C1038 C1039 1.373 . S
C1038 C1040 1.389 . S
C1039 H1018 0.950 . S
C1039 C1038 1.373 . S
C1039 C1055 1.377 . S
C1040 C1038 1.389 . S
C1040 C1041 1.524 . S
C1040 C1054 1.377 . S
C1041 C1040 1.524 . S
C1041 C1042 1.397 . S
C1041 C1046 1.363 . S
C1042 H1019 0.950 . S
C1042 C1041 1.397 . S
C1042 C1043 1.334 . S
C1043 H1020 0.950 . S
C1043 C1042 1.334 . S
C1043 C1044 1.287 . S
C1044 C1043 1.287 . S
C1044 C1045 1.524 . S
C1044 H1063 0.913 . S
C1045 H1021 0.950 . S
C1045 C1044 1.524 . S
C1045 C1046 1.415 . S
C1046 H1022 0.950 . S
C1046 C1041 1.363 . S
C1046 C1045 1.415 . S
C1047 H1023 0.951 . S
C1047 C1048 1.366 . S
C1047 C1049 1.388 . S
C1048 C1047 1.366 . S
C1048 C1052 1.385 . S
C1049 H1024 0.951 . S
C1049 C1047 1.388 . S
C1049 C1050 1.366 . S
C1050 C1049 1.366 . S
C1050 C1051 1.414 . S
C1050 C1053 1.499 . S
C1051 H1025 0.950 . S
C1051 C1050 1.414 . S
C1051 C1052 1.374 . S
C1052 H1026 0.950 . S
C1052 C1048 1.385 . S
C1052 C1051 1.374 . S
C1053 C1050 1.499 . S
C1053 C1054 1.373 . S
C1053 C1055 1.389 . S
C1054 H1027 0.950 . S
C1054 C1040 1.377 . S
C1054 C1053 1.373 . S
C1055 C1039 1.377 . S
C1055 C1053 1.389 . S
C1055 C1056 1.524 . S
C1056 C1055 1.524 . S
C1056 C1057 1.397 . S
C1056 C1061 1.363 . S
C1057 H1028 0.950 . S
C1057 C1056 1.397 . S
C1057 C1058 1.334 . S
C1058 H1029 0.950 . S
C1058 C1057 1.334 . S
C1058 C1059 1.287 . S
C1059 C1058 1.287 . S
C1059 C1060 1.524 . S
C1059 H1062 0.999 . S
C1060 H1030 0.950 . S
C1060 C1059 1.524 . S
C1060 C1061 1.415 . S
C1061 H1031 0.950 . S
C1061 C1056 1.363 . S
C1061 C1060 1.415 . S
H1062 C1059 0.999 . S
H1063 C1044 0.913 . S
H1064 C1082 0.951 . S
H1065 C1084 0.951 . S
H1066 C1086 0.950 . S
H1067 C1087 0.950 . S
H1068 C1089 0.950 . S
H1069 C1092 0.950 . S
H1070 C1093 0.950 . S
H1071 C1095 0.950 . S
H1072 C1096 0.950 . S
H1073 C1097 0.951 . S
H1074 C1099 0.951 . S
H1075 C1101 0.950 . S
H1076 C1102 0.950 . S
H1077 C1104 0.950 . S
H1078 C1107 0.950 . S
H1079 C1108 0.950 1_556 S
H1080 C1110 0.950 . S
H1081 C1111 0.950 . S
C1082 H1064 0.951 . S
C1082 C1083 1.366 . S
C1082 C1084 1.388 . S
C1083 C1082 1.366 . S
C1083 C1087 1.385 . S
C1084 H1065 0.951 . S
C1084 C1082 1.388 . S
C1084 C1085 1.366 . S
C1085 C1084 1.366 . S
C1085 C1086 1.414 . S
C1085 C1088 1.499 . S
C1086 H1066 0.950 . S
C1086 C1085 1.414 . S
C1086 C1087 1.374 . S
C1087 H1067 0.950 . S
C1087 C1083 1.385 . S
C1087 C1086 1.374 . S
C1088 C1085 1.499 . S
C1088 C1089 1.373 . S
C1088 C1090 1.389 . S
C1089 H1068 0.950 . S
C1089 C1088 1.373 . S
C1089 C1105 1.377 . S
C1090 C1088 1.389 . S
C1090 C1091 1.524 . S
C1090 C1104 1.377 . S
C1091 C1090 1.524 . S
C1091 C1092 1.397 . S
C1091 C1096 1.363 . S
C1092 H1069 0.950 . S
C1092 C1091 1.397 . S
C1092 C1093 1.334 . S
C1093 H1070 0.950 . S
C1093 C1092 1.334 . S
C1093 C1094 1.287 . S
C1094 C1093 1.287 . S
C1094 C1095 1.524 . S
C1094 H1113 0.913 . S
C1095 H1071 0.950 . S
C1095 C1094 1.524 . S
C1095 C1096 1.415 . S
C1096 H1072 0.950 . S
C1096 C1091 1.363 . S
C1096 C1095 1.415 . S
C1097 H1073 0.951 . S
C1097 C1098 1.366 . S
C1097 C1099 1.388 . S
C1098 C1097 1.366 . S
C1098 C1102 1.385 . S
C1099 H1074 0.951 . S
C1099 C1097 1.388 . S
C1099 C1100 1.366 . S
C1100 C1099 1.366 . S
C1100 C1101 1.414 . S
C1100 C1103 1.499 . S
C1101 H1075 0.950 . S
C1101 C1100 1.414 . S
C1101 C1102 1.374 . S
C1102 H1076 0.950 . S
C1102 C1098 1.385 . S
C1102 C1101 1.374 . S
C1103 C1100 1.499 . S
C1103 C1104 1.373 . S
C1103 C1105 1.389 . S
C1104 H1077 0.950 . S
C1104 C1090 1.377 . S
C1104 C1103 1.373 . S
C1105 C1089 1.377 . S
C1105 C1103 1.389 . S
C1105 C1106 1.524 . S
C1106 C1105 1.524 . S
C1106 C1107 1.397 . S
C1106 C1111 1.363 . S
C1107 H1078 0.950 . S
C1107 C1106 1.397 . S
C1107 C1108 1.334 . S
C1108 H1079 0.950 1_554 S
C1108 C1107 1.334 . S
C1108 C1109 1.287 . S
C1109 C1108 1.287 . S
C1109 C1110 1.524 . S
C1109 H1112 0.999 1_554 S
C1110 H1080 0.950 . S
C1110 C1109 1.524 . S
C1110 C1111 1.415 . S
C1111 H1081 0.950 . S
C1111 C1106 1.363 . S
C1111 C1110 1.415 . S
H1112 C1109 0.999 1_556 S
H1113 C1094 0.913 . S
H1114 C1132 0.951 . S
H1115 C1134 0.951 . S
H1116 C1136 0.950 . S
H1117 C1137 0.950 . S
H1118 C1139 0.950 . S
H1119 C1142 0.950 . S
H1120 C1143 0.950 . S
H1121 C1145 0.950 . S
H1122 C1146 0.950 . S
H1123 C1147 0.951 . S
H1124 C1149 0.951 . S
H1125 C1151 0.950 . S
H1126 C1152 0.950 . S
H1127 C1154 0.950 . S
H1128 C1157 0.950 . S
H1129 C1158 0.950 . S
H1130 C1160 0.950 . S
H1131 C1161 0.950 . S
C1132 H1114 0.951 . S
C1132 C1133 1.366 . S
C1132 C1134 1.388 . S
C1133 C1132 1.366 . S
C1133 C1137 1.385 . S
C1134 H1115 0.951 . S
C1134 C1132 1.388 . S
C1134 C1135 1.366 . S
C1135 C1134 1.366 . S
C1135 C1136 1.414 . S
C1135 C1138 1.499 . S
C1136 H1116 0.950 . S
C1136 C1135 1.414 . S
C1136 C1137 1.374 . S
C1137 H1117 0.950 . S
C1137 C1133 1.385 . S
C1137 C1136 1.374 . S
C1138 C1135 1.499 . S
C1138 C1139 1.373 . S
C1138 C1140 1.389 . S
C1139 H1118 0.950 . S
C1139 C1138 1.373 . S
C1139 C1155 1.377 . S
C1140 C1138 1.389 . S
C1140 C1141 1.524 . S
C1140 C1154 1.377 . S
C1141 C1140 1.524 . S
C1141 C1142 1.397 . S
C1141 C1146 1.363 . S
C1142 H1119 0.950 . S
C1142 C1141 1.397 . S
C1142 C1143 1.334 . S
C1143 H1120 0.950 . S
C1143 C1142 1.334 . S
C1143 C1144 1.287 . S
C1144 C1143 1.287 . S
C1144 C1145 1.524 . S
C1144 H1163 0.913 . S
C1145 H1121 0.950 . S
C1145 C1144 1.524 . S
C1145 C1146 1.415 . S
C1146 H1122 0.950 . S
C1146 C1141 1.363 . S
C1146 C1145 1.415 . S
C1147 H1123 0.951 . S
C1147 C1148 1.366 . S
C1147 C1149 1.388 . S
C1148 C1147 1.366 . S
C1148 C1152 1.385 . S
C1149 H1124 0.951 . S
C1149 C1147 1.388 . S
C1149 C1150 1.366 . S
C1150 C1149 1.366 . S
C1150 C1151 1.414 . S
C1150 C1153 1.499 . S
C1151 H1125 0.950 . S
C1151 C1150 1.414 . S
C1151 C1152 1.374 . S
C1152 H1126 0.950 . S
C1152 C1148 1.385 . S
C1152 C1151 1.374 . S
C1153 C1150 1.499 . S
C1153 C1154 1.373 . S
C1153 C1155 1.389 . S
C1154 H1127 0.950 . S
C1154 C1140 1.377 . S
C1154 C1153 1.373 . S
C1155 C1139 1.377 . S
C1155 C1153 1.389 . S
C1155 C1156 1.524 . S
C1156 C1155 1.524 . S
C1156 C1157 1.397 . S
C1156 C1161 1.363 . S
C1157 H1128 0.950 . S
C1157 C1156 1.397 . S
C1157 C1158 1.334 . S
C1158 H1129 0.950 . S
C1158 C1157 1.334 . S
C1158 C1159 1.287 . S
C1159 C1158 1.287 . S
C1159 C1160 1.524 . S
C1159 H1162 0.999 . S
C1160 H1130 0.950 . S
C1160 C1159 1.524 . S
C1160 C1161 1.415 . S
C1161 H1131 0.950 . S
C1161 C1156 1.363 . S
C1161 C1160 1.415 . S
H1162 C1159 0.999 . S
H1163 C1144 0.913 . S
H1164 C1182 0.951 . S
H1165 C1184 0.951 . S
H1166 C1186 0.950 . S
H1167 C1187 0.950 . S
H1168 C1189 0.950 . S
H1169 C1192 0.950 . S
H1170 C1193 0.950 . S
H1171 C1195 0.950 . S
H1172 C1196 0.950 . S
H1173 C1197 0.951 . S
H1174 C1199 0.951 . S
H1175 C1201 0.950 . S
H1176 C1202 0.950 . S
H1177 C1204 0.950 . S
H1178 C1207 0.950 . S
H1179 C1208 0.950 . S
H1180 C1210 0.950 . S
H1181 C1211 0.950 . S
C1182 H1164 0.951 . S
C1182 C1183 1.366 . S
C1182 C1184 1.388 . S
C1183 C1182 1.366 . S
C1183 C1187 1.385 . S
C1184 H1165 0.951 . S
C1184 C1182 1.388 . S
C1184 C1185 1.366 . S
C1185 C1184 1.366 . S
C1185 C1186 1.414 . S
C1185 C1188 1.499 . S
C1186 H1166 0.950 . S
C1186 C1185 1.414 . S
C1186 C1187 1.374 . S
C1187 H1167 0.950 . S
C1187 C1183 1.385 . S
C1187 C1186 1.374 . S
C1188 C1185 1.499 . S
C1188 C1189 1.373 . S
C1188 C1190 1.389 . S
C1189 H1168 0.950 . S
C1189 C1188 1.373 . S
C1189 C1205 1.377 . S
C1190 C1188 1.389 . S
C1190 C1191 1.524 . S
C1190 C1204 1.377 . S
C1191 C1190 1.524 . S
C1191 C1192 1.397 . S
C1191 C1196 1.363 . S
C1192 H1169 0.950 . S
C1192 C1191 1.397 . S
C1192 C1193 1.334 . S
C1193 H1170 0.950 . S
C1193 C1192 1.334 . S
C1193 C1194 1.287 . S
C1194 C1193 1.287 . S
C1194 C1195 1.524 . S
C1194 H1213 0.913 . S
C1195 H1171 0.950 . S
C1195 C1194 1.524 . S
C1195 C1196 1.415 . S
C1196 H1172 0.950 . S
C1196 C1191 1.363 . S
C1196 C1195 1.415 . S
C1197 H1173 0.951 . S
C1197 C1198 1.366 . S
C1197 C1199 1.388 . S
C1198 C1197 1.366 . S
C1198 C1202 1.385 . S
C1199 H1174 0.951 . S
C1199 C1197 1.388 . S
C1199 C1200 1.366 . S
C1200 C1199 1.366 . S
C1200 C1201 1.414 . S
C1200 C1203 1.499 . S
C1201 H1175 0.950 . S
C1201 C1200 1.414 . S
C1201 C1202 1.374 . S
C1202 H1176 0.950 . S
C1202 C1198 1.385 . S
C1202 C1201 1.374 . S
C1203 C1200 1.499 . S
C1203 C1204 1.373 . S
C1203 C1205 1.389 . S
C1204 H1177 0.950 . S
C1204 C1190 1.377 . S
C1204 C1203 1.373 . S
C1205 C1189 1.377 . S
C1205 C1203 1.389 . S
C1205 C1206 1.524 . S
C1206 C1205 1.524 . S
C1206 C1207 1.397 . S
C1206 C1211 1.363 . S
C1207 H1178 0.950 . S
C1207 C1206 1.397 . S
C1207 C1208 1.334 . S
C1208 H1179 0.950 . S
C1208 C1207 1.334 . S
C1208 C1209 1.287 . S
C1209 C1208 1.287 . S
C1209 C1210 1.524 . S
C1209 H1212 0.999 . S
C1210 H1180 0.950 . S
C1210 C1209 1.524 . S
C1210 C1211 1.415 . S
C1211 H1181 0.950 . S
C1211 C1206 1.363 . S
C1211 C1210 1.415 . S
H1212 C1209 0.999 . S
H1213 C1194 0.913 . S
H1214 C1232 0.951 . S
H1215 C1234 0.951 . S
H1216 C1236 0.950 . S
H1217 C1237 0.950 . S
H1218 C1239 0.950 . S
H1219 C1242 0.950 . S
H1220 C1243 0.950 . S
H1221 C1245 0.950 . S
H1222 C1246 0.950 . S
H1223 C1247 0.951 . S
H1224 C1249 0.951 . S
H1225 C1251 0.950 . S
H1226 C1252 0.950 . S
H1227 C1254 0.950 . S
H1228 C1257 0.950 . S
H1229 C1258 0.950 . S
H1230 C1260 0.950 . S
H1231 C1261 0.950 . S
C1232 H1214 0.951 . S
C1232 C1233 1.366 . S
C1232 C1234 1.388 . S
C1233 C1232 1.366 . S
C1233 C1237 1.385 . S
C1234 H1215 0.951 . S
C1234 C1232 1.388 . S
C1234 C1235 1.366 . S
C1235 C1234 1.366 . S
C1235 C1236 1.414 . S
C1235 C1238 1.499 . S
C1236 H1216 0.950 . S
C1236 C1235 1.414 . S
C1236 C1237 1.374 . S
C1237 H1217 0.950 . S
C1237 C1233 1.385 . S
C1237 C1236 1.374 . S
C1238 C1235 1.499 . S
C1238 C1239 1.373 . S
C1238 C1240 1.389 . S
C1239 H1218 0.950 . S
C1239 C1238 1.373 . S
C1239 C1255 1.377 . S
C1240 C1238 1.389 . S
C1240 C1241 1.524 . S
C1240 C1254 1.377 . S
C1241 C1240 1.524 . S
C1241 C1242 1.397 . S
C1241 C1246 1.363 . S
C1242 H1219 0.950 . S
C1242 C1241 1.397 . S
C1242 C1243 1.334 . S
C1243 H1220 0.950 . S
C1243 C1242 1.334 . S
C1243 C1244 1.287 . S
C1244 C1243 1.287 . S
C1244 C1245 1.524 . S
C1244 H1263 0.913 . S
C1245 H1221 0.950 . S
C1245 C1244 1.524 . S
C1245 C1246 1.415 . S
C1246 H1222 0.950 . S
C1246 C1241 1.363 . S
C1246 C1245 1.415 . S
C1247 H1223 0.951 . S
C1247 C1248 1.366 . S
C1247 C1249 1.388 . S
C1248 C1247 1.366 . S
C1248 C1252 1.385 . S
C1249 H1224 0.951 . S
C1249 C1247 1.388 . S
C1249 C1250 1.366 . S
C1250 C1249 1.366 . S
C1250 C1251 1.414 . S
C1250 C1253 1.499 . S
C1251 H1225 0.950 . S
C1251 C1250 1.414 . S
C1251 C1252 1.374 . S
C1252 H1226 0.950 . S
C1252 C1248 1.385 . S
C1252 C1251 1.374 . S
C1253 C1250 1.499 . S
C1253 C1254 1.373 . S
C1253 C1255 1.389 . S
C1254 H1227 0.950 . S
C1254 C1240 1.377 . S
C1254 C1253 1.373 . S
C1255 C1239 1.377 . S
C1255 C1253 1.389 . S
C1255 C1256 1.524 . S
C1256 C1255 1.524 . S
C1256 C1257 1.397 . S
C1256 C1261 1.363 . S
C1257 H1228 0.950 . S
C1257 C1256 1.397 . S
C1257 C1258 1.334 . S
C1258 H1229 0.950 . S
C1258 C1257 1.334 . S
C1258 C1259 1.287 . S
C1259 C1258 1.287 . S
C1259 C1260 1.524 . S
C1259 H1262 0.999 . S
C1260 H1230 0.950 . S
C1260 C1259 1.524 . S
C1260 C1261 1.415 . S
C1261 H1231 0.950 . S
C1261 C1256 1.363 . S
C1261 C1260 1.415 . S
H1262 C1259 0.999 . S
H1263 C1244 0.913 . S
H1264 C1282 0.951 . S
H1265 C1284 0.951 . S
H1266 C1286 0.950 . S
H1267 C1287 0.950 . S
H1268 C1289 0.950 . S
H1269 C1292 0.950 . S
H1270 C1293 0.950 . S
H1271 C1295 0.950 . S
H1272 C1296 0.950 . S
H1273 C1297 0.951 1_554 S
H1274 C1299 0.951 . S
H1275 C1301 0.950 . S
H1276 C1302 0.950 . S
H1277 C1304 0.950 . S
H1278 C1307 0.950 . S
H1279 C1308 0.950 . S
H1280 C1310 0.950 1_554 S
H1281 C1311 0.950 . S
C1282 H1264 0.951 . S
C1282 C1283 1.366 . S
C1282 C1284 1.388 . S
C1283 C1282 1.366 . S
C1283 C1287 1.385 . S
C1284 H1265 0.951 . S
C1284 C1282 1.388 . S
C1284 C1285 1.366 . S
C1285 C1284 1.366 . S
C1285 C1286 1.414 . S
C1285 C1288 1.499 . S
C1286 H1266 0.950 . S
C1286 C1285 1.414 . S
C1286 C1287 1.374 . S
C1287 H1267 0.950 . S
C1287 C1283 1.385 . S
C1287 C1286 1.374 . S
C1288 C1285 1.499 . S
C1288 C1289 1.373 . S
C1288 C1290 1.389 . S
C1289 H1268 0.950 . S
C1289 C1288 1.373 . S
C1289 C1305 1.377 . S
C1290 C1288 1.389 . S
C1290 C1291 1.524 . S
C1290 C1304 1.377 . S
C1291 C1290 1.524 . S
C1291 C1292 1.397 . S
C1291 C1296 1.363 . S
C1292 H1269 0.950 . S
C1292 C1291 1.397 . S
C1292 C1293 1.334 . S
C1293 H1270 0.950 . S
C1293 C1292 1.334 . S
C1293 C1294 1.287 . S
C1294 C1293 1.287 . S
C1294 C1295 1.524 . S
C1294 H1313 0.913 . S
C1295 H1271 0.950 . S
C1295 C1294 1.524 . S
C1295 C1296 1.415 . S
C1296 H1272 0.950 . S
C1296 C1291 1.363 . S
C1296 C1295 1.415 . S
C1297 H1273 0.951 1_556 S
C1297 C1298 1.366 . S
C1297 C1299 1.388 . S
C1298 C1297 1.366 . S
C1298 C1302 1.385 . S
C1299 H1274 0.951 . S
C1299 C1297 1.388 . S
C1299 C1300 1.366 . S
C1300 C1299 1.366 . S
C1300 C1301 1.414 . S
C1300 C1303 1.499 . S
C1301 H1275 0.950 . S
C1301 C1300 1.414 . S
C1301 C1302 1.374 . S
C1302 H1276 0.950 . S
C1302 C1298 1.385 . S
C1302 C1301 1.374 . S
C1303 C1300 1.499 . S
C1303 C1304 1.373 . S
C1303 C1305 1.389 . S
C1304 H1277 0.950 . S
C1304 C1290 1.377 . S
C1304 C1303 1.373 . S
C1305 C1289 1.377 . S
C1305 C1303 1.389 . S
C1305 C1306 1.524 . S
C1306 C1305 1.524 . S
C1306 C1307 1.397 . S
C1306 C1311 1.363 . S
C1307 H1278 0.950 . S
C1307 C1306 1.397 . S
C1307 C1308 1.334 . S
C1308 H1279 0.950 . S
C1308 C1307 1.334 . S
C1308 C1309 1.287 . S
C1309 C1308 1.287 . S
C1309 C1310 1.524 . S
C1309 H1312 0.999 1_556 S
C1310 H1280 0.950 1_556 S
C1310 C1309 1.524 . S
C1310 C1311 1.415 . S
C1311 H1281 0.950 . S
C1311 C1306 1.363 . S
C1311 C1310 1.415 . S
H1312 C1309 0.999 1_554 S
H1313 C1294 0.913 . S
H1314 C1332 0.951 . S
H1315 C1334 0.951 . S
H1316 C1336 0.950 . S
H1317 C1337 0.950 . S
H1318 C1339 0.950 . S
H1319 C1342 0.950 . S
H1320 C1343 0.950 . S
H1321 C1345 0.950 . S
H1322 C1346 0.950 . S
H1323 C1347 0.951 . S
H1324 C1349 0.951 . S
H1325 C1351 0.950 . S
H1326 C1352 0.950 . S
H1327 C1354 0.950 1_545 S
H1328 C1357 0.950 . S
H1329 C1358 0.938 1_545 S
H1330 C1360 0.950 . S
H1331 C1361 0.950 . S
C1332 H1314 0.951 . S
C1332 C1333 1.366 . S
C1332 C1334 1.388 . S
C1333 C1332 1.366 . S
C1333 C1337 1.385 . S
C1334 H1315 0.951 . S
C1334 C1332 1.388 . S
C1334 C1335 1.366 . S
C1335 C1334 1.366 . S
C1335 C1336 1.414 . S
C1335 C1338 1.499 . S
C1336 H1316 0.950 . S
C1336 C1335 1.414 . S
C1336 C1337 1.374 . S
C1337 H1317 0.950 . S
C1337 C1333 1.385 . S
C1337 C1336 1.374 . S
C1338 C1335 1.499 . S
C1338 C1339 1.373 . S
C1338 C1340 1.389 . S
C1339 H1318 0.950 . S
C1339 C1338 1.373 . S
C1339 C1355 1.377 . S
C1340 C1338 1.389 . S
C1340 C1341 1.524 . S
C1340 C1354 1.377 . S
C1341 C1340 1.524 . S
C1341 C1342 1.397 . S
C1341 C1346 1.363 . S
C1342 H1319 0.950 . S
C1342 C1341 1.397 . S
C1342 C1343 1.334 . S
C1343 H1320 0.950 . S
C1343 C1342 1.334 . S
C1343 C1344 1.287 . S
C1344 C1343 1.287 . S
C1344 C1345 1.524 . S
C1344 H1363 0.913 . S
C1345 H1321 0.950 . S
C1345 C1344 1.524 . S
C1345 C1346 1.415 . S
C1346 H1322 0.950 . S
C1346 C1341 1.363 . S
C1346 C1345 1.415 . S
C1347 H1323 0.951 . S
C1347 C1348 1.366 . S
C1347 C1349 1.388 . S
C1348 C1347 1.366 . S
C1348 C1352 1.385 . S
C1349 H1324 0.951 . S
C1349 C1347 1.388 . S
C1349 C1350 1.366 . S
C1350 C1349 1.366 . S
C1350 C1351 1.414 . S
C1350 C1353 1.499 1_545 S
C1351 H1325 0.950 . S
C1351 C1350 1.414 . S
C1351 C1352 1.374 . S
C1352 H1326 0.950 . S
C1352 C1348 1.385 . S
C1352 C1351 1.374 . S
C1353 C1350 1.499 1_565 S
C1353 C1354 1.373 . S
C1353 C1355 1.389 . S
C1354 H1327 0.950 1_565 S
C1354 C1340 1.377 . S
C1354 C1353 1.373 . S
C1355 C1339 1.377 . S
C1355 C1353 1.389 . S
C1355 C1356 1.524 . S
C1356 C1355 1.524 . S
C1356 C1357 1.397 . S
C1356 C1361 1.363 . S
C1357 H1328 0.950 . S
C1357 C1356 1.397 . S
C1357 C1358 1.334 . S
C1358 H1329 0.938 1_565 S
C1358 C1357 1.334 . S
C1358 C1359 1.287 . S
C1359 C1358 1.287 . S
C1359 C1360 1.524 . S
C1359 H1362 0.999 . S
C1360 H1330 0.950 . S
C1360 C1359 1.524 . S
C1360 C1361 1.415 . S
C1361 H1331 0.950 . S
C1361 C1356 1.363 . S
C1361 C1360 1.415 . S
H1362 C1359 0.999 . S
H1363 C1344 0.913 . S
H1364 C1382 0.951 . S
H1365 C1384 0.951 . S
H1366 C1386 0.950 . S
H1367 C1387 0.950 . S
H1368 C1389 0.950 . S
H1369 C1392 0.950 . S
H1370 C1393 0.950 . S
H1371 C1395 0.950 . S
H1372 C1396 0.950 . S
H1373 C1397 0.951 . S
H1374 C1399 0.951 . S
H1375 C1401 0.950 . S
H1376 C1402 0.950 . S
H1377 C1404 0.950 . S
H1378 C1407 0.950 . S
H1379 C1408 0.950 . S
H1380 C1410 0.950 . S
H1381 C1411 0.950 . S
C1382 H1364 0.951 . S
C1382 C1383 1.366 . S
C1382 C1384 1.388 . S
C1383 C1382 1.366 . S
C1383 C1387 1.385 . S
C1384 H1365 0.951 . S
C1384 C1382 1.388 . S
C1384 C1385 1.366 . S
C1385 C1384 1.366 . S
C1385 C1386 1.414 . S
C1385 C1388 1.499 . S
C1386 H1366 0.950 . S
C1386 C1385 1.414 . S
C1386 C1387 1.374 . S
C1387 H1367 0.950 . S
C1387 C1383 1.385 . S
C1387 C1386 1.374 . S
C1388 C1385 1.499 . S
C1388 C1389 1.373 . S
C1388 C1390 1.389 . S
C1389 H1368 0.950 . S
C1389 C1388 1.373 . S
C1389 C1405 1.377 . S
C1390 C1388 1.389 . S
C1390 C1391 1.524 . S
C1390 C1404 1.377 . S
C1391 C1390 1.524 . S
C1391 C1392 1.397 . S
C1391 C1396 1.363 . S
C1392 H1369 0.950 . S
C1392 C1391 1.397 . S
C1392 C1393 1.334 . S
C1393 H1370 0.950 . S
C1393 C1392 1.334 . S
C1393 C1394 1.287 . S
C1394 C1393 1.287 . S
C1394 C1395 1.524 . S
C1394 H1413 0.913 . S
C1395 H1371 0.950 . S
C1395 C1394 1.524 . S
C1395 C1396 1.415 . S
C1396 H1372 0.950 . S
C1396 C1391 1.363 . S
C1396 C1395 1.415 . S
C1397 H1373 0.951 . S
C1397 C1398 1.366 . S
C1397 C1399 1.388 . S
C1398 C1397 1.366 . S
C1398 C1402 1.385 . S
C1399 H1374 0.951 . S
C1399 C1397 1.388 . S
C1399 C1400 1.366 . S
C1400 C1399 1.366 . S
C1400 C1401 1.414 . S
C1400 C1403 1.499 . S
C1401 H1375 0.950 . S
C1401 C1400 1.414 . S
C1401 C1402 1.374 . S
C1402 H1376 0.950 . S
C1402 C1398 1.385 . S
C1402 C1401 1.374 . S
C1403 C1400 1.499 . S
C1403 C1404 1.373 . S
C1403 C1405 1.389 . S
C1404 H1377 0.950 . S
C1404 C1390 1.377 . S
C1404 C1403 1.373 . S
C1405 C1389 1.377 . S
C1405 C1403 1.389 . S
C1405 C1406 1.524 . S
C1406 C1405 1.524 . S
C1406 C1407 1.397 . S
C1406 C1411 1.363 . S
C1407 H1378 0.950 . S
C1407 C1406 1.397 . S
C1407 C1408 1.334 . S
C1408 H1379 0.950 . S
C1408 C1407 1.334 . S
C1408 C1409 1.287 . S
C1409 C1408 1.287 . S
C1409 C1410 1.524 . S
C1409 H1412 0.999 . S
C1410 H1380 0.950 . S
C1410 C1409 1.524 . S
C1410 C1411 1.415 . S
C1411 H1381 0.950 . S
C1411 C1406 1.363 . S
C1411 C1410 1.415 . S
H1412 C1409 0.999 . S
H1413 C1394 0.913 . S
C248 C105 1.833 . S
C233 C5 1.806 . S
C298 C118 1.395 . S
C283 C16 1.307 . S
C348 C100 1.693 . S
C333 C30 1.769 . S
C398 C128 1.639 . S
C383 C40 1.699 . S
C448 C139 1.406 . S
C433 C8 1.480 . S
C498 C160 1.293 . S
C483 C18 1.358 . S
C533 C29 1.723 . S
C548 C189 1.653 . S
C598 C210 1.690 . S
C583 C38 1.531 . S
C648 C149 1.337 . S
C633 C19 1.377 . S
C683 C27 1.418 . S
C698 C170 1.485 . S
C748 C184 1.518 . S
C733 C41 1.619 . S
C798 C205 1.863 . S
C783 C7 1.855 . S
C833 C52 1.662 . S
C848 C126 1.534 . S
C898 C97 1.912 . S
C883 C62 1.946 . S
C933 C74 1.611 . S
C948 C121 1.421 . S
C983 C82 1.307 . S
C998 C107 1.534 . S
C1048 C191 1.786 . S
C1033 C51 1.768 . S
C1098 C212 1.950 . S
C1083 C60 1.753 . S
C1148 C142 1.364 . S
C1133 C71 1.319 . S
C1183 C84 1.490 . S
C1198 C163 1.415 . S
C1248 C181 1.696 . S
C1233 C63 1.774 . S
C1298 C202 1.618 . S
C1283 C73 1.650 . S
C1348 C147 1.472 . S
C1333 C85 1.536 . S
C1383 C49 1.346 . S
C1398 C168 1.474 . S
