# Generated by pormake.
# Topology tbo, (3,4)-cn, num edge types: 1
# Building blocks:
#     Node 0, Type 0, BuildingBlock: OLANEW_clean_sbu_2, # of connection points: 3
#     Node 1, Type 0, BuildingBlock: OLANEW_clean_sbu_2, # of connection points: 3
#     Node 2, Type 0, BuildingBlock: OLANEW_clean_sbu_2, # of connection points: 3
#     Node 3, Type 0, BuildingBlock: OLANEW_clean_sbu_2, # of connection points: 3
#     Node 4, Type 0, BuildingBlock: OLANEW_clean_sbu_2, # of connection points: 3
#     Node 5, Type 0, BuildingBlock: OLANEW_clean_sbu_2, # of connection points: 3
#     Node 6, Type 0, BuildingBlock: OLANEW_clean_sbu_2, # of connection points: 3
#     Node 7, Type 0, BuildingBlock: OLANEW_clean_sbu_2, # of connection points: 3
#     Node 8, Type 0, BuildingBlock: OLANEW_clean_sbu_2, # of connection points: 3
#     Node 9, Type 0, BuildingBlock: OLANEW_clean_sbu_2, # of connection points: 3
#     Node 10, Type 0, BuildingBlock: OLANEW_clean_sbu_2, # of connection points: 3
#     Node 11, Type 0, BuildingBlock: OLANEW_clean_sbu_2, # of connection points: 3
#     Node 12, Type 0, BuildingBlock: OLANEW_clean_sbu_2, # of connection points: 3
#     Node 13, Type 0, BuildingBlock: OLANEW_clean_sbu_2, # of connection points: 3
#     Node 14, Type 0, BuildingBlock: OLANEW_clean_sbu_2, # of connection points: 3
#     Node 15, Type 0, BuildingBlock: OLANEW_clean_sbu_2, # of connection points: 3
#     Node 16, Type 0, BuildingBlock: OLANEW_clean_sbu_2, # of connection points: 3
#     Node 17, Type 0, BuildingBlock: OLANEW_clean_sbu_2, # of connection points: 3
#     Node 18, Type 0, BuildingBlock: OLANEW_clean_sbu_2, # of connection points: 3
#     Node 19, Type 0, BuildingBlock: OLANEW_clean_sbu_2, # of connection points: 3
#     Node 20, Type 0, BuildingBlock: OLANEW_clean_sbu_2, # of connection points: 3
#     Node 21, Type 0, BuildingBlock: OLANEW_clean_sbu_2, # of connection points: 3
#     Node 22, Type 0, BuildingBlock: OLANEW_clean_sbu_2, # of connection points: 3
#     Node 23, Type 0, BuildingBlock: OLANEW_clean_sbu_2, # of connection points: 3
#     Node 24, Type 0, BuildingBlock: OLANEW_clean_sbu_2, # of connection points: 3
#     Node 25, Type 0, BuildingBlock: OLANEW_clean_sbu_2, # of connection points: 3
#     Node 26, Type 0, BuildingBlock: OLANEW_clean_sbu_2, # of connection points: 3
#     Node 27, Type 0, BuildingBlock: OLANEW_clean_sbu_2, # of connection points: 3
#     Node 28, Type 0, BuildingBlock: OLANEW_clean_sbu_2, # of connection points: 3
#     Node 29, Type 0, BuildingBlock: OLANEW_clean_sbu_2, # of connection points: 3
#     Node 30, Type 0, BuildingBlock: OLANEW_clean_sbu_2, # of connection points: 3
#     Node 31, Type 0, BuildingBlock: OLANEW_clean_sbu_2, # of connection points: 3
#     Node 32, Type 1, BuildingBlock: MIFKUJ_clean_linker_1, # of connection points: 4
#     Node 33, Type 1, BuildingBlock: MIFKUJ_clean_linker_1, # of connection points: 4
#     Node 34, Type 1, BuildingBlock: MIFKUJ_clean_linker_1, # of connection points: 4
#     Node 35, Type 1, BuildingBlock: MIFKUJ_clean_linker_1, # of connection points: 4
#     Node 36, Type 1, BuildingBlock: MIFKUJ_clean_linker_1, # of connection points: 4
#     Node 37, Type 1, BuildingBlock: MIFKUJ_clean_linker_1, # of connection points: 4
#     Node 38, Type 1, BuildingBlock: MIFKUJ_clean_linker_1, # of connection points: 4
#     Node 39, Type 1, BuildingBlock: MIFKUJ_clean_linker_1, # of connection points: 4
#     Node 40, Type 1, BuildingBlock: MIFKUJ_clean_linker_1, # of connection points: 4
#     Node 41, Type 1, BuildingBlock: MIFKUJ_clean_linker_1, # of connection points: 4
#     Node 42, Type 1, BuildingBlock: MIFKUJ_clean_linker_1, # of connection points: 4
#     Node 43, Type 1, BuildingBlock: MIFKUJ_clean_linker_1, # of connection points: 4
#     Node 44, Type 1, BuildingBlock: MIFKUJ_clean_linker_1, # of connection points: 4
#     Node 45, Type 1, BuildingBlock: MIFKUJ_clean_linker_1, # of connection points: 4
#     Node 46, Type 1, BuildingBlock: MIFKUJ_clean_linker_1, # of connection points: 4
#     Node 47, Type 1, BuildingBlock: MIFKUJ_clean_linker_1, # of connection points: 4
#     Node 48, Type 1, BuildingBlock: MIFKUJ_clean_linker_1, # of connection points: 4
#     Node 49, Type 1, BuildingBlock: MIFKUJ_clean_linker_1, # of connection points: 4
#     Node 50, Type 1, BuildingBlock: MIFKUJ_clean_linker_1, # of connection points: 4
#     Node 51, Type 1, BuildingBlock: MIFKUJ_clean_linker_1, # of connection points: 4
#     Node 52, Type 1, BuildingBlock: MIFKUJ_clean_linker_1, # of connection points: 4
#     Node 53, Type 1, BuildingBlock: MIFKUJ_clean_linker_1, # of connection points: 4
#     Node 54, Type 1, BuildingBlock: MIFKUJ_clean_linker_1, # of connection points: 4
#     Node 55, Type 1, BuildingBlock: MIFKUJ_clean_linker_1, # of connection points: 4
#     Edge 56, Type (0, 1), None
#     Edge 57, Type (0, 1), None
#     Edge 58, Type (0, 1), None
#     Edge 59, Type (0, 1), None
#     Edge 60, Type (0, 1), None
#     Edge 61, Type (0, 1), None
#     Edge 62, Type (0, 1), None
#     Edge 63, Type (0, 1), None
#     Edge 64, Type (0, 1), None
#     Edge 65, Type (0, 1), None
#     Edge 66, Type (0, 1), None
#     Edge 67, Type (0, 1), None
#     Edge 68, Type (0, 1), None
#     Edge 69, Type (0, 1), None
#     Edge 70, Type (0, 1), None
#     Edge 71, Type (0, 1), None
#     Edge 72, Type (0, 1), None
#     Edge 73, Type (0, 1), None
#     Edge 74, Type (0, 1), None
#     Edge 75, Type (0, 1), None
#     Edge 76, Type (0, 1), None
#     Edge 77, Type (0, 1), None
#     Edge 78, Type (0, 1), None
#     Edge 79, Type (0, 1), None
#     Edge 80, Type (0, 1), None
#     Edge 81, Type (0, 1), None
#     Edge 82, Type (0, 1), None
#     Edge 83, Type (0, 1), None
#     Edge 84, Type (0, 1), None
#     Edge 85, Type (0, 1), None
#     Edge 86, Type (0, 1), None
#     Edge 87, Type (0, 1), None
#     Edge 88, Type (0, 1), None
#     Edge 89, Type (0, 1), None
#     Edge 90, Type (0, 1), None
#     Edge 91, Type (0, 1), None
#     Edge 92, Type (0, 1), None
#     Edge 93, Type (0, 1), None
#     Edge 94, Type (0, 1), None
#     Edge 95, Type (0, 1), None
#     Edge 96, Type (0, 1), None
#     Edge 97, Type (0, 1), None
#     Edge 98, Type (0, 1), None
#     Edge 99, Type (0, 1), None
#     Edge 100, Type (0, 1), None
#     Edge 101, Type (0, 1), None
#     Edge 102, Type (0, 1), None
#     Edge 103, Type (0, 1), None
#     Edge 104, Type (0, 1), None
#     Edge 105, Type (0, 1), None
#     Edge 106, Type (0, 1), None
#     Edge 107, Type (0, 1), None
#     Edge 108, Type (0, 1), None
#     Edge 109, Type (0, 1), None
#     Edge 110, Type (0, 1), None
#     Edge 111, Type (0, 1), None
#     Edge 112, Type (0, 1), None
#     Edge 113, Type (0, 1), None
#     Edge 114, Type (0, 1), None
#     Edge 115, Type (0, 1), None
#     Edge 116, Type (0, 1), None
#     Edge 117, Type (0, 1), None
#     Edge 118, Type (0, 1), None
#     Edge 119, Type (0, 1), None
#     Edge 120, Type (0, 1), None
#     Edge 121, Type (0, 1), None
#     Edge 122, Type (0, 1), None
#     Edge 123, Type (0, 1), None
#     Edge 124, Type (0, 1), None
#     Edge 125, Type (0, 1), None
#     Edge 126, Type (0, 1), None
#     Edge 127, Type (0, 1), None
#     Edge 128, Type (0, 1), None
#     Edge 129, Type (0, 1), None
#     Edge 130, Type (0, 1), None
#     Edge 131, Type (0, 1), None
#     Edge 132, Type (0, 1), None
#     Edge 133, Type (0, 1), None
#     Edge 134, Type (0, 1), None
#     Edge 135, Type (0, 1), None
#     Edge 136, Type (0, 1), None
#     Edge 137, Type (0, 1), None
#     Edge 138, Type (0, 1), None
#     Edge 139, Type (0, 1), None
#     Edge 140, Type (0, 1), None
#     Edge 141, Type (0, 1), None
#     Edge 142, Type (0, 1), None
#     Edge 143, Type (0, 1), None
#     Edge 144, Type (0, 1), None
#     Edge 145, Type (0, 1), None
#     Edge 146, Type (0, 1), None
#     Edge 147, Type (0, 1), None
#     Edge 148, Type (0, 1), None
#     Edge 149, Type (0, 1), None
#     Edge 150, Type (0, 1), None
#     Edge 151, Type (0, 1), None
# Relax obj value: 0.027
# Max RMSD: 0.125
# Mean RMSD: 0.091
data_MOF--net-tbo--node1-OLANEW_clean_sbu_2--node2-MIFKUJ_clean_linker_1--edge1-none
_symmetry_space_group_name_H-M    P1
_symmetry_Int_Tables_number       1
_symmetry_cell_setting            triclinic
loop_
_symmetry_equiv_pos_as_xyz
'x, y, z'
_cell_length_a     49.577094
_cell_length_b     50.905887
_cell_length_c     48.979712
_cell_angle_alpha  98.300203
_cell_angle_beta   87.001578
_cell_angle_gamma 99.692092
loop_
_atom_site_label
_atom_site_type_symbol
_atom_site_fract_x
_atom_site_fract_y
_atom_site_fract_z
_atom_type_partial_charge
O0 O 0.24673 0.18918 0.15786 0.0
Cd1 Cd 0.21956 0.17529 0.19804 0.0
O2 O 0.23259 0.22828 0.15964 0.0
Cd3 Cd 0.1984 0.2228 0.1894 0.0
O4 O 0.1586 0.23377 0.20368 0.0
C5 C 0.14328 0.23839 0.18546 0.0
O6 O 0.15158 0.23526 0.15944 0.0
C7 C 0.24814 0.21176 0.14915 0.0
C8 C 0.23763 0.13163 0.21619 0.0
O9 O 0.21704 0.12801 0.20052 0.0
O10 O 0.2496 0.15581 0.22337 0.0
O11 O 0.87424 0.20679 0.20032 0.0
Cd12 Cd 0.83327 0.1758 0.18348 0.0
O13 O 0.89902 0.1894 0.16589 0.0
Cd14 Cd 0.86874 0.15285 0.15994 0.0
O15 O 0.84379 0.11944 0.17749 0.0
C16 C 0.8438 0.12129 0.20366 0.0
O17 O 0.8581 0.14266 0.21759 0.0
C18 C 0.89665 0.2075 0.18628 0.0
C19 C 0.81433 0.19313 0.13754 0.0
O20 O 0.80223 0.1969 0.1612 0.0
O21 O 0.83501 0.18085 0.13544 0.0
O22 O 0.87453 0.79673 0.17981 0.0
Cd23 Cd 0.88221 0.81827 0.22724 0.0
O24 O 0.87957 0.83563 0.16409 0.0
Cd25 Cd 0.88272 0.85971 0.20464 0.0
O26 O 0.86361 0.89022 0.23071 0.0
C27 C 0.84251 0.89527 0.22012 0.0
O28 O 0.83467 0.88172 0.19616 0.0
C29 C 0.87515 0.81008 0.1597 0.0
C30 C 0.93429 0.81725 0.24538 0.0
O31 O 0.91485 0.79729 0.24638 0.0
O32 O 0.92925 0.8378 0.23542 0.0
O33 O 0.22004 0.87213 0.215 0.0
Cd34 Cd 0.20181 0.82444 0.21451 0.0
O35 O 0.25985 0.86855 0.23082 0.0
Cd36 Cd 0.24138 0.83069 0.24502 0.0
O37 O 0.20322 0.81728 0.26709 0.0
C38 C 0.1905 0.83666 0.27598 0.0
O39 O 0.2022 0.86122 0.2728 0.0
C40 C 0.24458 0.88245 0.22099 0.0
C41 C 0.2199 0.79608 0.16636 0.0
O42 O 0.23465 0.80143 0.18779 0.0
O43 O 0.19638 0.80357 0.16804 0.0
O44 O 0.24381 0.91779 0.89442 0.0
Cd45 Cd 0.21502 0.89362 0.92776 0.0
O46 O 0.21147 0.89791 0.86663 0.0
Cd47 Cd 0.18442 0.8887 0.83164 0.0
O48 O 0.14676 0.86977 0.81123 0.0
C49 C 0.14449 0.86326 0.78533 0.0
O50 O 0.16591 0.86864 0.7689 0.0
C51 C 0.2335 0.91459 0.87074 0.0
C52 C 0.23793 0.85668 0.9519 0.0
O53 O 0.22494 0.84944 0.92938 0.0
O54 O 0.24076 0.88153 0.96241 0.0
O55 O 0.24552 0.20158 0.88554 0.0
Cd56 Cd 0.21674 0.18401 0.84597 0.0
O57 O 0.21243 0.18769 0.91452 0.0
Cd58 Cd 0.18158 0.17703 0.8833 0.0
O59 O 0.15003 0.18713 0.85954 0.0
C60 C 0.13544 0.20345 0.8724 0.0
O61 O 0.13959 0.21184 0.89873 0.0
C62 C 0.23702 0.19843 0.91 0.0
C63 C 0.23193 0.1353 0.82342 0.0
O64 O 0.23963 0.15631 0.81163 0.0
O65 O 0.21649 0.13715 0.84516 0.0
O66 O 0.84306 0.29522 0.89194 0.0
Cd67 Cd 0.85866 0.29987 0.84482 0.0
O68 O 0.84251 0.25232 0.87898 0.0
Cd69 Cd 0.83753 0.20922 0.88063 0.0
O70 O 0.83062 0.16695 0.86316 0.0
C71 C 0.80683 0.15646 0.85492 0.0
O72 O 0.7871 0.17102 0.85874 0.0
C73 C 0.8386 0.27136 0.89783 0.0
C74 C 0.91097 0.28676 0.83663 0.0
O75 O 0.90725 0.31105 0.84446 0.0
O76 O 0.88982 0.26855 0.83234 0.0
O77 O 0.88041 0.85057 0.79942 0.0
Cd78 Cd 0.84446 0.86627 0.83092 0.0
O79 O 0.89531 0.83404 0.83383 0.0
Cd80 Cd 0.86214 0.83881 0.8641 0.0
O81 O 0.84402 0.8226 0.90092 0.0
C82 C 0.85795 0.80712 0.91007 0.0
O83 O 0.88103 0.80282 0.89713 0.0
C84 C 0.89799 0.8391 0.80907 0.0
C85 C 0.82689 0.91225 0.81812 0.0
O86 O 0.84913 0.91399 0.83093 0.0
O87 O 0.81307 0.88881 0.8111 0.0
O88 O 0.24256 0.69112 0.66155 0.0
Cd89 Cd 0.22223 0.67927 0.70574 0.0
O90 O 0.20802 0.70997 0.65155 0.0
Cd91 Cd 0.18092 0.70638 0.68781 0.0
O92 O 0.14455 0.72233 0.70555 0.0
C93 C 0.13076 0.73084 0.68847 0.0
O94 O 0.13878 0.72861 0.66235 0.0
C95 C 0.2313 0.7031 0.64529 0.0
C96 C 0.24027 0.63459 0.72167 0.0
O97 O 0.21789 0.63197 0.70884 0.0
O98 O 0.25423 0.65825 0.72679 0.0
O99 O 0.86633 0.70983 0.70332 0.0
Cd100 Cd 0.82552 0.67844 0.68658 0.0
O101 O 0.89161 0.6934 0.66878 0.0
Cd102 Cd 0.86157 0.65682 0.66189 0.0
O103 O 0.8366 0.6234 0.67933 0.0
C104 C 0.83661 0.62519 0.70549 0.0
O105 O 0.85099 0.64645 0.71948 0.0
C106 C 0.88887 0.71106 0.68949 0.0
C107 C 0.80557 0.69467 0.64056 0.0
O108 O 0.79377 0.69871 0.66434 0.0
O109 O 0.8265 0.68275 0.63842 0.0
O110 O 0.88361 0.31062 0.67512 0.0
Cd111 Cd 0.89814 0.3334 0.72038 0.0
O112 O 0.88386 0.34848 0.65847 0.0
Cd113 Cd 0.88894 0.37314 0.69857 0.0
O114 O 0.86807 0.40126 0.72612 0.0
C115 C 0.84527 0.40384 0.717 0.0
O116 O 0.83706 0.38948 0.69353 0.0
C117 C 0.88073 0.32294 0.65496 0.0
C118 C 0.94377 0.31404 0.73487 0.0
O119 O 0.91946 0.30153 0.73849 0.0
O120 O 0.94669 0.3362 0.72468 0.0
O121 O 0.21386 0.37572 0.71539 0.0
Cd122 Cd 0.19198 0.32871 0.71047 0.0
O123 O 0.25302 0.3684 0.72973 0.0
Cd124 Cd 0.23512 0.32731 0.73572 0.0
O125 O 0.19994 0.29803 0.74614 0.0
C126 C 0.18849 0.30343 0.7696 0.0
O127 O 0.20026 0.32386 0.78682 0.0
C128 C 0.2385 0.38439 0.72232 0.0
C129 C 0.21116 0.30019 0.6627 0.0
O130 O 0.22431 0.30388 0.68509 0.0
O131 O 0.18874 0.30962 0.66297 0.0
O132 O 0.25671 0.40448 0.37761 0.0
Cd133 Cd 0.22316 0.38147 0.4082 0.0
O134 O 0.22345 0.38977 0.34929 0.0
Cd135 Cd 0.19706 0.38647 0.31434 0.0
O136 O 0.15748 0.37154 0.29592 0.0
C137 C 0.15365 0.3652 0.27021 0.0
O138 O 0.17456 0.36852 0.25272 0.0
C139 C 0.24694 0.4037 0.354 0.0
C140 C 0.2412 0.3467 0.43934 0.0
O141 O 0.23164 0.3381 0.41528 0.0
O142 O 0.24302 0.37189 0.44816 0.0
O143 O 0.25091 0.69064 0.37685 0.0
Cd144 Cd 0.22514 0.67048 0.3359 0.0
O145 O 0.2163 0.71172 0.38768 0.0
Cd146 Cd 0.1896 0.73879 0.40865 0.0
O147 O 0.15377 0.75719 0.40436 0.0
C148 C 0.15614 0.78128 0.39933 0.0
O149 O 0.18058 0.79605 0.39931 0.0
C150 C 0.23917 0.70649 0.39405 0.0
C151 C 0.24394 0.62348 0.31369 0.0
O152 O 0.25069 0.64484 0.30226 0.0
O153 O 0.22803 0.62423 0.33513 0.0
O154 O 0.83178 0.79201 0.39362 0.0
Cd155 Cd 0.84979 0.79787 0.34757 0.0
O156 O 0.83118 0.74901 0.38095 0.0
Cd157 Cd 0.82612 0.70595 0.3832 0.0
O158 O 0.82145 0.66353 0.36607 0.0
C159 C 0.7981 0.65167 0.35776 0.0
O160 O 0.77733 0.66492 0.36129 0.0
C161 C 0.82699 0.76817 0.39955 0.0
C162 C 0.90639 0.8026 0.34797 0.0
O163 O 0.89465 0.82348 0.35185 0.0
O164 O 0.89131 0.77945 0.34346 0.0
O165 O 0.88654 0.34852 0.29267 0.0
Cd166 Cd 0.85044 0.36282 0.32499 0.0
O167 O 0.9021 0.33161 0.32647 0.0
Cd168 Cd 0.86901 0.33547 0.35709 0.0
O169 O 0.85034 0.32063 0.39441 0.0
C170 C 0.86459 0.30645 0.40515 0.0
O171 O 0.88829 0.30256 0.39335 0.0
C172 C 0.90448 0.33716 0.30188 0.0
C173 C 0.83092 0.40871 0.31454 0.0
O174 O 0.85358 0.41067 0.32672 0.0
O175 O 0.81769 0.38511 0.30694 0.0
O176 O 0.74759 0.19473 0.66241 0.0
Cd177 Cd 0.72065 0.18067 0.70267 0.0
O178 O 0.73134 0.23264 0.6632 0.0
Cd179 Cd 0.69699 0.22606 0.69258 0.0
O180 O 0.65634 0.23545 0.70577 0.0
C181 C 0.64112 0.23936 0.68709 0.0
O182 O 0.65008 0.23646 0.66128 0.0
C183 C 0.74791 0.21694 0.65325 0.0
C184 C 0.73877 0.13716 0.72108 0.0
O185 O 0.71803 0.13346 0.70559 0.0
O186 O 0.75091 0.16134 0.7279 0.0
O187 O 0.37071 0.20225 0.69872 0.0
Cd188 Cd 0.32946 0.17129 0.68249 0.0
O189 O 0.3952 0.18529 0.6638 0.0
Cd190 Cd 0.36494 0.14871 0.65781 0.0
O191 O 0.34077 0.11515 0.67582 0.0
C192 C 0.342 0.11695 0.7019 0.0
O193 O 0.35696 0.13823 0.71527 0.0
C194 C 0.39297 0.20319 0.68443 0.0
C195 C 0.30916 0.1892 0.6376 0.0
O196 O 0.29768 0.19279 0.6616 0.0
O197 O 0.32979 0.17684 0.63471 0.0
O198 O 0.37986 0.82492 0.65828 0.0
Cd199 Cd 0.39838 0.85136 0.7008 0.0
O200 O 0.34055 0.8117 0.67927 0.0
Cd201 Cd 0.3505 0.83695 0.71833 0.0
O202 O 0.34011 0.87401 0.74109 0.0
C203 C 0.32379 0.88397 0.72793 0.0
O204 O 0.31573 0.8713 0.70369 0.0
C205 C 0.35582 0.81135 0.6576 0.0
C206 C 0.44048 0.83021 0.72071 0.0
O207 O 0.41533 0.82023 0.72471 0.0
O208 O 0.44591 0.85028 0.70714 0.0
O209 O 0.71455 0.8796 0.71876 0.0
Cd210 Cd 0.69288 0.83265 0.71446 0.0
O211 O 0.75348 0.87272 0.73409 0.0
Cd212 Cd 0.73506 0.83229 0.74209 0.0
O213 O 0.6979 0.80843 0.75714 0.0
C214 C 0.68228 0.82325 0.77082 0.0
O215 O 0.69124 0.84922 0.77617 0.0
C216 C 0.7391 0.88843 0.72588 0.0
C217 C 0.71073 0.80396 0.66642 0.0
O218 O 0.72467 0.80789 0.68835 0.0
O219 O 0.6882 0.8133 0.66738 0.0
O220 O 0.74494 0.91148 0.38562 0.0
Cd221 Cd 0.71275 0.88619 0.41557 0.0
O222 O 0.71248 0.89525 0.35673 0.0
Cd223 Cd 0.68629 0.89059 0.32143 0.0
O224 O 0.64796 0.87361 0.3014 0.0
C225 C 0.64557 0.86642 0.2756 0.0
O226 O 0.66722 0.87015 0.2591 0.0
C227 C 0.73523 0.91046 0.36194 0.0
C228 C 0.73319 0.85117 0.44456 0.0
O229 O 0.7233 0.84298 0.42058 0.0
O230 O 0.73418 0.87607 0.4543 0.0
O231 O 0.74258 0.1996 0.39004 0.0
Cd232 Cd 0.71297 0.17998 0.35156 0.0
O233 O 0.70827 0.19328 0.42009 0.0
Cd234 Cd 0.67704 0.18322 0.38918 0.0
O235 O 0.64538 0.19453 0.36641 0.0
C236 C 0.64463 0.21961 0.36932 0.0
O237 O 0.66268 0.23607 0.38502 0.0
C238 C 0.73362 0.2005 0.41491 0.0
C239 C 0.73071 0.13286 0.3274 0.0
O240 O 0.73635 0.1542 0.31579 0.0
O241 O 0.7162 0.13364 0.34982 0.0
O242 O 0.33708 0.28628 0.39087 0.0
Cd243 Cd 0.35329 0.28936 0.34367 0.0
O244 O 0.33543 0.24311 0.37896 0.0
Cd245 Cd 0.32947 0.2002 0.38166 0.0
O246 O 0.32353 0.15829 0.36305 0.0
C247 C 0.30041 0.14796 0.35302 0.0
O248 O 0.28053 0.16236 0.35587 0.0
C249 C 0.33195 0.26266 0.39736 0.0
C250 C 0.40699 0.27973 0.33789 0.0
O251 O 0.40144 0.30353 0.34491 0.0
O252 O 0.38699 0.26028 0.33328 0.0
O253 O 0.38012 0.84329 0.28983 0.0
Cd254 Cd 0.34404 0.85895 0.32122 0.0
O255 O 0.39771 0.83128 0.32555 0.0
Cd256 Cd 0.36562 0.83801 0.35662 0.0
O257 O 0.34524 0.82639 0.3946 0.0
C258 C 0.35953 0.81562 0.40927 0.0
O259 O 0.38479 0.81336 0.40103 0.0
C260 C 0.39892 0.83385 0.30004 0.0
C261 C 0.32652 0.90525 0.30921 0.0
O262 O 0.34868 0.90679 0.32212 0.0
O263 O 0.31282 0.88186 0.30165 0.0
O264 O 0.74211 0.68844 0.16385 0.0
Cd265 Cd 0.7157 0.67491 0.2046 0.0
O266 O 0.72904 0.72818 0.16762 0.0
Cd267 Cd 0.69532 0.722 0.19768 0.0
O268 O 0.65508 0.73267 0.21026 0.0
C269 C 0.64075 0.73737 0.19125 0.0
O270 O 0.65033 0.73448 0.16566 0.0
C271 C 0.74386 0.71144 0.156 0.0
C272 C 0.7345 0.63194 0.22331 0.0
O273 O 0.71369 0.62787 0.20789 0.0
O274 O 0.74637 0.65625 0.22995 0.0
O275 O 0.37397 0.69802 0.19327 0.0
Cd276 Cd 0.33479 0.66555 0.17453 0.0
O277 O 0.40009 0.68481 0.1579 0.0
Cd278 Cd 0.3724 0.64671 0.14949 0.0
O279 O 0.35088 0.61132 0.1664 0.0
C280 C 0.35271 0.61251 0.19236 0.0
O281 O 0.36665 0.63421 0.2061 0.0
C282 C 0.39644 0.70126 0.1794 0.0
C283 C 0.31441 0.68485 0.13058 0.0
O284 O 0.30228 0.68663 0.15437 0.0
O285 O 0.33576 0.67353 0.1274 0.0
O286 O 0.37519 0.30095 0.17478 0.0
Cd287 Cd 0.38521 0.32254 0.22167 0.0
O288 O 0.39923 0.33382 0.15493 0.0
Cd289 Cd 0.4056 0.35909 0.19446 0.0
O290 O 0.38468 0.38749 0.22132 0.0
C291 C 0.36133 0.38881 0.21258 0.0
O292 O 0.35269 0.37301 0.19003 0.0
C293 C 0.3845 0.31069 0.15307 0.0
C294 C 0.43348 0.30913 0.23769 0.0
O295 O 0.41052 0.29346 0.23938 0.0
O296 O 0.4337 0.3316 0.22872 0.0
O297 O 0.71727 0.37478 0.21731 0.0
Cd298 Cd 0.69724 0.32729 0.21171 0.0
O299 O 0.75655 0.36871 0.23251 0.0
Cd300 Cd 0.73893 0.32788 0.2398 0.0
O301 O 0.70227 0.30343 0.25512 0.0
C302 C 0.68622 0.31796 0.26851 0.0
O303 O 0.69436 0.34412 0.27311 0.0
C304 C 0.74166 0.38414 0.22464 0.0
C305 C 0.71717 0.30055 0.16349 0.0
O306 O 0.73055 0.30435 0.18577 0.0
O307 O 0.6942 0.30904 0.16417 0.0
O308 O 0.74667 0.40918 0.88229 0.0
Cd309 Cd 0.7161 0.38123 0.91126 0.0
O310 O 0.71426 0.3927 0.85338 0.0
Cd311 Cd 0.68765 0.38877 0.8185 0.0
O312 O 0.64912 0.37263 0.79845 0.0
C313 C 0.64649 0.36573 0.77263 0.0
O314 O 0.66808 0.36926 0.75601 0.0
C315 C 0.73648 0.40868 0.85894 0.0
C316 C 0.73947 0.34871 0.94094 0.0
O317 O 0.73052 0.33979 0.9167 0.0
O318 O 0.73817 0.37326 0.95063 0.0
O319 O 0.73332 0.69867 0.89363 0.0
Cd320 Cd 0.70282 0.67848 0.85601 0.0
O321 O 0.69891 0.70437 0.92292 0.0
Cd322 Cd 0.66793 0.69646 0.89154 0.0
O323 O 0.63629 0.70654 0.8675 0.0
C324 C 0.6334 0.73115 0.87124 0.0
O325 O 0.64932 0.74811 0.8887 0.0
C326 C 0.72448 0.7053 0.91806 0.0
C327 C 0.72181 0.63224 0.83079 0.0
O328 O 0.72626 0.65371 0.81934 0.0
O329 O 0.70785 0.63243 0.85354 0.0
O330 O 0.33108 0.79009 0.88664 0.0
Cd331 Cd 0.34403 0.79262 0.83847 0.0
O332 O 0.33229 0.7472 0.87587 0.0
Cd333 Cd 0.32988 0.70488 0.88034 0.0
O334 O 0.32522 0.66242 0.86366 0.0
C335 C 0.30183 0.65103 0.85504 0.0
O336 O 0.28146 0.66482 0.85822 0.0
C337 C 0.32823 0.76682 0.89393 0.0
C338 C 0.39854 0.78626 0.82958 0.0
O339 O 0.3917 0.8096 0.83615 0.0
O340 O 0.37946 0.76576 0.82692 0.0
O341 O 0.38091 0.34453 0.79017 0.0
Cd342 Cd 0.34515 0.35945 0.82251 0.0
O343 O 0.39771 0.32982 0.82472 0.0
Cd344 Cd 0.36535 0.33444 0.85595 0.0
O345 O 0.34864 0.31922 0.89375 0.0
C346 C 0.36392 0.30564 0.90395 0.0
O347 O 0.38754 0.30259 0.89148 0.0
C348 C 0.39938 0.3341 0.7997 0.0
C349 C 0.32735 0.40621 0.81214 0.0
O350 O 0.34978 0.40743 0.82448 0.0
O351 O 0.31349 0.38294 0.8044 0.0
H352 H 0.25196 0.23278 0.00146 0.0
H353 H 0.22232 0.21648 0.96244 0.0
H354 H 0.29259 0.20139 0.9103 0.0
H355 H 0.32224 0.21614 0.94998 0.0
H356 H 0.28033 0.21205 0.02935 0.0
H357 H 0.30138 0.28388 0.97464 0.0
H358 H 0.31525 0.30516 0.93326 0.0
H359 H 0.39329 0.27762 0.93154 0.0
H360 H 0.37917 0.25631 0.97275 0.0
H361 H 0.3525 0.23345 0.09376 0.0
H362 H 0.37193 0.25648 0.13745 0.0
H363 H 0.37653 0.333 0.10776 0.0
H364 H 0.35532 0.31033 0.06513 0.0
H365 H 0.36433 0.27969 0.02428 0.0
H366 H 0.30125 0.18888 0.07093 0.0
H367 H 0.27382 0.17775 0.11206 0.0
H368 H 0.26495 0.26134 0.13345 0.0
H369 H 0.29251 0.27224 0.09256 0.0
C370 C 0.28943 0.22585 0.97874 0.0
C371 C 0.26106 0.2256 0.98179 0.0
C372 C 0.24412 0.2164 0.95944 0.0
C373 C 0.25524 0.20782 0.93341 0.0
C374 C 0.2836 0.20818 0.93016 0.0
C375 C 0.30053 0.2167 0.95278 0.0
C376 C 0.30707 0.23588 0.00287 0.0
C377 C 0.29881 0.22674 0.02817 0.0
C378 C 0.33083 0.25547 0.00162 0.0
C379 C 0.33915 0.26824 0.97651 0.0
C380 C 0.3214 0.28231 0.96519 0.0
C381 C 0.3294 0.29456 0.94163 0.0
C382 C 0.35535 0.29304 0.92908 0.0
C383 C 0.37314 0.27913 0.94066 0.0
C384 C 0.36515 0.26696 0.96423 0.0
C385 C 0.35179 0.27011 0.07627 0.0
C386 C 0.35745 0.2552 0.0967 0.0
C387 C 0.36881 0.26831 0.12153 0.0
C388 C 0.37566 0.29647 0.12589 0.0
C389 C 0.37164 0.31124 0.10481 0.0
C390 C 0.35953 0.29823 0.08039 0.0
C391 C 0.33688 0.2568 0.0511 0.0
C392 C 0.34599 0.26485 0.02546 0.0
C393 C 0.3127 0.23768 0.05242 0.0
C394 C 0.29905 0.2314 0.07887 0.0
C395 C 0.29374 0.20481 0.08479 0.0
C396 C 0.2781 0.19851 0.10828 0.0
C397 C 0.26706 0.21864 0.12591 0.0
C398 C 0.27302 0.24535 0.12022 0.0
C399 C 0.28892 0.25166 0.09696 0.0
H400 H 0.78618 0.22135 0.96002 0.0
H401 H 0.80622 0.22644 0.91392 0.0
H402 H 0.84785 0.30585 0.94511 0.0
H403 H 0.82728 0.30083 0.99082 0.0
H404 H 0.80896 0.23005 0.01826 0.0
H405 H 0.7506 0.2643 0.9596 0.0
H406 H 0.73841 0.29433 0.92921 0.0
H407 H 0.76256 0.36252 0.99143 0.0
H408 H 0.77528 0.33245 0.02137 0.0
H409 H 0.79006 0.27974 0.10599 0.0
H410 H 0.77039 0.29497 0.15114 0.0
H411 H 0.68976 0.27841 0.1168 0.0
H412 H 0.70939 0.26221 0.07199 0.0
H413 H 0.74306 0.29352 0.04333 0.0
H414 H 0.83334 0.23843 0.06173 0.0
H415 H 0.84697 0.21574 0.09818 0.0
H416 H 0.76229 0.19486 0.12333 0.0
H417 H 0.74834 0.21548 0.08529 0.0
C418 C 0.80531 0.26072 0.9787 0.0
C419 C 0.8003 0.23947 0.95701 0.0
C420 C 0.81187 0.24238 0.9307 0.0
C421 C 0.82879 0.26648 0.92593 0.0
C422 C 0.8348 0.28711 0.94813 0.0
C423 C 0.82324 0.28421 0.97428 0.0
C424 C 0.78914 0.26021 0.00485 0.0
C425 C 0.79437 0.2437 0.02391 0.0
C426 C 0.77011 0.27799 0.01183 0.0
C427 C 0.7639 0.29615 0.99272 0.0
C428 C 0.75374 0.28576 0.96645 0.0
C429 C 0.74672 0.30296 0.94915 0.0
C430 C 0.74944 0.3308 0.95796 0.0
C431 C 0.76015 0.34117 0.98405 0.0
C432 C 0.76731 0.324 0.00124 0.0
C433 C 0.75117 0.26963 0.08567 0.0
C434 C 0.76807 0.27861 0.10838 0.0
C435 C 0.75681 0.28744 0.13413 0.0
C436 C 0.72858 0.28806 0.13736 0.0
C437 C 0.71161 0.27832 0.11483 0.0
C438 C 0.7228 0.26904 0.08926 0.0
C439 C 0.7632 0.2639 0.05754 0.0
C440 C 0.75722 0.27937 0.0379 0.0
C441 C 0.78187 0.2455 0.05052 0.0
C442 C 0.78977 0.22927 0.07095 0.0
C443 C 0.81755 0.22836 0.0745 0.0
C444 C 0.82538 0.21551 0.09545 0.0
C445 C 0.80567 0.20396 0.11371 0.0
C446 C 0.77787 0.20401 0.10971 0.0
C447 C 0.76995 0.21596 0.08808 0.0
H448 H 0.84597 0.81063 0.0717 0.0
H449 H 0.86582 0.83306 0.11493 0.0
H450 H 0.86673 0.7558 0.14145 0.0
H451 H 0.84776 0.73332 0.09737 0.0
H452 H 0.85727 0.77974 0.02937 0.0
H453 H 0.78657 0.7728 0.09958 0.0
H454 H 0.76056 0.76136 0.14114 0.0
H455 H 0.76801 0.6777 0.11715 0.0
H456 H 0.79397 0.6894 0.07538 0.0
H457 H 0.8104 0.71566 0.95614 0.0
H458 H 0.77927 0.70234 0.91754 0.0
H459 H 0.7131 0.72749 0.97051 0.0
H460 H 0.74433 0.74135 0.00857 0.0
H461 H 0.7712 0.71496 0.0355 0.0
H462 H 0.87011 0.75452 0.97704 0.0
H463 H 0.88511 0.77592 0.93608 0.0
H464 H 0.80984 0.80882 0.94002 0.0
H465 H 0.79508 0.78738 0.98114 0.0
C466 C 0.84492 0.77025 0.08138 0.0
C467 C 0.85107 0.79843 0.08646 0.0
C468 C 0.86238 0.81127 0.11132 0.0
C469 C 0.86756 0.79622 0.13182 0.0
C470 C 0.86277 0.76797 0.12617 0.0
C471 C 0.85175 0.75509 0.10105 0.0
C472 C 0.82973 0.75717 0.05632 0.0
C473 C 0.83862 0.76532 0.03069 0.0
C474 C 0.80515 0.73866 0.05794 0.0
C475 C 0.79233 0.73196 0.08456 0.0
C476 C 0.78302 0.75208 0.10354 0.0
C477 C 0.76802 0.74546 0.1272 0.0
C478 C 0.76209 0.71858 0.13236 0.0
C479 C 0.7723 0.69858 0.11379 0.0
C480 C 0.78709 0.7052 0.08993 0.0
C481 C 0.77973 0.7296 0.98524 0.0
C482 C 0.78925 0.71852 0.95932 0.0
C483 C 0.77142 0.71086 0.9373 0.0
C484 C 0.7437 0.71385 0.94097 0.0
C485 C 0.73428 0.72481 0.96699 0.0
C486 C 0.75211 0.73265 0.98884 0.0
C487 C 0.79831 0.73817 0.00881 0.0
C488 C 0.79023 0.72885 0.03405 0.0
C489 C 0.82283 0.75669 0.00714 0.0
C490 C 0.8314 0.76912 0.98189 0.0
C491 C 0.85685 0.7663 0.96901 0.0
C492 C 0.86535 0.77854 0.94559 0.0
C493 C 0.84864 0.79407 0.93477 0.0
C494 C 0.82316 0.79697 0.94782 0.0
C495 C 0.81464 0.78463 0.97121 0.0
H496 H 0.28016 0.71955 0.9606 0.0
H497 H 0.29752 0.72279 0.91321 0.0
H498 H 0.33972 0.80319 0.93953 0.0
H499 H 0.32226 0.79985 0.98667 0.0
H500 H 0.30442 0.72708 0.01463 0.0
H501 H 0.24498 0.76894 0.96318 0.0
H502 H 0.23251 0.80214 0.93667 0.0
H503 H 0.2655 0.86602 0.0 0.0
H504 H 0.27812 0.8328 0.02612 0.0
H505 H 0.29095 0.77523 0.1061 0.0
H506 H 0.27268 0.78952 0.15223 0.0
H507 H 0.191 0.7746 0.12041 0.0
H508 H 0.20929 0.75971 0.0746 0.0
H509 H 0.24375 0.79398 0.04756 0.0
H510 H 0.3314 0.73337 0.05693 0.0
H511 H 0.34589 0.70842 0.09099 0.0
H512 H 0.262 0.68863 0.11927 0.0
H513 H 0.24714 0.71174 0.08362 0.0
C514 C 0.29979 0.75953 0.977 0.0
C515 C 0.29375 0.73755 0.95622 0.0
C516 C 0.30379 0.7394 0.92919 0.0
C517 C 0.32008 0.76321 0.92272 0.0
C518 C 0.32707 0.78466 0.9439 0.0
C519 C 0.3172 0.78276 0.97083 0.0
C520 C 0.28579 0.75951 0.0044 0.0
C521 C 0.29101 0.74153 0.02196 0.0
C522 C 0.26843 0.77847 0.01377 0.0
C523 C 0.26243 0.79842 0.99662 0.0
C524 C 0.24988 0.79013 0.97109 0.0
C525 C 0.24273 0.80913 0.95601 0.0
C526 C 0.2479 0.83672 0.96631 0.0
C527 C 0.26116 0.84495 0.99152 0.0
C528 C 0.2683 0.82598 0.00653 0.0
C529 C 0.25145 0.76633 0.08697 0.0
C530 C 0.26904 0.77429 0.10927 0.0
C531 C 0.25857 0.78254 0.13558 0.0
C532 C 0.23044 0.78343 0.13982 0.0
C533 C 0.21278 0.77431 0.11772 0.0
C534 C 0.22319 0.76577 0.09156 0.0
C535 C 0.2626 0.7619 0.05835 0.0
C536 C 0.25684 0.77915 0.04039 0.0
C537 C 0.27999 0.74273 0.04917 0.0
C538 C 0.28817 0.72506 0.06797 0.0
C539 C 0.31595 0.72309 0.06987 0.0
C540 C 0.32427 0.70893 0.08946 0.0
C541 C 0.30507 0.69699 0.10795 0.0
C542 C 0.27722 0.69804 0.10547 0.0
C543 C 0.26878 0.71141 0.08522 0.0
H544 H 0.06457 0.26907 0.16436 0.0
H545 H 0.10589 0.24931 0.15129 0.0
H546 H 0.12196 0.25109 0.23751 0.0
H547 H 0.08051 0.2706 0.25034 0.0
H548 H 0.01797 0.2522 0.19462 0.0
H549 H 0.09196 0.32676 0.20151 0.0
H550 H 0.1371 0.34992 0.21687 0.0
H551 H 0.10787 0.35158 0.30176 0.0
H552 H 0.06327 0.32793 0.28633 0.0
H553 H 0.98959 0.31064 0.2924 0.0
H554 H 0.95081 0.32438 0.31965 0.0
H555 H 0.9123 0.33377 0.24523 0.0
H556 H 0.95181 0.31974 0.2177 0.0
H557 H 0.02512 0.33807 0.25812 0.0
H558 H 0.95283 0.26095 0.25221 0.0
H559 H 0.9105 0.231 0.23829 0.0
H560 H 0.93688 0.22984 0.15279 0.0
H561 H 0.97836 0.26135 0.16658 0.0
C562 C 0.06969 0.27169 0.20829 0.0
C563 C 0.07691 0.265 0.1804 0.0
C564 C 0.10057 0.25376 0.173 0.0
C565 C 0.11736 0.24878 0.19337 0.0
C566 C 0.10959 0.25475 0.2213 0.0
C567 C 0.08596 0.26602 0.22867 0.0
C568 C 0.04537 0.28488 0.21629 0.0
C569 C 0.01945 0.27129 0.20802 0.0
C570 C 0.04746 0.30972 0.23382 0.0
C571 C 0.07431 0.32535 0.24278 0.0
C572 C 0.09536 0.33209 0.22342 0.0
C573 C 0.1211 0.34542 0.23222 0.0
C574 C 0.12612 0.35249 0.26053 0.0
C575 C 0.10473 0.34643 0.27979 0.0
C576 C 0.07914 0.33298 0.271 0.0
C577 C 0.97358 0.31409 0.25303 0.0
C578 C 0.97293 0.31582 0.28187 0.0
C579 C 0.95061 0.32359 0.29744 0.0
C580 C 0.92837 0.3301 0.28462 0.0
C581 C 0.92916 0.32893 0.25569 0.0
C582 C 0.95162 0.32084 0.23996 0.0
C583 C 0.99749 0.30487 0.2374 0.0
C584 C 0.02351 0.31935 0.24408 0.0
C585 C 0.99534 0.28079 0.2185 0.0
C586 C 0.96864 0.26404 0.21044 0.0
C587 C 0.94912 0.2552 0.23042 0.0
C588 C 0.92499 0.23786 0.22247 0.0
C589 C 0.92046 0.2282 0.19448 0.0
C590 C 0.9399 0.23702 0.17451 0.0
C591 C 0.96361 0.25497 0.1824 0.0
H592 H 0.78994 0.03736 0.2058 0.0
H593 H 0.81227 0.07431 0.18149 0.0
H594 H 0.84223 0.11865 0.25898 0.0
H595 H 0.82032 0.08154 0.28298 0.0
H596 H 0.81306 0.00668 0.23316 0.0
H597 H 0.75156 0.06904 0.25535 0.0
H598 H 0.73418 0.11062 0.27347 0.0
H599 H 0.75211 0.1002 0.3561 0.0
H600 H 0.77175 0.06016 0.33799 0.0
H601 H 0.7865 0.99133 0.34445 0.0
H602 H 0.76915 0.9579 0.37482 0.0
H603 H 0.7317 0.90462 0.30541 0.0
H604 H 0.74842 0.93861 0.2752 0.0
H605 H 0.75336 0.01554 0.31717 0.0
H606 H 0.82819 0.96328 0.29116 0.0
H607 H 0.84985 0.92454 0.27158 0.0
H608 H 0.80277 0.9159 0.19801 0.0
H609 H 0.78159 0.95462 0.21758 0.0
C610 C 0.80325 0.05677 0.24625 0.0
C611 C 0.80122 0.05513 0.21753 0.0
C612 C 0.81397 0.07627 0.20367 0.0
C613 C 0.82907 0.0994 0.21829 0.0
C614 C 0.83072 0.10115 0.24709 0.0
C615 C 0.81806 0.07999 0.2609 0.0
C616 C 0.79145 0.03356 0.26066 0.0
C617 C 0.79968 0.00865 0.25134 0.0
C618 C 0.7742 0.03615 0.2846 0.0
C619 C 0.76346 0.06147 0.29516 0.0
C620 C 0.7525 0.07601 0.27728 0.0
C621 C 0.74229 0.09961 0.28763 0.0
C622 C 0.74174 0.10835 0.31612 0.0
C623 C 0.75211 0.09364 0.33405 0.0
C624 C 0.76325 0.0707 0.32366 0.0
C625 C 0.76856 0.96755 0.30763 0.0
C626 C 0.77468 0.97236 0.33573 0.0
C627 C 0.76484 0.95319 0.35304 0.0
C628 C 0.74841 0.92891 0.34264 0.0
C629 C 0.74347 0.92351 0.31421 0.0
C630 C 0.75339 0.94274 0.29683 0.0
C631 C 0.77622 0.98949 0.29045 0.0
C632 C 0.76682 0.01394 0.29903 0.0
C633 C 0.79242 0.98668 0.26602 0.0
C634 C 0.80329 0.96167 0.25579 0.0
C635 C 0.82232 0.95271 0.271 0.0
C636 C 0.83475 0.9307 0.25973 0.0
C637 C 0.82814 0.91727 0.23318 0.0
C638 C 0.80835 0.9258 0.21849 0.0
C639 C 0.7962 0.94792 0.22961 0.0
H640 H 0.06921 0.76542 0.36392 0.0
H641 H 0.10525 0.75255 0.38862 0.0
H642 H 0.15358 0.83129 0.3861 0.0
H643 H 0.11689 0.84432 0.3621 0.0
H644 H 0.03655 0.80341 0.37093 0.0
H645 H 0.1127 0.7816 0.3052 0.0
H646 H 0.16067 0.78925 0.28882 0.0
H647 H 0.15584 0.87314 0.28775 0.0
H648 H 0.10815 0.86524 0.30381 0.0
H649 H 0.01696 0.8598 0.28369 0.0
H650 H 0.97557 0.85981 0.25824 0.0
H651 H 0.95376 0.774 0.25867 0.0
H652 H 0.99523 0.77414 0.28343 0.0
H653 H 0.06372 0.82621 0.27694 0.0
H654 H 0.99339 0.85249 0.34362 0.0
H655 H 0.9437 0.84864 0.3491 0.0
H656 H 0.93719 0.76253 0.34653 0.0
H657 H 0.98712 0.76672 0.34129 0.0
C658 C 0.09062 0.8056 0.36061 0.0
C659 C 0.08728 0.78013 0.36926 0.0
C660 C 0.10798 0.77278 0.38333 0.0
C661 C 0.13251 0.79075 0.3889 0.0
C662 C 0.13507 0.81688 0.38184 0.0
C663 C 0.11418 0.82432 0.368 0.0
C664 C 0.07037 0.81147 0.34205 0.0
C665 C 0.04263 0.80839 0.35046 0.0
C666 C 0.07811 0.81869 0.3155 0.0
C667 C 0.107 0.8229 0.30567 0.0
C668 C 0.12211 0.80161 0.30144 0.0
C669 C 0.14947 0.80602 0.29215 0.0
C670 C 0.16207 0.83181 0.28708 0.0
C671 C 0.14682 0.85305 0.29157 0.0
C672 C 0.11951 0.84858 0.30059 0.0
C673 C 0.00897 0.817 0.28551 0.0
C674 C 0.00364 0.84093 0.2775 0.0
C675 C 0.97992 0.8409 0.26314 0.0
C676 C 0.96122 0.81695 0.25685 0.0
C677 C 0.96759 0.79281 0.26347 0.0
C678 C 0.99135 0.79282 0.27748 0.0
C679 C 0.03028 0.81744 0.3057 0.0
C680 C 0.05794 0.82162 0.2976 0.0
C681 C 0.02269 0.81183 0.3327 0.0
C682 C 0.99378 0.8099 0.34222 0.0
C683 C 0.98126 0.83291 0.34506 0.0
C684 C 0.95286 0.83063 0.34795 0.0
C685 C 0.93652 0.80523 0.34784 0.0
C686 C 0.94925 0.78235 0.34645 0.0
C687 C 0.97774 0.7847 0.34381 0.0
H688 H 0.22451 0.04363 0.23578 0.0
H689 H 0.20913 0.08111 0.21838 0.0
H690 H 0.28794 0.1301 0.23554 0.0
H691 H 0.30377 0.09217 0.25154 0.0
H692 H 0.25993 0.01366 0.22133 0.0
H693 H 0.24726 0.0752 0.30226 0.0
H694 H 0.25289 0.11848 0.3321 0.0
H695 H 0.33951 0.11675 0.33587 0.0
H696 H 0.33382 0.07384 0.30547 0.0
H697 H 0.34249 0.99332 0.28983 0.0
H698 H 0.35759 0.95394 0.30384 0.0
H699 H 0.27428 0.91191 0.30087 0.0
H700 H 0.25907 0.95183 0.28845 0.0
H701 H 0.3055 0.02632 0.31123 0.0
H702 H 0.31176 0.95797 0.23032 0.0
H703 H 0.29722 0.90934 0.21911 0.0
H704 H 0.21279 0.92133 0.22274 0.0
H705 H 0.2273 0.96952 0.23536 0.0
C706 C 0.26522 0.06506 0.24543 0.0
C707 C 0.23864 0.0623 0.2355 0.0
C708 C 0.22981 0.08379 0.22564 0.0
C709 C 0.24724 0.10862 0.22584 0.0
C710 C 0.27391 0.11131 0.23545 0.0
C711 C 0.28294 0.08964 0.24474 0.0
C712 C 0.27424 0.04229 0.25658 0.0
C713 C 0.26985 0.01655 0.24101 0.0
C714 C 0.28705 0.04572 0.2824 0.0
C715 C 0.29022 0.07156 0.3012 0.0
C716 C 0.26748 0.08426 0.30936 0.0
C717 C 0.27071 0.10891 0.32656 0.0
C718 C 0.29666 0.12109 0.33627 0.0
C719 C 0.31923 0.10789 0.32877 0.0
C720 C 0.31603 0.08338 0.31138 0.0
C721 C 0.29975 0.97532 0.28748 0.0
C722 C 0.32742 0.97582 0.29273 0.0
C723 C 0.33603 0.95328 0.30059 0.0
C724 C 0.31717 0.92973 0.30293 0.0
C725 C 0.28933 0.92964 0.29877 0.0
C726 C 0.28062 0.95244 0.29169 0.0
C727 C 0.29128 0.99808 0.27599 0.0
C728 C 0.29594 0.02373 0.29138 0.0
C729 C 0.27805 0.99442 0.25041 0.0
C730 C 0.27054 0.96722 0.23459 0.0
C731 C 0.29017 0.95015 0.22799 0.0
C732 C 0.28185 0.92239 0.22164 0.0
C733 C 0.25386 0.91153 0.22073 0.0
C734 C 0.23451 0.92908 0.22355 0.0
C735 C 0.24279 0.95672 0.23061 0.0
H736 H 0.05477 0.82158 0.79654 0.0
H737 H 0.0984 0.84532 0.81444 0.0
H738 H 0.13056 0.8491 0.73105 0.0
H739 H 0.08636 0.82574 0.71321 0.0
H740 H 0.01868 0.8357 0.76862 0.0
H741 H 0.07185 0.76559 0.75613 0.0
H742 H 0.11112 0.74311 0.74134 0.0
H743 H 0.09583 0.74816 0.65631 0.0
H744 H 0.05675 0.77076 0.6713 0.0
H745 H 0.97139 0.765 0.67269 0.0
H746 H 0.92965 0.73465 0.65734 0.0
H747 H 0.90202 0.73256 0.74216 0.0
H748 H 0.94453 0.76125 0.75756 0.0
H749 H 0.00995 0.75335 0.69993 0.0
H750 H 0.94656 0.82218 0.7256 0.0
H751 H 0.90723 0.83704 0.7527 0.0
H752 H 0.9426 0.82325 0.82719 0.0
H753 H 0.98117 0.80861 0.80034 0.0
C754 C 0.06729 0.82178 0.75354 0.0
C755 C 0.07113 0.82766 0.78208 0.0
C756 C 0.09616 0.8412 0.79228 0.0
C757 C 0.11798 0.84912 0.77415 0.0
C758 C 0.11417 0.84322 0.74554 0.0
C759 C 0.08897 0.82976 0.73532 0.0
C760 C 0.0404 0.8076 0.7431 0.0
C761 C 0.01674 0.81771 0.75351 0.0
C762 C 0.03785 0.78388 0.72383 0.0
C763 C 0.06161 0.77019 0.71482 0.0
C764 C 0.0771 0.762 0.73431 0.0
C765 C 0.09944 0.749 0.72583 0.0
C766 C 0.10666 0.74389 0.69766 0.0
C767 C 0.09088 0.75184 0.67818 0.0
C768 C 0.06851 0.76474 0.68668 0.0
C769 C 0.96105 0.76591 0.71631 0.0
C770 C 0.95628 0.75819 0.68803 0.0
C771 C 0.93243 0.74092 0.67925 0.0
C772 C 0.91259 0.73149 0.69858 0.0
C773 C 0.91681 0.73994 0.72683 0.0
C774 C 0.94106 0.75656 0.73564 0.0
C775 C 0.98798 0.78154 0.7253 0.0
C776 C 0.01181 0.77172 0.7145 0.0
C777 C 0.99055 0.80465 0.74554 0.0
C778 C 0.96674 0.81425 0.76098 0.0
C779 C 0.9457 0.82246 0.74778 0.0
C780 C 0.92335 0.83101 0.76327 0.0
C781 C 0.92174 0.83127 0.79209 0.0
C782 C 0.94304 0.82324 0.80505 0.0
C783 C 0.96524 0.81494 0.78972 0.0
H784 H 0.2873 0.03373 0.70638 0.0
H785 H 0.30988 0.06979 0.68094 0.0
H786 H 0.3417 0.11512 0.75729 0.0
H787 H 0.31948 0.07895 0.78239 0.0
H788 H 0.30884 0.00265 0.73503 0.0
H789 H 0.25039 0.06777 0.75427 0.0
H790 H 0.23461 0.11063 0.77031 0.0
H791 H 0.25184 0.10337 0.85405 0.0
H792 H 0.27002 0.06203 0.83798 0.0
H793 H 0.2831 0.99419 0.84764 0.0
H794 H 0.2669 0.96277 0.8803 0.0
H795 H 0.22769 0.906 0.81423 0.0
H796 H 0.24299 0.93814 0.78175 0.0
H797 H 0.25041 0.01722 0.81923 0.0
H798 H 0.31942 0.95775 0.79545 0.0
H799 H 0.33476 0.91491 0.77807 0.0
H800 H 0.29125 0.91079 0.7029 0.0
H801 H 0.27601 0.9533 0.72044 0.0
C802 C 0.30146 0.05376 0.74633 0.0
C803 C 0.29911 0.05149 0.71759 0.0
C804 C 0.31198 0.07213 0.7031 0.0
C805 C 0.32757 0.09534 0.71709 0.0
C806 C 0.32979 0.09756 0.74587 0.0
C807 C 0.31698 0.07694 0.7603 0.0
C808 C 0.28877 0.03147 0.76163 0.0
C809 C 0.29581 0.00587 0.7533 0.0
C810 C 0.27171 0.03562 0.78548 0.0
C811 C 0.26189 0.06166 0.79479 0.0
C812 C 0.25153 0.07568 0.77599 0.0
C813 C 0.24222 0.1 0.78514 0.0
C814 C 0.24193 0.10999 0.81335 0.0
C815 C 0.25166 0.09581 0.8322 0.0
C816 C 0.26195 0.07214 0.82298 0.0
C817 C 0.26408 0.96863 0.81231 0.0
C818 C 0.27099 0.97496 0.84017 0.0
C819 C 0.26182 0.95689 0.8588 0.0
C820 C 0.24534 0.93213 0.85003 0.0
C821 C 0.23943 0.92528 0.82187 0.0
C822 C 0.24857 0.94346 0.80317 0.0
C823 C 0.27195 0.98925 0.79357 0.0
C824 C 0.2636 0.01435 0.80104 0.0
C825 C 0.28768 0.98475 0.76899 0.0
C826 C 0.29644 0.95854 0.75927 0.0
C827 C 0.31303 0.94741 0.77535 0.0
C828 C 0.32186 0.92303 0.76535 0.0
C829 C 0.31425 0.90948 0.7391 0.0
C830 C 0.2975 0.92068 0.7232 0.0
C831 C 0.28879 0.94501 0.73315 0.0
H832 H 0.98341 0.24467 0.75797 0.0
H833 H 0.94637 0.2621 0.73938 0.0
H834 H 0.99478 0.34162 0.74831 0.0
H835 H 0.03158 0.32412 0.76806 0.0
H836 H 0.06458 0.28401 0.75651 0.0
H837 H 0.97245 0.22702 0.81145 0.0
H838 H 0.92611 0.23695 0.8232 0.0
H839 H 0.95904 0.32175 0.83949 0.0
H840 H 0.0049 0.31162 0.82763 0.0
H841 H 0.07102 0.25928 0.86897 0.0
H842 H 0.10131 0.23856 0.89399 0.0
H843 H 0.12496 0.19345 0.81733 0.0
H844 H 0.09443 0.21405 0.79253 0.0
H845 H 0.02786 0.24352 0.84013 0.0
H846 H 0.11179 0.2919 0.82728 0.0
H847 H 0.16024 0.30759 0.81876 0.0
H848 H 0.15272 0.27026 0.73385 0.0
H849 H 0.10401 0.2543 0.74267 0.0
C850 C 0.01004 0.28318 0.76473 0.0
C851 C 0.98624 0.26578 0.75552 0.0
C852 C 0.96504 0.27578 0.74506 0.0
C853 C 0.96755 0.30328 0.7429 0.0
C854 C 0.99231 0.32034 0.74992 0.0
C855 C 0.01341 0.31036 0.76096 0.0
C856 C 0.02888 0.27357 0.78208 0.0
C857 C 0.05661 0.27467 0.77446 0.0
C858 C 0.01898 0.26377 0.8069 0.0
C859 C 0.99194 0.2686 0.81871 0.0
C860 C 0.96962 0.24761 0.8182 0.0
C861 C 0.9432 0.25338 0.82465 0.0
C862 C 0.9389 0.28018 0.83194 0.0
C863 C 0.9616 0.30093 0.83382 0.0
C864 C 0.98784 0.29518 0.82722 0.0
C865 C 0.08067 0.23838 0.82888 0.0
C866 C 0.08249 0.24469 0.85763 0.0
C867 C 0.09989 0.23289 0.87187 0.0
C868 C 0.11565 0.21448 0.8576 0.0
C869 C 0.11317 0.20762 0.82891 0.0
C870 C 0.09582 0.21946 0.81469 0.0
C871 C 0.06345 0.25193 0.81344 0.0
C872 C 0.03594 0.25201 0.82172 0.0
C873 C 0.07431 0.26493 0.79061 0.0
C874 C 0.10428 0.27179 0.78564 0.0
C875 C 0.12067 0.2865 0.80698 0.0
C876 C 0.14839 0.29558 0.80205 0.0
C877 C 0.16032 0.29024 0.77563 0.0
C878 C 0.14415 0.27459 0.75449 0.0
C879 C 0.11629 0.2656 0.75942 0.0
H880 H 0.7248 0.05012 0.74341 0.0
H881 H 0.70958 0.08735 0.72538 0.0
H882 H 0.78955 0.13516 0.73894 0.0
H883 H 0.80523 0.0974 0.75548 0.0
H884 H 0.75887 0.01903 0.72881 0.0
H885 H 0.75048 0.08304 0.80881 0.0
H886 H 0.75806 0.12717 0.83702 0.0
H887 H 0.84466 0.12394 0.8371 0.0
H888 H 0.83698 0.0801 0.80837 0.0
H889 H 0.8432 -0.00077 0.79571 0.0
H890 H 0.85822 0.96026 0.81067 0.0
H891 H 0.77458 0.91918 0.81053 0.0
H892 H 0.75945 0.95877 0.79718 0.0
H893 H 0.80795 0.03326 0.81681 0.0
H894 H 0.80914 0.96166 0.73813 0.0
H895 H 0.79256 0.91345 0.72593 0.0
H896 H 0.70935 0.92918 0.73058 0.0
H897 H 0.72584 0.97687 0.74425 0.0
C898 C 0.7661 0.07095 0.75128 0.0
C899 C 0.73922 0.06846 0.7422 0.0
C900 C 0.73048 0.0898 0.73197 0.0
C901 C 0.7483 0.11425 0.731 0.0
C902 C 0.77525 0.11668 0.73977 0.0
C903 C 0.78418 0.09511 0.74938 0.0
C904 C 0.77505 0.04832 0.76278 0.0
C905 C 0.76952 0.02224 0.7481 0.0
C906 C 0.78885 0.0522 0.78808 0.0
C907 C 0.79324 0.07852 0.80605 0.0
C908 C 0.77111 0.09193 0.81478 0.0
C909 C 0.77546 0.11708 0.83104 0.0
C910 C 0.80198 0.12911 0.8392 0.0
C911 C 0.82398 0.11523 0.83117 0.0
C912 C 0.81964 0.09017 0.81474 0.0
C913 C 0.80028 0.9817 0.79469 0.0
C914 C 0.82804 0.98204 0.79941 0.0
C915 C 0.83661 0.95973 0.80783 0.0
C916 C 0.81761 0.93655 0.81126 0.0
C917 C 0.78971 0.93662 0.80758 0.0
C918 C 0.78106 0.95922 0.79995 0.0
C919 C 0.79177 0.00426 0.78287 0.0
C920 C 0.79758 0.03027 0.79736 0.0
C921 C 0.77746 0.00016 0.75787 0.0
C922 C 0.76866 0.97275 0.74295 0.0
C923 C 0.78736 0.95474 0.73606 0.0
C924 C 0.77789 0.92722 0.72912 0.0
C925 C 0.74965 0.91753 0.72788 0.0
C926 C 0.73123 0.93602 0.73158 0.0
C927 C 0.74065 0.96337 0.73925 0.0
H928 H 0.36465 0.76959 0.48359 0.0
H929 H 0.38485 0.79083 0.44404 0.0
H930 H 0.30737 0.81476 0.43105 0.0
H931 H 0.28742 0.79375 0.47095 0.0
H932 H 0.34099 0.78903 0.53188 0.0
H933 H 0.31341 0.72601 0.45157 0.0
H934 H 0.29264 0.71058 0.40677 0.0
H935 H 0.21432 0.72608 0.44239 0.0
H936 H 0.23548 0.74286 0.4867 0.0
H937 H 0.23443 0.74009 0.56391 0.0
H938 H 0.21043 0.72373 0.60424 0.0
H939 H 0.28447 0.69957 0.6279 0.0
H940 H 0.30843 0.71583 0.58691 0.0
H941 H 0.25908 0.71801 0.51991 0.0
H942 H 0.28395 0.7815 0.59857 0.0
H943 H 0.30261 0.80118 0.64327 0.0
H944 H 0.3837 0.79027 0.6122 0.0
H945 H 0.3646 0.76879 0.56773 0.0
C946 C 0.32447 0.77977 0.47997 0.0
C947 C 0.35211 0.77964 0.47237 0.0
C948 C 0.36358 0.79173 0.4497 0.0
C949 C 0.34765 0.80431 0.43425 0.0
C950 C 0.32015 0.80512 0.44241 0.0
C951 C 0.3087 0.79304 0.46514 0.0
C952 C 0.31205 0.76557 0.50309 0.0
C953 C 0.3234 0.77311 0.52925 0.0
C954 C 0.28864 0.74539 0.49967 0.0
C955 C 0.2761 0.736 0.4724 0.0
C956 C 0.29189 0.72666 0.44957 0.0
C957 C 0.27994 0.71774 0.42399 0.0
C958 C 0.25191 0.71776 0.42078 0.0
C959 C 0.23611 0.72682 0.44376 0.0
C960 C 0.24811 0.73595 0.46929 0.0
C961 C 0.27329 0.72943 0.5725 0.0
C962 C 0.24544 0.73091 0.57751 0.0
C963 C 0.23177 0.72164 0.60072 0.0
C964 C 0.24558 0.71052 0.61947 0.0
C965 C 0.27325 0.70807 0.6139 0.0
C966 C 0.28699 0.71744 0.59057 0.0
C967 C 0.28786 0.74156 0.54893 0.0
C968 C 0.27693 0.73363 0.52259 0.0
C969 C 0.31142 0.76171 0.55236 0.0
C970 C 0.32271 0.77294 0.5799 0.0
C971 C 0.30559 0.78242 0.60153 0.0
C972 C 0.31633 0.79387 0.62708 0.0
C973 C 0.34458 0.79706 0.63123 0.0
C974 C 0.36183 0.78795 0.60954 0.0
C975 C 0.35094 0.77576 0.58416 0.0
H976 H 0.77322 0.71947 0.46194 0.0
H977 H 0.79353 0.72388 0.41572 0.0
H978 H 0.83708 0.80255 0.44666 0.0
H979 H 0.81652 0.79812 0.49246 0.0
H980 H 0.79671 0.72783 0.52003 0.0
H981 H 0.739 0.76493 0.46201 0.0
H982 H 0.72868 0.79641 0.43222 0.0
H983 H 0.75667 0.86299 0.49491 0.0
H984 H 0.76737 0.83148 0.52426 0.0
H985 H 0.78125 0.77973 0.60742 0.0
H986 H 0.76326 0.79665 0.6528 0.0
H987 H 0.68156 0.78109 0.62103 0.0
H988 H 0.6995 0.76318 0.57602 0.0
H989 H 0.73324 0.79355 0.54601 0.0
H990 H 0.82251 0.73717 0.56272 0.0
H991 H 0.83713 0.71566 0.59957 0.0
H992 H 0.75311 0.69627 0.62757 0.0
H993 H 0.73813 0.71575 0.58921 0.0
C994 C 0.79337 0.7585 0.48045 0.0
C995 C 0.78776 0.73727 0.45882 0.0
C996 C 0.79944 0.7398 0.43247 0.0
C997 C 0.81695 0.76354 0.42762 0.0
C998 C 0.82351 0.78411 0.44975 0.0
C999 C 0.81195 0.78155 0.47594 0.0
C1000 C 0.77747 0.75846 0.50678 0.0
C1001 C 0.78257 0.74191 0.52585 0.0
C1002 C 0.75924 0.777 0.51408 0.0
C1003 C 0.75392 0.79587 0.49535 0.0
C1004 C 0.74328 0.78632 0.46912 0.0
C1005 C 0.73736 0.80435 0.45215 0.0
C1006 C 0.74177 0.83219 0.46126 0.0
C1007 C 0.75295 0.84167 0.48731 0.0
C1008 C 0.75896 0.82368 0.50417 0.0
C1009 C 0.74168 0.76995 0.5884 0.0
C1010 C 0.75937 0.77915 0.61046 0.0
C1011 C 0.74908 0.78896 0.63633 0.0
C1012 C 0.72105 0.79038 0.64031 0.0
C1013 C 0.70328 0.7804 0.61847 0.0
C1014 C 0.71349 0.77013 0.59279 0.0
C1015 C 0.75277 0.76339 0.56001 0.0
C1016 C 0.7468 0.77884 0.54036 0.0
C1017 C 0.77083 0.74444 0.55277 0.0
C1018 C 0.77918 0.72866 0.57335 0.0
C1019 C 0.80705 0.72764 0.5762 0.0
C1020 C 0.81546 0.71549 0.5974 0.0
C1021 C 0.79624 0.70475 0.61657 0.0
C1022 C 0.76832 0.70483 0.61324 0.0
C1023 C 0.75981 0.7161 0.59141 0.0
H1024 H 0.84612 0.31787 0.56804 0.0
H1025 H 0.86626 0.34301 0.61017 0.0
H1026 H 0.87392 0.26837 0.63921 0.0
H1027 H 0.8544 0.24327 0.59642 0.0
H1028 H 0.86114 0.28651 0.52691 0.0
H1029 H 0.78914 0.2778 0.5956 0.0
H1030 H 0.76222 0.26645 0.6367 0.0
H1031 H 0.77571 0.18402 0.61705 0.0
H1032 H 0.80252 0.19559 0.57571 0.0
H1033 H 0.81947 0.21842 0.45397 0.0
H1034 H 0.78919 0.20232 0.41494 0.0
H1035 H 0.71999 0.22117 0.46697 0.0
H1036 H 0.75024 0.23837 0.50527 0.0
H1037 H 0.779 0.21693 0.53354 0.0
H1038 H 0.87702 0.25908 0.47648 0.0
H1039 H 0.89241 0.27868 0.43457 0.0
H1040 H 0.81517 0.30714 0.43295 0.0
H1041 H 0.79997 0.28745 0.47506 0.0
C1042 C 0.84845 0.27866 0.57917 0.0
C1043 C 0.85259 0.30689 0.58322 0.0
C1044 C 0.86407 0.32127 0.60741 0.0
C1045 C 0.87152 0.30769 0.62815 0.0
C1046 C 0.86825 0.27942 0.62368 0.0
C1047 C 0.85694 0.26503 0.59932 0.0
C1048 C 0.83433 0.26376 0.55425 0.0
C1049 C 0.84328 0.27113 0.52834 0.0
C1050 C 0.81094 0.24384 0.55604 0.0
C1051 C 0.79796 0.23757 0.58276 0.0
C1052 C 0.78675 0.25741 0.60045 0.0
C1053 C 0.77121 0.25083 0.62383 0.0
C1054 C 0.76667 0.22427 0.63003 0.0
C1055 C 0.77887 0.20465 0.61287 0.0
C1056 C 0.79417 0.21121 0.58926 0.0
C1057 C 0.7872 0.22981 0.48255 0.0
C1058 C 0.79784 0.21941 0.45685 0.0
C1059 C 0.78053 0.21013 0.43461 0.0
C1060 C 0.75226 0.21048 0.43797 0.0
C1061 C 0.74166 0.22047 0.4638 0.0
C1062 C 0.75896 0.23022 0.48576 0.0
C1063 C 0.8051 0.24047 0.50633 0.0
C1064 C 0.79716 0.23193 0.53199 0.0
C1065 C 0.82858 0.2603 0.50452 0.0
C1066 C 0.83729 0.27158 0.47866 0.0
C1067 C 0.8634 0.26949 0.46703 0.0
C1068 C 0.87213 0.28069 0.44306 0.0
C1069 C 0.85499 0.29447 0.43042 0.0
C1070 C 0.82884 0.29665 0.44219 0.0
C1071 C 0.82008 0.28531 0.46614 0.0
H1072 H 0.27804 0.21545 0.46075 0.0
H1073 H 0.29822 0.21901 0.41441 0.0
H1074 H 0.34231 0.29782 0.44399 0.0
H1075 H 0.32174 0.29428 0.48997 0.0
H1076 H 0.30132 0.22454 0.51877 0.0
H1077 H 0.24434 0.26081 0.45955 0.0
H1078 H 0.23542 0.29179 0.42854 0.0
H1079 H 0.26317 0.3592 0.49042 0.0
H1080 H 0.27248 0.32815 0.52101 0.0
H1081 H 0.28357 0.27635 0.60621 0.0
H1082 H 0.26403 0.29307 0.65092 0.0
H1083 H 0.1836 0.27751 0.61622 0.0
H1084 H 0.20306 0.25975 0.57188 0.0
H1085 H 0.23765 0.2903 0.54304 0.0
H1086 H 0.32657 0.23394 0.56134 0.0
H1087 H 0.34085 0.21131 0.59741 0.0
H1088 H 0.25677 0.19222 0.6253 0.0
H1089 H 0.24206 0.21282 0.58758 0.0
C1090 C 0.29843 0.25461 0.47864 0.0
C1091 C 0.2927 0.23309 0.45734 0.0
C1092 C 0.30433 0.23513 0.4309 0.0
C1093 C 0.32199 0.25863 0.42561 0.0
C1094 C 0.32867 0.27953 0.44742 0.0
C1095 C 0.3171 0.27748 0.47372 0.0
C1096 C 0.28242 0.25506 0.50492 0.0
C1097 C 0.28719 0.23868 0.52428 0.0
C1098 C 0.26415 0.27361 0.51174 0.0
C1099 C 0.2591 0.29219 0.49256 0.0
C1100 C 0.24882 0.28227 0.46625 0.0
C1101 C 0.24371 0.30001 0.44858 0.0
C1102 C 0.24857 0.32796 0.45704 0.0
C1103 C 0.25918 0.3378 0.48328 0.0
C1104 C 0.26438 0.32008 0.50086 0.0
C1105 C 0.24474 0.26655 0.58576 0.0
C1106 C 0.26162 0.27571 0.60846 0.0
C1107 C 0.25045 0.28542 0.63395 0.0
C1108 C 0.22234 0.28679 0.63692 0.0
C1109 C 0.20536 0.27686 0.61444 0.0
C1110 C 0.21644 0.26666 0.58915 0.0
C1111 C 0.25678 0.26019 0.55774 0.0
C1112 C 0.25128 0.27561 0.53781 0.0
C1113 C 0.27505 0.24134 0.55103 0.0
C1114 C 0.28318 0.22563 0.57183 0.0
C1115 C 0.311 0.22432 0.57465 0.0
C1116 C 0.31923 0.2115 0.59539 0.0
C1117 C 0.29992 0.20037 0.61425 0.0
C1118 C 0.27206 0.20101 0.61118 0.0
C1119 C 0.26371 0.21296 0.58974 0.0
H1120 H 0.76557 0.56078 0.83949 0.0
H1121 H 0.74457 0.59972 0.85854 0.0
H1122 H 0.72561 0.61108 0.77652 0.0
H1123 H 0.7444 0.57053 0.75744 0.0
H1124 H 0.74894 0.51602 0.81785 0.0
H1125 H 0.81341 0.58487 0.78451 0.0
H1126 H 0.83482 0.6224 0.76081 0.0
H1127 H 0.80519 0.57829 0.68308 0.0
H1128 H 0.78341 0.54094 0.70708 0.0
H1129 H 0.77808 0.4572 0.7179 0.0
H1130 H 0.80193 0.42074 0.69699 0.0
H1131 H 0.85244 0.43294 0.76854 0.0
H1132 H 0.82801 0.4693 0.78953 0.0
H1133 H 0.80856 0.51111 0.73353 0.0
H1134 H 0.74742 0.44001 0.77371 0.0
H1135 H 0.73281 0.40446 0.8026 0.0
H1136 H 0.76775 0.45739 0.87345 0.0
H1137 H 0.78307 0.49247 0.84436 0.0
C1138 C 0.75692 0.56261 0.79688 0.0
C1139 C 0.75655 0.57126 0.82549 0.0
C1140 C 0.74462 0.59359 0.83642 0.0
C1141 C 0.73358 0.60828 0.81894 0.0
C1142 C 0.73423 0.60009 0.79035 0.0
C1143 C 0.74525 0.57709 0.77945 0.0
C1144 C 0.76866 0.53798 0.7857 0.0
C1145 C 0.76236 0.51531 0.79964 0.0
C1146 C 0.78583 0.53648 0.76163 0.0
C1147 C 0.7966 0.56019 0.74761 0.0
C1148 C 0.81106 0.5835 0.76245 0.0
C1149 C 0.82344 0.60487 0.74882 0.0
C1150 C 0.82185 0.60325 0.72002 0.0
C1151 C 0.80688 0.58013 0.70526 0.0
C1152 C 0.79442 0.55878 0.71894 0.0
C1153 C 0.80126 0.46577 0.75523 0.0
C1154 C 0.79398 0.45168 0.72924 0.0
C1155 C 0.80767 0.43088 0.71735 0.0
C1156 C 0.82924 0.42412 0.73103 0.0
C1157 C 0.836 0.43779 0.75746 0.0
C1158 C 0.822 0.45842 0.76952 0.0
C1159 C 0.78903 0.48986 0.76595 0.0
C1160 C 0.79516 0.51222 0.75176 0.0
C1161 C 0.77281 0.49151 0.79043 0.0
C1162 C 0.76621 0.46893 0.80693 0.0
C1163 C 0.75231 0.44377 0.79537 0.0
C1164 C 0.74357 0.42362 0.81199 0.0
C1165 C 0.74844 0.4284 0.84044 0.0
C1166 C 0.76355 0.45314 0.85163 0.0
C1167 C 0.77221 0.47325 0.83506 0.0
H1168 H 0.33536 0.57617 0.8091 0.0
H1169 H 0.34116 0.61982 0.83836 0.0
H1170 H 0.25419 0.62036 0.83604 0.0
H1171 H 0.24852 0.57654 0.80731 0.0
H1172 H 0.3072 0.52802 0.81541 0.0
H1173 H 0.3059 0.59277 0.75479 0.0
H1174 H 0.29103 0.63122 0.73883 0.0
H1175 H 0.21039 0.58482 0.72504 0.0
H1176 H 0.22498 0.5468 0.74214 0.0
H1177 H 0.22562 0.47289 0.74238 0.0
H1178 H 0.20889 0.42533 0.72816 0.0
H1179 H 0.292 0.40927 0.72233 0.0
H1180 H 0.3088 0.45735 0.73515 0.0
H1181 H 0.25912 0.51524 0.72691 0.0
H1182 H 0.25946 0.4537 0.79456 0.0
H1183 H 0.27487 0.41355 0.80617 0.0
H1184 H 0.35849 0.45469 0.80606 0.0
H1185 H 0.34315 0.49428 0.79283 0.0
C1186 C 0.2916 0.57336 0.80559 0.0
C1187 C 0.31754 0.58561 0.81513 0.0
C1188 C 0.3208 0.61055 0.83185 0.0
C1189 C 0.29815 0.62365 0.83934 0.0
C1190 C 0.27208 0.61091 0.83048 0.0
C1191 C 0.26882 0.58592 0.81392 0.0
C1192 C 0.28827 0.54742 0.78695 0.0
C1193 C 0.29709 0.52535 0.79585 0.0
C1194 C 0.27499 0.54398 0.76141 0.0
C1195 C 0.26647 0.56693 0.75016 0.0
C1196 C 0.28492 0.59092 0.74862 0.0
C1197 C 0.27644 0.61288 0.73936 0.0
C1198 C 0.24949 0.61111 0.73079 0.0
C1199 C 0.23129 0.58682 0.73147 0.0
C1200 C 0.23966 0.56502 0.74117 0.0
C1201 C 0.26841 0.46858 0.74055 0.0
C1202 C 0.24034 0.45935 0.73702 0.0
C1203 C 0.23078 0.43208 0.72904 0.0
C1204 C 0.24912 0.41351 0.72483 0.0
C1205 C 0.27739 0.42309 0.72592 0.0
C1206 C 0.28699 0.45054 0.73319 0.0
C1207 C 0.27736 0.49582 0.75577 0.0
C1208 C 0.26958 0.51812 0.74628 0.0
C1209 C 0.29155 0.49954 0.78081 0.0
C1210 C 0.30023 0.47675 0.79206 0.0
C1211 C 0.28111 0.45407 0.79697 0.0
C1212 C 0.28993 0.43114 0.80358 0.0
C1213 C 0.3179 0.43091 0.8066 0.0
C1214 C 0.33681 0.45428 0.80368 0.0
C1215 C 0.32806 0.47695 0.79626 0.0
H1216 H 0.30291 0.52674 0.19512 0.0
H1217 H 0.32307 0.56429 0.17052 0.0
H1218 H 0.35372 0.60943 0.24741 0.0
H1219 H 0.3339 0.57181 0.27166 0.0
H1220 H 0.32726 0.49658 0.22337 0.0
H1221 H 0.26464 0.55806 0.24345 0.0
H1222 H 0.24735 0.59996 0.26034 0.0
H1223 H 0.26538 0.59193 0.34365 0.0
H1224 H 0.28502 0.55157 0.32672 0.0
H1225 H 0.3011 0.48249 0.33462 0.0
H1226 H 0.28279 0.45007 0.36581 0.0
H1227 H 0.24327 0.39681 0.29749 0.0
H1228 H 0.26123 0.4297 0.26641 0.0
H1229 H 0.26673 0.50637 0.30671 0.0
H1230 H 0.34527 0.45781 0.2816 0.0
H1231 H 0.36913 0.42039 0.2627 0.0
H1232 H 0.31756 0.4042 0.1917 0.0
H1233 H 0.29432 0.44181 0.21049 0.0
C1234 C 0.31665 0.54659 0.23527 0.0
C1235 C 0.31397 0.54477 0.20662 0.0
C1236 C 0.32544 0.56625 0.19261 0.0
C1237 C 0.33995 0.58986 0.20701 0.0
C1238 C 0.3426 0.59158 0.23569 0.0
C1239 C 0.33118 0.57012 0.24964 0.0
C1240 C 0.30512 0.52359 0.25007 0.0
C1241 C 0.3137 0.49875 0.24139 0.0
C1242 C 0.28766 0.52643 0.27381 0.0
C1243 C 0.27667 0.55172 0.28368 0.0
C1244 C 0.26563 0.56563 0.26526 0.0
C1245 C 0.2555 0.5894 0.27489 0.0
C1246 C 0.25506 0.5989 0.3032 0.0
C1247 C 0.26539 0.58477 0.32171 0.0
C1248 C 0.2765 0.56166 0.31201 0.0
C1249 C 0.28235 0.45858 0.29828 0.0
C1250 C 0.28875 0.46367 0.32631 0.0
C1251 C 0.27832 0.44509 0.34408 0.0
C1252 C 0.26096 0.42121 0.33422 0.0
C1253 C 0.25582 0.41543 0.30584 0.0
C1254 C 0.26642 0.43401 0.28798 0.0
C1255 C 0.29005 0.4802 0.28075 0.0
C1256 C 0.28034 0.50456 0.28871 0.0
C1257 C 0.30652 0.47714 0.25657 0.0
C1258 C 0.31808 0.4524 0.24738 0.0
C1259 C 0.33889 0.44583 0.2622 0.0
C1260 C 0.35255 0.42458 0.25133 0.0
C1261 C 0.34536 0.40951 0.22563 0.0
C1262 C 0.32361 0.41543 0.21153 0.0
C1263 C 0.31028 0.43687 0.22221 0.0
H1264 H 0.72246 0.54459 0.24466 0.0
H1265 H 0.7064 0.58151 0.22684 0.0
H1266 H 0.78523 0.63114 0.24204 0.0
H1267 H 0.80173 0.59376 0.25844 0.0
H1268 H 0.75772 0.51479 0.23001 0.0
H1269 H 0.7458 0.57602 0.31067 0.0
H1270 H 0.75077 0.61997 0.33918 0.0
H1271 H 0.83812 0.62138 0.34078 0.0
H1272 H 0.83303 0.57763 0.31175 0.0
H1273 H 0.84342 0.49683 0.29556 0.0
H1274 H 0.86042 0.45796 0.3085 0.0
H1275 H 0.77784 0.41423 0.3088 0.0
H1276 H 0.76077 0.45364 0.29745 0.0
H1277 H 0.80624 0.52915 0.31837 0.0
H1278 H 0.80988 0.45892 0.23816 0.0
H1279 H 0.79461 0.41059 0.22505 0.0
H1280 H 0.71057 0.42388 0.23044 0.0
H1281 H 0.72576 0.47165 0.24502 0.0
C1282 C 0.76324 0.56638 0.25334 0.0
C1283 C 0.73644 0.56329 0.24388 0.0
C1284 C 0.72722 0.58445 0.23377 0.0
C1285 C 0.74448 0.60929 0.23328 0.0
C1286 C 0.77135 0.61234 0.24249 0.0
C1287 C 0.78075 0.59098 0.25201 0.0
C1288 C 0.77278 0.54391 0.26457 0.0
C1289 C 0.76823 0.51802 0.24938 0.0
C1290 C 0.78625 0.5478 0.29005 0.0
C1291 C 0.78912 0.57379 0.30863 0.0
C1292 C 0.76603 0.58585 0.31708 0.0
C1293 C 0.76889 0.61092 0.33351 0.0
C1294 C 0.79486 0.62425 0.34211 0.0
C1295 C 0.81783 0.61166 0.33448 0.0
C1296 C 0.81497 0.58665 0.3179 0.0
C1297 C 0.8009 0.47795 0.29492 0.0
C1298 C 0.82892 0.47908 0.29898 0.0
C1299 C 0.83862 0.45682 0.30622 0.0
C1300 C 0.82049 0.43293 0.3091 0.0
C1301 C 0.79232 0.43223 0.30622 0.0
C1302 C 0.78256 0.45475 0.29978 0.0
C1303 C 0.79125 0.50031 0.28378 0.0
C1304 C 0.79598 0.52615 0.29887 0.0
C1305 C 0.77696 0.49613 0.25876 0.0
C1306 C 0.7689 0.46877 0.24342 0.0
C1307 C 0.78819 0.45145 0.23607 0.0
C1308 C 0.77947 0.42386 0.22861 0.0
C1309 C 0.75139 0.41343 0.22728 0.0
C1310 C 0.73235 0.43129 0.23148 0.0
C1311 C 0.74102 0.45869 0.23968 0.0
H1312 H 0.56181 0.26758 0.66378 0.0
H1313 H 0.60405 0.2491 0.65185 0.0
H1314 H 0.61812 0.25108 0.73856 0.0
H1315 H 0.57575 0.26929 0.75024 0.0
H1316 H 0.51455 0.24962 0.69334 0.0
H1317 H 0.58798 0.32545 0.7017 0.0
H1318 H 0.63219 0.3497 0.71866 0.0
H1319 H 0.59992 0.35093 0.80251 0.0
H1320 H 0.55634 0.3262 0.78555 0.0
H1321 H 0.48445 0.30759 0.79022 0.0
H1322 H 0.44573 0.32136 0.81743 0.0
H1323 H 0.40679 0.32984 0.74292 0.0
H1324 H 0.44633 0.31582 0.71541 0.0
H1325 H 0.51925 0.33578 0.75604 0.0
H1326 H 0.44867 0.25743 0.75029 0.0
H1327 H 0.40666 0.227 0.73638 0.0
H1328 H 0.43337 0.2254 0.65093 0.0
H1329 H 0.47456 0.25738 0.66472 0.0
C1330 C 0.56587 0.2702 0.70787 0.0
C1331 C 0.57389 0.2638 0.68017 0.0
C1332 C 0.59809 0.25329 0.67342 0.0
C1333 C 0.6146 0.2488 0.69428 0.0
C1334 C 0.60599 0.2544 0.722 0.0
C1335 C 0.58182 0.26492 0.72871 0.0
C1336 C 0.54111 0.28288 0.71521 0.0
C1337 C 0.51549 0.26875 0.70658 0.0
C1338 C 0.5425 0.30776 0.73257 0.0
C1339 C 0.56891 0.32378 0.74237 0.0
C1340 C 0.59052 0.33089 0.72373 0.0
C1341 C 0.61573 0.34485 0.73344 0.0
C1342 C 0.6196 0.35218 0.76192 0.0
C1343 C 0.59766 0.34563 0.78043 0.0
C1344 C 0.57264 0.33155 0.77076 0.0
C1345 C 0.46828 0.31064 0.75081 0.0
C1346 C 0.46768 0.31253 0.77965 0.0
C1347 C 0.4454 0.32034 0.7952 0.0
C1348 C 0.42308 0.32668 0.78236 0.0
C1349 C 0.42372 0.32515 0.7534 0.0
C1350 C 0.44618 0.31706 0.73768 0.0
C1351 C 0.49247 0.30193 0.73531 0.0
C1352 C 0.51819 0.317 0.74216 0.0
C1353 C 0.49099 0.27773 0.71666 0.0
C1354 C 0.46461 0.26037 0.70854 0.0
C1355 C 0.44511 0.25146 0.7285 0.0
C1356 C 0.42116 0.23384 0.72055 0.0
C1357 C 0.41677 0.22395 0.69259 0.0
C1358 C 0.43626 0.23274 0.67264 0.0
C1359 C 0.45981 0.25097 0.68052 0.0
H1360 H 0.56228 0.71792 0.80975 0.0
H1361 H 0.59508 0.70128 0.836 0.0
H1362 H 0.62531 0.78296 0.87203 0.0
H1363 H 0.5925 0.79926 0.84575 0.0
H1364 H 0.52068 0.756 0.83238 0.0
H1365 H 0.60712 0.75434 0.76993 0.0
H1366 H 0.65632 0.77062 0.76365 0.0
H1367 H 0.6423 0.85211 0.7903 0.0
H1368 H 0.59359 0.83578 0.79608 0.0
H1369 H 0.52516 0.8395 0.76044 0.0
H1370 H 0.49108 0.85668 0.7364 0.0
H1371 H 0.43936 0.77897 0.73079 0.0
H1372 H 0.47407 0.76141 0.75316 0.0
H1373 H 0.55705 0.80467 0.75388 0.0
H1374 H 0.49019 0.822 0.81946 0.0
H1375 H 0.44264 0.82625 0.83133 0.0
H1376 H 0.42024 0.73965 0.81664 0.0
H1377 H 0.46826 0.73563 0.80472 0.0
C1378 C 0.57515 0.75976 0.82579 0.0
C1379 C 0.57586 0.73212 0.82352 0.0
C1380 C 0.59467 0.7227 0.83842 0.0
C1381 C 0.61291 0.74082 0.85597 0.0
C1382 C 0.61162 0.76847 0.85864 0.0
C1383 C 0.5929 0.77785 0.84367 0.0
C1384 C 0.5567 0.76984 0.80851 0.0
C1385 C 0.5285 0.76597 0.81477 0.0
C1386 C 0.56713 0.78488 0.78709 0.0
C1387 C 0.59681 0.79395 0.78315 0.0
C1388 C 0.61481 0.77568 0.77438 0.0
C1389 C 0.64285 0.78499 0.77094 0.0
C1390 C 0.65321 0.81265 0.77651 0.0
C1391 C 0.63507 0.83069 0.78588 0.0
C1392 C 0.60716 0.82144 0.78899 0.0
C1393 C 0.50196 0.79929 0.75916 0.0
C1394 C 0.50681 0.82597 0.75342 0.0
C1395 C 0.48729 0.83581 0.73982 0.0
C1396 C 0.46245 0.81924 0.7322 0.0
C1397 C 0.45816 0.79228 0.73686 0.0
C1398 C 0.47795 0.78228 0.74973 0.0
C1399 C 0.52078 0.7896 0.77671 0.0
C1400 C 0.54901 0.79384 0.77084 0.0
C1401 C 0.51071 0.77693 0.79996 0.0
C1402 C 0.48261 0.77852 0.81101 0.0
C1403 C 0.47508 0.80391 0.81919 0.0
C1404 C 0.44787 0.8063 0.82586 0.0
C1405 C 0.42761 0.78331 0.82455 0.0
C1406 C 0.43538 0.75775 0.81762 0.0
C1407 C 0.46278 0.75537 0.81103 0.0
H1408 H 0.56316 0.76739 0.16609 0.0
H1409 H 0.6051 0.74813 0.15513 0.0
H1410 H 0.61704 0.74976 0.24222 0.0
H1411 H 0.57501 0.76878 0.25292 0.0
H1412 H 0.51542 0.74972 0.19394 0.0
H1413 H 0.58786 0.82528 0.20435 0.0
H1414 H 0.63173 0.85006 0.22157 0.0
H1415 H 0.599 0.85092 0.30523 0.0
H1416 H 0.55572 0.82564 0.28799 0.0
H1417 H 0.48295 0.80501 0.29124 0.0
H1418 H 0.44416 0.81906 0.3181 0.0
H1419 H 0.40706 0.82977 0.24333 0.0
H1420 H 0.44668 0.81549 0.21622 0.0
H1421 H 0.5185 0.83456 0.25849 0.0
H1422 H 0.44795 0.75542 0.24866 0.0
H1423 H 0.40728 0.72406 0.23239 0.0
H1424 H 0.43688 0.7266 0.14817 0.0
H1425 H 0.47672 0.75926 0.16436 0.0
C1426 C 0.56621 0.7699 0.2103 0.0
C1427 C 0.57475 0.76342 0.18277 0.0
C1428 C 0.59876 0.75246 0.17658 0.0
C1429 C 0.61453 0.74756 0.19783 0.0
C1430 C 0.60546 0.75336 0.22537 0.0
C1431 C 0.58151 0.76437 0.23152 0.0
C1432 C 0.54138 0.78257 0.21708 0.0
C1433 C 0.51602 0.76859 0.20758 0.0
C1434 C 0.54234 0.80718 0.23482 0.0
C1435 C 0.56856 0.82338 0.24489 0.0
C1436 C 0.59023 0.83073 0.2264 0.0
C1437 C 0.61525 0.845 0.23626 0.0
C1438 C 0.61888 0.85241 0.26476 0.0
C1439 C 0.59691 0.84557 0.28314 0.0
C1440 C 0.57206 0.83117 0.27331 0.0
C1441 C 0.46773 0.8092 0.25175 0.0
C1442 C 0.46653 0.81043 0.28055 0.0
C1443 C 0.44421 0.81844 0.2959 0.0
C1444 C 0.42244 0.82562 0.2829 0.0
C1445 C 0.42355 0.82445 0.25395 0.0
C1446 C 0.44606 0.81621 0.23845 0.0
C1447 C 0.49228 0.80101 0.23655 0.0
C1448 C 0.5178 0.81605 0.24423 0.0
C1449 C 0.49131 0.77734 0.2172 0.0
C1450 C 0.46526 0.76023 0.20774 0.0
C1451 C 0.44525 0.75013 0.22666 0.0
C1452 C 0.42207 0.73199 0.21735 0.0
C1453 C 0.41899 0.72291 0.18903 0.0
C1454 C 0.4388 0.73323 0.17012 0.0
C1455 C 0.46156 0.75187 0.17937 0.0
H1456 H 0.5687 0.20893 0.31455 0.0
H1457 H 0.60269 0.19104 0.33785 0.0
H1458 H 0.63939 0.2722 0.36967 0.0
H1459 H 0.60523 0.2898 0.34641 0.0
H1460 H 0.53084 0.24687 0.34002 0.0
H1461 H 0.61361 0.24702 0.27227 0.0
H1462 H 0.66198 0.26477 0.26303 0.0
H1463 H 0.64568 0.34557 0.28928 0.0
H1464 H 0.59782 0.32778 0.2981 0.0
H1465 H 0.52086 0.32918 0.27323 0.0
H1466 H 0.48122 0.34214 0.2536 0.0
H1467 H 0.44283 0.25874 0.24103 0.0
H1468 H 0.48272 0.24593 0.25949 0.0
H1469 H 0.55938 0.29518 0.25934 0.0
H1470 H 0.50003 0.31119 0.33408 0.0
H1471 H 0.45292 0.31723 0.34575 0.0
H1472 H 0.42607 0.23206 0.32164 0.0
H1473 H 0.47372 0.22625 0.31004 0.0
C1474 C 0.58467 0.25062 0.32864 0.0
C1475 C 0.58402 0.22278 0.32669 0.0
C1476 C 0.60351 0.21263 0.33991 0.0
C1477 C 0.62382 0.23021 0.35547 0.0
C1478 C 0.62408 0.25812 0.35775 0.0
C1479 C 0.60462 0.26824 0.34448 0.0
C1480 C 0.56473 0.26111 0.31355 0.0
C1481 C 0.53704 0.25674 0.32197 0.0
C1482 C 0.57304 0.27625 0.29163 0.0
C1483 C 0.6022 0.28616 0.28563 0.0
C1484 C 0.62061 0.26853 0.27598 0.0
C1485 C 0.64819 0.27868 0.27083 0.0
C1486 C 0.65767 0.30657 0.27548 0.0
C1487 C 0.63914 0.324 0.28554 0.0
C1488 C 0.61169 0.3139 0.2904 0.0
C1489 C 0.5045 0.28665 0.2681 0.0
C1490 C 0.50422 0.31369 0.26549 0.0
C1491 C 0.48152 0.32105 0.25449 0.0
C1492 C 0.45878 0.30147 0.24633 0.0
C1493 C 0.45986 0.27431 0.24759 0.0
C1494 C 0.48267 0.26695 0.25803 0.0
C1495 C 0.52548 0.27901 0.28448 0.0
C1496 C 0.55319 0.28435 0.27675 0.0
C1497 C 0.51764 0.26674 0.3084 0.0
C1498 C 0.49024 0.2683 0.32125 0.0
C1499 C 0.48406 0.2937 0.33207 0.0
C1500 C 0.45708 0.29714 0.33848 0.0
C1501 C 0.43571 0.2752 0.33417 0.0
C1502 C 0.44211 0.24939 0.32498 0.0
C1503 C 0.46929 0.24594 0.31863 0.0
loop_
_geom_bond_atom_site_label_1
_geom_bond_atom_site_label_2
_geom_bond_distance
_geom_bond_site_symmetry_2
_ccdc_geom_bond_type
O0 Cd1 2.300 . S
O0 C7 1.275 . S
Cd1 O0 2.300 . S
Cd1 O9 2.381 . S
Cd1 O10 2.378 . S
O2 Cd3 2.385 . S
O2 C7 1.255 . S
Cd3 O2 2.385 . S
Cd3 O4 2.317 . S
O4 Cd3 2.317 . S
O4 C5 1.232 . S
C5 O4 1.232 . S
C5 O6 1.218 . S
O6 C5 1.218 . S
C7 O0 1.275 . S
C7 O2 1.255 . S
C8 O9 1.258 . S
C8 O10 1.256 . S
O9 Cd1 2.381 . S
O9 C8 1.258 . S
O10 Cd1 2.378 . S
O10 C8 1.256 . S
O11 Cd12 2.300 . S
O11 C18 1.275 . S
Cd12 O11 2.300 . S
Cd12 O20 2.381 . S
Cd12 O21 2.378 . S
O13 Cd14 2.385 . S
O13 C18 1.255 . S
Cd14 O13 2.385 . S
Cd14 O15 2.317 . S
O15 Cd14 2.317 . S
O15 C16 1.232 . S
C16 O15 1.232 . S
C16 O17 1.218 . S
O17 C16 1.218 . S
C18 O11 1.275 . S
C18 O13 1.255 . S
C19 O20 1.258 . S
C19 O21 1.256 . S
O20 Cd12 2.381 . S
O20 C19 1.258 . S
O21 Cd12 2.378 . S
O21 C19 1.256 . S
O22 Cd23 2.300 . S
O22 C29 1.275 . S
Cd23 O22 2.300 . S
Cd23 O31 2.381 . S
Cd23 O32 2.378 . S
O24 Cd25 2.385 . S
O24 C29 1.255 . S
Cd25 O24 2.385 . S
Cd25 O26 2.317 . S
O26 Cd25 2.317 . S
O26 C27 1.232 . S
C27 O26 1.232 . S
C27 O28 1.218 . S
O28 C27 1.218 . S
C29 O22 1.275 . S
C29 O24 1.255 . S
C30 O31 1.258 . S
C30 O32 1.256 . S
O31 Cd23 2.381 . S
O31 C30 1.258 . S
O32 Cd23 2.378 . S
O32 C30 1.256 . S
O33 Cd34 2.300 . S
O33 C40 1.275 . S
Cd34 O33 2.300 . S
Cd34 O42 2.381 . S
Cd34 O43 2.378 . S
O35 Cd36 2.385 . S
O35 C40 1.255 . S
Cd36 O35 2.385 . S
Cd36 O37 2.317 . S
O37 Cd36 2.317 . S
O37 C38 1.232 . S
C38 O37 1.232 . S
C38 O39 1.218 . S
O39 C38 1.218 . S
C40 O33 1.275 . S
C40 O35 1.255 . S
C41 O42 1.258 . S
C41 O43 1.256 . S
O42 Cd34 2.381 . S
O42 C41 1.258 . S
O43 Cd34 2.378 . S
O43 C41 1.256 . S
O44 Cd45 2.300 . S
O44 C51 1.275 . S
Cd45 O44 2.300 . S
Cd45 O53 2.381 . S
Cd45 O54 2.378 . S
O46 Cd47 2.385 . S
O46 C51 1.255 . S
Cd47 O46 2.385 . S
Cd47 O48 2.317 . S
O48 Cd47 2.317 . S
O48 C49 1.232 . S
C49 O48 1.232 . S
C49 O50 1.218 . S
O50 C49 1.218 . S
C51 O44 1.275 . S
C51 O46 1.255 . S
C52 O53 1.258 . S
C52 O54 1.256 . S
O53 Cd45 2.381 . S
O53 C52 1.258 . S
O54 Cd45 2.378 . S
O54 C52 1.256 . S
O55 Cd56 2.300 . S
O55 C62 1.275 . S
Cd56 O55 2.300 . S
Cd56 O64 2.381 . S
Cd56 O65 2.378 . S
O57 Cd58 2.385 . S
O57 C62 1.255 . S
Cd58 O57 2.385 . S
Cd58 O59 2.317 . S
O59 Cd58 2.317 . S
O59 C60 1.232 . S
C60 O59 1.232 . S
C60 O61 1.218 . S
O61 C60 1.218 . S
C62 O55 1.275 . S
C62 O57 1.255 . S
C63 O64 1.258 . S
C63 O65 1.256 . S
O64 Cd56 2.381 . S
O64 C63 1.258 . S
O65 Cd56 2.378 . S
O65 C63 1.256 . S
O66 Cd67 2.300 . S
O66 C73 1.275 . S
Cd67 O66 2.300 . S
Cd67 O75 2.381 . S
Cd67 O76 2.378 . S
O68 Cd69 2.385 . S
O68 C73 1.255 . S
Cd69 O68 2.385 . S
Cd69 O70 2.317 . S
O70 Cd69 2.317 . S
O70 C71 1.232 . S
C71 O70 1.232 . S
C71 O72 1.218 . S
O72 C71 1.218 . S
C73 O66 1.275 . S
C73 O68 1.255 . S
C74 O75 1.258 . S
C74 O76 1.256 . S
O75 Cd67 2.381 . S
O75 C74 1.258 . S
O76 Cd67 2.378 . S
O76 C74 1.256 . S
O77 Cd78 2.300 . S
O77 C84 1.275 . S
Cd78 O77 2.300 . S
Cd78 O86 2.381 . S
Cd78 O87 2.378 . S
O79 Cd80 2.385 . S
O79 C84 1.255 . S
Cd80 O79 2.385 . S
Cd80 O81 2.317 . S
O81 Cd80 2.317 . S
O81 C82 1.232 . S
C82 O81 1.232 . S
C82 O83 1.218 . S
O83 C82 1.218 . S
C84 O77 1.275 . S
C84 O79 1.255 . S
C85 O86 1.258 . S
C85 O87 1.256 . S
O86 Cd78 2.381 . S
O86 C85 1.258 . S
O87 Cd78 2.378 . S
O87 C85 1.256 . S
O88 Cd89 2.300 . S
O88 C95 1.275 . S
Cd89 O88 2.300 . S
Cd89 O97 2.381 . S
Cd89 O98 2.378 . S
O90 Cd91 2.385 . S
O90 C95 1.255 . S
Cd91 O90 2.385 . S
Cd91 O92 2.317 . S
O92 Cd91 2.317 . S
O92 C93 1.232 . S
C93 O92 1.232 . S
C93 O94 1.218 . S
O94 C93 1.218 . S
C95 O88 1.275 . S
C95 O90 1.255 . S
C96 O97 1.258 . S
C96 O98 1.256 . S
O97 Cd89 2.381 . S
O97 C96 1.258 . S
O98 Cd89 2.378 . S
O98 C96 1.256 . S
O99 Cd100 2.300 . S
O99 C106 1.275 . S
Cd100 O99 2.300 . S
Cd100 O108 2.381 . S
Cd100 O109 2.378 . S
O101 Cd102 2.385 . S
O101 C106 1.255 . S
Cd102 O101 2.385 . S
Cd102 O103 2.317 . S
O103 Cd102 2.317 . S
O103 C104 1.232 . S
C104 O103 1.232 . S
C104 O105 1.218 . S
O105 C104 1.218 . S
C106 O99 1.275 . S
C106 O101 1.255 . S
C107 O108 1.258 . S
C107 O109 1.256 . S
O108 Cd100 2.381 . S
O108 C107 1.258 . S
O109 Cd100 2.378 . S
O109 C107 1.256 . S
O110 Cd111 2.300 . S
O110 C117 1.275 . S
Cd111 O110 2.300 . S
Cd111 O119 2.381 . S
Cd111 O120 2.378 . S
O112 Cd113 2.385 . S
O112 C117 1.255 . S
Cd113 O112 2.385 . S
Cd113 O114 2.317 . S
O114 Cd113 2.317 . S
O114 C115 1.232 . S
C115 O114 1.232 . S
C115 O116 1.218 . S
O116 C115 1.218 . S
C117 O110 1.275 . S
C117 O112 1.255 . S
C118 O119 1.258 . S
C118 O120 1.256 . S
O119 Cd111 2.381 . S
O119 C118 1.258 . S
O120 Cd111 2.378 . S
O120 C118 1.256 . S
O121 Cd122 2.300 . S
O121 C128 1.275 . S
Cd122 O121 2.300 . S
Cd122 O130 2.381 . S
Cd122 O131 2.378 . S
O123 Cd124 2.385 . S
O123 C128 1.255 . S
Cd124 O123 2.385 . S
Cd124 O125 2.317 . S
O125 Cd124 2.317 . S
O125 C126 1.232 . S
C126 O125 1.232 . S
C126 O127 1.218 . S
O127 C126 1.218 . S
C128 O121 1.275 . S
C128 O123 1.255 . S
C129 O130 1.258 . S
C129 O131 1.256 . S
O130 Cd122 2.381 . S
O130 C129 1.258 . S
O131 Cd122 2.378 . S
O131 C129 1.256 . S
O132 Cd133 2.300 . S
O132 C139 1.275 . S
Cd133 O132 2.300 . S
Cd133 O141 2.381 . S
Cd133 O142 2.378 . S
O134 Cd135 2.385 . S
O134 C139 1.255 . S
Cd135 O134 2.385 . S
Cd135 O136 2.317 . S
O136 Cd135 2.317 . S
O136 C137 1.232 . S
C137 O136 1.232 . S
C137 O138 1.218 . S
O138 C137 1.218 . S
C139 O132 1.275 . S
C139 O134 1.255 . S
C140 O141 1.258 . S
C140 O142 1.256 . S
O141 Cd133 2.381 . S
O141 C140 1.258 . S
O142 Cd133 2.378 . S
O142 C140 1.256 . S
O143 Cd144 2.300 . S
O143 C150 1.275 . S
Cd144 O143 2.300 . S
Cd144 O152 2.381 . S
Cd144 O153 2.378 . S
O145 Cd146 2.385 . S
O145 C150 1.255 . S
Cd146 O145 2.385 . S
Cd146 O147 2.317 . S
O147 Cd146 2.317 . S
O147 C148 1.232 . S
C148 O147 1.232 . S
C148 O149 1.218 . S
O149 C148 1.218 . S
C150 O143 1.275 . S
C150 O145 1.255 . S
C151 O152 1.258 . S
C151 O153 1.256 . S
O152 Cd144 2.381 . S
O152 C151 1.258 . S
O153 Cd144 2.378 . S
O153 C151 1.256 . S
O154 Cd155 2.300 . S
O154 C161 1.275 . S
Cd155 O154 2.300 . S
Cd155 O163 2.381 . S
Cd155 O164 2.378 . S
O156 Cd157 2.385 . S
O156 C161 1.255 . S
Cd157 O156 2.385 . S
Cd157 O158 2.317 . S
O158 Cd157 2.317 . S
O158 C159 1.232 . S
C159 O158 1.232 . S
C159 O160 1.218 . S
O160 C159 1.218 . S
C161 O154 1.275 . S
C161 O156 1.255 . S
C162 O163 1.258 . S
C162 O164 1.256 . S
O163 Cd155 2.381 . S
O163 C162 1.258 . S
O164 Cd155 2.378 . S
O164 C162 1.256 . S
O165 Cd166 2.300 . S
O165 C172 1.275 . S
Cd166 O165 2.300 . S
Cd166 O174 2.381 . S
Cd166 O175 2.378 . S
O167 Cd168 2.385 . S
O167 C172 1.255 . S
Cd168 O167 2.385 . S
Cd168 O169 2.317 . S
O169 Cd168 2.317 . S
O169 C170 1.232 . S
C170 O169 1.232 . S
C170 O171 1.218 . S
O171 C170 1.218 . S
C172 O165 1.275 . S
C172 O167 1.255 . S
C173 O174 1.258 . S
C173 O175 1.256 . S
O174 Cd166 2.381 . S
O174 C173 1.258 . S
O175 Cd166 2.378 . S
O175 C173 1.256 . S
O176 Cd177 2.300 . S
O176 C183 1.275 . S
Cd177 O176 2.300 . S
Cd177 O185 2.381 . S
Cd177 O186 2.378 . S
O178 Cd179 2.385 . S
O178 C183 1.255 . S
Cd179 O178 2.385 . S
Cd179 O180 2.317 . S
O180 Cd179 2.317 . S
O180 C181 1.232 . S
C181 O180 1.232 . S
C181 O182 1.218 . S
O182 C181 1.218 . S
C183 O176 1.275 . S
C183 O178 1.255 . S
C184 O185 1.258 . S
C184 O186 1.256 . S
O185 Cd177 2.381 . S
O185 C184 1.258 . S
O186 Cd177 2.378 . S
O186 C184 1.256 . S
O187 Cd188 2.300 . S
O187 C194 1.275 . S
Cd188 O187 2.300 . S
Cd188 O196 2.381 . S
Cd188 O197 2.378 . S
O189 Cd190 2.385 . S
O189 C194 1.255 . S
Cd190 O189 2.385 . S
Cd190 O191 2.317 . S
O191 Cd190 2.317 . S
O191 C192 1.232 . S
C192 O191 1.232 . S
C192 O193 1.218 . S
O193 C192 1.218 . S
C194 O187 1.275 . S
C194 O189 1.255 . S
C195 O196 1.258 . S
C195 O197 1.256 . S
O196 Cd188 2.381 . S
O196 C195 1.258 . S
O197 Cd188 2.378 . S
O197 C195 1.256 . S
O198 Cd199 2.300 . S
O198 C205 1.275 . S
Cd199 O198 2.300 . S
Cd199 O207 2.381 . S
Cd199 O208 2.378 . S
O200 Cd201 2.385 . S
O200 C205 1.255 . S
Cd201 O200 2.385 . S
Cd201 O202 2.317 . S
O202 Cd201 2.317 . S
O202 C203 1.232 . S
C203 O202 1.232 . S
C203 O204 1.218 . S
O204 C203 1.218 . S
C205 O198 1.275 . S
C205 O200 1.255 . S
C206 O207 1.258 . S
C206 O208 1.256 . S
O207 Cd199 2.381 . S
O207 C206 1.258 . S
O208 Cd199 2.378 . S
O208 C206 1.256 . S
O209 Cd210 2.300 . S
O209 C216 1.275 . S
Cd210 O209 2.300 . S
Cd210 O218 2.381 . S
Cd210 O219 2.378 . S
O211 Cd212 2.385 . S
O211 C216 1.255 . S
Cd212 O211 2.385 . S
Cd212 O213 2.317 . S
O213 Cd212 2.317 . S
O213 C214 1.232 . S
C214 O213 1.232 . S
C214 O215 1.218 . S
O215 C214 1.218 . S
C216 O209 1.275 . S
C216 O211 1.255 . S
C217 O218 1.258 . S
C217 O219 1.256 . S
O218 Cd210 2.381 . S
O218 C217 1.258 . S
O219 Cd210 2.378 . S
O219 C217 1.256 . S
O220 Cd221 2.300 . S
O220 C227 1.275 . S
Cd221 O220 2.300 . S
Cd221 O229 2.381 . S
Cd221 O230 2.378 . S
O222 Cd223 2.385 . S
O222 C227 1.255 . S
Cd223 O222 2.385 . S
Cd223 O224 2.317 . S
O224 Cd223 2.317 . S
O224 C225 1.232 . S
C225 O224 1.232 . S
C225 O226 1.218 . S
O226 C225 1.218 . S
C227 O220 1.275 . S
C227 O222 1.255 . S
C228 O229 1.258 . S
C228 O230 1.256 . S
O229 Cd221 2.381 . S
O229 C228 1.258 . S
O230 Cd221 2.378 . S
O230 C228 1.256 . S
O231 Cd232 2.300 . S
O231 C238 1.275 . S
Cd232 O231 2.300 . S
Cd232 O240 2.381 . S
Cd232 O241 2.378 . S
O233 Cd234 2.385 . S
O233 C238 1.255 . S
Cd234 O233 2.385 . S
Cd234 O235 2.317 . S
O235 Cd234 2.317 . S
O235 C236 1.232 . S
C236 O235 1.232 . S
C236 O237 1.218 . S
O237 C236 1.218 . S
C238 O231 1.275 . S
C238 O233 1.255 . S
C239 O240 1.258 . S
C239 O241 1.256 . S
O240 Cd232 2.381 . S
O240 C239 1.258 . S
O241 Cd232 2.378 . S
O241 C239 1.256 . S
O242 Cd243 2.300 . S
O242 C249 1.275 . S
Cd243 O242 2.300 . S
Cd243 O251 2.381 . S
Cd243 O252 2.378 . S
O244 Cd245 2.385 . S
O244 C249 1.255 . S
Cd245 O244 2.385 . S
Cd245 O246 2.317 . S
O246 Cd245 2.317 . S
O246 C247 1.232 . S
C247 O246 1.232 . S
C247 O248 1.218 . S
O248 C247 1.218 . S
C249 O242 1.275 . S
C249 O244 1.255 . S
C250 O251 1.258 . S
C250 O252 1.256 . S
O251 Cd243 2.381 . S
O251 C250 1.258 . S
O252 Cd243 2.378 . S
O252 C250 1.256 . S
O253 Cd254 2.300 . S
O253 C260 1.275 . S
Cd254 O253 2.300 . S
Cd254 O262 2.381 . S
Cd254 O263 2.378 . S
O255 Cd256 2.385 . S
O255 C260 1.255 . S
Cd256 O255 2.385 . S
Cd256 O257 2.317 . S
O257 Cd256 2.317 . S
O257 C258 1.232 . S
C258 O257 1.232 . S
C258 O259 1.218 . S
O259 C258 1.218 . S
C260 O253 1.275 . S
C260 O255 1.255 . S
C261 O262 1.258 . S
C261 O263 1.256 . S
O262 Cd254 2.381 . S
O262 C261 1.258 . S
O263 Cd254 2.378 . S
O263 C261 1.256 . S
O264 Cd265 2.300 . S
O264 C271 1.275 . S
Cd265 O264 2.300 . S
Cd265 O273 2.381 . S
Cd265 O274 2.378 . S
O266 Cd267 2.385 . S
O266 C271 1.255 . S
Cd267 O266 2.385 . S
Cd267 O268 2.317 . S
O268 Cd267 2.317 . S
O268 C269 1.232 . S
C269 O268 1.232 . S
C269 O270 1.218 . S
O270 C269 1.218 . S
C271 O264 1.275 . S
C271 O266 1.255 . S
C272 O273 1.258 . S
C272 O274 1.256 . S
O273 Cd265 2.381 . S
O273 C272 1.258 . S
O274 Cd265 2.378 . S
O274 C272 1.256 . S
O275 Cd276 2.300 . S
O275 C282 1.275 . S
Cd276 O275 2.300 . S
Cd276 O284 2.381 . S
Cd276 O285 2.378 . S
O277 Cd278 2.385 . S
O277 C282 1.255 . S
Cd278 O277 2.385 . S
Cd278 O279 2.317 . S
O279 Cd278 2.317 . S
O279 C280 1.232 . S
C280 O279 1.232 . S
C280 O281 1.218 . S
O281 C280 1.218 . S
C282 O275 1.275 . S
C282 O277 1.255 . S
C283 O284 1.258 . S
C283 O285 1.256 . S
O284 Cd276 2.381 . S
O284 C283 1.258 . S
O285 Cd276 2.378 . S
O285 C283 1.256 . S
O286 Cd287 2.300 . S
O286 C293 1.275 . S
Cd287 O286 2.300 . S
Cd287 O295 2.381 . S
Cd287 O296 2.378 . S
O288 Cd289 2.385 . S
O288 C293 1.255 . S
Cd289 O288 2.385 . S
Cd289 O290 2.317 . S
O290 Cd289 2.317 . S
O290 C291 1.232 . S
C291 O290 1.232 . S
C291 O292 1.218 . S
O292 C291 1.218 . S
C293 O286 1.275 . S
C293 O288 1.255 . S
C294 O295 1.258 . S
C294 O296 1.256 . S
O295 Cd287 2.381 . S
O295 C294 1.258 . S
O296 Cd287 2.378 . S
O296 C294 1.256 . S
O297 Cd298 2.300 . S
O297 C304 1.275 . S
Cd298 O297 2.300 . S
Cd298 O306 2.381 . S
Cd298 O307 2.378 . S
O299 Cd300 2.385 . S
O299 C304 1.255 . S
Cd300 O299 2.385 . S
Cd300 O301 2.317 . S
O301 Cd300 2.317 . S
O301 C302 1.232 . S
C302 O301 1.232 . S
C302 O303 1.218 . S
O303 C302 1.218 . S
C304 O297 1.275 . S
C304 O299 1.255 . S
C305 O306 1.258 . S
C305 O307 1.256 . S
O306 Cd298 2.381 . S
O306 C305 1.258 . S
O307 Cd298 2.378 . S
O307 C305 1.256 . S
O308 Cd309 2.300 . S
O308 C315 1.275 . S
Cd309 O308 2.300 . S
Cd309 O317 2.381 . S
Cd309 O318 2.378 . S
O310 Cd311 2.385 . S
O310 C315 1.255 . S
Cd311 O310 2.385 . S
Cd311 O312 2.317 . S
O312 Cd311 2.317 . S
O312 C313 1.232 . S
C313 O312 1.232 . S
C313 O314 1.218 . S
O314 C313 1.218 . S
C315 O308 1.275 . S
C315 O310 1.255 . S
C316 O317 1.258 . S
C316 O318 1.256 . S
O317 Cd309 2.381 . S
O317 C316 1.258 . S
O318 Cd309 2.378 . S
O318 C316 1.256 . S
O319 Cd320 2.300 . S
O319 C326 1.275 . S
Cd320 O319 2.300 . S
Cd320 O328 2.381 . S
Cd320 O329 2.378 . S
O321 Cd322 2.385 . S
O321 C326 1.255 . S
Cd322 O321 2.385 . S
Cd322 O323 2.317 . S
O323 Cd322 2.317 . S
O323 C324 1.232 . S
C324 O323 1.232 . S
C324 O325 1.218 . S
O325 C324 1.218 . S
C326 O319 1.275 . S
C326 O321 1.255 . S
C327 O328 1.258 . S
C327 O329 1.256 . S
O328 Cd320 2.381 . S
O328 C327 1.258 . S
O329 Cd320 2.378 . S
O329 C327 1.256 . S
O330 Cd331 2.300 . S
O330 C337 1.275 . S
Cd331 O330 2.300 . S
Cd331 O339 2.381 . S
Cd331 O340 2.378 . S
O332 Cd333 2.385 . S
O332 C337 1.255 . S
Cd333 O332 2.385 . S
Cd333 O334 2.317 . S
O334 Cd333 2.317 . S
O334 C335 1.232 . S
C335 O334 1.232 . S
C335 O336 1.218 . S
O336 C335 1.218 . S
C337 O330 1.275 . S
C337 O332 1.255 . S
C338 O339 1.258 . S
C338 O340 1.256 . S
O339 Cd331 2.381 . S
O339 C338 1.258 . S
O340 Cd331 2.378 . S
O340 C338 1.256 . S
O341 Cd342 2.300 . S
O341 C348 1.275 . S
Cd342 O341 2.300 . S
Cd342 O350 2.381 . S
Cd342 O351 2.378 . S
O343 Cd344 2.385 . S
O343 C348 1.255 . S
Cd344 O343 2.385 . S
Cd344 O345 2.317 . S
O345 Cd344 2.317 . S
O345 C346 1.232 . S
C346 O345 1.232 . S
C346 O347 1.218 . S
O347 C346 1.218 . S
C348 O341 1.275 . S
C348 O343 1.255 . S
C349 O350 1.258 . S
C349 O351 1.256 . S
O350 Cd342 2.381 . S
O350 C349 1.258 . S
O351 Cd342 2.378 . S
O351 C349 1.256 . S
H352 C371 0.949 1_554 S
H353 C372 0.950 . S
H354 C374 0.950 . S
H355 C375 0.950 . S
H356 C377 0.950 . S
H357 C380 0.950 . S
H358 C381 0.950 . S
H359 C383 0.951 . S
H360 C384 0.949 1_554 S
H361 C386 0.949 . S
H362 C387 0.950 . S
H363 C389 0.950 . S
H364 C390 0.950 . S
H365 C392 0.950 . S
H366 C395 0.950 . S
H367 C396 0.950 . S
H368 C398 0.951 . S
H369 C399 0.949 . S
C370 C371 1.376 . S
C370 C375 1.386 . S
C370 C376 1.483 1_556 S
C371 H352 0.949 1_556 S
C371 C370 1.376 . S
C371 C372 1.397 . S
C372 H353 0.950 . S
C372 C371 1.397 . S
C372 C373 1.391 . S
C373 C372 1.391 . S
C373 C374 1.405 . S
C374 H354 0.950 . S
C374 C373 1.405 . S
C374 C375 1.367 . S
C375 H355 0.950 . S
C375 C370 1.386 . S
C375 C374 1.367 . S
C376 C370 1.483 1_554 S
C376 C377 1.382 . S
C376 C378 1.403 . S
C377 H356 0.950 . S
C377 C376 1.382 . S
C377 C393 1.411 . S
C378 C376 1.403 . S
C378 C379 1.489 1_554 S
C378 C392 1.411 . S
C379 C378 1.489 1_556 S
C379 C380 1.383 . S
C379 C384 1.382 . S
C380 H357 0.950 . S
C380 C379 1.383 . S
C380 C381 1.395 . S
C381 H358 0.950 . S
C381 C380 1.395 . S
C381 C382 1.288 . S
C382 C381 1.288 . S
C382 C383 1.392 . S
C383 H359 0.951 . S
C383 C382 1.392 . S
C383 C384 1.392 . S
C384 H360 0.949 1_556 S
C384 C379 1.382 . S
C384 C383 1.392 . S
C385 C386 1.376 . S
C385 C390 1.386 . S
C385 C391 1.483 . S
C386 H361 0.949 . S
C386 C385 1.376 . S
C386 C387 1.397 . S
C387 H362 0.950 . S
C387 C386 1.397 . S
C387 C388 1.391 . S
C388 C387 1.391 . S
C388 C389 1.405 . S
C389 H363 0.950 . S
C389 C388 1.405 . S
C389 C390 1.367 . S
C390 H364 0.950 . S
C390 C385 1.386 . S
C390 C389 1.367 . S
C391 C385 1.483 . S
C391 C392 1.382 . S
C391 C393 1.403 . S
C392 H365 0.950 . S
C392 C378 1.411 . S
C392 C391 1.382 . S
C393 C377 1.411 . S
C393 C391 1.403 . S
C393 C394 1.489 . S
C394 C393 1.489 . S
C394 C395 1.383 . S
C394 C399 1.382 . S
C395 H366 0.950 . S
C395 C394 1.383 . S
C395 C396 1.395 . S
C396 H367 0.950 . S
C396 C395 1.395 . S
C396 C397 1.288 . S
C397 C396 1.288 . S
C397 C398 1.392 . S
C398 H368 0.951 . S
C398 C397 1.392 . S
C398 C399 1.392 . S
C399 H369 0.949 . S
C399 C394 1.382 . S
C399 C398 1.392 . S
H400 C419 0.949 . S
H401 C420 0.950 . S
H402 C422 0.950 . S
H403 C423 0.950 . S
H404 C425 0.950 . S
H405 C428 0.950 . S
H406 C429 0.950 . S
H407 C431 0.951 . S
H408 C432 0.949 . S
H409 C434 0.949 . S
H410 C435 0.950 . S
H411 C437 0.950 . S
H412 C438 0.950 . S
H413 C440 0.950 . S
H414 C443 0.950 . S
H415 C444 0.950 . S
H416 C446 0.951 . S
H417 C447 0.949 . S
C418 C419 1.376 . S
C418 C423 1.386 . S
C418 C424 1.483 . S
C419 H400 0.949 . S
C419 C418 1.376 . S
C419 C420 1.397 . S
C420 H401 0.950 . S
C420 C419 1.397 . S
C420 C421 1.391 . S
C421 C420 1.391 . S
C421 C422 1.405 . S
C422 H402 0.950 . S
C422 C421 1.405 . S
C422 C423 1.367 . S
C423 H403 0.950 . S
C423 C418 1.386 . S
C423 C422 1.367 . S
C424 C418 1.483 . S
C424 C425 1.382 . S
C424 C426 1.403 . S
C425 H404 0.950 . S
C425 C424 1.382 . S
C425 C441 1.411 1_556 S
C426 C424 1.403 . S
C426 C427 1.489 . S
C426 C440 1.411 1_556 S
C427 C426 1.489 . S
C427 C428 1.383 . S
C427 C432 1.382 . S
C428 H405 0.950 . S
C428 C427 1.383 . S
C428 C429 1.395 . S
C429 H406 0.950 . S
C429 C428 1.395 . S
C429 C430 1.288 . S
C430 C429 1.288 . S
C430 C431 1.392 . S
C431 H407 0.951 . S
C431 C430 1.392 . S
C431 C432 1.392 . S
C432 H408 0.949 . S
C432 C427 1.382 . S
C432 C431 1.392 . S
C433 C434 1.376 . S
C433 C438 1.386 . S
C433 C439 1.483 . S
C434 H409 0.949 . S
C434 C433 1.376 . S
C434 C435 1.397 . S
C435 H410 0.950 . S
C435 C434 1.397 . S
C435 C436 1.391 . S
C436 C435 1.391 . S
C436 C437 1.405 . S
C437 H411 0.950 . S
C437 C436 1.405 . S
C437 C438 1.367 . S
C438 H412 0.950 . S
C438 C433 1.386 . S
C438 C437 1.367 . S
C439 C433 1.483 . S
C439 C440 1.382 . S
C439 C441 1.403 . S
C440 H413 0.950 . S
C440 C426 1.411 1_554 S
C440 C439 1.382 . S
C441 C425 1.411 1_554 S
C441 C439 1.403 . S
C441 C442 1.489 . S
C442 C441 1.489 . S
C442 C443 1.383 . S
C442 C447 1.382 . S
C443 H414 0.950 . S
C443 C442 1.383 . S
C443 C444 1.395 . S
C444 H415 0.950 . S
C444 C443 1.395 . S
C444 C445 1.288 . S
C445 C444 1.288 . S
C445 C446 1.392 . S
C446 H416 0.951 . S
C446 C445 1.392 . S
C446 C447 1.392 . S
C447 H417 0.949 . S
C447 C442 1.382 . S
C447 C446 1.392 . S
H448 C467 0.949 . S
H449 C468 0.950 . S
H450 C470 0.950 . S
H451 C471 0.950 . S
H452 C473 0.950 . S
H453 C476 0.950 . S
H454 C477 0.950 . S
H455 C479 0.951 . S
H456 C480 0.949 . S
H457 C482 0.949 . S
H458 C483 0.950 . S
H459 C485 0.950 . S
H460 C486 0.950 . S
H461 C488 0.950 . S
H462 C491 0.950 . S
H463 C492 0.950 . S
H464 C494 0.951 . S
H465 C495 0.949 1_554 S
C466 C467 1.376 . S
C466 C471 1.386 . S
C466 C472 1.483 . S
C467 H448 0.949 . S
C467 C466 1.376 . S
C467 C468 1.397 . S
C468 H449 0.950 . S
C468 C467 1.397 . S
C468 C469 1.391 . S
C469 C468 1.391 . S
C469 C470 1.405 . S
C470 H450 0.950 . S
C470 C469 1.405 . S
C470 C471 1.367 . S
C471 H451 0.950 . S
C471 C466 1.386 . S
C471 C470 1.367 . S
C472 C466 1.483 . S
C472 C473 1.382 . S
C472 C474 1.403 . S
C473 H452 0.950 . S
C473 C472 1.382 . S
C473 C489 1.411 . S
C474 C472 1.403 . S
C474 C475 1.489 . S
C474 C488 1.411 . S
C475 C474 1.489 . S
C475 C476 1.383 . S
C475 C480 1.382 . S
C476 H453 0.950 . S
C476 C475 1.383 . S
C476 C477 1.395 . S
C477 H454 0.950 . S
C477 C476 1.395 . S
C477 C478 1.288 . S
C478 C477 1.288 . S
C478 C479 1.392 . S
C479 H455 0.951 . S
C479 C478 1.392 . S
C479 C480 1.392 . S
C480 H456 0.949 . S
C480 C475 1.382 . S
C480 C479 1.392 . S
C481 C482 1.376 . S
C481 C486 1.386 . S
C481 C487 1.483 1_556 S
C482 H457 0.949 . S
C482 C481 1.376 . S
C482 C483 1.397 . S
C483 H458 0.950 . S
C483 C482 1.397 . S
C483 C484 1.391 . S
C484 C483 1.391 . S
C484 C485 1.405 . S
C485 H459 0.950 . S
C485 C484 1.405 . S
C485 C486 1.367 . S
C486 H460 0.950 . S
C486 C481 1.386 . S
C486 C485 1.367 . S
C487 C481 1.483 1_554 S
C487 C488 1.382 . S
C487 C489 1.403 . S
C488 H461 0.950 . S
C488 C474 1.411 . S
C488 C487 1.382 . S
C489 C473 1.411 . S
C489 C487 1.403 . S
C489 C490 1.489 1_554 S
C490 C489 1.489 1_556 S
C490 C491 1.383 . S
C490 C495 1.382 . S
C491 H462 0.950 . S
C491 C490 1.383 . S
C491 C492 1.395 . S
C492 H463 0.950 . S
C492 C491 1.395 . S
C492 C493 1.288 . S
C493 C492 1.288 . S
C493 C494 1.392 . S
C494 H464 0.951 . S
C494 C493 1.392 . S
C494 C495 1.392 . S
C495 H465 0.949 1_556 S
C495 C490 1.382 . S
C495 C494 1.392 . S
H496 C515 0.949 . S
H497 C516 0.950 . S
H498 C518 0.950 . S
H499 C519 0.950 . S
H500 C521 0.950 . S
H501 C524 0.950 . S
H502 C525 0.950 . S
H503 C527 0.951 . S
H504 C528 0.949 . S
H505 C530 0.949 . S
H506 C531 0.950 . S
H507 C533 0.950 . S
H508 C534 0.950 . S
H509 C536 0.950 . S
H510 C539 0.950 . S
H511 C540 0.950 . S
H512 C542 0.951 . S
H513 C543 0.949 . S
C514 C515 1.376 . S
C514 C519 1.386 . S
C514 C520 1.483 . S
C515 H496 0.949 . S
C515 C514 1.376 . S
C515 C516 1.397 . S
C516 H497 0.950 . S
C516 C515 1.397 . S
C516 C517 1.391 . S
C517 C516 1.391 . S
C517 C518 1.405 . S
C518 H498 0.950 . S
C518 C517 1.405 . S
C518 C519 1.367 . S
C519 H499 0.950 . S
C519 C514 1.386 . S
C519 C518 1.367 . S
C520 C514 1.483 . S
C520 C521 1.382 . S
C520 C522 1.403 . S
C521 H500 0.950 . S
C521 C520 1.382 . S
C521 C537 1.411 1_556 S
C522 C520 1.403 . S
C522 C523 1.489 . S
C522 C536 1.411 1_556 S
C523 C522 1.489 . S
C523 C524 1.383 . S
C523 C528 1.382 . S
C524 H501 0.950 . S
C524 C523 1.383 . S
C524 C525 1.395 . S
C525 H502 0.950 . S
C525 C524 1.395 . S
C525 C526 1.288 . S
C526 C525 1.288 . S
C526 C527 1.392 . S
C527 H503 0.951 . S
C527 C526 1.392 . S
C527 C528 1.392 . S
C528 H504 0.949 . S
C528 C523 1.382 . S
C528 C527 1.392 . S
C529 C530 1.376 . S
C529 C534 1.386 . S
C529 C535 1.483 . S
C530 H505 0.949 . S
C530 C529 1.376 . S
C530 C531 1.397 . S
C531 H506 0.950 . S
C531 C530 1.397 . S
C531 C532 1.391 . S
C532 C531 1.391 . S
C532 C533 1.405 . S
C533 H507 0.950 . S
C533 C532 1.405 . S
C533 C534 1.367 . S
C534 H508 0.950 . S
C534 C529 1.386 . S
C534 C533 1.367 . S
C535 C529 1.483 . S
C535 C536 1.382 . S
C535 C537 1.403 . S
C536 H509 0.950 . S
C536 C522 1.411 1_554 S
C536 C535 1.382 . S
C537 C521 1.411 1_554 S
C537 C535 1.403 . S
C537 C538 1.489 . S
C538 C537 1.489 . S
C538 C539 1.383 . S
C538 C543 1.382 . S
C539 H510 0.950 . S
C539 C538 1.383 . S
C539 C540 1.395 . S
C540 H511 0.950 . S
C540 C539 1.395 . S
C540 C541 1.288 . S
C541 C540 1.288 . S
C541 C542 1.392 . S
C542 H512 0.951 . S
C542 C541 1.392 . S
C542 C543 1.392 . S
C543 H513 0.949 . S
C543 C538 1.382 . S
C543 C542 1.392 . S
H544 C563 0.949 . S
H545 C564 0.950 . S
H546 C566 0.950 . S
H547 C567 0.950 . S
H548 C569 0.950 . S
H549 C572 0.950 . S
H550 C573 0.950 . S
H551 C575 0.951 . S
H552 C576 0.949 . S
H553 C578 0.949 . S
H554 C579 0.950 . S
H555 C581 0.950 . S
H556 C582 0.950 . S
H557 C584 0.950 . S
H558 C587 0.950 . S
H559 C588 0.950 . S
H560 C590 0.951 . S
H561 C591 0.949 . S
C562 C563 1.376 . S
C562 C567 1.386 . S
C562 C568 1.483 . S
C563 H544 0.949 . S
C563 C562 1.376 . S
C563 C564 1.397 . S
C564 H545 0.950 . S
C564 C563 1.397 . S
C564 C565 1.391 . S
C565 C564 1.391 . S
C565 C566 1.405 . S
C566 H546 0.950 . S
C566 C565 1.405 . S
C566 C567 1.367 . S
C567 H547 0.950 . S
C567 C562 1.386 . S
C567 C566 1.367 . S
C568 C562 1.483 . S
C568 C569 1.382 . S
C568 C570 1.403 . S
C569 H548 0.950 . S
C569 C568 1.382 . S
C569 C585 1.411 1_455 S
C570 C568 1.403 . S
C570 C571 1.489 . S
C570 C584 1.411 . S
C571 C570 1.489 . S
C571 C572 1.383 . S
C571 C576 1.382 . S
C572 H549 0.950 . S
C572 C571 1.383 . S
C572 C573 1.395 . S
C573 H550 0.950 . S
C573 C572 1.395 . S
C573 C574 1.288 . S
C574 C573 1.288 . S
C574 C575 1.392 . S
C575 H551 0.951 . S
C575 C574 1.392 . S
C575 C576 1.392 . S
C576 H552 0.949 . S
C576 C571 1.382 . S
C576 C575 1.392 . S
C577 C578 1.376 . S
C577 C582 1.386 . S
C577 C583 1.483 . S
C578 H553 0.949 . S
C578 C577 1.376 . S
C578 C579 1.397 . S
C579 H554 0.950 . S
C579 C578 1.397 . S
C579 C580 1.391 . S
C580 C579 1.391 . S
C580 C581 1.405 . S
C581 H555 0.950 . S
C581 C580 1.405 . S
C581 C582 1.367 . S
C582 H556 0.950 . S
C582 C577 1.386 . S
C582 C581 1.367 . S
C583 C577 1.483 . S
C583 C584 1.382 1_655 S
C583 C585 1.403 . S
C584 H557 0.950 . S
C584 C570 1.411 . S
C584 C583 1.382 1_455 S
C585 C569 1.411 1_655 S
C585 C583 1.403 . S
C585 C586 1.489 . S
C586 C585 1.489 . S
C586 C587 1.383 . S
C586 C591 1.382 . S
C587 H558 0.950 . S
C587 C586 1.383 . S
C587 C588 1.395 . S
C588 H559 0.950 . S
C588 C587 1.395 . S
C588 C589 1.288 . S
C589 C588 1.288 . S
C589 C590 1.392 . S
C590 H560 0.951 . S
C590 C589 1.392 . S
C590 C591 1.392 . S
C591 H561 0.949 . S
C591 C586 1.382 . S
C591 C590 1.392 . S
H592 C611 0.949 . S
H593 C612 0.950 . S
H594 C614 0.950 . S
H595 C615 0.950 . S
H596 C617 0.950 . S
H597 C620 0.950 . S
H598 C621 0.950 . S
H599 C623 0.951 . S
H600 C624 0.949 . S
H601 C626 0.949 . S
H602 C627 0.950 . S
H603 C629 0.950 . S
H604 C630 0.950 . S
H605 C632 0.950 . S
H606 C635 0.950 . S
H607 C636 0.950 . S
H608 C638 0.951 . S
H609 C639 0.949 . S
C610 C611 1.376 . S
C610 C615 1.386 . S
C610 C616 1.483 . S
C611 H592 0.949 . S
C611 C610 1.376 . S
C611 C612 1.397 . S
C612 H593 0.950 . S
C612 C611 1.397 . S
C612 C613 1.391 . S
C613 C612 1.391 . S
C613 C614 1.405 . S
C614 H594 0.950 . S
C614 C613 1.405 . S
C614 C615 1.367 . S
C615 H595 0.950 . S
C615 C610 1.386 . S
C615 C614 1.367 . S
C616 C610 1.483 . S
C616 C617 1.382 . S
C616 C618 1.403 . S
C617 H596 0.950 . S
C617 C616 1.382 . S
C617 C633 1.411 1_545 S
C618 C616 1.403 . S
C618 C619 1.489 . S
C618 C632 1.411 . S
C619 C618 1.489 . S
C619 C620 1.383 . S
C619 C624 1.382 . S
C620 H597 0.950 . S
C620 C619 1.383 . S
C620 C621 1.395 . S
C621 H598 0.950 . S
C621 C620 1.395 . S
C621 C622 1.288 . S
C622 C621 1.288 . S
C622 C623 1.392 . S
C623 H599 0.951 . S
C623 C622 1.392 . S
C623 C624 1.392 . S
C624 H600 0.949 . S
C624 C619 1.382 . S
C624 C623 1.392 . S
C625 C626 1.376 . S
C625 C630 1.386 . S
C625 C631 1.483 . S
C626 H601 0.949 . S
C626 C625 1.376 . S
C626 C627 1.397 . S
C627 H602 0.950 . S
C627 C626 1.397 . S
C627 C628 1.391 . S
C628 C627 1.391 . S
C628 C629 1.405 . S
C629 H603 0.950 . S
C629 C628 1.405 . S
C629 C630 1.367 . S
C630 H604 0.950 . S
C630 C625 1.386 . S
C630 C629 1.367 . S
C631 C625 1.483 . S
C631 C632 1.382 1_565 S
C631 C633 1.403 . S
C632 H605 0.950 . S
C632 C618 1.411 . S
C632 C631 1.382 1_545 S
C633 C617 1.411 1_565 S
C633 C631 1.403 . S
C633 C634 1.489 . S
C634 C633 1.489 . S
C634 C635 1.383 . S
C634 C639 1.382 . S
C635 H606 0.950 . S
C635 C634 1.383 . S
C635 C636 1.395 . S
C636 H607 0.950 . S
C636 C635 1.395 . S
C636 C637 1.288 . S
C637 C636 1.288 . S
C637 C638 1.392 . S
C638 H608 0.951 . S
C638 C637 1.392 . S
C638 C639 1.392 . S
C639 H609 0.949 . S
C639 C634 1.382 . S
C639 C638 1.392 . S
H640 C659 0.949 . S
H641 C660 0.950 . S
H642 C662 0.950 . S
H643 C663 0.950 . S
H644 C665 0.950 . S
H645 C668 0.950 . S
H646 C669 0.950 . S
H647 C671 0.951 . S
H648 C672 0.949 . S
H649 C674 0.949 . S
H650 C675 0.950 . S
H651 C677 0.950 . S
H652 C678 0.950 . S
H653 C680 0.950 . S
H654 C683 0.950 1_455 S
H655 C684 0.950 . S
H656 C686 0.951 . S
H657 C687 0.949 . S
C658 C659 1.376 . S
C658 C663 1.386 . S
C658 C664 1.483 . S
C659 H640 0.949 . S
C659 C658 1.376 . S
C659 C660 1.397 . S
C660 H641 0.950 . S
C660 C659 1.397 . S
C660 C661 1.391 . S
C661 C660 1.391 . S
C661 C662 1.405 . S
C662 H642 0.950 . S
C662 C661 1.405 . S
C662 C663 1.367 . S
C663 H643 0.950 . S
C663 C658 1.386 . S
C663 C662 1.367 . S
C664 C658 1.483 . S
C664 C665 1.382 . S
C664 C666 1.403 . S
C665 H644 0.950 . S
C665 C664 1.382 . S
C665 C681 1.411 . S
C666 C664 1.403 . S
C666 C667 1.489 . S
C666 C680 1.411 . S
C667 C666 1.489 . S
C667 C668 1.383 . S
C667 C672 1.382 . S
C668 H645 0.950 . S
C668 C667 1.383 . S
C668 C669 1.395 . S
C669 H646 0.950 . S
C669 C668 1.395 . S
C669 C670 1.288 . S
C670 C669 1.288 . S
C670 C671 1.392 . S
C671 H647 0.951 . S
C671 C670 1.392 . S
C671 C672 1.392 . S
C672 H648 0.949 . S
C672 C667 1.382 . S
C672 C671 1.392 . S
C673 C674 1.376 . S
C673 C678 1.386 . S
C673 C679 1.483 . S
C674 H649 0.949 . S
C674 C673 1.376 . S
C674 C675 1.397 . S
C675 H650 0.950 . S
C675 C674 1.397 . S
C675 C676 1.391 1_455 S
C676 C675 1.391 1_655 S
C676 C677 1.405 . S
C677 H651 0.950 . S
C677 C676 1.405 . S
C677 C678 1.367 1_655 S
C678 H652 0.950 . S
C678 C673 1.386 . S
C678 C677 1.367 1_455 S
C679 C673 1.483 . S
C679 C680 1.382 . S
C679 C681 1.403 . S
C680 H653 0.950 . S
C680 C666 1.411 . S
C680 C679 1.382 . S
C681 C665 1.411 . S
C681 C679 1.403 . S
C681 C682 1.489 . S
C682 C681 1.489 . S
C682 C683 1.383 1_455 S
C682 C687 1.382 . S
C683 H654 0.950 1_655 S
C683 C682 1.383 1_655 S
C683 C684 1.395 . S
C684 H655 0.950 . S
C684 C683 1.395 . S
C684 C685 1.288 . S
C685 C684 1.288 . S
C685 C686 1.392 . S
C686 H656 0.951 . S
C686 C685 1.392 . S
C686 C687 1.392 1_655 S
C687 H657 0.949 . S
C687 C682 1.382 . S
C687 C686 1.392 1_455 S
H688 C707 0.949 . S
H689 C708 0.950 . S
H690 C710 0.950 . S
H691 C711 0.950 . S
H692 C713 0.950 . S
H693 C716 0.950 . S
H694 C717 0.950 . S
H695 C719 0.951 . S
H696 C720 0.949 . S
H697 C722 0.949 . S
H698 C723 0.950 . S
H699 C725 0.950 . S
H700 C726 0.950 . S
H701 C728 0.950 . S
H702 C731 0.950 . S
H703 C732 0.950 . S
H704 C734 0.951 . S
H705 C735 0.949 . S
C706 C707 1.376 . S
C706 C711 1.386 . S
C706 C712 1.483 . S
C707 H688 0.949 . S
C707 C706 1.376 . S
C707 C708 1.397 . S
C708 H689 0.950 . S
C708 C707 1.397 . S
C708 C709 1.391 . S
C709 C708 1.391 . S
C709 C710 1.405 . S
C710 H690 0.950 . S
C710 C709 1.405 . S
C710 C711 1.367 . S
C711 H691 0.950 . S
C711 C706 1.386 . S
C711 C710 1.367 . S
C712 C706 1.483 . S
C712 C713 1.382 . S
C712 C714 1.403 . S
C713 H692 0.950 . S
C713 C712 1.382 . S
C713 C729 1.411 1_545 S
C714 C712 1.403 . S
C714 C715 1.489 . S
C714 C728 1.411 . S
C715 C714 1.489 . S
C715 C716 1.383 . S
C715 C720 1.382 . S
C716 H693 0.950 . S
C716 C715 1.383 . S
C716 C717 1.395 . S
C717 H694 0.950 . S
C717 C716 1.395 . S
C717 C718 1.288 . S
C718 C717 1.288 . S
C718 C719 1.392 . S
C719 H695 0.951 . S
C719 C718 1.392 . S
C719 C720 1.392 . S
C720 H696 0.949 . S
C720 C715 1.382 . S
C720 C719 1.392 . S
C721 C722 1.376 . S
C721 C726 1.386 . S
C721 C727 1.483 . S
C722 H697 0.949 . S
C722 C721 1.376 . S
C722 C723 1.397 . S
C723 H698 0.950 . S
C723 C722 1.397 . S
C723 C724 1.391 . S
C724 C723 1.391 . S
C724 C725 1.405 . S
C725 H699 0.950 . S
C725 C724 1.405 . S
C725 C726 1.367 . S
C726 H700 0.950 . S
C726 C721 1.386 . S
C726 C725 1.367 . S
C727 C721 1.483 . S
C727 C728 1.382 1_565 S
C727 C729 1.403 . S
C728 H701 0.950 . S
C728 C714 1.411 . S
C728 C727 1.382 1_545 S
C729 C713 1.411 1_565 S
C729 C727 1.403 . S
C729 C730 1.489 . S
C730 C729 1.489 . S
C730 C731 1.383 . S
C730 C735 1.382 . S
C731 H702 0.950 . S
C731 C730 1.383 . S
C731 C732 1.395 . S
C732 H703 0.950 . S
C732 C731 1.395 . S
C732 C733 1.288 . S
C733 C732 1.288 . S
C733 C734 1.392 . S
C734 H704 0.951 . S
C734 C733 1.392 . S
C734 C735 1.392 . S
C735 H705 0.949 . S
C735 C730 1.382 . S
C735 C734 1.392 . S
H736 C755 0.949 . S
H737 C756 0.950 . S
H738 C758 0.950 . S
H739 C759 0.950 . S
H740 C761 0.950 . S
H741 C764 0.950 . S
H742 C765 0.950 . S
H743 C767 0.951 . S
H744 C768 0.949 . S
H745 C770 0.949 . S
H746 C771 0.950 . S
H747 C773 0.950 . S
H748 C774 0.950 . S
H749 C776 0.950 . S
H750 C779 0.950 . S
H751 C780 0.950 . S
H752 C782 0.951 . S
H753 C783 0.949 . S
C754 C755 1.376 . S
C754 C759 1.386 . S
C754 C760 1.483 . S
C755 H736 0.949 . S
C755 C754 1.376 . S
C755 C756 1.397 . S
C756 H737 0.950 . S
C756 C755 1.397 . S
C756 C757 1.391 . S
C757 C756 1.391 . S
C757 C758 1.405 . S
C758 H738 0.950 . S
C758 C757 1.405 . S
C758 C759 1.367 . S
C759 H739 0.950 . S
C759 C754 1.386 . S
C759 C758 1.367 . S
C760 C754 1.483 . S
C760 C761 1.382 . S
C760 C762 1.403 . S
C761 H740 0.950 . S
C761 C760 1.382 . S
C761 C777 1.411 1_455 S
C762 C760 1.403 . S
C762 C763 1.489 . S
C762 C776 1.411 . S
C763 C762 1.489 . S
C763 C764 1.383 . S
C763 C768 1.382 . S
C764 H741 0.950 . S
C764 C763 1.383 . S
C764 C765 1.395 . S
C765 H742 0.950 . S
C765 C764 1.395 . S
C765 C766 1.288 . S
C766 C765 1.288 . S
C766 C767 1.392 . S
C767 H743 0.951 . S
C767 C766 1.392 . S
C767 C768 1.392 . S
C768 H744 0.949 . S
C768 C763 1.382 . S
C768 C767 1.392 . S
C769 C770 1.376 . S
C769 C774 1.386 . S
C769 C775 1.483 . S
C770 H745 0.949 . S
C770 C769 1.376 . S
C770 C771 1.397 . S
C771 H746 0.950 . S
C771 C770 1.397 . S
C771 C772 1.391 . S
C772 C771 1.391 . S
C772 C773 1.405 . S
C773 H747 0.950 . S
C773 C772 1.405 . S
C773 C774 1.367 . S
C774 H748 0.950 . S
C774 C769 1.386 . S
C774 C773 1.367 . S
C775 C769 1.483 . S
C775 C776 1.382 1_655 S
C775 C777 1.403 . S
C776 H749 0.950 . S
C776 C762 1.411 . S
C776 C775 1.382 1_455 S
C777 C761 1.411 1_655 S
C777 C775 1.403 . S
C777 C778 1.489 . S
C778 C777 1.489 . S
C778 C779 1.383 . S
C778 C783 1.382 . S
C779 H750 0.950 . S
C779 C778 1.383 . S
C779 C780 1.395 . S
C780 H751 0.950 . S
C780 C779 1.395 . S
C780 C781 1.288 . S
C781 C780 1.288 . S
C781 C782 1.392 . S
C782 H752 0.951 . S
C782 C781 1.392 . S
C782 C783 1.392 . S
C783 H753 0.949 . S
C783 C778 1.382 . S
C783 C782 1.392 . S
H784 C803 0.949 . S
H785 C804 0.950 . S
H786 C806 0.950 . S
H787 C807 0.950 . S
H788 C809 0.950 . S
H789 C812 0.950 . S
H790 C813 0.950 . S
H791 C815 0.951 . S
H792 C816 0.949 . S
H793 C818 0.949 . S
H794 C819 0.950 . S
H795 C821 0.950 . S
H796 C822 0.950 . S
H797 C824 0.950 . S
H798 C827 0.950 . S
H799 C828 0.950 . S
H800 C830 0.951 . S
H801 C831 0.949 . S
C802 C803 1.376 . S
C802 C807 1.386 . S
C802 C808 1.483 . S
C803 H784 0.949 . S
C803 C802 1.376 . S
C803 C804 1.397 . S
C804 H785 0.950 . S
C804 C803 1.397 . S
C804 C805 1.391 . S
C805 C804 1.391 . S
C805 C806 1.405 . S
C806 H786 0.950 . S
C806 C805 1.405 . S
C806 C807 1.367 . S
C807 H787 0.950 . S
C807 C802 1.386 . S
C807 C806 1.367 . S
C808 C802 1.483 . S
C808 C809 1.382 . S
C808 C810 1.403 . S
C809 H788 0.950 . S
C809 C808 1.382 . S
C809 C825 1.411 1_545 S
C810 C808 1.403 . S
C810 C811 1.489 . S
C810 C824 1.411 . S
C811 C810 1.489 . S
C811 C812 1.383 . S
C811 C816 1.382 . S
C812 H789 0.950 . S
C812 C811 1.383 . S
C812 C813 1.395 . S
C813 H790 0.950 . S
C813 C812 1.395 . S
C813 C814 1.288 . S
C814 C813 1.288 . S
C814 C815 1.392 . S
C815 H791 0.951 . S
C815 C814 1.392 . S
C815 C816 1.392 . S
C816 H792 0.949 . S
C816 C811 1.382 . S
C816 C815 1.392 . S
C817 C818 1.376 . S
C817 C822 1.386 . S
C817 C823 1.483 . S
C818 H793 0.949 . S
C818 C817 1.376 . S
C818 C819 1.397 . S
C819 H794 0.950 . S
C819 C818 1.397 . S
C819 C820 1.391 . S
C820 C819 1.391 . S
C820 C821 1.405 . S
C821 H795 0.950 . S
C821 C820 1.405 . S
C821 C822 1.367 . S
C822 H796 0.950 . S
C822 C817 1.386 . S
C822 C821 1.367 . S
C823 C817 1.483 . S
C823 C824 1.382 1_565 S
C823 C825 1.403 . S
C824 H797 0.950 . S
C824 C810 1.411 . S
C824 C823 1.382 1_545 S
C825 C809 1.411 1_565 S
C825 C823 1.403 . S
C825 C826 1.489 . S
C826 C825 1.489 . S
C826 C827 1.383 . S
C826 C831 1.382 . S
C827 H798 0.950 . S
C827 C826 1.383 . S
C827 C828 1.395 . S
C828 H799 0.950 . S
C828 C827 1.395 . S
C828 C829 1.288 . S
C829 C828 1.288 . S
C829 C830 1.392 . S
C830 H800 0.951 . S
C830 C829 1.392 . S
C830 C831 1.392 . S
C831 H801 0.949 . S
C831 C826 1.382 . S
C831 C830 1.392 . S
H832 C851 0.949 . S
H833 C852 0.950 . S
H834 C854 0.950 . S
H835 C855 0.950 . S
H836 C857 0.950 . S
H837 C860 0.950 . S
H838 C861 0.950 . S
H839 C863 0.951 . S
H840 C864 0.949 . S
H841 C866 0.949 . S
H842 C867 0.950 . S
H843 C869 0.950 . S
H844 C870 0.950 . S
H845 C872 0.950 . S
H846 C875 0.950 . S
H847 C876 0.950 . S
H848 C878 0.951 . S
H849 C879 0.949 . S
C850 C851 1.376 . S
C850 C855 1.386 . S
C850 C856 1.483 . S
C851 H832 0.949 . S
C851 C850 1.376 . S
C851 C852 1.397 1_455 S
C852 H833 0.950 . S
C852 C851 1.397 1_655 S
C852 C853 1.391 . S
C853 C852 1.391 . S
C853 C854 1.405 . S
C854 H834 0.950 . S
C854 C853 1.405 . S
C854 C855 1.367 1_655 S
C855 H835 0.950 . S
C855 C850 1.386 . S
C855 C854 1.367 1_455 S
C856 C850 1.483 . S
C856 C857 1.382 . S
C856 C858 1.403 . S
C857 H836 0.950 . S
C857 C856 1.382 . S
C857 C873 1.411 . S
C858 C856 1.403 . S
C858 C859 1.489 . S
C858 C872 1.411 . S
C859 C858 1.489 . S
C859 C860 1.383 1_455 S
C859 C864 1.382 . S
C860 H837 0.950 . S
C860 C859 1.383 1_655 S
C860 C861 1.395 . S
C861 H838 0.950 . S
C861 C860 1.395 . S
C861 C862 1.288 . S
C862 C861 1.288 . S
C862 C863 1.392 . S
C863 H839 0.951 . S
C863 C862 1.392 . S
C863 C864 1.392 1_655 S
C864 H840 0.949 . S
C864 C859 1.382 . S
C864 C863 1.392 1_455 S
C865 C866 1.376 . S
C865 C870 1.386 . S
C865 C871 1.483 . S
C866 H841 0.949 . S
C866 C865 1.376 . S
C866 C867 1.397 . S
C867 H842 0.950 . S
C867 C866 1.397 . S
C867 C868 1.391 . S
C868 C867 1.391 . S
C868 C869 1.405 . S
C869 H843 0.950 . S
C869 C868 1.405 . S
C869 C870 1.367 . S
C870 H844 0.950 . S
C870 C865 1.386 . S
C870 C869 1.367 . S
C871 C865 1.483 . S
C871 C872 1.382 . S
C871 C873 1.403 . S
C872 H845 0.950 . S
C872 C858 1.411 . S
C872 C871 1.382 . S
C873 C857 1.411 . S
C873 C871 1.403 . S
C873 C874 1.489 . S
C874 C873 1.489 . S
C874 C875 1.383 . S
C874 C879 1.382 . S
C875 H846 0.950 . S
C875 C874 1.383 . S
C875 C876 1.395 . S
C876 H847 0.950 . S
C876 C875 1.395 . S
C876 C877 1.288 . S
C877 C876 1.288 . S
C877 C878 1.392 . S
C878 H848 0.951 . S
C878 C877 1.392 . S
C878 C879 1.392 . S
C879 H849 0.949 . S
C879 C874 1.382 . S
C879 C878 1.392 . S
H880 C899 0.949 . S
H881 C900 0.950 . S
H882 C902 0.950 . S
H883 C903 0.950 . S
H884 C905 0.950 . S
H885 C908 0.950 . S
H886 C909 0.950 . S
H887 C911 0.951 . S
H888 C912 0.949 . S
H889 C914 0.949 . S
H890 C915 0.950 . S
H891 C917 0.950 . S
H892 C918 0.950 . S
H893 C920 0.950 . S
H894 C923 0.950 . S
H895 C924 0.950 . S
H896 C926 0.951 . S
H897 C927 0.949 . S
C898 C899 1.376 . S
C898 C903 1.386 . S
C898 C904 1.483 . S
C899 H880 0.949 . S
C899 C898 1.376 . S
C899 C900 1.397 . S
C900 H881 0.950 . S
C900 C899 1.397 . S
C900 C901 1.391 . S
C901 C900 1.391 . S
C901 C902 1.405 . S
C902 H882 0.950 . S
C902 C901 1.405 . S
C902 C903 1.367 . S
C903 H883 0.950 . S
C903 C898 1.386 . S
C903 C902 1.367 . S
C904 C898 1.483 . S
C904 C905 1.382 . S
C904 C906 1.403 . S
C905 H884 0.950 . S
C905 C904 1.382 . S
C905 C921 1.411 1_545 S
C906 C904 1.403 . S
C906 C907 1.489 . S
C906 C920 1.411 . S
C907 C906 1.489 . S
C907 C908 1.383 . S
C907 C912 1.382 . S
C908 H885 0.950 . S
C908 C907 1.383 . S
C908 C909 1.395 . S
C909 H886 0.950 . S
C909 C908 1.395 . S
C909 C910 1.288 . S
C910 C909 1.288 . S
C910 C911 1.392 . S
C911 H887 0.951 . S
C911 C910 1.392 . S
C911 C912 1.392 . S
C912 H888 0.949 . S
C912 C907 1.382 . S
C912 C911 1.392 . S
C913 C914 1.376 . S
C913 C918 1.386 . S
C913 C919 1.483 . S
C914 H889 0.949 . S
C914 C913 1.376 . S
C914 C915 1.397 . S
C915 H890 0.950 . S
C915 C914 1.397 . S
C915 C916 1.391 . S
C916 C915 1.391 . S
C916 C917 1.405 . S
C917 H891 0.950 . S
C917 C916 1.405 . S
C917 C918 1.367 . S
C918 H892 0.950 . S
C918 C913 1.386 . S
C918 C917 1.367 . S
C919 C913 1.483 . S
C919 C920 1.382 1_565 S
C919 C921 1.403 . S
C920 H893 0.950 . S
C920 C906 1.411 . S
C920 C919 1.382 1_545 S
C921 C905 1.411 1_565 S
C921 C919 1.403 . S
C921 C922 1.489 . S
C922 C921 1.489 . S
C922 C923 1.383 . S
C922 C927 1.382 . S
C923 H894 0.950 . S
C923 C922 1.383 . S
C923 C924 1.395 . S
C924 H895 0.950 . S
C924 C923 1.395 . S
C924 C925 1.288 . S
C925 C924 1.288 . S
C925 C926 1.392 . S
C926 H896 0.951 . S
C926 C925 1.392 . S
C926 C927 1.392 . S
C927 H897 0.949 . S
C927 C922 1.382 . S
C927 C926 1.392 . S
H928 C947 0.949 . S
H929 C948 0.950 . S
H930 C950 0.950 . S
H931 C951 0.950 . S
H932 C953 0.950 . S
H933 C956 0.950 . S
H934 C957 0.950 . S
H935 C959 0.951 . S
H936 C960 0.949 . S
H937 C962 0.949 . S
H938 C963 0.950 . S
H939 C965 0.950 . S
H940 C966 0.950 . S
H941 C968 0.950 . S
H942 C971 0.950 . S
H943 C972 0.950 . S
H944 C974 0.951 . S
H945 C975 0.949 . S
C946 C947 1.376 . S
C946 C951 1.386 . S
C946 C952 1.483 . S
C947 H928 0.949 . S
C947 C946 1.376 . S
C947 C948 1.397 . S
C948 H929 0.950 . S
C948 C947 1.397 . S
C948 C949 1.391 . S
C949 C948 1.391 . S
C949 C950 1.405 . S
C950 H930 0.950 . S
C950 C949 1.405 . S
C950 C951 1.367 . S
C951 H931 0.950 . S
C951 C946 1.386 . S
C951 C950 1.367 . S
C952 C946 1.483 . S
C952 C953 1.382 . S
C952 C954 1.403 . S
C953 H932 0.950 . S
C953 C952 1.382 . S
C953 C969 1.411 . S
C954 C952 1.403 . S
C954 C955 1.489 . S
C954 C968 1.411 . S
C955 C954 1.489 . S
C955 C956 1.383 . S
C955 C960 1.382 . S
C956 H933 0.950 . S
C956 C955 1.383 . S
C956 C957 1.395 . S
C957 H934 0.950 . S
C957 C956 1.395 . S
C957 C958 1.288 . S
C958 C957 1.288 . S
C958 C959 1.392 . S
C959 H935 0.951 . S
C959 C958 1.392 . S
C959 C960 1.392 . S
C960 H936 0.949 . S
C960 C955 1.382 . S
C960 C959 1.392 . S
C961 C962 1.376 . S
C961 C966 1.386 . S
C961 C967 1.483 . S
C962 H937 0.949 . S
C962 C961 1.376 . S
C962 C963 1.397 . S
C963 H938 0.950 . S
C963 C962 1.397 . S
C963 C964 1.391 . S
C964 C963 1.391 . S
C964 C965 1.405 . S
C965 H939 0.950 . S
C965 C964 1.405 . S
C965 C966 1.367 . S
C966 H940 0.950 . S
C966 C961 1.386 . S
C966 C965 1.367 . S
C967 C961 1.483 . S
C967 C968 1.382 . S
C967 C969 1.403 . S
C968 H941 0.950 . S
C968 C954 1.411 . S
C968 C967 1.382 . S
C969 C953 1.411 . S
C969 C967 1.403 . S
C969 C970 1.489 . S
C970 C969 1.489 . S
C970 C971 1.383 . S
C970 C975 1.382 . S
C971 H942 0.950 . S
C971 C970 1.383 . S
C971 C972 1.395 . S
C972 H943 0.950 . S
C972 C971 1.395 . S
C972 C973 1.288 . S
C973 C972 1.288 . S
C973 C974 1.392 . S
C974 H944 0.951 . S
C974 C973 1.392 . S
C974 C975 1.392 . S
C975 H945 0.949 . S
C975 C970 1.382 . S
C975 C974 1.392 . S
H976 C995 0.949 . S
H977 C996 0.950 . S
H978 C998 0.950 . S
H979 C999 0.950 . S
H980 C1001 0.950 . S
H981 C1004 0.950 . S
H982 C1005 0.950 . S
H983 C1007 0.951 . S
H984 C1008 0.949 . S
H985 C1010 0.949 . S
H986 C1011 0.950 . S
H987 C1013 0.950 . S
H988 C1014 0.950 . S
H989 C1016 0.950 . S
H990 C1019 0.950 . S
H991 C1020 0.950 . S
H992 C1022 0.951 . S
H993 C1023 0.949 . S
C994 C995 1.376 . S
C994 C999 1.386 . S
C994 C1000 1.483 . S
C995 H976 0.949 . S
C995 C994 1.376 . S
C995 C996 1.397 . S
C996 H977 0.950 . S
C996 C995 1.397 . S
C996 C997 1.391 . S
C997 C996 1.391 . S
C997 C998 1.405 . S
C998 H978 0.950 . S
C998 C997 1.405 . S
C998 C999 1.367 . S
C999 H979 0.950 . S
C999 C994 1.386 . S
C999 C998 1.367 . S
C1000 C994 1.483 . S
C1000 C1001 1.382 . S
C1000 C1002 1.403 . S
C1001 H980 0.950 . S
C1001 C1000 1.382 . S
C1001 C1017 1.411 . S
C1002 C1000 1.403 . S
C1002 C1003 1.489 . S
C1002 C1016 1.411 . S
C1003 C1002 1.489 . S
C1003 C1004 1.383 . S
C1003 C1008 1.382 . S
C1004 H981 0.950 . S
C1004 C1003 1.383 . S
C1004 C1005 1.395 . S
C1005 H982 0.950 . S
C1005 C1004 1.395 . S
C1005 C1006 1.288 . S
C1006 C1005 1.288 . S
C1006 C1007 1.392 . S
C1007 H983 0.951 . S
C1007 C1006 1.392 . S
C1007 C1008 1.392 . S
C1008 H984 0.949 . S
C1008 C1003 1.382 . S
C1008 C1007 1.392 . S
C1009 C1010 1.376 . S
C1009 C1014 1.386 . S
C1009 C1015 1.483 . S
C1010 H985 0.949 . S
C1010 C1009 1.376 . S
C1010 C1011 1.397 . S
C1011 H986 0.950 . S
C1011 C1010 1.397 . S
C1011 C1012 1.391 . S
C1012 C1011 1.391 . S
C1012 C1013 1.405 . S
C1013 H987 0.950 . S
C1013 C1012 1.405 . S
C1013 C1014 1.367 . S
C1014 H988 0.950 . S
C1014 C1009 1.386 . S
C1014 C1013 1.367 . S
C1015 C1009 1.483 . S
C1015 C1016 1.382 . S
C1015 C1017 1.403 . S
C1016 H989 0.950 . S
C1016 C1002 1.411 . S
C1016 C1015 1.382 . S
C1017 C1001 1.411 . S
C1017 C1015 1.403 . S
C1017 C1018 1.489 . S
C1018 C1017 1.489 . S
C1018 C1019 1.383 . S
C1018 C1023 1.382 . S
C1019 H990 0.950 . S
C1019 C1018 1.383 . S
C1019 C1020 1.395 . S
C1020 H991 0.950 . S
C1020 C1019 1.395 . S
C1020 C1021 1.288 . S
C1021 C1020 1.288 . S
C1021 C1022 1.392 . S
C1022 H992 0.951 . S
C1022 C1021 1.392 . S
C1022 C1023 1.392 . S
C1023 H993 0.949 . S
C1023 C1018 1.382 . S
C1023 C1022 1.392 . S
H1024 C1043 0.949 . S
H1025 C1044 0.950 . S
H1026 C1046 0.950 . S
H1027 C1047 0.950 . S
H1028 C1049 0.950 . S
H1029 C1052 0.950 . S
H1030 C1053 0.950 . S
H1031 C1055 0.951 . S
H1032 C1056 0.949 . S
H1033 C1058 0.949 . S
H1034 C1059 0.950 . S
H1035 C1061 0.950 . S
H1036 C1062 0.950 . S
H1037 C1064 0.950 . S
H1038 C1067 0.950 . S
H1039 C1068 0.950 . S
H1040 C1070 0.951 . S
H1041 C1071 0.949 . S
C1042 C1043 1.376 . S
C1042 C1047 1.386 . S
C1042 C1048 1.483 . S
C1043 H1024 0.949 . S
C1043 C1042 1.376 . S
C1043 C1044 1.397 . S
C1044 H1025 0.950 . S
C1044 C1043 1.397 . S
C1044 C1045 1.391 . S
C1045 C1044 1.391 . S
C1045 C1046 1.405 . S
C1046 H1026 0.950 . S
C1046 C1045 1.405 . S
C1046 C1047 1.367 . S
C1047 H1027 0.950 . S
C1047 C1042 1.386 . S
C1047 C1046 1.367 . S
C1048 C1042 1.483 . S
C1048 C1049 1.382 . S
C1048 C1050 1.403 . S
C1049 H1028 0.950 . S
C1049 C1048 1.382 . S
C1049 C1065 1.411 . S
C1050 C1048 1.403 . S
C1050 C1051 1.489 . S
C1050 C1064 1.411 . S
C1051 C1050 1.489 . S
C1051 C1052 1.383 . S
C1051 C1056 1.382 . S
C1052 H1029 0.950 . S
C1052 C1051 1.383 . S
C1052 C1053 1.395 . S
C1053 H1030 0.950 . S
C1053 C1052 1.395 . S
C1053 C1054 1.288 . S
C1054 C1053 1.288 . S
C1054 C1055 1.392 . S
C1055 H1031 0.951 . S
C1055 C1054 1.392 . S
C1055 C1056 1.392 . S
C1056 H1032 0.949 . S
C1056 C1051 1.382 . S
C1056 C1055 1.392 . S
C1057 C1058 1.376 . S
C1057 C1062 1.386 . S
C1057 C1063 1.483 . S
C1058 H1033 0.949 . S
C1058 C1057 1.376 . S
C1058 C1059 1.397 . S
C1059 H1034 0.950 . S
C1059 C1058 1.397 . S
C1059 C1060 1.391 . S
C1060 C1059 1.391 . S
C1060 C1061 1.405 . S
C1061 H1035 0.950 . S
C1061 C1060 1.405 . S
C1061 C1062 1.367 . S
C1062 H1036 0.950 . S
C1062 C1057 1.386 . S
C1062 C1061 1.367 . S
C1063 C1057 1.483 . S
C1063 C1064 1.382 . S
C1063 C1065 1.403 . S
C1064 H1037 0.950 . S
C1064 C1050 1.411 . S
C1064 C1063 1.382 . S
C1065 C1049 1.411 . S
C1065 C1063 1.403 . S
C1065 C1066 1.489 . S
C1066 C1065 1.489 . S
C1066 C1067 1.383 . S
C1066 C1071 1.382 . S
C1067 H1038 0.950 . S
C1067 C1066 1.383 . S
C1067 C1068 1.395 . S
C1068 H1039 0.950 . S
C1068 C1067 1.395 . S
C1068 C1069 1.288 . S
C1069 C1068 1.288 . S
C1069 C1070 1.392 . S
C1070 H1040 0.951 . S
C1070 C1069 1.392 . S
C1070 C1071 1.392 . S
C1071 H1041 0.949 . S
C1071 C1066 1.382 . S
C1071 C1070 1.392 . S
H1072 C1091 0.949 . S
H1073 C1092 0.950 . S
H1074 C1094 0.950 . S
H1075 C1095 0.950 . S
H1076 C1097 0.950 . S
H1077 C1100 0.950 . S
H1078 C1101 0.950 . S
H1079 C1103 0.951 . S
H1080 C1104 0.949 . S
H1081 C1106 0.949 . S
H1082 C1107 0.950 . S
H1083 C1109 0.950 . S
H1084 C1110 0.950 . S
H1085 C1112 0.950 . S
H1086 C1115 0.950 . S
H1087 C1116 0.950 . S
H1088 C1118 0.951 . S
H1089 C1119 0.949 . S
C1090 C1091 1.376 . S
C1090 C1095 1.386 . S
C1090 C1096 1.483 . S
C1091 H1072 0.949 . S
C1091 C1090 1.376 . S
C1091 C1092 1.397 . S
C1092 H1073 0.950 . S
C1092 C1091 1.397 . S
C1092 C1093 1.391 . S
C1093 C1092 1.391 . S
C1093 C1094 1.405 . S
C1094 H1074 0.950 . S
C1094 C1093 1.405 . S
C1094 C1095 1.367 . S
C1095 H1075 0.950 . S
C1095 C1090 1.386 . S
C1095 C1094 1.367 . S
C1096 C1090 1.483 . S
C1096 C1097 1.382 . S
C1096 C1098 1.403 . S
C1097 H1076 0.950 . S
C1097 C1096 1.382 . S
C1097 C1113 1.411 . S
C1098 C1096 1.403 . S
C1098 C1099 1.489 . S
C1098 C1112 1.411 . S
C1099 C1098 1.489 . S
C1099 C1100 1.383 . S
C1099 C1104 1.382 . S
C1100 H1077 0.950 . S
C1100 C1099 1.383 . S
C1100 C1101 1.395 . S
C1101 H1078 0.950 . S
C1101 C1100 1.395 . S
C1101 C1102 1.288 . S
C1102 C1101 1.288 . S
C1102 C1103 1.392 . S
C1103 H1079 0.951 . S
C1103 C1102 1.392 . S
C1103 C1104 1.392 . S
C1104 H1080 0.949 . S
C1104 C1099 1.382 . S
C1104 C1103 1.392 . S
C1105 C1106 1.376 . S
C1105 C1110 1.386 . S
C1105 C1111 1.483 . S
C1106 H1081 0.949 . S
C1106 C1105 1.376 . S
C1106 C1107 1.397 . S
C1107 H1082 0.950 . S
C1107 C1106 1.397 . S
C1107 C1108 1.391 . S
C1108 C1107 1.391 . S
C1108 C1109 1.405 . S
C1109 H1083 0.950 . S
C1109 C1108 1.405 . S
C1109 C1110 1.367 . S
C1110 H1084 0.950 . S
C1110 C1105 1.386 . S
C1110 C1109 1.367 . S
C1111 C1105 1.483 . S
C1111 C1112 1.382 . S
C1111 C1113 1.403 . S
C1112 H1085 0.950 . S
C1112 C1098 1.411 . S
C1112 C1111 1.382 . S
C1113 C1097 1.411 . S
C1113 C1111 1.403 . S
C1113 C1114 1.489 . S
C1114 C1113 1.489 . S
C1114 C1115 1.383 . S
C1114 C1119 1.382 . S
C1115 H1086 0.950 . S
C1115 C1114 1.383 . S
C1115 C1116 1.395 . S
C1116 H1087 0.950 . S
C1116 C1115 1.395 . S
C1116 C1117 1.288 . S
C1117 C1116 1.288 . S
C1117 C1118 1.392 . S
C1118 H1088 0.951 . S
C1118 C1117 1.392 . S
C1118 C1119 1.392 . S
C1119 H1089 0.949 . S
C1119 C1114 1.382 . S
C1119 C1118 1.392 . S
H1120 C1139 0.949 . S
H1121 C1140 0.950 . S
H1122 C1142 0.950 . S
H1123 C1143 0.950 . S
H1124 C1145 0.950 . S
H1125 C1148 0.950 . S
H1126 C1149 0.950 . S
H1127 C1151 0.951 . S
H1128 C1152 0.949 . S
H1129 C1154 0.949 . S
H1130 C1155 0.950 . S
H1131 C1157 0.950 . S
H1132 C1158 0.950 . S
H1133 C1160 0.950 . S
H1134 C1163 0.950 . S
H1135 C1164 0.950 . S
H1136 C1166 0.951 . S
H1137 C1167 0.949 . S
C1138 C1139 1.376 . S
C1138 C1143 1.386 . S
C1138 C1144 1.483 . S
C1139 H1120 0.949 . S
C1139 C1138 1.376 . S
C1139 C1140 1.397 . S
C1140 H1121 0.950 . S
C1140 C1139 1.397 . S
C1140 C1141 1.391 . S
C1141 C1140 1.391 . S
C1141 C1142 1.405 . S
C1142 H1122 0.950 . S
C1142 C1141 1.405 . S
C1142 C1143 1.367 . S
C1143 H1123 0.950 . S
C1143 C1138 1.386 . S
C1143 C1142 1.367 . S
C1144 C1138 1.483 . S
C1144 C1145 1.382 . S
C1144 C1146 1.403 . S
C1145 H1124 0.950 . S
C1145 C1144 1.382 . S
C1145 C1161 1.411 . S
C1146 C1144 1.403 . S
C1146 C1147 1.489 . S
C1146 C1160 1.411 . S
C1147 C1146 1.489 . S
C1147 C1148 1.383 . S
C1147 C1152 1.382 . S
C1148 H1125 0.950 . S
C1148 C1147 1.383 . S
C1148 C1149 1.395 . S
C1149 H1126 0.950 . S
C1149 C1148 1.395 . S
C1149 C1150 1.288 . S
C1150 C1149 1.288 . S
C1150 C1151 1.392 . S
C1151 H1127 0.951 . S
C1151 C1150 1.392 . S
C1151 C1152 1.392 . S
C1152 H1128 0.949 . S
C1152 C1147 1.382 . S
C1152 C1151 1.392 . S
C1153 C1154 1.376 . S
C1153 C1158 1.386 . S
C1153 C1159 1.483 . S
C1154 H1129 0.949 . S
C1154 C1153 1.376 . S
C1154 C1155 1.397 . S
C1155 H1130 0.950 . S
C1155 C1154 1.397 . S
C1155 C1156 1.391 . S
C1156 C1155 1.391 . S
C1156 C1157 1.405 . S
C1157 H1131 0.950 . S
C1157 C1156 1.405 . S
C1157 C1158 1.367 . S
C1158 H1132 0.950 . S
C1158 C1153 1.386 . S
C1158 C1157 1.367 . S
C1159 C1153 1.483 . S
C1159 C1160 1.382 . S
C1159 C1161 1.403 . S
C1160 H1133 0.950 . S
C1160 C1146 1.411 . S
C1160 C1159 1.382 . S
C1161 C1145 1.411 . S
C1161 C1159 1.403 . S
C1161 C1162 1.489 . S
C1162 C1161 1.489 . S
C1162 C1163 1.383 . S
C1162 C1167 1.382 . S
C1163 H1134 0.950 . S
C1163 C1162 1.383 . S
C1163 C1164 1.395 . S
C1164 H1135 0.950 . S
C1164 C1163 1.395 . S
C1164 C1165 1.288 . S
C1165 C1164 1.288 . S
C1165 C1166 1.392 . S
C1166 H1136 0.951 . S
C1166 C1165 1.392 . S
C1166 C1167 1.392 . S
C1167 H1137 0.949 . S
C1167 C1162 1.382 . S
C1167 C1166 1.392 . S
H1168 C1187 0.949 . S
H1169 C1188 0.950 . S
H1170 C1190 0.950 . S
H1171 C1191 0.950 . S
H1172 C1193 0.950 . S
H1173 C1196 0.950 . S
H1174 C1197 0.950 . S
H1175 C1199 0.951 . S
H1176 C1200 0.949 . S
H1177 C1202 0.949 . S
H1178 C1203 0.950 . S
H1179 C1205 0.950 . S
H1180 C1206 0.950 . S
H1181 C1208 0.950 . S
H1182 C1211 0.950 . S
H1183 C1212 0.950 . S
H1184 C1214 0.951 . S
H1185 C1215 0.949 . S
C1186 C1187 1.376 . S
C1186 C1191 1.386 . S
C1186 C1192 1.483 . S
C1187 H1168 0.949 . S
C1187 C1186 1.376 . S
C1187 C1188 1.397 . S
C1188 H1169 0.950 . S
C1188 C1187 1.397 . S
C1188 C1189 1.391 . S
C1189 C1188 1.391 . S
C1189 C1190 1.405 . S
C1190 H1170 0.950 . S
C1190 C1189 1.405 . S
C1190 C1191 1.367 . S
C1191 H1171 0.950 . S
C1191 C1186 1.386 . S
C1191 C1190 1.367 . S
C1192 C1186 1.483 . S
C1192 C1193 1.382 . S
C1192 C1194 1.403 . S
C1193 H1172 0.950 . S
C1193 C1192 1.382 . S
C1193 C1209 1.411 . S
C1194 C1192 1.403 . S
C1194 C1195 1.489 . S
C1194 C1208 1.411 . S
C1195 C1194 1.489 . S
C1195 C1196 1.383 . S
C1195 C1200 1.382 . S
C1196 H1173 0.950 . S
C1196 C1195 1.383 . S
C1196 C1197 1.395 . S
C1197 H1174 0.950 . S
C1197 C1196 1.395 . S
C1197 C1198 1.288 . S
C1198 C1197 1.288 . S
C1198 C1199 1.392 . S
C1199 H1175 0.951 . S
C1199 C1198 1.392 . S
C1199 C1200 1.392 . S
C1200 H1176 0.949 . S
C1200 C1195 1.382 . S
C1200 C1199 1.392 . S
C1201 C1202 1.376 . S
C1201 C1206 1.386 . S
C1201 C1207 1.483 . S
C1202 H1177 0.949 . S
C1202 C1201 1.376 . S
C1202 C1203 1.397 . S
C1203 H1178 0.950 . S
C1203 C1202 1.397 . S
C1203 C1204 1.391 . S
C1204 C1203 1.391 . S
C1204 C1205 1.405 . S
C1205 H1179 0.950 . S
C1205 C1204 1.405 . S
C1205 C1206 1.367 . S
C1206 H1180 0.950 . S
C1206 C1201 1.386 . S
C1206 C1205 1.367 . S
C1207 C1201 1.483 . S
C1207 C1208 1.382 . S
C1207 C1209 1.403 . S
C1208 H1181 0.950 . S
C1208 C1194 1.411 . S
C1208 C1207 1.382 . S
C1209 C1193 1.411 . S
C1209 C1207 1.403 . S
C1209 C1210 1.489 . S
C1210 C1209 1.489 . S
C1210 C1211 1.383 . S
C1210 C1215 1.382 . S
C1211 H1182 0.950 . S
C1211 C1210 1.383 . S
C1211 C1212 1.395 . S
C1212 H1183 0.950 . S
C1212 C1211 1.395 . S
C1212 C1213 1.288 . S
C1213 C1212 1.288 . S
C1213 C1214 1.392 . S
C1214 H1184 0.951 . S
C1214 C1213 1.392 . S
C1214 C1215 1.392 . S
C1215 H1185 0.949 . S
C1215 C1210 1.382 . S
C1215 C1214 1.392 . S
H1216 C1235 0.949 . S
H1217 C1236 0.950 . S
H1218 C1238 0.950 . S
H1219 C1239 0.950 . S
H1220 C1241 0.950 . S
H1221 C1244 0.950 . S
H1222 C1245 0.950 . S
H1223 C1247 0.951 . S
H1224 C1248 0.949 . S
H1225 C1250 0.949 . S
H1226 C1251 0.950 . S
H1227 C1253 0.950 . S
H1228 C1254 0.950 . S
H1229 C1256 0.950 . S
H1230 C1259 0.950 . S
H1231 C1260 0.950 . S
H1232 C1262 0.951 . S
H1233 C1263 0.949 . S
C1234 C1235 1.376 . S
C1234 C1239 1.386 . S
C1234 C1240 1.483 . S
C1235 H1216 0.949 . S
C1235 C1234 1.376 . S
C1235 C1236 1.397 . S
C1236 H1217 0.950 . S
C1236 C1235 1.397 . S
C1236 C1237 1.391 . S
C1237 C1236 1.391 . S
C1237 C1238 1.405 . S
C1238 H1218 0.950 . S
C1238 C1237 1.405 . S
C1238 C1239 1.367 . S
C1239 H1219 0.950 . S
C1239 C1234 1.386 . S
C1239 C1238 1.367 . S
C1240 C1234 1.483 . S
C1240 C1241 1.382 . S
C1240 C1242 1.403 . S
C1241 H1220 0.950 . S
C1241 C1240 1.382 . S
C1241 C1257 1.411 . S
C1242 C1240 1.403 . S
C1242 C1243 1.489 . S
C1242 C1256 1.411 . S
C1243 C1242 1.489 . S
C1243 C1244 1.383 . S
C1243 C1248 1.382 . S
C1244 H1221 0.950 . S
C1244 C1243 1.383 . S
C1244 C1245 1.395 . S
C1245 H1222 0.950 . S
C1245 C1244 1.395 . S
C1245 C1246 1.288 . S
C1246 C1245 1.288 . S
C1246 C1247 1.392 . S
C1247 H1223 0.951 . S
C1247 C1246 1.392 . S
C1247 C1248 1.392 . S
C1248 H1224 0.949 . S
C1248 C1243 1.382 . S
C1248 C1247 1.392 . S
C1249 C1250 1.376 . S
C1249 C1254 1.386 . S
C1249 C1255 1.483 . S
C1250 H1225 0.949 . S
C1250 C1249 1.376 . S
C1250 C1251 1.397 . S
C1251 H1226 0.950 . S
C1251 C1250 1.397 . S
C1251 C1252 1.391 . S
C1252 C1251 1.391 . S
C1252 C1253 1.405 . S
C1253 H1227 0.950 . S
C1253 C1252 1.405 . S
C1253 C1254 1.367 . S
C1254 H1228 0.950 . S
C1254 C1249 1.386 . S
C1254 C1253 1.367 . S
C1255 C1249 1.483 . S
C1255 C1256 1.382 . S
C1255 C1257 1.403 . S
C1256 H1229 0.950 . S
C1256 C1242 1.411 . S
C1256 C1255 1.382 . S
C1257 C1241 1.411 . S
C1257 C1255 1.403 . S
C1257 C1258 1.489 . S
C1258 C1257 1.489 . S
C1258 C1259 1.383 . S
C1258 C1263 1.382 . S
C1259 H1230 0.950 . S
C1259 C1258 1.383 . S
C1259 C1260 1.395 . S
C1260 H1231 0.950 . S
C1260 C1259 1.395 . S
C1260 C1261 1.288 . S
C1261 C1260 1.288 . S
C1261 C1262 1.392 . S
C1262 H1232 0.951 . S
C1262 C1261 1.392 . S
C1262 C1263 1.392 . S
C1263 H1233 0.949 . S
C1263 C1258 1.382 . S
C1263 C1262 1.392 . S
H1264 C1283 0.949 . S
H1265 C1284 0.950 . S
H1266 C1286 0.950 . S
H1267 C1287 0.950 . S
H1268 C1289 0.950 . S
H1269 C1292 0.950 . S
H1270 C1293 0.950 . S
H1271 C1295 0.951 . S
H1272 C1296 0.949 . S
H1273 C1298 0.949 . S
H1274 C1299 0.950 . S
H1275 C1301 0.950 . S
H1276 C1302 0.950 . S
H1277 C1304 0.950 . S
H1278 C1307 0.950 . S
H1279 C1308 0.950 . S
H1280 C1310 0.951 . S
H1281 C1311 0.949 . S
C1282 C1283 1.376 . S
C1282 C1287 1.386 . S
C1282 C1288 1.483 . S
C1283 H1264 0.949 . S
C1283 C1282 1.376 . S
C1283 C1284 1.397 . S
C1284 H1265 0.950 . S
C1284 C1283 1.397 . S
C1284 C1285 1.391 . S
C1285 C1284 1.391 . S
C1285 C1286 1.405 . S
C1286 H1266 0.950 . S
C1286 C1285 1.405 . S
C1286 C1287 1.367 . S
C1287 H1267 0.950 . S
C1287 C1282 1.386 . S
C1287 C1286 1.367 . S
C1288 C1282 1.483 . S
C1288 C1289 1.382 . S
C1288 C1290 1.403 . S
C1289 H1268 0.950 . S
C1289 C1288 1.382 . S
C1289 C1305 1.411 . S
C1290 C1288 1.403 . S
C1290 C1291 1.489 . S
C1290 C1304 1.411 . S
C1291 C1290 1.489 . S
C1291 C1292 1.383 . S
C1291 C1296 1.382 . S
C1292 H1269 0.950 . S
C1292 C1291 1.383 . S
C1292 C1293 1.395 . S
C1293 H1270 0.950 . S
C1293 C1292 1.395 . S
C1293 C1294 1.288 . S
C1294 C1293 1.288 . S
C1294 C1295 1.392 . S
C1295 H1271 0.951 . S
C1295 C1294 1.392 . S
C1295 C1296 1.392 . S
C1296 H1272 0.949 . S
C1296 C1291 1.382 . S
C1296 C1295 1.392 . S
C1297 C1298 1.376 . S
C1297 C1302 1.386 . S
C1297 C1303 1.483 . S
C1298 H1273 0.949 . S
C1298 C1297 1.376 . S
C1298 C1299 1.397 . S
C1299 H1274 0.950 . S
C1299 C1298 1.397 . S
C1299 C1300 1.391 . S
C1300 C1299 1.391 . S
C1300 C1301 1.405 . S
C1301 H1275 0.950 . S
C1301 C1300 1.405 . S
C1301 C1302 1.367 . S
C1302 H1276 0.950 . S
C1302 C1297 1.386 . S
C1302 C1301 1.367 . S
C1303 C1297 1.483 . S
C1303 C1304 1.382 . S
C1303 C1305 1.403 . S
C1304 H1277 0.950 . S
C1304 C1290 1.411 . S
C1304 C1303 1.382 . S
C1305 C1289 1.411 . S
C1305 C1303 1.403 . S
C1305 C1306 1.489 . S
C1306 C1305 1.489 . S
C1306 C1307 1.383 . S
C1306 C1311 1.382 . S
C1307 H1278 0.950 . S
C1307 C1306 1.383 . S
C1307 C1308 1.395 . S
C1308 H1279 0.950 . S
C1308 C1307 1.395 . S
C1308 C1309 1.288 . S
C1309 C1308 1.288 . S
C1309 C1310 1.392 . S
C1310 H1280 0.951 . S
C1310 C1309 1.392 . S
C1310 C1311 1.392 . S
C1311 H1281 0.949 . S
C1311 C1306 1.382 . S
C1311 C1310 1.392 . S
H1312 C1331 0.949 . S
H1313 C1332 0.950 . S
H1314 C1334 0.950 . S
H1315 C1335 0.950 . S
H1316 C1337 0.950 . S
H1317 C1340 0.950 . S
H1318 C1341 0.950 . S
H1319 C1343 0.951 . S
H1320 C1344 0.949 . S
H1321 C1346 0.949 . S
H1322 C1347 0.950 . S
H1323 C1349 0.950 . S
H1324 C1350 0.950 . S
H1325 C1352 0.950 . S
H1326 C1355 0.950 . S
H1327 C1356 0.950 . S
H1328 C1358 0.951 . S
H1329 C1359 0.949 . S
C1330 C1331 1.376 . S
C1330 C1335 1.386 . S
C1330 C1336 1.483 . S
C1331 H1312 0.949 . S
C1331 C1330 1.376 . S
C1331 C1332 1.397 . S
C1332 H1313 0.950 . S
C1332 C1331 1.397 . S
C1332 C1333 1.391 . S
C1333 C1332 1.391 . S
C1333 C1334 1.405 . S
C1334 H1314 0.950 . S
C1334 C1333 1.405 . S
C1334 C1335 1.367 . S
C1335 H1315 0.950 . S
C1335 C1330 1.386 . S
C1335 C1334 1.367 . S
C1336 C1330 1.483 . S
C1336 C1337 1.382 . S
C1336 C1338 1.403 . S
C1337 H1316 0.950 . S
C1337 C1336 1.382 . S
C1337 C1353 1.411 . S
C1338 C1336 1.403 . S
C1338 C1339 1.489 . S
C1338 C1352 1.411 . S
C1339 C1338 1.489 . S
C1339 C1340 1.383 . S
C1339 C1344 1.382 . S
C1340 H1317 0.950 . S
C1340 C1339 1.383 . S
C1340 C1341 1.395 . S
C1341 H1318 0.950 . S
C1341 C1340 1.395 . S
C1341 C1342 1.288 . S
C1342 C1341 1.288 . S
C1342 C1343 1.392 . S
C1343 H1319 0.951 . S
C1343 C1342 1.392 . S
C1343 C1344 1.392 . S
C1344 H1320 0.949 . S
C1344 C1339 1.382 . S
C1344 C1343 1.392 . S
C1345 C1346 1.376 . S
C1345 C1350 1.386 . S
C1345 C1351 1.483 . S
C1346 H1321 0.949 . S
C1346 C1345 1.376 . S
C1346 C1347 1.397 . S
C1347 H1322 0.950 . S
C1347 C1346 1.397 . S
C1347 C1348 1.391 . S
C1348 C1347 1.391 . S
C1348 C1349 1.405 . S
C1349 H1323 0.950 . S
C1349 C1348 1.405 . S
C1349 C1350 1.367 . S
C1350 H1324 0.950 . S
C1350 C1345 1.386 . S
C1350 C1349 1.367 . S
C1351 C1345 1.483 . S
C1351 C1352 1.382 . S
C1351 C1353 1.403 . S
C1352 H1325 0.950 . S
C1352 C1338 1.411 . S
C1352 C1351 1.382 . S
C1353 C1337 1.411 . S
C1353 C1351 1.403 . S
C1353 C1354 1.489 . S
C1354 C1353 1.489 . S
C1354 C1355 1.383 . S
C1354 C1359 1.382 . S
C1355 H1326 0.950 . S
C1355 C1354 1.383 . S
C1355 C1356 1.395 . S
C1356 H1327 0.950 . S
C1356 C1355 1.395 . S
C1356 C1357 1.288 . S
C1357 C1356 1.288 . S
C1357 C1358 1.392 . S
C1358 H1328 0.951 . S
C1358 C1357 1.392 . S
C1358 C1359 1.392 . S
C1359 H1329 0.949 . S
C1359 C1354 1.382 . S
C1359 C1358 1.392 . S
H1360 C1379 0.949 . S
H1361 C1380 0.950 . S
H1362 C1382 0.950 . S
H1363 C1383 0.950 . S
H1364 C1385 0.950 . S
H1365 C1388 0.950 . S
H1366 C1389 0.950 . S
H1367 C1391 0.951 . S
H1368 C1392 0.949 . S
H1369 C1394 0.949 . S
H1370 C1395 0.950 . S
H1371 C1397 0.950 . S
H1372 C1398 0.950 . S
H1373 C1400 0.950 . S
H1374 C1403 0.950 . S
H1375 C1404 0.950 . S
H1376 C1406 0.951 . S
H1377 C1407 0.949 . S
C1378 C1379 1.376 . S
C1378 C1383 1.386 . S
C1378 C1384 1.483 . S
C1379 H1360 0.949 . S
C1379 C1378 1.376 . S
C1379 C1380 1.397 . S
C1380 H1361 0.950 . S
C1380 C1379 1.397 . S
C1380 C1381 1.391 . S
C1381 C1380 1.391 . S
C1381 C1382 1.405 . S
C1382 H1362 0.950 . S
C1382 C1381 1.405 . S
C1382 C1383 1.367 . S
C1383 H1363 0.950 . S
C1383 C1378 1.386 . S
C1383 C1382 1.367 . S
C1384 C1378 1.483 . S
C1384 C1385 1.382 . S
C1384 C1386 1.403 . S
C1385 H1364 0.950 . S
C1385 C1384 1.382 . S
C1385 C1401 1.411 . S
C1386 C1384 1.403 . S
C1386 C1387 1.489 . S
C1386 C1400 1.411 . S
C1387 C1386 1.489 . S
C1387 C1388 1.383 . S
C1387 C1392 1.382 . S
C1388 H1365 0.950 . S
C1388 C1387 1.383 . S
C1388 C1389 1.395 . S
C1389 H1366 0.950 . S
C1389 C1388 1.395 . S
C1389 C1390 1.288 . S
C1390 C1389 1.288 . S
C1390 C1391 1.392 . S
C1391 H1367 0.951 . S
C1391 C1390 1.392 . S
C1391 C1392 1.392 . S
C1392 H1368 0.949 . S
C1392 C1387 1.382 . S
C1392 C1391 1.392 . S
C1393 C1394 1.376 . S
C1393 C1398 1.386 . S
C1393 C1399 1.483 . S
C1394 H1369 0.949 . S
C1394 C1393 1.376 . S
C1394 C1395 1.397 . S
C1395 H1370 0.950 . S
C1395 C1394 1.397 . S
C1395 C1396 1.391 . S
C1396 C1395 1.391 . S
C1396 C1397 1.405 . S
C1397 H1371 0.950 . S
C1397 C1396 1.405 . S
C1397 C1398 1.367 . S
C1398 H1372 0.950 . S
C1398 C1393 1.386 . S
C1398 C1397 1.367 . S
C1399 C1393 1.483 . S
C1399 C1400 1.382 . S
C1399 C1401 1.403 . S
C1400 H1373 0.950 . S
C1400 C1386 1.411 . S
C1400 C1399 1.382 . S
C1401 C1385 1.411 . S
C1401 C1399 1.403 . S
C1401 C1402 1.489 . S
C1402 C1401 1.489 . S
C1402 C1403 1.383 . S
C1402 C1407 1.382 . S
C1403 H1374 0.950 . S
C1403 C1402 1.383 . S
C1403 C1404 1.395 . S
C1404 H1375 0.950 . S
C1404 C1403 1.395 . S
C1404 C1405 1.288 . S
C1405 C1404 1.288 . S
C1405 C1406 1.392 . S
C1406 H1376 0.951 . S
C1406 C1405 1.392 . S
C1406 C1407 1.392 . S
C1407 H1377 0.949 . S
C1407 C1402 1.382 . S
C1407 C1406 1.392 . S
H1408 C1427 0.949 . S
H1409 C1428 0.950 . S
H1410 C1430 0.950 . S
H1411 C1431 0.950 . S
H1412 C1433 0.950 . S
H1413 C1436 0.950 . S
H1414 C1437 0.950 . S
H1415 C1439 0.951 . S
H1416 C1440 0.949 . S
H1417 C1442 0.949 . S
H1418 C1443 0.950 . S
H1419 C1445 0.950 . S
H1420 C1446 0.950 . S
H1421 C1448 0.950 . S
H1422 C1451 0.950 . S
H1423 C1452 0.950 . S
H1424 C1454 0.951 . S
H1425 C1455 0.949 . S
C1426 C1427 1.376 . S
C1426 C1431 1.386 . S
C1426 C1432 1.483 . S
C1427 H1408 0.949 . S
C1427 C1426 1.376 . S
C1427 C1428 1.397 . S
C1428 H1409 0.950 . S
C1428 C1427 1.397 . S
C1428 C1429 1.391 . S
C1429 C1428 1.391 . S
C1429 C1430 1.405 . S
C1430 H1410 0.950 . S
C1430 C1429 1.405 . S
C1430 C1431 1.367 . S
C1431 H1411 0.950 . S
C1431 C1426 1.386 . S
C1431 C1430 1.367 . S
C1432 C1426 1.483 . S
C1432 C1433 1.382 . S
C1432 C1434 1.403 . S
C1433 H1412 0.950 . S
C1433 C1432 1.382 . S
C1433 C1449 1.411 . S
C1434 C1432 1.403 . S
C1434 C1435 1.489 . S
C1434 C1448 1.411 . S
C1435 C1434 1.489 . S
C1435 C1436 1.383 . S
C1435 C1440 1.382 . S
C1436 H1413 0.950 . S
C1436 C1435 1.383 . S
C1436 C1437 1.395 . S
C1437 H1414 0.950 . S
C1437 C1436 1.395 . S
C1437 C1438 1.288 . S
C1438 C1437 1.288 . S
C1438 C1439 1.392 . S
C1439 H1415 0.951 . S
C1439 C1438 1.392 . S
C1439 C1440 1.392 . S
C1440 H1416 0.949 . S
C1440 C1435 1.382 . S
C1440 C1439 1.392 . S
C1441 C1442 1.376 . S
C1441 C1446 1.386 . S
C1441 C1447 1.483 . S
C1442 H1417 0.949 . S
C1442 C1441 1.376 . S
C1442 C1443 1.397 . S
C1443 H1418 0.950 . S
C1443 C1442 1.397 . S
C1443 C1444 1.391 . S
C1444 C1443 1.391 . S
C1444 C1445 1.405 . S
C1445 H1419 0.950 . S
C1445 C1444 1.405 . S
C1445 C1446 1.367 . S
C1446 H1420 0.950 . S
C1446 C1441 1.386 . S
C1446 C1445 1.367 . S
C1447 C1441 1.483 . S
C1447 C1448 1.382 . S
C1447 C1449 1.403 . S
C1448 H1421 0.950 . S
C1448 C1434 1.411 . S
C1448 C1447 1.382 . S
C1449 C1433 1.411 . S
C1449 C1447 1.403 . S
C1449 C1450 1.489 . S
C1450 C1449 1.489 . S
C1450 C1451 1.383 . S
C1450 C1455 1.382 . S
C1451 H1422 0.950 . S
C1451 C1450 1.383 . S
C1451 C1452 1.395 . S
C1452 H1423 0.950 . S
C1452 C1451 1.395 . S
C1452 C1453 1.288 . S
C1453 C1452 1.288 . S
C1453 C1454 1.392 . S
C1454 H1424 0.951 . S
C1454 C1453 1.392 . S
C1454 C1455 1.392 . S
C1455 H1425 0.949 . S
C1455 C1450 1.382 . S
C1455 C1454 1.392 . S
H1456 C1475 0.949 . S
H1457 C1476 0.950 . S
H1458 C1478 0.950 . S
H1459 C1479 0.950 . S
H1460 C1481 0.950 . S
H1461 C1484 0.950 . S
H1462 C1485 0.950 . S
H1463 C1487 0.951 . S
H1464 C1488 0.949 . S
H1465 C1490 0.949 . S
H1466 C1491 0.950 . S
H1467 C1493 0.950 . S
H1468 C1494 0.950 . S
H1469 C1496 0.950 . S
H1470 C1499 0.950 . S
H1471 C1500 0.950 . S
H1472 C1502 0.951 . S
H1473 C1503 0.949 . S
C1474 C1475 1.376 . S
C1474 C1479 1.386 . S
C1474 C1480 1.483 . S
C1475 H1456 0.949 . S
C1475 C1474 1.376 . S
C1475 C1476 1.397 . S
C1476 H1457 0.950 . S
C1476 C1475 1.397 . S
C1476 C1477 1.391 . S
C1477 C1476 1.391 . S
C1477 C1478 1.405 . S
C1478 H1458 0.950 . S
C1478 C1477 1.405 . S
C1478 C1479 1.367 . S
C1479 H1459 0.950 . S
C1479 C1474 1.386 . S
C1479 C1478 1.367 . S
C1480 C1474 1.483 . S
C1480 C1481 1.382 . S
C1480 C1482 1.403 . S
C1481 H1460 0.950 . S
C1481 C1480 1.382 . S
C1481 C1497 1.411 . S
C1482 C1480 1.403 . S
C1482 C1483 1.489 . S
C1482 C1496 1.411 . S
C1483 C1482 1.489 . S
C1483 C1484 1.383 . S
C1483 C1488 1.382 . S
C1484 H1461 0.950 . S
C1484 C1483 1.383 . S
C1484 C1485 1.395 . S
C1485 H1462 0.950 . S
C1485 C1484 1.395 . S
C1485 C1486 1.288 . S
C1486 C1485 1.288 . S
C1486 C1487 1.392 . S
C1487 H1463 0.951 . S
C1487 C1486 1.392 . S
C1487 C1488 1.392 . S
C1488 H1464 0.949 . S
C1488 C1483 1.382 . S
C1488 C1487 1.392 . S
C1489 C1490 1.376 . S
C1489 C1494 1.386 . S
C1489 C1495 1.483 . S
C1490 H1465 0.949 . S
C1490 C1489 1.376 . S
C1490 C1491 1.397 . S
C1491 H1466 0.950 . S
C1491 C1490 1.397 . S
C1491 C1492 1.391 . S
C1492 C1491 1.391 . S
C1492 C1493 1.405 . S
C1493 H1467 0.950 . S
C1493 C1492 1.405 . S
C1493 C1494 1.367 . S
C1494 H1468 0.950 . S
C1494 C1489 1.386 . S
C1494 C1493 1.367 . S
C1495 C1489 1.483 . S
C1495 C1496 1.382 . S
C1495 C1497 1.403 . S
C1496 H1469 0.950 . S
C1496 C1482 1.411 . S
C1496 C1495 1.382 . S
C1497 C1481 1.411 . S
C1497 C1495 1.403 . S
C1497 C1498 1.489 . S
C1498 C1497 1.489 . S
C1498 C1499 1.383 . S
C1498 C1503 1.382 . S
C1499 H1470 0.950 . S
C1499 C1498 1.383 . S
C1499 C1500 1.395 . S
C1500 H1471 0.950 . S
C1500 C1499 1.395 . S
C1500 C1501 1.288 . S
C1501 C1500 1.288 . S
C1501 C1502 1.392 . S
C1502 H1472 0.951 . S
C1502 C1501 1.392 . S
C1502 C1503 1.392 . S
C1503 H1473 0.949 . S
C1503 C1498 1.382 . S
C1503 C1502 1.392 . S
C397 C7 2.126 . S
C445 C19 1.350 . S
C29 C469 2.137 . S
C532 C41 1.700 . S
C52 C526 1.487 . S
C62 C373 1.619 . S
C73 C421 1.067 . S
C493 C82 1.773 . S
C565 C5 1.760 . S
C16 C613 1.479 . S
C30 C676 2.531 . S
C733 C40 2.122 . S
C49 C757 1.267 . S
C814 C63 1.769 . S
C74 C862 2.116 . S
C916 C85 1.627 . S
C8 C709 1.668 . S
C51 C820 1.582 . S
C868 C60 2.006 . S
C71 C910 0.857 . S
C781 C84 2.192 . S
C637 C27 1.572 . S
C38 C670 1.799 . S
C589 C18 1.789 . S
C964 C95 2.171 . S
C107 C1021 1.350 . S
C117 C1045 2.138 . S
C1108 C129 1.702 . S
C140 C1102 1.483 . S
C150 C958 1.616 . S
C161 C997 1.064 . S
C170 C1069 1.775 . S
C766 C93 1.783 . S
C104 C1150 1.474 . S
C853 C118 2.463 . S
C128 C1204 2.018 . S
C137 C574 1.278 . S
C1246 C151 1.766 . S
C162 C685 1.918 . S
C1300 C173 1.630 . S
C96 C1198 1.677 . S
C1252 C139 1.581 . S
C148 C661 1.971 . S
C1294 C159 0.857 . S
C172 C580 2.242 . S
C115 C1156 1.577 . S
C126 C877 1.637 . S
C106 C772 1.825 . S
C183 C1054 2.179 . S
C1117 C195 1.350 . S
C205 C973 2.052 . S
C217 C1012 1.699 . S
C228 C1006 1.483 . S
C238 C1060 1.614 . S
C1093 C249 1.068 . S
C258 C949 1.710 . S
C1333 C181 1.759 . S
C192 C805 1.478 . S
C1396 C206 2.527 . S
C216 C925 2.123 . S
C225 C1438 1.279 . S
C239 C622 1.770 . S
C1501 C250 1.919 . S
C261 C724 1.629 . S
C901 C184 1.666 . S
C628 C227 1.581 . S
C236 C1477 1.971 . S
C247 C718 0.858 . S
C1444 C260 2.243 . S
C829 C203 1.573 . S
C1390 C214 1.799 . S
C1357 C194 1.789 . S
C271 C478 2.180 . S
C283 C541 1.346 . S
C388 C293 2.111 . S
C436 C305 1.701 . S
C430 C316 1.481 . S
C484 C326 1.614 . S
C517 C337 1.074 . S
C346 C382 1.720 . S
C269 C1429 1.760 . S
C1237 C280 1.480 . S
C1492 C294 2.532 . S
C1309 C304 2.121 . S
C313 C1342 1.277 . S
C1141 C327 1.826 . S
C1405 C338 1.919 . S
C349 C1213 1.629 . S
C1285 C272 1.667 . S
C1165 C315 1.564 . S
C1381 C324 1.971 . S
C335 C1189 0.871 . S
C348 C1348 2.239 . S
C291 C1261 1.570 . S
C302 C1486 1.800 . S
C1453 C282 1.791 . S
