# Generated by pormake.
# Topology apo, (3,6)-cn, num edge types: 1
# Building blocks:
#     Node 0, Type 0, BuildingBlock: PAMTOO_clean_linker_0, # of connection points: 3
#     Node 1, Type 0, BuildingBlock: PAMTOO_clean_linker_0, # of connection points: 3
#     Node 2, Type 0, BuildingBlock: PAMTOO_clean_linker_0, # of connection points: 3
#     Node 3, Type 0, BuildingBlock: PAMTOO_clean_linker_0, # of connection points: 3
#     Node 4, Type 0, BuildingBlock: PAMTOO_clean_linker_0, # of connection points: 3
#     Node 5, Type 0, BuildingBlock: PAMTOO_clean_linker_0, # of connection points: 3
#     Node 6, Type 0, BuildingBlock: PAMTOO_clean_linker_0, # of connection points: 3
#     Node 7, Type 0, BuildingBlock: PAMTOO_clean_linker_0, # of connection points: 3
#     Node 8, Type 1, BuildingBlock: KUMJIN_clean_sbu_1, # of connection points: 6
#     Node 9, Type 1, BuildingBlock: KUMJIN_clean_sbu_1, # of connection points: 6
#     Node 10, Type 1, BuildingBlock: KUMJIN_clean_sbu_1, # of connection points: 6
#     Node 11, Type 1, BuildingBlock: KUMJIN_clean_sbu_1, # of connection points: 6
#     Edge 12, Type (0, 1), None
#     Edge 13, Type (0, 1), None
#     Edge 14, Type (0, 1), None
#     Edge 15, Type (0, 1), None
#     Edge 16, Type (0, 1), None
#     Edge 17, Type (0, 1), None
#     Edge 18, Type (0, 1), None
#     Edge 19, Type (0, 1), None
#     Edge 20, Type (0, 1), None
#     Edge 21, Type (0, 1), None
#     Edge 22, Type (0, 1), None
#     Edge 23, Type (0, 1), None
#     Edge 24, Type (0, 1), None
#     Edge 25, Type (0, 1), None
#     Edge 26, Type (0, 1), None
#     Edge 27, Type (0, 1), None
#     Edge 28, Type (0, 1), None
#     Edge 29, Type (0, 1), None
#     Edge 30, Type (0, 1), None
#     Edge 31, Type (0, 1), None
#     Edge 32, Type (0, 1), None
#     Edge 33, Type (0, 1), None
#     Edge 34, Type (0, 1), None
#     Edge 35, Type (0, 1), None
# Relax obj value: 0.038
# Max RMSD: 0.295
# Mean RMSD: 0.203
data_MOF--net-apo--node1-KUMJIN_clean_sbu_1--node2-PAMTOO_clean_linker_0--edge1-none
_symmetry_space_group_name_H-M    P1
_symmetry_Int_Tables_number       1
_symmetry_cell_setting            triclinic
loop_
_symmetry_equiv_pos_as_xyz
'x, y, z'
_cell_length_a     12.665192
_cell_length_b     18.801186
_cell_length_c     26.566751
_cell_angle_alpha  89.517046
_cell_angle_beta   89.899076
_cell_angle_gamma 88.945073
loop_
_atom_site_label
_atom_site_type_symbol
_atom_site_fract_x
_atom_site_fract_y
_atom_site_fract_z
_atom_type_partial_charge
H0 H 0.37715 0.4722 0.40659 0.0
H1 H 0.34821 0.30866 0.29522 0.0
H2 H 0.22096 0.27726 0.44362 0.0
H3 H 0.11648 0.25843 0.31124 0.0
C4 C 0.13957 0.21458 0.33766 0.0
O5 O 0.24197 0.22244 0.3537 0.0
H6 H 0.08548 0.2159 0.37063 0.0
C7 C 0.34921 0.42036 0.39558 0.0
C8 C 0.29657 0.37785 0.43063 0.0
C9 C 0.36834 0.39579 0.34684 0.0
C10 C 0.33278 0.32867 0.33267 0.0
C11 C 0.27852 0.28637 0.3675 0.0
C12 C 0.26215 0.31042 0.41672 0.0
H13 H 0.16177 0.9763 0.9212 0.0
H14 H 0.30172 0.18179 0.93292 0.0
H15 H 0.19625 0.10965 0.78934 0.0
H16 H 0.4096 0.16762 0.79044 0.0
C17 C 0.39937 0.20634 0.82146 0.0
O18 O 0.29487 0.20995 0.83631 0.0
H19 H 0.44838 0.18907 0.85394 0.0
C20 C 0.18211 0.02661 0.90388 0.0
C21 C 0.16976 0.03686 0.85155 0.0
C22 C 0.22826 0.07896 0.93365 0.0
C23 C 0.26146 0.14239 0.91085 0.0
C24 C 0.25019 0.15306 0.85884 0.0
C25 C 0.20292 0.10095 0.82953 0.0
H26 H 0.8962 0.97803 0.62942 0.0
H27 H 0.80019 0.10841 0.75553 0.0
H28 H 0.67099 0.148 0.6087 0.0
H29 H 0.6961 0.27329 0.65425 0.0
C30 C 0.7054 0.25831 0.6946 0.0
O31 O 0.67429 0.18951 0.70151 0.0
H32 H 0.78932 0.26426 0.70612 0.0
C33 C 0.85201 0.02247 0.64513 0.0
C34 C 0.78601 0.06228 0.61297 0.0
C35 C 0.85627 0.0372 0.69733 0.0
C36 C 0.79768 0.09508 0.71602 0.0
C37 C 0.73223 0.13489 0.68364 0.0
C38 C 0.72455 0.11767 0.63279 0.0
H39 H 0.6507 0.46211 0.13043 0.0
H40 H 0.80681 0.26035 0.10719 0.0
H41 H 0.71124 0.31972 0.25605 0.0
H42 H 0.94274 0.26267 0.23422 0.0
C43 C 0.91675 0.21716 0.21108 0.0
O44 O 0.80938 0.22266 0.20219 0.0
H45 H 0.96044 0.218 0.17474 0.0
C46 C 0.67805 0.41129 0.14547 0.0
C47 C 0.67175 0.39709 0.19744 0.0
C48 C 0.72528 0.36185 0.11282 0.0
C49 C 0.7669 0.29761 0.13203 0.0
C50 C 0.7634 0.28311 0.18374 0.0
C51 C 0.71439 0.33216 0.21623 0.0
H52 H 0.65356 0.4875 0.62564 0.0
H53 H 0.85908 0.66613 0.61833 0.0
H54 H 0.72057 0.60823 0.75935 0.0
H55 H 0.73539 0.76866 0.72916 0.0
C56 C 0.81548 0.76378 0.71214 0.0
O57 O 0.84833 0.69406 0.71345 0.0
H58 H 0.81242 0.78365 0.67261 0.0
C59 C 0.69033 0.53187 0.64401 0.0
C60 C 0.67794 0.54211 0.69659 0.0
C61 C 0.75551 0.57611 0.6152 0.0
C62 C 0.80684 0.63173 0.6393 0.0
C63 C 0.79313 0.64308 0.69079 0.0
C64 C 0.72835 0.59905 0.71937 0.0
H65 H 0.88638 0.97595 0.13938 0.0
H66 H 0.867 0.81733 0.25623 0.0
H67 H 0.73145 0.77841 0.11082 0.0
H68 H 0.60193 0.76261 0.20999 0.0
C69 C 0.66327 0.73139 0.23102 0.0
O70 O 0.75543 0.72901 0.20346 0.0
H71 H 0.67879 0.75784 0.26738 0.0
C72 C 0.86146 0.92383 0.1521 0.0
C73 C 0.80865 0.87932 0.11907 0.0
C74 C 0.88183 0.90196 0.2014 0.0
C75 C 0.85096 0.83465 0.21795 0.0
C76 C 0.79591 0.79019 0.18544 0.0
C77 C 0.77531 0.81231 0.13572 0.0
H78 H 0.17274 0.96408 0.4195 0.0
H79 H 0.31939 0.75954 0.44818 0.0
H80 H 0.22732 0.81804 0.29768 0.0
H81 H 0.4626 0.69974 0.38381 0.0
C82 C 0.4238 0.70688 0.3466 0.0
O83 O 0.31712 0.71884 0.35402 0.0
H84 H 0.45826 0.7529 0.32609 0.0
C85 C 0.20189 0.9131 0.40589 0.0
C86 C 0.19487 0.89729 0.35459 0.0
C87 C 0.24677 0.86378 0.43978 0.0
C88 C 0.2835 0.79769 0.42229 0.0
C89 C 0.2788 0.78196 0.37084 0.0
C90 C 0.23417 0.83169 0.337 0.0
H91 H 0.37745 0.45839 0.91587 0.0
H92 H 0.32812 0.6094 0.79462 0.0
H93 H 0.22899 0.6609 0.94481 0.0
H94 H 0.07623 0.68997 0.86966 0.0
C95 C 0.12505 0.70452 0.83656 0.0
O96 O 0.23014 0.70355 0.85024 0.0
H97 H 0.11278 0.66575 0.80579 0.0
C98 C 0.35211 0.51049 0.90232 0.0
C99 C 0.30593 0.55818 0.93638 0.0
C100 C 0.36148 0.52825 0.85103 0.0
C101 C 0.32367 0.59496 0.83408 0.0
C102 C 0.27614 0.64277 0.86783 0.0
C103 C 0.26841 0.62466 0.9191 0.0
Eu104 Eu 0.14369 0.04446 0.21398 0.0
C105 C 0.69199 0.11393 0.34021 0.0
N106 N 0.79249 0.13619 0.34659 0.0
C107 C 0.72744 0.25141 0.37144 0.0
C108 C 0.60517 0.16114 0.34698 0.0
C109 C 0.81108 0.20319 0.36377 0.0
C110 C 0.62427 0.23107 0.36151 0.0
C111 C 0.57141 0.01595 0.33208 0.0
C112 C 0.6752 0.04224 0.33186 0.0
C113 C 0.48503 0.06345 0.33577 0.0
C114 C 0.502 0.136 0.34261 0.0
Eu115 Eu 0.92802 0.04858 0.33764 0.0
N116 N 0.76006 -0.00285 0.32901 0.0
C117 C 0.55744 0.94239 0.33088 0.0
C118 C 0.74682 0.92519 0.32904 0.0
C119 C 0.64547 0.89686 0.32941 0.0
H120 H 0.89084 0.2191 0.3718 0.0
H121 H 0.63486 0.84001 0.32955 0.0
H122 H 0.25497 0.88343 0.22318 0.0
H123 H 0.32644 0.29154 0.15454 0.0
H124 H 0.81525 0.89001 0.32953 0.0
H125 H 0.47906 0.92018 0.33187 0.0
H126 H 0.1792 0.21059 0.17404 0.0
H127 H 0.74224 0.30362 0.38628 0.0
H128 H 0.40484 0.04431 0.33494 0.0
H129 H 0.43482 0.17167 0.34705 0.0
H130 H 0.43327 0.82691 0.22305 0.0
H131 H 0.55963 0.26854 0.36785 0.0
H132 H 0.51089 0.25153 0.16872 0.0
N133 N 0.31214 0.98824 0.21923 0.0
C134 C 0.39751 0.03027 0.21419 0.0
C135 C 0.42449 0.88409 0.22038 0.0
C136 C 0.50061 0.00045 0.21215 0.0
C137 C 0.32398 0.916 0.22102 0.0
C138 C 0.51333 0.92647 0.21561 0.0
N139 N 0.27994 0.12702 0.20039 0.0
C140 C 0.2598 0.19343 0.18118 0.0
C141 C 0.46717 0.14622 0.19396 0.0
C142 C 0.38085 0.1021 0.20475 0.0
C143 C 0.44685 0.21621 0.17792 0.0
C144 C 0.34272 0.23919 0.17016 0.0
H145 H 0.59117 0.90164 0.21411 0.0
H146 H 0.66695 0.02311 0.20367 0.0
H147 H 0.63736 0.15079 0.18769 0.0
O148 O 0.11039 0.08573 0.1379 0.0
O149 O 0.15047 0.14272 0.26265 0.0
O150 O 0.09664 0.08929 0.33565 0.0
O151 O 0.15634 0.97595 0.14799 0.0
O152 O 0.97608 0.09288 0.21428 0.0
O153 O 0.92559 0.14693 0.28768 0.0
O154 O 0.92351 0.97769 0.40301 0.0
O155 O 0.88272 0.9897 0.26601 0.0
O156 O 0.04122 0.95013 0.23034 0.0
O157 O 0.93539 0.09027 0.41475 0.0
O158 O 0.03451 0.95168 0.32757 0.0
O159 O 0.19047 0.98273 0.28625 0.0
C160 C 0.12971 0.14551 0.31107 0.0
C161 C 0.21594 0.0338 0.07394 0.0
C162 C 0.25894 0.06215 0.98626 0.0
C163 C 0.36663 0.05303 0.9975 0.0
C164 C 0.32395 0.02257 0.08345 0.0
C165 C 0.39858 0.03278 0.04571 0.0
C166 C 0.18326 0.05255 1.02473 0.0
C167 C 0.94287 0.14948 0.23895 0.0
C168 C 0.13867 0.02707 0.11555 0.0
C169 C 0.58713 0.04491 0.20456 0.0
C170 C 0.57038 0.11773 0.19575 0.0
C171 C 0.93793 0.94967 0.23439 0.0
C172 C 0.83524 0.02436 0.47416 0.0
C173 C 0.77099 0.0409 0.56014 0.0
C174 C 0.672 0.01601 0.54568 0.0
C175 C 0.73574 -0.00164 0.46105 0.0
C176 C 0.85305 0.04492 0.5243 0.0
C177 C 0.65482 -0.00547 0.49644 0.0
C178 C 0.13764 0.94736 0.32136 0.0
C179 C 0.92014 0.02858 0.43589 0.0
H180 H 0.42605 0.06008 0.96865 0.0
H181 H 0.35102 0.00541 0.11997 0.0
H182 H 0.48143 0.02447 0.05395 0.0
H183 H 0.09998 0.06004 1.01649 0.0
H184 H 0.60858 0.01226 0.57291 0.0
H185 H 0.72033 0.98003 0.42366 0.0
H186 H 0.92965 0.06432 0.53527 0.0
H187 H 0.57884 0.97434 0.48566 0.0
Eu188 Eu 0.41312 0.39636 0.70942 0.0
C189 C 0.87159 0.41728 0.82963 0.0
N190 N 0.80197 0.36392 0.82353 0.0
C191 C 0.94331 0.27717 0.8247 0.0
C192 C 0.98079 0.40187 0.83443 0.0
C193 C 0.83597 0.29472 0.8209 0.0
C194 C 0.016 0.33093 0.83207 0.0
C195 C 0.90298 0.54044 0.85104 0.0
C196 C 0.83277 0.48624 0.83771 0.0
C197 C 0.01211 0.52582 0.85245 0.0
C198 C 0.05092 0.45691 0.84406 0.0
Eu199 Eu 0.62194 0.39663 0.83045 0.0
N200 N 0.72641 0.49726 0.84128 0.0
C201 C 0.86089 0.60529 0.86808 0.0
C202 C 0.68546 0.55891 0.8606 0.0
C203 C 0.75206 0.61372 0.87413 0.0
H204 H 0.77917 0.25322 0.816 0.0
H205 H 0.71988 0.66122 0.89127 0.0
H206 H 0.45768 0.56635 0.67719 0.0
H207 H 0.03815 0.25863 0.71622 0.0
H208 H 0.60121 0.56472 0.86654 0.0
H209 H 0.91152 0.64746 0.88016 0.0
H210 H 0.23213 0.26791 0.71863 0.0
H211 H 0.9698 0.22221 0.82254 0.0
H212 H 0.067 0.56604 0.86341 0.0
H213 H 0.135 0.44611 0.84741 0.0
H214 H 0.35682 0.67969 0.6693 0.0
H215 H 0.09908 0.31712 0.8359 0.0
H216 H 0.92596 0.36774 0.7141 0.0
N217 N 0.32584 0.50776 0.70295 0.0
C218 C 0.21923 0.50687 0.70928 0.0
C219 C 0.3176 0.63182 0.6814 0.0
C220 C 0.15852 0.56994 0.70397 0.0
C221 C 0.37461 0.56786 0.68615 0.0
C222 C 0.20939 0.63322 0.6915 0.0
N223 N 0.22983 0.38106 0.71865 0.0
C224 C 0.18389 0.31588 0.71893 0.0
C225 C 0.05861 0.43874 0.71561 0.0
C226 C 0.16986 0.44175 0.71611 0.0
C227 C 0.01112 0.37211 0.71542 0.0
C228 C 0.07413 0.31041 0.71676 0.0
H229 H 0.16495 0.68267 0.68718 0.0
H230 H 1.0023 0.61563 0.70475 0.0
H231 H 0.91293 0.50073 0.71402 0.0
O232 O 0.34466 0.33968 0.64587 0.0
O233 O 0.38205 0.31126 0.76939 0.0
O234 O 0.53467 0.29348 0.81867 0.0
O235 O 0.45671 0.42226 0.63194 0.0
O236 O 0.53296 0.30491 0.71582 0.0
O237 O 0.68092 0.34286 0.75993 0.0
O238 O 0.58689 0.43145 0.90743 0.0
O239 O 0.61439 0.49326 0.77665 0.0
O240 O 0.57626 0.43814 0.7023 0.0
O241 O 0.6665 0.33068 0.89562 0.0
O242 O 0.44731 0.4164 0.83287 0.0
O243 O 0.40052 0.48518 0.76703 0.0
C244 C 0.43804 0.27698 0.80436 0.0
C245 C 0.32585 0.40588 0.57037 0.0
C246 C 0.27864 0.40478 0.48172 0.0
C247 C 0.21201 0.46423 0.48894 0.0
C248 C 0.25815 0.46496 0.57709 0.0
C249 C 0.20127 0.49377 0.53667 0.0
C250 C 0.33488 0.37528 0.52258 0.0
C251 C 0.63556 0.3052 0.72484 0.0
C252 C 0.39154 0.37797 0.61193 0.0
C253 C 0.04858 0.56737 0.70809 0.0
C254 C 0.99835 0.50202 0.71327 0.0
C255 C 0.61652 0.4908 0.72686 0.0
C256 C 0.70516 0.39063 0.97128 0.0
C257 C 0.74901 0.38295 0.06063 0.0
C258 C 0.84537 0.41589 0.05089 0.0
C259 C 0.80251 0.42286 0.96266 0.0
C260 C 0.67834 0.37056 1.02084 0.0
C261 C 0.8718 0.4358 1.00203 0.0
C262 C 0.40653 0.47549 0.81565 0.0
C263 C 0.63309 0.37651 0.92882 0.0
H264 H 0.16949 0.48808 0.45752 0.0
H265 H 0.2505 0.48982 0.61308 0.0
H266 H 0.15054 0.53997 0.54225 0.0
H267 H 0.3884 0.33039 0.51674 0.0
H268 H 0.90026 0.42591 0.08118 0.0
H269 H 0.82582 0.43768 0.92562 0.0
H270 H 0.60377 0.34511 0.02836 0.0
H271 H 0.94637 0.46102 0.99451 0.0
Eu272 Eu 0.12168 0.88786 0.71897 0.0
C273 C 0.70016 -0.00421 0.85072 0.0
N274 N 0.80539 0.00892 0.84752 0.0
C275 C 0.77457 0.12952 0.8726 0.0
C276 C 0.62731 0.05093 0.8625 0.0
C277 C 0.84363 0.07416 0.85928 0.0
C278 C 0.66594 0.1186 0.87279 0.0
C279 C 0.55936 0.9099 0.85772 0.0
C280 C 0.66653 0.92568 0.8491 0.0
C281 C 0.48595 0.96527 0.86585 0.0
C282 C 0.51996 0.03536 0.86858 0.0
Eu283 Eu 0.91659 0.90802 0.84081 0.0
N284 N 0.73945 0.87254 0.84331 0.0
C285 C 0.52945 0.83864 0.85954 0.0
C286 C 0.71113 0.80288 0.84563 0.0
C287 C 0.60549 0.78492 0.8529 0.0
H288 H 0.92797 0.08216 0.86058 0.0
H289 H 0.58243 0.72981 0.8537 0.0
H290 H 0.30833 0.7612 0.74261 0.0
H291 H 0.1726 0.16396 0.65962 0.0
H292 H 0.77091 0.76151 0.84188 0.0
H293 H 0.44786 0.82454 0.86585 0.0
H294 H 0.07591 0.05206 0.67224 0.0
H295 H 0.80543 0.17958 0.88496 0.0
H296 H 0.40326 0.95418 0.87213 0.0
H297 H 0.463 0.07631 0.87823 0.0
H298 H 0.50195 0.75243 0.74894 0.0
H299 H 0.61361 0.16153 0.88439 0.0
H300 H 0.36106 0.16969 0.68341 0.0
N301 N 0.30426 0.87414 0.73559 0.0
C302 C 0.3618 0.93438 0.73096 0.0
C303 C 0.46339 0.80399 0.74464 0.0
C304 C 0.47287 0.93162 0.73515 0.0
C305 C 0.35342 0.80935 0.74182 0.0
C306 C 0.52328 0.86543 0.74158 0.0
N307 N 0.20603 -0.00247 0.70632 0.0
C308 C 0.15733 0.05491 0.68372 0.0
C309 C 0.36991 0.06004 0.70898 0.0
C310 C 0.31123 -0.00205 0.71678 0.0
C311 C 0.31838 0.121 0.68983 0.0
C312 C 0.21206 0.118 0.67629 0.0
H313 H 0.60849 0.8613 0.74381 0.0
H314 H 0.6157 -0.00663 0.73474 0.0
H315 H 0.52404 0.10611 0.71337 0.0
O316 O 0.08458 0.9034 0.63916 0.0
O317 O 0.13001 0.98364 0.77078 0.0
O318 O 0.09145 0.92206 0.84038 0.0
O319 O 0.19914 0.82339 0.66066 0.0
O320 O 0.95899 0.93273 0.70964 0.0
O321 O 0.91838 -0.00289 0.7805 0.0
O322 O 0.88465 0.85178 0.91151 0.0
O323 O 0.85039 0.84992 0.77461 0.0
O324 O 0.99277 0.80409 0.72743 0.0
O325 O 0.95504 0.95567 0.91313 0.0
O326 O 0.99738 0.79991 0.83378 0.0
O327 O 0.14692 0.80505 0.78124 0.0
C328 C 0.1294 0.97884 0.81981 0.0
C329 C 0.22261 0.88036 0.58173 0.0
C330 C 0.26529 0.88479 0.49224 0.0
C331 C 0.34433 0.93396 0.50205 0.0
C332 C 0.30438 0.92783 0.59079 0.0
C333 C 0.36412 0.95497 0.55121 0.0
C334 C 0.20399 0.85804 0.53215 0.0
C335 C 0.91784 0.98893 0.73099 0.0
C336 C 0.15381 0.85686 0.6233 0.0
C337 C 0.53063 -0.00567 0.73037 0.0
C338 C 0.47887 0.05846 0.71798 0.0
C339 C 0.8915 0.80718 0.74057 0.0
C340 C 0.84378 0.92372 0.98159 0.0
C341 C 0.78581 0.90639 0.0682 0.0
C342 C 0.7119 0.96231 0.06239 0.0
C343 C 0.77121 0.98069 0.97705 0.0
C344 C 0.85057 0.88636 0.02751 0.0
C345 C 0.7046 -0.00088 1.01681 0.0
C346 C 0.09034 0.77617 0.81773 0.0
C347 C 0.9148 0.904 0.93964 0.0
H348 H 0.3908 0.95583 0.47154 0.0
H349 H 0.3217 0.94451 0.62826 0.0
H350 H 0.4252 -0.00716 0.55868 0.0
H351 H 0.14115 0.82127 0.52451 0.0
H352 H 0.66323 0.97933 0.09382 0.0
H353 H 0.76741 0.01236 0.94352 0.0
H354 H 0.90941 0.84422 0.03236 0.0
H355 H 0.64987 0.04367 1.0127 0.0
Eu356 Eu 0.42239 0.55155 0.21318 0.0
C357 C 0.89071 0.54408 0.32781 0.0
N358 N 0.81494 0.49389 0.32576 0.0
C359 C 0.94886 0.40174 0.32328 0.0
C360 C 0.99911 0.52473 0.32676 0.0
C361 C 0.84283 0.42341 0.32431 0.0
C362 C 0.02747 0.45259 0.32465 0.0
C363 C 0.93742 0.666 0.34507 0.0
C364 C 0.86041 0.61366 0.33789 0.0
C365 C 0.04476 0.64816 0.33906 0.0
C366 C 0.0757 0.57747 0.33055 0.0
Eu367 Eu 0.63734 0.53341 0.33817 0.0
N368 N 0.75645 0.62846 0.34615 0.0
C369 C 0.90497 0.73322 0.36195 0.0
C370 C 0.72568 0.69209 0.36648 0.0
C371 C 0.79908 0.74549 0.37419 0.0
H372 H 0.7833 0.38343 0.32558 0.0
H373 H 0.7743 0.79549 0.39062 0.0
H374 H 0.35743 0.72133 0.18849 0.0
H375 H 0.17076 0.31781 0.22021 0.0
H376 H 0.64418 0.70143 0.37652 0.0
H377 H 0.96181 0.77456 0.36844 0.0
H378 H 0.34019 0.38222 0.21988 0.0
H379 H 0.96971 0.34571 0.3223 0.0
H380 H 0.10463 0.68787 0.34374 0.0
H381 H 0.15912 0.56372 0.32876 0.0
H382 H 0.19569 0.7947 0.17343 0.0
H383 H 0.10973 0.43557 0.32474 0.0
H384 H 1.00273 0.38408 0.20915 0.0
N385 N 0.27302 0.62712 0.20389 0.0
C386 C 0.17762 0.5953 0.20514 0.0
C387 C 0.18966 0.73925 0.18375 0.0
C388 C 0.08366 0.6352 0.19665 0.0
C389 C 0.28066 0.69768 0.19223 0.0
C390 C 0.0907 0.70817 0.18679 0.0
N391 N 0.26598 0.48433 0.21785 0.0
C392 C 0.26608 0.41159 0.21822 0.0
C393 C 0.07657 0.48693 0.2081 0.0
C394 C 0.17404 0.52195 0.21162 0.0
C395 C 0.07605 0.41269 0.21123 0.0
C396 C 0.17102 0.375 0.21706 0.0
H397 H 0.02062 0.74037 0.1794 0.0
H398 H 0.91349 0.63058 0.18957 0.0
H399 H 0.9073 0.50069 0.19908 0.0
O400 O 0.44216 0.4803 0.14884 0.0
O401 O 0.38001 0.48444 0.28238 0.0
O402 O 0.53292 0.44019 0.32101 0.0
O403 O 0.4119 0.59274 0.13629 0.0
O404 O 0.59337 0.51319 0.21495 0.0
O405 O 0.64549 0.44463 0.28056 0.0
O406 O 0.59748 0.56732 0.41543 0.0
O407 O 0.66163 0.62544 0.28224 0.0
O408 O 0.5397 0.64028 0.21552 0.0
O409 O 0.67731 0.46742 0.40355 0.0
O410 O 0.47104 0.58167 0.33729 0.0
O411 O 0.41354 0.64369 0.2678 0.0
C412 C 0.43072 0.43971 0.31274 0.0
C413 C 0.34561 0.5157 0.07518 0.0
C414 C 0.28644 0.53394 0.98848 0.0
C415 C 0.19687 0.49351 0.99875 0.0
C416 C 0.25583 0.47485 0.0845 0.0
C417 C 0.18172 0.46423 0.0466 0.0
C418 C 0.36068 0.54514 0.02681 0.0
C419 C 0.62718 0.45157 0.23215 0.0
C420 C 0.42199 0.5305 0.1156 0.0
C421 C 0.98629 0.60074 0.1958 0.0
C422 C 0.98282 0.52674 0.20104 0.0
C423 C 0.62352 0.65851 0.24168 0.0
C424 C 0.72852 0.53097 0.47523 0.0
C425 C 0.78023 0.5603 0.56153 0.0
C426 C 0.88651 0.55996 0.54603 0.0
C427 C 0.83568 0.53051 0.46152 0.0
C428 C 0.70085 0.5454 0.52576 0.0
C429 C 0.91361 0.54539 0.49641 0.0
C430 C 0.44116 0.64173 0.31556 0.0
C431 C 0.64799 0.51418 0.43671 0.0
H432 H 0.13979 0.48359 0.9694 0.0
H433 H 0.24275 0.45088 0.12084 0.0
H434 H 0.11286 0.43261 0.05424 0.0
H435 H 0.43035 0.57599 1.01886 0.0
H436 H 0.94924 0.56997 0.57259 0.0
H437 H 0.85992 0.51733 0.42389 0.0
H438 H 0.61857 0.54546 0.53704 0.0
H439 H 0.99552 0.54504 0.48489 0.0
loop_
_geom_bond_atom_site_label_1
_geom_bond_atom_site_label_2
_geom_bond_distance
_geom_bond_site_symmetry_2
_ccdc_geom_bond_type
H0 C7 0.929 . S
H1 C10 0.930 . S
H2 C12 0.929 . S
H3 C4 0.969 . S
C4 H3 0.969 . S
C4 O5 1.550 . S
C4 H6 0.973 . S
O5 C4 1.550 . S
O5 C11 1.412 . S
H6 C4 0.973 . S
C7 H0 0.929 . S
C7 C8 1.400 . S
C7 C9 1.364 . S
C8 C7 1.400 . S
C8 C12 1.377 . S
C9 C7 1.364 . S
C9 C10 1.374 . S
C10 H1 0.930 . S
C10 C9 1.374 . S
C10 C11 1.383 . S
C11 O5 1.412 . S
C11 C10 1.383 . S
C11 C12 1.394 . S
C12 H2 0.929 . S
C12 C8 1.377 . S
C12 C11 1.394 . S
H13 C20 0.929 . S
H14 C23 0.930 . S
H15 C25 0.929 . S
H16 C17 0.969 . S
C17 H16 0.969 . S
C17 O18 1.550 . S
C17 H19 0.973 . S
O18 C17 1.550 . S
O18 C24 1.412 . S
H19 C17 0.973 . S
C20 H13 0.929 . S
C20 C21 1.400 . S
C20 C22 1.364 . S
C21 C20 1.400 . S
C21 C25 1.377 . S
C22 C20 1.364 . S
C22 C23 1.374 . S
C23 H14 0.930 . S
C23 C22 1.374 . S
C23 C24 1.383 . S
C24 O18 1.412 . S
C24 C23 1.383 . S
C24 C25 1.394 . S
C25 H15 0.929 . S
C25 C21 1.377 . S
C25 C24 1.394 . S
H26 C33 0.929 . S
H27 C36 0.930 . S
H28 C38 0.929 . S
H29 C30 0.969 . S
C30 H29 0.969 . S
C30 O31 1.550 . S
C30 H32 0.973 . S
O31 C30 1.550 . S
O31 C37 1.412 . S
H32 C30 0.973 . S
C33 H26 0.929 . S
C33 C34 1.400 . S
C33 C35 1.364 . S
C34 C33 1.400 . S
C34 C38 1.377 . S
C35 C33 1.364 . S
C35 C36 1.374 . S
C36 H27 0.930 . S
C36 C35 1.374 . S
C36 C37 1.383 . S
C37 O31 1.412 . S
C37 C36 1.383 . S
C37 C38 1.394 . S
C38 H28 0.929 . S
C38 C34 1.377 . S
C38 C37 1.394 . S
H39 C46 0.929 . S
H40 C49 0.930 . S
H41 C51 0.929 . S
H42 C43 0.969 . S
C43 H42 0.969 . S
C43 O44 1.550 . S
C43 H45 0.973 . S
O44 C43 1.550 . S
O44 C50 1.412 . S
H45 C43 0.973 . S
C46 H39 0.929 . S
C46 C47 1.400 . S
C46 C48 1.364 . S
C47 C46 1.400 . S
C47 C51 1.377 . S
C48 C46 1.364 . S
C48 C49 1.374 . S
C49 H40 0.930 . S
C49 C48 1.374 . S
C49 C50 1.383 . S
C50 O44 1.412 . S
C50 C49 1.383 . S
C50 C51 1.394 . S
C51 H41 0.929 . S
C51 C47 1.377 . S
C51 C50 1.394 . S
H52 C59 0.929 . S
H53 C62 0.930 . S
H54 C64 0.929 . S
H55 C56 0.969 . S
C56 H55 0.969 . S
C56 O57 1.550 . S
C56 H58 0.973 . S
O57 C56 1.550 . S
O57 C63 1.412 . S
H58 C56 0.973 . S
C59 H52 0.929 . S
C59 C60 1.400 . S
C59 C61 1.364 . S
C60 C59 1.400 . S
C60 C64 1.377 . S
C61 C59 1.364 . S
C61 C62 1.374 . S
C62 H53 0.930 . S
C62 C61 1.374 . S
C62 C63 1.383 . S
C63 O57 1.412 . S
C63 C62 1.383 . S
C63 C64 1.394 . S
C64 H54 0.929 . S
C64 C60 1.377 . S
C64 C63 1.394 . S
H65 C72 0.929 . S
H66 C75 0.930 . S
H67 C77 0.929 . S
H68 C69 0.969 . S
C69 H68 0.969 . S
C69 O70 1.550 . S
C69 H71 0.973 . S
O70 C69 1.550 . S
O70 C76 1.412 . S
H71 C69 0.973 . S
C72 H65 0.929 . S
C72 C73 1.400 . S
C72 C74 1.364 . S
C73 C72 1.400 . S
C73 C77 1.377 . S
C74 C72 1.364 . S
C74 C75 1.374 . S
C75 H66 0.930 . S
C75 C74 1.374 . S
C75 C76 1.383 . S
C76 O70 1.412 . S
C76 C75 1.383 . S
C76 C77 1.394 . S
C77 H67 0.929 . S
C77 C73 1.377 . S
C77 C76 1.394 . S
H78 C85 0.929 . S
H79 C88 0.930 . S
H80 C90 0.929 . S
H81 C82 0.969 . S
C82 H81 0.969 . S
C82 O83 1.550 . S
C82 H84 0.973 . S
O83 C82 1.550 . S
O83 C89 1.412 . S
H84 C82 0.973 . S
C85 H78 0.929 . S
C85 C86 1.400 . S
C85 C87 1.364 . S
C86 C85 1.400 . S
C86 C90 1.377 . S
C87 C85 1.364 . S
C87 C88 1.374 . S
C88 H79 0.930 . S
C88 C87 1.374 . S
C88 C89 1.383 . S
C89 O83 1.412 . S
C89 C88 1.383 . S
C89 C90 1.394 . S
C90 H80 0.929 . S
C90 C86 1.377 . S
C90 C89 1.394 . S
H91 C98 0.929 . S
H92 C101 0.930 . S
H93 C103 0.929 . S
H94 C95 0.969 . S
C95 H94 0.969 . S
C95 O96 1.550 . S
C95 H97 0.973 . S
O96 C95 1.550 . S
O96 C102 1.412 . S
H97 C95 0.973 . S
C98 H91 0.929 . S
C98 C99 1.400 . S
C98 C100 1.364 . S
C99 C98 1.400 . S
C99 C103 1.377 . S
C100 C98 1.364 . S
C100 C101 1.374 . S
C101 H92 0.930 . S
C101 C100 1.374 . S
C101 C102 1.383 . S
C102 O96 1.412 . S
C102 C101 1.383 . S
C102 C103 1.394 . S
C103 H93 0.929 . S
C103 C99 1.377 . S
C103 C102 1.394 . S
Eu104 N133 2.600 . S
Eu104 N139 2.562 . S
Eu104 O148 2.462 . S
Eu104 O149 2.373 . S
Eu104 O151 2.432 . S
Eu104 O152 2.291 . S
Eu104 O156 2.335 . S
Eu104 O159 2.372 1_545 S
Eu104 C168 2.787 . S
C105 N106 1.365 . S
C105 C108 1.405 . S
C105 C112 1.448 1_545 S
N106 C105 1.365 . S
N106 C109 1.319 . S
N106 Eu115 2.600 . S
C107 C109 1.397 . S
C107 C110 1.367 . S
C107 H127 0.931 . S
C108 C105 1.405 . S
C108 C110 1.403 . S
C108 C114 1.439 1_545 S
C109 N106 1.319 . S
C109 C107 1.397 . S
C109 H120 0.930 . S
C110 C107 1.367 . S
C110 C108 1.403 . S
C110 H131 0.929 . S
C111 C112 1.430 . S
C111 C113 1.387 . S
C111 C117 1.404 . S
C112 C105 1.448 1_565 S
C112 C111 1.430 . S
C112 N116 1.351 . S
C113 C111 1.387 . S
C113 C114 1.374 . S
C113 H128 0.931 . S
C114 C108 1.439 1_565 S
C114 C113 1.374 . S
C114 H129 0.931 . S
Eu115 N106 2.600 . S
Eu115 N116 2.562 1_545 S
Eu115 O150 2.335 1_655 S
Eu115 O153 2.372 . S
Eu115 O154 2.462 . S
Eu115 O155 2.373 . S
Eu115 O157 2.432 . S
Eu115 O158 2.291 1_655 S
Eu115 C179 2.787 . S
N116 C112 1.351 . S
N116 Eu115 2.562 1_565 S
N116 C118 1.325 . S
C117 C111 1.404 . S
C117 C119 1.366 . S
C117 H125 0.930 . S
C118 N116 1.325 . S
C118 C119 1.416 . S
C118 H124 0.929 . S
C119 C117 1.366 . S
C119 C118 1.416 . S
C119 H121 0.930 . S
H120 C109 0.930 . S
H121 C119 0.930 . S
H122 C137 0.930 1_565 S
H123 C144 0.930 . S
H124 C118 0.929 . S
H125 C117 0.930 . S
H126 C140 0.929 . S
H127 C107 0.931 . S
H128 C113 0.931 . S
H129 C114 0.931 . S
H130 C135 0.931 1_565 S
H131 C110 0.929 . S
H132 C143 0.930 . S
N133 Eu104 2.600 . S
N133 C134 1.365 . S
N133 C137 1.319 . S
C134 N133 1.365 . S
C134 C136 1.405 . S
C134 C142 1.448 . S
C135 H130 0.931 1_545 S
C135 C137 1.397 . S
C135 C138 1.367 . S
C136 C134 1.405 . S
C136 C138 1.403 . S
C136 C169 1.439 . S
C137 H122 0.930 1_545 S
C137 N133 1.319 . S
C137 C135 1.397 . S
C138 C135 1.367 . S
C138 C136 1.403 . S
C138 H145 0.929 . S
N139 Eu104 2.562 . S
N139 C140 1.325 . S
N139 C142 1.351 . S
C140 H126 0.929 . S
C140 N139 1.325 . S
C140 C144 1.416 . S
C141 C142 1.430 . S
C141 C143 1.404 . S
C141 C170 1.387 . S
C142 C134 1.448 . S
C142 N139 1.351 . S
C142 C141 1.430 . S
C143 H132 0.930 . S
C143 C141 1.404 . S
C143 C144 1.366 . S
C144 H123 0.930 . S
C144 C140 1.416 . S
C144 C143 1.366 . S
H145 C138 0.929 . S
H146 C169 0.931 . S
H147 C170 0.931 . S
O148 Eu104 2.462 . S
O148 C168 1.252 . S
O149 Eu104 2.373 . S
O149 C160 1.249 . S
O150 Eu115 2.335 1_455 S
O150 C160 1.264 . S
O151 Eu104 2.432 . S
O151 C168 1.268 . S
O152 Eu104 2.291 . S
O152 C167 1.255 1_455 S
O153 Eu115 2.372 . S
O153 C167 1.257 . S
O154 Eu115 2.462 . S
O154 C179 1.252 . S
O155 Eu115 2.373 . S
O155 C171 1.249 1_545 S
O156 Eu104 2.335 . S
O156 C171 1.264 1_445 S
O157 Eu115 2.432 . S
O157 C179 1.268 . S
O158 Eu115 2.291 1_455 S
O158 C178 1.255 1_545 S
O159 Eu104 2.372 1_565 S
O159 C178 1.257 . S
C160 O149 1.249 . S
C160 O150 1.264 . S
C161 C164 1.382 1_545 S
C161 C166 1.390 . S
C161 C168 1.506 . S
C162 C163 1.398 . S
C162 C166 1.392 1_556 S
C163 C162 1.398 . S
C163 C165 1.372 1_545 S
C163 H180 0.929 1_545 S
C164 C161 1.382 1_565 S
C164 C165 1.390 1_554 S
C164 H181 0.931 . S
C165 C163 1.372 1_565 S
C165 C164 1.390 1_556 S
C165 H182 0.929 . S
C166 C161 1.390 . S
C166 C162 1.392 1_554 S
C166 H183 0.930 . S
C167 O152 1.255 1_655 S
C167 O153 1.257 . S
C168 Eu104 2.787 . S
C168 O148 1.252 . S
C168 O151 1.268 . S
C168 C161 1.506 . S
C169 C136 1.439 . S
C169 H146 0.931 . S
C169 C170 1.374 . S
C170 C141 1.387 . S
C170 H147 0.931 . S
C170 C169 1.374 . S
C171 O155 1.249 1_565 S
C171 O156 1.264 1_665 S
C172 C175 1.382 . S
C172 C176 1.390 . S
C172 C179 1.506 . S
C173 C174 1.398 . S
C173 C176 1.392 . S
C174 C173 1.398 . S
C174 C177 1.372 . S
C174 H184 0.931 . S
C175 C172 1.382 . S
C175 C177 1.390 . S
C175 H185 0.931 . S
C176 C172 1.390 . S
C176 C173 1.392 . S
C176 H186 0.930 . S
C177 C174 1.372 . S
C177 C175 1.390 . S
C177 H187 0.929 . S
C178 O158 1.255 1_565 S
C178 O159 1.257 . S
C179 Eu115 2.787 . S
C179 O154 1.252 . S
C179 O157 1.268 . S
C179 C172 1.506 . S
H180 C163 0.929 1_565 S
H181 C164 0.931 . S
H182 C165 0.929 . S
H183 C166 0.930 . S
H184 C174 0.931 . S
H185 C175 0.931 . S
H186 C176 0.930 . S
H187 C177 0.929 . S
Eu188 N217 2.600 . S
Eu188 N223 2.562 . S
Eu188 O232 2.462 . S
Eu188 O233 2.373 . S
Eu188 O235 2.432 . S
Eu188 O236 2.291 . S
Eu188 O240 2.335 . S
Eu188 O243 2.372 . S
Eu188 C252 2.787 . S
C189 N190 1.365 . S
C189 C192 1.405 1_655 S
C189 C196 1.448 . S
N190 C189 1.365 . S
N190 C193 1.319 . S
N190 Eu199 2.600 . S
C191 C193 1.397 . S
C191 C194 1.367 1_655 S
C191 H211 0.931 1_655 S
C192 C189 1.405 1_455 S
C192 C194 1.403 . S
C192 C198 1.439 . S
C193 N190 1.319 . S
C193 C191 1.397 . S
C193 H204 0.930 . S
C194 C191 1.367 1_455 S
C194 C192 1.403 . S
C194 H215 0.929 . S
C195 C196 1.430 . S
C195 C197 1.387 1_655 S
C195 C201 1.404 . S
C196 C189 1.448 . S
C196 C195 1.430 . S
C196 N200 1.351 . S
C197 C195 1.387 1_455 S
C197 C198 1.374 . S
C197 H212 0.931 . S
C198 C192 1.439 . S
C198 C197 1.374 . S
C198 H213 0.931 . S
Eu199 N190 2.600 . S
Eu199 N200 2.562 . S
Eu199 O234 2.335 . S
Eu199 O237 2.372 . S
Eu199 O238 2.462 . S
Eu199 O239 2.373 . S
Eu199 O241 2.432 . S
Eu199 O242 2.291 . S
Eu199 C263 2.787 . S
N200 C196 1.351 . S
N200 Eu199 2.562 . S
N200 C202 1.325 . S
C201 C195 1.404 . S
C201 C203 1.366 . S
C201 H209 0.930 . S
C202 N200 1.325 . S
C202 C203 1.416 . S
C202 H208 0.929 . S
C203 C201 1.366 . S
C203 C202 1.416 . S
C203 H205 0.930 . S
H204 C193 0.930 . S
H205 C203 0.930 . S
H206 C221 0.930 . S
H207 C228 0.930 . S
H208 C202 0.929 . S
H209 C201 0.930 . S
H210 C224 0.929 . S
H211 C191 0.931 1_455 S
H212 C197 0.931 . S
H213 C198 0.931 . S
H214 C219 0.931 . S
H215 C194 0.929 . S
H216 C227 0.930 . S
N217 Eu188 2.600 . S
N217 C218 1.365 . S
N217 C221 1.319 . S
C218 N217 1.365 . S
C218 C220 1.405 . S
C218 C226 1.448 . S
C219 H214 0.931 . S
C219 C221 1.397 . S
C219 C222 1.367 1_455 S
C220 C218 1.405 . S
C220 C222 1.403 1_455 S
C220 C253 1.439 1_455 S
C221 H206 0.930 . S
C221 N217 1.319 . S
C221 C219 1.397 . S
C222 C219 1.367 1_655 S
C222 C220 1.403 1_655 S
C222 H229 0.929 . S
N223 Eu188 2.562 . S
N223 C224 1.325 . S
N223 C226 1.351 . S
C224 H210 0.929 . S
C224 N223 1.325 . S
C224 C228 1.416 . S
C225 C226 1.430 . S
C225 C227 1.404 . S
C225 C254 1.387 . S
C226 C218 1.448 . S
C226 N223 1.351 . S
C226 C225 1.430 . S
C227 H216 0.930 . S
C227 C225 1.404 . S
C227 C228 1.366 . S
C228 H207 0.930 . S
C228 C224 1.416 . S
C228 C227 1.366 . S
H229 C222 0.929 . S
H230 C253 0.931 . S
H231 C254 0.931 1_655 S
O232 Eu188 2.462 . S
O232 C252 1.252 . S
O233 Eu188 2.373 . S
O233 C244 1.249 . S
O234 Eu199 2.335 . S
O234 C244 1.264 . S
O235 Eu188 2.432 . S
O235 C252 1.268 . S
O236 Eu188 2.291 . S
O236 C251 1.255 . S
O237 Eu199 2.372 . S
O237 C251 1.257 . S
O238 Eu199 2.462 . S
O238 C263 1.252 . S
O239 Eu199 2.373 . S
O239 C255 1.249 . S
O240 Eu188 2.335 . S
O240 C255 1.264 . S
O241 Eu199 2.432 . S
O241 C263 1.268 . S
O242 Eu199 2.291 . S
O242 C262 1.255 . S
O243 Eu188 2.372 . S
O243 C262 1.257 . S
C244 O233 1.249 . S
C244 O234 1.264 . S
C245 C248 1.382 . S
C245 C250 1.390 . S
C245 C252 1.506 . S
C246 C247 1.398 . S
C246 C250 1.392 . S
C247 C246 1.398 . S
C247 C249 1.372 . S
C247 H264 0.931 . S
C248 C245 1.382 . S
C248 C249 1.390 . S
C248 H265 0.931 . S
C249 C247 1.372 . S
C249 C248 1.390 . S
C249 H266 0.929 . S
C250 C245 1.390 . S
C250 C246 1.392 . S
C250 H267 0.930 . S
C251 O236 1.255 . S
C251 O237 1.257 . S
C252 Eu188 2.787 . S
C252 O232 1.252 . S
C252 O235 1.268 . S
C252 C245 1.506 . S
C253 C220 1.439 1_655 S
C253 H230 0.931 . S
C253 C254 1.374 1_655 S
C254 C225 1.387 . S
C254 H231 0.931 1_455 S
C254 C253 1.374 1_455 S
C255 O239 1.249 . S
C255 O240 1.264 . S
C256 C259 1.382 . S
C256 C260 1.390 . S
C256 C263 1.506 . S
C257 C258 1.398 . S
C257 C260 1.392 1_554 S
C258 C257 1.398 . S
C258 C261 1.372 . S
C258 H268 0.931 . S
C259 C256 1.382 . S
C259 C261 1.390 1_556 S
C259 H269 0.931 . S
C260 C256 1.390 . S
C260 C257 1.392 1_556 S
C260 H270 0.930 . S
C261 C258 1.372 . S
C261 C259 1.390 1_554 S
C261 H271 0.929 . S
C262 O242 1.255 . S
C262 O243 1.257 . S
C263 Eu199 2.787 . S
C263 O238 1.252 . S
C263 O241 1.268 . S
C263 C256 1.506 . S
H264 C247 0.931 . S
H265 C248 0.931 . S
H266 C249 0.929 . S
H267 C250 0.930 . S
H268 C258 0.931 . S
H269 C259 0.931 . S
H270 C260 0.930 . S
H271 C261 0.929 . S
Eu272 N301 2.600 . S
Eu272 N307 2.562 1_565 S
Eu272 O316 2.462 . S
Eu272 O317 2.373 . S
Eu272 O319 2.432 . S
Eu272 O320 2.291 . S
Eu272 O324 2.335 . S
Eu272 O327 2.372 . S
Eu272 C336 2.787 . S
C273 N274 1.365 . S
C273 C276 1.405 . S
C273 C280 1.448 . S
N274 C273 1.365 . S
N274 C277 1.319 . S
N274 Eu283 2.600 . S
C275 C277 1.397 . S
C275 C278 1.367 . S
C275 H295 0.931 1_565 S
C276 C273 1.405 . S
C276 C278 1.403 . S
C276 C282 1.439 . S
C277 N274 1.319 . S
C277 C275 1.397 . S
C277 H288 0.930 1_565 S
C278 C275 1.367 . S
C278 C276 1.403 . S
C278 H299 0.929 . S
C279 C280 1.430 . S
C279 C281 1.387 . S
C279 C285 1.404 . S
C280 C273 1.448 . S
C280 C279 1.430 . S
C280 N284 1.351 . S
C281 C279 1.387 . S
C281 C282 1.374 . S
C281 H296 0.931 . S
C282 C276 1.439 . S
C282 C281 1.374 . S
C282 H297 0.931 . S
Eu283 N274 2.600 . S
Eu283 N284 2.562 . S
Eu283 O318 2.335 1_655 S
Eu283 O321 2.372 1_565 S
Eu283 O322 2.462 . S
Eu283 O323 2.373 . S
Eu283 O325 2.432 . S
Eu283 O326 2.291 1_655 S
Eu283 C347 2.787 . S
N284 C280 1.351 . S
N284 Eu283 2.562 . S
N284 C286 1.325 . S
C285 C279 1.404 . S
C285 C287 1.366 . S
C285 H293 0.930 . S
C286 N284 1.325 . S
C286 C287 1.416 . S
C286 H292 0.929 . S
C287 C285 1.366 . S
C287 C286 1.416 . S
C287 H289 0.930 . S
H288 C277 0.930 1_545 S
H289 C287 0.930 . S
H290 C305 0.930 . S
H291 C312 0.930 . S
H292 C286 0.929 . S
H293 C285 0.930 . S
H294 C308 0.929 . S
H295 C275 0.931 1_545 S
H296 C281 0.931 . S
H297 C282 0.931 . S
H298 C303 0.931 . S
H299 C278 0.929 . S
H300 C311 0.930 . S
N301 Eu272 2.600 . S
N301 C302 1.365 . S
N301 C305 1.319 . S
C302 N301 1.365 . S
C302 C304 1.405 . S
C302 C310 1.448 1_565 S
C303 H298 0.931 . S
C303 C305 1.397 . S
C303 C306 1.367 . S
C304 C302 1.405 . S
C304 C306 1.403 . S
C304 C337 1.439 1_565 S
C305 H290 0.930 . S
C305 N301 1.319 . S
C305 C303 1.397 . S
C306 C303 1.367 . S
C306 C304 1.403 . S
C306 H313 0.929 . S
N307 Eu272 2.562 1_545 S
N307 C308 1.325 . S
N307 C310 1.351 . S
C308 H294 0.929 . S
C308 N307 1.325 . S
C308 C312 1.416 . S
C309 C310 1.430 . S
C309 C311 1.404 . S
C309 C338 1.387 . S
C310 C302 1.448 1_545 S
C310 N307 1.351 . S
C310 C309 1.430 . S
C311 H300 0.930 . S
C311 C309 1.404 . S
C311 C312 1.366 . S
C312 H291 0.930 . S
C312 C308 1.416 . S
C312 C311 1.366 . S
H313 C306 0.929 . S
H314 C337 0.931 . S
H315 C338 0.931 . S
O316 Eu272 2.462 . S
O316 C336 1.252 . S
O317 Eu272 2.373 . S
O317 C328 1.249 1_565 S
O318 Eu283 2.335 1_455 S
O318 C328 1.264 1_565 S
O319 Eu272 2.432 . S
O319 C336 1.268 . S
O320 Eu272 2.291 . S
O320 C335 1.255 1_465 S
O321 Eu283 2.372 1_545 S
O321 C335 1.257 . S
O322 Eu283 2.462 . S
O322 C347 1.252 . S
O323 Eu283 2.373 . S
O323 C339 1.249 . S
O324 Eu272 2.335 . S
O324 C339 1.264 1_455 S
O325 Eu283 2.432 . S
O325 C347 1.268 . S
O326 Eu283 2.291 1_455 S
O326 C346 1.255 . S
O327 Eu272 2.372 . S
O327 C346 1.257 . S
C328 O317 1.249 1_545 S
C328 O318 1.264 1_545 S
C329 C332 1.382 . S
C329 C334 1.390 . S
C329 C336 1.506 . S
C330 C331 1.398 . S
C330 C334 1.392 . S
C331 C330 1.398 . S
C331 C333 1.372 . S
C331 H348 0.931 . S
C332 C329 1.382 . S
C332 C333 1.390 . S
C332 H349 0.931 . S
C333 C331 1.372 . S
C333 C332 1.390 . S
C333 H350 0.929 . S
C334 C329 1.390 . S
C334 C330 1.392 . S
C334 H351 0.930 . S
C335 O320 1.255 1_645 S
C335 O321 1.257 . S
C336 Eu272 2.787 . S
C336 O316 1.252 . S
C336 O319 1.268 . S
C336 C329 1.506 . S
C337 C304 1.439 1_545 S
C337 H314 0.931 . S
C337 C338 1.374 . S
C338 C309 1.387 . S
C338 H315 0.931 . S
C338 C337 1.374 . S
C339 O323 1.249 . S
C339 O324 1.264 1_655 S
C340 C343 1.382 1_565 S
C340 C344 1.390 . S
C340 C347 1.506 . S
C341 C342 1.398 . S
C341 C344 1.392 1_554 S
C342 C341 1.398 . S
C342 C345 1.372 1_564 S
C342 H352 0.931 . S
C343 C340 1.382 1_545 S
C343 C345 1.390 . S
C343 H353 0.931 . S
C344 C340 1.390 . S
C344 C341 1.392 1_556 S
C344 H354 0.930 . S
C345 C342 1.372 1_546 S
C345 C343 1.390 . S
C345 H355 0.929 1_556 S
C346 O326 1.255 . S
C346 O327 1.257 . S
C347 Eu283 2.787 . S
C347 O322 1.252 . S
C347 O325 1.268 . S
C347 C340 1.506 . S
H348 C331 0.931 . S
H349 C332 0.931 . S
H350 C333 0.929 . S
H351 C334 0.930 . S
H352 C342 0.931 . S
H353 C343 0.931 . S
H354 C344 0.930 . S
H355 C345 0.929 1_554 S
Eu356 N385 2.600 . S
Eu356 N391 2.562 . S
Eu356 O400 2.462 . S
Eu356 O401 2.373 . S
Eu356 O403 2.432 . S
Eu356 O404 2.291 . S
Eu356 O408 2.335 . S
Eu356 O411 2.372 . S
Eu356 C420 2.787 . S
C357 N358 1.365 . S
C357 C360 1.405 1_655 S
C357 C364 1.448 . S
N358 C357 1.365 . S
N358 C361 1.319 . S
N358 Eu367 2.600 . S
C359 C361 1.397 . S
C359 C362 1.367 1_655 S
C359 H379 0.931 1_655 S
C360 C357 1.405 1_455 S
C360 C362 1.403 . S
C360 C366 1.439 . S
C361 N358 1.319 . S
C361 C359 1.397 . S
C361 H372 0.930 . S
C362 C359 1.367 1_455 S
C362 C360 1.403 . S
C362 H383 0.929 . S
C363 C364 1.430 . S
C363 C365 1.387 1_655 S
C363 C369 1.404 . S
C364 C357 1.448 . S
C364 C363 1.430 . S
C364 N368 1.351 . S
C365 C363 1.387 1_455 S
C365 C366 1.374 . S
C365 H380 0.931 . S
C366 C360 1.439 . S
C366 C365 1.374 . S
C366 H381 0.931 . S
Eu367 N358 2.600 . S
Eu367 N368 2.562 . S
Eu367 O402 2.335 . S
Eu367 O405 2.372 . S
Eu367 O406 2.462 . S
Eu367 O407 2.373 . S
Eu367 O409 2.432 . S
Eu367 O410 2.291 . S
Eu367 C431 2.787 . S
N368 C364 1.351 . S
N368 Eu367 2.562 . S
N368 C370 1.325 . S
C369 C363 1.404 . S
C369 C371 1.366 . S
C369 H377 0.930 . S
C370 N368 1.325 . S
C370 C371 1.416 . S
C370 H376 0.929 . S
C371 C369 1.366 . S
C371 C370 1.416 . S
C371 H373 0.930 . S
H372 C361 0.930 . S
H373 C371 0.930 . S
H374 C389 0.930 . S
H375 C396 0.930 . S
H376 C370 0.929 . S
H377 C369 0.930 . S
H378 C392 0.929 . S
H379 C359 0.931 1_455 S
H380 C365 0.931 . S
H381 C366 0.931 . S
H382 C387 0.931 . S
H383 C362 0.929 . S
H384 C395 0.930 . S
N385 Eu356 2.600 . S
N385 C386 1.365 . S
N385 C389 1.319 . S
C386 N385 1.365 . S
C386 C388 1.405 . S
C386 C394 1.448 . S
C387 H382 0.931 . S
C387 C389 1.397 . S
C387 C390 1.367 1_455 S
C388 C386 1.405 . S
C388 C390 1.403 1_455 S
C388 C421 1.439 1_455 S
C389 H374 0.930 . S
C389 N385 1.319 . S
C389 C387 1.397 . S
C390 C387 1.367 1_655 S
C390 C388 1.403 1_655 S
C390 H397 0.929 . S
N391 Eu356 2.562 . S
N391 C392 1.325 . S
N391 C394 1.351 . S
C392 H378 0.929 . S
C392 N391 1.325 . S
C392 C396 1.416 . S
C393 C394 1.430 . S
C393 C395 1.404 . S
C393 C422 1.387 . S
C394 C386 1.448 . S
C394 N391 1.351 . S
C394 C393 1.430 . S
C395 H384 0.930 . S
C395 C393 1.404 . S
C395 C396 1.366 . S
C396 H375 0.930 . S
C396 C392 1.416 . S
C396 C395 1.366 . S
H397 C390 0.929 . S
H398 C421 0.931 . S
H399 C422 0.931 1_655 S
O400 Eu356 2.462 . S
O400 C420 1.252 . S
O401 Eu356 2.373 . S
O401 C412 1.249 . S
O402 Eu367 2.335 . S
O402 C412 1.264 . S
O403 Eu356 2.432 . S
O403 C420 1.268 . S
O404 Eu356 2.291 . S
O404 C419 1.255 . S
O405 Eu367 2.372 . S
O405 C419 1.257 . S
O406 Eu367 2.462 . S
O406 C431 1.252 . S
O407 Eu367 2.373 . S
O407 C423 1.249 . S
O408 Eu356 2.335 . S
O408 C423 1.264 . S
O409 Eu367 2.432 . S
O409 C431 1.268 . S
O410 Eu367 2.291 . S
O410 C430 1.255 . S
O411 Eu356 2.372 . S
O411 C430 1.257 . S
C412 O401 1.249 . S
C412 O402 1.264 . S
C413 C416 1.382 . S
C413 C418 1.390 . S
C413 C420 1.506 . S
C414 C415 1.398 . S
C414 C418 1.392 1_556 S
C415 C414 1.398 . S
C415 C417 1.372 1_556 S
C415 H432 0.931 . S
C416 C413 1.382 . S
C416 C417 1.390 . S
C416 H433 0.931 . S
C417 C415 1.372 1_554 S
C417 C416 1.390 . S
C417 H434 0.929 1_554 S
C418 C413 1.390 . S
C418 C414 1.392 1_554 S
C418 H435 0.930 . S
C419 O404 1.255 . S
C419 O405 1.257 . S
C420 Eu356 2.787 . S
C420 O400 1.252 . S
C420 O403 1.268 . S
C420 C413 1.506 . S
C421 C388 1.439 1_655 S
C421 H398 0.931 . S
C421 C422 1.374 1_655 S
C422 C393 1.387 . S
C422 H399 0.931 1_455 S
C422 C421 1.374 1_455 S
C423 O407 1.249 . S
C423 O408 1.264 . S
C424 C427 1.382 . S
C424 C428 1.390 . S
C424 C431 1.506 . S
C425 C426 1.398 . S
C425 C428 1.392 . S
C426 C425 1.398 . S
C426 C429 1.372 . S
C426 H436 0.931 . S
C427 C424 1.382 . S
C427 C429 1.390 . S
C427 H437 0.931 . S
C428 C424 1.390 . S
C428 C425 1.392 . S
C428 H438 0.930 . S
C429 C426 1.372 . S
C429 C427 1.390 . S
C429 H439 0.929 . S
C430 O410 1.255 . S
C430 O411 1.257 . S
C431 Eu367 2.787 . S
C431 O406 1.252 . S
C431 O409 1.268 . S
C431 C424 1.506 . S
H432 C415 0.931 . S
H433 C416 0.931 . S
H434 C417 0.929 1_556 S
H435 C418 0.930 . S
H436 C426 0.931 . S
H437 C427 0.931 . S
H438 C428 0.930 . S
H439 C429 0.929 . S
C86 C178 1.897 . S
C262 C100 1.890 . S
C255 C60 1.805 . S
C74 C171 1.845 . S
C335 C35 1.885 . S
C419 C47 1.909 . S
C9 C412 1.840 . S
C21 C328 1.817 . S
C162 C22 1.572 . S
C246 C8 1.501 . S
C257 C48 1.293 . S
C173 C34 1.300 . S
C341 C73 1.491 . S
C61 C425 1.576 . S
C414 C99 1.301 . S
C87 C330 1.292 . S
C160 C4 1.499 . S
C244 C17 1.589 . S
C30 C251 1.381 . S
C167 C43 1.598 . S
C339 C56 1.440 . S
C69 C423 1.625 . S
C82 C430 1.503 . S
C95 C346 1.465 . S
