# Generated by pormake.
# Topology ctn, (3,4)-cn, num edge types: 1
# Building blocks:
#     Node 0, Type 0, BuildingBlock: BELTOD_clean_linker_0, # of connection points: 3
#     Node 1, Type 0, BuildingBlock: BELTOD_clean_linker_0, # of connection points: 3
#     Node 2, Type 0, BuildingBlock: BELTOD_clean_linker_0, # of connection points: 3
#     Node 3, Type 0, BuildingBlock: BELTOD_clean_linker_0, # of connection points: 3
#     Node 4, Type 0, BuildingBlock: BELTOD_clean_linker_0, # of connection points: 3
#     Node 5, Type 0, BuildingBlock: BELTOD_clean_linker_0, # of connection points: 3
#     Node 6, Type 0, BuildingBlock: BELTOD_clean_linker_0, # of connection points: 3
#     Node 7, Type 0, BuildingBlock: BELTOD_clean_linker_0, # of connection points: 3
#     Node 8, Type 0, BuildingBlock: BELTOD_clean_linker_0, # of connection points: 3
#     Node 9, Type 0, BuildingBlock: BELTOD_clean_linker_0, # of connection points: 3
#     Node 10, Type 0, BuildingBlock: BELTOD_clean_linker_0, # of connection points: 3
#     Node 11, Type 0, BuildingBlock: BELTOD_clean_linker_0, # of connection points: 3
#     Node 12, Type 0, BuildingBlock: BELTOD_clean_linker_0, # of connection points: 3
#     Node 13, Type 0, BuildingBlock: BELTOD_clean_linker_0, # of connection points: 3
#     Node 14, Type 0, BuildingBlock: BELTOD_clean_linker_0, # of connection points: 3
#     Node 15, Type 0, BuildingBlock: BELTOD_clean_linker_0, # of connection points: 3
#     Node 16, Type 1, BuildingBlock: QUQFOY_clean_sbu_1, # of connection points: 4
#     Node 17, Type 1, BuildingBlock: QUQFOY_clean_sbu_1, # of connection points: 4
#     Node 18, Type 1, BuildingBlock: QUQFOY_clean_sbu_1, # of connection points: 4
#     Node 19, Type 1, BuildingBlock: QUQFOY_clean_sbu_1, # of connection points: 4
#     Node 20, Type 1, BuildingBlock: QUQFOY_clean_sbu_1, # of connection points: 4
#     Node 21, Type 1, BuildingBlock: QUQFOY_clean_sbu_1, # of connection points: 4
#     Node 22, Type 1, BuildingBlock: QUQFOY_clean_sbu_1, # of connection points: 4
#     Node 23, Type 1, BuildingBlock: QUQFOY_clean_sbu_1, # of connection points: 4
#     Node 24, Type 1, BuildingBlock: QUQFOY_clean_sbu_1, # of connection points: 4
#     Node 25, Type 1, BuildingBlock: QUQFOY_clean_sbu_1, # of connection points: 4
#     Node 26, Type 1, BuildingBlock: QUQFOY_clean_sbu_1, # of connection points: 4
#     Node 27, Type 1, BuildingBlock: QUQFOY_clean_sbu_1, # of connection points: 4
#     Edge 28, Type (0, 1), BuildingBlock: UVAHIK_clean_linker_0, # of connection points: 2
#     Edge 29, Type (0, 1), BuildingBlock: UVAHIK_clean_linker_0, # of connection points: 2
#     Edge 30, Type (0, 1), BuildingBlock: UVAHIK_clean_linker_0, # of connection points: 2
#     Edge 31, Type (0, 1), BuildingBlock: UVAHIK_clean_linker_0, # of connection points: 2
#     Edge 32, Type (0, 1), BuildingBlock: UVAHIK_clean_linker_0, # of connection points: 2
#     Edge 33, Type (0, 1), BuildingBlock: UVAHIK_clean_linker_0, # of connection points: 2
#     Edge 34, Type (0, 1), BuildingBlock: UVAHIK_clean_linker_0, # of connection points: 2
#     Edge 35, Type (0, 1), BuildingBlock: UVAHIK_clean_linker_0, # of connection points: 2
#     Edge 36, Type (0, 1), BuildingBlock: UVAHIK_clean_linker_0, # of connection points: 2
#     Edge 37, Type (0, 1), BuildingBlock: UVAHIK_clean_linker_0, # of connection points: 2
#     Edge 38, Type (0, 1), BuildingBlock: UVAHIK_clean_linker_0, # of connection points: 2
#     Edge 39, Type (0, 1), BuildingBlock: UVAHIK_clean_linker_0, # of connection points: 2
#     Edge 40, Type (0, 1), BuildingBlock: UVAHIK_clean_linker_0, # of connection points: 2
#     Edge 41, Type (0, 1), BuildingBlock: UVAHIK_clean_linker_0, # of connection points: 2
#     Edge 42, Type (0, 1), BuildingBlock: UVAHIK_clean_linker_0, # of connection points: 2
#     Edge 43, Type (0, 1), BuildingBlock: UVAHIK_clean_linker_0, # of connection points: 2
#     Edge 44, Type (0, 1), BuildingBlock: UVAHIK_clean_linker_0, # of connection points: 2
#     Edge 45, Type (0, 1), BuildingBlock: UVAHIK_clean_linker_0, # of connection points: 2
#     Edge 46, Type (0, 1), BuildingBlock: UVAHIK_clean_linker_0, # of connection points: 2
#     Edge 47, Type (0, 1), BuildingBlock: UVAHIK_clean_linker_0, # of connection points: 2
#     Edge 48, Type (0, 1), BuildingBlock: UVAHIK_clean_linker_0, # of connection points: 2
#     Edge 49, Type (0, 1), BuildingBlock: UVAHIK_clean_linker_0, # of connection points: 2
#     Edge 50, Type (0, 1), BuildingBlock: UVAHIK_clean_linker_0, # of connection points: 2
#     Edge 51, Type (0, 1), BuildingBlock: UVAHIK_clean_linker_0, # of connection points: 2
#     Edge 52, Type (0, 1), BuildingBlock: UVAHIK_clean_linker_0, # of connection points: 2
#     Edge 53, Type (0, 1), BuildingBlock: UVAHIK_clean_linker_0, # of connection points: 2
#     Edge 54, Type (0, 1), BuildingBlock: UVAHIK_clean_linker_0, # of connection points: 2
#     Edge 55, Type (0, 1), BuildingBlock: UVAHIK_clean_linker_0, # of connection points: 2
#     Edge 56, Type (0, 1), BuildingBlock: UVAHIK_clean_linker_0, # of connection points: 2
#     Edge 57, Type (0, 1), BuildingBlock: UVAHIK_clean_linker_0, # of connection points: 2
#     Edge 58, Type (0, 1), BuildingBlock: UVAHIK_clean_linker_0, # of connection points: 2
#     Edge 59, Type (0, 1), BuildingBlock: UVAHIK_clean_linker_0, # of connection points: 2
#     Edge 60, Type (0, 1), BuildingBlock: UVAHIK_clean_linker_0, # of connection points: 2
#     Edge 61, Type (0, 1), BuildingBlock: UVAHIK_clean_linker_0, # of connection points: 2
#     Edge 62, Type (0, 1), BuildingBlock: UVAHIK_clean_linker_0, # of connection points: 2
#     Edge 63, Type (0, 1), BuildingBlock: UVAHIK_clean_linker_0, # of connection points: 2
#     Edge 64, Type (0, 1), BuildingBlock: UVAHIK_clean_linker_0, # of connection points: 2
#     Edge 65, Type (0, 1), BuildingBlock: UVAHIK_clean_linker_0, # of connection points: 2
#     Edge 66, Type (0, 1), BuildingBlock: UVAHIK_clean_linker_0, # of connection points: 2
#     Edge 67, Type (0, 1), BuildingBlock: UVAHIK_clean_linker_0, # of connection points: 2
#     Edge 68, Type (0, 1), BuildingBlock: UVAHIK_clean_linker_0, # of connection points: 2
#     Edge 69, Type (0, 1), BuildingBlock: UVAHIK_clean_linker_0, # of connection points: 2
#     Edge 70, Type (0, 1), BuildingBlock: UVAHIK_clean_linker_0, # of connection points: 2
#     Edge 71, Type (0, 1), BuildingBlock: UVAHIK_clean_linker_0, # of connection points: 2
#     Edge 72, Type (0, 1), BuildingBlock: UVAHIK_clean_linker_0, # of connection points: 2
#     Edge 73, Type (0, 1), BuildingBlock: UVAHIK_clean_linker_0, # of connection points: 2
#     Edge 74, Type (0, 1), BuildingBlock: UVAHIK_clean_linker_0, # of connection points: 2
#     Edge 75, Type (0, 1), BuildingBlock: UVAHIK_clean_linker_0, # of connection points: 2
# Relax obj value: 0.036
# Max RMSD: 0.149
# Mean RMSD: 0.068
data_MOF--net-ctn--node1-QUQFOY_clean_sbu_1--node2-BELTOD_clean_linker_0--edge1-UVAHIK_clean_linker_0
_symmetry_space_group_name_H-M    P1
_symmetry_Int_Tables_number       1
_symmetry_cell_setting            triclinic
loop_
_symmetry_equiv_pos_as_xyz
'x, y, z'
_cell_length_a     78.015978
_cell_length_b     78.509953
_cell_length_c     77.999056
_cell_angle_alpha  92.019624
_cell_angle_beta   90.130795
_cell_angle_gamma 95.168013
loop_
_atom_site_label
_atom_site_type_symbol
_atom_site_fract_x
_atom_site_fract_y
_atom_site_fract_z
_atom_type_partial_charge
P0 P 0.08759 0.12104 0.10083 0.0
H1 H 0.07854 0.12916 0.13655 0.0
H2 H 0.0528 0.12157 0.1535 0.0
H3 H 0.02855 0.09531 0.10892 0.0
H4 H 0.05441 0.10255 0.09227 0.0
H5 H 0.11343 0.11335 0.07559 0.0
H6 H 0.1256 0.08689 0.0665 0.0
H7 H 0.09547 0.05962 0.10494 0.0
H8 H 0.08356 0.08618 0.11414 0.0
H9 H 0.08789 0.15697 0.09179 0.0
H10 H 0.07401 0.10734 0.06769 0.0
O11 O 0.10183 0.1341 0.11209 0.0
H12 H 0.07856 0.1707 0.06605 0.0
H13 H 0.06469 0.12093 0.04202 0.0
C14 C 0.06833 0.11651 0.11312 0.0
C15 C 0.06763 0.12188 0.13041 0.0
C16 C 0.05287 0.11761 0.14006 0.0
C17 C 0.03862 0.10782 0.13256 0.0
C18 C 0.03936 0.10269 0.11514 0.0
C19 C 0.05409 0.10696 0.10555 0.0
C20 C 0.09728 0.10165 0.09523 0.0
C21 C 0.10947 0.10167 0.08208 0.0
C22 C 0.11635 0.08653 0.07685 0.0
C23 C 0.11129 0.07111 0.08483 0.0
C24 C 0.09962 0.07129 0.09853 0.0
C25 C 0.0927 0.08646 0.10372 0.0
C26 C 0.08183 0.13116 0.08156 0.0
C27 C 0.08302 0.14904 0.0809 0.0
C28 C 0.07773 0.15685 0.06619 0.0
C29 C 0.07091 0.14687 0.05203 0.0
C30 C 0.06976 0.12895 0.05277 0.0
C31 C 0.07517 0.12117 0.06741 0.0
P32 P 0.30756 0.6994 0.18205 0.0
H33 H 0.32517 0.732 0.17262 0.0
H34 H 0.31506 0.75793 0.16122 0.0
H35 H 0.26277 0.73443 0.16179 0.0
H36 H 0.27289 0.70891 0.17372 0.0
H37 H 0.33456 0.68031 0.19562 0.0
H38 H 0.35406 0.68544 0.22031 0.0
H39 H 0.33239 0.73322 0.23195 0.0
H40 H 0.31291 0.72797 0.2074 0.0
H41 H 0.28575 0.67146 0.16523 0.0
H42 H 0.29022 0.69686 0.21517 0.0
O43 O 0.31735 0.6897 0.16594 0.0
H44 H 0.26112 0.65294 0.17512 0.0
H45 H 0.26612 0.67807 0.22535 0.0
C46 C 0.2998 0.71862 0.17426 0.0
C47 C 0.31151 0.73254 0.17047 0.0
C48 C 0.30571 0.74731 0.16384 0.0
C49 C 0.28807 0.7483 0.16059 0.0
C50 C 0.27639 0.73426 0.16443 0.0
C51 C 0.2822 0.71956 0.17117 0.0
C52 C 0.32268 0.704 0.19939 0.0
C53 C 0.33418 0.69199 0.20338 0.0
C54 C 0.34519 0.69485 0.21755 0.0
C55 C 0.34482 0.7098 0.22796 0.0
C56 C 0.33318 0.72175 0.22396 0.0
C57 C 0.32208 0.71879 0.20989 0.0
C58 C 0.29003 0.68523 0.18958 0.0
C59 C 0.28159 0.67286 0.1784 0.0
C60 C 0.26754 0.66227 0.18409 0.0
C61 C 0.26168 0.66395 0.20106 0.0
C62 C 0.27015 0.67653 0.21215 0.0
C63 C 0.28409 0.68717 0.20641 0.0
P64 P 0.95444 0.48177 0.06022 0.0
H65 H 0.94592 0.47616 0.02413 0.0
H66 H 0.94162 0.45038 0.00556 0.0
H67 H 0.94944 0.41932 0.0491 0.0
H68 H 0.95315 0.44507 0.06762 0.0
H69 H 0.9501 0.51696 0.07081 0.0
H70 H 0.92515 0.53377 0.07138 0.0
H71 H 0.89247 0.48865 0.05526 0.0
H72 H 0.91746 0.47197 0.05467 0.0
H73 H 0.98852 0.47487 0.07149 0.0
H74 H 0.93843 0.4777 0.0941 0.0
O75 O 0.96951 0.49424 0.05033 0.0
H76 H 0.00047 0.46929 0.09949 0.0
H77 H 0.95024 0.47192 0.12221 0.0
C78 C 0.95011 0.46254 0.04715 0.0
C79 C 0.94658 0.46377 0.02966 0.0
C80 C 0.9442 0.44903 0.01907 0.0
C81 C 0.94538 0.43278 0.0258 0.0
C82 C 0.94832 0.4316 0.04351 0.0
C83 C 0.95062 0.44637 0.05411 0.0
C84 C 0.93567 0.49337 0.06229 0.0
C85 C 0.93753 0.51069 0.06753 0.0
C86 C 0.92325 0.52024 0.06798 0.0
C87 C 0.90688 0.51256 0.06319 0.0
C88 C 0.90498 0.49497 0.05873 0.0
C89 C 0.91926 0.48543 0.05838 0.0
C90 C 0.96274 0.47715 0.08087 0.0
C91 C 0.9801 0.47426 0.08251 0.0
C92 C 0.98686 0.47087 0.09849 0.0
C93 C 0.9763 0.47023 0.11309 0.0
C94 C 0.95873 0.47258 0.11124 0.0
C95 C 0.95198 0.47591 0.09521 0.0
P96 P 0.68335 0.82866 0.20398 0.0
H97 H 0.71706 0.83682 0.18854 0.0
H98 H 0.74168 0.85682 0.19709 0.0
H99 H 0.71522 0.86989 0.24374 0.0
H100 H 0.69126 0.84944 0.23554 0.0
H101 H 0.66689 0.81053 0.17437 0.0
H102 H 0.67319 0.78511 0.15762 0.0
H103 H 0.71641 0.77907 0.19098 0.0
H104 H 0.71018 0.80494 0.2075 0.0
H105 H 0.65819 0.84727 0.22233 0.0
H106 H 0.67802 0.79789 0.22466 0.0
O107 O 0.67309 0.84083 0.19098 0.0
H108 H 0.63993 0.84075 0.24691 0.0
H109 H 0.65902 0.79077 0.24868 0.0
C110 C 0.70243 0.84134 0.21152 0.0
C111 C 0.7168 0.84368 0.20082 0.0
C112 C 0.73078 0.85528 0.20564 0.0
C113 C 0.73047 0.86503 0.22112 0.0
C114 C 0.71612 0.8624 0.2319 0.0
C115 C 0.70227 0.8507 0.22715 0.0
C116 C 0.6883 0.8098 0.19191 0.0
C117 C 0.67779 0.8038 0.17803 0.0
C118 C 0.6813 0.78913 0.16857 0.0
C119 C 0.6953 0.78 0.17296 0.0
C120 C 0.70567 0.78592 0.18712 0.0
C121 C 0.70213 0.80067 0.19658 0.0
C122 C 0.66925 0.82299 0.2215 0.0
C123 C 0.65836 0.83488 0.22796 0.0
C124 C 0.64784 0.83106 0.242 0.0
C125 C 0.64779 0.81512 0.24974 0.0
C126 C 0.65881 0.80323 0.2432 0.0
C127 C 0.66957 0.80721 0.2293 0.0
P128 P 0.08156 0.9264 0.4175 0.0
H129 H 0.11868 0.9319 0.42334 0.0
H130 H 0.13768 0.95733 0.43186 0.0
H131 H 0.0942 0.98779 0.43137 0.0
H132 H 0.07532 0.96232 0.42346 0.0
H133 H 0.08481 0.89261 0.43149 0.0
H134 H 0.07728 0.8806 0.45929 0.0
H135 H 0.05778 0.92829 0.47574 0.0
H136 H 0.06518 0.94013 0.44786 0.0
H137 H 0.07927 0.94452 0.38598 0.0
H138 H 0.04387 0.92119 0.42253 0.0
O139 O 0.09195 0.91269 0.40548 0.0
H140 H 0.05531 0.95534 0.37082 0.0
H141 H 0.01981 0.9318 0.40734 0.0
C142 C 0.0957 0.94531 0.42238 0.0
C143 C 0.11332 0.94411 0.4249 0.0
C144 C 0.12415 0.95866 0.42972 0.0
C145 C 0.11747 0.97462 0.43224 0.0
C146 C 0.09975 0.97569 0.42971 0.0
C147 C 0.08896 0.96115 0.42497 0.0
C148 C 0.07548 0.91722 0.43763 0.0
C149 C 0.07886 0.90045 0.44105 0.0
C150 C 0.07466 0.89364 0.45699 0.0
C151 C 0.06695 0.90351 0.46971 0.0
C152 C 0.06353 0.92031 0.46615 0.0
C153 C 0.06782 0.92711 0.45026 0.0
C154 C 0.06339 0.93227 0.40549 0.0
C155 C 0.0663 0.94155 0.39061 0.0
C156 C 0.05257 0.94767 0.38192 0.0
C157 C 0.03564 0.94452 0.38794 0.0
C158 C 0.03273 0.93469 0.40256 0.0
C159 C 0.0465 0.92856 0.41123 0.0
P160 P 0.24954 0.77162 0.77218 0.0
H161 H 0.26941 0.78529 0.80204 0.0
H162 H 0.26119 0.79485 0.83087 0.0
H163 H 0.2076 0.78277 0.81761 0.0
H164 H 0.21584 0.77298 0.78897 0.0
H165 H 0.26052 0.74874 0.74498 0.0
H166 H 0.27292 0.7212 0.74518 0.0
H167 H 0.26836 0.72131 0.80042 0.0
H168 H 0.25546 0.74831 0.80002 0.0
H169 H 0.23645 0.79991 0.75486 0.0
H170 H 0.22283 0.74573 0.75867 0.0
O171 O 0.26581 0.78506 0.76566 0.0
H172 H 0.2103 0.80244 0.73816 0.0
H173 H 0.19657 0.74816 0.74202 0.0
C174 C 0.24326 0.77873 0.79327 0.0
C175 C 0.2559 0.78475 0.80534 0.0
C176 C 0.2512 0.79009 0.82181 0.0
C177 C 0.23376 0.78961 0.8264 0.0
C178 C 0.22112 0.78345 0.81431 0.0
C179 C 0.22585 0.77787 0.79793 0.0
C180 C 0.257 0.75057 0.77243 0.0
C181 C 0.26199 0.74267 0.75708 0.0
C182 C 0.26922 0.72701 0.75725 0.0
C183 C 0.27173 0.71903 0.77283 0.0
C184 C 0.26641 0.72691 0.78816 0.0
C185 C 0.2591 0.7425 0.78795 0.0
C186 C 0.23174 0.77259 0.75767 0.0
C187 C 0.228 0.78849 0.75178 0.0
C188 C 0.21298 0.78995 0.74239 0.0
C189 C 0.20138 0.7755 0.73879 0.0
C190 C 0.20539 0.75947 0.74438 0.0
C191 C 0.22039 0.75806 0.75388 0.0
P192 P 0.96483 0.54909 0.52082 0.0
H193 H 0.98801 0.57548 0.50461 0.0
H194 H 0.00444 0.57528 0.47792 0.0
H195 H 0.9853 0.52259 0.46761 0.0
H196 H 0.96854 0.52294 0.49408 0.0
H197 H 0.9646 0.56444 0.55531 0.0
H198 H 0.95882 0.59284 0.56639 0.0
H199 H 0.94888 0.60799 0.51487 0.0
H200 H 0.95435 0.57931 0.50384 0.0
H201 H 0.9459 0.52407 0.5421 0.0
H202 H 0.93864 0.54769 0.49387 0.0
O203 O 0.9766 0.54003 0.53525 0.0
H204 H 0.91788 0.50775 0.53876 0.0
H205 H 0.91067 0.53111 0.4902 0.0
C206 C 0.97654 0.54941 0.50099 0.0
C207 C 0.98701 0.564 0.49644 0.0
C208 C 0.99645 0.56387 0.48124 0.0
C209 C 0.99599 0.54897 0.4707 0.0
C210 C 0.98584 0.53425 0.47552 0.0
C211 C 0.97619 0.53448 0.49056 0.0
C212 C 0.9605 0.57002 0.52872 0.0
C213 C 0.96122 0.57387 0.54638 0.0
C214 C 0.95775 0.59003 0.55271 0.0
C215 C 0.9535 0.6026 0.54145 0.0
C216 C 0.95232 0.59856 0.52378 0.0
C217 C 0.95552 0.58226 0.51748 0.0
C218 C 0.94445 0.53676 0.51805 0.0
C219 C 0.93835 0.52557 0.53068 0.0
C220 C 0.92235 0.51622 0.52872 0.0
C221 C 0.91212 0.518 0.51412 0.0
C222 C 0.9182 0.52951 0.50162 0.0
C223 C 0.93422 0.53888 0.50362 0.0
P224 P 0.81902 0.86279 0.84688 0.0
H225 H 0.82618 0.87864 0.81384 0.0
H226 H 0.84478 0.87172 0.78996 0.0
H227 H 0.86117 0.82926 0.81779 0.0
H228 H 0.84173 0.83556 0.8409 0.0
H229 H 0.79681 0.88408 0.8659 0.0
H230 H 0.76992 0.89582 0.85903 0.0
H231 H 0.77099 0.8724 0.80802 0.0
H232 H 0.79732 0.85968 0.81555 0.0
H233 H 0.83492 0.84945 0.87696 0.0
H234 H 0.79124 0.83519 0.84386 0.0
O235 O 0.83075 0.87746 0.85899 0.0
H236 H 0.82744 0.8243 0.894 0.0
H237 H 0.78367 0.81002 0.86085 0.0
C238 C 0.832 0.85721 0.82885 0.0
C239 C 0.83343 0.86756 0.81455 0.0
C240 C 0.84432 0.86373 0.80101 0.0
C241 C 0.85445 0.8498 0.80179 0.0
C242 C 0.85323 0.83975 0.8164 0.0
C243 C 0.84212 0.8434 0.82975 0.0
C244 C 0.79944 0.87164 0.84101 0.0
C245 C 0.7913 0.88157 0.8532 0.0
C246 C 0.77593 0.88835 0.84919 0.0
C247 C 0.76841 0.88545 0.83279 0.0
C248 C 0.77636 0.87496 0.82076 0.0
C249 C 0.79162 0.86791 0.82494 0.0
C250 C 0.81341 0.84435 0.85941 0.0
C251 C 0.82367 0.84095 0.87343 0.0
C252 C 0.81947 0.82651 0.88306 0.0
C253 C 0.80491 0.81526 0.87881 0.0
C254 C 0.7948 0.81861 0.86458 0.0
C255 C 0.79912 0.83297 0.85487 0.0
P256 P 0.32198 0.36601 0.34721 0.0
H257 H 0.32881 0.38094 0.31364 0.0
H258 H 0.34767 0.37376 0.29007 0.0
H259 H 0.36506 0.33273 0.31937 0.0
H260 H 0.34536 0.33925 0.34217 0.0
H261 H 0.29996 0.38798 0.3656 0.0
H262 H 0.27297 0.39939 0.35851 0.0
H263 H 0.27364 0.37433 0.30824 0.0
H264 H 0.30013 0.36199 0.31601 0.0
H265 H 0.33791 0.35287 0.37738 0.0
H266 H 0.29404 0.33852 0.34455 0.0
O267 O 0.33363 0.38082 0.35922 0.0
H268 H 0.33043 0.32785 0.39461 0.0
H269 H 0.28645 0.31352 0.36177 0.0
C270 C 0.33511 0.3602 0.32937 0.0
C271 C 0.33633 0.37009 0.31474 0.0
C272 C 0.34738 0.36613 0.30137 0.0
C273 C 0.35787 0.35253 0.30265 0.0
C274 C 0.35685 0.34294 0.31759 0.0
C275 C 0.34558 0.34672 0.33077 0.0
C276 C 0.30242 0.37476 0.34108 0.0
C277 C 0.29436 0.38506 0.353 0.0
C278 C 0.27892 0.39164 0.34887 0.0
C279 C 0.27124 0.38815 0.33262 0.0
C280 C 0.27914 0.37734 0.32086 0.0
C281 C 0.29448 0.3705 0.32516 0.0
C282 C 0.31631 0.34772 0.35994 0.0
C283 C 0.32661 0.34439 0.37395 0.0
C284 C 0.32241 0.33004 0.3837 0.0
C285 C 0.3078 0.31881 0.37958 0.0
C286 C 0.29763 0.3221 0.36538 0.0
C287 C 0.30195 0.33637 0.35554 0.0
P288 P 0.4567 0.98231 0.56325 0.0
H289 H 0.46967 0.97396 0.52919 0.0
H290 H 0.46742 0.9478 0.51135 0.0
H291 H 0.43589 0.92222 0.54994 0.0
H292 H 0.43881 0.94847 0.56806 0.0
H293 H 0.44814 0.01403 0.58007 0.0
H294 H 0.42313 0.03061 0.57812 0.0
H295 H 0.39742 0.99044 0.54559 0.0
H296 H 0.4225 0.97421 0.54726 0.0
H297 H 0.4894 0.97294 0.57557 0.0
H298 H 0.43929 0.97942 0.59672 0.0
O299 O 0.47202 0.99589 0.55514 0.0
H300 H 0.50013 0.96718 0.604 0.0
H301 H 0.44991 0.97354 0.62531 0.0
C302 C 0.45455 0.96306 0.54999 0.0
C303 C 0.46231 0.96273 0.53385 0.0
C304 C 0.46085 0.94776 0.52357 0.0
C305 C 0.4514 0.93288 0.52916 0.0
C306 C 0.44344 0.93336 0.54533 0.0
C307 C 0.44503 0.94835 0.55566 0.0
C308 C 0.43721 0.99293 0.56381 0.0
C309 C 0.43699 0.00872 0.57273 0.0
C310 C 0.42266 0.01813 0.57168 0.0
C311 C 0.40834 0.01189 0.56159 0.0
C312 C 0.40836 0.99571 0.55325 0.0
C313 C 0.42269 0.98634 0.5543 0.0
C314 C 0.46373 0.97704 0.58417 0.0
C315 C 0.48069 0.97302 0.58636 0.0
C316 C 0.48675 0.96955 0.60259 0.0
C317 C 0.47588 0.96997 0.61692 0.0
C318 C 0.45864 0.97334 0.61454 0.0
C319 C 0.45257 0.97675 0.59823 0.0
P320 P 0.18606 0.3171 0.7109 0.0
H321 H 0.19827 0.34592 0.69003 0.0
H322 H 0.22015 0.36995 0.69502 0.0
H323 H 0.23393 0.3487 0.74298 0.0
H324 H 0.21198 0.32476 0.73792 0.0
H325 H 0.16805 0.28792 0.69268 0.0
H326 H 0.17784 0.26318 0.67689 0.0
H327 H 0.23047 0.28036 0.69031 0.0
H328 H 0.22058 0.30502 0.70624 0.0
H329 H 0.17687 0.33943 0.7392 0.0
H330 H 0.17277 0.28514 0.72724 0.0
O331 O 0.17109 0.32417 0.69833 0.0
H332 H 0.1618 0.3343 0.76609 0.0
H333 H 0.15689 0.27995 0.7537 0.0
C334 C 0.20325 0.33384 0.71382 0.0
C335 C 0.20605 0.34641 0.70158 0.0
C336 C 0.21862 0.36007 0.70439 0.0
C337 C 0.2286 0.36131 0.7195 0.0
C338 C 0.22621 0.34826 0.73138 0.0
C339 C 0.21371 0.33457 0.7285 0.0
C340 C 0.19357 0.29839 0.70047 0.0
C341 C 0.18168 0.28628 0.69235 0.0
C342 C 0.18728 0.27209 0.68344 0.0
C343 C 0.20493 0.26987 0.68236 0.0
C344 C 0.21681 0.28184 0.69084 0.0
C345 C 0.21116 0.29594 0.69995 0.0
C346 C 0.17616 0.31268 0.73129 0.0
C347 C 0.17283 0.32637 0.74242 0.0
C348 C 0.16404 0.32342 0.75774 0.0
C349 C 0.15801 0.3067 0.76206 0.0
C350 C 0.16155 0.29296 0.75093 0.0
C351 C 0.17055 0.29594 0.73568 0.0
P352 P 0.80889 0.20284 0.68112 0.0
H353 H 0.82383 0.23258 0.66348 0.0
H354 H 0.81172 0.25792 0.6528 0.0
H355 H 0.76212 0.24024 0.67326 0.0
H356 H 0.77423 0.21502 0.68386 0.0
H357 H 0.83458 0.18259 0.69513 0.0
H358 H 0.85572 0.18805 0.71839 0.0
H359 H 0.8396 0.23892 0.72649 0.0
H360 H 0.81848 0.23337 0.70333 0.0
H361 H 0.78478 0.17675 0.66458 0.0
H362 H 0.79596 0.19713 0.71585 0.0
O363 O 0.81781 0.19362 0.66417 0.0
H364 H 0.76113 0.15767 0.67558 0.0
H365 H 0.7728 0.17777 0.72703 0.0
C366 C 0.79994 0.22184 0.67428 0.0
C367 C 0.81038 0.23424 0.66574 0.0
C368 C 0.80347 0.24875 0.65977 0.0
C369 C 0.78595 0.25104 0.66218 0.0
C370 C 0.77561 0.23873 0.67107 0.0
C371 C 0.78257 0.22429 0.67715 0.0
C372 C 0.82524 0.20768 0.69729 0.0
C373 C 0.83576 0.19498 0.7018 0.0
C374 C 0.84772 0.19806 0.71516 0.0
C375 C 0.84934 0.21393 0.72419 0.0
C376 C 0.83881 0.22667 0.71957 0.0
C377 C 0.82674 0.22351 0.70631 0.0
C378 C 0.79234 0.18803 0.68945 0.0
C379 C 0.78231 0.1769 0.67824 0.0
C380 C 0.76883 0.16598 0.68456 0.0
C381 C 0.76511 0.16613 0.70221 0.0
C382 C 0.77519 0.17743 0.71336 0.0
C383 C 0.78859 0.18838 0.70701 0.0
P384 P 0.5883 0.62163 0.60021 0.0
H385 H 0.5777 0.62923 0.63557 0.0
H386 H 0.55122 0.6214 0.65131 0.0
H387 H 0.52898 0.5956 0.60556 0.0
H388 H 0.55555 0.60309 0.59009 0.0
H389 H 0.61605 0.61473 0.5769 0.0
H390 H 0.62893 0.58856 0.56819 0.0
H391 H 0.59612 0.56014 0.60377 0.0
H392 H 0.58349 0.58641 0.61263 0.0
H393 H 0.5883 0.65751 0.59106 0.0
H394 H 0.57668 0.60772 0.56648 0.0
O395 O 0.60186 0.6349 0.61203 0.0
H396 H 0.5799 0.67104 0.56484 0.0
H397 H 0.5683 0.62111 0.54033 0.0
C398 C 0.56854 0.61685 0.61163 0.0
C399 C 0.56707 0.622 0.6289 0.0
C400 C 0.55189 0.61759 0.63787 0.0
C401 C 0.53799 0.60787 0.62969 0.0
C402 C 0.5395 0.60293 0.61229 0.0
C403 C 0.55465 0.60734 0.60338 0.0
C404 C 0.59855 0.60245 0.5951 0.0
C405 C 0.61168 0.60287 0.58287 0.0
C406 C 0.61897 0.58789 0.57785 0.0
C407 C 0.61336 0.57223 0.58511 0.0
C408 C 0.60072 0.572 0.59794 0.0
C409 C 0.59339 0.58702 0.60292 0.0
C410 C 0.5833 0.63164 0.58063 0.0
C411 C 0.58415 0.64951 0.57996 0.0
C412 C 0.57939 0.65721 0.56498 0.0
C413 C 0.57346 0.64712 0.55054 0.0
C414 C 0.57269 0.62921 0.55129 0.0
C415 C 0.57756 0.62155 0.5662 0.0
P416 P 0.57445 0.42892 0.91449 0.0
H417 H 0.60813 0.44112 0.90071 0.0
H418 H 0.62852 0.4657 0.90848 0.0
H419 H 0.59532 0.47936 0.95012 0.0
H420 H 0.57483 0.45527 0.94188 0.0
H421 H 0.58601 0.39913 0.93098 0.0
H422 H 0.57757 0.38492 0.95746 0.0
H423 H 0.5399 0.42127 0.96682 0.0
H424 H 0.54812 0.4351 0.94017 0.0
H425 H 0.57281 0.45905 0.89376 0.0
H426 H 0.53781 0.41716 0.91023 0.0
O427 O 0.58331 0.41534 0.90097 0.0
H428 H 0.5493 0.47078 0.87875 0.0
H429 H 0.51414 0.42897 0.89529 0.0
C430 C 0.59013 0.44617 0.92093 0.0
C431 C 0.60534 0.44933 0.9116 0.0
C432 C 0.617 0.46337 0.91609 0.0
C433 C 0.61357 0.47451 0.92994 0.0
C434 C 0.59829 0.4712 0.93925 0.0
C435 C 0.58663 0.45725 0.93468 0.0
C436 C 0.5674 0.41789 0.93341 0.0
C437 C 0.57577 0.40388 0.93863 0.0
C438 C 0.57106 0.39588 0.95387 0.0
C439 C 0.558 0.40191 0.96423 0.0
C440 C 0.54977 0.41609 0.95899 0.0
C441 C 0.55447 0.42403 0.94375 0.0
C442 C 0.55696 0.43752 0.90358 0.0
C443 C 0.56004 0.45245 0.89431 0.0
C444 C 0.54661 0.45909 0.88562 0.0
C445 C 0.52987 0.45087 0.88599 0.0
C446 C 0.52687 0.43573 0.89505 0.0
C447 C 0.54037 0.42899 0.90359 0.0
P448 P 0.74993 0.26737 0.27454 0.0
H449 H 0.76719 0.28483 0.3043 0.0
H450 H 0.75667 0.2952 0.33199 0.0
H451 H 0.70485 0.27611 0.31743 0.0
H452 H 0.71542 0.26555 0.28994 0.0
H453 H 0.76122 0.24323 0.24864 0.0
H454 H 0.77466 0.21637 0.25041 0.0
H455 H 0.77235 0.22054 0.30576 0.0
H456 H 0.75843 0.2469 0.30385 0.0
H457 H 0.73603 0.29393 0.25517 0.0
H458 H 0.72513 0.23966 0.26109 0.0
O459 O 0.76577 0.28147 0.26828 0.0
H460 H 0.7103 0.2943 0.23737 0.0
H461 H 0.69967 0.23975 0.2428 0.0
C462 C 0.74206 0.27474 0.29493 0.0
C463 C 0.75357 0.2829 0.30708 0.0
C464 C 0.74757 0.28871 0.32291 0.0
C465 C 0.72993 0.28654 0.32678 0.0
C466 C 0.71847 0.27814 0.31467 0.0
C467 C 0.72452 0.27211 0.29894 0.0
C468 C 0.7586 0.24697 0.27606 0.0
C469 C 0.76342 0.2382 0.26113 0.0
C470 C 0.77125 0.22294 0.26218 0.0
C471 C 0.77463 0.21626 0.27824 0.0
C472 C 0.7697 0.22511 0.29317 0.0
C473 C 0.76178 0.24031 0.29209 0.0
C474 C 0.73268 0.26672 0.25912 0.0
C475 C 0.72834 0.282 0.25221 0.0
C476 C 0.71363 0.28217 0.242 0.0
C477 C 0.70291 0.26704 0.2386 0.0
C478 C 0.70754 0.25166 0.24528 0.0
C479 C 0.72223 0.25154 0.25557 0.0
P480 P 0.46708 0.04717 0.02268 0.0
H481 H 0.49017 0.07324 0.00585 0.0
H482 H 0.50591 0.07272 0.97876 0.0
H483 H 0.48564 0.02028 0.96889 0.0
H484 H 0.46963 0.02095 0.9958 0.0
H485 H 0.46867 0.06217 0.05735 0.0
H486 H 0.46345 0.09047 0.06915 0.0
H487 H 0.45179 0.10647 0.01834 0.0
H488 H 0.45671 0.07789 0.00659 0.0
H489 H 0.44708 0.02433 0.04526 0.0
H490 H 0.44091 0.04555 0.99563 0.0
O491 O 0.47884 0.03744 0.0366 0.0
H492 H 0.41833 0.00937 0.04285 0.0
H493 H 0.41225 0.03021 0.99283 0.0
C494 C 0.47823 0.04732 0.00252 0.0
C495 C 0.48878 0.06176 0.9977 0.0
C496 C 0.49783 0.06144 0.98226 0.0
C497 C 0.49686 0.0465 0.97172 0.0
C498 C 0.48658 0.03196 0.97679 0.0
C499 C 0.47736 0.03237 0.99209 0.0
C500 C 0.46367 0.06818 0.03104 0.0
C501 C 0.46509 0.07178 0.04872 0.0
C502 C 0.46193 0.08788 0.05547 0.0
C503 C 0.4573 0.10063 0.04462 0.0
C504 C 0.45553 0.09689 0.02693 0.0
C505 C 0.45842 0.08065 0.02022 0.0
C506 C 0.44624 0.03563 0.02042 0.0
C507 C 0.43961 0.02554 0.03372 0.0
C508 C 0.42319 0.01697 0.03229 0.0
C509 C 0.41306 0.01842 0.01755 0.0
C510 C 0.41968 0.02886 0.00437 0.0
C511 C 0.43611 0.03749 0.00587 0.0
O512 O 0.22101 0.87145 0.00019 0.0
Cd513 Cd 0.22965 0.88537 0.02192 0.0
Cd514 Cd 0.21177 0.90994 0.00505 0.0
O515 O 0.2062 0.89005 0.98735 0.0
O516 O 0.24383 0.86872 0.03242 0.0
O517 O 0.22161 0.87847 0.04568 0.0
C518 C 0.23433 0.86904 0.04583 0.0
C519 C 0.19036 0.92564 0.01651 0.0
C520 C 0.21177 0.87534 0.98772 0.0
C521 C 0.2491 0.91896 0.0116 0.0
O522 O 0.23572 0.92325 0.0042 0.0
O523 O 0.24868 0.90504 0.01944 0.0
O524 O 0.19532 0.9272 0.00083 0.0
O525 O 0.19708 0.91446 0.02558 0.0
O526 O 0.13586 0.53766 0.28419 0.0
Cd527 Cd 0.12245 0.51778 0.29649 0.0
Cd528 Cd 0.09608 0.5292 0.27741 0.0
O529 O 0.1153 0.54564 0.26762 0.0
O530 O 0.14114 0.50821 0.30927 0.0
O531 O 0.12581 0.49328 0.28917 0.0
C532 C 0.13801 0.4941 0.30046 0.0
C533 C 0.07781 0.51309 0.25829 0.0
C534 C 0.13087 0.54717 0.27266 0.0
C535 C 0.09208 0.53047 0.31547 0.0
O536 O 0.08626 0.53478 0.3012 0.0
O537 O 0.10583 0.52301 0.31609 0.0
O538 O 0.07618 0.52907 0.26161 0.0
O539 O 0.09009 0.50616 0.2658 0.0
O540 O 0.74338 0.67061 0.99164 0.0
Cd541 Cd 0.7345 0.65255 0.00881 0.0
Cd542 Cd 0.7622 0.63702 0.99783 0.0
O543 O 0.76788 0.65978 0.9857 0.0
O544 O 0.71821 0.66379 0.02402 0.0
O545 O 0.74297 0.65559 0.03321 0.0
C546 C 0.729 0.66278 0.03641 0.0
C547 C 0.78393 0.6242 0.01168 0.0
C548 C 0.75784 0.67152 0.98411 0.0
C549 C 0.72716 0.6188 0.99046 0.0
O550 O 0.74324 0.61953 0.98769 0.0
O551 O 0.72088 0.6305 0.99943 0.0
O552 O 0.78299 0.62439 0.9952 0.0
O553 O 0.77289 0.63211 0.0205 0.0
O554 O 0.90316 0.01906 0.28121 0.0
Cd555 Cd 0.887 0.02726 0.26282 0.0
Cd556 Cd 0.86964 0.03466 0.29117 0.0
O557 O 0.89091 0.02861 0.30463 0.0
O558 O 0.90074 0.02505 0.24154 0.0
O559 O 0.89382 0.04996 0.25213 0.0
C560 C 0.90176 0.04145 0.24065 0.0
C561 C 0.86035 0.06194 0.29154 0.0
C562 C 0.90304 0.02134 0.29742 0.0
C563 C 0.85255 0.00785 0.26747 0.0
O564 O 0.8526 0.01462 0.28252 0.0
O565 O 0.8645 0.01223 0.25704 0.0
O566 O 0.85671 0.05175 0.30394 0.0
O567 O 0.86981 0.05674 0.27916 0.0
O568 O 0.24699 0.17329 0.49176 0.0
Cd569 Cd 0.23822 0.15485 0.50864 0.0
Cd570 Cd 0.26467 0.13891 0.49573 0.0
O571 O 0.2708 0.16191 0.48427 0.0
O572 O 0.22335 0.16656 0.52501 0.0
O573 O 0.24759 0.15624 0.53275 0.0
C574 C 0.23435 0.16425 0.53688 0.0
C575 C 0.28619 0.12519 0.50886 0.0
C576 C 0.26111 0.17404 0.48362 0.0
C577 C 0.229 0.1219 0.48939 0.0
O578 O 0.24486 0.12241 0.48561 0.0
O579 O 0.22355 0.13338 0.49931 0.0
O580 O 0.28503 0.12579 0.49242 0.0
O581 O 0.27541 0.13307 0.51805 0.0
O582 O 0.39824 0.52036 0.77425 0.0
Cd583 Cd 0.38232 0.52759 0.75517 0.0
Cd584 Cd 0.36407 0.53577 0.78288 0.0
O585 O 0.38463 0.52925 0.79715 0.0
O586 O 0.39659 0.52516 0.73428 0.0
O587 O 0.38892 0.55009 0.74404 0.0
C588 C 0.39732 0.54151 0.733 0.0
C589 C 0.35531 0.56326 0.78325 0.0
C590 C 0.39731 0.52245 0.79044 0.0
C591 C 0.34748 0.50849 0.75924 0.0
O592 O 0.34682 0.51613 0.77382 0.0
O593 O 0.36014 0.51199 0.74934 0.0
O594 O 0.3511 0.55295 0.79541 0.0
O595 O 0.36503 0.55804 0.77111 0.0
O596 O 0.71847 0.37037 0.49688 0.0
Cd597 Cd 0.7288 0.38369 0.51826 0.0
Cd598 Cd 0.71113 0.40932 0.50314 0.0
O599 O 0.70385 0.3899 0.48535 0.0
O600 O 0.74176 0.36586 0.52844 0.0
O601 O 0.72113 0.37778 0.54238 0.0
C602 C 0.73284 0.36716 0.54217 0.0
C603 C 0.69092 0.42616 0.51527 0.0
C604 C 0.70878 0.3749 0.48507 0.0
C605 C 0.74917 0.41648 0.50765 0.0
O606 O 0.73554 0.42159 0.50149 0.0
O607 O 0.74874 0.40225 0.51495 0.0
O608 O 0.69562 0.42757 0.4995 0.0
O609 O 0.69723 0.41454 0.52409 0.0
O610 O 0.6382 0.03976 0.78509 0.0
Cd611 Cd 0.62426 0.01991 0.79698 0.0
Cd612 Cd 0.59834 0.03266 0.77839 0.0
O613 O 0.61795 0.04883 0.76887 0.0
O614 O 0.64258 0.00961 0.80963 0.0
O615 O 0.62707 0.99542 0.78919 0.0
C616 C 0.63916 0.99572 0.80056 0.0
C617 C 0.57989 0.01673 0.75932 0.0
C618 C 0.63352 0.04974 0.77384 0.0
C619 C 0.59413 0.03287 0.81631 0.0
O620 O 0.58859 0.03797 0.80225 0.0
O621 O 0.60761 0.02495 0.81664 0.0
O622 O 0.57851 0.03278 0.76252 0.0
O623 O 0.59209 0.00967 0.76681 0.0
O624 O 0.96607 0.27218 0.91887 0.0
Cd625 Cd 0.97392 0.25135 0.90513 0.0
Cd626 Cd 0.99169 0.27476 0.88642 0.0
O627 O 0.98317 0.29099 0.90521 0.0
O628 O 0.97377 0.23164 0.92048 0.0
O629 O 0.99759 0.24493 0.91007 0.0
C630 C 0.99037 0.23327 0.91964 0.0
C631 C 0.02015 0.27967 0.87727 0.0
C632 C 0.97223 0.28753 0.91692 0.0
C633 C 0.96341 0.25199 0.86855 0.0
O634 O 0.97439 0.26492 0.86785 0.0
O635 O 0.96148 0.24386 0.88232 0.0
O636 O 0.00864 0.28972 0.87348 0.0
O637 O 0.01558 0.26681 0.88661 0.0
O638 O 0.46754 0.7716 0.42079 0.0
Cd639 Cd 0.47414 0.7507 0.40621 0.0
Cd640 Cd 0.48899 0.77435 0.38543 0.0
O641 O 0.48148 0.79066 0.40459 0.0
O642 O 0.47524 0.73123 0.4216 0.0
O643 O 0.49815 0.74413 0.40911 0.0
C644 C 0.49169 0.73266 0.41934 0.0
C645 C 0.51576 0.78111 0.37279 0.0
C646 C 0.47244 0.78706 0.41772 0.0
C647 C 0.45975 0.75032 0.37085 0.0
O648 O 0.47036 0.76333 0.36888 0.0
O649 O 0.45934 0.74257 0.3849 0.0
O650 O 0.50291 0.78991 0.37027 0.0
O651 O 0.51359 0.76845 0.38293 0.0
O652 O 0.98563 0.79249 0.67657 0.0
Cd653 Cd 0.00282 0.78196 0.66017 0.0
Cd654 Cd 0.98804 0.80101 0.63732 0.0
O655 O 0.97564 0.81026 0.65853 0.0
O656 O 0.01935 0.77195 0.67551 0.0
O657 O 0.0271 0.79268 0.65788 0.0
C658 C 0.03132 0.78237 0.6694 0.0
C659 C 0.0029 0.81996 0.6192 0.0
C660 C 0.97602 0.80425 0.67342 0.0
C661 C 0.98359 0.7631 0.63093 0.0
O662 O 0.97908 0.77748 0.62651 0.0
O663 O 0.99357 0.76223 0.64369 0.0
O664 O 0.98631 0.81786 0.61916 0.0
O665 O 0.01114 0.81147 0.62992 0.0
O666 O 0.48883 0.29314 0.17827 0.0
Cd667 Cd 0.50524 0.28168 0.16168 0.0
Cd668 Cd 0.48922 0.29995 0.13834 0.0
O669 O 0.47791 0.30997 0.15984 0.0
O670 O 0.52167 0.27141 0.1769 0.0
O671 O 0.52983 0.2914 0.15861 0.0
C672 C 0.53389 0.28108 0.17019 0.0
C673 C 0.50107 0.31828 0.11782 0.0
C674 C 0.47903 0.30471 0.17498 0.0
C675 C 0.48481 0.26176 0.13379 0.0
O676 O 0.48012 0.27591 0.12896 0.0
O677 O 0.49524 0.26141 0.14627 0.0
O678 O 0.48466 0.31532 0.11954 0.0
O679 O 0.51093 0.31114 0.12824 0.0
C680 C 0.23699 0.79044 0.85836 0.0
C681 C 0.2288 0.79576 0.8437 0.0
C682 C 0.23287 0.79682 0.87463 0.0
C683 C 0.20079 0.82104 0.89844 0.0
H684 H 0.23907 0.83174 0.92993 0.0
C685 C 0.20062 0.86779 0.9579 0.0
C686 C 0.20919 0.86325 0.97273 0.0
C687 C 0.20064 0.85751 0.94288 0.0
C688 C 0.22819 0.82861 0.92138 0.0
H689 H 0.20975 0.81174 0.8345 0.0
H690 H 0.20291 0.82333 0.86284 0.0
H691 H 0.24397 0.8179 0.90228 0.0
H692 H 0.22344 0.84369 0.98369 0.0
H693 H 0.22348 0.8259 0.95751 0.0
H694 H 0.18521 0.83249 0.91751 0.0
C695 C 0.2122 0.8139 0.86189 0.0
C696 C 0.23098 0.82061 0.90551 0.0
C697 C 0.21617 0.80733 0.84563 0.0
C698 C 0.21685 0.84769 0.97248 0.0
C699 C 0.21695 0.8375 0.95747 0.0
C700 C 0.19804 0.82923 0.91429 0.0
C701 C 0.22064 0.80887 0.8766 0.0
C702 C 0.21734 0.81675 0.89379 0.0
C703 C 0.2093 0.84256 0.94238 0.0
C704 C 0.21174 0.83312 0.9259 0.0
H705 H 0.24659 0.78132 0.85724 0.0
H706 H 0.23936 0.79234 0.88567 0.0
H707 H 0.18993 0.81805 0.88984 0.0
H708 H 0.19454 0.87965 0.95766 0.0
H709 H 0.19467 0.86174 0.93141 0.0
C710 C 0.01712 0.53542 0.45182 0.0
C711 C 0.00638 0.5486 0.45489 0.0
C712 C 0.02691 0.53496 0.43689 0.0
C713 C 0.02794 0.54754 0.39266 0.0
H714 H 0.07658 0.54116 0.39521 0.0
C715 C 0.07009 0.54563 0.33194 0.0
C716 C 0.08271 0.53393 0.33147 0.0
C717 C 0.06121 0.54877 0.3471 0.0
C718 C 0.06297 0.54272 0.39423 0.0
H719 H 0.99729 0.57156 0.44485 0.0
H720 H 0.01423 0.57056 0.41843 0.0
H721 H 0.06014 0.54391 0.42155 0.0
H722 H 0.09578 0.51622 0.34646 0.0
H723 H 0.07992 0.5212 0.37264 0.0
H724 H 0.03048 0.54567 0.3654 0.0
C725 C 0.01514 0.5607 0.42768 0.0
C726 C 0.05361 0.54439 0.40933 0.0
C727 C 0.00555 0.56131 0.44277 0.0
C728 C 0.08623 0.52542 0.34644 0.0
C729 C 0.0772 0.52838 0.36151 0.0
C730 C 0.03724 0.54562 0.37753 0.0
C731 C 0.02593 0.54754 0.42465 0.0
C732 C 0.036 0.54669 0.40867 0.0
C733 C 0.06459 0.54012 0.36207 0.0
C734 C 0.05485 0.54303 0.37812 0.0
H735 H 0.01804 0.52553 0.46104 0.0
H736 H 0.03505 0.52462 0.43477 0.0
H737 H 0.01432 0.54915 0.39184 0.0
H738 H 0.06718 0.55248 0.32063 0.0
H739 H 0.05179 0.5581 0.34711 0.0
C740 C 0.78306 0.79629 0.89435 0.0
C741 C 0.8002 0.80019 0.8893 0.0
C742 C 0.77866 0.78233 0.90458 0.0
C743 C 0.79285 0.74125 0.91721 0.0
H744 H 0.76332 0.74718 0.9565 0.0
C745 C 0.7797 0.68875 0.96677 0.0
C746 C 0.76294 0.68628 0.97336 0.0
C747 C 0.78445 0.70269 0.95659 0.0
C748 C 0.77139 0.74523 0.94545 0.0
H749 H 0.8261 0.79237 0.89069 0.0
H750 H 0.81839 0.76793 0.90858 0.0
H751 H 0.77105 0.77128 0.93832 0.0
H752 H 0.73798 0.69644 0.97429 0.0
H753 H 0.74614 0.72047 0.95626 0.0
H754 H 0.79302 0.71514 0.92414 0.0
C755 C 0.80838 0.77568 0.90462 0.0
C756 C 0.77584 0.75905 0.93507 0.0
C757 C 0.81281 0.78974 0.89452 0.0
C758 C 0.75103 0.69802 0.96951 0.0
C759 C 0.75575 0.71187 0.95924 0.0
C760 C 0.7883 0.72737 0.92752 0.0
C761 C 0.79127 0.7719 0.90984 0.0
C762 C 0.7866 0.7572 0.92084 0.0
C763 C 0.77252 0.7144 0.95268 0.0
C764 C 0.7775 0.72919 0.94177 0.0
H765 H 0.7731 0.8042 0.89063 0.0
H766 H 0.76534 0.77962 0.90828 0.0
H767 H 0.80101 0.73941 0.90621 0.0
H768 H 0.78921 0.67999 0.96956 0.0
H769 H 0.79755 0.70438 0.95197 0.0
C770 C 0.0085 0.95948 0.38903 0.0
C771 C 0.02124 0.95204 0.37932 0.0
C772 C 0.99554 0.96748 0.38093 0.0
C773 C 0.98618 0.98772 0.34046 0.0
H774 H 0.93865 0.98151 0.35519 0.0
C775 C 0.93057 0.00753 0.29952 0.0
C776 C 0.91691 0.01496 0.30776 0.0
C777 C 0.94337 0.00083 0.30903 0.0
C778 C 0.95191 0.98357 0.35109 0.0
H779 H 0.02994 0.94659 0.35349 0.0
H780 H 0.00734 0.96051 0.33938 0.0
H781 H 0.96062 0.96739 0.37023 0.0
H782 H 0.90614 0.02132 0.33253 0.0
H783 H 0.92867 0.00965 0.34921 0.0
H784 H 0.97752 0.0038 0.32127 0.0
C785 C 0.00756 0.96045 0.35326 0.0
C786 C 0.96448 0.97546 0.35968 0.0
C787 C 0.0205 0.95246 0.36134 0.0
C788 C 0.91648 0.01569 0.32579 0.0
C789 C 0.92932 0.00891 0.33534 0.0
C790 C 0.97364 0.99584 0.3319 0.0
C791 C 0.99505 0.96822 0.36297 0.0
C792 C 0.98172 0.97728 0.35432 0.0
C793 C 0.94287 0.00136 0.32704 0.0
C794 C 0.95633 0.99369 0.33696 0.0
H795 H 0.00884 0.95959 0.40291 0.0
H796 H 0.98617 0.97348 0.38877 0.0
H797 H 0.99941 0.98969 0.33624 0.0
H798 H 0.93133 0.00671 0.28565 0.0
H799 H 0.95349 0.99488 0.30222 0.0
C800 C 0.22402 0.25898 0.65951 0.0
C801 C 0.21083 0.2557 0.67149 0.0
C802 C 0.22815 0.24619 0.64773 0.0
C803 C 0.20794 0.20682 0.6264 0.0
H804 H 0.25327 0.20512 0.60648 0.0
C805 C 0.24438 0.1699 0.56739 0.0
C806 C 0.23199 0.17122 0.5545 0.0
C807 C 0.24243 0.17753 0.5837 0.0
C808 C 0.24058 0.20519 0.61207 0.0
H809 H 0.19241 0.23619 0.68132 0.0
H810 H 0.19985 0.21369 0.661 0.0
H811 H 0.24967 0.22303 0.63217 0.0
H812 H 0.20768 0.18127 0.54874 0.0
H813 H 0.20444 0.19467 0.57686 0.0
H814 H 0.19884 0.18898 0.60637 0.0
C815 C 0.2067 0.22627 0.66037 0.0
C816 C 0.23847 0.21564 0.62668 0.0
C817 C 0.20247 0.23912 0.67204 0.0
C818 C 0.21746 0.17996 0.55836 0.0
C819 C 0.21553 0.18756 0.57458 0.0
C820 C 0.21006 0.19632 0.61189 0.0
C821 C 0.21927 0.22977 0.64775 0.0
C822 C 0.22204 0.21694 0.63375 0.0
C823 C 0.22804 0.18657 0.58742 0.0
C824 C 0.2263 0.19576 0.60424 0.0
H825 H 0.23057 0.27169 0.65867 0.0
H826 H 0.23772 0.24946 0.63807 0.0
H827 H 0.19506 0.20756 0.63135 0.0
H828 H 0.2557 0.16322 0.56482 0.0
H829 H 0.25222 0.17641 0.59336 0.0
C830 C 0.515 0.61344 0.65126 0.0
C831 C 0.52223 0.60228 0.63939 0.0
C832 C 0.50041 0.60788 0.66065 0.0
C833 C 0.47734 0.56836 0.67581 0.0
H834 H 0.43926 0.59619 0.68352 0.0
C835 C 0.41558 0.54015 0.70692 0.0
C836 C 0.40861 0.55002 0.72008 0.0
C837 C 0.42819 0.54748 0.69612 0.0
C838 C 0.44986 0.58834 0.68158 0.0
H839 H 0.5198 0.57651 0.6281 0.0
H840 H 0.49429 0.56694 0.64421 0.0
H841 H 0.46407 0.60727 0.66676 0.0
H842 H 0.40873 0.57552 0.73169 0.0
H843 H 0.43103 0.58834 0.7129 0.0
H844 H 0.46339 0.54951 0.69067 0.0
C845 C 0.49994 0.57995 0.64638 0.0
C846 C 0.46406 0.59469 0.67201 0.0
C847 C 0.51446 0.5855 0.637 0.0
C848 C 0.41386 0.56761 0.72164 0.0
C849 C 0.42661 0.57495 0.71086 0.0
C850 C 0.46323 0.56206 0.68535 0.0
C851 C 0.49283 0.59101 0.65842 0.0
C852 C 0.47788 0.58468 0.6689 0.0
C853 C 0.43426 0.56482 0.69831 0.0
C854 C 0.44924 0.57188 0.68823 0.0
H855 H 0.5206 0.62649 0.65327 0.0
H856 H 0.49528 0.61667 0.66991 0.0
H857 H 0.48794 0.56048 0.67399 0.0
H858 H 0.41166 0.5266 0.70524 0.0
H859 H 0.43349 0.53942 0.68629 0.0
C860 C 0.78704 0.28217 0.65557 0.0
C861 C 0.77834 0.26571 0.65458 0.0
C862 C 0.78068 0.29559 0.64694 0.0
C863 C 0.74265 0.30825 0.6228 0.0
H864 H 0.77764 0.33452 0.59709 0.0
C865 C 0.74977 0.34605 0.55612 0.0
C866 C 0.73654 0.35705 0.55717 0.0
C867 C 0.75405 0.33688 0.57022 0.0
C868 C 0.7677 0.32732 0.60421 0.0
H869 H 0.75586 0.25051 0.64422 0.0
H870 H 0.74493 0.27378 0.62891 0.0
H871 H 0.78621 0.315 0.6183 0.0
H872 H 0.71721 0.36685 0.57383 0.0
H873 H 0.72473 0.3506 0.59869 0.0
H874 H 0.72414 0.32005 0.60789 0.0
C875 C 0.75647 0.27648 0.63663 0.0
C876 C 0.77262 0.31627 0.61655 0.0
C877 C 0.76277 0.2631 0.64536 0.0
C878 C 0.72747 0.35847 0.57264 0.0
C879 C 0.73175 0.34917 0.58683 0.0
C880 C 0.73772 0.31934 0.61038 0.0
C881 C 0.76555 0.2928 0.63699 0.0
C882 C 0.76017 0.30626 0.6257 0.0
C883 C 0.74524 0.33844 0.58578 0.0
C884 C 0.75021 0.32859 0.60062 0.0
H885 H 0.79893 0.28461 0.66281 0.0
H886 H 0.78782 0.30808 0.64775 0.0
H887 H 0.73274 0.30091 0.6298 0.0
H888 H 0.75697 0.34455 0.54439 0.0
H889 H 0.76424 0.32843 0.56886 0.0
C890 C 0.49492 0.95629 0.63742 0.0
C891 C 0.48301 0.96828 0.63436 0.0
C892 C 0.50353 0.95647 0.65317 0.0
C893 C 0.50442 0.97545 0.69772 0.0
H894 H 0.55388 0.97533 0.69291 0.0
C895 C 0.55255 0.01393 0.74249 0.0
C896 C 0.56766 0.00689 0.74742 0.0
C897 C 0.54112 0.00514 0.73082 0.0
C898 C 0.54008 0.97503 0.69457 0.0
H899 H 0.47025 0.98933 0.64569 0.0
H900 H 0.48528 0.98974 0.67301 0.0
H901 H 0.53519 0.96677 0.66848 0.0
H902 H 0.5825 0.98495 0.74425 0.0
H903 H 0.56253 0.96962 0.72345 0.0
H904 H 0.50946 0.98464 0.72358 0.0
C905 C 0.48782 0.98 0.6634 0.0
C906 C 0.52933 0.9701 0.68057 0.0
C907 C 0.4792 0.9798 0.6477 0.0
C908 C 0.57096 0.99069 0.74065 0.0
C909 C 0.55958 0.98194 0.72876 0.0
C910 C 0.51517 0.98047 0.71168 0.0
C911 C 0.50043 0.96865 0.66617 0.0
C912 C 0.51142 0.97081 0.68182 0.0
C913 C 0.54459 0.98915 0.72368 0.0
C914 C 0.53313 0.98085 0.71006 0.0
H915 H 0.49792 0.94707 0.62747 0.0
H916 H 0.51295 0.94736 0.655 0.0
H917 H 0.49065 0.97579 0.69921 0.0
H918 H 0.54959 0.02636 0.74753 0.0
H919 H 0.52982 0.01114 0.72696 0.0
C920 C 0.87223 0.23256 0.7402 0.0
C921 C 0.86172 0.2171 0.73865 0.0
C922 C 0.88361 0.23571 0.75403 0.0
C923 C 0.90534 0.21422 0.78859 0.0
H924 H 0.91092 0.26011 0.80909 0.0
C925 C 0.94113 0.2319 0.8531 0.0
C926 C 0.95246 0.24689 0.85336 0.0
C927 C 0.93036 0.22761 0.83894 0.0
C928 C 0.9096 0.24727 0.80341 0.0
H929 H 0.85477 0.19284 0.75038 0.0
H930 H 0.8744 0.19844 0.77472 0.0
H931 H 0.89149 0.25393 0.78476 0.0
H932 H 0.96153 0.26897 0.8388 0.0
H933 H 0.94272 0.26152 0.81425 0.0
H934 H 0.9233 0.20759 0.80756 0.0
C935 C 0.87416 0.208 0.76507 0.0
C936 C 0.89851 0.24372 0.78942 0.0
C937 C 0.86288 0.2048 0.75115 0.0
C938 C 0.95295 0.25735 0.83907 0.0
C939 C 0.9421 0.25315 0.82502 0.0
C940 C 0.91634 0.21775 0.8027 0.0
C941 C 0.88461 0.22354 0.76673 0.0
C942 C 0.89632 0.22718 0.78175 0.0
C943 C 0.9306 0.23832 0.82486 0.0
C944 C 0.91866 0.23435 0.81016 0.0
H945 H 0.87176 0.24217 0.73062 0.0
H946 H 0.89171 0.24767 0.75469 0.0
H947 H 0.90413 0.20139 0.78288 0.0
H948 H 0.94047 0.22355 0.86389 0.0
H949 H 0.92155 0.21614 0.83918 0.0
C950 C 0.45133 0.90087 0.52548 0.0
C951 C 0.45026 0.91691 0.51822 0.0
C952 C 0.45178 0.8861 0.51499 0.0
C953 C 0.46605 0.87322 0.47273 0.0
H954 H 0.43834 0.83035 0.47886 0.0
C955 C 0.46832 0.81783 0.4235 0.0
C956 C 0.46781 0.80112 0.42941 0.0
C957 C 0.46481 0.8314 0.43456 0.0
C958 C 0.44634 0.84216 0.47712 0.0
H959 H 0.4477 0.92975 0.49427 0.0
H960 H 0.44899 0.90407 0.47604 0.0
H961 H 0.43447 0.85503 0.49809 0.0
H962 H 0.4629 0.7854 0.45148 0.0
H963 H 0.45735 0.80926 0.47106 0.0
H964 H 0.47838 0.8605 0.45225 0.0
C965 C 0.44963 0.903 0.48983 0.0
C966 C 0.44405 0.85627 0.48808 0.0
C967 C 0.44898 0.9177 0.50028 0.0
C968 C 0.46336 0.79817 0.44657 0.0
C969 C 0.4601 0.81184 0.45775 0.0
C970 C 0.46851 0.85912 0.46197 0.0
C971 C 0.45135 0.88713 0.49707 0.0
C972 C 0.45377 0.87197 0.48583 0.0
C973 C 0.46101 0.82866 0.45192 0.0
C974 C 0.45855 0.84345 0.46385 0.0
H975 H 0.45249 0.89981 0.53923 0.0
H976 H 0.45321 0.874 0.52086 0.0
H977 H 0.47395 0.88509 0.47095 0.0
H978 H 0.47145 0.82048 0.41028 0.0
H979 H 0.46515 0.84407 0.42946 0.0
C980 C 0.1486 0.28932 0.78755 0.0
C981 C 0.14725 0.30376 0.7776 0.0
C982 C 0.13784 0.28632 0.80167 0.0
C983 C 0.10924 0.30764 0.83171 0.0
H984 H 0.08384 0.26297 0.83363 0.0
C985 C 0.04264 0.29765 0.8618 0.0
C986 C 0.03776 0.28256 0.87037 0.0
C987 C 0.05862 0.29994 0.85384 0.0
C988 C 0.09108 0.27541 0.83355 0.0
H989 H 0.13336 0.32626 0.77471 0.0
H990 H 0.11493 0.32118 0.79935 0.0
H991 H 0.10737 0.26748 0.81326 0.0
H992 H 0.04606 0.25825 0.87785 0.0
H993 H 0.07413 0.26225 0.86382 0.0
H994 H 0.09262 0.31574 0.85158 0.0
C995 C 0.12447 0.31231 0.79642 0.0
C996 C 0.10455 0.27799 0.82186 0.0
C997 C 0.13508 0.31523 0.78227 0.0
C998 C 0.04946 0.27001 0.87131 0.0
C999 C 0.06548 0.27226 0.86322 0.0
C1000 C 0.09583 0.30505 0.84341 0.0
C1001 C 0.12563 0.29778 0.8062 0.0
C1002 C 0.11337 0.29429 0.82043 0.0
C1003 C 0.07012 0.28717 0.8542 0.0
C1004 C 0.08622 0.28906 0.84406 0.0
H1005 H 0.15798 0.28034 0.78445 0.0
H1006 H 0.13907 0.27506 0.80905 0.0
H1007 H 0.11605 0.32025 0.83112 0.0
H1008 H 0.03395 0.30759 0.86086 0.0
H1009 H 0.06165 0.31146 0.84679 0.0
C1010 C 0.55199 0.64876 0.52692 0.0
C1011 C 0.56748 0.65517 0.53496 0.0
C1012 C 0.54605 0.65645 0.51246 0.0
C1013 C 0.55037 0.69713 0.48971 0.0
H1014 H 0.52472 0.66968 0.45432 0.0
C1015 C 0.52045 0.72706 0.43123 0.0
C1016 C 0.50279 0.72211 0.42908 0.0
C1017 C 0.53045 0.71815 0.44214 0.0
C1018 C 0.5319 0.67749 0.4641 0.0
H1019 H 0.5891 0.67447 0.53396 0.0
H1020 H 0.57889 0.6878 0.50847 0.0
H1021 H 0.53859 0.65561 0.47731 0.0
H1022 H 0.48194 0.70348 0.43596 0.0
H1023 H 0.49942 0.68781 0.45473 0.0
H1024 H 0.54355 0.71901 0.47646 0.0
C1025 C 0.57114 0.677 0.51354 0.0
C1026 C 0.53976 0.66946 0.47732 0.0
C1027 C 0.57701 0.66937 0.52812 0.0
C1028 C 0.4955 0.70763 0.43739 0.0
C1029 C 0.50553 0.6986 0.44807 0.0
C1030 C 0.54264 0.70515 0.47638 0.0
C1031 C 0.55553 0.67068 0.50557 0.0
C1032 C 0.54875 0.67918 0.49054 0.0
C1033 C 0.52301 0.70397 0.45083 0.0
C1034 C 0.53301 0.69542 0.46366 0.0
H1035 H 0.54422 0.638 0.53206 0.0
H1036 H 0.53379 0.65146 0.50695 0.0
H1037 H 0.557 0.70505 0.49975 0.0
H1038 H 0.52641 0.7382 0.42501 0.0
H1039 H 0.54393 0.72248 0.44397 0.0
C1040 C 0.87539 0.85928 0.77866 0.0
C1041 C 0.86659 0.84599 0.78773 0.0
C1042 C 0.88731 0.85566 0.76598 0.0
C1043 C 0.91784 0.82563 0.7544 0.0
H1044 H 0.91357 0.8395 0.70749 0.0
C1045 C 0.96 0.79999 0.70083 0.0
C1046 C 0.96461 0.81034 0.68696 0.0
C1047 C 0.94847 0.80519 0.71318 0.0
C1048 C 0.9152 0.83581 0.72059 0.0
H1049 H 0.8631 0.81837 0.78993 0.0
H1050 H 0.88449 0.81225 0.7684 0.0
H1051 H 0.89249 0.84726 0.72881 0.0
H1052 H 0.96116 0.8345 0.6754 0.0
H1053 H 0.94165 0.84402 0.6974 0.0
H1054 H 0.94076 0.81469 0.7466 0.0
C1055 C 0.88205 0.82543 0.77118 0.0
C1056 C 0.90303 0.84017 0.73273 0.0
C1057 C 0.86989 0.82899 0.78359 0.0
C1058 C 0.95774 0.8262 0.6859 0.0
C1059 C 0.94645 0.83158 0.69846 0.0
C1060 C 0.9302 0.82158 0.74239 0.0
C1061 C 0.8909 0.83874 0.76235 0.0
C1062 C 0.90414 0.83489 0.74965 0.0
C1063 C 0.94151 0.82106 0.71219 0.0
C1064 C 0.92891 0.82636 0.72523 0.0
H1065 H 0.87345 0.87254 0.78163 0.0
H1066 H 0.89409 0.86612 0.75936 0.0
H1067 H 0.91904 0.82163 0.76747 0.0
H1068 H 0.96493 0.7876 0.70189 0.0
H1069 H 0.94474 0.79653 0.72328 0.0
C1070 C 0.04651 0.89899 0.4942 0.0
C1071 C 0.0624 0.89631 0.48661 0.0
C1072 C 0.04211 0.89214 0.51004 0.0
C1073 C 0.0523 0.85811 0.53883 0.0
H1074 H 0.02583 0.88328 0.57144 0.0
C1075 C 0.02968 0.83033 0.60354 0.0
C1076 C 0.01203 0.83116 0.6067 0.0
C1077 C 0.03779 0.83975 0.59046 0.0
C1078 C 0.03322 0.87611 0.56245 0.0
H1079 H 0.08629 0.88463 0.48983 0.0
H1080 H 0.07866 0.87274 0.51759 0.0
H1081 H 0.03641 0.89688 0.54539 0.0
H1082 H 0.98924 0.84302 0.59914 0.0
H1083 H 0.00339 0.85945 0.57649 0.0
H1084 H 0.0489 0.83727 0.55585 0.0
C1085 C 0.06948 0.87991 0.51116 0.0
C1086 C 0.03922 0.88386 0.5475 0.0
C1087 C 0.07385 0.88671 0.49526 0.0
C1088 C 0.00284 0.84207 0.597 0.0
C1089 C 0.01097 0.85158 0.58408 0.0
C1090 C 0.04637 0.85039 0.55384 0.0
C1091 C 0.05353 0.88251 0.51872 0.0
C1092 C 0.04852 0.87483 0.53533 0.0
C1093 C 0.02845 0.8503 0.58047 0.0
C1094 C 0.03647 0.85919 0.56563 0.0
H1095 H 0.03731 0.90612 0.48773 0.0
H1096 H 0.02958 0.8941 0.5153 0.0
H1097 H 0.05926 0.85071 0.52966 0.0
H1098 H 0.03709 0.82203 0.61081 0.0
H1099 H 0.05131 0.83863 0.58803 0.0
C1100 C 0.17826 0.76553 0.71727 0.0
C1101 C 0.18469 0.77734 0.73019 0.0
C1102 C 0.16218 0.767 0.70973 0.0
C1103 C 0.12088 0.78397 0.71895 0.0
H1104 H 0.11282 0.77811 0.66991 0.0
C1105 C 0.05288 0.77287 0.68987 0.0
C1106 C 0.04925 0.78242 0.67561 0.0
C1107 C 0.0697 0.77289 0.69599 0.0
C1108 C 0.11492 0.77988 0.68361 0.0
H1109 H 0.17933 0.79993 0.74534 0.0
H1110 H 0.15134 0.80249 0.73218 0.0
H1111 H 0.14195 0.77714 0.68142 0.0
H1112 H 0.06048 0.79935 0.65645 0.0
H1113 H 0.09004 0.79925 0.66712 0.0
H1114 H 0.09391 0.78658 0.72121 0.0
C1115 C 0.15871 0.79211 0.72787 0.0
C1116 C 0.13154 0.77918 0.6902 0.0
C1117 C 0.17481 0.79073 0.73529 0.0
C1118 C 0.06287 0.79189 0.66748 0.0
C1119 C 0.07978 0.79177 0.67352 0.0
C1120 C 0.10428 0.78449 0.71239 0.0
C1121 C 0.15217 0.78019 0.71511 0.0
C1122 C 0.13467 0.78119 0.70795 0.0
C1123 C 0.08332 0.78235 0.68791 0.0
C1124 C 0.10111 0.78238 0.69467 0.0
H1125 H 0.18564 0.75514 0.71301 0.0
H1126 H 0.1574 0.75756 0.7 0.0
H1127 H 0.12286 0.78541 0.73269 0.0
H1128 H 0.0427 0.76542 0.69642 0.0
H1129 H 0.07207 0.76535 0.70697 0.0
C1130 C 0.96046 0.63428 0.54115 0.0
C1131 C 0.95122 0.62007 0.54823 0.0
C1132 C 0.96029 0.65051 0.54905 0.0
C1133 C 0.95459 0.68513 0.56547 0.0
H1134 H 0.95824 0.68496 0.61504 0.0
C1135 C 0.96532 0.74754 0.60772 0.0
C1136 C 0.97734 0.74724 0.62116 0.0
C1137 C 0.9596 0.73247 0.59852 0.0
C1138 C 0.95729 0.68525 0.6012 0.0
H1139 H 0.93352 0.61178 0.56825 0.0
H1140 H 0.93277 0.6402 0.58179 0.0
H1141 H 0.95243 0.65811 0.59888 0.0
H1142 H 0.99282 0.73088 0.63537 0.0
H1143 H 0.98314 0.70482 0.61921 0.0
H1144 H 0.96047 0.71228 0.56785 0.0
C1145 C 0.94061 0.63878 0.57048 0.0
C1146 C 0.95368 0.66984 0.59192 0.0
C1147 C 0.94096 0.62253 0.5627 0.0
C1148 C 0.98348 0.73158 0.62518 0.0
C1149 C 0.97782 0.71658 0.61598 0.0
C1150 C 0.95833 0.70057 0.57478 0.0
C1151 C 0.95072 0.65288 0.56408 0.0
C1152 C 0.95259 0.66953 0.57391 0.0
C1153 C 0.96578 0.71681 0.60257 0.0
C1154 C 0.96009 0.70075 0.59273 0.0
H1155 H 0.96857 0.63269 0.53006 0.0
H1156 H 0.9684 0.661 0.54386 0.0
H1157 H 0.95361 0.68538 0.55163 0.0
H1158 H 0.9603 0.7594 0.60432 0.0
H1159 H 0.95021 0.73305 0.58836 0.0
C1160 C 0.75217 0.88894 0.21282 0.0
C1161 C 0.74447 0.87863 0.22559 0.0
C1162 C 0.76428 0.90263 0.21718 0.0
C1163 C 0.77644 0.9331 0.25231 0.0
H1164 H 0.81963 0.94111 0.22817 0.0
C1165 C 0.82893 0.98562 0.27484 0.0
C1166 C 0.83912 0.99409 0.26237 0.0
C1167 C 0.81721 0.97171 0.27018 0.0
C1168 C 0.8075 0.93925 0.23486 0.0
H1169 H 0.74414 0.87425 0.25293 0.0
H1170 H 0.76494 0.89843 0.26052 0.0
H1171 H 0.79999 0.91611 0.22029 0.0
H1172 H 0.84453 0.99503 0.23514 0.0
H1173 H 0.82365 0.97119 0.22692 0.0
H1174 H 0.78361 0.95638 0.2666 0.0
C1175 C 0.76146 0.89592 0.24715 0.0
C1176 C 0.79632 0.92486 0.2304 0.0
C1177 C 0.74952 0.88211 0.24279 0.0
C1178 C 0.83696 0.98868 0.24507 0.0
C1179 C 0.82508 0.97491 0.24038 0.0
C1180 C 0.7875 0.94761 0.25663 0.0
C1181 C 0.7688 0.90642 0.23441 0.0
C1182 C 0.78073 0.92161 0.23914 0.0
C1183 C 0.81523 0.96608 0.2529 0.0
C1184 C 0.80323 0.95084 0.24802 0.0
H1185 H 0.74842 0.88686 0.19948 0.0
H1186 H 0.76967 0.91062 0.20712 0.0
H1187 H 0.76436 0.93102 0.25907 0.0
H1188 H 0.83038 0.98939 0.2883 0.0
H1189 H 0.81006 0.9651 0.28021 0.0
C1190 C 0.7788 0.1884 0.29199 0.0
C1191 C 0.78357 0.20036 0.27947 0.0
C1192 C 0.7875 0.17371 0.29346 0.0
C1193 C 0.82837 0.15553 0.2817 0.0
H1194 H 0.80277 0.11261 0.2924 0.0
C1195 C 0.8574 0.09 0.27786 0.0
C1196 C 0.85311 0.07872 0.29111 0.0
C1197 C 0.84955 0.10527 0.27682 0.0
C1198 C 0.81013 0.12454 0.28958 0.0
H1199 H 0.80136 0.20619 0.25869 0.0
H1200 H 0.81612 0.18032 0.26087 0.0
H1201 H 0.78759 0.13813 0.28945 0.0
H1202 H 0.83752 0.07484 0.31389 0.0
H1203 H 0.82386 0.10145 0.31204 0.0
H1204 H 0.85089 0.14176 0.28159 0.0
C1205 C 0.80583 0.18243 0.26976 0.0
C1206 C 0.80143 0.13919 0.28791 0.0
C1207 C 0.79718 0.19717 0.26835 0.0
C1208 C 0.8411 0.08322 0.30349 0.0
C1209 C 0.83318 0.09841 0.30238 0.0
C1210 C 0.83706 0.14083 0.28326 0.0
C1211 C 0.80115 0.17054 0.28238 0.0
C1212 C 0.81043 0.1549 0.28399 0.0
C1213 C 0.83716 0.10951 0.28893 0.0
C1214 C 0.82803 0.12519 0.28728 0.0
H1215 H 0.76826 0.19032 0.30065 0.0
H1216 H 0.78365 0.16495 0.30345 0.0
H1217 H 0.83577 0.16745 0.27895 0.0
H1218 H 0.8666 0.0869 0.26811 0.0
H1219 H 0.85281 0.11352 0.26624 0.0
C1220 C 0.39287 0.99227 0.02175 0.0
C1221 C 0.3957 0.00905 0.01601 0.0
C1222 C 0.37648 0.98358 0.02091 0.0
C1223 C 0.33458 0.98197 0.99923 0.0
H1224 H 0.31887 0.95681 0.039 0.0
C1225 C 0.26616 0.94643 0.00418 0.0
C1226 C 0.26538 0.9302 0.01138 0.0
C1227 C 0.28157 0.95706 0.00452 0.0
C1228 C 0.32312 0.96365 0.02773 0.0
H1229 H 0.38352 0.02979 0.00469 0.0
H1230 H 0.35484 0.01444 0.00304 0.0
H1231 H 0.34676 0.97341 0.03984 0.0
H1232 H 0.28027 0.91229 0.02421 0.0
H1233 H 0.307 0.93062 0.02455 0.0
H1234 H 0.31099 0.97193 0.98703 0.0
C1235 C 0.36539 0.00805 0.00814 0.0
C1236 C 0.33908 0.97316 0.02822 0.0
C1237 C 0.3818 0.01681 0.00906 0.0
C1238 C 0.28035 0.92476 0.01867 0.0
C1239 C 0.29568 0.93532 0.01898 0.0
C1240 C 0.31858 0.97236 0.99871 0.0
C1241 C 0.36254 0.99142 0.01424 0.0
C1242 C 0.34511 0.98221 0.0139 0.0
C1243 C 0.29646 0.95165 0.01206 0.0
C1244 C 0.31281 0.96287 0.01287 0.0
H1245 H 0.40335 0.98578 0.02682 0.0
H1246 H 0.37474 0.97063 0.02539 0.0
H1247 H 0.33896 0.98877 0.98798 0.0
H1248 H 0.25485 0.951 0.99847 0.0
H1249 H 0.28175 0.96961 0.99917 0.0
C1250 C 0.25265 0.4126 0.33429 0.0
C1251 C 0.25521 0.39599 0.32806 0.0
C1252 C 0.23745 0.41987 0.33077 0.0
C1253 C 0.20316 0.42161 0.30054 0.0
H1254 H 0.17939 0.44073 0.33933 0.0
C1255 C 0.14665 0.4646 0.29285 0.0
C1256 C 0.1484 0.4796 0.30334 0.0
C1257 C 0.15717 0.45135 0.29554 0.0
C1258 C 0.18586 0.43547 0.32835 0.0
H1259 H 0.24373 0.37421 0.31278 0.0
H1260 H 0.21732 0.38738 0.30604 0.0
H1261 H 0.20307 0.42324 0.34428 0.0
H1262 H 0.16238 0.49235 0.32497 0.0
H1263 H 0.18062 0.46959 0.32949 0.0
H1264 H 0.1866 0.43474 0.28459 0.0
C1265 C 0.22715 0.39452 0.3139 0.0
C1266 C 0.19934 0.42541 0.3312 0.0
C1267 C 0.24231 0.38707 0.31769 0.0
C1268 C 0.16064 0.48098 0.31666 0.0
C1269 C 0.17103 0.46781 0.31936 0.0
C1270 C 0.18972 0.43188 0.29766 0.0
C1271 C 0.22453 0.41088 0.32065 0.0
C1272 C 0.20846 0.41887 0.31736 0.0
C1273 C 0.16948 0.45285 0.30885 0.0
C1274 C 0.18137 0.43943 0.31157 0.0
H1275 H 0.26244 0.42012 0.34186 0.0
H1276 H 0.23584 0.43265 0.33584 0.0
H1277 H 0.21006 0.4167 0.28968 0.0
H1278 H 0.13733 0.46319 0.28247 0.0
H1279 H 0.15567 0.43995 0.28725 0.0
C1280 C 0.12309 0.00184 0.44999 0.0
C1281 C 0.12882 0.99005 0.43779 0.0
C1282 C 0.13366 0.01641 0.45517 0.0
C1283 C 0.17187 0.04419 0.44212 0.0
H1284 H 0.17289 0.05901 0.49011 0.0
C1285 C 0.22271 0.09546 0.47071 0.0
C1286 C 0.21698 0.10759 0.48256 0.0
C1287 C 0.2116 0.08157 0.46475 0.0
C1288 C 0.17259 0.05514 0.47664 0.0
H1289 H 0.15017 0.98439 0.42142 0.0
H1290 H 0.16882 0.0096 0.43082 0.0
H1291 H 0.15442 0.03366 0.48082 0.0
H1292 H 0.19499 0.11475 0.49725 0.0
H1293 H 0.17559 0.09046 0.48682 0.0
H1294 H 0.19025 0.06559 0.43803 0.0
C1295 C 0.15602 0.0077 0.43618 0.0
C1296 C 0.16201 0.04062 0.4713 0.0
C1297 C 0.14542 0.99314 0.43095 0.0
C1298 C 0.19982 0.10563 0.48815 0.0
C1299 C 0.18874 0.09167 0.48226 0.0
C1300 C 0.18252 0.05867 0.44748 0.0
C1301 C 0.15026 0.01951 0.44835 0.0
C1302 C 0.16152 0.03497 0.45399 0.0
C1303 C 0.19454 0.07944 0.47058 0.0
C1304 C 0.18299 0.06429 0.46479 0.0
H1305 H 0.11046 -0.00025 0.45568 0.0
H1306 H 0.12874 0.02533 0.46442 0.0
H1307 H 0.1716 0.04035 0.42865 0.0
H1308 H 0.23585 0.09659 0.46613 0.0
H1309 H 0.21649 0.07226 0.45588 0.0
C1310 C 0.74012 0.16049 0.72207 0.0
C1311 C 0.75073 0.15463 0.70898 0.0
C1312 C 0.72688 0.14958 0.72877 0.0
C1313 C 0.69914 0.10993 0.71933 0.0
H1314 H 0.69415 0.10909 0.76877 0.0
C1315 C 0.64215 0.07201 0.75243 0.0
C1316 C 0.64642 0.06233 0.7664 0.0
C1317 C 0.65449 0.08363 0.74524 0.0
C1318 C 0.69542 0.10915 0.75494 0.0
H1319 H 0.75567 0.13268 0.69266 0.0
H1320 H 0.7324 0.11368 0.70425 0.0
H1321 H 0.71648 0.1286 0.75633 0.0
H1322 H 0.66699 0.05737 0.78382 0.0
H1323 H 0.68844 0.07766 0.77129 0.0
H1324 H 0.6782 0.0903 0.71797 0.0
C1325 C 0.73429 0.12677 0.70921 0.0
C1326 C 0.70809 0.12042 0.74782 0.0
C1327 C 0.7476 0.13767 0.70257 0.0
C1328 C 0.66325 0.06463 0.77308 0.0
C1329 C 0.67553 0.07632 0.76597 0.0
C1330 C 0.68637 0.09873 0.72645 0.0
C1331 C 0.72387 0.13259 0.72247 0.0
C1332 C 0.71014 0.12087 0.72995 0.0
C1333 C 0.6713 0.08591 0.75196 0.0
C1334 C 0.68446 0.09815 0.74434 0.0
H1335 H 0.74196 0.17357 0.72707 0.0
H1336 H 0.71889 0.15448 0.7388 0.0
H1337 H 0.70034 0.1101 0.7055 0.0
H1338 H 0.6293 0.07055 0.74697 0.0
H1339 H 0.65083 0.09097 0.73453 0.0
C1340 C 0.38756 0.0327 0.5721 0.0
C1341 C 0.39403 0.02273 0.55868 0.0
C1342 C 0.37461 0.04345 0.56895 0.0
C1343 C 0.34135 0.05112 0.53667 0.0
H1344 H 0.34555 0.09755 0.55594 0.0
C1345 C 0.30849 0.10447 0.50604 0.0
C1346 C 0.2988 0.11475 0.51667 0.0
C1347 C 0.31925 0.09332 0.5131 0.0
C1348 C 0.34411 0.08455 0.55067 0.0
H1349 H 0.39219 0.01652 0.53138 0.0
H1350 H 0.3698 0.03517 0.52589 0.0
H1351 H 0.36567 0.07731 0.56491 0.0
H1352 H 0.29331 0.12184 0.54309 0.0
H1353 H 0.31256 0.10238 0.55549 0.0
H1354 H 0.32025 0.05852 0.52197 0.0
C1355 C 0.37436 0.03442 0.53894 0.0
C1356 C 0.35558 0.07295 0.55582 0.0
C1357 C 0.38723 0.0237 0.54209 0.0
C1358 C 0.3006 0.11406 0.53457 0.0
C1359 C 0.3116 0.10297 0.54167 0.0
C1360 C 0.33004 0.06271 0.53146 0.0
C1361 C 0.36789 0.04445 0.5523 0.0
C1362 C 0.35458 0.05622 0.54854 0.0
C1363 C 0.32073 0.09225 0.53095 0.0
C1364 C 0.33156 0.07964 0.53808 0.0
H1365 H 0.39248 0.03214 0.58505 0.0
H1366 H 0.3698 0.0509 0.57954 0.0
H1367 H 0.33994 0.03822 0.53114 0.0
H1368 H 0.30746 0.1047 0.4922 0.0
H1369 H 0.32638 0.08541 0.50455 0.0
C1370 C 0.62245 0.55307 0.56115 0.0
C1371 C 0.62028 0.55615 0.57882 0.0
C1372 C 0.62911 0.53812 0.55505 0.0
C1373 C 0.63698 0.49418 0.56657 0.0
H1374 H 0.66959 0.49853 0.5292 0.0
C1375 C 0.67752 0.43971 0.54103 0.0
C1376 C 0.6798 0.43854 0.52316 0.0
C1377 C 0.66902 0.45308 0.54849 0.0
C1378 C 0.66035 0.49705 0.53951 0.0
H1379 H 0.62324 0.54585 0.60398 0.0
H1380 H 0.63507 0.5197 0.5933 0.0
H1381 H 0.65765 0.52388 0.54113 0.0
H1382 H 0.67397 0.4498 0.49905 0.0
H1383 H 0.65907 0.47286 0.512 0.0
H1384 H 0.63993 0.46724 0.56494 0.0
C1385 C 0.63142 0.5288 0.58416 0.0
C1386 C 0.6535 0.51159 0.54635 0.0
C1387 C 0.62467 0.54379 0.59027 0.0
C1388 C 0.67261 0.45043 0.51287 0.0
C1389 C 0.66416 0.46372 0.5203 0.0
C1390 C 0.64392 0.47957 0.55973 0.0
C1391 C 0.63385 0.52588 0.56647 0.0
C1392 C 0.64157 0.51033 0.55982 0.0
C1393 C 0.66269 0.46549 0.5382 0.0
C1394 C 0.65551 0.48085 0.54597 0.0
H1395 H 0.61882 0.56215 0.55196 0.0
H1396 H 0.63044 0.53611 0.54133 0.0
H1397 H 0.62774 0.49276 0.57688 0.0
H1398 H 0.68292 0.43075 0.5493 0.0
H1399 H 0.6681 0.45413 0.56234 0.0
C1400 C 0.70939 0.30324 0.3436 0.0
C1401 C 0.7235 0.29331 0.34328 0.0
C1402 C 0.70392 0.31043 0.35907 0.0
C1403 C 0.70558 0.30702 0.40592 0.0
H1404 H 0.70268 0.35609 0.40731 0.0
C1405 C 0.71269 0.34775 0.46841 0.0
C1406 C 0.70478 0.36311 0.47005 0.0
C1407 C 0.71113 0.33776 0.45324 0.0
C1408 C 0.70299 0.34232 0.40715 0.0
H1409 H 0.74257 0.28258 0.35888 0.0
H1410 H 0.73293 0.29503 0.38597 0.0
H1411 H 0.70714 0.34119 0.38002 0.0
H1412 H 0.688 0.3794 0.45742 0.0
H1413 H 0.68487 0.36169 0.43106 0.0
H1414 H 0.70154 0.30809 0.43303 0.0
C1415 C 0.72612 0.29728 0.37426 0.0
C1416 C 0.70564 0.33381 0.39148 0.0
C1417 C 0.73174 0.29029 0.35877 0.0
C1418 C 0.69439 0.36772 0.45652 0.0
C1419 C 0.69271 0.35762 0.44136 0.0
C1420 C 0.70272 0.31549 0.42157 0.0
C1421 C 0.71231 0.3076 0.37453 0.0
C1422 C 0.7074 0.31616 0.39079 0.0
C1423 C 0.70147 0.34277 0.43935 0.0
C1424 C 0.70187 0.33334 0.42247 0.0
H1425 H 0.70288 0.30583 0.33182 0.0
H1426 H 0.69321 0.3183 0.35894 0.0
H1427 H 0.70665 0.29335 0.40569 0.0
H1428 H 0.72079 0.34377 0.47856 0.0
H1429 H 0.71826 0.32657 0.45216 0.0
C1430 C 0.50631 0.05877 0.94371 0.0
C1431 C 0.50688 0.0459 0.95568 0.0
C1432 C 0.51553 0.05792 0.9284 0.0
C1433 C 0.53719 0.02721 0.90035 0.0
H1434 H 0.55875 0.06845 0.8807 0.0
C1435 C 0.58756 0.02601 0.84676 0.0
C1436 C 0.58452 0.03556 0.83233 0.0
C1437 C 0.57793 0.02783 0.86165 0.0
C1438 C 0.55268 0.05687 0.88602 0.0
H1439 H 0.51787 0.02237 0.9614 0.0
H1440 H 0.5344 0.02112 0.93503 0.0
H1441 H 0.54234 0.07055 0.90721 0.0
H1442 H 0.56932 0.05485 0.82236 0.0
H1443 H 0.55267 0.05825 0.84864 0.0
H1444 H 0.54801 0.01354 0.87939 0.0
C1445 C 0.52642 0.03159 0.93708 0.0
C1446 C 0.54322 0.05804 0.90115 0.0
C1447 C 0.51703 0.03232 0.95224 0.0
C1448 C 0.57191 0.04727 0.83325 0.0
C1449 C 0.56245 0.04928 0.84827 0.0
C1450 C 0.54683 0.02604 0.88539 0.0
C1451 C 0.52568 0.04429 0.92487 0.0
C1452 C 0.53542 0.0432 0.90856 0.0
C1453 C 0.56524 0.03941 0.86251 0.0
C1454 C 0.55472 0.04083 0.87814 0.0
H1455 H 0.49846 0.06931 0.94604 0.0
H1456 H 0.51444 0.0678 0.91921 0.0
H1457 H 0.53103 0.01554 0.90541 0.0
H1458 H 0.59716 0.01685 0.84646 0.0
H1459 H 0.58041 0.02018 0.87253 0.0
C1460 C 0.31574 0.29321 0.39512 0.0
C1461 C 0.30314 0.30378 0.39013 0.0
C1462 C 0.31135 0.27912 0.40518 0.0
C1463 C 0.27922 0.26243 0.43596 0.0
H1464 H 0.29556 0.21838 0.42394 0.0
C1465 C 0.25442 0.20111 0.46999 0.0
C1466 C 0.26619 0.18904 0.47319 0.0
C1467 C 0.25909 0.21512 0.45992 0.0
C1468 C 0.29109 0.23064 0.42763 0.0
H1469 H 0.27611 0.30799 0.39185 0.0
H1470 H 0.26842 0.28336 0.40949 0.0
H1471 H 0.30351 0.24283 0.40625 0.0
H1472 H 0.2922 0.18238 0.4685 0.0
H1473 H 0.30049 0.20705 0.4513 0.0
H1474 H 0.26701 0.25042 0.45747 0.0
C1475 C 0.28169 0.286 0.40562 0.0
C1476 C 0.29561 0.24462 0.41746 0.0
C1477 C 0.28606 0.29999 0.39541 0.0
C1478 C 0.28279 0.19138 0.4662 0.0
C1479 C 0.28751 0.20548 0.45624 0.0
C1480 C 0.27481 0.2485 0.44622 0.0
C1481 C 0.29429 0.27543 0.4106 0.0
C1482 C 0.28966 0.26063 0.42148 0.0
C1483 C 0.2757 0.2175 0.45292 0.0
C1484 C 0.28063 0.2324 0.44215 0.0
H1485 H 0.32899 0.29577 0.39112 0.0
H1486 H 0.32133 0.27125 0.40894 0.0
H1487 H 0.27465 0.2747 0.43949 0.0
H1488 H 0.24149 0.19963 0.47509 0.0
H1489 H 0.24957 0.22395 0.45741 0.0
C1490 C 0.51803 0.4634 0.85989 0.0
C1491 C 0.51566 0.45799 0.87676 0.0
C1492 C 0.50475 0.47026 0.85118 0.0
C1493 C 0.46565 0.49208 0.85765 0.0
H1494 H 0.45532 0.47646 0.81075 0.0
C1495 C 0.4083 0.51395 0.81894 0.0
C1496 C 0.4109 0.51636 0.80133 0.0
C1497 C 0.42079 0.50697 0.82878 0.0
C1498 C 0.45818 0.48116 0.82375 0.0
H1499 H 0.49763 0.45565 0.89782 0.0
H1500 H 0.47435 0.46778 0.88256 0.0
H1501 H 0.4776 0.46387 0.82664 0.0
H1502 H 0.42895 0.51407 0.78043 0.0
H1503 H 0.45081 0.50245 0.79759 0.0
H1504 H 0.44648 0.50964 0.85465 0.0
C1505 C 0.4865 0.46667 0.87611 0.0
C1506 C 0.4709 0.47388 0.83287 0.0
C1507 C 0.49975 0.45962 0.88477 0.0
C1508 C 0.42644 0.51218 0.79391 0.0
C1509 C 0.43895 0.50539 0.80375 0.0
C1510 C 0.45299 0.4995 0.84846 0.0
C1511 C 0.48887 0.472 0.8592 0.0
C1512 C 0.47487 0.47934 0.84986 0.0
C1513 C 0.43618 0.5024 0.82123 0.0
C1514 C 0.44921 0.49423 0.83133 0.0
H1515 H 0.53013 0.46219 0.85336 0.0
H1516 H 0.50698 0.47439 0.8382 0.0
H1517 H 0.46855 0.49662 0.8707 0.0
H1518 H 0.39643 0.517 0.82501 0.0
H1519 H 0.41817 0.50473 0.84218 0.0
C1520 C 0.7162 0.7619 0.15804 0.0
C1521 C 0.69916 0.76466 0.16244 0.0
C1522 C 0.71958 0.74847 0.14663 0.0
C1523 C 0.69938 0.72409 0.11041 0.0
H1524 H 0.73548 0.69369 0.11523 0.0
C1525 C 0.70871 0.67305 0.0582 0.0
C1526 C 0.72565 0.67054 0.05343 0.0
C1527 C 0.70545 0.68228 0.07326 0.0
C1528 C 0.72545 0.70219 0.11361 0.0
H1529 H 0.67244 0.75467 0.15929 0.0
H1530 H 0.67835 0.7315 0.13917 0.0
H1531 H 0.73012 0.7142 0.13857 0.0
H1532 H 0.75245 0.67507 0.06097 0.0
H1533 H 0.74685 0.69184 0.08702 0.0
H1534 H 0.69504 0.71284 0.08535 0.0
C1535 C 0.68905 0.73987 0.14437 0.0
C1536 C 0.72237 0.71387 0.12701 0.0
C1537 C 0.68568 0.75318 0.15584 0.0
C1538 C 0.73925 0.67679 0.0644 0.0
C1539 C 0.73601 0.68635 0.07936 0.0
C1540 C 0.70258 0.71262 0.097 0.0
C1541 C 0.70599 0.73762 0.13934 0.0
C1542 C 0.70924 0.72488 0.12553 0.0
C1543 C 0.71907 0.68959 0.08374 0.0
C1544 C 0.7156 0.70145 0.09841 0.0
H1545 H 0.72687 0.77057 0.1628 0.0
H1546 H 0.73276 0.74708 0.14288 0.0
H1547 H 0.68942 0.73267 0.10876 0.0
H1548 H 0.69795 0.66815 0.0501 0.0
H1549 H 0.6922 0.68402 0.07647 0.0
C1550 C 0.01663 0.11356 0.15514 0.0
C1551 C 0.02334 0.1023 0.14299 0.0
C1552 C 0.00249 0.10806 0.16519 0.0
C1553 C 0.98019 0.06863 0.18146 0.0
H1554 H 0.94231 0.09639 0.19052 0.0
C1555 C 0.9194 0.04029 0.21413 0.0
C1556 C 0.91281 0.05005 0.2276 0.0
C1557 C 0.93173 0.04768 0.20309 0.0
C1558 C 0.95287 0.08857 0.18821 0.0
H1559 H 0.02049 0.07644 0.13195 0.0
H1560 H 0.99576 0.06699 0.14921 0.0
H1561 H 0.96646 0.10747 0.17286 0.0
H1562 H 0.91331 0.07546 0.23952 0.0
H1563 H 0.93512 0.08841 0.22026 0.0
H1564 H 0.96683 0.0498 0.19679 0.0
C1565 C 0.00147 0.08002 0.15108 0.0
C1566 C 0.96669 0.09491 0.17813 0.0
C1567 C 0.01553 0.0855 0.14104 0.0
C1568 C 0.91816 0.06762 0.22925 0.0
C1569 C 0.93062 0.07503 0.2182 0.0
C1570 C 0.96646 0.06233 0.1915 0.0
C1571 C 0.99488 0.09117 0.16337 0.0
C1572 C 0.98041 0.0849 0.17451 0.0
C1573 C 0.93788 0.065 0.20531 0.0
C1574 C 0.95253 0.07212 0.19484 0.0
H1575 H 0.02228 0.12662 0.15684 0.0
H1576 H 0.99776 0.11691 0.17463 0.0
H1577 H 0.99074 0.06077 0.17925 0.0
H1578 H 0.91539 0.02676 0.21238 0.0
H1579 H 0.93675 0.03971 0.19302 0.0
C1580 C 0.29159 0.77161 0.13938 0.0
C1581 C 0.28198 0.76355 0.15251 0.0
C1582 C 0.28558 0.78541 0.13114 0.0
C1583 C 0.2459 0.80412 0.1203 0.0
H1584 H 0.27782 0.84168 0.10614 0.0
C1585 C 0.22705 0.85685 0.07467 0.0
C1586 C 0.23846 0.85916 0.06085 0.0
C1587 C 0.23133 0.84722 0.08863 0.0
C1588 C 0.26873 0.83131 0.11006 0.0
H1589 H 0.25866 0.76406 0.16757 0.0
H1590 H 0.24803 0.78809 0.15294 0.0
H1591 H 0.28744 0.82105 0.12587 0.0
H1592 H 0.26337 0.85344 0.05095 0.0
H1593 H 0.27076 0.83688 0.07508 0.0
H1594 H 0.22736 0.81414 0.10396 0.0
C1595 C 0.2602 0.78359 0.14901 0.0
C1596 C 0.27425 0.81949 0.12131 0.0
C1597 C 0.26627 0.76981 0.15735 0.0
C1598 C 0.25425 0.85189 0.06135 0.0
C1599 C 0.25858 0.84251 0.07528 0.0
C1600 C 0.24036 0.816 0.10901 0.0
C1601 C 0.26977 0.79148 0.13577 0.0
C1602 C 0.26307 0.80544 0.12609 0.0
C1603 C 0.2472 0.84004 0.08906 0.0
C1604 C 0.25192 0.82936 0.10333 0.0
H1605 H 0.30355 0.76694 0.13506 0.0
H1606 H 0.2931 0.79098 0.12075 0.0
H1607 H 0.23701 0.79339 0.1237 0.0
H1608 H 0.21478 0.86231 0.07462 0.0
H1609 H 0.22232 0.84549 0.0991 0.0
C1610 C 0.99654 0.45684 0.1326 0.0
C1611 C 0.98393 0.46827 0.13027 0.0
C1612 C 0.00516 0.45653 0.14831 0.0
C1613 C 0.00452 0.47241 0.19391 0.0
H1614 H 0.05422 0.47472 0.1899 0.0
C1615 C 0.05047 0.50988 0.24149 0.0
C1616 C 0.06589 0.50325 0.24611 0.0
C1617 C 0.03949 0.50129 0.22929 0.0
C1618 C 0.04035 0.47372 0.19131 0.0
H1619 H 0.97007 0.48794 0.14275 0.0
H1620 H 0.98511 0.48753 0.17001 0.0
H1621 H 0.03627 0.46717 0.16469 0.0
H1622 H 0.08173 0.48219 0.24189 0.0
H1623 H 0.06255 0.46725 0.22015 0.0
H1624 H 0.00872 0.47992 0.22035 0.0
C1625 C 0.98819 0.47856 0.15986 0.0
C1626 C 0.03004 0.46937 0.17686 0.0
C1627 C 0.97956 0.47883 0.1442 0.0
C1628 C 0.06993 0.48759 0.23856 0.0
C1629 C 0.059 0.47908 0.22612 0.0
C1630 C 0.01483 0.47686 0.20831 0.0
C1631 C 0.00135 0.46768 0.162 0.0
C1632 C 0.01203 0.46924 0.17787 0.0
C1633 C 0.04375 0.48595 0.22129 0.0
C1634 C 0.03286 0.4781 0.20701 0.0
H1635 H -1e-05 0.44835 0.12217 0.0
H1636 H 0.01504 0.44782 0.14962 0.0
H1637 H 0.99067 0.47205 0.1952 0.0
H1638 H 0.04696 0.52187 0.24714 0.0
H1639 H 0.02796 0.50703 0.22566 0.0
C1640 C 0.36527 0.72904 0.24622 0.0
C1641 C 0.35639 0.71288 0.24306 0.0
C1642 C 0.3759 0.73213 0.26061 0.0
C1643 C 0.39935 0.7104 0.29364 0.0
H1644 H 0.40052 0.75491 0.31704 0.0
C1645 C 0.43733 0.72903 0.35711 0.0
C1646 C 0.44755 0.74471 0.35677 0.0
C1647 C 0.42563 0.72416 0.3438 0.0
C1648 C 0.40035 0.74244 0.3106 0.0
H1649 H 0.35161 0.68726 0.25251 0.0
H1650 H 0.36999 0.69271 0.27786 0.0
H1651 H 0.38106 0.74825 0.2928 0.0
H1652 H 0.45352 0.76753 0.34216 0.0
H1653 H 0.43308 0.7591 0.3192 0.0
H1654 H 0.41865 0.70466 0.31168 0.0
C1655 C 0.36899 0.70293 0.26904 0.0
C1656 C 0.38927 0.73864 0.29666 0.0
C1657 C 0.35845 0.6998 0.25454 0.0
C1658 C 0.44586 0.75536 0.34286 0.0
C1659 C 0.43408 0.7506 0.32973 0.0
C1660 C 0.41035 0.71417 0.30773 0.0
C1661 C 0.37778 0.71917 0.27229 0.0
C1662 C 0.38885 0.7227 0.28779 0.0
C1663 C 0.42378 0.73501 0.33009 0.0
C1664 C 0.41116 0.73034 0.31613 0.0
H1665 H 0.36413 0.73928 0.23744 0.0
H1666 H 0.38278 0.74467 0.26247 0.0
H1667 H 0.39947 0.69805 0.28703 0.0
H1668 H 0.43836 0.72053 0.36764 0.0
H1669 H 0.41779 0.71208 0.34437 0.0
C1670 C 0.93608 0.40165 0.01933 0.0
C1671 C 0.94451 0.41726 0.01427 0.0
C1672 C 0.93617 0.3869 0.00874 0.0
C1673 C 0.94404 0.37238 0.96398 0.0
H1674 H 0.95577 0.33062 0.98447 0.0
C1675 C 0.97226 0.31865 0.92484 0.0
C1676 C 0.96665 0.30157 0.92815 0.0
C1677 C 0.96713 0.33201 0.9353 0.0
C1678 C 0.9522 0.34209 0.97859 0.0
H1679 H 0.9597 0.42952 0.99413 0.0
H1680 H 0.95976 0.40394 0.97571 0.0
H1681 H 0.95085 0.35551 0.00286 0.0
H1682 H 0.95121 0.28515 0.9451 0.0
H1683 H 0.94228 0.30862 0.96349 0.0
H1684 H 0.94583 0.35913 0.93971 0.0
C1685 C 0.95283 0.40313 0.98771 0.0
C1686 C 0.94937 0.35635 0.98911 0.0
C1687 C 0.95278 0.41782 0.99828 0.0
C1688 C 0.95576 0.29816 0.9422 0.0
C1689 C 0.9507 0.31158 0.95276 0.0
C1690 C 0.94689 0.35817 0.95348 0.0
C1691 C 0.94464 0.38748 0.99285 0.0
C1692 C 0.94565 0.37176 0.98189 0.0
C1693 C 0.95631 0.32865 0.94938 0.0
C1694 C 0.95139 0.343 0.96064 0.0
H1695 H 0.92942 0.40084 0.03148 0.0
H1696 H 0.9296 0.37506 0.01297 0.0
H1697 H 0.94084 0.38396 0.95805 0.0
H1698 H 0.98067 0.32176 0.91414 0.0
H1699 H 0.97191 0.345 0.93252 0.0
C1700 C 0.61987 0.8172 0.26531 0.0
C1701 C 0.63625 0.81105 0.26452 0.0
C1702 C 0.60922 0.81403 0.27938 0.0
C1703 C 0.59819 0.78451 0.31276 0.0
H1704 H 0.57786 0.82294 0.33464 0.0
C1705 C 0.54621 0.77539 0.36559 0.0
C1706 C 0.53214 0.78518 0.36367 0.0
C1707 C 0.56118 0.77882 0.35594 0.0
C1708 C 0.58334 0.81204 0.32863 0.0
H1709 H 0.65408 0.79644 0.27802 0.0
H1710 H 0.63501 0.79034 0.30235 0.0
H1711 H 0.59957 0.82803 0.31254 0.0
H1712 H 0.52288 0.80641 0.35037 0.0
H1713 H 0.54856 0.8121 0.33346 0.0
H1714 H 0.58129 0.76843 0.32814 0.0
C1715 C 0.63065 0.7978 0.29203 0.0
C1716 C 0.59582 0.81499 0.31605 0.0
C1717 C 0.64149 0.80122 0.27805 0.0
C1718 C 0.53348 0.79864 0.35223 0.0
C1719 C 0.54832 0.80202 0.3426 0.0
C1720 C 0.5855 0.78152 0.32522 0.0
C1721 C 0.61453 0.80438 0.29289 0.0
C1722 C 0.60303 0.80124 0.3077 0.0
C1723 C 0.56234 0.79211 0.34421 0.0
C1724 C 0.57758 0.79525 0.33295 0.0
H1725 H 0.61514 0.82439 0.25498 0.0
H1726 H 0.59669 0.81897 0.27962 0.0
H1727 H 0.60357 0.77371 0.30644 0.0
H1728 H 0.54556 0.76494 0.37433 0.0
H1729 H 0.5718 0.77104 0.35759 0.0
C1730 C 0.04859 0.14902 0.0293 0.0
C1731 C 0.06451 0.15507 0.03672 0.0
C1732 C 0.04233 0.15681 0.01505 0.0
C1733 C 0.04698 0.19724 0.99184 0.0
H1734 H 0.02014 0.17005 0.95709 0.0
C1735 C 0.01846 0.22723 0.93273 0.0
C1736 C 0.00077 0.2227 0.93015 0.0
C1737 C 0.02787 0.21824 0.94408 0.0
C1738 C 0.02761 0.17779 0.96671 0.0
H1739 H 0.0865 0.17381 0.03485 0.0
H1740 H 0.07572 0.1873 0.00973 0.0
H1741 H 0.03379 0.15584 0.98012 0.0
H1742 H 0.97925 0.20476 0.93687 0.0
H1743 H 0.99573 0.18898 0.9565 0.0
H1744 H 0.04072 0.21918 0.97838 0.0
C1745 C 0.0679 0.17674 0.01513 0.0
C1746 C 0.03537 0.16968 0.97995 0.0
C1747 C 0.0741 0.16901 0.0295 0.0
C1748 C 0.99285 0.20859 0.93861 0.0
C1749 C 0.0023 0.19949 0.94979 0.0
C1750 C 0.03935 0.20534 0.9785 0.0
C1751 C 0.05189 0.17077 0.00776 0.0
C1752 C 0.04488 0.17932 0.99288 0.0
C1753 C 0.01983 0.20442 0.95288 0.0
C1754 C 0.02933 0.19571 0.96598 0.0
H1755 H 0.04078 0.13847 0.03475 0.0
H1756 H 0.02979 0.15211 0.00999 0.0
H1757 H 0.05401 0.2051 0.00167 0.0
H1758 H 0.02492 0.23806 0.9264 0.0
H1759 H 0.0414 0.22222 0.94613 0.0
C1760 C 0.37867 0.36176 0.27931 0.0
C1761 C 0.37018 0.34859 0.28878 0.0
C1762 C 0.39072 0.35804 0.2668 0.0
C1763 C 0.42208 0.32855 0.25618 0.0
H1764 H 0.41702 0.34042 0.20873 0.0
C1765 C 0.46406 0.30161 0.20311 0.0
C1766 C 0.46811 0.31135 0.18867 0.0
C1767 C 0.45275 0.30719 0.2155 0.0
C1768 C 0.41888 0.33731 0.22198 0.0
H1769 H 0.36739 0.32107 0.29189 0.0
H1770 H 0.38902 0.31483 0.27065 0.0
H1771 H 0.39591 0.34847 0.22988 0.0
H1772 H 0.46398 0.33486 0.17617 0.0
H1773 H 0.44487 0.34505 0.19819 0.0
H1774 H 0.44524 0.31788 0.24867 0.0
C1775 C 0.38623 0.32798 0.27299 0.0
C1776 C 0.40669 0.34183 0.23403 0.0
C1777 C 0.37394 0.33162 0.28523 0.0
C1778 C 0.46099 0.32703 0.18711 0.0
C1779 C 0.44992 0.33279 0.19969 0.0
C1780 C 0.43445 0.32434 0.24425 0.0
C1781 C 0.39476 0.34117 0.26374 0.0
C1782 C 0.40808 0.33725 0.25115 0.0
C1783 C 0.44545 0.32283 0.21395 0.0
C1784 C 0.43289 0.3284 0.2269 0.0
H1785 H 0.37637 0.375 0.28182 0.0
H1786 H 0.39724 0.36841 0.25983 0.0
H1787 H 0.42348 0.32508 0.2694 0.0
H1788 H 0.4692 0.28938 0.20458 0.0
H1789 H 0.4494 0.29895 0.22604 0.0
C1790 C 0.56549 0.38796 0.99147 0.0
C1791 C 0.55297 0.3935 0.98047 0.0
C1792 C 0.56069 0.3801 0.00676 0.0
C1793 C 0.5233 0.35732 0.02766 0.0
H1794 H 0.54926 0.36832 0.06969 0.0
C1795 C 0.49692 0.33618 0.09262 0.0
C1796 C 0.50815 0.32871 0.10363 0.0
C1797 C 0.50317 0.34461 0.07818 0.0
C1798 C 0.54199 0.36501 0.05801 0.0
H1799 H 0.52558 0.39499 0.97687 0.0
H1800 H 0.51724 0.38168 0.00364 0.0
H1801 H 0.55869 0.3818 0.0431 0.0
H1802 H 0.53488 0.3248 0.10847 0.0
H1803 H 0.54585 0.33961 0.08307 0.0
H1804 H 0.50655 0.34066 0.04251 0.0
C1805 C 0.53077 0.3832 0.00038 0.0
C1806 C 0.54739 0.3727 0.04279 0.0
C1807 C 0.53556 0.39103 0.98512 0.0
C1808 C 0.5259 0.33043 0.10022 0.0
C1809 C 0.53218 0.33893 0.08572 0.0
C1810 C 0.51789 0.34971 0.04284 0.0
C1811 C 0.54325 0.37759 0.01136 0.0
C1812 C 0.538 0.36905 0.02747 0.0
C1813 C 0.52081 0.34579 0.07436 0.0
C1814 C 0.52706 0.35359 0.05822 0.0
H1815 H 0.57904 0.38985 0.98836 0.0
H1816 H 0.57061 0.3758 0.01486 0.0
H1817 H 0.51599 0.35392 0.01603 0.0
H1818 H 0.48318 0.33522 0.09494 0.0
H1819 H 0.49413 0.35007 0.06986 0.0
C1820 C 0.68536 0.27816 0.21497 0.0
C1821 C 0.68645 0.26754 0.22903 0.0
C1822 C 0.6696 0.27937 0.20671 0.0
C1823 C 0.62606 0.25714 0.20081 0.0
H1824 H 0.61248 0.30224 0.19143 0.0
C1825 C 0.5557 0.26862 0.18828 0.0
C1826 C 0.55196 0.27998 0.17555 0.0
C1827 C 0.57266 0.26711 0.19325 0.0
C1828 C 0.61618 0.28954 0.19371 0.0
H1829 H 0.67172 0.2499 0.24538 0.0
H1830 H 0.64439 0.25184 0.23087 0.0
H1831 H 0.64128 0.29927 0.20265 0.0
H1832 H 0.56313 0.29877 0.1581 0.0
H1833 H 0.59292 0.29605 0.16676 0.0
H1834 H 0.60095 0.2474 0.1921 0.0
C1835 C 0.65575 0.25908 0.2261 0.0
C1836 C 0.63267 0.28783 0.20014 0.0
C1837 C 0.67146 0.25793 0.2344 0.0
C1838 C 0.5656 0.28992 0.16797 0.0
C1839 C 0.58264 0.2884 0.17297 0.0
C1840 C 0.60962 0.25884 0.19436 0.0
C1841 C 0.65461 0.26991 0.21225 0.0
C1842 C 0.63768 0.27164 0.20405 0.0
C1843 C 0.58636 0.27689 0.1856 0.0
C1844 C 0.60436 0.27508 0.19104 0.0
H1845 H 0.69669 0.28556 0.21035 0.0
H1846 H 0.66916 0.28767 0.19594 0.0
H1847 H 0.62964 0.24446 0.20338 0.0
H1848 H 0.54551 0.26083 0.19446 0.0
H1849 H 0.57502 0.25838 0.20325 0.0
C1850 C 0.46378 0.1324 0.04476 0.0
C1851 C 0.45499 0.11794 0.05183 0.0
C1852 C 0.4634 0.14851 0.05287 0.0
C1853 C 0.45685 0.18274 0.06958 0.0
H1854 H 0.46121 0.18266 0.1191 0.0
C1855 C 0.46617 0.24538 0.11141 0.0
C1856 C 0.47848 0.24558 0.12463 0.0
C1857 C 0.46065 0.23009 0.10249 0.0
C1858 C 0.46006 0.18292 0.10527 0.0
H1859 H 0.43794 0.10904 0.07215 0.0
H1860 H 0.43683 0.13723 0.08608 0.0
H1861 H 0.4562 0.15571 0.10293 0.0
H1862 H 0.49461 0.22984 0.13886 0.0
H1863 H 0.4853 0.20339 0.12317 0.0
H1864 H 0.46174 0.20999 0.07195 0.0
C1865 C 0.44448 0.13611 0.0746 0.0
C1866 C 0.45691 0.16745 0.09599 0.0
C1867 C 0.44504 0.11999 0.0666 0.0
C1868 C 0.48504 0.23016 0.12882 0.0
C1869 C 0.47959 0.21493 0.11989 0.0
C1870 C 0.46014 0.19825 0.07888 0.0
C1871 C 0.45407 0.1505 0.06812 0.0
C1872 C 0.45556 0.16713 0.07799 0.0
C1873 C 0.46736 0.2147 0.1066 0.0
C1874 C 0.46214 0.19848 0.09681 0.0
H1875 H 0.47164 0.13111 0.03344 0.0
H1876 H 0.47112 0.15923 0.04762 0.0
H1877 H 0.45563 0.18298 0.05576 0.0
H1878 H 0.46082 0.25704 0.10789 0.0
H1879 H 0.45109 0.23031 0.09244 0.0
C1880 C 0.24153 0.38456 0.73958 0.0
C1881 C 0.24094 0.3765 0.72319 0.0
C1882 C 0.25276 0.39914 0.74305 0.0
C1883 C 0.27863 0.43422 0.72188 0.0
H1884 H 0.30172 0.43967 0.76608 0.0
C1885 C 0.33421 0.48649 0.73789 0.0
C1886 C 0.334 0.49472 0.75419 0.0
C1887 C 0.32228 0.47261 0.73364 0.0
C1888 C 0.29522 0.43842 0.75375 0.0
H1889 H 0.2518 0.37726 0.69765 0.0
H1890 H 0.27166 0.40261 0.70379 0.0
H1891 H 0.28254 0.41405 0.75955 0.0
H1892 H 0.32074 0.4951 0.77862 0.0
H1893 H 0.29996 0.4709 0.77117 0.0
H1894 H 0.2916 0.45855 0.71606 0.0
C1895 C 0.2632 0.39785 0.71387 0.0
C1896 C 0.28421 0.42374 0.75 0.0
C1897 C 0.25187 0.3833 0.71036 0.0
C1898 C 0.32131 0.48904 0.76597 0.0
C1899 C 0.30947 0.47511 0.76176 0.0
C1900 C 0.28974 0.44887 0.7256 0.0
C1901 C 0.26376 0.40596 0.73026 0.0
C1902 C 0.27571 0.42148 0.73406 0.0
C1903 C 0.30997 0.46661 0.74563 0.0
C1904 C 0.29809 0.45115 0.74161 0.0
H1905 H 0.23303 0.3798 0.74964 0.0
H1906 H 0.25261 0.40523 0.75572 0.0
H1907 H 0.27211 0.43301 0.70957 0.0
H1908 H 0.34379 0.49056 0.7285 0.0
H1909 H 0.32304 0.46625 0.72115 0.0
C1910 C 0.29444 0.70035 0.76244 0.0
C1911 C 0.2804 0.7029 0.77324 0.0
C1912 C 0.30308 0.68555 0.76338 0.0
C1913 C 0.31173 0.65177 0.79277 0.0
H1914 H 0.32383 0.62665 0.75153 0.0
C1915 C 0.33605 0.58469 0.79483 0.0
C1916 C 0.34846 0.58022 0.78285 0.0
C1917 C 0.32862 0.60016 0.7938 0.0
C1918 C 0.32081 0.63365 0.76318 0.0
H1919 H 0.26417 0.69154 0.79314 0.0
H1920 H 0.27942 0.66589 0.79492 0.0
H1921 H 0.30893 0.65249 0.74919 0.0
H1922 H 0.36315 0.58872 0.76068 0.0
H1923 H 0.35048 0.61593 0.75913 0.0
H1924 H 0.3237 0.63311 0.8068 0.0
C1925 C 0.28383 0.67545 0.78587 0.0
C1926 C 0.31221 0.64843 0.76182 0.0
C1927 C 0.27511 0.69018 0.78485 0.0
C1928 C 0.35357 0.59176 0.77006 0.0
C1929 C 0.34621 0.6073 0.7691 0.0
C1930 C 0.32044 0.63708 0.79414 0.0
C1931 C 0.29797 0.67303 0.77522 0.0
C1932 C 0.30745 0.65756 0.77661 0.0
C1933 C 0.33349 0.61161 0.78084 0.0
C1934 C 0.32496 0.62773 0.77936 0.0
H1935 H 0.29907 0.70998 0.75355 0.0
H1936 H 0.31404 0.68412 0.75513 0.0
H1937 H 0.30848 0.65871 0.80439 0.0
H1938 H 0.33175 0.57606 0.80479 0.0
H1939 H 0.3187 0.6029 0.80291 0.0
C1940 C 0.89329 0.49063 0.51654 0.0
C1941 C 0.8952 0.50787 0.51205 0.0
C1942 C 0.87729 0.48121 0.51526 0.0
C1943 C 0.83465 0.47954 0.49467 0.0
H1944 H 0.8209 0.45091 0.53268 0.0
C1945 C 0.76645 0.44391 0.50065 0.0
C1946 C 0.76571 0.42722 0.50676 0.0
C1947 C 0.78206 0.45421 0.50066 0.0
C1948 C 0.82462 0.45869 0.52187 0.0
H1949 H 0.88182 0.52868 0.50247 0.0
H1950 H 0.85379 0.51213 0.50016 0.0
H1951 H 0.84852 0.46798 0.53374 0.0
H1952 H 0.78088 0.40809 0.51716 0.0
H1953 H 0.80798 0.42589 0.51693 0.0
H1954 H 0.81071 0.4701 0.48277 0.0
C1955 C 0.86476 0.50591 0.50456 0.0
C1956 C 0.84044 0.46847 0.52249 0.0
C1957 C 0.8808 0.51538 0.50588 0.0
C1958 C 0.78094 0.42094 0.51251 0.0
C1959 C 0.79648 0.43118 0.51247 0.0
C1960 C 0.81879 0.46968 0.49403 0.0
C1961 C 0.86281 0.48879 0.50943 0.0
C1962 C 0.84571 0.47887 0.50884 0.0
C1963 C 0.7972 0.448 0.50676 0.0
C1964 C 0.81369 0.45901 0.50756 0.0
H1965 H 0.90421 0.48438 0.52099 0.0
H1966 H 0.87625 0.46794 0.51879 0.0
H1967 H 0.83844 0.48736 0.48392 0.0
H1968 H 0.75495 0.44914 0.49615 0.0
H1969 H 0.78219 0.46716 0.49628 0.0
C1970 C 0.75013 0.91012 0.83506 0.0
C1971 C 0.75257 0.89365 0.82833 0.0
C1972 C 0.73517 0.91777 0.83147 0.0
C1973 C 0.70184 0.92106 0.80049 0.0
H1974 H 0.67772 0.94009 0.83908 0.0
C1975 C 0.64701 0.96602 0.79252 0.0
C1976 C 0.64904 0.98082 0.80329 0.0
C1977 C 0.657 0.95234 0.79515 0.0
C1978 C 0.68428 0.93484 0.82815 0.0
H1979 H 0.74109 0.87252 0.81216 0.0
H1980 H 0.71511 0.88639 0.80535 0.0
H1981 H 0.70067 0.92174 0.8442 0.0
H1982 H 0.66297 0.99277 0.82534 0.0
H1983 H 0.6803 0.96926 0.82976 0.0
H1984 H 0.68613 0.93504 0.78446 0.0
C1985 C 0.72485 0.89311 0.81362 0.0
C1986 C 0.69735 0.9243 0.8311 0.0
C1987 C 0.73976 0.88526 0.81746 0.0
C1988 C 0.66103 0.98157 0.81681 0.0
C1989 C 0.67089 0.96798 0.81945 0.0
C1990 C 0.68882 0.9318 0.79752 0.0
C1991 C 0.72237 0.90933 0.82082 0.0
C1992 C 0.70662 0.91779 0.81734 0.0
C1993 C 0.66904 0.95321 0.80868 0.0
C1994 C 0.68037 0.93931 0.81138 0.0
H1995 H 0.75987 0.91724 0.84302 0.0
H1996 H 0.73368 0.93045 0.83689 0.0
H1997 H 0.70886 0.91618 0.78969 0.0
H1998 H 0.63787 0.96509 0.78199 0.0
H1999 H 0.65529 0.94111 0.78665 0.0
C2000 C 0.61952 0.50524 0.93985 0.0
C2001 C 0.62574 0.48962 0.93465 0.0
C2002 C 0.63086 0.5193 0.94487 0.0
C2003 C 0.67532 0.53054 0.96052 0.0
H2004 H 0.66552 0.57653 0.94965 0.0
C2005 C 0.72283 0.58997 0.9755 0.0
C2006 C 0.71578 0.60419 0.98326 0.0
C2007 C 0.71213 0.57606 0.96889 0.0
C2008 C 0.66835 0.56376 0.95287 0.0
H2009 H 0.64885 0.47664 0.93045 0.0
H2010 H 0.66869 0.50136 0.9387 0.0
H2011 H 0.64653 0.55211 0.93884 0.0
H2012 H 0.69195 0.61499 0.98999 0.0
H2013 H 0.67328 0.59069 0.97835 0.0
H2014 H 0.69722 0.54226 0.97445 0.0
C2015 C 0.65499 0.50262 0.9392 0.0
C2016 C 0.65746 0.54977 0.94671 0.0
C2017 C 0.64362 0.48851 0.93427 0.0
C2018 C 0.69779 0.60424 0.98411 0.0
C2019 C 0.68709 0.59038 0.97736 0.0
C2020 C 0.68627 0.54453 0.96657 0.0
C2021 C 0.64874 0.51815 0.94469 0.0
C2022 C 0.66074 0.53299 0.95058 0.0
C2023 C 0.69416 0.57613 0.96975 0.0
C2024 C 0.68281 0.56128 0.96291 0.0
H2025 H 0.60584 0.50663 0.94005 0.0
H2026 H 0.62557 0.53098 0.9492 0.0
H2027 H 0.67808 0.51783 0.96399 0.0
H2028 H 0.73664 0.58952 0.97463 0.0
H2029 H 0.71792 0.56531 0.96296 0.0
C2030 C 0.23479 0.65906 0.21853 0.0
C2031 C 0.24689 0.6526 0.20727 0.0
C2032 C 0.22134 0.64825 0.22499 0.0
C2033 C 0.19604 0.60688 0.21736 0.0
H2034 H 0.18802 0.60957 0.26641 0.0
C2035 C 0.13912 0.56849 0.25023 0.0
C2036 C 0.14338 0.55996 0.26499 0.0
C2037 C 0.15115 0.58028 0.24284 0.0
C2038 C 0.19013 0.60867 0.2527 0.0
H2039 H 0.25418 0.62968 0.19385 0.0
H2040 H 0.2305 0.61086 0.20495 0.0
H2041 H 0.2101 0.62924 0.25377 0.0
H2042 H 0.16356 0.55727 0.28366 0.0
H2043 H 0.18444 0.57793 0.27082 0.0
H2044 H 0.17618 0.58615 0.21635 0.0
C2045 C 0.23143 0.62434 0.20868 0.0
C2046 C 0.20264 0.62001 0.24545 0.0
C2047 C 0.24497 0.63513 0.20231 0.0
C2048 C 0.15986 0.56361 0.27229 0.0
C2049 C 0.1718 0.57551 0.265 0.0
C2050 C 0.18339 0.59563 0.22459 0.0
C2051 C 0.2196 0.63076 0.22023 0.0
C2052 C 0.20582 0.61914 0.22773 0.0
C2053 C 0.16759 0.58392 0.25018 0.0
C2054 C 0.18043 0.59632 0.24236 0.0
H2055 H 0.23568 0.67251 0.22234 0.0
H2056 H 0.21225 0.65358 0.23369 0.0
H2057 H 0.19815 0.60601 0.20365 0.0
H2058 H 0.12655 0.56594 0.24428 0.0
H2059 H 0.14754 0.58669 0.23147 0.0
C2060 C 0.88915 0.5359 0.07403 0.0
C2061 C 0.89216 0.52313 0.06159 0.0
C2062 C 0.87597 0.54659 0.07173 0.0
C2063 C 0.83694 0.55094 0.04507 0.0
H2064 H 0.84704 0.59954 0.05529 0.0
C2065 C 0.80489 0.60213 0.00993 0.0
C2066 C 0.79647 0.61403 0.01994 0.0
C2067 C 0.81557 0.59127 0.01758 0.0
C2068 C 0.84398 0.58597 0.05262 0.0
H2069 H 0.88379 0.51162 0.03696 0.0
H2070 H 0.86113 0.53031 0.03278 0.0
H2071 H 0.86733 0.57946 0.06416 0.0
H2072 H 0.79312 0.62428 0.04578 0.0
H2073 H 0.81245 0.60544 0.05917 0.0
H2074 H 0.81409 0.55762 0.03266 0.0
C2075 C 0.86854 0.53184 0.04458 0.0
C2076 C 0.85553 0.57444 0.05773 0.0
C2077 C 0.88158 0.52111 0.04695 0.0
C2078 C 0.79944 0.61522 0.03776 0.0
C2079 C 0.81045 0.60449 0.0454 0.0
C2080 C 0.82556 0.56245 0.03978 0.0
C2081 C 0.86561 0.5448 0.05687 0.0
C2082 C 0.85236 0.55682 0.05359 0.0
C2083 C 0.81831 0.59222 0.03537 0.0
C2084 C 0.82919 0.58008 0.04315 0.0
H2085 H 0.89703 0.53765 0.08552 0.0
H2086 H 0.87395 0.55629 0.08155 0.0
H2087 H 0.83383 0.53744 0.04207 0.0
H2088 H 0.80287 0.60084 0.99618 0.0
H2089 H 0.82167 0.58203 0.00957 0.0
C2090 C 0.11884 0.05123 0.06079 0.0
C2091 C 0.11784 0.05486 0.0785 0.0
C2092 C 0.12527 0.03618 0.05465 0.0
C2093 C 0.13476 0.99284 0.06682 0.0
H2094 H 0.16539 0.99667 0.0278 0.0
C2095 C 0.17645 0.93918 0.04194 0.0
C2096 C 0.17851 0.9375 0.02407 0.0
C2097 C 0.16743 0.95233 0.04907 0.0
C2098 C 0.15667 0.99531 0.03856 0.0
H2099 H 0.12259 0.04541 0.1037 0.0
H2100 H 0.134 0.01907 0.09295 0.0
H2101 H 0.15321 0.02199 0.03944 0.0
H2102 H 0.17167 0.94748 -0.00036 0.0
H2103 H 0.15578 0.97012 0.01201 0.0
H2104 H 0.13849 0.96607 0.06596 0.0
C2105 C 0.12961 0.02782 0.08382 0.0
C2106 C 0.14969 0.00985 0.04524 0.0
C2107 C 0.12312 0.04291 0.08997 0.0
C2108 C 0.1705 0.94854 0.01346 0.0
C2109 C 0.16147 0.9616 0.02056 0.0
C2110 C 0.14181 0.97824 0.06013 0.0
C2111 C 0.13092 0.02437 0.06607 0.0
C2112 C 0.13854 0.0088 0.05936 0.0
C2113 C 0.1603 0.96399 0.03844 0.0
C2114 C 0.15272 0.97931 0.04581 0.0
H2115 H 0.11452 0.06 0.05162 0.0
H2116 H 0.12574 0.03375 0.04092 0.0
H2117 H 0.12611 0.99159 0.07764 0.0
H2118 H 0.1825 0.93087 0.05045 0.0
H2119 H 0.16677 0.95386 0.0629 0.0
loop_
_geom_bond_atom_site_label_1
_geom_bond_atom_site_label_2
_geom_bond_distance
_geom_bond_site_symmetry_2
_ccdc_geom_bond_type
P0 O11 1.490 . S
P0 C14 1.812 . S
P0 C20 1.803 . S
P0 C26 1.819 . S
H1 C15 0.941 . S
H2 C16 0.939 . S
H3 C18 0.940 . S
H4 C19 0.940 . S
H5 C21 0.939 . S
H6 C22 0.942 . S
H7 C24 0.940 . S
H8 C25 0.939 . S
H9 C27 0.941 . S
H10 C31 0.939 . S
O11 P0 1.490 . S
H12 C28 0.939 . S
H13 C30 0.940 . S
C14 P0 1.812 . S
C14 C15 1.389 . S
C14 C19 1.391 . S
C15 H1 0.941 . S
C15 C14 1.389 . S
C15 C16 1.397 . S
C16 H2 0.939 . S
C16 C15 1.397 . S
C16 C17 1.378 . S
C17 C16 1.378 . S
C17 C18 1.378 . S
C18 H3 0.940 . S
C18 C17 1.378 . S
C18 C19 1.396 . S
C19 H4 0.940 . S
C19 C14 1.391 . S
C19 C18 1.396 . S
C20 P0 1.803 . S
C20 C21 1.378 . S
C20 C25 1.400 . S
C21 H5 0.939 . S
C21 C20 1.378 . S
C21 C22 1.361 . S
C22 H6 0.942 . S
C22 C21 1.361 . S
C22 C23 1.369 . S
C23 C22 1.369 . S
C23 C24 1.404 . S
C24 H7 0.940 . S
C24 C23 1.404 . S
C24 C25 1.389 . S
C25 H8 0.939 . S
C25 C20 1.400 . S
C25 C24 1.389 . S
C26 P0 1.819 . S
C26 C27 1.391 . S
C26 C31 1.391 . S
C27 H9 0.941 . S
C27 C26 1.391 . S
C27 C28 1.396 . S
C28 H12 0.939 . S
C28 C27 1.396 . S
C28 C29 1.397 . S
C29 C28 1.397 . S
C29 C30 1.385 . S
C30 H13 0.940 . S
C30 C29 1.385 . S
C30 C31 1.388 . S
C31 H10 0.939 . S
C31 C26 1.391 . S
C31 C30 1.388 . S
P32 O43 1.490 . S
P32 C46 1.812 . S
P32 C52 1.803 . S
P32 C58 1.819 . S
H33 C47 0.941 . S
H34 C48 0.939 . S
H35 C50 0.940 . S
H36 C51 0.940 . S
H37 C53 0.939 . S
H38 C54 0.942 . S
H39 C56 0.940 . S
H40 C57 0.939 . S
H41 C59 0.941 . S
H42 C63 0.939 . S
O43 P32 1.490 . S
H44 C60 0.939 . S
H45 C62 0.940 . S
C46 P32 1.812 . S
C46 C47 1.389 . S
C46 C51 1.391 . S
C47 H33 0.941 . S
C47 C46 1.389 . S
C47 C48 1.397 . S
C48 H34 0.939 . S
C48 C47 1.397 . S
C48 C49 1.378 . S
C49 C48 1.378 . S
C49 C50 1.378 . S
C50 H35 0.940 . S
C50 C49 1.378 . S
C50 C51 1.396 . S
C51 H36 0.940 . S
C51 C46 1.391 . S
C51 C50 1.396 . S
C52 P32 1.803 . S
C52 C53 1.378 . S
C52 C57 1.400 . S
C53 H37 0.939 . S
C53 C52 1.378 . S
C53 C54 1.361 . S
C54 H38 0.942 . S
C54 C53 1.361 . S
C54 C55 1.369 . S
C55 C54 1.369 . S
C55 C56 1.404 . S
C56 H39 0.940 . S
C56 C55 1.404 . S
C56 C57 1.389 . S
C57 H40 0.939 . S
C57 C52 1.400 . S
C57 C56 1.389 . S
C58 P32 1.819 . S
C58 C59 1.391 . S
C58 C63 1.391 . S
C59 H41 0.941 . S
C59 C58 1.391 . S
C59 C60 1.396 . S
C60 H44 0.939 . S
C60 C59 1.396 . S
C60 C61 1.397 . S
C61 C60 1.397 . S
C61 C62 1.385 . S
C62 H45 0.940 . S
C62 C61 1.385 . S
C62 C63 1.388 . S
C63 H42 0.939 . S
C63 C58 1.391 . S
C63 C62 1.388 . S
P64 O75 1.490 . S
P64 C78 1.812 . S
P64 C84 1.803 . S
P64 C90 1.819 . S
H65 C79 0.941 . S
H66 C80 0.939 . S
H67 C82 0.940 . S
H68 C83 0.940 . S
H69 C85 0.939 . S
H70 C86 0.942 . S
H71 C88 0.940 . S
H72 C89 0.939 . S
H73 C91 0.941 . S
H74 C95 0.939 . S
O75 P64 1.490 . S
H76 C92 0.939 . S
H77 C94 0.940 . S
C78 P64 1.812 . S
C78 C79 1.389 . S
C78 C83 1.391 . S
C79 H65 0.941 . S
C79 C78 1.389 . S
C79 C80 1.397 . S
C80 H66 0.939 . S
C80 C79 1.397 . S
C80 C81 1.378 . S
C81 C80 1.378 . S
C81 C82 1.378 . S
C82 H67 0.940 . S
C82 C81 1.378 . S
C82 C83 1.396 . S
C83 H68 0.940 . S
C83 C78 1.391 . S
C83 C82 1.396 . S
C84 P64 1.803 . S
C84 C85 1.378 . S
C84 C89 1.400 . S
C85 H69 0.939 . S
C85 C84 1.378 . S
C85 C86 1.361 . S
C86 H70 0.942 . S
C86 C85 1.361 . S
C86 C87 1.369 . S
C87 C86 1.369 . S
C87 C88 1.404 . S
C88 H71 0.940 . S
C88 C87 1.404 . S
C88 C89 1.389 . S
C89 H72 0.939 . S
C89 C84 1.400 . S
C89 C88 1.389 . S
C90 P64 1.819 . S
C90 C91 1.391 . S
C90 C95 1.391 . S
C91 H73 0.941 . S
C91 C90 1.391 . S
C91 C92 1.396 . S
C92 H76 0.939 . S
C92 C91 1.396 . S
C92 C93 1.397 . S
C93 C92 1.397 . S
C93 C94 1.385 . S
C94 H77 0.940 . S
C94 C93 1.385 . S
C94 C95 1.388 . S
C95 H74 0.939 . S
C95 C90 1.391 . S
C95 C94 1.388 . S
P96 O107 1.490 . S
P96 C110 1.812 . S
P96 C116 1.803 . S
P96 C122 1.819 . S
H97 C111 0.941 . S
H98 C112 0.939 . S
H99 C114 0.940 . S
H100 C115 0.940 . S
H101 C117 0.939 . S
H102 C118 0.942 . S
H103 C120 0.940 . S
H104 C121 0.939 . S
H105 C123 0.941 . S
H106 C127 0.939 . S
O107 P96 1.490 . S
H108 C124 0.939 . S
H109 C126 0.940 . S
C110 P96 1.812 . S
C110 C111 1.389 . S
C110 C115 1.391 . S
C111 H97 0.941 . S
C111 C110 1.389 . S
C111 C112 1.397 . S
C112 H98 0.939 . S
C112 C111 1.397 . S
C112 C113 1.378 . S
C113 C112 1.378 . S
C113 C114 1.378 . S
C114 H99 0.940 . S
C114 C113 1.378 . S
C114 C115 1.396 . S
C115 H100 0.940 . S
C115 C110 1.391 . S
C115 C114 1.396 . S
C116 P96 1.803 . S
C116 C117 1.378 . S
C116 C121 1.400 . S
C117 H101 0.939 . S
C117 C116 1.378 . S
C117 C118 1.361 . S
C118 H102 0.942 . S
C118 C117 1.361 . S
C118 C119 1.369 . S
C119 C118 1.369 . S
C119 C120 1.404 . S
C120 H103 0.940 . S
C120 C119 1.404 . S
C120 C121 1.389 . S
C121 H104 0.939 . S
C121 C116 1.400 . S
C121 C120 1.389 . S
C122 P96 1.819 . S
C122 C123 1.391 . S
C122 C127 1.391 . S
C123 H105 0.941 . S
C123 C122 1.391 . S
C123 C124 1.396 . S
C124 H108 0.939 . S
C124 C123 1.396 . S
C124 C125 1.397 . S
C125 C124 1.397 . S
C125 C126 1.385 . S
C126 H109 0.940 . S
C126 C125 1.385 . S
C126 C127 1.388 . S
C127 H106 0.939 . S
C127 C122 1.391 . S
C127 C126 1.388 . S
P128 O139 1.490 . S
P128 C142 1.812 . S
P128 C148 1.803 . S
P128 C154 1.819 . S
H129 C143 0.941 . S
H130 C144 0.939 . S
H131 C146 0.940 . S
H132 C147 0.940 . S
H133 C149 0.939 . S
H134 C150 0.942 . S
H135 C152 0.940 . S
H136 C153 0.939 . S
H137 C155 0.941 . S
H138 C159 0.939 . S
O139 P128 1.490 . S
H140 C156 0.939 . S
H141 C158 0.940 . S
C142 P128 1.812 . S
C142 C143 1.389 . S
C142 C147 1.391 . S
C143 H129 0.941 . S
C143 C142 1.389 . S
C143 C144 1.397 . S
C144 H130 0.939 . S
C144 C143 1.397 . S
C144 C145 1.378 . S
C145 C144 1.378 . S
C145 C146 1.378 . S
C146 H131 0.940 . S
C146 C145 1.378 . S
C146 C147 1.396 . S
C147 H132 0.940 . S
C147 C142 1.391 . S
C147 C146 1.396 . S
C148 P128 1.803 . S
C148 C149 1.378 . S
C148 C153 1.400 . S
C149 H133 0.939 . S
C149 C148 1.378 . S
C149 C150 1.361 . S
C150 H134 0.942 . S
C150 C149 1.361 . S
C150 C151 1.369 . S
C151 C150 1.369 . S
C151 C152 1.404 . S
C152 H135 0.940 . S
C152 C151 1.404 . S
C152 C153 1.389 . S
C153 H136 0.939 . S
C153 C148 1.400 . S
C153 C152 1.389 . S
C154 P128 1.819 . S
C154 C155 1.391 . S
C154 C159 1.391 . S
C155 H137 0.941 . S
C155 C154 1.391 . S
C155 C156 1.396 . S
C156 H140 0.939 . S
C156 C155 1.396 . S
C156 C157 1.397 . S
C157 C156 1.397 . S
C157 C158 1.385 . S
C158 H141 0.940 . S
C158 C157 1.385 . S
C158 C159 1.388 . S
C159 H138 0.939 . S
C159 C154 1.391 . S
C159 C158 1.388 . S
P160 O171 1.490 . S
P160 C174 1.812 . S
P160 C180 1.803 . S
P160 C186 1.819 . S
H161 C175 0.941 . S
H162 C176 0.939 . S
H163 C178 0.940 . S
H164 C179 0.940 . S
H165 C181 0.939 . S
H166 C182 0.942 . S
H167 C184 0.940 . S
H168 C185 0.939 . S
H169 C187 0.941 . S
H170 C191 0.939 . S
O171 P160 1.490 . S
H172 C188 0.939 . S
H173 C190 0.940 . S
C174 P160 1.812 . S
C174 C175 1.389 . S
C174 C179 1.391 . S
C175 H161 0.941 . S
C175 C174 1.389 . S
C175 C176 1.397 . S
C176 H162 0.939 . S
C176 C175 1.397 . S
C176 C177 1.378 . S
C177 C176 1.378 . S
C177 C178 1.378 . S
C178 H163 0.940 . S
C178 C177 1.378 . S
C178 C179 1.396 . S
C179 H164 0.940 . S
C179 C174 1.391 . S
C179 C178 1.396 . S
C180 P160 1.803 . S
C180 C181 1.378 . S
C180 C185 1.400 . S
C181 H165 0.939 . S
C181 C180 1.378 . S
C181 C182 1.361 . S
C182 H166 0.942 . S
C182 C181 1.361 . S
C182 C183 1.369 . S
C183 C182 1.369 . S
C183 C184 1.404 . S
C184 H167 0.940 . S
C184 C183 1.404 . S
C184 C185 1.389 . S
C185 H168 0.939 . S
C185 C180 1.400 . S
C185 C184 1.389 . S
C186 P160 1.819 . S
C186 C187 1.391 . S
C186 C191 1.391 . S
C187 H169 0.941 . S
C187 C186 1.391 . S
C187 C188 1.396 . S
C188 H172 0.939 . S
C188 C187 1.396 . S
C188 C189 1.397 . S
C189 C188 1.397 . S
C189 C190 1.385 . S
C190 H173 0.940 . S
C190 C189 1.385 . S
C190 C191 1.388 . S
C191 H170 0.939 . S
C191 C186 1.391 . S
C191 C190 1.388 . S
P192 O203 1.490 . S
P192 C206 1.812 . S
P192 C212 1.803 . S
P192 C218 1.819 . S
H193 C207 0.941 . S
H194 C208 0.939 . S
H195 C210 0.940 . S
H196 C211 0.940 . S
H197 C213 0.939 . S
H198 C214 0.942 . S
H199 C216 0.940 . S
H200 C217 0.939 . S
H201 C219 0.941 . S
H202 C223 0.939 . S
O203 P192 1.490 . S
H204 C220 0.939 . S
H205 C222 0.940 . S
C206 P192 1.812 . S
C206 C207 1.389 . S
C206 C211 1.391 . S
C207 H193 0.941 . S
C207 C206 1.389 . S
C207 C208 1.397 . S
C208 H194 0.939 . S
C208 C207 1.397 . S
C208 C209 1.378 . S
C209 C208 1.378 . S
C209 C210 1.378 . S
C210 H195 0.940 . S
C210 C209 1.378 . S
C210 C211 1.396 . S
C211 H196 0.940 . S
C211 C206 1.391 . S
C211 C210 1.396 . S
C212 P192 1.803 . S
C212 C213 1.378 . S
C212 C217 1.400 . S
C213 H197 0.939 . S
C213 C212 1.378 . S
C213 C214 1.361 . S
C214 H198 0.942 . S
C214 C213 1.361 . S
C214 C215 1.369 . S
C215 C214 1.369 . S
C215 C216 1.404 . S
C216 H199 0.940 . S
C216 C215 1.404 . S
C216 C217 1.389 . S
C217 H200 0.939 . S
C217 C212 1.400 . S
C217 C216 1.389 . S
C218 P192 1.819 . S
C218 C219 1.391 . S
C218 C223 1.391 . S
C219 H201 0.941 . S
C219 C218 1.391 . S
C219 C220 1.396 . S
C220 H204 0.939 . S
C220 C219 1.396 . S
C220 C221 1.397 . S
C221 C220 1.397 . S
C221 C222 1.385 . S
C222 H205 0.940 . S
C222 C221 1.385 . S
C222 C223 1.388 . S
C223 H202 0.939 . S
C223 C218 1.391 . S
C223 C222 1.388 . S
P224 O235 1.490 . S
P224 C238 1.812 . S
P224 C244 1.803 . S
P224 C250 1.819 . S
H225 C239 0.941 . S
H226 C240 0.939 . S
H227 C242 0.940 . S
H228 C243 0.940 . S
H229 C245 0.939 . S
H230 C246 0.942 . S
H231 C248 0.940 . S
H232 C249 0.939 . S
H233 C251 0.941 . S
H234 C255 0.939 . S
O235 P224 1.490 . S
H236 C252 0.939 . S
H237 C254 0.940 . S
C238 P224 1.812 . S
C238 C239 1.389 . S
C238 C243 1.391 . S
C239 H225 0.941 . S
C239 C238 1.389 . S
C239 C240 1.397 . S
C240 H226 0.939 . S
C240 C239 1.397 . S
C240 C241 1.378 . S
C241 C240 1.378 . S
C241 C242 1.378 . S
C242 H227 0.940 . S
C242 C241 1.378 . S
C242 C243 1.396 . S
C243 H228 0.940 . S
C243 C238 1.391 . S
C243 C242 1.396 . S
C244 P224 1.803 . S
C244 C245 1.378 . S
C244 C249 1.400 . S
C245 H229 0.939 . S
C245 C244 1.378 . S
C245 C246 1.361 . S
C246 H230 0.942 . S
C246 C245 1.361 . S
C246 C247 1.369 . S
C247 C246 1.369 . S
C247 C248 1.404 . S
C248 H231 0.940 . S
C248 C247 1.404 . S
C248 C249 1.389 . S
C249 H232 0.939 . S
C249 C244 1.400 . S
C249 C248 1.389 . S
C250 P224 1.819 . S
C250 C251 1.391 . S
C250 C255 1.391 . S
C251 H233 0.941 . S
C251 C250 1.391 . S
C251 C252 1.396 . S
C252 H236 0.939 . S
C252 C251 1.396 . S
C252 C253 1.397 . S
C253 C252 1.397 . S
C253 C254 1.385 . S
C254 H237 0.940 . S
C254 C253 1.385 . S
C254 C255 1.388 . S
C255 H234 0.939 . S
C255 C250 1.391 . S
C255 C254 1.388 . S
P256 O267 1.490 . S
P256 C270 1.812 . S
P256 C276 1.803 . S
P256 C282 1.819 . S
H257 C271 0.941 . S
H258 C272 0.939 . S
H259 C274 0.940 . S
H260 C275 0.940 . S
H261 C277 0.939 . S
H262 C278 0.942 . S
H263 C280 0.940 . S
H264 C281 0.939 . S
H265 C283 0.941 . S
H266 C287 0.939 . S
O267 P256 1.490 . S
H268 C284 0.939 . S
H269 C286 0.940 . S
C270 P256 1.812 . S
C270 C271 1.389 . S
C270 C275 1.391 . S
C271 H257 0.941 . S
C271 C270 1.389 . S
C271 C272 1.397 . S
C272 H258 0.939 . S
C272 C271 1.397 . S
C272 C273 1.378 . S
C273 C272 1.378 . S
C273 C274 1.378 . S
C274 H259 0.940 . S
C274 C273 1.378 . S
C274 C275 1.396 . S
C275 H260 0.940 . S
C275 C270 1.391 . S
C275 C274 1.396 . S
C276 P256 1.803 . S
C276 C277 1.378 . S
C276 C281 1.400 . S
C277 H261 0.939 . S
C277 C276 1.378 . S
C277 C278 1.361 . S
C278 H262 0.942 . S
C278 C277 1.361 . S
C278 C279 1.369 . S
C279 C278 1.369 . S
C279 C280 1.404 . S
C280 H263 0.940 . S
C280 C279 1.404 . S
C280 C281 1.389 . S
C281 H264 0.939 . S
C281 C276 1.400 . S
C281 C280 1.389 . S
C282 P256 1.819 . S
C282 C283 1.391 . S
C282 C287 1.391 . S
C283 H265 0.941 . S
C283 C282 1.391 . S
C283 C284 1.396 . S
C284 H268 0.939 . S
C284 C283 1.396 . S
C284 C285 1.397 . S
C285 C284 1.397 . S
C285 C286 1.385 . S
C286 H269 0.940 . S
C286 C285 1.385 . S
C286 C287 1.388 . S
C287 H266 0.939 . S
C287 C282 1.391 . S
C287 C286 1.388 . S
P288 O299 1.490 . S
P288 C302 1.812 . S
P288 C308 1.803 . S
P288 C314 1.819 . S
H289 C303 0.941 . S
H290 C304 0.939 . S
H291 C306 0.940 . S
H292 C307 0.940 . S
H293 C309 0.939 . S
H294 C310 0.942 . S
H295 C312 0.940 . S
H296 C313 0.939 . S
H297 C315 0.941 . S
H298 C319 0.939 . S
O299 P288 1.490 . S
H300 C316 0.939 . S
H301 C318 0.940 . S
C302 P288 1.812 . S
C302 C303 1.389 . S
C302 C307 1.391 . S
C303 H289 0.941 . S
C303 C302 1.389 . S
C303 C304 1.397 . S
C304 H290 0.939 . S
C304 C303 1.397 . S
C304 C305 1.378 . S
C305 C304 1.378 . S
C305 C306 1.378 . S
C306 H291 0.940 . S
C306 C305 1.378 . S
C306 C307 1.396 . S
C307 H292 0.940 . S
C307 C302 1.391 . S
C307 C306 1.396 . S
C308 P288 1.803 . S
C308 C309 1.378 . S
C308 C313 1.400 . S
C309 H293 0.939 . S
C309 C308 1.378 . S
C309 C310 1.361 . S
C310 H294 0.942 . S
C310 C309 1.361 . S
C310 C311 1.369 . S
C311 C310 1.369 . S
C311 C312 1.404 . S
C312 H295 0.940 . S
C312 C311 1.404 . S
C312 C313 1.389 . S
C313 H296 0.939 . S
C313 C308 1.400 . S
C313 C312 1.389 . S
C314 P288 1.819 . S
C314 C315 1.391 . S
C314 C319 1.391 . S
C315 H297 0.941 . S
C315 C314 1.391 . S
C315 C316 1.396 . S
C316 H300 0.939 . S
C316 C315 1.396 . S
C316 C317 1.397 . S
C317 C316 1.397 . S
C317 C318 1.385 . S
C318 H301 0.940 . S
C318 C317 1.385 . S
C318 C319 1.388 . S
C319 H298 0.939 . S
C319 C314 1.391 . S
C319 C318 1.388 . S
P320 O331 1.490 . S
P320 C334 1.812 . S
P320 C340 1.803 . S
P320 C346 1.819 . S
H321 C335 0.941 . S
H322 C336 0.939 . S
H323 C338 0.940 . S
H324 C339 0.940 . S
H325 C341 0.939 . S
H326 C342 0.942 . S
H327 C344 0.940 . S
H328 C345 0.939 . S
H329 C347 0.941 . S
H330 C351 0.939 . S
O331 P320 1.490 . S
H332 C348 0.939 . S
H333 C350 0.940 . S
C334 P320 1.812 . S
C334 C335 1.389 . S
C334 C339 1.391 . S
C335 H321 0.941 . S
C335 C334 1.389 . S
C335 C336 1.397 . S
C336 H322 0.939 . S
C336 C335 1.397 . S
C336 C337 1.378 . S
C337 C336 1.378 . S
C337 C338 1.378 . S
C338 H323 0.940 . S
C338 C337 1.378 . S
C338 C339 1.396 . S
C339 H324 0.940 . S
C339 C334 1.391 . S
C339 C338 1.396 . S
C340 P320 1.803 . S
C340 C341 1.378 . S
C340 C345 1.400 . S
C341 H325 0.939 . S
C341 C340 1.378 . S
C341 C342 1.361 . S
C342 H326 0.942 . S
C342 C341 1.361 . S
C342 C343 1.369 . S
C343 C342 1.369 . S
C343 C344 1.404 . S
C344 H327 0.940 . S
C344 C343 1.404 . S
C344 C345 1.389 . S
C345 H328 0.939 . S
C345 C340 1.400 . S
C345 C344 1.389 . S
C346 P320 1.819 . S
C346 C347 1.391 . S
C346 C351 1.391 . S
C347 H329 0.941 . S
C347 C346 1.391 . S
C347 C348 1.396 . S
C348 H332 0.939 . S
C348 C347 1.396 . S
C348 C349 1.397 . S
C349 C348 1.397 . S
C349 C350 1.385 . S
C350 H333 0.940 . S
C350 C349 1.385 . S
C350 C351 1.388 . S
C351 H330 0.939 . S
C351 C346 1.391 . S
C351 C350 1.388 . S
P352 O363 1.490 . S
P352 C366 1.812 . S
P352 C372 1.803 . S
P352 C378 1.819 . S
H353 C367 0.941 . S
H354 C368 0.939 . S
H355 C370 0.940 . S
H356 C371 0.940 . S
H357 C373 0.939 . S
H358 C374 0.942 . S
H359 C376 0.940 . S
H360 C377 0.939 . S
H361 C379 0.941 . S
H362 C383 0.939 . S
O363 P352 1.490 . S
H364 C380 0.939 . S
H365 C382 0.940 . S
C366 P352 1.812 . S
C366 C367 1.389 . S
C366 C371 1.391 . S
C367 H353 0.941 . S
C367 C366 1.389 . S
C367 C368 1.397 . S
C368 H354 0.939 . S
C368 C367 1.397 . S
C368 C369 1.378 . S
C369 C368 1.378 . S
C369 C370 1.378 . S
C370 H355 0.940 . S
C370 C369 1.378 . S
C370 C371 1.396 . S
C371 H356 0.940 . S
C371 C366 1.391 . S
C371 C370 1.396 . S
C372 P352 1.803 . S
C372 C373 1.378 . S
C372 C377 1.400 . S
C373 H357 0.939 . S
C373 C372 1.378 . S
C373 C374 1.361 . S
C374 H358 0.942 . S
C374 C373 1.361 . S
C374 C375 1.369 . S
C375 C374 1.369 . S
C375 C376 1.404 . S
C376 H359 0.940 . S
C376 C375 1.404 . S
C376 C377 1.389 . S
C377 H360 0.939 . S
C377 C372 1.400 . S
C377 C376 1.389 . S
C378 P352 1.819 . S
C378 C379 1.391 . S
C378 C383 1.391 . S
C379 H361 0.941 . S
C379 C378 1.391 . S
C379 C380 1.396 . S
C380 H364 0.939 . S
C380 C379 1.396 . S
C380 C381 1.397 . S
C381 C380 1.397 . S
C381 C382 1.385 . S
C382 H365 0.940 . S
C382 C381 1.385 . S
C382 C383 1.388 . S
C383 H362 0.939 . S
C383 C378 1.391 . S
C383 C382 1.388 . S
P384 O395 1.490 . S
P384 C398 1.812 . S
P384 C404 1.803 . S
P384 C410 1.819 . S
H385 C399 0.941 . S
H386 C400 0.939 . S
H387 C402 0.940 . S
H388 C403 0.940 . S
H389 C405 0.939 . S
H390 C406 0.942 . S
H391 C408 0.940 . S
H392 C409 0.939 . S
H393 C411 0.941 . S
H394 C415 0.939 . S
O395 P384 1.490 . S
H396 C412 0.939 . S
H397 C414 0.940 . S
C398 P384 1.812 . S
C398 C399 1.389 . S
C398 C403 1.391 . S
C399 H385 0.941 . S
C399 C398 1.389 . S
C399 C400 1.397 . S
C400 H386 0.939 . S
C400 C399 1.397 . S
C400 C401 1.378 . S
C401 C400 1.378 . S
C401 C402 1.378 . S
C402 H387 0.940 . S
C402 C401 1.378 . S
C402 C403 1.396 . S
C403 H388 0.940 . S
C403 C398 1.391 . S
C403 C402 1.396 . S
C404 P384 1.803 . S
C404 C405 1.378 . S
C404 C409 1.400 . S
C405 H389 0.939 . S
C405 C404 1.378 . S
C405 C406 1.361 . S
C406 H390 0.942 . S
C406 C405 1.361 . S
C406 C407 1.369 . S
C407 C406 1.369 . S
C407 C408 1.404 . S
C408 H391 0.940 . S
C408 C407 1.404 . S
C408 C409 1.389 . S
C409 H392 0.939 . S
C409 C404 1.400 . S
C409 C408 1.389 . S
C410 P384 1.819 . S
C410 C411 1.391 . S
C410 C415 1.391 . S
C411 H393 0.941 . S
C411 C410 1.391 . S
C411 C412 1.396 . S
C412 H396 0.939 . S
C412 C411 1.396 . S
C412 C413 1.397 . S
C413 C412 1.397 . S
C413 C414 1.385 . S
C414 H397 0.940 . S
C414 C413 1.385 . S
C414 C415 1.388 . S
C415 H394 0.939 . S
C415 C410 1.391 . S
C415 C414 1.388 . S
P416 O427 1.490 . S
P416 C430 1.812 . S
P416 C436 1.803 . S
P416 C442 1.819 . S
H417 C431 0.941 . S
H418 C432 0.939 . S
H419 C434 0.940 . S
H420 C435 0.940 . S
H421 C437 0.939 . S
H422 C438 0.942 . S
H423 C440 0.940 . S
H424 C441 0.939 . S
H425 C443 0.941 . S
H426 C447 0.939 . S
O427 P416 1.490 . S
H428 C444 0.939 . S
H429 C446 0.940 . S
C430 P416 1.812 . S
C430 C431 1.389 . S
C430 C435 1.391 . S
C431 H417 0.941 . S
C431 C430 1.389 . S
C431 C432 1.397 . S
C432 H418 0.939 . S
C432 C431 1.397 . S
C432 C433 1.378 . S
C433 C432 1.378 . S
C433 C434 1.378 . S
C434 H419 0.940 . S
C434 C433 1.378 . S
C434 C435 1.396 . S
C435 H420 0.940 . S
C435 C430 1.391 . S
C435 C434 1.396 . S
C436 P416 1.803 . S
C436 C437 1.378 . S
C436 C441 1.400 . S
C437 H421 0.939 . S
C437 C436 1.378 . S
C437 C438 1.361 . S
C438 H422 0.942 . S
C438 C437 1.361 . S
C438 C439 1.369 . S
C439 C438 1.369 . S
C439 C440 1.404 . S
C440 H423 0.940 . S
C440 C439 1.404 . S
C440 C441 1.389 . S
C441 H424 0.939 . S
C441 C436 1.400 . S
C441 C440 1.389 . S
C442 P416 1.819 . S
C442 C443 1.391 . S
C442 C447 1.391 . S
C443 H425 0.941 . S
C443 C442 1.391 . S
C443 C444 1.396 . S
C444 H428 0.939 . S
C444 C443 1.396 . S
C444 C445 1.397 . S
C445 C444 1.397 . S
C445 C446 1.385 . S
C446 H429 0.940 . S
C446 C445 1.385 . S
C446 C447 1.388 . S
C447 H426 0.939 . S
C447 C442 1.391 . S
C447 C446 1.388 . S
P448 O459 1.490 . S
P448 C462 1.812 . S
P448 C468 1.803 . S
P448 C474 1.819 . S
H449 C463 0.941 . S
H450 C464 0.939 . S
H451 C466 0.940 . S
H452 C467 0.940 . S
H453 C469 0.939 . S
H454 C470 0.942 . S
H455 C472 0.940 . S
H456 C473 0.939 . S
H457 C475 0.941 . S
H458 C479 0.939 . S
O459 P448 1.490 . S
H460 C476 0.939 . S
H461 C478 0.940 . S
C462 P448 1.812 . S
C462 C463 1.389 . S
C462 C467 1.391 . S
C463 H449 0.941 . S
C463 C462 1.389 . S
C463 C464 1.397 . S
C464 H450 0.939 . S
C464 C463 1.397 . S
C464 C465 1.378 . S
C465 C464 1.378 . S
C465 C466 1.378 . S
C466 H451 0.940 . S
C466 C465 1.378 . S
C466 C467 1.396 . S
C467 H452 0.940 . S
C467 C462 1.391 . S
C467 C466 1.396 . S
C468 P448 1.803 . S
C468 C469 1.378 . S
C468 C473 1.400 . S
C469 H453 0.939 . S
C469 C468 1.378 . S
C469 C470 1.361 . S
C470 H454 0.942 . S
C470 C469 1.361 . S
C470 C471 1.369 . S
C471 C470 1.369 . S
C471 C472 1.404 . S
C472 H455 0.940 . S
C472 C471 1.404 . S
C472 C473 1.389 . S
C473 H456 0.939 . S
C473 C468 1.400 . S
C473 C472 1.389 . S
C474 P448 1.819 . S
C474 C475 1.391 . S
C474 C479 1.391 . S
C475 H457 0.941 . S
C475 C474 1.391 . S
C475 C476 1.396 . S
C476 H460 0.939 . S
C476 C475 1.396 . S
C476 C477 1.397 . S
C477 C476 1.397 . S
C477 C478 1.385 . S
C478 H461 0.940 . S
C478 C477 1.385 . S
C478 C479 1.388 . S
C479 H458 0.939 . S
C479 C474 1.391 . S
C479 C478 1.388 . S
P480 O491 1.490 . S
P480 C494 1.812 . S
P480 C500 1.803 . S
P480 C506 1.819 . S
H481 C495 0.941 . S
H482 C496 0.939 . S
H483 C498 0.940 . S
H484 C499 0.940 . S
H485 C501 0.939 . S
H486 C502 0.942 . S
H487 C504 0.940 . S
H488 C505 0.939 . S
H489 C507 0.941 . S
H490 C511 0.939 . S
O491 P480 1.490 . S
H492 C508 0.939 . S
H493 C510 0.940 . S
C494 P480 1.812 . S
C494 C495 1.389 . S
C494 C499 1.391 . S
C495 H481 0.941 . S
C495 C494 1.389 . S
C495 C496 1.397 . S
C496 H482 0.939 . S
C496 C495 1.397 . S
C496 C497 1.378 . S
C497 C496 1.378 . S
C497 C498 1.378 . S
C498 H483 0.940 . S
C498 C497 1.378 . S
C498 C499 1.396 . S
C499 H484 0.940 . S
C499 C494 1.391 . S
C499 C498 1.396 . S
C500 P480 1.803 . S
C500 C501 1.378 . S
C500 C505 1.400 . S
C501 H485 0.939 . S
C501 C500 1.378 . S
C501 C502 1.361 . S
C502 H486 0.942 . S
C502 C501 1.361 . S
C502 C503 1.369 . S
C503 C502 1.369 . S
C503 C504 1.404 . S
C504 H487 0.940 . S
C504 C503 1.404 . S
C504 C505 1.389 . S
C505 H488 0.939 . S
C505 C500 1.400 . S
C505 C504 1.389 . S
C506 P480 1.819 . S
C506 C507 1.391 . S
C506 C511 1.391 . S
C507 H489 0.941 . S
C507 C506 1.391 . S
C507 C508 1.396 . S
C508 H492 0.939 . S
C508 C507 1.396 . S
C508 C509 1.397 . S
C509 C508 1.397 . S
C509 C510 1.385 . S
C510 H493 0.940 . S
C510 C509 1.385 . S
C510 C511 1.388 . S
C511 H490 0.939 . S
C511 C506 1.391 . S
C511 C510 1.388 . S
O512 Cd513 2.223 . S
O512 C520 1.315 . S
Cd513 O512 2.223 . S
Cd513 O516 2.297 . S
Cd513 O517 2.439 . S
Cd513 O523 2.240 . S
Cd514 O515 2.240 . S
Cd514 O522 2.223 . S
Cd514 O524 2.297 . S
Cd514 O525 2.439 . S
O515 Cd514 2.240 . S
O515 C520 1.279 . S
O516 Cd513 2.297 . S
O516 C518 1.247 . S
O517 Cd513 2.439 . S
O517 C518 1.208 . S
C518 O516 1.247 . S
C518 O517 1.208 . S
C519 O524 1.247 . S
C519 O525 1.208 . S
C520 O512 1.315 . S
C520 O515 1.279 . S
C521 O522 1.315 . S
C521 O523 1.279 . S
O522 Cd514 2.223 . S
O522 C521 1.315 . S
O523 Cd513 2.240 . S
O523 C521 1.279 . S
O524 Cd514 2.297 . S
O524 C519 1.247 . S
O525 Cd514 2.439 . S
O525 C519 1.208 . S
O526 Cd527 2.223 . S
O526 C534 1.315 . S
Cd527 O526 2.223 . S
Cd527 O530 2.297 . S
Cd527 O531 2.439 . S
Cd527 O537 2.240 . S
Cd528 O529 2.240 . S
Cd528 O536 2.223 . S
Cd528 O538 2.297 . S
Cd528 O539 2.439 . S
O529 Cd528 2.240 . S
O529 C534 1.279 . S
O530 Cd527 2.297 . S
O530 C532 1.247 . S
O531 Cd527 2.439 . S
O531 C532 1.208 . S
C532 O530 1.247 . S
C532 O531 1.208 . S
C533 O538 1.247 . S
C533 O539 1.208 . S
C534 O526 1.315 . S
C534 O529 1.279 . S
C535 O536 1.315 . S
C535 O537 1.279 . S
O536 Cd528 2.223 . S
O536 C535 1.315 . S
O537 Cd527 2.240 . S
O537 C535 1.279 . S
O538 Cd528 2.297 . S
O538 C533 1.247 . S
O539 Cd528 2.439 . S
O539 C533 1.208 . S
O540 Cd541 2.223 1_556 S
O540 C548 1.315 . S
Cd541 O540 2.223 1_554 S
Cd541 O544 2.297 . S
Cd541 O545 2.439 . S
Cd541 O551 2.240 . S
Cd542 O543 2.240 . S
Cd542 O550 2.223 . S
Cd542 O552 2.297 1_556 S
Cd542 O553 2.439 1_556 S
O543 Cd542 2.240 . S
O543 C548 1.279 . S
O544 Cd541 2.297 . S
O544 C546 1.247 . S
O545 Cd541 2.439 . S
O545 C546 1.208 . S
C546 O544 1.247 . S
C546 O545 1.208 . S
C547 O552 1.247 . S
C547 O553 1.208 . S
C548 O540 1.315 . S
C548 O543 1.279 . S
C549 O550 1.315 . S
C549 O551 1.279 1_556 S
O550 Cd542 2.223 . S
O550 C549 1.315 . S
O551 Cd541 2.240 . S
O551 C549 1.279 1_554 S
O552 Cd542 2.297 1_554 S
O552 C547 1.247 . S
O553 Cd542 2.439 1_554 S
O553 C547 1.208 . S
O554 Cd555 2.223 . S
O554 C562 1.315 . S
Cd555 O554 2.223 . S
Cd555 O558 2.297 . S
Cd555 O559 2.439 . S
Cd555 O565 2.240 . S
Cd556 O557 2.240 . S
Cd556 O564 2.223 . S
Cd556 O566 2.297 . S
Cd556 O567 2.439 . S
O557 Cd556 2.240 . S
O557 C562 1.279 . S
O558 Cd555 2.297 . S
O558 C560 1.247 . S
O559 Cd555 2.439 . S
O559 C560 1.208 . S
C560 O558 1.247 . S
C560 O559 1.208 . S
C561 O566 1.247 . S
C561 O567 1.208 . S
C562 O554 1.315 . S
C562 O557 1.279 . S
C563 O564 1.315 . S
C563 O565 1.279 . S
O564 Cd556 2.223 . S
O564 C563 1.315 . S
O565 Cd555 2.240 . S
O565 C563 1.279 . S
O566 Cd556 2.297 . S
O566 C561 1.247 . S
O567 Cd556 2.439 . S
O567 C561 1.208 . S
O568 Cd569 2.223 . S
O568 C576 1.315 . S
Cd569 O568 2.223 . S
Cd569 O572 2.297 . S
Cd569 O573 2.439 . S
Cd569 O579 2.240 . S
Cd570 O571 2.240 . S
Cd570 O578 2.223 . S
Cd570 O580 2.297 . S
Cd570 O581 2.439 . S
O571 Cd570 2.240 . S
O571 C576 1.279 . S
O572 Cd569 2.297 . S
O572 C574 1.247 . S
O573 Cd569 2.439 . S
O573 C574 1.208 . S
C574 O572 1.247 . S
C574 O573 1.208 . S
C575 O580 1.247 . S
C575 O581 1.208 . S
C576 O568 1.315 . S
C576 O571 1.279 . S
C577 O578 1.315 . S
C577 O579 1.279 . S
O578 Cd570 2.223 . S
O578 C577 1.315 . S
O579 Cd569 2.240 . S
O579 C577 1.279 . S
O580 Cd570 2.297 . S
O580 C575 1.247 . S
O581 Cd570 2.439 . S
O581 C575 1.208 . S
O582 Cd583 2.223 . S
O582 C590 1.315 . S
Cd583 O582 2.223 . S
Cd583 O586 2.297 . S
Cd583 O587 2.439 . S
Cd583 O593 2.240 . S
Cd584 O585 2.240 . S
Cd584 O592 2.223 . S
Cd584 O594 2.297 . S
Cd584 O595 2.439 . S
O585 Cd584 2.240 . S
O585 C590 1.279 . S
O586 Cd583 2.297 . S
O586 C588 1.247 . S
O587 Cd583 2.439 . S
O587 C588 1.208 . S
C588 O586 1.247 . S
C588 O587 1.208 . S
C589 O594 1.247 . S
C589 O595 1.208 . S
C590 O582 1.315 . S
C590 O585 1.279 . S
C591 O592 1.315 . S
C591 O593 1.279 . S
O592 Cd584 2.223 . S
O592 C591 1.315 . S
O593 Cd583 2.240 . S
O593 C591 1.279 . S
O594 Cd584 2.297 . S
O594 C589 1.247 . S
O595 Cd584 2.439 . S
O595 C589 1.208 . S
O596 Cd597 2.223 . S
O596 C604 1.315 . S
Cd597 O596 2.223 . S
Cd597 O600 2.297 . S
Cd597 O601 2.439 . S
Cd597 O607 2.240 . S
Cd598 O599 2.240 . S
Cd598 O606 2.223 . S
Cd598 O608 2.297 . S
Cd598 O609 2.439 . S
O599 Cd598 2.240 . S
O599 C604 1.279 . S
O600 Cd597 2.297 . S
O600 C602 1.247 . S
O601 Cd597 2.439 . S
O601 C602 1.208 . S
C602 O600 1.247 . S
C602 O601 1.208 . S
C603 O608 1.247 . S
C603 O609 1.208 . S
C604 O596 1.315 . S
C604 O599 1.279 . S
C605 O606 1.315 . S
C605 O607 1.279 . S
O606 Cd598 2.223 . S
O606 C605 1.315 . S
O607 Cd597 2.240 . S
O607 C605 1.279 . S
O608 Cd598 2.297 . S
O608 C603 1.247 . S
O609 Cd598 2.439 . S
O609 C603 1.208 . S
O610 Cd611 2.223 1_545 S
O610 C618 1.315 . S
Cd611 O610 2.223 1_565 S
Cd611 O614 2.297 . S
Cd611 O615 2.439 . S
Cd611 O621 2.240 1_565 S
Cd612 O613 2.240 . S
Cd612 O620 2.223 . S
Cd612 O622 2.297 . S
Cd612 O623 2.439 1_545 S
O613 Cd612 2.240 . S
O613 C618 1.279 . S
O614 Cd611 2.297 . S
O614 C616 1.247 . S
O615 Cd611 2.439 . S
O615 C616 1.208 . S
C616 O614 1.247 . S
C616 O615 1.208 . S
C617 O622 1.247 1_565 S
C617 O623 1.208 . S
C618 O610 1.315 . S
C618 O613 1.279 . S
C619 O620 1.315 . S
C619 O621 1.279 . S
O620 Cd612 2.223 . S
O620 C619 1.315 . S
O621 Cd611 2.240 1_545 S
O621 C619 1.279 . S
O622 Cd612 2.297 . S
O622 C617 1.247 1_545 S
O623 Cd612 2.439 1_565 S
O623 C617 1.208 . S
O624 Cd625 2.223 . S
O624 C632 1.315 . S
Cd625 O624 2.223 . S
Cd625 O628 2.297 1_655 S
Cd625 O629 2.439 1_655 S
Cd625 O635 2.240 . S
Cd626 O627 2.240 . S
Cd626 O634 2.223 1_455 S
Cd626 O636 2.297 . S
Cd626 O637 2.439 . S
O627 Cd626 2.240 . S
O627 C632 1.279 1_455 S
O628 Cd625 2.297 1_455 S
O628 C630 1.247 . S
O629 Cd625 2.439 1_455 S
O629 C630 1.208 . S
C630 O628 1.247 . S
C630 O629 1.208 . S
C631 O636 1.247 . S
C631 O637 1.208 . S
C632 O624 1.315 . S
C632 O627 1.279 1_655 S
C633 O634 1.315 . S
C633 O635 1.279 . S
O634 Cd626 2.223 1_655 S
O634 C633 1.315 . S
O635 Cd625 2.240 . S
O635 C633 1.279 . S
O636 Cd626 2.297 . S
O636 C631 1.247 . S
O637 Cd626 2.439 . S
O637 C631 1.208 . S
O638 Cd639 2.223 . S
O638 C646 1.315 . S
Cd639 O638 2.223 . S
Cd639 O642 2.297 . S
Cd639 O643 2.439 . S
Cd639 O649 2.240 . S
Cd640 O641 2.240 . S
Cd640 O648 2.223 . S
Cd640 O650 2.297 . S
Cd640 O651 2.439 . S
O641 Cd640 2.240 . S
O641 C646 1.279 . S
O642 Cd639 2.297 . S
O642 C644 1.247 . S
O643 Cd639 2.439 . S
O643 C644 1.208 . S
C644 O642 1.247 . S
C644 O643 1.208 . S
C645 O650 1.247 . S
C645 O651 1.208 . S
C646 O638 1.315 . S
C646 O641 1.279 . S
C647 O648 1.315 . S
C647 O649 1.279 . S
O648 Cd640 2.223 . S
O648 C647 1.315 . S
O649 Cd639 2.240 . S
O649 C647 1.279 . S
O650 Cd640 2.297 . S
O650 C645 1.247 . S
O651 Cd640 2.439 . S
O651 C645 1.208 . S
O652 Cd653 2.223 1_655 S
O652 C660 1.315 . S
Cd653 O652 2.223 1_455 S
Cd653 O656 2.297 . S
Cd653 O657 2.439 . S
Cd653 O663 2.240 . S
Cd654 O655 2.240 . S
Cd654 O662 2.223 . S
Cd654 O664 2.297 1_655 S
Cd654 O665 2.439 1_655 S
O655 Cd654 2.240 . S
O655 C660 1.279 . S
O656 Cd653 2.297 . S
O656 C658 1.247 . S
O657 Cd653 2.439 . S
O657 C658 1.208 . S
C658 O656 1.247 . S
C658 O657 1.208 . S
C659 O664 1.247 . S
C659 O665 1.208 . S
C660 O652 1.315 . S
C660 O655 1.279 . S
C661 O662 1.315 . S
C661 O663 1.279 1_655 S
O662 Cd654 2.223 . S
O662 C661 1.315 . S
O663 Cd653 2.240 . S
O663 C661 1.279 1_455 S
O664 Cd654 2.297 1_455 S
O664 C659 1.247 . S
O665 Cd654 2.439 1_455 S
O665 C659 1.208 . S
O666 Cd667 2.223 . S
O666 C674 1.315 . S
Cd667 O666 2.223 . S
Cd667 O670 2.297 . S
Cd667 O671 2.439 . S
Cd667 O677 2.240 . S
Cd668 O669 2.240 . S
Cd668 O676 2.223 . S
Cd668 O678 2.297 . S
Cd668 O679 2.439 . S
O669 Cd668 2.240 . S
O669 C674 1.279 . S
O670 Cd667 2.297 . S
O670 C672 1.247 . S
O671 Cd667 2.439 . S
O671 C672 1.208 . S
C672 O670 1.247 . S
C672 O671 1.208 . S
C673 O678 1.247 . S
C673 O679 1.208 . S
C674 O666 1.315 . S
C674 O669 1.279 . S
C675 O676 1.315 . S
C675 O677 1.279 . S
O676 Cd668 2.223 . S
O676 C675 1.315 . S
O677 Cd667 2.240 . S
O677 C675 1.279 . S
O678 Cd668 2.297 . S
O678 C673 1.247 . S
O679 Cd668 2.439 . S
O679 C673 1.208 . S
C680 C681 1.349 . S
C680 C682 1.327 . S
C680 H705 0.950 . S
C681 C680 1.349 . S
C681 C697 1.349 . S
C682 C680 1.327 . S
C682 C701 1.429 . S
C682 H706 0.950 . S
C683 C700 1.574 . S
C683 C702 1.368 . S
C683 H707 0.949 . S
H684 C688 0.949 . S
C685 C686 1.349 1_556 S
C685 C687 1.327 . S
C685 H708 0.950 . S
C686 C685 1.349 1_554 S
C686 C698 1.349 1_554 S
C687 C685 1.327 . S
C687 C703 1.429 . S
C687 H709 0.950 . S
C688 H684 0.949 . S
C688 C696 1.574 . S
C688 C704 1.368 . S
H689 C697 0.950 . S
H690 C695 0.950 . S
H691 C696 0.949 . S
H692 C698 0.950 1_554 S
H693 C699 0.950 . S
H694 C700 0.949 . S
C695 H690 0.950 . S
C695 C697 1.327 . S
C695 C701 1.429 . S
C696 C688 1.574 . S
C696 H691 0.949 . S
C696 C702 1.368 . S
C697 C681 1.349 . S
C697 H689 0.950 . S
C697 C695 1.327 . S
C698 C686 1.349 1_556 S
C698 H692 0.950 1_556 S
C698 C699 1.327 . S
C699 H693 0.950 . S
C699 C698 1.327 . S
C699 C703 1.429 . S
C700 C683 1.574 . S
C700 H694 0.949 . S
C700 C704 1.368 . S
C701 C682 1.429 . S
C701 C695 1.429 . S
C701 C702 1.523 . S
C702 C683 1.368 . S
C702 C696 1.368 . S
C702 C701 1.523 . S
C703 C687 1.429 . S
C703 C699 1.429 . S
C703 C704 1.523 . S
C704 C688 1.368 . S
C704 C700 1.368 . S
C704 C703 1.523 . S
H705 C680 0.950 . S
H706 C682 0.950 . S
H707 C683 0.949 . S
H708 C685 0.950 . S
H709 C687 0.950 . S
C710 C711 1.349 . S
C710 C712 1.327 . S
C710 H735 0.950 . S
C711 C710 1.349 . S
C711 C727 1.349 . S
C712 C710 1.327 . S
C712 C731 1.429 . S
C712 H736 0.950 . S
C713 C730 1.574 . S
C713 C732 1.368 . S
C713 H737 0.949 . S
H714 C718 0.949 . S
C715 C716 1.349 . S
C715 C717 1.327 . S
C715 H738 0.950 . S
C716 C715 1.349 . S
C716 C728 1.349 . S
C717 C715 1.327 . S
C717 C733 1.429 . S
C717 H739 0.950 . S
C718 H714 0.949 . S
C718 C726 1.574 . S
C718 C734 1.368 . S
H719 C727 0.950 . S
H720 C725 0.950 . S
H721 C726 0.949 . S
H722 C728 0.950 . S
H723 C729 0.950 . S
H724 C730 0.949 . S
C725 H720 0.950 . S
C725 C727 1.327 . S
C725 C731 1.429 . S
C726 C718 1.574 . S
C726 H721 0.949 . S
C726 C732 1.368 . S
C727 C711 1.349 . S
C727 H719 0.950 . S
C727 C725 1.327 . S
C728 C716 1.349 . S
C728 H722 0.950 . S
C728 C729 1.327 . S
C729 H723 0.950 . S
C729 C728 1.327 . S
C729 C733 1.429 . S
C730 C713 1.574 . S
C730 H724 0.949 . S
C730 C734 1.368 . S
C731 C712 1.429 . S
C731 C725 1.429 . S
C731 C732 1.523 1_655 S
C732 C713 1.368 . S
C732 C726 1.368 . S
C732 C731 1.523 1_455 S
C733 C717 1.429 . S
C733 C729 1.429 . S
C733 C734 1.523 . S
C734 C718 1.368 . S
C734 C730 1.368 . S
C734 C733 1.523 . S
H735 C710 0.950 . S
H736 C712 0.950 . S
H737 C713 0.949 . S
H738 C715 0.950 . S
H739 C717 0.950 . S
C740 C741 1.349 . S
C740 C742 1.327 . S
C740 H765 0.950 . S
C741 C740 1.349 . S
C741 C757 1.349 . S
C742 C740 1.327 . S
C742 C761 1.429 . S
C742 H766 0.950 . S
C743 C760 1.574 . S
C743 C762 1.368 . S
C743 H767 0.949 . S
H744 C748 0.949 . S
C745 C746 1.349 . S
C745 C747 1.327 . S
C745 H768 0.950 . S
C746 C745 1.349 . S
C746 C758 1.349 . S
C747 C745 1.327 . S
C747 C763 1.429 . S
C747 H769 0.950 . S
C748 H744 0.949 . S
C748 C756 1.574 . S
C748 C764 1.368 . S
H749 C757 0.950 . S
H750 C755 0.950 . S
H751 C756 0.949 . S
H752 C758 0.950 . S
H753 C759 0.950 . S
H754 C760 0.949 . S
C755 H750 0.950 . S
C755 C757 1.327 . S
C755 C761 1.429 . S
C756 C748 1.574 . S
C756 H751 0.949 . S
C756 C762 1.368 . S
C757 C741 1.349 . S
C757 H749 0.950 . S
C757 C755 1.327 . S
C758 C746 1.349 . S
C758 H752 0.950 . S
C758 C759 1.327 . S
C759 H753 0.950 . S
C759 C758 1.327 . S
C759 C763 1.429 . S
C760 C743 1.574 . S
C760 H754 0.949 . S
C760 C764 1.368 . S
C761 C742 1.429 . S
C761 C755 1.429 . S
C761 C762 1.523 . S
C762 C743 1.368 . S
C762 C756 1.368 . S
C762 C761 1.523 . S
C763 C747 1.429 . S
C763 C759 1.429 . S
C763 C764 1.523 . S
C764 C748 1.368 . S
C764 C760 1.368 . S
C764 C763 1.523 . S
H765 C740 0.950 . S
H766 C742 0.950 . S
H767 C743 0.949 . S
H768 C745 0.950 . S
H769 C747 0.950 . S
C770 C771 1.349 . S
C770 C772 1.327 . S
C770 H795 0.950 . S
C771 C770 1.349 . S
C771 C787 1.349 . S
C772 C770 1.327 . S
C772 C791 1.429 . S
C772 H796 0.950 1_455 S
C773 C790 1.571 1_565 S
C773 C792 1.368 . S
C773 H797 0.922 1_655 S
H774 C778 0.949 . S
C775 C776 1.349 . S
C775 C777 1.327 . S
C775 H798 0.950 . S
C776 C775 1.349 . S
C776 C788 1.349 . S
C777 C775 1.327 . S
C777 C793 1.429 . S
C777 H799 0.950 . S
C778 H774 0.949 . S
C778 C786 1.574 1_545 S
C778 C794 1.368 . S
H779 C787 0.950 . S
H780 C785 0.950 . S
H781 C786 0.949 . S
H782 C788 0.950 . S
H783 C789 0.950 . S
H784 C790 0.950 . S
C785 H780 0.950 . S
C785 C787 1.327 . S
C785 C791 1.429 . S
C786 C778 1.574 1_565 S
C786 H781 0.949 . S
C786 C792 1.368 . S
C787 C771 1.349 . S
C787 H779 0.950 . S
C787 C785 1.327 . S
C788 C776 1.349 . S
C788 H782 0.950 . S
C788 C789 1.327 . S
C789 H783 0.950 . S
C789 C788 1.327 . S
C789 C793 1.429 . S
C790 C773 1.571 1_545 S
C790 H784 0.950 . S
C790 C794 1.370 . S
C791 C772 1.429 . S
C791 C785 1.429 . S
C791 C792 1.523 1_455 S
C792 C773 1.368 . S
C792 C786 1.368 . S
C792 C791 1.523 1_655 S
C793 C777 1.429 . S
C793 C789 1.429 . S
C793 C794 1.523 . S
C794 C778 1.368 . S
C794 C790 1.370 . S
C794 C793 1.523 . S
H795 C770 0.950 . S
H796 C772 0.950 1_655 S
H797 C773 0.922 1_455 S
H798 C775 0.950 . S
H799 C777 0.950 . S
C800 C801 1.349 . S
C800 C802 1.327 . S
C800 H825 0.950 . S
C801 C800 1.349 . S
C801 C817 1.349 . S
C802 C800 1.327 . S
C802 C821 1.429 . S
C802 H826 0.950 . S
C803 C820 1.574 . S
C803 C822 1.368 . S
C803 H827 0.949 . S
H804 C808 0.949 . S
C805 C806 1.349 . S
C805 C807 1.327 . S
C805 H828 0.950 . S
C806 C805 1.349 . S
C806 C818 1.349 . S
C807 C805 1.327 . S
C807 C823 1.429 . S
C807 H829 0.950 . S
C808 H804 0.949 . S
C808 C816 1.574 . S
C808 C824 1.368 . S
H809 C817 0.950 . S
H810 C815 0.950 . S
H811 C816 0.949 . S
H812 C818 0.950 . S
H813 C819 0.950 . S
H814 C820 0.949 . S
C815 H810 0.950 . S
C815 C817 1.327 . S
C815 C821 1.429 . S
C816 C808 1.574 . S
C816 H811 0.949 . S
C816 C822 1.368 . S
C817 C801 1.349 . S
C817 H809 0.950 . S
C817 C815 1.327 . S
C818 C806 1.349 . S
C818 H812 0.950 . S
C818 C819 1.327 . S
C819 H813 0.950 . S
C819 C818 1.327 . S
C819 C823 1.429 . S
C820 C803 1.574 . S
C820 H814 0.949 . S
C820 C824 1.368 . S
C821 C802 1.429 . S
C821 C815 1.429 . S
C821 C822 1.523 . S
C822 C803 1.368 . S
C822 C816 1.368 . S
C822 C821 1.523 . S
C823 C807 1.429 . S
C823 C819 1.429 . S
C823 C824 1.523 . S
C824 C808 1.368 . S
C824 C820 1.368 . S
C824 C823 1.523 . S
H825 C800 0.950 . S
H826 C802 0.950 . S
H827 C803 0.949 . S
H828 C805 0.950 . S
H829 C807 0.950 . S
C830 C831 1.349 . S
C830 C832 1.327 . S
C830 H855 0.950 . S
C831 C830 1.349 . S
C831 C847 1.349 . S
C832 C830 1.327 . S
C832 C851 1.429 . S
C832 H856 0.950 . S
C833 C850 1.574 . S
C833 C852 1.368 . S
C833 H857 0.949 . S
H834 C838 0.949 . S
C835 C836 1.349 . S
C835 C837 1.327 . S
C835 H858 0.950 . S
C836 C835 1.349 . S
C836 C848 1.349 . S
C837 C835 1.327 . S
C837 C853 1.429 . S
C837 H859 0.950 . S
C838 H834 0.949 . S
C838 C846 1.574 . S
C838 C854 1.368 . S
H839 C847 0.950 . S
H840 C845 0.950 . S
H841 C846 0.949 . S
H842 C848 0.950 . S
H843 C849 0.950 . S
H844 C850 0.949 . S
C845 H840 0.950 . S
C845 C847 1.327 . S
C845 C851 1.429 . S
C846 C838 1.574 . S
C846 H841 0.949 . S
C846 C852 1.368 . S
C847 C831 1.349 . S
C847 H839 0.950 . S
C847 C845 1.327 . S
C848 C836 1.349 . S
C848 H842 0.950 . S
C848 C849 1.327 . S
C849 H843 0.950 . S
C849 C848 1.327 . S
C849 C853 1.429 . S
C850 C833 1.574 . S
C850 H844 0.949 . S
C850 C854 1.368 . S
C851 C832 1.429 . S
C851 C845 1.429 . S
C851 C852 1.523 . S
C852 C833 1.368 . S
C852 C846 1.368 . S
C852 C851 1.523 . S
C853 C837 1.429 . S
C853 C849 1.429 . S
C853 C854 1.523 . S
C854 C838 1.368 . S
C854 C850 1.368 . S
C854 C853 1.523 . S
H855 C830 0.950 . S
H856 C832 0.950 . S
H857 C833 0.949 . S
H858 C835 0.950 . S
H859 C837 0.950 . S
C860 C861 1.349 . S
C860 C862 1.327 . S
C860 H885 0.950 . S
C861 C860 1.349 . S
C861 C877 1.349 . S
C862 C860 1.327 . S
C862 C881 1.429 . S
C862 H886 0.950 . S
C863 C880 1.574 . S
C863 C882 1.368 . S
C863 H887 0.949 . S
H864 C868 0.949 . S
C865 C866 1.349 . S
C865 C867 1.327 . S
C865 H888 0.950 . S
C866 C865 1.349 . S
C866 C878 1.349 . S
C867 C865 1.327 . S
C867 C883 1.429 . S
C867 H889 0.950 . S
C868 H864 0.949 . S
C868 C876 1.574 . S
C868 C884 1.368 . S
H869 C877 0.950 . S
H870 C875 0.950 . S
H871 C876 0.949 . S
H872 C878 0.950 . S
H873 C879 0.950 . S
H874 C880 0.949 . S
C875 H870 0.950 . S
C875 C877 1.327 . S
C875 C881 1.429 . S
C876 C868 1.574 . S
C876 H871 0.949 . S
C876 C882 1.368 . S
C877 C861 1.349 . S
C877 H869 0.950 . S
C877 C875 1.327 . S
C878 C866 1.349 . S
C878 H872 0.950 . S
C878 C879 1.327 . S
C879 H873 0.950 . S
C879 C878 1.327 . S
C879 C883 1.429 . S
C880 C863 1.574 . S
C880 H874 0.949 . S
C880 C884 1.368 . S
C881 C862 1.429 . S
C881 C875 1.429 . S
C881 C882 1.523 . S
C882 C863 1.368 . S
C882 C876 1.368 . S
C882 C881 1.523 . S
C883 C867 1.429 . S
C883 C879 1.429 . S
C883 C884 1.523 . S
C884 C868 1.368 . S
C884 C880 1.368 . S
C884 C883 1.523 . S
H885 C860 0.950 . S
H886 C862 0.950 . S
H887 C863 0.949 . S
H888 C865 0.950 . S
H889 C867 0.950 . S
C890 C891 1.349 . S
C890 C892 1.327 . S
C890 H915 0.950 . S
C891 C890 1.349 . S
C891 C907 1.349 . S
C892 C890 1.327 . S
C892 C911 1.429 . S
C892 H916 0.950 . S
C893 C910 1.574 . S
C893 C912 1.368 . S
C893 H917 0.949 . S
H894 C898 0.949 . S
C895 C896 1.349 . S
C895 C897 1.327 . S
C895 H918 0.962 . S
C896 C895 1.349 . S
C896 C908 1.349 . S
C897 C895 1.327 . S
C897 C913 1.429 . S
C897 H919 0.950 . S
C898 H894 0.949 . S
C898 C906 1.574 . S
C898 C914 1.368 . S
H899 C907 0.950 . S
H900 C905 0.950 . S
H901 C906 0.949 . S
H902 C908 0.950 . S
H903 C909 0.950 . S
H904 C910 0.949 . S
C905 H900 0.950 . S
C905 C907 1.327 . S
C905 C911 1.429 . S
C906 C898 1.574 . S
C906 H901 0.949 . S
C906 C912 1.368 . S
C907 C891 1.349 . S
C907 H899 0.950 . S
C907 C905 1.327 . S
C908 C896 1.349 . S
C908 H902 0.950 . S
C908 C909 1.327 . S
C909 H903 0.950 . S
C909 C908 1.327 . S
C909 C913 1.429 . S
C910 C893 1.574 . S
C910 H904 0.949 . S
C910 C914 1.368 . S
C911 C892 1.429 . S
C911 C905 1.429 . S
C911 C912 1.523 . S
C912 C893 1.368 . S
C912 C906 1.368 . S
C912 C911 1.523 . S
C913 C897 1.429 . S
C913 C909 1.429 . S
C913 C914 1.523 . S
C914 C898 1.368 . S
C914 C910 1.368 . S
C914 C913 1.523 . S
H915 C890 0.950 . S
H916 C892 0.950 . S
H917 C893 0.949 . S
H918 C895 0.962 . S
H919 C897 0.950 . S
C920 C921 1.349 . S
C920 C922 1.327 . S
C920 H945 0.950 . S
C921 C920 1.349 . S
C921 C937 1.349 . S
C922 C920 1.327 . S
C922 C941 1.429 . S
C922 H946 0.950 . S
C923 C940 1.574 . S
C923 C942 1.368 . S
C923 H947 0.949 . S
H924 C928 0.949 . S
C925 C926 1.349 . S
C925 C927 1.327 . S
C925 H948 0.950 . S
C926 C925 1.349 . S
C926 C938 1.349 . S
C927 C925 1.327 . S
C927 C943 1.429 . S
C927 H949 0.950 . S
C928 H924 0.949 . S
C928 C936 1.574 . S
C928 C944 1.368 . S
H929 C937 0.950 . S
H930 C935 0.950 . S
H931 C936 0.949 . S
H932 C938 0.950 . S
H933 C939 0.950 . S
H934 C940 0.949 . S
C935 H930 0.950 . S
C935 C937 1.327 . S
C935 C941 1.429 . S
C936 C928 1.574 . S
C936 H931 0.949 . S
C936 C942 1.368 . S
C937 C921 1.349 . S
C937 H929 0.950 . S
C937 C935 1.327 . S
C938 C926 1.349 . S
C938 H932 0.950 . S
C938 C939 1.327 . S
C939 H933 0.950 . S
C939 C938 1.327 . S
C939 C943 1.429 . S
C940 C923 1.574 . S
C940 H934 0.949 . S
C940 C944 1.368 . S
C941 C922 1.429 . S
C941 C935 1.429 . S
C941 C942 1.523 . S
C942 C923 1.368 . S
C942 C936 1.368 . S
C942 C941 1.523 . S
C943 C927 1.429 . S
C943 C939 1.429 . S
C943 C944 1.523 . S
C944 C928 1.368 . S
C944 C940 1.368 . S
C944 C943 1.523 . S
H945 C920 0.950 . S
H946 C922 0.950 . S
H947 C923 0.949 . S
H948 C925 0.950 . S
H949 C927 0.950 . S
C950 C951 1.349 . S
C950 C952 1.327 . S
C950 H975 0.950 . S
C951 C950 1.349 . S
C951 C967 1.349 . S
C952 C950 1.327 . S
C952 C971 1.429 . S
C952 H976 0.950 . S
C953 C970 1.574 . S
C953 C972 1.368 . S
C953 H977 0.949 . S
H954 C958 0.949 . S
C955 C956 1.349 . S
C955 C957 1.327 . S
C955 H978 0.950 . S
C956 C955 1.349 . S
C956 C968 1.349 . S
C957 C955 1.327 . S
C957 C973 1.429 . S
C957 H979 0.950 . S
C958 H954 0.949 . S
C958 C966 1.574 . S
C958 C974 1.368 . S
H959 C967 0.950 . S
H960 C965 0.950 . S
H961 C966 0.949 . S
H962 C968 0.950 . S
H963 C969 0.950 . S
H964 C970 0.949 . S
C965 H960 0.950 . S
C965 C967 1.327 . S
C965 C971 1.429 . S
C966 C958 1.574 . S
C966 H961 0.949 . S
C966 C972 1.368 . S
C967 C951 1.349 . S
C967 H959 0.950 . S
C967 C965 1.327 . S
C968 C956 1.349 . S
C968 H962 0.950 . S
C968 C969 1.327 . S
C969 H963 0.950 . S
C969 C968 1.327 . S
C969 C973 1.429 . S
C970 C953 1.574 . S
C970 H964 0.949 . S
C970 C974 1.368 . S
C971 C952 1.429 . S
C971 C965 1.429 . S
C971 C972 1.523 . S
C972 C953 1.368 . S
C972 C966 1.368 . S
C972 C971 1.523 . S
C973 C957 1.429 . S
C973 C969 1.429 . S
C973 C974 1.523 . S
C974 C958 1.368 . S
C974 C970 1.368 . S
C974 C973 1.523 . S
H975 C950 0.950 . S
H976 C952 0.950 . S
H977 C953 0.949 . S
H978 C955 0.950 . S
H979 C957 0.950 . S
C980 C981 1.349 . S
C980 C982 1.327 . S
C980 H1005 0.950 . S
C981 C980 1.349 . S
C981 C997 1.349 . S
C982 C980 1.327 . S
C982 C1001 1.429 . S
C982 H1006 0.950 . S
C983 C1000 1.574 . S
C983 C1002 1.368 . S
C983 H1007 0.949 . S
H984 C988 0.949 . S
C985 C986 1.349 . S
C985 C987 1.327 . S
C985 H1008 0.950 . S
C986 C985 1.349 . S
C986 C998 1.349 . S
C987 C985 1.327 . S
C987 C1003 1.429 . S
C987 H1009 0.950 . S
C988 H984 0.949 . S
C988 C996 1.574 . S
C988 C1004 1.368 . S
H989 C997 0.950 . S
H990 C995 0.950 . S
H991 C996 0.949 . S
H992 C998 0.950 . S
H993 C999 0.950 . S
H994 C1000 0.949 . S
C995 H990 0.950 . S
C995 C997 1.327 . S
C995 C1001 1.429 . S
C996 C988 1.574 . S
C996 H991 0.949 . S
C996 C1002 1.368 . S
C997 C981 1.349 . S
C997 H989 0.950 . S
C997 C995 1.327 . S
C998 C986 1.349 . S
C998 H992 0.950 . S
C998 C999 1.327 . S
C999 H993 0.950 . S
C999 C998 1.327 . S
C999 C1003 1.429 . S
C1000 C983 1.574 . S
C1000 H994 0.949 . S
C1000 C1004 1.368 . S
C1001 C982 1.429 . S
C1001 C995 1.429 . S
C1001 C1002 1.523 . S
C1002 C983 1.368 . S
C1002 C996 1.368 . S
C1002 C1001 1.523 . S
C1003 C987 1.429 . S
C1003 C999 1.429 . S
C1003 C1004 1.523 . S
C1004 C988 1.368 . S
C1004 C1000 1.368 . S
C1004 C1003 1.523 . S
H1005 C980 0.950 . S
H1006 C982 0.950 . S
H1007 C983 0.949 . S
H1008 C985 0.950 . S
H1009 C987 0.950 . S
C1010 C1011 1.349 . S
C1010 C1012 1.327 . S
C1010 H1035 0.950 . S
C1011 C1010 1.349 . S
C1011 C1027 1.349 . S
C1012 C1010 1.327 . S
C1012 C1031 1.429 . S
C1012 H1036 0.950 . S
C1013 C1030 1.574 . S
C1013 C1032 1.368 . S
C1013 H1037 0.949 . S
H1014 C1018 0.949 . S
C1015 C1016 1.349 . S
C1015 C1017 1.327 . S
C1015 H1038 0.950 . S
C1016 C1015 1.349 . S
C1016 C1028 1.349 . S
C1017 C1015 1.327 . S
C1017 C1033 1.429 . S
C1017 H1039 0.950 . S
C1018 H1014 0.949 . S
C1018 C1026 1.574 . S
C1018 C1034 1.368 . S
H1019 C1027 0.950 . S
H1020 C1025 0.950 . S
H1021 C1026 0.949 . S
H1022 C1028 0.950 . S
H1023 C1029 0.950 . S
H1024 C1030 0.949 . S
C1025 H1020 0.950 . S
C1025 C1027 1.327 . S
C1025 C1031 1.429 . S
C1026 C1018 1.574 . S
C1026 H1021 0.949 . S
C1026 C1032 1.368 . S
C1027 C1011 1.349 . S
C1027 H1019 0.950 . S
C1027 C1025 1.327 . S
C1028 C1016 1.349 . S
C1028 H1022 0.950 . S
C1028 C1029 1.327 . S
C1029 H1023 0.950 . S
C1029 C1028 1.327 . S
C1029 C1033 1.429 . S
C1030 C1013 1.574 . S
C1030 H1024 0.949 . S
C1030 C1034 1.368 . S
C1031 C1012 1.429 . S
C1031 C1025 1.429 . S
C1031 C1032 1.523 . S
C1032 C1013 1.368 . S
C1032 C1026 1.368 . S
C1032 C1031 1.523 . S
C1033 C1017 1.429 . S
C1033 C1029 1.429 . S
C1033 C1034 1.523 . S
C1034 C1018 1.368 . S
C1034 C1030 1.368 . S
C1034 C1033 1.523 . S
H1035 C1010 0.950 . S
H1036 C1012 0.950 . S
H1037 C1013 0.949 . S
H1038 C1015 0.950 . S
H1039 C1017 0.950 . S
C1040 C1041 1.349 . S
C1040 C1042 1.327 . S
C1040 H1065 0.950 . S
C1041 C1040 1.349 . S
C1041 C1057 1.349 . S
C1042 C1040 1.327 . S
C1042 C1061 1.429 . S
C1042 H1066 0.950 . S
C1043 C1060 1.574 . S
C1043 C1062 1.368 . S
C1043 H1067 0.949 . S
H1044 C1048 0.949 . S
C1045 C1046 1.349 . S
C1045 C1047 1.327 . S
C1045 H1068 0.950 . S
C1046 C1045 1.349 . S
C1046 C1058 1.349 . S
C1047 C1045 1.327 . S
C1047 C1063 1.429 . S
C1047 H1069 0.950 . S
C1048 H1044 0.949 . S
C1048 C1056 1.574 . S
C1048 C1064 1.368 . S
H1049 C1057 0.950 . S
H1050 C1055 0.950 . S
H1051 C1056 0.949 . S
H1052 C1058 0.950 . S
H1053 C1059 0.950 . S
H1054 C1060 0.949 . S
C1055 H1050 0.950 . S
C1055 C1057 1.327 . S
C1055 C1061 1.429 . S
C1056 C1048 1.574 . S
C1056 H1051 0.949 . S
C1056 C1062 1.368 . S
C1057 C1041 1.349 . S
C1057 H1049 0.950 . S
C1057 C1055 1.327 . S
C1058 C1046 1.349 . S
C1058 H1052 0.950 . S
C1058 C1059 1.327 . S
C1059 H1053 0.950 . S
C1059 C1058 1.327 . S
C1059 C1063 1.429 . S
C1060 C1043 1.574 . S
C1060 H1054 0.949 . S
C1060 C1064 1.368 . S
C1061 C1042 1.429 . S
C1061 C1055 1.429 . S
C1061 C1062 1.523 . S
C1062 C1043 1.368 . S
C1062 C1056 1.368 . S
C1062 C1061 1.523 . S
C1063 C1047 1.429 . S
C1063 C1059 1.429 . S
C1063 C1064 1.523 . S
C1064 C1048 1.368 . S
C1064 C1060 1.368 . S
C1064 C1063 1.523 . S
H1065 C1040 0.950 . S
H1066 C1042 0.950 . S
H1067 C1043 0.949 . S
H1068 C1045 0.950 . S
H1069 C1047 0.950 . S
C1070 C1071 1.349 . S
C1070 C1072 1.327 . S
C1070 H1095 0.950 . S
C1071 C1070 1.349 . S
C1071 C1087 1.349 . S
C1072 C1070 1.327 . S
C1072 C1091 1.429 . S
C1072 H1096 0.950 . S
C1073 C1090 1.574 . S
C1073 C1092 1.368 . S
C1073 H1097 0.949 . S
H1074 C1078 0.949 . S
C1075 C1076 1.349 . S
C1075 C1077 1.327 . S
C1075 H1098 0.950 . S
C1076 C1075 1.349 . S
C1076 C1088 1.349 . S
C1077 C1075 1.327 . S
C1077 C1093 1.429 . S
C1077 H1099 0.950 . S
C1078 H1074 0.949 . S
C1078 C1086 1.574 . S
C1078 C1094 1.368 . S
H1079 C1087 0.950 . S
H1080 C1085 0.950 . S
H1081 C1086 0.949 . S
H1082 C1088 0.950 . S
H1083 C1089 0.950 . S
H1084 C1090 0.949 . S
C1085 H1080 0.950 . S
C1085 C1087 1.327 . S
C1085 C1091 1.429 . S
C1086 C1078 1.574 . S
C1086 H1081 0.949 . S
C1086 C1092 1.368 . S
C1087 C1071 1.349 . S
C1087 H1079 0.950 . S
C1087 C1085 1.327 . S
C1088 C1076 1.349 . S
C1088 H1082 0.950 . S
C1088 C1089 1.327 . S
C1089 H1083 0.950 . S
C1089 C1088 1.327 . S
C1089 C1093 1.429 . S
C1090 C1073 1.574 . S
C1090 H1084 0.949 . S
C1090 C1094 1.368 . S
C1091 C1072 1.429 . S
C1091 C1085 1.429 . S
C1091 C1092 1.523 . S
C1092 C1073 1.368 . S
C1092 C1086 1.368 . S
C1092 C1091 1.523 . S
C1093 C1077 1.429 . S
C1093 C1089 1.429 . S
C1093 C1094 1.523 . S
C1094 C1078 1.368 . S
C1094 C1090 1.368 . S
C1094 C1093 1.523 . S
H1095 C1070 0.950 . S
H1096 C1072 0.950 . S
H1097 C1073 0.949 . S
H1098 C1075 0.950 . S
H1099 C1077 0.950 . S
C1100 C1101 1.349 . S
C1100 C1102 1.327 . S
C1100 H1125 0.950 . S
C1101 C1100 1.349 . S
C1101 C1117 1.349 . S
C1102 C1100 1.327 . S
C1102 C1121 1.429 . S
C1102 H1126 0.950 . S
C1103 C1120 1.574 . S
C1103 C1122 1.368 . S
C1103 H1127 0.949 . S
H1104 C1108 0.949 . S
C1105 C1106 1.349 . S
C1105 C1107 1.327 . S
C1105 H1128 0.950 . S
C1106 C1105 1.349 . S
C1106 C1118 1.349 . S
C1107 C1105 1.327 . S
C1107 C1123 1.429 . S
C1107 H1129 0.950 . S
C1108 H1104 0.949 . S
C1108 C1116 1.574 . S
C1108 C1124 1.368 . S
H1109 C1117 0.950 . S
H1110 C1115 0.950 . S
H1111 C1116 0.949 . S
H1112 C1118 0.950 . S
H1113 C1119 0.950 . S
H1114 C1120 0.949 . S
C1115 H1110 0.950 . S
C1115 C1117 1.327 . S
C1115 C1121 1.429 . S
C1116 C1108 1.574 . S
C1116 H1111 0.949 . S
C1116 C1122 1.368 . S
C1117 C1101 1.349 . S
C1117 H1109 0.950 . S
C1117 C1115 1.327 . S
C1118 C1106 1.349 . S
C1118 H1112 0.950 . S
C1118 C1119 1.327 . S
C1119 H1113 0.950 . S
C1119 C1118 1.327 . S
C1119 C1123 1.429 . S
C1120 C1103 1.574 . S
C1120 H1114 0.949 . S
C1120 C1124 1.368 . S
C1121 C1102 1.429 . S
C1121 C1115 1.429 . S
C1121 C1122 1.523 . S
C1122 C1103 1.368 . S
C1122 C1116 1.368 . S
C1122 C1121 1.523 . S
C1123 C1107 1.429 . S
C1123 C1119 1.429 . S
C1123 C1124 1.523 . S
C1124 C1108 1.368 . S
C1124 C1120 1.368 . S
C1124 C1123 1.523 . S
H1125 C1100 0.950 . S
H1126 C1102 0.950 . S
H1127 C1103 0.949 . S
H1128 C1105 0.950 . S
H1129 C1107 0.950 . S
C1130 C1131 1.349 . S
C1130 C1132 1.327 . S
C1130 H1155 0.950 . S
C1131 C1130 1.349 . S
C1131 C1147 1.349 . S
C1132 C1130 1.327 . S
C1132 C1151 1.429 . S
C1132 H1156 0.950 . S
C1133 C1150 1.574 . S
C1133 C1152 1.368 . S
C1133 H1157 0.949 . S
H1134 C1138 0.949 . S
C1135 C1136 1.349 . S
C1135 C1137 1.327 . S
C1135 H1158 0.950 . S
C1136 C1135 1.349 . S
C1136 C1148 1.349 . S
C1137 C1135 1.327 . S
C1137 C1153 1.429 . S
C1137 H1159 0.950 . S
C1138 H1134 0.949 . S
C1138 C1146 1.574 . S
C1138 C1154 1.368 . S
H1139 C1147 0.950 . S
H1140 C1145 0.950 . S
H1141 C1146 0.949 . S
H1142 C1148 0.950 1_455 S
H1143 C1149 0.950 . S
H1144 C1150 0.949 . S
C1145 H1140 0.950 . S
C1145 C1147 1.327 . S
C1145 C1151 1.429 . S
C1146 C1138 1.574 . S
C1146 H1141 0.949 . S
C1146 C1152 1.368 . S
C1147 C1131 1.349 . S
C1147 H1139 0.950 . S
C1147 C1145 1.327 . S
C1148 C1136 1.349 . S
C1148 H1142 0.950 1_655 S
C1148 C1149 1.327 . S
C1149 H1143 0.950 . S
C1149 C1148 1.327 . S
C1149 C1153 1.429 . S
C1150 C1133 1.574 . S
C1150 H1144 0.949 . S
C1150 C1154 1.368 . S
C1151 C1132 1.429 . S
C1151 C1145 1.429 . S
C1151 C1152 1.523 . S
C1152 C1133 1.368 . S
C1152 C1146 1.368 . S
C1152 C1151 1.523 . S
C1153 C1137 1.429 . S
C1153 C1149 1.429 . S
C1153 C1154 1.523 . S
C1154 C1138 1.368 . S
C1154 C1150 1.368 . S
C1154 C1153 1.523 . S
H1155 C1130 0.950 . S
H1156 C1132 0.950 . S
H1157 C1133 0.949 . S
H1158 C1135 0.950 . S
H1159 C1137 0.950 . S
C1160 C1161 1.349 . S
C1160 C1162 1.327 . S
C1160 H1185 0.950 . S
C1161 C1160 1.349 . S
C1161 C1177 1.349 . S
C1162 C1160 1.327 . S
C1162 C1181 1.429 . S
C1162 H1186 0.950 . S
C1163 C1180 1.574 . S
C1163 C1182 1.368 . S
C1163 H1187 0.949 . S
H1164 C1168 0.949 . S
C1165 C1166 1.349 1_565 S
C1165 C1167 1.327 . S
C1165 H1188 0.950 . S
C1166 C1165 1.349 1_545 S
C1166 C1178 1.349 . S
C1167 C1165 1.327 . S
C1167 C1183 1.429 . S
C1167 H1189 0.950 . S
C1168 H1164 0.949 . S
C1168 C1176 1.574 . S
C1168 C1184 1.368 . S
H1169 C1177 0.950 . S
H1170 C1175 0.950 . S
H1171 C1176 0.949 . S
H1172 C1178 0.950 . S
H1173 C1179 0.950 . S
H1174 C1180 0.949 . S
C1175 H1170 0.950 . S
C1175 C1177 1.327 . S
C1175 C1181 1.429 . S
C1176 C1168 1.574 . S
C1176 H1171 0.949 . S
C1176 C1182 1.368 . S
C1177 C1161 1.349 . S
C1177 H1169 0.950 . S
C1177 C1175 1.327 . S
C1178 C1166 1.349 . S
C1178 H1172 0.950 . S
C1178 C1179 1.327 1_545 S
C1179 H1173 0.950 . S
C1179 C1178 1.327 1_565 S
C1179 C1183 1.429 . S
C1180 C1163 1.574 . S
C1180 H1174 0.949 . S
C1180 C1184 1.368 . S
C1181 C1162 1.429 . S
C1181 C1175 1.429 . S
C1181 C1182 1.523 . S
C1182 C1163 1.368 . S
C1182 C1176 1.368 . S
C1182 C1181 1.523 . S
C1183 C1167 1.429 . S
C1183 C1179 1.429 . S
C1183 C1184 1.523 . S
C1184 C1168 1.368 . S
C1184 C1180 1.368 . S
C1184 C1183 1.523 . S
H1185 C1160 0.950 . S
H1186 C1162 0.950 . S
H1187 C1163 0.949 . S
H1188 C1165 0.950 . S
H1189 C1167 0.950 . S
C1190 C1191 1.349 . S
C1190 C1192 1.327 . S
C1190 H1215 0.950 . S
C1191 C1190 1.349 . S
C1191 C1207 1.349 . S
C1192 C1190 1.327 . S
C1192 C1211 1.429 . S
C1192 H1216 0.950 . S
C1193 C1210 1.574 . S
C1193 C1212 1.368 . S
C1193 H1217 0.949 . S
H1194 C1198 0.949 . S
C1195 C1196 1.349 . S
C1195 C1197 1.327 . S
C1195 H1218 0.950 . S
C1196 C1195 1.349 . S
C1196 C1208 1.349 . S
C1197 C1195 1.327 . S
C1197 C1213 1.429 . S
C1197 H1219 0.950 . S
C1198 H1194 0.949 . S
C1198 C1206 1.574 . S
C1198 C1214 1.368 . S
H1199 C1207 0.950 . S
H1200 C1205 0.950 . S
H1201 C1206 0.949 . S
H1202 C1208 0.950 . S
H1203 C1209 0.950 . S
H1204 C1210 0.949 . S
C1205 H1200 0.950 . S
C1205 C1207 1.327 . S
C1205 C1211 1.429 . S
C1206 C1198 1.574 . S
C1206 H1201 0.949 . S
C1206 C1212 1.368 . S
C1207 C1191 1.349 . S
C1207 H1199 0.950 . S
C1207 C1205 1.327 . S
C1208 C1196 1.349 . S
C1208 H1202 0.950 . S
C1208 C1209 1.327 . S
C1209 H1203 0.950 . S
C1209 C1208 1.327 . S
C1209 C1213 1.429 . S
C1210 C1193 1.574 . S
C1210 H1204 0.949 . S
C1210 C1214 1.368 . S
C1211 C1192 1.429 . S
C1211 C1205 1.429 . S
C1211 C1212 1.523 . S
C1212 C1193 1.368 . S
C1212 C1206 1.368 . S
C1212 C1211 1.523 . S
C1213 C1197 1.429 . S
C1213 C1209 1.429 . S
C1213 C1214 1.523 . S
C1214 C1198 1.368 . S
C1214 C1210 1.368 . S
C1214 C1213 1.523 . S
H1215 C1190 0.950 . S
H1216 C1192 0.950 . S
H1217 C1193 0.949 . S
H1218 C1195 0.950 . S
H1219 C1197 0.950 . S
C1220 C1221 1.349 . S
C1220 C1222 1.327 . S
C1220 H1245 0.950 . S
C1221 C1220 1.349 . S
C1221 C1237 1.349 . S
C1222 C1220 1.327 . S
C1222 C1241 1.429 . S
C1222 H1246 0.950 . S
C1223 C1240 1.574 . S
C1223 C1242 1.368 . S
C1223 H1247 0.949 . S
H1224 C1228 0.949 . S
C1225 C1226 1.349 . S
C1225 C1227 1.327 . S
C1225 H1248 0.950 . S
C1226 C1225 1.349 . S
C1226 C1238 1.349 . S
C1227 C1225 1.327 . S
C1227 C1243 1.429 . S
C1227 H1249 0.950 . S
C1228 H1224 0.949 . S
C1228 C1236 1.574 . S
C1228 C1244 1.368 . S
H1229 C1237 0.950 . S
H1230 C1235 0.950 . S
H1231 C1236 0.949 . S
H1232 C1238 0.950 . S
H1233 C1239 0.950 1_556 S
H1234 C1240 0.949 1_554 S
C1235 H1230 0.950 . S
C1235 C1237 1.327 . S
C1235 C1241 1.429 . S
C1236 C1228 1.574 . S
C1236 H1231 0.949 . S
C1236 C1242 1.368 1_565 S
C1237 C1221 1.349 . S
C1237 H1229 0.950 . S
C1237 C1235 1.327 . S
C1238 C1226 1.349 . S
C1238 H1232 0.950 . S
C1238 C1239 1.327 . S
C1239 H1233 0.950 1_554 S
C1239 C1238 1.327 . S
C1239 C1243 1.429 . S
C1240 C1223 1.574 . S
C1240 H1234 0.949 1_556 S
C1240 C1244 1.368 1_545 S
C1241 C1222 1.429 . S
C1241 C1235 1.429 . S
C1241 C1242 1.523 . S
C1242 C1223 1.368 . S
C1242 C1236 1.368 1_545 S
C1242 C1241 1.523 . S
C1243 C1227 1.429 . S
C1243 C1239 1.429 . S
C1243 C1244 1.523 1_554 S
C1244 C1228 1.368 . S
C1244 C1240 1.368 1_565 S
C1244 C1243 1.523 1_556 S
H1245 C1220 0.950 . S
H1246 C1222 0.950 . S
H1247 C1223 0.949 . S
H1248 C1225 0.950 . S
H1249 C1227 0.950 . S
C1250 C1251 1.349 . S
C1250 C1252 1.327 . S
C1250 H1275 0.950 . S
C1251 C1250 1.349 . S
C1251 C1267 1.349 . S
C1252 C1250 1.327 . S
C1252 C1271 1.429 . S
C1252 H1276 0.950 . S
C1253 C1270 1.574 . S
C1253 C1272 1.368 . S
C1253 H1277 0.949 . S
H1254 C1258 0.949 . S
C1255 C1256 1.349 . S
C1255 C1257 1.327 . S
C1255 H1278 0.950 . S
C1256 C1255 1.349 . S
C1256 C1268 1.349 . S
C1257 C1255 1.327 . S
C1257 C1273 1.429 . S
C1257 H1279 0.950 . S
C1258 H1254 0.949 . S
C1258 C1266 1.574 . S
C1258 C1274 1.368 . S
H1259 C1267 0.950 . S
H1260 C1265 0.950 . S
H1261 C1266 0.949 . S
H1262 C1268 0.950 . S
H1263 C1269 0.950 . S
H1264 C1270 0.949 . S
C1265 H1260 0.950 . S
C1265 C1267 1.327 . S
C1265 C1271 1.429 . S
C1266 C1258 1.574 . S
C1266 H1261 0.949 . S
C1266 C1272 1.368 . S
C1267 C1251 1.349 . S
C1267 H1259 0.950 . S
C1267 C1265 1.327 . S
C1268 C1256 1.349 . S
C1268 H1262 0.950 . S
C1268 C1269 1.327 . S
C1269 H1263 0.950 . S
C1269 C1268 1.327 . S
C1269 C1273 1.429 . S
C1270 C1253 1.574 . S
C1270 H1264 0.949 . S
C1270 C1274 1.368 . S
C1271 C1252 1.429 . S
C1271 C1265 1.429 . S
C1271 C1272 1.523 . S
C1272 C1253 1.368 . S
C1272 C1266 1.368 . S
C1272 C1271 1.523 . S
C1273 C1257 1.429 . S
C1273 C1269 1.429 . S
C1273 C1274 1.523 . S
C1274 C1258 1.368 . S
C1274 C1270 1.368 . S
C1274 C1273 1.523 . S
H1275 C1250 0.950 . S
H1276 C1252 0.950 . S
H1277 C1253 0.949 . S
H1278 C1255 0.950 . S
H1279 C1257 0.950 . S
C1280 C1281 1.349 . S
C1280 C1282 1.318 1_565 S
C1280 H1305 0.959 . S
C1281 C1280 1.349 . S
C1281 C1297 1.349 1_565 S
C1282 C1280 1.318 1_545 S
C1282 C1301 1.429 . S
C1282 H1306 0.950 . S
C1283 C1300 1.574 . S
C1283 C1302 1.368 . S
C1283 H1307 0.949 . S
H1284 C1288 0.949 . S
C1285 C1286 1.349 . S
C1285 C1287 1.327 . S
C1285 H1308 0.950 . S
C1286 C1285 1.349 . S
C1286 C1298 1.349 . S
C1287 C1285 1.327 . S
C1287 C1303 1.429 . S
C1287 H1309 0.950 . S
C1288 H1284 0.949 . S
C1288 C1296 1.574 . S
C1288 C1304 1.368 . S
H1289 C1297 0.950 . S
H1290 C1295 0.950 . S
H1291 C1296 0.949 . S
H1292 C1298 0.950 . S
H1293 C1299 0.950 . S
H1294 C1300 0.949 . S
C1295 H1290 0.950 . S
C1295 C1297 1.327 . S
C1295 C1301 1.429 . S
C1296 C1288 1.574 . S
C1296 H1291 0.949 . S
C1296 C1302 1.368 . S
C1297 C1281 1.349 1_545 S
C1297 H1289 0.950 . S
C1297 C1295 1.327 . S
C1298 C1286 1.349 . S
C1298 H1292 0.950 . S
C1298 C1299 1.327 . S
C1299 H1293 0.950 . S
C1299 C1298 1.327 . S
C1299 C1303 1.429 . S
C1300 C1283 1.574 . S
C1300 H1294 0.949 . S
C1300 C1304 1.368 . S
C1301 C1282 1.429 . S
C1301 C1295 1.429 . S
C1301 C1302 1.523 . S
C1302 C1283 1.368 . S
C1302 C1296 1.368 . S
C1302 C1301 1.523 . S
C1303 C1287 1.429 . S
C1303 C1299 1.429 . S
C1303 C1304 1.523 . S
C1304 C1288 1.368 . S
C1304 C1300 1.368 . S
C1304 C1303 1.523 . S
H1305 C1280 0.959 . S
H1306 C1282 0.950 . S
H1307 C1283 0.949 . S
H1308 C1285 0.950 . S
H1309 C1287 0.950 . S
C1310 C1311 1.349 . S
C1310 C1312 1.327 . S
C1310 H1335 0.950 . S
C1311 C1310 1.349 . S
C1311 C1327 1.349 . S
C1312 C1310 1.327 . S
C1312 C1331 1.429 . S
C1312 H1336 0.950 . S
C1313 C1330 1.574 . S
C1313 C1332 1.368 . S
C1313 H1337 0.949 . S
H1314 C1318 0.949 . S
C1315 C1316 1.349 . S
C1315 C1317 1.327 . S
C1315 H1338 0.950 . S
C1316 C1315 1.349 . S
C1316 C1328 1.349 . S
C1317 C1315 1.327 . S
C1317 C1333 1.429 . S
C1317 H1339 0.950 . S
C1318 H1314 0.949 . S
C1318 C1326 1.574 . S
C1318 C1334 1.368 . S
H1319 C1327 0.950 . S
H1320 C1325 0.950 . S
H1321 C1326 0.949 . S
H1322 C1328 0.950 . S
H1323 C1329 0.950 . S
H1324 C1330 0.949 . S
C1325 H1320 0.950 . S
C1325 C1327 1.327 . S
C1325 C1331 1.429 . S
C1326 C1318 1.574 . S
C1326 H1321 0.949 . S
C1326 C1332 1.368 . S
C1327 C1311 1.349 . S
C1327 H1319 0.950 . S
C1327 C1325 1.327 . S
C1328 C1316 1.349 . S
C1328 H1322 0.950 . S
C1328 C1329 1.327 . S
C1329 H1323 0.950 . S
C1329 C1328 1.327 . S
C1329 C1333 1.429 . S
C1330 C1313 1.574 . S
C1330 H1324 0.949 . S
C1330 C1334 1.368 . S
C1331 C1312 1.429 . S
C1331 C1325 1.429 . S
C1331 C1332 1.523 . S
C1332 C1313 1.368 . S
C1332 C1326 1.368 . S
C1332 C1331 1.523 . S
C1333 C1317 1.429 . S
C1333 C1329 1.429 . S
C1333 C1334 1.523 . S
C1334 C1318 1.368 . S
C1334 C1330 1.368 . S
C1334 C1333 1.523 . S
H1335 C1310 0.950 . S
H1336 C1312 0.950 . S
H1337 C1313 0.949 . S
H1338 C1315 0.950 . S
H1339 C1317 0.950 . S
C1340 C1341 1.349 . S
C1340 C1342 1.327 1_565 S
C1340 H1365 0.950 . S
C1341 C1340 1.349 . S
C1341 C1357 1.349 . S
C1342 C1340 1.327 1_545 S
C1342 C1361 1.429 . S
C1342 H1366 0.950 . S
C1343 C1360 1.574 . S
C1343 C1362 1.368 . S
C1343 H1367 0.949 . S
H1344 C1348 0.949 . S
C1345 C1346 1.349 . S
C1345 C1347 1.327 . S
C1345 H1368 0.950 . S
C1346 C1345 1.349 . S
C1346 C1358 1.349 . S
C1347 C1345 1.327 . S
C1347 C1363 1.429 . S
C1347 H1369 0.950 . S
C1348 H1344 0.949 . S
C1348 C1356 1.574 . S
C1348 C1364 1.368 . S
H1349 C1357 0.950 . S
H1350 C1355 0.950 . S
H1351 C1356 0.949 . S
H1352 C1358 0.950 . S
H1353 C1359 0.950 . S
H1354 C1360 0.949 . S
C1355 H1350 0.950 . S
C1355 C1357 1.327 . S
C1355 C1361 1.429 1_565 S
C1356 C1348 1.574 . S
C1356 H1351 0.949 . S
C1356 C1362 1.368 . S
C1357 C1341 1.349 . S
C1357 H1349 0.950 . S
C1357 C1355 1.327 . S
C1358 C1346 1.349 . S
C1358 H1352 0.950 . S
C1358 C1359 1.327 . S
C1359 H1353 0.950 . S
C1359 C1358 1.327 . S
C1359 C1363 1.429 . S
C1360 C1343 1.574 . S
C1360 H1354 0.949 . S
C1360 C1364 1.368 . S
C1361 C1342 1.429 . S
C1361 C1355 1.429 1_545 S
C1361 C1362 1.523 . S
C1362 C1343 1.368 . S
C1362 C1356 1.368 . S
C1362 C1361 1.523 . S
C1363 C1347 1.429 . S
C1363 C1359 1.429 . S
C1363 C1364 1.523 . S
C1364 C1348 1.368 . S
C1364 C1360 1.368 . S
C1364 C1363 1.523 . S
H1365 C1340 0.950 . S
H1366 C1342 0.950 . S
H1367 C1343 0.949 . S
H1368 C1345 0.950 . S
H1369 C1347 0.950 . S
C1370 C1371 1.349 . S
C1370 C1372 1.327 . S
C1370 H1395 0.950 . S
C1371 C1370 1.349 . S
C1371 C1387 1.349 . S
C1372 C1370 1.327 . S
C1372 C1391 1.429 . S
C1372 H1396 0.950 . S
C1373 C1390 1.574 . S
C1373 C1392 1.368 . S
C1373 H1397 0.949 . S
H1374 C1378 0.949 . S
C1375 C1376 1.349 . S
C1375 C1377 1.327 . S
C1375 H1398 0.950 . S
C1376 C1375 1.349 . S
C1376 C1388 1.349 . S
C1377 C1375 1.327 . S
C1377 C1393 1.429 . S
C1377 H1399 0.950 . S
C1378 H1374 0.949 . S
C1378 C1386 1.574 . S
C1378 C1394 1.368 . S
H1379 C1387 0.950 . S
H1380 C1385 0.950 . S
H1381 C1386 0.949 . S
H1382 C1388 0.950 . S
H1383 C1389 0.950 . S
H1384 C1390 0.949 . S
C1385 H1380 0.950 . S
C1385 C1387 1.327 . S
C1385 C1391 1.429 . S
C1386 C1378 1.574 . S
C1386 H1381 0.949 . S
C1386 C1392 1.368 . S
C1387 C1371 1.349 . S
C1387 H1379 0.950 . S
C1387 C1385 1.327 . S
C1388 C1376 1.349 . S
C1388 H1382 0.950 . S
C1388 C1389 1.327 . S
C1389 H1383 0.950 . S
C1389 C1388 1.327 . S
C1389 C1393 1.429 . S
C1390 C1373 1.574 . S
C1390 H1384 0.949 . S
C1390 C1394 1.368 . S
C1391 C1372 1.429 . S
C1391 C1385 1.429 . S
C1391 C1392 1.523 . S
C1392 C1373 1.368 . S
C1392 C1386 1.368 . S
C1392 C1391 1.523 . S
C1393 C1377 1.429 . S
C1393 C1389 1.429 . S
C1393 C1394 1.523 . S
C1394 C1378 1.368 . S
C1394 C1390 1.368 . S
C1394 C1393 1.523 . S
H1395 C1370 0.950 . S
H1396 C1372 0.950 . S
H1397 C1373 0.949 . S
H1398 C1375 0.950 . S
H1399 C1377 0.950 . S
C1400 C1401 1.349 . S
C1400 C1402 1.327 . S
C1400 H1425 0.950 . S
C1401 C1400 1.349 . S
C1401 C1417 1.349 . S
C1402 C1400 1.327 . S
C1402 C1421 1.429 . S
C1402 H1426 0.950 . S
C1403 C1420 1.574 . S
C1403 C1422 1.368 . S
C1403 H1427 0.949 . S
H1404 C1408 0.949 . S
C1405 C1406 1.349 . S
C1405 C1407 1.327 . S
C1405 H1428 0.950 . S
C1406 C1405 1.349 . S
C1406 C1418 1.349 . S
C1407 C1405 1.327 . S
C1407 C1423 1.429 . S
C1407 H1429 0.950 . S
C1408 H1404 0.949 . S
C1408 C1416 1.574 . S
C1408 C1424 1.368 . S
H1409 C1417 0.950 . S
H1410 C1415 0.950 . S
H1411 C1416 0.949 . S
H1412 C1418 0.950 . S
H1413 C1419 0.950 . S
H1414 C1420 0.949 . S
C1415 H1410 0.950 . S
C1415 C1417 1.327 . S
C1415 C1421 1.429 . S
C1416 C1408 1.574 . S
C1416 H1411 0.949 . S
C1416 C1422 1.368 . S
C1417 C1401 1.349 . S
C1417 H1409 0.950 . S
C1417 C1415 1.327 . S
C1418 C1406 1.349 . S
C1418 H1412 0.950 . S
C1418 C1419 1.327 . S
C1419 H1413 0.950 . S
C1419 C1418 1.327 . S
C1419 C1423 1.429 . S
C1420 C1403 1.574 . S
C1420 H1414 0.949 . S
C1420 C1424 1.368 . S
C1421 C1402 1.429 . S
C1421 C1415 1.429 . S
C1421 C1422 1.523 . S
C1422 C1403 1.368 . S
C1422 C1416 1.368 . S
C1422 C1421 1.523 . S
C1423 C1407 1.429 . S
C1423 C1419 1.429 . S
C1423 C1424 1.523 . S
C1424 C1408 1.368 . S
C1424 C1420 1.368 . S
C1424 C1423 1.523 . S
H1425 C1400 0.950 . S
H1426 C1402 0.950 . S
H1427 C1403 0.949 . S
H1428 C1405 0.950 . S
H1429 C1407 0.950 . S
C1430 C1431 1.349 . S
C1430 C1432 1.327 . S
C1430 H1455 0.950 . S
C1431 C1430 1.349 . S
C1431 C1447 1.349 . S
C1432 C1430 1.327 . S
C1432 C1451 1.429 . S
C1432 H1456 0.950 . S
C1433 C1450 1.574 . S
C1433 C1452 1.368 . S
C1433 H1457 0.949 . S
H1434 C1438 0.949 . S
C1435 C1436 1.349 . S
C1435 C1437 1.327 . S
C1435 H1458 0.950 . S
C1436 C1435 1.349 . S
C1436 C1448 1.349 . S
C1437 C1435 1.327 . S
C1437 C1453 1.429 . S
C1437 H1459 0.950 . S
C1438 H1434 0.949 . S
C1438 C1446 1.574 . S
C1438 C1454 1.368 . S
H1439 C1447 0.950 . S
H1440 C1445 0.950 . S
H1441 C1446 0.949 . S
H1442 C1448 0.950 . S
H1443 C1449 0.950 . S
H1444 C1450 0.949 . S
C1445 H1440 0.950 . S
C1445 C1447 1.327 . S
C1445 C1451 1.429 . S
C1446 C1438 1.574 . S
C1446 H1441 0.949 . S
C1446 C1452 1.368 . S
C1447 C1431 1.349 . S
C1447 H1439 0.950 . S
C1447 C1445 1.327 . S
C1448 C1436 1.349 . S
C1448 H1442 0.950 . S
C1448 C1449 1.327 . S
C1449 H1443 0.950 . S
C1449 C1448 1.327 . S
C1449 C1453 1.429 . S
C1450 C1433 1.574 . S
C1450 H1444 0.949 . S
C1450 C1454 1.368 . S
C1451 C1432 1.429 . S
C1451 C1445 1.429 . S
C1451 C1452 1.523 . S
C1452 C1433 1.368 . S
C1452 C1446 1.368 . S
C1452 C1451 1.523 . S
C1453 C1437 1.429 . S
C1453 C1449 1.429 . S
C1453 C1454 1.523 . S
C1454 C1438 1.368 . S
C1454 C1450 1.368 . S
C1454 C1453 1.523 . S
H1455 C1430 0.950 . S
H1456 C1432 0.950 . S
H1457 C1433 0.949 . S
H1458 C1435 0.950 . S
H1459 C1437 0.950 . S
C1460 C1461 1.349 . S
C1460 C1462 1.327 . S
C1460 H1485 0.950 . S
C1461 C1460 1.349 . S
C1461 C1477 1.349 . S
C1462 C1460 1.327 . S
C1462 C1481 1.429 . S
C1462 H1486 0.950 . S
C1463 C1480 1.574 . S
C1463 C1482 1.368 . S
C1463 H1487 0.949 . S
H1464 C1468 0.949 . S
C1465 C1466 1.349 . S
C1465 C1467 1.327 . S
C1465 H1488 0.950 . S
C1466 C1465 1.349 . S
C1466 C1478 1.349 . S
C1467 C1465 1.327 . S
C1467 C1483 1.429 . S
C1467 H1489 0.950 . S
C1468 H1464 0.949 . S
C1468 C1476 1.574 . S
C1468 C1484 1.368 . S
H1469 C1477 0.950 . S
H1470 C1475 0.950 . S
H1471 C1476 0.949 . S
H1472 C1478 0.950 . S
H1473 C1479 0.950 . S
H1474 C1480 0.949 . S
C1475 H1470 0.950 . S
C1475 C1477 1.327 . S
C1475 C1481 1.429 . S
C1476 C1468 1.574 . S
C1476 H1471 0.949 . S
C1476 C1482 1.368 . S
C1477 C1461 1.349 . S
C1477 H1469 0.950 . S
C1477 C1475 1.327 . S
C1478 C1466 1.349 . S
C1478 H1472 0.950 . S
C1478 C1479 1.327 . S
C1479 H1473 0.950 . S
C1479 C1478 1.327 . S
C1479 C1483 1.429 . S
C1480 C1463 1.574 . S
C1480 H1474 0.949 . S
C1480 C1484 1.368 . S
C1481 C1462 1.429 . S
C1481 C1475 1.429 . S
C1481 C1482 1.523 . S
C1482 C1463 1.368 . S
C1482 C1476 1.368 . S
C1482 C1481 1.523 . S
C1483 C1467 1.429 . S
C1483 C1479 1.429 . S
C1483 C1484 1.523 . S
C1484 C1468 1.368 . S
C1484 C1480 1.368 . S
C1484 C1483 1.523 . S
H1485 C1460 0.950 . S
H1486 C1462 0.950 . S
H1487 C1463 0.949 . S
H1488 C1465 0.950 . S
H1489 C1467 0.950 . S
C1490 C1491 1.349 . S
C1490 C1492 1.327 . S
C1490 H1515 0.950 . S
C1491 C1490 1.349 . S
C1491 C1507 1.349 . S
C1492 C1490 1.327 . S
C1492 C1511 1.429 . S
C1492 H1516 0.950 . S
C1493 C1510 1.574 . S
C1493 C1512 1.368 . S
C1493 H1517 0.949 . S
H1494 C1498 0.949 . S
C1495 C1496 1.349 . S
C1495 C1497 1.327 . S
C1495 H1518 0.950 . S
C1496 C1495 1.349 . S
C1496 C1508 1.349 . S
C1497 C1495 1.327 . S
C1497 C1513 1.429 . S
C1497 H1519 0.950 . S
C1498 H1494 0.949 . S
C1498 C1506 1.574 . S
C1498 C1514 1.368 . S
H1499 C1507 0.950 . S
H1500 C1505 0.950 . S
H1501 C1506 0.949 . S
H1502 C1508 0.950 . S
H1503 C1509 0.950 . S
H1504 C1510 0.949 . S
C1505 H1500 0.950 . S
C1505 C1507 1.327 . S
C1505 C1511 1.429 . S
C1506 C1498 1.574 . S
C1506 H1501 0.949 . S
C1506 C1512 1.368 . S
C1507 C1491 1.349 . S
C1507 H1499 0.950 . S
C1507 C1505 1.327 . S
C1508 C1496 1.349 . S
C1508 H1502 0.950 . S
C1508 C1509 1.327 . S
C1509 H1503 0.950 . S
C1509 C1508 1.327 . S
C1509 C1513 1.429 . S
C1510 C1493 1.574 . S
C1510 H1504 0.949 . S
C1510 C1514 1.368 . S
C1511 C1492 1.429 . S
C1511 C1505 1.429 . S
C1511 C1512 1.523 . S
C1512 C1493 1.368 . S
C1512 C1506 1.368 . S
C1512 C1511 1.523 . S
C1513 C1497 1.429 . S
C1513 C1509 1.429 . S
C1513 C1514 1.523 . S
C1514 C1498 1.368 . S
C1514 C1510 1.368 . S
C1514 C1513 1.523 . S
H1515 C1490 0.950 . S
H1516 C1492 0.950 . S
H1517 C1493 0.949 . S
H1518 C1495 0.950 . S
H1519 C1497 0.950 . S
C1520 C1521 1.349 . S
C1520 C1522 1.327 . S
C1520 H1545 0.950 . S
C1521 C1520 1.349 . S
C1521 C1537 1.349 . S
C1522 C1520 1.327 . S
C1522 C1541 1.429 . S
C1522 H1546 0.950 . S
C1523 C1540 1.574 . S
C1523 C1542 1.368 . S
C1523 H1547 0.949 . S
H1524 C1528 0.949 . S
C1525 C1526 1.349 . S
C1525 C1527 1.327 . S
C1525 H1548 0.950 . S
C1526 C1525 1.349 . S
C1526 C1538 1.349 . S
C1527 C1525 1.327 . S
C1527 C1543 1.429 . S
C1527 H1549 0.950 . S
C1528 H1524 0.949 . S
C1528 C1536 1.574 . S
C1528 C1544 1.368 . S
H1529 C1537 0.950 . S
H1530 C1535 0.950 . S
H1531 C1536 0.949 . S
H1532 C1538 0.950 . S
H1533 C1539 0.950 . S
H1534 C1540 0.949 . S
C1535 H1530 0.950 . S
C1535 C1537 1.327 . S
C1535 C1541 1.429 . S
C1536 C1528 1.574 . S
C1536 H1531 0.949 . S
C1536 C1542 1.368 . S
C1537 C1521 1.349 . S
C1537 H1529 0.950 . S
C1537 C1535 1.327 . S
C1538 C1526 1.349 . S
C1538 H1532 0.950 . S
C1538 C1539 1.327 . S
C1539 H1533 0.950 . S
C1539 C1538 1.327 . S
C1539 C1543 1.429 . S
C1540 C1523 1.574 . S
C1540 H1534 0.949 . S
C1540 C1544 1.368 . S
C1541 C1522 1.429 . S
C1541 C1535 1.429 . S
C1541 C1542 1.523 . S
C1542 C1523 1.368 . S
C1542 C1536 1.368 . S
C1542 C1541 1.523 . S
C1543 C1527 1.429 . S
C1543 C1539 1.429 . S
C1543 C1544 1.523 . S
C1544 C1528 1.368 . S
C1544 C1540 1.368 . S
C1544 C1543 1.523 . S
H1545 C1520 0.950 . S
H1546 C1522 0.950 . S
H1547 C1523 0.949 . S
H1548 C1525 0.950 . S
H1549 C1527 0.950 . S
C1550 C1551 1.349 . S
C1550 C1552 1.327 . S
C1550 H1575 0.950 . S
C1551 C1550 1.349 . S
C1551 C1567 1.349 . S
C1552 C1550 1.327 . S
C1552 C1571 1.429 . S
C1552 H1576 0.950 . S
C1553 C1570 1.580 . S
C1553 C1572 1.364 1_655 S
C1553 H1577 0.947 1_655 S
H1554 C1558 0.949 . S
C1555 C1556 1.349 . S
C1555 C1557 1.327 . S
C1555 H1578 0.950 . S
C1556 C1555 1.349 . S
C1556 C1568 1.349 . S
C1557 C1555 1.327 . S
C1557 C1573 1.429 . S
C1557 H1579 0.950 . S
C1558 H1554 0.949 . S
C1558 C1566 1.574 1_655 S
C1558 C1574 1.368 . S
H1559 C1567 0.950 . S
H1560 C1565 0.950 . S
H1561 C1566 0.949 . S
H1562 C1568 0.950 . S
H1563 C1569 0.950 . S
H1564 C1570 0.949 . S
C1565 H1560 0.950 . S
C1565 C1567 1.327 . S
C1565 C1571 1.429 . S
C1566 C1558 1.574 1_455 S
C1566 H1561 0.949 . S
C1566 C1572 1.368 . S
C1567 C1551 1.349 . S
C1567 H1559 0.950 . S
C1567 C1565 1.327 . S
C1568 C1556 1.349 . S
C1568 H1562 0.950 . S
C1568 C1569 1.327 . S
C1569 H1563 0.950 . S
C1569 C1568 1.327 . S
C1569 C1573 1.429 . S
C1570 C1553 1.580 . S
C1570 H1564 0.949 . S
C1570 C1574 1.368 . S
C1571 C1552 1.429 . S
C1571 C1565 1.429 . S
C1571 C1572 1.523 . S
C1572 C1553 1.364 1_455 S
C1572 C1566 1.368 . S
C1572 C1571 1.523 . S
C1573 C1557 1.429 . S
C1573 C1569 1.429 . S
C1573 C1574 1.523 . S
C1574 C1558 1.368 . S
C1574 C1570 1.368 . S
C1574 C1573 1.523 . S
H1575 C1550 0.950 . S
H1576 C1552 0.950 . S
H1577 C1553 0.947 1_455 S
H1578 C1555 0.950 . S
H1579 C1557 0.950 . S
C1580 C1581 1.349 . S
C1580 C1582 1.327 . S
C1580 H1605 0.950 . S
C1581 C1580 1.349 . S
C1581 C1597 1.349 . S
C1582 C1580 1.327 . S
C1582 C1601 1.429 . S
C1582 H1606 0.950 . S
C1583 C1600 1.574 . S
C1583 C1602 1.368 . S
C1583 H1607 0.949 . S
H1584 C1588 0.949 . S
C1585 C1586 1.349 . S
C1585 C1587 1.327 . S
C1585 H1608 0.950 . S
C1586 C1585 1.349 . S
C1586 C1598 1.349 . S
C1587 C1585 1.327 . S
C1587 C1603 1.429 . S
C1587 H1609 0.950 . S
C1588 H1584 0.949 . S
C1588 C1596 1.574 . S
C1588 C1604 1.368 . S
H1589 C1597 0.950 . S
H1590 C1595 0.950 . S
H1591 C1596 0.949 . S
H1592 C1598 0.950 . S
H1593 C1599 0.950 . S
H1594 C1600 0.949 . S
C1595 H1590 0.950 . S
C1595 C1597 1.327 . S
C1595 C1601 1.429 . S
C1596 C1588 1.574 . S
C1596 H1591 0.949 . S
C1596 C1602 1.368 . S
C1597 C1581 1.349 . S
C1597 H1589 0.950 . S
C1597 C1595 1.327 . S
C1598 C1586 1.349 . S
C1598 H1592 0.950 . S
C1598 C1599 1.327 . S
C1599 H1593 0.950 . S
C1599 C1598 1.327 . S
C1599 C1603 1.429 . S
C1600 C1583 1.574 . S
C1600 H1594 0.949 . S
C1600 C1604 1.368 . S
C1601 C1582 1.429 . S
C1601 C1595 1.429 . S
C1601 C1602 1.523 . S
C1602 C1583 1.368 . S
C1602 C1596 1.368 . S
C1602 C1601 1.523 . S
C1603 C1587 1.429 . S
C1603 C1599 1.429 . S
C1603 C1604 1.523 . S
C1604 C1588 1.368 . S
C1604 C1600 1.368 . S
C1604 C1603 1.523 . S
H1605 C1580 0.950 . S
H1606 C1582 0.950 . S
H1607 C1583 0.949 . S
H1608 C1585 0.950 . S
H1609 C1587 0.950 . S
C1610 C1611 1.349 . S
C1610 C1612 1.327 . S
C1610 H1635 0.950 . S
C1611 C1610 1.349 . S
C1611 C1627 1.349 . S
C1612 C1610 1.327 . S
C1612 C1631 1.429 . S
C1612 H1636 0.950 . S
C1613 C1630 1.574 1_655 S
C1613 C1632 1.368 . S
C1613 H1637 0.949 . S
H1614 C1618 0.949 . S
C1615 C1616 1.349 . S
C1615 C1617 1.327 . S
C1615 H1638 0.950 . S
C1616 C1615 1.349 . S
C1616 C1628 1.349 . S
C1617 C1615 1.327 . S
C1617 C1633 1.429 . S
C1617 H1639 0.950 . S
C1618 H1614 0.949 . S
C1618 C1626 1.572 . S
C1618 C1634 1.368 . S
H1619 C1627 0.950 . S
H1620 C1625 0.950 . S
H1621 C1626 0.949 1_655 S
H1622 C1628 0.950 . S
H1623 C1629 0.950 . S
H1624 C1630 0.949 . S
C1625 H1620 0.950 . S
C1625 C1627 1.327 . S
C1625 C1631 1.429 . S
C1626 C1618 1.572 . S
C1626 H1621 0.949 1_455 S
C1626 C1632 1.370 1_455 S
C1627 C1611 1.349 . S
C1627 H1619 0.950 . S
C1627 C1625 1.327 . S
C1628 C1616 1.349 . S
C1628 H1622 0.950 . S
C1628 C1629 1.327 . S
C1629 H1623 0.950 . S
C1629 C1628 1.327 . S
C1629 C1633 1.429 . S
C1630 C1613 1.574 1_455 S
C1630 H1624 0.949 . S
C1630 C1634 1.368 . S
C1631 C1612 1.429 . S
C1631 C1625 1.429 . S
C1631 C1632 1.523 . S
C1632 C1613 1.368 . S
C1632 C1626 1.370 1_655 S
C1632 C1631 1.523 . S
C1633 C1617 1.429 . S
C1633 C1629 1.429 . S
C1633 C1634 1.523 . S
C1634 C1618 1.368 . S
C1634 C1630 1.368 . S
C1634 C1633 1.523 . S
H1635 C1610 0.950 . S
H1636 C1612 0.950 . S
H1637 C1613 0.949 . S
H1638 C1615 0.950 . S
H1639 C1617 0.950 . S
C1640 C1641 1.349 . S
C1640 C1642 1.327 . S
C1640 H1665 0.950 . S
C1641 C1640 1.349 . S
C1641 C1657 1.349 . S
C1642 C1640 1.327 . S
C1642 C1661 1.429 . S
C1642 H1666 0.950 . S
C1643 C1660 1.574 . S
C1643 C1662 1.368 . S
C1643 H1667 0.949 . S
H1644 C1648 0.949 . S
C1645 C1646 1.349 . S
C1645 C1647 1.327 . S
C1645 H1668 0.950 . S
C1646 C1645 1.349 . S
C1646 C1658 1.349 . S
C1647 C1645 1.327 . S
C1647 C1663 1.429 . S
C1647 H1669 0.950 . S
C1648 H1644 0.949 . S
C1648 C1656 1.574 . S
C1648 C1664 1.368 . S
H1649 C1657 0.950 . S
H1650 C1655 0.950 . S
H1651 C1656 0.949 . S
H1652 C1658 0.950 . S
H1653 C1659 0.950 . S
H1654 C1660 0.949 . S
C1655 H1650 0.950 . S
C1655 C1657 1.327 . S
C1655 C1661 1.429 . S
C1656 C1648 1.574 . S
C1656 H1651 0.949 . S
C1656 C1662 1.368 . S
C1657 C1641 1.349 . S
C1657 H1649 0.950 . S
C1657 C1655 1.327 . S
C1658 C1646 1.349 . S
C1658 H1652 0.950 . S
C1658 C1659 1.327 . S
C1659 H1653 0.950 . S
C1659 C1658 1.327 . S
C1659 C1663 1.429 . S
C1660 C1643 1.574 . S
C1660 H1654 0.949 . S
C1660 C1664 1.368 . S
C1661 C1642 1.429 . S
C1661 C1655 1.429 . S
C1661 C1662 1.523 . S
C1662 C1643 1.368 . S
C1662 C1656 1.368 . S
C1662 C1661 1.523 . S
C1663 C1647 1.429 . S
C1663 C1659 1.429 . S
C1663 C1664 1.523 . S
C1664 C1648 1.368 . S
C1664 C1660 1.368 . S
C1664 C1663 1.523 . S
H1665 C1640 0.950 . S
H1666 C1642 0.950 . S
H1667 C1643 0.949 . S
H1668 C1645 0.950 . S
H1669 C1647 0.950 . S
C1670 C1671 1.349 . S
C1670 C1672 1.327 . S
C1670 H1695 0.950 . S
C1671 C1670 1.349 . S
C1671 C1687 1.349 . S
C1672 C1670 1.327 . S
C1672 C1691 1.429 . S
C1672 H1696 0.950 . S
C1673 C1690 1.574 . S
C1673 C1692 1.381 . S
C1673 H1697 0.949 . S
H1674 C1678 0.949 . S
C1675 C1676 1.349 . S
C1675 C1677 1.327 . S
C1675 H1698 0.950 . S
C1676 C1675 1.349 . S
C1676 C1688 1.349 . S
C1677 C1675 1.327 . S
C1677 C1693 1.429 . S
C1677 H1699 0.950 . S
C1678 H1674 0.949 . S
C1678 C1686 1.574 1_556 S
C1678 C1694 1.368 . S
H1679 C1687 0.950 . S
H1680 C1685 0.950 . S
H1681 C1686 0.949 . S
H1682 C1688 0.950 . S
H1683 C1689 0.950 . S
H1684 C1690 0.949 . S
C1685 H1680 0.950 . S
C1685 C1687 1.327 . S
C1685 C1691 1.429 . S
C1686 C1678 1.574 1_554 S
C1686 H1681 0.949 . S
C1686 C1692 1.364 1_554 S
C1687 C1671 1.349 . S
C1687 H1679 0.950 . S
C1687 C1685 1.327 . S
C1688 C1676 1.349 . S
C1688 H1682 0.950 . S
C1688 C1689 1.327 . S
C1689 H1683 0.950 . S
C1689 C1688 1.327 . S
C1689 C1693 1.429 . S
C1690 C1673 1.574 . S
C1690 H1684 0.949 . S
C1690 C1694 1.368 . S
C1691 C1672 1.429 . S
C1691 C1685 1.429 . S
C1691 C1692 1.512 1_554 S
C1692 C1673 1.381 . S
C1692 C1686 1.364 1_556 S
C1692 C1691 1.512 1_556 S
C1693 C1677 1.429 . S
C1693 C1689 1.429 . S
C1693 C1694 1.523 . S
C1694 C1678 1.368 . S
C1694 C1690 1.368 . S
C1694 C1693 1.523 . S
H1695 C1670 0.950 . S
H1696 C1672 0.950 . S
H1697 C1673 0.949 . S
H1698 C1675 0.950 . S
H1699 C1677 0.950 . S
C1700 C1701 1.349 . S
C1700 C1702 1.327 . S
C1700 H1725 0.950 . S
C1701 C1700 1.349 . S
C1701 C1717 1.349 . S
C1702 C1700 1.327 . S
C1702 C1721 1.429 . S
C1702 H1726 0.950 . S
C1703 C1720 1.574 . S
C1703 C1722 1.368 . S
C1703 H1727 0.949 . S
H1704 C1708 0.949 . S
C1705 C1706 1.349 . S
C1705 C1707 1.327 . S
C1705 H1728 0.950 . S
C1706 C1705 1.349 . S
C1706 C1718 1.349 . S
C1707 C1705 1.327 . S
C1707 C1723 1.429 . S
C1707 H1729 0.950 . S
C1708 H1704 0.949 . S
C1708 C1716 1.574 . S
C1708 C1724 1.368 . S
H1709 C1717 0.950 . S
H1710 C1715 0.950 . S
H1711 C1716 0.949 . S
H1712 C1718 0.950 . S
H1713 C1719 0.950 . S
H1714 C1720 0.949 . S
C1715 H1710 0.950 . S
C1715 C1717 1.327 . S
C1715 C1721 1.429 . S
C1716 C1708 1.574 . S
C1716 H1711 0.949 . S
C1716 C1722 1.368 . S
C1717 C1701 1.349 . S
C1717 H1709 0.950 . S
C1717 C1715 1.327 . S
C1718 C1706 1.349 . S
C1718 H1712 0.950 . S
C1718 C1719 1.327 . S
C1719 H1713 0.950 . S
C1719 C1718 1.327 . S
C1719 C1723 1.429 . S
C1720 C1703 1.574 . S
C1720 H1714 0.949 . S
C1720 C1724 1.368 . S
C1721 C1702 1.429 . S
C1721 C1715 1.429 . S
C1721 C1722 1.523 . S
C1722 C1703 1.368 . S
C1722 C1716 1.368 . S
C1722 C1721 1.523 . S
C1723 C1707 1.429 . S
C1723 C1719 1.429 . S
C1723 C1724 1.523 . S
C1724 C1708 1.368 . S
C1724 C1720 1.368 . S
C1724 C1723 1.523 . S
H1725 C1700 0.950 . S
H1726 C1702 0.950 . S
H1727 C1703 0.949 . S
H1728 C1705 0.950 . S
H1729 C1707 0.950 . S
C1730 C1731 1.349 . S
C1730 C1732 1.327 . S
C1730 H1755 0.950 . S
C1731 C1730 1.349 . S
C1731 C1747 1.349 . S
C1732 C1730 1.327 . S
C1732 C1751 1.429 . S
C1732 H1756 0.950 . S
C1733 C1750 1.574 . S
C1733 C1752 1.368 . S
C1733 H1757 0.949 . S
H1734 C1738 0.949 . S
C1735 C1736 1.349 . S
C1735 C1737 1.327 . S
C1735 H1758 0.950 . S
C1736 C1735 1.349 . S
C1736 C1748 1.349 . S
C1737 C1735 1.327 . S
C1737 C1753 1.429 . S
C1737 H1759 0.950 . S
C1738 H1734 0.949 . S
C1738 C1746 1.574 1_556 S
C1738 C1754 1.368 . S
H1739 C1747 0.950 . S
H1740 C1745 0.950 . S
H1741 C1746 0.949 . S
H1742 C1748 0.950 . S
H1743 C1749 0.950 . S
H1744 C1750 0.949 . S
C1745 H1740 0.950 . S
C1745 C1747 1.327 . S
C1745 C1751 1.429 . S
C1746 C1738 1.574 1_554 S
C1746 H1741 0.949 . S
C1746 C1752 1.368 . S
C1747 C1731 1.349 . S
C1747 H1739 0.950 . S
C1747 C1745 1.327 . S
C1748 C1736 1.349 . S
C1748 H1742 0.950 . S
C1748 C1749 1.327 . S
C1749 H1743 0.950 . S
C1749 C1748 1.327 . S
C1749 C1753 1.429 . S
C1750 C1733 1.574 . S
C1750 H1744 0.949 . S
C1750 C1754 1.368 1_554 S
C1751 C1732 1.429 . S
C1751 C1745 1.429 . S
C1751 C1752 1.523 . S
C1752 C1733 1.368 . S
C1752 C1746 1.368 . S
C1752 C1751 1.523 . S
C1753 C1737 1.429 . S
C1753 C1749 1.429 . S
C1753 C1754 1.523 . S
C1754 C1738 1.368 . S
C1754 C1750 1.368 1_556 S
C1754 C1753 1.523 . S
H1755 C1730 0.950 . S
H1756 C1732 0.950 . S
H1757 C1733 0.949 . S
H1758 C1735 0.950 . S
H1759 C1737 0.950 . S
C1760 C1761 1.349 . S
C1760 C1762 1.327 . S
C1760 H1785 0.950 . S
C1761 C1760 1.349 . S
C1761 C1777 1.349 . S
C1762 C1760 1.327 . S
C1762 C1781 1.429 . S
C1762 H1786 0.950 . S
C1763 C1780 1.574 . S
C1763 C1782 1.368 . S
C1763 H1787 0.949 . S
H1764 C1768 0.949 . S
C1765 C1766 1.349 . S
C1765 C1767 1.327 . S
C1765 H1788 0.950 . S
C1766 C1765 1.349 . S
C1766 C1778 1.349 . S
C1767 C1765 1.327 . S
C1767 C1783 1.429 . S
C1767 H1789 0.950 . S
C1768 H1764 0.949 . S
C1768 C1776 1.574 . S
C1768 C1784 1.368 . S
H1769 C1777 0.950 . S
H1770 C1775 0.950 . S
H1771 C1776 0.949 . S
H1772 C1778 0.950 . S
H1773 C1779 0.950 . S
H1774 C1780 0.949 . S
C1775 H1770 0.950 . S
C1775 C1777 1.327 . S
C1775 C1781 1.429 . S
C1776 C1768 1.574 . S
C1776 H1771 0.949 . S
C1776 C1782 1.368 . S
C1777 C1761 1.349 . S
C1777 H1769 0.950 . S
C1777 C1775 1.327 . S
C1778 C1766 1.349 . S
C1778 H1772 0.950 . S
C1778 C1779 1.327 . S
C1779 H1773 0.950 . S
C1779 C1778 1.327 . S
C1779 C1783 1.429 . S
C1780 C1763 1.574 . S
C1780 H1774 0.949 . S
C1780 C1784 1.368 . S
C1781 C1762 1.429 . S
C1781 C1775 1.429 . S
C1781 C1782 1.523 . S
C1782 C1763 1.368 . S
C1782 C1776 1.368 . S
C1782 C1781 1.523 . S
C1783 C1767 1.429 . S
C1783 C1779 1.429 . S
C1783 C1784 1.523 . S
C1784 C1768 1.368 . S
C1784 C1780 1.368 . S
C1784 C1783 1.523 . S
H1785 C1760 0.950 . S
H1786 C1762 0.950 . S
H1787 C1763 0.949 . S
H1788 C1765 0.950 . S
H1789 C1767 0.950 . S
C1790 C1791 1.349 . S
C1790 C1792 1.327 . S
C1790 H1815 0.950 . S
C1791 C1790 1.349 . S
C1791 C1807 1.349 . S
C1792 C1790 1.327 . S
C1792 C1811 1.429 . S
C1792 H1816 0.950 . S
C1793 C1810 1.574 . S
C1793 C1812 1.368 . S
C1793 H1817 0.949 . S
H1794 C1798 0.949 . S
C1795 C1796 1.349 . S
C1795 C1797 1.327 . S
C1795 H1818 0.950 . S
C1796 C1795 1.349 . S
C1796 C1808 1.349 . S
C1797 C1795 1.327 . S
C1797 C1813 1.429 . S
C1797 H1819 0.950 . S
C1798 H1794 0.949 . S
C1798 C1806 1.574 . S
C1798 C1814 1.368 . S
H1799 C1807 0.950 . S
H1800 C1805 0.950 . S
H1801 C1806 0.949 . S
H1802 C1808 0.950 . S
H1803 C1809 0.950 . S
H1804 C1810 0.949 . S
C1805 H1800 0.950 . S
C1805 C1807 1.327 . S
C1805 C1811 1.429 . S
C1806 C1798 1.574 . S
C1806 H1801 0.949 . S
C1806 C1812 1.368 . S
C1807 C1791 1.349 . S
C1807 H1799 0.950 . S
C1807 C1805 1.327 . S
C1808 C1796 1.349 . S
C1808 H1802 0.950 . S
C1808 C1809 1.327 . S
C1809 H1803 0.950 . S
C1809 C1808 1.327 . S
C1809 C1813 1.429 . S
C1810 C1793 1.574 . S
C1810 H1804 0.949 . S
C1810 C1814 1.368 . S
C1811 C1792 1.429 . S
C1811 C1805 1.429 . S
C1811 C1812 1.523 1_556 S
C1812 C1793 1.368 . S
C1812 C1806 1.368 . S
C1812 C1811 1.523 1_554 S
C1813 C1797 1.429 . S
C1813 C1809 1.429 . S
C1813 C1814 1.523 . S
C1814 C1798 1.368 . S
C1814 C1810 1.368 . S
C1814 C1813 1.523 . S
H1815 C1790 0.950 . S
H1816 C1792 0.950 . S
H1817 C1793 0.949 . S
H1818 C1795 0.950 . S
H1819 C1797 0.950 . S
C1820 C1821 1.349 . S
C1820 C1822 1.327 . S
C1820 H1845 0.950 . S
C1821 C1820 1.349 . S
C1821 C1837 1.349 . S
C1822 C1820 1.327 . S
C1822 C1841 1.429 . S
C1822 H1846 0.950 . S
C1823 C1840 1.574 . S
C1823 C1842 1.368 . S
C1823 H1847 0.949 . S
H1824 C1828 0.949 . S
C1825 C1826 1.349 . S
C1825 C1827 1.327 . S
C1825 H1848 0.950 . S
C1826 C1825 1.349 . S
C1826 C1838 1.349 . S
C1827 C1825 1.327 . S
C1827 C1843 1.429 . S
C1827 H1849 0.950 . S
C1828 H1824 0.949 . S
C1828 C1836 1.574 . S
C1828 C1844 1.368 . S
H1829 C1837 0.950 . S
H1830 C1835 0.950 . S
H1831 C1836 0.949 . S
H1832 C1838 0.950 . S
H1833 C1839 0.950 . S
H1834 C1840 0.949 . S
C1835 H1830 0.950 . S
C1835 C1837 1.327 . S
C1835 C1841 1.429 . S
C1836 C1828 1.574 . S
C1836 H1831 0.949 . S
C1836 C1842 1.368 . S
C1837 C1821 1.349 . S
C1837 H1829 0.950 . S
C1837 C1835 1.327 . S
C1838 C1826 1.349 . S
C1838 H1832 0.950 . S
C1838 C1839 1.327 . S
C1839 H1833 0.950 . S
C1839 C1838 1.327 . S
C1839 C1843 1.429 . S
C1840 C1823 1.574 . S
C1840 H1834 0.949 . S
C1840 C1844 1.368 . S
C1841 C1822 1.429 . S
C1841 C1835 1.429 . S
C1841 C1842 1.523 . S
C1842 C1823 1.368 . S
C1842 C1836 1.368 . S
C1842 C1841 1.523 . S
C1843 C1827 1.429 . S
C1843 C1839 1.429 . S
C1843 C1844 1.523 . S
C1844 C1828 1.368 . S
C1844 C1840 1.368 . S
C1844 C1843 1.523 . S
H1845 C1820 0.950 . S
H1846 C1822 0.950 . S
H1847 C1823 0.949 . S
H1848 C1825 0.950 . S
H1849 C1827 0.950 . S
C1850 C1851 1.349 . S
C1850 C1852 1.327 1_556 S
C1850 H1875 0.950 . S
C1851 C1850 1.349 . S
C1851 C1867 1.349 . S
C1852 C1850 1.327 1_554 S
C1852 C1871 1.429 . S
C1852 H1876 0.950 . S
C1853 C1870 1.574 . S
C1853 C1872 1.368 . S
C1853 H1877 0.949 . S
H1854 C1858 0.949 . S
C1855 C1856 1.349 . S
C1855 C1857 1.327 . S
C1855 H1878 0.950 . S
C1856 C1855 1.349 . S
C1856 C1868 1.349 . S
C1857 C1855 1.327 . S
C1857 C1873 1.429 . S
C1857 H1879 0.950 . S
C1858 H1854 0.949 . S
C1858 C1866 1.574 . S
C1858 C1874 1.368 . S
H1859 C1867 0.950 . S
H1860 C1865 0.950 . S
H1861 C1866 0.949 . S
H1862 C1868 0.950 . S
H1863 C1869 0.950 . S
H1864 C1870 0.949 . S
C1865 H1860 0.950 . S
C1865 C1867 1.327 1_554 S
C1865 C1871 1.429 . S
C1866 C1858 1.574 . S
C1866 H1861 0.949 . S
C1866 C1872 1.368 . S
C1867 C1851 1.349 . S
C1867 H1859 0.950 . S
C1867 C1865 1.327 1_556 S
C1868 C1856 1.349 . S
C1868 H1862 0.950 . S
C1868 C1869 1.327 . S
C1869 H1863 0.950 . S
C1869 C1868 1.327 . S
C1869 C1873 1.429 . S
C1870 C1853 1.574 . S
C1870 H1864 0.949 . S
C1870 C1874 1.368 . S
C1871 C1852 1.429 . S
C1871 C1865 1.429 . S
C1871 C1872 1.523 . S
C1872 C1853 1.368 . S
C1872 C1866 1.368 . S
C1872 C1871 1.523 . S
C1873 C1857 1.429 . S
C1873 C1869 1.429 . S
C1873 C1874 1.523 . S
C1874 C1858 1.368 . S
C1874 C1870 1.368 . S
C1874 C1873 1.523 . S
H1875 C1850 0.950 . S
H1876 C1852 0.950 . S
H1877 C1853 0.949 . S
H1878 C1855 0.950 . S
H1879 C1857 0.950 . S
C1880 C1881 1.349 . S
C1880 C1882 1.327 . S
C1880 H1905 0.950 . S
C1881 C1880 1.349 . S
C1881 C1897 1.349 . S
C1882 C1880 1.327 . S
C1882 C1901 1.429 . S
C1882 H1906 0.950 . S
C1883 C1900 1.574 . S
C1883 C1902 1.368 . S
C1883 H1907 0.949 . S
H1884 C1888 0.949 . S
C1885 C1886 1.349 . S
C1885 C1887 1.327 . S
C1885 H1908 0.950 . S
C1886 C1885 1.349 . S
C1886 C1898 1.349 . S
C1887 C1885 1.327 . S
C1887 C1903 1.429 . S
C1887 H1909 0.950 . S
C1888 H1884 0.949 . S
C1888 C1896 1.574 . S
C1888 C1904 1.368 . S
H1889 C1897 0.950 . S
H1890 C1895 0.950 . S
H1891 C1896 0.949 . S
H1892 C1898 0.950 . S
H1893 C1899 0.950 . S
H1894 C1900 0.949 . S
C1895 H1890 0.950 . S
C1895 C1897 1.327 . S
C1895 C1901 1.429 . S
C1896 C1888 1.574 . S
C1896 H1891 0.949 . S
C1896 C1902 1.368 . S
C1897 C1881 1.349 . S
C1897 H1889 0.950 . S
C1897 C1895 1.327 . S
C1898 C1886 1.349 . S
C1898 H1892 0.950 . S
C1898 C1899 1.327 . S
C1899 H1893 0.950 . S
C1899 C1898 1.327 . S
C1899 C1903 1.429 . S
C1900 C1883 1.574 . S
C1900 H1894 0.949 . S
C1900 C1904 1.368 . S
C1901 C1882 1.429 . S
C1901 C1895 1.429 . S
C1901 C1902 1.523 . S
C1902 C1883 1.368 . S
C1902 C1896 1.368 . S
C1902 C1901 1.523 . S
C1903 C1887 1.429 . S
C1903 C1899 1.429 . S
C1903 C1904 1.523 . S
C1904 C1888 1.368 . S
C1904 C1900 1.368 . S
C1904 C1903 1.523 . S
H1905 C1880 0.950 . S
H1906 C1882 0.950 . S
H1907 C1883 0.949 . S
H1908 C1885 0.950 . S
H1909 C1887 0.950 . S
C1910 C1911 1.349 . S
C1910 C1912 1.327 . S
C1910 H1935 0.950 . S
C1911 C1910 1.349 . S
C1911 C1927 1.349 . S
C1912 C1910 1.327 . S
C1912 C1931 1.429 . S
C1912 H1936 0.950 . S
C1913 C1930 1.574 . S
C1913 C1932 1.368 . S
C1913 H1937 0.949 . S
H1914 C1918 0.949 . S
C1915 C1916 1.349 . S
C1915 C1917 1.327 . S
C1915 H1938 0.950 . S
C1916 C1915 1.349 . S
C1916 C1928 1.349 . S
C1917 C1915 1.327 . S
C1917 C1933 1.429 . S
C1917 H1939 0.950 . S
C1918 H1914 0.949 . S
C1918 C1926 1.574 . S
C1918 C1934 1.368 . S
H1919 C1927 0.950 . S
H1920 C1925 0.950 . S
H1921 C1926 0.949 . S
H1922 C1928 0.950 . S
H1923 C1929 0.950 . S
H1924 C1930 0.949 . S
C1925 H1920 0.950 . S
C1925 C1927 1.327 . S
C1925 C1931 1.429 . S
C1926 C1918 1.574 . S
C1926 H1921 0.949 . S
C1926 C1932 1.368 . S
C1927 C1911 1.349 . S
C1927 H1919 0.950 . S
C1927 C1925 1.327 . S
C1928 C1916 1.349 . S
C1928 H1922 0.950 . S
C1928 C1929 1.327 . S
C1929 H1923 0.950 . S
C1929 C1928 1.327 . S
C1929 C1933 1.429 . S
C1930 C1913 1.574 . S
C1930 H1924 0.949 . S
C1930 C1934 1.368 . S
C1931 C1912 1.429 . S
C1931 C1925 1.429 . S
C1931 C1932 1.523 . S
C1932 C1913 1.368 . S
C1932 C1926 1.368 . S
C1932 C1931 1.523 . S
C1933 C1917 1.429 . S
C1933 C1929 1.429 . S
C1933 C1934 1.523 . S
C1934 C1918 1.368 . S
C1934 C1930 1.368 . S
C1934 C1933 1.523 . S
H1935 C1910 0.950 . S
H1936 C1912 0.950 . S
H1937 C1913 0.949 . S
H1938 C1915 0.950 . S
H1939 C1917 0.950 . S
C1940 C1941 1.349 . S
C1940 C1942 1.327 . S
C1940 H1965 0.950 . S
C1941 C1940 1.349 . S
C1941 C1957 1.349 . S
C1942 C1940 1.327 . S
C1942 C1961 1.429 . S
C1942 H1966 0.950 . S
C1943 C1960 1.574 . S
C1943 C1962 1.368 . S
C1943 H1967 0.949 . S
H1944 C1948 0.949 . S
C1945 C1946 1.349 . S
C1945 C1947 1.327 . S
C1945 H1968 0.950 . S
C1946 C1945 1.349 . S
C1946 C1958 1.349 . S
C1947 C1945 1.327 . S
C1947 C1963 1.429 . S
C1947 H1969 0.950 . S
C1948 H1944 0.949 . S
C1948 C1956 1.574 . S
C1948 C1964 1.368 . S
H1949 C1957 0.950 . S
H1950 C1955 0.950 . S
H1951 C1956 0.949 . S
H1952 C1958 0.950 . S
H1953 C1959 0.950 . S
H1954 C1960 0.949 . S
C1955 H1950 0.950 . S
C1955 C1957 1.327 . S
C1955 C1961 1.429 . S
C1956 C1948 1.574 . S
C1956 H1951 0.949 . S
C1956 C1962 1.368 . S
C1957 C1941 1.349 . S
C1957 H1949 0.950 . S
C1957 C1955 1.327 . S
C1958 C1946 1.349 . S
C1958 H1952 0.950 . S
C1958 C1959 1.327 . S
C1959 H1953 0.950 . S
C1959 C1958 1.327 . S
C1959 C1963 1.429 . S
C1960 C1943 1.574 . S
C1960 H1954 0.949 . S
C1960 C1964 1.368 . S
C1961 C1942 1.429 . S
C1961 C1955 1.429 . S
C1961 C1962 1.523 . S
C1962 C1943 1.368 . S
C1962 C1956 1.368 . S
C1962 C1961 1.523 . S
C1963 C1947 1.429 . S
C1963 C1959 1.429 . S
C1963 C1964 1.523 . S
C1964 C1948 1.368 . S
C1964 C1960 1.368 . S
C1964 C1963 1.523 . S
H1965 C1940 0.950 . S
H1966 C1942 0.950 . S
H1967 C1943 0.949 . S
H1968 C1945 0.950 . S
H1969 C1947 0.950 . S
C1970 C1971 1.349 . S
C1970 C1972 1.327 . S
C1970 H1995 0.950 . S
C1971 C1970 1.349 . S
C1971 C1987 1.349 . S
C1972 C1970 1.327 . S
C1972 C1991 1.429 . S
C1972 H1996 0.950 . S
C1973 C1990 1.574 . S
C1973 C1992 1.368 . S
C1973 H1997 0.949 . S
H1974 C1978 0.949 . S
C1975 C1976 1.349 . S
C1975 C1977 1.327 . S
C1975 H1998 0.950 . S
C1976 C1975 1.349 . S
C1976 C1988 1.349 . S
C1977 C1975 1.327 . S
C1977 C1993 1.429 . S
C1977 H1999 0.950 . S
C1978 H1974 0.949 . S
C1978 C1986 1.574 . S
C1978 C1994 1.368 . S
H1979 C1987 0.950 . S
H1980 C1985 0.950 . S
H1981 C1986 0.949 . S
H1982 C1988 0.950 . S
H1983 C1989 0.950 . S
H1984 C1990 0.949 . S
C1985 H1980 0.950 . S
C1985 C1987 1.327 . S
C1985 C1991 1.429 . S
C1986 C1978 1.574 . S
C1986 H1981 0.949 . S
C1986 C1992 1.368 . S
C1987 C1971 1.349 . S
C1987 H1979 0.950 . S
C1987 C1985 1.327 . S
C1988 C1976 1.349 . S
C1988 H1982 0.950 . S
C1988 C1989 1.327 . S
C1989 H1983 0.950 . S
C1989 C1988 1.327 . S
C1989 C1993 1.429 . S
C1990 C1973 1.574 . S
C1990 H1984 0.949 . S
C1990 C1994 1.368 . S
C1991 C1972 1.429 . S
C1991 C1985 1.429 . S
C1991 C1992 1.523 . S
C1992 C1973 1.368 . S
C1992 C1986 1.368 . S
C1992 C1991 1.523 . S
C1993 C1977 1.429 . S
C1993 C1989 1.429 . S
C1993 C1994 1.523 . S
C1994 C1978 1.368 . S
C1994 C1990 1.368 . S
C1994 C1993 1.523 . S
H1995 C1970 0.950 . S
H1996 C1972 0.950 . S
H1997 C1973 0.949 . S
H1998 C1975 0.950 . S
H1999 C1977 0.950 . S
C2000 C2001 1.349 . S
C2000 C2002 1.327 . S
C2000 H2025 0.950 . S
C2001 C2000 1.349 . S
C2001 C2017 1.349 . S
C2002 C2000 1.327 . S
C2002 C2021 1.429 . S
C2002 H2026 0.950 . S
C2003 C2020 1.574 . S
C2003 C2022 1.368 . S
C2003 H2027 0.949 . S
H2004 C2008 0.949 . S
C2005 C2006 1.349 . S
C2005 C2007 1.327 . S
C2005 H2028 0.950 . S
C2006 C2005 1.349 . S
C2006 C2018 1.349 . S
C2007 C2005 1.327 . S
C2007 C2023 1.429 . S
C2007 H2029 0.950 . S
C2008 H2004 0.949 . S
C2008 C2016 1.574 . S
C2008 C2024 1.368 . S
H2009 C2017 0.950 . S
H2010 C2015 0.950 . S
H2011 C2016 0.949 . S
H2012 C2018 0.950 . S
H2013 C2019 0.950 . S
H2014 C2020 0.949 . S
C2015 H2010 0.950 . S
C2015 C2017 1.327 . S
C2015 C2021 1.429 . S
C2016 C2008 1.574 . S
C2016 H2011 0.949 . S
C2016 C2022 1.368 . S
C2017 C2001 1.349 . S
C2017 H2009 0.950 . S
C2017 C2015 1.327 . S
C2018 C2006 1.349 . S
C2018 H2012 0.950 . S
C2018 C2019 1.327 . S
C2019 H2013 0.950 . S
C2019 C2018 1.327 . S
C2019 C2023 1.429 . S
C2020 C2003 1.574 . S
C2020 H2014 0.949 . S
C2020 C2024 1.368 . S
C2021 C2002 1.429 . S
C2021 C2015 1.429 . S
C2021 C2022 1.523 . S
C2022 C2003 1.368 . S
C2022 C2016 1.368 . S
C2022 C2021 1.523 . S
C2023 C2007 1.429 . S
C2023 C2019 1.429 . S
C2023 C2024 1.523 . S
C2024 C2008 1.368 . S
C2024 C2020 1.368 . S
C2024 C2023 1.523 . S
H2025 C2000 0.950 . S
H2026 C2002 0.950 . S
H2027 C2003 0.949 . S
H2028 C2005 0.950 . S
H2029 C2007 0.950 . S
C2030 C2031 1.349 . S
C2030 C2032 1.327 . S
C2030 H2055 0.950 . S
C2031 C2030 1.349 . S
C2031 C2047 1.349 . S
C2032 C2030 1.327 . S
C2032 C2051 1.429 . S
C2032 H2056 0.950 . S
C2033 C2050 1.574 . S
C2033 C2052 1.368 . S
C2033 H2057 0.949 . S
H2034 C2038 0.949 . S
C2035 C2036 1.349 . S
C2035 C2037 1.327 . S
C2035 H2058 0.950 . S
C2036 C2035 1.349 . S
C2036 C2048 1.349 . S
C2037 C2035 1.327 . S
C2037 C2053 1.429 . S
C2037 H2059 0.950 . S
C2038 H2034 0.949 . S
C2038 C2046 1.574 . S
C2038 C2054 1.368 . S
H2039 C2047 0.950 . S
H2040 C2045 0.950 . S
H2041 C2046 0.949 . S
H2042 C2048 0.950 . S
H2043 C2049 0.950 . S
H2044 C2050 0.949 . S
C2045 H2040 0.950 . S
C2045 C2047 1.327 . S
C2045 C2051 1.429 . S
C2046 C2038 1.574 . S
C2046 H2041 0.949 . S
C2046 C2052 1.368 . S
C2047 C2031 1.349 . S
C2047 H2039 0.950 . S
C2047 C2045 1.327 . S
C2048 C2036 1.349 . S
C2048 H2042 0.950 . S
C2048 C2049 1.327 . S
C2049 H2043 0.950 . S
C2049 C2048 1.327 . S
C2049 C2053 1.429 . S
C2050 C2033 1.574 . S
C2050 H2044 0.949 . S
C2050 C2054 1.368 . S
C2051 C2032 1.429 . S
C2051 C2045 1.429 . S
C2051 C2052 1.523 . S
C2052 C2033 1.368 . S
C2052 C2046 1.368 . S
C2052 C2051 1.523 . S
C2053 C2037 1.429 . S
C2053 C2049 1.429 . S
C2053 C2054 1.523 . S
C2054 C2038 1.368 . S
C2054 C2050 1.368 . S
C2054 C2053 1.523 . S
H2055 C2030 0.950 . S
H2056 C2032 0.950 . S
H2057 C2033 0.949 . S
H2058 C2035 0.950 . S
H2059 C2037 0.950 . S
C2060 C2061 1.349 . S
C2060 C2062 1.327 . S
C2060 H2085 0.950 . S
C2061 C2060 1.349 . S
C2061 C2077 1.349 . S
C2062 C2060 1.327 . S
C2062 C2081 1.429 . S
C2062 H2086 0.950 . S
C2063 C2080 1.574 . S
C2063 C2082 1.368 . S
C2063 H2087 0.949 . S
H2064 C2068 0.949 . S
C2065 C2066 1.349 . S
C2065 C2067 1.327 . S
C2065 H2088 0.950 . S
C2066 C2065 1.349 . S
C2066 C2078 1.349 . S
C2067 C2065 1.327 . S
C2067 C2083 1.429 . S
C2067 H2089 0.950 . S
C2068 H2064 0.949 . S
C2068 C2076 1.574 . S
C2068 C2084 1.368 . S
H2069 C2077 0.950 . S
H2070 C2075 0.950 . S
H2071 C2076 0.949 . S
H2072 C2078 0.950 . S
H2073 C2079 0.950 . S
H2074 C2080 0.949 . S
C2075 H2070 0.950 . S
C2075 C2077 1.327 . S
C2075 C2081 1.429 . S
C2076 C2068 1.574 . S
C2076 H2071 0.949 . S
C2076 C2082 1.368 . S
C2077 C2061 1.349 . S
C2077 H2069 0.950 . S
C2077 C2075 1.327 . S
C2078 C2066 1.349 . S
C2078 H2072 0.950 . S
C2078 C2079 1.327 . S
C2079 H2073 0.950 . S
C2079 C2078 1.327 . S
C2079 C2083 1.429 . S
C2080 C2063 1.574 . S
C2080 H2074 0.949 . S
C2080 C2084 1.368 . S
C2081 C2062 1.429 . S
C2081 C2075 1.429 . S
C2081 C2082 1.523 . S
C2082 C2063 1.368 . S
C2082 C2076 1.368 . S
C2082 C2081 1.523 . S
C2083 C2067 1.429 . S
C2083 C2079 1.429 . S
C2083 C2084 1.523 . S
C2084 C2068 1.368 . S
C2084 C2080 1.368 . S
C2084 C2083 1.523 . S
H2085 C2060 0.950 . S
H2086 C2062 0.950 . S
H2087 C2063 0.949 . S
H2088 C2065 0.950 . S
H2089 C2067 0.950 . S
C2090 C2091 1.349 . S
C2090 C2092 1.327 . S
C2090 H2115 0.950 . S
C2091 C2090 1.349 . S
C2091 C2107 1.349 . S
C2092 C2090 1.327 . S
C2092 C2111 1.429 . S
C2092 H2116 0.950 . S
C2093 C2110 1.574 . S
C2093 C2112 1.368 . S
C2093 H2117 0.949 . S
H2094 C2098 0.949 . S
C2095 C2096 1.349 . S
C2095 C2097 1.327 . S
C2095 H2118 0.950 . S
C2096 C2095 1.349 . S
C2096 C2108 1.349 . S
C2097 C2095 1.327 . S
C2097 C2113 1.429 . S
C2097 H2119 0.950 . S
C2098 H2094 0.949 . S
C2098 C2106 1.574 . S
C2098 C2114 1.368 . S
H2099 C2107 0.950 . S
H2100 C2105 0.950 . S
H2101 C2106 0.949 . S
H2102 C2108 0.950 . S
H2103 C2109 0.950 1_545 S
H2104 C2110 0.949 1_565 S
C2105 H2100 0.950 . S
C2105 C2107 1.327 . S
C2105 C2111 1.429 . S
C2106 C2098 1.574 . S
C2106 H2101 0.949 . S
C2106 C2112 1.368 . S
C2107 C2091 1.349 . S
C2107 H2099 0.950 . S
C2107 C2105 1.327 . S
C2108 C2096 1.349 . S
C2108 H2102 0.950 . S
C2108 C2109 1.327 . S
C2109 H2103 0.950 1_565 S
C2109 C2108 1.327 . S
C2109 C2113 1.429 . S
C2110 C2093 1.574 . S
C2110 H2104 0.949 1_545 S
C2110 C2114 1.368 . S
C2111 C2092 1.429 . S
C2111 C2105 1.429 . S
C2111 C2112 1.523 . S
C2112 C2093 1.368 . S
C2112 C2106 1.368 . S
C2112 C2111 1.523 . S
C2113 C2097 1.429 . S
C2113 C2109 1.429 . S
C2113 C2114 1.523 1_565 S
C2114 C2098 1.368 . S
C2114 C2110 1.368 . S
C2114 C2113 1.523 1_545 S
H2115 C2090 0.950 . S
H2116 C2092 0.950 . S
H2117 C2093 0.949 . S
H2118 C2095 0.950 . S
H2119 C2097 0.950 . S
C686 C520 1.596 . S
C681 C177 1.571 . S
C716 C535 1.740 . S
C711 C209 1.692 . S
C741 C253 1.636 . S
C746 C548 1.682 . S
C776 C562 1.531 . S
C771 C157 1.588 . S
C806 C574 1.682 . S
C801 C343 1.722 . S
C836 C588 1.253 . S
C831 C401 1.279 . S
C861 C369 1.788 . S
C866 C602 1.788 . S
C896 C617 1.419 . S
C891 C317 1.349 . S
C921 C375 1.664 . S
C926 C633 1.696 . S
C956 C646 1.527 . S
C951 C305 1.467 . S
C981 C349 1.616 . S
C986 C631 1.599 . S
C1016 C644 1.469 . S
C1011 C413 1.491 . S
C1041 C241 1.829 . S
C1046 C660 1.863 . S
C1071 C151 1.545 . S
C1076 C659 1.510 . S
C1101 C189 1.756 . S
C1106 C658 1.741 . S
C1131 C215 1.544 . S
C1136 C661 1.594 . S
C1161 C113 1.707 . S
C1166 C563 1.710 . S
C1191 C471 1.473 . S
C1196 C561 1.472 . S
C1226 C521 1.535 . S
C1221 C509 1.473 . S
C1256 C532 1.766 . S
C1251 C279 1.737 . S
C1281 C145 1.569 . S
C1286 C577 1.538 . S
C1316 C618 1.970 . S
C1311 C381 1.927 . S
C1346 C575 1.475 . S
C1341 C311 1.404 . S
C1376 C603 1.464 . S
C1371 C407 1.495 . S
C1406 C604 1.596 . S
C1401 C465 1.571 . S
C1431 C497 1.692 . S
C1436 C619 1.739 . S
C1461 C285 1.636 . S
C1466 C576 1.682 . S
C1496 C590 1.531 . S
C1491 C445 1.588 . S
C1521 C119 1.722 . S
C1526 C546 1.682 . S
C1556 C560 1.253 . S
C1551 C17 1.279 . S
C1586 C518 1.788 . S
C1581 C49 1.788 . S
C1616 C533 1.419 . S
C1611 C93 1.349 . S
C1641 C55 1.664 . S
C1646 C647 1.696 . S
C1671 C81 1.467 . S
C1676 C632 1.527 . S
C1701 C125 1.616 . S
C1706 C645 1.599 . S
C1731 C29 1.491 . S
C1736 C630 1.469 . S
C1766 C674 1.863 . S
C1761 C273 1.828 . S
C1796 C673 1.510 . S
C1791 C439 1.545 . S
C1826 C672 1.741 . S
C1821 C477 1.755 . S
C1851 C503 1.544 . S
C1856 C675 1.594 . S
C1881 C337 1.707 . S
C1886 C591 1.710 . S
C1916 C589 1.472 . S
C1911 C183 1.473 . S
C1946 C605 1.535 . S
C1941 C221 1.474 . S
C1976 C616 1.766 . S
C1971 C247 1.737 . S
C2001 C433 1.569 . S
C2006 C549 1.538 . S
C2036 C534 1.970 . S
C2031 C61 1.927 . S
C2061 C87 1.404 . S
C2066 C547 1.475 . S
C2096 C519 1.464 . S
C2091 C23 1.495 . S
