# Generated by pormake.
# Topology pyr, (3,6)-cn, num edge types: 1
# Building blocks:
#     Node 0, Type 0, BuildingBlock: MIDCAF_clean_linker_0, # of connection points: 3
#     Node 1, Type 0, BuildingBlock: MIDCAF_clean_linker_0, # of connection points: 3
#     Node 2, Type 0, BuildingBlock: MIDCAF_clean_linker_0, # of connection points: 3
#     Node 3, Type 0, BuildingBlock: MIDCAF_clean_linker_0, # of connection points: 3
#     Node 4, Type 0, BuildingBlock: MIDCAF_clean_linker_0, # of connection points: 3
#     Node 5, Type 0, BuildingBlock: MIDCAF_clean_linker_0, # of connection points: 3
#     Node 6, Type 0, BuildingBlock: MIDCAF_clean_linker_0, # of connection points: 3
#     Node 7, Type 0, BuildingBlock: MIDCAF_clean_linker_0, # of connection points: 3
#     Node 8, Type 1, BuildingBlock: BETDEL_clean_sbu_0, # of connection points: 6
#     Node 9, Type 1, BuildingBlock: BETDEL_clean_sbu_0, # of connection points: 6
#     Node 10, Type 1, BuildingBlock: BETDEL_clean_sbu_0, # of connection points: 6
#     Node 11, Type 1, BuildingBlock: BETDEL_clean_sbu_0, # of connection points: 6
#     Edge 12, Type (0, 1), BuildingBlock: XIVTED_clean_linker_0, # of connection points: 2
#     Edge 13, Type (0, 1), BuildingBlock: XIVTED_clean_linker_0, # of connection points: 2
#     Edge 14, Type (0, 1), BuildingBlock: XIVTED_clean_linker_0, # of connection points: 2
#     Edge 15, Type (0, 1), BuildingBlock: XIVTED_clean_linker_0, # of connection points: 2
#     Edge 16, Type (0, 1), BuildingBlock: XIVTED_clean_linker_0, # of connection points: 2
#     Edge 17, Type (0, 1), BuildingBlock: XIVTED_clean_linker_0, # of connection points: 2
#     Edge 18, Type (0, 1), BuildingBlock: XIVTED_clean_linker_0, # of connection points: 2
#     Edge 19, Type (0, 1), BuildingBlock: XIVTED_clean_linker_0, # of connection points: 2
#     Edge 20, Type (0, 1), BuildingBlock: XIVTED_clean_linker_0, # of connection points: 2
#     Edge 21, Type (0, 1), BuildingBlock: XIVTED_clean_linker_0, # of connection points: 2
#     Edge 22, Type (0, 1), BuildingBlock: XIVTED_clean_linker_0, # of connection points: 2
#     Edge 23, Type (0, 1), BuildingBlock: XIVTED_clean_linker_0, # of connection points: 2
#     Edge 24, Type (0, 1), BuildingBlock: XIVTED_clean_linker_0, # of connection points: 2
#     Edge 25, Type (0, 1), BuildingBlock: XIVTED_clean_linker_0, # of connection points: 2
#     Edge 26, Type (0, 1), BuildingBlock: XIVTED_clean_linker_0, # of connection points: 2
#     Edge 27, Type (0, 1), BuildingBlock: XIVTED_clean_linker_0, # of connection points: 2
#     Edge 28, Type (0, 1), BuildingBlock: XIVTED_clean_linker_0, # of connection points: 2
#     Edge 29, Type (0, 1), BuildingBlock: XIVTED_clean_linker_0, # of connection points: 2
#     Edge 30, Type (0, 1), BuildingBlock: XIVTED_clean_linker_0, # of connection points: 2
#     Edge 31, Type (0, 1), BuildingBlock: XIVTED_clean_linker_0, # of connection points: 2
#     Edge 32, Type (0, 1), BuildingBlock: XIVTED_clean_linker_0, # of connection points: 2
#     Edge 33, Type (0, 1), BuildingBlock: XIVTED_clean_linker_0, # of connection points: 2
#     Edge 34, Type (0, 1), BuildingBlock: XIVTED_clean_linker_0, # of connection points: 2
#     Edge 35, Type (0, 1), BuildingBlock: XIVTED_clean_linker_0, # of connection points: 2
# Relax obj value: 0.028
# Max RMSD: 0.091
# Mean RMSD: 0.039
data_MOF--net-pyr--node1-BETDEL_clean_sbu_0--node2-MIDCAF_clean_linker_0--edge1-XIVTED_clean_linker_0
_symmetry_space_group_name_H-M    P1
_symmetry_Int_Tables_number       1
_symmetry_cell_setting            triclinic
loop_
_symmetry_equiv_pos_as_xyz
'x, y, z'
_cell_length_a     45.265899
_cell_length_b     47.119551
_cell_length_c     43.500874
_cell_angle_alpha  91.576275
_cell_angle_beta   89.449717
_cell_angle_gamma 94.827664
loop_
_atom_site_label
_atom_site_type_symbol
_atom_site_fract_x
_atom_site_fract_y
_atom_site_fract_z
_atom_type_partial_charge
C0 C 0.14479 0.16041 0.25275 0.0
C1 C 0.14792 0.13102 0.25396 0.0
C2 C 0.17078 0.11954 0.23678 0.0
C3 C 0.19001 0.13704 0.21884 0.0
H4 H 0.28265 0.15476 0.19411 0.0
H5 H 0.32573 0.13349 0.1726 0.0
H6 H 0.32236 0.18511 0.09241 0.0
H7 H 0.2791 0.20655 0.11389 0.0
H8 H 0.23073 0.25436 0.11456 0.0
H9 H 0.20745 0.29393 0.09212 0.0
H10 H 0.14305 0.2914 0.16614 0.0
H11 H 0.16628 0.25256 0.18871 0.0
H12 H 0.16061 0.20033 0.2339 0.0
H13 H 0.12791 0.17014 0.26621 0.0
H14 H 0.1736 0.09695 0.23676 0.0
H15 H 0.20716 0.12747 0.20559 0.0
N16 N 0.23221 0.17628 0.18712 0.0
N17 N 0.23885 0.21625 0.15596 0.0
N18 N 0.19595 0.20877 0.1863 0.0
C19 C 0.24905 0.19215 0.16687 0.0
C20 C 0.21234 0.22477 0.16585 0.0
C21 C 0.20564 0.18448 0.19691 0.0
C22 C 0.27726 0.18207 0.15551 0.0
C23 C 0.29129 0.16187 0.17206 0.0
C24 C 0.31612 0.14986 0.1599 0.0
C25 C 0.32721 0.15759 0.13081 0.0
C26 C 0.31403 0.17868 0.11482 0.0
C27 C 0.28938 0.19099 0.12717 0.0
C28 C 0.20028 0.25021 0.15335 0.0
C29 C 0.21185 0.26254 0.12623 0.0
C30 C 0.19843 0.28503 0.11326 0.0
C31 C 0.17346 0.29573 0.12738 0.0
C32 C 0.1625 0.28389 0.15492 0.0
C33 C 0.17572 0.26143 0.16773 0.0
C34 C 0.18651 0.16629 0.21732 0.0
C35 C 0.16373 0.17781 0.23445 0.0
C36 C 0.2188 0.88088 0.61634 0.0
C37 C 0.19063 0.86857 0.60744 0.0
C38 C 0.18387 0.83916 0.61182 0.0
C39 C 0.20428 0.82288 0.62574 0.0
H40 H 0.27666 0.75585 0.60616 0.0
H41 H 0.30327 0.71553 0.58779 0.0
H42 H 0.33884 0.70783 0.67865 0.0
H43 H 0.31278 0.74795 0.69693 0.0
H44 H 0.31608 0.79904 0.74268 0.0
H45 H 0.33651 0.82347 0.78874 0.0
H46 H 0.28424 0.89415 0.77283 0.0
H47 H 0.26406 0.87006 0.72651 0.0
H48 H 0.25974 0.87517 0.63869 0.0
H49 H 0.22546 0.9031 0.61247 0.0
H50 H 0.16241 0.82882 0.60567 0.0
H51 H 0.19817 0.80057 0.62985 0.0
N52 N 0.26083 0.79509 0.64575 0.0
N53 N 0.28809 0.79397 0.69132 0.0
N54 N 0.25999 0.83233 0.68278 0.0
C55 C 0.27962 0.7818 0.66376 0.0
C56 C 0.27828 0.81911 0.70109 0.0
C57 C 0.25102 0.82042 0.65533 0.0
C58 C 0.29278 0.75544 0.65295 0.0
C59 C 0.28988 0.74535 0.62229 0.0
C60 C 0.30508 0.72221 0.61176 0.0
C61 C 0.3235 0.70876 0.63167 0.0
C62 C 0.32537 0.71812 0.66256 0.0
C63 C 0.31024 0.74111 0.67306 0.0
C64 C 0.28868 0.83271 0.73059 0.0
C65 C 0.30868 0.81967 0.74909 0.0
C66 C 0.32025 0.83357 0.77567 0.0
C67 C 0.3121 0.8608 0.78429 0.0
C68 C 0.29124 0.87334 0.76651 0.0
C69 C 0.27963 0.85946 0.73998 0.0
C70 C 0.23148 0.83584 0.63615 0.0
C71 C 0.23872 0.86482 0.63099 0.0
C72 C 0.63342 0.23669 0.89781 0.0
C73 C 0.60674 0.22366 0.88586 0.0
C74 C 0.59368 0.23636 0.86101 0.0
C75 C 0.60691 0.26147 0.84854 0.0
H76 H 0.59149 0.32899 0.7897 0.0
H77 H 0.56988 0.35201 0.74652 0.0
H78 H 0.65225 0.40346 0.73327 0.0
H79 H 0.67387 0.38068 0.77624 0.0
H80 H 0.70993 0.39337 0.846 0.0
H81 H 0.75519 0.41495 0.86945 0.0
H82 H 0.77346 0.33298 0.90381 0.0
H83 H 0.72734 0.31182 0.88166 0.0
H84 H 0.66711 0.27114 0.8954 0.0
H85 H 0.64392 0.22781 0.91719 0.0
H86 H 0.57334 0.22672 0.85093 0.0
H87 H 0.59619 0.27057 0.82942 0.0
N88 N 0.63494 0.31436 0.8242 0.0
N89 N 0.67387 0.3506 0.82498 0.0
N90 N 0.67367 0.31331 0.85954 0.0
C91 C 0.64798 0.33895 0.81262 0.0
C92 C 0.68685 0.33792 0.84843 0.0
C93 C 0.64769 0.30138 0.8477 0.0
C94 C 0.63447 0.35291 0.78653 0.0
C95 C 0.60501 0.34521 0.77759 0.0
C96 C 0.59255 0.3585 0.75296 0.0
C97 C 0.60937 0.37951 0.73642 0.0
C98 C 0.63879 0.38716 0.74533 0.0
C99 C 0.65112 0.37417 0.77014 0.0
C100 C 0.71495 0.35087 0.86197 0.0
C101 C 0.72363 0.37995 0.85853 0.0
C102 C 0.7498 0.3923 0.87188 0.0
C103 C 0.76829 0.3758 0.88858 0.0
C104 C 0.75966 0.34659 0.89169 0.0
C105 C 0.73324 0.33436 0.87877 0.0
C106 C 0.63356 0.27454 0.86059 0.0
C107 C 0.64665 0.26175 0.88536 0.0
C108 C 0.73684 0.63865 0.39992 0.0
C109 C 0.72581 0.61075 0.39154 0.0
C110 C 0.73944 0.59678 0.36689 0.0
C111 C 0.76353 0.61035 0.35112 0.0
H112 H 0.81495 0.60499 0.27197 0.0
H113 H 0.83695 0.58167 0.22791 0.0
H114 H 0.91135 0.64547 0.23034 0.0
H115 H 0.88891 0.66934 0.2739 0.0
H116 H 0.88694 0.72327 0.32038 0.0
H117 H 0.90835 0.76878 0.34175 0.0
H118 H 0.83495 0.77077 0.40576 0.0
H119 H 0.81394 0.72526 0.38506 0.0
H120 H 0.76866 0.67369 0.39143 0.0
H121 H 0.7266 0.65029 0.41839 0.0
H122 H 0.73175 0.57518 0.36001 0.0
H123 H 0.77355 0.59886 0.33238 0.0
N124 N 0.81281 0.64007 0.31841 0.0
N125 N 0.84831 0.67916 0.31439 0.0
N126 N 0.81225 0.67866 0.35344 0.0
C127 C 0.83672 0.65316 0.30377 0.0
C128 C 0.83611 0.6921 0.3392 0.0
C129 C 0.80046 0.65268 0.34332 0.0
C130 C 0.85013 0.63907 0.27665 0.0
C131 C 0.83599 0.61413 0.26315 0.0
C132 C 0.84872 0.60062 0.23789 0.0
C133 C 0.87605 0.61155 0.22554 0.0
C134 C 0.8901 0.63662 0.23891 0.0
C135 C 0.87727 0.65024 0.26408 0.0
C136 C 0.84878 0.72037 0.3511 0.0
C137 C 0.87531 0.73344 0.33896 0.0
C138 C 0.88753 0.75963 0.35111 0.0
C139 C 0.8735 0.77337 0.37565 0.0
C140 C 0.84669 0.76056 0.38729 0.0
C141 C 0.83454 0.73443 0.37525 0.0
C142 C 0.77463 0.63822 0.35964 0.0
C143 C 0.76092 0.65217 0.38424 0.0
C144 C 0.68455 0.83573 0.83056 0.0
C145 C 0.67631 0.83108 0.86132 0.0
C146 C 0.68895 0.8097 0.87732 0.0
C147 C 0.71045 0.79408 0.86325 0.0
H148 H 0.77083 0.73737 0.88282 0.0
H149 H 0.80061 0.70814 0.91364 0.0
H150 H 0.85509 0.69188 0.83405 0.0
H151 H 0.82584 0.72132 0.80343 0.0
H152 H 0.83983 0.77485 0.76191 0.0
H153 H 0.87352 0.80384 0.72963 0.0
H154 H 0.80802 0.8648 0.72164 0.0
H155 H 0.77439 0.83619 0.75476 0.0
H156 H 0.71294 0.82514 0.79318 0.0
H157 H 0.67521 0.85219 0.81776 0.0
H158 H 0.68268 0.8055 0.90096 0.0
H159 H 0.72045 0.77839 0.87659 0.0
N160 N 0.75685 0.76434 0.83402 0.0
N161 N 0.79655 0.76571 0.79906 0.0
N162 N 0.76059 0.79825 0.79535 0.0
C163 C 0.78211 0.75368 0.82351 0.0
C164 C 0.78603 0.78797 0.78483 0.0
C165 C 0.74574 0.78641 0.81977 0.0
C166 C 0.79628 0.73203 0.8408 0.0
C167 C 0.78882 0.72713 0.87177 0.0
C168 C 0.80587 0.7104 0.88944 0.0
C169 C 0.83054 0.69828 0.87639 0.0
C170 C 0.83669 0.70163 0.84494 0.0
C171 C 0.81979 0.71836 0.82735 0.0
C172 C 0.80446 0.80332 0.76129 0.0
C173 C 0.83236 0.79426 0.75305 0.0
C174 C 0.85172 0.81084 0.7344 0.0
C175 C 0.8436 0.8368 0.7234 0.0
C176 C 0.81516 0.8452 0.73034 0.0
C177 C 0.79578 0.82863 0.74909 0.0
C178 C 0.71997 0.79982 0.83302 0.0
C179 C 0.70627 0.82033 0.81657 0.0
C180 C 0.73661 0.15415 0.21091 0.0
C181 C 0.71046 0.16148 0.19704 0.0
C182 C 0.69492 0.18311 0.21092 0.0
C183 C 0.70458 0.19627 0.23858 0.0
H184 H 0.6865 0.2585 0.29886 0.0
H185 H 0.65717 0.29468 0.32114 0.0
H186 H 0.70383 0.29146 0.40693 0.0
H187 H 0.73376 0.25522 0.38451 0.0
H188 H 0.77898 0.20567 0.39145 0.0
H189 H 0.8119 0.17928 0.42186 0.0
H190 H 0.83047 0.12745 0.34167 0.0
H191 H 0.79831 0.15399 0.3112 0.0
H192 H 0.76598 0.16048 0.24918 0.0
H193 H 0.74944 0.13795 0.20057 0.0
H194 H 0.67447 0.18907 0.20119 0.0
H195 H 0.69145 0.21219 0.24902 0.0
N196 N 0.72368 0.22115 0.29706 0.0
N197 N 0.74993 0.21836 0.34296 0.0
N198 N 0.75846 0.18749 0.30112 0.0
C199 C 0.7295 0.2308 0.32626 0.0
C200 C 0.76459 0.1967 0.33043 0.0
C201 C 0.73807 0.1996 0.28427 0.0
C202 C 0.71251 0.25373 0.33989 0.0
C203 C 0.69072 0.26544 0.32247 0.0
C204 C 0.67369 0.28613 0.33529 0.0
C205 C 0.67797 0.29577 0.36588 0.0
C206 C 0.70013 0.28457 0.38322 0.0
C207 C 0.71718 0.26371 0.37039 0.0
C208 C 0.78583 0.18197 0.34884 0.0
C209 C 0.79028 0.18882 0.38023 0.0
C210 C 0.80901 0.17357 0.39773 0.0
C211 C 0.82378 0.1512 0.38423 0.0
C212 C 0.81978 0.14478 0.35274 0.0
C213 C 0.80109 0.15994 0.33529 0.0
C214 C 0.72989 0.18795 0.25323 0.0
C215 C 0.74617 0.16717 0.23874 0.0
C216 C 0.25243 0.62426 0.14623 0.0
C217 C 0.24639 0.62868 0.11521 0.0
C218 C 0.26714 0.64533 0.0977 0.0
C219 C 0.29332 0.65765 0.1111 0.0
H220 H 0.35691 0.72664 0.10364 0.0
H221 H 0.38029 0.77077 0.08378 0.0
H222 H 0.43126 0.78425 0.16721 0.0
H223 H 0.40866 0.73946 0.18656 0.0
H224 H 0.40656 0.68667 0.23565 0.0
H225 H 0.427 0.66225 0.27854 0.0
H226 H 0.3713 0.58607 0.25483 0.0
H227 H 0.35085 0.61024 0.21219 0.0
H228 H 0.28295 0.63212 0.1834 0.0
H229 H 0.23683 0.61137 0.16015 0.0
H230 H 0.26291 0.6491 0.07375 0.0
H231 H 0.30884 0.67052 0.0971 0.0
N232 N 0.34124 0.69012 0.14535 0.0
N233 N 0.3777 0.68974 0.18338 0.0
N234 N 0.33897 0.65337 0.18073 0.0
C235 C 0.36633 0.70238 0.15881 0.0
C236 C 0.36423 0.66504 0.19431 0.0
C237 C 0.32733 0.66576 0.15632 0.0
C238 C 0.38088 0.72937 0.14675 0.0
C239 C 0.37314 0.73897 0.11779 0.0
C240 C 0.38645 0.76449 0.10644 0.0
C241 C 0.4077 0.78134 0.12382 0.0
C242 C 0.4154 0.77172 0.15284 0.0
C243 C 0.4023 0.74602 0.16407 0.0
C244 C 0.37699 0.6505 0.22042 0.0
C245 C 0.3987 0.66471 0.23954 0.0
C246 C 0.41032 0.65077 0.26421 0.0
C247 C 0.40082 0.6222 0.27002 0.0
C248 C 0.37932 0.60797 0.25077 0.0
C249 C 0.36744 0.62196 0.22643 0.0
C250 C 0.29955 0.65297 0.14208 0.0
C251 C 0.27888 0.63601 0.15945 0.0
C252 C 0.13305 0.25177 0.61191 0.0
C253 C 0.1092 0.23726 0.62741 0.0
C254 C 0.09972 0.24863 0.65571 0.0
C255 C 0.11366 0.27404 0.66807 0.0
H256 H 0.10528 0.33807 0.73533 0.0
H257 H 0.08583 0.36237 0.78031 0.0
H258 H 0.16413 0.42152 0.78211 0.0
H259 H 0.18324 0.39777 0.73673 0.0
H260 H 0.23595 0.38934 0.68584 0.0
H261 H 0.27991 0.40982 0.65916 0.0
H262 H 0.24913 0.36709 0.57471 0.0
H263 H 0.20615 0.34556 0.6018 0.0
H264 H 0.16535 0.28746 0.61155 0.0
H265 H 0.14125 0.24341 0.59031 0.0
H266 H 0.08124 0.2381 0.66811 0.0
H267 H 0.10572 0.28223 0.68986 0.0
N268 N 0.14288 0.3277 0.69187 0.0
N269 N 0.1814 0.3642 0.68892 0.0
N270 N 0.17684 0.32801 0.65082 0.0
C271 C 0.15708 0.35214 0.70376 0.0
C272 C 0.19134 0.35231 0.66239 0.0
C273 C 0.15272 0.31543 0.66543 0.0
C274 C 0.1458 0.36599 0.73217 0.0
C275 C 0.11844 0.35618 0.74535 0.0
C276 C 0.10733 0.37006 0.77132 0.0
C277 C 0.12331 0.39403 0.78486 0.0
C278 C 0.15092 0.40347 0.77201 0.0
C279 C 0.16198 0.38969 0.746 0.0
C280 C 0.21762 0.36566 0.64602 0.0
C281 C 0.23861 0.38435 0.66156 0.0
C282 C 0.26378 0.39626 0.64615 0.0
C283 C 0.26835 0.39014 0.61466 0.0
C284 C 0.24693 0.37185 0.59907 0.0
C285 C 0.22207 0.35959 0.61459 0.0
C286 C 0.13752 0.28857 0.65248 0.0
C287 C 0.14702 0.27704 0.62426 0.0
Dy288 Dy 0.01121 0.01286 0.47225 0.0
C289 C 0.96918 0.96408 0.58824 0.0
C290 C 0.02787 0.02995 0.41515 0.0
Dy291 Dy 0.98081 0.99266 0.53545 0.0
O292 O 0.03486 0.00662 0.42744 0.0
O293 O 0.01155 0.0439 0.434 0.0
O294 O 0.05573 0.00835 0.4933 0.0
O295 O 0.01875 0.98207 0.50724 0.0
C296 C 0.04576 0.98894 0.51227 0.0
C297 C 0.94543 0.02425 0.50336 0.0
O298 O 0.01202 0.03038 0.54966 0.0
O299 O 0.01687 0.05219 0.50214 0.0
O300 O 0.98143 0.95373 0.56378 0.0
O301 O 0.96378 0.99035 0.58409 0.0
O302 O 0.93766 0.01363 0.52982 0.0
O303 O 0.97066 0.01676 0.4968 0.0
O304 O 0.98099 0.97495 0.45636 0.0
O305 O 0.96333 0.9574 0.50359 0.0
C306 C 0.01972 0.05284 0.53253 0.0
C307 C 0.9656 0.95553 0.47314 0.0
Dy308 Dy 0.53775 0.01199 0.02358 0.0
C309 C 0.44256 0.96152 0.94306 0.0
C310 C 0.58365 0.04595 0.04794 0.0
Dy311 Dy 0.48404 0.98923 0.98028 0.0
O312 O 0.58231 0.01829 0.04606 0.0
O313 O 0.55991 0.05509 0.03642 0.0
O314 O 0.53082 0.97873 0.06033 0.0
O315 O 0.50285 0.97823 0.02304 0.0
C316 C 0.50788 0.9653 0.04707 0.0
C317 C 0.51059 0.041 0.96879 0.0
O318 O 0.45966 0.00971 0.0182 0.0
O319 O 0.50015 0.03687 0.0401 0.0
O320 O 0.46352 0.98005 0.9342 0.0
O321 O 0.44422 0.9578 0.97251 0.0
O322 O 0.48256 0.03395 0.96441 0.0
O323 O 0.52328 0.01965 0.97706 0.0
O324 O 0.56102 0.98657 0.98822 0.0
O325 O 0.5196 0.96139 0.9659 0.0
C326 C 0.47115 0.03047 0.0368 0.0
C327 C 0.54864 0.96594 0.96998 0.0
Dy328 Dy 0.51024 0.47468 0.48389 0.0
C329 C 0.45203 0.55802 0.55483 0.0
C330 C 0.54604 0.43897 0.45392 0.0
Dy331 Dy 0.48784 0.52187 0.52561 0.0
O332 O 0.51725 0.43625 0.45361 0.0
O333 O 0.55525 0.46136 0.47029 0.0
O334 O 0.4641 0.4534 0.47968 0.0
O335 O 0.4766 0.47633 0.52009 0.0
C336 C 0.45509 0.46351 0.5059 0.0
C337 C 0.54297 0.5327 0.50323 0.0
O338 O 0.50258 0.49359 0.5621 0.0
O339 O 0.53112 0.46687 0.52961 0.0
O340 O 0.48073 0.55949 0.55709 0.0
O341 O 0.44292 0.53657 0.53702 0.0
O342 O 0.53438 0.5427 0.52968 0.0
O343 O 0.52117 0.52018 0.48935 0.0
O344 O 0.49467 0.50236 0.44719 0.0
O345 O 0.46782 0.53062 0.4798 0.0
C346 C 0.5228 0.47501 0.55766 0.0
C347 C 0.47544 0.52188 0.45174 0.0
Dy348 Dy 0.01354 0.47735 0.0204 0.0
C349 C 0.96499 0.57725 0.98205 0.0
C350 C 0.04303 0.43298 0.03923 0.0
Dy351 Dy 0.99598 0.53201 0.99457 0.0
O352 O 0.02914 0.44993 0.05707 0.0
O353 O 0.04038 0.43982 0.01072 0.0
O354 O 0.97607 0.47805 0.05435 0.0
O355 O 0.99856 0.51664 0.0409 0.0
C356 C 0.97713 0.50567 0.0565 0.0
C357 C 0.03146 0.50354 0.95733 0.0
O358 O 0.03357 0.5498 0.02392 0.0
O359 O 0.05515 0.50713 0.02464 0.0
O360 O 0.99055 0.57254 0.97002 0.0
O361 O 0.95654 0.55742 0.00109 0.0
O362 O 0.03155 0.53114 0.95823 0.0
O363 O 0.01075 0.49282 0.974 0.0
O364 O 0.97376 0.45807 0.995 0.0
O365 O 0.95646 0.50141 0.98276 0.0
C366 C 0.05662 0.53516 0.02908 0.0
C367 C 0.95321 0.47315 0.98353 0.0
H368 H 0.16144 0.08546 0.28762 0.0
H369 H 0.01371 0.07696 0.38512 0.0
H370 H 0.0884 0.13444 0.26521 0.0
H371 H 0.07116 0.0084 0.38014 0.0
H372 H 0.04035 0.0988 0.34128 0.0
H373 H 0.12874 0.05718 0.32188 0.0
C374 C 0.13845 0.09007 0.28951 0.0
C375 C 0.12779 0.11259 0.27358 0.0
C376 C 0.0468 0.07875 0.3495 0.0
C377 C 0.09039 0.0806 0.31344 0.0
C378 C 0.03165 0.06634 0.37446 0.0
C379 C 0.04052 0.04106 0.38627 0.0
C380 C 0.07122 0.06597 0.33677 0.0
C381 C 0.06379 0.02802 0.37173 0.0
C382 C 0.11981 0.07393 0.3092 0.0
C383 C 0.09784 0.11778 0.27754 0.0
N384 N 0.07868 0.04086 0.34798 0.0
N385 N 0.08027 0.10212 0.29736 0.0
H386 H 0.33338 0.91667 0.78595 0.0
H387 H 0.40361 0.91493 0.95388 0.0
H388 H 0.32553 0.84173 0.84132 0.0
H389 H 0.43105 0.97595 0.88493 0.0
H390 H 0.36818 0.89096 0.91701 0.0
H391 H 0.36184 0.94227 0.82677 0.0
C392 C 0.33726 0.90571 0.80691 0.0
C393 C 0.32713 0.87699 0.81021 0.0
C394 C 0.38192 0.90967 0.91011 0.0
C395 C 0.36017 0.9061 0.85688 0.0
C396 C 0.402 0.92333 0.93108 0.0
C397 C 0.42028 0.94726 0.92223 0.0
C398 C 0.37998 0.92041 0.88043 0.0
C399 C 0.41747 0.95741 0.89254 0.0
C400 C 0.35375 0.92027 0.8301 0.0
C401 C 0.33325 0.86377 0.83773 0.0
N402 N 0.39769 0.94395 0.87272 0.0
N403 N 0.34949 0.87842 0.86004 0.0
H404 H 0.63481 0.39002 0.68005 0.0
H405 H 0.50313 0.47552 0.61768 0.0
H406 H 0.55475 0.40054 0.73218 0.0
H407 H 0.57115 0.4438 0.55906 0.0
H408 H 0.52381 0.45217 0.66129 0.0
H409 H 0.61391 0.41359 0.63687 0.0
C410 C 0.61285 0.39739 0.68245 0.0
C411 C 0.59653 0.39332 0.70981 0.0
C412 C 0.53417 0.45033 0.63886 0.0
C413 C 0.57242 0.42042 0.66037 0.0
C414 C 0.52247 0.46376 0.61397 0.0
C415 C 0.53538 0.46163 0.58458 0.0
C416 C 0.55921 0.43492 0.63448 0.0
C417 C 0.56035 0.44597 0.58121 0.0
C418 C 0.60086 0.41071 0.65772 0.0
C419 C 0.56802 0.40302 0.71144 0.0
N420 N 0.57148 0.43334 0.60582 0.0
N421 N 0.55694 0.41625 0.68715 0.0
H422 H 0.90748 0.63491 0.17644 0.0
H423 H 0.93624 0.48381 0.09775 0.0
H424 H 0.87668 0.5539 0.21441 0.0
H425 H 0.97969 0.56335 0.06772 0.0
H426 H 0.91051 0.50975 0.13782 0.0
H427 H 0.93097 0.60966 0.13416 0.0
C428 C 0.90571 0.61184 0.17602 0.0
C429 C 0.89002 0.59659 0.19919 0.0
C430 C 0.92561 0.52159 0.12246 0.0
C431 C 0.91656 0.56752 0.15045 0.0
C432 C 0.94024 0.50678 0.09952 0.0
C433 C 0.96023 0.52146 0.07954 0.0
C434 C 0.93089 0.55135 0.1254 0.0
C435 C 0.96453 0.55123 0.08278 0.0
C436 C 0.91901 0.59744 0.15173 0.0
C437 C 0.88809 0.56667 0.19695 0.0
N438 N 0.95002 0.56522 0.10534 0.0
N439 N 0.90119 0.55318 0.17309 0.0
H440 H 0.3272 0.13436 0.07292 0.0
H441 H 0.4827 0.06818 0.08528 0.0
H442 H 0.37949 0.1438 0.15555 0.0
H443 H 0.41297 0.03501 0.02379 0.0
H444 H 0.44879 0.10092 0.10821 0.0
H445 H 0.36304 0.1037 0.05044 0.0
C446 C 0.34651 0.13032 0.08613 0.0
C447 C 0.35048 0.1416 0.11609 0.0
C448 C 0.44099 0.08632 0.08981 0.0
C449 C 0.39127 0.10629 0.09072 0.0
C450 C 0.46026 0.06766 0.07673 0.0
C451 C 0.45062 0.0488 0.05264 0.0
C452 C 0.41215 0.08639 0.07829 0.0
C453 C 0.42133 0.04903 0.04244 0.0
C454 C 0.36675 0.11259 0.07344 0.0
C455 C 0.37562 0.13533 0.13242 0.0
N456 N 0.40322 0.06769 0.05516 0.0
N457 N 0.39516 0.11806 0.1195 0.0
H458 H 0.18326 0.92507 0.62112 0.0
H459 H 0.03449 0.93368 0.52914 0.0
H460 H 0.14605 0.85367 0.56537 0.0
H461 H 0.10093 0.00481 0.53434 0.0
H462 H 0.06913 0.90391 0.55354 0.0
H463 H 0.14742 0.95458 0.59953 0.0
C464 C 0.16787 0.9155 0.60417 0.0
C465 C 0.16824 0.88666 0.59484 0.0
C466 C 0.07596 0.92609 0.54947 0.0
C467 C 0.12614 0.9204 0.57119 0.0
C468 C 0.05622 0.9431 0.53582 0.0
C469 C 0.06504 0.97165 0.52971 0.0
C470 C 0.10433 0.93798 0.55769 0.0
C471 C 0.09343 0.98283 0.5386 0.0
C472 C 0.14721 0.93242 0.59213 0.0
C473 C 0.14665 0.87555 0.57366 0.0
N474 N 0.11209 0.96598 0.55232 0.0
N475 N 0.1264 0.89241 0.56266 0.0
H476 H 0.79458 0.36244 0.94285 0.0
H477 H 0.91617 0.4941 0.94228 0.0
H478 H 0.80641 0.41956 0.86682 0.0
H479 H 0.92881 0.4185 0.99275 0.0
H480 H 0.87185 0.46974 0.91901 0.0
H481 H 0.84021 0.38491 0.96554 0.0
C482 C 0.80675 0.37949 0.9307 0.0
C483 C 0.79631 0.38904 0.90274 0.0
C484 C 0.88435 0.45846 0.93512 0.0
C485 C 0.84827 0.41534 0.92926 0.0
C486 C 0.90958 0.47238 0.94857 0.0
C487 C 0.92626 0.45831 0.96953 0.0
C488 C 0.8753 0.43037 0.94301 0.0
C489 C 0.91668 0.4301 0.97662 0.0
C490 C 0.83276 0.39239 0.94384 0.0
C491 C 0.81298 0.41173 0.88866 0.0
N492 N 0.89167 0.41709 0.96355 0.0
N493 N 0.83793 0.42419 0.90215 0.0
H494 H 0.67911 0.57606 0.36789 0.0
H495 H 0.59073 0.56432 0.52803 0.0
H496 H 0.71355 0.61299 0.45354 0.0
H497 H 0.56013 0.52096 0.4442 0.0
H498 H 0.63657 0.58127 0.50151 0.0
H499 H 0.63614 0.5545 0.39569 0.0
C500 C 0.67783 0.57944 0.39257 0.0
C501 C 0.70002 0.59654 0.40831 0.0
C502 C 0.61991 0.56792 0.48894 0.0
C503 C 0.65051 0.57217 0.4403 0.0
C504 C 0.59377 0.55824 0.50408 0.0
C505 C 0.57159 0.54139 0.48821 0.0
C506 C 0.62383 0.56078 0.45764 0.0
C507 C 0.57666 0.53403 0.45725 0.0
C508 C 0.65316 0.56723 0.40843 0.0
C509 C 0.6968 0.60044 0.44029 0.0
N510 N 0.60215 0.54391 0.44292 0.0
N511 N 0.6725 0.58847 0.45517 0.0
H512 H 0.15155 0.34194 0.15577 0.0
H513 H 0.07593 0.39678 0.00552 0.0
H514 H 0.15942 0.30062 0.06663 0.0
H515 H 0.05375 0.42171 0.09852 0.0
H516 H 0.11034 0.36434 0.02587 0.0
H517 H 0.12035 0.37547 0.13334 0.0
C518 C 0.14678 0.34001 0.13141 0.0
C519 C 0.15778 0.31827 0.11311 0.0
C520 C 0.09782 0.37686 0.04174 0.0
C521 C 0.12206 0.35661 0.0872 0.0
C522 C 0.07818 0.39523 0.03017 0.0
C523 C 0.06204 0.41178 0.05044 0.0
C524 C 0.10138 0.37541 0.0737 0.0
C525 C 0.06576 0.40923 0.08213 0.0
C526 C 0.12895 0.35914 0.11861 0.0
C527 C 0.15145 0.31714 0.08153 0.0
N528 N 0.08512 0.39149 0.09278 0.0
N529 N 0.13379 0.33596 0.06956 0.0
H530 H 0.54749 0.20918 0.89612 0.0
H531 H 0.57039 0.05716 0.96721 0.0
H532 H 0.63347 0.17758 0.90695 0.0
H533 H 0.48504 0.08751 0.94969 0.0
H534 H 0.59434 0.10224 0.9485 0.0
H535 H 0.52456 0.16557 0.9182 0.0
C536 C 0.56158 0.19302 0.90295 0.0
C537 C 0.5925 0.19712 0.89947 0.0
C538 C 0.57037 0.09905 0.94886 0.0
C539 C 0.5663 0.14706 0.92531 0.0
C540 C 0.55673 0.07339 0.95962 0.0
C541 C 0.52572 0.06859 0.9598 0.0
C542 C 0.55283 0.12001 0.93829 0.0
C543 C 0.50903 0.09028 0.94977 0.0
C544 C 0.54846 0.16815 0.91579 0.0
C545 C 0.60958 0.17556 0.90943 0.0
N546 N 0.52277 0.11495 0.93934 0.0
N547 N 0.59626 0.15147 0.9218 0.0
H548 H 0.87603 0.78917 0.43666 0.0
H549 H 0.96496 0.94114 0.41122 0.0
H550 H 0.90192 0.81957 0.34683 0.0
H551 H 0.93281 0.9109 0.49927 0.0
H552 H 0.94237 0.89719 0.38679 0.0
H553 H 0.89721 0.83392 0.45957 0.0
C554 C 0.88598 0.80534 0.42167 0.0
C555 C 0.88695 0.80058 0.38969 0.0
C556 C 0.94022 0.90029 0.41144 0.0
C557 C 0.91179 0.85204 0.41597 0.0
C558 C 0.95307 0.9254 0.42542 0.0
C559 C 0.95089 0.92982 0.45742 0.0
C560 C 0.92513 0.87941 0.42957 0.0
C561 C 0.9352 0.90857 0.47457 0.0
C562 C 0.89825 0.83091 0.43482 0.0
C563 C 0.90084 0.82218 0.3716 0.0
N564 N 0.92306 0.88436 0.46047 0.0
N565 N 0.91268 0.84698 0.38498 0.0
H566 H 0.30736 0.66349 0.59233 0.0
H567 H 0.46817 0.60396 0.59231 0.0
H568 H 0.38135 0.70193 0.64489 0.0
H569 H 0.39251 0.56012 0.54699 0.0
H570 H 0.43659 0.64033 0.61143 0.0
H571 H 0.33822 0.62594 0.57439 0.0
C572 C 0.3301 0.66407 0.60002 0.0
C573 C 0.34172 0.6858 0.62027 0.0
C574 C 0.42681 0.6227 0.59743 0.0
C575 C 0.3771 0.6429 0.59999 0.0
C576 C 0.44484 0.60194 0.58657 0.0
C577 C 0.43288 0.57907 0.5681 0.0
C578 C 0.39663 0.62066 0.5896 0.0
C579 C 0.40255 0.57744 0.56124 0.0
C580 C 0.34765 0.64256 0.58993 0.0
C581 C 0.37128 0.68537 0.62969 0.0
N582 N 0.38547 0.59804 0.57188 0.0
N583 N 0.38792 0.66433 0.61944 0.0
H584 H 0.88285 0.82133 0.67882 0.0
H585 H 0.9375 0.98119 0.63807 0.0
H586 H 0.85382 0.89487 0.72816 0.0
H587 H 0.97293 0.90739 0.59558 0.0
H588 H 0.90989 0.95018 0.67447 0.0
H589 H 0.91848 0.85258 0.6505 0.0
C590 C 0.88408 0.84404 0.68383 0.0
C591 C 0.86515 0.85551 0.70574 0.0
C592 C 0.92402 0.94079 0.65746 0.0
C593 C 0.90576 0.89146 0.67323 0.0
C594 C 0.93987 0.9585 0.63682 0.0
C595 C 0.9572 0.94671 0.61371 0.0
C596 C 0.92541 0.91115 0.6547 0.0
C597 C 0.95961 0.91725 0.613 0.0
C598 C 0.90442 0.86189 0.66763 0.0
C599 C 0.86753 0.88514 0.71103 0.0
N600 N 0.94355 0.9004 0.63295 0.0
N601 N 0.88737 0.90211 0.69478 0.0
H602 H 0.71042 0.10413 0.18442 0.0
H603 H 0.58963 0.104 0.05321 0.0
H604 H 0.6815 0.18127 0.14758 0.0
H605 H 0.63065 0.02891 0.07914 0.0
H606 H 0.62556 0.13321 0.08485 0.0
H607 H 0.68449 0.07675 0.14317 0.0
C608 C 0.69911 0.11544 0.16735 0.0
C609 C 0.69797 0.14512 0.16975 0.0
C610 C 0.62695 0.11038 0.08333 0.0
C611 C 0.66746 0.11364 0.12274 0.0
C612 C 0.60644 0.09374 0.06532 0.0
C613 C 0.60709 0.06405 0.06389 0.0
C614 C 0.64799 0.09715 0.10024 0.0
C615 C 0.62933 0.05175 0.07983 0.0
C616 C 0.68409 0.09971 0.14386 0.0
C617 C 0.68247 0.1584 0.14711 0.0
N618 N 0.6487 0.06833 0.09764 0.0
N619 N 0.66754 0.14254 0.12477 0.0
H620 H 0.41947 0.56829 0.27041 0.0
H621 H 0.44539 0.56998 0.45197 0.0
H622 H 0.40943 0.64195 0.32945 0.0
H623 H 0.47923 0.50686 0.39028 0.0
H624 H 0.42792 0.5944 0.40775 0.0
H625 H 0.43755 0.54346 0.31434 0.0
C626 C 0.42105 0.57923 0.29263 0.0
C627 C 0.4129 0.60725 0.29626 0.0
C628 C 0.43917 0.57522 0.40387 0.0
C629 C 0.43347 0.57889 0.34668 0.0
C630 C 0.44906 0.56112 0.42914 0.0
C631 C 0.46387 0.53625 0.42492 0.0
C632 C 0.44377 0.56429 0.37402 0.0
C633 C 0.46801 0.52597 0.39469 0.0
C634 C 0.4315 0.56508 0.31766 0.0
C635 C 0.4157 0.62047 0.32553 0.0
N636 N 0.45793 0.53997 0.37041 0.0
N637 N 0.42555 0.60613 0.34962 0.0
H638 H 0.0918 0.37183 0.83445 0.0
H639 H 0.07124 0.52441 0.91436 0.0
H640 H 0.12651 0.45178 0.79677 0.0
H641 H 0.02739 0.44583 0.94649 0.0
H642 H 0.09495 0.4976 0.87344 0.0
H643 H 0.07079 0.39802 0.87757 0.0
C644 C 0.09496 0.39487 0.83514 0.0
C645 C 0.11098 0.40955 0.81179 0.0
C646 C 0.08023 0.48616 0.88948 0.0
C647 C 0.08723 0.4397 0.86144 0.0
C648 C 0.06674 0.50147 0.91288 0.0
C649 C 0.04726 0.48731 0.93374 0.0
C650 C 0.07425 0.45643 0.88692 0.0
C651 C 0.04227 0.45756 0.93084 0.0
C652 C 0.08308 0.40981 0.85989 0.0
C653 C 0.11474 0.43944 0.81435 0.0
N654 N 0.0556 0.44311 0.90781 0.0
N655 N 0.10293 0.45347 0.83862 0.0
H656 H 0.62346 0.84781 0.84126 0.0
H657 H 0.6069 0.95864 0.98118 0.0
H658 H 0.68422 0.85765 0.91737 0.0
H659 H 0.53429 0.92952 0.92138 0.0
H660 H 0.63779 0.92542 0.95467 0.0
H661 H 0.59226 0.88125 0.86734 0.0
C662 C 0.63013 0.85697 0.8635 0.0
C663 C 0.6563 0.84992 0.87731 0.0
C664 C 0.61508 0.92633 0.9474 0.0
C665 C 0.62108 0.8882 0.90701 0.0
C666 C 0.5975 0.94539 0.96239 0.0
C667 C 0.56796 0.9468 0.95353 0.0
C668 C 0.60314 0.90882 0.92318 0.0
C669 C 0.5569 0.92902 0.92911 0.0
C670 C 0.61234 0.87594 0.87838 0.0
C671 C 0.66398 0.86226 0.90616 0.0
N672 N 0.57454 0.9108 0.91471 0.0
N673 N 0.64653 0.88095 0.91999 0.0
H674 H 0.81313 0.13193 0.44258 0.0
H675 H 0.95629 0.04292 0.44509 0.0
H676 H 0.87708 0.13078 0.36839 0.0
H677 H 0.89471 0.04753 0.52081 0.0
H678 H 0.92763 0.07508 0.41645 0.0
H679 H 0.84304 0.10153 0.47183 0.0
C680 C 0.83362 0.12555 0.43255 0.0
C681 C 0.84255 0.13393 0.40293 0.0
C682 C 0.92041 0.06915 0.43937 0.0
C683 C 0.87671 0.09867 0.43615 0.0
C684 C 0.93686 0.05091 0.45572 0.0
C685 C 0.92803 0.0429 0.48538 0.0
C686 C 0.89486 0.07934 0.45284 0.0
C687 C 0.90229 0.05328 0.49795 0.0
C688 C 0.85058 0.10799 0.44919 0.0
C689 C 0.86909 0.12454 0.39095 0.0
N690 N 0.88661 0.071 0.48164 0.0
N691 N 0.88517 0.10739 0.40756 0.0
H692 H 0.24011 0.59503 0.06315 0.0
H693 H 0.06372 0.58606 0.06114 0.0
H694 H 0.18961 0.63305 0.13551 0.0
H695 H 0.1128 0.51832 0.02365 0.0
H696 H 0.11009 0.60974 0.08154 0.0
H697 H 0.19374 0.57274 0.04112 0.0
C698 C 0.21922 0.5988 0.07423 0.0
C699 C 0.21857 0.61578 0.10118 0.0
C700 C 0.11062 0.58971 0.0688 0.0
C701 C 0.16569 0.59076 0.07605 0.0
C702 C 0.08426 0.57628 0.05703 0.0
C703 C 0.08444 0.55015 0.04078 0.0
C704 C 0.1374 0.57725 0.06365 0.0
C705 C 0.11166 0.53835 0.03625 0.0
C706 C 0.19287 0.58601 0.06179 0.0
C707 C 0.19098 0.61992 0.11481 0.0
N708 N 0.1371 0.55207 0.04745 0.0
N709 N 0.16558 0.60764 0.10198 0.0
H710 H 0.29926 0.4428 0.62372 0.0
H711 H 0.41209 0.42431 0.48397 0.0
H712 H 0.2997 0.36556 0.56783 0.0
H713 H 0.43295 0.48178 0.56107 0.0
H714 H 0.36594 0.4073 0.50986 0.0
H715 H 0.34406 0.46174 0.5969 0.0
C716 C 0.30871 0.42969 0.60599 0.0
C717 C 0.29543 0.40239 0.5982 0.0
C718 C 0.38058 0.4237 0.52105 0.0
C719 C 0.3464 0.42446 0.56683 0.0
C720 C 0.40683 0.4335 0.50625 0.0
C721 C 0.42636 0.45442 0.52046 0.0
C722 C 0.3736 0.4352 0.55009 0.0
C723 C 0.41847 0.46561 0.54934 0.0
C724 C 0.33423 0.44066 0.59056 0.0
C725 C 0.30858 0.38686 0.5744 0.0
N726 N 0.39264 0.4559 0.56321 0.0
N727 N 0.3332 0.39814 0.55955 0.0
H728 H 0.89094 0.70358 0.875 0.0
H729 H 0.90808 0.58456 -0.00058 0.0
H730 H 0.81665 0.65999 0.92193 0.0
H731 H 0.9795 0.61949 0.94184 0.0
H732 H 0.87535 0.61731 0.97732 0.0
H733 H 0.92459 0.67777 0.9049 0.0
C734 C 0.8817 0.68844 0.89153 0.0
C735 C 0.85093 0.68351 0.8956 0.0
C736 C 0.89825 0.618 0.96976 0.0
C737 C 0.88939 0.65418 0.93028 0.0
C738 C 0.91694 0.59943 0.98243 0.0
C739 C 0.94637 0.59927 0.97216 0.0
C740 C 0.90921 0.63648 0.94675 0.0
C741 C 0.95685 0.61888 0.95019 0.0
C742 C 0.90094 0.67387 0.90876 0.0
C743 C 0.84023 0.66435 0.91803 0.0
N744 N 0.9382 0.63659 0.93803 0.0
N745 N 0.85946 0.65017 0.9344 0.0
H746 H 0.38272 0.82069 0.08834 0.0
H747 H 0.52577 0.93213 0.09197 0.0
H748 H 0.4651 0.80475 0.13141 0.0
H749 H 0.45519 0.93744 0.02713 0.0
H750 H 0.50135 0.88751 0.11017 0.0
H751 H 0.4066 0.86511 0.06865 0.0
C752 C 0.40585 0.82632 0.09355 0.0
C753 C 0.42182 0.8087 0.1117 0.0
C754 C 0.49116 0.89832 0.09189 0.0
C755 C 0.44909 0.86005 0.0896 0.0
C756 C 0.50505 0.92387 0.08155 0.0
C757 C 0.49252 0.93842 0.05789 0.0
C758 C 0.46426 0.88726 0.07878 0.0
C759 C 0.46565 0.92674 0.04524 0.0
C760 C 0.4194 0.85182 0.08237 0.0
C761 C 0.45159 0.81768 0.11807 0.0
N762 N 0.4523 0.90186 0.05593 0.0
N763 N 0.46416 0.84268 0.10715 0.0
H764 H 0.09471 0.22548 0.56716 0.0
H765 H 0.03064 0.06412 0.5941 0.0
H766 H 0.08985 0.18789 0.65661 0.0
H767 H 0.03713 0.10333 0.50543 0.0
H768 H 0.05124 0.10913 0.61791 0.0
H769 H 0.07254 0.18084 0.54467 0.0
C770 C 0.08907 0.20779 0.5821 0.0
C771 C 0.09439 0.21044 0.61383 0.0
C772 C 0.04811 0.10783 0.59325 0.0
C773 C 0.06863 0.15907 0.58816 0.0
C774 C 0.03636 0.08212 0.57961 0.0
C775 C 0.03215 0.07981 0.54765 0.0
C776 C 0.0557 0.13142 0.57481 0.0
C777 C 0.03998 0.10394 0.53012 0.0
C778 C 0.07625 0.18229 0.56924 0.0
C779 C 0.08599 0.1869 0.63208 0.0
N780 N 0.05135 0.12863 0.54391 0.0
N781 N 0.07365 0.16217 0.61897 0.0
H782 H 0.69451 0.34237 0.40311 0.0
H783 H 0.52951 0.39129 0.41925 0.0
H784 H 0.61808 0.29777 0.35976 0.0
H785 H 0.60636 0.44007 0.45672 0.0
H786 H 0.56171 0.3564 0.39787 0.0
H787 H 0.66262 0.37771 0.42426 0.0
C788 C 0.67101 0.33993 0.39818 0.0
C789 C 0.65898 0.31714 0.37953 0.0
C790 C 0.57159 0.37477 0.41068 0.0
C791 C 0.6224 0.35759 0.40344 0.0
C792 C 0.55321 0.39469 0.42283 0.0
C793 C 0.56535 0.41853 0.43971 0.0
C794 C 0.60233 0.37868 0.41557 0.0
C795 C 0.59616 0.42194 0.44378 0.0
C796 C 0.65285 0.36021 0.41009 0.0
C797 C 0.62841 0.31521 0.37363 0.0
N798 N 0.61361 0.40218 0.43187 0.0
N799 N 0.61121 0.33513 0.38555 0.0
loop_
_geom_bond_atom_site_label_1
_geom_bond_atom_site_label_2
_geom_bond_distance
_geom_bond_site_symmetry_2
_ccdc_geom_bond_type
C0 C1 1.384 . S
C0 H13 0.947 . S
C0 C35 1.382 . S
C1 C0 1.384 . S
C1 C2 1.378 . S
C2 C1 1.378 . S
C2 C3 1.378 . S
C2 H14 0.952 . S
C3 C2 1.378 . S
C3 H15 0.950 . S
C3 C34 1.383 . S
H4 C23 0.947 . S
H5 C24 0.946 . S
H6 C26 0.953 . S
H7 C27 0.945 . S
H8 C29 0.952 . S
H9 C30 0.949 . S
H10 C32 0.950 . S
H11 C33 0.948 . S
H12 C35 0.951 . S
H13 C0 0.947 . S
H14 C2 0.952 . S
H15 C3 0.950 . S
N16 C19 1.382 . S
N16 C21 1.363 . S
N17 C19 1.371 . S
N17 C20 1.372 . S
N18 C20 1.361 . S
N18 C21 1.377 . S
C19 N16 1.382 . S
C19 N17 1.371 . S
C19 C22 1.480 . S
C20 N17 1.372 . S
C20 N18 1.361 . S
C20 C28 1.457 . S
C21 N16 1.363 . S
C21 N18 1.377 . S
C21 C34 1.479 . S
C22 C19 1.480 . S
C22 C23 1.383 . S
C22 C27 1.385 . S
C23 H4 0.947 . S
C23 C22 1.383 . S
C23 C24 1.388 . S
C24 H5 0.946 . S
C24 C23 1.388 . S
C24 C25 1.384 . S
C25 C24 1.384 . S
C25 C26 1.377 . S
C26 H6 0.953 . S
C26 C25 1.377 . S
C26 C27 1.369 . S
C27 H7 0.945 . S
C27 C22 1.385 . S
C27 C26 1.369 . S
C28 C20 1.457 . S
C28 C29 1.372 . S
C28 C33 1.364 . S
C29 H8 0.952 . S
C29 C28 1.372 . S
C29 C30 1.389 . S
C30 H9 0.949 . S
C30 C29 1.389 . S
C30 C31 1.387 . S
C31 C30 1.387 . S
C31 C32 1.372 . S
C32 H10 0.950 . S
C32 C31 1.372 . S
C32 C33 1.379 . S
C33 H11 0.948 . S
C33 C28 1.364 . S
C33 C32 1.379 . S
C34 C3 1.383 . S
C34 C21 1.479 . S
C34 C35 1.398 . S
C35 C0 1.382 . S
C35 H12 0.951 . S
C35 C34 1.398 . S
C36 C37 1.384 . S
C36 H49 0.947 . S
C36 C71 1.382 . S
C37 C36 1.384 . S
C37 C38 1.378 . S
C38 C37 1.378 . S
C38 C39 1.378 . S
C38 H50 0.952 . S
C39 C38 1.378 . S
C39 H51 0.950 . S
C39 C70 1.383 . S
H40 C59 0.947 . S
H41 C60 0.946 . S
H42 C62 0.953 . S
H43 C63 0.945 . S
H44 C65 0.952 . S
H45 C66 0.949 . S
H46 C68 0.950 . S
H47 C69 0.948 . S
H48 C71 0.951 . S
H49 C36 0.947 . S
H50 C38 0.952 . S
H51 C39 0.950 . S
N52 C55 1.382 . S
N52 C57 1.363 . S
N53 C55 1.371 . S
N53 C56 1.372 . S
N54 C56 1.361 . S
N54 C57 1.377 . S
C55 N52 1.382 . S
C55 N53 1.371 . S
C55 C58 1.480 . S
C56 N53 1.372 . S
C56 N54 1.361 . S
C56 C64 1.457 . S
C57 N52 1.363 . S
C57 N54 1.377 . S
C57 C70 1.479 . S
C58 C55 1.480 . S
C58 C59 1.383 . S
C58 C63 1.385 . S
C59 H40 0.947 . S
C59 C58 1.383 . S
C59 C60 1.388 . S
C60 H41 0.946 . S
C60 C59 1.388 . S
C60 C61 1.384 . S
C61 C60 1.384 . S
C61 C62 1.377 . S
C62 H42 0.953 . S
C62 C61 1.377 . S
C62 C63 1.369 . S
C63 H43 0.945 . S
C63 C58 1.385 . S
C63 C62 1.369 . S
C64 C56 1.457 . S
C64 C65 1.372 . S
C64 C69 1.364 . S
C65 H44 0.952 . S
C65 C64 1.372 . S
C65 C66 1.389 . S
C66 H45 0.949 . S
C66 C65 1.389 . S
C66 C67 1.387 . S
C67 C66 1.387 . S
C67 C68 1.372 . S
C68 H46 0.950 . S
C68 C67 1.372 . S
C68 C69 1.379 . S
C69 H47 0.948 . S
C69 C64 1.364 . S
C69 C68 1.379 . S
C70 C39 1.383 . S
C70 C57 1.479 . S
C70 C71 1.398 . S
C71 C36 1.382 . S
C71 H48 0.951 . S
C71 C70 1.398 . S
C72 C73 1.384 . S
C72 H85 0.947 . S
C72 C107 1.382 . S
C73 C72 1.384 . S
C73 C74 1.378 . S
C74 C73 1.378 . S
C74 C75 1.378 . S
C74 H86 0.952 . S
C75 C74 1.378 . S
C75 H87 0.950 . S
C75 C106 1.383 . S
H76 C95 0.947 . S
H77 C96 0.946 . S
H78 C98 0.953 . S
H79 C99 0.945 . S
H80 C101 0.952 . S
H81 C102 0.949 . S
H82 C104 0.950 . S
H83 C105 0.948 . S
H84 C107 0.951 . S
H85 C72 0.947 . S
H86 C74 0.952 . S
H87 C75 0.950 . S
N88 C91 1.382 . S
N88 C93 1.363 . S
N89 C91 1.371 . S
N89 C92 1.372 . S
N90 C92 1.361 . S
N90 C93 1.377 . S
C91 N88 1.382 . S
C91 N89 1.371 . S
C91 C94 1.480 . S
C92 N89 1.372 . S
C92 N90 1.361 . S
C92 C100 1.457 . S
C93 N88 1.363 . S
C93 N90 1.377 . S
C93 C106 1.479 . S
C94 C91 1.480 . S
C94 C95 1.383 . S
C94 C99 1.385 . S
C95 H76 0.947 . S
C95 C94 1.383 . S
C95 C96 1.388 . S
C96 H77 0.946 . S
C96 C95 1.388 . S
C96 C97 1.384 . S
C97 C96 1.384 . S
C97 C98 1.377 . S
C98 H78 0.953 . S
C98 C97 1.377 . S
C98 C99 1.369 . S
C99 H79 0.945 . S
C99 C94 1.385 . S
C99 C98 1.369 . S
C100 C92 1.457 . S
C100 C101 1.372 . S
C100 C105 1.364 . S
C101 H80 0.952 . S
C101 C100 1.372 . S
C101 C102 1.389 . S
C102 H81 0.949 . S
C102 C101 1.389 . S
C102 C103 1.387 . S
C103 C102 1.387 . S
C103 C104 1.372 . S
C104 H82 0.950 . S
C104 C103 1.372 . S
C104 C105 1.379 . S
C105 H83 0.948 . S
C105 C100 1.364 . S
C105 C104 1.379 . S
C106 C75 1.383 . S
C106 C93 1.479 . S
C106 C107 1.398 . S
C107 C72 1.382 . S
C107 H84 0.951 . S
C107 C106 1.398 . S
C108 C109 1.384 . S
C108 H121 0.947 . S
C108 C143 1.382 . S
C109 C108 1.384 . S
C109 C110 1.378 . S
C110 C109 1.378 . S
C110 C111 1.378 . S
C110 H122 0.952 . S
C111 C110 1.378 . S
C111 H123 0.950 . S
C111 C142 1.383 . S
H112 C131 0.947 . S
H113 C132 0.946 . S
H114 C134 0.953 . S
H115 C135 0.945 . S
H116 C137 0.952 . S
H117 C138 0.949 . S
H118 C140 0.950 . S
H119 C141 0.948 . S
H120 C143 0.951 . S
H121 C108 0.947 . S
H122 C110 0.952 . S
H123 C111 0.950 . S
N124 C127 1.382 . S
N124 C129 1.363 . S
N125 C127 1.371 . S
N125 C128 1.372 . S
N126 C128 1.361 . S
N126 C129 1.377 . S
C127 N124 1.382 . S
C127 N125 1.371 . S
C127 C130 1.480 . S
C128 N125 1.372 . S
C128 N126 1.361 . S
C128 C136 1.457 . S
C129 N124 1.363 . S
C129 N126 1.377 . S
C129 C142 1.479 . S
C130 C127 1.480 . S
C130 C131 1.383 . S
C130 C135 1.385 . S
C131 H112 0.947 . S
C131 C130 1.383 . S
C131 C132 1.388 . S
C132 H113 0.946 . S
C132 C131 1.388 . S
C132 C133 1.384 . S
C133 C132 1.384 . S
C133 C134 1.377 . S
C134 H114 0.953 . S
C134 C133 1.377 . S
C134 C135 1.369 . S
C135 H115 0.945 . S
C135 C130 1.385 . S
C135 C134 1.369 . S
C136 C128 1.457 . S
C136 C137 1.372 . S
C136 C141 1.364 . S
C137 H116 0.952 . S
C137 C136 1.372 . S
C137 C138 1.389 . S
C138 H117 0.949 . S
C138 C137 1.389 . S
C138 C139 1.387 . S
C139 C138 1.387 . S
C139 C140 1.372 . S
C140 H118 0.950 . S
C140 C139 1.372 . S
C140 C141 1.379 . S
C141 H119 0.948 . S
C141 C136 1.364 . S
C141 C140 1.379 . S
C142 C111 1.383 . S
C142 C129 1.479 . S
C142 C143 1.398 . S
C143 C108 1.382 . S
C143 H120 0.951 . S
C143 C142 1.398 . S
C144 C145 1.384 . S
C144 H157 0.947 . S
C144 C179 1.382 . S
C145 C144 1.384 . S
C145 C146 1.378 . S
C146 C145 1.378 . S
C146 C147 1.378 . S
C146 H158 0.952 . S
C147 C146 1.378 . S
C147 H159 0.950 . S
C147 C178 1.383 . S
H148 C167 0.947 . S
H149 C168 0.946 . S
H150 C170 0.953 . S
H151 C171 0.945 . S
H152 C173 0.952 . S
H153 C174 0.949 . S
H154 C176 0.950 . S
H155 C177 0.948 . S
H156 C179 0.951 . S
H157 C144 0.947 . S
H158 C146 0.952 . S
H159 C147 0.950 . S
N160 C163 1.382 . S
N160 C165 1.363 . S
N161 C163 1.371 . S
N161 C164 1.372 . S
N162 C164 1.361 . S
N162 C165 1.377 . S
C163 N160 1.382 . S
C163 N161 1.371 . S
C163 C166 1.480 . S
C164 N161 1.372 . S
C164 N162 1.361 . S
C164 C172 1.457 . S
C165 N160 1.363 . S
C165 N162 1.377 . S
C165 C178 1.479 . S
C166 C163 1.480 . S
C166 C167 1.383 . S
C166 C171 1.385 . S
C167 H148 0.947 . S
C167 C166 1.383 . S
C167 C168 1.388 . S
C168 H149 0.946 . S
C168 C167 1.388 . S
C168 C169 1.384 . S
C169 C168 1.384 . S
C169 C170 1.377 . S
C170 H150 0.953 . S
C170 C169 1.377 . S
C170 C171 1.369 . S
C171 H151 0.945 . S
C171 C166 1.385 . S
C171 C170 1.369 . S
C172 C164 1.457 . S
C172 C173 1.372 . S
C172 C177 1.364 . S
C173 H152 0.952 . S
C173 C172 1.372 . S
C173 C174 1.389 . S
C174 H153 0.949 . S
C174 C173 1.389 . S
C174 C175 1.387 . S
C175 C174 1.387 . S
C175 C176 1.372 . S
C176 H154 0.950 . S
C176 C175 1.372 . S
C176 C177 1.379 . S
C177 H155 0.948 . S
C177 C172 1.364 . S
C177 C176 1.379 . S
C178 C147 1.383 . S
C178 C165 1.479 . S
C178 C179 1.398 . S
C179 C144 1.382 . S
C179 H156 0.951 . S
C179 C178 1.398 . S
C180 C181 1.384 . S
C180 H193 0.947 . S
C180 C215 1.382 . S
C181 C180 1.384 . S
C181 C182 1.378 . S
C182 C181 1.378 . S
C182 C183 1.378 . S
C182 H194 0.952 . S
C183 C182 1.378 . S
C183 H195 0.950 . S
C183 C214 1.383 . S
H184 C203 0.947 . S
H185 C204 0.946 . S
H186 C206 0.953 . S
H187 C207 0.945 . S
H188 C209 0.952 . S
H189 C210 0.949 . S
H190 C212 0.950 . S
H191 C213 0.948 . S
H192 C215 0.951 . S
H193 C180 0.947 . S
H194 C182 0.952 . S
H195 C183 0.950 . S
N196 C199 1.382 . S
N196 C201 1.363 . S
N197 C199 1.371 . S
N197 C200 1.372 . S
N198 C200 1.361 . S
N198 C201 1.377 . S
C199 N196 1.382 . S
C199 N197 1.371 . S
C199 C202 1.480 . S
C200 N197 1.372 . S
C200 N198 1.361 . S
C200 C208 1.457 . S
C201 N196 1.363 . S
C201 N198 1.377 . S
C201 C214 1.479 . S
C202 C199 1.480 . S
C202 C203 1.383 . S
C202 C207 1.385 . S
C203 H184 0.947 . S
C203 C202 1.383 . S
C203 C204 1.388 . S
C204 H185 0.946 . S
C204 C203 1.388 . S
C204 C205 1.384 . S
C205 C204 1.384 . S
C205 C206 1.377 . S
C206 H186 0.953 . S
C206 C205 1.377 . S
C206 C207 1.369 . S
C207 H187 0.945 . S
C207 C202 1.385 . S
C207 C206 1.369 . S
C208 C200 1.457 . S
C208 C209 1.372 . S
C208 C213 1.364 . S
C209 H188 0.952 . S
C209 C208 1.372 . S
C209 C210 1.389 . S
C210 H189 0.949 . S
C210 C209 1.389 . S
C210 C211 1.387 . S
C211 C210 1.387 . S
C211 C212 1.372 . S
C212 H190 0.950 . S
C212 C211 1.372 . S
C212 C213 1.379 . S
C213 H191 0.948 . S
C213 C208 1.364 . S
C213 C212 1.379 . S
C214 C183 1.383 . S
C214 C201 1.479 . S
C214 C215 1.398 . S
C215 C180 1.382 . S
C215 H192 0.951 . S
C215 C214 1.398 . S
C216 C217 1.384 . S
C216 H229 0.947 . S
C216 C251 1.382 . S
C217 C216 1.384 . S
C217 C218 1.378 . S
C218 C217 1.378 . S
C218 C219 1.378 . S
C218 H230 0.952 . S
C219 C218 1.378 . S
C219 H231 0.950 . S
C219 C250 1.383 . S
H220 C239 0.947 . S
H221 C240 0.946 . S
H222 C242 0.953 . S
H223 C243 0.945 . S
H224 C245 0.952 . S
H225 C246 0.949 . S
H226 C248 0.950 . S
H227 C249 0.948 . S
H228 C251 0.951 . S
H229 C216 0.947 . S
H230 C218 0.952 . S
H231 C219 0.950 . S
N232 C235 1.382 . S
N232 C237 1.363 . S
N233 C235 1.371 . S
N233 C236 1.372 . S
N234 C236 1.361 . S
N234 C237 1.377 . S
C235 N232 1.382 . S
C235 N233 1.371 . S
C235 C238 1.480 . S
C236 N233 1.372 . S
C236 N234 1.361 . S
C236 C244 1.457 . S
C237 N232 1.363 . S
C237 N234 1.377 . S
C237 C250 1.479 . S
C238 C235 1.480 . S
C238 C239 1.383 . S
C238 C243 1.385 . S
C239 H220 0.947 . S
C239 C238 1.383 . S
C239 C240 1.388 . S
C240 H221 0.946 . S
C240 C239 1.388 . S
C240 C241 1.384 . S
C241 C240 1.384 . S
C241 C242 1.377 . S
C242 H222 0.953 . S
C242 C241 1.377 . S
C242 C243 1.369 . S
C243 H223 0.945 . S
C243 C238 1.385 . S
C243 C242 1.369 . S
C244 C236 1.457 . S
C244 C245 1.372 . S
C244 C249 1.364 . S
C245 H224 0.952 . S
C245 C244 1.372 . S
C245 C246 1.389 . S
C246 H225 0.949 . S
C246 C245 1.389 . S
C246 C247 1.387 . S
C247 C246 1.387 . S
C247 C248 1.372 . S
C248 H226 0.950 . S
C248 C247 1.372 . S
C248 C249 1.379 . S
C249 H227 0.948 . S
C249 C244 1.364 . S
C249 C248 1.379 . S
C250 C219 1.383 . S
C250 C237 1.479 . S
C250 C251 1.398 . S
C251 C216 1.382 . S
C251 H228 0.951 . S
C251 C250 1.398 . S
C252 C253 1.384 . S
C252 H265 0.947 . S
C252 C287 1.382 . S
C253 C252 1.384 . S
C253 C254 1.378 . S
C254 C253 1.378 . S
C254 C255 1.378 . S
C254 H266 0.952 . S
C255 C254 1.378 . S
C255 H267 0.950 . S
C255 C286 1.383 . S
H256 C275 0.947 . S
H257 C276 0.946 . S
H258 C278 0.953 . S
H259 C279 0.945 . S
H260 C281 0.952 . S
H261 C282 0.949 . S
H262 C284 0.950 . S
H263 C285 0.948 . S
H264 C287 0.951 . S
H265 C252 0.947 . S
H266 C254 0.952 . S
H267 C255 0.950 . S
N268 C271 1.382 . S
N268 C273 1.363 . S
N269 C271 1.371 . S
N269 C272 1.372 . S
N270 C272 1.361 . S
N270 C273 1.377 . S
C271 N268 1.382 . S
C271 N269 1.371 . S
C271 C274 1.480 . S
C272 N269 1.372 . S
C272 N270 1.361 . S
C272 C280 1.457 . S
C273 N268 1.363 . S
C273 N270 1.377 . S
C273 C286 1.479 . S
C274 C271 1.480 . S
C274 C275 1.383 . S
C274 C279 1.385 . S
C275 H256 0.947 . S
C275 C274 1.383 . S
C275 C276 1.388 . S
C276 H257 0.946 . S
C276 C275 1.388 . S
C276 C277 1.384 . S
C277 C276 1.384 . S
C277 C278 1.377 . S
C278 H258 0.953 . S
C278 C277 1.377 . S
C278 C279 1.369 . S
C279 H259 0.945 . S
C279 C274 1.385 . S
C279 C278 1.369 . S
C280 C272 1.457 . S
C280 C281 1.372 . S
C280 C285 1.364 . S
C281 H260 0.952 . S
C281 C280 1.372 . S
C281 C282 1.389 . S
C282 H261 0.949 . S
C282 C281 1.389 . S
C282 C283 1.387 . S
C283 C282 1.387 . S
C283 C284 1.372 . S
C284 H262 0.950 . S
C284 C283 1.372 . S
C284 C285 1.379 . S
C285 H263 0.948 . S
C285 C280 1.364 . S
C285 C284 1.379 . S
C286 C255 1.383 . S
C286 C273 1.479 . S
C286 C287 1.398 . S
C287 C252 1.382 . S
C287 H264 0.951 . S
C287 C286 1.398 . S
Dy288 O292 2.398 . S
Dy288 O293 2.491 . S
Dy288 O294 2.403 1_545 S
Dy288 O295 2.664 1_545 S
Dy288 O299 2.326 . S
Dy288 O303 2.310 1_455 S
Dy288 O304 2.351 1_445 S
C289 O300 1.185 . S
C289 O301 1.355 . S
C290 O292 1.185 . S
C290 O293 1.355 . S
Dy291 O295 2.310 1_655 S
Dy291 O298 2.351 1_665 S
Dy291 O300 2.398 . S
Dy291 O301 2.491 . S
Dy291 O302 2.403 1_565 S
Dy291 O303 2.664 1_565 S
Dy291 O305 2.326 . S
O292 Dy288 2.398 . S
O292 C290 1.185 . S
O293 Dy288 2.491 . S
O293 C290 1.355 . S
O294 Dy288 2.403 1_565 S
O294 C296 1.254 . S
O295 Dy288 2.664 1_565 S
O295 Dy291 2.310 1_455 S
O295 C296 1.268 . S
C296 O294 1.254 . S
C296 O295 1.268 . S
C297 O302 1.254 . S
C297 O303 1.268 . S
O298 Dy291 2.351 1_445 S
O298 C306 1.249 . S
O299 Dy288 2.326 . S
O299 C306 1.267 . S
O300 C289 1.185 . S
O300 Dy291 2.398 . S
O301 C289 1.355 . S
O301 Dy291 2.491 . S
O302 Dy291 2.403 1_545 S
O302 C297 1.254 . S
O303 Dy288 2.310 1_655 S
O303 Dy291 2.664 1_545 S
O303 C297 1.268 . S
O304 Dy288 2.351 1_665 S
O304 C307 1.249 . S
O305 Dy291 2.326 . S
O305 C307 1.267 . S
C306 O298 1.249 . S
C306 O299 1.267 . S
C307 O304 1.249 . S
C307 O305 1.267 . S
Dy308 O312 2.398 . S
Dy308 O313 2.491 . S
Dy308 O314 2.403 1_545 S
Dy308 O315 2.664 1_545 S
Dy308 O319 2.326 . S
Dy308 O323 2.310 1_554 S
Dy308 O324 2.351 1_544 S
C309 O320 1.185 . S
C309 O321 1.355 . S
C310 O312 1.185 . S
C310 O313 1.355 . S
Dy311 O315 2.303 1_546 S
Dy311 O318 2.357 1_556 S
Dy311 O320 2.397 1_545 S
Dy311 O321 2.482 1_545 S
Dy311 O322 2.411 . S
Dy311 O323 2.669 . S
Dy311 O325 2.322 1_545 S
O312 Dy308 2.398 . S
O312 C310 1.185 . S
O313 Dy308 2.491 . S
O313 C310 1.355 . S
O314 Dy308 2.403 1_565 S
O314 C316 1.254 . S
O315 Dy308 2.664 1_565 S
O315 Dy311 2.303 1_564 S
O315 C316 1.268 . S
C316 O314 1.254 . S
C316 O315 1.268 . S
C317 O322 1.254 . S
C317 O323 1.268 . S
O318 Dy311 2.357 1_554 S
O318 C326 1.249 . S
O319 Dy308 2.326 . S
O319 C326 1.267 . S
O320 C309 1.185 . S
O320 Dy311 2.397 1_565 S
O321 C309 1.355 . S
O321 Dy311 2.482 1_565 S
O322 Dy311 2.411 . S
O322 C317 1.254 . S
O323 Dy308 2.310 1_556 S
O323 Dy311 2.669 . S
O323 C317 1.268 . S
O324 Dy308 2.351 1_566 S
O324 C327 1.249 . S
O325 Dy311 2.322 1_565 S
O325 C327 1.267 . S
C326 O318 1.249 . S
C326 O319 1.267 . S
C327 O324 1.249 . S
C327 O325 1.267 . S
Dy328 O332 2.398 . S
Dy328 O333 2.491 . S
Dy328 O334 2.403 . S
Dy328 O335 2.664 . S
Dy328 O339 2.326 . S
Dy328 O343 2.310 . S
Dy328 O344 2.351 . S
C329 O340 1.185 . S
C329 O341 1.355 . S
C330 O332 1.185 . S
C330 O333 1.355 . S
Dy331 O335 2.310 . S
Dy331 O338 2.351 . S
Dy331 O340 2.398 . S
Dy331 O341 2.491 . S
Dy331 O342 2.403 . S
Dy331 O343 2.664 . S
Dy331 O345 2.326 . S
O332 Dy328 2.398 . S
O332 C330 1.185 . S
O333 Dy328 2.491 . S
O333 C330 1.355 . S
O334 Dy328 2.403 . S
O334 C336 1.254 . S
O335 Dy328 2.664 . S
O335 Dy331 2.310 . S
O335 C336 1.268 . S
C336 O334 1.254 . S
C336 O335 1.268 . S
C337 O342 1.254 . S
C337 O343 1.268 . S
O338 Dy331 2.351 . S
O338 C346 1.249 . S
O339 Dy328 2.326 . S
O339 C346 1.267 . S
O340 C329 1.185 . S
O340 Dy331 2.398 . S
O341 C329 1.355 . S
O341 Dy331 2.491 . S
O342 Dy331 2.403 . S
O342 C337 1.254 . S
O343 Dy328 2.310 . S
O343 Dy331 2.664 . S
O343 C337 1.268 . S
O344 Dy328 2.351 . S
O344 C347 1.249 . S
O345 Dy331 2.326 . S
O345 C347 1.267 . S
C346 O338 1.249 . S
C346 O339 1.267 . S
C347 O344 1.249 . S
C347 O345 1.267 . S
Dy348 O352 2.398 . S
Dy348 O353 2.491 . S
Dy348 O354 2.403 1_455 S
Dy348 O355 2.664 1_455 S
Dy348 O359 2.326 . S
Dy348 O363 2.310 1_554 S
Dy348 O364 2.351 1_454 S
C349 O360 1.185 . S
C349 O361 1.355 . S
C350 O352 1.185 . S
C350 O353 1.355 . S
Dy351 O355 2.310 1_556 S
Dy351 O358 2.351 1_656 S
Dy351 O360 2.398 . S
Dy351 O361 2.491 . S
Dy351 O362 2.403 1_655 S
Dy351 O363 2.664 1_655 S
Dy351 O365 2.326 . S
O352 Dy348 2.398 . S
O352 C350 1.185 . S
O353 Dy348 2.491 . S
O353 C350 1.355 . S
O354 Dy348 2.403 1_655 S
O354 C356 1.254 . S
O355 Dy348 2.664 1_655 S
O355 Dy351 2.310 1_554 S
O355 C356 1.268 . S
C356 O354 1.254 . S
C356 O355 1.268 . S
C357 O362 1.254 . S
C357 O363 1.268 . S
O358 Dy351 2.351 1_454 S
O358 C366 1.249 . S
O359 Dy348 2.326 . S
O359 C366 1.267 . S
O360 C349 1.185 . S
O360 Dy351 2.398 . S
O361 C349 1.355 . S
O361 Dy351 2.491 . S
O362 Dy351 2.403 1_455 S
O362 C357 1.254 . S
O363 Dy348 2.310 1_556 S
O363 Dy351 2.664 1_455 S
O363 C357 1.268 . S
O364 Dy348 2.351 1_656 S
O364 C367 1.249 . S
O365 Dy351 2.326 . S
O365 C367 1.267 . S
C366 O358 1.249 . S
C366 O359 1.267 . S
C367 O364 1.249 . S
C367 O365 1.267 . S
H368 C374 0.930 . S
H369 C378 0.930 . S
H370 C383 0.929 . S
H371 C381 0.929 . S
H372 C376 0.929 . S
H373 C382 0.929 . S
C374 H368 0.930 . S
C374 C375 1.367 . S
C374 C382 1.378 . S
C375 C374 1.367 . S
C375 C383 1.433 . S
C376 H372 0.929 . S
C376 C378 1.378 . S
C376 C380 1.350 . S
C377 C380 1.463 . S
C377 C382 1.350 . S
C377 N385 1.427 . S
C378 H369 0.930 . S
C378 C376 1.378 . S
C378 C379 1.367 . S
C379 C378 1.367 . S
C379 C381 1.433 . S
C380 C376 1.350 . S
C380 C377 1.463 . S
C380 N384 1.427 . S
C381 H371 0.929 . S
C381 C379 1.433 . S
C381 N384 1.384 . S
C382 H373 0.929 . S
C382 C374 1.378 . S
C382 C377 1.350 . S
C383 H370 0.929 . S
C383 C375 1.433 . S
C383 N385 1.384 . S
N384 C380 1.427 . S
N384 C381 1.384 . S
N385 C377 1.427 . S
N385 C383 1.384 . S
H386 C392 0.930 . S
H387 C396 0.930 . S
H388 C401 0.929 . S
H389 C399 0.929 . S
H390 C394 0.929 . S
H391 C400 0.929 . S
C392 H386 0.930 . S
C392 C393 1.367 . S
C392 C400 1.378 . S
C393 C392 1.367 . S
C393 C401 1.433 . S
C394 H390 0.929 . S
C394 C396 1.378 . S
C394 C398 1.350 . S
C395 C398 1.463 . S
C395 C400 1.350 . S
C395 N403 1.427 . S
C396 H387 0.930 . S
C396 C394 1.378 . S
C396 C397 1.367 . S
C397 C396 1.367 . S
C397 C399 1.433 . S
C398 C394 1.350 . S
C398 C395 1.463 . S
C398 N402 1.427 . S
C399 H389 0.929 . S
C399 C397 1.433 . S
C399 N402 1.384 . S
C400 H391 0.929 . S
C400 C392 1.378 . S
C400 C395 1.350 . S
C401 H388 0.929 . S
C401 C393 1.433 . S
C401 N403 1.384 . S
N402 C398 1.427 . S
N402 C399 1.384 . S
N403 C395 1.427 . S
N403 C401 1.384 . S
H404 C410 0.930 . S
H405 C414 0.930 . S
H406 C419 0.929 . S
H407 C417 0.929 . S
H408 C412 0.929 . S
H409 C418 0.929 . S
C410 H404 0.930 . S
C410 C411 1.367 . S
C410 C418 1.378 . S
C411 C410 1.367 . S
C411 C419 1.433 . S
C412 H408 0.929 . S
C412 C414 1.378 . S
C412 C416 1.350 . S
C413 C416 1.463 . S
C413 C418 1.350 . S
C413 N421 1.427 . S
C414 H405 0.930 . S
C414 C412 1.378 . S
C414 C415 1.367 . S
C415 C414 1.367 . S
C415 C417 1.433 . S
C416 C412 1.350 . S
C416 C413 1.463 . S
C416 N420 1.427 . S
C417 H407 0.929 . S
C417 C415 1.433 . S
C417 N420 1.384 . S
C418 H409 0.929 . S
C418 C410 1.378 . S
C418 C413 1.350 . S
C419 H406 0.929 . S
C419 C411 1.433 . S
C419 N421 1.384 . S
N420 C416 1.427 . S
N420 C417 1.384 . S
N421 C413 1.427 . S
N421 C419 1.384 . S
H422 C428 0.930 . S
H423 C432 0.930 . S
H424 C437 0.929 . S
H425 C435 0.929 . S
H426 C430 0.929 . S
H427 C436 0.929 . S
C428 H422 0.930 . S
C428 C429 1.367 . S
C428 C436 1.378 . S
C429 C428 1.367 . S
C429 C437 1.433 . S
C430 H426 0.929 . S
C430 C432 1.378 . S
C430 C434 1.350 . S
C431 C434 1.463 . S
C431 C436 1.350 . S
C431 N439 1.427 . S
C432 H423 0.930 . S
C432 C430 1.378 . S
C432 C433 1.367 . S
C433 C432 1.367 . S
C433 C435 1.433 . S
C434 C430 1.350 . S
C434 C431 1.463 . S
C434 N438 1.427 . S
C435 H425 0.929 . S
C435 C433 1.433 . S
C435 N438 1.384 . S
C436 H427 0.929 . S
C436 C428 1.378 . S
C436 C431 1.350 . S
C437 H424 0.929 . S
C437 C429 1.433 . S
C437 N439 1.384 . S
N438 C434 1.427 . S
N438 C435 1.384 . S
N439 C431 1.427 . S
N439 C437 1.384 . S
H440 C446 0.930 . S
H441 C450 0.930 . S
H442 C455 0.929 . S
H443 C453 0.929 . S
H444 C448 0.929 . S
H445 C454 0.929 . S
C446 H440 0.930 . S
C446 C447 1.367 . S
C446 C454 1.378 . S
C447 C446 1.367 . S
C447 C455 1.433 . S
C448 H444 0.929 . S
C448 C450 1.378 . S
C448 C452 1.350 . S
C449 C452 1.463 . S
C449 C454 1.350 . S
C449 N457 1.427 . S
C450 H441 0.930 . S
C450 C448 1.378 . S
C450 C451 1.367 . S
C451 C450 1.367 . S
C451 C453 1.433 . S
C452 C448 1.350 . S
C452 C449 1.463 . S
C452 N456 1.427 . S
C453 H443 0.929 . S
C453 C451 1.433 . S
C453 N456 1.384 . S
C454 H445 0.929 . S
C454 C446 1.378 . S
C454 C449 1.350 . S
C455 H442 0.929 . S
C455 C447 1.433 . S
C455 N457 1.384 . S
N456 C452 1.427 . S
N456 C453 1.384 . S
N457 C449 1.427 . S
N457 C455 1.384 . S
H458 C464 0.930 . S
H459 C468 0.930 . S
H460 C473 0.929 . S
H461 C471 0.929 . S
H462 C466 0.929 . S
H463 C472 0.929 . S
C464 H458 0.930 . S
C464 C465 1.367 . S
C464 C472 1.378 . S
C465 C464 1.367 . S
C465 C473 1.433 . S
C466 H462 0.929 . S
C466 C468 1.378 . S
C466 C470 1.350 . S
C467 C470 1.463 . S
C467 C472 1.350 . S
C467 N475 1.427 . S
C468 H459 0.930 . S
C468 C466 1.378 . S
C468 C469 1.367 . S
C469 C468 1.367 . S
C469 C471 1.433 . S
C470 C466 1.350 . S
C470 C467 1.463 . S
C470 N474 1.427 . S
C471 H461 0.929 . S
C471 C469 1.433 . S
C471 N474 1.384 . S
C472 H463 0.929 . S
C472 C464 1.378 . S
C472 C467 1.350 . S
C473 H460 0.929 . S
C473 C465 1.433 . S
C473 N475 1.384 . S
N474 C470 1.427 . S
N474 C471 1.384 . S
N475 C467 1.427 . S
N475 C473 1.384 . S
H476 C482 0.930 . S
H477 C486 0.930 . S
H478 C491 0.929 . S
H479 C489 0.929 . S
H480 C484 0.929 . S
H481 C490 0.929 . S
C482 H476 0.930 . S
C482 C483 1.367 . S
C482 C490 1.378 . S
C483 C482 1.367 . S
C483 C491 1.433 . S
C484 H480 0.929 . S
C484 C486 1.378 . S
C484 C488 1.350 . S
C485 C488 1.463 . S
C485 C490 1.350 . S
C485 N493 1.427 . S
C486 H477 0.930 . S
C486 C484 1.378 . S
C486 C487 1.367 . S
C487 C486 1.367 . S
C487 C489 1.433 . S
C488 C484 1.350 . S
C488 C485 1.463 . S
C488 N492 1.427 . S
C489 H479 0.929 . S
C489 C487 1.433 . S
C489 N492 1.384 . S
C490 H481 0.929 . S
C490 C482 1.378 . S
C490 C485 1.350 . S
C491 H478 0.929 . S
C491 C483 1.433 . S
C491 N493 1.384 . S
N492 C488 1.427 . S
N492 C489 1.384 . S
N493 C485 1.427 . S
N493 C491 1.384 . S
H494 C500 0.930 . S
H495 C504 0.930 . S
H496 C509 0.929 . S
H497 C507 0.929 . S
H498 C502 0.929 . S
H499 C508 0.929 . S
C500 H494 0.930 . S
C500 C501 1.367 . S
C500 C508 1.378 . S
C501 C500 1.367 . S
C501 C509 1.433 . S
C502 H498 0.929 . S
C502 C504 1.378 . S
C502 C506 1.350 . S
C503 C506 1.463 . S
C503 C508 1.350 . S
C503 N511 1.427 . S
C504 H495 0.930 . S
C504 C502 1.378 . S
C504 C505 1.367 . S
C505 C504 1.367 . S
C505 C507 1.433 . S
C506 C502 1.350 . S
C506 C503 1.463 . S
C506 N510 1.427 . S
C507 H497 0.929 . S
C507 C505 1.433 . S
C507 N510 1.384 . S
C508 H499 0.929 . S
C508 C500 1.378 . S
C508 C503 1.350 . S
C509 H496 0.929 . S
C509 C501 1.433 . S
C509 N511 1.384 . S
N510 C506 1.427 . S
N510 C507 1.384 . S
N511 C503 1.427 . S
N511 C509 1.384 . S
H512 C518 0.930 . S
H513 C522 0.930 . S
H514 C527 0.929 . S
H515 C525 0.929 . S
H516 C520 0.929 . S
H517 C526 0.929 . S
C518 H512 0.930 . S
C518 C519 1.367 . S
C518 C526 1.378 . S
C519 C518 1.367 . S
C519 C527 1.433 . S
C520 H516 0.929 . S
C520 C522 1.378 . S
C520 C524 1.350 . S
C521 C524 1.463 . S
C521 C526 1.350 . S
C521 N529 1.427 . S
C522 H513 0.930 . S
C522 C520 1.378 . S
C522 C523 1.367 . S
C523 C522 1.367 . S
C523 C525 1.433 . S
C524 C520 1.350 . S
C524 C521 1.463 . S
C524 N528 1.427 . S
C525 H515 0.929 . S
C525 C523 1.433 . S
C525 N528 1.384 . S
C526 H517 0.929 . S
C526 C518 1.378 . S
C526 C521 1.350 . S
C527 H514 0.929 . S
C527 C519 1.433 . S
C527 N529 1.384 . S
N528 C524 1.427 . S
N528 C525 1.384 . S
N529 C521 1.427 . S
N529 C527 1.384 . S
H530 C536 0.930 . S
H531 C540 0.930 . S
H532 C545 0.929 . S
H533 C543 0.929 . S
H534 C538 0.929 . S
H535 C544 0.929 . S
C536 H530 0.930 . S
C536 C537 1.367 . S
C536 C544 1.378 . S
C537 C536 1.367 . S
C537 C545 1.433 . S
C538 H534 0.929 . S
C538 C540 1.378 . S
C538 C542 1.350 . S
C539 C542 1.463 . S
C539 C544 1.350 . S
C539 N547 1.427 . S
C540 H531 0.930 . S
C540 C538 1.378 . S
C540 C541 1.367 . S
C541 C540 1.367 . S
C541 C543 1.433 . S
C542 C538 1.350 . S
C542 C539 1.463 . S
C542 N546 1.427 . S
C543 H533 0.929 . S
C543 C541 1.433 . S
C543 N546 1.384 . S
C544 H535 0.929 . S
C544 C536 1.378 . S
C544 C539 1.350 . S
C545 H532 0.929 . S
C545 C537 1.433 . S
C545 N547 1.384 . S
N546 C542 1.427 . S
N546 C543 1.384 . S
N547 C539 1.427 . S
N547 C545 1.384 . S
H548 C554 0.930 . S
H549 C558 0.930 . S
H550 C563 0.929 . S
H551 C561 0.929 . S
H552 C556 0.929 . S
H553 C562 0.929 . S
C554 H548 0.930 . S
C554 C555 1.367 . S
C554 C562 1.378 . S
C555 C554 1.367 . S
C555 C563 1.433 . S
C556 H552 0.929 . S
C556 C558 1.378 . S
C556 C560 1.350 . S
C557 C560 1.463 . S
C557 C562 1.350 . S
C557 N565 1.427 . S
C558 H549 0.930 . S
C558 C556 1.378 . S
C558 C559 1.367 . S
C559 C558 1.367 . S
C559 C561 1.433 . S
C560 C556 1.350 . S
C560 C557 1.463 . S
C560 N564 1.427 . S
C561 H551 0.929 . S
C561 C559 1.433 . S
C561 N564 1.384 . S
C562 H553 0.929 . S
C562 C554 1.378 . S
C562 C557 1.350 . S
C563 H550 0.929 . S
C563 C555 1.433 . S
C563 N565 1.384 . S
N564 C560 1.427 . S
N564 C561 1.384 . S
N565 C557 1.427 . S
N565 C563 1.384 . S
H566 C572 0.930 . S
H567 C576 0.930 . S
H568 C581 0.929 . S
H569 C579 0.929 . S
H570 C574 0.929 . S
H571 C580 0.929 . S
C572 H566 0.930 . S
C572 C573 1.367 . S
C572 C580 1.378 . S
C573 C572 1.367 . S
C573 C581 1.433 . S
C574 H570 0.929 . S
C574 C576 1.378 . S
C574 C578 1.350 . S
C575 C578 1.463 . S
C575 C580 1.350 . S
C575 N583 1.427 . S
C576 H567 0.930 . S
C576 C574 1.378 . S
C576 C577 1.367 . S
C577 C576 1.367 . S
C577 C579 1.433 . S
C578 C574 1.350 . S
C578 C575 1.463 . S
C578 N582 1.427 . S
C579 H569 0.929 . S
C579 C577 1.433 . S
C579 N582 1.384 . S
C580 H571 0.929 . S
C580 C572 1.378 . S
C580 C575 1.350 . S
C581 H568 0.929 . S
C581 C573 1.433 . S
C581 N583 1.384 . S
N582 C578 1.427 . S
N582 C579 1.384 . S
N583 C575 1.427 . S
N583 C581 1.384 . S
H584 C590 0.930 . S
H585 C594 0.930 . S
H586 C599 0.929 . S
H587 C597 0.929 . S
H588 C592 0.929 . S
H589 C598 0.929 . S
C590 H584 0.930 . S
C590 C591 1.367 . S
C590 C598 1.378 . S
C591 C590 1.367 . S
C591 C599 1.433 . S
C592 H588 0.929 . S
C592 C594 1.378 . S
C592 C596 1.350 . S
C593 C596 1.463 . S
C593 C598 1.350 . S
C593 N601 1.427 . S
C594 H585 0.930 . S
C594 C592 1.378 . S
C594 C595 1.367 . S
C595 C594 1.367 . S
C595 C597 1.433 . S
C596 C592 1.350 . S
C596 C593 1.463 . S
C596 N600 1.427 . S
C597 H587 0.929 . S
C597 C595 1.433 . S
C597 N600 1.384 . S
C598 H589 0.929 . S
C598 C590 1.378 . S
C598 C593 1.350 . S
C599 H586 0.929 . S
C599 C591 1.433 . S
C599 N601 1.384 . S
N600 C596 1.427 . S
N600 C597 1.384 . S
N601 C593 1.427 . S
N601 C599 1.384 . S
H602 C608 0.930 . S
H603 C612 0.930 . S
H604 C617 0.929 . S
H605 C615 0.929 . S
H606 C610 0.929 . S
H607 C616 0.929 . S
C608 H602 0.930 . S
C608 C609 1.367 . S
C608 C616 1.378 . S
C609 C608 1.367 . S
C609 C617 1.433 . S
C610 H606 0.929 . S
C610 C612 1.378 . S
C610 C614 1.350 . S
C611 C614 1.463 . S
C611 C616 1.350 . S
C611 N619 1.427 . S
C612 H603 0.930 . S
C612 C610 1.378 . S
C612 C613 1.367 . S
C613 C612 1.367 . S
C613 C615 1.433 . S
C614 C610 1.350 . S
C614 C611 1.463 . S
C614 N618 1.427 . S
C615 H605 0.929 . S
C615 C613 1.433 . S
C615 N618 1.384 . S
C616 H607 0.929 . S
C616 C608 1.378 . S
C616 C611 1.350 . S
C617 H604 0.929 . S
C617 C609 1.433 . S
C617 N619 1.384 . S
N618 C614 1.427 . S
N618 C615 1.384 . S
N619 C611 1.427 . S
N619 C617 1.384 . S
H620 C626 0.930 . S
H621 C630 0.930 . S
H622 C635 0.929 . S
H623 C633 0.929 . S
H624 C628 0.929 . S
H625 C634 0.929 . S
C626 H620 0.930 . S
C626 C627 1.367 . S
C626 C634 1.378 . S
C627 C626 1.367 . S
C627 C635 1.433 . S
C628 H624 0.929 . S
C628 C630 1.378 . S
C628 C632 1.350 . S
C629 C632 1.463 . S
C629 C634 1.350 . S
C629 N637 1.427 . S
C630 H621 0.930 . S
C630 C628 1.378 . S
C630 C631 1.367 . S
C631 C630 1.367 . S
C631 C633 1.433 . S
C632 C628 1.350 . S
C632 C629 1.463 . S
C632 N636 1.427 . S
C633 H623 0.929 . S
C633 C631 1.433 . S
C633 N636 1.384 . S
C634 H625 0.929 . S
C634 C626 1.378 . S
C634 C629 1.350 . S
C635 H622 0.929 . S
C635 C627 1.433 . S
C635 N637 1.384 . S
N636 C632 1.427 . S
N636 C633 1.384 . S
N637 C629 1.427 . S
N637 C635 1.384 . S
H638 C644 0.930 . S
H639 C648 0.930 . S
H640 C653 0.929 . S
H641 C651 0.929 . S
H642 C646 0.929 . S
H643 C652 0.929 . S
C644 H638 0.930 . S
C644 C645 1.367 . S
C644 C652 1.378 . S
C645 C644 1.367 . S
C645 C653 1.433 . S
C646 H642 0.929 . S
C646 C648 1.378 . S
C646 C650 1.350 . S
C647 C650 1.463 . S
C647 C652 1.350 . S
C647 N655 1.427 . S
C648 H639 0.930 . S
C648 C646 1.378 . S
C648 C649 1.367 . S
C649 C648 1.367 . S
C649 C651 1.433 . S
C650 C646 1.350 . S
C650 C647 1.463 . S
C650 N654 1.427 . S
C651 H641 0.929 . S
C651 C649 1.433 . S
C651 N654 1.384 . S
C652 H643 0.929 . S
C652 C644 1.378 . S
C652 C647 1.350 . S
C653 H640 0.929 . S
C653 C645 1.433 . S
C653 N655 1.384 . S
N654 C650 1.427 . S
N654 C651 1.384 . S
N655 C647 1.427 . S
N655 C653 1.384 . S
H656 C662 0.930 . S
H657 C666 0.930 . S
H658 C671 0.929 . S
H659 C669 0.929 . S
H660 C664 0.929 . S
H661 C670 0.929 . S
C662 H656 0.930 . S
C662 C663 1.367 . S
C662 C670 1.378 . S
C663 C662 1.367 . S
C663 C671 1.433 . S
C664 H660 0.929 . S
C664 C666 1.378 . S
C664 C668 1.350 . S
C665 C668 1.463 . S
C665 C670 1.350 . S
C665 N673 1.427 . S
C666 H657 0.930 . S
C666 C664 1.378 . S
C666 C667 1.367 . S
C667 C666 1.367 . S
C667 C669 1.433 . S
C668 C664 1.350 . S
C668 C665 1.463 . S
C668 N672 1.427 . S
C669 H659 0.929 . S
C669 C667 1.433 . S
C669 N672 1.384 . S
C670 H661 0.929 . S
C670 C662 1.378 . S
C670 C665 1.350 . S
C671 H658 0.929 . S
C671 C663 1.433 . S
C671 N673 1.384 . S
N672 C668 1.427 . S
N672 C669 1.384 . S
N673 C665 1.427 . S
N673 C671 1.384 . S
H674 C680 0.930 . S
H675 C684 0.930 . S
H676 C689 0.929 . S
H677 C687 0.929 . S
H678 C682 0.929 . S
H679 C688 0.929 . S
C680 H674 0.930 . S
C680 C681 1.367 . S
C680 C688 1.378 . S
C681 C680 1.367 . S
C681 C689 1.433 . S
C682 H678 0.929 . S
C682 C684 1.378 . S
C682 C686 1.350 . S
C683 C686 1.463 . S
C683 C688 1.350 . S
C683 N691 1.427 . S
C684 H675 0.930 . S
C684 C682 1.378 . S
C684 C685 1.367 . S
C685 C684 1.367 . S
C685 C687 1.433 . S
C686 C682 1.350 . S
C686 C683 1.463 . S
C686 N690 1.427 . S
C687 H677 0.929 . S
C687 C685 1.433 . S
C687 N690 1.384 . S
C688 H679 0.929 . S
C688 C680 1.378 . S
C688 C683 1.350 . S
C689 H676 0.929 . S
C689 C681 1.433 . S
C689 N691 1.384 . S
N690 C686 1.427 . S
N690 C687 1.384 . S
N691 C683 1.427 . S
N691 C689 1.384 . S
H692 C698 0.930 . S
H693 C702 0.930 . S
H694 C707 0.929 . S
H695 C705 0.929 1_556 S
H696 C700 0.929 . S
H697 C706 0.929 . S
C698 H692 0.930 . S
C698 C699 1.367 . S
C698 C706 1.378 . S
C699 C698 1.367 . S
C699 C707 1.433 . S
C700 H696 0.929 . S
C700 C702 1.378 . S
C700 C704 1.350 . S
C701 C704 1.463 . S
C701 C706 1.350 . S
C701 N709 1.427 . S
C702 H693 0.930 . S
C702 C700 1.378 . S
C702 C703 1.367 . S
C703 C702 1.367 . S
C703 C705 1.433 . S
C704 C700 1.350 . S
C704 C701 1.463 . S
C704 N708 1.427 . S
C705 H695 0.929 1_554 S
C705 C703 1.433 . S
C705 N708 1.384 . S
C706 H697 0.929 . S
C706 C698 1.378 . S
C706 C701 1.350 . S
C707 H694 0.929 . S
C707 C699 1.433 . S
C707 N709 1.384 . S
N708 C704 1.427 . S
N708 C705 1.384 . S
N709 C701 1.427 . S
N709 C707 1.384 . S
H710 C716 0.930 . S
H711 C720 0.930 . S
H712 C725 0.929 . S
H713 C723 0.929 . S
H714 C718 0.929 . S
H715 C724 0.929 . S
C716 H710 0.930 . S
C716 C717 1.367 . S
C716 C724 1.378 . S
C717 C716 1.367 . S
C717 C725 1.433 . S
C718 H714 0.929 . S
C718 C720 1.378 . S
C718 C722 1.350 . S
C719 C722 1.463 . S
C719 C724 1.350 . S
C719 N727 1.427 . S
C720 H711 0.930 . S
C720 C718 1.378 . S
C720 C721 1.367 . S
C721 C720 1.367 . S
C721 C723 1.433 . S
C722 C718 1.350 . S
C722 C719 1.463 . S
C722 N726 1.427 . S
C723 H713 0.929 . S
C723 C721 1.433 . S
C723 N726 1.384 . S
C724 H715 0.929 . S
C724 C716 1.378 . S
C724 C719 1.350 . S
C725 H712 0.929 . S
C725 C717 1.433 . S
C725 N727 1.384 . S
N726 C722 1.427 . S
N726 C723 1.384 . S
N727 C719 1.427 . S
N727 C725 1.384 . S
H728 C734 0.930 . S
H729 C738 0.930 . S
H730 C743 0.929 . S
H731 C741 0.929 . S
H732 C736 0.929 . S
H733 C742 0.929 . S
C734 H728 0.930 . S
C734 C735 1.367 . S
C734 C742 1.378 . S
C735 C734 1.367 . S
C735 C743 1.433 . S
C736 H732 0.929 . S
C736 C738 1.378 . S
C736 C740 1.350 . S
C737 C740 1.463 . S
C737 C742 1.350 . S
C737 N745 1.427 . S
C738 H729 0.930 . S
C738 C736 1.378 . S
C738 C739 1.367 . S
C739 C738 1.367 . S
C739 C741 1.433 . S
C740 C736 1.350 . S
C740 C737 1.463 . S
C740 N744 1.427 . S
C741 H731 0.929 . S
C741 C739 1.433 . S
C741 N744 1.384 . S
C742 H733 0.929 . S
C742 C734 1.378 . S
C742 C737 1.350 . S
C743 H730 0.929 . S
C743 C735 1.433 . S
C743 N745 1.384 . S
N744 C740 1.427 . S
N744 C741 1.384 . S
N745 C737 1.427 . S
N745 C743 1.384 . S
H746 C752 0.930 . S
H747 C756 0.930 . S
H748 C761 0.929 . S
H749 C759 0.929 . S
H750 C754 0.929 . S
H751 C760 0.929 . S
C752 H746 0.930 . S
C752 C753 1.367 . S
C752 C760 1.378 . S
C753 C752 1.367 . S
C753 C761 1.433 . S
C754 H750 0.929 . S
C754 C756 1.378 . S
C754 C758 1.350 . S
C755 C758 1.463 . S
C755 C760 1.350 . S
C755 N763 1.427 . S
C756 H747 0.930 . S
C756 C754 1.378 . S
C756 C757 1.367 . S
C757 C756 1.367 . S
C757 C759 1.433 . S
C758 C754 1.350 . S
C758 C755 1.463 . S
C758 N762 1.427 . S
C759 H749 0.929 . S
C759 C757 1.433 . S
C759 N762 1.384 . S
C760 H751 0.929 . S
C760 C752 1.378 . S
C760 C755 1.350 . S
C761 H748 0.929 . S
C761 C753 1.433 . S
C761 N763 1.384 . S
N762 C758 1.427 . S
N762 C759 1.384 . S
N763 C755 1.427 . S
N763 C761 1.384 . S
H764 C770 0.930 . S
H765 C774 0.930 . S
H766 C779 0.929 . S
H767 C777 0.929 . S
H768 C772 0.929 . S
H769 C778 0.929 . S
C770 H764 0.930 . S
C770 C771 1.367 . S
C770 C778 1.378 . S
C771 C770 1.367 . S
C771 C779 1.433 . S
C772 H768 0.929 . S
C772 C774 1.378 . S
C772 C776 1.350 . S
C773 C776 1.463 . S
C773 C778 1.350 . S
C773 N781 1.427 . S
C774 H765 0.930 . S
C774 C772 1.378 . S
C774 C775 1.367 . S
C775 C774 1.367 . S
C775 C777 1.433 . S
C776 C772 1.350 . S
C776 C773 1.463 . S
C776 N780 1.427 . S
C777 H767 0.929 . S
C777 C775 1.433 . S
C777 N780 1.384 . S
C778 H769 0.929 . S
C778 C770 1.378 . S
C778 C773 1.350 . S
C779 H766 0.929 . S
C779 C771 1.433 . S
C779 N781 1.384 . S
N780 C776 1.427 . S
N780 C777 1.384 . S
N781 C773 1.427 . S
N781 C779 1.384 . S
H782 C788 0.930 . S
H783 C792 0.930 . S
H784 C797 0.929 . S
H785 C795 0.929 . S
H786 C790 0.929 . S
H787 C796 0.929 . S
C788 H782 0.930 . S
C788 C789 1.367 . S
C788 C796 1.378 . S
C789 C788 1.367 . S
C789 C797 1.433 . S
C790 H786 0.929 . S
C790 C792 1.378 . S
C790 C794 1.350 . S
C791 C794 1.463 . S
C791 C796 1.350 . S
C791 N799 1.427 . S
C792 H783 0.930 . S
C792 C790 1.378 . S
C792 C793 1.367 . S
C793 C792 1.367 . S
C793 C795 1.433 . S
C794 C790 1.350 . S
C794 C791 1.463 . S
C794 N798 1.427 . S
C795 H785 0.929 . S
C795 C793 1.433 . S
C795 N798 1.384 . S
C796 H787 0.929 . S
C796 C788 1.378 . S
C796 C791 1.350 . S
C797 H784 0.929 . S
C797 C789 1.433 . S
C797 N799 1.384 . S
N798 C794 1.427 . S
N798 C795 1.384 . S
N799 C791 1.427 . S
N799 C797 1.384 . S
C375 C1 1.547 . S
C379 C290 1.550 . S
C393 C67 1.365 . S
C397 C309 1.347 . S
C415 C346 1.726 . S
C411 C97 1.744 . S
C429 C133 1.724 . S
C433 C356 1.664 . S
C451 C326 2.012 . S
C447 C25 1.988 . S
C469 C296 1.408 . S
C465 C37 1.473 . S
C487 C367 1.507 . S
C483 C103 1.528 . S
C505 C337 1.405 . S
C501 C109 1.430 . S
C519 C31 1.766 . S
C523 C350 1.775 . S
C541 C317 1.692 . S
C537 C73 1.742 . S
C555 C139 1.760 . S
C559 C307 1.752 . S
C573 C61 1.216 . S
C577 C329 1.235 . S
C595 C289 1.554 . S
C591 C175 1.511 . S
C609 C181 1.349 . S
C613 C310 1.333 . S
C627 C247 1.774 . S
C631 C347 1.752 . S
C645 C277 1.716 . S
C649 C357 1.650 . S
C663 C145 1.939 . S
C667 C327 2.003 . S
C685 C297 1.431 . S
C681 C211 1.477 . S
C703 C366 1.490 . S
C699 C217 1.513 . S
C721 C336 1.413 . S
C717 C283 1.449 . S
C735 C169 1.704 . S
C739 C349 1.773 . S
C757 C316 1.689 . S
C753 C241 1.749 . S
C775 C306 1.740 . S
C771 C253 1.747 . S
C789 C205 1.235 . S
C793 C330 1.248 . S
