# Generated by pormake.
# Topology zzz, (3,6)-cn, num edge types: 1
# Building blocks:
#     Node 0, Type 0, BuildingBlock: ESEHIV_clean_linker_0, # of connection points: 3
#     Node 1, Type 0, BuildingBlock: ESEHIV_clean_linker_0, # of connection points: 3
#     Node 2, Type 0, BuildingBlock: ESEHIV_clean_linker_0, # of connection points: 3
#     Node 3, Type 0, BuildingBlock: ESEHIV_clean_linker_0, # of connection points: 3
#     Node 4, Type 0, BuildingBlock: ESEHIV_clean_linker_0, # of connection points: 3
#     Node 5, Type 0, BuildingBlock: ESEHIV_clean_linker_0, # of connection points: 3
#     Node 6, Type 0, BuildingBlock: ESEHIV_clean_linker_0, # of connection points: 3
#     Node 7, Type 0, BuildingBlock: ESEHIV_clean_linker_0, # of connection points: 3
#     Node 8, Type 1, BuildingBlock: PAMTOO_clean_sbu_0, # of connection points: 6
#     Node 9, Type 1, BuildingBlock: PAMTOO_clean_sbu_0, # of connection points: 6
#     Node 10, Type 1, BuildingBlock: PAMTOO_clean_sbu_0, # of connection points: 6
#     Node 11, Type 1, BuildingBlock: PAMTOO_clean_sbu_0, # of connection points: 6
#     Edge 12, Type (0, 1), BuildingBlock: EZIPEK_clean_linker_0, # of connection points: 2
#     Edge 13, Type (0, 1), BuildingBlock: EZIPEK_clean_linker_0, # of connection points: 2
#     Edge 14, Type (0, 1), BuildingBlock: EZIPEK_clean_linker_0, # of connection points: 2
#     Edge 15, Type (0, 1), BuildingBlock: EZIPEK_clean_linker_0, # of connection points: 2
#     Edge 16, Type (0, 1), BuildingBlock: EZIPEK_clean_linker_0, # of connection points: 2
#     Edge 17, Type (0, 1), BuildingBlock: EZIPEK_clean_linker_0, # of connection points: 2
#     Edge 18, Type (0, 1), BuildingBlock: EZIPEK_clean_linker_0, # of connection points: 2
#     Edge 19, Type (0, 1), BuildingBlock: EZIPEK_clean_linker_0, # of connection points: 2
#     Edge 20, Type (0, 1), BuildingBlock: EZIPEK_clean_linker_0, # of connection points: 2
#     Edge 21, Type (0, 1), BuildingBlock: EZIPEK_clean_linker_0, # of connection points: 2
#     Edge 22, Type (0, 1), BuildingBlock: EZIPEK_clean_linker_0, # of connection points: 2
#     Edge 23, Type (0, 1), BuildingBlock: EZIPEK_clean_linker_0, # of connection points: 2
#     Edge 24, Type (0, 1), BuildingBlock: EZIPEK_clean_linker_0, # of connection points: 2
#     Edge 25, Type (0, 1), BuildingBlock: EZIPEK_clean_linker_0, # of connection points: 2
#     Edge 26, Type (0, 1), BuildingBlock: EZIPEK_clean_linker_0, # of connection points: 2
#     Edge 27, Type (0, 1), BuildingBlock: EZIPEK_clean_linker_0, # of connection points: 2
#     Edge 28, Type (0, 1), BuildingBlock: EZIPEK_clean_linker_0, # of connection points: 2
#     Edge 29, Type (0, 1), BuildingBlock: EZIPEK_clean_linker_0, # of connection points: 2
#     Edge 30, Type (0, 1), BuildingBlock: EZIPEK_clean_linker_0, # of connection points: 2
#     Edge 31, Type (0, 1), BuildingBlock: EZIPEK_clean_linker_0, # of connection points: 2
#     Edge 32, Type (0, 1), BuildingBlock: EZIPEK_clean_linker_0, # of connection points: 2
#     Edge 33, Type (0, 1), BuildingBlock: EZIPEK_clean_linker_0, # of connection points: 2
#     Edge 34, Type (0, 1), BuildingBlock: EZIPEK_clean_linker_0, # of connection points: 2
#     Edge 35, Type (0, 1), BuildingBlock: EZIPEK_clean_linker_0, # of connection points: 2
# Relax obj value: 0.478
# Max RMSD: 0.308
# Mean RMSD: 0.227
data_MOF--net-zzz--node1-PAMTOO_clean_sbu_0--node2-ESEHIV_clean_linker_0--edge1-EZIPEK_clean_linker_0
_symmetry_space_group_name_H-M    P1
_symmetry_Int_Tables_number       1
_symmetry_cell_setting            triclinic
loop_
_symmetry_equiv_pos_as_xyz
'x, y, z'
_cell_length_a     37.619892
_cell_length_b     29.759965
_cell_length_c     11.743519
_cell_angle_alpha  92.826808
_cell_angle_beta   75.788202
_cell_angle_gamma 84.088504
loop_
_atom_site_label
_atom_site_type_symbol
_atom_site_fract_x
_atom_site_fract_y
_atom_site_fract_z
_atom_type_partial_charge
H0 H 0.87937 0.44354 0.50249 0.0
H1 H 0.77439 0.46547 0.42201 0.0
H2 H 0.79847 0.55341 0.68907 0.0
C3 C 0.85228 0.46279 0.5188 0.0
C4 C 0.8419 0.49922 0.60605 0.0
C5 C 0.8277 0.45092 0.45322 0.0
C6 C 0.79292 0.47509 0.4744 0.0
C7 C 0.78236 0.51292 0.55534 0.0
C8 C 0.80661 0.52469 0.62413 0.0
H9 H 0.08137 0.79491 0.33623 0.0
H10 H 0.06444 0.6663 0.19337 0.0
H11 H 1.00484 0.71459 0.5484 0.0
C12 C 0.06737 0.76473 0.34735 0.0
C13 C 0.04257 0.75949 0.45579 0.0
C14 C 0.07625 0.73033 0.25577 0.0
C15 C 0.05799 0.69195 0.26666 0.0
C16 C 0.03145 0.68623 0.36991 0.0
C17 C 0.02423 0.71962 0.46645 0.0
H18 H 0.69912 0.05949 0.42506 0.0
H19 H 0.80933 0.0608 0.21527 0.0
H20 H 0.78985 0.9849 0.5256 0.0
C21 C 0.72844 0.04845 0.41012 0.0
C22 C 0.7407 0.02097 0.48941 0.0
C23 C 0.75296 0.0628 0.31291 0.0
C24 C 0.79074 0.04935 0.29147 0.0
C25 C 0.80473 0.02044 0.36509 0.0
C26 C 0.77951 1.00639 0.46629 0.0
H27 H 0.46724 0.6886 0.52386 0.0
H28 H 0.52817 0.80379 0.48737 0.0
H29 H 0.48388 0.75569 0.20384 0.0
C30 C 0.47766 0.71622 0.47343 0.0
C31 C 0.47439 0.71766 0.35821 0.0
C32 C 0.50131 0.74241 0.51375 0.0
C33 C 0.51232 0.78075 0.45231 0.0
C34 C 0.50341 0.78788 0.34263 0.0
C35 C 0.48723 0.75365 0.2926 0.0
H36 H 0.17745 0.57238 0.29967 0.0
H37 H 0.27974 0.54336 0.3927 0.0
H38 H 0.26278 0.4726 0.08497 0.0
C39 C 0.20472 0.55343 0.28051 0.0
C40 C 0.21682 0.52181 0.18094 0.0
C41 C 0.228 0.56187 0.35358 0.0
C42 C 0.26249 0.53717 0.33303 0.0
C43 C 0.27497 0.50409 0.23938 0.0
C44 C 0.25266 0.49713 0.16021 0.0
H45 H 0.96499 0.21368 0.46619 0.0
H46 H 0.98455 0.33935 0.6194 0.0
H47 H 0.04719 0.29055 0.26783 0.0
C48 C 0.9803 0.24283 0.45904 0.0
C49 C 1.00714 0.24727 0.35445 0.0
C50 C 0.9718 0.27644 0.55258 0.0
C51 C 0.99124 0.31384 0.54564 0.0
C52 C 1.01898 0.31896 0.44507 0.0
C53 C 0.0265 0.28612 0.3474 0.0
H54 H 0.34184 0.94869 0.38294 0.0
H55 H 0.23184 0.94727 0.5942 0.0
H56 H 0.25118 0.02829 0.2938 0.0
C57 C 0.31254 0.95996 0.39876 0.0
C58 C 0.30023 0.98924 0.3228 0.0
C59 C 0.28803 0.94508 0.49537 0.0
C60 C 0.25032 0.9589 0.51801 0.0
C61 C 0.23642 0.98978 0.44889 0.0
C62 C 0.2615 1.00487 0.34911 0.0
H63 H 0.51686 0.37123 0.44047 0.0
H64 H 0.4981 0.23748 0.33024 0.0
H65 H 0.54736 0.2575 0.62084 0.0
C66 C 0.51748 0.33525 0.45301 0.0
C67 C 0.53443 0.31758 0.53702 0.0
C68 C 0.50739 0.30689 0.37121 0.0
C69 C 0.50667 0.26006 0.39085 0.0
C70 C 0.51787 0.2429 0.48993 0.0
C71 C 0.53431 0.27149 0.5556 0.0
Dy72 Dy 0.99697 0.02553 0.82833 0.0
Dy73 Dy 0.04565 0.98143 0.99916 0.0
C74 C 0.08612 1.00898 0.73256 0.0
O75 O 1.00672 0.95152 0.7679 0.0
O76 O 0.04419 0.92066 0.87919 0.0
O77 O 0.98479 0.07035 0.70081 0.0
O78 O 0.9467 0.02277 0.77219 0.0
O79 O 0.987 0.97532 0.1004 0.0
O80 O 0.95624 0.02547 1.00519 0.0
O81 O 0.0272 0.05255 0.07723 0.0
O82 O 1.01158 0.08661 0.92211 0.0
O83 O 0.05731 0.93554 0.12504 0.0
O84 O 0.0935 0.98661 0.06771 0.0
C85 C 0.02687 0.91691 0.79501 0.0
O86 O 0.05418 0.01843 0.70668 0.0
O87 O 0.08811 0.99794 0.83834 0.0
C88 C 0.92201 0.09487 0.73601 0.0
C89 C 0.88621 0.18339 0.7869 0.0
C90 C 0.89813 0.16419 0.66926 0.0
C91 C 0.91623 0.12034 0.64425 0.0
C92 C 0.90453 0.11067 0.85306 0.0
C93 C 0.88601 0.15453 0.87826 0.0
C94 C 0.95205 0.05769 0.71003 0.0
C95 C 0.95647 0.99956 0.09252 0.0
C96 C 1.01916 0.08904 0.02599 0.0
C97 C 0.12026 0.91428 0.09525 0.0
C98 C 0.15835 0.82731 0.03241 0.0
C99 C 0.15915 0.85872 0.94654 0.0
C100 C 0.13959 0.9019 0.97759 0.0
C101 C 0.12503 0.88607 0.18293 0.0
C102 C 0.1446 0.8432 0.1522 0.0
C103 C 0.08901 0.94997 0.12325 0.0
H104 H 0.89823 0.18462 0.59545 0.0
H105 H 0.9292 0.10833 0.55339 0.0
H106 H 0.90811 0.0909 0.92532 0.0
H107 H 0.8753 0.16718 0.96943 0.0
H108 H 0.17104 0.8484 0.85428 0.0
H109 H 0.13649 0.92361 0.9084 0.0
H110 H 0.11013 0.895 0.27382 0.0
H111 H 0.14396 0.82058 0.22192 0.0
Dy112 Dy 0.51542 0.97502 0.79546 0.0
Dy113 Dy 0.52052 0.04922 0.99987 0.0
C114 C 0.51329 0.07972 0.74596 0.0
O115 O 0.57693 0.97912 0.75298 0.0
O116 O 0.58025 0.03252 0.89674 0.0
O117 O 0.50093 0.96055 0.63333 0.0
O118 O 0.52268 0.90557 0.72056 0.0
O119 O 0.53198 0.98308 0.0791 0.0
O120 O 0.5119 0.93524 0.95514 0.0
O121 O 0.46161 0.03449 0.06089 0.0
O122 O 0.4553 0.99799 0.89127 0.0
O123 O 0.51959 0.07405 0.177 0.0
O124 O 0.5264 0.11934 0.03774 0.0
C125 C 0.59617 1.00573 0.80094 0.0
O126 O 0.52485 0.03809 0.70143 0.0
O127 O 0.5015 0.08839 0.86079 0.0
C128 C 0.47291 0.89481 0.63436 0.0
C129 C 0.40001 0.87756 0.65207 0.0
C130 C 0.41814 0.86236 0.73644 0.0
C131 C 0.45442 0.8715 0.72849 0.0
C132 C 0.4556 0.90618 0.54531 0.0
C133 C 0.41928 0.89845 0.55537 0.0
C134 C 0.50565 0.91685 0.63988 0.0
C135 C 0.5223 0.94334 0.05232 0.0
C136 C 0.44108 0.01528 1.00108 0.0
C137 C 0.56396 0.12565 0.16907 0.0
C138 C 0.63722 0.13425 0.1726 0.0
C139 C 0.61955 0.16292 0.10719 0.0
C140 C 0.58294 0.15881 0.10597 0.0
C141 C 0.58104 0.09975 0.24184 0.0
C142 C 0.61746 0.10377 0.24257 0.0
C143 C 0.52956 0.11304 0.14381 0.0
H144 H 0.40355 0.84619 0.81177 0.0
H145 H 0.46703 0.86277 0.79926 0.0
H146 H 0.46905 0.92484 0.47323 0.0
H147 H 0.40539 0.91121 0.49076 0.0
H148 H 0.63456 0.18664 0.05291 0.0
H149 H 0.57031 0.17956 0.04993 0.0
H150 H 0.56712 0.07444 0.29294 0.0
H151 H 0.63087 0.08158 0.29396 0.0
Dy152 Dy 0.55245 0.53682 0.98392 0.0
Dy153 Dy 0.48616 0.50736 0.85574 0.0
C154 C 0.51023 0.44875 0.05784 0.0
O155 O 0.57425 0.47374 0.86769 0.0
O156 O 0.54256 0.49445 0.73481 0.0
O157 O 0.56414 0.56736 0.13802 0.0
O158 O 0.60944 0.54465 0.98505 0.0
O159 O 0.49625 0.57767 0.79903 0.0
O160 O 0.55264 0.5852 0.84071 0.0
O161 O 0.45886 0.53639 0.03928 0.0
O162 O 0.50172 0.58523 0.03543 0.0
O163 O 0.43124 0.51734 0.82612 0.0
O164 O 0.4698 0.45913 0.73999 0.0
C165 C 0.56824 0.46742 0.76342 0.0
O166 O 0.52472 0.48377 0.094 0.0
O167 O 0.49888 0.44851 0.95993 0.0
C168 C 0.62385 0.55216 0.17501 0.0
C169 C 0.66929 0.54828 0.33605 0.0
C170 C 0.63086 0.54923 0.37583 0.0
C171 C 0.60848 0.55056 0.2966 0.0
C172 C 0.66245 0.55045 0.13465 0.0
C173 C 0.68495 0.54806 0.21411 0.0
C174 C 0.59983 0.56273 0.09375 0.0
C175 C 0.52556 0.5996 0.79253 0.0
C176 C 0.46875 0.57386 0.07821 0.0
C177 C 0.41974 0.48169 0.65269 0.0
C178 C 0.38337 0.47462 0.46859 0.0
C179 C 0.42205 0.46555 0.44484 0.0
C180 C 0.44011 0.46885 0.53601 0.0
C181 C 0.38116 0.49131 0.67563 0.0
C182 C 0.3632 0.48783 0.58483 0.0
C183 C 0.4369 0.48099 0.75406 0.0
H184 H 0.61816 0.5491 0.46875 0.0
H185 H 0.57903 0.55151 0.33149 0.0
H186 H 0.67518 0.55229 0.04191 0.0
H187 H 0.71456 0.5471 0.18068 0.0
H188 H 0.43824 0.45592 0.35601 0.0
H189 H 0.46985 0.46083 0.51539 0.0
H190 H 0.36471 0.50069 0.7648 0.0
H191 H 0.33341 0.49521 0.60545 0.0
Dy192 Dy 0.03542 0.56025 0.82975 0.0
Dy193 Dy 0.02666 0.4609 0.92808 0.0
C194 C 0.05794 0.46943 0.66281 0.0
O195 O 0.97516 0.55394 0.85552 0.0
O196 O 0.98035 0.47665 0.84047 0.0
O197 O 0.0552 0.60064 0.68645 0.0
O198 O 0.02306 0.63338 0.85429 0.0
O199 O 0.99576 0.51049 0.08146 0.0
O200 O 0.02771 0.57027 0.02249 0.0
O201 O 0.07736 0.47899 0.9788 0.0
O202 O 0.09172 0.53692 0.85862 0.0
O203 O 1.01904 0.41279 0.06141 0.0
O204 O 0.02494 0.39034 0.87932 0.0
C205 C 0.96247 0.51611 0.83117 0.0
O206 O 0.0381 0.5091 0.67991 0.0
O207 O 0.06793 0.45327 0.75342 0.0
C208 C 0.07403 0.66728 0.74793 0.0
C209 C 0.1495 0.67732 0.69146 0.0
C210 C 0.12814 0.68584 0.60998 0.0
C211 C 0.09062 0.68215 0.63934 0.0
C212 C 0.09318 0.66645 0.83641 0.0
C213 C 0.13076 0.67189 0.80865 0.0
C214 C 0.04432 0.63883 0.75125 0.0
C215 C 1.00656 0.54997 0.10443 0.0
C216 C 0.09963 0.50872 0.93515 0.0
C217 C 0.98119 0.35862 0.02416 0.0
C218 C 0.90778 0.34088 0.11813 0.0
C219 C 0.93354 0.33981 0.18776 0.0
C220 C 0.96997 0.34717 0.14029 0.0
C221 C 0.95689 0.35598 0.95085 0.0
C222 C 0.92072 0.34656 0.99707 0.0
C223 C 1.01542 0.38013 0.98831 0.0
H224 H 0.14077 0.68975 0.51842 0.0
H225 H 0.07605 0.68447 0.57118 0.0
H226 H 0.08012 0.65732 0.92343 0.0
H227 H 0.14533 0.66787 0.87663 0.0
H228 H 0.92516 0.33703 0.28172 0.0
H229 H 0.98863 0.34789 0.19709 0.0
H230 H 0.96496 0.36386 0.85968 0.0
H231 H 0.9025 0.34678 0.93896 0.0
C232 C 0.16964 0.97977 0.46126 0.0
C233 C 0.19559 1.00622 0.4927 0.0
C234 C 0.14601 0.0434 0.66047 0.0
C235 C 0.12191 0.01171 0.64056 0.0
N236 N 0.11037 0.95012 0.5189 0.0
N237 N 0.20862 0.06403 0.62153 0.0
C238 C 0.13337 0.98062 0.53852 0.0
C239 C 0.18351 0.03885 0.59109 0.0
N240 N 0.1801 0.95344 0.35736 0.0
N241 N 0.13264 0.07856 0.74447 0.0
H242 H 0.23547 0.06333 0.56898 0.0
H243 H 0.2035 0.08402 0.7004 0.0
H244 H 0.10525 0.08328 0.7941 0.0
H245 H 0.14739 0.10525 0.75751 0.0
H246 H 0.16219 0.93588 0.32264 0.0
H247 H 0.20635 0.95243 0.30054 0.0
H248 H 0.11861 0.92243 0.45705 0.0
H249 H 0.0834 0.95074 0.56994 0.0
C250 C 0.48077 0.18356 0.59507 0.0
C251 C 0.51505 0.1951 0.5274 0.0
C252 C 0.54717 0.12656 0.58646 0.0
C253 C 0.51345 0.11774 0.66454 0.0
N254 N 0.4476 0.1355 0.73717 0.0
N255 N 0.58078 0.17784 0.45654 0.0
C256 C 0.48005 0.14551 0.66631 0.0
C257 C 0.54807 0.16603 0.52108 0.0
N258 N 0.44888 0.20945 0.59167 0.0
N259 N 0.57863 0.09741 0.57533 0.0
H260 H 0.582 0.20368 0.39923 0.0
H261 H 0.60663 0.16342 0.46203 0.0
H262 H 0.58024 0.07013 0.62658 0.0
H263 H 0.60312 0.0987 0.51172 0.0
H264 H 0.42247 0.20217 0.63152 0.0
H265 H 0.44857 0.23757 0.54235 0.0
H266 H 0.42257 0.15611 0.75383 0.0
H267 H 0.44557 0.10617 0.78227 0.0
C268 C 0.31191 0.44216 0.30844 0.0
C269 C 0.31154 0.47826 0.23441 0.0
C270 C 0.36451 0.50468 0.29106 0.0
C271 C 0.36331 0.47107 0.37326 0.0
N272 N 0.3426 0.40042 0.43764 0.0
N273 N 0.346 0.53045 0.11868 0.0
C274 C 0.33947 0.43693 0.37326 0.0
C275 C 0.34167 0.50383 0.21109 0.0
N276 N 0.2839 0.41558 0.32386 0.0
N277 N 0.38398 0.54043 0.29801 0.0
H278 H 0.32815 0.53093 0.06302 0.0
H279 H 0.36887 0.54795 0.09184 0.0
H280 H 0.39968 0.54373 0.35904 0.0
H281 H 0.381 0.56901 0.25199 0.0
H282 H 0.27936 0.39206 0.38705 0.0
H283 H 0.26447 0.41842 0.27379 0.0
H284 H 0.32807 0.37264 0.4347 0.0
H285 H 0.36211 0.39638 0.48716 0.0
C286 C 1.01822 0.40349 0.45191 0.0
C287 C 0.03849 0.36018 0.44909 0.0
C288 C 0.08272 0.396 0.537 0.0
C289 C 0.05864 0.43713 0.55865 0.0
N290 N 1.01672 0.48494 0.47769 0.0
N291 N 0.09211 0.31523 0.47763 0.0
C292 C 0.0306 0.44262 0.49694 0.0
C293 C 0.0721 0.35673 0.48483 0.0
N294 N 0.98551 0.40674 0.42011 0.0
N295 N 0.11609 0.39531 0.56376 0.0
H296 H 0.08562 0.28642 0.43666 0.0
H297 H 0.11438 0.30885 0.51471 0.0
H298 H 0.12482 0.42461 0.59514 0.0
H299 H 0.13642 0.36762 0.54435 0.0
H300 H 0.96691 0.43616 0.43533 0.0
H301 H 0.97569 0.37889 0.38614 0.0
H302 H 0.99739 0.49097 0.42853 0.0
H303 H 0.02874 0.51369 0.4948 0.0
C304 C 0.86055 0.96805 0.2464 0.0
C305 C 0.84609 1.0064 0.32807 0.0
C306 C 0.90675 0.03588 0.27142 0.0
C307 C 0.92057 0.99872 0.1853 0.0
N308 N 0.91381 0.92426 0.1104 0.0
N309 N 0.85724 0.07149 0.43673 0.0
C310 C 0.89848 0.963 0.1799 0.0
C311 C 0.87006 0.0384 0.34678 0.0
N312 N 0.83726 0.93777 0.22759 0.0
N313 N 0.92856 0.06933 0.27894 0.0
H314 H 0.83078 0.07342 0.49277 0.0
H315 H 0.87323 0.09474 0.4619 0.0
H316 H 0.95603 0.06696 0.23069 0.0
H317 H 0.91949 0.09992 0.32957 0.0
H318 H 0.84413 0.91225 0.15942 0.0
H319 H 0.8101 0.93943 0.27834 0.0
H320 H 0.90071 0.89516 0.1096 0.0
H321 H 0.94109 0.91991 0.05993 0.0
C322 C 0.47849 0.85976 0.26613 0.0
C323 C 0.50963 0.83061 0.27856 0.0
C324 C 0.55035 0.87703 0.14536 0.0
C325 C 0.51913 0.90719 0.13905 0.0
N326 N 0.45471 0.93326 0.21842 0.0
N327 N 0.5758 0.81357 0.23623 0.0
C328 C 0.4836 0.90012 0.20649 0.0
C329 C 0.54579 0.8402 0.22088 0.0
N330 N 0.44361 0.84872 0.30997 0.0
N331 N 0.58419 0.88253 0.0752 0.0
H332 H 0.57361 0.78465 0.28276 0.0
H333 H 0.6028 0.82118 0.20812 0.0
H334 H 0.58842 0.90961 0.02219 0.0
H335 H 0.60764 0.8593 0.06422 0.0
H336 H 0.42051 0.86428 0.28705 0.0
H337 H 0.43768 0.82305 0.36642 0.0
H338 H 0.42881 0.93246 0.27553 0.0
H339 H 0.45782 0.96396 0.18064 0.0
C340 C 0.74562 0.57503 0.48298 0.0
C341 C 0.74604 0.53871 0.55652 0.0
C342 C 0.69292 0.51273 0.50009 0.0
C343 C 0.69309 0.54777 0.42187 0.0
N344 N 0.7111 0.62136 0.37269 0.0
N345 N 0.71134 0.48645 0.67202 0.0
C346 C 0.7166 0.58212 0.42476 0.0
C347 C 0.71561 0.51347 0.58042 0.0
N348 N 0.77426 0.60064 0.4624 0.0
N349 N 0.67455 0.47618 0.48926 0.0
H350 H 0.72918 0.48572 0.7277 0.0
H351 H 0.68848 0.46884 0.69823 0.0
H352 H 0.66151 0.47146 0.42165 0.0
H353 H 0.67599 0.44813 0.53837 0.0
H354 H 0.77815 0.62372 0.39786 0.0
H355 H 0.79485 0.59732 0.50785 0.0
H356 H 0.72557 0.64894 0.37996 0.0
H357 H 0.68946 0.62796 0.33249 0.0
C358 C 0.97942 0.64613 0.33186 0.0
C359 C 1.01288 0.644 0.36799 0.0
C360 C 0.02993 0.56566 0.28026 0.0
C361 C 1.00016 0.57105 0.22639 0.0
N362 N 0.9406 0.60806 0.22809 0.0
N363 N 0.06368 0.5981 0.40969 0.0
C364 C 0.97252 0.60839 0.26346 0.0
C365 C 0.03551 0.60191 0.35532 0.0
N366 N 0.95602 0.68552 0.35502 0.0
N367 N 0.05436 0.52716 0.25113 0.0
H368 H 0.0684 0.62511 0.46145 0.0
H369 H 0.0805 0.56816 0.41045 0.0
H370 H 0.04892 0.49935 0.20323 0.0
H371 H 0.07942 0.52246 0.27408 0.0
H372 H 0.93282 0.69159 0.32224 0.0
H373 H 0.96025 0.71267 0.40776 0.0
H374 H 0.91808 0.63293 0.25488 0.0
H375 H 0.93598 0.58037 0.17763 0.0
C376 C 0.94826 0.25762 0.76176 0.0
C377 C 0.9411 0.27311 0.65649 0.0
C378 C 0.87657 0.26051 0.72607 0.0
C379 C 0.88729 0.23298 0.80874 0.0
N380 N 0.92039 0.23712 0.95848 0.0
N381 N 0.89495 0.30322 0.55881 0.0
C382 C 0.91868 0.24309 0.84588 0.0
C383 C 0.90409 0.28029 0.64666 0.0
N384 N 0.98307 0.25433 0.77828 0.0
N385 N 0.84162 0.26186 0.71265 0.0
H386 H 0.91379 0.31888 0.49738 0.0
H387 H 0.91379 0.31888 0.49738 0.0
H388 H 0.82194 0.24517 0.76834 0.0
H389 H 0.83294 0.2798 0.64817 0.0
H390 H 0.99006 0.23889 0.84882 0.0
H391 H 1.00526 0.26525 0.71845 0.0
H392 H 0.94238 0.24556 0.99119 0.0
H393 H 0.8976 0.22889 0.02115 0.0
C394 C 0.3185 0.87183 0.53816 0.0
C395 C 0.30326 0.91715 0.57685 0.0
C396 C 0.33742 0.91715 0.72838 0.0
C397 C 0.35983 0.8781 0.66733 0.0
N398 N 0.36775 0.8116 0.53671 0.0
N399 N 0.29349 0.98149 0.71899 0.0
C400 C 0.34814 0.85245 0.58187 0.0
C401 C 0.31025 0.93878 0.67812 0.0
N402 N 0.30558 0.84884 0.45621 0.0
N403 N 0.344 0.93474 0.82966 0.0
H404 H 0.2729 0.99801 0.68558 0.0
H405 H 0.30071 1.00136 0.78321 0.0
H406 H 0.36462 0.91951 0.86492 0.0
H407 H 0.32728 0.96149 0.88369 0.0
H408 H 0.31453 0.81516 0.42576 0.0
H409 H 0.28376 0.86319 0.42429 0.0
H410 H 0.36321 0.79211 0.46685 0.0
H411 H 0.3892 0.79752 0.5708 0.0
C412 C 0.55197 0.3516 0.71671 0.0
C413 C 0.5555 0.34777 0.59345 0.0
C414 C 0.58351 0.41822 0.57499 0.0
C415 C 0.5788 0.42226 0.69806 0.0
N416 N 0.58273 0.3774 0.86037 0.0
N417 N 0.59276 0.36528 0.40512 0.0
C418 C 0.57109 0.38381 0.7612 0.0
C419 C 0.57763 0.37696 0.52199 0.0
N420 N 0.52874 0.32801 0.79272 0.0
N421 N 0.59187 0.45408 0.50999 0.0
H422 H 0.59111 0.33339 0.36715 0.0
H423 H 0.61042 0.38485 0.35149 0.0
H424 H 0.59724 0.48425 0.54785 0.0
H425 H 0.59184 0.45402 0.42117 0.0
H426 H 0.52462 0.33309 0.88387 0.0
H427 H 0.51075 0.30775 0.76659 0.0
H428 H 0.57919 0.34789 0.90426 0.0
H429 H 0.60087 0.39797 0.88477 0.0
C430 C 0.20816 0.58242 0.57091 0.0
C431 C 0.21702 0.59641 0.45433 0.0
C432 C 0.20703 0.67549 0.53408 0.0
C433 C 0.18965 0.66096 0.64426 0.0
N434 N 0.20295 0.60622 0.77503 0.0
N435 N 0.23381 0.65766 0.32841 0.0
C436 C 0.19987 0.616 0.66581 0.0
C437 C 0.22002 0.64305 0.43666 0.0
N438 N 0.20661 0.5378 0.59128 0.0
N439 N 0.20665 0.72065 0.52029 0.0
H440 H 0.24381 0.63613 0.25177 0.0
H441 H 0.24381 0.63613 0.25177 0.0
H442 H 0.19566 0.74451 0.59196 0.0
H443 H 0.21747 0.73328 0.43918 0.0
H444 H 0.19712 0.52712 0.6755 0.0
H445 H 0.21209 0.51201 0.52372 0.0
H446 H 0.21219 0.57397 0.79463 0.0
H447 H 0.20116 0.63222 0.83972 0.0
C448 C 0.09729 0.7525 0.0489 0.0
C449 C 0.10596 0.73426 0.14936 0.0
C450 C 0.16999 0.74829 0.07633 0.0
C451 C 0.15785 0.77831 1.00102 0.0
N452 N 0.12216 0.78027 0.85752 0.0
N453 N 0.15402 0.70143 0.23654 0.0
C454 C 0.12577 0.76966 0.9659 0.0
C455 C 0.14347 0.72652 0.15417 0.0
N456 N 0.06201 0.75578 0.03658 0.0
N457 N 0.20544 0.74626 0.08545 0.0
H458 H 0.13589 0.68441 0.29668 0.0
H459 H 0.13589 0.68441 0.29668 0.0
H460 H 0.22439 0.7644 0.03149 0.0
H461 H 0.21522 0.72627 0.1445 0.0
H462 H 0.05369 0.77295 0.97054 0.0
H463 H 0.04084 0.74248 0.09524 0.0
H464 H 0.09966 0.77347 0.82529 0.0
H465 H 0.144 0.79112 0.79592 0.0
C466 C 0.72892 0.07203 0.13445 0.0
C467 C 0.73745 0.0922 0.23476 0.0
C468 C 0.68989 0.15583 0.24743 0.0
C469 C 0.6773 0.13148 0.16183 0.0
N470 N 0.69105 0.07765 0.99376 0.0
N471 N 0.73625 0.15894 0.35946 0.0
C472 C 0.6996 0.09372 0.09346 0.0
C473 C 0.72166 0.13666 0.28058 0.0
N474 N 0.74661 0.03058 0.08576 0.0
N475 N 0.66984 0.19529 0.30178 0.0
H476 H 0.75958 0.14461 0.38374 0.0
H477 H 0.72725 0.19223 0.39363 0.0
H478 H 0.64732 0.21017 0.2742 0.0
H479 H 0.67502 0.21286 0.37365 0.0
H480 H 0.73891 0.01153 0.02104 0.0
H481 H 0.76879 0.01456 0.11272 0.0
H482 H 0.70716 0.05169 0.93526 0.0
H483 H 0.66907 0.09335 0.96497 0.0
C484 C 0.43427 0.68121 0.24319 0.0
C485 C 0.46267 0.67717 0.30412 0.0
C486 C 0.46555 0.5949 0.2781 0.0
C487 C 0.44793 0.59996 0.1869 0.0
N488 N 0.40865 0.64545 0.09498 0.0
N489 N 0.51054 0.62756 0.35831 0.0
C490 C 0.42915 0.64239 0.17578 0.0
C491 C 0.47924 0.63314 0.31876 0.0
N492 N 0.41255 0.7214 0.25005 0.0
N493 N 0.4744 0.55259 0.3099 0.0
H494 H 0.52622 0.65383 0.36659 0.0
H495 H 0.52351 0.59594 0.36819 0.0
H496 H 0.4665 0.52412 0.27136 0.0
H497 H 0.48606 0.5468 0.38054 0.0
H498 H 0.39 0.72531 0.21327 0.0
H499 H 0.4152 0.74979 0.3016 0.0
H500 H 0.39694 0.676 0.07293 0.0
H501 H 0.40483 0.61654 0.04726 0.0
C502 C 0.83886 0.42325 0.24033 0.0
C503 C 0.83789 0.41378 0.35876 0.0
C504 C 0.85643 0.33383 0.29293 0.0
C505 C 0.86726 0.34688 0.17699 0.0
N506 N 0.83634 0.38803 0.05249 0.0
N507 N 0.83304 0.35548 0.49866 0.0
C508 C 0.84777 0.3866 0.15348 0.0
C509 C 0.84223 0.36779 0.38618 0.0
N510 N 0.83266 0.46649 0.20978 0.0
N511 N 0.86179 0.28944 0.31336 0.0
H512 H 0.82184 0.37834 0.57216 0.0
H513 H 0.82184 0.37834 0.57216 0.0
H514 H 0.87092 0.26468 0.24317 0.0
H515 H 0.85519 0.27815 0.39793 0.0
H516 H 0.83429 0.47402 0.12306 0.0
H517 H 0.82868 0.49492 0.26896 0.0
H518 H 0.81922 0.41549 0.03601 0.0
H519 H 0.84086 0.35943 0.99323 0.0
C520 C 0.98228 0.20298 0.20657 0.0
C521 C 1.01272 0.21124 0.25374 0.0
C522 C 0.04957 0.14539 0.12745 0.0
C523 C 1.01779 0.1341 0.09205 0.0
N524 N 0.95269 0.15026 0.10633 0.0
N525 N 0.07421 0.1861 0.26948 0.0
C526 C 0.98394 0.16278 0.13253 0.0
C527 C 0.04626 0.18163 0.21577 0.0
N528 N 0.95149 0.23385 0.23304 0.0
N529 N 0.0832 0.12172 0.07508 0.0
H530 H 0.07284 0.21154 0.33515 0.0
H531 H 0.09753 0.16245 0.25614 0.0
H532 H 0.08661 0.09508 1.01073 0.0
H533 H 0.10804 0.13105 0.08707 0.0
H534 H 0.92998 0.23257 0.19263 0.0
H535 H 0.94861 0.26281 0.28931 0.0
H536 H 0.9262 0.16599 0.14586 0.0
H537 H 0.95263 0.12171 0.05144 0.0
C538 C 0.35026 0.96429 0.13658 0.0
C539 C 0.32988 1.00061 0.21741 0.0
C540 C 0.37764 0.04924 0.1295 0.0
C541 C 0.40102 0.01096 0.06407 0.0
N542 N 0.41014 0.9297 0.01969 0.0
N543 N 0.32616 0.07762 0.29607 0.0
C544 C 0.38722 0.96794 0.06992 0.0
C545 C 0.34391 0.04328 0.21413 0.0
N546 N 0.33427 0.92563 0.12571 0.0
N547 N 0.3873 0.09166 0.10899 0.0
H548 H 0.30126 0.07495 0.35694 0.0
H549 H 0.33727 0.1076 0.30837 0.0
H550 H 0.411 0.09728 0.04598 0.0
H551 H 0.37005 0.1212 0.14517 0.0
H552 H 0.3462 0.89864 0.06381 0.0
H553 H 0.30725 0.92244 0.17181 0.0
H554 H 0.40317 0.89706 0.03301 0.0
H555 H 0.43752 0.92993 0.97369 0.0
C556 C 0.4723 0.35316 0.24878 0.0
C557 C 0.50549 0.32832 0.25882 0.0
C558 C 0.54101 0.38235 0.14188 0.0
C559 C 0.50816 0.40695 0.12668 0.0
N560 N 0.44222 0.40986 0.14966 0.0
N561 N 0.57041 0.30948 0.17536 0.0
C562 C 0.47373 0.38992 0.17317 0.0
C563 C 0.53938 0.33947 0.19017 0.0
N564 N 0.43956 0.34305 0.31643 0.0
N565 N 0.57379 0.40023 0.11546 0.0
H566 H 0.56956 0.27803 0.21108 0.0
H567 H 0.59565 0.31414 0.11894 0.0
H568 H 0.57714 0.43119 0.07926 0.0
H569 H 0.59734 0.38539 0.13722 0.0
H570 H 0.41445 0.36269 0.32409 0.0
H571 H 0.43812 0.31547 0.36836 0.0
H572 H 0.41719 0.39628 0.17077 0.0
H573 H 0.44133 0.43917 0.10493 0.0
C574 C 0.17444 0.55656 0.06293 0.0
C575 C 0.19144 0.51685 0.09992 0.0
C576 C 0.15526 0.47195 0.99776 0.0
C577 C 0.13349 0.51199 0.98144 0.0
N578 N 0.1178 0.5927 0.03071 0.0
N579 N 0.19135 0.43634 0.12051 0.0
C580 C 0.14199 0.55452 0.02185 0.0
C581 C 0.18031 0.47426 0.07141 0.0
N582 N 0.18913 0.59652 0.06783 0.0
N583 N 0.15253 0.43164 0.94174 0.0
H584 H 0.20763 0.43665 0.18051 0.0
H585 H 0.18097 0.40558 0.11142 0.0
H586 H 0.13575 0.42895 0.88353 0.0
H587 H 0.16999 0.40218 0.94278 0.0
H588 H 0.1784 0.62633 0.03929 0.0
H589 H 0.21429 0.59864 0.08906 0.0
H590 H 0.12122 0.62354 0.0702 0.0
H591 H 0.09214 0.59236 1.01268 0.0
C592 C 1.00251 0.82041 0.60947 0.0
C593 C 0.03771 0.79595 0.55584 0.0
C594 C 0.06631 0.84965 0.66474 0.0
C595 C 0.03083 0.87235 0.72289 0.0
N596 N 0.9649 0.87111 0.77264 0.0
N597 N 0.10269 0.78335 0.55056 0.0
C598 C 0.9989 0.85507 0.70198 0.0
C599 C 0.06935 0.80929 0.58988 0.0
N600 N 0.97272 0.81298 0.56705 0.0
N601 N 0.09745 0.86798 0.67429 0.0
H602 H 0.10694 0.755 0.49152 0.0
H603 H 0.12545 0.78754 0.58394 0.0
H604 H 0.09716 0.89752 0.72586 0.0
H605 H 0.12376 0.85644 0.62217 0.0
H606 H 0.94741 0.83324 0.59386 0.0
H607 H 0.97418 0.78964 0.49652 0.0
H608 H 0.94097 0.8568 0.7698 0.0
H609 H 0.96124 0.89548 0.84276 0.0
C610 C 0.69116 0.04925 0.67269 0.0
C611 C 0.71079 0.01156 0.59612 0.0
C612 C 0.66009 0.96705 0.68396 0.0
C613 C 0.63704 1.00725 0.74022 0.0
N614 N 0.63133 0.0895 0.76796 0.0
N615 N 0.71236 0.93409 0.52501 0.0
C616 C 0.65294 0.04909 0.73107 0.0
C617 C 0.69495 0.97014 0.60166 0.0
N618 N 0.70893 0.08615 0.68609 0.0
N619 N 0.64938 0.92566 0.71182 0.0
H620 H 0.73821 0.93474 0.46719 0.0
H621 H 0.70019 0.90477 0.51452 0.0
H622 H 0.62555 0.92193 0.77651 0.0
H623 H 0.66625 0.89532 0.68118 0.0
H624 H 0.69743 0.11335 0.74798 0.0
H625 H 0.73671 0.08704 0.64383 0.0
H626 H 0.64103 0.12073 0.75204 0.0
H627 H 0.60285 0.09272 0.8013 0.0
C628 C 0.54986 0.69149 0.57442 0.0
C629 C 0.51678 0.72219 0.60928 0.0
C630 C 0.49681 0.68024 0.78527 0.0
C631 C 0.52592 0.64473 0.73808 0.0
N632 N 0.58676 0.62403 0.61009 0.0
N633 N 0.46045 0.74858 0.75289 0.0
C634 C 0.55472 0.6529 0.64013 0.0
C635 C 0.49148 0.7181 0.71869 0.0
N636 N 0.57499 0.69704 0.47181 0.0
N637 N 0.47505 0.67856 0.89614 0.0
H638 H 0.45674 0.77676 0.70595 0.0
H639 H 0.43797 0.74503 0.82257 0.0
H640 H 0.47902 0.65219 0.94799 0.0
H641 H 0.45587 0.70518 0.94137 0.0
H642 H 0.59693 0.67291 0.42995 0.0
H643 H 0.57315 0.72597 0.42619 0.0
H644 H 0.6106 0.63088 0.55025 0.0
H645 H 0.59058 0.59432 0.65098 0.0
C646 C 0.87443 0.47999 0.76487 0.0
C647 C 0.8688 0.50915 0.67705 0.0
C648 C 0.92479 0.54356 0.6887 0.0
C649 C 0.92867 0.51696 0.7839 0.0
N650 N 0.90272 0.46605 0.92645 0.0
N651 N 0.88536 0.57344 0.56751 0.0
C652 C 0.90215 0.48696 0.82579 0.0
C653 C 0.89274 0.54278 0.644 0.0
N654 N 0.85387 0.44473 0.78815 0.0
N655 N 0.953 0.5666 0.63359 0.0
H656 H 0.86321 0.5727 0.52902 0.0
H657 H 0.89936 0.60175 0.54975 0.0
H658 H 0.97781 0.56661 0.65772 0.0
H659 H 0.95357 0.58189 0.55537 0.0
H660 H 0.86104 0.41775 0.8344 0.0
H661 H 0.83133 0.44055 0.75336 0.0
H662 H 0.88338 0.4451 0.9641 0.0
H663 H 0.92054 0.47283 0.97889 0.0
loop_
_geom_bond_atom_site_label_1
_geom_bond_atom_site_label_2
_geom_bond_distance
_geom_bond_site_symmetry_2
_ccdc_geom_bond_type
H0 C3 0.931 . S
H1 C6 0.928 . S
H2 C8 0.930 . S
C3 H0 0.931 . S
C3 C4 1.413 . S
C3 C5 1.360 . S
C4 C3 1.413 . S
C4 C8 1.429 . S
C5 C3 1.360 . S
C5 C6 1.372 . S
C6 H1 0.928 . S
C6 C5 1.372 . S
C6 C7 1.404 . S
C7 C6 1.404 . S
C7 C8 1.391 . S
C8 H2 0.930 . S
C8 C4 1.429 . S
C8 C7 1.391 . S
H9 C12 0.932 . S
H10 C15 0.928 . S
H11 C17 0.928 . S
C12 H9 0.932 . S
C12 C13 1.413 . S
C12 C14 1.360 . S
C13 C12 1.413 . S
C13 C17 1.431 1_655 S
C14 C12 1.360 . S
C14 C15 1.376 . S
C15 H10 0.928 . S
C15 C14 1.376 . S
C15 C16 1.405 . S
C16 C15 1.405 . S
C16 C17 1.387 1_655 S
C17 H11 0.928 . S
C17 C13 1.431 1_455 S
C17 C16 1.387 1_455 S
H18 C21 0.930 . S
H19 C24 0.928 . S
H20 C26 0.930 . S
C21 H18 0.930 . S
C21 C22 1.413 . S
C21 C23 1.360 . S
C22 C21 1.413 . S
C22 C26 1.427 1_565 S
C23 C21 1.360 . S
C23 C24 1.369 . S
C24 H19 0.928 . S
C24 C23 1.369 . S
C24 C25 1.404 . S
C25 C24 1.404 . S
C25 C26 1.393 1_565 S
C26 H20 0.930 . S
C26 C22 1.427 1_545 S
C26 C25 1.393 1_545 S
H27 C30 0.931 . S
H28 C33 0.928 . S
H29 C35 0.930 . S
C30 H27 0.931 . S
C30 C31 1.413 . S
C30 C32 1.360 . S
C31 C30 1.413 . S
C31 C35 1.429 . S
C32 C30 1.360 . S
C32 C33 1.372 . S
C33 H28 0.928 . S
C33 C32 1.372 . S
C33 C34 1.404 . S
C34 C33 1.404 . S
C34 C35 1.391 . S
C35 H29 0.930 . S
C35 C31 1.429 . S
C35 C34 1.391 . S
H36 C39 0.931 . S
H37 C42 0.928 . S
H38 C44 0.930 . S
C39 H36 0.931 . S
C39 C40 1.413 . S
C39 C41 1.360 1_556 S
C40 C39 1.413 . S
C40 C44 1.429 . S
C41 C39 1.360 1_554 S
C41 C42 1.372 . S
C42 H37 0.928 . S
C42 C41 1.372 . S
C42 C43 1.404 . S
C43 C42 1.404 . S
C43 C44 1.391 1_554 S
C44 H38 0.930 . S
C44 C40 1.429 . S
C44 C43 1.391 1_556 S
H45 C48 0.930 . S
H46 C51 0.928 . S
H47 C53 0.930 . S
C48 H45 0.930 . S
C48 C49 1.414 . S
C48 C50 1.360 . S
C49 C48 1.414 . S
C49 C53 1.427 1_655 S
C50 C48 1.360 . S
C50 C51 1.370 . S
C51 H46 0.928 . S
C51 C50 1.370 . S
C51 C52 1.404 . S
C52 C51 1.404 . S
C52 C53 1.394 1_655 S
C53 H47 0.930 . S
C53 C49 1.427 1_455 S
C53 C52 1.394 1_455 S
H54 C57 0.931 . S
H55 C60 0.928 . S
H56 C62 0.930 . S
C57 H54 0.931 . S
C57 C58 1.413 . S
C57 C59 1.360 . S
C58 C57 1.413 . S
C58 C62 1.431 1_565 S
C59 C57 1.360 . S
C59 C60 1.374 . S
C60 H55 0.928 . S
C60 C59 1.374 . S
C60 C61 1.404 . S
C61 C60 1.404 . S
C61 C62 1.388 1_565 S
C62 H56 0.930 . S
C62 C58 1.431 1_545 S
C62 C61 1.388 1_545 S
H63 C66 0.931 . S
H64 C69 0.928 . S
H65 C71 0.930 . S
C66 H63 0.931 . S
C66 C67 1.413 . S
C66 C68 1.360 . S
C67 C66 1.413 . S
C67 C71 1.429 . S
C68 C66 1.360 . S
C68 C69 1.372 . S
C69 H64 0.928 . S
C69 C68 1.372 . S
C69 C70 1.404 . S
C70 C69 1.404 . S
C70 C71 1.391 . S
C71 H65 0.930 . S
C71 C67 1.429 . S
C71 C70 1.391 . S
Dy72 O75 2.307 1_545 S
Dy72 O77 2.395 . S
Dy72 O78 2.379 . S
Dy72 O80 2.339 . S
Dy72 O82 2.298 . S
Dy72 O86 2.275 1_655 S
Dy72 C94 2.738 . S
Dy73 O76 2.298 1_554 S
Dy73 O79 2.275 1_454 S
Dy73 O81 2.307 1_565 S
Dy73 O83 2.398 . S
Dy73 O84 2.379 . S
Dy73 O87 2.339 1_554 S
Dy73 C103 2.738 . S
C74 O86 1.254 1_565 S
C74 O87 1.257 . S
O75 Dy72 2.307 1_565 S
O75 C85 1.266 . S
O76 Dy73 2.298 1_556 S
O76 C85 1.236 1_455 S
O77 Dy72 2.395 . S
O77 C94 1.256 . S
O78 Dy72 2.379 . S
O78 C94 1.249 . S
O79 Dy73 2.275 1_656 S
O79 C95 1.254 1_565 S
O80 Dy72 2.339 . S
O80 C95 1.257 . S
O81 Dy73 2.307 1_545 S
O81 C96 1.266 1_554 S
O82 Dy72 2.298 . S
O82 C96 1.236 1_655 S
O83 Dy73 2.398 . S
O83 C103 1.263 . S
O84 Dy73 2.379 . S
O84 C103 1.249 . S
C85 O75 1.266 . S
C85 O76 1.236 1_655 S
O86 Dy72 2.275 1_455 S
O86 C74 1.254 1_545 S
O87 Dy73 2.339 1_556 S
O87 C74 1.257 . S
C88 C91 1.344 . S
C88 C92 1.328 . S
C88 C94 1.516 . S
C89 C90 1.304 . S
C89 C93 1.323 . S
C90 C89 1.304 . S
C90 C91 1.371 . S
C90 H104 0.930 1_655 S
C91 C88 1.344 . S
C91 C90 1.371 . S
C91 H105 0.931 1_655 S
C92 C88 1.328 . S
C92 C93 1.433 . S
C92 H106 0.931 . S
C93 C89 1.323 . S
C93 C92 1.433 . S
C93 H107 0.933 . S
C94 Dy72 2.738 . S
C94 O77 1.256 . S
C94 O78 1.249 . S
C94 C88 1.516 . S
C95 O79 1.254 1_545 S
C95 O80 1.257 . S
C96 O81 1.266 1_556 S
C96 O82 1.236 1_455 S
C97 C100 1.344 . S
C97 C101 1.328 . S
C97 C103 1.516 . S
C98 C99 1.304 . S
C98 C102 1.323 . S
C99 C98 1.304 . S
C99 C100 1.371 . S
C99 H108 0.930 1_455 S
C100 C97 1.344 . S
C100 C99 1.371 . S
C100 H109 0.931 1_455 S
C101 C97 1.328 . S
C101 C102 1.433 . S
C101 H110 0.931 . S
C102 C98 1.323 . S
C102 C101 1.433 . S
C102 H111 0.933 . S
C103 Dy73 2.738 . S
C103 O83 1.263 . S
C103 O84 1.249 . S
C103 C97 1.516 . S
H104 C90 0.930 1_455 S
H105 C91 0.931 1_455 S
H106 C92 0.931 . S
H107 C93 0.933 . S
H108 C99 0.930 1_655 S
H109 C100 0.931 1_655 S
H110 C101 0.931 . S
H111 C102 0.933 . S
Dy112 O115 2.307 . S
Dy112 O117 2.395 . S
Dy112 O118 2.379 . S
Dy112 O120 2.339 . S
Dy112 O122 2.298 . S
Dy112 O126 2.275 1_565 S
Dy112 C134 2.738 . S
Dy113 O116 2.298 1_554 S
Dy113 O119 2.275 1_544 S
Dy113 O121 2.307 . S
Dy113 O123 2.395 . S
Dy113 O124 2.379 . S
Dy113 O127 2.339 1_554 S
Dy113 C143 2.738 . S
C114 O126 1.254 . S
C114 O127 1.257 . S
O115 Dy112 2.307 . S
O115 C125 1.266 . S
O116 Dy113 2.298 1_556 S
O116 C125 1.236 1_545 S
O117 Dy112 2.395 . S
O117 C134 1.255 . S
O118 Dy112 2.379 . S
O118 C134 1.249 . S
O119 Dy113 2.275 1_566 S
O119 C135 1.254 . S
O120 Dy112 2.339 . S
O120 C135 1.257 . S
O121 Dy113 2.307 . S
O121 C136 1.266 1_554 S
O122 Dy112 2.298 . S
O122 C136 1.236 1_565 S
O123 Dy113 2.395 . S
O123 C143 1.255 . S
O124 Dy113 2.379 . S
O124 C143 1.249 . S
C125 O115 1.266 . S
C125 O116 1.236 1_565 S
O126 Dy112 2.275 1_545 S
O126 C114 1.254 . S
O127 Dy113 2.339 1_556 S
O127 C114 1.257 . S
C128 C131 1.344 . S
C128 C132 1.328 . S
C128 C134 1.516 . S
C129 C130 1.304 . S
C129 C133 1.323 . S
C130 C129 1.304 . S
C130 C131 1.371 . S
C130 H144 0.930 1_565 S
C131 C128 1.344 . S
C131 C130 1.371 . S
C131 H145 0.931 1_565 S
C132 C128 1.328 . S
C132 C133 1.433 . S
C132 H146 0.931 . S
C133 C129 1.323 . S
C133 C132 1.433 . S
C133 H147 0.933 . S
C134 Dy112 2.738 . S
C134 O117 1.255 . S
C134 O118 1.249 . S
C134 C128 1.516 . S
C135 O119 1.254 . S
C135 O120 1.257 . S
C136 O121 1.266 1_556 S
C136 O122 1.236 1_545 S
C137 C140 1.344 . S
C137 C141 1.328 . S
C137 C143 1.516 . S
C138 C139 1.304 . S
C138 C142 1.323 . S
C139 C138 1.304 . S
C139 C140 1.371 . S
C139 H148 0.930 1_545 S
C140 C137 1.344 . S
C140 C139 1.371 . S
C140 H149 0.931 1_545 S
C141 C137 1.328 . S
C141 C142 1.433 . S
C141 H150 0.931 . S
C142 C138 1.323 . S
C142 C141 1.433 . S
C142 H151 0.933 . S
C143 Dy113 2.738 . S
C143 O123 1.255 . S
C143 O124 1.249 . S
C143 C137 1.516 . S
H144 C130 0.930 1_545 S
H145 C131 0.931 1_545 S
H146 C132 0.931 . S
H147 C133 0.933 . S
H148 C139 0.930 1_565 S
H149 C140 0.931 1_565 S
H150 C141 0.931 . S
H151 C142 0.933 . S
Dy152 O155 2.307 . S
Dy152 O157 2.395 1_556 S
Dy152 O158 2.379 . S
Dy152 O160 2.339 . S
Dy152 O162 2.298 . S
Dy152 O166 2.275 . S
Dy152 C174 2.738 1_556 S
Dy153 O156 2.298 . S
Dy153 O159 2.275 . S
Dy153 O161 2.307 1_556 S
Dy153 O163 2.395 . S
Dy153 O164 2.379 . S
Dy153 O167 2.339 1_556 S
Dy153 C183 2.738 . S
C154 O166 1.254 1_554 S
C154 O167 1.257 . S
O155 Dy152 2.307 . S
O155 C165 1.266 . S
O156 Dy153 2.298 . S
O156 C165 1.236 . S
O157 Dy152 2.395 1_554 S
O157 C174 1.255 . S
O158 Dy152 2.379 . S
O158 C174 1.249 1_556 S
O159 Dy153 2.275 . S
O159 C175 1.254 . S
O160 Dy152 2.339 . S
O160 C175 1.257 . S
O161 Dy153 2.307 1_554 S
O161 C176 1.266 . S
O162 Dy152 2.298 . S
O162 C176 1.236 1_556 S
O163 Dy153 2.395 . S
O163 C183 1.255 . S
O164 Dy153 2.379 . S
O164 C183 1.249 . S
C165 O155 1.266 . S
C165 O156 1.236 . S
O166 Dy152 2.275 . S
O166 C154 1.254 1_556 S
O167 Dy153 2.339 1_554 S
O167 C154 1.257 . S
C168 C171 1.344 . S
C168 C172 1.328 . S
C168 C174 1.516 . S
C169 C170 1.304 . S
C169 C173 1.323 . S
C170 C169 1.304 . S
C170 C171 1.371 . S
C170 H184 0.930 . S
C171 C168 1.344 . S
C171 C170 1.371 . S
C171 H185 0.931 . S
C172 C168 1.328 . S
C172 C173 1.433 . S
C172 H186 0.931 1_554 S
C173 C169 1.323 . S
C173 C172 1.433 . S
C173 H187 0.933 . S
C174 Dy152 2.738 1_554 S
C174 O157 1.255 . S
C174 O158 1.249 1_554 S
C174 C168 1.516 . S
C175 O159 1.254 . S
C175 O160 1.257 . S
C176 O161 1.266 . S
C176 O162 1.236 1_554 S
C177 C180 1.344 . S
C177 C181 1.328 . S
C177 C183 1.516 . S
C178 C179 1.304 . S
C178 C182 1.323 . S
C179 C178 1.304 . S
C179 C180 1.371 . S
C179 H188 0.930 . S
C180 C177 1.344 . S
C180 C179 1.371 . S
C180 H189 0.931 . S
C181 C177 1.328 . S
C181 C182 1.433 . S
C181 H190 0.931 . S
C182 C178 1.323 . S
C182 C181 1.433 . S
C182 H191 0.933 . S
C183 Dy153 2.738 . S
C183 O163 1.255 . S
C183 O164 1.249 . S
C183 C177 1.516 . S
H184 C170 0.930 . S
H185 C171 0.931 . S
H186 C172 0.931 1_556 S
H187 C173 0.933 . S
H188 C179 0.930 . S
H189 C180 0.931 . S
H190 C181 0.931 . S
H191 C182 0.933 . S
Dy192 O195 2.307 1_455 S
Dy192 O197 2.395 . S
Dy192 O198 2.379 . S
Dy192 O200 2.339 . S
Dy192 O202 2.298 . S
Dy192 O206 2.275 . S
Dy192 C214 2.738 . S
Dy193 O196 2.298 1_554 S
Dy193 O199 2.275 . S
Dy193 O201 2.307 1_654 S
Dy193 O203 2.395 . S
Dy193 O204 2.379 . S
Dy193 O207 2.339 1_554 S
Dy193 C223 2.738 . S
C194 O206 1.254 1_655 S
C194 O207 1.257 . S
O195 Dy192 2.307 1_655 S
O195 C205 1.266 . S
O196 Dy193 2.298 1_556 S
O196 C205 1.236 . S
O197 Dy192 2.395 . S
O197 C214 1.255 . S
O198 Dy192 2.379 . S
O198 C214 1.249 . S
O199 Dy193 2.275 . S
O199 C215 1.254 1_655 S
O200 Dy192 2.339 . S
O200 C215 1.257 1_556 S
O201 Dy193 2.307 1_456 S
O201 C216 1.266 . S
O202 Dy192 2.298 . S
O202 C216 1.236 . S
O203 Dy193 2.395 . S
O203 C223 1.255 . S
O204 Dy193 2.379 . S
O204 C223 1.249 . S
C205 O195 1.266 . S
C205 O196 1.236 . S
O206 Dy192 2.275 . S
O206 C194 1.254 1_455 S
O207 Dy193 2.339 1_556 S
O207 C194 1.257 . S
C208 C211 1.344 . S
C208 C212 1.328 . S
C208 C214 1.516 . S
C209 C210 1.304 . S
C209 C213 1.323 . S
C210 C209 1.304 . S
C210 C211 1.371 . S
C210 H224 0.930 . S
C211 C208 1.344 . S
C211 C210 1.371 . S
C211 H225 0.931 . S
C212 C208 1.328 . S
C212 C213 1.433 . S
C212 H226 0.931 . S
C213 C209 1.323 . S
C213 C212 1.433 . S
C213 H227 0.933 . S
C214 Dy192 2.738 . S
C214 O197 1.255 . S
C214 O198 1.249 . S
C214 C208 1.516 . S
C215 O199 1.254 1_455 S
C215 O200 1.257 1_554 S
C216 O201 1.266 . S
C216 O202 1.236 . S
C217 C220 1.344 . S
C217 C221 1.328 . S
C217 C223 1.516 . S
C218 C219 1.304 . S
C218 C222 1.323 . S
C219 C218 1.304 . S
C219 C220 1.371 . S
C219 H228 0.930 . S
C220 C217 1.344 . S
C220 C219 1.371 . S
C220 H229 0.931 . S
C221 C217 1.328 . S
C221 C222 1.433 . S
C221 H230 0.931 . S
C222 C218 1.323 . S
C222 C221 1.433 . S
C222 H231 0.933 . S
C223 Dy193 2.738 . S
C223 O203 1.255 . S
C223 O204 1.249 . S
C223 C217 1.516 . S
H224 C210 0.930 . S
H225 C211 0.931 . S
H226 C212 0.931 . S
H227 C213 0.933 . S
H228 C219 0.930 . S
H229 C220 0.931 . S
H230 C221 0.931 . S
H231 C222 0.933 . S
C232 C233 1.367 . S
C232 C238 1.379 . S
C232 N240 1.356 . S
C233 C232 1.367 . S
C233 C239 1.360 1_565 S
C234 C235 1.341 1_545 S
C234 C239 1.379 . S
C234 N241 1.356 . S
C235 C234 1.341 1_565 S
C235 C238 1.380 . S
N236 C238 1.356 . S
N236 H248 0.984 . S
N236 H249 0.985 . S
N237 C239 1.356 . S
N237 H242 0.984 . S
N237 H243 0.985 . S
C238 C232 1.379 . S
C238 C235 1.380 . S
C238 N236 1.356 . S
C239 C233 1.360 1_545 S
C239 C234 1.379 . S
C239 N237 1.356 . S
N240 C232 1.356 . S
N240 H246 0.984 . S
N240 H247 0.984 . S
N241 C234 1.356 . S
N241 H244 0.984 . S
N241 H245 0.985 . S
H242 N237 0.984 . S
H243 N237 0.985 . S
H244 N241 0.984 . S
H245 N241 0.985 . S
H246 N240 0.984 . S
H247 N240 0.984 . S
H248 N236 0.984 . S
H249 N236 0.985 . S
C250 C251 1.363 . S
C250 C256 1.379 . S
C250 N258 1.356 . S
C251 C250 1.363 . S
C251 C257 1.363 . S
C252 C253 1.363 . S
C252 C257 1.379 . S
C252 N259 1.356 . S
C253 C252 1.363 . S
C253 C256 1.363 . S
N254 C256 1.356 . S
N254 H266 0.984 . S
N254 H267 0.985 . S
N255 C257 1.356 . S
N255 H260 0.984 . S
N255 H261 0.985 . S
C256 C250 1.379 . S
C256 C253 1.363 . S
C256 N254 1.356 . S
C257 C251 1.363 . S
C257 C252 1.379 . S
C257 N255 1.356 . S
N258 C250 1.356 . S
N258 H264 0.984 . S
N258 H265 0.984 . S
N259 C252 1.356 . S
N259 H262 0.984 . S
N259 H263 0.985 . S
H260 N255 0.984 . S
H261 N255 0.985 . S
H262 N259 0.984 . S
H263 N259 0.985 . S
H264 N258 0.984 . S
H265 N258 0.984 . S
H266 N254 0.984 . S
H267 N254 0.985 . S
C268 C269 1.363 . S
C268 C274 1.379 . S
C268 N276 1.356 . S
C269 C268 1.363 . S
C269 C275 1.363 . S
C270 C271 1.363 . S
C270 C275 1.379 . S
C270 N277 1.356 . S
C271 C270 1.363 . S
C271 C274 1.363 . S
N272 C274 1.356 . S
N272 H284 0.984 . S
N272 H285 0.985 . S
N273 C275 1.356 . S
N273 H278 0.984 . S
N273 H279 0.985 . S
C274 C268 1.379 . S
C274 C271 1.363 . S
C274 N272 1.356 . S
C275 C269 1.363 . S
C275 C270 1.379 . S
C275 N273 1.356 . S
N276 C268 1.356 . S
N276 H282 0.984 . S
N276 H283 0.984 . S
N277 C270 1.356 . S
N277 H280 0.984 . S
N277 H281 0.985 . S
H278 N273 0.984 . S
H279 N273 0.985 . S
H280 N277 0.984 . S
H281 N277 0.985 . S
H282 N276 0.984 . S
H283 N276 0.984 . S
H284 N272 0.984 . S
H285 N272 0.985 . S
C286 C287 1.344 1_655 S
C286 C292 1.379 . S
C286 N294 1.356 . S
C287 C286 1.344 1_455 S
C287 C293 1.391 . S
C288 C289 1.363 . S
C288 C293 1.379 . S
C288 N295 1.356 . S
C289 C288 1.363 . S
C289 C292 1.363 1_455 S
N290 C292 1.356 . S
N290 H302 0.984 . S
N290 H303 0.985 . S
N291 C293 1.356 . S
N291 H296 0.984 . S
N291 H297 0.985 . S
C292 C286 1.379 . S
C292 C289 1.363 1_655 S
C292 N290 1.356 . S
C293 C287 1.391 . S
C293 C288 1.379 . S
C293 N291 1.356 . S
N294 C286 1.356 . S
N294 H300 0.984 . S
N294 H301 0.984 . S
N295 C288 1.356 . S
N295 H298 0.984 . S
N295 H299 0.985 . S
H296 N291 0.984 . S
H297 N291 0.985 . S
H298 N295 0.984 . S
H299 N295 0.985 . S
H300 N294 0.984 . S
H301 N294 0.984 . S
H302 N290 0.984 . S
H303 N290 0.985 . S
C304 C305 1.356 1_565 S
C304 C310 1.379 . S
C304 N312 1.356 . S
C305 C304 1.356 1_545 S
C305 C311 1.372 . S
C306 C307 1.363 . S
C306 C311 1.379 . S
C306 N313 1.356 . S
C307 C306 1.363 . S
C307 C310 1.363 1_545 S
N308 C310 1.356 . S
N308 H320 0.984 . S
N308 H321 0.985 . S
N309 C311 1.356 . S
N309 H314 0.984 . S
N309 H315 0.985 . S
C310 C304 1.379 . S
C310 C307 1.363 1_565 S
C310 N308 1.356 . S
C311 C305 1.372 . S
C311 C306 1.379 . S
C311 N309 1.356 . S
N312 C304 1.356 . S
N312 H318 0.984 . S
N312 H319 0.984 . S
N313 C306 1.356 . S
N313 H316 0.984 . S
N313 H317 0.985 . S
H314 N309 0.984 . S
H315 N309 0.985 . S
H316 N313 0.984 . S
H317 N313 0.985 . S
H318 N312 0.984 . S
H319 N312 0.984 . S
H320 N308 0.984 . S
H321 N308 0.985 . S
C322 C323 1.363 . S
C322 C328 1.379 . S
C322 N330 1.356 . S
C323 C322 1.363 . S
C323 C329 1.363 . S
C324 C325 1.363 . S
C324 C329 1.379 . S
C324 N331 1.356 1_554 S
C325 C324 1.363 . S
C325 C328 1.363 . S
N326 C328 1.356 . S
N326 H338 0.984 . S
N326 H339 0.985 . S
N327 C329 1.356 . S
N327 H332 0.984 . S
N327 H333 0.985 . S
C328 C322 1.379 . S
C328 C325 1.363 . S
C328 N326 1.356 . S
C329 C323 1.363 . S
C329 C324 1.379 . S
C329 N327 1.356 . S
N330 C322 1.356 . S
N330 H336 0.984 . S
N330 H337 0.984 . S
N331 C324 1.356 1_556 S
N331 H334 0.984 . S
N331 H335 0.985 . S
H332 N327 0.984 . S
H333 N327 0.985 . S
H334 N331 0.984 . S
H335 N331 0.985 . S
H336 N330 0.984 . S
H337 N330 0.984 . S
H338 N326 0.984 . S
H339 N326 0.985 . S
C340 C341 1.363 . S
C340 C346 1.379 . S
C340 N348 1.356 . S
C341 C340 1.363 . S
C341 C347 1.363 . S
C342 C343 1.363 . S
C342 C347 1.379 . S
C342 N349 1.356 . S
C343 C342 1.363 . S
C343 C346 1.363 . S
N344 C346 1.356 . S
N344 H356 0.984 . S
N344 H357 0.985 . S
N345 C347 1.356 . S
N345 H350 0.984 . S
N345 H351 0.985 . S
C346 C340 1.379 . S
C346 C343 1.363 . S
C346 N344 1.356 . S
C347 C341 1.363 . S
C347 C342 1.379 . S
C347 N345 1.356 . S
N348 C340 1.356 . S
N348 H354 0.984 . S
N348 H355 0.984 . S
N349 C342 1.356 . S
N349 H352 0.984 . S
N349 H353 0.985 . S
H350 N345 0.984 . S
H351 N345 0.985 . S
H352 N349 0.984 . S
H353 N349 0.985 . S
H354 N348 0.984 . S
H355 N348 0.984 . S
H356 N344 0.984 . S
H357 N344 0.985 . S
C358 C359 1.383 . S
C358 C364 1.379 . S
C358 N366 1.356 . S
C359 C358 1.383 . S
C359 C365 1.352 1_655 S
C360 C361 1.363 1_455 S
C360 C365 1.379 . S
C360 N367 1.356 . S
C361 C360 1.363 1_655 S
C361 C364 1.363 . S
N362 C364 1.356 . S
N362 H374 0.984 . S
N362 H375 0.985 . S
N363 C365 1.356 . S
N363 H368 0.984 . S
N363 H369 0.985 . S
C364 C358 1.379 . S
C364 C361 1.363 . S
C364 N362 1.356 . S
C365 C359 1.352 1_455 S
C365 C360 1.379 . S
C365 N363 1.356 . S
N366 C358 1.356 . S
N366 H372 0.984 . S
N366 H373 0.984 . S
N367 C360 1.356 . S
N367 H370 0.984 . S
N367 H371 0.985 . S
H368 N363 0.984 . S
H369 N363 0.985 . S
H370 N367 0.984 . S
H371 N367 0.985 . S
H372 N366 0.984 . S
H373 N366 0.984 . S
H374 N362 0.984 . S
H375 N362 0.985 . S
C376 C377 1.363 . S
C376 C382 1.379 1_455 S
C376 N384 1.356 . S
C377 C376 1.363 . S
C377 C383 1.363 1_455 S
C378 C379 1.363 . S
C378 C383 1.379 . S
C378 N385 1.356 . S
C379 C378 1.363 . S
C379 C382 1.363 . S
N380 C382 1.356 . S
N380 H392 0.984 1_655 S
N380 H393 0.985 . S
N381 C383 1.356 . S
N381 H386 0.984 . S
N381 H387 0.985 . S
C382 C376 1.379 1_655 S
C382 C379 1.363 . S
C382 N380 1.356 . S
C383 C377 1.363 1_655 S
C383 C378 1.379 . S
C383 N381 1.356 . S
N384 C376 1.356 . S
N384 H390 0.984 . S
N384 H391 0.984 . S
N385 C378 1.356 . S
N385 H388 0.984 . S
N385 H389 0.985 . S
H386 N381 0.984 . S
H387 N381 0.985 . S
H388 N385 0.984 . S
H389 N385 0.985 . S
H390 N384 0.984 . S
H391 N384 0.984 . S
H392 N380 0.984 1_455 S
H393 N380 0.985 . S
C394 C395 1.363 . S
C394 C400 1.379 . S
C394 N402 1.356 . S
C395 C394 1.363 . S
C395 C401 1.363 1_565 S
C396 C397 1.363 . S
C396 C401 1.379 1_565 S
C396 N403 1.356 . S
C397 C396 1.363 . S
C397 C400 1.363 . S
N398 C400 1.356 . S
N398 H410 0.984 . S
N398 H411 0.985 . S
N399 C401 1.356 . S
N399 H404 0.984 . S
N399 H405 0.985 . S
C400 C394 1.379 . S
C400 C397 1.363 . S
C400 N398 1.356 . S
C401 C395 1.363 1_545 S
C401 C396 1.379 1_545 S
C401 N399 1.356 . S
N402 C394 1.356 . S
N402 H408 0.984 . S
N402 H409 0.984 . S
N403 C396 1.356 . S
N403 H406 0.984 . S
N403 H407 0.985 1_565 S
H404 N399 0.984 . S
H405 N399 0.985 . S
H406 N403 0.984 . S
H407 N403 0.985 1_545 S
H408 N402 0.984 . S
H409 N402 0.984 . S
H410 N398 0.984 . S
H411 N398 0.985 . S
C412 C413 1.363 . S
C412 C418 1.379 . S
C412 N420 1.356 . S
C413 C412 1.363 . S
C413 C419 1.363 . S
C414 C415 1.363 . S
C414 C419 1.379 . S
C414 N421 1.356 . S
C415 C414 1.363 . S
C415 C418 1.363 . S
N416 C418 1.356 . S
N416 H428 0.984 . S
N416 H429 0.985 . S
N417 C419 1.356 . S
N417 H422 0.984 . S
N417 H423 0.985 . S
C418 C412 1.379 . S
C418 C415 1.363 . S
C418 N416 1.356 . S
C419 C413 1.363 . S
C419 C414 1.379 . S
C419 N417 1.356 . S
N420 C412 1.356 . S
N420 H426 0.984 . S
N420 H427 0.984 . S
N421 C414 1.356 . S
N421 H424 0.984 . S
N421 H425 0.985 . S
H422 N417 0.984 . S
H423 N417 0.985 . S
H424 N421 0.984 . S
H425 N421 0.985 . S
H426 N420 0.984 . S
H427 N420 0.984 . S
H428 N416 0.984 . S
H429 N416 0.985 . S
C430 C431 1.363 . S
C430 C436 1.379 . S
C430 N438 1.356 . S
C431 C430 1.363 . S
C431 C437 1.363 . S
C432 C433 1.363 . S
C432 C437 1.379 . S
C432 N439 1.356 . S
C433 C432 1.363 . S
C433 C436 1.363 . S
N434 C436 1.356 . S
N434 H446 0.984 . S
N434 H447 0.985 . S
N435 C437 1.356 . S
N435 H440 0.984 1_554 S
N435 H441 0.985 1_554 S
C436 C430 1.379 . S
C436 C433 1.363 . S
C436 N434 1.356 . S
C437 C431 1.363 . S
C437 C432 1.379 . S
C437 N435 1.356 . S
N438 C430 1.356 . S
N438 H444 0.984 . S
N438 H445 0.984 . S
N439 C432 1.356 . S
N439 H442 0.984 . S
N439 H443 0.985 . S
H440 N435 0.984 1_556 S
H441 N435 0.985 1_556 S
H442 N439 0.984 . S
H443 N439 0.985 . S
H444 N438 0.984 . S
H445 N438 0.984 . S
H446 N434 0.984 . S
H447 N434 0.985 . S
C448 C449 1.363 . S
C448 C454 1.379 1_655 S
C448 N456 1.356 . S
C449 C448 1.363 . S
C449 C455 1.363 1_655 S
C450 C451 1.363 . S
C450 C455 1.379 . S
C450 N457 1.356 . S
C451 C450 1.363 . S
C451 C454 1.363 . S
N452 C454 1.356 . S
N452 H464 0.984 . S
N452 H465 0.985 . S
N453 C455 1.356 . S
N453 H458 0.984 . S
N453 H459 0.985 . S
C454 C448 1.379 1_455 S
C454 C451 1.363 . S
C454 N452 1.356 . S
C455 C449 1.363 1_455 S
C455 C450 1.379 . S
C455 N453 1.356 . S
N456 C448 1.356 . S
N456 H462 0.984 . S
N456 H463 0.984 . S
N457 C450 1.356 . S
N457 H460 0.984 . S
N457 H461 0.985 . S
H458 N453 0.984 . S
H459 N453 0.985 . S
H460 N457 0.984 . S
H461 N457 0.985 . S
H462 N456 0.984 . S
H463 N456 0.984 . S
H464 N452 0.984 . S
H465 N452 0.985 . S
C466 C467 1.363 . S
C466 C472 1.379 . S
C466 N474 1.356 1_545 S
C467 C466 1.363 . S
C467 C473 1.363 . S
C468 C469 1.363 . S
C468 C473 1.379 . S
C468 N475 1.356 . S
C469 C468 1.363 . S
C469 C472 1.363 . S
N470 C472 1.356 . S
N470 H482 0.984 . S
N470 H483 0.985 . S
N471 C473 1.356 . S
N471 H476 0.984 1_545 S
N471 H477 0.985 . S
C472 C466 1.379 . S
C472 C469 1.363 . S
C472 N470 1.356 . S
C473 C467 1.363 . S
C473 C468 1.379 . S
C473 N471 1.356 . S
N474 C466 1.356 1_565 S
N474 H480 0.984 . S
N474 H481 0.984 . S
N475 C468 1.356 . S
N475 H478 0.984 . S
N475 H479 0.985 . S
H476 N471 0.984 1_565 S
H477 N471 0.985 . S
H478 N475 0.984 . S
H479 N475 0.985 . S
H480 N474 0.984 . S
H481 N474 0.984 . S
H482 N470 0.984 . S
H483 N470 0.985 . S
C484 C485 1.363 . S
C484 C490 1.379 . S
C484 N492 1.356 . S
C485 C484 1.363 . S
C485 C491 1.363 . S
C486 C487 1.363 . S
C486 C491 1.379 . S
C486 N493 1.356 . S
C487 C486 1.363 . S
C487 C490 1.363 . S
N488 C490 1.356 . S
N488 H500 0.984 1_554 S
N488 H501 0.985 1_554 S
N489 C491 1.356 . S
N489 H494 0.984 . S
N489 H495 0.985 . S
C490 C484 1.379 . S
C490 C487 1.363 . S
C490 N488 1.356 . S
C491 C485 1.363 . S
C491 C486 1.379 . S
C491 N489 1.356 . S
N492 C484 1.356 . S
N492 H498 0.984 . S
N492 H499 0.984 . S
N493 C486 1.356 . S
N493 H496 0.984 . S
N493 H497 0.985 . S
H494 N489 0.984 . S
H495 N489 0.985 . S
H496 N493 0.984 . S
H497 N493 0.985 . S
H498 N492 0.984 . S
H499 N492 0.984 . S
H500 N488 0.984 1_556 S
H501 N488 0.985 1_556 S
C502 C503 1.363 . S
C502 C508 1.379 . S
C502 N510 1.356 . S
C503 C502 1.363 . S
C503 C509 1.363 . S
C504 C505 1.363 . S
C504 C509 1.379 . S
C504 N511 1.356 . S
C505 C504 1.363 . S
C505 C508 1.363 . S
N506 C508 1.356 . S
N506 H518 0.984 . S
N506 H519 0.985 . S
N507 C509 1.356 . S
N507 H512 0.984 . S
N507 H513 0.985 . S
C508 C502 1.379 . S
C508 C505 1.363 . S
C508 N506 1.356 . S
C509 C503 1.363 . S
C509 C504 1.379 . S
C509 N507 1.356 . S
N510 C502 1.356 . S
N510 H516 0.984 . S
N510 H517 0.984 . S
N511 C504 1.356 . S
N511 H514 0.984 . S
N511 H515 0.985 . S
H512 N507 0.984 . S
H513 N507 0.985 . S
H514 N511 0.984 . S
H515 N511 0.985 . S
H516 N510 0.984 . S
H517 N510 0.984 . S
H518 N506 0.984 . S
H519 N506 0.985 . S
C520 C521 1.363 1_656 S
C520 C526 1.379 . S
C520 N528 1.356 . S
C521 C520 1.363 1_454 S
C521 C527 1.363 . S
C522 C523 1.363 1_554 S
C522 C527 1.379 . S
C522 N529 1.356 . S
C523 C522 1.363 1_556 S
C523 C526 1.363 1_455 S
N524 C526 1.356 . S
N524 H536 0.984 . S
N524 H537 0.985 . S
N525 C527 1.356 . S
N525 H530 0.984 . S
N525 H531 0.985 . S
C526 C520 1.379 . S
C526 C523 1.363 1_655 S
C526 N524 1.356 . S
C527 C521 1.363 . S
C527 C522 1.379 . S
C527 N525 1.356 . S
N528 C520 1.356 . S
N528 H534 0.984 . S
N528 H535 0.984 . S
N529 C522 1.356 . S
N529 H532 0.984 . S
N529 H533 0.985 . S
H530 N525 0.984 . S
H531 N525 0.985 . S
H532 N529 0.984 . S
H533 N529 0.985 . S
H534 N528 0.984 . S
H535 N528 0.984 . S
H536 N524 0.984 . S
H537 N524 0.985 . S
C538 C539 1.363 1_566 S
C538 C544 1.379 . S
C538 N546 1.357 . S
C539 C538 1.363 1_544 S
C539 C545 1.363 . S
C540 C541 1.363 . S
C540 C545 1.379 . S
C540 N547 1.356 . S
C541 C540 1.363 . S
C541 C544 1.363 1_544 S
N542 C544 1.356 . S
N542 H554 0.984 . S
N542 H555 0.985 . S
N543 C545 1.356 . S
N543 H548 0.984 . S
N543 H549 0.985 . S
C544 C538 1.379 . S
C544 C541 1.363 1_566 S
C544 N542 1.356 . S
C545 C539 1.363 . S
C545 C540 1.379 . S
C545 N543 1.356 . S
N546 C538 1.357 . S
N546 H552 0.984 . S
N546 H553 0.984 . S
N547 C540 1.356 . S
N547 H550 0.984 . S
N547 H551 0.985 . S
H548 N543 0.984 . S
H549 N543 0.985 . S
H550 N547 0.984 . S
H551 N547 0.985 . S
H552 N546 0.984 . S
H553 N546 0.984 . S
H554 N542 0.984 . S
H555 N542 0.985 . S
C556 C557 1.363 . S
C556 C562 1.379 . S
C556 N564 1.356 . S
C557 C556 1.363 . S
C557 C563 1.363 . S
C558 C559 1.363 . S
C558 C563 1.379 . S
C558 N565 1.356 . S
C559 C558 1.363 . S
C559 C562 1.363 . S
N560 C562 1.356 . S
N560 H572 0.984 . S
N560 H573 0.985 . S
N561 C563 1.356 . S
N561 H566 0.984 . S
N561 H567 0.985 . S
C562 C556 1.379 . S
C562 C559 1.363 . S
C562 N560 1.356 . S
C563 C557 1.363 . S
C563 C558 1.379 . S
C563 N561 1.356 . S
N564 C556 1.356 . S
N564 H570 0.984 . S
N564 H571 0.984 . S
N565 C558 1.356 . S
N565 H568 0.984 . S
N565 H569 0.985 . S
H566 N561 0.984 . S
H567 N561 0.985 . S
H568 N565 0.984 . S
H569 N565 0.985 . S
H570 N564 0.984 . S
H571 N564 0.984 . S
H572 N560 0.984 . S
H573 N560 0.985 . S
C574 C575 1.363 . S
C574 C580 1.379 . S
C574 N582 1.356 1_556 S
C575 C574 1.363 . S
C575 C581 1.363 . S
C576 C577 1.363 . S
C576 C581 1.379 . S
C576 N583 1.356 . S
C577 C576 1.363 . S
C577 C580 1.363 . S
N578 C580 1.356 1_554 S
N578 H590 0.984 . S
N578 H591 0.985 . S
N579 C581 1.356 . S
N579 H584 0.984 . S
N579 H585 0.985 . S
C580 C574 1.379 . S
C580 C577 1.363 . S
C580 N578 1.356 1_556 S
C581 C575 1.363 . S
C581 C576 1.379 . S
C581 N579 1.356 . S
N582 C574 1.356 1_554 S
N582 H588 0.984 . S
N582 H589 0.984 1_554 S
N583 C576 1.356 . S
N583 H586 0.984 . S
N583 H587 0.985 . S
H584 N579 0.984 . S
H585 N579 0.985 . S
H586 N583 0.984 . S
H587 N583 0.985 . S
H588 N582 0.984 . S
H589 N582 0.984 1_556 S
H590 N578 0.984 . S
H591 N578 0.985 . S
C592 C593 1.363 . S
C592 C598 1.379 . S
C592 N600 1.356 . S
C593 C592 1.363 . S
C593 C599 1.363 1_655 S
C594 C595 1.363 1_455 S
C594 C599 1.379 . S
C594 N601 1.356 . S
C595 C594 1.363 1_655 S
C595 C598 1.363 . S
N596 C598 1.356 . S
N596 H608 0.984 . S
N596 H609 0.985 . S
N597 C599 1.356 . S
N597 H602 0.984 . S
N597 H603 0.985 . S
C598 C592 1.379 . S
C598 C595 1.363 . S
C598 N596 1.356 . S
C599 C593 1.363 1_455 S
C599 C594 1.379 . S
C599 N597 1.356 . S
N600 C592 1.356 . S
N600 H606 0.984 . S
N600 H607 0.984 . S
N601 C594 1.356 . S
N601 H604 0.984 . S
N601 H605 0.985 . S
H602 N597 0.984 . S
H603 N597 0.985 . S
H604 N601 0.984 . S
H605 N601 0.985 . S
H606 N600 0.984 . S
H607 N600 0.984 . S
H608 N596 0.984 . S
H609 N596 0.985 . S
C610 C611 1.363 1_545 S
C610 C616 1.379 . S
C610 N618 1.356 . S
C611 C610 1.363 1_565 S
C611 C617 1.363 . S
C612 C613 1.363 . S
C612 C617 1.379 . S
C612 N619 1.356 . S
C613 C612 1.363 . S
C613 C616 1.363 1_565 S
N614 C616 1.356 . S
N614 H626 0.984 . S
N614 H627 0.985 . S
N615 C617 1.356 . S
N615 H620 0.984 . S
N615 H621 0.985 . S
C616 C610 1.379 . S
C616 C613 1.363 1_545 S
C616 N614 1.356 . S
C617 C611 1.363 . S
C617 C612 1.379 . S
C617 N615 1.356 . S
N618 C610 1.356 . S
N618 H624 0.984 . S
N618 H625 0.984 . S
N619 C612 1.356 . S
N619 H622 0.984 . S
N619 H623 0.985 . S
H620 N615 0.984 . S
H621 N615 0.985 . S
H622 N619 0.984 . S
H623 N619 0.985 . S
H624 N618 0.984 . S
H625 N618 0.984 . S
H626 N614 0.984 . S
H627 N614 0.985 . S
C628 C629 1.363 . S
C628 C634 1.379 . S
C628 N636 1.356 . S
C629 C628 1.363 . S
C629 C635 1.363 . S
C630 C631 1.363 . S
C630 C635 1.379 . S
C630 N637 1.356 . S
C631 C630 1.363 . S
C631 C634 1.363 . S
N632 C634 1.356 . S
N632 H644 0.984 . S
N632 H645 0.985 . S
N633 C635 1.356 . S
N633 H638 0.984 . S
N633 H639 0.985 . S
C634 C628 1.379 . S
C634 C631 1.363 . S
C634 N632 1.356 . S
C635 C629 1.363 . S
C635 C630 1.379 . S
C635 N633 1.356 . S
N636 C628 1.356 . S
N636 H642 0.984 . S
N636 H643 0.984 . S
N637 C630 1.356 . S
N637 H640 0.984 . S
N637 H641 0.985 . S
H638 N633 0.984 . S
H639 N633 0.985 . S
H640 N637 0.984 . S
H641 N637 0.985 . S
H642 N636 0.984 . S
H643 N636 0.984 . S
H644 N632 0.984 . S
H645 N632 0.985 . S
C646 C647 1.363 . S
C646 C652 1.379 . S
C646 N654 1.356 1_556 S
C647 C646 1.363 . S
C647 C653 1.363 . S
C648 C649 1.363 . S
C648 C653 1.379 . S
C648 N655 1.356 . S
C649 C648 1.363 . S
C649 C652 1.363 . S
N650 C652 1.356 . S
N650 H662 0.984 1_556 S
N650 H663 0.985 . S
N651 C653 1.356 . S
N651 H656 0.984 . S
N651 H657 0.985 . S
C652 C646 1.379 . S
C652 C649 1.363 . S
C652 N650 1.356 . S
C653 C647 1.363 . S
C653 C648 1.379 . S
C653 N651 1.356 . S
N654 C646 1.356 1_554 S
N654 H660 0.984 . S
N654 H661 0.984 . S
N655 C648 1.356 . S
N655 H658 0.984 . S
N655 H659 0.985 . S
H656 N651 0.984 . S
H657 N651 0.985 . S
H658 N655 0.984 . S
H659 N655 0.985 . S
H660 N654 0.984 . S
H661 N654 0.984 . S
H662 N650 0.984 1_554 S
H663 N650 0.985 . S
C233 C61 2.072 . S
C235 C74 2.199 . S
C253 C114 2.053 . S
C251 C70 1.988 . S
C271 C178 2.134 . S
C269 C43 2.003 . S
C289 C194 1.993 1_455 S
C287 C52 1.674 1_455 S
C307 C95 2.194 1_554 S
C305 C25 2.071 1_545 S
C323 C34 1.988 . S
C325 C135 2.055 1_554 S
C341 C7 2.009 . S
C343 C169 2.134 . S
C359 C16 1.679 . S
C361 C215 1.991 1_655 S
C379 C89 0.715 . S
C377 C50 0.699 1_455 S
C397 C129 0.894 . S
C395 C59 0.919 . S
C415 C165 0.918 . S
C413 C67 0.935 . S
C431 C41 1.089 . S
C433 C209 0.988 . S
C449 C14 0.702 . S
C451 C98 0.714 . S
C469 C138 0.894 . S
C467 C23 0.921 1_545 S
C487 C176 0.918 . S
C485 C31 0.932 . S
C503 C5 1.106 . S
C505 C218 0.994 . S
C521 C49 1.928 1_455 S
C523 C96 2.242 . S
C539 C58 2.028 1_545 S
C541 C136 2.286 1_554 S
C559 C154 1.859 . S
C557 C68 1.794 . S
C577 C216 2.587 . S
C575 C40 2.240 . S
C593 C13 1.925 . S
C595 C85 2.248 . S
C613 C125 2.287 . S
C611 C22 2.029 . S
C631 C175 1.859 . S
C629 C32 1.792 . S
C647 C4 2.243 . S
C649 C205 2.591 . S
