# Generated by pormake.
# Topology ctn, (3,4)-cn, num edge types: 1
# Building blocks:
#     Node 0, Type 0, BuildingBlock: PAMTOO_clean_linker_0, # of connection points: 3
#     Node 1, Type 0, BuildingBlock: PAMTOO_clean_linker_0, # of connection points: 3
#     Node 2, Type 0, BuildingBlock: PAMTOO_clean_linker_0, # of connection points: 3
#     Node 3, Type 0, BuildingBlock: PAMTOO_clean_linker_0, # of connection points: 3
#     Node 4, Type 0, BuildingBlock: PAMTOO_clean_linker_0, # of connection points: 3
#     Node 5, Type 0, BuildingBlock: PAMTOO_clean_linker_0, # of connection points: 3
#     Node 6, Type 0, BuildingBlock: PAMTOO_clean_linker_0, # of connection points: 3
#     Node 7, Type 0, BuildingBlock: PAMTOO_clean_linker_0, # of connection points: 3
#     Node 8, Type 0, BuildingBlock: PAMTOO_clean_linker_0, # of connection points: 3
#     Node 9, Type 0, BuildingBlock: PAMTOO_clean_linker_0, # of connection points: 3
#     Node 10, Type 0, BuildingBlock: PAMTOO_clean_linker_0, # of connection points: 3
#     Node 11, Type 0, BuildingBlock: PAMTOO_clean_linker_0, # of connection points: 3
#     Node 12, Type 0, BuildingBlock: PAMTOO_clean_linker_0, # of connection points: 3
#     Node 13, Type 0, BuildingBlock: PAMTOO_clean_linker_0, # of connection points: 3
#     Node 14, Type 0, BuildingBlock: PAMTOO_clean_linker_0, # of connection points: 3
#     Node 15, Type 0, BuildingBlock: PAMTOO_clean_linker_0, # of connection points: 3
#     Node 16, Type 1, BuildingBlock: KUFVIS_clean_sbu_0, # of connection points: 4
#     Node 17, Type 1, BuildingBlock: KUFVIS_clean_sbu_0, # of connection points: 4
#     Node 18, Type 1, BuildingBlock: KUFVIS_clean_sbu_0, # of connection points: 4
#     Node 19, Type 1, BuildingBlock: KUFVIS_clean_sbu_0, # of connection points: 4
#     Node 20, Type 1, BuildingBlock: KUFVIS_clean_sbu_0, # of connection points: 4
#     Node 21, Type 1, BuildingBlock: KUFVIS_clean_sbu_0, # of connection points: 4
#     Node 22, Type 1, BuildingBlock: KUFVIS_clean_sbu_0, # of connection points: 4
#     Node 23, Type 1, BuildingBlock: KUFVIS_clean_sbu_0, # of connection points: 4
#     Node 24, Type 1, BuildingBlock: KUFVIS_clean_sbu_0, # of connection points: 4
#     Node 25, Type 1, BuildingBlock: KUFVIS_clean_sbu_0, # of connection points: 4
#     Node 26, Type 1, BuildingBlock: KUFVIS_clean_sbu_0, # of connection points: 4
#     Node 27, Type 1, BuildingBlock: KUFVIS_clean_sbu_0, # of connection points: 4
#     Edge 28, Type (0, 1), BuildingBlock: MIFKUJ_clean_linker_0, # of connection points: 2
#     Edge 29, Type (0, 1), BuildingBlock: MIFKUJ_clean_linker_0, # of connection points: 2
#     Edge 30, Type (0, 1), BuildingBlock: MIFKUJ_clean_linker_0, # of connection points: 2
#     Edge 31, Type (0, 1), BuildingBlock: MIFKUJ_clean_linker_0, # of connection points: 2
#     Edge 32, Type (0, 1), BuildingBlock: MIFKUJ_clean_linker_0, # of connection points: 2
#     Edge 33, Type (0, 1), BuildingBlock: MIFKUJ_clean_linker_0, # of connection points: 2
#     Edge 34, Type (0, 1), BuildingBlock: MIFKUJ_clean_linker_0, # of connection points: 2
#     Edge 35, Type (0, 1), BuildingBlock: MIFKUJ_clean_linker_0, # of connection points: 2
#     Edge 36, Type (0, 1), BuildingBlock: MIFKUJ_clean_linker_0, # of connection points: 2
#     Edge 37, Type (0, 1), BuildingBlock: MIFKUJ_clean_linker_0, # of connection points: 2
#     Edge 38, Type (0, 1), BuildingBlock: MIFKUJ_clean_linker_0, # of connection points: 2
#     Edge 39, Type (0, 1), BuildingBlock: MIFKUJ_clean_linker_0, # of connection points: 2
#     Edge 40, Type (0, 1), BuildingBlock: MIFKUJ_clean_linker_0, # of connection points: 2
#     Edge 41, Type (0, 1), BuildingBlock: MIFKUJ_clean_linker_0, # of connection points: 2
#     Edge 42, Type (0, 1), BuildingBlock: MIFKUJ_clean_linker_0, # of connection points: 2
#     Edge 43, Type (0, 1), BuildingBlock: MIFKUJ_clean_linker_0, # of connection points: 2
#     Edge 44, Type (0, 1), BuildingBlock: MIFKUJ_clean_linker_0, # of connection points: 2
#     Edge 45, Type (0, 1), BuildingBlock: MIFKUJ_clean_linker_0, # of connection points: 2
#     Edge 46, Type (0, 1), BuildingBlock: MIFKUJ_clean_linker_0, # of connection points: 2
#     Edge 47, Type (0, 1), BuildingBlock: MIFKUJ_clean_linker_0, # of connection points: 2
#     Edge 48, Type (0, 1), BuildingBlock: MIFKUJ_clean_linker_0, # of connection points: 2
#     Edge 49, Type (0, 1), BuildingBlock: MIFKUJ_clean_linker_0, # of connection points: 2
#     Edge 50, Type (0, 1), BuildingBlock: MIFKUJ_clean_linker_0, # of connection points: 2
#     Edge 51, Type (0, 1), BuildingBlock: MIFKUJ_clean_linker_0, # of connection points: 2
#     Edge 52, Type (0, 1), BuildingBlock: MIFKUJ_clean_linker_0, # of connection points: 2
#     Edge 53, Type (0, 1), BuildingBlock: MIFKUJ_clean_linker_0, # of connection points: 2
#     Edge 54, Type (0, 1), BuildingBlock: MIFKUJ_clean_linker_0, # of connection points: 2
#     Edge 55, Type (0, 1), BuildingBlock: MIFKUJ_clean_linker_0, # of connection points: 2
#     Edge 56, Type (0, 1), BuildingBlock: MIFKUJ_clean_linker_0, # of connection points: 2
#     Edge 57, Type (0, 1), BuildingBlock: MIFKUJ_clean_linker_0, # of connection points: 2
#     Edge 58, Type (0, 1), BuildingBlock: MIFKUJ_clean_linker_0, # of connection points: 2
#     Edge 59, Type (0, 1), BuildingBlock: MIFKUJ_clean_linker_0, # of connection points: 2
#     Edge 60, Type (0, 1), BuildingBlock: MIFKUJ_clean_linker_0, # of connection points: 2
#     Edge 61, Type (0, 1), BuildingBlock: MIFKUJ_clean_linker_0, # of connection points: 2
#     Edge 62, Type (0, 1), BuildingBlock: MIFKUJ_clean_linker_0, # of connection points: 2
#     Edge 63, Type (0, 1), BuildingBlock: MIFKUJ_clean_linker_0, # of connection points: 2
#     Edge 64, Type (0, 1), BuildingBlock: MIFKUJ_clean_linker_0, # of connection points: 2
#     Edge 65, Type (0, 1), BuildingBlock: MIFKUJ_clean_linker_0, # of connection points: 2
#     Edge 66, Type (0, 1), BuildingBlock: MIFKUJ_clean_linker_0, # of connection points: 2
#     Edge 67, Type (0, 1), BuildingBlock: MIFKUJ_clean_linker_0, # of connection points: 2
#     Edge 68, Type (0, 1), BuildingBlock: MIFKUJ_clean_linker_0, # of connection points: 2
#     Edge 69, Type (0, 1), BuildingBlock: MIFKUJ_clean_linker_0, # of connection points: 2
#     Edge 70, Type (0, 1), BuildingBlock: MIFKUJ_clean_linker_0, # of connection points: 2
#     Edge 71, Type (0, 1), BuildingBlock: MIFKUJ_clean_linker_0, # of connection points: 2
#     Edge 72, Type (0, 1), BuildingBlock: MIFKUJ_clean_linker_0, # of connection points: 2
#     Edge 73, Type (0, 1), BuildingBlock: MIFKUJ_clean_linker_0, # of connection points: 2
#     Edge 74, Type (0, 1), BuildingBlock: MIFKUJ_clean_linker_0, # of connection points: 2
#     Edge 75, Type (0, 1), BuildingBlock: MIFKUJ_clean_linker_0, # of connection points: 2
# Relax obj value: 0.073
# Max RMSD: 0.179
# Mean RMSD: 0.122
data_MOF--net-ctn--node1-KUFVIS_clean_sbu_0--node2-PAMTOO_clean_linker_0--edge1-MIFKUJ_clean_linker_0
_symmetry_space_group_name_H-M    P1
_symmetry_Int_Tables_number       1
_symmetry_cell_setting            triclinic
loop_
_symmetry_equiv_pos_as_xyz
'x, y, z'
_cell_length_a     69.410312
_cell_length_b     69.763465
_cell_length_c     71.130652
_cell_angle_alpha  86.010068
_cell_angle_beta   92.356078
_cell_angle_gamma 98.728255
loop_
_atom_site_label
_atom_site_type_symbol
_atom_site_fract_x
_atom_site_fract_y
_atom_site_fract_z
_atom_type_partial_charge
H0 H 0.01939 0.07743 0.05732 0.0
H1 H 0.05172 0.03028 0.07271 0.0
H2 H 0.06284 0.06424 0.0207 0.0
H3 H 0.0603 0.0219 0.01865 0.0
C4 C 0.06742 0.01829 0.03248 0.0
O5 O 0.07221 0.03489 0.04224 0.0
H6 H 0.05677 0.00764 0.04058 0.0
C7 C 0.03039 0.0687 0.0543 0.0
C8 C 0.04068 0.07293 0.0375 0.0
C9 C 0.03412 0.05336 0.06722 0.0
C10 C 0.04838 0.04206 0.06299 0.0
C11 C 0.05863 0.04596 0.04622 0.0
C12 C 0.05488 0.06144 0.03363 0.0
H13 H 0.33157 0.67761 0.23388 0.0
H14 H 0.30051 0.69563 0.18358 0.0
H15 H 0.35276 0.73101 0.20226 0.0
H16 H 0.32555 0.75437 0.1868 0.0
C17 C 0.3156 0.74368 0.1787 0.0
O18 O 0.32461 0.72764 0.17654 0.0
H19 H 0.30208 0.73917 0.18681 0.0
C20 C 0.33007 0.68796 0.22203 0.0
C21 C 0.34404 0.70477 0.21987 0.0
C22 C 0.31427 0.68435 0.20905 0.0
C23 C 0.31276 0.69776 0.19354 0.0
C24 C 0.32671 0.71443 0.19107 0.0
C25 C 0.3424 0.71779 0.20408 0.0
H26 H 0.9727 0.51036 0.08081 0.0
H27 H 0.95595 0.48305 0.02881 0.0
H28 H 0.99912 0.4617 0.06564 0.0
H29 H 0.00666 0.46845 0.024 0.0
C30 C 0.99231 0.46075 0.019 0.0
O31 O 0.97972 0.45731 0.03386 0.0
H32 H 0.98621 0.47022 0.00779 0.0
C33 C 0.97411 0.49941 0.07111 0.0
C34 C 0.98771 0.48644 0.0754 0.0
C35 C 0.96228 0.49834 0.05445 0.0
C36 C 0.96446 0.48407 0.0419 0.0
C37 C 0.97789 0.47111 0.04593 0.0
C38 C 0.98925 0.47222 0.06264 0.0
H39 H 0.69531 0.84198 0.2334 0.0
H40 H 0.6766 0.78502 0.21348 0.0
H41 H 0.72818 0.81985 0.19184 0.0
H42 H 0.70221 0.80069 0.16421 0.0
C43 C 0.69825 0.78621 0.17179 0.0
O44 O 0.70541 0.78665 0.19021 0.0
H45 H 0.68206 0.78282 0.17186 0.0
C46 C 0.69718 0.83072 0.22417 0.0
C47 C 0.71338 0.83325 0.2125 0.0
C48 C 0.68383 0.81339 0.22473 0.0
C49 C 0.68674 0.79846 0.21329 0.0
C50 C 0.70268 0.80092 0.20137 0.0
C51 C 0.71597 0.81818 0.20112 0.0
H52 H 0.0819 0.96502 0.51506 0.0
H53 H 0.03049 0.95099 0.4796 0.0
H54 H 0.07269 1.00016 0.46415 0.0
H55 H 0.03384 0.00854 0.46009 0.0
C56 C 0.0257 0.99414 0.45668 0.0
O57 O 0.03863 0.981 0.45573 0.0
H58 H 0.0153 0.98894 0.46809 0.0
C59 C 0.07336 0.96783 0.50236 0.0
C60 C 0.07987 0.98398 0.49002 0.0
C61 C 0.05573 0.9555 0.49874 0.0
C62 C 0.04409 0.96014 0.48287 0.0
C63 C 0.05009 0.97647 0.47076 0.0
C64 C 0.06806 0.98804 0.4741 0.0
H65 H 0.18879 0.73897 0.8191 0.0
H66 H 0.20627 0.69061 0.79326 0.0
H67 H 0.24009 0.71538 0.8399 0.0
H68 H 0.26247 0.70643 0.80789 0.0
C69 C 0.25288 0.69325 0.8032 0.0
O70 O 0.23733 0.68884 0.81511 0.0
H71 H 0.2474 0.69645 0.78857 0.0
C72 C 0.19886 0.72861 0.81835 0.0
C73 C 0.21476 0.72895 0.83131 0.0
C74 C 0.1956 0.7149 0.80455 0.0
C75 C 0.20836 0.70112 0.80396 0.0
C76 C 0.22444 0.7014 0.81661 0.0
C77 C 0.22749 0.71515 0.83036 0.0
H78 H 0.96209 0.56065 0.51148 0.0
H79 H 0.97857 0.52753 0.4675 0.0
H80 H 0.01793 0.57668 0.48573 0.0
H81 H 0.02185 0.5725 0.44556 0.0
C82 C 0.01367 0.55758 0.44477 0.0
O83 O 0.01277 0.54841 0.46266 0.0
H84 H 0.99865 0.55885 0.43915 0.0
C85 C 0.97263 0.55819 0.50142 0.0
C86 C 0.9905 0.57077 0.50011 0.0
C87 C 0.9681 0.54258 0.48973 0.0
C88 C 0.98176 0.5395 0.47662 0.0
C89 C 0.99973 0.55168 0.47531 0.0
C90 C 0.00412 0.56719 0.4871 0.0
H91 H 0.79197 0.82405 0.84849 0.0
H92 H 0.83897 0.79826 0.8275 0.0
H93 H 0.81702 0.84483 0.79517 0.0
H94 H 0.82859 0.81704 0.77083 0.0
C95 C 0.83761 0.80929 0.78119 0.0
O96 O 0.84245 0.82044 0.79649 0.0
H97 H 0.82866 0.79521 0.78571 0.0
C98 C 0.80232 0.82309 0.83773 0.0
C99 C 0.80268 0.83589 0.82149 0.0
C100 C 0.81555 0.80954 0.84037 0.0
C101 C 0.829 0.80885 0.82621 0.0
C102 C 0.82952 0.82152 0.81002 0.0
C103 C 0.81658 0.83517 0.80781 0.0
H104 H 0.29006 0.32106 0.34673 0.0
H105 H 0.33803 0.29807 0.32428 0.0
H106 H 0.31502 0.34536 0.2942 0.0
H107 H 0.32892 0.32122 0.2673 0.0
C108 C 0.33588 0.31167 0.27781 0.0
O109 O 0.34079 0.32147 0.29399 0.0
H110 H 0.32509 0.29841 0.28104 0.0
C111 C 0.30069 0.32129 0.33593 0.0
C112 C 0.30084 0.33491 0.32031 0.0
C113 C 0.31411 0.30793 0.33763 0.0
C114 C 0.32756 0.30817 0.3233 0.0
C115 C 0.32787 0.32162 0.30774 0.0
C116 C 0.31474 0.33512 0.3064 0.0
H117 H 0.47346 0.00727 0.58389 0.0
H118 H 0.46017 0.98275 0.52997 0.0
H119 H 0.50584 0.96425 0.56559 0.0
H120 H 0.51227 0.97145 0.52427 0.0
C121 C 0.49821 0.96317 0.51928 0.0
O122 O 0.4858 0.95877 0.53422 0.0
H123 H 0.49148 0.9724 0.50828 0.0
C124 C 0.47647 0.99784 0.57327 0.0
C125 C 0.49134 0.98619 0.5769 0.0
C126 C 0.46504 0.99696 0.55635 0.0
C127 C 0.46854 0.98378 0.54314 0.0
C128 C 0.4831 0.97195 0.54665 0.0
C129 C 0.49446 0.97328 0.56335 0.0
H130 H 0.19889 0.34184 0.73409 0.0
H131 H 0.18206 0.28303 0.71844 0.0
H132 H 0.22927 0.31941 0.69071 0.0
H133 H 0.19513 0.29553 0.66866 0.0
C134 C 0.19788 0.2815 0.67598 0.0
O135 O 0.20847 0.28497 0.69261 0.0
H136 H 0.18353 0.27275 0.67927 0.0
C137 C 0.20068 0.33026 0.7252 0.0
C138 C 0.21572 0.33303 0.71215 0.0
C139 C 0.18844 0.31233 0.7276 0.0
C140 C 0.19134 0.29696 0.71676 0.0
C141 C 0.20595 0.29965 0.70335 0.0
C142 C 0.21806 0.3176 0.70111 0.0
H143 H 0.8316 0.18142 0.73655 0.0
H144 H 0.80084 0.19865 0.68581 0.0
H145 H 0.85248 0.2348 0.70459 0.0
H146 H 0.82207 0.25676 0.69105 0.0
C147 C 0.81394 0.24661 0.68108 0.0
O148 O 0.82408 0.23132 0.67922 0.0
H149 H 0.79943 0.24111 0.6871 0.0
C150 C 0.83046 0.19142 0.72434 0.0
C151 C 0.84422 0.20841 0.7222 0.0
C152 C 0.8147 0.18765 0.71134 0.0
C153 C 0.8128 0.20121 0.69604 0.0
C154 C 0.82633 0.21819 0.69377 0.0
C155 C 0.84205 0.22168 0.70669 0.0
H156 H 0.52009 0.57738 0.55532 0.0
H157 H 0.5489 0.52725 0.56799 0.0
H158 H 0.56587 0.56612 0.52037 0.0
H159 H 0.56153 0.52402 0.5145 0.0
C160 C 0.56793 0.519 0.52824 0.0
O161 O 0.57227 0.5344 0.53967 0.0
H162 H 0.55683 0.50771 0.535 0.0
C163 C 0.53087 0.5685 0.55209 0.0
C164 C 0.54246 0.5739 0.53622 0.0
C165 C 0.53302 0.5518 0.56388 0.0
C166 C 0.54707 0.54035 0.55944 0.0
C167 C 0.55871 0.54548 0.5437 0.0
C168 C 0.55648 0.56223 0.53225 0.0
H169 H 0.57968 0.46301 0.01366 0.0
H170 H 0.52607 0.45414 0.98051 0.0
H171 H 0.57105 0.50084 0.96454 0.0
H172 H 0.53051 0.50982 0.96282 0.0
C173 C 0.52294 0.4961 0.95712 0.0
O174 O 0.53619 0.48332 0.95601 0.0
H175 H 0.51121 0.48961 0.96684 0.0
C176 C 0.57066 0.46721 1.00176 0.0
C177 C 0.57777 0.48334 0.98966 0.0
C178 C 0.55206 0.45644 0.9987 0.0
C179 C 0.54049 0.46205 0.98315 0.0
C180 C 0.54733 0.47815 0.97104 0.0
C181 C 0.56589 0.48867 0.97425 0.0
H182 H 0.68393 0.23422 0.32322 0.0
H183 H 0.70571 0.19225 0.29143 0.0
H184 H 0.73724 0.21267 0.34111 0.0
H185 H 0.76152 0.20738 0.30804 0.0
C186 C 0.7521 0.19462 0.30229 0.0
O187 O 0.73627 0.18921 0.31369 0.0
H188 H 0.74697 0.19883 0.28779 0.0
C189 C 0.69469 0.22479 0.32143 0.0
C190 C 0.71073 0.22491 0.33422 0.0
C191 C 0.69283 0.21325 0.30585 0.0
C192 C 0.70704 0.2014 0.30326 0.0
C193 C 0.72299 0.20117 0.31599 0.0
C194 C 0.72488 0.21301 0.33133 0.0
H195 H 0.46218 0.0599 0.01392 0.0
H196 H 0.47819 0.02375 0.97236 0.0
H197 H 0.51888 0.07257 0.98925 0.0
H198 H 0.5212 0.06787 0.94898 0.0
C199 C 0.51327 0.05281 0.94852 0.0
O200 O 0.51259 0.04403 0.96658 0.0
H201 H 0.49818 0.0537 0.94291 0.0
C202 C 0.47286 0.05653 0.00445 0.0
C203 C 0.49121 0.0683 0.00326 0.0
C204 C 0.46811 0.04032 0.99358 0.0
C205 C 0.48174 0.03605 0.98103 0.0
C206 C 0.49985 0.0479 0.97924 0.0
C207 C 0.50465 0.06382 0.99049 0.0
Mn208 Mn 0.25184 0.88719 0.99645 0.0
Mn209 Mn 0.25563 0.91643 0.95661 0.0
C210 C 0.24086 0.87505 0.96756 0.0
C211 C 0.26375 0.86588 0.01939 0.0
C212 C 0.22578 0.91844 0.98606 0.0
O213 O 0.27278 0.90965 0.00365 0.0
O214 O 0.27504 0.92737 0.97579 0.0
C215 C 0.29512 0.912 0.9451 0.0
N216 N 0.27556 0.91037 0.94133 0.0
C217 C 0.2795 0.90252 0.9095 0.0
C218 C 0.2997 0.90417 0.91297 0.0
C219 C 0.30752 0.90874 0.93092 0.0
C220 C 0.26784 0.90548 0.92428 0.0
H221 H 0.30123 0.91595 0.95875 0.0
C222 C 0.28049 0.92408 0.993 0.0
O223 O 0.25032 0.87605 0.02288 0.0
O224 O 0.27057 0.86821 1.00249 0.0
N225 N 0.23781 0.90718 0.93691 0.0
C226 C 0.21798 0.90543 0.93609 0.0
C227 C 0.20777 0.89985 0.91942 0.0
C228 C 0.21809 0.89655 0.90366 0.0
C229 C 0.23851 0.89862 0.90482 0.0
C230 C 0.24784 0.90373 0.92195 0.0
H231 H 0.21001 0.90828 0.94807 0.0
O232 O 0.23381 0.86671 0.98323 0.0
O233 O 0.25383 0.89037 0.9693 0.0
O234 O 0.23033 0.90438 0.99685 0.0
O235 O 0.23451 0.9242 0.97082 0.0
C236 C 0.25001 0.89621 0.88956 0.0
C237 C 0.2705 0.89841 0.89186 0.0
H238 H 0.30932 0.90194 0.90197 0.0
H239 H 0.32309 0.91003 0.93373 0.0
H240 H 0.19201 0.89833 0.91863 0.0
H241 H 0.2102 0.89251 0.89073 0.0
H242 H 0.24324 0.8929 0.87595 0.0
H243 H 0.27929 0.89721 0.87995 0.0
Mn244 Mn 0.1477 0.49506 0.26773 0.0
Mn245 Mn 0.13483 0.5401 0.26447 0.0
C246 C 0.16679 0.52061 0.25154 0.0
C247 C 0.16464 0.47114 0.28252 0.0
C248 C 0.11512 0.5076 0.24106 0.0
O249 O 0.12848 0.49367 0.28919 0.0
O250 O 0.12143 0.52434 0.28576 0.0
C251 C 0.15361 0.55396 0.30017 0.0
N252 N 0.15138 0.55618 0.28107 0.0
C253 C 0.17462 0.58556 0.27984 0.0
C254 C 0.17708 0.58365 0.29951 0.0
C255 C 0.16658 0.56774 0.30971 0.0
C256 C 0.16148 0.57139 0.27111 0.0
H257 H 0.1456 0.54174 0.30807 0.0
C258 C 0.11964 0.5073 0.29406 0.0
O259 O 0.14957 0.46666 0.2714 0.0
O260 O 0.16922 0.48935 0.28584 0.0
N261 N 0.14687 0.55697 0.24452 0.0
C262 C 0.14357 0.55615 0.22556 0.0
C263 C 0.15322 0.57081 0.2133 0.0
C264 C 0.16607 0.58621 0.22066 0.0
C265 C 0.16917 0.5868 0.24023 0.0
C266 C 0.15897 0.57189 0.25176 0.0
H267 H 0.13368 0.54436 0.21982 0.0
O268 O 0.16756 0.5028 0.24782 0.0
O269 O 0.15474 0.52291 0.2644 0.0
O270 O 0.12538 0.49477 0.24761 0.0
O271 O 0.11729 0.52484 0.24659 0.0
C272 C 0.1822 0.60143 0.24874 0.0
C273 C 0.18496 0.60077 0.26852 0.0
H274 H 0.18712 0.5942 0.30692 0.0
H275 H 0.16851 0.5661 0.32487 0.0
H276 H 0.15079 0.57024 0.19821 0.0
H277 H 0.17354 0.59746 0.21115 0.0
H278 H 0.19037 0.61308 0.24017 0.0
H279 H 0.19524 0.61193 0.27487 0.0
Mn280 Mn 0.78293 0.63434 0.02329 0.0
Mn281 Mn 0.73979 0.64445 0.0042 0.0
C282 C 0.75472 0.61151 0.02591 0.0
C283 C 0.81217 0.62126 0.02203 0.0
C284 C 0.7575 0.66074 0.04051 0.0
O285 O 0.79155 0.65745 0.00434 0.0
O286 O 0.76181 0.66187 0.99246 0.0
C287 C 0.74386 0.63227 0.96567 0.0
N288 N 0.73356 0.63104 0.9817 0.0
C289 C 0.70745 0.60884 0.96838 0.0
C290 C 0.71774 0.60991 0.95168 0.0
C291 C 0.73605 0.62163 0.95035 0.0
C292 C 0.716 0.61971 0.98318 0.0
H293 H 0.7579 0.64131 0.96459 0.0
C294 C 0.78042 0.66631 0.99309 0.0
O295 O 0.81013 0.63411 0.03386 0.0
O296 O 0.79766 0.61684 0.01026 0.0
N297 N 0.71707 0.62867 0.01414 0.0
C298 C 0.70961 0.62834 0.0316 0.0
C299 C 0.69137 0.61731 0.03532 0.0
C300 C 0.68097 0.60682 0.02105 0.0
C301 C 0.68903 0.60719 0.00325 0.0
C302 C 0.70715 0.61866 1.00029 0.0
H303 H 0.7175 0.63644 0.0426 0.0
O304 O 0.76921 0.61077 0.03792 0.0
O305 O 0.757 0.62563 0.01296 0.0
O306 O 0.77289 0.65271 0.04096 0.0
O307 O 0.74443 0.65858 0.02737 0.0
C308 C 0.67993 0.59645 0.98842 0.0
C309 C 0.68919 0.59718 0.97102 0.0
H310 H 0.71178 0.60172 0.93985 0.0
H311 H 0.7441 0.62248 0.93754 0.0
H312 H 0.6853 0.61696 0.04913 0.0
H313 H 0.66686 0.5985 0.02396 0.0
H314 H 0.66597 0.58734 0.99033 0.0
H315 H 0.68221 0.58861 0.95983 0.0
Mn316 Mn 0.88315 0.02117 0.2558 0.0
Mn317 Mn 0.89824 0.97715 0.25887 0.0
C318 C 0.86402 0.99487 0.24254 0.0
C319 C 0.86681 0.04488 0.26718 0.0
C320 C 0.91415 0.00957 0.2307 0.0
O321 O 0.90377 0.02389 0.27722 0.0
O322 O 0.91298 0.9943 0.27732 0.0
C323 C 0.88366 0.96436 0.29698 0.0
N324 N 0.88464 0.96108 0.27842 0.0
C325 C 0.86545 0.92946 0.28289 0.0
C326 C 0.86431 0.93244 0.30208 0.0
C327 C 0.87333 0.95002 0.30912 0.0
C328 C 0.87575 0.94436 0.27144 0.0
H329 H 0.89067 0.97781 0.30246 0.0
C330 C 0.91429 0.01123 0.28355 0.0
O331 O 0.88083 0.04935 0.25541 0.0
O332 O 0.86259 0.02666 0.27278 0.0
N333 N 0.88558 0.95859 0.24215 0.0
C334 C 0.88715 0.95848 0.22313 0.0
C335 C 0.87923 0.94181 0.21389 0.0
C336 C 0.86983 0.92546 0.22431 0.0
C337 C 0.86794 0.92609 0.24377 0.0
C338 C 0.87652 0.94292 0.25227 0.0
H339 H 0.89472 0.97087 0.21512 0.0
O340 O 0.8624 0.01259 0.23658 0.0
O341 O 0.87689 0.99295 0.25614 0.0
O342 O 0.90437 0.02215 0.23615 0.0
O343 O 0.91281 0.99227 0.23817 0.0
C344 C 0.85796 0.91066 0.25509 0.0
C345 C 0.85655 0.91242 0.27461 0.0
H346 H 0.85641 0.9214 0.31151 0.0
H347 H 0.87233 0.95249 0.32387 0.0
H348 H 0.88068 0.94145 0.19883 0.0
H349 H 0.86436 0.91239 0.21729 0.0
H350 H 0.85111 0.89748 0.24888 0.0
H351 H 0.84855 0.9006 0.28311 0.0
Mn352 Mn 0.28713 0.13644 0.5235 0.0
Mn353 Mn 0.24994 0.15473 0.49997 0.0
C354 C 0.25602 0.11814 0.52216 0.0
C355 C 0.31407 0.11948 0.5246 0.0
C356 C 0.26592 0.16757 0.5382 0.0
O357 O 0.30107 0.15913 0.50663 0.0
O358 O 0.27499 0.16776 0.48989 0.0
C359 C 0.25416 0.141 0.46215 0.0
N360 N 0.2431 0.14176 0.47738 0.0
C361 C 0.21448 0.12583 0.46155 0.0
C362 C 0.2255 0.12494 0.44563 0.0
C363 C 0.24551 0.13226 0.44606 0.0
C364 C 0.22407 0.13394 0.47744 0.0
H365 H 0.26939 0.1472 0.46223 0.0
C366 C 0.29332 0.16923 0.4935 0.0
O367 O 0.31214 0.13196 0.53682 0.0
O368 O 0.30063 0.11722 0.51135 0.0
N369 N 0.22459 0.14347 0.50819 0.0
C370 C 0.21588 0.14594 0.52451 0.0
C371 C 0.19602 0.13871 0.52664 0.0
C372 C 0.18518 0.12963 0.51176 0.0
C373 C 0.19431 0.12785 0.49488 0.0
C374 C 0.21425 0.13489 0.49373 0.0
H375 H 0.22398 0.15337 0.53582 0.0
O376 O 0.26864 0.11421 0.5353 0.0
O377 O 0.26204 0.13244 0.51019 0.0
O378 O 0.27801 0.1555 0.54087 0.0
O379 O 0.25549 0.16892 0.52311 0.0
C380 C 0.18426 0.12004 0.4789 0.0
C381 C 0.19428 0.11935 0.46217 0.0
H382 H 0.21877 0.11869 0.43301 0.0
H383 H 0.25413 0.1316 0.43385 0.0
H384 H 0.18902 0.14037 0.53961 0.0
H385 H 0.1698 0.12434 0.51334 0.0
H386 H 0.16875 0.11482 0.47922 0.0
H387 H 0.18624 0.11394 0.4498 0.0
Mn388 Mn 0.38368 0.52144 0.75383 0.0
Mn389 Mn 0.39842 0.47734 0.75437 0.0
C390 C 0.36429 0.4961 0.73916 0.0
C391 C 0.36763 0.54434 0.76701 0.0
C392 C 0.41546 0.5119 0.72888 0.0
O393 O 0.40467 0.52263 0.77518 0.0
O394 O 0.41127 0.49202 0.77539 0.0
C395 C 0.38128 0.45973 0.79015 0.0
N396 N 0.38343 0.45903 0.77128 0.0
C397 C 0.36431 0.42724 0.77116 0.0
C398 C 0.36192 0.42758 0.79061 0.0
C399 C 0.37037 0.44394 0.80013 0.0
C400 C 0.37523 0.44345 0.76196 0.0
H401 H 0.38786 0.47224 0.79751 0.0
C402 C 0.41341 0.50875 0.78217 0.0
O403 O 0.38155 0.54946 0.75525 0.0
O404 O 0.36338 0.52588 0.77163 0.0
N405 N 0.38711 0.46127 0.7349 0.0
C406 C 0.39015 0.46361 0.71602 0.0
C407 C 0.38307 0.4484 0.7045 0.0
C408 C 0.37301 0.43096 0.71253 0.0
C409 C 0.36958 0.42909 0.73189 0.0
C410 C 0.37736 0.44456 0.74272 0.0
H411 H 0.39829 0.47681 0.70985 0.0
O412 O 0.36259 0.51409 0.73441 0.0
O413 O 0.3773 0.49342 0.7524 0.0
O414 O 0.40441 0.52362 0.73369 0.0
O415 O 0.41482 0.49463 0.73625 0.0
C416 C 0.35892 0.41241 0.7409 0.0
C417 C 0.35613 0.41156 0.7605 0.0
H418 H 0.35354 0.41542 0.79836 0.0
H419 H 0.36855 0.44433 0.81513 0.0
H420 H 0.38567 0.44997 0.68954 0.0
H421 H 0.36814 0.41901 0.70374 0.0
H422 H 0.35264 0.40023 0.73285 0.0
H423 H 0.34766 0.39879 0.76722 0.0
Mn424 Mn 0.75182 0.387 0.49604 0.0
Mn425 Mn 0.75092 0.40956 0.45259 0.0
C426 C 0.73652 0.37033 0.47087 0.0
C427 C 0.76627 0.36895 0.52016 0.0
C428 C 0.72603 0.41792 0.48434 0.0
O429 O 0.77375 0.4102 0.49772 0.0
O430 O 0.77369 0.42203 0.46738 0.0
C431 C 0.78691 0.39966 0.43721 0.0
N432 N 0.76725 0.39945 0.43598 0.0
C433 C 0.76492 0.38458 0.40629 0.0
C434 C 0.78515 0.38467 0.4072 0.0
C435 C 0.79618 0.39218 0.42276 0.0
C436 C 0.75649 0.39218 0.42112 0.0
H437 H 0.79544 0.40549 0.44911 0.0
C438 C 0.781 0.42186 0.48424 0.0
O439 O 0.75387 0.38033 0.52355 0.0
O440 O 0.7707 0.36831 0.50266 0.0
N441 N 0.72968 0.39856 0.4369 0.0
C442 C 0.71021 0.39839 0.43882 0.0
C443 C 0.69708 0.39109 0.42461 0.0
C444 C 0.70412 0.38415 0.40857 0.0
C445 C 0.7242 0.38417 0.40704 0.0
C446 C 0.73659 0.39175 0.42159 0.0
H447 H 0.70473 0.40395 0.45101 0.0
O448 O 0.73181 0.36485 0.48812 0.0
O449 O 0.74984 0.38552 0.46892 0.0
O450 O 0.73099 0.40485 0.49613 0.0
O451 O 0.73322 0.42132 0.46802 0.0
C452 C 0.73242 0.377 0.39167 0.0
C453 C 0.75274 0.37705 0.39137 0.0
H454 H 0.79235 0.37891 0.39609 0.0
H455 H 0.81179 0.39225 0.42359 0.0
H456 H 0.68158 0.39103 0.4259 0.0
H457 H 0.69397 0.37898 0.3975 0.0
H458 H 0.72325 0.37133 0.38005 0.0
H459 H 0.75885 0.3712 0.37962 0.0
Mn460 Mn 0.6491 0.99657 0.77055 0.0
Mn461 Mn 0.63489 0.04095 0.76898 0.0
C462 C 0.6675 0.02326 0.75512 0.0
C463 C 0.66674 0.97269 0.78427 0.0
C464 C 0.61612 0.00911 0.74433 0.0
O465 O 0.62997 0.99375 0.79222 0.0
O466 O 0.6218 0.024 0.78971 0.0
C467 C 0.65324 0.0537 0.80524 0.0
N468 N 0.65085 0.05672 0.78623 0.0
C469 C 0.67233 0.08724 0.7862 0.0
C470 C 0.67493 0.08451 0.8058 0.0
C471 C 0.66547 0.06759 0.81533 0.0
C472 C 0.66017 0.07277 0.77687 0.0
H473 H 0.6459 0.04076 0.81264 0.0
C474 C 0.6206 0.00678 0.79754 0.0
O475 O 0.65171 0.96832 0.77307 0.0
O476 O 0.67094 0.99075 0.78822 0.0
N477 N 0.64648 0.05895 0.74964 0.0
C478 C 0.6433 0.05884 0.73061 0.0
C479 C 0.65221 0.07446 0.71893 0.0
C480 C 0.66405 0.09014 0.72696 0.0
C481 C 0.6669 0.09002 0.74659 0.0
C482 C 0.65772 0.07403 0.75751 0.0
H483 H 0.63408 0.04691 0.72437 0.0
O484 O 0.66875 0.00577 0.75066 0.0
O485 O 0.6554 0.02459 0.76822 0.0
O486 O 0.62652 0.99631 0.75066 0.0
O487 O 0.61802 0.0261 0.75041 0.0
C488 C 0.67858 0.1051 0.75576 0.0
C489 C 0.68146 0.10364 0.77552 0.0
H490 H 0.68429 0.09522 0.81365 0.0
H491 H 0.66758 0.06529 0.83042 0.0
H492 H 0.64991 0.07444 0.70379 0.0
H493 H 0.67093 0.10215 0.71791 0.0
H494 H 0.68565 0.11775 0.74768 0.0
H495 H 0.69084 0.11515 0.78235 0.0
Mn496 Mn 0.01648 0.269 0.88585 0.0
Mn497 Mn 0.96958 0.26123 0.89909 0.0
C498 C 0.9922 0.25245 0.86708 0.0
C499 C 0.04316 0.28577 0.86955 0.0
C500 C 1.00017 0.23814 0.91642 0.0
O501 O 0.01643 0.28947 0.9053 0.0
O502 O 0.9847 0.28285 0.91275 0.0
C503 C 0.95793 0.29836 0.88334 0.0
N504 N 0.95522 0.27857 0.88436 0.0
C505 C 0.9279 0.27751 0.86229 0.0
C506 C 0.93034 0.29787 0.86109 0.0
C507 C 0.94544 0.30834 0.87164 0.0
C508 C 0.94074 0.26836 0.87426 0.0
H509 H 0.96956 0.30648 0.89136 0.0
C510 C 1.00182 0.29268 0.91444 0.0
O511 O 0.04531 0.27379 0.88398 0.0
O512 O 0.02554 0.28923 0.86545 0.0
N513 N 0.95334 0.24093 0.88665 0.0
C514 C 0.95354 0.22139 0.88869 0.0
C515 C 0.93956 0.20885 0.87881 0.0
C516 C 0.92548 0.2165 0.86703 0.0
C517 C 0.9255 0.23664 0.86522 0.0
C518 C 0.93966 0.24841 0.87557 0.0
H519 H 0.96434 0.21541 0.89771 0.0
O520 O 0.01017 0.24965 0.86606 0.0
O521 O 0.98891 0.26445 0.8793 0.0
O522 O 0.01413 0.24716 0.90672 0.0
O523 O 0.98284 0.24222 0.91477 0.0
C524 C 0.91222 0.24552 0.85332 0.0
C525 C 0.91345 0.26594 0.85183 0.0
H526 H 0.9208 0.30563 0.852 0.0
H527 H 0.94747 0.32406 0.87072 0.0
H528 H 0.93967 0.19332 0.88024 0.0
H529 H 0.91479 0.20678 0.85936 0.0
H530 H 0.90118 0.2368 0.84507 0.0
H531 H 0.90333 0.27262 0.84244 0.0
Mn532 Mn 0.5131 0.77031 0.38539 0.0
Mn533 Mn 0.4693 0.76519 0.40556 0.0
C534 C 0.48499 0.75584 0.3697 0.0
C535 C 0.53842 0.78589 0.36644 0.0
C536 C 0.49967 0.73949 0.41701 0.0
O537 O 0.51796 0.79035 0.40577 0.0
O538 O 0.48781 0.78551 0.41751 0.0
C539 C 0.45813 0.80367 0.39394 0.0
N540 N 0.45431 0.78391 0.39418 0.0
C541 C 0.42238 0.78498 0.38017 0.0
C542 C 0.42591 0.80533 0.37979 0.0
C543 C 0.44396 0.81472 0.38653 0.0
C544 C 0.43725 0.77476 0.3872 0.0
H545 H 0.4718 0.81092 0.39954 0.0
C546 C 0.5054 0.79426 0.41713 0.0
O547 O 0.54118 0.77299 0.37986 0.0
O548 O 0.52104 0.79077 0.36467 0.0
N549 N 0.44988 0.74612 0.3951 0.0
C550 C 0.44887 0.72642 0.39627 0.0
C551 C 0.43207 0.71488 0.38936 0.0
C552 C 0.41629 0.7237 0.38186 0.0
C553 C 0.41757 0.74399 0.38113 0.0
C554 C 0.43489 0.75475 0.3877 0.0
H555 H 0.4608 0.71956 0.4024 0.0
O556 O 0.50203 0.75202 0.36572 0.0
O557 O 0.48484 0.76784 0.38282 0.0
O558 O 0.5122 0.74762 0.40531 0.0
O559 O 0.48312 0.74496 0.41847 0.0
C560 C 0.40215 0.75393 0.37465 0.0
C561 C 0.40453 0.77441 0.37427 0.0
H562 H 0.41487 0.81388 0.3744 0.0
H563 H 0.44681 0.83043 0.38631 0.0
H564 H 0.43117 0.69923 0.39007 0.0
H565 H 0.40322 0.71475 0.37683 0.0
H566 H 0.38831 0.74593 0.37018 0.0
H567 H 0.39247 0.78194 0.36972 0.0
Mn568 Mn 0.01597 0.75463 0.64189 0.0
Mn569 Mn 0.99378 0.71073 0.65893 0.0
C570 C 0.01684 0.72725 0.62538 0.0
C571 C 0.016 0.78419 0.62426 0.0
C572 C 0.0327 0.73014 0.67437 0.0
O573 O 0.99776 0.76174 0.6613 0.0
O574 O 0.98298 0.73178 0.67073 0.0
C575 C 0.95422 0.71284 0.64247 0.0
N576 N 0.97016 0.70359 0.64464 0.0
C577 C 0.95531 0.67828 0.62505 0.0
C578 C 0.93867 0.68747 0.62271 0.0
C579 C 0.93815 0.70485 0.63142 0.0
C580 C 0.97085 0.6869 0.63626 0.0
H581 H 0.95378 0.72623 0.64909 0.0
C582 C 0.98531 0.75035 0.67118 0.0
O583 O 0.02863 0.78208 0.63791 0.0
O584 O 1.00288 0.76928 0.6212 0.0
N585 N 1.00256 0.689 0.64873 0.0
C586 C 0.01999 0.68238 0.65179 0.0
C587 C 0.02298 0.66521 0.64389 0.0
C588 C 0.00799 0.65496 0.63304 0.0
C589 C 0.99015 0.662 0.63018 0.0
C590 C 0.98794 0.67906 0.63859 0.0
H591 H 0.03156 0.69016 0.66012 0.0
O592 O 0.02981 0.74258 0.62269 0.0
O593 O 0.00365 0.72842 0.63757 0.0
O594 O 0.03392 0.74522 0.66302 0.0
O595 O 0.0182 0.71647 0.67423 0.0
C596 C 0.97458 0.6529 0.61908 0.0
C597 C 0.9572 0.66107 0.61647 0.0
H598 H 0.92628 0.6814 0.61414 0.0
H599 H 0.9254 0.71207 0.6296 0.0
H600 H 0.0368 0.65989 0.64613 0.0
H601 H 0.01037 0.64175 0.62695 0.0
H602 H 0.97592 0.63976 0.61229 0.0
H603 H 0.94542 0.65409 0.60771 0.0
Mn604 Mn 0.51538 0.2551 0.1409 0.0
Mn605 Mn 0.49411 0.21078 0.15769 0.0
C606 C 0.51726 0.22803 0.12428 0.0
C607 C 0.51418 0.28461 0.12351 0.0
C608 C 0.5322 0.23159 0.17379 0.0
O609 O 0.49678 0.26132 0.16048 0.0
O610 O 0.48137 0.23117 0.16836 0.0
C611 C 0.45491 0.2103 0.13952 0.0
N612 N 0.47146 0.20212 0.14261 0.0
C613 C 0.45893 0.17578 0.12326 0.0
C614 C 0.4417 0.18386 0.11998 0.0
C615 C 0.43971 0.20122 0.12811 0.0
C616 C 0.47356 0.18545 0.13481 0.0
H617 H 0.45336 0.22368 0.14569 0.0
C618 C 0.48363 0.24968 0.1693 0.0
O619 O 0.52689 0.28295 0.13719 0.0
O620 O 0.50174 0.26924 0.12025 0.0
N621 N 0.50487 0.18971 0.14837 0.0
C622 C 0.52281 0.1844 0.15207 0.0
C623 C 0.52733 0.16755 0.14463 0.0
C624 C 0.51334 0.15628 0.13358 0.0
C625 C 0.49494 0.16197 0.13003 0.0
C626 C 0.4912 0.1788 0.13798 0.0
H627 H 0.53363 0.19297 0.1606 0.0
O628 O 0.52971 0.24376 0.12155 0.0
O629 O 0.50398 0.2287 0.1365 0.0
O630 O 0.53377 0.24612 0.16177 0.0
O631 O 0.51757 0.21804 0.17406 0.0
C632 C 0.4803 0.1518 0.11865 0.0
C633 C 0.46232 0.15873 0.11523 0.0
H634 H 0.42997 0.17696 0.11112 0.0
H635 H 0.42649 0.2076 0.12556 0.0
H636 H 0.54158 0.16327 0.1474 0.0
H637 H 0.51691 0.14333 0.12782 0.0
H638 H 0.48282 0.13881 0.11222 0.0
H639 H 0.45129 0.15096 0.10622 0.0
H640 H 0.22555 0.72506 0.86893 0.0
H641 H 0.23062 0.75045 0.89164 0.0
H642 H 0.21653 0.79254 0.84791 0.0
H643 H 0.21194 0.76751 0.82519 0.0
H644 H 0.24833 0.80635 0.86744 0.0
H645 H 0.18391 0.77365 0.88189 0.0
H646 H 0.15955 0.74538 0.89117 0.0
H647 H 0.19123 0.73707 0.9435 0.0
H648 H 0.21593 0.76516 0.93441 0.0
H649 H 0.2073 0.85881 0.94985 0.0
H650 H 0.20423 0.83643 0.92447 0.0
H651 H 0.26697 0.84191 0.9233 0.0
H652 H 0.26986 0.86548 0.94733 0.0
H653 H 0.2122 0.80307 0.92647 0.0
H654 H 0.28286 0.82786 0.89799 0.0
H655 H 0.30653 0.85183 0.88048 0.0
H656 H 0.25952 0.87418 0.8494 0.0
H657 H 0.23561 0.85098 0.86748 0.0
C658 C 0.22366 0.73976 0.86416 0.0
C659 C 0.21823 0.74422 0.84525 0.0
C660 C 0.22637 0.75422 0.8772 0.0
C661 C 0.22375 0.77339 0.87155 0.0
C662 C 0.21855 0.77786 0.85265 0.0
C663 C 0.21581 0.76348 0.83968 0.0
C664 C 0.22694 0.78911 0.88499 0.0
C665 C 0.24037 0.80567 0.88036 0.0
C666 C 0.21672 0.78821 0.90188 0.0
C667 C 0.20187 0.77137 0.90738 0.0
C668 C 0.18577 0.76569 0.89531 0.0
C669 C 0.17188 0.74972 0.90054 0.0
C670 C 0.17387 0.7394 0.91789 0.0
C671 C 0.18973 0.74506 0.93006 0.0
C672 C 0.20366 0.76101 0.92487 0.0
C673 C 0.22037 0.85571 0.94361 0.0
C674 C 0.23878 0.86411 0.95029 0.0
C675 C 0.21868 0.84282 0.92916 0.0
C676 C 0.23537 0.83741 0.92152 0.0
C677 C 0.25379 0.84621 0.92805 0.0
C678 C 0.25546 0.85959 0.94207 0.0
C679 C 0.23325 0.82096 0.90867 0.0
C680 C 0.22013 0.80398 0.91353 0.0
C681 C 0.24367 0.8215 0.89183 0.0
C682 C 0.25749 0.83832 0.88466 0.0
C683 C 0.27761 0.83846 0.88798 0.0
C684 C 0.29105 0.85177 0.87784 0.0
C685 C 0.28454 0.8645 0.86382 0.0
C686 C 0.26455 0.86432 0.8603 0.0
C687 C 0.25104 0.8514 0.87078 0.0
H688 H 0.29496 0.87457 0.85574 0.0
H689 H 0.16311 0.72704 0.92192 0.0
H690 H 1.00248 0.5484 0.40872 0.0
H691 H 0.02041 0.53388 0.38601 0.0
H692 H 0.06641 0.52835 0.42781 0.0
H693 H 0.0486 0.54347 0.4505 0.0
H694 H 0.08175 0.5423 0.39602 0.0
H695 H 0.03457 0.48783 0.41275 0.0
H696 H 1.00193 0.46961 0.41901 0.0
H697 H 0.98382 0.48123 0.36143 0.0
H698 H 0.01627 0.49978 0.35488 0.0
H699 H 0.12859 0.49328 0.32974 0.0
H700 H 0.11042 0.49554 0.35834 0.0
H701 H 0.0647 0.51733 0.3242 0.0
H702 H 0.08299 0.51559 0.29583 0.0
H703 H 0.05107 0.49032 0.35544 0.0
H704 H 0.09717 0.5489 0.34113 0.0
H705 H 0.13003 0.56676 0.33516 0.0
H706 H 0.15046 0.54578 0.38942 0.0
H707 H 0.11773 0.52756 0.3956 0.0
C708 C 0.01626 0.54378 0.41318 0.0
C709 C 0.02394 0.54668 0.43153 0.0
C710 C 0.0265 0.5354 0.40019 0.0
C711 C 0.04466 0.5296 0.40523 0.0
C712 C 0.05238 0.53251 0.42358 0.0
C713 C 0.04215 0.54102 0.43658 0.0
C714 C 0.05595 0.52164 0.39092 0.0
C715 C 0.07514 0.5306 0.38749 0.0
C716 C 0.04739 0.50652 0.37952 0.0
C717 C 0.02784 0.49532 0.38336 0.0
C718 C 0.02359 0.48663 0.40145 0.0
C719 C 0.00512 0.47622 0.40505 0.0
C720 C 0.9908 0.4743 0.39064 0.0
C721 C 0.99493 0.48274 0.37258 0.0
C722 C 0.01337 0.49318 0.36891 0.0
C723 C 0.11439 0.49796 0.32837 0.0
C724 C 0.1071 0.50415 0.31062 0.0
C725 C 0.10409 0.49938 0.34468 0.0
C726 C 0.08624 0.50669 0.34339 0.0
C727 C 0.07839 0.51158 0.32553 0.0
C728 C 0.08883 0.51057 0.30934 0.0
C729 C 0.07658 0.51118 0.36051 0.0
C730 C 0.05772 0.50167 0.36434 0.0
C731 C 0.08547 0.52567 0.37239 0.0
C732 C 0.1051 0.53667 0.36872 0.0
C733 C 0.10872 0.54794 0.35171 0.0
C734 C 0.12731 0.55816 0.3483 0.0
C735 C 0.14235 0.55735 0.36187 0.0
C736 C 0.13881 0.54636 0.3789 0.0
C737 C 0.12024 0.53609 0.38237 0.0
H738 H 0.15672 0.56529 0.35924 0.0
H739 H 0.97651 0.46623 0.39345 0.0
H740 H 0.84664 0.79658 0.86004 0.0
H741 H 0.84593 0.77397 0.88795 0.0
H742 H 0.78339 0.7699 0.88859 0.0
H743 H 0.78379 0.79184 0.86029 0.0
H744 H 0.802 0.77543 0.92433 0.0
H745 H 0.80266 0.73455 0.87176 0.0
H746 H 0.8165 0.72459 0.84324 0.0
H747 H 0.86929 0.71666 0.87447 0.0
H748 H 0.85584 0.72685 0.90314 0.0
H749 H 0.76041 0.69157 0.97261 0.0
H750 H 0.77241 0.71737 0.94976 0.0
H751 H 0.83104 0.70488 0.95996 0.0
H752 H 0.81893 0.67827 0.98315 0.0
H753 H 0.82183 0.71024 0.92185 0.0
H754 H 0.8194 0.74561 0.9757 0.0
H755 H 0.80574 0.75505 0.00454 0.0
H756 H 0.75786 0.77395 0.97195 0.0
H757 H 0.77102 0.76432 0.94294 0.0
C758 C 0.83267 0.79072 0.86592 0.0
C759 C 0.81525 0.79609 0.85774 0.0
C760 C 0.83234 0.77788 0.882 0.0
C761 C 0.81461 0.77022 0.89035 0.0
C762 C 0.79726 0.77574 0.88245 0.0
C763 C 0.79754 0.7884 0.86628 0.0
C764 C 0.81395 0.7562 0.90715 0.0
C765 C 0.80628 0.76116 0.92379 0.0
C766 C 0.82031 0.73789 0.90671 0.0
C767 C 0.82835 0.7317 0.88952 0.0
C768 C 0.81729 0.73086 0.8725 0.0
C769 C 0.82505 0.72513 0.85632 0.0
C770 C 0.84379 0.72006 0.85703 0.0
C771 C 0.85479 0.72064 0.87394 0.0
C772 C 0.8471 0.72638 0.89015 0.0
C773 C 0.77592 0.69417 0.9702 0.0
C774 C 0.78869 0.68269 0.97984 0.0
C775 C 0.78278 0.70914 0.95711 0.0
C776 C 0.80267 0.71333 0.9533 0.0
C777 C 0.81563 0.70198 0.96279 0.0
C778 C 0.80871 0.68685 0.97608 0.0
C779 C 0.80925 0.72922 0.93886 0.0
C780 C 0.81799 0.72467 0.92262 0.0
C781 C 0.80407 0.74802 0.93973 0.0
C782 C 0.79619 0.75416 0.95711 0.0
C783 C 0.8059 0.75168 0.97468 0.0
C784 C 0.79824 0.75707 0.99107 0.0
C785 C 0.78094 0.76508 0.99008 0.0
C786 C 0.77127 0.76776 0.97269 0.0
C787 C 0.77884 0.76236 0.95626 0.0
H788 H 0.77503 0.76923 0.00279 0.0
H789 H 0.84977 0.71563 0.84449 0.0
H790 H 0.03713 0.99079 0.42023 0.0
H791 H 0.01904 0.99671 0.39065 0.0
H792 H 0.97182 0.01126 0.42187 0.0
H793 H 0.98958 0.00464 0.45146 0.0
H794 H 0.95725 0.98969 0.39505 0.0
H795 H 0.00539 0.04639 0.39779 0.0
H796 H 0.03845 0.06491 0.40085 0.0
H797 H 0.05524 0.04056 0.3513 0.0
H798 H 0.02235 0.02168 0.34809 0.0
H799 H 0.90891 0.03023 0.31489 0.0
H800 H 0.92902 0.03087 0.3442 0.0
H801 H 0.97037 1.00164 0.31809 0.0
H802 H 0.95016 1.00051 0.28905 0.0
H803 H 0.98745 0.03278 0.34238 0.0
H804 H 0.94033 0.97395 0.34201 0.0
H805 H 0.9072 0.95573 0.33872 0.0
H806 H 0.88843 0.98549 0.38394 0.0
H807 H 0.92151 0.00401 0.38738 0.0
C808 C 0.02276 0.99496 0.42078 0.0
C809 C 0.01452 0.99673 0.4382 0.0
C810 C 0.01252 0.9986 0.40384 0.0
C811 C 0.99409 0.00464 0.40394 0.0
C812 C 0.98594 0.00654 0.42135 0.0
C813 C 0.99608 0.00272 0.43826 0.0
C814 C 0.98312 0.00871 0.38598 0.0
C815 C 0.96382 0.9994 0.38371 0.0
C816 C 0.99166 0.02112 0.37094 0.0
C817 C 0.01145 0.03248 0.3728 0.0
C818 C 0.01618 0.04487 0.38763 0.0
C819 C 0.03488 0.05545 0.38937 0.0
C820 C 0.04895 0.05387 0.3763 0.0
C821 C 0.04433 0.04175 0.36143 0.0
C822 C 0.02566 0.03112 0.35963 0.0
C823 C 0.92255 0.02442 0.31528 0.0
C824 C 0.928 0.01531 0.29974 0.0
C825 C 0.93396 0.0247 0.33202 0.0
C826 C 0.95113 0.01622 0.33331 0.0
C827 C 0.95722 0.0083 0.31738 0.0
C828 C 0.94564 0.00764 0.30083 0.0
C829 C 0.96177 0.01381 0.35165 0.0
C830 C 0.98094 0.02331 0.3539 0.0
C831 C 0.95313 1.00169 0.36673 0.0
C832 C 0.9333 0.99051 0.3648 0.0
C833 C 0.92909 0.97672 0.35114 0.0
C834 C 0.91033 0.96632 0.34926 0.0
C835 C 0.89567 0.96952 0.36104 0.0
C836 C 0.89978 0.98307 0.37479 0.0
C837 C 0.91854 0.9935 0.37673 0.0
H838 H 0.88115 0.96145 0.35958 0.0
H839 H 0.06343 0.06208 0.37768 0.0
H840 H 0.21578 0.24916 0.68478 0.0
H841 H 0.22997 0.2296 0.66306 0.0
H842 H 0.21656 0.26871 0.61636 0.0
H843 H 0.20245 0.2882 0.63795 0.0
H844 H 0.20424 0.23075 0.60952 0.0
H845 H 0.2632 0.26902 0.63317 0.0
H846 H 0.28665 0.28146 0.65804 0.0
H847 H 0.29519 0.22319 0.67588 0.0
H848 H 0.27158 0.21038 0.65126 0.0
H849 H 0.25176 0.20202 0.53466 0.0
H850 H 0.24322 0.22108 0.55965 0.0
H851 H 0.26373 0.18052 0.60152 0.0
H852 H 0.27296 0.16158 0.57638 0.0
H853 H 0.27231 0.2167 0.61289 0.0
H854 H 0.215 0.17785 0.59006 0.0
H855 H 0.19146 0.16392 0.56596 0.0
H856 H 0.17877 0.22089 0.54823 0.0
H857 H 0.20246 0.23522 0.57208 0.0
C858 C 0.21623 0.25374 0.66992 0.0
C859 C 0.20838 0.27043 0.66311 0.0
C860 C 0.2243 0.24256 0.65753 0.0
C861 C 0.22448 0.24776 0.63807 0.0
C862 C 0.21666 0.26443 0.6313 0.0
C863 C 0.2087 0.27563 0.64366 0.0
C864 C 0.23194 0.23546 0.62454 0.0
C865 C 0.21919 0.22788 0.61014 0.0
C866 C 0.25122 0.23102 0.62577 0.0
C867 C 0.26547 0.23873 0.6405 0.0
C868 C 0.26996 0.25885 0.64249 0.0
C869 C 0.2833 0.26597 0.65653 0.0
C870 C 0.29237 0.25312 0.66857 0.0
C871 C 0.28814 0.23313 0.66657 0.0
C872 C 0.27479 0.22593 0.65257 0.0
C873 C 0.25466 0.19721 0.54917 0.0
C874 C 0.26286 0.18014 0.55351 0.0
C875 C 0.24969 0.20812 0.56348 0.0
C876 C 0.25234 0.202 0.58252 0.0
C877 C 0.26141 0.18548 0.58694 0.0
C878 C 0.26668 0.17467 0.57256 0.0
C879 C 0.24473 0.21243 0.59758 0.0
C880 C 0.25735 0.21953 0.6123 0.0
C881 C 0.2252 0.21619 0.59688 0.0
C882 C 0.21062 0.20762 0.58277 0.0
C883 C 0.20726 0.18743 0.58096 0.0
C884 C 0.19389 0.17945 0.56734 0.0
C885 C 0.18366 0.19151 0.55552 0.0
C886 C 0.18672 0.21157 0.55738 0.0
C887 C 0.2001 0.21962 0.57097 0.0
H888 H 0.17334 0.18531 0.54496 0.0
H889 H 0.30269 0.25867 0.67943 0.0
H890 H 0.49461 0.55622 0.56789 0.0
H891 H 0.47549 0.55009 0.5963 0.0
H892 H 0.52356 0.52841 0.62659 0.0
H893 H 0.54334 0.53551 0.59857 0.0
H894 H 0.48341 0.50474 0.6305 0.0
H895 H 0.51894 0.56995 0.63552 0.0
H896 H 0.52943 0.60374 0.62339 0.0
H897 H 0.4697 0.61318 0.61767 0.0
H898 H 0.45884 0.57932 0.6295 0.0
H899 H 0.44939 0.49847 0.7225 0.0
H900 H 0.46987 0.50597 0.69509 0.0
H901 H 0.43175 0.54552 0.67155 0.0
H902 H 0.41172 0.53874 0.69946 0.0
H903 H 0.46667 0.56018 0.66342 0.0
H904 H 0.42972 0.49763 0.65743 0.0
H905 H 0.41636 0.46383 0.66735 0.0
H906 H 0.47418 0.44876 0.6716 0.0
H907 H 0.48792 0.48258 0.66202 0.0
C908 C 0.50133 0.5504 0.58061 0.0
C909 C 0.52073 0.54662 0.58085 0.0
C910 C 0.49024 0.54674 0.5968 0.0
C911 C 0.49814 0.53889 0.61354 0.0
C912 C 0.51719 0.53443 0.61376 0.0
C913 C 0.52844 0.5384 0.59765 0.0
C914 C 0.48666 0.53585 0.63094 0.0
C915 C 0.47996 0.51681 0.6379 0.0
C916 C 0.48154 0.55164 0.64009 0.0
C917 C 0.48808 0.57205 0.63322 0.0
C918 C 0.50803 0.57918 0.63153 0.0
C919 C 0.51405 0.59836 0.62474 0.0
C920 C 0.50024 0.61059 0.61972 0.0
C921 C 0.48038 0.60368 0.62154 0.0
C922 C 0.47429 0.58451 0.6283 0.0
C923 C 0.44548 0.50893 0.71158 0.0
C924 C 0.42887 0.51793 0.71312 0.0
C925 C 0.45713 0.51311 0.69581 0.0
C926 C 0.45212 0.52593 0.68091 0.0
C927 C 0.43592 0.5355 0.68275 0.0
C928 C 0.42447 0.53162 0.69874 0.0
C929 C 0.46347 0.52895 0.66329 0.0
C930 C 0.4701 0.548 0.65616 0.0
C931 C 0.46808 0.51314 0.65368 0.0
C932 C 0.45987 0.4927 0.65918 0.0
C933 C 0.4396 0.48714 0.66059 0.0
C934 C 0.43195 0.46798 0.66615 0.0
C935 C 0.44441 0.45417 0.67015 0.0
C936 C 0.46455 0.45948 0.66853 0.0
C937 C 0.47227 0.47865 0.66302 0.0
H938 H 0.43847 0.43934 0.67446 0.0
H939 H 0.50492 0.62543 0.61446 0.0
H940 H 0.84093 0.27286 0.66215 0.0
H941 H 0.83606 0.29259 0.63286 0.0
H942 H 0.77639 0.26438 0.62858 0.0
H943 H 0.7814 0.24444 0.6576 0.0
H944 H 0.79146 0.27021 0.59449 0.0
H945 H 0.78807 0.30871 0.64758 0.0
H946 H 0.80009 0.32395 0.67693 0.0
H947 H 0.84933 0.35578 0.64816 0.0
H948 H 0.83772 0.34052 0.61868 0.0
H949 H 0.75834 0.36735 0.55744 0.0
H950 H 0.76929 0.34591 0.58282 0.0
H951 H 0.80314 0.32142 0.54366 0.0
H952 H 0.79183 0.34271 0.51794 0.0
H953 H 0.80318 0.34177 0.59855 0.0
H954 H 0.80379 0.2732 0.55795 0.0
H955 H 0.78804 0.25787 0.52987 0.0
H956 H 0.738 0.28616 0.53568 0.0
H957 H 0.75335 0.30144 0.56392 0.0
C958 C 0.82687 0.2708 0.65479 0.0
C959 C 0.81144 0.25744 0.66225 0.0
C960 C 0.82406 0.28207 0.63812 0.0
C961 C 0.80575 0.28022 0.62866 0.0
C962 C 0.79063 0.26613 0.63563 0.0
C963 C 0.79346 0.25482 0.65225 0.0
C964 C 0.80192 0.29366 0.6122 0.0
C965 C 0.79418 0.28586 0.59533 0.0
C966 C 0.80517 0.3141 0.61331 0.0
C967 C 0.81215 0.32331 0.63099 0.0
C968 C 0.80154 0.31885 0.64755 0.0
C969 C 0.80826 0.3275 0.66421 0.0
C970 C 0.82549 0.34078 0.66443 0.0
C971 C 0.83601 0.34546 0.64798 0.0
C972 C 0.82936 0.33682 0.63129 0.0
C973 C 0.76819 0.35748 0.55418 0.0
C974 C 0.77414 0.35669 0.53562 0.0
C975 C 0.7745 0.34525 0.56876 0.0
C976 C 0.78692 0.3319 0.56518 0.0
C977 C 0.79334 0.3314 0.54674 0.0
C978 C 0.78694 0.34364 0.53207 0.0
C979 C 0.79266 0.31835 0.58082 0.0
C980 C 0.80077 0.32613 0.59756 0.0
C981 C 0.78929 0.2979 0.57973 0.0
C982 C 0.77983 0.28864 0.56289 0.0
C983 C 0.78941 0.2761 0.55325 0.0
C984 C 0.78055 0.26743 0.53731 0.0
C985 C 0.76207 0.2711 0.53095 0.0
C986 C 0.75235 0.28339 0.54057 0.0
C987 C 0.76113 0.29208 0.55653 0.0
H988 H 0.75524 0.26438 0.5186 0.0
H989 H 0.83067 0.34747 0.67733 0.0
H990 H 0.50585 0.95673 0.59821 0.0
H991 H 0.52678 0.95917 0.62657 0.0
H992 H 0.52483 0.02075 0.62526 0.0
H993 H 0.5049 0.01866 0.5962 0.0
H994 H 0.56014 0.01505 0.63337 0.0
H995 H 0.498 0.98598 0.657 0.0
H996 H 0.46812 0.96189 0.6592 0.0
H997 H 0.50257 0.91651 0.67369 0.0
H998 H 0.53268 0.94031 0.67133 0.0
H999 H 0.59308 0.03346 0.726 0.0
H1000 H 0.57166 0.0276 0.69841 0.0
H1001 H 0.58511 0.96929 0.69834 0.0
H1002 H 0.60677 0.97498 0.72621 0.0
H1003 H 0.54501 0.97187 0.69095 0.0
H1004 H 0.60728 0.00245 0.6685 0.0
H1005 H 0.63634 0.02765 0.66798 0.0
H1006 H 0.60036 0.07147 0.65232 0.0
H1007 H 0.57103 0.04656 0.65306 0.0
C1008 C 0.51001 0.97087 0.60377 0.0
C1009 C 0.50358 0.9875 0.59476 0.0
C1010 C 0.52182 0.97219 0.62023 0.0
C1011 C 0.52723 0.9901 0.62834 0.0
C1012 C 0.52085 0.00672 0.61939 0.0
C1013 C 0.50922 0.00546 0.60282 0.0
C1014 C 0.53984 0.99165 0.6459 0.0
C1015 C 0.55663 0.00573 0.64599 0.0
C1016 C 0.53567 0.97923 0.66236 0.0
C1017 C 0.5176 0.9649 0.66379 0.0
C1018 C 0.49921 0.97084 0.66051 0.0
C1019 C 0.48223 0.95724 0.66181 0.0
C1020 C 0.48345 0.93767 0.66653 0.0
C1021 C 0.50165 0.93167 0.67 0.0
C1022 C 0.51867 0.94521 0.6687 0.0
C1023 C 0.59146 0.01928 0.72031 0.0
C1024 C 0.60185 0.00473 0.72838 0.0
C1025 C 0.57919 0.016 0.70443 0.0
C1026 C 0.57696 0.99811 0.69613 0.0
C1027 C 0.58667 0.98325 0.70448 0.0
C1028 C 0.59908 0.98654 0.7204 0.0
C1029 C 0.56503 0.99536 0.67836 0.0
C1030 C 0.54846 0.98108 0.67824 0.0
C1031 C 0.56927 0.00771 0.66192 0.0
C1032 C 0.58694 0.02265 0.66098 0.0
C1033 C 0.60555 0.01747 0.66505 0.0
C1034 C 0.62207 0.03171 0.66471 0.0
C1035 C 0.62019 0.05116 0.66016 0.0
C1036 C 0.60179 0.0564 0.65586 0.0
C1037 C 0.58522 0.04223 0.65621 0.0
H1038 H 0.63299 0.06216 0.65994 0.0
H1039 H 0.47029 0.92717 0.66753 0.0
H1040 H 0.86643 0.18277 0.73999 0.0
H1041 H 0.89235 0.18933 0.76404 0.0
H1042 H 0.88495 0.24976 0.76059 0.0
H1043 H 0.85885 0.24329 0.73672 0.0
H1044 H 0.92305 0.24581 0.7613 0.0
H1045 H 0.86698 0.21938 0.79704 0.0
H1046 H 0.83857 0.1953 0.80616 0.0
H1047 H 0.87602 0.15226 0.81943 0.0
H1048 H 0.90464 0.17602 0.81011 0.0
H1049 H 0.97162 0.27618 0.84574 0.0
H1050 H 0.94778 0.26765 0.8203 0.0
H1051 H 0.95815 0.20807 0.82723 0.0
H1052 H 0.98191 0.21666 0.85309 0.0
H1053 H 0.91953 0.21022 0.82421 0.0
H1054 H 0.97595 0.23769 0.78969 0.0
H1055 H 0.0041 0.2624 0.78126 0.0
H1056 H 0.96567 0.30419 0.76634 0.0
H1057 H 0.9373 0.2798 0.77494 0.0
C1058 C 0.87019 0.19744 0.74444 0.0
C1059 C 0.86047 0.21248 0.73642 0.0
C1060 C 0.88506 0.20117 0.75818 0.0
C1061 C 0.89048 0.22001 0.76427 0.0
C1062 C 0.88105 0.23512 0.75609 0.0
C1063 C 0.86616 0.2314 0.74237 0.0
C1064 C 0.906 0.224 0.77915 0.0
C1065 C 0.92217 0.23817 0.77512 0.0
C1066 C 0.9051 0.21373 0.79706 0.0
C1067 C 0.88792 0.19941 0.80265 0.0
C1068 C 0.86914 0.20473 0.80173 0.0
C1069 C 0.853 0.19115 0.80697 0.0
C1070 C 0.85548 0.17224 0.81331 0.0
C1071 C 0.87412 0.1669 0.81447 0.0
C1072 C 0.8903 0.18041 0.80922 0.0
C1073 C 0.96869 0.26124 0.84189 0.0
C1074 C 0.97807 0.24693 0.85166 0.0
C1075 C 0.95525 0.25641 0.82721 0.0
C1076 C 0.95122 0.23722 0.82175 0.0
C1077 C 0.96098 0.22295 0.83124 0.0
C1078 C 0.97453 0.22784 0.84594 0.0
C1079 C 0.93651 0.23212 0.80642 0.0
C1080 C 0.92047 0.21777 0.81035 0.0
C1081 C 0.93749 0.24229 0.78846 0.0
C1082 C 0.95451 0.25694 0.78309 0.0
C1083 C 0.97351 0.25218 0.78473 0.0
C1084 C 0.98951 0.26613 0.7799 0.0
C1085 C 0.98668 0.28486 0.7733 0.0
C1086 C 0.96784 0.28967 0.77146 0.0
C1087 C 0.95179 0.27579 0.77629 0.0
H1088 H 0.99908 0.29564 0.76958 0.0
H1089 H 0.84297 0.16175 0.81737 0.0
H1090 H 0.47395 0.92793 0.51653 0.0
H1091 H 0.48016 0.8994 0.50082 0.0
H1092 H 0.53679 0.92934 0.48518 0.0
H1093 H 0.53068 0.95788 0.50103 0.0
H1094 H 0.51658 0.91099 0.45547 0.0
H1095 H 0.53382 0.89424 0.51997 0.0
H1096 H 0.52859 0.88947 0.55416 0.0
H1097 H 0.47864 0.84649 0.5443 0.0
H1098 H 0.48341 0.85121 0.51002 0.0
H1099 H 0.53683 0.8242 0.4167 0.0
H1100 H 0.5412 0.85276 0.43576 0.0
H1101 H 0.4885 0.82972 0.46486 0.0
H1102 H 0.48458 0.80125 0.44678 0.0
H1103 H 0.51245 0.84577 0.4889 0.0
H1104 H 0.49109 0.86523 0.42567 0.0
H1105 H 0.49375 0.87007 0.39114 0.0
H1106 H 0.54824 0.90768 0.39806 0.0
H1107 H 0.546 0.90285 0.43266 0.0
C1108 C 0.48786 0.92832 0.51004 0.0
C1109 C 0.5021 0.94496 0.51054 0.0
C1110 C 0.49138 0.91202 0.50101 0.0
C1111 C 0.50908 0.91209 0.49203 0.0
C1112 C 0.5231 0.92885 0.49212 0.0
C1113 C 0.51965 0.9451 0.50128 0.0
C1114 C 0.51273 0.89479 0.48228 0.0
C1115 C 0.51602 0.89677 0.46283 0.0
C1116 C 0.5117 0.87617 0.49178 0.0
C1117 C 0.50891 0.87318 0.51241 0.0
C1118 C 0.52165 0.88387 0.52508 0.0
C1119 C 0.51877 0.88116 0.54448 0.0
C1120 C 0.50327 0.86771 0.55139 0.0
C1121 C 0.49064 0.85691 0.53892 0.0
C1122 C 0.49344 0.85958 0.51951 0.0
C1123 C 0.52643 0.82509 0.42743 0.0
C1124 C 0.51025 0.81044 0.42999 0.0
C1125 C 0.52882 0.84152 0.43821 0.0
C1126 C 0.51496 0.84368 0.45158 0.0
C1127 C 0.49942 0.82858 0.45469 0.0
C1128 C 0.49714 0.81224 0.44416 0.0
C1129 C 0.51572 0.86178 0.4619 0.0
C1130 C 0.51329 0.86 0.48151 0.0
C1131 C 0.51718 0.88052 0.45248 0.0
C1132 C 0.5185 0.88349 0.43172 0.0
C1133 C 0.5037 0.87442 0.41982 0.0
C1134 C 0.50512 0.87718 0.40024 0.0
C1135 C 0.52119 0.88913 0.39241 0.0
C1136 C 0.53583 0.89839 0.40415 0.0
C1137 C 0.53449 0.89565 0.42374 0.0
H1138 H 0.52227 0.89125 0.37725 0.0
H1139 H 0.50107 0.86564 0.56642 0.0
H1140 H 0.18164 0.28403 0.75608 0.0
H1141 H 0.1572 0.28112 0.78038 0.0
H1142 H 0.13532 0.33182 0.75473 0.0
H1143 H 0.16043 0.33525 0.73103 0.0
H1144 H 0.13597 0.33456 0.78993 0.0
H1145 H 0.11094 0.28281 0.75125 0.0
H1146 H 0.11126 0.2535 0.73385 0.0
H1147 H 0.12309 0.22115 0.78552 0.0
H1148 H 0.12311 0.25034 0.80321 0.0
H1149 H 0.04397 0.31164 0.8385 0.0
H1150 H 0.06914 0.31816 0.81464 0.0
H1151 H 0.10376 0.28054 0.847 0.0
H1152 H 0.07902 0.27428 0.871 0.0
H1153 H 0.09535 0.27168 0.80791 0.0
H1154 H 0.11978 0.32564 0.84586 0.0
H1155 H 0.11712 0.35539 0.86176 0.0
H1156 H 0.10289 0.384 0.80872 0.0
H1157 H 0.10519 0.35431 0.79253 0.0
C1158 C 0.17149 0.29443 0.75559 0.0
C1159 C 0.17285 0.30981 0.74165 0.0
C1160 C 0.15745 0.29274 0.76944 0.0
C1161 C 0.14408 0.30606 0.76931 0.0
C1162 C 0.1454 0.32135 0.75525 0.0
C1163 C 0.1597 0.32327 0.74165 0.0
C1164 C 0.12904 0.30431 0.78404 0.0
C1165 C 0.12691 0.32084 0.7936 0.0
C1166 C 0.11722 0.28642 0.78911 0.0
C1167 C 0.11721 0.26882 0.77853 0.0
C1168 C 0.11375 0.26948 0.75889 0.0
C1169 C 0.11385 0.25288 0.74897 0.0
C1170 C 0.11724 0.23549 0.75857 0.0
C1171 C 0.12049 0.23464 0.7781 0.0
C1172 C 0.12043 0.2512 0.78808 0.0
C1173 C 0.05714 0.30511 0.84074 0.0
C1174 C 0.05947 0.29245 0.85667 0.0
C1175 C 0.07148 0.3088 0.82707 0.0
C1176 C 0.08825 0.29972 0.82901 0.0
C1177 C 0.09089 0.28763 0.8452 0.0
C1178 C 0.07676 0.28418 0.85897 0.0
C1179 C 0.10252 0.30182 0.81372 0.0
C1180 C 0.10442 0.28537 0.80408 0.0
C1181 C 0.11378 0.31983 0.8083 0.0
C1182 C 0.11244 0.33768 0.81802 0.0
C1183 C 0.11589 0.33821 0.83761 0.0
C1184 C 0.1145 0.35508 0.84667 0.0
C1185 C 0.10978 0.37156 0.83626 0.0
C1186 C 0.10651 0.37122 0.81677 0.0
C1187 C 0.10787 0.35438 0.80764 0.0
H1188 H 0.10871 0.3846 0.8433 0.0
H1189 H 0.11731 0.22265 0.75087 0.0
H1190 H 0.53325 0.60873 0.54648 0.0
H1191 H 0.52629 0.6365 0.52593 0.0
H1192 H 0.53943 0.60784 0.47734 0.0
H1193 H 0.54534 0.5794 0.49761 0.0
H1194 H 0.55718 0.64997 0.48024 0.0
H1195 H 0.49565 0.60642 0.48247 0.0
H1196 H 0.46871 0.58584 0.49905 0.0
H1197 H 0.45633 0.63519 0.52671 0.0
H1198 H 0.48341 0.65601 0.5105 0.0
H1199 H 0.5225 0.71281 0.40885 0.0
H1200 H 0.53011 0.68479 0.42869 0.0
H1201 H 0.49608 0.70065 0.47305 0.0
H1202 H 0.48742 0.72799 0.45267 0.0
H1203 H 0.48939 0.66451 0.47276 0.0
H1204 H 0.54929 0.70846 0.47247 0.0
H1205 H 0.57718 0.73035 0.45876 0.0
H1206 H 0.59409 0.68293 0.43118 0.0
H1207 H 0.56615 0.66081 0.44454 0.0
C1208 C 0.53442 0.60809 0.53142 0.0
C1209 C 0.53966 0.59155 0.52379 0.0
C1210 C 0.53061 0.62412 0.51971 0.0
C1211 C 0.53227 0.62417 0.50014 0.0
C1212 C 0.53813 0.60808 0.49244 0.0
C1213 C 0.54161 0.59187 0.50411 0.0
C1214 C 0.52735 0.64083 0.4877 0.0
C1215 C 0.54235 0.65307 0.47835 0.0
C1216 C 0.5081 0.64519 0.48584 0.0
C1217 C 0.49168 0.63272 0.49542 0.0
C1218 C 0.4873 0.61285 0.49221 0.0
C1219 C 0.47198 0.60115 0.50152 0.0
C1220 C 0.46085 0.60919 0.51396 0.0
C1221 C 0.46498 0.62897 0.51708 0.0
C1222 C 0.4803 0.64073 0.50783 0.0
C1223 C 0.51668 0.71033 0.42286 0.0
C1224 C 0.50447 0.72267 0.42926 0.0
C1225 C 0.52116 0.69435 0.43429 0.0
C1226 C 0.51411 0.69073 0.45266 0.0
C1227 C 0.50178 0.70304 0.45899 0.0
C1228 C 0.49687 0.71873 0.44736 0.0
C1229 C 0.51926 0.67396 0.4651 0.0
C1230 C 0.50429 0.6616 0.47453 0.0
C1231 C 0.53866 0.66978 0.46739 0.0
C1232 C 0.55551 0.68302 0.45937 0.0
C1233 C 0.55888 0.70273 0.46338 0.0
C1234 C 0.57471 0.71517 0.45568 0.0
C1235 C 0.58737 0.70804 0.44407 0.0
C1236 C 0.58426 0.68844 0.44016 0.0
C1237 C 0.56844 0.67594 0.44781 0.0
H1238 H 0.59962 0.7177 0.43812 0.0
H1239 H 0.449 0.60011 0.52116 0.0
H1240 H 0.86185 0.8345 0.75822 0.0
H1241 H 0.88975 0.82774 0.74094 0.0
H1242 H 0.88176 0.76894 0.76572 0.0
H1243 H 0.85423 0.77586 0.78327 0.0
H1244 H 0.91939 0.78244 0.76422 0.0
H1245 H 0.8644 0.78078 0.72037 0.0
H1246 H 0.8373 0.79386 0.70292 0.0
H1247 H 0.87764 0.84075 0.67827 0.0
H1248 H 0.90496 0.82807 0.69577 0.0
H1249 H 0.96174 0.73124 0.69855 0.0
H1250 H 0.93982 0.74452 0.71831 0.0
H1251 H 0.95748 0.80175 0.69208 0.0
H1252 H 0.97961 0.78854 0.67209 0.0
H1253 H 0.91745 0.79259 0.69447 0.0
H1254 H 0.97296 0.79165 0.73616 0.0
H1255 H 0.99967 0.77749 0.75315 0.0
H1256 H 0.95804 0.73449 0.78155 0.0
H1257 H 0.93107 0.74822 0.76453 0.0
C1258 C 0.86623 0.82022 0.76006 0.0
C1259 C 0.85575 0.80562 0.77183 0.0
C1260 C 0.88208 0.81631 0.75013 0.0
C1261 C 0.88767 0.79769 0.7517 0.0
C1262 C 0.87771 0.78338 0.76415 0.0
C1263 C 0.86194 0.78731 0.77414 0.0
C1264 C 0.90341 0.79283 0.74 0.0
C1265 C 0.91887 0.78454 0.74896 0.0
C1266 C 0.90308 0.79598 0.72008 0.0
C1267 C 0.88669 0.80361 0.70954 0.0
C1268 C 0.86747 0.79396 0.71134 0.0
C1269 C 0.85207 0.80129 0.70142 0.0
C1270 C 0.85574 0.81816 0.68954 0.0
C1271 C 0.87482 0.82771 0.68751 0.0
C1272 C 0.89026 0.82045 0.69741 0.0
C1273 C 0.96111 0.74669 0.69697 0.0
C1274 C 0.97253 0.7588 0.68368 0.0
C1275 C 0.94859 0.75428 0.70839 0.0
C1276 C 0.94711 0.77417 0.70684 0.0
C1277 C 0.95843 0.78636 0.69358 0.0
C1278 C 0.97113 0.77878 0.68221 0.0
C1279 C 0.93324 0.78194 0.71869 0.0
C1280 C 0.91811 0.79074 0.70974 0.0
C1281 C 0.93381 0.77915 0.7386 0.0
C1282 C 0.94999 0.77088 0.74895 0.0
C1283 C 0.9695 0.77908 0.74592 0.0
C1284 C 0.98469 0.77115 0.75558 0.0
C1285 C 0.98055 0.75508 0.76839 0.0
C1286 C 0.96122 0.74693 0.77161 0.0
C1287 C 0.94597 0.7548 0.76198 0.0
H1288 H 0.99233 0.74896 0.77585 0.0
H1289 H 0.8438 0.8238 0.68187 0.0
H1290 H 0.01866 0.93882 0.50904 0.0
H1291 H 0.00932 0.90938 0.52919 0.0
H1292 H 0.06992 0.90296 0.53822 0.0
H1293 H 0.07927 0.93137 0.51697 0.0
H1294 H 0.05098 0.86952 0.53382 0.0
H1295 H 0.04123 0.92139 0.57177 0.0
H1296 H 0.02784 0.95058 0.57947 0.0
H1297 H 0.96966 0.91955 0.57481 0.0
H1298 H 0.98271 0.89023 0.56684 0.0
H1299 H 0.04717 0.81292 0.62107 0.0
H1300 H 0.05088 0.84161 0.59898 0.0
H1301 H 0.99206 0.82554 0.57762 0.0
H1302 H 0.98835 0.79636 0.59942 0.0
H1303 H 0.00707 0.86889 0.58725 0.0
H1304 H 0.01906 0.81608 0.55065 0.0
H1305 H 0.03448 0.78742 0.54523 0.0
H1306 H 0.09116 0.82164 0.54997 0.0
H1307 H 0.07605 0.85044 0.55572 0.0
C1308 C 0.03003 0.93103 0.51508 0.0
C1309 C 0.04978 0.9377 0.51138 0.0
C1310 C 0.02465 0.91429 0.52687 0.0
C1311 C 0.03891 0.90404 0.53557 0.0
C1312 C 0.0586 0.91058 0.53178 0.0
C1313 C 0.06395 0.92708 0.51978 0.0
C1314 C 0.03349 0.8864 0.54848 0.0
C1315 C 0.04148 0.86954 0.54556 0.0
C1316 C 0.02081 0.88611 0.56368 0.0
C1317 C 0.01294 0.90369 0.5685 0.0
C1318 C 0.02558 0.92084 0.57225 0.0
C1319 C 0.01805 0.9374 0.57669 0.0
C1320 C 0.99791 0.93694 0.57758 0.0
C1321 C 0.98526 0.9199 0.57408 0.0
C1322 C 0.99271 0.9033 0.56962 0.0
C1323 C 0.03493 0.81554 0.61182 0.0
C1324 C 0.01746 0.80235 0.61196 0.0
C1325 C 0.0371 0.83193 0.59919 0.0
C1326 C 0.02176 0.83563 0.58669 0.0
C1327 C 0.00404 0.82291 0.58721 0.0
C1328 C 1.00198 0.80625 0.59961 0.0
C1329 C 0.02474 0.85238 0.57258 0.0
C1330 C 0.01637 0.86899 0.57534 0.0
C1331 C 0.03732 0.8526 0.55743 0.0
C1332 C 0.04643 0.83536 0.55381 0.0
C1333 C 0.03481 0.81745 0.55072 0.0
C1334 C 0.04349 0.80119 0.54755 0.0
C1335 C 0.06379 0.8027 0.54731 0.0
C1336 C 0.07544 0.82049 0.55018 0.0
C1337 C 0.06682 0.83678 0.55338 0.0
H1338 H 0.07048 0.7901 0.54485 0.0
H1339 H 0.99212 0.94977 0.58101 0.0
H1340 H 0.1856 0.74665 0.78417 0.0
H1341 H 0.15791 0.74826 0.76211 0.0
H1342 H 0.14057 0.68636 0.77126 0.0
H1343 H 0.16867 0.68463 0.79309 0.0
H1344 H 0.13593 0.6967 0.73528 0.0
H1345 H 0.11731 0.7198 0.79254 0.0
H1346 H 0.12083 0.74001 0.81993 0.0
H1347 H 0.12243 0.79152 0.78293 0.0
H1348 H 0.11921 0.77164 0.7553 0.0
H1349 H 0.03944 0.69781 0.69643 0.0
H1350 H 0.0669 0.69451 0.71846 0.0
H1351 H 0.09059 0.75457 0.7057 0.0
H1352 H 0.06323 0.75805 0.68359 0.0
H1353 H 0.09104 0.74412 0.74413 0.0
H1354 H 0.11005 0.72016 0.68683 0.0
H1355 H 0.10567 0.69931 0.65991 0.0
H1356 H 0.10208 0.64841 0.69794 0.0
H1357 H 0.10614 0.66897 0.72512 0.0
C1358 C 0.17586 0.73338 0.78151 0.0
C1359 C 0.17918 0.71554 0.79053 0.0
C1360 C 0.16 0.73432 0.76892 0.0
C1361 C 0.14684 0.7175 0.76531 0.0
C1362 C 0.15044 0.69956 0.77388 0.0
C1363 C 0.16649 0.69857 0.78634 0.0
C1364 C 0.12932 0.71877 0.75271 0.0
C1365 C 0.12597 0.70687 0.73741 0.0
C1366 C 0.1164 0.73223 0.75525 0.0
C1367 C 0.11819 0.74423 0.77184 0.0
C1368 C 0.11854 0.73545 0.79024 0.0
C1369 C 0.12047 0.74684 0.80581 0.0
C1370 C 0.1219 0.76704 0.80317 0.0
C1371 C 0.12135 0.77588 0.78496 0.0
C1372 C 0.11945 0.76455 0.76933 0.0
C1373 C 0.05044 0.71036 0.69831 0.0
C1374 C 0.0491 0.7282 0.68815 0.0
C1375 C 0.06618 0.70841 0.71088 0.0
C1376 C 0.08088 0.72425 0.71361 0.0
C1377 C 0.07943 0.74215 0.70378 0.0
C1378 C 0.06379 0.74408 0.69109 0.0
C1379 C 0.0978 0.72218 0.7267 0.0
C1380 C 0.101 0.73392 0.74208 0.0
C1381 C 0.11045 0.70846 0.72434 0.0
C1382 C 0.1082 0.69609 0.70801 0.0
C1383 C 0.10817 0.70451 0.68946 0.0
C1384 C 0.10577 0.69275 0.67416 0.0
C1385 C 0.10354 0.67255 0.67722 0.0
C1386 C 0.10378 0.66406 0.6956 0.0
C1387 C 0.10614 0.67576 0.71095 0.0
H1388 H 0.10168 0.66346 0.66535 0.0
H1389 H 0.12339 0.77584 0.81524 0.0
H1390 H 0.02476 0.58464 0.51878 0.0
H1391 H 0.03085 0.61201 0.53911 0.0
H1392 H 0.97147 0.6224 0.52925 0.0
H1393 H 0.96548 0.59555 0.5085 0.0
H1394 H 0.99553 0.65589 0.52782 0.0
H1395 H 0.98609 0.59893 0.57035 0.0
H1396 H 0.99229 0.56694 0.58415 0.0
H1397 H 0.05132 0.59104 0.59836 0.0
H1398 H 0.04554 0.62313 0.5844 0.0
H1399 H 0.98516 0.71341 0.60409 0.0
H1400 H 0.98231 0.68767 0.58196 0.0
H1401 H 0.04254 0.68119 0.59388 0.0
H1402 H 0.04522 0.70681 0.61631 0.0
H1403 H 0.02002 0.6463 0.59377 0.0
H1404 H 0.02846 0.70388 0.55254 0.0
H1405 H 0.0215 0.73588 0.5395 0.0
H1406 H 0.96337 0.71054 0.52351 0.0
H1407 H 0.96989 0.67842 0.53671 0.0
C1408 C 0.01306 0.59288 0.52079 0.0
C1409 C 0.99457 0.58775 0.51211 0.0
C1410 C 0.01651 0.60842 0.53256 0.0
C1411 C 1.00154 0.61915 0.53595 0.0
C1412 C 0.98324 0.61433 0.52695 0.0
C1413 C 0.97978 0.59882 0.51521 0.0
C1414 C 0.0048 0.63529 0.54896 0.0
C1415 C 1.00067 0.65371 0.54231 0.0
C1416 C 0.01193 0.63265 0.56777 0.0
C1417 C 0.01545 0.61337 0.57611 0.0
C1418 C 1.00045 0.59736 0.57626 0.0
C1419 C 0.00387 0.57922 0.58414 0.0
C1420 C 0.02221 0.57694 0.59207 0.0
C1421 C 0.03714 0.59282 0.59217 0.0
C1422 C 0.03379 0.61099 0.58429 0.0
C1423 C 0.99769 0.70631 0.60209 0.0
C1424 C 0.01521 0.71154 0.6123 0.0
C1425 C 0.99615 0.69179 0.58928 0.0
C1426 C 0.01224 0.68249 0.58616 0.0
C1427 C 0.0299 0.68805 0.5961 0.0
C1428 C 0.03145 0.70267 0.60887 0.0
C1429 C 0.01049 0.66681 0.57273 0.0
C1430 C 0.01492 0.64848 0.57928 0.0
C1431 C 0.00353 0.66951 0.55388 0.0
C1432 C 0.99962 0.68877 0.54575 0.0
C1433 C 0.01415 0.70515 0.54635 0.0
C1434 C 0.01029 0.72331 0.53892 0.0
C1435 C 0.992 0.72525 0.53071 0.0
C1436 C 0.97753 0.70902 0.52988 0.0
C1437 C 0.98131 0.69083 0.53732 0.0
H1438 H 0.98903 0.73932 0.52497 0.0
H1439 H 0.02483 0.56289 0.59817 0.0
H1440 H 0.75319 0.8367 0.21176 0.0
H1441 H 0.77698 0.86617 0.21368 0.0
H1442 H 0.73035 0.90027 0.216 0.0
H1443 H 0.70638 0.87084 0.21383 0.0
H1444 H 0.78378 0.89991 0.1916 0.0
H1445 H 0.74599 0.93659 0.2462 0.0
H1446 H 0.72172 0.9278 0.27096 0.0
H1447 H 0.73915 0.87131 0.27992 0.0
H1448 H 0.76368 0.87986 0.25541 0.0
H1449 H 0.84591 0.9901 0.20807 0.0
H1450 H 0.81822 0.9658 0.19997 0.0
H1451 H 0.82051 0.93888 0.25639 0.0
H1452 H 0.84591 0.96512 0.26511 0.0
H1453 H 0.78622 0.93781 0.2483 0.0
H1454 H 0.83261 0.90822 0.20573 0.0
H1455 H 0.85695 0.91302 0.18064 0.0
H1456 H 0.82253 0.95043 0.14822 0.0
H1457 H 0.79817 0.94574 0.17317 0.0
C1458 C 0.74794 0.85048 0.21237 0.0
C1459 C 0.72784 0.85136 0.21271 0.0
C1460 C 0.76158 0.86733 0.21352 0.0
C1461 C 0.75546 0.8854 0.21515 0.0
C1462 C 0.73541 0.88644 0.21501 0.0
C1463 C 0.72174 0.86959 0.21384 0.0
C1464 C 0.77018 0.90293 0.21764 0.0
C1465 C 0.78431 0.90826 0.20398 0.0
C1466 C 0.77079 0.91392 0.23368 0.0
C1467 C 0.75649 0.9088 0.24883 0.0
C1468 C 0.74469 0.92233 0.25352 0.0
C1469 C 0.73088 0.91738 0.2675 0.0
C1470 C 0.72884 0.89898 0.27696 0.0
C1471 C 0.74069 0.88553 0.27254 0.0
C1472 C 0.75454 0.89041 0.2586 0.0
C1473 C 0.84059 0.9788 0.21862 0.0
C1474 C 0.84889 0.97876 0.23696 0.0
C1475 C 0.82493 0.9646 0.21387 0.0
C1476 C 0.81759 0.94967 0.22719 0.0
C1477 C 0.82586 0.94991 0.24561 0.0
C1478 C 0.84084 0.96462 0.25054 0.0
C1479 C 0.80067 0.93443 0.22265 0.0
C1480 C 0.78581 0.92963 0.23584 0.0
C1481 C 0.79943 0.92381 0.20621 0.0
C1482 C 0.81425 0.92738 0.19161 0.0
C1483 C 0.83065 0.91785 0.19343 0.0
C1484 C 0.84427 0.92038 0.17918 0.0
C1485 C 0.84145 0.93229 0.16298 0.0
C1486 C 0.82484 0.94141 0.16087 0.0
C1487 C 0.81111 0.93878 0.17503 0.0
H1488 H 0.85203 0.93426 0.15198 0.0
H1489 H 0.7181 0.89515 0.28773 0.0
H1490 H 0.74022 0.15463 0.30649 0.0
H1491 H 0.75962 0.12874 0.30222 0.0
H1492 H 0.80962 0.17175 0.28946 0.0
H1493 H 0.79036 0.19766 0.29391 0.0
H1494 H 0.80296 0.14343 0.26367 0.0
H1495 H 0.80777 0.14658 0.33131 0.0
H1496 H 0.79467 0.14589 0.36309 0.0
H1497 H 0.76472 0.08803 0.35687 0.0
H1498 H 0.77743 0.08848 0.32493 0.0
H1499 H 0.87638 0.08435 0.263 0.0
H1500 H 0.85692 0.10896 0.27066 0.0
H1501 H 0.81183 0.06389 0.29148 0.0
H1502 H 0.83166 0.0392 0.28451 0.0
H1503 H 0.81474 0.09254 0.31325 0.0
H1504 H 0.80883 0.08836 0.24652 0.0
H1505 H 0.82012 0.08822 0.21411 0.0
H1506 H 0.84953 0.1467 0.21749 0.0
H1507 H 0.83863 0.14709 0.25002 0.0
C1508 C 0.75545 0.15857 0.30314 0.0
C1509 C 0.76395 0.17822 0.30107 0.0
C1510 C 0.76651 0.14375 0.30065 0.0
C1511 C 0.78616 0.14828 0.29572 0.0
C1512 C 0.79454 0.16788 0.29337 0.0
C1513 C 0.78356 0.18267 0.29603 0.0
C1514 C 0.79788 0.13269 0.29241 0.0
C1515 C 0.80575 0.13244 0.27459 0.0
C1516 C 0.80096 0.11795 0.30643 0.0
C1517 C 0.79339 0.11764 0.32566 0.0
C1518 C 0.79826 0.13377 0.33666 0.0
C1519 C 0.79093 0.13341 0.35471 0.0
C1520 C 0.77883 0.11695 0.36198 0.0
C1521 C 0.77407 0.10078 0.35122 0.0
C1522 C 0.78135 0.10107 0.33314 0.0
C1523 C 0.86238 0.07967 0.26933 0.0
C1524 C 0.85553 0.0598 0.27303 0.0
C1525 C 0.85117 0.09378 0.2736 0.0
C1526 C 0.83262 0.08835 0.28126 0.0
C1527 C 0.82602 0.06851 0.28551 0.0
C1528 C 0.83737 0.05439 0.28149 0.0
C1529 C 0.82007 0.10335 0.28452 0.0
C1530 C 0.81197 0.10348 0.3023 0.0
C1531 C 0.8165 0.11785 0.27035 0.0
C1532 C 0.82306 0.11768 0.25077 0.0
C1533 C 0.81782 0.10114 0.2404 0.0
C1534 C 0.82413 0.10102 0.222 0.0
C1535 C 0.83557 0.11742 0.21377 0.0
C1536 C 0.84069 0.13399 0.2239 0.0
C1537 C 0.83443 0.13418 0.24231 0.0
H1538 H 0.84044 0.1173 0.19952 0.0
H1539 H 0.77317 0.1167 0.37596 0.0
H1540 H 0.46068 1.00102 1.00081 0.0
H1541 H 0.42892 0.98072 0.0049 0.0
H1542 H 0.40037 0.0314 0.99395 0.0
H1543 H 0.4322 0.05177 0.99077 0.0
H1544 H 0.38286 0.01073 0.02067 0.0
H1545 H 0.40277 0.99602 0.96034 0.0
H1546 H 0.42448 0.98595 0.93752 0.0
H1547 H 0.42241 0.93035 0.96795 0.0
H1548 H 0.40088 0.9402 0.99111 0.0
H1549 H 0.29066 0.9629 0.98509 0.0
H1550 H 0.32275 0.98218 0.99022 0.0
H1551 H 0.34302 0.93252 0.01961 0.0
H1552 H 0.31068 0.91325 0.01497 0.0
H1553 H 0.36496 0.95083 0.98624 0.0
H1554 H 0.34109 0.96664 0.04485 0.0
H1555 H 0.31763 0.97808 0.06496 0.0
H1556 H 0.32512 0.03356 0.03385 0.0
H1557 H 0.34842 0.02235 0.01337 0.0
C1558 C 0.44758 0.00775 0.99921 0.0
C1559 C 0.44884 0.02792 0.99539 0.0
C1560 C 0.42942 0.99616 1.00149 0.0
C1561 C 0.41211 0.00442 0.99945 0.0
C1562 C 0.41344 0.02462 0.99565 0.0
C1563 C 0.43161 0.03626 0.99376 0.0
C1564 C 0.39264 0.9921 1.00124 0.0
C1565 C 0.37895 0.99774 0.01298 0.0
C1566 C 0.38748 0.97491 0.9915 0.0
C1567 C 0.4004 0.96893 0.97758 0.0
C1568 C 0.40707 0.9817 0.96225 0.0
C1569 C 0.41932 0.97603 0.94924 0.0
C1570 C 0.42487 0.95755 0.95131 0.0
C1571 C 0.41813 0.94468 0.96638 0.0
C1572 C 0.40589 0.95029 0.97945 0.0
C1573 C 0.30178 0.95627 0.99316 0.0
C1574 C 0.29817 0.93663 0.99973 0.0
C1575 C 0.3201 0.96728 0.99603 0.0
C1576 C 0.33524 0.95874 0.00523 0.0
C1577 C 0.33148 0.93935 0.01252 0.0
C1578 C 0.31298 0.92844 0.01001 0.0
C1579 C 0.35535 0.96959 0.00551 0.0
C1580 C 0.36907 0.96371 0.99407 0.0
C1581 C 0.36034 0.98678 0.01513 0.0
C1582 C 0.34638 0.99359 0.02747 0.0
C1583 C 0.33761 0.98122 0.04219 0.0
C1584 C 0.32437 0.98768 0.05368 0.0
C1585 C 0.31986 0.00652 0.05066 0.0
C1586 C 0.32862 0.01896 0.03617 0.0
C1587 C 0.34186 0.01257 0.02463 0.0
H1588 H 0.3096 0.01149 0.05957 0.0
H1589 H 0.43436 0.95318 0.94123 0.0
H1590 H 0.30744 0.37429 0.31245 0.0
H1591 H 0.28325 0.39665 0.30824 0.0
H1592 H 0.2371 0.34877 0.31873 0.0
H1593 H 0.26125 0.32639 0.32328 0.0
H1594 H 0.23157 0.37462 0.28518 0.0
H1595 H 0.24721 0.37683 0.35183 0.0
H1596 H 0.26959 0.38125 0.37954 0.0
H1597 H 0.29041 0.43965 0.35868 0.0
H1598 H 0.26835 0.43547 0.33069 0.0
H1599 H 0.1554 0.43142 0.28528 0.0
H1600 H 0.17721 0.40758 0.29409 0.0
H1601 H 0.22462 0.45415 0.30279 0.0
H1602 H 0.20258 0.47791 0.29509 0.0
H1603 H 0.22903 0.42766 0.32755 0.0
H1604 H 0.2169 0.42668 0.26084 0.0
H1605 H 0.19718 0.42364 0.23126 0.0
H1606 H 0.17305 0.36523 0.24935 0.0
H1607 H 0.19246 0.36801 0.27915 0.0
C1608 C 0.29213 0.36855 0.31391 0.0
C1609 C 0.28624 0.34859 0.31825 0.0
C1610 C 0.27835 0.38134 0.31156 0.0
C1611 C 0.25837 0.37438 0.31321 0.0
C1612 C 0.25243 0.35445 0.31742 0.0
C1613 C 0.26624 0.34171 0.32012 0.0
C1614 C 0.24368 0.3879 0.31027 0.0
C1615 C 0.23078 0.38605 0.29458 0.0
C1616 C 0.2431 0.40319 0.32219 0.0
C1617 C 0.25626 0.40577 0.33908 0.0
C1618 C 0.25668 0.39056 0.35307 0.0
C1619 C 0.26928 0.39303 0.36885 0.0
C1620 C 0.28145 0.4107 0.37085 0.0
C1621 C 0.28099 0.42596 0.3571 0.0
C1622 C 0.26843 0.42355 0.34129 0.0
C1623 C 0.17042 0.43654 0.28931 0.0
C1624 C 0.17725 0.45656 0.28945 0.0
C1625 C 0.18298 0.42289 0.29418 0.0
C1626 C 0.20283 0.42894 0.29867 0.0
C1627 C 0.20946 0.44897 0.29936 0.0
C1628 C 0.19681 0.46259 0.29494 0.0
C1629 C 0.21678 0.41456 0.30229 0.0
C1630 C 0.22965 0.41623 0.31811 0.0
C1631 C 0.21765 0.39935 0.29021 0.0
C1632 C 0.20597 0.39763 0.27231 0.0
C1633 C 0.20729 0.41323 0.25857 0.0
C1634 C 0.19618 0.41155 0.24175 0.0
C1635 C 0.18383 0.39427 0.23845 0.0
C1636 C 0.1826 0.37862 0.25194 0.0
C1637 C 0.19366 0.38023 0.26879 0.0
H1638 H 0.17524 0.393 0.22543 0.0
H1639 H 0.2912 0.41259 0.38307 0.0
H1640 H 0.11385 0.97299 0.50571 0.0
H1641 H 0.14492 0.99359 0.51181 0.0
H1642 H 0.12097 0.04366 0.48796 0.0
H1643 H 0.08948 0.02353 0.48278 0.0
H1644 H 0.15926 0.03596 0.47364 0.0
H1645 H 0.1255 0.04171 0.53138 0.0
H1646 H 0.10829 0.02793 0.56002 0.0
H1647 H 0.15783 1.00096 0.57915 0.0
H1648 H 0.17523 0.01436 0.55046 0.0
H1649 H 0.22204 0.10948 0.54114 0.0
H1650 H 0.19385 0.08562 0.53361 0.0
H1651 H 0.22642 0.06642 0.48974 0.0
H1652 H 0.25241 0.09291 0.49481 0.0
H1653 H 0.18535 0.05254 0.53727 0.0
H1654 H 0.21023 0.03403 0.47477 0.0
H1655 H 0.22546 0.04134 0.4438 0.0
H1656 H 0.19139 0.08735 0.43151 0.0
H1657 H 0.17622 0.08036 0.46269 0.0
C1658 C 0.11497 0.98843 0.50207 0.0
C1659 C 0.09897 0.9965 0.49373 0.0
C1660 C 0.13284 1.00015 0.50546 0.0
C1661 C 0.1352 0.0201 0.50034 0.0
C1662 C 0.11942 0.02824 0.49194 0.0
C1663 C 0.10145 0.01663 0.48885 0.0
C1664 C 0.15423 0.03254 0.5033 0.0
C1665 C 0.16492 0.03995 0.48752 0.0
C1666 C 0.16199 0.03681 0.52141 0.0
C1667 C 0.15157 0.02884 0.53868 0.0
C1668 C 0.13265 0.03269 0.54161 0.0
C1669 C 0.12287 0.02498 0.55787 0.0
C1670 C 0.13193 0.01353 0.57137 0.0
C1671 C 0.15081 0.0098 0.56866 0.0
C1672 C 0.16064 0.01746 0.55241 0.0
C1673 C 0.2226 0.10065 0.5293 0.0
C1674 C 0.23891 0.10359 0.51798 0.0
C1675 C 0.20662 0.08659 0.52515 0.0
C1676 C 0.20715 0.07392 0.51053 0.0
C1677 C 0.22423 0.07636 0.50001 0.0
C1678 C 0.23958 0.09138 0.50328 0.0
C1679 C 0.19011 0.05806 0.50732 0.0
C1680 C 0.17977 0.04932 0.5232 0.0
C1681 C 0.18286 0.05218 0.48921 0.0
C1682 C 0.19321 0.05769 0.47149 0.0
C1683 C 0.20642 0.04606 0.46564 0.0
C1684 C 0.21498 0.05008 0.44807 0.0
C1685 C 0.20979 0.06519 0.43592 0.0
C1686 C 0.19587 0.07611 0.44124 0.0
C1687 C 0.1875 0.07231 0.45893 0.0
H1688 H 0.21627 0.06819 0.42224 0.0
H1689 H 0.12434 0.00758 0.58395 0.0
H1690 H 0.77497 0.18447 0.7068 0.0
H1691 H 0.75074 0.15561 0.71274 0.0
H1692 H 0.79667 0.12187 0.72871 0.0
H1693 H 0.82105 0.15058 0.72226 0.0
H1694 H 0.7683 0.10116 0.70789 0.0
H1695 H 0.77213 0.13789 0.76284 0.0
H1696 H 0.77196 0.16717 0.78036 0.0
H1697 H 0.71377 0.17138 0.75929 0.0
H1698 H 0.71378 0.14234 0.74137 0.0
H1699 H 0.69108 0.04569 0.77856 0.0
H1700 H 0.71716 0.07222 0.77032 0.0
H1701 H 0.70445 0.06401 0.71121 0.0
H1702 H 0.67892 0.03668 0.71965 0.0
H1703 H 0.71821 0.1051 0.75457 0.0
H1704 H 0.74394 0.07942 0.68493 0.0
H1705 H 0.74687 0.04874 0.67075 0.0
H1706 H 0.74973 0.01987 0.7259 0.0
H1707 H 0.74707 0.05043 0.7404 0.0
C1708 C 0.77995 0.17085 0.71129 0.0
C1709 C 0.79997 0.16988 0.71414 0.0
C1710 C 0.76607 0.15439 0.71481 0.0
C1711 C 0.77188 0.13661 0.72136 0.0
C1712 C 0.79185 0.13543 0.72369 0.0
C1713 C 0.80576 0.1519 0.72018 0.0
C1714 C 0.75709 0.11952 0.72656 0.0
C1715 C 0.75718 0.10203 0.71795 0.0
C1716 C 0.74295 0.12046 0.74009 0.0
C1717 C 0.74296 0.13799 0.75074 0.0
C1718 C 0.75935 0.14514 0.76186 0.0
C1719 C 0.75928 0.16169 0.77186 0.0
C1720 C 0.74286 0.17113 0.77094 0.0
C1721 C 0.72647 0.16404 0.76001 0.0
C1722 C 0.72648 0.14752 0.74996 0.0
C1723 C 0.69391 0.04959 0.76381 0.0
C1724 C 0.68283 0.03949 0.74969 0.0
C1725 C 0.70882 0.06475 0.75909 0.0
C1726 C 0.71299 0.07017 0.74011 0.0
C1727 C 0.70189 0.05994 0.72596 0.0
C1728 C 0.68721 0.04444 0.73074 0.0
C1729 C 0.72864 0.08676 0.73531 0.0
C1730 C 0.72889 0.1042 0.74415 0.0
C1731 C 0.7433 0.08557 0.7223 0.0
C1732 C 0.7451 0.06717 0.71372 0.0
C1733 C 0.74526 0.06654 0.69402 0.0
C1734 C 0.74686 0.04917 0.68593 0.0
C1735 C 0.74842 0.03235 0.69742 0.0
C1736 C 0.74845 0.03289 0.71702 0.0
C1737 C 0.74687 0.05022 0.72518 0.0
H1738 H 0.74964 0.01892 0.69112 0.0
H1739 H 0.74284 0.18393 0.77869 0.0
H1740 H 0.42932 0.98857 0.53774 0.0
H1741 H 0.40439 0.00963 0.53134 0.0
H1742 H 0.43992 0.05509 0.56049 0.0
H1743 H 0.46532 0.03452 0.56631 0.0
H1744 H 0.40067 0.04866 0.57116 0.0
H1745 H 0.43713 0.05901 0.51417 0.0
H1746 H 0.45189 0.0487 0.48632 0.0
H1747 H 0.39546 0.02271 0.46612 0.0
H1748 H 0.38039 0.03263 0.49401 0.0
H1749 H 0.3475 0.1257 0.54644 0.0
H1750 H 0.37328 0.10539 0.55084 0.0
H1751 H 0.34276 0.06566 0.51197 0.0
H1752 H 0.31733 0.08645 0.50692 0.0
H1753 H 0.37935 0.06845 0.50621 0.0
H1754 H 0.34234 0.05675 0.56207 0.0
H1755 H 0.32642 0.06503 0.59016 0.0
H1756 H 0.38184 0.09077 0.61291 0.0
H1757 H 0.39807 0.08287 0.58483 0.0
C1758 C 0.43206 0.00314 0.54257 0.0
C1759 C 0.44953 0.00972 0.55256 0.0
C1760 C 0.41767 0.01514 0.53898 0.0
C1761 C 0.42027 0.03399 0.54536 0.0
C1762 C 0.43752 0.04057 0.55548 0.0
C1763 C 0.45202 0.02868 0.5589 0.0
C1764 C 0.40498 0.04682 0.54161 0.0
C1765 C 0.39618 0.05321 0.55697 0.0
C1766 C 0.39864 0.05226 0.5231 0.0
C1767 C 0.40766 0.0464 0.50627 0.0
C1768 C 0.42789 0.05096 0.50387 0.0
C1769 C 0.43631 0.04521 0.48806 0.0
C1770 C 0.42462 0.03501 0.47448 0.0
C1771 C 0.40449 0.03059 0.47666 0.0
C1772 C 0.396 0.03628 0.49246 0.0
C1773 C 0.34633 0.1127 0.53873 0.0
C1774 C 0.33028 0.10767 0.52639 0.0
C1775 C 0.36104 0.10097 0.54137 0.0
C1776 C 0.35986 0.08363 0.53211 0.0
C1777 C 0.34407 0.07886 0.51938 0.0
C1778 C 0.32949 0.09077 0.51651 0.0
C1779 C 0.37497 0.07045 0.5358 0.0
C1780 C 0.38376 0.06395 0.52044 0.0
C1781 C 0.38109 0.06463 0.55434 0.0
C1782 C 0.37139 0.06939 0.57126 0.0
C1783 C 0.35111 0.0643 0.573 0.0
C1784 C 0.34204 0.06891 0.58893 0.0
C1785 C 0.35311 0.07847 0.60329 0.0
C1786 C 0.37328 0.08339 0.60177 0.0
C1787 C 0.38243 0.07884 0.58585 0.0
H1788 H 0.34605 0.08201 0.61561 0.0
H1789 H 0.43117 0.03057 0.46226 0.0
H1790 H 0.58323 0.4904 0.54972 0.0
H1791 H 0.61131 0.47465 0.54312 0.0
H1792 H 0.62169 0.51262 0.49288 0.0
H1793 H 0.59346 0.52819 0.4994 0.0
H1794 H 0.62268 0.47565 0.4855 0.0
H1795 H 0.65161 0.51814 0.53256 0.0
H1796 H 0.65428 0.53262 0.56338 0.0
H1797 H 0.65732 0.4766 0.59146 0.0
H1798 H 0.65439 0.46173 0.56081 0.0
H1799 H 0.71355 0.44923 0.46461 0.0
H1800 H 0.68821 0.46757 0.47292 0.0
H1801 H 0.67843 0.43101 0.52409 0.0
H1802 H 0.70412 0.41284 0.51612 0.0
H1803 H 0.67741 0.46766 0.53103 0.0
H1804 H 0.6478 0.42493 0.48457 0.0
H1805 H 0.64516 0.40997 0.45398 0.0
H1806 H 0.64285 0.46575 0.42509 0.0
H1807 H 0.6458 0.48109 0.45551 0.0
C1808 C 0.59162 0.49542 0.53735 0.0
C1809 C 0.58606 0.5103 0.52492 0.0
C1810 C 0.6077 0.48649 0.53361 0.0
C1811 C 0.6187 0.49245 0.5175 0.0
C1812 C 0.61341 0.50768 0.50534 0.0
C1813 C 0.59734 0.51661 0.50909 0.0
C1814 C 0.63521 0.48232 0.51292 0.0
C1815 C 0.6348 0.47418 0.49536 0.0
C1816 C 0.65078 0.47987 0.52594 0.0
C1817 C 0.6526 0.48879 0.54439 0.0
C1818 C 0.65269 0.50888 0.54531 0.0
C1819 C 0.65428 0.51717 0.56275 0.0
C1820 C 0.65592 0.50554 0.57937 0.0
C1821 C 0.65602 0.48559 0.57858 0.0
C1822 C 0.65442 0.47723 0.56117 0.0
C1823 C 0.70608 0.44507 0.47767 0.0
C1824 C 0.71089 0.42943 0.48963 0.0
C1825 C 0.69149 0.45557 0.48238 0.0
C1826 C 0.68113 0.45052 0.49901 0.0
C1827 C 0.68616 0.43519 0.51116 0.0
C1828 C 0.70084 0.42476 0.50654 0.0
C1829 C 0.6649 0.46105 0.50359 0.0
C1830 C 0.66532 0.46919 0.52115 0.0
C1831 C 0.64926 0.46342 0.49061 0.0
C1832 C 0.64721 0.45419 0.47231 0.0
C1833 C 0.64686 0.43402 0.47169 0.0
C1834 C 0.64529 0.42547 0.45438 0.0
C1835 C 0.64388 0.43691 0.4376 0.0
C1836 C 0.64397 0.45691 0.4381 0.0
C1837 C 0.64558 0.46554 0.45537 0.0
H1838 H 0.64268 0.43026 0.42422 0.0
H1839 H 0.65715 0.51198 0.59286 0.0
H1840 H 0.74344 0.24839 0.34656 0.0
H1841 H 0.74597 0.27153 0.37118 0.0
H1842 H 0.68508 0.25385 0.38271 0.0
H1843 H 0.68244 0.2309 0.35793 0.0
H1844 H 0.69252 0.29148 0.38015 0.0
H1845 H 0.7227 0.24173 0.41374 0.0
H1846 H 0.7458 0.21817 0.41915 0.0
H1847 H 0.79398 0.26468 0.41559 0.0
H1848 H 0.77118 0.28851 0.4099 0.0
H1849 H 0.7013 0.34825 0.46356 0.0
H1850 H 0.69441 0.3223 0.44166 0.0
H1851 H 0.75339 0.33544 0.42252 0.0
H1852 H 0.76075 0.35976 0.44584 0.0
H1853 H 0.744 0.2981 0.43064 0.0
H1854 H 0.70742 0.33729 0.37598 0.0
H1855 H 0.68258 0.35828 0.36655 0.0
H1856 H 0.64599 0.33039 0.4108 0.0
H1857 H 0.67027 0.30868 0.41981 0.0
C1858 C 0.73068 0.24921 0.35455 0.0
C1859 C 0.71273 0.23783 0.35024 0.0
C1860 C 0.73214 0.26244 0.36867 0.0
C1861 C 0.71575 0.26438 0.37899 0.0
C1862 C 0.69793 0.25271 0.37495 0.0
C1863 C 0.69643 0.2396 0.36076 0.0
C1864 C 0.7169 0.27933 0.39318 0.0
C1865 C 0.70361 0.29269 0.39139 0.0
C1866 C 0.73146 0.28118 0.40775 0.0
C1867 C 0.74522 0.26689 0.41124 0.0
C1868 C 0.73822 0.24693 0.41397 0.0
C1869 C 0.75127 0.23353 0.41711 0.0
C1870 C 0.77134 0.23992 0.41767 0.0
C1871 C 0.77842 0.25974 0.41514 0.0
C1872 C 0.76545 0.27321 0.41198 0.0
C1873 C 0.71262 0.34582 0.45435 0.0
C1874 C 0.73132 0.3567 0.45575 0.0
C1875 C 0.70858 0.33118 0.44155 0.0
C1876 C 0.72308 0.32731 0.42969 0.0
C1877 C 0.74176 0.3383 0.43114 0.0
C1878 C 0.74591 0.35249 0.44427 0.0
C1879 C 0.71982 0.3105 0.4174 0.0
C1880 C 0.73278 0.29675 0.41953 0.0
C1881 C 0.70484 0.30814 0.40325 0.0
C1882 C 0.69106 0.32215 0.39919 0.0
C1883 C 0.69422 0.33595 0.38389 0.0
C1884 C 0.68009 0.34769 0.37839 0.0
C1885 C 0.66284 0.34589 0.38826 0.0
C1886 C 0.6595 0.33202 0.40337 0.0
C1887 C 0.67341 0.31993 0.40862 0.0
H1888 H 0.65199 0.35511 0.38409 0.0
H1889 H 0.78142 0.22952 0.4201 0.0
H1890 H 0.50185 0.04228 0.91291 0.0
H1891 H 0.52017 0.02807 0.89031 0.0
H1892 H 0.56704 0.02515 0.9317 0.0
H1893 H 0.54881 0.03997 0.95426 0.0
H1894 H 0.58148 0.03945 0.89974 0.0
H1895 H 0.53678 0.98329 0.91718 0.0
H1896 H 0.50485 0.96373 0.92385 0.0
H1897 H 0.48572 0.97396 0.86635 0.0
H1898 H 0.51744 0.99384 0.85938 0.0
H1899 H 0.63066 0.9934 0.83308 0.0
H1900 H 0.61249 0.99468 0.86188 0.0
H1901 H 0.56488 0.01339 0.82818 0.0
H1902 H 0.58315 0.01261 0.79959 0.0
H1903 H 0.55288 0.98626 0.85964 0.0
H1904 H 0.59619 0.04658 0.84467 0.0
H1905 H 0.62804 0.06657 0.83862 0.0
H1906 H 0.65002 0.04723 0.89285 0.0
H1907 H 0.61831 0.02693 0.89912 0.0
C1908 C 0.5159 0.03827 0.91732 0.0
C1909 C 0.52373 0.04187 0.93549 0.0
C1910 C 0.52637 0.03005 0.90439 0.0
C1911 C 0.5449 0.02513 0.90933 0.0
C1912 C 0.55272 0.02863 0.92755 0.0
C1913 C 0.54227 0.03698 0.94048 0.0
C1914 C 0.55653 0.01766 0.89499 0.0
C1915 C 0.57535 0.02748 0.89133 0.0
C1916 C 0.54857 0.00221 0.88372 0.0
C1917 C 0.52947 0.99017 0.88779 0.0
C1918 C 0.52572 0.98149 0.90598 0.0
C1919 C 0.50766 0.97032 0.90981 0.0
C1920 C 0.49326 0.96763 0.89554 0.0
C1921 C 0.4969 0.97606 0.87739 0.0
C1922 C 0.51493 0.98726 0.87349 0.0
C1923 C 0.61606 0.99715 0.83184 0.0
C1924 C 0.60819 0.00274 0.81416 0.0
C1925 C 0.60576 0.99803 0.84827 0.0
C1926 C 0.58735 0.00422 0.84717 0.0
C1927 C 0.57899 0.00849 0.82937 0.0
C1928 C 0.58942 0.00802 0.81305 0.0
C1929 C 0.57755 0.00824 0.86438 0.0
C1930 C 0.55909 0.99787 0.86844 0.0
C1931 C 0.58587 0.02307 0.87614 0.0
C1932 C 0.60499 0.03504 0.87225 0.0
C1933 C 0.60789 0.04641 0.85521 0.0
C1934 C 0.6259 0.05784 0.85176 0.0
C1935 C 0.64107 0.05812 0.86532 0.0
C1936 C 0.63826 0.04696 0.88235 0.0
C1937 C 0.62028 0.0355 0.88585 0.0
H1938 H 0.65497 0.06705 0.86269 0.0
H1939 H 0.47928 0.95899 0.89854 0.0
H1940 H 0.31152 0.31454 0.37496 0.0
H1941 H 0.31242 0.29124 0.40231 0.0
H1942 H 0.31811 0.24606 0.3654 0.0
H1943 H 0.31699 0.2692 0.33802 0.0
H1944 H 0.29082 0.23413 0.39204 0.0
H1945 H 0.3571 0.26639 0.39058 0.0
H1946 H 0.38315 0.29469 0.39 0.0
H1947 H 0.36506 0.31047 0.4431 0.0
H1948 H 0.33871 0.2824 0.44386 0.0
H1949 H 0.30863 0.16227 0.4608 0.0
H1950 H 0.31705 0.18654 0.43468 0.0
H1951 H 0.31106 0.23226 0.47086 0.0
H1952 H 0.30265 0.20793 0.49696 0.0
H1953 H 0.3398 0.24402 0.44464 0.0
H1954 H 0.27324 0.21381 0.44605 0.0
H1955 H 0.24539 0.18726 0.44663 0.0
H1956 H 0.26224 0.16921 0.394 0.0
H1957 H 0.29047 0.1954 0.3933 0.0
C1958 C 0.31284 0.29961 0.37267 0.0
C1959 C 0.31422 0.29374 0.3543 0.0
C1960 C 0.31354 0.28635 0.38832 0.0
C1961 C 0.31557 0.26693 0.38594 0.0
C1962 C 0.31665 0.26098 0.3676 0.0
C1963 C 0.3161 0.27425 0.35197 0.0
C1964 C 0.31605 0.25267 0.40248 0.0
C1965 C 0.30175 0.23613 0.40337 0.0
C1966 C 0.32993 0.25557 0.41757 0.0
C1967 C 0.34581 0.2724 0.41718 0.0
C1968 C 0.35857 0.27599 0.40205 0.0
C1969 C 0.37341 0.29197 0.40171 0.0
C1970 C 0.37573 0.3044 0.41648 0.0
C1971 C 0.36323 0.30084 0.43165 0.0
C1972 C 0.34835 0.28489 0.43206 0.0
C1973 C 0.31012 0.17756 0.46339 0.0
C1974 C 0.30545 0.18331 0.48095 0.0
C1975 C 0.31465 0.19141 0.44841 0.0
C1976 C 0.31438 0.21121 0.45073 0.0
C1977 C 0.3114 0.21709 0.46874 0.0
C1978 C 0.30678 0.20321 0.4837 0.0
C1979 C 0.31472 0.22537 0.43403 0.0
C1980 C 0.32903 0.24193 0.43319 0.0
C1981 C 0.3007 0.22263 0.41902 0.0
C1982 C 0.28411 0.20645 0.41972 0.0
C1983 C 0.27117 0.20402 0.43472 0.0
C1984 C 0.25528 0.18908 0.43504 0.0
C1985 C 0.25202 0.17661 0.42033 0.0
C1986 C 0.26478 0.17891 0.40537 0.0
C1987 C 0.28074 0.19378 0.40502 0.0
H1988 H 0.23956 0.16523 0.42046 0.0
H1989 H 0.38723 0.31676 0.41619 0.0
H1990 H 0.50945 0.47047 0.93021 0.0
H1991 H 0.49311 0.47718 0.89979 0.0
H1992 H 0.49805 0.53772 0.91101 0.0
H1993 H 0.51447 0.53105 0.94146 0.0
H1994 H 0.46144 0.52326 0.89735 0.0
H1995 H 0.52733 0.52463 0.87971 0.0
H1996 H 0.55884 0.51254 0.87866 0.0
H1997 H 0.53064 0.4619 0.85199 0.0
H1998 H 0.49891 0.47355 0.85313 0.0
H1999 H 0.42411 0.54161 0.80232 0.0
H2000 H 0.44495 0.54434 0.83112 0.0
H2001 H 0.45208 0.4841 0.82982 0.0
H2002 H 0.43197 0.48133 0.80131 0.0
H2003 H 0.48572 0.50453 0.83767 0.0
H2004 H 0.41969 0.50047 0.8594 0.0
H2005 H 0.38771 0.51152 0.86094 0.0
H2006 H 0.41571 0.56621 0.88009 0.0
H2007 H 0.44789 0.55554 0.87844 0.0
C2008 C 0.50731 0.48525 0.92604 0.0
C2009 C 0.51372 0.50033 0.93795 0.0
C2010 C 0.49795 0.48907 0.90869 0.0
C2011 C 0.49461 0.50802 0.90298 0.0
C2012 C 0.5006 0.52304 0.91505 0.0
C2013 C 0.51007 0.51923 0.93237 0.0
C2014 C 0.48459 0.51197 0.88452 0.0
C2015 C 0.46692 0.5195 0.88423 0.0
C2016 C 0.49163 0.50692 0.86743 0.0
C2017 C 0.51071 0.49991 0.86662 0.0
C2018 C 0.52782 0.51085 0.87374 0.0
C2019 C 0.54573 0.50408 0.87311 0.0
C2020 C 0.54673 0.48645 0.8653 0.0
C2021 C 0.52984 0.47556 0.85805 0.0
C2022 C 0.51189 0.48225 0.85866 0.0
C2023 C 0.43022 0.529 0.80814 0.0
C2024 C 0.42631 0.51128 0.79937 0.0
C2025 C 0.44207 0.53056 0.82465 0.0
C2026 C 0.45005 0.51438 0.83273 0.0
C2027 C 0.44625 0.49683 0.82386 0.0
C2028 C 0.43461 0.49529 0.80747 0.0
C2029 C 0.46218 0.51516 0.85054 0.0
C2030 C 0.48034 0.50857 0.85072 0.0
C2031 C 0.45551 0.52094 0.86752 0.0
C2032 C 0.43619 0.52731 0.86857 0.0
C2033 C 0.41903 0.51491 0.8638 0.0
C2034 C 0.40087 0.52109 0.86472 0.0
C2035 C 0.39968 0.53958 0.87055 0.0
C2036 C 0.41665 0.55191 0.87553 0.0
C2037 C 0.43485 0.5458 0.87461 0.0
H2038 H 0.38561 0.54434 0.87125 0.0
H2039 H 0.56061 0.48124 0.86482 0.0
H2040 H 0.67868 0.75696 0.15142 0.0
H2041 H 0.69221 0.73489 0.13217 0.0
H2042 H 0.75047 0.76037 0.14875 0.0
H2043 H 0.73682 0.7829 0.16776 0.0
H2044 H 0.74861 0.75602 0.11211 0.0
H2045 H 0.73044 0.71413 0.16601 0.0
H2046 H 0.70926 0.69817 0.1913 0.0
H2047 H 0.66852 0.67201 0.15004 0.0
H2048 H 0.68932 0.68803 0.12448 0.0
H2049 H 0.78403 0.67814 0.06649 0.0
H2050 H 0.77753 0.6987 0.09157 0.0
H2051 H 0.71658 0.69093 0.07492 0.0
H2052 H 0.72289 0.67101 0.04978 0.0
H2053 H 0.72454 0.68521 0.11493 0.0
H2054 H 0.74166 0.73084 0.06139 0.0
H2055 H 0.76352 0.74636 0.03642 0.0
H2056 H 0.8076 0.7647 0.07825 0.0
H2057 H 0.78607 0.74901 0.10346 0.0
C2058 C 0.69437 0.75767 0.15118 0.0
C2059 C 0.7067 0.7714 0.16137 0.0
C2060 C 0.70212 0.745 0.14019 0.0
C2061 C 0.7224 0.74566 0.13921 0.0
C2062 C 0.73478 0.75944 0.14935 0.0
C2063 C 0.727 0.77221 0.16031 0.0
C2064 C 0.73048 0.73242 0.127 0.0
C2065 C 0.74365 0.74048 0.11303 0.0
C2066 C 0.72397 0.71212 0.12799 0.0
C2067 C 0.7114 0.7024 0.14332 0.0
C2068 C 0.7169 0.70508 0.16232 0.0
C2069 C 0.70497 0.69601 0.17671 0.0
C2070 C 0.68754 0.68411 0.17228 0.0
C2071 C 0.68202 0.68123 0.15345 0.0
C2072 C 0.6939 0.69029 0.13901 0.0
C2073 C 0.76925 0.68079 0.06822 0.0
C2074 C 0.75401 0.67288 0.05608 0.0
C2075 C 0.76557 0.69255 0.08252 0.0
C2076 C 0.74655 0.6963 0.08511 0.0
C2077 C 0.73133 0.68817 0.07323 0.0
C2078 C 0.73503 0.67679 0.05879 0.0
C2079 C 0.74222 0.70891 0.09992 0.0
C2080 C 0.72974 0.70071 0.11433 0.0
C2081 C 0.74949 0.729 0.09942 0.0
C2082 C 0.76237 0.73854 0.08429 0.0
C2083 C 0.75609 0.73802 0.06525 0.0
C2084 C 0.7684 0.74688 0.05106 0.0
C2085 C 0.78696 0.75645 0.05574 0.0
C2086 C 0.79323 0.75724 0.07464 0.0
C2087 C 0.78098 0.74837 0.08889 0.0
H2088 H 0.79647 0.76329 0.04473 0.0
H2089 H 0.67832 0.6771 0.18344 0.0
H2090 H 0.02032 0.01776 0.08467 0.0
H2091 H 1.00102 0.01102 0.11296 0.0
H2092 H 1.0023 0.0725 0.11773 0.0
H2093 H 0.02256 0.07939 0.09014 0.0
H2094 H 0.00641 0.05612 0.15121 0.0
H2095 H 0.96164 0.0426 0.09925 0.0
H2096 H 0.94883 0.02751 0.07006 0.0
H2097 H 0.9455 0.97086 0.0986 0.0
H2098 H 0.95856 0.9856 0.12792 0.0
H2099 H 0.92559 0.04576 0.21315 0.0
H2100 H 0.94656 0.05386 0.18595 0.0
H2101 H 0.95316 0.99356 0.18422 0.0
H2102 H 0.93238 0.98531 0.21129 0.0
H2103 H 0.94449 0.01014 0.14916 0.0
H2104 H 0.98959 0.02495 0.20142 0.0
H2105 H 1.00143 0.04111 0.23034 0.0
H2106 H 1.00262 0.09694 0.20055 0.0
H2107 H 0.99051 0.08111 0.1715 0.0
C2108 C 0.01678 0.02988 0.09188 0.0
C2109 C 0.02291 0.04914 0.08493 0.0
C2110 C 0.00549 0.02599 0.10796 0.0
C2111 C 0.9998 0.04123 0.11732 0.0
C2112 C 0.00633 0.06046 0.11072 0.0
C2113 C 0.01777 0.06437 0.09477 0.0
C2114 C 0.98692 0.03716 0.13387 0.0
C2115 C 0.99275 0.04626 0.15064 0.0
C2116 C 0.96915 0.02412 0.13333 0.0
C2117 C 0.96126 0.0152 0.11573 0.0
C2118 C 0.95831 0.02691 0.09927 0.0
C2119 C 0.95099 0.01842 0.0827 0.0
C2120 C 0.9464 0.99823 0.08246 0.0
C2121 C 0.94909 0.98649 0.0988 0.0
C2122 C 0.95644 0.99491 0.1154 0.0
C2123 C 0.93155 0.03422 0.20704 0.0
C2124 C 0.92728 0.01488 0.21451 0.0
C2125 C 0.94358 0.03889 0.19151 0.0
C2126 C 0.9515 0.02432 0.18309 0.0
C2127 C 0.94721 0.00504 0.19046 0.0
C2128 C 0.93536 1.00038 0.20604 0.0
C2129 C 0.96407 0.029 0.16644 0.0
C2130 C 0.95815 0.02002 0.14966 0.0
C2131 C 0.9816 0.04232 0.16691 0.0
C2132 C 0.98895 0.05185 0.18434 0.0
C2133 C 0.99222 0.04067 0.20108 0.0
C2134 C 0.99901 0.04977 0.21749 0.0
C2135 C 1.00272 0.07004 0.2173 0.0
C2136 C 0.99971 0.08125 0.20068 0.0
C2137 C 0.9929 0.07222 0.18424 0.0
H2138 H 0.00798 0.07706 0.23002 0.0
H2139 H 0.94073 0.99169 0.06962 0.0
H2140 H 0.33732 0.75003 0.14654 0.0
H2141 H 0.32996 0.76823 0.117 0.0
H2142 H 0.27623 0.77908 0.13977 0.0
H2143 H 0.28328 0.76045 0.16895 0.0
H2144 H 0.26995 0.77077 0.10457 0.0
H2145 H 0.3187 0.81348 0.13819 0.0
H2146 H 0.35059 0.82304 0.15414 0.0
H2147 H 0.3797 0.81678 0.10329 0.0
H2148 H 0.34796 0.80695 0.08711 0.0
H2149 H 0.24836 0.85528 0.0538 0.0
H2150 H 0.25874 0.83219 0.07801 0.0
H2151 H 0.30479 0.82195 0.04282 0.0
H2152 H 0.29437 0.84516 0.01828 0.0
H2153 H 0.31684 0.82731 0.08089 0.0
H2154 H 0.26671 0.78828 0.04652 0.0
H2155 H 0.23428 0.78007 0.03119 0.0
H2156 H 0.20717 0.78062 0.0843 0.0
H2157 H 0.23943 0.78911 0.09991 0.0
C2158 C 0.32378 0.75601 0.14505 0.0
C2159 C 0.31064 0.75344 0.15987 0.0
C2160 C 0.31967 0.76657 0.12825 0.0
C2161 C 0.30258 0.77519 0.12615 0.0
C2162 C 0.28944 0.7725 0.14094 0.0
C2163 C 0.29346 0.76184 0.15762 0.0
C2164 C 0.29841 0.78737 0.10884 0.0
C2165 C 0.28018 0.7832 0.09949 0.0
C2166 C 0.31191 0.80332 0.10182 0.0
C2167 C 0.33098 0.80926 0.11151 0.0
C2168 C 0.33191 0.814 0.13046 0.0
C2169 C 0.34996 0.81949 0.13953 0.0
C2170 C 0.36717 0.82046 0.12975 0.0
C2171 C 0.36636 0.81599 0.11086 0.0
C2172 C 0.34835 0.81046 0.10173 0.0
C2173 C 0.26072 0.84816 0.05114 0.0
C2174 C 0.27051 0.85203 0.03406 0.0
C2175 C 0.26658 0.83489 0.065 0.0
C2176 C 0.2824 0.82519 0.06215 0.0
C2177 C 0.29249 0.82924 0.04526 0.0
C2178 C 0.2865 0.84245 0.03126 0.0
C2179 C 0.28826 0.81092 0.07699 0.0
C2180 C 0.30676 0.81471 0.08583 0.0
C2181 C 0.27494 0.79471 0.08368 0.0
C2182 C 0.2555 0.78947 0.07436 0.0
C2183 C 0.25383 0.78679 0.05491 0.0
C2184 C 0.23547 0.78206 0.04617 0.0
C2185 C 0.21867 0.77986 0.05676 0.0
C2186 C 0.2202 0.78234 0.07611 0.0
C2187 C 0.23852 0.78708 0.08492 0.0
H2188 H 0.20447 0.7762 0.04996 0.0
H2189 H 0.38112 0.82472 0.1368 0.0
H2190 H 0.97873 0.49684 0.11048 0.0
H2191 H 0.99968 0.49946 0.13893 0.0
H2192 H 0.04576 0.48044 0.10967 0.0
H2193 H 0.02551 0.4789 0.08079 0.0
H2194 H 0.03657 0.46106 0.14798 0.0
H2195 H 0.05185 0.52439 0.1148 0.0
H2196 H 0.0433 0.55465 0.09889 0.0
H2197 H 0.01734 0.56772 0.14934 0.0
H2198 H 0.02548 0.53736 0.16546 0.0
H2199 H 0.11628 0.48258 0.21322 0.0
H2200 H 0.09399 0.47771 0.18584 0.0
H2201 H 0.05834 0.51664 0.20687 0.0
H2202 H 0.08122 0.52237 0.23359 0.0
H2203 H 0.06123 0.52533 0.17253 0.0
H2204 H 0.04517 0.46397 0.20664 0.0
H2205 H 0.05101 0.43325 0.22362 0.0
H2206 H 0.07465 0.4155 0.1739 0.0
H2207 H 0.06918 0.44624 0.15667 0.0
C2208 C 0.9934 0.4935 0.10988 0.0
C2209 C 1.00029 0.48769 0.0931 0.0
C2210 C 0.0053 0.49482 0.12629 0.0
C2211 C 0.02425 0.49008 0.12643 0.0
C2212 C 0.03112 0.484 0.10991 0.0
C2213 C 0.01939 0.48303 0.0934 0.0
C2214 C 0.03709 0.49194 0.14367 0.0
C2215 C 0.04217 0.47509 0.1533 0.0
C2216 C 0.04385 0.5102 0.1509 0.0
C2217 C 0.03908 0.52851 0.14126 0.0
C2218 C 0.04416 0.53362 0.12244 0.0
C2219 C 0.03942 0.55081 0.1134 0.0
C2220 C 0.02973 0.56307 0.12308 0.0
C2221 C 0.02481 0.55819 0.14184 0.0
C2222 C 0.0295 0.54101 0.15094 0.0
C2223 C 0.10354 0.48988 0.2121 0.0
C2224 C 0.10049 0.50282 0.2256 0.0
C2225 C 0.09071 0.48704 0.19645 0.0
C2226 C 0.07419 0.49659 0.19424 0.0
C2227 C 0.07093 0.50912 0.20805 0.0
C2228 C 0.084 0.51233 0.22342 0.0
C2229 C 0.06084 0.49436 0.17718 0.0
C2230 C 0.05564 0.51119 0.16744 0.0
C2231 C 0.05362 0.476 0.17012 0.0
C2232 C 0.05694 0.4575 0.18042 0.0
C2233 C 0.05175 0.45358 0.19937 0.0
C2234 C 0.05497 0.43615 0.20903 0.0
C2235 C 0.06325 0.42245 0.19986 0.0
C2236 C 0.06827 0.42614 0.18099 0.0
C2237 C 0.06509 0.44355 0.17126 0.0
H2238 H 0.06573 0.40897 0.20737 0.0
H2239 H 0.02607 0.57637 0.11606 0.0
H2240 H 0.38292 0.71936 0.21568 0.0
H2241 H 0.40745 0.72836 0.24068 0.0
H2242 H 0.36436 0.70946 0.28267 0.0
H2243 H 0.33985 0.70081 0.25795 0.0
H2244 H 0.38363 0.74574 0.28756 0.0
H2245 H 0.39986 0.68275 0.27592 0.0
H2246 H 0.4098 0.65848 0.25617 0.0
H2247 H 0.46283 0.69669 0.24339 0.0
H2248 H 0.45306 0.72131 0.26287 0.0
H2249 H 0.46864 0.72015 0.35872 0.0
H2250 H 0.44336 0.71291 0.33416 0.0
H2251 H 0.44135 0.77432 0.3239 0.0
H2252 H 0.46458 0.78111 0.34997 0.0
H2253 H 0.4455 0.71929 0.30026 0.0
H2254 H 0.4177 0.78554 0.30157 0.0
H2255 H 0.40059 0.80932 0.31563 0.0
H2256 H 0.36406 0.7628 0.34537 0.0
H2257 H 0.3819 0.73889 0.33244 0.0
C2258 C 0.37872 0.71709 0.23025 0.0
C2259 C 0.35942 0.70931 0.23481 0.0
C2260 C 0.39279 0.72209 0.24452 0.0
C2261 C 0.38777 0.71948 0.26355 0.0
C2262 C 0.36859 0.71154 0.26809 0.0
C2263 C 0.35461 0.70647 0.25392 0.0
C2264 C 0.40195 0.72604 0.27888 0.0
C2265 C 0.39716 0.73988 0.29047 0.0
C2266 C 0.41974 0.71875 0.28235 0.0
C2267 C 0.42563 0.70395 0.27067 0.0
C2268 C 0.41356 0.68605 0.26876 0.0
C2269 C 0.41917 0.67221 0.25765 0.0
C2270 C 0.43691 0.67606 0.24849 0.0
C2271 C 0.44908 0.69374 0.25047 0.0
C2272 C 0.44352 0.70763 0.26155 0.0
C2273 C 0.46215 0.73196 0.35162 0.0
C2274 C 0.4682 0.75111 0.35647 0.0
C2275 C 0.44778 0.7279 0.33744 0.0
C2276 C 0.43982 0.74299 0.32704 0.0
C2277 C 0.44604 0.76218 0.33202 0.0
C2278 C 0.45974 0.76614 0.34681 0.0
C2279 C 0.42679 0.73846 0.31 0.0
C2280 C 0.43195 0.72513 0.29769 0.0
C2281 C 0.40921 0.74626 0.30581 0.0
C2282 C 0.40191 0.76055 0.31694 0.0
C2283 C 0.40666 0.78049 0.31184 0.0
C2284 C 0.39674 0.79397 0.31948 0.0
C2285 C 0.38137 0.78759 0.33154 0.0
C2286 C 0.37612 0.76774 0.3362 0.0
C2287 C 0.38645 0.75426 0.32909 0.0
H2288 H 0.37347 0.798 0.33721 0.0
H2289 H 0.44123 0.66533 0.23989 0.0
H2290 H 0.02519 0.45246 0.00345 0.0
H2291 H 0.02963 0.42359 0.98734 0.0
H2292 H 0.97016 0.39851 0.99832 0.0
H2293 H 0.96564 0.42746 0.01439 0.0
H2294 H 0.99587 0.37163 0.00483 0.0
H2295 H 0.98164 0.41909 0.95575 0.0
H2296 H 0.98644 0.45099 0.93799 0.0
H2297 H 0.04451 0.44304 0.92517 0.0
H2298 H 0.04015 0.41118 0.9431 0.0
H2299 H 0.97497 0.30107 0.93841 0.0
H2300 H 0.97683 0.32874 0.95757 0.0
H2301 H 0.03511 0.34953 0.93906 0.0
H2302 H 0.03327 0.32171 0.91931 0.0
H2303 H 0.01359 0.37865 0.93755 0.0
H2304 H 0.02712 0.33 0.98428 0.0
H2305 H 0.02249 0.29802 1.00191 0.0
H2306 H 0.96658 0.30801 0.01941 0.0
H2307 H 0.97073 0.33994 1.00165 0.0
C2308 C 0.01315 0.44066 0.00266 0.0
C2309 C 0.99522 0.44205 0.0106 0.0
C2310 C 0.01566 0.42422 0.99335 0.0
C2311 C 1.00022 0.40886 0.99156 0.0
C2312 C 0.98233 0.4101 0.99962 0.0
C2313 C 0.97977 0.42663 0.00885 0.0
C2314 C 1.00256 0.39174 0.98085 0.0
C2315 C 0.99956 0.37313 0.99007 0.0
C2316 C 0.00802 0.39373 0.96175 0.0
C2317 C 0.01065 0.41286 0.95094 0.0
C2318 C 0.9955 0.42422 0.94928 0.0
C2319 C 0.99812 0.44228 0.93916 0.0
C2320 C 0.01579 0.44907 0.9305 0.0
C2321 C 0.03085 0.43778 0.93191 0.0
C2322 C 0.0283 0.41971 0.94204 0.0
C2323 C 0.98833 0.31136 0.93842 0.0
C2324 C 0.00401 0.30902 0.92723 0.0
C2325 C 0.98938 0.32721 0.94955 0.0
C2326 C 0.00619 0.34117 0.95002 0.0
C2327 C 0.02199 0.33891 0.93901 0.0
C2328 C 0.02096 0.32293 0.92779 0.0
C2329 C 0.00665 0.35843 0.96144 0.0
C2330 C 0.01013 0.3771 0.95237 0.0
C2331 C 1.00173 0.35649 0.98071 0.0
C2332 C 0.99919 0.33733 0.99151 0.0
C2333 C 0.01377 0.32533 0.99178 0.0
C2334 C 0.01124 0.30721 1.00181 0.0
C2335 C 0.99424 0.30098 0.01174 0.0
C2336 C 0.97974 0.31286 0.0117 0.0
C2337 C 0.98219 0.33098 1.00167 0.0
H2338 H 0.99231 0.28695 0.0195 0.0
H2339 H 0.01779 0.46305 0.92267 0.0
H2340 H 0.65808 0.83862 0.22905 0.0
H2341 H 0.6323 0.83574 0.25197 0.0
H2342 H 0.64696 0.78015 0.27331 0.0
H2343 H 0.6723 0.78273 0.2499 0.0
H2344 H 0.60973 0.778 0.27283 0.0
H2345 H 0.66207 0.82409 0.29573 0.0
H2346 H 0.68672 0.85356 0.29407 0.0
H2347 H 0.64141 0.88914 0.28524 0.0
H2348 H 0.61649 0.85984 0.28655 0.0
H2349 H 0.57337 0.77312 0.36454 0.0
H2350 H 0.59678 0.78015 0.33944 0.0
H2351 H 0.56215 0.82057 0.31149 0.0
H2352 H 0.53816 0.81326 0.33653 0.0
H2353 H 0.6077 0.8318 0.31452 0.0
H2354 H 0.5554 0.78319 0.29309 0.0
H2355 H 0.53253 0.75259 0.29698 0.0
H2356 H 0.58065 0.72057 0.3059 0.0
H2357 H 0.60381 0.75105 0.30237 0.0
C2358 C 0.65571 0.82574 0.23858 0.0
C2359 C 0.66726 0.81094 0.23775 0.0
C2360 C 0.64104 0.82415 0.25177 0.0
C2361 C 0.63789 0.80792 0.26474 0.0
C2362 C 0.64908 0.79285 0.26354 0.0
C2363 C 0.66355 0.79431 0.25013 0.0
C2364 C 0.62315 0.80671 0.27967 0.0
C2365 C 0.60945 0.78976 0.28198 0.0
C2366 C 0.62248 0.8221 0.2916 0.0
C2367 C 0.63742 0.83976 0.29104 0.0
C2368 C 0.65737 0.83819 0.29331 0.0
C2369 C 0.67139 0.85486 0.29244 0.0
C2370 C 0.66563 0.87321 0.2895 0.0
C2371 C 0.64584 0.87492 0.28748 0.0
C2372 C 0.63176 0.85828 0.2883 0.0
C2373 C 0.57078 0.78374 0.35324 0.0
C2374 C 0.5538 0.79258 0.35253 0.0
C2375 C 0.58421 0.78771 0.33888 0.0
C2376 C 0.58114 0.80077 0.32357 0.0
C2377 C 0.56476 0.81043 0.32322 0.0
C2378 C 0.55109 0.80624 0.33752 0.0
C2379 C 0.5945 0.80317 0.30751 0.0
C2380 C 0.60795 0.82024 0.30513 0.0
C2381 C 0.59522 0.78778 0.29574 0.0
C2382 C 0.58133 0.76942 0.29765 0.0
C2383 C 0.5611 0.76965 0.29605 0.0
C2384 C 0.54809 0.75232 0.29816 0.0
C2385 C 0.55513 0.73465 0.30173 0.0
C2386 C 0.57521 0.73427 0.30315 0.0
C2387 C 0.58829 0.75157 0.30108 0.0
H2388 H 0.54503 0.72125 0.30335 0.0
H2389 H 0.67651 0.88609 0.28882 0.0
H2390 H 0.00513 0.08339 0.02671 0.0
H2391 H 0.99845 0.11137 0.0063 0.0
H2392 H 0.05999 0.12759 0.99719 0.0
H2393 H 0.06685 0.09994 0.01819 0.0
H2394 H 0.04389 0.15869 0.00409 0.0
H2395 H 0.02878 0.1066 0.963 0.0
H2396 H 0.0129 0.07463 0.95321 0.0
H2397 H 0.95661 0.09218 0.95729 0.0
H2398 H 0.97216 0.12417 0.96736 0.0
H2399 H 0.03557 0.22679 0.92619 0.0
H2400 H 0.04213 0.19894 0.9468 0.0
H2401 H 0.98078 0.18406 0.95742 0.0
H2402 H 0.97399 0.21186 0.93663 0.0
H2403 H 0.99673 0.15235 0.94974 0.0
H2404 H 0.01212 0.20462 0.99075 0.0
H2405 H 0.02824 0.23662 1.00022 0.0
H2406 H 0.08433 0.21873 0.99592 0.0
H2407 H 0.06855 0.18669 0.98616 0.0
C2408 C 0.01728 0.09295 0.02046 0.0
C2409 C 0.03655 0.08941 0.02416 0.0
C2410 C 0.01341 0.10886 0.00861 0.0
C2411 C 0.02869 0.12154 1.00003 0.0
C2412 C 0.04794 0.11801 0.00361 0.0
C2413 C 0.05183 0.10208 0.01549 0.0
C2414 C 0.02458 0.13869 0.98767 0.0
C2415 C 0.0338 0.15726 0.99204 0.0
C2416 C 0.01103 0.13693 0.9722 0.0
C2417 C 1.00164 0.11772 0.96611 0.0
C2418 C 0.01301 0.10359 0.96196 0.0
C2419 C 0.00407 0.08547 0.95633 0.0
C2420 C 0.98376 0.08136 0.95468 0.0
C2421 C 0.97235 0.09538 0.9586 0.0
C2422 C 0.98122 0.11351 0.96425 0.0
C2423 C 0.02342 0.2177 0.93295 0.0
C2424 C 0.00422 0.22168 0.92973 0.0
C2425 C 0.02724 0.20177 0.94481 0.0
C2426 C 0.01198 0.18947 0.95381 0.0
C2427 C 0.9928 0.19336 0.95065 0.0
C2428 C 0.98896 0.20934 0.93882 0.0
C2429 C 0.01604 0.17233 0.96617 0.0
C2430 C 0.00682 0.15377 0.9618 0.0
C2431 C 0.02962 0.17409 0.9816 0.0
C2432 C 0.03915 0.19331 0.98755 0.0
C2433 C 0.0279 0.20756 0.99167 0.0
C2434 C 0.03697 0.22569 0.99712 0.0
C2435 C 0.0573 0.22972 0.99862 0.0
C2436 C 0.06859 0.2156 0.99473 0.0
C2437 C 0.05959 0.19744 0.98925 0.0
H2438 H 0.06429 0.24377 0.00284 0.0
H2439 H 0.97686 0.06733 0.95032 0.0
H2440 H 0.37119 0.33448 0.27072 0.0
H2441 H 0.39895 0.32596 0.25441 0.0
H2442 H 0.36765 0.26831 0.24807 0.0
H2443 H 0.34026 0.27663 0.26472 0.0
H2444 H 0.40452 0.26625 0.25734 0.0
H2445 H 0.37078 0.30539 0.21172 0.0
H2446 H 0.35742 0.33495 0.19999 0.0
H2447 H 0.41444 0.36856 0.20436 0.0
H2448 H 0.42809 0.33922 0.21633 0.0
H2449 H 0.44908 0.23118 0.18308 0.0
H2450 H 0.42679 0.2437 0.20294 0.0
H2451 H 0.46474 0.29873 0.20285 0.0
H2452 H 0.48703 0.28641 0.18234 0.0
H2453 H 0.42806 0.30467 0.19925 0.0
H2454 H 0.4625 0.26512 0.24184 0.0
H2455 H 0.47609 0.23566 0.25341 0.0
H2456 H 0.41842 0.20312 0.25525 0.0
H2457 H 0.40449 0.23232 0.24344 0.0
C2458 C 0.37044 0.31991 0.2661 0.0
C2459 C 0.35371 0.30612 0.26927 0.0
C2460 C 0.38621 0.3151 0.25663 0.0
C2461 C 0.38537 0.29652 0.2498 0.0
C2462 C 0.36874 0.2827 0.25322 0.0
C2463 C 0.35307 0.28747 0.26276 0.0
C2464 C 0.40149 0.2914 0.23876 0.0
C2465 C 0.40955 0.27459 0.24456 0.0
C2466 C 0.40859 0.30258 0.2224 0.0
C2467 C 0.4004 0.32017 0.2151 0.0
C2468 C 0.38043 0.31911 0.21029 0.0
C2469 C 0.37282 0.33582 0.20359 0.0
C2470 C 0.38506 0.35363 0.20148 0.0
C2471 C 0.40496 0.35476 0.20603 0.0
C2472 C 0.41265 0.3381 0.21276 0.0
C2473 C 0.4528 0.24595 0.18728 0.0
C2474 C 0.47001 0.25771 0.18121 0.0
C2475 C 0.44002 0.25308 0.19876 0.0
C2476 C 0.44424 0.27204 0.20482 0.0
C2477 C 0.4612 0.284 0.19849 0.0
C2478 C 0.47395 0.27693 0.18678 0.0
C2479 C 0.43074 0.27924 0.21757 0.0
C2480 C 0.4232 0.29645 0.21214 0.0
C2481 C 0.42416 0.26846 0.23433 0.0
C2482 C 0.43247 0.2509 0.24164 0.0
C2483 C 0.45272 0.25166 0.24461 0.0
C2484 C 0.46048 0.23501 0.25122 0.0
C2485 C 0.44813 0.21752 0.25503 0.0
C2486 C 0.42798 0.21667 0.25229 0.0
C2487 C 0.42014 0.23328 0.24566 0.0
H2488 H 0.45417 0.20464 0.26014 0.0
H2489 H 0.37913 0.36655 0.1963 0.0
H2490 H 0.53114 0.42129 0.98981 0.0
H2491 H 0.52175 0.39254 0.0111 0.0
H2492 H 0.54821 0.4237 0.05812 0.0
H2493 H 0.55704 0.45264 0.03717 0.0
H2494 H 0.56052 0.38757 0.05535 0.0
H2495 H 0.50044 0.41462 0.05427 0.0
H2496 H 0.47195 0.42713 0.03891 0.0
H2497 H 0.45377 0.37236 0.01466 0.0
H2498 H 0.48232 0.35961 0.02968 0.0
H2499 H 0.53327 0.32055 0.13091 0.0
H2500 H 0.53689 0.34998 0.10987 0.0
H2501 H 0.50102 0.31919 0.06735 0.0
H2502 H 0.49673 0.28986 0.0887 0.0
H2503 H 0.4931 0.35461 0.06662 0.0
H2504 H 0.55197 0.32713 0.06619 0.0
H2505 H 0.58078 0.31371 0.07967 0.0
H2506 H 0.60188 0.36784 0.10406 0.0
H2507 H 0.57304 0.3815 0.09093 0.0
C2508 C 0.53463 0.42218 0.00473 0.0
C2509 C 0.54504 0.43929 0.0117 0.0
C2510 C 0.52932 0.40569 0.01687 0.0
C2511 C 0.53434 0.40598 0.03618 0.0
C2512 C 0.54432 0.42312 0.04324 0.0
C2513 C 0.54946 0.43963 0.03119 0.0
C2514 C 0.53004 0.38821 0.04898 0.0
C2515 C 0.54577 0.3805 0.05802 0.0
C2516 C 0.51084 0.3786 0.0519 0.0
C2517 C 0.49363 0.38623 0.04294 0.0
C2518 C 0.49046 0.4053 0.04553 0.0
C2519 C 0.47428 0.41242 0.03691 0.0
C2520 C 0.46109 0.40057 0.02577 0.0
C2521 C 0.46401 0.38154 0.02327 0.0
C2522 C 0.48018 0.37435 0.03185 0.0
C2523 C 0.52598 0.3201 0.11715 0.0
C2524 C 0.51484 0.30285 0.11141 0.0
C2525 C 0.52816 0.33691 0.10507 0.0
C2526 C 0.51964 0.33673 0.08679 0.0
C2527 C 0.50784 0.31971 0.08132 0.0
C2528 C 0.5054 0.30294 0.09353 0.0
C2529 C 0.5236 0.35407 0.07327 0.0
C2530 C 0.50786 0.36165 0.06399 0.0
C2531 C 0.54285 0.36342 0.06985 0.0
C2532 C 0.56025 0.35527 0.07773 0.0
C2533 C 0.56268 0.33612 0.07454 0.0
C2534 C 0.57903 0.32848 0.0821 0.0
C2535 C 0.59313 0.3399 0.09275 0.0
C2536 C 0.59093 0.359 0.09583 0.0
C2537 C 0.5746 0.36671 0.08832 0.0
H2538 H 0.60577 0.33395 0.09859 0.0
H2539 H 0.44857 0.40611 0.01911 0.0
H2540 H 0.65403 0.20844 0.31317 0.0
H2541 H 0.62667 0.21096 0.29057 0.0
H2542 H 0.66687 0.22304 0.24514 0.0
H2543 H 0.69425 0.22009 0.26764 0.0
H2544 H 0.63721 0.24998 0.24783 0.0
H2545 H 0.64356 0.18192 0.24617 0.0
H2546 H 0.64551 0.14909 0.26065 0.0
H2547 H 0.589 0.14683 0.28384 0.0
H2548 H 0.58685 0.1798 0.26972 0.0
H2549 H 0.57065 0.2464 0.16996 0.0
H2550 H 0.5977 0.24279 0.19227 0.0
H2551 H 0.55761 0.21016 0.23174 0.0
H2552 H 0.53063 0.21282 0.20893 0.0
H2553 H 0.58751 0.19372 0.23284 0.0
H2554 H 0.57968 0.26015 0.23612 0.0
H2555 H 0.57661 0.29364 0.22423 0.0
H2556 H 0.6338 0.30036 0.20154 0.0
H2557 H 0.63711 0.2668 0.21308 0.0
C2558 C 0.65698 0.21153 0.29834 0.0
C2559 C 0.67622 0.21401 0.29211 0.0
C2560 C 0.64138 0.21294 0.28547 0.0
C2561 C 0.64478 0.21719 0.26621 0.0
C2562 C 0.66397 0.21975 0.25996 0.0
C2563 C 0.67955 0.21795 0.27277 0.0
C2564 C 0.62828 0.2192 0.25264 0.0
C2565 C 0.62645 0.23768 0.24431 0.0
C2566 C 0.61391 0.20326 0.24866 0.0
C2567 C 0.61514 0.18341 0.25706 0.0
C2568 C 0.63163 0.1745 0.2545 0.0
C2569 C 0.63276 0.15585 0.26261 0.0
C2570 C 0.61741 0.1459 0.27321 0.0
C2571 C 0.60089 0.15457 0.27566 0.0
C2572 C 0.5997 0.17322 0.2676 0.0
C2573 C 0.56758 0.23855 0.18344 0.0
C2574 C 0.54847 0.23001 0.18773 0.0
C2575 C 0.58308 0.23657 0.19627 0.0
C2576 C 0.57977 0.22655 0.21397 0.0
C2577 C 0.56064 0.21799 0.21825 0.0
C2578 C 0.54519 0.21958 0.20522 0.0
C2579 C 0.59628 0.22462 0.2278 0.0
C2580 C 0.59816 0.20614 0.23627 0.0
C2581 C 0.61048 0.24069 0.23224 0.0
C2582 C 0.60856 0.26089 0.22531 0.0
C2583 C 0.59155 0.26872 0.22848 0.0
C2584 C 0.58977 0.28772 0.22182 0.0
C2585 C 0.60498 0.2991 0.21209 0.0
C2586 C 0.62202 0.29152 0.20905 0.0
C2587 C 0.62386 0.27252 0.21567 0.0
H2588 H 0.60358 0.31381 0.20695 0.0
H2589 H 0.61831 0.13146 0.27947 0.0
H2590 H 0.5116 0.10451 0.9939 0.0
H2591 H 0.51892 0.13218 0.01368 0.0
H2592 H 0.4883 0.09841 0.05936 0.0
H2593 H 0.48186 0.07046 0.0401 0.0
H2594 H 0.49662 0.15341 0.02874 0.0
H2595 H 0.507 0.11278 0.10167 0.0
H2596 H 0.51901 0.08301 0.11492 0.0
H2597 H 0.55456 0.08347 0.06684 0.0
H2598 H 0.54299 0.11339 0.05343 0.0
H2599 H 0.48598 0.21318 0.10302 0.0
H2600 H 0.4839 0.18708 0.08139 0.0
H2601 H 0.54469 0.18289 0.09317 0.0
H2602 H 0.54651 0.20868 0.1153 0.0
H2603 H 0.52498 0.1481 0.09369 0.0
H2604 H 0.52815 0.20392 0.05068 0.0
H2605 H 0.51886 0.23473 0.0368 0.0
H2606 H 0.46134 0.20564 0.02358 0.0
H2607 H 0.47021 0.1747 0.03761 0.0
C2608 C 0.50672 0.10284 0.00826 0.0
C2609 C 0.49613 0.08517 0.01534 0.0
C2610 C 0.51075 0.11877 0.01951 0.0
C2611 C 0.50433 0.1174 0.03812 0.0
C2612 C 0.49372 0.09981 0.04519 0.0
C2613 C 0.48981 0.08386 0.03402 0.0
C2614 C 0.50831 0.13445 0.05 0.0
C2615 C 0.50285 0.15223 0.04293 0.0
C2616 C 0.51676 0.13312 0.06845 0.0
C2617 C 0.52396 0.11521 0.07646 0.0
C2618 C 0.51743 0.10656 0.09396 0.0
C2619 C 0.52416 0.08966 0.10149 0.0
C2620 C 0.53748 0.08131 0.0917 0.0
C2621 C 0.54417 0.0899 0.07438 0.0
C2622 C 0.53752 0.10682 0.06679 0.0
C2623 C 0.49881 0.20649 0.10109 0.0
C2624 C 0.51621 0.21234 0.11126 0.0
C2625 C 0.49771 0.19179 0.08853 0.0
C2626 C 0.51416 0.183 0.08553 0.0
C2627 C 0.53176 0.18932 0.09531 0.0
C2628 C 0.53282 0.20404 0.10791 0.0
C2629 C 0.51284 0.16688 0.07262 0.0
C2630 C 0.51877 0.14928 0.0795 0.0
C2631 C 0.50515 0.16848 0.05391 0.0
C2632 C 0.49981 0.18702 0.04532 0.0
C2633 C 0.51348 0.20412 0.04491 0.0
C2634 C 0.5083 0.2216 0.03701 0.0
C2635 C 0.48951 0.22215 0.02935 0.0
C2636 C 0.47589 0.2052 0.02953 0.0
C2637 C 0.48099 0.18768 0.03744 0.0
H2638 H 0.48553 0.2357 0.02324 0.0
H2639 H 0.54266 0.06822 0.09755 0.0
H2640 H 0.25524 0.33827 0.70753 0.0
H2641 H 0.27805 0.36854 0.7079 0.0
H2642 H 0.23043 0.40036 0.71459 0.0
H2643 H 0.20736 0.37018 0.71378 0.0
H2644 H 0.28186 0.4038 0.68634 0.0
H2645 H 0.24706 0.43493 0.7466 0.0
H2646 H 0.22542 0.4239 0.77316 0.0
H2647 H 0.24579 0.36858 0.77714 0.0
H2648 H 0.26772 0.37939 0.7508 0.0
H2649 H 0.34522 0.49283 0.70484 0.0
H2650 H 0.31726 0.46885 0.69653 0.0
H2651 H 0.32123 0.43978 0.75194 0.0
H2652 H 0.34654 0.46576 0.76099 0.0
H2653 H 0.28744 0.43778 0.74569 0.0
H2654 H 0.33446 0.41857 0.69864 0.0
H2655 H 0.35633 0.42725 0.67158 0.0
H2656 H 0.31239 0.45555 0.64174 0.0
H2657 H 0.29047 0.44693 0.66852 0.0
C2658 C 0.2495 0.35173 0.70865 0.0
C2659 C 0.22942 0.3517 0.71075 0.0
C2660 C 0.26261 0.36904 0.70892 0.0
C2661 C 0.25597 0.38668 0.71144 0.0
C2662 C 0.23589 0.38687 0.71285 0.0
C2663 C 0.22275 0.36957 0.71249 0.0
C2664 C 0.27026 0.40454 0.71381 0.0
C2665 C 0.28315 0.41126 0.69933 0.0
C2666 C 0.27174 0.41446 0.73059 0.0
C2667 C 0.25882 0.40789 0.7466 0.0
C2668 C 0.24694 0.42043 0.75319 0.0
C2669 C 0.23463 0.41422 0.7682 0.0
C2670 C 0.23417 0.39553 0.77678 0.0
C2671 C 0.24609 0.38303 0.77043 0.0
C2672 C 0.25845 0.38919 0.75546 0.0
C2673 C 0.34013 0.48114 0.71511 0.0
C2674 C 0.34893 0.48038 0.73323 0.0
C2675 C 0.32429 0.46715 0.71025 0.0
C2676 C 0.3173 0.45171 0.72323 0.0
C2677 C 0.32614 0.45125 0.74141 0.0
C2678 C 0.34118 0.46578 0.7465 0.0
C2679 C 0.3003 0.4365 0.7187 0.0
C2680 C 0.28644 0.43043 0.73267 0.0
C2681 C 0.29803 0.42708 0.70149 0.0
C2682 C 0.31124 0.43261 0.68568 0.0
C2683 C 0.32977 0.42693 0.68638 0.0
C2684 C 0.34205 0.43172 0.67111 0.0
C2685 C 0.33584 0.44215 0.65508 0.0
C2686 C 0.31725 0.4476 0.6542 0.0
C2687 C 0.30489 0.44271 0.66938 0.0
H2688 H 0.34538 0.44587 0.64329 0.0
H2689 H 0.22462 0.39074 0.78838 0.0
H2690 H 0.2407 0.6534 0.80842 0.0
H2691 H 0.25986 0.62715 0.80458 0.0
H2692 H 0.31023 0.66961 0.79158 0.0
H2693 H 0.29124 0.6958 0.79559 0.0
H2694 H 0.30291 0.64153 0.76572 0.0
H2695 H 0.30825 0.64437 0.8334 0.0
H2696 H 0.29541 0.64351 0.86531 0.0
H2697 H 0.26536 0.58571 0.85896 0.0
H2698 H 0.27782 0.58633 0.82689 0.0
H2699 H 0.37701 0.58384 0.76434 0.0
H2700 H 0.35727 0.6079 0.77276 0.0
H2701 H 0.31253 0.56192 0.79251 0.0
H2702 H 0.33261 0.53773 0.78468 0.0
H2703 H 0.31515 0.5905 0.81498 0.0
H2704 H 0.30908 0.58658 0.74828 0.0
H2705 H 0.32028 0.58665 0.71582 0.0
H2706 H 0.34919 0.6453 0.71925 0.0
H2707 H 0.33839 0.64549 0.75185 0.0
C2708 C 0.25597 0.65711 0.80516 0.0
C2709 C 0.26464 0.67669 0.80283 0.0
C2710 C 0.26689 0.6421 0.80292 0.0
C2711 C 0.28655 0.6464 0.79796 0.0
C2712 C 0.29513 0.66592 0.79551 0.0
C2713 C 0.28431 0.68087 0.79792 0.0
C2714 C 0.29806 0.63069 0.79446 0.0
C2715 C 0.30579 0.63051 0.77656 0.0
C2716 C 0.30124 0.61589 0.80838 0.0
C2717 C 0.2938 0.61548 0.82767 0.0
C2718 C 0.29877 0.63154 0.83874 0.0
C2719 C 0.29159 0.63109 0.85687 0.0
C2720 C 0.27953 0.61459 0.86413 0.0
C2721 C 0.27468 0.59849 0.8533 0.0
C2722 C 0.2818 0.59888 0.83516 0.0
C2723 C 0.36304 0.57883 0.77063 0.0
C2724 C 0.35633 0.55885 0.77371 0.0
C2725 C 0.35168 0.59262 0.77535 0.0
C2726 C 0.33313 0.58679 0.78287 0.0
C2727 C 0.32671 0.56684 0.78664 0.0
C2728 C 0.33821 0.55301 0.78214 0.0
C2729 C 0.32033 0.60152 0.78628 0.0
C2730 C 0.31227 0.60148 0.80411 0.0
C2731 C 0.31658 0.61602 0.77219 0.0
C2732 C 0.32308 0.61598 0.75257 0.0
C2733 C 0.31795 0.59944 0.74216 0.0
C2734 C 0.3242 0.59944 0.72373 0.0
C2735 C 0.33548 0.61595 0.7155 0.0
C2736 C 0.34048 0.63251 0.72566 0.0
C2737 C 0.33428 0.63258 0.74411 0.0
H2738 H 0.3403 0.61592 0.70122 0.0
H2739 H 0.27399 0.61426 0.87817 0.0
H2740 H 0.94978 0.52592 0.52152 0.0
H2741 H 0.9176 0.50587 0.52356 0.0
H2742 H 0.91087 0.51053 0.46295 0.0
H2743 H 0.94298 0.5306 0.46082 0.0
H2744 H 0.87824 0.51811 0.48162 0.0
H2745 H 0.92147 0.46963 0.48411 0.0
H2746 H 0.94897 0.45373 0.4971 0.0
H2747 H 0.92165 0.44307 0.55067 0.0
H2748 H 0.8941 0.45915 0.53806 0.0
H2749 H 0.80199 0.44607 0.45821 0.0
H2750 H 0.83284 0.46692 0.46269 0.0
H2751 H 0.8332 0.44968 0.5221 0.0
H2752 H 0.80215 0.42809 0.51766 0.0
H2753 H 0.86834 0.44985 0.50837 0.0
H2754 H 0.82388 0.49538 0.50595 0.0
H2755 H 0.79626 0.51158 0.49389 0.0
H2756 H 0.82546 0.52878 0.44199 0.0
H2757 H 0.85316 0.51244 0.45363 0.0
C2758 C 0.94142 0.52266 0.50864 0.0
C2759 C 0.94891 0.52982 0.491 0.0
C2760 C 0.9231 0.51114 0.50983 0.0
C2761 C 0.91187 0.50667 0.49341 0.0
C2762 C 0.9193 0.51381 0.4758 0.0
C2763 C 0.9377 0.52514 0.47459 0.0
C2764 C 0.89223 0.49479 0.4945 0.0
C2765 C 0.87607 0.50313 0.48732 0.0
C2766 C 0.88932 0.47551 0.50265 0.0
C2767 C 0.90584 0.46579 0.51021 0.0
C2768 C 0.92141 0.46405 0.49871 0.0
C2769 C 0.93699 0.45497 0.50599 0.0
C2770 C 0.93709 0.44745 0.52471 0.0
C2771 C 0.92157 0.44893 0.53618 0.0
C2772 C 0.90597 0.45802 0.52897 0.0
C2773 C 0.80841 0.44673 0.47234 0.0
C2774 C 0.79938 0.4354 0.48762 0.0
C2775 C 0.82612 0.4588 0.47487 0.0
C2776 C 0.83524 0.4602 0.49279 0.0
C2777 C 0.82638 0.44894 0.50815 0.0
C2778 C 0.80859 0.43666 0.5056 0.0
C2779 C 0.85432 0.47301 0.49504 0.0
C2780 C 0.8704 0.4649 0.50288 0.0
C2781 C 0.85715 0.49261 0.48769 0.0
C2782 C 0.84056 0.50256 0.48064 0.0
C2783 C 0.82437 0.5025 0.49192 0.0
C2784 C 0.8087 0.51173 0.48516 0.0
C2785 C 0.80909 0.52118 0.46717 0.0
C2786 C 0.82518 0.52146 0.45592 0.0
C2787 C 0.84088 0.51224 0.4626 0.0
H2788 H 0.79695 0.52831 0.46197 0.0
H2789 H 0.94916 0.44042 0.53033 0.0
H2790 H 0.80986 0.87512 0.81278 0.0
H2791 H 0.78602 0.89786 0.80811 0.0
H2792 H 0.73926 0.8506 0.81867 0.0
H2793 H 0.76306 0.8279 0.82379 0.0
H2794 H 0.73511 0.87741 0.78426 0.0
H2795 H 0.74844 0.87715 0.85159 0.0
H2796 H 0.77005 0.88048 0.87994 0.0
H2797 H 0.79204 0.93923 0.86104 0.0
H2798 H 0.77076 0.93614 0.83242 0.0
H2799 H 0.65817 0.93297 0.78539 0.0
H2800 H 0.68028 0.90927 0.7935 0.0
H2801 H 0.7269 0.95596 0.80447 0.0
H2802 H 0.70452 0.97956 0.7974 0.0
H2803 H 0.73116 0.92857 0.82843 0.0
H2804 H 0.72075 0.9304 0.76153 0.0
H2805 H 0.7019 0.92857 0.73139 0.0
H2806 H 0.67784 0.86939 0.7466 0.0
H2807 H 0.69638 0.87094 0.77696 0.0
C2808 C 0.7945 0.86961 0.81412 0.0
C2809 C 0.78831 0.84975 0.8187 0.0
C2810 C 0.78091 0.8826 0.8115 0.0
C2811 C 0.76087 0.87592 0.81307 0.0
C2812 C 0.75464 0.85606 0.8174 0.0
C2813 C 0.76824 0.84314 0.82041 0.0
C2814 C 0.74641 0.88965 0.8101 0.0
C2815 C 0.73401 0.88844 0.79403 0.0
C2816 C 0.74547 0.90443 0.82252 0.0
C2817 C 0.75816 0.90634 0.83978 0.0
C2818 C 0.75802 0.89072 0.8534 0.0
C2819 C 0.77018 0.89257 0.86953 0.0
C2820 C 0.78245 0.91004 0.87227 0.0
C2821 C 0.78255 0.9257 0.85889 0.0
C2822 C 0.77043 0.92391 0.84272 0.0
C2823 C 0.67308 0.93815 0.78975 0.0
C2824 C 0.67959 0.95815 0.7907 0.0
C2825 C 0.68581 0.92458 0.79421 0.0
C2826 C 0.70553 0.93073 0.79916 0.0
C2827 C 0.71184 0.95072 0.80066 0.0
C2828 C 0.69901 0.96425 0.7966 0.0
C2829 C 0.71964 0.91647 0.80246 0.0
C2830 C 0.73209 0.91756 0.8186 0.0
C2831 C 0.72095 0.90185 0.78983 0.0
C2832 C 0.70978 0.90086 0.7716 0.0
C2833 C 0.71133 0.91704 0.75851 0.0
C2834 C 0.70072 0.91605 0.74138 0.0
C2835 C 0.68864 0.8989 0.73711 0.0
C2836 C 0.68718 0.88268 0.74994 0.0
C2837 C 0.69774 0.8836 0.76711 0.0
H2838 H 0.68044 0.89816 0.72384 0.0
H2839 H 0.79185 0.91145 0.88477 0.0
H2840 H 0.61137 0.46953 1.00228 0.0
H2841 H 0.64274 0.48827 0.01083 0.0
H2842 H 0.62069 0.54139 0.99291 0.0
H2843 H 0.5889 0.52287 0.98545 0.0
H2844 H 0.6698 0.5113 0.99299 0.0
H2845 H 0.63801 0.57649 0.0176 0.0
H2846 H 0.60861 0.58329 0.03269 0.0
H2847 H 0.6003 0.5256 0.05934 0.0
H2848 H 0.62988 0.51863 0.04466 0.0
H2849 H 0.74294 0.59243 0.99479 0.0
H2850 H 0.71488 0.56732 0.99093 0.0
H2851 H 0.70435 0.56623 0.05048 0.0
H2852 H 0.73196 0.59247 0.05397 0.0
H2853 H 0.67221 0.56609 0.03425 0.0
H2854 H 0.72083 0.52689 0.02709 0.0
H2855 H 0.75074 0.51734 0.01542 0.0
H2856 H 0.72639 0.51829 0.95895 0.0
H2857 H 0.69643 0.52809 0.97024 0.0
C2858 C 0.61307 0.48523 1.00037 0.0
C2859 C 0.59742 0.49466 0.99342 0.0
C2860 C 0.63113 0.49591 0.00508 0.0
C2861 C 0.63403 0.51628 0.00286 0.0
C2862 C 0.61871 0.52571 0.99519 0.0
C2863 C 0.60058 0.51506 0.99066 0.0
C2864 C 0.65294 0.52769 0.0088 0.0
C2865 C 0.67035 0.52336 1.00194 0.0
C2866 C 0.65381 0.54294 0.02105 0.0
C2867 C 0.63619 0.54711 0.03013 0.0
C2868 C 0.63006 0.56538 0.02689 0.0
C2869 C 0.61332 0.56922 0.03531 0.0
C2870 C 0.60261 0.55489 0.04699 0.0
C2871 C 0.60862 0.53669 0.05029 0.0
C2872 C 0.62536 0.53279 0.04193 0.0
C2873 C 0.73458 0.58681 0.00703 0.0
C2874 C 0.73902 0.59484 0.02449 0.0
C2875 C 0.71872 0.57215 0.00492 0.0
C2876 C 0.70737 0.56463 0.02042 0.0
C2877 C 0.71268 0.57184 0.03822 0.0
C2878 C 0.72847 0.58675 0.04026 0.0
C2879 C 0.68918 0.55051 0.01761 0.0
C2880 C 0.67182 0.5542 0.02517 0.0
C2881 C 0.68847 0.53436 0.00638 0.0
C2882 C 0.70641 0.52832 0.99951 0.0
C2883 C 0.72189 0.52516 0.01217 0.0
C2884 C 0.73885 0.51969 0.00562 0.0
C2885 C 0.74047 0.51723 0.98646 0.0
C2886 C 0.72511 0.52019 0.9738 0.0
C2887 C 0.70812 0.52567 0.98027 0.0
H2888 H 0.75362 0.51301 0.98141 0.0
H2889 H 0.58963 0.55789 0.05347 0.0
H2890 H 0.29544 0.66053 0.18264 0.0
H2891 H 0.27077 0.63181 0.18799 0.0
H2892 H 0.27428 0.63983 0.24767 0.0
H2893 H 0.29859 0.66868 0.24245 0.0
H2894 H 0.27533 0.60228 0.24058 0.0
H2895 H 0.2361 0.65177 0.22102 0.0
H2896 H 0.22531 0.6779 0.19991 0.0
H2897 H 0.21186 0.6384 0.15592 0.0
H2898 H 0.22284 0.61208 0.1767 0.0
H2899 H 0.19047 0.54394 0.27412 0.0
H2900 H 0.21634 0.57032 0.26491 0.0
H2901 H 0.20553 0.55777 0.2065 0.0
H2902 H 0.17916 0.53147 0.21583 0.0
H2903 H 0.20918 0.59606 0.21038 0.0
H2904 H 0.24623 0.54586 0.23107 0.0
H2905 H 0.2563 0.51975 0.25268 0.0
H2906 H 0.27342 0.56055 0.29498 0.0
H2907 H 0.26319 0.58687 0.27372 0.0
C2908 C 0.29082 0.65631 0.19688 0.0
C2909 C 0.29911 0.66692 0.21211 0.0
C2910 C 0.27674 0.63985 0.19992 0.0
C2911 C 0.27064 0.63369 0.21823 0.0
C2912 C 0.27886 0.64423 0.23343 0.0
C2913 C 0.29285 0.6607 0.23041 0.0
C2914 C 0.25584 0.61615 0.2217 0.0
C2915 C 0.26079 0.601 0.23412 0.0
C2916 C 0.23706 0.61421 0.21286 0.0
C2917 C 0.23054 0.63003 0.20032 0.0
C2918 C 0.23103 0.6487 0.20678 0.0
C2919 C 0.22484 0.66354 0.19489 0.0
C2920 C 0.21797 0.65983 0.17656 0.0
C2921 C 0.21723 0.64126 0.1701 0.0
C2922 C 0.22343 0.62638 0.18193 0.0
C2923 C 0.19357 0.54692 0.2593 0.0
C2924 C 0.18252 0.53619 0.24559 0.0
C2925 C 0.20851 0.56182 0.25406 0.0
C2926 C 0.21301 0.56599 0.235 0.0
C2927 C 0.20229 0.55486 0.22128 0.0
C2928 C 0.1873 0.53987 0.22658 0.0
C2929 C 0.22853 0.58233 0.22954 0.0
C2930 C 0.22374 0.59725 0.21673 0.0
C2931 C 0.24746 0.58408 0.23806 0.0
C2932 C 0.25382 0.56832 0.25083 0.0
C2933 C 0.25203 0.54925 0.24502 0.0
C2934 C 0.25778 0.53441 0.25721 0.0
C2935 C 0.26546 0.53848 0.2752 0.0
C2936 C 0.26746 0.55741 0.28104 0.0
C2937 C 0.26171 0.57231 0.26891 0.0
H2938 H 0.2699 0.52697 0.28462 0.0
H2939 H 0.21317 0.67133 0.16738 0.0
H2940 H 0.96513 0.53698 0.06219 0.0
H2941 H 0.94076 0.5587 0.05608 0.0
H2942 H 0.90206 0.51299 0.03029 0.0
H2943 H 0.92592 0.49086 0.03703 0.0
H2944 H 0.90503 0.54927 0.00919 0.0
H2945 H 0.89324 0.52319 0.073 0.0
H2946 H 0.9026 0.51569 0.10621 0.0
H2947 H 0.92018 0.57647 0.11368 0.0
H2948 H 0.91117 0.58431 0.08041 0.0
H2949 H 0.81617 0.58809 0.00521 0.0
H2950 H 0.84262 0.56868 0.00977 0.0
H2951 H 0.87363 0.61097 0.04593 0.0
H2952 H 0.8467 0.63003 0.04202 0.0
H2953 H 0.87602 0.5774 0.06154 0.0
H2954 H 0.88768 0.60446 0.99888 0.0
H2955 H 0.87982 0.61304 0.96552 0.0
H2956 H 0.86462 0.55258 0.95537 0.0
H2957 H 0.87214 0.54363 0.98874 0.0
C2958 C 0.95136 0.53136 0.05546 0.0
C2959 C 0.94761 0.51198 0.05023 0.0
C2960 C 0.93746 0.54391 0.05185 0.0
C2961 C 0.91952 0.53749 0.04278 0.0
C2962 C 0.91582 0.51833 0.03723 0.0
C2963 C 0.9296 0.50569 0.04103 0.0
C2964 C 0.9045 0.55066 0.03927 0.0
C2965 C 0.89851 0.55528 0.02063 0.0
C2966 C 0.89643 0.55899 0.05414 0.0
C2967 C 0.90173 0.55431 0.07416 0.0
C2968 C 0.89926 0.53494 0.08168 0.0
C2969 C 0.90447 0.53063 0.10052 0.0
C2970 C 0.91203 0.54559 0.11203 0.0
C2971 C 0.91435 0.56489 0.10473 0.0
C2972 C 0.90918 0.56928 0.08589 0.0
C2973 C 0.82873 0.59341 0.01393 0.0
C2974 C 0.82933 0.6107 0.02317 0.0
C2975 C 0.84396 0.5823 0.01649 0.0
C2976 C 0.86042 0.58838 0.02801 0.0
C2977 C 0.86118 0.60586 0.03697 0.0
C2978 C 0.84579 0.61684 0.03464 0.0
C2979 C 0.87637 0.57611 0.03135 0.0
C2980 C 0.88256 0.57158 0.05 0.0
C2981 C 0.88482 0.56808 0.01644 0.0
C2982 C 0.88031 0.57339 0.99636 0.0
C2983 C 0.88252 0.593 0.98956 0.0
C2984 C 0.87815 0.59793 0.97065 0.0
C2985 C 0.87168 0.58337 0.95834 0.0
C2986 C 0.86961 0.56384 0.96492 0.0
C2987 C 0.87395 0.55883 0.98383 0.0
H2988 H 0.86831 0.58721 0.9437 0.0
H2989 H 0.91606 0.54223 0.12661 0.0
H2990 H 0.08161 0.9884 0.05314 0.0
H2991 H 0.10926 0.9722 0.04623 0.0
H2992 H 0.1216 0.01215 0.99765 0.0
H2993 H 0.09372 0.02815 0.00444 0.0
H2994 H 0.12183 0.97578 0.98859 0.0
H2995 H 0.15084 0.01473 0.03828 0.0
H2996 H 0.1533 0.02748 0.0699 0.0
H2997 H 0.15397 0.96989 0.09525 0.0
H2998 H 0.15124 0.95675 0.06377 0.0
H2999 H 0.2131 0.95037 0.9678 0.0
H3000 H 0.18717 0.96762 0.97667 0.0
H3001 H 0.1758 0.9274 0.02515 0.0
H3002 H 0.20208 0.91021 0.0166 0.0
H3003 H 0.17503 0.96365 0.03454 0.0
H3004 H 0.14586 0.92462 0.9851 0.0
H3005 H 0.1435 0.91169 0.95356 0.0
H3006 H 0.14287 0.96916 0.92788 0.0
H3007 H 0.14552 0.98248 0.95927 0.0
C3008 C 0.09035 0.99378 0.04108 0.0
C3009 C 0.08543 0.00936 0.02918 0.0
C3010 C 0.10619 0.98458 0.03717 0.0
C3011 C 0.11762 0.99095 0.02142 0.0
C3012 C 0.113 0.00689 0.00982 0.0
C3013 C 0.09713 0.01607 0.01373 0.0
C3014 C 0.13384 0.98053 0.01658 0.0
C3015 C 0.13362 0.9734 0.99857 0.0
C3016 C 0.14896 0.97687 0.02973 0.0
C3017 C 0.15064 0.98474 0.04867 0.0
C3018 C 0.15135 0.00476 0.0506 0.0
C3019 C 0.15283 0.01206 0.0685 0.0
C3020 C 0.15374 0.99949 0.08458 0.0
C3021 C 0.15323 0.9796 0.08279 0.0
C3022 C 0.15174 0.97223 0.06492 0.0
C3023 C 0.20511 0.9451 0.98036 0.0
C3024 C 0.20972 0.92877 0.99142 0.0
C3025 C 0.19019 0.95499 0.98538 0.0
C3026 C 0.17929 0.9487 1.00146 0.0
C3027 C 0.18395 0.93254 0.01266 0.0
C3028 C 0.19897 0.92267 0.0077 0.0
C3029 C 0.16306 0.959 0.00653 0.0
C3030 C 0.16325 0.96606 0.02457 0.0
C3031 C 0.14786 0.96256 0.99343 0.0
C3032 C 0.14607 0.95457 0.97454 0.0
C3033 C 0.14535 0.93452 0.97272 0.0
C3034 C 0.14395 0.92712 0.95487 0.0
C3035 C 0.14309 0.9396 0.93872 0.0
C3036 C 0.14357 0.95951 0.9404 0.0
C3037 C 0.145 0.96699 0.95822 0.0
H3038 H 0.14201 0.93384 0.92491 0.0
H3039 H 0.15488 0.00517 0.09843 0.0
loop_
_geom_bond_atom_site_label_1
_geom_bond_atom_site_label_2
_geom_bond_distance
_geom_bond_site_symmetry_2
_ccdc_geom_bond_type
H0 C7 0.929 . S
H1 C10 0.930 . S
H2 C12 0.929 . S
H3 C4 0.969 . S
C4 H3 0.969 . S
C4 O5 1.550 1_565 S
C4 H6 0.973 . S
O5 C4 1.550 1_545 S
O5 C11 1.412 . S
H6 C4 0.973 . S
C7 H0 0.929 . S
C7 C8 1.400 . S
C7 C9 1.364 . S
C8 C7 1.400 . S
C8 C12 1.377 . S
C9 C7 1.364 . S
C9 C10 1.374 . S
C10 H1 0.930 . S
C10 C9 1.374 . S
C10 C11 1.383 . S
C11 O5 1.412 . S
C11 C10 1.383 . S
C11 C12 1.394 . S
C12 H2 0.929 . S
C12 C8 1.377 . S
C12 C11 1.394 . S
H13 C20 0.929 . S
H14 C23 0.930 . S
H15 C25 0.929 . S
H16 C17 0.969 . S
C17 H16 0.969 . S
C17 O18 1.550 . S
C17 H19 0.973 . S
O18 C17 1.550 . S
O18 C24 1.412 . S
H19 C17 0.973 . S
C20 H13 0.929 . S
C20 C21 1.400 . S
C20 C22 1.364 . S
C21 C20 1.400 . S
C21 C25 1.377 . S
C22 C20 1.364 . S
C22 C23 1.374 . S
C23 H14 0.930 . S
C23 C22 1.374 . S
C23 C24 1.383 . S
C24 O18 1.412 . S
C24 C23 1.383 . S
C24 C25 1.394 . S
C25 H15 0.929 . S
C25 C21 1.377 . S
C25 C24 1.394 . S
H26 C33 0.929 . S
H27 C36 0.930 . S
H28 C38 0.929 1_455 S
H29 C30 0.969 . S
C30 H29 0.969 . S
C30 O31 1.550 . S
C30 H32 0.973 . S
O31 C30 1.550 . S
O31 C37 1.412 . S
H32 C30 0.973 . S
C33 H26 0.929 . S
C33 C34 1.400 . S
C33 C35 1.364 . S
C34 C33 1.400 . S
C34 C38 1.377 . S
C35 C33 1.364 . S
C35 C36 1.374 . S
C36 H27 0.930 . S
C36 C35 1.374 . S
C36 C37 1.383 . S
C37 O31 1.412 . S
C37 C36 1.383 . S
C37 C38 1.394 . S
C38 H28 0.929 1_655 S
C38 C34 1.377 . S
C38 C37 1.394 . S
H39 C46 0.929 . S
H40 C49 0.930 . S
H41 C51 0.929 . S
H42 C43 0.969 . S
C43 H42 0.969 . S
C43 O44 1.550 . S
C43 H45 0.973 . S
O44 C43 1.550 . S
O44 C50 1.412 . S
H45 C43 0.973 . S
C46 H39 0.929 . S
C46 C47 1.400 . S
C46 C48 1.364 . S
C47 C46 1.400 . S
C47 C51 1.377 . S
C48 C46 1.364 . S
C48 C49 1.374 . S
C49 H40 0.930 . S
C49 C48 1.374 . S
C49 C50 1.383 . S
C50 O44 1.412 . S
C50 C49 1.383 . S
C50 C51 1.394 . S
C51 H41 0.929 . S
C51 C47 1.377 . S
C51 C50 1.394 . S
H52 C59 0.929 . S
H53 C62 0.930 . S
H54 C64 0.929 1_545 S
H55 C56 0.969 . S
C56 H55 0.969 . S
C56 O57 1.550 . S
C56 H58 0.973 . S
O57 C56 1.550 . S
O57 C63 1.412 . S
H58 C56 0.973 . S
C59 H52 0.929 . S
C59 C60 1.400 . S
C59 C61 1.364 . S
C60 C59 1.400 . S
C60 C64 1.377 . S
C61 C59 1.364 . S
C61 C62 1.374 . S
C62 H53 0.930 . S
C62 C61 1.374 . S
C62 C63 1.383 . S
C63 O57 1.412 . S
C63 C62 1.383 . S
C63 C64 1.394 . S
C64 H54 0.929 1_565 S
C64 C60 1.377 . S
C64 C63 1.394 . S
H65 C72 0.929 . S
H66 C75 0.930 . S
H67 C77 0.929 . S
H68 C69 0.969 . S
C69 H68 0.969 . S
C69 O70 1.550 . S
C69 H71 0.973 . S
O70 C69 1.550 . S
O70 C76 1.412 . S
H71 C69 0.973 . S
C72 H65 0.929 . S
C72 C73 1.400 . S
C72 C74 1.364 . S
C73 C72 1.400 . S
C73 C77 1.377 . S
C74 C72 1.364 . S
C74 C75 1.374 . S
C75 H66 0.930 . S
C75 C74 1.374 . S
C75 C76 1.383 . S
C76 O70 1.412 . S
C76 C75 1.383 . S
C76 C77 1.394 . S
C77 H67 0.929 . S
C77 C73 1.377 . S
C77 C76 1.394 . S
H78 C85 0.929 . S
H79 C88 0.930 . S
H80 C90 0.929 . S
H81 C82 0.969 . S
C82 H81 0.969 . S
C82 O83 1.550 . S
C82 H84 0.973 . S
O83 C82 1.550 . S
O83 C89 1.456 . S
H84 C82 0.973 . S
C85 H78 0.929 . S
C85 C86 1.400 . S
C85 C87 1.364 . S
C86 C85 1.400 . S
C86 C90 1.377 1_655 S
C87 C85 1.364 . S
C87 C88 1.374 . S
C88 H79 0.930 . S
C88 C87 1.374 . S
C88 C89 1.349 1_655 S
C89 O83 1.456 . S
C89 C88 1.349 1_455 S
C89 C90 1.395 . S
C90 H80 0.929 . S
C90 C86 1.377 1_455 S
C90 C89 1.395 . S
H91 C98 0.929 . S
H92 C101 0.930 . S
H93 C103 0.929 . S
H94 C95 0.969 . S
C95 H94 0.969 . S
C95 O96 1.550 . S
C95 H97 0.973 . S
O96 C95 1.550 . S
O96 C102 1.412 . S
H97 C95 0.973 . S
C98 H91 0.929 . S
C98 C99 1.400 . S
C98 C100 1.364 . S
C99 C98 1.400 . S
C99 C103 1.377 . S
C100 C98 1.364 . S
C100 C101 1.374 . S
C101 H92 0.930 . S
C101 C100 1.374 . S
C101 C102 1.383 . S
C102 O96 1.412 . S
C102 C101 1.383 . S
C102 C103 1.394 . S
C103 H93 0.929 . S
C103 C99 1.377 . S
C103 C102 1.394 . S
H104 C111 0.929 . S
H105 C114 0.930 . S
H106 C116 0.929 . S
H107 C108 0.969 . S
C108 H107 0.969 . S
C108 O109 1.550 . S
C108 H110 0.973 . S
O109 C108 1.550 . S
O109 C115 1.412 . S
H110 C108 0.973 . S
C111 H104 0.929 . S
C111 C112 1.400 . S
C111 C113 1.364 . S
C112 C111 1.400 . S
C112 C116 1.377 . S
C113 C111 1.364 . S
C113 C114 1.374 . S
C114 H105 0.930 . S
C114 C113 1.374 . S
C114 C115 1.383 . S
C115 O109 1.412 . S
C115 C114 1.383 . S
C115 C116 1.394 . S
C116 H106 0.929 . S
C116 C112 1.377 . S
C116 C115 1.394 . S
H117 C124 0.929 . S
H118 C127 0.930 . S
H119 C129 0.929 . S
H120 C121 0.969 . S
C121 H120 0.969 . S
C121 O122 1.550 . S
C121 H123 0.973 . S
O122 C121 1.550 . S
O122 C128 1.412 . S
H123 C121 0.973 . S
C124 H117 0.929 . S
C124 C125 1.400 . S
C124 C126 1.364 . S
C125 C124 1.400 . S
C125 C129 1.377 . S
C126 C124 1.364 . S
C126 C127 1.374 . S
C127 H118 0.930 . S
C127 C126 1.374 . S
C127 C128 1.383 . S
C128 O122 1.412 . S
C128 C127 1.383 . S
C128 C129 1.394 . S
C129 H119 0.929 . S
C129 C125 1.377 . S
C129 C128 1.394 . S
H130 C137 0.929 . S
H131 C140 0.930 . S
H132 C142 0.929 . S
H133 C134 0.969 . S
C134 H133 0.969 . S
C134 O135 1.550 . S
C134 H136 0.973 . S
O135 C134 1.550 . S
O135 C141 1.412 . S
H136 C134 0.973 . S
C137 H130 0.929 . S
C137 C138 1.400 . S
C137 C139 1.364 . S
C138 C137 1.400 . S
C138 C142 1.377 . S
C139 C137 1.364 . S
C139 C140 1.374 . S
C140 H131 0.930 . S
C140 C139 1.374 . S
C140 C141 1.383 . S
C141 O135 1.412 . S
C141 C140 1.383 . S
C141 C142 1.394 . S
C142 H132 0.929 . S
C142 C138 1.377 . S
C142 C141 1.394 . S
H143 C150 0.929 . S
H144 C153 0.930 . S
H145 C155 0.929 . S
H146 C147 0.969 . S
C147 H146 0.969 . S
C147 O148 1.550 . S
C147 H149 0.973 . S
O148 C147 1.550 . S
O148 C154 1.412 . S
H149 C147 0.973 . S
C150 H143 0.929 . S
C150 C151 1.400 . S
C150 C152 1.364 . S
C151 C150 1.400 . S
C151 C155 1.377 . S
C152 C150 1.364 . S
C152 C153 1.374 . S
C153 H144 0.930 . S
C153 C152 1.374 . S
C153 C154 1.383 . S
C154 O148 1.412 . S
C154 C153 1.383 . S
C154 C155 1.394 . S
C155 H145 0.929 . S
C155 C151 1.377 . S
C155 C154 1.394 . S
H156 C163 0.929 . S
H157 C166 0.930 . S
H158 C168 0.929 . S
H159 C160 0.969 . S
C160 H159 0.969 . S
C160 O161 1.550 . S
C160 H162 0.973 . S
O161 C160 1.550 . S
O161 C167 1.412 . S
H162 C160 0.973 . S
C163 H156 0.929 . S
C163 C164 1.400 . S
C163 C165 1.364 . S
C164 C163 1.400 . S
C164 C168 1.377 . S
C165 C163 1.364 . S
C165 C166 1.374 . S
C166 H157 0.930 . S
C166 C165 1.374 . S
C166 C167 1.383 . S
C167 O161 1.412 . S
C167 C166 1.383 . S
C167 C168 1.394 . S
C168 H158 0.929 . S
C168 C164 1.377 . S
C168 C167 1.394 . S
H169 C176 0.929 . S
H170 C179 0.930 . S
H171 C181 0.929 . S
H172 C173 0.969 . S
C173 H172 0.969 . S
C173 O174 1.550 . S
C173 H175 0.973 . S
O174 C173 1.550 . S
O174 C180 1.412 . S
H175 C173 0.973 . S
C176 H169 0.929 . S
C176 C177 1.400 . S
C176 C178 1.364 . S
C177 C176 1.400 . S
C177 C181 1.377 . S
C178 C176 1.364 . S
C178 C179 1.374 . S
C179 H170 0.930 . S
C179 C178 1.374 . S
C179 C180 1.383 . S
C180 O174 1.412 . S
C180 C179 1.383 . S
C180 C181 1.394 . S
C181 H171 0.929 . S
C181 C177 1.377 . S
C181 C180 1.394 . S
H182 C189 0.929 . S
H183 C192 0.930 . S
H184 C194 0.929 . S
H185 C186 0.969 . S
C186 H185 0.969 . S
C186 O187 1.550 . S
C186 H188 0.973 . S
O187 C186 1.550 . S
O187 C193 1.412 . S
H188 C186 0.973 . S
C189 H182 0.929 . S
C189 C190 1.400 . S
C189 C191 1.364 . S
C190 C189 1.400 . S
C190 C194 1.377 . S
C191 C189 1.364 . S
C191 C192 1.374 . S
C192 H183 0.930 . S
C192 C191 1.374 . S
C192 C193 1.383 . S
C193 O187 1.412 . S
C193 C192 1.383 . S
C193 C194 1.394 . S
C194 H184 0.929 . S
C194 C190 1.377 . S
C194 C193 1.394 . S
H195 C202 0.929 . S
H196 C205 0.930 . S
H197 C207 0.929 . S
H198 C199 0.969 . S
C199 H198 0.969 . S
C199 O200 1.550 . S
C199 H201 0.973 . S
O200 C199 1.550 . S
O200 C206 1.412 . S
H201 C199 0.973 . S
C202 H195 0.929 . S
C202 C203 1.400 . S
C202 C204 1.364 1_554 S
C203 C202 1.400 . S
C203 C207 1.350 1_554 S
C204 C202 1.364 1_556 S
C204 C205 1.374 . S
C205 H196 0.930 . S
C205 C204 1.374 . S
C205 C206 1.383 . S
C206 O200 1.412 . S
C206 C205 1.383 . S
C206 C207 1.394 . S
C207 H197 0.929 . S
C207 C203 1.350 1_556 S
C207 C206 1.394 . S
Mn208 O213 2.095 . S
Mn208 O223 2.162 . S
Mn208 O224 2.297 . S
Mn208 O232 2.385 1_554 S
Mn208 O233 2.209 1_554 S
Mn208 O234 2.094 . S
Mn209 O214 2.121 . S
Mn209 N216 2.257 . S
Mn209 N225 2.282 . S
Mn209 O233 2.215 . S
Mn209 O235 2.117 . S
C210 O232 1.234 . S
C210 O233 1.283 . S
C211 O223 1.281 . S
C211 O224 1.236 . S
C212 O234 1.240 1_556 S
C212 O235 1.264 . S
O213 Mn208 2.095 . S
O213 C222 1.250 1_554 S
O214 Mn209 2.121 . S
O214 C222 1.258 . S
C215 N216 1.326 . S
C215 C219 1.460 . S
C215 H221 0.929 . S
N216 Mn209 2.257 . S
N216 C215 1.326 . S
N216 C220 1.362 . S
C217 C218 1.258 . S
C217 C220 1.431 . S
C217 C237 1.449 . S
C218 C217 1.258 . S
C218 C219 1.477 . S
C218 H238 0.931 . S
C219 C215 1.460 . S
C219 C218 1.477 . S
C219 H239 0.930 . S
C220 N216 1.362 . S
C220 C217 1.431 . S
C220 C230 1.476 . S
H221 C215 0.929 . S
C222 O213 1.250 1_556 S
C222 O214 1.258 . S
O223 Mn208 2.162 . S
O223 C211 1.281 . S
O224 Mn208 2.297 . S
O224 C211 1.236 . S
N225 Mn209 2.282 . S
N225 C226 1.328 . S
N225 C230 1.318 . S
C226 N225 1.328 . S
C226 C227 1.457 . S
C226 H231 0.929 . S
C227 C226 1.457 . S
C227 C228 1.291 . S
C227 H240 0.931 . S
C228 C227 1.291 . S
C228 C229 1.373 . S
C228 H241 0.929 . S
C229 C228 1.373 . S
C229 C230 1.396 . S
C229 C236 1.403 . S
C230 C220 1.476 . S
C230 N225 1.318 . S
C230 C229 1.396 . S
H231 C226 0.929 . S
O232 Mn208 2.385 1_556 S
O232 C210 1.234 . S
O233 Mn208 2.209 1_556 S
O233 Mn209 2.215 . S
O233 C210 1.283 . S
O234 Mn208 2.094 . S
O234 C212 1.240 1_554 S
O235 Mn209 2.117 . S
O235 C212 1.264 . S
C236 C229 1.403 . S
C236 C237 1.399 . S
C236 H242 0.929 . S
C237 C217 1.449 . S
C237 C236 1.399 . S
C237 H243 0.930 . S
H238 C218 0.931 . S
H239 C219 0.930 . S
H240 C227 0.931 . S
H241 C228 0.929 . S
H242 C236 0.929 . S
H243 C237 0.930 . S
Mn244 O249 2.095 . S
Mn244 O259 2.162 . S
Mn244 O260 2.297 . S
Mn244 O268 2.385 . S
Mn244 O269 2.209 . S
Mn244 O270 2.094 . S
Mn245 O250 2.121 . S
Mn245 N252 2.257 . S
Mn245 N261 2.282 . S
Mn245 O269 2.215 . S
Mn245 O271 2.117 . S
C246 O268 1.234 . S
C246 O269 1.283 . S
C247 O259 1.281 . S
C247 O260 1.236 . S
C248 O270 1.240 . S
C248 O271 1.264 . S
O249 Mn244 2.095 . S
O249 C258 1.250 . S
O250 Mn245 2.121 . S
O250 C258 1.258 . S
C251 N252 1.326 . S
C251 C255 1.460 . S
C251 H257 0.929 . S
N252 Mn245 2.257 . S
N252 C251 1.326 . S
N252 C256 1.362 . S
C253 C254 1.258 . S
C253 C256 1.431 . S
C253 C273 1.449 . S
C254 C253 1.258 . S
C254 C255 1.477 . S
C254 H274 0.931 . S
C255 C251 1.460 . S
C255 C254 1.477 . S
C255 H275 0.930 . S
C256 N252 1.362 . S
C256 C253 1.431 . S
C256 C266 1.476 . S
H257 C251 0.929 . S
C258 O249 1.250 . S
C258 O250 1.258 . S
O259 Mn244 2.162 . S
O259 C247 1.281 . S
O260 Mn244 2.297 . S
O260 C247 1.236 . S
N261 Mn245 2.282 . S
N261 C262 1.328 . S
N261 C266 1.318 . S
C262 N261 1.328 . S
C262 C263 1.457 . S
C262 H267 0.929 . S
C263 C262 1.457 . S
C263 C264 1.291 . S
C263 H276 0.931 . S
C264 C263 1.291 . S
C264 C265 1.373 . S
C264 H277 0.929 . S
C265 C264 1.373 . S
C265 C266 1.396 . S
C265 C272 1.403 . S
C266 C256 1.476 . S
C266 N261 1.318 . S
C266 C265 1.396 . S
H267 C262 0.929 . S
O268 Mn244 2.385 . S
O268 C246 1.234 . S
O269 Mn244 2.209 . S
O269 Mn245 2.215 . S
O269 C246 1.283 . S
O270 Mn244 2.094 . S
O270 C248 1.240 . S
O271 Mn245 2.117 . S
O271 C248 1.264 . S
C272 C265 1.403 . S
C272 C273 1.399 . S
C272 H278 0.929 . S
C273 C253 1.449 . S
C273 C272 1.399 . S
C273 H279 0.930 . S
H274 C254 0.931 . S
H275 C255 0.930 . S
H276 C263 0.931 . S
H277 C264 0.929 . S
H278 C272 0.929 . S
H279 C273 0.930 . S
Mn280 O285 2.095 . S
Mn280 O295 2.162 . S
Mn280 O296 2.297 . S
Mn280 O304 2.385 . S
Mn280 O305 2.209 . S
Mn280 O306 2.094 . S
Mn281 O286 2.121 1_554 S
Mn281 N288 2.257 1_554 S
Mn281 N297 2.282 . S
Mn281 O305 2.215 . S
Mn281 O307 2.117 . S
C282 O304 1.234 . S
C282 O305 1.283 . S
C283 O295 1.281 . S
C283 O296 1.236 . S
C284 O306 1.240 . S
C284 O307 1.264 . S
O285 Mn280 2.095 . S
O285 C294 1.250 . S
O286 Mn281 2.121 1_556 S
O286 C294 1.258 1_556 S
C287 N288 1.326 . S
C287 C291 1.460 . S
C287 H293 0.929 . S
N288 Mn281 2.257 1_556 S
N288 C287 1.326 . S
N288 C292 1.362 . S
C289 C290 1.258 . S
C289 C292 1.431 . S
C289 C309 1.449 . S
C290 C289 1.258 . S
C290 C291 1.477 . S
C290 H310 0.931 . S
C291 C287 1.460 . S
C291 C290 1.477 . S
C291 H311 0.930 . S
C292 N288 1.362 . S
C292 C289 1.431 . S
C292 C302 1.476 1_556 S
H293 C287 0.929 . S
C294 O285 1.250 . S
C294 O286 1.258 1_554 S
O295 Mn280 2.162 . S
O295 C283 1.281 . S
O296 Mn280 2.297 . S
O296 C283 1.236 . S
N297 Mn281 2.282 . S
N297 C298 1.328 . S
N297 C302 1.318 . S
C298 N297 1.328 . S
C298 C299 1.457 . S
C298 H303 0.929 . S
C299 C298 1.457 . S
C299 C300 1.291 . S
C299 H312 0.931 . S
C300 C299 1.291 . S
C300 C301 1.373 . S
C300 H313 0.929 . S
C301 C300 1.373 . S
C301 C302 1.396 . S
C301 C308 1.403 1_554 S
C302 C292 1.476 1_554 S
C302 N297 1.318 . S
C302 C301 1.396 . S
H303 C298 0.929 . S
O304 Mn280 2.385 . S
O304 C282 1.234 . S
O305 Mn280 2.209 . S
O305 Mn281 2.215 . S
O305 C282 1.283 . S
O306 Mn280 2.094 . S
O306 C284 1.240 . S
O307 Mn281 2.117 . S
O307 C284 1.264 . S
C308 C301 1.403 1_556 S
C308 C309 1.399 . S
C308 H314 0.919 1_556 S
C309 C289 1.449 . S
C309 C308 1.399 . S
C309 H315 0.930 . S
H310 C290 0.931 . S
H311 C291 0.930 . S
H312 C299 0.931 . S
H313 C300 0.929 . S
H314 C308 0.919 1_554 S
H315 C309 0.930 . S
Mn316 O321 2.095 . S
Mn316 O331 2.162 . S
Mn316 O332 2.297 . S
Mn316 O340 2.385 . S
Mn316 O341 2.209 1_545 S
Mn316 O342 2.094 . S
Mn317 O322 2.143 . S
Mn317 N324 2.257 . S
Mn317 N333 2.282 . S
Mn317 O341 2.215 . S
Mn317 O343 2.117 1_565 S
C318 O340 1.234 1_565 S
C318 O341 1.283 . S
C319 O331 1.281 . S
C319 O332 1.236 . S
C320 O342 1.240 . S
C320 O343 1.264 . S
O321 Mn316 2.095 . S
O321 C330 1.250 . S
O322 Mn317 2.143 . S
O322 C330 1.211 1_565 S
C323 N324 1.326 . S
C323 C327 1.460 . S
C323 H329 0.929 . S
N324 Mn317 2.257 . S
N324 C323 1.326 . S
N324 C328 1.362 . S
C325 C326 1.258 . S
C325 C328 1.431 . S
C325 C345 1.449 . S
C326 C325 1.258 . S
C326 C327 1.477 . S
C326 H346 0.931 . S
C327 C323 1.460 . S
C327 C326 1.477 . S
C327 H347 0.930 . S
C328 N324 1.362 . S
C328 C325 1.431 . S
C328 C338 1.476 . S
H329 C323 0.929 . S
C330 O321 1.250 . S
C330 O322 1.211 1_545 S
O331 Mn316 2.162 . S
O331 C319 1.281 . S
O332 Mn316 2.297 . S
O332 C319 1.236 . S
N333 Mn317 2.282 . S
N333 C334 1.328 . S
N333 C338 1.318 . S
C334 N333 1.328 . S
C334 C335 1.457 . S
C334 H339 0.929 . S
C335 C334 1.457 . S
C335 C336 1.291 . S
C335 H348 0.931 . S
C336 C335 1.291 . S
C336 C337 1.373 . S
C336 H349 0.929 . S
C337 C336 1.373 . S
C337 C338 1.396 . S
C337 C344 1.403 . S
C338 C328 1.476 . S
C338 N333 1.318 . S
C338 C337 1.396 . S
H339 C334 0.929 . S
O340 Mn316 2.385 . S
O340 C318 1.234 1_545 S
O341 Mn316 2.209 1_565 S
O341 Mn317 2.215 . S
O341 C318 1.283 . S
O342 Mn316 2.094 . S
O342 C320 1.240 . S
O343 Mn317 2.117 1_545 S
O343 C320 1.264 . S
C344 C337 1.403 . S
C344 C345 1.399 . S
C344 H350 0.929 . S
C345 C325 1.449 . S
C345 C344 1.399 . S
C345 H351 0.930 . S
H346 C326 0.931 . S
H347 C327 0.930 . S
H348 C335 0.931 . S
H349 C336 0.929 . S
H350 C344 0.929 . S
H351 C345 0.930 . S
Mn352 O357 2.095 . S
Mn352 O367 2.162 . S
Mn352 O368 2.297 . S
Mn352 O376 2.385 . S
Mn352 O377 2.209 . S
Mn352 O378 2.094 . S
Mn353 O358 2.121 . S
Mn353 N360 2.257 . S
Mn353 N369 2.282 . S
Mn353 O377 2.215 . S
Mn353 O379 2.117 . S
C354 O376 1.234 . S
C354 O377 1.283 . S
C355 O367 1.281 . S
C355 O368 1.236 . S
C356 O378 1.240 . S
C356 O379 1.264 . S
O357 Mn352 2.095 . S
O357 C366 1.250 . S
O358 Mn353 2.121 . S
O358 C366 1.258 . S
C359 N360 1.326 . S
C359 C363 1.460 . S
C359 H365 0.929 . S
N360 Mn353 2.257 . S
N360 C359 1.326 . S
N360 C364 1.362 . S
C361 C362 1.258 . S
C361 C364 1.431 . S
C361 C381 1.449 . S
C362 C361 1.258 . S
C362 C363 1.477 . S
C362 H382 0.931 . S
C363 C359 1.460 . S
C363 C362 1.477 . S
C363 H383 0.930 . S
C364 N360 1.362 . S
C364 C361 1.431 . S
C364 C374 1.476 . S
H365 C359 0.929 . S
C366 O357 1.250 . S
C366 O358 1.258 . S
O367 Mn352 2.162 . S
O367 C355 1.281 . S
O368 Mn352 2.297 . S
O368 C355 1.236 . S
N369 Mn353 2.282 . S
N369 C370 1.328 . S
N369 C374 1.318 . S
C370 N369 1.328 . S
C370 C371 1.457 . S
C370 H375 0.929 . S
C371 C370 1.457 . S
C371 C372 1.291 . S
C371 H384 0.931 . S
C372 C371 1.291 . S
C372 C373 1.373 . S
C372 H385 0.929 . S
C373 C372 1.373 . S
C373 C374 1.396 . S
C373 C380 1.403 . S
C374 C364 1.476 . S
C374 N369 1.318 . S
C374 C373 1.396 . S
H375 C370 0.929 . S
O376 Mn352 2.385 . S
O376 C354 1.234 . S
O377 Mn352 2.209 . S
O377 Mn353 2.215 . S
O377 C354 1.283 . S
O378 Mn352 2.094 . S
O378 C356 1.240 . S
O379 Mn353 2.117 . S
O379 C356 1.264 . S
C380 C373 1.403 . S
C380 C381 1.399 . S
C380 H386 0.929 . S
C381 C361 1.449 . S
C381 C380 1.399 . S
C381 H387 0.930 . S
H382 C362 0.931 . S
H383 C363 0.930 . S
H384 C371 0.931 . S
H385 C372 0.929 . S
H386 C380 0.929 . S
H387 C381 0.930 . S
Mn388 O393 2.095 . S
Mn388 O403 2.162 . S
Mn388 O404 2.297 . S
Mn388 O412 2.385 . S
Mn388 O413 2.209 . S
Mn388 O414 2.094 . S
Mn389 O394 2.121 . S
Mn389 N396 2.257 . S
Mn389 N405 2.282 . S
Mn389 O413 2.215 . S
Mn389 O415 2.117 . S
C390 O412 1.234 . S
C390 O413 1.283 . S
C391 O403 1.281 . S
C391 O404 1.236 . S
C392 O414 1.240 . S
C392 O415 1.264 . S
O393 Mn388 2.095 . S
O393 C402 1.250 . S
O394 Mn389 2.121 . S
O394 C402 1.258 . S
C395 N396 1.326 . S
C395 C399 1.460 . S
C395 H401 0.929 . S
N396 Mn389 2.257 . S
N396 C395 1.326 . S
N396 C400 1.362 . S
C397 C398 1.258 . S
C397 C400 1.431 . S
C397 C417 1.449 . S
C398 C397 1.258 . S
C398 C399 1.477 . S
C398 H418 0.931 . S
C399 C395 1.460 . S
C399 C398 1.477 . S
C399 H419 0.930 . S
C400 N396 1.362 . S
C400 C397 1.431 . S
C400 C410 1.476 . S
H401 C395 0.929 . S
C402 O393 1.250 . S
C402 O394 1.258 . S
O403 Mn388 2.162 . S
O403 C391 1.281 . S
O404 Mn388 2.297 . S
O404 C391 1.236 . S
N405 Mn389 2.282 . S
N405 C406 1.328 . S
N405 C410 1.318 . S
C406 N405 1.328 . S
C406 C407 1.457 . S
C406 H411 0.929 . S
C407 C406 1.457 . S
C407 C408 1.291 . S
C407 H420 0.931 . S
C408 C407 1.291 . S
C408 C409 1.373 . S
C408 H421 0.929 . S
C409 C408 1.373 . S
C409 C410 1.396 . S
C409 C416 1.403 . S
C410 C400 1.476 . S
C410 N405 1.318 . S
C410 C409 1.396 . S
H411 C406 0.929 . S
O412 Mn388 2.385 . S
O412 C390 1.234 . S
O413 Mn388 2.209 . S
O413 Mn389 2.215 . S
O413 C390 1.283 . S
O414 Mn388 2.094 . S
O414 C392 1.240 . S
O415 Mn389 2.117 . S
O415 C392 1.264 . S
C416 C409 1.403 . S
C416 C417 1.399 . S
C416 H422 0.929 . S
C417 C397 1.449 . S
C417 C416 1.399 . S
C417 H423 0.930 . S
H418 C398 0.931 . S
H419 C399 0.930 . S
H420 C407 0.931 . S
H421 C408 0.929 . S
H422 C416 0.929 . S
H423 C417 0.930 . S
Mn424 O429 2.095 . S
Mn424 O439 2.162 . S
Mn424 O440 2.297 . S
Mn424 O448 2.385 . S
Mn424 O449 2.209 . S
Mn424 O450 2.094 . S
Mn425 O430 2.121 . S
Mn425 N432 2.257 . S
Mn425 N441 2.282 . S
Mn425 O449 2.215 . S
Mn425 O451 2.117 . S
C426 O448 1.234 . S
C426 O449 1.283 . S
C427 O439 1.281 . S
C427 O440 1.236 . S
C428 O450 1.240 . S
C428 O451 1.264 . S
O429 Mn424 2.095 . S
O429 C438 1.250 . S
O430 Mn425 2.121 . S
O430 C438 1.258 . S
C431 N432 1.326 . S
C431 C435 1.460 . S
C431 H437 0.929 . S
N432 Mn425 2.257 . S
N432 C431 1.326 . S
N432 C436 1.362 . S
C433 C434 1.258 . S
C433 C436 1.431 . S
C433 C453 1.449 . S
C434 C433 1.258 . S
C434 C435 1.477 . S
C434 H454 0.931 . S
C435 C431 1.460 . S
C435 C434 1.477 . S
C435 H455 0.930 . S
C436 N432 1.362 . S
C436 C433 1.431 . S
C436 C446 1.476 . S
H437 C431 0.929 . S
C438 O429 1.250 . S
C438 O430 1.258 . S
O439 Mn424 2.162 . S
O439 C427 1.281 . S
O440 Mn424 2.297 . S
O440 C427 1.236 . S
N441 Mn425 2.282 . S
N441 C442 1.328 . S
N441 C446 1.318 . S
C442 N441 1.328 . S
C442 C443 1.457 . S
C442 H447 0.929 . S
C443 C442 1.457 . S
C443 C444 1.291 . S
C443 H456 0.931 . S
C444 C443 1.291 . S
C444 C445 1.373 . S
C444 H457 0.929 . S
C445 C444 1.373 . S
C445 C446 1.396 . S
C445 C452 1.403 . S
C446 C436 1.476 . S
C446 N441 1.318 . S
C446 C445 1.396 . S
H447 C442 0.929 . S
O448 Mn424 2.385 . S
O448 C426 1.234 . S
O449 Mn424 2.209 . S
O449 Mn425 2.215 . S
O449 C426 1.283 . S
O450 Mn424 2.094 . S
O450 C428 1.240 . S
O451 Mn425 2.117 . S
O451 C428 1.264 . S
C452 C445 1.403 . S
C452 C453 1.399 . S
C452 H458 0.929 . S
C453 C433 1.449 . S
C453 C452 1.399 . S
C453 H459 0.930 . S
H454 C434 0.931 . S
H455 C435 0.930 . S
H456 C443 0.931 . S
H457 C444 0.929 . S
H458 C452 0.929 . S
H459 C453 0.930 . S
Mn460 O465 2.095 . S
Mn460 O475 2.162 . S
Mn460 O476 2.297 . S
Mn460 O484 2.385 1_565 S
Mn460 O485 2.209 1_565 S
Mn460 O486 2.094 . S
Mn461 O466 2.121 . S
Mn461 N468 2.257 . S
Mn461 N477 2.282 . S
Mn461 O485 2.215 . S
Mn461 O487 2.117 . S
C462 O484 1.234 . S
C462 O485 1.283 . S
C463 O475 1.281 . S
C463 O476 1.236 . S
C464 O486 1.240 . S
C464 O487 1.264 1_565 S
O465 Mn460 2.095 . S
O465 C474 1.250 1_565 S
O466 Mn461 2.121 . S
O466 C474 1.258 . S
C467 N468 1.326 . S
C467 C471 1.460 . S
C467 H473 0.929 . S
N468 Mn461 2.257 . S
N468 C467 1.326 . S
N468 C472 1.362 . S
C469 C470 1.258 . S
C469 C472 1.431 . S
C469 C489 1.449 . S
C470 C469 1.258 . S
C470 C471 1.477 . S
C470 H490 0.931 . S
C471 C467 1.460 . S
C471 C470 1.477 . S
C471 H491 0.930 . S
C472 N468 1.362 . S
C472 C469 1.431 . S
C472 C482 1.476 . S
H473 C467 0.929 . S
C474 O465 1.250 1_545 S
C474 O466 1.258 . S
O475 Mn460 2.162 . S
O475 C463 1.281 . S
O476 Mn460 2.297 . S
O476 C463 1.236 . S
N477 Mn461 2.282 . S
N477 C478 1.328 . S
N477 C482 1.318 . S
C478 N477 1.328 . S
C478 C479 1.457 . S
C478 H483 0.929 . S
C479 C478 1.457 . S
C479 C480 1.291 . S
C479 H492 0.931 . S
C480 C479 1.291 . S
C480 C481 1.373 . S
C480 H493 0.929 . S
C481 C480 1.373 . S
C481 C482 1.396 . S
C481 C488 1.403 . S
C482 C472 1.476 . S
C482 N477 1.318 . S
C482 C481 1.396 . S
H483 C478 0.929 . S
O484 Mn460 2.385 1_545 S
O484 C462 1.234 . S
O485 Mn460 2.209 1_545 S
O485 Mn461 2.215 . S
O485 C462 1.283 . S
O486 Mn460 2.094 . S
O486 C464 1.240 . S
O487 Mn461 2.117 . S
O487 C464 1.264 1_545 S
C488 C481 1.403 . S
C488 C489 1.399 . S
C488 H494 0.929 . S
C489 C469 1.449 . S
C489 C488 1.399 . S
C489 H495 0.930 . S
H490 C470 0.931 . S
H491 C471 0.930 . S
H492 C479 0.931 . S
H493 C480 0.929 . S
H494 C488 0.929 . S
H495 C489 0.930 . S
Mn496 O501 2.095 . S
Mn496 O511 2.162 . S
Mn496 O512 2.297 . S
Mn496 O520 2.385 1_455 S
Mn496 O521 2.209 1_455 S
Mn496 O522 2.094 . S
Mn497 O502 2.121 . S
Mn497 N504 2.257 . S
Mn497 N513 2.282 . S
Mn497 O521 2.215 . S
Mn497 O523 2.117 . S
C498 O520 1.234 . S
C498 O521 1.283 . S
C499 O511 1.281 . S
C499 O512 1.236 . S
C500 O522 1.240 1_655 S
C500 O523 1.264 . S
O501 Mn496 2.095 . S
O501 C510 1.250 1_455 S
O502 Mn497 2.121 . S
O502 C510 1.258 . S
C503 N504 1.326 . S
C503 C507 1.460 . S
C503 H509 0.929 . S
N504 Mn497 2.257 . S
N504 C503 1.326 . S
N504 C508 1.362 . S
C505 C506 1.258 . S
C505 C508 1.431 . S
C505 C525 1.449 . S
C506 C505 1.258 . S
C506 C507 1.477 . S
C506 H526 0.931 . S
C507 C503 1.460 . S
C507 C506 1.477 . S
C507 H527 0.930 . S
C508 N504 1.362 . S
C508 C505 1.431 . S
C508 C518 1.476 . S
H509 C503 0.929 . S
C510 O501 1.250 1_655 S
C510 O502 1.258 . S
O511 Mn496 2.162 . S
O511 C499 1.281 . S
O512 Mn496 2.297 . S
O512 C499 1.236 . S
N513 Mn497 2.282 . S
N513 C514 1.328 . S
N513 C518 1.318 . S
C514 N513 1.328 . S
C514 C515 1.457 . S
C514 H519 0.929 . S
C515 C514 1.457 . S
C515 C516 1.291 . S
C515 H528 0.931 . S
C516 C515 1.291 . S
C516 C517 1.373 . S
C516 H529 0.929 . S
C517 C516 1.373 . S
C517 C518 1.396 . S
C517 C524 1.403 . S
C518 C508 1.476 . S
C518 N513 1.318 . S
C518 C517 1.396 . S
H519 C514 0.929 . S
O520 Mn496 2.385 1_655 S
O520 C498 1.234 . S
O521 Mn496 2.209 1_655 S
O521 Mn497 2.215 . S
O521 C498 1.283 . S
O522 Mn496 2.094 . S
O522 C500 1.240 1_455 S
O523 Mn497 2.117 . S
O523 C500 1.264 . S
C524 C517 1.403 . S
C524 C525 1.399 . S
C524 H530 0.929 . S
C525 C505 1.449 . S
C525 C524 1.399 . S
C525 H531 0.930 . S
H526 C506 0.931 . S
H527 C507 0.930 . S
H528 C515 0.931 . S
H529 C516 0.929 . S
H530 C524 0.929 . S
H531 C525 0.930 . S
Mn532 O537 2.095 . S
Mn532 O547 2.162 . S
Mn532 O548 2.297 . S
Mn532 O556 2.385 . S
Mn532 O557 2.209 . S
Mn532 O558 2.094 . S
Mn533 O538 2.121 . S
Mn533 N540 2.257 . S
Mn533 N549 2.282 . S
Mn533 O557 2.215 . S
Mn533 O559 2.117 . S
C534 O556 1.234 . S
C534 O557 1.283 . S
C535 O547 1.281 . S
C535 O548 1.236 . S
C536 O558 1.240 . S
C536 O559 1.264 . S
O537 Mn532 2.095 . S
O537 C546 1.250 . S
O538 Mn533 2.121 . S
O538 C546 1.258 . S
C539 N540 1.326 . S
C539 C543 1.460 . S
C539 H545 0.929 . S
N540 Mn533 2.257 . S
N540 C539 1.326 . S
N540 C544 1.362 . S
C541 C542 1.258 . S
C541 C544 1.431 . S
C541 C561 1.449 . S
C542 C541 1.258 . S
C542 C543 1.477 . S
C542 H562 0.931 . S
C543 C539 1.460 . S
C543 C542 1.477 . S
C543 H563 0.930 . S
C544 N540 1.362 . S
C544 C541 1.431 . S
C544 C554 1.476 . S
H545 C539 0.929 . S
C546 O537 1.250 . S
C546 O538 1.258 . S
O547 Mn532 2.162 . S
O547 C535 1.281 . S
O548 Mn532 2.297 . S
O548 C535 1.236 . S
N549 Mn533 2.282 . S
N549 C550 1.328 . S
N549 C554 1.318 . S
C550 N549 1.328 . S
C550 C551 1.457 . S
C550 H555 0.929 . S
C551 C550 1.457 . S
C551 C552 1.291 . S
C551 H564 0.931 . S
C552 C551 1.291 . S
C552 C553 1.373 . S
C552 H565 0.929 . S
C553 C552 1.373 . S
C553 C554 1.396 . S
C553 C560 1.403 . S
C554 C544 1.476 . S
C554 N549 1.318 . S
C554 C553 1.396 . S
H555 C550 0.929 . S
O556 Mn532 2.385 . S
O556 C534 1.234 . S
O557 Mn532 2.209 . S
O557 Mn533 2.215 . S
O557 C534 1.283 . S
O558 Mn532 2.094 . S
O558 C536 1.240 . S
O559 Mn533 2.117 . S
O559 C536 1.264 . S
C560 C553 1.403 . S
C560 C561 1.399 . S
C560 H566 0.929 . S
C561 C541 1.449 . S
C561 C560 1.399 . S
C561 H567 0.930 . S
H562 C542 0.931 . S
H563 C543 0.930 . S
H564 C551 0.931 . S
H565 C552 0.929 . S
H566 C560 0.929 . S
H567 C561 0.930 . S
Mn568 O573 2.095 . S
Mn568 O583 2.162 . S
Mn568 O584 2.297 . S
Mn568 O592 2.385 . S
Mn568 O593 2.209 . S
Mn568 O594 2.094 . S
Mn569 O574 2.121 1_455 S
Mn569 N576 2.257 1_455 S
Mn569 N585 2.282 . S
Mn569 O593 2.215 . S
Mn569 O595 2.117 . S
C570 O592 1.234 . S
C570 O593 1.283 . S
C571 O583 1.281 . S
C571 O584 1.236 . S
C572 O594 1.240 . S
C572 O595 1.264 . S
O573 Mn568 2.095 . S
O573 C582 1.250 1_455 S
O574 Mn569 2.121 1_655 S
O574 C582 1.258 . S
C575 N576 1.326 . S
C575 C579 1.460 . S
C575 H581 0.929 . S
N576 Mn569 2.257 1_655 S
N576 C575 1.326 . S
N576 C580 1.362 . S
C577 C578 1.258 . S
C577 C580 1.431 . S
C577 C597 1.449 . S
C578 C577 1.258 . S
C578 C579 1.477 . S
C578 H598 0.931 . S
C579 C575 1.460 . S
C579 C578 1.477 . S
C579 H599 0.930 . S
C580 N576 1.362 . S
C580 C577 1.431 . S
C580 C590 1.476 1_655 S
H581 C575 0.929 . S
C582 O573 1.250 1_655 S
C582 O574 1.258 . S
O583 Mn568 2.162 . S
O583 C571 1.281 . S
O584 Mn568 2.297 . S
O584 C571 1.236 . S
N585 Mn569 2.282 . S
N585 C586 1.328 . S
N585 C590 1.318 . S
C586 N585 1.328 . S
C586 C587 1.457 . S
C586 H591 0.929 . S
C587 C586 1.457 . S
C587 C588 1.291 . S
C587 H600 0.931 . S
C588 C587 1.291 . S
C588 C589 1.373 . S
C588 H601 0.929 . S
C589 C588 1.373 . S
C589 C590 1.396 . S
C589 C596 1.403 1_455 S
C590 C580 1.476 1_455 S
C590 N585 1.318 . S
C590 C589 1.396 . S
H591 C586 0.929 . S
O592 Mn568 2.385 . S
O592 C570 1.234 . S
O593 Mn568 2.209 . S
O593 Mn569 2.215 . S
O593 C570 1.283 . S
O594 Mn568 2.094 . S
O594 C572 1.240 . S
O595 Mn569 2.117 . S
O595 C572 1.264 . S
C596 C589 1.403 1_655 S
C596 C597 1.399 . S
C596 H602 0.929 . S
C597 C577 1.449 . S
C597 C596 1.399 . S
C597 H603 0.930 . S
H598 C578 0.931 . S
H599 C579 0.930 . S
H600 C587 0.931 . S
H601 C588 0.929 . S
H602 C596 0.929 . S
H603 C597 0.930 . S
Mn604 O609 2.095 . S
Mn604 O619 2.162 . S
Mn604 O620 2.297 . S
Mn604 O628 2.385 . S
Mn604 O629 2.209 . S
Mn604 O630 2.094 . S
Mn605 O610 2.121 . S
Mn605 N612 2.257 . S
Mn605 N621 2.282 . S
Mn605 O629 2.215 . S
Mn605 O631 2.117 . S
C606 O628 1.234 . S
C606 O629 1.283 . S
C607 O619 1.281 . S
C607 O620 1.236 . S
C608 O630 1.240 . S
C608 O631 1.264 . S
O609 Mn604 2.095 . S
O609 C618 1.250 . S
O610 Mn605 2.121 . S
O610 C618 1.258 . S
C611 N612 1.326 . S
C611 C615 1.460 . S
C611 H617 0.929 . S
N612 Mn605 2.257 . S
N612 C611 1.326 . S
N612 C616 1.362 . S
C613 C614 1.258 . S
C613 C616 1.431 . S
C613 C633 1.449 . S
C614 C613 1.258 . S
C614 C615 1.477 . S
C614 H634 0.931 . S
C615 C611 1.460 . S
C615 C614 1.477 . S
C615 H635 0.930 . S
C616 N612 1.362 . S
C616 C613 1.431 . S
C616 C626 1.476 . S
H617 C611 0.929 . S
C618 O609 1.250 . S
C618 O610 1.258 . S
O619 Mn604 2.162 . S
O619 C607 1.281 . S
O620 Mn604 2.297 . S
O620 C607 1.236 . S
N621 Mn605 2.282 . S
N621 C622 1.328 . S
N621 C626 1.318 . S
C622 N621 1.328 . S
C622 C623 1.457 . S
C622 H627 0.929 . S
C623 C622 1.457 . S
C623 C624 1.291 . S
C623 H636 0.931 . S
C624 C623 1.291 . S
C624 C625 1.373 . S
C624 H637 0.929 . S
C625 C624 1.373 . S
C625 C626 1.396 . S
C625 C632 1.403 . S
C626 C616 1.476 . S
C626 N621 1.318 . S
C626 C625 1.396 . S
H627 C622 0.929 . S
O628 Mn604 2.385 . S
O628 C606 1.234 . S
O629 Mn604 2.209 . S
O629 Mn605 2.215 . S
O629 C606 1.283 . S
O630 Mn604 2.094 . S
O630 C608 1.240 . S
O631 Mn605 2.117 . S
O631 C608 1.264 . S
C632 C625 1.403 . S
C632 C633 1.399 . S
C632 H638 0.929 . S
C633 C613 1.449 . S
C633 C632 1.399 . S
C633 H639 0.930 . S
H634 C614 0.931 . S
H635 C615 0.930 . S
H636 C623 0.931 . S
H637 C624 0.929 . S
H638 C632 0.929 . S
H639 C633 0.930 . S
H640 C658 0.951 . S
H641 C660 0.951 . S
H642 C662 0.950 . S
H643 C663 0.950 . S
H644 C665 0.950 . S
H645 C668 0.950 . S
H646 C669 0.950 . S
H647 C671 0.950 . S
H648 C672 0.950 . S
H649 C673 0.951 . S
H650 C675 0.951 . S
H651 C677 0.950 . S
H652 C678 0.950 . S
H653 C680 0.950 . S
H654 C683 0.950 . S
H655 C684 0.950 . S
H656 C686 0.950 . S
H657 C687 0.950 . S
C658 H640 0.951 . S
C658 C659 1.366 . S
C658 C660 1.388 . S
C659 C658 1.366 . S
C659 C663 1.385 . S
C660 H641 0.951 . S
C660 C658 1.388 . S
C660 C661 1.366 . S
C661 C660 1.366 . S
C661 C662 1.414 . S
C661 C664 1.499 . S
C662 H642 0.950 . S
C662 C661 1.414 . S
C662 C663 1.374 . S
C663 H643 0.950 . S
C663 C659 1.385 . S
C663 C662 1.374 . S
C664 C661 1.499 . S
C664 C665 1.373 . S
C664 C666 1.389 . S
C665 H644 0.950 . S
C665 C664 1.373 . S
C665 C681 1.377 . S
C666 C664 1.389 . S
C666 C667 1.524 . S
C666 C680 1.377 . S
C667 C666 1.524 . S
C667 C668 1.397 . S
C667 C672 1.363 . S
C668 H645 0.950 . S
C668 C667 1.397 . S
C668 C669 1.334 . S
C669 H646 0.950 . S
C669 C668 1.334 . S
C669 C670 1.287 . S
C670 C669 1.287 . S
C670 C671 1.524 . S
C670 H689 0.913 . S
C671 H647 0.950 . S
C671 C670 1.524 . S
C671 C672 1.415 . S
C672 H648 0.950 . S
C672 C667 1.363 . S
C672 C671 1.415 . S
C673 H649 0.951 . S
C673 C674 1.366 . S
C673 C675 1.388 . S
C674 C673 1.366 . S
C674 C678 1.385 . S
C675 H650 0.951 . S
C675 C673 1.388 . S
C675 C676 1.366 . S
C676 C675 1.366 . S
C676 C677 1.414 . S
C676 C679 1.499 . S
C677 H651 0.950 . S
C677 C676 1.414 . S
C677 C678 1.374 . S
C678 H652 0.950 . S
C678 C674 1.385 . S
C678 C677 1.374 . S
C679 C676 1.499 . S
C679 C680 1.373 . S
C679 C681 1.389 . S
C680 H653 0.950 . S
C680 C666 1.377 . S
C680 C679 1.373 . S
C681 C665 1.377 . S
C681 C679 1.389 . S
C681 C682 1.524 . S
C682 C681 1.524 . S
C682 C683 1.397 . S
C682 C687 1.363 . S
C683 H654 0.950 . S
C683 C682 1.397 . S
C683 C684 1.334 . S
C684 H655 0.950 . S
C684 C683 1.334 . S
C684 C685 1.287 . S
C685 C684 1.287 . S
C685 C686 1.524 . S
C685 H688 0.999 . S
C686 H656 0.950 . S
C686 C685 1.524 . S
C686 C687 1.415 . S
C687 H657 0.950 . S
C687 C682 1.363 . S
C687 C686 1.415 . S
H688 C685 0.999 . S
H689 C670 0.913 . S
H690 C708 0.951 . S
H691 C710 0.951 . S
H692 C712 0.950 . S
H693 C713 0.950 . S
H694 C715 0.950 . S
H695 C718 0.950 . S
H696 C719 0.950 . S
H697 C721 0.950 . S
H698 C722 0.950 . S
H699 C723 0.951 . S
H700 C725 0.951 . S
H701 C727 0.950 . S
H702 C728 0.950 . S
H703 C730 0.950 . S
H704 C733 0.950 . S
H705 C734 0.950 . S
H706 C736 0.950 . S
H707 C737 0.950 . S
C708 H690 0.951 . S
C708 C709 1.366 . S
C708 C710 1.388 . S
C709 C708 1.366 . S
C709 C713 1.385 . S
C710 H691 0.951 . S
C710 C708 1.388 . S
C710 C711 1.366 . S
C711 C710 1.366 . S
C711 C712 1.414 . S
C711 C714 1.499 . S
C712 H692 0.950 . S
C712 C711 1.414 . S
C712 C713 1.374 . S
C713 H693 0.950 . S
C713 C709 1.385 . S
C713 C712 1.374 . S
C714 C711 1.499 . S
C714 C715 1.373 . S
C714 C716 1.389 . S
C715 H694 0.950 . S
C715 C714 1.373 . S
C715 C731 1.377 . S
C716 C714 1.389 . S
C716 C717 1.524 . S
C716 C730 1.377 . S
C717 C716 1.524 . S
C717 C718 1.397 . S
C717 C722 1.363 . S
C718 H695 0.950 . S
C718 C717 1.397 . S
C718 C719 1.334 . S
C719 H696 0.950 . S
C719 C718 1.334 . S
C719 C720 1.287 . S
C720 C719 1.287 . S
C720 C721 1.524 . S
C720 H739 0.913 . S
C721 H697 0.950 . S
C721 C720 1.524 . S
C721 C722 1.415 . S
C722 H698 0.950 . S
C722 C717 1.363 . S
C722 C721 1.415 . S
C723 H699 0.951 . S
C723 C724 1.366 . S
C723 C725 1.388 . S
C724 C723 1.366 . S
C724 C728 1.385 . S
C725 H700 0.951 . S
C725 C723 1.388 . S
C725 C726 1.366 . S
C726 C725 1.366 . S
C726 C727 1.414 . S
C726 C729 1.499 . S
C727 H701 0.950 . S
C727 C726 1.414 . S
C727 C728 1.374 . S
C728 H702 0.950 . S
C728 C724 1.385 . S
C728 C727 1.374 . S
C729 C726 1.499 . S
C729 C730 1.373 . S
C729 C731 1.389 . S
C730 H703 0.950 . S
C730 C716 1.377 . S
C730 C729 1.373 . S
C731 C715 1.377 . S
C731 C729 1.389 . S
C731 C732 1.524 . S
C732 C731 1.524 . S
C732 C733 1.397 . S
C732 C737 1.363 . S
C733 H704 0.950 . S
C733 C732 1.397 . S
C733 C734 1.334 . S
C734 H705 0.950 . S
C734 C733 1.334 . S
C734 C735 1.287 . S
C735 C734 1.287 . S
C735 C736 1.524 . S
C735 H738 0.999 . S
C736 H706 0.950 . S
C736 C735 1.524 . S
C736 C737 1.415 . S
C737 H707 0.950 . S
C737 C732 1.363 . S
C737 C736 1.415 . S
H738 C735 0.999 . S
H739 C720 0.913 . S
H740 C758 0.951 . S
H741 C760 0.951 . S
H742 C762 0.950 . S
H743 C763 0.950 . S
H744 C765 0.950 . S
H745 C768 0.950 . S
H746 C769 0.950 . S
H747 C771 0.950 . S
H748 C772 0.950 . S
H749 C773 0.951 . S
H750 C775 0.951 . S
H751 C777 0.950 . S
H752 C778 0.950 . S
H753 C780 0.950 . S
H754 C783 0.950 . S
H755 C784 0.950 . S
H756 C786 0.950 . S
H757 C787 0.950 . S
C758 H740 0.951 . S
C758 C759 1.366 . S
C758 C760 1.388 . S
C759 C758 1.366 . S
C759 C763 1.385 . S
C760 H741 0.951 . S
C760 C758 1.388 . S
C760 C761 1.366 . S
C761 C760 1.366 . S
C761 C762 1.414 . S
C761 C764 1.499 . S
C762 H742 0.950 . S
C762 C761 1.414 . S
C762 C763 1.374 . S
C763 H743 0.950 . S
C763 C759 1.385 . S
C763 C762 1.374 . S
C764 C761 1.499 . S
C764 C765 1.373 . S
C764 C766 1.389 . S
C765 H744 0.950 . S
C765 C764 1.373 . S
C765 C781 1.377 . S
C766 C764 1.389 . S
C766 C767 1.524 . S
C766 C780 1.377 . S
C767 C766 1.524 . S
C767 C768 1.397 . S
C767 C772 1.363 . S
C768 H745 0.950 . S
C768 C767 1.397 . S
C768 C769 1.334 . S
C769 H746 0.950 . S
C769 C768 1.334 . S
C769 C770 1.287 . S
C770 C769 1.287 . S
C770 C771 1.524 . S
C770 H789 0.913 . S
C771 H747 0.950 . S
C771 C770 1.524 . S
C771 C772 1.415 . S
C772 H748 0.950 . S
C772 C767 1.363 . S
C772 C771 1.415 . S
C773 H749 0.951 . S
C773 C774 1.366 . S
C773 C775 1.388 . S
C774 C773 1.366 . S
C774 C778 1.385 . S
C775 H750 0.951 . S
C775 C773 1.388 . S
C775 C776 1.366 . S
C776 C775 1.366 . S
C776 C777 1.414 . S
C776 C779 1.499 . S
C777 H751 0.950 . S
C777 C776 1.414 . S
C777 C778 1.374 . S
C778 H752 0.950 . S
C778 C774 1.385 . S
C778 C777 1.374 . S
C779 C776 1.499 . S
C779 C780 1.373 . S
C779 C781 1.389 . S
C780 H753 0.950 . S
C780 C766 1.377 . S
C780 C779 1.373 . S
C781 C765 1.377 . S
C781 C779 1.389 . S
C781 C782 1.524 . S
C782 C781 1.524 . S
C782 C783 1.397 . S
C782 C787 1.363 . S
C783 H754 0.950 . S
C783 C782 1.397 . S
C783 C784 1.334 . S
C784 H755 0.950 . S
C784 C783 1.334 . S
C784 C785 1.287 . S
C785 C784 1.287 . S
C785 C786 1.524 . S
C785 H788 0.999 . S
C786 H756 0.950 . S
C786 C785 1.524 . S
C786 C787 1.415 . S
C787 H757 0.950 . S
C787 C782 1.363 . S
C787 C786 1.415 . S
H788 C785 0.999 . S
H789 C770 0.913 . S
H790 C808 0.951 . S
H791 C810 0.952 . S
H792 C812 0.950 . S
H793 C813 0.950 . S
H794 C815 0.950 . S
H795 C818 0.950 . S
H796 C819 0.950 . S
H797 C821 0.950 . S
H798 C822 0.950 . S
H799 C823 0.951 . S
H800 C825 0.951 . S
H801 C827 0.950 . S
H802 C828 0.950 . S
H803 C830 0.950 . S
H804 C833 0.950 . S
H805 C834 0.950 . S
H806 C836 0.950 . S
H807 C837 0.950 . S
C808 H790 0.951 . S
C808 C809 1.366 . S
C808 C810 1.388 . S
C809 C808 1.366 . S
C809 C813 1.385 1_455 S
C810 H791 0.952 . S
C810 C808 1.388 . S
C810 C811 1.366 1_455 S
C811 C810 1.366 1_655 S
C811 C812 1.414 . S
C811 C814 1.498 . S
C812 H792 0.950 . S
C812 C811 1.414 . S
C812 C813 1.374 . S
C813 H793 0.950 . S
C813 C809 1.385 1_655 S
C813 C812 1.374 . S
C814 C811 1.498 . S
C814 C815 1.372 . S
C814 C816 1.392 1_565 S
C815 H794 0.950 . S
C815 C814 1.372 . S
C815 C831 1.377 . S
C816 C814 1.392 1_545 S
C816 C817 1.524 . S
C816 C830 1.377 . S
C817 C816 1.524 . S
C817 C818 1.397 . S
C817 C822 1.363 1_655 S
C818 H795 0.950 . S
C818 C817 1.397 . S
C818 C819 1.334 1_655 S
C819 H796 0.950 . S
C819 C818 1.334 1_455 S
C819 C820 1.287 . S
C820 C819 1.287 . S
C820 C821 1.524 . S
C820 H839 0.913 . S
C821 H797 0.950 . S
C821 C820 1.524 . S
C821 C822 1.415 . S
C822 H798 0.950 . S
C822 C817 1.363 1_455 S
C822 C821 1.415 . S
C823 H799 0.951 . S
C823 C824 1.366 . S
C823 C825 1.388 . S
C824 C823 1.366 . S
C824 C828 1.385 . S
C825 H800 0.951 . S
C825 C823 1.388 . S
C825 C826 1.366 . S
C826 C825 1.366 . S
C826 C827 1.414 . S
C826 C829 1.499 . S
C827 H801 0.950 . S
C827 C826 1.414 . S
C827 C828 1.374 . S
C828 H802 0.950 . S
C828 C824 1.385 . S
C828 C827 1.374 . S
C829 C826 1.499 . S
C829 C830 1.373 . S
C829 C831 1.389 1_545 S
C830 H803 0.950 . S
C830 C816 1.377 . S
C830 C829 1.373 . S
C831 C815 1.377 . S
C831 C829 1.389 1_565 S
C831 C832 1.524 . S
C832 C831 1.524 . S
C832 C833 1.397 . S
C832 C837 1.363 . S
C833 H804 0.950 . S
C833 C832 1.397 . S
C833 C834 1.334 . S
C834 H805 0.950 . S
C834 C833 1.334 . S
C834 C835 1.287 . S
C835 C834 1.287 . S
C835 C836 1.524 . S
C835 H838 0.999 . S
C836 H806 0.950 . S
C836 C835 1.524 . S
C836 C837 1.415 . S
C837 H807 0.950 . S
C837 C832 1.363 . S
C837 C836 1.415 . S
H838 C835 0.999 . S
H839 C820 0.913 . S
H840 C858 0.951 . S
H841 C860 0.951 . S
H842 C862 0.950 . S
H843 C863 0.950 . S
H844 C865 0.950 . S
H845 C868 0.950 . S
H846 C869 0.950 . S
H847 C871 0.950 . S
H848 C872 0.950 . S
H849 C873 0.951 . S
H850 C875 0.951 . S
H851 C877 0.950 . S
H852 C878 0.950 . S
H853 C880 0.950 . S
H854 C883 0.950 . S
H855 C884 0.950 . S
H856 C886 0.950 . S
H857 C887 0.950 . S
C858 H840 0.951 . S
C858 C859 1.366 . S
C858 C860 1.388 . S
C859 C858 1.366 . S
C859 C863 1.385 . S
C860 H841 0.951 . S
C860 C858 1.388 . S
C860 C861 1.366 . S
C861 C860 1.366 . S
C861 C862 1.414 . S
C861 C864 1.499 . S
C862 H842 0.950 . S
C862 C861 1.414 . S
C862 C863 1.374 . S
C863 H843 0.950 . S
C863 C859 1.385 . S
C863 C862 1.374 . S
C864 C861 1.499 . S
C864 C865 1.373 . S
C864 C866 1.389 . S
C865 H844 0.950 . S
C865 C864 1.373 . S
C865 C881 1.377 . S
C866 C864 1.389 . S
C866 C867 1.524 . S
C866 C880 1.377 . S
C867 C866 1.524 . S
C867 C868 1.397 . S
C867 C872 1.363 . S
C868 H845 0.950 . S
C868 C867 1.397 . S
C868 C869 1.334 . S
C869 H846 0.950 . S
C869 C868 1.334 . S
C869 C870 1.287 . S
C870 C869 1.287 . S
C870 C871 1.524 . S
C870 H889 0.913 . S
C871 H847 0.950 . S
C871 C870 1.524 . S
C871 C872 1.415 . S
C872 H848 0.950 . S
C872 C867 1.363 . S
C872 C871 1.415 . S
C873 H849 0.951 . S
C873 C874 1.366 . S
C873 C875 1.388 . S
C874 C873 1.366 . S
C874 C878 1.385 . S
C875 H850 0.951 . S
C875 C873 1.388 . S
C875 C876 1.366 . S
C876 C875 1.366 . S
C876 C877 1.414 . S
C876 C879 1.499 . S
C877 H851 0.950 . S
C877 C876 1.414 . S
C877 C878 1.374 . S
C878 H852 0.950 . S
C878 C874 1.385 . S
C878 C877 1.374 . S
C879 C876 1.499 . S
C879 C880 1.373 . S
C879 C881 1.389 . S
C880 H853 0.950 . S
C880 C866 1.377 . S
C880 C879 1.373 . S
C881 C865 1.377 . S
C881 C879 1.389 . S
C881 C882 1.524 . S
C882 C881 1.524 . S
C882 C883 1.397 . S
C882 C887 1.363 . S
C883 H854 0.950 . S
C883 C882 1.397 . S
C883 C884 1.334 . S
C884 H855 0.950 . S
C884 C883 1.334 . S
C884 C885 1.287 . S
C885 C884 1.287 . S
C885 C886 1.524 . S
C885 H888 0.999 . S
C886 H856 0.950 . S
C886 C885 1.524 . S
C886 C887 1.415 . S
C887 H857 0.950 . S
C887 C882 1.363 . S
C887 C886 1.415 . S
H888 C885 0.999 . S
H889 C870 0.913 . S
H890 C908 0.951 . S
H891 C910 0.951 . S
H892 C912 0.950 . S
H893 C913 0.950 . S
H894 C915 0.950 . S
H895 C918 0.950 . S
H896 C919 0.950 . S
H897 C921 0.950 . S
H898 C922 0.950 . S
H899 C923 0.951 . S
H900 C925 0.951 . S
H901 C927 0.950 . S
H902 C928 0.950 . S
H903 C930 0.950 . S
H904 C933 0.950 . S
H905 C934 0.950 . S
H906 C936 0.950 . S
H907 C937 0.950 . S
C908 H890 0.951 . S
C908 C909 1.366 . S
C908 C910 1.388 . S
C909 C908 1.366 . S
C909 C913 1.385 . S
C910 H891 0.951 . S
C910 C908 1.388 . S
C910 C911 1.366 . S
C911 C910 1.366 . S
C911 C912 1.414 . S
C911 C914 1.499 . S
C912 H892 0.950 . S
C912 C911 1.414 . S
C912 C913 1.374 . S
C913 H893 0.950 . S
C913 C909 1.385 . S
C913 C912 1.374 . S
C914 C911 1.499 . S
C914 C915 1.373 . S
C914 C916 1.389 . S
C915 H894 0.950 . S
C915 C914 1.373 . S
C915 C931 1.377 . S
C916 C914 1.389 . S
C916 C917 1.524 . S
C916 C930 1.377 . S
C917 C916 1.524 . S
C917 C918 1.397 . S
C917 C922 1.363 . S
C918 H895 0.950 . S
C918 C917 1.397 . S
C918 C919 1.334 . S
C919 H896 0.950 . S
C919 C918 1.334 . S
C919 C920 1.287 . S
C920 C919 1.287 . S
C920 C921 1.524 . S
C920 H939 0.913 . S
C921 H897 0.950 . S
C921 C920 1.524 . S
C921 C922 1.415 . S
C922 H898 0.950 . S
C922 C917 1.363 . S
C922 C921 1.415 . S
C923 H899 0.951 . S
C923 C924 1.366 . S
C923 C925 1.388 . S
C924 C923 1.366 . S
C924 C928 1.385 . S
C925 H900 0.951 . S
C925 C923 1.388 . S
C925 C926 1.366 . S
C926 C925 1.366 . S
C926 C927 1.414 . S
C926 C929 1.499 . S
C927 H901 0.950 . S
C927 C926 1.414 . S
C927 C928 1.374 . S
C928 H902 0.950 . S
C928 C924 1.385 . S
C928 C927 1.374 . S
C929 C926 1.499 . S
C929 C930 1.373 . S
C929 C931 1.389 . S
C930 H903 0.950 . S
C930 C916 1.377 . S
C930 C929 1.373 . S
C931 C915 1.377 . S
C931 C929 1.389 . S
C931 C932 1.524 . S
C932 C931 1.524 . S
C932 C933 1.397 . S
C932 C937 1.363 . S
C933 H904 0.950 . S
C933 C932 1.397 . S
C933 C934 1.334 . S
C934 H905 0.950 . S
C934 C933 1.334 . S
C934 C935 1.287 . S
C935 C934 1.287 . S
C935 C936 1.524 . S
C935 H938 0.999 . S
C936 H906 0.950 . S
C936 C935 1.524 . S
C936 C937 1.415 . S
C937 H907 0.950 . S
C937 C932 1.363 . S
C937 C936 1.415 . S
H938 C935 0.999 . S
H939 C920 0.913 . S
H940 C958 0.951 . S
H941 C960 0.951 . S
H942 C962 0.950 . S
H943 C963 0.950 . S
H944 C965 0.950 . S
H945 C968 0.950 . S
H946 C969 0.950 . S
H947 C971 0.950 . S
H948 C972 0.950 . S
H949 C973 0.951 . S
H950 C975 0.951 . S
H951 C977 0.950 . S
H952 C978 0.950 . S
H953 C980 0.950 . S
H954 C983 0.950 . S
H955 C984 0.950 . S
H956 C986 0.950 . S
H957 C987 0.950 . S
C958 H940 0.951 . S
C958 C959 1.366 . S
C958 C960 1.388 . S
C959 C958 1.366 . S
C959 C963 1.385 . S
C960 H941 0.951 . S
C960 C958 1.388 . S
C960 C961 1.366 . S
C961 C960 1.366 . S
C961 C962 1.414 . S
C961 C964 1.499 . S
C962 H942 0.950 . S
C962 C961 1.414 . S
C962 C963 1.374 . S
C963 H943 0.950 . S
C963 C959 1.385 . S
C963 C962 1.374 . S
C964 C961 1.499 . S
C964 C965 1.373 . S
C964 C966 1.389 . S
C965 H944 0.950 . S
C965 C964 1.373 . S
C965 C981 1.377 . S
C966 C964 1.389 . S
C966 C967 1.524 . S
C966 C980 1.377 . S
C967 C966 1.524 . S
C967 C968 1.397 . S
C967 C972 1.363 . S
C968 H945 0.950 . S
C968 C967 1.397 . S
C968 C969 1.334 . S
C969 H946 0.950 . S
C969 C968 1.334 . S
C969 C970 1.287 . S
C970 C969 1.287 . S
C970 C971 1.524 . S
C970 H989 0.913 . S
C971 H947 0.950 . S
C971 C970 1.524 . S
C971 C972 1.415 . S
C972 H948 0.950 . S
C972 C967 1.363 . S
C972 C971 1.415 . S
C973 H949 0.951 . S
C973 C974 1.366 . S
C973 C975 1.388 . S
C974 C973 1.366 . S
C974 C978 1.385 . S
C975 H950 0.951 . S
C975 C973 1.388 . S
C975 C976 1.366 . S
C976 C975 1.366 . S
C976 C977 1.414 . S
C976 C979 1.499 . S
C977 H951 0.950 . S
C977 C976 1.414 . S
C977 C978 1.374 . S
C978 H952 0.950 . S
C978 C974 1.385 . S
C978 C977 1.374 . S
C979 C976 1.499 . S
C979 C980 1.373 . S
C979 C981 1.389 . S
C980 H953 0.950 . S
C980 C966 1.377 . S
C980 C979 1.373 . S
C981 C965 1.377 . S
C981 C979 1.389 . S
C981 C982 1.524 . S
C982 C981 1.524 . S
C982 C983 1.397 . S
C982 C987 1.363 . S
C983 H954 0.950 . S
C983 C982 1.397 . S
C983 C984 1.334 . S
C984 H955 0.950 . S
C984 C983 1.334 . S
C984 C985 1.287 . S
C985 C984 1.287 . S
C985 C986 1.524 . S
C985 H988 0.999 . S
C986 H956 0.950 . S
C986 C985 1.524 . S
C986 C987 1.415 . S
C987 H957 0.950 . S
C987 C982 1.363 . S
C987 C986 1.415 . S
H988 C985 0.999 . S
H989 C970 0.913 . S
H990 C1008 0.951 . S
H991 C1010 0.951 . S
H992 C1012 0.950 1_545 S
H993 C1013 0.950 1_545 S
H994 C1015 0.950 1_545 S
H995 C1018 0.950 . S
H996 C1019 0.950 . S
H997 C1021 0.950 . S
H998 C1022 0.950 . S
H999 C1023 0.951 . S
H1000 C1025 0.951 . S
H1001 C1027 0.950 . S
H1002 C1028 0.950 . S
H1003 C1030 0.950 . S
H1004 C1033 0.950 1_565 S
H1005 C1034 0.950 . S
H1006 C1036 0.950 . S
H1007 C1037 0.950 . S
C1008 H990 0.951 . S
C1008 C1009 1.366 . S
C1008 C1010 1.388 . S
C1009 C1008 1.366 . S
C1009 C1013 1.385 . S
C1010 H991 0.951 . S
C1010 C1008 1.388 . S
C1010 C1011 1.366 . S
C1011 C1010 1.366 . S
C1011 C1012 1.414 . S
C1011 C1014 1.499 . S
C1012 H992 0.950 1_565 S
C1012 C1011 1.414 . S
C1012 C1013 1.374 . S
C1013 H993 0.950 1_565 S
C1013 C1009 1.385 . S
C1013 C1012 1.374 . S
C1014 C1011 1.499 . S
C1014 C1015 1.373 . S
C1014 C1016 1.389 . S
C1015 H994 0.950 1_565 S
C1015 C1014 1.373 . S
C1015 C1031 1.377 . S
C1016 C1014 1.389 . S
C1016 C1017 1.524 . S
C1016 C1030 1.377 . S
C1017 C1016 1.524 . S
C1017 C1018 1.397 . S
C1017 C1022 1.363 . S
C1018 H995 0.950 . S
C1018 C1017 1.397 . S
C1018 C1019 1.334 . S
C1019 H996 0.950 . S
C1019 C1018 1.334 . S
C1019 C1020 1.287 . S
C1020 C1019 1.287 . S
C1020 C1021 1.524 . S
C1020 H1039 0.913 . S
C1021 H997 0.950 . S
C1021 C1020 1.524 . S
C1021 C1022 1.415 . S
C1022 H998 0.950 . S
C1022 C1017 1.363 . S
C1022 C1021 1.415 . S
C1023 H999 0.951 . S
C1023 C1024 1.366 1_545 S
C1023 C1025 1.388 . S
C1024 C1023 1.366 1_565 S
C1024 C1028 1.385 . S
C1025 H1000 0.951 . S
C1025 C1023 1.388 . S
C1025 C1026 1.366 1_545 S
C1026 C1025 1.366 1_565 S
C1026 C1027 1.414 . S
C1026 C1029 1.499 . S
C1027 H1001 0.950 . S
C1027 C1026 1.414 . S
C1027 C1028 1.374 . S
C1028 H1002 0.950 . S
C1028 C1024 1.385 . S
C1028 C1027 1.374 . S
C1029 C1026 1.499 . S
C1029 C1030 1.373 . S
C1029 C1031 1.389 . S
C1030 H1003 0.950 . S
C1030 C1016 1.377 . S
C1030 C1029 1.373 . S
C1031 C1015 1.377 . S
C1031 C1029 1.389 . S
C1031 C1032 1.524 1_565 S
C1032 C1031 1.524 1_545 S
C1032 C1033 1.397 . S
C1032 C1037 1.363 . S
C1033 H1004 0.950 1_545 S
C1033 C1032 1.397 . S
C1033 C1034 1.334 . S
C1034 H1005 0.950 . S
C1034 C1033 1.334 . S
C1034 C1035 1.287 . S
C1035 C1034 1.287 . S
C1035 C1036 1.524 . S
C1035 H1038 0.999 . S
C1036 H1006 0.950 . S
C1036 C1035 1.524 . S
C1036 C1037 1.415 . S
C1037 H1007 0.950 . S
C1037 C1032 1.363 . S
C1037 C1036 1.415 . S
H1038 C1035 0.999 . S
H1039 C1020 0.913 . S
H1040 C1058 0.951 . S
H1041 C1060 0.951 . S
H1042 C1062 0.950 . S
H1043 C1063 0.950 . S
H1044 C1065 0.950 . S
H1045 C1068 0.950 . S
H1046 C1069 0.950 . S
H1047 C1071 0.950 . S
H1048 C1072 0.950 . S
H1049 C1073 0.951 . S
H1050 C1075 0.951 . S
H1051 C1077 0.950 . S
H1052 C1078 0.950 . S
H1053 C1080 0.950 . S
H1054 C1083 0.950 . S
H1055 C1084 0.950 . S
H1056 C1086 0.950 . S
H1057 C1087 0.950 . S
C1058 H1040 0.951 . S
C1058 C1059 1.366 . S
C1058 C1060 1.388 . S
C1059 C1058 1.366 . S
C1059 C1063 1.385 . S
C1060 H1041 0.951 . S
C1060 C1058 1.388 . S
C1060 C1061 1.366 . S
C1061 C1060 1.366 . S
C1061 C1062 1.414 . S
C1061 C1064 1.499 . S
C1062 H1042 0.950 . S
C1062 C1061 1.414 . S
C1062 C1063 1.374 . S
C1063 H1043 0.950 . S
C1063 C1059 1.385 . S
C1063 C1062 1.374 . S
C1064 C1061 1.499 . S
C1064 C1065 1.373 . S
C1064 C1066 1.389 . S
C1065 H1044 0.950 . S
C1065 C1064 1.373 . S
C1065 C1081 1.377 . S
C1066 C1064 1.389 . S
C1066 C1067 1.524 . S
C1066 C1080 1.377 . S
C1067 C1066 1.524 . S
C1067 C1068 1.397 . S
C1067 C1072 1.363 . S
C1068 H1045 0.950 . S
C1068 C1067 1.397 . S
C1068 C1069 1.334 . S
C1069 H1046 0.950 . S
C1069 C1068 1.334 . S
C1069 C1070 1.287 . S
C1070 C1069 1.287 . S
C1070 C1071 1.524 . S
C1070 H1089 0.913 . S
C1071 H1047 0.950 . S
C1071 C1070 1.524 . S
C1071 C1072 1.415 . S
C1072 H1048 0.950 . S
C1072 C1067 1.363 . S
C1072 C1071 1.415 . S
C1073 H1049 0.951 . S
C1073 C1074 1.366 . S
C1073 C1075 1.388 . S
C1074 C1073 1.366 . S
C1074 C1078 1.385 . S
C1075 H1050 0.951 . S
C1075 C1073 1.388 . S
C1075 C1076 1.366 . S
C1076 C1075 1.366 . S
C1076 C1077 1.414 . S
C1076 C1079 1.499 . S
C1077 H1051 0.950 . S
C1077 C1076 1.414 . S
C1077 C1078 1.374 . S
C1078 H1052 0.950 . S
C1078 C1074 1.385 . S
C1078 C1077 1.374 . S
C1079 C1076 1.499 . S
C1079 C1080 1.373 . S
C1079 C1081 1.389 . S
C1080 H1053 0.950 . S
C1080 C1066 1.377 . S
C1080 C1079 1.373 . S
C1081 C1065 1.377 . S
C1081 C1079 1.389 . S
C1081 C1082 1.524 . S
C1082 C1081 1.524 . S
C1082 C1083 1.397 . S
C1082 C1087 1.363 . S
C1083 H1054 0.950 . S
C1083 C1082 1.397 . S
C1083 C1084 1.334 . S
C1084 H1055 0.950 . S
C1084 C1083 1.334 . S
C1084 C1085 1.287 . S
C1085 C1084 1.287 . S
C1085 C1086 1.524 . S
C1085 H1088 0.999 . S
C1086 H1056 0.950 . S
C1086 C1085 1.524 . S
C1086 C1087 1.415 . S
C1087 H1057 0.950 . S
C1087 C1082 1.363 . S
C1087 C1086 1.415 . S
H1088 C1085 0.999 . S
H1089 C1070 0.913 . S
H1090 C1108 0.951 . S
H1091 C1110 0.951 . S
H1092 C1112 0.950 . S
H1093 C1113 0.950 . S
H1094 C1115 0.950 . S
H1095 C1118 0.950 . S
H1096 C1119 0.950 . S
H1097 C1121 0.950 . S
H1098 C1122 0.950 . S
H1099 C1123 0.951 . S
H1100 C1125 0.951 . S
H1101 C1127 0.950 . S
H1102 C1128 0.950 . S
H1103 C1130 0.950 . S
H1104 C1133 0.950 . S
H1105 C1134 0.950 . S
H1106 C1136 0.950 . S
H1107 C1137 0.950 . S
C1108 H1090 0.951 . S
C1108 C1109 1.366 . S
C1108 C1110 1.388 . S
C1109 C1108 1.366 . S
C1109 C1113 1.385 . S
C1110 H1091 0.951 . S
C1110 C1108 1.388 . S
C1110 C1111 1.366 . S
C1111 C1110 1.366 . S
C1111 C1112 1.414 . S
C1111 C1114 1.499 . S
C1112 H1092 0.950 . S
C1112 C1111 1.414 . S
C1112 C1113 1.374 . S
C1113 H1093 0.950 . S
C1113 C1109 1.385 . S
C1113 C1112 1.374 . S
C1114 C1111 1.499 . S
C1114 C1115 1.373 . S
C1114 C1116 1.389 . S
C1115 H1094 0.950 . S
C1115 C1114 1.373 . S
C1115 C1131 1.377 . S
C1116 C1114 1.389 . S
C1116 C1117 1.524 . S
C1116 C1130 1.377 . S
C1117 C1116 1.524 . S
C1117 C1118 1.397 . S
C1117 C1122 1.363 . S
C1118 H1095 0.950 . S
C1118 C1117 1.397 . S
C1118 C1119 1.334 . S
C1119 H1096 0.950 . S
C1119 C1118 1.334 . S
C1119 C1120 1.287 . S
C1120 C1119 1.287 . S
C1120 C1121 1.524 . S
C1120 H1139 0.913 . S
C1121 H1097 0.950 . S
C1121 C1120 1.524 . S
C1121 C1122 1.415 . S
C1122 H1098 0.950 . S
C1122 C1117 1.363 . S
C1122 C1121 1.415 . S
C1123 H1099 0.951 . S
C1123 C1124 1.366 . S
C1123 C1125 1.388 . S
C1124 C1123 1.366 . S
C1124 C1128 1.385 . S
C1125 H1100 0.951 . S
C1125 C1123 1.388 . S
C1125 C1126 1.366 . S
C1126 C1125 1.366 . S
C1126 C1127 1.414 . S
C1126 C1129 1.499 . S
C1127 H1101 0.950 . S
C1127 C1126 1.414 . S
C1127 C1128 1.374 . S
C1128 H1102 0.950 . S
C1128 C1124 1.385 . S
C1128 C1127 1.374 . S
C1129 C1126 1.499 . S
C1129 C1130 1.373 . S
C1129 C1131 1.389 . S
C1130 H1103 0.950 . S
C1130 C1116 1.377 . S
C1130 C1129 1.373 . S
C1131 C1115 1.377 . S
C1131 C1129 1.389 . S
C1131 C1132 1.524 . S
C1132 C1131 1.524 . S
C1132 C1133 1.397 . S
C1132 C1137 1.363 . S
C1133 H1104 0.950 . S
C1133 C1132 1.397 . S
C1133 C1134 1.334 . S
C1134 H1105 0.950 . S
C1134 C1133 1.334 . S
C1134 C1135 1.287 . S
C1135 C1134 1.287 . S
C1135 C1136 1.524 . S
C1135 H1138 0.999 . S
C1136 H1106 0.950 . S
C1136 C1135 1.524 . S
C1136 C1137 1.415 . S
C1137 H1107 0.950 . S
C1137 C1132 1.363 . S
C1137 C1136 1.415 . S
H1138 C1135 0.999 . S
H1139 C1120 0.913 . S
H1140 C1158 0.951 . S
H1141 C1160 0.951 . S
H1142 C1162 0.950 . S
H1143 C1163 0.950 . S
H1144 C1165 0.950 . S
H1145 C1168 0.950 . S
H1146 C1169 0.950 . S
H1147 C1171 0.950 . S
H1148 C1172 0.950 . S
H1149 C1173 0.951 . S
H1150 C1175 0.951 . S
H1151 C1177 0.950 . S
H1152 C1178 0.950 . S
H1153 C1180 0.950 . S
H1154 C1183 0.950 . S
H1155 C1184 0.950 . S
H1156 C1186 0.950 . S
H1157 C1187 0.950 . S
C1158 H1140 0.951 . S
C1158 C1159 1.366 . S
C1158 C1160 1.388 . S
C1159 C1158 1.366 . S
C1159 C1163 1.385 . S
C1160 H1141 0.951 . S
C1160 C1158 1.388 . S
C1160 C1161 1.366 . S
C1161 C1160 1.366 . S
C1161 C1162 1.414 . S
C1161 C1164 1.499 . S
C1162 H1142 0.950 . S
C1162 C1161 1.414 . S
C1162 C1163 1.374 . S
C1163 H1143 0.950 . S
C1163 C1159 1.385 . S
C1163 C1162 1.374 . S
C1164 C1161 1.499 . S
C1164 C1165 1.373 . S
C1164 C1166 1.389 . S
C1165 H1144 0.950 . S
C1165 C1164 1.373 . S
C1165 C1181 1.377 . S
C1166 C1164 1.389 . S
C1166 C1167 1.524 . S
C1166 C1180 1.377 . S
C1167 C1166 1.524 . S
C1167 C1168 1.397 . S
C1167 C1172 1.363 . S
C1168 H1145 0.950 . S
C1168 C1167 1.397 . S
C1168 C1169 1.334 . S
C1169 H1146 0.950 . S
C1169 C1168 1.334 . S
C1169 C1170 1.287 . S
C1170 C1169 1.287 . S
C1170 C1171 1.524 . S
C1170 H1189 0.913 . S
C1171 H1147 0.950 . S
C1171 C1170 1.524 . S
C1171 C1172 1.415 . S
C1172 H1148 0.950 . S
C1172 C1167 1.363 . S
C1172 C1171 1.415 . S
C1173 H1149 0.951 . S
C1173 C1174 1.366 . S
C1173 C1175 1.388 . S
C1174 C1173 1.366 . S
C1174 C1178 1.385 . S
C1175 H1150 0.951 . S
C1175 C1173 1.388 . S
C1175 C1176 1.366 . S
C1176 C1175 1.366 . S
C1176 C1177 1.414 . S
C1176 C1179 1.499 . S
C1177 H1151 0.950 . S
C1177 C1176 1.414 . S
C1177 C1178 1.374 . S
C1178 H1152 0.950 . S
C1178 C1174 1.385 . S
C1178 C1177 1.374 . S
C1179 C1176 1.499 . S
C1179 C1180 1.373 . S
C1179 C1181 1.389 . S
C1180 H1153 0.950 . S
C1180 C1166 1.377 . S
C1180 C1179 1.373 . S
C1181 C1165 1.377 . S
C1181 C1179 1.389 . S
C1181 C1182 1.524 . S
C1182 C1181 1.524 . S
C1182 C1183 1.397 . S
C1182 C1187 1.363 . S
C1183 H1154 0.950 . S
C1183 C1182 1.397 . S
C1183 C1184 1.334 . S
C1184 H1155 0.950 . S
C1184 C1183 1.334 . S
C1184 C1185 1.287 . S
C1185 C1184 1.287 . S
C1185 C1186 1.524 . S
C1185 H1188 0.999 . S
C1186 H1156 0.950 . S
C1186 C1185 1.524 . S
C1186 C1187 1.415 . S
C1187 H1157 0.950 . S
C1187 C1182 1.363 . S
C1187 C1186 1.415 . S
H1188 C1185 0.999 . S
H1189 C1170 0.913 . S
H1190 C1208 0.951 . S
H1191 C1210 0.951 . S
H1192 C1212 0.950 . S
H1193 C1213 0.950 . S
H1194 C1215 0.950 . S
H1195 C1218 0.950 . S
H1196 C1219 0.950 . S
H1197 C1221 0.950 . S
H1198 C1222 0.950 . S
H1199 C1223 0.951 . S
H1200 C1225 0.951 . S
H1201 C1227 0.950 . S
H1202 C1228 0.950 . S
H1203 C1230 0.950 . S
H1204 C1233 0.950 . S
H1205 C1234 0.950 . S
H1206 C1236 0.950 . S
H1207 C1237 0.950 . S
C1208 H1190 0.951 . S
C1208 C1209 1.366 . S
C1208 C1210 1.388 . S
C1209 C1208 1.366 . S
C1209 C1213 1.385 . S
C1210 H1191 0.951 . S
C1210 C1208 1.388 . S
C1210 C1211 1.366 . S
C1211 C1210 1.366 . S
C1211 C1212 1.414 . S
C1211 C1214 1.499 . S
C1212 H1192 0.950 . S
C1212 C1211 1.414 . S
C1212 C1213 1.374 . S
C1213 H1193 0.950 . S
C1213 C1209 1.385 . S
C1213 C1212 1.374 . S
C1214 C1211 1.499 . S
C1214 C1215 1.373 . S
C1214 C1216 1.389 . S
C1215 H1194 0.950 . S
C1215 C1214 1.373 . S
C1215 C1231 1.377 . S
C1216 C1214 1.389 . S
C1216 C1217 1.524 . S
C1216 C1230 1.377 . S
C1217 C1216 1.524 . S
C1217 C1218 1.397 . S
C1217 C1222 1.363 . S
C1218 H1195 0.950 . S
C1218 C1217 1.397 . S
C1218 C1219 1.334 . S
C1219 H1196 0.950 . S
C1219 C1218 1.334 . S
C1219 C1220 1.287 . S
C1220 C1219 1.287 . S
C1220 C1221 1.524 . S
C1220 H1239 0.913 . S
C1221 H1197 0.950 . S
C1221 C1220 1.524 . S
C1221 C1222 1.415 . S
C1222 H1198 0.950 . S
C1222 C1217 1.363 . S
C1222 C1221 1.415 . S
C1223 H1199 0.951 . S
C1223 C1224 1.366 . S
C1223 C1225 1.388 . S
C1224 C1223 1.366 . S
C1224 C1228 1.385 . S
C1225 H1200 0.951 . S
C1225 C1223 1.388 . S
C1225 C1226 1.366 . S
C1226 C1225 1.366 . S
C1226 C1227 1.414 . S
C1226 C1229 1.499 . S
C1227 H1201 0.950 . S
C1227 C1226 1.414 . S
C1227 C1228 1.374 . S
C1228 H1202 0.950 . S
C1228 C1224 1.385 . S
C1228 C1227 1.374 . S
C1229 C1226 1.499 . S
C1229 C1230 1.373 . S
C1229 C1231 1.389 . S
C1230 H1203 0.950 . S
C1230 C1216 1.377 . S
C1230 C1229 1.373 . S
C1231 C1215 1.377 . S
C1231 C1229 1.389 . S
C1231 C1232 1.524 . S
C1232 C1231 1.524 . S
C1232 C1233 1.397 . S
C1232 C1237 1.363 . S
C1233 H1204 0.950 . S
C1233 C1232 1.397 . S
C1233 C1234 1.334 . S
C1234 H1205 0.950 . S
C1234 C1233 1.334 . S
C1234 C1235 1.287 . S
C1235 C1234 1.287 . S
C1235 C1236 1.524 . S
C1235 H1238 0.999 . S
C1236 H1206 0.950 . S
C1236 C1235 1.524 . S
C1236 C1237 1.415 . S
C1237 H1207 0.950 . S
C1237 C1232 1.363 . S
C1237 C1236 1.415 . S
H1238 C1235 0.999 . S
H1239 C1220 0.913 . S
H1240 C1258 0.951 . S
H1241 C1260 0.951 . S
H1242 C1262 0.950 . S
H1243 C1263 0.950 . S
H1244 C1265 0.950 . S
H1245 C1268 0.950 . S
H1246 C1269 0.950 . S
H1247 C1271 0.950 . S
H1248 C1272 0.950 . S
H1249 C1273 0.951 . S
H1250 C1275 0.951 . S
H1251 C1277 0.950 . S
H1252 C1278 0.950 . S
H1253 C1280 0.950 . S
H1254 C1283 0.950 . S
H1255 C1284 0.950 . S
H1256 C1286 0.935 1_455 S
H1257 C1287 0.950 . S
C1258 H1240 0.951 . S
C1258 C1259 1.366 . S
C1258 C1260 1.388 . S
C1259 C1258 1.366 . S
C1259 C1263 1.385 . S
C1260 H1241 0.951 . S
C1260 C1258 1.388 . S
C1260 C1261 1.366 . S
C1261 C1260 1.366 . S
C1261 C1262 1.414 . S
C1261 C1264 1.499 . S
C1262 H1242 0.950 . S
C1262 C1261 1.414 . S
C1262 C1263 1.374 . S
C1263 H1243 0.950 . S
C1263 C1259 1.385 . S
C1263 C1262 1.374 . S
C1264 C1261 1.499 . S
C1264 C1265 1.373 . S
C1264 C1266 1.389 . S
C1265 H1244 0.950 . S
C1265 C1264 1.373 . S
C1265 C1281 1.377 . S
C1266 C1264 1.389 . S
C1266 C1267 1.524 . S
C1266 C1280 1.377 . S
C1267 C1266 1.524 . S
C1267 C1268 1.397 . S
C1267 C1272 1.363 . S
C1268 H1245 0.950 . S
C1268 C1267 1.397 . S
C1268 C1269 1.334 . S
C1269 H1246 0.950 . S
C1269 C1268 1.334 . S
C1269 C1270 1.287 . S
C1270 C1269 1.287 . S
C1270 C1271 1.524 . S
C1270 H1289 0.913 . S
C1271 H1247 0.950 . S
C1271 C1270 1.524 . S
C1271 C1272 1.415 . S
C1272 H1248 0.950 . S
C1272 C1267 1.363 . S
C1272 C1271 1.415 . S
C1273 H1249 0.951 . S
C1273 C1274 1.366 . S
C1273 C1275 1.388 . S
C1274 C1273 1.366 . S
C1274 C1278 1.385 . S
C1275 H1250 0.951 . S
C1275 C1273 1.388 . S
C1275 C1276 1.366 . S
C1276 C1275 1.366 . S
C1276 C1277 1.414 . S
C1276 C1279 1.499 . S
C1277 H1251 0.950 . S
C1277 C1276 1.414 . S
C1277 C1278 1.374 . S
C1278 H1252 0.950 . S
C1278 C1274 1.385 . S
C1278 C1277 1.374 . S
C1279 C1276 1.499 . S
C1279 C1280 1.373 . S
C1279 C1281 1.389 . S
C1280 H1253 0.950 . S
C1280 C1266 1.377 . S
C1280 C1279 1.373 . S
C1281 C1265 1.377 . S
C1281 C1279 1.389 . S
C1281 C1282 1.524 . S
C1282 C1281 1.524 . S
C1282 C1283 1.397 . S
C1282 C1287 1.363 . S
C1283 H1254 0.950 . S
C1283 C1282 1.397 . S
C1283 C1284 1.334 1_655 S
C1284 H1255 0.950 . S
C1284 C1283 1.334 1_455 S
C1284 C1285 1.287 . S
C1285 C1284 1.287 . S
C1285 C1286 1.524 1_455 S
C1285 H1288 0.999 . S
C1286 H1256 0.935 1_655 S
C1286 C1285 1.524 1_655 S
C1286 C1287 1.415 . S
C1287 H1257 0.950 . S
C1287 C1282 1.363 . S
C1287 C1286 1.415 . S
H1288 C1285 0.999 . S
H1289 C1270 0.913 . S
H1290 C1308 0.951 . S
H1291 C1310 0.951 . S
H1292 C1312 0.950 . S
H1293 C1313 0.950 . S
H1294 C1315 0.950 . S
H1295 C1318 0.950 . S
H1296 C1319 0.950 . S
H1297 C1321 0.950 . S
H1298 C1322 0.950 . S
H1299 C1323 0.951 . S
H1300 C1325 0.951 . S
H1301 C1327 0.960 . S
H1302 C1328 0.950 1_655 S
H1303 C1330 0.950 . S
H1304 C1333 0.950 . S
H1305 C1334 0.950 . S
H1306 C1336 0.950 . S
H1307 C1337 0.950 . S
C1308 H1290 0.951 . S
C1308 C1309 1.366 . S
C1308 C1310 1.388 . S
C1309 C1308 1.366 . S
C1309 C1313 1.385 . S
C1310 H1291 0.951 . S
C1310 C1308 1.388 . S
C1310 C1311 1.366 . S
C1311 C1310 1.366 . S
C1311 C1312 1.414 . S
C1311 C1314 1.499 . S
C1312 H1292 0.950 . S
C1312 C1311 1.414 . S
C1312 C1313 1.374 . S
C1313 H1293 0.950 . S
C1313 C1309 1.385 . S
C1313 C1312 1.374 . S
C1314 C1311 1.499 . S
C1314 C1315 1.373 . S
C1314 C1316 1.389 . S
C1315 H1294 0.950 . S
C1315 C1314 1.373 . S
C1315 C1331 1.377 . S
C1316 C1314 1.389 . S
C1316 C1317 1.524 . S
C1316 C1330 1.377 . S
C1317 C1316 1.524 . S
C1317 C1318 1.397 . S
C1317 C1322 1.363 1_455 S
C1318 H1295 0.950 . S
C1318 C1317 1.397 . S
C1318 C1319 1.334 . S
C1319 H1296 0.950 . S
C1319 C1318 1.334 . S
C1319 C1320 1.287 1_455 S
C1320 C1319 1.287 1_655 S
C1320 C1321 1.524 . S
C1320 H1339 0.913 . S
C1321 H1297 0.950 . S
C1321 C1320 1.524 . S
C1321 C1322 1.415 . S
C1322 H1298 0.950 . S
C1322 C1317 1.363 1_655 S
C1322 C1321 1.415 . S
C1323 H1299 0.951 . S
C1323 C1324 1.366 . S
C1323 C1325 1.388 . S
C1324 C1323 1.366 . S
C1324 C1328 1.385 . S
C1325 H1300 0.951 . S
C1325 C1323 1.388 . S
C1325 C1326 1.366 . S
C1326 C1325 1.366 . S
C1326 C1327 1.414 . S
C1326 C1329 1.499 . S
C1327 H1301 0.960 . S
C1327 C1326 1.414 . S
C1327 C1328 1.374 . S
C1328 H1302 0.950 1_455 S
C1328 C1324 1.385 . S
C1328 C1327 1.374 . S
C1329 C1326 1.499 . S
C1329 C1330 1.373 . S
C1329 C1331 1.389 . S
C1330 H1303 0.950 . S
C1330 C1316 1.377 . S
C1330 C1329 1.373 . S
C1331 C1315 1.377 . S
C1331 C1329 1.389 . S
C1331 C1332 1.524 . S
C1332 C1331 1.524 . S
C1332 C1333 1.397 . S
C1332 C1337 1.363 . S
C1333 H1304 0.950 . S
C1333 C1332 1.397 . S
C1333 C1334 1.334 . S
C1334 H1305 0.950 . S
C1334 C1333 1.334 . S
C1334 C1335 1.287 . S
C1335 C1334 1.287 . S
C1335 C1336 1.524 . S
C1335 H1338 0.999 . S
C1336 H1306 0.950 . S
C1336 C1335 1.524 . S
C1336 C1337 1.415 . S
C1337 H1307 0.950 . S
C1337 C1332 1.363 . S
C1337 C1336 1.415 . S
H1338 C1335 0.999 . S
H1339 C1320 0.913 . S
H1340 C1358 0.951 . S
H1341 C1360 0.951 . S
H1342 C1362 0.950 . S
H1343 C1363 0.950 . S
H1344 C1365 0.950 . S
H1345 C1368 0.950 . S
H1346 C1369 0.950 . S
H1347 C1371 0.950 . S
H1348 C1372 0.950 . S
H1349 C1373 0.951 . S
H1350 C1375 0.951 . S
H1351 C1377 0.950 . S
H1352 C1378 0.950 . S
H1353 C1380 0.950 . S
H1354 C1383 0.950 . S
H1355 C1384 0.950 . S
H1356 C1386 0.950 . S
H1357 C1387 0.950 . S
C1358 H1340 0.951 . S
C1358 C1359 1.366 . S
C1358 C1360 1.388 . S
C1359 C1358 1.366 . S
C1359 C1363 1.385 . S
C1360 H1341 0.951 . S
C1360 C1358 1.388 . S
C1360 C1361 1.366 . S
C1361 C1360 1.366 . S
C1361 C1362 1.414 . S
C1361 C1364 1.499 . S
C1362 H1342 0.950 . S
C1362 C1361 1.414 . S
C1362 C1363 1.374 . S
C1363 H1343 0.950 . S
C1363 C1359 1.385 . S
C1363 C1362 1.374 . S
C1364 C1361 1.499 . S
C1364 C1365 1.373 . S
C1364 C1366 1.389 . S
C1365 H1344 0.950 . S
C1365 C1364 1.373 . S
C1365 C1381 1.377 . S
C1366 C1364 1.389 . S
C1366 C1367 1.524 . S
C1366 C1380 1.377 . S
C1367 C1366 1.524 . S
C1367 C1368 1.397 . S
C1367 C1372 1.363 . S
C1368 H1345 0.950 . S
C1368 C1367 1.397 . S
C1368 C1369 1.334 . S
C1369 H1346 0.950 . S
C1369 C1368 1.334 . S
C1369 C1370 1.287 . S
C1370 C1369 1.287 . S
C1370 C1371 1.524 . S
C1370 H1389 0.913 . S
C1371 H1347 0.950 . S
C1371 C1370 1.524 . S
C1371 C1372 1.415 . S
C1372 H1348 0.950 . S
C1372 C1367 1.363 . S
C1372 C1371 1.415 . S
C1373 H1349 0.951 . S
C1373 C1374 1.366 . S
C1373 C1375 1.388 . S
C1374 C1373 1.366 . S
C1374 C1378 1.385 . S
C1375 H1350 0.951 . S
C1375 C1373 1.388 . S
C1375 C1376 1.366 . S
C1376 C1375 1.366 . S
C1376 C1377 1.414 . S
C1376 C1379 1.499 . S
C1377 H1351 0.950 . S
C1377 C1376 1.414 . S
C1377 C1378 1.374 . S
C1378 H1352 0.950 . S
C1378 C1374 1.385 . S
C1378 C1377 1.374 . S
C1379 C1376 1.499 . S
C1379 C1380 1.373 . S
C1379 C1381 1.389 . S
C1380 H1353 0.950 . S
C1380 C1366 1.377 . S
C1380 C1379 1.373 . S
C1381 C1365 1.377 . S
C1381 C1379 1.389 . S
C1381 C1382 1.524 . S
C1382 C1381 1.524 . S
C1382 C1383 1.397 . S
C1382 C1387 1.363 . S
C1383 H1354 0.950 . S
C1383 C1382 1.397 . S
C1383 C1384 1.334 . S
C1384 H1355 0.950 . S
C1384 C1383 1.334 . S
C1384 C1385 1.287 . S
C1385 C1384 1.287 . S
C1385 C1386 1.524 . S
C1385 H1388 0.999 . S
C1386 H1356 0.950 . S
C1386 C1385 1.524 . S
C1386 C1387 1.415 . S
C1387 H1357 0.950 . S
C1387 C1382 1.363 . S
C1387 C1386 1.415 . S
H1388 C1385 0.999 . S
H1389 C1370 0.913 . S
H1390 C1408 0.951 . S
H1391 C1410 0.951 . S
H1392 C1412 0.950 . S
H1393 C1413 0.950 . S
H1394 C1415 0.951 . S
H1395 C1418 0.950 . S
H1396 C1419 0.950 . S
H1397 C1421 0.950 . S
H1398 C1422 0.950 . S
H1399 C1423 0.951 . S
H1400 C1425 0.951 . S
H1401 C1427 0.950 . S
H1402 C1428 0.950 . S
H1403 C1430 0.950 . S
H1404 C1433 0.950 . S
H1405 C1434 0.950 . S
H1406 C1436 0.922 1_655 S
H1407 C1437 0.950 . S
C1408 H1390 0.951 . S
C1408 C1409 1.366 1_455 S
C1408 C1410 1.388 . S
C1409 C1408 1.366 1_655 S
C1409 C1413 1.385 . S
C1410 H1391 0.951 . S
C1410 C1408 1.388 . S
C1410 C1411 1.366 1_455 S
C1411 C1410 1.366 1_655 S
C1411 C1412 1.414 . S
C1411 C1414 1.499 . S
C1412 H1392 0.950 . S
C1412 C1411 1.414 . S
C1412 C1413 1.374 . S
C1413 H1393 0.950 . S
C1413 C1409 1.385 . S
C1413 C1412 1.374 . S
C1414 C1411 1.499 . S
C1414 C1415 1.373 1_655 S
C1414 C1416 1.389 1_655 S
C1415 H1394 0.951 . S
C1415 C1414 1.373 1_455 S
C1415 C1431 1.377 . S
C1416 C1414 1.389 1_455 S
C1416 C1417 1.524 1_455 S
C1416 C1430 1.377 . S
C1417 C1416 1.524 1_655 S
C1417 C1418 1.397 . S
C1417 C1422 1.363 1_655 S
C1418 H1395 0.950 . S
C1418 C1417 1.397 . S
C1418 C1419 1.334 . S
C1419 H1396 0.950 . S
C1419 C1418 1.334 . S
C1419 C1420 1.287 . S
C1420 C1419 1.287 . S
C1420 C1421 1.524 1_655 S
C1420 H1439 0.913 . S
C1421 H1397 0.950 . S
C1421 C1420 1.524 1_455 S
C1421 C1422 1.415 . S
C1422 H1398 0.950 . S
C1422 C1417 1.363 1_455 S
C1422 C1421 1.415 . S
C1423 H1399 0.951 . S
C1423 C1424 1.366 1_655 S
C1423 C1425 1.388 . S
C1424 C1423 1.366 1_455 S
C1424 C1428 1.385 . S
C1425 H1400 0.951 . S
C1425 C1423 1.388 . S
C1425 C1426 1.366 1_655 S
C1426 C1425 1.366 1_455 S
C1426 C1427 1.414 . S
C1426 C1429 1.499 . S
C1427 H1401 0.950 . S
C1427 C1426 1.414 . S
C1427 C1428 1.374 . S
C1428 H1402 0.950 . S
C1428 C1424 1.385 . S
C1428 C1427 1.374 . S
C1429 C1426 1.499 . S
C1429 C1430 1.373 . S
C1429 C1431 1.389 . S
C1430 H1403 0.950 . S
C1430 C1416 1.377 . S
C1430 C1429 1.373 . S
C1431 C1415 1.377 . S
C1431 C1429 1.389 . S
C1431 C1432 1.524 . S
C1432 C1431 1.524 . S
C1432 C1433 1.397 . S
C1432 C1437 1.363 1_455 S
C1433 H1404 0.950 . S
C1433 C1432 1.397 . S
C1433 C1434 1.334 . S
C1434 H1405 0.950 . S
C1434 C1433 1.334 . S
C1434 C1435 1.287 . S
C1435 C1434 1.287 . S
C1435 C1436 1.560 . S
C1435 H1438 0.999 . S
C1436 H1406 0.922 1_455 S
C1436 C1435 1.560 . S
C1436 C1437 1.412 1_455 S
C1437 H1407 0.950 . S
C1437 C1432 1.363 1_655 S
C1437 C1436 1.412 1_655 S
H1438 C1435 0.999 . S
H1439 C1420 0.913 . S
H1440 C1458 0.951 . S
H1441 C1460 0.951 . S
H1442 C1462 0.950 . S
H1443 C1463 0.950 . S
H1444 C1465 0.950 . S
H1445 C1468 0.950 . S
H1446 C1469 0.950 . S
H1447 C1471 0.950 . S
H1448 C1472 0.950 . S
H1449 C1473 0.902 1_545 S
H1450 C1475 0.951 . S
H1451 C1477 0.950 . S
H1452 C1478 0.950 . S
H1453 C1480 0.950 . S
H1454 C1483 0.950 . S
H1455 C1484 0.950 . S
H1456 C1486 0.950 . S
H1457 C1487 0.950 . S
C1458 H1440 0.951 . S
C1458 C1459 1.366 . S
C1458 C1460 1.388 . S
C1459 C1458 1.366 . S
C1459 C1463 1.385 . S
C1460 H1441 0.951 . S
C1460 C1458 1.388 . S
C1460 C1461 1.366 . S
C1461 C1460 1.366 . S
C1461 C1462 1.414 . S
C1461 C1464 1.499 . S
C1462 H1442 0.950 . S
C1462 C1461 1.414 . S
C1462 C1463 1.374 . S
C1463 H1443 0.950 . S
C1463 C1459 1.385 . S
C1463 C1462 1.374 . S
C1464 C1461 1.499 . S
C1464 C1465 1.373 . S
C1464 C1466 1.389 . S
C1465 H1444 0.950 . S
C1465 C1464 1.373 . S
C1465 C1481 1.377 . S
C1466 C1464 1.389 . S
C1466 C1467 1.524 . S
C1466 C1480 1.377 . S
C1467 C1466 1.524 . S
C1467 C1468 1.397 . S
C1467 C1472 1.363 . S
C1468 H1445 0.950 . S
C1468 C1467 1.397 . S
C1468 C1469 1.334 . S
C1469 H1446 0.950 . S
C1469 C1468 1.334 . S
C1469 C1470 1.287 . S
C1470 C1469 1.287 . S
C1470 C1471 1.524 . S
C1470 H1489 0.913 . S
C1471 H1447 0.950 . S
C1471 C1470 1.524 . S
C1471 C1472 1.415 . S
C1472 H1448 0.950 . S
C1472 C1467 1.363 . S
C1472 C1471 1.415 . S
C1473 H1449 0.902 1_565 S
C1473 C1474 1.366 . S
C1473 C1475 1.388 . S
C1474 C1473 1.366 . S
C1474 C1478 1.385 . S
C1475 H1450 0.951 . S
C1475 C1473 1.388 . S
C1475 C1476 1.366 . S
C1476 C1475 1.366 . S
C1476 C1477 1.414 . S
C1476 C1479 1.499 . S
C1477 H1451 0.950 . S
C1477 C1476 1.414 . S
C1477 C1478 1.374 . S
C1478 H1452 0.950 . S
C1478 C1474 1.385 . S
C1478 C1477 1.374 . S
C1479 C1476 1.499 . S
C1479 C1480 1.373 . S
C1479 C1481 1.389 . S
C1480 H1453 0.950 . S
C1480 C1466 1.377 . S
C1480 C1479 1.373 . S
C1481 C1465 1.377 . S
C1481 C1479 1.389 . S
C1481 C1482 1.524 . S
C1482 C1481 1.524 . S
C1482 C1483 1.397 . S
C1482 C1487 1.363 . S
C1483 H1454 0.950 . S
C1483 C1482 1.397 . S
C1483 C1484 1.334 . S
C1484 H1455 0.950 . S
C1484 C1483 1.334 . S
C1484 C1485 1.287 . S
C1485 C1484 1.287 . S
C1485 C1486 1.524 . S
C1485 H1488 0.999 . S
C1486 H1456 0.950 . S
C1486 C1485 1.524 . S
C1486 C1487 1.415 . S
C1487 H1457 0.950 . S
C1487 C1482 1.363 . S
C1487 C1486 1.415 . S
H1488 C1485 0.999 . S
H1489 C1470 0.913 . S
H1490 C1508 0.951 . S
H1491 C1510 0.951 . S
H1492 C1512 0.950 . S
H1493 C1513 0.950 . S
H1494 C1515 0.950 . S
H1495 C1518 0.950 . S
H1496 C1519 0.950 . S
H1497 C1521 0.950 . S
H1498 C1522 0.950 . S
H1499 C1523 0.951 . S
H1500 C1525 0.951 . S
H1501 C1527 0.950 . S
H1502 C1528 0.950 . S
H1503 C1530 0.950 . S
H1504 C1533 0.950 . S
H1505 C1534 0.950 . S
H1506 C1536 0.950 . S
H1507 C1537 0.950 . S
C1508 H1490 0.951 . S
C1508 C1509 1.366 . S
C1508 C1510 1.388 . S
C1509 C1508 1.366 . S
C1509 C1513 1.385 . S
C1510 H1491 0.951 . S
C1510 C1508 1.388 . S
C1510 C1511 1.366 . S
C1511 C1510 1.366 . S
C1511 C1512 1.414 . S
C1511 C1514 1.499 . S
C1512 H1492 0.950 . S
C1512 C1511 1.414 . S
C1512 C1513 1.374 . S
C1513 H1493 0.950 . S
C1513 C1509 1.385 . S
C1513 C1512 1.374 . S
C1514 C1511 1.499 . S
C1514 C1515 1.373 . S
C1514 C1516 1.389 . S
C1515 H1494 0.950 . S
C1515 C1514 1.373 . S
C1515 C1531 1.377 . S
C1516 C1514 1.389 . S
C1516 C1517 1.524 . S
C1516 C1530 1.377 . S
C1517 C1516 1.524 . S
C1517 C1518 1.397 . S
C1517 C1522 1.363 . S
C1518 H1495 0.950 . S
C1518 C1517 1.397 . S
C1518 C1519 1.334 . S
C1519 H1496 0.950 . S
C1519 C1518 1.334 . S
C1519 C1520 1.287 . S
C1520 C1519 1.287 . S
C1520 C1521 1.524 . S
C1520 H1539 0.913 . S
C1521 H1497 0.950 . S
C1521 C1520 1.524 . S
C1521 C1522 1.415 . S
C1522 H1498 0.950 . S
C1522 C1517 1.363 . S
C1522 C1521 1.415 . S
C1523 H1499 0.951 . S
C1523 C1524 1.366 . S
C1523 C1525 1.388 . S
C1524 C1523 1.366 . S
C1524 C1528 1.385 . S
C1525 H1500 0.951 . S
C1525 C1523 1.388 . S
C1525 C1526 1.366 . S
C1526 C1525 1.366 . S
C1526 C1527 1.414 . S
C1526 C1529 1.499 . S
C1527 H1501 0.950 . S
C1527 C1526 1.414 . S
C1527 C1528 1.374 . S
C1528 H1502 0.950 . S
C1528 C1524 1.385 . S
C1528 C1527 1.374 . S
C1529 C1526 1.499 . S
C1529 C1530 1.373 . S
C1529 C1531 1.389 . S
C1530 H1503 0.950 . S
C1530 C1516 1.377 . S
C1530 C1529 1.373 . S
C1531 C1515 1.377 . S
C1531 C1529 1.389 . S
C1531 C1532 1.524 . S
C1532 C1531 1.524 . S
C1532 C1533 1.397 . S
C1532 C1537 1.363 . S
C1533 H1504 0.950 . S
C1533 C1532 1.397 . S
C1533 C1534 1.334 . S
C1534 H1505 0.950 . S
C1534 C1533 1.334 . S
C1534 C1535 1.287 . S
C1535 C1534 1.287 . S
C1535 C1536 1.524 . S
C1535 H1538 0.999 . S
C1536 H1506 0.950 . S
C1536 C1535 1.524 . S
C1536 C1537 1.415 . S
C1537 H1507 0.950 . S
C1537 C1532 1.363 . S
C1537 C1536 1.415 . S
H1538 C1535 0.999 . S
H1539 C1520 0.913 . S
H1540 C1558 0.951 . S
H1541 C1560 0.951 . S
H1542 C1562 0.950 . S
H1543 C1563 0.950 . S
H1544 C1565 0.950 1_545 S
H1545 C1568 0.950 1_545 S
H1546 C1569 0.960 . S
H1547 C1571 0.950 . S
H1548 C1572 0.950 . S
H1549 C1573 0.951 . S
H1550 C1575 0.951 . S
H1551 C1577 0.950 . S
H1552 C1578 0.950 . S
H1553 C1580 0.950 . S
H1554 C1583 0.950 . S
H1555 C1584 0.950 . S
H1556 C1586 0.950 . S
H1557 C1587 0.950 . S
C1558 H1540 0.951 . S
C1558 C1559 1.366 . S
C1558 C1560 1.388 1_545 S
C1559 C1558 1.366 . S
C1559 C1563 1.385 . S
C1560 H1541 0.951 . S
C1560 C1558 1.388 1_565 S
C1560 C1561 1.366 1_565 S
C1561 C1560 1.366 1_545 S
C1561 C1562 1.414 . S
C1561 C1564 1.499 1_545 S
C1562 H1542 0.950 . S
C1562 C1561 1.414 . S
C1562 C1563 1.374 . S
C1563 H1543 0.950 . S
C1563 C1559 1.385 . S
C1563 C1562 1.374 . S
C1564 C1561 1.499 1_565 S
C1564 C1565 1.373 1_556 S
C1564 C1566 1.389 . S
C1565 H1544 0.950 1_565 S
C1565 C1564 1.373 1_554 S
C1565 C1581 1.377 . S
C1566 C1564 1.389 . S
C1566 C1567 1.524 . S
C1566 C1580 1.377 . S
C1567 C1566 1.524 . S
C1567 C1568 1.397 . S
C1567 C1572 1.363 . S
C1568 H1545 0.950 1_565 S
C1568 C1567 1.397 . S
C1568 C1569 1.334 . S
C1569 H1546 0.960 . S
C1569 C1568 1.334 . S
C1569 C1570 1.287 . S
C1570 C1569 1.287 . S
C1570 C1571 1.524 . S
C1570 H1589 0.913 . S
C1571 H1547 0.950 . S
C1571 C1570 1.524 . S
C1571 C1572 1.415 . S
C1572 H1548 0.950 . S
C1572 C1567 1.363 . S
C1572 C1571 1.415 . S
C1573 H1549 0.951 . S
C1573 C1574 1.366 . S
C1573 C1575 1.388 . S
C1574 C1573 1.366 . S
C1574 C1578 1.385 . S
C1575 H1550 0.951 . S
C1575 C1573 1.388 . S
C1575 C1576 1.366 . S
C1576 C1575 1.366 . S
C1576 C1577 1.414 . S
C1576 C1579 1.499 . S
C1577 H1551 0.950 . S
C1577 C1576 1.414 . S
C1577 C1578 1.374 . S
C1578 H1552 0.950 . S
C1578 C1574 1.385 . S
C1578 C1577 1.374 . S
C1579 C1576 1.499 . S
C1579 C1580 1.373 . S
C1579 C1581 1.389 1_556 S
C1580 H1553 0.950 . S
C1580 C1566 1.377 . S
C1580 C1579 1.373 . S
C1581 C1565 1.377 . S
C1581 C1579 1.389 1_554 S
C1581 C1582 1.524 . S
C1582 C1581 1.524 . S
C1582 C1583 1.397 . S
C1582 C1587 1.363 1_565 S
C1583 H1554 0.950 . S
C1583 C1582 1.397 . S
C1583 C1584 1.334 . S
C1584 H1555 0.950 . S
C1584 C1583 1.334 . S
C1584 C1585 1.287 . S
C1585 C1584 1.287 . S
C1585 C1586 1.524 1_565 S
C1585 H1588 0.999 . S
C1586 H1556 0.950 . S
C1586 C1585 1.524 1_545 S
C1586 C1587 1.415 . S
C1587 H1557 0.950 . S
C1587 C1582 1.363 1_545 S
C1587 C1586 1.415 . S
H1588 C1585 0.999 . S
H1589 C1570 0.913 . S
H1590 C1608 0.951 . S
H1591 C1610 0.951 . S
H1592 C1612 0.950 . S
H1593 C1613 0.950 . S
H1594 C1615 0.950 . S
H1595 C1618 0.950 . S
H1596 C1619 0.950 . S
H1597 C1621 0.950 . S
H1598 C1622 0.950 . S
H1599 C1623 0.951 . S
H1600 C1625 0.951 . S
H1601 C1627 0.950 . S
H1602 C1628 0.950 . S
H1603 C1630 0.950 . S
H1604 C1633 0.950 . S
H1605 C1634 0.950 . S
H1606 C1636 0.950 . S
H1607 C1637 0.950 . S
C1608 H1590 0.951 . S
C1608 C1609 1.366 . S
C1608 C1610 1.388 . S
C1609 C1608 1.366 . S
C1609 C1613 1.385 . S
C1610 H1591 0.951 . S
C1610 C1608 1.388 . S
C1610 C1611 1.366 . S
C1611 C1610 1.366 . S
C1611 C1612 1.414 . S
C1611 C1614 1.499 . S
C1612 H1592 0.950 . S
C1612 C1611 1.414 . S
C1612 C1613 1.374 . S
C1613 H1593 0.950 . S
C1613 C1609 1.385 . S
C1613 C1612 1.374 . S
C1614 C1611 1.499 . S
C1614 C1615 1.373 . S
C1614 C1616 1.389 . S
C1615 H1594 0.950 . S
C1615 C1614 1.373 . S
C1615 C1631 1.377 . S
C1616 C1614 1.389 . S
C1616 C1617 1.524 . S
C1616 C1630 1.377 . S
C1617 C1616 1.524 . S
C1617 C1618 1.397 . S
C1617 C1622 1.363 . S
C1618 H1595 0.950 . S
C1618 C1617 1.397 . S
C1618 C1619 1.334 . S
C1619 H1596 0.950 . S
C1619 C1618 1.334 . S
C1619 C1620 1.287 . S
C1620 C1619 1.287 . S
C1620 C1621 1.524 . S
C1620 H1639 0.913 . S
C1621 H1597 0.950 . S
C1621 C1620 1.524 . S
C1621 C1622 1.415 . S
C1622 H1598 0.950 . S
C1622 C1617 1.363 . S
C1622 C1621 1.415 . S
C1623 H1599 0.951 . S
C1623 C1624 1.366 . S
C1623 C1625 1.388 . S
C1624 C1623 1.366 . S
C1624 C1628 1.385 . S
C1625 H1600 0.951 . S
C1625 C1623 1.388 . S
C1625 C1626 1.366 . S
C1626 C1625 1.366 . S
C1626 C1627 1.414 . S
C1626 C1629 1.499 . S
C1627 H1601 0.950 . S
C1627 C1626 1.414 . S
C1627 C1628 1.374 . S
C1628 H1602 0.950 . S
C1628 C1624 1.385 . S
C1628 C1627 1.374 . S
C1629 C1626 1.499 . S
C1629 C1630 1.373 . S
C1629 C1631 1.389 . S
C1630 H1603 0.950 . S
C1630 C1616 1.377 . S
C1630 C1629 1.373 . S
C1631 C1615 1.377 . S
C1631 C1629 1.389 . S
C1631 C1632 1.524 . S
C1632 C1631 1.524 . S
C1632 C1633 1.397 . S
C1632 C1637 1.363 . S
C1633 H1604 0.950 . S
C1633 C1632 1.397 . S
C1633 C1634 1.334 . S
C1634 H1605 0.950 . S
C1634 C1633 1.334 . S
C1634 C1635 1.287 . S
C1635 C1634 1.287 . S
C1635 C1636 1.524 . S
C1635 H1638 0.999 . S
C1636 H1606 0.950 . S
C1636 C1635 1.524 . S
C1636 C1637 1.415 . S
C1637 H1607 0.950 . S
C1637 C1632 1.363 . S
C1637 C1636 1.415 . S
H1638 C1635 0.999 . S
H1639 C1620 0.913 . S
H1640 C1658 0.951 . S
H1641 C1660 0.951 . S
H1642 C1662 0.950 . S
H1643 C1663 0.950 . S
H1644 C1665 0.950 . S
H1645 C1668 0.950 . S
H1646 C1669 0.950 . S
H1647 C1671 0.950 . S
H1648 C1672 0.950 . S
H1649 C1673 0.951 . S
H1650 C1675 0.951 . S
H1651 C1677 0.950 . S
H1652 C1678 0.950 . S
H1653 C1680 0.950 . S
H1654 C1683 0.950 . S
H1655 C1684 0.950 . S
H1656 C1686 0.950 . S
H1657 C1687 0.950 . S
C1658 H1640 0.951 . S
C1658 C1659 1.366 1_565 S
C1658 C1660 1.388 1_565 S
C1659 C1658 1.366 1_545 S
C1659 C1663 1.385 . S
C1660 H1641 0.951 . S
C1660 C1658 1.388 1_545 S
C1660 C1661 1.366 . S
C1661 C1660 1.366 . S
C1661 C1662 1.414 . S
C1661 C1664 1.499 . S
C1662 H1642 0.950 . S
C1662 C1661 1.414 . S
C1662 C1663 1.374 . S
C1663 H1643 0.950 . S
C1663 C1659 1.385 . S
C1663 C1662 1.374 . S
C1664 C1661 1.499 . S
C1664 C1665 1.373 . S
C1664 C1666 1.389 . S
C1665 H1644 0.950 . S
C1665 C1664 1.373 . S
C1665 C1681 1.377 . S
C1666 C1664 1.389 . S
C1666 C1667 1.524 . S
C1666 C1680 1.377 . S
C1667 C1666 1.524 . S
C1667 C1668 1.397 . S
C1667 C1672 1.363 . S
C1668 H1645 0.950 . S
C1668 C1667 1.397 . S
C1668 C1669 1.334 . S
C1669 H1646 0.950 . S
C1669 C1668 1.334 . S
C1669 C1670 1.287 1_545 S
C1670 C1669 1.287 1_565 S
C1670 C1671 1.524 . S
C1670 H1689 0.913 . S
C1671 H1647 0.950 . S
C1671 C1670 1.524 . S
C1671 C1672 1.415 1_565 S
C1672 H1648 0.950 . S
C1672 C1667 1.363 . S
C1672 C1671 1.415 1_545 S
C1673 H1649 0.951 . S
C1673 C1674 1.366 . S
C1673 C1675 1.388 . S
C1674 C1673 1.366 . S
C1674 C1678 1.385 . S
C1675 H1650 0.951 . S
C1675 C1673 1.388 . S
C1675 C1676 1.366 . S
C1676 C1675 1.366 . S
C1676 C1677 1.414 . S
C1676 C1679 1.499 . S
C1677 H1651 0.950 . S
C1677 C1676 1.414 . S
C1677 C1678 1.374 . S
C1678 H1652 0.950 . S
C1678 C1674 1.385 . S
C1678 C1677 1.374 . S
C1679 C1676 1.499 . S
C1679 C1680 1.373 . S
C1679 C1681 1.389 . S
C1680 H1653 0.950 . S
C1680 C1666 1.377 . S
C1680 C1679 1.373 . S
C1681 C1665 1.377 . S
C1681 C1679 1.389 . S
C1681 C1682 1.524 . S
C1682 C1681 1.524 . S
C1682 C1683 1.397 . S
C1682 C1687 1.363 . S
C1683 H1654 0.950 . S
C1683 C1682 1.397 . S
C1683 C1684 1.334 . S
C1684 H1655 0.950 . S
C1684 C1683 1.334 . S
C1684 C1685 1.287 . S
C1685 C1684 1.287 . S
C1685 C1686 1.524 . S
C1685 H1688 0.999 . S
C1686 H1656 0.950 . S
C1686 C1685 1.524 . S
C1686 C1687 1.415 . S
C1687 H1657 0.950 . S
C1687 C1682 1.363 . S
C1687 C1686 1.415 . S
H1688 C1685 0.999 . S
H1689 C1670 0.913 . S
H1690 C1708 0.951 . S
H1691 C1710 0.951 . S
H1692 C1712 0.950 . S
H1693 C1713 0.950 . S
H1694 C1715 0.950 . S
H1695 C1718 0.950 . S
H1696 C1719 0.950 . S
H1697 C1721 0.950 . S
H1698 C1722 0.950 . S
H1699 C1723 0.951 . S
H1700 C1725 0.951 . S
H1701 C1727 0.950 . S
H1702 C1728 0.950 . S
H1703 C1730 0.950 . S
H1704 C1733 0.950 . S
H1705 C1734 0.950 . S
H1706 C1736 0.950 . S
H1707 C1737 0.950 . S
C1708 H1690 0.951 . S
C1708 C1709 1.366 . S
C1708 C1710 1.388 . S
C1709 C1708 1.366 . S
C1709 C1713 1.385 . S
C1710 H1691 0.951 . S
C1710 C1708 1.388 . S
C1710 C1711 1.366 . S
C1711 C1710 1.366 . S
C1711 C1712 1.414 . S
C1711 C1714 1.499 . S
C1712 H1692 0.950 . S
C1712 C1711 1.414 . S
C1712 C1713 1.374 . S
C1713 H1693 0.950 . S
C1713 C1709 1.385 . S
C1713 C1712 1.374 . S
C1714 C1711 1.499 . S
C1714 C1715 1.373 . S
C1714 C1716 1.389 . S
C1715 H1694 0.950 . S
C1715 C1714 1.373 . S
C1715 C1731 1.377 . S
C1716 C1714 1.389 . S
C1716 C1717 1.524 . S
C1716 C1730 1.377 . S
C1717 C1716 1.524 . S
C1717 C1718 1.397 . S
C1717 C1722 1.363 . S
C1718 H1695 0.950 . S
C1718 C1717 1.397 . S
C1718 C1719 1.334 . S
C1719 H1696 0.950 . S
C1719 C1718 1.334 . S
C1719 C1720 1.287 . S
C1720 C1719 1.287 . S
C1720 C1721 1.524 . S
C1720 H1739 0.913 . S
C1721 H1697 0.950 . S
C1721 C1720 1.524 . S
C1721 C1722 1.415 . S
C1722 H1698 0.950 . S
C1722 C1717 1.363 . S
C1722 C1721 1.415 . S
C1723 H1699 0.951 . S
C1723 C1724 1.366 . S
C1723 C1725 1.388 . S
C1724 C1723 1.366 . S
C1724 C1728 1.385 . S
C1725 H1700 0.951 . S
C1725 C1723 1.388 . S
C1725 C1726 1.366 . S
C1726 C1725 1.366 . S
C1726 C1727 1.414 . S
C1726 C1729 1.499 . S
C1727 H1701 0.950 . S
C1727 C1726 1.414 . S
C1727 C1728 1.374 . S
C1728 H1702 0.950 . S
C1728 C1724 1.385 . S
C1728 C1727 1.374 . S
C1729 C1726 1.499 . S
C1729 C1730 1.373 . S
C1729 C1731 1.389 . S
C1730 H1703 0.950 . S
C1730 C1716 1.377 . S
C1730 C1729 1.373 . S
C1731 C1715 1.377 . S
C1731 C1729 1.389 . S
C1731 C1732 1.524 . S
C1732 C1731 1.524 . S
C1732 C1733 1.397 . S
C1732 C1737 1.363 . S
C1733 H1704 0.950 . S
C1733 C1732 1.397 . S
C1733 C1734 1.334 . S
C1734 H1705 0.950 . S
C1734 C1733 1.334 . S
C1734 C1735 1.287 . S
C1735 C1734 1.287 . S
C1735 C1736 1.524 . S
C1735 H1738 0.999 . S
C1736 H1706 0.950 . S
C1736 C1735 1.524 . S
C1736 C1737 1.415 . S
C1737 H1707 0.950 . S
C1737 C1732 1.363 . S
C1737 C1736 1.415 . S
H1738 C1735 0.999 . S
H1739 C1720 0.913 . S
H1740 C1758 0.951 . S
H1741 C1760 0.951 . S
H1742 C1762 0.950 . S
H1743 C1763 0.950 . S
H1744 C1765 0.950 . S
H1745 C1768 0.950 . S
H1746 C1769 0.950 . S
H1747 C1771 0.950 . S
H1748 C1772 0.950 . S
H1749 C1773 0.951 . S
H1750 C1775 0.951 . S
H1751 C1777 0.950 . S
H1752 C1778 0.950 . S
H1753 C1780 0.950 . S
H1754 C1783 0.950 . S
H1755 C1784 0.950 . S
H1756 C1786 0.950 . S
H1757 C1787 0.950 . S
C1758 H1740 0.951 . S
C1758 C1759 1.366 . S
C1758 C1760 1.388 . S
C1759 C1758 1.366 . S
C1759 C1763 1.385 1_565 S
C1760 H1741 0.951 . S
C1760 C1758 1.388 . S
C1760 C1761 1.366 1_565 S
C1761 C1760 1.366 1_545 S
C1761 C1762 1.414 . S
C1761 C1764 1.499 . S
C1762 H1742 0.950 . S
C1762 C1761 1.414 . S
C1762 C1763 1.374 . S
C1763 H1743 0.950 . S
C1763 C1759 1.385 1_545 S
C1763 C1762 1.374 . S
C1764 C1761 1.499 . S
C1764 C1765 1.373 . S
C1764 C1766 1.389 . S
C1765 H1744 0.950 . S
C1765 C1764 1.373 . S
C1765 C1781 1.377 . S
C1766 C1764 1.389 . S
C1766 C1767 1.524 . S
C1766 C1780 1.377 . S
C1767 C1766 1.524 . S
C1767 C1768 1.397 . S
C1767 C1772 1.363 1_545 S
C1768 H1745 0.950 . S
C1768 C1767 1.397 . S
C1768 C1769 1.334 1_545 S
C1769 H1746 0.950 . S
C1769 C1768 1.334 1_565 S
C1769 C1770 1.287 . S
C1770 C1769 1.287 . S
C1770 C1771 1.524 . S
C1770 H1789 0.913 . S
C1771 H1747 0.950 . S
C1771 C1770 1.524 . S
C1771 C1772 1.415 . S
C1772 H1748 0.950 . S
C1772 C1767 1.363 1_565 S
C1772 C1771 1.415 . S
C1773 H1749 0.951 . S
C1773 C1774 1.366 . S
C1773 C1775 1.388 . S
C1774 C1773 1.366 . S
C1774 C1778 1.385 . S
C1775 H1750 0.951 . S
C1775 C1773 1.388 . S
C1775 C1776 1.366 . S
C1776 C1775 1.366 . S
C1776 C1777 1.414 . S
C1776 C1779 1.499 . S
C1777 H1751 0.950 . S
C1777 C1776 1.414 . S
C1777 C1778 1.374 . S
C1778 H1752 0.950 . S
C1778 C1774 1.385 . S
C1778 C1777 1.374 . S
C1779 C1776 1.499 . S
C1779 C1780 1.373 . S
C1779 C1781 1.389 . S
C1780 H1753 0.950 . S
C1780 C1766 1.377 . S
C1780 C1779 1.373 . S
C1781 C1765 1.377 . S
C1781 C1779 1.389 . S
C1781 C1782 1.524 . S
C1782 C1781 1.524 . S
C1782 C1783 1.397 . S
C1782 C1787 1.363 . S
C1783 H1754 0.950 . S
C1783 C1782 1.397 . S
C1783 C1784 1.334 . S
C1784 H1755 0.950 . S
C1784 C1783 1.334 . S
C1784 C1785 1.287 . S
C1785 C1784 1.287 . S
C1785 C1786 1.524 . S
C1785 H1788 0.999 . S
C1786 H1756 0.950 . S
C1786 C1785 1.524 . S
C1786 C1787 1.415 . S
C1787 H1757 0.950 . S
C1787 C1782 1.363 . S
C1787 C1786 1.415 . S
H1788 C1785 0.999 . S
H1789 C1770 0.913 . S
H1790 C1808 0.951 . S
H1791 C1810 0.951 . S
H1792 C1812 0.950 . S
H1793 C1813 0.950 . S
H1794 C1815 0.950 . S
H1795 C1818 0.950 . S
H1796 C1819 0.950 . S
H1797 C1821 0.950 . S
H1798 C1822 0.950 . S
H1799 C1823 0.951 . S
H1800 C1825 0.951 . S
H1801 C1827 0.950 . S
H1802 C1828 0.950 . S
H1803 C1830 0.950 . S
H1804 C1833 0.950 . S
H1805 C1834 0.950 . S
H1806 C1836 0.950 . S
H1807 C1837 0.950 . S
C1808 H1790 0.951 . S
C1808 C1809 1.366 . S
C1808 C1810 1.388 . S
C1809 C1808 1.366 . S
C1809 C1813 1.385 . S
C1810 H1791 0.951 . S
C1810 C1808 1.388 . S
C1810 C1811 1.366 . S
C1811 C1810 1.366 . S
C1811 C1812 1.414 . S
C1811 C1814 1.499 . S
C1812 H1792 0.950 . S
C1812 C1811 1.414 . S
C1812 C1813 1.374 . S
C1813 H1793 0.950 . S
C1813 C1809 1.385 . S
C1813 C1812 1.374 . S
C1814 C1811 1.499 . S
C1814 C1815 1.373 . S
C1814 C1816 1.389 . S
C1815 H1794 0.950 . S
C1815 C1814 1.373 . S
C1815 C1831 1.377 . S
C1816 C1814 1.389 . S
C1816 C1817 1.524 . S
C1816 C1830 1.377 . S
C1817 C1816 1.524 . S
C1817 C1818 1.397 . S
C1817 C1822 1.363 . S
C1818 H1795 0.950 . S
C1818 C1817 1.397 . S
C1818 C1819 1.334 . S
C1819 H1796 0.950 . S
C1819 C1818 1.334 . S
C1819 C1820 1.287 . S
C1820 C1819 1.287 . S
C1820 C1821 1.524 . S
C1820 H1839 0.913 . S
C1821 H1797 0.950 . S
C1821 C1820 1.524 . S
C1821 C1822 1.415 . S
C1822 H1798 0.950 . S
C1822 C1817 1.363 . S
C1822 C1821 1.415 . S
C1823 H1799 0.951 . S
C1823 C1824 1.366 . S
C1823 C1825 1.388 . S
C1824 C1823 1.366 . S
C1824 C1828 1.385 . S
C1825 H1800 0.951 . S
C1825 C1823 1.388 . S
C1825 C1826 1.366 . S
C1826 C1825 1.366 . S
C1826 C1827 1.414 . S
C1826 C1829 1.499 . S
C1827 H1801 0.950 . S
C1827 C1826 1.414 . S
C1827 C1828 1.374 . S
C1828 H1802 0.950 . S
C1828 C1824 1.385 . S
C1828 C1827 1.374 . S
C1829 C1826 1.499 . S
C1829 C1830 1.373 . S
C1829 C1831 1.389 . S
C1830 H1803 0.950 . S
C1830 C1816 1.377 . S
C1830 C1829 1.373 . S
C1831 C1815 1.377 . S
C1831 C1829 1.389 . S
C1831 C1832 1.524 . S
C1832 C1831 1.524 . S
C1832 C1833 1.397 . S
C1832 C1837 1.363 . S
C1833 H1804 0.950 . S
C1833 C1832 1.397 . S
C1833 C1834 1.334 . S
C1834 H1805 0.950 . S
C1834 C1833 1.334 . S
C1834 C1835 1.287 . S
C1835 C1834 1.287 . S
C1835 C1836 1.524 . S
C1835 H1838 0.999 . S
C1836 H1806 0.950 . S
C1836 C1835 1.524 . S
C1836 C1837 1.415 . S
C1837 H1807 0.950 . S
C1837 C1832 1.363 . S
C1837 C1836 1.415 . S
H1838 C1835 0.999 . S
H1839 C1820 0.913 . S
H1840 C1858 0.951 . S
H1841 C1860 0.951 . S
H1842 C1862 0.950 . S
H1843 C1863 0.950 . S
H1844 C1865 0.950 . S
H1845 C1868 0.950 . S
H1846 C1869 0.950 . S
H1847 C1871 0.950 . S
H1848 C1872 0.950 . S
H1849 C1873 0.951 . S
H1850 C1875 0.951 . S
H1851 C1877 0.950 . S
H1852 C1878 0.950 . S
H1853 C1880 0.950 . S
H1854 C1883 0.950 . S
H1855 C1884 0.950 . S
H1856 C1886 0.950 . S
H1857 C1887 0.950 . S
C1858 H1840 0.951 . S
C1858 C1859 1.366 . S
C1858 C1860 1.388 . S
C1859 C1858 1.366 . S
C1859 C1863 1.385 . S
C1860 H1841 0.951 . S
C1860 C1858 1.388 . S
C1860 C1861 1.366 . S
C1861 C1860 1.366 . S
C1861 C1862 1.414 . S
C1861 C1864 1.499 . S
C1862 H1842 0.950 . S
C1862 C1861 1.414 . S
C1862 C1863 1.374 . S
C1863 H1843 0.950 . S
C1863 C1859 1.385 . S
C1863 C1862 1.374 . S
C1864 C1861 1.499 . S
C1864 C1865 1.373 . S
C1864 C1866 1.389 . S
C1865 H1844 0.950 . S
C1865 C1864 1.373 . S
C1865 C1881 1.377 . S
C1866 C1864 1.389 . S
C1866 C1867 1.524 . S
C1866 C1880 1.377 . S
C1867 C1866 1.524 . S
C1867 C1868 1.397 . S
C1867 C1872 1.363 . S
C1868 H1845 0.950 . S
C1868 C1867 1.397 . S
C1868 C1869 1.334 . S
C1869 H1846 0.950 . S
C1869 C1868 1.334 . S
C1869 C1870 1.287 . S
C1870 C1869 1.287 . S
C1870 C1871 1.524 . S
C1870 H1889 0.913 . S
C1871 H1847 0.950 . S
C1871 C1870 1.524 . S
C1871 C1872 1.415 . S
C1872 H1848 0.950 . S
C1872 C1867 1.363 . S
C1872 C1871 1.415 . S
C1873 H1849 0.951 . S
C1873 C1874 1.366 . S
C1873 C1875 1.388 . S
C1874 C1873 1.366 . S
C1874 C1878 1.385 . S
C1875 H1850 0.951 . S
C1875 C1873 1.388 . S
C1875 C1876 1.366 . S
C1876 C1875 1.366 . S
C1876 C1877 1.414 . S
C1876 C1879 1.499 . S
C1877 H1851 0.950 . S
C1877 C1876 1.414 . S
C1877 C1878 1.374 . S
C1878 H1852 0.950 . S
C1878 C1874 1.385 . S
C1878 C1877 1.374 . S
C1879 C1876 1.499 . S
C1879 C1880 1.373 . S
C1879 C1881 1.389 . S
C1880 H1853 0.950 . S
C1880 C1866 1.377 . S
C1880 C1879 1.373 . S
C1881 C1865 1.377 . S
C1881 C1879 1.389 . S
C1881 C1882 1.524 . S
C1882 C1881 1.524 . S
C1882 C1883 1.397 . S
C1882 C1887 1.363 . S
C1883 H1854 0.950 . S
C1883 C1882 1.397 . S
C1883 C1884 1.334 . S
C1884 H1855 0.950 . S
C1884 C1883 1.334 . S
C1884 C1885 1.287 . S
C1885 C1884 1.287 . S
C1885 C1886 1.524 . S
C1885 H1888 0.999 . S
C1886 H1856 0.950 . S
C1886 C1885 1.524 . S
C1886 C1887 1.415 . S
C1887 H1857 0.950 . S
C1887 C1882 1.363 . S
C1887 C1886 1.415 . S
H1888 C1885 0.999 . S
H1889 C1870 0.913 . S
H1890 C1908 0.951 . S
H1891 C1910 0.951 . S
H1892 C1912 0.950 . S
H1893 C1913 0.950 . S
H1894 C1915 0.950 . S
H1895 C1918 0.950 . S
H1896 C1919 0.950 . S
H1897 C1921 0.950 . S
H1898 C1922 0.950 . S
H1899 C1923 0.951 . S
H1900 C1925 0.951 . S
H1901 C1927 0.950 . S
H1902 C1928 0.950 . S
H1903 C1930 0.950 1_565 S
H1904 C1933 0.950 . S
H1905 C1934 0.950 . S
H1906 C1936 0.950 . S
H1907 C1937 0.950 . S
C1908 H1890 0.951 . S
C1908 C1909 1.366 . S
C1908 C1910 1.388 . S
C1909 C1908 1.366 . S
C1909 C1913 1.385 . S
C1910 H1891 0.951 . S
C1910 C1908 1.388 . S
C1910 C1911 1.366 . S
C1911 C1910 1.366 . S
C1911 C1912 1.414 . S
C1911 C1914 1.499 . S
C1912 H1892 0.950 . S
C1912 C1911 1.414 . S
C1912 C1913 1.374 . S
C1913 H1893 0.950 . S
C1913 C1909 1.385 . S
C1913 C1912 1.374 . S
C1914 C1911 1.499 . S
C1914 C1915 1.373 . S
C1914 C1916 1.389 . S
C1915 H1894 0.950 . S
C1915 C1914 1.373 . S
C1915 C1931 1.377 . S
C1916 C1914 1.389 . S
C1916 C1917 1.524 1_545 S
C1916 C1930 1.377 . S
C1917 C1916 1.524 1_565 S
C1917 C1918 1.397 . S
C1917 C1922 1.363 . S
C1918 H1895 0.950 . S
C1918 C1917 1.397 . S
C1918 C1919 1.334 . S
C1919 H1896 0.950 . S
C1919 C1918 1.334 . S
C1919 C1920 1.287 . S
C1920 C1919 1.287 . S
C1920 C1921 1.524 . S
C1920 H1939 0.913 . S
C1921 H1897 0.950 . S
C1921 C1920 1.524 . S
C1921 C1922 1.415 . S
C1922 H1898 0.950 . S
C1922 C1917 1.363 . S
C1922 C1921 1.415 . S
C1923 H1899 0.951 . S
C1923 C1924 1.366 . S
C1923 C1925 1.388 . S
C1924 C1923 1.366 . S
C1924 C1928 1.385 . S
C1925 H1900 0.951 . S
C1925 C1923 1.388 . S
C1925 C1926 1.366 . S
C1926 C1925 1.366 . S
C1926 C1927 1.414 . S
C1926 C1929 1.499 . S
C1927 H1901 0.950 . S
C1927 C1926 1.414 . S
C1927 C1928 1.374 . S
C1928 H1902 0.950 . S
C1928 C1924 1.385 . S
C1928 C1927 1.374 . S
C1929 C1926 1.499 . S
C1929 C1930 1.373 . S
C1929 C1931 1.389 . S
C1930 H1903 0.950 1_545 S
C1930 C1916 1.377 . S
C1930 C1929 1.373 . S
C1931 C1915 1.377 . S
C1931 C1929 1.389 . S
C1931 C1932 1.524 . S
C1932 C1931 1.524 . S
C1932 C1933 1.397 . S
C1932 C1937 1.363 . S
C1933 H1904 0.950 . S
C1933 C1932 1.397 . S
C1933 C1934 1.334 . S
C1934 H1905 0.950 . S
C1934 C1933 1.334 . S
C1934 C1935 1.287 . S
C1935 C1934 1.287 . S
C1935 C1936 1.524 . S
C1935 H1938 0.999 . S
C1936 H1906 0.950 . S
C1936 C1935 1.524 . S
C1936 C1937 1.415 . S
C1937 H1907 0.950 . S
C1937 C1932 1.363 . S
C1937 C1936 1.415 . S
H1938 C1935 0.999 . S
H1939 C1920 0.913 . S
H1940 C1958 0.951 . S
H1941 C1960 0.951 . S
H1942 C1962 0.950 . S
H1943 C1963 0.950 . S
H1944 C1965 0.950 . S
H1945 C1968 0.950 . S
H1946 C1969 0.950 . S
H1947 C1971 0.950 . S
H1948 C1972 0.950 . S
H1949 C1973 0.951 . S
H1950 C1975 0.951 . S
H1951 C1977 0.950 . S
H1952 C1978 0.950 . S
H1953 C1980 0.950 . S
H1954 C1983 0.950 . S
H1955 C1984 0.950 . S
H1956 C1986 0.950 . S
H1957 C1987 0.950 . S
C1958 H1940 0.951 . S
C1958 C1959 1.366 . S
C1958 C1960 1.388 . S
C1959 C1958 1.366 . S
C1959 C1963 1.385 . S
C1960 H1941 0.951 . S
C1960 C1958 1.388 . S
C1960 C1961 1.366 . S
C1961 C1960 1.366 . S
C1961 C1962 1.414 . S
C1961 C1964 1.499 . S
C1962 H1942 0.950 . S
C1962 C1961 1.414 . S
C1962 C1963 1.374 . S
C1963 H1943 0.950 . S
C1963 C1959 1.385 . S
C1963 C1962 1.374 . S
C1964 C1961 1.499 . S
C1964 C1965 1.373 . S
C1964 C1966 1.389 . S
C1965 H1944 0.950 . S
C1965 C1964 1.373 . S
C1965 C1981 1.377 . S
C1966 C1964 1.389 . S
C1966 C1967 1.524 . S
C1966 C1980 1.377 . S
C1967 C1966 1.524 . S
C1967 C1968 1.397 . S
C1967 C1972 1.363 . S
C1968 H1945 0.950 . S
C1968 C1967 1.397 . S
C1968 C1969 1.334 . S
C1969 H1946 0.950 . S
C1969 C1968 1.334 . S
C1969 C1970 1.287 . S
C1970 C1969 1.287 . S
C1970 C1971 1.524 . S
C1970 H1989 0.913 . S
C1971 H1947 0.950 . S
C1971 C1970 1.524 . S
C1971 C1972 1.415 . S
C1972 H1948 0.950 . S
C1972 C1967 1.363 . S
C1972 C1971 1.415 . S
C1973 H1949 0.951 . S
C1973 C1974 1.366 . S
C1973 C1975 1.388 . S
C1974 C1973 1.366 . S
C1974 C1978 1.385 . S
C1975 H1950 0.951 . S
C1975 C1973 1.388 . S
C1975 C1976 1.366 . S
C1976 C1975 1.366 . S
C1976 C1977 1.414 . S
C1976 C1979 1.499 . S
C1977 H1951 0.950 . S
C1977 C1976 1.414 . S
C1977 C1978 1.374 . S
C1978 H1952 0.950 . S
C1978 C1974 1.385 . S
C1978 C1977 1.374 . S
C1979 C1976 1.499 . S
C1979 C1980 1.373 . S
C1979 C1981 1.389 . S
C1980 H1953 0.950 . S
C1980 C1966 1.377 . S
C1980 C1979 1.373 . S
C1981 C1965 1.377 . S
C1981 C1979 1.389 . S
C1981 C1982 1.524 . S
C1982 C1981 1.524 . S
C1982 C1983 1.397 . S
C1982 C1987 1.363 . S
C1983 H1954 0.950 . S
C1983 C1982 1.397 . S
C1983 C1984 1.334 . S
C1984 H1955 0.950 . S
C1984 C1983 1.334 . S
C1984 C1985 1.287 . S
C1985 C1984 1.287 . S
C1985 C1986 1.524 . S
C1985 H1988 0.999 . S
C1986 H1956 0.950 . S
C1986 C1985 1.524 . S
C1986 C1987 1.415 . S
C1987 H1957 0.950 . S
C1987 C1982 1.363 . S
C1987 C1986 1.415 . S
H1988 C1985 0.999 . S
H1989 C1970 0.913 . S
H1990 C2008 0.951 . S
H1991 C2010 0.951 . S
H1992 C2012 0.950 . S
H1993 C2013 0.950 . S
H1994 C2015 0.950 . S
H1995 C2018 0.950 . S
H1996 C2019 0.950 . S
H1997 C2021 0.950 . S
H1998 C2022 0.950 . S
H1999 C2023 0.951 . S
H2000 C2025 0.951 . S
H2001 C2027 0.950 . S
H2002 C2028 0.950 . S
H2003 C2030 0.950 . S
H2004 C2033 0.950 . S
H2005 C2034 0.950 . S
H2006 C2036 0.950 . S
H2007 C2037 0.950 . S
C2008 H1990 0.951 . S
C2008 C2009 1.366 . S
C2008 C2010 1.388 . S
C2009 C2008 1.366 . S
C2009 C2013 1.385 . S
C2010 H1991 0.951 . S
C2010 C2008 1.388 . S
C2010 C2011 1.366 . S
C2011 C2010 1.366 . S
C2011 C2012 1.414 . S
C2011 C2014 1.499 . S
C2012 H1992 0.950 . S
C2012 C2011 1.414 . S
C2012 C2013 1.374 . S
C2013 H1993 0.950 . S
C2013 C2009 1.385 . S
C2013 C2012 1.374 . S
C2014 C2011 1.499 . S
C2014 C2015 1.373 . S
C2014 C2016 1.389 . S
C2015 H1994 0.950 . S
C2015 C2014 1.373 . S
C2015 C2031 1.377 . S
C2016 C2014 1.389 . S
C2016 C2017 1.524 . S
C2016 C2030 1.377 . S
C2017 C2016 1.524 . S
C2017 C2018 1.397 . S
C2017 C2022 1.363 . S
C2018 H1995 0.950 . S
C2018 C2017 1.397 . S
C2018 C2019 1.334 . S
C2019 H1996 0.950 . S
C2019 C2018 1.334 . S
C2019 C2020 1.287 . S
C2020 C2019 1.287 . S
C2020 C2021 1.524 . S
C2020 H2039 0.913 . S
C2021 H1997 0.950 . S
C2021 C2020 1.524 . S
C2021 C2022 1.415 . S
C2022 H1998 0.950 . S
C2022 C2017 1.363 . S
C2022 C2021 1.415 . S
C2023 H1999 0.951 . S
C2023 C2024 1.366 . S
C2023 C2025 1.388 . S
C2024 C2023 1.366 . S
C2024 C2028 1.385 . S
C2025 H2000 0.951 . S
C2025 C2023 1.388 . S
C2025 C2026 1.366 . S
C2026 C2025 1.366 . S
C2026 C2027 1.414 . S
C2026 C2029 1.499 . S
C2027 H2001 0.950 . S
C2027 C2026 1.414 . S
C2027 C2028 1.374 . S
C2028 H2002 0.950 . S
C2028 C2024 1.385 . S
C2028 C2027 1.374 . S
C2029 C2026 1.499 . S
C2029 C2030 1.373 . S
C2029 C2031 1.389 . S
C2030 H2003 0.950 . S
C2030 C2016 1.377 . S
C2030 C2029 1.373 . S
C2031 C2015 1.377 . S
C2031 C2029 1.389 . S
C2031 C2032 1.524 . S
C2032 C2031 1.524 . S
C2032 C2033 1.397 . S
C2032 C2037 1.363 . S
C2033 H2004 0.950 . S
C2033 C2032 1.397 . S
C2033 C2034 1.334 . S
C2034 H2005 0.950 . S
C2034 C2033 1.334 . S
C2034 C2035 1.287 . S
C2035 C2034 1.287 . S
C2035 C2036 1.524 . S
C2035 H2038 0.999 . S
C2036 H2006 0.950 . S
C2036 C2035 1.524 . S
C2036 C2037 1.415 . S
C2037 H2007 0.950 . S
C2037 C2032 1.363 . S
C2037 C2036 1.415 . S
H2038 C2035 0.999 . S
H2039 C2020 0.913 . S
H2040 C2058 0.951 . S
H2041 C2060 0.951 . S
H2042 C2062 0.950 . S
H2043 C2063 0.950 . S
H2044 C2065 0.950 . S
H2045 C2068 0.950 . S
H2046 C2069 0.950 . S
H2047 C2071 0.950 . S
H2048 C2072 0.950 . S
H2049 C2073 0.951 . S
H2050 C2075 0.951 . S
H2051 C2077 0.950 . S
H2052 C2078 0.950 . S
H2053 C2080 0.950 . S
H2054 C2083 0.950 . S
H2055 C2084 0.950 . S
H2056 C2086 0.950 . S
H2057 C2087 0.950 . S
C2058 H2040 0.951 . S
C2058 C2059 1.366 . S
C2058 C2060 1.388 . S
C2059 C2058 1.366 . S
C2059 C2063 1.385 . S
C2060 H2041 0.951 . S
C2060 C2058 1.388 . S
C2060 C2061 1.366 . S
C2061 C2060 1.366 . S
C2061 C2062 1.414 . S
C2061 C2064 1.499 . S
C2062 H2042 0.950 . S
C2062 C2061 1.414 . S
C2062 C2063 1.374 . S
C2063 H2043 0.950 . S
C2063 C2059 1.385 . S
C2063 C2062 1.374 . S
C2064 C2061 1.499 . S
C2064 C2065 1.373 . S
C2064 C2066 1.389 . S
C2065 H2044 0.950 . S
C2065 C2064 1.373 . S
C2065 C2081 1.377 . S
C2066 C2064 1.389 . S
C2066 C2067 1.524 . S
C2066 C2080 1.377 . S
C2067 C2066 1.524 . S
C2067 C2068 1.397 . S
C2067 C2072 1.363 . S
C2068 H2045 0.950 . S
C2068 C2067 1.397 . S
C2068 C2069 1.334 . S
C2069 H2046 0.950 . S
C2069 C2068 1.334 . S
C2069 C2070 1.287 . S
C2070 C2069 1.287 . S
C2070 C2071 1.524 . S
C2070 H2089 0.913 . S
C2071 H2047 0.950 . S
C2071 C2070 1.524 . S
C2071 C2072 1.415 . S
C2072 H2048 0.950 . S
C2072 C2067 1.363 . S
C2072 C2071 1.415 . S
C2073 H2049 0.951 . S
C2073 C2074 1.366 . S
C2073 C2075 1.388 . S
C2074 C2073 1.366 . S
C2074 C2078 1.385 . S
C2075 H2050 0.951 . S
C2075 C2073 1.388 . S
C2075 C2076 1.366 . S
C2076 C2075 1.366 . S
C2076 C2077 1.414 . S
C2076 C2079 1.499 . S
C2077 H2051 0.950 . S
C2077 C2076 1.414 . S
C2077 C2078 1.374 . S
C2078 H2052 0.950 . S
C2078 C2074 1.385 . S
C2078 C2077 1.374 . S
C2079 C2076 1.499 . S
C2079 C2080 1.373 . S
C2079 C2081 1.389 . S
C2080 H2053 0.950 . S
C2080 C2066 1.377 . S
C2080 C2079 1.373 . S
C2081 C2065 1.377 . S
C2081 C2079 1.389 . S
C2081 C2082 1.524 . S
C2082 C2081 1.524 . S
C2082 C2083 1.397 . S
C2082 C2087 1.363 . S
C2083 H2054 0.950 . S
C2083 C2082 1.397 . S
C2083 C2084 1.334 . S
C2084 H2055 0.950 . S
C2084 C2083 1.334 . S
C2084 C2085 1.287 . S
C2085 C2084 1.287 . S
C2085 C2086 1.524 . S
C2085 H2088 0.999 . S
C2086 H2056 0.950 . S
C2086 C2085 1.524 . S
C2086 C2087 1.415 . S
C2087 H2057 0.950 . S
C2087 C2082 1.363 . S
C2087 C2086 1.415 . S
H2088 C2085 0.999 . S
H2089 C2070 0.913 . S
H2090 C2108 0.951 . S
H2091 C2110 0.951 . S
H2092 C2112 0.950 1_455 S
H2093 C2113 0.950 . S
H2094 C2115 0.950 . S
H2095 C2118 0.950 . S
H2096 C2119 0.950 . S
H2097 C2121 0.950 . S
H2098 C2122 0.950 . S
H2099 C2123 0.951 . S
H2100 C2125 0.951 . S
H2101 C2127 0.950 . S
H2102 C2128 0.950 . S
H2103 C2130 0.950 . S
H2104 C2133 0.950 1_565 S
H2105 C2134 0.950 1_565 S
H2106 C2136 0.950 . S
H2107 C2137 0.967 . S
C2108 H2090 0.951 . S
C2108 C2109 1.366 1_655 S
C2108 C2110 1.388 . S
C2109 C2108 1.366 1_455 S
C2109 C2113 1.385 . S
C2110 H2091 0.951 . S
C2110 C2108 1.388 . S
C2110 C2111 1.366 . S
C2111 C2110 1.366 . S
C2111 C2112 1.414 . S
C2111 C2114 1.499 . S
C2112 H2092 0.950 1_655 S
C2112 C2111 1.414 . S
C2112 C2113 1.374 1_655 S
C2113 H2093 0.950 . S
C2113 C2109 1.385 . S
C2113 C2112 1.374 1_455 S
C2114 C2111 1.499 . S
C2114 C2115 1.373 . S
C2114 C2116 1.389 . S
C2115 H2094 0.950 . S
C2115 C2114 1.373 . S
C2115 C2131 1.377 . S
C2116 C2114 1.389 . S
C2116 C2117 1.524 . S
C2116 C2130 1.377 . S
C2117 C2116 1.524 . S
C2117 C2118 1.397 . S
C2117 C2122 1.363 . S
C2118 H2095 0.950 . S
C2118 C2117 1.397 . S
C2118 C2119 1.334 . S
C2119 H2096 0.950 . S
C2119 C2118 1.334 . S
C2119 C2120 1.287 . S
C2120 C2119 1.287 . S
C2120 C2121 1.524 . S
C2120 H2139 0.913 . S
C2121 H2097 0.950 . S
C2121 C2120 1.524 . S
C2121 C2122 1.415 . S
C2122 H2098 0.950 . S
C2122 C2117 1.363 . S
C2122 C2121 1.415 . S
C2123 H2099 0.951 . S
C2123 C2124 1.366 . S
C2123 C2125 1.388 . S
C2124 C2123 1.366 . S
C2124 C2128 1.385 . S
C2125 H2100 0.951 . S
C2125 C2123 1.388 . S
C2125 C2126 1.366 . S
C2126 C2125 1.366 . S
C2126 C2127 1.414 . S
C2126 C2129 1.499 . S
C2127 H2101 0.950 . S
C2127 C2126 1.414 . S
C2127 C2128 1.374 . S
C2128 H2102 0.950 . S
C2128 C2124 1.385 . S
C2128 C2127 1.374 . S
C2129 C2126 1.499 . S
C2129 C2130 1.373 . S
C2129 C2131 1.389 . S
C2130 H2103 0.950 . S
C2130 C2116 1.377 . S
C2130 C2129 1.373 . S
C2131 C2115 1.377 . S
C2131 C2129 1.389 . S
C2131 C2132 1.524 . S
C2132 C2131 1.524 . S
C2132 C2133 1.397 . S
C2132 C2137 1.363 . S
C2133 H2104 0.950 1_545 S
C2133 C2132 1.397 . S
C2133 C2134 1.334 . S
C2134 H2105 0.950 1_545 S
C2134 C2133 1.334 . S
C2134 C2135 1.287 . S
C2135 C2134 1.287 . S
C2135 C2136 1.524 1_655 S
C2135 H2138 0.999 1_655 S
C2136 H2106 0.950 . S
C2136 C2135 1.524 1_455 S
C2136 C2137 1.415 1_455 S
C2137 H2107 0.967 . S
C2137 C2132 1.363 . S
C2137 C2136 1.415 1_655 S
H2138 C2135 0.999 1_455 S
H2139 C2120 0.913 . S
H2140 C2158 0.951 . S
H2141 C2160 0.951 . S
H2142 C2162 0.950 . S
H2143 C2163 0.950 . S
H2144 C2165 0.950 . S
H2145 C2168 0.950 . S
H2146 C2169 0.950 . S
H2147 C2171 0.950 . S
H2148 C2172 0.950 . S
H2149 C2173 0.951 . S
H2150 C2175 0.951 . S
H2151 C2177 0.950 . S
H2152 C2178 0.950 . S
H2153 C2180 0.950 . S
H2154 C2183 0.950 . S
H2155 C2184 0.950 . S
H2156 C2186 0.950 . S
H2157 C2187 0.950 . S
C2158 H2140 0.951 . S
C2158 C2159 1.366 . S
C2158 C2160 1.388 . S
C2159 C2158 1.366 . S
C2159 C2163 1.385 . S
C2160 H2141 0.951 . S
C2160 C2158 1.388 . S
C2160 C2161 1.366 . S
C2161 C2160 1.366 . S
C2161 C2162 1.414 . S
C2161 C2164 1.499 . S
C2162 H2142 0.950 . S
C2162 C2161 1.414 . S
C2162 C2163 1.374 . S
C2163 H2143 0.950 . S
C2163 C2159 1.385 . S
C2163 C2162 1.374 . S
C2164 C2161 1.499 . S
C2164 C2165 1.373 . S
C2164 C2166 1.389 . S
C2165 H2144 0.950 . S
C2165 C2164 1.373 . S
C2165 C2181 1.377 . S
C2166 C2164 1.389 . S
C2166 C2167 1.524 . S
C2166 C2180 1.377 . S
C2167 C2166 1.524 . S
C2167 C2168 1.397 . S
C2167 C2172 1.363 . S
C2168 H2145 0.950 . S
C2168 C2167 1.397 . S
C2168 C2169 1.334 . S
C2169 H2146 0.950 . S
C2169 C2168 1.334 . S
C2169 C2170 1.287 . S
C2170 C2169 1.287 . S
C2170 C2171 1.524 . S
C2170 H2189 0.913 . S
C2171 H2147 0.950 . S
C2171 C2170 1.524 . S
C2171 C2172 1.415 . S
C2172 H2148 0.950 . S
C2172 C2167 1.363 . S
C2172 C2171 1.415 . S
C2173 H2149 0.951 . S
C2173 C2174 1.366 . S
C2173 C2175 1.388 . S
C2174 C2173 1.366 . S
C2174 C2178 1.385 . S
C2175 H2150 0.951 . S
C2175 C2173 1.388 . S
C2175 C2176 1.366 . S
C2176 C2175 1.366 . S
C2176 C2177 1.414 . S
C2176 C2179 1.499 . S
C2177 H2151 0.950 . S
C2177 C2176 1.414 . S
C2177 C2178 1.374 . S
C2178 H2152 0.950 . S
C2178 C2174 1.385 . S
C2178 C2177 1.374 . S
C2179 C2176 1.499 . S
C2179 C2180 1.373 . S
C2179 C2181 1.389 . S
C2180 H2153 0.950 . S
C2180 C2166 1.377 . S
C2180 C2179 1.373 . S
C2181 C2165 1.377 . S
C2181 C2179 1.389 . S
C2181 C2182 1.524 . S
C2182 C2181 1.524 . S
C2182 C2183 1.397 . S
C2182 C2187 1.363 . S
C2183 H2154 0.950 . S
C2183 C2182 1.397 . S
C2183 C2184 1.334 . S
C2184 H2155 0.950 . S
C2184 C2183 1.334 . S
C2184 C2185 1.287 . S
C2185 C2184 1.287 . S
C2185 C2186 1.524 . S
C2185 H2188 0.999 . S
C2186 H2156 0.950 . S
C2186 C2185 1.524 . S
C2186 C2187 1.415 . S
C2187 H2157 0.950 . S
C2187 C2182 1.363 . S
C2187 C2186 1.415 . S
H2188 C2185 0.999 . S
H2189 C2170 0.913 . S
H2190 C2208 0.951 1_655 S
H2191 C2210 0.951 . S
H2192 C2212 0.950 . S
H2193 C2213 0.950 . S
H2194 C2215 0.950 . S
H2195 C2218 0.950 . S
H2196 C2219 0.950 . S
H2197 C2221 0.950 . S
H2198 C2222 0.950 . S
H2199 C2223 0.951 . S
H2200 C2225 0.951 . S
H2201 C2227 0.950 . S
H2202 C2228 0.950 . S
H2203 C2230 0.950 . S
H2204 C2233 0.950 . S
H2205 C2234 0.950 . S
H2206 C2236 0.950 . S
H2207 C2237 0.950 . S
C2208 H2190 0.951 1_455 S
C2208 C2209 1.366 . S
C2208 C2210 1.388 . S
C2209 C2208 1.366 . S
C2209 C2213 1.385 . S
C2210 H2191 0.951 . S
C2210 C2208 1.388 . S
C2210 C2211 1.366 . S
C2211 C2210 1.366 . S
C2211 C2212 1.414 . S
C2211 C2214 1.499 . S
C2212 H2192 0.950 . S
C2212 C2211 1.414 . S
C2212 C2213 1.374 . S
C2213 H2193 0.950 . S
C2213 C2209 1.385 . S
C2213 C2212 1.374 . S
C2214 C2211 1.499 . S
C2214 C2215 1.373 . S
C2214 C2216 1.389 . S
C2215 H2194 0.950 . S
C2215 C2214 1.373 . S
C2215 C2231 1.377 . S
C2216 C2214 1.389 . S
C2216 C2217 1.524 . S
C2216 C2230 1.377 . S
C2217 C2216 1.524 . S
C2217 C2218 1.397 . S
C2217 C2222 1.363 . S
C2218 H2195 0.950 . S
C2218 C2217 1.397 . S
C2218 C2219 1.334 . S
C2219 H2196 0.950 . S
C2219 C2218 1.334 . S
C2219 C2220 1.287 . S
C2220 C2219 1.287 . S
C2220 C2221 1.524 . S
C2220 H2239 0.913 . S
C2221 H2197 0.950 . S
C2221 C2220 1.524 . S
C2221 C2222 1.415 . S
C2222 H2198 0.950 . S
C2222 C2217 1.363 . S
C2222 C2221 1.415 . S
C2223 H2199 0.951 . S
C2223 C2224 1.366 . S
C2223 C2225 1.388 . S
C2224 C2223 1.366 . S
C2224 C2228 1.385 . S
C2225 H2200 0.951 . S
C2225 C2223 1.388 . S
C2225 C2226 1.366 . S
C2226 C2225 1.366 . S
C2226 C2227 1.414 . S
C2226 C2229 1.499 . S
C2227 H2201 0.950 . S
C2227 C2226 1.414 . S
C2227 C2228 1.374 . S
C2228 H2202 0.950 . S
C2228 C2224 1.385 . S
C2228 C2227 1.374 . S
C2229 C2226 1.499 . S
C2229 C2230 1.373 . S
C2229 C2231 1.389 . S
C2230 H2203 0.950 . S
C2230 C2216 1.377 . S
C2230 C2229 1.373 . S
C2231 C2215 1.377 . S
C2231 C2229 1.389 . S
C2231 C2232 1.524 . S
C2232 C2231 1.524 . S
C2232 C2233 1.397 . S
C2232 C2237 1.363 . S
C2233 H2204 0.950 . S
C2233 C2232 1.397 . S
C2233 C2234 1.334 . S
C2234 H2205 0.950 . S
C2234 C2233 1.334 . S
C2234 C2235 1.287 . S
C2235 C2234 1.287 . S
C2235 C2236 1.524 . S
C2235 H2238 0.999 . S
C2236 H2206 0.950 . S
C2236 C2235 1.524 . S
C2236 C2237 1.415 . S
C2237 H2207 0.950 . S
C2237 C2232 1.363 . S
C2237 C2236 1.415 . S
H2238 C2235 0.999 . S
H2239 C2220 0.913 . S
H2240 C2258 0.951 . S
H2241 C2260 0.951 . S
H2242 C2262 0.950 . S
H2243 C2263 0.950 . S
H2244 C2265 0.950 . S
H2245 C2268 0.950 . S
H2246 C2269 0.950 . S
H2247 C2271 0.950 . S
H2248 C2272 0.950 . S
H2249 C2273 0.951 . S
H2250 C2275 0.951 . S
H2251 C2277 0.950 . S
H2252 C2278 0.950 . S
H2253 C2280 0.950 . S
H2254 C2283 0.950 . S
H2255 C2284 0.950 . S
H2256 C2286 0.950 . S
H2257 C2287 0.950 . S
C2258 H2240 0.951 . S
C2258 C2259 1.366 . S
C2258 C2260 1.388 . S
C2259 C2258 1.366 . S
C2259 C2263 1.385 . S
C2260 H2241 0.951 . S
C2260 C2258 1.388 . S
C2260 C2261 1.366 . S
C2261 C2260 1.366 . S
C2261 C2262 1.414 . S
C2261 C2264 1.499 . S
C2262 H2242 0.950 . S
C2262 C2261 1.414 . S
C2262 C2263 1.374 . S
C2263 H2243 0.950 . S
C2263 C2259 1.385 . S
C2263 C2262 1.374 . S
C2264 C2261 1.499 . S
C2264 C2265 1.373 . S
C2264 C2266 1.389 . S
C2265 H2244 0.950 . S
C2265 C2264 1.373 . S
C2265 C2281 1.377 . S
C2266 C2264 1.389 . S
C2266 C2267 1.524 . S
C2266 C2280 1.377 . S
C2267 C2266 1.524 . S
C2267 C2268 1.397 . S
C2267 C2272 1.363 . S
C2268 H2245 0.950 . S
C2268 C2267 1.397 . S
C2268 C2269 1.334 . S
C2269 H2246 0.950 . S
C2269 C2268 1.334 . S
C2269 C2270 1.287 . S
C2270 C2269 1.287 . S
C2270 C2271 1.524 . S
C2270 H2289 0.913 . S
C2271 H2247 0.950 . S
C2271 C2270 1.524 . S
C2271 C2272 1.415 . S
C2272 H2248 0.950 . S
C2272 C2267 1.363 . S
C2272 C2271 1.415 . S
C2273 H2249 0.951 . S
C2273 C2274 1.366 . S
C2273 C2275 1.388 . S
C2274 C2273 1.366 . S
C2274 C2278 1.385 . S
C2275 H2250 0.951 . S
C2275 C2273 1.388 . S
C2275 C2276 1.366 . S
C2276 C2275 1.366 . S
C2276 C2277 1.414 . S
C2276 C2279 1.499 . S
C2277 H2251 0.950 . S
C2277 C2276 1.414 . S
C2277 C2278 1.374 . S
C2278 H2252 0.950 . S
C2278 C2274 1.385 . S
C2278 C2277 1.374 . S
C2279 C2276 1.499 . S
C2279 C2280 1.373 . S
C2279 C2281 1.389 . S
C2280 H2253 0.950 . S
C2280 C2266 1.377 . S
C2280 C2279 1.373 . S
C2281 C2265 1.377 . S
C2281 C2279 1.389 . S
C2281 C2282 1.524 . S
C2282 C2281 1.524 . S
C2282 C2283 1.397 . S
C2282 C2287 1.363 . S
C2283 H2254 0.950 . S
C2283 C2282 1.397 . S
C2283 C2284 1.334 . S
C2284 H2255 0.950 . S
C2284 C2283 1.334 . S
C2284 C2285 1.287 . S
C2285 C2284 1.287 . S
C2285 C2286 1.524 . S
C2285 H2288 0.999 . S
C2286 H2256 0.950 . S
C2286 C2285 1.524 . S
C2286 C2287 1.415 . S
C2287 H2257 0.950 . S
C2287 C2282 1.363 . S
C2287 C2286 1.415 . S
H2288 C2285 0.999 . S
H2289 C2270 0.913 . S
H2290 C2308 0.951 1_455 S
H2291 C2310 0.951 1_455 S
H2292 C2312 0.950 . S
H2293 C2313 0.950 . S
H2294 C2315 0.950 . S
H2295 C2318 0.950 . S
H2296 C2319 0.950 . S
H2297 C2321 0.950 1_455 S
H2298 C2322 0.950 1_455 S
H2299 C2323 0.951 . S
H2300 C2325 0.951 . S
H2301 C2327 0.950 . S
H2302 C2328 0.950 . S
H2303 C2330 0.950 . S
H2304 C2333 0.950 . S
H2305 C2334 0.950 . S
H2306 C2336 0.950 . S
H2307 C2337 0.950 . S
C2308 H2290 0.951 1_655 S
C2308 C2309 1.366 1_556 S
C2308 C2310 1.388 . S
C2309 C2308 1.366 1_554 S
C2309 C2313 1.385 . S
C2310 H2291 0.951 1_655 S
C2310 C2308 1.388 . S
C2310 C2311 1.366 . S
C2311 C2310 1.366 . S
C2311 C2312 1.415 1_556 S
C2311 C2314 1.499 . S
C2312 H2292 0.950 . S
C2312 C2311 1.415 1_554 S
C2312 C2313 1.373 . S
C2313 H2293 0.950 . S
C2313 C2309 1.385 . S
C2313 C2312 1.373 . S
C2314 C2311 1.499 . S
C2314 C2315 1.373 . S
C2314 C2316 1.389 . S
C2315 H2294 0.950 . S
C2315 C2314 1.373 . S
C2315 C2331 1.377 . S
C2316 C2314 1.389 . S
C2316 C2317 1.524 . S
C2316 C2330 1.377 . S
C2317 C2316 1.524 . S
C2317 C2318 1.397 . S
C2317 C2322 1.363 . S
C2318 H2295 0.950 . S
C2318 C2317 1.397 . S
C2318 C2319 1.334 . S
C2319 H2296 0.950 . S
C2319 C2318 1.334 . S
C2319 C2320 1.287 . S
C2320 C2319 1.287 . S
C2320 C2321 1.524 . S
C2320 H2339 0.913 . S
C2321 H2297 0.950 1_655 S
C2321 C2320 1.524 . S
C2321 C2322 1.415 . S
C2322 H2298 0.950 1_655 S
C2322 C2317 1.363 . S
C2322 C2321 1.415 . S
C2323 H2299 0.951 . S
C2323 C2324 1.366 . S
C2323 C2325 1.388 . S
C2324 C2323 1.366 . S
C2324 C2328 1.385 1_655 S
C2325 H2300 0.951 . S
C2325 C2323 1.388 . S
C2325 C2326 1.366 . S
C2326 C2325 1.366 . S
C2326 C2327 1.414 1_655 S
C2326 C2329 1.499 . S
C2327 H2301 0.950 . S
C2327 C2326 1.414 1_455 S
C2327 C2328 1.374 . S
C2328 H2302 0.950 . S
C2328 C2324 1.385 1_455 S
C2328 C2327 1.374 . S
C2329 C2326 1.499 . S
C2329 C2330 1.373 . S
C2329 C2331 1.389 . S
C2330 H2303 0.950 . S
C2330 C2316 1.377 . S
C2330 C2329 1.373 . S
C2331 C2315 1.377 . S
C2331 C2329 1.389 . S
C2331 C2332 1.524 . S
C2332 C2331 1.524 . S
C2332 C2333 1.397 1_655 S
C2332 C2337 1.363 . S
C2333 H2304 0.950 . S
C2333 C2332 1.397 1_455 S
C2333 C2334 1.334 . S
C2334 H2305 0.950 . S
C2334 C2333 1.334 . S
C2334 C2335 1.287 . S
C2335 C2334 1.287 . S
C2335 C2336 1.524 1_456 S
C2335 H2338 0.999 1_556 S
C2336 H2306 0.950 . S
C2336 C2335 1.524 1_654 S
C2336 C2337 1.415 1_554 S
C2337 H2307 0.950 . S
C2337 C2332 1.363 . S
C2337 C2336 1.415 1_556 S
H2338 C2335 0.999 1_554 S
H2339 C2320 0.913 . S
H2340 C2358 0.951 . S
H2341 C2360 0.951 . S
H2342 C2362 0.950 . S
H2343 C2363 0.950 . S
H2344 C2365 0.950 . S
H2345 C2368 0.950 . S
H2346 C2369 0.950 . S
H2347 C2371 0.950 . S
H2348 C2372 0.950 . S
H2349 C2373 0.951 . S
H2350 C2375 0.951 . S
H2351 C2377 0.950 . S
H2352 C2378 0.950 . S
H2353 C2380 0.950 . S
H2354 C2383 0.950 . S
H2355 C2384 0.950 . S
H2356 C2386 0.950 . S
H2357 C2387 0.950 . S
C2358 H2340 0.951 . S
C2358 C2359 1.366 . S
C2358 C2360 1.388 . S
C2359 C2358 1.366 . S
C2359 C2363 1.385 . S
C2360 H2341 0.951 . S
C2360 C2358 1.388 . S
C2360 C2361 1.366 . S
C2361 C2360 1.366 . S
C2361 C2362 1.414 . S
C2361 C2364 1.499 . S
C2362 H2342 0.950 . S
C2362 C2361 1.414 . S
C2362 C2363 1.374 . S
C2363 H2343 0.950 . S
C2363 C2359 1.385 . S
C2363 C2362 1.374 . S
C2364 C2361 1.499 . S
C2364 C2365 1.373 . S
C2364 C2366 1.389 . S
C2365 H2344 0.950 . S
C2365 C2364 1.373 . S
C2365 C2381 1.377 . S
C2366 C2364 1.389 . S
C2366 C2367 1.524 . S
C2366 C2380 1.377 . S
C2367 C2366 1.524 . S
C2367 C2368 1.397 . S
C2367 C2372 1.363 . S
C2368 H2345 0.950 . S
C2368 C2367 1.397 . S
C2368 C2369 1.334 . S
C2369 H2346 0.950 . S
C2369 C2368 1.334 . S
C2369 C2370 1.287 . S
C2370 C2369 1.287 . S
C2370 C2371 1.524 . S
C2370 H2389 0.913 . S
C2371 H2347 0.950 . S
C2371 C2370 1.524 . S
C2371 C2372 1.415 . S
C2372 H2348 0.950 . S
C2372 C2367 1.363 . S
C2372 C2371 1.415 . S
C2373 H2349 0.951 . S
C2373 C2374 1.366 . S
C2373 C2375 1.388 . S
C2374 C2373 1.366 . S
C2374 C2378 1.385 . S
C2375 H2350 0.951 . S
C2375 C2373 1.388 . S
C2375 C2376 1.366 . S
C2376 C2375 1.366 . S
C2376 C2377 1.414 . S
C2376 C2379 1.499 . S
C2377 H2351 0.950 . S
C2377 C2376 1.414 . S
C2377 C2378 1.374 . S
C2378 H2352 0.950 . S
C2378 C2374 1.385 . S
C2378 C2377 1.374 . S
C2379 C2376 1.499 . S
C2379 C2380 1.373 . S
C2379 C2381 1.389 . S
C2380 H2353 0.950 . S
C2380 C2366 1.377 . S
C2380 C2379 1.373 . S
C2381 C2365 1.377 . S
C2381 C2379 1.389 . S
C2381 C2382 1.524 . S
C2382 C2381 1.524 . S
C2382 C2383 1.397 . S
C2382 C2387 1.363 . S
C2383 H2354 0.950 . S
C2383 C2382 1.397 . S
C2383 C2384 1.334 . S
C2384 H2355 0.950 . S
C2384 C2383 1.334 . S
C2384 C2385 1.287 . S
C2385 C2384 1.287 . S
C2385 C2386 1.524 . S
C2385 H2388 0.999 . S
C2386 H2356 0.950 . S
C2386 C2385 1.524 . S
C2386 C2387 1.415 . S
C2387 H2357 0.950 . S
C2387 C2382 1.363 . S
C2387 C2386 1.415 . S
H2388 C2385 0.999 . S
H2389 C2370 0.913 . S
H2390 C2408 0.951 1_655 S
H2391 C2410 0.951 1_655 S
H2392 C2412 0.950 . S
H2393 C2413 0.950 . S
H2394 C2415 0.950 . S
H2395 C2418 0.950 . S
H2396 C2419 0.950 . S
H2397 C2421 0.950 . S
H2398 C2422 0.950 . S
H2399 C2423 0.951 . S
H2400 C2425 0.951 . S
H2401 C2427 0.950 . S
H2402 C2428 0.950 . S
H2403 C2430 0.962 . S
H2404 C2433 0.950 . S
H2405 C2434 0.950 . S
H2406 C2436 0.950 . S
H2407 C2437 0.950 . S
C2408 H2390 0.951 1_455 S
C2408 C2409 1.366 1_556 S
C2408 C2410 1.388 . S
C2409 C2408 1.366 1_554 S
C2409 C2413 1.385 . S
C2410 H2391 0.951 1_455 S
C2410 C2408 1.388 . S
C2410 C2411 1.366 . S
C2411 C2410 1.366 . S
C2411 C2412 1.414 . S
C2411 C2414 1.499 . S
C2412 H2392 0.950 . S
C2412 C2411 1.414 . S
C2412 C2413 1.374 1_556 S
C2413 H2393 0.950 . S
C2413 C2409 1.385 . S
C2413 C2412 1.374 1_554 S
C2414 C2411 1.499 . S
C2414 C2415 1.373 . S
C2414 C2416 1.389 . S
C2415 H2394 0.950 . S
C2415 C2414 1.373 . S
C2415 C2431 1.377 . S
C2416 C2414 1.389 . S
C2416 C2417 1.524 . S
C2416 C2430 1.377 . S
C2417 C2416 1.524 . S
C2417 C2418 1.397 . S
C2417 C2422 1.363 1_455 S
C2418 H2395 0.950 . S
C2418 C2417 1.397 . S
C2418 C2419 1.334 . S
C2419 H2396 0.950 . S
C2419 C2418 1.334 . S
C2419 C2420 1.287 . S
C2420 C2419 1.287 . S
C2420 C2421 1.524 1_455 S
C2420 H2439 0.913 . S
C2421 H2397 0.950 . S
C2421 C2420 1.524 1_655 S
C2421 C2422 1.415 . S
C2422 H2398 0.950 . S
C2422 C2417 1.363 1_655 S
C2422 C2421 1.415 . S
C2423 H2399 0.951 . S
C2423 C2424 1.403 . S
C2423 C2425 1.388 . S
C2424 C2423 1.403 . S
C2424 C2428 1.358 1_455 S
C2425 H2400 0.951 . S
C2425 C2423 1.388 . S
C2425 C2426 1.366 . S
C2426 C2425 1.366 . S
C2426 C2427 1.414 1_455 S
C2426 C2429 1.499 . S
C2427 H2401 0.950 . S
C2427 C2426 1.414 1_655 S
C2427 C2428 1.374 . S
C2428 H2402 0.950 . S
C2428 C2424 1.358 1_655 S
C2428 C2427 1.374 . S
C2429 C2426 1.499 . S
C2429 C2430 1.373 . S
C2429 C2431 1.389 . S
C2430 H2403 0.962 . S
C2430 C2416 1.377 . S
C2430 C2429 1.373 . S
C2431 C2415 1.377 . S
C2431 C2429 1.389 . S
C2431 C2432 1.524 . S
C2432 C2431 1.524 . S
C2432 C2433 1.397 1_455 S
C2432 C2437 1.363 . S
C2433 H2404 0.950 . S
C2433 C2432 1.397 1_655 S
C2433 C2434 1.334 . S
C2434 H2405 0.950 . S
C2434 C2433 1.334 . S
C2434 C2435 1.295 1_655 S
C2435 C2434 1.295 1_455 S
C2435 C2436 1.523 1_556 S
C2435 H2438 0.991 1_556 S
C2436 H2406 0.950 . S
C2436 C2435 1.523 1_554 S
C2436 C2437 1.415 1_554 S
C2437 H2407 0.950 . S
C2437 C2432 1.363 . S
C2437 C2436 1.415 1_556 S
H2438 C2435 0.991 1_554 S
H2439 C2420 0.913 . S
H2440 C2458 0.951 . S
H2441 C2460 0.951 . S
H2442 C2462 0.950 . S
H2443 C2463 0.950 . S
H2444 C2465 0.950 . S
H2445 C2468 0.950 . S
H2446 C2469 0.950 . S
H2447 C2471 0.950 . S
H2448 C2472 0.950 . S
H2449 C2473 0.951 . S
H2450 C2475 0.951 . S
H2451 C2477 0.950 . S
H2452 C2478 0.950 . S
H2453 C2480 0.950 . S
H2454 C2483 0.950 . S
H2455 C2484 0.950 . S
H2456 C2486 0.950 . S
H2457 C2487 0.950 . S
C2458 H2440 0.951 . S
C2458 C2459 1.366 . S
C2458 C2460 1.388 . S
C2459 C2458 1.366 . S
C2459 C2463 1.385 . S
C2460 H2441 0.951 . S
C2460 C2458 1.388 . S
C2460 C2461 1.366 . S
C2461 C2460 1.366 . S
C2461 C2462 1.414 . S
C2461 C2464 1.499 . S
C2462 H2442 0.950 . S
C2462 C2461 1.414 . S
C2462 C2463 1.374 . S
C2463 H2443 0.950 . S
C2463 C2459 1.385 . S
C2463 C2462 1.374 . S
C2464 C2461 1.499 . S
C2464 C2465 1.373 . S
C2464 C2466 1.389 . S
C2465 H2444 0.950 . S
C2465 C2464 1.373 . S
C2465 C2481 1.377 . S
C2466 C2464 1.389 . S
C2466 C2467 1.524 . S
C2466 C2480 1.377 . S
C2467 C2466 1.524 . S
C2467 C2468 1.397 . S
C2467 C2472 1.363 . S
C2468 H2445 0.950 . S
C2468 C2467 1.397 . S
C2468 C2469 1.334 . S
C2469 H2446 0.950 . S
C2469 C2468 1.334 . S
C2469 C2470 1.287 . S
C2470 C2469 1.287 . S
C2470 C2471 1.524 . S
C2470 H2489 0.913 . S
C2471 H2447 0.950 . S
C2471 C2470 1.524 . S
C2471 C2472 1.415 . S
C2472 H2448 0.950 . S
C2472 C2467 1.363 . S
C2472 C2471 1.415 . S
C2473 H2449 0.951 . S
C2473 C2474 1.366 . S
C2473 C2475 1.388 . S
C2474 C2473 1.366 . S
C2474 C2478 1.385 . S
C2475 H2450 0.951 . S
C2475 C2473 1.388 . S
C2475 C2476 1.366 . S
C2476 C2475 1.366 . S
C2476 C2477 1.414 . S
C2476 C2479 1.499 . S
C2477 H2451 0.950 . S
C2477 C2476 1.414 . S
C2477 C2478 1.374 . S
C2478 H2452 0.950 . S
C2478 C2474 1.385 . S
C2478 C2477 1.374 . S
C2479 C2476 1.499 . S
C2479 C2480 1.373 . S
C2479 C2481 1.389 . S
C2480 H2453 0.950 . S
C2480 C2466 1.377 . S
C2480 C2479 1.373 . S
C2481 C2465 1.377 . S
C2481 C2479 1.389 . S
C2481 C2482 1.524 . S
C2482 C2481 1.524 . S
C2482 C2483 1.397 . S
C2482 C2487 1.363 . S
C2483 H2454 0.950 . S
C2483 C2482 1.397 . S
C2483 C2484 1.334 . S
C2484 H2455 0.950 . S
C2484 C2483 1.334 . S
C2484 C2485 1.287 . S
C2485 C2484 1.287 . S
C2485 C2486 1.524 . S
C2485 H2488 0.999 . S
C2486 H2456 0.950 . S
C2486 C2485 1.524 . S
C2486 C2487 1.415 . S
C2487 H2457 0.950 . S
C2487 C2482 1.363 . S
C2487 C2486 1.415 . S
H2488 C2485 0.999 . S
H2489 C2470 0.913 . S
H2490 C2508 0.951 . S
H2491 C2510 0.951 1_556 S
H2492 C2512 0.950 . S
H2493 C2513 0.950 . S
H2494 C2515 0.950 . S
H2495 C2518 0.950 . S
H2496 C2519 0.950 . S
H2497 C2521 0.987 . S
H2498 C2522 0.950 . S
H2499 C2523 0.951 . S
H2500 C2525 0.951 . S
H2501 C2527 0.950 . S
H2502 C2528 0.950 . S
H2503 C2530 0.950 . S
H2504 C2533 0.950 . S
H2505 C2534 0.950 . S
H2506 C2536 0.950 . S
H2507 C2537 0.950 . S
C2508 H2490 0.951 . S
C2508 C2509 1.366 . S
C2508 C2510 1.388 1_556 S
C2509 C2508 1.366 . S
C2509 C2513 1.385 1_556 S
C2510 H2491 0.951 1_554 S
C2510 C2508 1.388 1_554 S
C2510 C2511 1.366 . S
C2511 C2510 1.366 . S
C2511 C2512 1.414 . S
C2511 C2514 1.499 . S
C2512 H2492 0.950 . S
C2512 C2511 1.414 . S
C2512 C2513 1.374 . S
C2513 H2493 0.950 . S
C2513 C2509 1.385 1_554 S
C2513 C2512 1.374 . S
C2514 C2511 1.499 . S
C2514 C2515 1.373 . S
C2514 C2516 1.389 . S
C2515 H2494 0.950 . S
C2515 C2514 1.373 . S
C2515 C2531 1.377 . S
C2516 C2514 1.389 . S
C2516 C2517 1.524 . S
C2516 C2530 1.377 . S
C2517 C2516 1.524 . S
C2517 C2518 1.397 . S
C2517 C2522 1.363 . S
C2518 H2495 0.950 . S
C2518 C2517 1.397 . S
C2518 C2519 1.334 . S
C2519 H2496 0.950 . S
C2519 C2518 1.334 . S
C2519 C2520 1.310 . S
C2520 C2519 1.310 . S
C2520 C2521 1.512 1_554 S
C2520 H2539 0.891 1_554 S
C2521 H2497 0.987 . S
C2521 C2520 1.512 1_556 S
C2521 C2522 1.383 1_556 S
C2522 H2498 0.950 . S
C2522 C2517 1.363 . S
C2522 C2521 1.383 1_554 S
C2523 H2499 0.951 . S
C2523 C2524 1.366 . S
C2523 C2525 1.388 . S
C2524 C2523 1.366 . S
C2524 C2528 1.385 . S
C2525 H2500 0.951 . S
C2525 C2523 1.388 . S
C2525 C2526 1.366 . S
C2526 C2525 1.366 . S
C2526 C2527 1.414 . S
C2526 C2529 1.499 . S
C2527 H2501 0.950 . S
C2527 C2526 1.414 . S
C2527 C2528 1.374 . S
C2528 H2502 0.950 . S
C2528 C2524 1.385 . S
C2528 C2527 1.374 . S
C2529 C2526 1.499 . S
C2529 C2530 1.373 . S
C2529 C2531 1.389 . S
C2530 H2503 0.950 . S
C2530 C2516 1.377 . S
C2530 C2529 1.373 . S
C2531 C2515 1.377 . S
C2531 C2529 1.389 . S
C2531 C2532 1.524 . S
C2532 C2531 1.524 . S
C2532 C2533 1.397 . S
C2532 C2537 1.363 . S
C2533 H2504 0.950 . S
C2533 C2532 1.397 . S
C2533 C2534 1.334 . S
C2534 H2505 0.950 . S
C2534 C2533 1.334 . S
C2534 C2535 1.287 . S
C2535 C2534 1.287 . S
C2535 C2536 1.524 . S
C2535 H2538 0.999 . S
C2536 H2506 0.950 . S
C2536 C2535 1.524 . S
C2536 C2537 1.415 . S
C2537 H2507 0.950 . S
C2537 C2532 1.363 . S
C2537 C2536 1.415 . S
H2538 C2535 0.999 . S
H2539 C2520 0.891 1_556 S
H2540 C2558 0.951 . S
H2541 C2560 0.951 . S
H2542 C2562 0.950 . S
H2543 C2563 0.950 . S
H2544 C2565 0.950 . S
H2545 C2568 0.950 . S
H2546 C2569 0.950 . S
H2547 C2571 0.950 . S
H2548 C2572 0.950 . S
H2549 C2573 0.951 . S
H2550 C2575 0.951 . S
H2551 C2577 0.950 . S
H2552 C2578 0.950 . S
H2553 C2580 0.950 . S
H2554 C2583 0.950 . S
H2555 C2584 0.950 . S
H2556 C2586 0.950 . S
H2557 C2587 0.950 . S
C2558 H2540 0.951 . S
C2558 C2559 1.366 . S
C2558 C2560 1.388 . S
C2559 C2558 1.366 . S
C2559 C2563 1.385 . S
C2560 H2541 0.951 . S
C2560 C2558 1.388 . S
C2560 C2561 1.366 . S
C2561 C2560 1.366 . S
C2561 C2562 1.414 . S
C2561 C2564 1.499 . S
C2562 H2542 0.950 . S
C2562 C2561 1.414 . S
C2562 C2563 1.374 . S
C2563 H2543 0.950 . S
C2563 C2559 1.385 . S
C2563 C2562 1.374 . S
C2564 C2561 1.499 . S
C2564 C2565 1.373 . S
C2564 C2566 1.389 . S
C2565 H2544 0.950 . S
C2565 C2564 1.373 . S
C2565 C2581 1.377 . S
C2566 C2564 1.389 . S
C2566 C2567 1.524 . S
C2566 C2580 1.377 . S
C2567 C2566 1.524 . S
C2567 C2568 1.397 . S
C2567 C2572 1.363 . S
C2568 H2545 0.950 . S
C2568 C2567 1.397 . S
C2568 C2569 1.334 . S
C2569 H2546 0.950 . S
C2569 C2568 1.334 . S
C2569 C2570 1.287 . S
C2570 C2569 1.287 . S
C2570 C2571 1.524 . S
C2570 H2589 0.913 . S
C2571 H2547 0.950 . S
C2571 C2570 1.524 . S
C2571 C2572 1.415 . S
C2572 H2548 0.950 . S
C2572 C2567 1.363 . S
C2572 C2571 1.415 . S
C2573 H2549 0.951 . S
C2573 C2574 1.366 . S
C2573 C2575 1.388 . S
C2574 C2573 1.366 . S
C2574 C2578 1.385 . S
C2575 H2550 0.951 . S
C2575 C2573 1.388 . S
C2575 C2576 1.366 . S
C2576 C2575 1.366 . S
C2576 C2577 1.414 . S
C2576 C2579 1.499 . S
C2577 H2551 0.950 . S
C2577 C2576 1.414 . S
C2577 C2578 1.374 . S
C2578 H2552 0.950 . S
C2578 C2574 1.385 . S
C2578 C2577 1.374 . S
C2579 C2576 1.499 . S
C2579 C2580 1.373 . S
C2579 C2581 1.389 . S
C2580 H2553 0.950 . S
C2580 C2566 1.377 . S
C2580 C2579 1.373 . S
C2581 C2565 1.377 . S
C2581 C2579 1.389 . S
C2581 C2582 1.524 . S
C2582 C2581 1.524 . S
C2582 C2583 1.397 . S
C2582 C2587 1.363 . S
C2583 H2554 0.950 . S
C2583 C2582 1.397 . S
C2583 C2584 1.334 . S
C2584 H2555 0.950 . S
C2584 C2583 1.334 . S
C2584 C2585 1.287 . S
C2585 C2584 1.287 . S
C2585 C2586 1.524 . S
C2585 H2588 0.999 . S
C2586 H2556 0.950 . S
C2586 C2585 1.524 . S
C2586 C2587 1.415 . S
C2587 H2557 0.950 . S
C2587 C2582 1.363 . S
C2587 C2586 1.415 . S
H2588 C2585 0.999 . S
H2589 C2570 0.913 . S
H2590 C2608 0.951 1_556 S
H2591 C2610 0.951 . S
H2592 C2612 0.950 . S
H2593 C2613 0.950 . S
H2594 C2615 0.950 . S
H2595 C2618 0.950 . S
H2596 C2619 0.950 . S
H2597 C2621 0.950 . S
H2598 C2622 0.950 . S
H2599 C2623 0.951 . S
H2600 C2625 0.951 . S
H2601 C2627 0.950 . S
H2602 C2628 0.950 . S
H2603 C2630 0.950 . S
H2604 C2633 0.950 . S
H2605 C2634 0.950 . S
H2606 C2636 0.950 . S
H2607 C2637 0.950 . S
C2608 H2590 0.951 1_554 S
C2608 C2609 1.366 . S
C2608 C2610 1.388 . S
C2609 C2608 1.366 . S
C2609 C2613 1.385 . S
C2610 H2591 0.951 . S
C2610 C2608 1.388 . S
C2610 C2611 1.366 . S
C2611 C2610 1.366 . S
C2611 C2612 1.414 . S
C2611 C2614 1.499 . S
C2612 H2592 0.950 . S
C2612 C2611 1.414 . S
C2612 C2613 1.374 . S
C2613 H2593 0.950 . S
C2613 C2609 1.385 . S
C2613 C2612 1.374 . S
C2614 C2611 1.499 . S
C2614 C2615 1.373 . S
C2614 C2616 1.389 . S
C2615 H2594 0.950 . S
C2615 C2614 1.373 . S
C2615 C2631 1.377 . S
C2616 C2614 1.389 . S
C2616 C2617 1.524 . S
C2616 C2630 1.377 . S
C2617 C2616 1.524 . S
C2617 C2618 1.397 . S
C2617 C2622 1.363 . S
C2618 H2595 0.950 . S
C2618 C2617 1.397 . S
C2618 C2619 1.334 . S
C2619 H2596 0.950 . S
C2619 C2618 1.334 . S
C2619 C2620 1.287 . S
C2620 C2619 1.287 . S
C2620 C2621 1.524 . S
C2620 H2639 0.913 . S
C2621 H2597 0.950 . S
C2621 C2620 1.524 . S
C2621 C2622 1.415 . S
C2622 H2598 0.950 . S
C2622 C2617 1.363 . S
C2622 C2621 1.415 . S
C2623 H2599 0.951 . S
C2623 C2624 1.366 . S
C2623 C2625 1.388 . S
C2624 C2623 1.366 . S
C2624 C2628 1.385 . S
C2625 H2600 0.951 . S
C2625 C2623 1.388 . S
C2625 C2626 1.366 . S
C2626 C2625 1.366 . S
C2626 C2627 1.414 . S
C2626 C2629 1.499 . S
C2627 H2601 0.950 . S
C2627 C2626 1.414 . S
C2627 C2628 1.374 . S
C2628 H2602 0.950 . S
C2628 C2624 1.385 . S
C2628 C2627 1.374 . S
C2629 C2626 1.499 . S
C2629 C2630 1.373 . S
C2629 C2631 1.389 . S
C2630 H2603 0.950 . S
C2630 C2616 1.377 . S
C2630 C2629 1.373 . S
C2631 C2615 1.377 . S
C2631 C2629 1.389 . S
C2631 C2632 1.524 . S
C2632 C2631 1.524 . S
C2632 C2633 1.397 . S
C2632 C2637 1.363 . S
C2633 H2604 0.950 . S
C2633 C2632 1.397 . S
C2633 C2634 1.334 . S
C2634 H2605 0.950 . S
C2634 C2633 1.334 . S
C2634 C2635 1.287 . S
C2635 C2634 1.287 . S
C2635 C2636 1.524 . S
C2635 H2638 0.999 . S
C2636 H2606 0.950 . S
C2636 C2635 1.524 . S
C2636 C2637 1.415 . S
C2637 H2607 0.950 . S
C2637 C2632 1.363 . S
C2637 C2636 1.415 . S
H2638 C2635 0.999 . S
H2639 C2620 0.913 . S
H2640 C2658 0.951 . S
H2641 C2660 0.951 . S
H2642 C2662 0.950 . S
H2643 C2663 0.950 . S
H2644 C2665 0.950 . S
H2645 C2668 0.950 . S
H2646 C2669 0.950 . S
H2647 C2671 0.950 . S
H2648 C2672 0.950 . S
H2649 C2673 0.951 . S
H2650 C2675 0.951 . S
H2651 C2677 0.950 . S
H2652 C2678 0.950 . S
H2653 C2680 0.950 . S
H2654 C2683 0.950 . S
H2655 C2684 0.950 . S
H2656 C2686 0.950 . S
H2657 C2687 0.950 . S
C2658 H2640 0.951 . S
C2658 C2659 1.366 . S
C2658 C2660 1.388 . S
C2659 C2658 1.366 . S
C2659 C2663 1.385 . S
C2660 H2641 0.951 . S
C2660 C2658 1.388 . S
C2660 C2661 1.366 . S
C2661 C2660 1.366 . S
C2661 C2662 1.414 . S
C2661 C2664 1.499 . S
C2662 H2642 0.950 . S
C2662 C2661 1.414 . S
C2662 C2663 1.374 . S
C2663 H2643 0.950 . S
C2663 C2659 1.385 . S
C2663 C2662 1.374 . S
C2664 C2661 1.499 . S
C2664 C2665 1.373 . S
C2664 C2666 1.389 . S
C2665 H2644 0.950 . S
C2665 C2664 1.373 . S
C2665 C2681 1.377 . S
C2666 C2664 1.389 . S
C2666 C2667 1.524 . S
C2666 C2680 1.377 . S
C2667 C2666 1.524 . S
C2667 C2668 1.397 . S
C2667 C2672 1.363 . S
C2668 H2645 0.950 . S
C2668 C2667 1.397 . S
C2668 C2669 1.334 . S
C2669 H2646 0.950 . S
C2669 C2668 1.334 . S
C2669 C2670 1.287 . S
C2670 C2669 1.287 . S
C2670 C2671 1.524 . S
C2670 H2689 0.913 . S
C2671 H2647 0.950 . S
C2671 C2670 1.524 . S
C2671 C2672 1.415 . S
C2672 H2648 0.950 . S
C2672 C2667 1.363 . S
C2672 C2671 1.415 . S
C2673 H2649 0.951 . S
C2673 C2674 1.366 . S
C2673 C2675 1.388 . S
C2674 C2673 1.366 . S
C2674 C2678 1.385 . S
C2675 H2650 0.951 . S
C2675 C2673 1.388 . S
C2675 C2676 1.366 . S
C2676 C2675 1.366 . S
C2676 C2677 1.414 . S
C2676 C2679 1.499 . S
C2677 H2651 0.950 . S
C2677 C2676 1.414 . S
C2677 C2678 1.374 . S
C2678 H2652 0.950 . S
C2678 C2674 1.385 . S
C2678 C2677 1.374 . S
C2679 C2676 1.499 . S
C2679 C2680 1.373 . S
C2679 C2681 1.389 . S
C2680 H2653 0.950 . S
C2680 C2666 1.377 . S
C2680 C2679 1.373 . S
C2681 C2665 1.377 . S
C2681 C2679 1.389 . S
C2681 C2682 1.524 . S
C2682 C2681 1.524 . S
C2682 C2683 1.397 . S
C2682 C2687 1.363 . S
C2683 H2654 0.950 . S
C2683 C2682 1.397 . S
C2683 C2684 1.334 . S
C2684 H2655 0.950 . S
C2684 C2683 1.334 . S
C2684 C2685 1.287 . S
C2685 C2684 1.287 . S
C2685 C2686 1.524 . S
C2685 H2688 0.999 . S
C2686 H2656 0.950 . S
C2686 C2685 1.524 . S
C2686 C2687 1.415 . S
C2687 H2657 0.950 . S
C2687 C2682 1.363 . S
C2687 C2686 1.415 . S
H2688 C2685 0.999 . S
H2689 C2670 0.913 . S
H2690 C2708 0.951 . S
H2691 C2710 0.951 . S
H2692 C2712 0.950 . S
H2693 C2713 0.950 . S
H2694 C2715 0.950 . S
H2695 C2718 0.950 . S
H2696 C2719 0.950 . S
H2697 C2721 0.950 . S
H2698 C2722 0.950 . S
H2699 C2723 0.951 . S
H2700 C2725 0.951 . S
H2701 C2727 0.950 . S
H2702 C2728 0.950 . S
H2703 C2730 0.950 . S
H2704 C2733 0.950 . S
H2705 C2734 0.950 . S
H2706 C2736 0.950 . S
H2707 C2737 0.950 . S
C2708 H2690 0.951 . S
C2708 C2709 1.366 . S
C2708 C2710 1.388 . S
C2709 C2708 1.366 . S
C2709 C2713 1.385 . S
C2710 H2691 0.951 . S
C2710 C2708 1.388 . S
C2710 C2711 1.366 . S
C2711 C2710 1.366 . S
C2711 C2712 1.414 . S
C2711 C2714 1.499 . S
C2712 H2692 0.950 . S
C2712 C2711 1.414 . S
C2712 C2713 1.374 . S
C2713 H2693 0.950 . S
C2713 C2709 1.385 . S
C2713 C2712 1.374 . S
C2714 C2711 1.499 . S
C2714 C2715 1.373 . S
C2714 C2716 1.389 . S
C2715 H2694 0.950 . S
C2715 C2714 1.373 . S
C2715 C2731 1.377 . S
C2716 C2714 1.389 . S
C2716 C2717 1.524 . S
C2716 C2730 1.377 . S
C2717 C2716 1.524 . S
C2717 C2718 1.397 . S
C2717 C2722 1.363 . S
C2718 H2695 0.950 . S
C2718 C2717 1.397 . S
C2718 C2719 1.334 . S
C2719 H2696 0.950 . S
C2719 C2718 1.334 . S
C2719 C2720 1.287 . S
C2720 C2719 1.287 . S
C2720 C2721 1.524 . S
C2720 H2739 0.913 . S
C2721 H2697 0.950 . S
C2721 C2720 1.524 . S
C2721 C2722 1.415 . S
C2722 H2698 0.950 . S
C2722 C2717 1.363 . S
C2722 C2721 1.415 . S
C2723 H2699 0.951 . S
C2723 C2724 1.366 . S
C2723 C2725 1.388 . S
C2724 C2723 1.366 . S
C2724 C2728 1.385 . S
C2725 H2700 0.951 . S
C2725 C2723 1.388 . S
C2725 C2726 1.366 . S
C2726 C2725 1.366 . S
C2726 C2727 1.414 . S
C2726 C2729 1.499 . S
C2727 H2701 0.950 . S
C2727 C2726 1.414 . S
C2727 C2728 1.374 . S
C2728 H2702 0.950 . S
C2728 C2724 1.385 . S
C2728 C2727 1.374 . S
C2729 C2726 1.499 . S
C2729 C2730 1.373 . S
C2729 C2731 1.389 . S
C2730 H2703 0.950 . S
C2730 C2716 1.377 . S
C2730 C2729 1.373 . S
C2731 C2715 1.377 . S
C2731 C2729 1.389 . S
C2731 C2732 1.524 . S
C2732 C2731 1.524 . S
C2732 C2733 1.397 . S
C2732 C2737 1.363 . S
C2733 H2704 0.950 . S
C2733 C2732 1.397 . S
C2733 C2734 1.334 . S
C2734 H2705 0.950 . S
C2734 C2733 1.334 . S
C2734 C2735 1.287 . S
C2735 C2734 1.287 . S
C2735 C2736 1.524 . S
C2735 H2738 0.999 . S
C2736 H2706 0.950 . S
C2736 C2735 1.524 . S
C2736 C2737 1.415 . S
C2737 H2707 0.950 . S
C2737 C2732 1.363 . S
C2737 C2736 1.415 . S
H2738 C2735 0.999 . S
H2739 C2720 0.913 . S
H2740 C2758 0.951 . S
H2741 C2760 0.951 . S
H2742 C2762 0.950 . S
H2743 C2763 0.950 . S
H2744 C2765 0.950 . S
H2745 C2768 0.950 . S
H2746 C2769 0.950 . S
H2747 C2771 0.950 . S
H2748 C2772 0.950 . S
H2749 C2773 0.951 . S
H2750 C2775 0.951 . S
H2751 C2777 0.950 . S
H2752 C2778 0.950 . S
H2753 C2780 0.950 . S
H2754 C2783 0.950 . S
H2755 C2784 0.950 . S
H2756 C2786 0.950 . S
H2757 C2787 0.950 . S
C2758 H2740 0.951 . S
C2758 C2759 1.366 . S
C2758 C2760 1.388 . S
C2759 C2758 1.366 . S
C2759 C2763 1.385 . S
C2760 H2741 0.951 . S
C2760 C2758 1.388 . S
C2760 C2761 1.366 . S
C2761 C2760 1.366 . S
C2761 C2762 1.414 . S
C2761 C2764 1.499 . S
C2762 H2742 0.950 . S
C2762 C2761 1.414 . S
C2762 C2763 1.374 . S
C2763 H2743 0.950 . S
C2763 C2759 1.385 . S
C2763 C2762 1.374 . S
C2764 C2761 1.499 . S
C2764 C2765 1.373 . S
C2764 C2766 1.389 . S
C2765 H2744 0.950 . S
C2765 C2764 1.373 . S
C2765 C2781 1.377 . S
C2766 C2764 1.389 . S
C2766 C2767 1.524 . S
C2766 C2780 1.377 . S
C2767 C2766 1.524 . S
C2767 C2768 1.397 . S
C2767 C2772 1.363 . S
C2768 H2745 0.950 . S
C2768 C2767 1.397 . S
C2768 C2769 1.334 . S
C2769 H2746 0.950 . S
C2769 C2768 1.334 . S
C2769 C2770 1.287 . S
C2770 C2769 1.287 . S
C2770 C2771 1.524 . S
C2770 H2789 0.913 . S
C2771 H2747 0.950 . S
C2771 C2770 1.524 . S
C2771 C2772 1.415 . S
C2772 H2748 0.950 . S
C2772 C2767 1.363 . S
C2772 C2771 1.415 . S
C2773 H2749 0.951 . S
C2773 C2774 1.366 . S
C2773 C2775 1.388 . S
C2774 C2773 1.366 . S
C2774 C2778 1.385 . S
C2775 H2750 0.951 . S
C2775 C2773 1.388 . S
C2775 C2776 1.366 . S
C2776 C2775 1.366 . S
C2776 C2777 1.414 . S
C2776 C2779 1.499 . S
C2777 H2751 0.950 . S
C2777 C2776 1.414 . S
C2777 C2778 1.374 . S
C2778 H2752 0.950 . S
C2778 C2774 1.385 . S
C2778 C2777 1.374 . S
C2779 C2776 1.499 . S
C2779 C2780 1.373 . S
C2779 C2781 1.389 . S
C2780 H2753 0.950 . S
C2780 C2766 1.377 . S
C2780 C2779 1.373 . S
C2781 C2765 1.377 . S
C2781 C2779 1.389 . S
C2781 C2782 1.524 . S
C2782 C2781 1.524 . S
C2782 C2783 1.397 . S
C2782 C2787 1.363 . S
C2783 H2754 0.950 . S
C2783 C2782 1.397 . S
C2783 C2784 1.334 . S
C2784 H2755 0.950 . S
C2784 C2783 1.334 . S
C2784 C2785 1.287 . S
C2785 C2784 1.287 . S
C2785 C2786 1.524 . S
C2785 H2788 0.999 . S
C2786 H2756 0.950 . S
C2786 C2785 1.524 . S
C2786 C2787 1.415 . S
C2787 H2757 0.950 . S
C2787 C2782 1.363 . S
C2787 C2786 1.415 . S
H2788 C2785 0.999 . S
H2789 C2770 0.913 . S
H2790 C2808 0.951 . S
H2791 C2810 0.951 . S
H2792 C2812 0.950 . S
H2793 C2813 0.950 . S
H2794 C2815 0.950 . S
H2795 C2818 0.950 . S
H2796 C2819 0.950 . S
H2797 C2821 0.950 . S
H2798 C2822 0.950 . S
H2799 C2823 0.951 . S
H2800 C2825 0.951 . S
H2801 C2827 0.950 . S
H2802 C2828 0.950 . S
H2803 C2830 0.950 . S
H2804 C2833 0.950 . S
H2805 C2834 0.950 . S
H2806 C2836 0.950 . S
H2807 C2837 0.950 . S
C2808 H2790 0.951 . S
C2808 C2809 1.366 . S
C2808 C2810 1.388 . S
C2809 C2808 1.366 . S
C2809 C2813 1.385 . S
C2810 H2791 0.951 . S
C2810 C2808 1.388 . S
C2810 C2811 1.366 . S
C2811 C2810 1.366 . S
C2811 C2812 1.414 . S
C2811 C2814 1.499 . S
C2812 H2792 0.950 . S
C2812 C2811 1.414 . S
C2812 C2813 1.374 . S
C2813 H2793 0.950 . S
C2813 C2809 1.385 . S
C2813 C2812 1.374 . S
C2814 C2811 1.499 . S
C2814 C2815 1.373 . S
C2814 C2816 1.389 . S
C2815 H2794 0.950 . S
C2815 C2814 1.373 . S
C2815 C2831 1.377 . S
C2816 C2814 1.389 . S
C2816 C2817 1.524 . S
C2816 C2830 1.377 . S
C2817 C2816 1.524 . S
C2817 C2818 1.397 . S
C2817 C2822 1.363 . S
C2818 H2795 0.950 . S
C2818 C2817 1.397 . S
C2818 C2819 1.334 . S
C2819 H2796 0.950 . S
C2819 C2818 1.334 . S
C2819 C2820 1.287 . S
C2820 C2819 1.287 . S
C2820 C2821 1.524 . S
C2820 H2839 0.913 . S
C2821 H2797 0.950 . S
C2821 C2820 1.524 . S
C2821 C2822 1.415 . S
C2822 H2798 0.950 . S
C2822 C2817 1.363 . S
C2822 C2821 1.415 . S
C2823 H2799 0.951 . S
C2823 C2824 1.366 . S
C2823 C2825 1.388 . S
C2824 C2823 1.366 . S
C2824 C2828 1.385 . S
C2825 H2800 0.951 . S
C2825 C2823 1.388 . S
C2825 C2826 1.366 . S
C2826 C2825 1.366 . S
C2826 C2827 1.414 . S
C2826 C2829 1.499 . S
C2827 H2801 0.950 . S
C2827 C2826 1.414 . S
C2827 C2828 1.374 . S
C2828 H2802 0.950 . S
C2828 C2824 1.385 . S
C2828 C2827 1.374 . S
C2829 C2826 1.499 . S
C2829 C2830 1.373 . S
C2829 C2831 1.389 . S
C2830 H2803 0.950 . S
C2830 C2816 1.377 . S
C2830 C2829 1.373 . S
C2831 C2815 1.377 . S
C2831 C2829 1.389 . S
C2831 C2832 1.524 . S
C2832 C2831 1.524 . S
C2832 C2833 1.397 . S
C2832 C2837 1.363 . S
C2833 H2804 0.950 . S
C2833 C2832 1.397 . S
C2833 C2834 1.334 . S
C2834 H2805 0.950 . S
C2834 C2833 1.334 . S
C2834 C2835 1.287 . S
C2835 C2834 1.287 . S
C2835 C2836 1.524 . S
C2835 H2838 0.999 . S
C2836 H2806 0.950 . S
C2836 C2835 1.524 . S
C2836 C2837 1.415 . S
C2837 H2807 0.950 . S
C2837 C2832 1.363 . S
C2837 C2836 1.415 . S
H2838 C2835 0.999 . S
H2839 C2820 0.913 . S
H2840 C2858 0.951 . S
H2841 C2860 0.951 . S
H2842 C2862 0.950 . S
H2843 C2863 0.950 . S
H2844 C2865 0.950 . S
H2845 C2868 0.950 . S
H2846 C2869 0.950 . S
H2847 C2871 0.950 . S
H2848 C2872 0.950 . S
H2849 C2873 0.951 . S
H2850 C2875 0.951 . S
H2851 C2877 0.950 . S
H2852 C2878 0.950 . S
H2853 C2880 0.950 . S
H2854 C2883 0.950 . S
H2855 C2884 0.950 . S
H2856 C2886 0.950 . S
H2857 C2887 0.950 . S
C2858 H2840 0.951 . S
C2858 C2859 1.366 . S
C2858 C2860 1.388 . S
C2859 C2858 1.366 . S
C2859 C2863 1.385 . S
C2860 H2841 0.951 . S
C2860 C2858 1.388 . S
C2860 C2861 1.366 . S
C2861 C2860 1.366 . S
C2861 C2862 1.414 . S
C2861 C2864 1.499 . S
C2862 H2842 0.950 . S
C2862 C2861 1.414 . S
C2862 C2863 1.374 . S
C2863 H2843 0.950 . S
C2863 C2859 1.385 . S
C2863 C2862 1.374 . S
C2864 C2861 1.499 . S
C2864 C2865 1.373 . S
C2864 C2866 1.389 1_556 S
C2865 H2844 0.950 . S
C2865 C2864 1.373 . S
C2865 C2881 1.377 . S
C2866 C2864 1.389 1_554 S
C2866 C2867 1.524 . S
C2866 C2880 1.377 . S
C2867 C2866 1.524 . S
C2867 C2868 1.397 . S
C2867 C2872 1.363 . S
C2868 H2845 0.950 . S
C2868 C2867 1.397 . S
C2868 C2869 1.334 . S
C2869 H2846 0.950 . S
C2869 C2868 1.334 . S
C2869 C2870 1.287 . S
C2870 C2869 1.287 . S
C2870 C2871 1.524 . S
C2870 H2889 0.913 . S
C2871 H2847 0.950 . S
C2871 C2870 1.524 . S
C2871 C2872 1.415 . S
C2872 H2848 0.950 . S
C2872 C2867 1.363 . S
C2872 C2871 1.415 . S
C2873 H2849 0.951 . S
C2873 C2874 1.366 . S
C2873 C2875 1.388 . S
C2874 C2873 1.366 . S
C2874 C2878 1.385 . S
C2875 H2850 0.951 . S
C2875 C2873 1.388 . S
C2875 C2876 1.366 . S
C2876 C2875 1.366 . S
C2876 C2877 1.414 . S
C2876 C2879 1.499 . S
C2877 H2851 0.950 . S
C2877 C2876 1.414 . S
C2877 C2878 1.374 . S
C2878 H2852 0.950 . S
C2878 C2874 1.385 . S
C2878 C2877 1.374 . S
C2879 C2876 1.499 . S
C2879 C2880 1.373 . S
C2879 C2881 1.389 1_554 S
C2880 H2853 0.950 . S
C2880 C2866 1.377 . S
C2880 C2879 1.373 . S
C2881 C2865 1.377 . S
C2881 C2879 1.389 1_556 S
C2881 C2882 1.524 . S
C2882 C2881 1.524 . S
C2882 C2883 1.397 . S
C2882 C2887 1.363 . S
C2883 H2854 0.950 . S
C2883 C2882 1.397 . S
C2883 C2884 1.334 . S
C2884 H2855 0.950 . S
C2884 C2883 1.334 . S
C2884 C2885 1.287 . S
C2885 C2884 1.287 . S
C2885 C2886 1.524 . S
C2885 H2888 0.999 . S
C2886 H2856 0.950 . S
C2886 C2885 1.524 . S
C2886 C2887 1.415 . S
C2887 H2857 0.950 . S
C2887 C2882 1.363 . S
C2887 C2886 1.415 . S
H2888 C2885 0.999 . S
H2889 C2870 0.913 . S
H2890 C2908 0.951 . S
H2891 C2910 0.951 . S
H2892 C2912 0.950 . S
H2893 C2913 0.950 . S
H2894 C2915 0.950 . S
H2895 C2918 0.950 . S
H2896 C2919 0.950 . S
H2897 C2921 0.950 . S
H2898 C2922 0.950 . S
H2899 C2923 0.951 . S
H2900 C2925 0.951 . S
H2901 C2927 0.950 . S
H2902 C2928 0.950 . S
H2903 C2930 0.950 . S
H2904 C2933 0.950 . S
H2905 C2934 0.950 . S
H2906 C2936 0.950 . S
H2907 C2937 0.950 . S
C2908 H2890 0.951 . S
C2908 C2909 1.366 . S
C2908 C2910 1.388 . S
C2909 C2908 1.366 . S
C2909 C2913 1.385 . S
C2910 H2891 0.951 . S
C2910 C2908 1.388 . S
C2910 C2911 1.366 . S
C2911 C2910 1.366 . S
C2911 C2912 1.414 . S
C2911 C2914 1.499 . S
C2912 H2892 0.950 . S
C2912 C2911 1.414 . S
C2912 C2913 1.374 . S
C2913 H2893 0.950 . S
C2913 C2909 1.385 . S
C2913 C2912 1.374 . S
C2914 C2911 1.499 . S
C2914 C2915 1.373 . S
C2914 C2916 1.389 . S
C2915 H2894 0.950 . S
C2915 C2914 1.373 . S
C2915 C2931 1.377 . S
C2916 C2914 1.389 . S
C2916 C2917 1.524 . S
C2916 C2930 1.377 . S
C2917 C2916 1.524 . S
C2917 C2918 1.397 . S
C2917 C2922 1.363 . S
C2918 H2895 0.950 . S
C2918 C2917 1.397 . S
C2918 C2919 1.334 . S
C2919 H2896 0.950 . S
C2919 C2918 1.334 . S
C2919 C2920 1.287 . S
C2920 C2919 1.287 . S
C2920 C2921 1.524 . S
C2920 H2939 0.913 . S
C2921 H2897 0.950 . S
C2921 C2920 1.524 . S
C2921 C2922 1.415 . S
C2922 H2898 0.950 . S
C2922 C2917 1.363 . S
C2922 C2921 1.415 . S
C2923 H2899 0.951 . S
C2923 C2924 1.366 . S
C2923 C2925 1.388 . S
C2924 C2923 1.366 . S
C2924 C2928 1.385 . S
C2925 H2900 0.951 . S
C2925 C2923 1.388 . S
C2925 C2926 1.366 . S
C2926 C2925 1.366 . S
C2926 C2927 1.414 . S
C2926 C2929 1.499 . S
C2927 H2901 0.950 . S
C2927 C2926 1.414 . S
C2927 C2928 1.374 . S
C2928 H2902 0.950 . S
C2928 C2924 1.385 . S
C2928 C2927 1.374 . S
C2929 C2926 1.499 . S
C2929 C2930 1.373 . S
C2929 C2931 1.389 . S
C2930 H2903 0.950 . S
C2930 C2916 1.377 . S
C2930 C2929 1.373 . S
C2931 C2915 1.377 . S
C2931 C2929 1.389 . S
C2931 C2932 1.524 . S
C2932 C2931 1.524 . S
C2932 C2933 1.397 . S
C2932 C2937 1.363 . S
C2933 H2904 0.950 . S
C2933 C2932 1.397 . S
C2933 C2934 1.334 . S
C2934 H2905 0.950 . S
C2934 C2933 1.334 . S
C2934 C2935 1.287 . S
C2935 C2934 1.287 . S
C2935 C2936 1.524 . S
C2935 H2938 0.999 . S
C2936 H2906 0.950 . S
C2936 C2935 1.524 . S
C2936 C2937 1.415 . S
C2937 H2907 0.950 . S
C2937 C2932 1.363 . S
C2937 C2936 1.415 . S
H2938 C2935 0.999 . S
H2939 C2920 0.913 . S
H2940 C2958 0.951 . S
H2941 C2960 0.951 . S
H2942 C2962 0.950 . S
H2943 C2963 0.950 . S
H2944 C2965 0.950 . S
H2945 C2968 0.950 . S
H2946 C2969 0.950 . S
H2947 C2971 0.950 . S
H2948 C2972 0.950 . S
H2949 C2973 0.951 . S
H2950 C2975 0.951 . S
H2951 C2977 0.950 . S
H2952 C2978 0.950 . S
H2953 C2980 0.950 . S
H2954 C2983 0.948 . S
H2955 C2984 0.950 . S
H2956 C2986 0.950 . S
H2957 C2987 0.950 1_554 S
C2958 H2940 0.951 . S
C2958 C2959 1.366 . S
C2958 C2960 1.388 . S
C2959 C2958 1.366 . S
C2959 C2963 1.385 . S
C2960 H2941 0.951 . S
C2960 C2958 1.388 . S
C2960 C2961 1.366 . S
C2961 C2960 1.366 . S
C2961 C2962 1.414 . S
C2961 C2964 1.499 . S
C2962 H2942 0.950 . S
C2962 C2961 1.414 . S
C2962 C2963 1.374 . S
C2963 H2943 0.950 . S
C2963 C2959 1.385 . S
C2963 C2962 1.374 . S
C2964 C2961 1.499 . S
C2964 C2965 1.373 . S
C2964 C2966 1.389 . S
C2965 H2944 0.950 . S
C2965 C2964 1.373 . S
C2965 C2981 1.377 . S
C2966 C2964 1.389 . S
C2966 C2967 1.524 . S
C2966 C2980 1.377 . S
C2967 C2966 1.524 . S
C2967 C2968 1.397 . S
C2967 C2972 1.363 . S
C2968 H2945 0.950 . S
C2968 C2967 1.397 . S
C2968 C2969 1.334 . S
C2969 H2946 0.950 . S
C2969 C2968 1.334 . S
C2969 C2970 1.287 . S
C2970 C2969 1.287 . S
C2970 C2971 1.524 . S
C2970 H2989 0.913 . S
C2971 H2947 0.950 . S
C2971 C2970 1.524 . S
C2971 C2972 1.415 . S
C2972 H2948 0.950 . S
C2972 C2967 1.363 . S
C2972 C2971 1.415 . S
C2973 H2949 0.951 . S
C2973 C2974 1.366 . S
C2973 C2975 1.388 . S
C2974 C2973 1.366 . S
C2974 C2978 1.385 . S
C2975 H2950 0.951 . S
C2975 C2973 1.388 . S
C2975 C2976 1.366 . S
C2976 C2975 1.366 . S
C2976 C2977 1.414 . S
C2976 C2979 1.499 . S
C2977 H2951 0.950 . S
C2977 C2976 1.414 . S
C2977 C2978 1.374 . S
C2978 H2952 0.950 . S
C2978 C2974 1.385 . S
C2978 C2977 1.374 . S
C2979 C2976 1.499 . S
C2979 C2980 1.373 . S
C2979 C2981 1.389 . S
C2980 H2953 0.950 . S
C2980 C2966 1.377 . S
C2980 C2979 1.373 . S
C2981 C2965 1.377 . S
C2981 C2979 1.389 . S
C2981 C2982 1.524 . S
C2982 C2981 1.524 . S
C2982 C2983 1.396 . S
C2982 C2987 1.363 1_554 S
C2983 H2954 0.948 . S
C2983 C2982 1.396 . S
C2983 C2984 1.337 1_554 S
C2984 H2955 0.950 . S
C2984 C2983 1.337 1_556 S
C2984 C2985 1.287 . S
C2985 C2984 1.287 . S
C2985 C2986 1.524 . S
C2985 H2988 0.999 . S
C2986 H2956 0.950 . S
C2986 C2985 1.524 . S
C2986 C2987 1.415 . S
C2987 H2957 0.950 1_556 S
C2987 C2982 1.363 1_556 S
C2987 C2986 1.415 . S
H2988 C2985 0.999 . S
H2989 C2970 0.913 . S
H2990 C3008 0.951 . S
H2991 C3010 0.951 . S
H2992 C3012 0.950 1_545 S
H2993 C3013 0.950 . S
H2994 C3015 0.950 . S
H2995 C3018 0.950 . S
H2996 C3019 0.950 . S
H2997 C3021 0.950 . S
H2998 C3022 0.950 . S
H2999 C3023 0.951 . S
H3000 C3025 0.951 . S
H3001 C3027 0.950 . S
H3002 C3028 0.950 . S
H3003 C3030 0.950 . S
H3004 C3033 0.950 . S
H3005 C3034 0.950 . S
H3006 C3036 0.950 . S
H3007 C3037 0.950 . S
C3008 H2990 0.951 . S
C3008 C3009 1.366 . S
C3008 C3010 1.388 . S
C3009 C3008 1.366 . S
C3009 C3013 1.385 1_565 S
C3010 H2991 0.951 . S
C3010 C3008 1.388 . S
C3010 C3011 1.366 . S
C3011 C3010 1.366 . S
C3011 C3012 1.414 . S
C3011 C3014 1.499 . S
C3012 H2992 0.950 1_565 S
C3012 C3011 1.414 . S
C3012 C3013 1.374 1_565 S
C3013 H2993 0.950 . S
C3013 C3009 1.385 1_545 S
C3013 C3012 1.374 1_545 S
C3014 C3011 1.499 . S
C3014 C3015 1.373 1_554 S
C3014 C3016 1.389 . S
C3015 H2994 0.950 . S
C3015 C3014 1.373 1_556 S
C3015 C3031 1.377 . S
C3016 C3014 1.389 . S
C3016 C3017 1.524 . S
C3016 C3030 1.377 . S
C3017 C3016 1.524 . S
C3017 C3018 1.397 . S
C3017 C3022 1.363 . S
C3018 H2995 0.950 . S
C3018 C3017 1.397 . S
C3018 C3019 1.334 . S
C3019 H2996 0.950 . S
C3019 C3018 1.334 . S
C3019 C3020 1.287 . S
C3020 C3019 1.287 . S
C3020 C3021 1.524 . S
C3020 H3039 0.913 . S
C3021 H2997 0.950 . S
C3021 C3020 1.524 . S
C3021 C3022 1.415 . S
C3022 H2998 0.950 . S
C3022 C3017 1.363 . S
C3022 C3021 1.415 . S
C3023 H2999 0.951 . S
C3023 C3024 1.366 1_556 S
C3023 C3025 1.388 . S
C3024 C3023 1.366 1_554 S
C3024 C3028 1.385 . S
C3025 H3000 0.951 . S
C3025 C3023 1.388 . S
C3025 C3026 1.366 1_556 S
C3026 C3025 1.366 1_554 S
C3026 C3027 1.414 . S
C3026 C3029 1.499 . S
C3027 H3001 0.950 . S
C3027 C3026 1.414 . S
C3027 C3028 1.374 . S
C3028 H3002 0.950 . S
C3028 C3024 1.385 . S
C3028 C3027 1.374 . S
C3029 C3026 1.499 . S
C3029 C3030 1.373 . S
C3029 C3031 1.389 1_554 S
C3030 H3003 0.950 . S
C3030 C3016 1.377 . S
C3030 C3029 1.373 . S
C3031 C3015 1.377 . S
C3031 C3029 1.389 1_556 S
C3031 C3032 1.524 . S
C3032 C3031 1.524 . S
C3032 C3033 1.397 . S
C3032 C3037 1.363 . S
C3033 H3004 0.950 . S
C3033 C3032 1.397 . S
C3033 C3034 1.334 . S
C3034 H3005 0.950 . S
C3034 C3033 1.334 . S
C3034 C3035 1.287 . S
C3035 C3034 1.287 . S
C3035 C3036 1.524 . S
C3035 H3038 0.999 . S
C3036 H3006 0.950 . S
C3036 C3035 1.524 . S
C3036 C3037 1.415 . S
C3037 H3007 0.950 . S
C3037 C3032 1.363 . S
C3037 C3036 1.415 . S
H3038 C3035 0.999 . S
H3039 C3020 0.913 . S
C674 C210 1.696 . S
C659 C73 1.703 . S
C724 C258 1.340 . S
C709 C82 1.344 . S
C759 C100 1.832 . S
C774 C294 1.743 1_556 S
C824 C330 1.377 . S
C809 C56 1.394 . S
C874 C356 1.289 . S
C859 C134 1.290 . S
C924 C392 1.784 . S
C909 C165 1.787 . S
C959 C147 1.082 . S
C974 C427 1.132 . S
C1024 C464 1.991 . S
C1009 C125 2.002 . S
C1059 C151 1.254 . S
C1074 C498 1.247 . S
C1124 C546 1.483 . S
C1109 C121 1.506 . S
C1159 C139 1.726 . S
C1174 C499 1.731 . S
C1224 C536 1.439 . S
C1209 C164 1.439 . S
C1259 C95 1.276 . S
C1274 C582 1.294 . S
C1309 C61 1.570 . S
C1324 C571 1.578 . S
C1359 C74 1.304 . S
C1374 C572 1.302 . S
C1409 C86 1.924 . S
C1424 C570 1.909 . S
C1459 C47 1.239 . S
C1474 C318 1.240 . S
C1509 C186 1.120 . S
C1524 C319 1.179 . S
C1574 C222 1.644 . S
C1559 C204 1.676 . S
C1624 C247 1.933 . S
C1609 C112 1.931 . S
C1659 C60 1.526 1_545 S
C1674 C354 1.525 . S
C1724 C462 1.321 . S
C1709 C152 1.315 . S
C1774 C355 2.020 . S
C1759 C126 2.017 . S
C1824 C428 1.356 . S
C1809 C160 1.336 . S
C1874 C426 1.696 . S
C1859 C190 1.703 . S
C1909 C199 1.344 . S
C1924 C474 1.339 . S
C1959 C113 1.832 . S
C1974 C366 1.743 . S
C2024 C402 1.376 . S
C2009 C173 1.394 . S
C2059 C43 1.290 . S
C2074 C284 1.288 . S
C2124 C320 1.784 . S
C2109 C9 1.786 . S
C2174 C211 1.131 . S
C2159 C17 1.080 . S
C2224 C248 1.990 . S
C2209 C34 2.001 1_455 S
C2259 C21 1.253 . S
C2274 C534 1.246 . S
C2309 C30 1.507 . S
C2324 C510 1.483 . S
C2359 C48 1.726 . S
C2374 C535 1.732 . S
C2409 C8 1.439 . S
C2424 C500 1.428 1_455 S
C2474 C618 1.294 . S
C2459 C108 1.275 . S
C2524 C607 1.578 . S
C2509 C178 1.570 . S
C2574 C608 1.302 . S
C2559 C191 1.304 . S
C2609 C203 1.950 . S
C2624 C606 1.909 . S
C2659 C138 1.239 . S
C2674 C390 1.240 . S
C2724 C391 1.179 . S
C2709 C69 1.120 . S
C2774 C438 1.645 . S
C2759 C87 1.676 . S
C2824 C463 1.933 . S
C2809 C99 1.935 . S
C2859 C177 1.526 . S
C2874 C282 1.525 . S
C2924 C246 1.321 . S
C2909 C22 1.319 . S
C2959 C35 2.017 . S
C2974 C283 2.020 . S
C3024 C212 1.356 1_554 S
C3009 C4 1.336 . S
