# Generated by pormake.
# Topology ctn, (3,4)-cn, num edge types: 1
# Building blocks:
#     Node 0, Type 0, BuildingBlock: QEWDON_clean_linker_0, # of connection points: 3
#     Node 1, Type 0, BuildingBlock: QEWDON_clean_linker_0, # of connection points: 3
#     Node 2, Type 0, BuildingBlock: QEWDON_clean_linker_0, # of connection points: 3
#     Node 3, Type 0, BuildingBlock: QEWDON_clean_linker_0, # of connection points: 3
#     Node 4, Type 0, BuildingBlock: QEWDON_clean_linker_0, # of connection points: 3
#     Node 5, Type 0, BuildingBlock: QEWDON_clean_linker_0, # of connection points: 3
#     Node 6, Type 0, BuildingBlock: QEWDON_clean_linker_0, # of connection points: 3
#     Node 7, Type 0, BuildingBlock: QEWDON_clean_linker_0, # of connection points: 3
#     Node 8, Type 0, BuildingBlock: QEWDON_clean_linker_0, # of connection points: 3
#     Node 9, Type 0, BuildingBlock: QEWDON_clean_linker_0, # of connection points: 3
#     Node 10, Type 0, BuildingBlock: QEWDON_clean_linker_0, # of connection points: 3
#     Node 11, Type 0, BuildingBlock: QEWDON_clean_linker_0, # of connection points: 3
#     Node 12, Type 0, BuildingBlock: QEWDON_clean_linker_0, # of connection points: 3
#     Node 13, Type 0, BuildingBlock: QEWDON_clean_linker_0, # of connection points: 3
#     Node 14, Type 0, BuildingBlock: QEWDON_clean_linker_0, # of connection points: 3
#     Node 15, Type 0, BuildingBlock: QEWDON_clean_linker_0, # of connection points: 3
#     Node 16, Type 1, BuildingBlock: AZAVOO_clean_sbu_0, # of connection points: 4
#     Node 17, Type 1, BuildingBlock: AZAVOO_clean_sbu_0, # of connection points: 4
#     Node 18, Type 1, BuildingBlock: AZAVOO_clean_sbu_0, # of connection points: 4
#     Node 19, Type 1, BuildingBlock: AZAVOO_clean_sbu_0, # of connection points: 4
#     Node 20, Type 1, BuildingBlock: AZAVOO_clean_sbu_0, # of connection points: 4
#     Node 21, Type 1, BuildingBlock: AZAVOO_clean_sbu_0, # of connection points: 4
#     Node 22, Type 1, BuildingBlock: AZAVOO_clean_sbu_0, # of connection points: 4
#     Node 23, Type 1, BuildingBlock: AZAVOO_clean_sbu_0, # of connection points: 4
#     Node 24, Type 1, BuildingBlock: AZAVOO_clean_sbu_0, # of connection points: 4
#     Node 25, Type 1, BuildingBlock: AZAVOO_clean_sbu_0, # of connection points: 4
#     Node 26, Type 1, BuildingBlock: AZAVOO_clean_sbu_0, # of connection points: 4
#     Node 27, Type 1, BuildingBlock: AZAVOO_clean_sbu_0, # of connection points: 4
#     Edge 28, Type (0, 1), BuildingBlock: KIFKEQ_clean_linker_1, # of connection points: 2
#     Edge 29, Type (0, 1), BuildingBlock: KIFKEQ_clean_linker_1, # of connection points: 2
#     Edge 30, Type (0, 1), BuildingBlock: KIFKEQ_clean_linker_1, # of connection points: 2
#     Edge 31, Type (0, 1), BuildingBlock: KIFKEQ_clean_linker_1, # of connection points: 2
#     Edge 32, Type (0, 1), BuildingBlock: KIFKEQ_clean_linker_1, # of connection points: 2
#     Edge 33, Type (0, 1), BuildingBlock: KIFKEQ_clean_linker_1, # of connection points: 2
#     Edge 34, Type (0, 1), BuildingBlock: KIFKEQ_clean_linker_1, # of connection points: 2
#     Edge 35, Type (0, 1), BuildingBlock: KIFKEQ_clean_linker_1, # of connection points: 2
#     Edge 36, Type (0, 1), BuildingBlock: KIFKEQ_clean_linker_1, # of connection points: 2
#     Edge 37, Type (0, 1), BuildingBlock: KIFKEQ_clean_linker_1, # of connection points: 2
#     Edge 38, Type (0, 1), BuildingBlock: KIFKEQ_clean_linker_1, # of connection points: 2
#     Edge 39, Type (0, 1), BuildingBlock: KIFKEQ_clean_linker_1, # of connection points: 2
#     Edge 40, Type (0, 1), BuildingBlock: KIFKEQ_clean_linker_1, # of connection points: 2
#     Edge 41, Type (0, 1), BuildingBlock: KIFKEQ_clean_linker_1, # of connection points: 2
#     Edge 42, Type (0, 1), BuildingBlock: KIFKEQ_clean_linker_1, # of connection points: 2
#     Edge 43, Type (0, 1), BuildingBlock: KIFKEQ_clean_linker_1, # of connection points: 2
#     Edge 44, Type (0, 1), BuildingBlock: KIFKEQ_clean_linker_1, # of connection points: 2
#     Edge 45, Type (0, 1), BuildingBlock: KIFKEQ_clean_linker_1, # of connection points: 2
#     Edge 46, Type (0, 1), BuildingBlock: KIFKEQ_clean_linker_1, # of connection points: 2
#     Edge 47, Type (0, 1), BuildingBlock: KIFKEQ_clean_linker_1, # of connection points: 2
#     Edge 48, Type (0, 1), BuildingBlock: KIFKEQ_clean_linker_1, # of connection points: 2
#     Edge 49, Type (0, 1), BuildingBlock: KIFKEQ_clean_linker_1, # of connection points: 2
#     Edge 50, Type (0, 1), BuildingBlock: KIFKEQ_clean_linker_1, # of connection points: 2
#     Edge 51, Type (0, 1), BuildingBlock: KIFKEQ_clean_linker_1, # of connection points: 2
#     Edge 52, Type (0, 1), BuildingBlock: KIFKEQ_clean_linker_1, # of connection points: 2
#     Edge 53, Type (0, 1), BuildingBlock: KIFKEQ_clean_linker_1, # of connection points: 2
#     Edge 54, Type (0, 1), BuildingBlock: KIFKEQ_clean_linker_1, # of connection points: 2
#     Edge 55, Type (0, 1), BuildingBlock: KIFKEQ_clean_linker_1, # of connection points: 2
#     Edge 56, Type (0, 1), BuildingBlock: KIFKEQ_clean_linker_1, # of connection points: 2
#     Edge 57, Type (0, 1), BuildingBlock: KIFKEQ_clean_linker_1, # of connection points: 2
#     Edge 58, Type (0, 1), BuildingBlock: KIFKEQ_clean_linker_1, # of connection points: 2
#     Edge 59, Type (0, 1), BuildingBlock: KIFKEQ_clean_linker_1, # of connection points: 2
#     Edge 60, Type (0, 1), BuildingBlock: KIFKEQ_clean_linker_1, # of connection points: 2
#     Edge 61, Type (0, 1), BuildingBlock: KIFKEQ_clean_linker_1, # of connection points: 2
#     Edge 62, Type (0, 1), BuildingBlock: KIFKEQ_clean_linker_1, # of connection points: 2
#     Edge 63, Type (0, 1), BuildingBlock: KIFKEQ_clean_linker_1, # of connection points: 2
#     Edge 64, Type (0, 1), BuildingBlock: KIFKEQ_clean_linker_1, # of connection points: 2
#     Edge 65, Type (0, 1), BuildingBlock: KIFKEQ_clean_linker_1, # of connection points: 2
#     Edge 66, Type (0, 1), BuildingBlock: KIFKEQ_clean_linker_1, # of connection points: 2
#     Edge 67, Type (0, 1), BuildingBlock: KIFKEQ_clean_linker_1, # of connection points: 2
#     Edge 68, Type (0, 1), BuildingBlock: KIFKEQ_clean_linker_1, # of connection points: 2
#     Edge 69, Type (0, 1), BuildingBlock: KIFKEQ_clean_linker_1, # of connection points: 2
#     Edge 70, Type (0, 1), BuildingBlock: KIFKEQ_clean_linker_1, # of connection points: 2
#     Edge 71, Type (0, 1), BuildingBlock: KIFKEQ_clean_linker_1, # of connection points: 2
#     Edge 72, Type (0, 1), BuildingBlock: KIFKEQ_clean_linker_1, # of connection points: 2
#     Edge 73, Type (0, 1), BuildingBlock: KIFKEQ_clean_linker_1, # of connection points: 2
#     Edge 74, Type (0, 1), BuildingBlock: KIFKEQ_clean_linker_1, # of connection points: 2
#     Edge 75, Type (0, 1), BuildingBlock: KIFKEQ_clean_linker_1, # of connection points: 2
# Relax obj value: 0.116
# Max RMSD: 0.293
# Mean RMSD: 0.158
data_MOF--net-ctn--node1-AZAVOO_clean_sbu_0--node2-QEWDON_clean_linker_0--edge1-KIFKEQ_clean_linker_1
_symmetry_space_group_name_H-M    P1
_symmetry_Int_Tables_number       1
_symmetry_cell_setting            triclinic
loop_
_symmetry_equiv_pos_as_xyz
'x, y, z'
_cell_length_a     52.921365
_cell_length_b     56.160389
_cell_length_c     59.624567
_cell_angle_alpha  98.167703
_cell_angle_beta   94.422655
_cell_angle_gamma 98.5769
loop_
_atom_site_label
_atom_site_type_symbol
_atom_site_fract_x
_atom_site_fract_y
_atom_site_fract_z
_atom_type_partial_charge
H0 H 0.10695 0.01463 0.04395 0.0
C1 C 0.09339 0.01213 0.05648 0.0
C2 C 0.08845 0.98968 0.06455 0.0
C3 C 0.08235 0.03206 0.06562 0.0
H4 H 0.06773 0.97044 0.08838 0.0
C5 C 0.07186 0.98752 0.08188 0.0
C6 C 0.06043 0.00738 0.09087 0.0
C7 C 0.06578 0.02956 0.08261 0.0
C8 C 0.09048 0.05627 0.05933 0.0
H9 H 0.05777 0.04522 0.09001 0.0
C10 C 0.08315 0.06137 0.03759 0.0
C11 C 0.09157 0.08447 0.03178 0.0
C12 C 0.10609 0.07432 0.07526 0.0
H13 H 0.11188 0.07062 0.09209 0.0
C14 C 0.11464 0.09715 0.06949 0.0
H15 H 0.07097 0.04748 0.0253 0.0
C16 C 0.1075 0.10222 0.04788 0.0
H17 H 0.11404 0.1202 0.04387 0.0
H18 H 0.12675 0.11098 0.08182 0.0
H19 H 0.35843 0.75984 0.26331 0.0
C20 C 0.34475 0.74313 0.25843 0.0
C21 C 0.35013 0.72152 0.26553 0.0
C22 C 0.32167 0.74348 0.24535 0.0
H23 H 0.33627 0.68349 0.26504 0.0
C24 C 0.33213 0.70011 0.25934 0.0
C25 C 0.30831 0.7003 0.2471 0.0
C26 C 0.30351 0.72207 0.23966 0.0
C27 C 0.31568 0.76689 0.23966 0.0
H28 H 0.28515 0.72284 0.23065 0.0
C29 C 0.31269 0.77082 0.21691 0.0
C30 C 0.30832 0.79372 0.2118 0.0
C31 C 0.31384 0.78575 0.2573 0.0
H32 H 0.31613 0.78301 0.27493 0.0
C33 C 0.30892 0.80823 0.25235 0.0
H34 H 0.31467 0.75637 0.20336 0.0
C35 C 0.30618 0.81224 0.2298 0.0
H36 H 0.30221 0.82985 0.22646 0.0
H37 H 0.3073 0.82264 0.26603 0.0
H38 H 0.03293 0.47701 0.03593 0.0
C39 C 0.01854 0.48885 0.03661 0.0
C40 C 0.01488 0.5026 0.05751 0.0
C41 C 1.00438 0.49087 0.01628 0.0
H42 H 0.99293 0.52885 0.07346 0.0
C43 C 0.9958 0.51778 0.05775 0.0
C44 C 0.98074 0.51918 0.03756 0.0
C45 C 0.98532 0.50569 0.01705 0.0
C46 C 0.01023 0.4788 0.99386 0.0
H47 H 0.9744 0.50725 1.00133 0.0
C48 C 0.01402 0.4543 0.99049 0.0
C49 C 0.01839 0.44282 0.96881 0.0
C50 C 0.01161 0.49194 0.97546 0.0
H51 H 0.00933 0.51095 0.97763 0.0
C52 C 0.01593 0.48074 0.95406 0.0
H53 H 0.01332 0.4442 0.00468 0.0
C54 C 0.01907 0.45636 0.95065 0.0
H55 H 0.02167 0.44806 0.93363 0.0
H56 H 0.01666 0.49098 0.93998 0.0
H57 H 0.77598 0.82409 0.24554 0.0
C58 C 0.77613 0.81729 0.22761 0.0
C59 C 0.7888 0.83216 0.2134 0.0
C60 C 0.76507 0.79308 0.21906 0.0
H61 H 0.80015 0.83343 0.17943 0.0
C62 C 0.78958 0.8226 0.19036 0.0
C63 C 0.77812 0.79857 0.18161 0.0
C64 C 0.76571 0.78404 0.19601 0.0
C65 C 0.75577 0.77611 0.23454 0.0
H66 H 0.75777 0.76514 0.18957 0.0
C67 C 0.7357 0.78038 0.24793 0.0
C68 C 0.72629 0.76323 0.26163 0.0
C69 C 0.76686 0.75499 0.23541 0.0
H70 H 0.78247 0.75147 0.22533 0.0
C71 C 0.75803 0.7383 0.24936 0.0
H72 H 0.72688 0.79649 0.24704 0.0
C73 C 0.73784 0.74231 0.26234 0.0
H74 H 0.73134 0.72906 0.27306 0.0
H75 H 0.76677 0.72215 0.25003 0.0
H76 H 0.11644 0.97999 0.50149 0.0
C77 C 0.10188 0.98523 0.49024 0.0
C78 C 0.1049 0.00902 0.48486 0.0
C79 C 0.08062 0.96791 0.48024 0.0
H80 H 0.08862 0.0338 0.46583 0.0
C81 C 0.08616 0.01543 0.46983 0.0
C82 C 0.06526 0.9981 0.45898 0.0
C83 C 0.06265 0.97438 0.46453 0.0
C84 C 0.07847 0.94216 0.4838 0.0
H85 H 0.04721 0.96044 0.45593 0.0
C86 C 0.074 0.93512 0.50513 0.0
C87 C 0.06951 0.91019 0.50724 0.0
C88 C 0.0793 0.92421 0.46501 0.0
H89 H 0.08273 0.92928 0.4485 0.0
C90 C 0.07548 0.89961 0.46726 0.0
H91 H 0.073 0.9488 0.51967 0.0
C92 C 0.07041 0.89261 0.48817 0.0
H93 H 0.06711 0.87336 0.4895 0.0
H94 H 0.07611 0.88591 0.45267 0.0
H95 H 0.27602 0.66734 0.76714 0.0
C96 C 0.27099 0.67818 0.78219 0.0
C97 C 0.28091 0.67474 0.80382 0.0
C98 C 0.25567 0.69626 0.77968 0.0
H99 H 0.28259 0.68705 0.83996 0.0
C100 C 0.27475 0.68928 0.82318 0.0
C101 C 0.25931 0.70731 0.82099 0.0
C102 C 0.24978 0.71069 0.79919 0.0
C103 C 0.24799 0.70133 0.75656 0.0
H104 H 0.23849 0.72504 0.79743 0.0
C105 C 0.22237 0.70329 0.74954 0.0
C106 C 0.21554 0.70664 0.72702 0.0
C107 C 0.26665 0.70376 0.74111 0.0
H108 H 0.28652 0.70275 0.74617 0.0
C109 C 0.25996 0.70761 0.71901 0.0
H110 H 0.20773 0.70126 0.76119 0.0
C111 C 0.23456 0.70884 0.71193 0.0
H112 H 0.22971 0.71153 0.69457 0.0
H113 H 0.27449 0.70942 0.70727 0.0
H114 H 0.96785 0.56177 0.45497 0.0
C115 C 0.95624 0.54669 0.46077 0.0
C116 C 0.9522 0.54784 0.48398 0.0
C117 C 0.94438 0.52657 0.44478 0.0
H118 H 0.93266 0.52919 0.5086 0.0
C119 C 0.93667 0.52816 0.49097 0.0
C120 C 0.92472 0.50789 0.47512 0.0
C121 C 0.92872 0.5073 0.45204 0.0
C122 C 0.9453 0.52692 0.42011 0.0
H123 H 0.91935 0.49196 0.43956 0.0
C124 C 0.96734 0.52296 0.40919 0.0
C125 C 0.96694 0.5218 0.38533 0.0
C126 C 0.92316 0.53025 0.4072 0.0
H127 H 0.90604 0.53326 0.41532 0.0
C128 C 0.92288 0.52969 0.38375 0.0
H129 H 0.98432 0.51999 0.4191 0.0
C130 C 0.94453 0.52544 0.37286 0.0
H131 H 0.94377 0.52514 0.35461 0.0
H132 H 0.90576 0.53242 0.37394 0.0
H133 H 0.84055 0.81433 0.78168 0.0
C134 C 0.83806 0.7991 0.79106 0.0
C135 C 0.85265 0.7801 0.78684 0.0
C136 C 0.82154 0.79927 0.80842 0.0
H137 H 0.86129 0.74643 0.79717 0.0
C138 C 0.85016 0.76109 0.80009 0.0
C139 C 0.83292 0.7607 0.81684 0.0
C140 C 0.8187 0.77973 0.82077 0.0
C141 C 0.80931 0.8208 0.8159 0.0
H142 H 0.80599 0.77981 0.83421 0.0
C143 C 0.79224 0.8298 0.80106 0.0
C144 C 0.77896 0.8486 0.80965 0.0
C145 C 0.81374 0.83155 0.83894 0.0
H146 H 0.82694 0.82511 0.85061 0.0
C147 C 0.80107 0.85046 0.84725 0.0
H148 H 0.78854 0.82161 0.7833 0.0
C149 C 0.78361 0.8588 0.83279 0.0
H150 H 0.77381 0.87341 0.83965 0.0
H151 H 0.80459 0.85852 0.86503 0.0
H152 H 0.32765 0.31307 0.28657 0.0
C153 C 0.32664 0.29842 0.29666 0.0
C154 C 0.3429 0.28072 0.29312 0.0
C155 C 0.31017 0.29805 0.31406 0.0
H156 H 0.35478 0.24883 0.30481 0.0
C157 C 0.34236 0.26249 0.30723 0.0
C158 C 0.32521 0.26142 0.32404 0.0
C159 C 0.30917 0.27909 0.32715 0.0
C160 C 0.29535 0.31818 0.32019 0.0
H161 H 0.29626 0.27845 0.34041 0.0
C162 C 0.28027 0.32715 0.30368 0.0
C163 C 0.26487 0.34482 0.31055 0.0
C164 C 0.29567 0.328 0.34331 0.0
H165 H 0.30748 0.32191 0.35633 0.0
C166 C 0.28079 0.3457 0.35 0.0
H167 H 0.27979 0.31986 0.2858 0.0
C168 C 0.26531 0.35391 0.3338 0.0
H169 H 0.25385 0.36768 0.3394 0.0
H170 H 0.28117 0.35301 0.36786 0.0
H171 H 0.54783 0.98879 0.54586 0.0
C172 C 0.53181 0.99873 0.54514 0.0
C173 C 0.52291 0.00899 0.56541 0.0
C174 C 0.52113 1.00228 0.52385 0.0
H175 H 0.49548 0.03063 0.57928 0.0
C176 C 0.50275 0.02274 0.56391 0.0
C177 C 0.49159 0.026 0.54256 0.0
C178 C 0.50101 0.01577 0.52268 0.0
C179 C 0.53158 0.99264 0.50275 0.0
H180 H 0.4929 0.01863 0.50619 0.0
C181 C 0.53262 0.96765 0.49742 0.0
C182 C 0.54204 0.95838 0.47708 0.0
C183 C 0.54025 0.00843 0.48769 0.0
H184 H 0.53963 0.02777 0.49151 0.0
C185 C 0.55004 0.99941 0.4677 0.0
H186 H 0.52585 0.95543 0.509 0.0
C187 C 0.55095 0.97455 0.46238 0.0
H188 H 0.55811 0.96789 0.44653 0.0
H189 H 0.55676 0.0117 0.45621 0.0
H190 H 0.29311 0.33368 0.75066 0.0
C191 C 0.28938 0.3229 0.73381 0.0
C192 C 0.30055 0.33185 0.71548 0.0
C193 C 0.2755 0.29915 0.73096 0.0
H194 H 0.30678 0.32357 0.68013 0.0
C195 C 0.29735 0.31704 0.69413 0.0
C196 C 0.2832 0.29341 0.69098 0.0
C197 C 0.27195 0.28462 0.70941 0.0
C198 C 0.26981 0.288 0.75128 0.0
H199 H 0.26235 0.26588 0.70746 0.0
C200 C 0.24493 0.28472 0.75826 0.0
C201 C 0.2405 0.27507 0.77844 0.0
C202 C 0.29006 0.28112 0.76417 0.0
H203 H 0.30933 0.28353 0.75895 0.0
C204 C 0.28565 0.27113 0.78386 0.0
H205 H 0.22935 0.29028 0.74844 0.0
C206 C 0.26108 0.26817 0.79103 0.0
H207 H 0.25812 0.26034 0.80639 0.0
H208 H 0.30133 0.26577 0.79367 0.0
H209 H 0.86971 0.25318 0.75773 0.0
C210 C 0.85395 0.23805 0.754 0.0
C211 C 0.85642 0.21562 0.76118 0.0
C212 C 0.83109 0.24141 0.74218 0.0
H213 H 0.83669 0.17902 0.7615 0.0
C214 C 0.83572 0.19624 0.75554 0.0
C215 C 0.8129 0.1993 0.74345 0.0
C216 C 0.81061 0.22193 0.73683 0.0
C217 C 0.82811 0.26592 0.73714 0.0
H218 H 0.79271 0.22455 0.72812 0.0
C219 C 0.82215 0.26984 0.71471 0.0
C220 C 0.81992 0.29344 0.71009 0.0
C221 C 0.83162 0.28563 0.75502 0.0
H222 H 0.83617 0.28295 0.77243 0.0
C223 C 0.82895 0.30889 0.75065 0.0
H224 H 0.82005 0.25467 0.70091 0.0
C225 C 0.8231 0.31282 0.72841 0.0
H226 H 0.82083 0.33105 0.72561 0.0
H227 H 0.83139 0.32395 0.76457 0.0
H228 H 0.60663 0.52642 0.54044 0.0
C229 C 0.59531 0.52199 0.55411 0.0
C230 C 0.59618 0.49994 0.56268 0.0
C231 C 0.5811 0.53913 0.56398 0.0
H232 H 0.58248 0.47848 0.58816 0.0
C233 C 0.58156 0.49494 0.58082 0.0
C234 C 0.56641 0.5117 0.59011 0.0
C235 C 0.56637 0.5337 0.58162 0.0
C236 C 0.58457 0.56405 0.55828 0.0
H237 H 0.55572 0.54717 0.5895 0.0
C238 C 0.57791 0.56847 0.53613 0.0
C239 C 0.58229 0.59238 0.53114 0.0
C240 C 0.59539 0.58364 0.57531 0.0
H241 H 0.60072 0.58055 0.59244 0.0
C242 C 0.59988 0.60731 0.57028 0.0
H243 H 0.56941 0.55348 0.52292 0.0
C244 C 0.59347 0.61168 0.5483 0.0
H245 H 0.59689 0.63022 0.54473 0.0
H246 H 0.60835 0.62229 0.58346 0.0
H247 H 0.62594 0.48579 1.00331 0.0
C248 C 0.61003 0.4885 0.99188 0.0
C249 C 0.61013 0.51111 0.98427 0.0
C250 C 0.59022 0.46891 0.98372 0.0
H251 H 0.59041 0.53105 0.962 0.0
C252 C 0.58985 0.51404 0.96872 0.0
C253 C 0.5703 0.49439 0.95996 0.0
C254 C 0.57053 0.47193 0.96772 0.0
C255 C 0.59262 0.44414 0.98828 0.0
H256 H 0.55598 0.45643 0.96057 0.0
C257 C 0.58577 0.43603 0.00864 0.0
C258 C 0.58796 0.41201 0.01213 0.0
C259 C 0.60158 0.42827 0.97151 0.0
H260 H 0.60684 0.43424 0.95575 0.0
C261 C 0.60379 0.40462 0.97486 0.0
H262 H 0.57881 0.44829 0.02159 0.0
C263 C 0.59699 0.39649 0.99492 0.0
H264 H 0.59838 0.37781 0.99676 0.0
H265 H 0.6106 0.39245 0.96177 0.0
H266 H 0.76998 0.18294 0.25653 0.0
C267 C 0.76708 0.19176 0.27331 0.0
C268 C 0.77831 0.18451 0.29292 0.0
C269 C 0.7524 0.21067 0.275 0.0
H270 H 0.78314 0.19163 0.32979 0.0
C271 C 0.77399 0.19628 0.31448 0.0
C272 C 0.75941 0.21538 0.31634 0.0
C273 C 0.74849 0.22228 0.29653 0.0
C274 C 0.74386 0.22028 0.25433 0.0
H275 H 0.73781 0.23738 0.29787 0.0
C276 C 0.71779 0.22151 0.24867 0.0
C277 C 0.71038 0.2318 0.22947 0.0
C278 C 0.76231 0.22919 0.24056 0.0
H279 H 0.78247 0.22851 0.24469 0.0
C280 C 0.75502 0.23957 0.22167 0.0
H281 H 0.70341 0.21452 0.25912 0.0
C282 C 0.72924 0.24098 0.21619 0.0
H283 H 0.72395 0.24882 0.20126 0.0
H284 H 0.76939 0.24653 0.21124 0.0
H285 H 0.46541 0.07006 0.96241 0.0
C286 C 0.45498 0.05365 0.96707 0.0
C287 C 0.44847 0.05343 0.9895 0.0
C288 C 0.44656 0.03329 0.95016 0.0
H289 H 0.42907 0.0318 0.01212 0.0
C290 C 0.43378 0.03232 0.99481 0.0
C291 C 0.42482 0.01197 0.978 0.0
C292 C 0.43155 0.01255 0.95571 0.0
C293 C 0.44953 0.03512 0.926 0.0
H294 H 0.42402 0.99739 0.94234 0.0
C295 C 0.47078 0.02813 0.91543 0.0
C296 C 0.47231 0.02901 0.89199 0.0
C297 C 0.43012 0.04329 0.91323 0.0
H298 H 0.41365 0.04868 0.92112 0.0
C299 C 0.43168 0.04441 0.89017 0.0
H300 H 0.48569 0.02164 0.92525 0.0
C301 C 0.45253 0.03728 0.87959 0.0
H302 H 0.45335 0.03852 0.86168 0.0
H303 H 0.41663 0.05078 0.88044 0.0
Mg304 Mg 0.24472 0.84 0.01801 0.0
O305 O 0.28063 0.86774 0.01422 0.0
O306 O 0.31455 0.84859 0.01746 0.0
Mg307 Mg 0.3009 0.80932 0.02225 0.0
C308 C 0.30481 0.86752 0.01451 0.0
C309 C 0.1966 0.86096 0.01815 0.0
O310 O 0.19356 0.84152 0.02823 0.0
O311 O 0.24558 0.82123 0.98136 0.0
O312 O 0.28014 0.80302 0.98596 0.0
O313 O 0.25023 0.85003 0.05562 0.0
O314 O 0.26693 0.82037 0.03687 0.0
C315 C 0.26142 0.80786 0.97345 0.0
C316 C 0.26438 0.83318 0.05603 0.0
O317 O 0.21726 0.86582 0.00888 0.0
Mg318 Mg 0.15173 0.51257 0.25443 0.0
O319 O 0.13037 0.50608 0.21799 0.0
O320 O 0.16129 0.50619 0.19444 0.0
Mg321 Mg 0.20082 0.51092 0.21431 0.0
C322 C 0.13765 0.50487 0.19793 0.0
C323 C 0.11712 0.50513 0.29243 0.0
O324 O 0.14054 0.50927 0.30279 0.0
O325 O 0.15991 0.47323 0.2512 0.0
O326 O 0.19129 0.47467 0.2281 0.0
O327 O 0.15663 0.55302 0.25473 0.0
O328 O 0.18486 0.53005 0.24311 0.0
C329 C 0.1768 0.46331 0.24067 0.0
C330 C 0.17812 0.55124 0.24613 0.0
O331 O 0.11431 0.50391 0.27087 0.0
Mg332 Mg 0.82296 0.67027 1.00358 0.0
O333 O 0.78318 0.6457 1.00098 0.0
O334 O 0.75384 0.67019 0.99792 0.0
Mg335 Mg 0.7738 0.70947 0.99979 0.0
C336 C 0.75979 0.6491 0.99882 0.0
C337 C 0.86731 0.64238 0.00616 0.0
O338 O 0.87747 0.66544 0.0123 0.0
O339 O 0.81834 0.6733 0.96534 0.0
O340 O 0.79001 0.69915 0.96574 0.0
O341 O 0.82397 0.67786 0.04125 0.0
O342 O 0.80763 0.70045 0.01832 0.0
C343 C 0.8049 0.68651 0.95521 0.0
C344 C 0.8123 0.69611 0.03874 0.0
O345 O 0.84353 0.63716 0.99913 0.0
Mg346 Mg 0.94862 0.03898 0.26955 0.0
O347 O 0.92162 1.00171 0.26089 0.0
O348 O 0.94716 0.9735 0.25519 0.0
Mg349 Mg 0.98904 0.99141 0.25922 0.0
C350 C 0.92489 0.97948 0.2563 0.0
C351 C 0.8976 0.06027 0.26688 0.0
O352 O 0.89781 0.04942 0.24588 0.0
O353 O 0.96012 0.03074 0.30534 0.0
O354 O 0.98511 1.00247 0.29716 0.0
O355 O 0.94847 0.0427 0.23254 0.0
O356 O 0.97627 0.02466 0.2505 0.0
C357 C 0.97457 0.01599 0.31146 0.0
C358 C 0.96744 0.0306 0.2317 0.0
O359 O 0.91557 0.05847 0.28172 0.0
Mg360 Mg 0.32038 0.16581 0.51049 0.0
O361 O 0.28127 0.13966 0.50486 0.0
O362 O 0.25142 0.16392 0.50371 0.0
Mg363 Mg 0.26997 0.20386 0.5085 0.0
C364 C 0.25775 0.14276 0.5029 0.0
C365 C 0.36188 0.13784 0.52038 0.0
O366 O 0.36501 0.15796 0.53524 0.0
O367 O 0.31736 0.17244 0.47306 0.0
O368 O 0.28771 0.19694 0.4746 0.0
O369 O 0.31864 0.16909 0.54792 0.0
O370 O 0.30314 0.194 0.5271 0.0
C371 C 0.30355 0.1859 0.46369 0.0
C372 C 0.30652 0.18727 0.54675 0.0
O373 O 0.34364 0.13445 0.50443 0.0
Mg374 Mg 0.45849 0.54026 0.7708 0.0
O375 O 0.43283 0.50278 0.75929 0.0
O376 O 0.45874 0.47548 0.75044 0.0
Mg377 Mg 0.50018 0.49395 0.75975 0.0
C378 C 0.4364 0.48117 0.75182 0.0
C379 C 0.42105 0.57059 0.79921 0.0
O380 O 0.44018 0.5749 0.81541 0.0
O381 O 0.46766 0.53005 0.80619 0.0
O382 O 0.49244 0.50174 0.79732 0.0
O383 O 0.46026 0.54561 0.73443 0.0
O384 O 0.4883 0.52823 0.75292 0.0
C385 C 0.4812 0.51437 0.81179 0.0
C386 C 0.47987 0.53432 0.73405 0.0
O387 O 0.42299 0.55699 0.78064 0.0
Mg388 Mg 0.74402 0.33952 0.5182 0.0
O389 O 0.78077 0.3665 0.51545 0.0
O390 O 0.81469 0.34757 0.51956 0.0
Mg391 Mg 0.79983 0.30807 0.52308 0.0
C392 C 0.805 0.3665 0.5165 0.0
C393 C 0.72356 0.38773 0.52188 0.0
O394 O 0.74435 0.39216 0.53633 0.0
O395 O 0.74573 0.32128 0.48136 0.0
O396 O 0.78009 0.30289 0.48655 0.0
O397 O 0.74888 0.34849 0.556 0.0
O398 O 0.76528 0.31889 0.53684 0.0
C399 C 0.76179 0.30799 0.47371 0.0
C400 C 0.76271 0.33138 0.55613 0.0
O401 O 0.71834 0.36709 0.50907 0.0
Mg402 Mg 0.65677 0.01517 0.762 0.0
O403 O 0.63387 0.00798 0.72632 0.0
O404 O 0.6627 0.0054 0.70095 0.0
Mg405 Mg 0.70319 0.01212 0.71946 0.0
C406 C 0.63954 0.00482 0.70575 0.0
C407 C 0.62226 0.00628 0.80075 0.0
O408 O 0.64544 0.00851 0.81125 0.0
O409 O 0.66513 0.97575 0.75902 0.0
O410 O 0.69503 0.9766 0.73443 0.0
O411 O 0.6615 0.05548 0.76143 0.0
O412 O 0.68904 0.03207 0.74902 0.0
C413 C 0.68143 0.9656 0.74782 0.0
C414 C 0.68247 0.05334 0.75204 0.0
O415 O 0.6199 0.00688 0.77942 0.0
Mg416 Mg 0.06049 0.22307 0.90096 0.0
O417 O 0.02326 0.21349 0.87686 0.0
O418 O 0.99095 0.20281 0.89733 0.0
Mg419 Mg 0.00747 0.20635 0.93449 0.0
C420 C 0.99948 0.20639 0.87843 0.0
C421 C 0.08425 0.22745 0.85482 0.0
O422 O 0.07304 0.20456 0.85028 0.0
O423 O 0.04884 0.25905 0.91483 0.0
O424 O 0.01714 0.24821 0.93597 0.0
O425 O 0.06704 0.18441 0.89683 0.0
O426 O 0.04522 0.20095 0.9233 0.0
C427 C 0.03209 0.26445 0.92815 0.0
C428 C 0.05392 0.18206 0.91407 0.0
O429 O 0.08177 0.23996 0.8738 0.0
Mg430 Mg 0.55853 0.73259 0.40007 0.0
O431 O 0.51881 0.72401 0.37979 0.0
O432 O 0.48994 0.71913 0.4049 0.0
Mg433 Mg 0.51112 0.72158 0.44036 0.0
C434 C 0.49559 0.72015 0.38457 0.0
C435 C 0.59686 0.76219 0.37409 0.0
O436 O 0.6054 0.77103 0.39537 0.0
O437 O 0.55051 0.77028 0.41391 0.0
O438 O 0.5241 0.76268 0.44048 0.0
O439 O 0.56255 0.69327 0.39613 0.0
O440 O 0.54535 0.71238 0.42458 0.0
C441 C 0.5375 0.77756 0.42995 0.0
C442 C 0.55154 0.69244 0.41472 0.0
O443 O 0.57663 0.7463 0.37 0.0
Mg444 Mg 0.99906 0.74388 0.6238 0.0
O445 O 0.03748 0.73635 0.64104 0.0
O446 O 0.06153 0.72797 0.61263 0.0
Mg447 Mg 0.04054 0.73044 0.57849 0.0
C448 C 0.05825 0.73059 0.63378 0.0
C449 C 0.96887 0.77151 0.65956 0.0
O450 O 0.96179 0.78022 0.64117 0.0
O451 O 0.01813 0.78215 0.61812 0.0
O452 O 0.04169 0.77134 0.58988 0.0
O453 O 0.98309 0.70376 0.61767 0.0
O454 O 1.00419 0.72254 0.59314 0.0
C455 C 0.03373 0.78761 0.60354 0.0
C456 C 0.99276 0.70252 0.59834 0.0
O457 O 0.9856 0.75738 0.65849 0.0
Mg458 Mg 0.48731 0.25105 0.12742 0.0
O459 O 0.5255 0.24426 0.14524 0.0
O460 O 0.5502 0.23386 0.11783 0.0
Mg461 Mg 0.52991 0.23638 0.08329 0.0
C462 C 0.54623 0.23762 0.13878 0.0
C463 C 0.45534 0.27704 0.16293 0.0
O464 O 0.44629 0.28404 0.14422 0.0
O465 O 0.50669 0.28899 0.12142 0.0
O466 O 0.53122 0.27752 0.09408 0.0
O467 O 0.4716 0.21097 0.12194 0.0
O468 O 0.49298 0.22917 0.09718 0.0
C469 C 0.52291 0.29399 0.10722 0.0
C470 C 0.48156 0.20933 0.10274 0.0
O471 O 0.47374 0.26479 0.162 0.0
H472 H 0.23835 0.69506 0.859 0.0
H473 H 0.27136 0.75676 0.82927 0.0
H474 H 0.23538 0.72231 0.89443 0.0
H475 H 0.26907 0.78388 0.86491 0.0
H476 H 0.29894 0.80341 0.94548 0.0
H477 H 0.29484 0.78114 0.90669 0.0
H478 H 0.21285 0.76395 0.90827 0.0
H479 H 0.21683 0.78711 0.94702 0.0
C480 C 0.24463 0.71448 0.86 0.0
C481 C 0.25503 0.72388 0.84149 0.0
C482 C 0.24282 0.73002 0.88015 0.0
C483 C 0.25192 0.75512 0.88226 0.0
C484 C 0.26182 0.76459 0.86359 0.0
C485 C 0.26307 0.74913 0.84327 0.0
C486 C 0.27999 0.79528 0.93737 0.0
C487 C 0.25819 0.79696 0.94916 0.0
C488 C 0.27765 0.78262 0.91521 0.0
C489 C 0.25355 0.77087 0.90461 0.0
C490 C 0.23162 0.77293 0.91616 0.0
C491 C 0.23388 0.78622 0.93818 0.0
H492 H 0.01779 0.54124 0.39701 0.0
H493 H 0.96696 0.49058 0.34581 0.0
H494 H 0.05393 0.53533 0.3748 0.0
H495 H 1.00296 0.48438 0.32379 0.0
H496 H 0.06638 0.5036 0.27766 0.0
H497 H 0.03056 0.50608 0.30083 0.0
H498 H 0.08145 0.50714 0.36135 0.0
H499 H 0.11731 0.50527 0.33827 0.0
C500 C 0.01442 0.52855 0.3812 0.0
C501 C 0.98947 0.51659 0.37308 0.0
C502 C 0.03512 0.52513 0.36844 0.0
C503 C 0.03137 0.50953 0.34733 0.0
C504 C 0.00652 0.49694 0.33967 0.0
C505 C 0.98587 0.50045 0.35235 0.0
C506 C 0.06987 0.50415 0.29588 0.0
C507 C 0.09475 0.50433 0.30608 0.0
C508 C 0.0493 0.50548 0.3092 0.0
C509 C 0.05307 0.50694 0.33305 0.0
C510 C 0.07787 0.50648 0.34313 0.0
C511 C 0.09842 0.50522 0.32983 0.0
H512 H 0.78996 0.72919 0.82084 0.0
H513 H 0.86975 0.74989 0.84659 0.0
H514 H 0.78296 0.70404 0.85067 0.0
H515 H 0.86272 0.72561 0.87721 0.0
H516 H 0.84435 0.67642 0.92954 0.0
H517 H 0.85172 0.68782 0.89209 0.0
H518 H 0.77983 0.71562 0.8898 0.0
H519 H 0.77229 0.70377 0.92642 0.0
C520 C 0.80611 0.72788 0.83267 0.0
C521 C 0.83035 0.74146 0.83152 0.0
C522 C 0.80211 0.71369 0.8499 0.0
C523 C 0.82213 0.71317 0.86673 0.0
C524 C 0.84687 0.7254 0.86454 0.0
C525 C 0.85094 0.73936 0.84703 0.0
C526 C 0.82988 0.68441 0.92072 0.0
C527 C 0.80783 0.68934 0.93109 0.0
C528 C 0.8342 0.69116 0.89935 0.0
C529 C 0.81645 0.70277 0.88786 0.0
C530 C 0.79381 0.70642 0.89782 0.0
C531 C 0.78956 0.69979 0.91904 0.0
H532 H 0.077 0.02884 0.42781 0.0
H533 H 0.01358 0.98053 0.44724 0.0
H534 H 0.04968 0.03565 0.39552 0.0
H535 H 0.98688 0.9863 0.41375 0.0
H536 H 0.97758 0.97558 0.33082 0.0
H537 H 0.99515 0.97369 0.36955 0.0
H538 H 1.00489 0.0521 0.38543 0.0
H539 H 0.98644 0.05395 0.34669 0.0
C540 C 0.05714 0.02006 0.42565 0.0
C541 C 0.04769 0.00404 0.44038 0.0
C542 C 0.04152 0.02394 0.40697 0.0
C543 C 0.01621 0.01154 0.4022 0.0
C544 C 0.00639 0.99605 0.41709 0.0
C545 C 0.02183 0.99258 0.43613 0.0
C546 C 0.98282 0.99235 0.34278 0.0
C547 C 0.98068 0.01491 0.33583 0.0
C548 C 0.99277 0.99126 0.36493 0.0
C549 C 1.00139 0.01275 0.38039 0.0
C550 C 0.99831 0.03529 0.37378 0.0
C551 C 0.98767 0.03634 0.35173 0.0
H552 H 0.32532 0.28118 0.67249 0.0
H553 H 0.24254 0.26826 0.66147 0.0
H554 H 0.32734 0.25357 0.63734 0.0
H555 H 0.2446 0.24083 0.62568 0.0
H556 H 0.27713 0.22392 0.55029 0.0
H557 H 0.26812 0.24824 0.58544 0.0
H558 H 0.30894 0.20495 0.62516 0.0
H559 H 0.3175 0.18036 0.59037 0.0
C560 C 0.30758 0.2725 0.6624 0.0
C561 C 0.28378 0.27682 0.66952 0.0
C562 C 0.30872 0.25668 0.64241 0.0
C563 C 0.28612 0.24515 0.62895 0.0
C564 C 0.26225 0.24962 0.63585 0.0
C565 C 0.26107 0.26515 0.65622 0.0
C566 C 0.28372 0.21928 0.56651 0.0
C567 C 0.29815 0.20029 0.56752 0.0
C568 C 0.27849 0.23314 0.58657 0.0
C569 C 0.28798 0.22844 0.60786 0.0
C570 C 0.30152 0.20892 0.60888 0.0
C571 C 0.30637 0.19487 0.58894 0.0
H572 H 0.58665 0.50931 0.63284 0.0
H573 H 0.51495 0.50739 0.59263 0.0
H574 H 0.56488 0.51253 0.66749 0.0
H575 H 0.4926 0.50915 0.62699 0.0
H576 H 0.46797 0.54722 0.69252 0.0
H577 H 0.48785 0.53807 0.65761 0.0
H578 H 0.53687 0.49623 0.69155 0.0
H579 H 0.51812 0.50681 0.72676 0.0
C580 C 0.56602 0.50868 0.63144 0.0
C581 C 0.5524 0.508 0.61018 0.0
C582 C 0.55345 0.51053 0.65129 0.0
C583 C 0.52689 0.51143 0.65024 0.0
C584 C 0.51312 0.50919 0.62865 0.0
C585 C 0.52579 0.5078 0.60889 0.0
C586 C 0.48295 0.53601 0.69252 0.0
C587 C 0.49131 0.52768 0.71251 0.0
C588 C 0.49424 0.53051 0.67236 0.0
C589 C 0.51399 0.51622 0.67152 0.0
C590 C 0.52201 0.50754 0.69148 0.0
C591 C 0.51099 0.5134 0.71173 0.0
H592 H 0.78787 0.26431 0.67508 0.0
H593 H 0.83955 0.33306 0.69116 0.0
H594 H 0.77724 0.27323 0.63689 0.0
H595 H 0.82814 0.3422 0.6533 0.0
H596 H 0.76999 0.36054 0.59745 0.0
H597 H 0.78634 0.35071 0.63385 0.0
H598 H 0.79838 0.28059 0.60023 0.0
H599 H 0.78222 0.29049 0.56365 0.0
C600 C 0.79721 0.28116 0.67045 0.0
C601 C 0.81438 0.29807 0.68635 0.0
C602 C 0.79107 0.28627 0.64857 0.0
C603 C 0.80176 0.30847 0.64223 0.0
C604 C 0.81937 0.32509 0.65787 0.0
C605 C 0.82575 0.31988 0.67961 0.0
C606 C 0.77639 0.34314 0.59777 0.0
C607 C 0.7748 0.32627 0.57772 0.0
C608 C 0.78583 0.33756 0.61859 0.0
C609 C 0.79353 0.31486 0.61983 0.0
C610 C 0.79239 0.29814 0.59974 0.0
C611 C 0.78331 0.30388 0.57882 0.0
H612 H 0.53462 0.04297 0.6043 0.0
H613 H 0.54013 0.96845 0.57759 0.0
H614 H 0.55949 0.03941 0.63957 0.0
H615 H 0.56547 0.96519 0.61261 0.0
H616 H 0.64127 0.98542 0.66142 0.0
H617 H 0.60993 0.98455 0.6291 0.0
H618 H 0.56019 0.0174 0.67402 0.0
H619 H 0.59169 0.01821 0.70662 0.0
C620 C 0.54069 0.02569 0.60606 0.0
C621 C 0.53558 0.0061 0.58791 0.0
C622 C 0.55499 0.02367 0.62629 0.0
C623 C 0.56466 1.00209 0.62879 0.0
C624 C 0.55864 0.98219 0.61106 0.0
C625 C 0.54419 0.98412 0.59095 0.0
C626 C 0.62354 0.99221 0.6645 0.0
C627 C 0.61905 1.00195 0.68663 0.0
C628 C 0.60549 0.99158 0.64596 0.0
C629 C 0.58259 1.00095 0.64898 0.0
C630 C 0.57775 0.01019 0.67115 0.0
C631 C 0.5957 0.01049 0.68982 0.0
H632 H 0.87944 0.17476 0.76286 0.0
H633 H 0.88634 0.25045 0.79342 0.0
H634 H 0.91543 0.17012 0.7893 0.0
H635 H 0.92324 0.24593 0.81839 0.0
H636 H 1.0045 0.23056 0.84205 0.0
H637 H 0.97138 0.2314 0.81126 0.0
H638 H 0.91941 0.17833 0.8381 0.0
H639 H 0.95218 0.17792 0.86934 0.0
C640 C 0.88857 0.19044 0.775 0.0
C641 C 0.87974 0.213 0.77586 0.0
C642 C 0.90932 0.18776 0.78997 0.0
C643 C 0.92206 0.20772 0.80565 0.0
C644 C 0.91387 0.23037 0.80616 0.0
C645 C 0.89279 0.23294 0.79166 0.0
C646 C 0.98617 0.21876 0.84118 0.0
C647 C 0.98086 0.20427 0.85817 0.0
C648 C 0.96727 0.21931 0.82362 0.0
C649 C 0.943 0.20492 0.82243 0.0
C650 C 0.93809 0.18945 0.83866 0.0
C651 C 0.95677 0.18932 0.85653 0.0
H652 H 0.50315 0.92136 0.47958 0.0
H653 H 0.58026 0.93553 0.46019 0.0
H654 H 0.50199 0.87779 0.46801 0.0
H655 H 0.57938 0.89187 0.44901 0.0
H656 H 0.55871 0.81491 0.40884 0.0
H657 H 0.55977 0.85847 0.42033 0.0
H658 H 0.51966 0.84382 0.4786 0.0
H659 H 0.51788 0.80031 0.46676 0.0
C660 C 0.51999 0.9151 0.47313 0.0
C661 C 0.5418 0.93183 0.47081 0.0
C662 C 0.51935 0.89013 0.46651 0.0
C663 C 0.54059 0.88128 0.45756 0.0
C664 C 0.56252 0.89806 0.45545 0.0
C665 C 0.56308 0.92306 0.46193 0.0
C666 C 0.55007 0.82098 0.42408 0.0
C667 C 0.53815 0.80408 0.43683 0.0
C668 C 0.55083 0.84598 0.43076 0.0
C669 C 0.53983 0.85469 0.45042 0.0
C670 C 0.52797 0.83777 0.46318 0.0
C671 C 0.52707 0.81278 0.45643 0.0
H672 H 0.22898 0.2888 0.82147 0.0
H673 H 0.19406 0.25502 0.75448 0.0
H674 H 0.18801 0.27999 0.83687 0.0
H675 H 0.15253 0.24658 0.76984 0.0
H676 H 0.09996 0.20369 0.81633 0.0
H677 H 0.13506 0.21854 0.79515 0.0
H678 H 0.14466 0.28905 0.83743 0.0
H679 H 0.10995 0.27408 0.85894 0.0
C680 C 0.21239 0.27974 0.80999 0.0
C681 C 0.21475 0.27233 0.78685 0.0
C682 C 0.18881 0.27492 0.81875 0.0
C683 C 0.16697 0.26254 0.80459 0.0
C684 C 0.16907 0.25597 0.78121 0.0
C685 C 0.19275 0.26095 0.77239 0.0
C686 C 0.10926 0.22248 0.82087 0.0
C687 C 0.10246 0.23756 0.83959 0.0
C688 C 0.12929 0.23105 0.80862 0.0
C689 C 0.14289 0.25488 0.8148 0.0
C690 C 0.13489 0.27044 0.83253 0.0
C691 C 0.11493 0.26188 0.84481 0.0
H692 H 0.53395 0.58797 0.51022 0.0
H693 H 0.61372 0.61029 0.50167 0.0
H694 H 0.52129 0.60575 0.47656 0.0
H695 H 0.60129 0.62771 0.46801 0.0
H696 H 0.57408 0.65211 0.40445 0.0
H697 H 0.57795 0.62032 0.42796 0.0
H698 H 0.52765 0.65119 0.47354 0.0
H699 H 0.52391 0.68299 0.45028 0.0
C700 C 0.5487 0.59595 0.50064 0.0
C701 C 0.57475 0.59787 0.50836 0.0
C702 C 0.5415 0.60619 0.48152 0.0
C703 C 0.5603 0.61812 0.46972 0.0
C704 C 0.58637 0.61837 0.47657 0.0
C705 C 0.59352 0.60852 0.49585 0.0
C706 C 0.56327 0.65172 0.41913 0.0
C707 C 0.54899 0.6703 0.4257 0.0
C708 C 0.56556 0.63355 0.4326 0.0
C709 C 0.55329 0.63343 0.45266 0.0
C710 C 0.53719 0.65072 0.45809 0.0
C711 C 0.53518 0.66906 0.44481 0.0
H712 H 0.8444 0.78938 0.7433 0.0
H713 H 0.90231 0.77154 0.79021 0.0
H714 H 0.87381 0.78871 0.7138 0.0
H715 H 0.93216 0.77163 0.76103 0.0
H716 H 0.96829 0.74648 0.69586 0.0
H717 H 0.94109 0.74947 0.72694 0.0
H718 H 0.91085 0.80881 0.70117 0.0
H719 H 0.93727 0.80503 0.66959 0.0
C720 C 0.86357 0.78562 0.74738 0.0
C721 C 0.87095 0.7804 0.76906 0.0
C722 C 0.88055 0.78535 0.73049 0.0
C723 C 0.90555 0.78014 0.7349 0.0
C724 C 0.913 0.77527 0.75676 0.0
C725 C 0.89589 0.77528 0.77356 0.0
C726 C 0.95604 0.76034 0.69697 0.0
C727 C 0.95488 0.77541 0.68013 0.0
C728 C 0.94043 0.76214 0.7149 0.0
C729 C 0.92344 0.77925 0.71661 0.0
C730 C 0.92314 0.79499 0.70021 0.0
C731 C 0.93851 0.79299 0.68216 0.0
H732 H 0.0239 0.88621 0.51572 0.0
H733 H 0.10103 0.91372 0.54643 0.0
H734 H 0.01581 0.86315 0.54688 0.0
H735 H 0.0931 0.89057 0.57788 0.0
H736 H 0.07965 0.80874 0.59266 0.0
H737 H 0.08815 0.84578 0.57588 0.0
H738 H 0.01229 0.86093 0.58798 0.0
H739 H 1.00383 0.82358 0.60496 0.0
C740 C 0.0388 0.88795 0.52965 0.0
C741 C 0.06304 0.90169 0.52878 0.0
C742 C 0.03418 0.87483 0.54756 0.0
C743 C 0.05386 0.87488 0.56485 0.0
C744 C 0.0776 0.89004 0.56476 0.0
C745 C 0.08212 0.90341 0.54689 0.0
C746 C 0.06511 0.82043 0.59248 0.0
C747 C 0.04102 0.81319 0.59996 0.0
C748 C 0.07001 0.84176 0.58293 0.0
C749 C 0.0508 0.85622 0.58033 0.0
C750 C 0.02741 0.85005 0.58956 0.0
C751 C 0.02263 0.8288 0.59947 0.0
H752 H 0.18664 0.6745 0.69345 0.0
H753 H 0.18445 0.73985 0.74041 0.0
H754 H 0.14601 0.67876 0.67346 0.0
H755 H 0.14379 0.74466 0.71996 0.0
H756 H 0.06165 0.736 0.68089 0.0
H757 H 0.09699 0.72822 0.70665 0.0
H758 H 0.13789 0.70823 0.64874 0.0
H759 H 0.10309 0.71557 0.62333 0.0
C760 C 0.17711 0.68955 0.69971 0.0
C761 C 0.18863 0.70692 0.71832 0.0
C762 C 0.15397 0.69213 0.68819 0.0
C763 C 0.14193 0.71235 0.6948 0.0
C764 C 0.15256 0.72887 0.71445 0.0
C765 C 0.17577 0.72615 0.72616 0.0
C766 C 0.07818 0.72987 0.67372 0.0
C767 C 0.07937 0.72633 0.64997 0.0
C768 C 0.09843 0.72549 0.68848 0.0
C769 C 0.1201 0.71726 0.67974 0.0
C770 C 0.12126 0.71398 0.65607 0.0
C771 C 0.10127 0.71842 0.64145 0.0
H772 H 0.95349 0.59531 0.4776 0.0
H773 H 0.9728 0.5514 0.52831 0.0
H774 H 0.96594 0.63198 0.50563 0.0
H775 H 0.9852 0.58823 0.55648 0.0
H776 H 0.97138 0.65681 0.605 0.0
H777 H 0.96433 0.61921 0.57754 0.0
H778 H 1.00214 0.65789 0.52856 0.0
H779 H 0.00858 0.69545 0.55569 0.0
C780 C 0.96089 0.59349 0.49461 0.0
C781 C 0.96214 0.57035 0.50065 0.0
C782 C 0.968 0.61456 0.51074 0.0
C783 C 0.97652 0.61309 0.53337 0.0
C784 C 0.97835 0.59 0.53931 0.0
C785 C 0.97128 0.5689 0.52314 0.0
C786 C 0.97839 0.65723 0.58845 0.0
C787 C 0.99053 0.67918 0.58258 0.0
C788 C 0.97448 0.63563 0.57273 0.0
C789 C 0.98255 0.63553 0.55076 0.0
C790 C 0.99534 0.65736 0.54519 0.0
C791 C 0.99925 0.6789 0.56087 0.0
H792 H 0.79256 0.87452 0.19501 0.0
H793 H 0.8201 0.84443 0.25327 0.0
H794 H 0.82319 0.91205 0.20778 0.0
H795 H 0.85005 0.88206 0.26627 0.0
H796 H 0.92521 0.93129 0.25723 0.0
H797 H 0.88932 0.89802 0.2495 0.0
H798 H 0.83749 0.9488 0.23875 0.0
H799 H 0.87381 0.98257 0.24651 0.0
C800 C 0.8048 0.87609 0.21075 0.0
C801 C 0.80403 0.8564 0.22301 0.0
C802 C 0.82216 0.89766 0.21815 0.0
C803 C 0.83919 0.89988 0.23789 0.0
C804 C 0.83737 0.88075 0.25084 0.0
C805 C 0.81999 0.85927 0.2435 0.0
C806 C 0.9062 0.93551 0.25331 0.0
C807 C 0.90243 0.95963 0.25239 0.0
C808 C 0.88556 0.9164 0.24909 0.0
C809 C 0.86055 0.92079 0.24368 0.0
C810 C 0.8566 0.9449 0.24286 0.0
C811 C 0.87734 0.96419 0.24737 0.0
H812 H 0.81288 0.17825 0.26153 0.0
H813 H 0.78399 0.14867 0.31941 0.0
H814 H 0.84005 0.14707 0.25644 0.0
H815 H 0.81214 0.11775 0.31462 0.0
H816 H 0.89022 0.08521 0.30853 0.0
H817 H 0.86074 0.11459 0.31612 0.0
H818 H 0.83225 0.10134 0.24494 0.0
H819 H 0.86133 0.07213 0.23734 0.0
C820 C 0.81207 0.16497 0.27308 0.0
C821 C 0.79575 0.16581 0.29064 0.0
C822 C 0.82782 0.14714 0.2702 0.0
C823 C 0.82804 0.12978 0.28496 0.0
C824 C 0.81241 0.13094 0.30299 0.0
C825 C 0.79633 0.1487 0.30574 0.0
C826 C 0.87746 0.08839 0.29456 0.0
C827 C 0.87831 0.07641 0.27229 0.0
C828 C 0.86054 0.10515 0.29893 0.0
C829 C 0.84438 0.11046 0.28107 0.0
C830 C 0.84472 0.09791 0.259 0.0
C831 C 0.86135 0.08105 0.25468 0.0
H832 H 0.38446 0.01298 1.00399 0.0
H833 H 0.42479 0.96324 0.96424 0.0
H834 H 0.35562 0.9786 0.01345 0.0
H835 H 0.39535 0.9288 0.97308 0.0
H836 H 0.35701 0.87352 0.01409 0.0
H837 H 0.38556 0.90837 0.00547 0.0
H838 H 0.32097 0.94597 0.99607 0.0
H839 H 0.29224 0.91113 0.00508 0.0
C840 C 0.38724 0.99469 0.99734 0.0
C841 C 0.40711 0.99086 0.98351 0.0
C842 C 0.37048 0.97498 1.00253 0.0
C843 C 0.37316 0.95092 0.99407 0.0
C844 C 0.39293 0.94709 0.98012 0.0
C845 C 0.40967 0.96682 0.97487 0.0
C846 C 0.34879 0.88922 0.01028 0.0
C847 C 0.32222 0.88942 0.01026 0.0
C848 C 0.36522 0.90916 0.00516 0.0
C849 C 0.35557 0.92991 0.9999 0.0
C850 C 0.32907 0.93034 1.00023 0.0
C851 C 0.31258 0.91033 0.00533 0.0
H852 H 0.21317 0.34288 0.30851 0.0
H853 H 0.27959 0.3696 0.27635 0.0
H854 H 0.1871 0.36603 0.28712 0.0
H855 H 0.25404 0.39376 0.25563 0.0
H856 H 0.20351 0.43238 0.21609 0.0
H857 H 0.22114 0.39814 0.22835 0.0
H858 H 0.183 0.40724 0.28983 0.0
H859 H 0.16464 0.44075 0.27711 0.0
C860 C 0.22202 0.35341 0.29648 0.0
C861 C 0.24833 0.35452 0.29404 0.0
C862 C 0.20719 0.36692 0.2844 0.0
C863 C 0.21845 0.38222 0.26988 0.0
C864 C 0.24451 0.38206 0.26642 0.0
C865 C 0.25926 0.36824 0.2783 0.0
C866 C 0.19839 0.42667 0.23198 0.0
C867 C 0.18283 0.43949 0.24571 0.0
C868 C 0.20872 0.40714 0.23912 0.0
C869 C 0.20398 0.40006 0.26031 0.0
C870 C 0.18699 0.41188 0.27331 0.0
C871 C 0.17642 0.43124 0.26603 0.0
H872 H 0.10902 0.056 0.50579 0.0
H873 H 0.1544 1.00215 0.4806 0.0
H874 H 0.14722 0.08723 0.51198 0.0
H875 H 0.19266 0.03353 0.48602 0.0
H876 H 0.26037 0.09629 0.5119 0.0
H877 H 0.22452 0.06294 0.51095 0.0
H878 H 0.17203 0.10811 0.48718 0.0
H879 H 0.20736 0.14128 0.48873 0.0
C880 C 0.12731 0.05083 0.50188 0.0
C881 C 0.12876 0.02672 0.49265 0.0
C882 C 0.14917 0.06874 0.50518 0.0
C883 C 0.17299 0.06306 0.499 0.0
C884 C 0.17472 0.03859 0.49104 0.0
C885 C 0.15281 0.02058 0.48797 0.0
C886 C 0.24116 0.09898 0.50637 0.0
C887 C 0.23675 0.12155 0.50057 0.0
C888 C 0.2206 0.07988 0.50583 0.0
C889 C 0.19525 0.08293 0.49939 0.0
C890 C 0.19112 0.10527 0.49292 0.0
C891 C 0.2115 0.12429 0.4936 0.0
H892 H 0.80925 0.15517 0.71693 0.0
H893 H 0.76754 0.19822 0.76187 0.0
H894 H 0.77504 0.12021 0.71414 0.0
H895 H 0.734 0.16303 0.76052 0.0
H896 H 0.67073 0.09874 0.74861 0.0
H897 H 0.69974 0.13451 0.74182 0.0
H898 H 0.76113 0.09165 0.7365 0.0
H899 H 0.73188 0.05599 0.74196 0.0
C900 C 0.79256 0.15708 0.72607 0.0
C901 C 0.79086 0.17921 0.73958 0.0
C902 C 0.77306 0.13703 0.72472 0.0
C903 C 0.75178 0.1385 0.73739 0.0
C904 C 0.74978 0.16112 0.75024 0.0
C905 C 0.76904 0.1813 0.75117 0.0
C906 C 0.69034 0.09698 0.7456 0.0
C907 C 0.69902 0.07457 0.74586 0.0
C908 C 0.70707 0.11753 0.74189 0.0
C909 C 0.73298 0.1162 0.73873 0.0
C910 C 0.74131 0.09349 0.73838 0.0
C911 C 0.72451 0.07295 0.7417 0.0
H912 H 0.49064 0.07171 0.5647 0.0
H913 H 0.44602 0.01398 0.51564 0.0
H914 H 0.45856 0.09771 0.55888 0.0
H915 H 0.41318 0.03952 0.51038 0.0
H916 H 0.3736 0.1016 0.48846 0.0
H917 H 0.40415 0.07373 0.49422 0.0
H918 H 0.41742 0.1044 0.56568 0.0
H919 H 0.38821 0.13272 0.55961 0.0
C920 C 0.47364 0.06444 0.55303 0.0
C921 C 0.47078 0.04085 0.54068 0.0
C922 C 0.45516 0.0793 0.54967 0.0
C923 C 0.4331 0.0708 0.53413 0.0
C924 C 0.43005 0.04692 0.52216 0.0
C925 C 0.44875 0.03218 0.5253 0.0
C926 C 0.38307 0.10225 0.50535 0.0
C927 C 0.37877 0.11954 0.52349 0.0
C928 C 0.40049 0.08622 0.50874 0.0
C929 C 0.41361 0.08693 0.53042 0.0
C930 C 0.40839 0.1037 0.54862 0.0
C931 C 0.39143 0.11988 0.54516 0.0
H932 H 0.64469 0.51257 0.55064 0.0
H933 H 0.58833 0.44969 0.55502 0.0
H934 H 0.6742 0.48605 0.53687 0.0
H935 H 0.61867 0.42298 0.54233 0.0
H936 H 0.67325 0.38068 0.50306 0.0
H937 H 0.64162 0.40783 0.51052 0.0
H938 H 0.70017 0.46048 0.55293 0.0
H939 H 0.73156 0.43389 0.54509 0.0
C940 C 0.63843 0.49305 0.54847 0.0
C941 C 0.61397 0.48333 0.55388 0.0
C942 C 0.65557 0.4778 0.54083 0.0
C943 C 0.64895 0.45233 0.5386 0.0
C944 C 0.62434 0.4425 0.54363 0.0
C945 C 0.60707 0.45783 0.55121 0.0
C946 C 0.67941 0.39826 0.51361 0.0
C947 C 0.70494 0.40508 0.52349 0.0
C948 C 0.66123 0.41371 0.51809 0.0
C949 C 0.66827 0.43633 0.53242 0.0
C950 C 0.69404 0.44338 0.54158 0.0
C951 C 0.71209 0.42802 0.53716 0.0
H952 H 0.77389 0.26415 0.3291 0.0
H953 H 0.74113 0.19913 0.35411 0.0
H954 H 0.7725 0.28831 0.36647 0.0
H955 H 0.7391 0.22353 0.39145 0.0
H956 H 0.71802 0.28726 0.44599 0.0
H957 H 0.71549 0.26491 0.407 0.0
H958 H 0.79775 0.28274 0.40789 0.0
H959 H 0.80041 0.30422 0.44688 0.0
C960 C 0.7661 0.25513 0.34255 0.0
C961 C 0.75761 0.22982 0.33881 0.0
C962 C 0.76532 0.26891 0.36385 0.0
C963 C 0.75551 0.25775 0.38166 0.0
C964 C 0.74648 0.23253 0.37784 0.0
C965 C 0.74781 0.21861 0.35663 0.0
C966 C 0.73545 0.28665 0.43767 0.0
C967 C 0.7594 0.29745 0.44935 0.0
C968 C 0.73403 0.27375 0.41553 0.0
C969 C 0.75645 0.27213 0.40461 0.0
C970 C 0.78021 0.2838 0.41597 0.0
C971 C 0.78171 0.29606 0.43822 0.0
H972 H 0.47062 0.99972 0.85109 0.0
H973 H 0.52374 0.04194 0.90596 0.0
H974 H 0.50636 0.99122 0.82949 0.0
H975 H 0.55965 0.03397 0.88416 0.0
H976 H 0.62078 1.00238 0.84586 0.0
H977 H 0.58465 0.00476 0.8686 0.0
H978 H 0.53667 0.01234 0.80886 0.0
H979 H 0.5726 0.00924 0.78603 0.0
C980 C 0.49 0.00715 0.85855 0.0
C981 C 0.49435 0.02167 0.88016 0.0
C982 C 0.51052 1.00239 0.84611 0.0
C983 C 0.53598 0.01215 0.85487 0.0
C984 C 0.54037 0.02592 0.8769 0.0
C985 C 0.51979 0.03054 0.88944 0.0
C986 C 0.60244 0.0043 0.83751 0.0
C987 C 0.59964 0.00568 0.81409 0.0
C988 C 0.58174 0.00585 0.85063 0.0
C989 C 0.55768 0.0089 0.84069 0.0
C990 C 0.55475 0.00967 0.81712 0.0
C991 C 0.57543 0.008 0.80399 0.0
H992 H 0.36375 0.25312 0.35376 0.0
H993 H 0.28398 0.22852 0.32951 0.0
H994 H 0.35892 0.2295 0.38516 0.0
H995 H 0.2792 0.20423 0.3602 0.0
H996 H 0.27046 0.20407 0.43608 0.0
H997 H 0.27699 0.21691 0.39966 0.0
H998 H 0.34993 0.19109 0.40042 0.0
H999 H 0.34353 0.17851 0.43764 0.0
C1000 C 0.34544 0.24194 0.35472 0.0
C1001 C 0.32418 0.24274 0.33937 0.0
C1002 C 0.34263 0.22838 0.37268 0.0
C1003 C 0.31852 0.21529 0.37552 0.0
C1004 C 0.29788 0.21456 0.35892 0.0
C1005 C 0.30063 0.22828 0.34121 0.0
C1006 C 0.28781 0.2008 0.42846 0.0
C1007 C 0.30654 0.19037 0.43995 0.0
C1008 C 0.29147 0.20801 0.40735 0.0
C1009 C 0.31399 0.20503 0.39694 0.0
C1010 C 0.33244 0.19382 0.40801 0.0
C1011 C 0.32869 0.18644 0.42925 0.0
H1012 H 0.5597 0.46379 0.91974 0.0
H1013 H 0.54039 0.5298 0.95571 0.0
H1014 H 0.53363 0.46857 0.886 0.0
H1015 H 0.51289 0.53418 0.9221 0.0
H1016 H 0.49651 0.55018 0.84829 0.0
H1017 H 0.51443 0.54494 0.88592 0.0
H1018 H 0.49387 0.46669 0.86719 0.0
H1019 H 0.4779 0.47219 0.8292 0.0
C1020 C 0.54922 0.479 0.92058 0.0
C1021 C 0.55197 0.49634 0.94039 0.0
C1022 C 0.53406 0.48175 0.9012 0.0
C1023 C 0.5208 0.50172 0.90113 0.0
C1024 C 0.52301 0.51874 0.92127 0.0
C1025 C 0.53862 0.51619 0.94061 0.0
C1026 C 0.4954 0.53194 0.85251 0.0
C1027 C 0.48605 0.51158 0.83589 0.0
C1028 C 0.50564 0.52885 0.87412 0.0
C1029 C 0.50623 0.50531 0.87964 0.0
C1030 C 0.49471 0.48508 0.86345 0.0
C1031 C 0.48519 0.48818 0.84173 0.0
H1032 H 0.82333 0.79774 0.16312 0.0
H1033 H 0.74169 0.77316 0.14841 0.0
H1034 H 0.83065 0.77375 0.12732 0.0
H1035 H 0.74903 0.74938 0.11234 0.0
H1036 H 0.77926 0.7296 0.0398 0.0
H1037 H 0.77002 0.75653 0.07317 0.0
H1038 H 0.82136 0.72533 0.11606 0.0
H1039 H 0.83019 0.69808 0.08299 0.0
C1040 C 0.80694 0.7877 0.15193 0.0
C1041 C 0.78195 0.78729 0.15842 0.0
C1042 C 0.81113 0.77385 0.1316 0.0
C1043 C 0.79039 0.75968 0.11725 0.0
C1044 C 0.76529 0.76025 0.12313 0.0
C1045 C 0.76111 0.77377 0.1437 0.0
C1046 C 0.7884 0.72833 0.05634 0.0
C1047 C 0.8054 0.71165 0.05875 0.0
C1048 C 0.78311 0.74374 0.0754 0.0
C1049 C 0.79519 0.74308 0.09705 0.0
C1050 C 0.81204 0.72634 0.09947 0.0
C1051 C 0.81692 0.71064 0.08056 0.0
H1052 H 0.07341 0.99573 0.13254 0.0
H1053 H 0.01148 0.01661 0.09243 0.0
H1054 H 0.0495 0.99941 0.16587 0.0
H1055 H 0.98663 0.01889 0.12524 0.0
H1056 H 0.96384 0.05196 0.19361 0.0
H1057 H 0.9847 0.04384 0.15906 0.0
H1058 H 0.01592 0.98534 0.1856 0.0
H1059 H 0.99624 0.99457 0.22059 0.0
C1060 C 0.05431 1.00045 0.13077 0.0
C1061 C 0.04426 0.00592 0.11 0.0
C1062 C 0.04048 1.0025 0.14986 0.0
C1063 C 0.01605 0.00968 0.1485 0.0
C1064 C 1.00558 0.01397 0.12726 0.0
C1065 C 0.01966 0.01239 0.10833 0.0
C1066 C 0.97506 0.03727 0.19199 0.0
C1067 C 0.97851 0.02405 0.20998 0.0
C1068 C 0.98693 0.03244 0.17204 0.0
C1069 C 1.00219 0.01389 0.16932 0.0
C1070 C 1.00488 1.00014 0.18711 0.0
C1071 C 0.9934 0.00532 0.20724 0.0
H1072 H 0.32827 0.83503 0.19571 0.0
H1073 H 0.28355 0.76343 0.1737 0.0
H1074 H 0.32157 0.84463 0.15734 0.0
H1075 H 0.2772 0.773 0.13515 0.0
H1076 H 0.28557 0.79322 0.06407 0.0
H1077 H 0.29977 0.78305 0.10111 0.0
H1078 H 0.28299 0.85161 0.13428 0.0
H1079 H 0.26891 0.86175 0.09747 0.0
C1080 C 0.31701 0.82132 0.18269 0.0
C1081 C 0.30611 0.79859 0.18789 0.0
C1082 C 0.31328 0.82681 0.16068 0.0
C1083 C 0.29871 0.80964 0.14328 0.0
C1084 C 0.28872 0.78652 0.14817 0.0
C1085 C 0.29235 0.78105 0.17026 0.0
C1086 C 0.28533 0.80626 0.07926 0.0
C1087 C 0.27606 0.82825 0.07788 0.0
C1088 C 0.29327 0.80035 0.10045 0.0
C1089 C 0.2924 0.81648 0.12059 0.0
C1090 C 0.28412 0.83889 0.11906 0.0
C1091 C 0.27595 0.84466 0.09797 0.0
H1092 H 0.06583 0.4976 0.06107 0.0
H1093 H 1.0031 0.50652 0.10223 0.0
H1094 H 0.09347 0.49584 0.09462 0.0
H1095 H 0.03181 0.50726 0.1364 0.0
H1096 H 0.08561 0.48731 0.19288 0.0
H1097 H 0.05522 0.48566 0.15933 0.0
H1098 H 0.11655 0.52054 0.12538 0.0
H1099 H 0.14668 0.52075 0.15799 0.0
C1100 C 0.05776 0.49912 0.07725 0.0
C1101 C 0.03193 0.502 0.07865 0.0
C1102 C 0.07395 0.49865 0.09674 0.0
C1103 C 0.06519 0.50177 0.1185 0.0
C1104 C 0.03933 0.50459 0.12001 0.0
C1105 C 0.0229 0.50457 0.10035 0.0
C1106 C 0.0925 0.49442 0.17811 0.0
C1107 C 0.11864 0.5038 0.17799 0.0
C1108 C 0.07505 0.49367 0.15891 0.0
C1109 C 0.08331 0.50269 0.13932 0.0
C1110 C 0.1094 0.51263 0.13965 0.0
C1111 C 0.12679 0.51291 0.15853 0.0
H1112 H 0.36734 0.75373 0.30408 0.0
H1113 H 0.38452 0.68948 0.26303 0.0
H1114 H 0.40305 0.75245 0.33209 0.0
H1115 H 0.42036 0.68815 0.29125 0.0
H1116 H 0.49838 0.71401 0.33837 0.0
H1117 H 0.46398 0.71411 0.30851 0.0
H1118 H 0.41096 0.72272 0.35943 0.0
H1119 H 0.44505 0.72252 0.38924 0.0
C1120 C 0.37901 0.73955 0.3009 0.0
C1121 C 0.37321 0.72173 0.28137 0.0
C1122 C 0.39926 0.73866 0.31704 0.0
C1123 C 0.41431 0.72009 0.3139 0.0
C1124 C 0.40907 0.70269 0.29404 0.0
C1125 C 0.38856 0.70339 0.27798 0.0
C1126 C 0.47934 0.71575 0.34319 0.0
C1127 C 0.47451 0.71834 0.36622 0.0
C1128 C 0.45967 0.71573 0.32608 0.0
C1129 C 0.43491 0.71865 0.33172 0.0
C1130 C 0.42997 0.72076 0.35466 0.0
C1131 C 0.44948 0.72046 0.3717 0.0
H1132 H 0.99438 0.40462 0.98775 0.0
H1133 H 0.0501 0.42167 0.94066 0.0
H1134 H 0.99892 0.36187 0.97984 0.0
H1135 H 0.05279 0.37889 0.93118 0.0
H1136 H 0.07023 0.30333 0.93098 0.0
H1137 H 0.06816 0.34609 0.94309 0.0
H1138 H 0.98774 0.32717 0.95237 0.0
H1139 H 0.99044 0.28418 0.94157 0.0
C1140 C 0.00766 0.39933 0.97576 0.0
C1141 C 0.02176 0.41672 0.96478 0.0
C1142 C 0.00993 0.37466 0.9709 0.0
C1143 C 0.02608 0.3667 0.9547 0.0
C1144 C 0.04041 0.38419 0.94399 0.0
C1145 C 0.0385 0.40883 0.94914 0.0
C1146 C 0.05213 0.30834 0.93563 0.0
C1147 C 0.03047 0.29044 0.93523 0.0
C1148 C 0.05086 0.33292 0.94248 0.0
C1149 C 0.02771 0.34031 0.94859 0.0
C1150 C 1.00603 0.32227 0.94821 0.0
C1151 C 0.00748 0.2976 0.94182 0.0
H1152 H 0.685 0.72932 0.26528 0.0
H1153 H 0.71785 0.80481 0.28817 0.0
H1154 H 0.65137 0.73309 0.29044 0.0
H1155 H 0.68347 0.8089 0.31299 0.0
H1156 H 0.64426 0.79025 0.37774 0.0
H1157 H 0.67303 0.79392 0.34805 0.0
H1158 H 0.61378 0.75101 0.29847 0.0
H1159 H 0.58517 0.74679 0.32832 0.0
C1160 C 0.68484 0.74683 0.27555 0.0
C1161 C 0.70427 0.76667 0.27502 0.0
C1162 C 0.66534 0.7491 0.28976 0.0
C1163 C 0.66473 0.7713 0.30379 0.0
C1164 C 0.68356 0.79149 0.30255 0.0
C1165 C 0.70311 0.78921 0.28824 0.0
C1166 C 0.6372 0.78192 0.36044 0.0
C1167 C 0.61258 0.76786 0.35547 0.0
C1168 C 0.65367 0.78417 0.34337 0.0
C1169 C 0.64582 0.77249 0.32093 0.0
C1170 C 0.62057 0.75982 0.31568 0.0
C1171 C 0.60414 0.75749 0.33277 0.0
H1172 H 0.12169 0.10437 1.00212 0.0
H1173 H 0.04264 0.07922 0.01138 0.0
H1174 H 0.10784 0.12114 0.96856 0.0
H1175 H 0.02862 0.09605 0.97762 0.0
H1176 H 0.07954 0.14358 0.9048 0.0
H1177 H 0.08535 0.11279 0.92899 0.0
H1178 H 0.03128 0.14009 0.97265 0.0
H1179 H 0.02546 0.17077 0.94859 0.0
C1180 C 0.10135 0.10201 0.99664 0.0
C1181 C 0.08321 0.09073 0.00939 0.0
C1182 C 0.0934 0.11141 0.97731 0.0
C1183 C 0.06712 0.10995 0.97048 0.0
C1184 C 0.04899 0.09749 0.98255 0.0
C1185 C 0.05699 0.08779 1.00177 0.0
C1186 C 0.06831 0.14255 0.91916 0.0
C1187 C 0.05235 0.15988 0.92499 0.0
C1188 C 0.07174 0.12498 0.93306 0.0
C1189 C 0.05905 0.12426 0.95288 0.0
C1190 C 0.04125 0.1401 0.95745 0.0
C1191 C 0.038 0.1578 0.94369 0.0
H1192 H 0.33197 0.28723 0.24908 0.0
H1193 H 0.39382 0.27589 0.29585 0.0
H1194 H 0.36043 0.28778 0.21891 0.0
H1195 H 0.42272 0.27726 0.26591 0.0
H1196 H 0.45902 0.25381 0.20024 0.0
H1197 H 0.43273 0.25549 0.23203 0.0
H1198 H 0.3951 0.31009 0.20501 0.0
H1199 H 0.42063 0.30752 0.17275 0.0
C1200 C 0.35179 0.28517 0.25298 0.0
C1201 C 0.3606 0.28147 0.27486 0.0
C1202 C 0.36823 0.28561 0.23568 0.0
C1203 C 0.39408 0.28268 0.23984 0.0
C1204 C 0.40291 0.27919 0.26185 0.0
C1205 C 0.38635 0.27846 0.27909 0.0
C1206 C 0.44533 0.26636 0.20122 0.0
C1207 C 0.44184 0.28042 0.18384 0.0
C1208 C 0.43024 0.26741 0.21955 0.0
C1209 C 0.41145 0.28275 0.22113 0.0
C1210 C 0.40883 0.29757 0.20419 0.0
C1211 C 0.42368 0.2963 0.18574 0.0
H1212 H 0.54525 0.41795 0.03469 0.0
H1213 H 0.61311 0.38386 0.03684 0.0
H1214 H 0.52957 0.39628 0.06497 0.0
H1215 H 0.59704 0.36126 0.06578 0.0
H1216 H 0.56974 0.32198 0.11863 0.0
H1217 H 0.58644 0.35776 0.10208 0.0
H1218 H 0.51106 0.35627 0.06769 0.0
H1219 H 0.49437 0.32156 0.08557 0.0
C1220 C 0.55703 0.40616 0.04188 0.0
C1221 C 0.58023 0.40232 0.03305 0.0
C1222 C 0.5479 0.39348 0.05908 0.0
C1223 C 0.56177 0.37664 0.0678 0.0
C1224 C 0.58578 0.37415 0.05989 0.0
C1225 C 0.59491 0.3869 0.04292 0.0
C1226 C 0.55661 0.33012 0.10837 0.0
C1227 C 0.53077 0.31929 0.10354 0.0
C1228 C 0.5662 0.35037 0.09852 0.0
C1229 C 0.55034 0.35967 0.08294 0.0
C1230 C 0.52395 0.34991 0.07965 0.0
C1231 C 0.51427 0.32997 0.08993 0.0
H1232 H 0.67139 0.19322 0.21938 0.0
H1233 H 0.68823 0.27126 0.22265 0.0
H1234 H 0.62832 0.19308 0.20079 0.0
H1235 H 0.64509 0.27122 0.2045 0.0
H1236 H 0.55825 0.26201 0.18244 0.0
H1237 H 0.59549 0.25982 0.20891 0.0
H1238 H 0.61757 0.20413 0.16019 0.0
H1239 H 0.58094 0.20664 0.13366 0.0
C1240 C 0.66557 0.21038 0.21671 0.0
C1241 C 0.68304 0.23224 0.22235 0.0
C1242 C 0.64105 0.2103 0.206 0.0
C1243 C 0.63344 0.23213 0.20118 0.0
C1244 C 0.65037 0.25417 0.20819 0.0
C1245 C 0.67504 0.25419 0.21847 0.0
C1246 C 0.57088 0.24907 0.17757 0.0
C1247 C 0.5668 0.23461 0.15594 0.0
C1248 C 0.59217 0.24788 0.19266 0.0
C1249 C 0.60932 0.23175 0.1866 0.0
C1250 C 0.60452 0.21653 0.1654 0.0
C1251 C 0.58366 0.21811 0.15016 0.0
H1252 H 0.4182 0.07164 0.02065 0.0
H1253 H 0.49375 0.08592 0.99789 0.0
H1254 H 0.42846 0.10814 0.04902 0.0
H1255 H 0.50404 0.12274 0.02641 0.0
H1256 H 0.49778 0.20122 0.06029 0.0
H1257 H 0.49168 0.16306 0.03399 0.0
H1258 H 0.45503 0.12556 0.08427 0.0
H1259 H 0.46088 0.16392 0.11058 0.0
C1260 C 0.43718 0.08236 0.02193 0.0
C1261 C 0.45522 0.07569 0.00706 0.0
C1262 C 0.44307 0.10334 0.03825 0.0
C1263 C 0.46714 0.11833 0.04013 0.0
C1264 C 0.48524 0.11171 0.02529 0.0
C1265 C 0.47934 0.09063 0.00893 0.0
C1266 C 0.48876 0.18481 0.06592 0.0
C1267 C 0.47981 0.18567 0.08758 0.0
C1268 C 0.48532 0.16287 0.05081 0.0
C1269 C 0.47276 0.14123 0.05695 0.0
C1270 C 0.46445 0.14196 0.07887 0.0
C1271 C 0.46793 0.16393 0.09401 0.0
H1272 H 0.35066 0.33794 0.70833 0.0
H1273 H 0.29156 0.3775 0.73202 0.0
H1274 H 0.3819 0.3751 0.71637 0.0
H1275 H 0.32246 0.41549 0.73883 0.0
H1276 H 0.39189 0.47307 0.77196 0.0
H1277 H 0.35773 0.43777 0.7624 0.0
H1278 H 0.3962 0.41134 0.70464 0.0
H1279 H 0.43094 0.44556 0.71535 0.0
C1280 C 0.34432 0.35484 0.71484 0.0
C1281 C 0.31877 0.35501 0.7194 0.0
C1282 C 0.36217 0.37626 0.71931 0.0
C1283 C 0.3548 0.39859 0.72801 0.0
C1284 C 0.32901 0.3987 0.7324 0.0
C1285 C 0.31123 0.37704 0.72836 0.0
C1286 C 0.39279 0.4597 0.75715 0.0
C1287 C 0.41411 0.46177 0.74455 0.0
C1288 C 0.37317 0.43951 0.75156 0.0
C1289 C 0.37427 0.42131 0.73292 0.0
C1290 C 0.395 0.42439 0.71958 0.0
C1291 C 0.41485 0.44414 0.72555 0.0
H1292 H 0.32731 0.68283 0.82946 0.0
H1293 H 0.27639 0.62761 0.78244 0.0
H1294 H 0.3596 0.65614 0.82968 0.0
H1295 H 0.30829 0.60044 0.78315 0.0
H1296 H 0.38266 0.57235 0.76633 0.0
H1297 H 0.34783 0.59596 0.76913 0.0
H1298 H 0.37274 0.62075 0.8405 0.0
H1299 H 0.40831 0.5978 0.83739 0.0
C1300 C 0.32281 0.66473 0.81956 0.0
C1301 C 0.29934 0.65736 0.80587 0.0
C1302 C 0.34132 0.64934 0.81971 0.0
C1303 C 0.33676 0.62606 0.80632 0.0
C1304 C 0.31281 0.61839 0.7933 0.0
C1305 C 0.29442 0.6339 0.79297 0.0
C1306 C 0.38063 0.58268 0.78269 0.0
C1307 C 0.39843 0.58326 0.8016 0.0
C1308 C 0.36047 0.59616 0.78435 0.0
C1309 C 0.35734 0.61043 0.80505 0.0
C1310 C 0.37473 0.61038 0.82416 0.0
C1311 C 0.39506 0.59706 0.82243 0.0
H1312 H 0.93146 0.48552 0.51261 0.0
H1313 H 0.87758 0.48546 0.45438 0.0
H1314 H 0.90214 0.45284 0.52456 0.0
H1315 H 0.84863 0.45243 0.46597 0.0
H1316 H 0.79193 0.4088 0.50441 0.0
H1317 H 0.8206 0.4439 0.49588 0.0
H1318 H 0.88606 0.40936 0.51143 0.0
H1319 H 0.85758 0.37444 0.52021 0.0
C1320 C 0.91334 0.47856 0.50239 0.0
C1321 C 0.90693 0.48798 0.48247 0.0
C1322 C 0.89663 0.45973 0.50914 0.0
C1323 C 0.87304 0.45001 0.49621 0.0
C1324 C 0.86651 0.45966 0.47645 0.0
C1325 C 0.88327 0.47838 0.46964 0.0
C1326 C 0.81244 0.40876 0.50621 0.0
C1327 C 0.82238 0.38868 0.5129 0.0
C1328 C 0.82887 0.42883 0.50118 0.0
C1329 C 0.85562 0.42938 0.50285 0.0
C1330 C 0.86558 0.40963 0.51016 0.0
C1331 C 0.84919 0.38952 0.51508 0.0
H1332 H 0.72833 0.84817 0.81451 0.0
H1333 H 0.78752 0.87144 0.77292 0.0
H1334 H 0.69926 0.87088 0.79585 0.0
H1335 H 0.7591 0.8952 0.75487 0.0
H1336 H 0.70341 0.9329 0.72052 0.0
H1337 H 0.72262 0.89893 0.73149 0.0
H1338 H 0.69516 0.91199 0.79788 0.0
H1339 H 0.67508 0.9452 0.78647 0.0
C1340 C 0.73489 0.85786 0.80102 0.0
C1341 C 0.76009 0.8581 0.79509 0.0
C1342 C 0.71837 0.87112 0.7905 0.0
C1343 C 0.72682 0.88532 0.77406 0.0
C1344 C 0.75166 0.88433 0.76723 0.0
C1345 C 0.76806 0.87074 0.77756 0.0
C1346 C 0.70093 0.92808 0.73726 0.0
C1347 C 0.68788 0.9419 0.75269 0.0
C1348 C 0.71219 0.90873 0.74366 0.0
C1349 C 0.711 0.90288 0.76576 0.0
C1350 C 0.69639 0.91568 0.78064 0.0
C1351 C 0.68483 0.93484 0.77411 0.0
H1352 H 0.61063 0.5595 0.99912 0.0
H1353 H 0.66065 0.50711 0.98189 0.0
H1354 H 0.64731 0.59239 0.00454 0.0
H1355 H 0.69729 0.53995 0.98636 0.0
H1356 H 0.76205 0.604 0.01112 0.0
H1357 H 0.72646 0.57064 0.01046 0.0
H1358 H 0.67428 0.61354 0.98216 0.0
H1359 H 0.70944 0.64695 0.98373 0.0
C1360 C 0.62955 0.55506 0.9966 0.0
C1361 C 0.63278 0.53077 0.99011 0.0
C1362 C 0.65059 0.5739 0.99949 0.0
C1363 C 0.67536 0.56899 0.99557 0.0
C1364 C 0.67865 0.54452 0.9898 0.0
C1365 C 0.65763 0.52564 0.98721 0.0
C1366 C 0.74295 0.60624 0.00476 0.0
C1367 C 0.73862 0.62821 0.99758 0.0
C1368 C 0.72252 0.58708 0.00431 0.0
C1369 C 0.69731 0.58935 0.99645 0.0
C1370 C 0.6932 0.61123 0.98893 0.0
C1371 C 0.71349 0.6304 0.98963 0.0
H1372 H 0.29764 0.66879 0.27739 0.0
H1373 H 0.2719 0.68245 0.21042 0.0
H1374 H 0.26505 0.6326 0.27272 0.0
H1375 H 0.23813 0.64654 0.20652 0.0
H1376 H 0.16742 0.59753 0.24567 0.0
H1377 H 0.1979 0.63409 0.24231 0.0
H1378 H 0.25765 0.59031 0.23258 0.0
H1379 H 0.22746 0.55381 0.23552 0.0
C1380 C 0.28528 0.66402 0.26155 0.0
C1381 C 0.28785 0.67841 0.24408 0.0
C1382 C 0.26643 0.64342 0.25906 0.0
C1383 C 0.24932 0.63693 0.23929 0.0
C1384 C 0.25122 0.65137 0.22194 0.0
C1385 C 0.27046 0.6719 0.22425 0.0
C1386 C 0.18691 0.59564 0.2423 0.0
C1387 C 0.19506 0.5728 0.24096 0.0
C1388 C 0.20422 0.6165 0.24028 0.0
C1389 C 0.22992 0.61479 0.23711 0.0
C1390 C 0.23781 0.59191 0.23484 0.0
C1391 C 0.22051 0.57107 0.23655 0.0
H1392 H 0.93291 0.50988 0.01423 0.0
H1393 H 0.98488 0.5664 0.05909 0.0
H1394 H 0.90495 0.53906 0.00687 0.0
H1395 H 0.95602 0.59542 0.0529 0.0
H1396 H 0.91934 0.64725 0.0136 0.0
H1397 H 0.94492 0.61703 0.02347 0.0
H1398 H 0.8757 0.56425 0.01962 0.0
H1399 H 0.85021 0.59437 0.00879 0.0
C1400 C 0.93814 0.5285 0.02286 0.0
C1401 C 0.96139 0.53588 0.03695 0.0
C1402 C 0.92192 0.54524 0.0188 0.0
C1403 C 0.92833 0.5698 0.02897 0.0
C1404 C 0.95075 0.57681 0.04429 0.0
C1405 C 0.96713 0.56007 0.04818 0.0
C1406 C 0.90959 0.62913 0.01468 0.0
C1407 C 0.88275 0.6232 0.01031 0.0
C1408 C 0.92425 0.61184 0.02064 0.0
C1409 C 0.91245 0.58818 0.02269 0.0
C1410 C 0.88555 0.58217 0.01803 0.0
C1411 C 0.87089 0.59944 0.01179 0.0
H1412 H 0.10005 0.97602 0.02082 0.0
H1413 H 0.10799 0.95712 0.08854 0.0
H1414 H 0.12488 0.94445 0.00733 0.0
H1415 H 0.13201 0.92521 0.07482 0.0
H1416 H 0.15251 0.85544 0.03883 0.0
H1417 H 0.12486 0.88551 0.04829 0.0
H1418 H 0.17083 0.93621 0.01378 0.0
H1419 H 0.19883 0.90595 0.00423 0.0
C1420 C 0.10703 0.96518 0.03285 0.0
C1421 C 0.10194 0.96922 0.05583 0.0
C1422 C 0.12122 0.94707 0.02507 0.0
C1423 C 0.13036 0.93234 0.03998 0.0
C1424 C 0.12491 0.93604 0.06281 0.0
C1425 C 0.11099 0.9543 0.07066 0.0
C1426 C 0.15666 0.87287 0.03299 0.0
C1427 C 0.17807 0.87833 0.02092 0.0
C1428 C 0.14084 0.89016 0.03855 0.0
C1429 C 0.14585 0.91333 0.03205 0.0
C1430 C 0.16647 0.91846 0.01898 0.0
C1431 C 0.18251 0.90115 0.01353 0.0
loop_
_geom_bond_atom_site_label_1
_geom_bond_atom_site_label_2
_geom_bond_distance
_geom_bond_site_symmetry_2
_ccdc_geom_bond_type
H0 C1 0.949 . S
C1 H0 0.949 . S
C1 C2 1.395 . S
C1 C3 1.391 . S
C2 C1 1.395 . S
C2 C5 1.390 . S
C3 C1 1.391 . S
C3 C7 1.387 . S
C3 C8 1.491 . S
H4 C5 0.950 1_565 S
C5 C2 1.390 . S
C5 H4 0.950 1_545 S
C5 C6 1.378 . S
C6 C5 1.378 . S
C6 C7 1.409 . S
C7 C3 1.387 . S
C7 C6 1.409 . S
C7 H9 0.951 . S
C8 C3 1.491 . S
C8 C10 1.382 . S
C8 C12 1.404 . S
H9 C7 0.951 . S
C10 C8 1.382 . S
C10 C11 1.390 1_554 S
C10 H15 0.949 1_554 S
C11 C10 1.390 1_556 S
C11 C16 1.399 1_556 S
C12 C8 1.404 . S
C12 H13 0.950 . S
C12 C14 1.375 . S
H13 C12 0.950 . S
C14 C12 1.375 . S
C14 C16 1.382 . S
C14 H18 0.950 . S
H15 C10 0.949 1_556 S
C16 C11 1.399 1_554 S
C16 C14 1.382 . S
C16 H17 0.952 1_554 S
H17 C16 0.952 1_556 S
H18 C14 0.950 . S
H19 C20 0.949 . S
C20 H19 0.949 . S
C20 C21 1.395 . S
C20 C22 1.391 . S
C21 C20 1.395 . S
C21 C24 1.390 . S
C22 C20 1.391 . S
C22 C26 1.387 . S
C22 C27 1.491 . S
H23 C24 0.950 . S
C24 C21 1.390 . S
C24 H23 0.950 . S
C24 C25 1.378 . S
C25 C24 1.378 . S
C25 C26 1.409 . S
C26 C22 1.387 . S
C26 C25 1.409 . S
C26 H28 0.951 . S
C27 C22 1.491 . S
C27 C29 1.382 . S
C27 C31 1.404 . S
H28 C26 0.951 . S
C29 C27 1.382 . S
C29 C30 1.390 . S
C29 H34 0.949 . S
C30 C29 1.390 . S
C30 C35 1.399 . S
C31 C27 1.404 . S
C31 H32 0.950 . S
C31 C33 1.375 . S
H32 C31 0.950 . S
C33 C31 1.375 . S
C33 C35 1.382 . S
C33 H37 0.950 . S
H34 C29 0.949 . S
C35 C30 1.399 . S
C35 C33 1.382 . S
C35 H36 0.952 . S
H36 C35 0.952 . S
H37 C33 0.950 . S
H38 C39 0.949 . S
C39 H38 0.949 . S
C39 C40 1.395 . S
C39 C41 1.391 1_455 S
C40 C39 1.395 . S
C40 C43 1.390 1_455 S
C41 C39 1.391 1_655 S
C41 C45 1.387 . S
C41 C46 1.480 1_654 S
H42 C43 0.950 . S
C43 C40 1.390 1_655 S
C43 H42 0.950 . S
C43 C44 1.378 . S
C44 C43 1.378 . S
C44 C45 1.409 . S
C45 C41 1.387 . S
C45 C44 1.409 . S
C45 H47 0.951 . S
C46 C41 1.480 1_456 S
C46 C48 1.397 . S
C46 C50 1.407 . S
H47 C45 0.951 . S
C48 C46 1.397 . S
C48 C49 1.406 . S
C48 H53 0.927 1_556 S
C49 C48 1.406 . S
C49 C54 1.399 . S
C50 C46 1.407 . S
C50 H51 0.953 . S
C50 C52 1.375 . S
H51 C50 0.953 . S
C52 C50 1.375 . S
C52 C54 1.382 . S
C52 H56 0.950 . S
H53 C48 0.927 1_554 S
C54 C49 1.399 . S
C54 C52 1.382 . S
C54 H55 0.952 . S
H55 C54 0.952 . S
H56 C52 0.950 . S
H57 C58 0.949 . S
C58 H57 0.949 . S
C58 C59 1.395 . S
C58 C60 1.391 . S
C59 C58 1.395 . S
C59 C62 1.390 . S
C60 C58 1.391 . S
C60 C64 1.387 . S
C60 C65 1.491 . S
H61 C62 0.950 . S
C62 C59 1.390 . S
C62 H61 0.950 . S
C62 C63 1.378 . S
C63 C62 1.378 . S
C63 C64 1.409 . S
C64 C60 1.387 . S
C64 C63 1.409 . S
C64 H66 0.951 . S
C65 C60 1.491 . S
C65 C67 1.382 . S
C65 C69 1.404 . S
H66 C64 0.951 . S
C67 C65 1.382 . S
C67 C68 1.390 . S
C67 H72 0.949 . S
C68 C67 1.390 . S
C68 C73 1.399 . S
C69 C65 1.404 . S
C69 H70 0.950 . S
C69 C71 1.375 . S
H70 C69 0.950 . S
C71 C69 1.375 . S
C71 C73 1.382 . S
C71 H75 0.950 . S
H72 C67 0.949 . S
C73 C68 1.399 . S
C73 C71 1.382 . S
C73 H74 0.952 . S
H74 C73 0.952 . S
H75 C71 0.950 . S
H76 C77 0.949 . S
C77 H76 0.949 . S
C77 C78 1.395 . S
C77 C79 1.391 . S
C78 C77 1.395 . S
C78 C81 1.390 . S
C79 C77 1.391 . S
C79 C83 1.387 . S
C79 C84 1.491 . S
H80 C81 0.950 1_545 S
C81 C78 1.390 . S
C81 H80 0.950 1_565 S
C81 C82 1.378 . S
C82 C81 1.378 . S
C82 C83 1.409 . S
C83 C79 1.387 . S
C83 C82 1.409 . S
C83 H85 0.951 . S
C84 C79 1.491 . S
C84 C86 1.382 . S
C84 C88 1.404 . S
H85 C83 0.951 . S
C86 C84 1.382 . S
C86 C87 1.390 . S
C86 H91 0.949 . S
C87 C86 1.390 . S
C87 C92 1.399 . S
C88 C84 1.404 . S
C88 H89 0.950 . S
C88 C90 1.375 . S
H89 C88 0.950 . S
C90 C88 1.375 . S
C90 C92 1.382 . S
C90 H94 0.950 . S
H91 C86 0.949 . S
C92 C87 1.399 . S
C92 C90 1.382 . S
C92 H93 0.952 . S
H93 C92 0.952 . S
H94 C90 0.950 . S
H95 C96 0.949 . S
C96 H95 0.949 . S
C96 C97 1.395 . S
C96 C98 1.391 . S
C97 C96 1.395 . S
C97 C100 1.390 . S
C98 C96 1.391 . S
C98 C102 1.387 . S
C98 C103 1.491 . S
H99 C100 0.950 . S
C100 C97 1.390 . S
C100 H99 0.950 . S
C100 C101 1.378 . S
C101 C100 1.378 . S
C101 C102 1.409 . S
C102 C98 1.387 . S
C102 C101 1.409 . S
C102 H104 0.951 . S
C103 C98 1.491 . S
C103 C105 1.382 . S
C103 C107 1.404 . S
H104 C102 0.951 . S
C105 C103 1.382 . S
C105 C106 1.390 . S
C105 H110 0.949 . S
C106 C105 1.390 . S
C106 C111 1.399 . S
C107 C103 1.404 . S
C107 H108 0.950 . S
C107 C109 1.375 . S
H108 C107 0.950 . S
C109 C107 1.375 . S
C109 C111 1.382 . S
C109 H113 0.950 . S
H110 C105 0.949 . S
C111 C106 1.399 . S
C111 C109 1.382 . S
C111 H112 0.952 . S
H112 C111 0.952 . S
H113 C109 0.950 . S
H114 C115 0.949 . S
C115 H114 0.949 . S
C115 C116 1.395 . S
C115 C117 1.391 . S
C116 C115 1.395 . S
C116 C119 1.390 . S
C117 C115 1.391 . S
C117 C121 1.387 . S
C117 C122 1.491 . S
H118 C119 0.950 . S
C119 C116 1.390 . S
C119 H118 0.950 . S
C119 C120 1.378 . S
C120 C119 1.378 . S
C120 C121 1.409 . S
C121 C117 1.387 . S
C121 C120 1.409 . S
C121 H123 0.951 . S
C122 C117 1.491 . S
C122 C124 1.382 . S
C122 C126 1.404 . S
H123 C121 0.951 . S
C124 C122 1.382 . S
C124 C125 1.390 1_655 S
C124 H129 0.949 1_655 S
C125 C124 1.390 1_455 S
C125 C130 1.399 1_455 S
C126 C122 1.404 . S
C126 H127 0.950 . S
C126 C128 1.375 . S
H127 C126 0.950 . S
C128 C126 1.375 . S
C128 C130 1.382 . S
C128 H132 0.950 . S
H129 C124 0.949 1_455 S
C130 C125 1.399 1_655 S
C130 C128 1.382 . S
C130 H131 0.952 . S
H131 C130 0.952 . S
H132 C128 0.950 . S
H133 C134 0.949 . S
C134 H133 0.949 . S
C134 C135 1.395 . S
C134 C136 1.391 . S
C135 C134 1.395 . S
C135 C138 1.390 . S
C136 C134 1.391 . S
C136 C140 1.387 . S
C136 C141 1.491 . S
H137 C138 0.950 . S
C138 C135 1.390 . S
C138 H137 0.950 . S
C138 C139 1.378 . S
C139 C138 1.378 . S
C139 C140 1.409 . S
C140 C136 1.387 . S
C140 C139 1.409 . S
C140 H142 0.951 . S
C141 C136 1.491 . S
C141 C143 1.382 . S
C141 C145 1.404 . S
H142 C140 0.951 . S
C143 C141 1.382 . S
C143 C144 1.390 . S
C143 H148 0.949 . S
C144 C143 1.390 . S
C144 C149 1.399 . S
C145 C141 1.404 . S
C145 H146 0.950 . S
C145 C147 1.375 . S
H146 C145 0.950 . S
C147 C145 1.375 . S
C147 C149 1.382 . S
C147 H151 0.950 . S
H148 C143 0.949 . S
C149 C144 1.399 . S
C149 C147 1.382 . S
C149 H150 0.952 . S
H150 C149 0.952 . S
H151 C147 0.950 . S
H152 C153 0.949 . S
C153 H152 0.949 . S
C153 C154 1.395 . S
C153 C155 1.391 . S
C154 C153 1.395 . S
C154 C157 1.390 . S
C155 C153 1.391 . S
C155 C159 1.387 . S
C155 C160 1.491 . S
H156 C157 0.950 . S
C157 C154 1.390 . S
C157 H156 0.950 . S
C157 C158 1.378 . S
C158 C157 1.378 . S
C158 C159 1.409 . S
C159 C155 1.387 . S
C159 C158 1.409 . S
C159 H161 0.951 . S
C160 C155 1.491 . S
C160 C162 1.382 . S
C160 C164 1.404 . S
H161 C159 0.951 . S
C162 C160 1.382 . S
C162 C163 1.390 . S
C162 H167 0.949 . S
C163 C162 1.390 . S
C163 C168 1.399 . S
C164 C160 1.404 . S
C164 H165 0.950 . S
C164 C166 1.375 . S
H165 C164 0.950 . S
C166 C164 1.375 . S
C166 C168 1.382 . S
C166 H170 0.950 . S
H167 C162 0.949 . S
C168 C163 1.399 . S
C168 C166 1.382 . S
C168 H169 0.952 . S
H169 C168 0.952 . S
H170 C166 0.950 . S
H171 C172 0.949 . S
C172 H171 0.949 . S
C172 C173 1.395 . S
C172 C174 1.391 . S
C173 C172 1.395 . S
C173 C176 1.390 . S
C174 C172 1.391 . S
C174 C178 1.387 . S
C174 C179 1.491 . S
H175 C176 0.950 1_545 S
C176 C173 1.390 . S
C176 H175 0.950 1_565 S
C176 C177 1.389 . S
C177 C176 1.389 . S
C177 C178 1.436 . S
C178 C174 1.387 . S
C178 C177 1.436 . S
C178 H180 0.951 . S
C179 C174 1.491 . S
C179 C181 1.382 . S
C179 C183 1.404 . S
H180 C178 0.951 . S
C181 C179 1.382 . S
C181 C182 1.390 . S
C181 H186 0.949 . S
C182 C181 1.390 . S
C182 C187 1.399 . S
C183 C179 1.404 . S
C183 H184 0.950 . S
C183 C185 1.375 . S
H184 C183 0.950 . S
C185 C183 1.375 . S
C185 C187 1.382 . S
C185 H189 0.950 . S
H186 C181 0.949 . S
C187 C182 1.399 . S
C187 C185 1.382 . S
C187 H188 0.952 . S
H188 C187 0.952 . S
H189 C185 0.950 . S
H190 C191 0.949 . S
C191 H190 0.949 . S
C191 C192 1.395 . S
C191 C193 1.391 . S
C192 C191 1.395 . S
C192 C195 1.390 . S
C193 C191 1.391 . S
C193 C197 1.387 . S
C193 C198 1.491 . S
H194 C195 0.950 . S
C195 C192 1.390 . S
C195 H194 0.950 . S
C195 C196 1.378 . S
C196 C195 1.378 . S
C196 C197 1.409 . S
C197 C193 1.387 . S
C197 C196 1.409 . S
C197 H199 0.951 . S
C198 C193 1.491 . S
C198 C200 1.382 . S
C198 C202 1.404 . S
H199 C197 0.951 . S
C200 C198 1.382 . S
C200 C201 1.390 . S
C200 H205 0.949 . S
C201 C200 1.390 . S
C201 C206 1.399 . S
C202 C198 1.404 . S
C202 H203 0.950 . S
C202 C204 1.375 . S
H203 C202 0.950 . S
C204 C202 1.375 . S
C204 C206 1.382 . S
C204 H208 0.950 . S
H205 C200 0.949 . S
C206 C201 1.399 . S
C206 C204 1.382 . S
C206 H207 0.952 . S
H207 C206 0.952 . S
H208 C204 0.950 . S
H209 C210 0.949 . S
C210 H209 0.949 . S
C210 C211 1.395 . S
C210 C212 1.391 . S
C211 C210 1.395 . S
C211 C214 1.390 . S
C212 C210 1.391 . S
C212 C216 1.387 . S
C212 C217 1.491 . S
H213 C214 0.950 . S
C214 C211 1.390 . S
C214 H213 0.950 . S
C214 C215 1.378 . S
C215 C214 1.378 . S
C215 C216 1.409 . S
C216 C212 1.387 . S
C216 C215 1.409 . S
C216 H218 0.951 . S
C217 C212 1.491 . S
C217 C219 1.382 . S
C217 C221 1.404 . S
H218 C216 0.951 . S
C219 C217 1.382 . S
C219 C220 1.390 . S
C219 H224 0.949 . S
C220 C219 1.390 . S
C220 C225 1.399 . S
C221 C217 1.404 . S
C221 H222 0.950 . S
C221 C223 1.375 . S
H222 C221 0.950 . S
C223 C221 1.375 . S
C223 C225 1.382 . S
C223 H227 0.950 . S
H224 C219 0.949 . S
C225 C220 1.399 . S
C225 C223 1.382 . S
C225 H226 0.952 . S
H226 C225 0.952 . S
H227 C223 0.950 . S
H228 C229 0.949 . S
C229 H228 0.949 . S
C229 C230 1.395 . S
C229 C231 1.391 . S
C230 C229 1.395 . S
C230 C233 1.390 . S
C231 C229 1.391 . S
C231 C235 1.387 . S
C231 C236 1.491 . S
H232 C233 0.950 . S
C233 C230 1.390 . S
C233 H232 0.950 . S
C233 C234 1.378 . S
C234 C233 1.378 . S
C234 C235 1.409 . S
C235 C231 1.387 . S
C235 C234 1.409 . S
C235 H237 0.951 . S
C236 C231 1.491 . S
C236 C238 1.382 . S
C236 C240 1.404 . S
H237 C235 0.951 . S
C238 C236 1.382 . S
C238 C239 1.390 . S
C238 H243 0.949 . S
C239 C238 1.390 . S
C239 C244 1.399 . S
C240 C236 1.404 . S
C240 H241 0.950 . S
C240 C242 1.375 . S
H241 C240 0.950 . S
C242 C240 1.375 . S
C242 C244 1.382 . S
C242 H246 0.950 . S
H243 C238 0.949 . S
C244 C239 1.399 . S
C244 C242 1.382 . S
C244 H245 0.952 . S
H245 C244 0.952 . S
H246 C242 0.950 . S
H247 C248 0.949 1_554 S
C248 H247 0.949 1_556 S
C248 C249 1.395 . S
C248 C250 1.391 . S
C249 C248 1.395 . S
C249 C252 1.390 . S
C250 C248 1.391 . S
C250 C254 1.387 . S
C250 C255 1.491 . S
H251 C252 0.950 . S
C252 C249 1.390 . S
C252 H251 0.950 . S
C252 C253 1.378 . S
C253 C252 1.378 . S
C253 C254 1.409 . S
C254 C250 1.387 . S
C254 C253 1.409 . S
C254 H256 0.951 . S
C255 C250 1.491 . S
C255 C257 1.382 1_556 S
C255 C259 1.404 . S
H256 C254 0.951 . S
C257 C255 1.382 1_554 S
C257 C258 1.390 . S
C257 H262 0.949 . S
C258 C257 1.390 . S
C258 C263 1.399 . S
C259 C255 1.404 . S
C259 H260 0.950 . S
C259 C261 1.375 . S
H260 C259 0.950 . S
C261 C259 1.375 . S
C261 C263 1.382 1_556 S
C261 H265 0.950 . S
H262 C257 0.949 . S
C263 C258 1.399 . S
C263 C261 1.382 1_554 S
C263 H264 0.952 . S
H264 C263 0.952 . S
H265 C261 0.950 . S
H266 C267 0.949 . S
C267 H266 0.949 . S
C267 C268 1.395 . S
C267 C269 1.391 . S
C268 C267 1.395 . S
C268 C271 1.390 . S
C269 C267 1.391 . S
C269 C273 1.387 . S
C269 C274 1.491 . S
H270 C271 0.950 . S
C271 C268 1.390 . S
C271 H270 0.950 . S
C271 C272 1.378 . S
C272 C271 1.378 . S
C272 C273 1.409 . S
C273 C269 1.387 . S
C273 C272 1.409 . S
C273 H275 0.951 . S
C274 C269 1.491 . S
C274 C276 1.382 . S
C274 C278 1.404 . S
H275 C273 0.951 . S
C276 C274 1.382 . S
C276 C277 1.390 . S
C276 H281 0.949 . S
C277 C276 1.390 . S
C277 C282 1.399 . S
C278 C274 1.404 . S
C278 H279 0.950 . S
C278 C280 1.375 . S
H279 C278 0.950 . S
C280 C278 1.375 . S
C280 C282 1.382 . S
C280 H284 0.950 . S
H281 C276 0.949 . S
C282 C277 1.399 . S
C282 C280 1.382 . S
C282 H283 0.952 . S
H283 C282 0.952 . S
H284 C280 0.950 . S
H285 C286 0.949 . S
C286 H285 0.949 . S
C286 C287 1.395 . S
C286 C288 1.391 . S
C287 C286 1.395 . S
C287 C290 1.390 . S
C288 C286 1.391 . S
C288 C292 1.387 . S
C288 C293 1.491 . S
H289 C290 0.950 1_554 S
C290 C287 1.390 . S
C290 H289 0.950 1_556 S
C290 C291 1.378 . S
C291 C290 1.378 . S
C291 C292 1.409 . S
C292 C288 1.387 . S
C292 C291 1.409 . S
C292 H294 0.936 1_545 S
C293 C288 1.491 . S
C293 C295 1.382 . S
C293 C297 1.404 . S
H294 C292 0.936 1_565 S
C295 C293 1.382 . S
C295 C296 1.390 . S
C295 H300 0.949 . S
C296 C295 1.390 . S
C296 C301 1.399 . S
C297 C293 1.404 . S
C297 H298 0.950 . S
C297 C299 1.375 . S
H298 C297 0.950 . S
C299 C297 1.375 . S
C299 C301 1.382 . S
C299 H303 0.950 . S
H300 C295 0.949 . S
C301 C296 1.399 . S
C301 C299 1.382 . S
C301 H302 0.952 . S
H302 C301 0.952 . S
H303 C299 0.950 . S
Mg304 O305 2.028 . S
Mg304 O311 1.986 . S
Mg304 O313 2.114 . S
Mg304 O314 2.251 . S
Mg304 O317 2.010 . S
O305 Mg304 2.028 . S
O305 C308 1.250 . S
O306 Mg307 2.028 . S
O306 C308 1.248 . S
Mg307 O306 2.028 . S
Mg307 O312 2.032 1_554 S
Mg307 O314 2.079 . S
C308 O305 1.250 . S
C308 O306 1.248 . S
C309 O310 1.264 . S
C309 O317 1.249 . S
O310 C309 1.264 . S
O311 Mg304 1.986 . S
O311 C315 1.246 1_554 S
O312 Mg307 2.032 1_556 S
O312 C315 1.259 . S
O313 Mg304 2.114 . S
O313 C316 1.252 . S
O314 Mg304 2.251 . S
O314 Mg307 2.079 . S
O314 C316 1.273 . S
C315 O311 1.246 1_556 S
C315 O312 1.259 . S
C316 O313 1.252 . S
C316 O314 1.273 . S
O317 Mg304 2.010 . S
O317 C309 1.249 . S
Mg318 O319 2.028 . S
Mg318 O325 1.986 . S
Mg318 O327 2.114 . S
Mg318 O328 2.251 . S
Mg318 O331 2.010 . S
O319 Mg318 2.028 . S
O319 C322 1.250 . S
O320 Mg321 2.028 . S
O320 C322 1.248 . S
Mg321 O320 2.028 . S
Mg321 O326 2.032 . S
Mg321 O328 2.079 . S
C322 O319 1.250 . S
C322 O320 1.248 . S
C323 O324 1.264 . S
C323 O331 1.249 . S
O324 C323 1.264 . S
O325 Mg318 1.986 . S
O325 C329 1.246 . S
O326 Mg321 2.032 . S
O326 C329 1.259 . S
O327 Mg318 2.114 . S
O327 C330 1.252 . S
O328 Mg318 2.251 . S
O328 Mg321 2.079 . S
O328 C330 1.273 . S
C329 O325 1.246 . S
C329 O326 1.259 . S
C330 O327 1.252 . S
C330 O328 1.273 . S
O331 Mg318 2.010 . S
O331 C323 1.249 . S
Mg332 O333 2.028 1_554 S
Mg332 O339 1.986 1_554 S
Mg332 O341 2.114 . S
Mg332 O342 2.251 . S
Mg332 O345 2.010 . S
O333 Mg332 2.028 1_556 S
O333 C336 1.250 . S
O334 Mg335 2.028 . S
O334 C336 1.248 . S
Mg335 O334 2.028 . S
Mg335 O340 2.032 . S
Mg335 O342 2.079 1_556 S
C336 O333 1.250 . S
C336 O334 1.248 . S
C337 O338 1.264 . S
C337 O345 1.249 . S
O338 C337 1.264 . S
O339 Mg332 1.986 1_556 S
O339 C343 1.246 . S
O340 Mg335 2.032 . S
O340 C343 1.259 . S
O341 Mg332 2.114 . S
O341 C344 1.252 . S
O342 Mg332 2.251 . S
O342 Mg335 2.079 1_554 S
O342 C344 1.273 . S
C343 O339 1.246 . S
C343 O340 1.259 . S
C344 O341 1.252 . S
C344 O342 1.273 . S
O345 Mg332 2.010 . S
O345 C337 1.249 . S
Mg346 O347 2.028 . S
Mg346 O353 1.986 . S
Mg346 O355 2.114 . S
Mg346 O356 2.251 . S
Mg346 O359 2.010 . S
O347 Mg346 2.028 . S
O347 C350 1.250 1_545 S
O348 Mg349 2.028 . S
O348 C350 1.248 . S
Mg349 O348 2.028 . S
Mg349 O354 2.032 1_565 S
Mg349 O356 2.079 1_565 S
C350 O347 1.250 1_565 S
C350 O348 1.248 . S
C351 O352 1.264 . S
C351 O359 1.249 . S
O352 C351 1.264 . S
O353 Mg346 1.986 . S
O353 C357 1.246 . S
O354 Mg349 2.032 1_545 S
O354 C357 1.259 . S
O355 Mg346 2.114 . S
O355 C358 1.252 . S
O356 Mg346 2.251 . S
O356 Mg349 2.079 1_545 S
O356 C358 1.273 . S
C357 O353 1.246 . S
C357 O354 1.259 . S
C358 O355 1.252 . S
C358 O356 1.273 . S
O359 Mg346 2.010 . S
O359 C351 1.249 . S
Mg360 O361 2.028 . S
Mg360 O367 1.986 . S
Mg360 O369 2.114 . S
Mg360 O370 2.251 . S
Mg360 O373 2.010 . S
O361 Mg360 2.028 . S
O361 C364 1.250 . S
O362 Mg363 2.028 . S
O362 C364 1.248 . S
Mg363 O362 2.028 . S
Mg363 O368 2.032 . S
Mg363 O370 2.079 . S
C364 O361 1.250 . S
C364 O362 1.248 . S
C365 O366 1.264 . S
C365 O373 1.249 . S
O366 C365 1.264 . S
O367 Mg360 1.986 . S
O367 C371 1.246 . S
O368 Mg363 2.032 . S
O368 C371 1.259 . S
O369 Mg360 2.114 . S
O369 C372 1.252 . S
O370 Mg360 2.251 . S
O370 Mg363 2.079 . S
O370 C372 1.273 . S
C371 O367 1.246 . S
C371 O368 1.259 . S
C372 O369 1.252 . S
C372 O370 1.273 . S
O373 Mg360 2.010 . S
O373 C365 1.249 . S
Mg374 O375 2.028 . S
Mg374 O381 1.986 . S
Mg374 O383 2.114 . S
Mg374 O384 2.251 . S
Mg374 O387 2.010 . S
O375 Mg374 2.028 . S
O375 C378 1.250 . S
O376 Mg377 2.028 . S
O376 C378 1.248 . S
Mg377 O376 2.028 . S
Mg377 O382 2.032 . S
Mg377 O384 2.079 . S
C378 O375 1.250 . S
C378 O376 1.248 . S
C379 O380 1.264 . S
C379 O387 1.249 . S
O380 C379 1.264 . S
O381 Mg374 1.986 . S
O381 C385 1.246 . S
O382 Mg377 2.032 . S
O382 C385 1.259 . S
O383 Mg374 2.114 . S
O383 C386 1.252 . S
O384 Mg374 2.251 . S
O384 Mg377 2.079 . S
O384 C386 1.273 . S
C385 O381 1.246 . S
C385 O382 1.259 . S
C386 O383 1.252 . S
C386 O384 1.273 . S
O387 Mg374 2.010 . S
O387 C379 1.249 . S
Mg388 O389 2.028 . S
Mg388 O395 1.986 . S
Mg388 O397 2.114 . S
Mg388 O398 2.251 . S
Mg388 O401 2.010 . S
O389 Mg388 2.028 . S
O389 C392 1.250 . S
O390 Mg391 2.028 . S
O390 C392 1.248 . S
Mg391 O390 2.028 . S
Mg391 O396 2.032 . S
Mg391 O398 2.079 . S
C392 O389 1.250 . S
C392 O390 1.248 . S
C393 O394 1.264 . S
C393 O401 1.249 . S
O394 C393 1.264 . S
O395 Mg388 1.986 . S
O395 C399 1.246 . S
O396 Mg391 2.032 . S
O396 C399 1.259 . S
O397 Mg388 2.114 . S
O397 C400 1.252 . S
O398 Mg388 2.251 . S
O398 Mg391 2.079 . S
O398 C400 1.273 . S
C399 O395 1.246 . S
C399 O396 1.259 . S
C400 O397 1.252 . S
C400 O398 1.273 . S
O401 Mg388 2.010 . S
O401 C393 1.249 . S
Mg402 O403 2.028 . S
Mg402 O409 1.986 1_545 S
Mg402 O411 2.114 . S
Mg402 O412 2.251 . S
Mg402 O415 2.010 . S
O403 Mg402 2.028 . S
O403 C406 1.250 . S
O404 Mg405 2.028 . S
O404 C406 1.248 . S
Mg405 O404 2.028 . S
Mg405 O410 2.032 1_545 S
Mg405 O412 2.079 . S
C406 O403 1.250 . S
C406 O404 1.248 . S
C407 O408 1.264 . S
C407 O415 1.249 . S
O408 C407 1.264 . S
O409 Mg402 1.986 1_565 S
O409 C413 1.246 . S
O410 Mg405 2.032 1_565 S
O410 C413 1.259 . S
O411 Mg402 2.114 . S
O411 C414 1.252 . S
O412 Mg402 2.251 . S
O412 Mg405 2.079 . S
O412 C414 1.273 . S
C413 O409 1.246 . S
C413 O410 1.259 . S
C414 O411 1.252 . S
C414 O412 1.273 . S
O415 Mg402 2.010 . S
O415 C407 1.249 . S
Mg416 O417 2.028 . S
Mg416 O423 1.986 . S
Mg416 O425 2.114 . S
Mg416 O426 2.251 . S
Mg416 O429 2.010 . S
O417 Mg416 2.028 . S
O417 C420 1.250 1_455 S
O418 Mg419 2.028 . S
O418 C420 1.248 . S
Mg419 O418 2.028 . S
Mg419 O424 2.032 . S
Mg419 O426 2.079 1_655 S
C420 O417 1.250 1_655 S
C420 O418 1.248 . S
C421 O422 1.264 . S
C421 O429 1.249 . S
O422 C421 1.264 . S
O423 Mg416 1.986 . S
O423 C427 1.246 . S
O424 Mg419 2.032 . S
O424 C427 1.259 1_655 S
O425 Mg416 2.114 . S
O425 C428 1.252 . S
O426 Mg416 2.251 . S
O426 Mg419 2.079 1_455 S
O426 C428 1.273 . S
C427 O423 1.246 . S
C427 O424 1.259 1_455 S
C428 O425 1.252 . S
C428 O426 1.273 . S
O429 Mg416 2.010 . S
O429 C421 1.249 . S
Mg430 O431 2.028 . S
Mg430 O437 1.986 . S
Mg430 O439 2.114 . S
Mg430 O440 2.251 . S
Mg430 O443 2.010 . S
O431 Mg430 2.028 . S
O431 C434 1.250 . S
O432 Mg433 2.028 . S
O432 C434 1.248 . S
Mg433 O432 2.028 . S
Mg433 O438 2.032 . S
Mg433 O440 2.079 . S
C434 O431 1.250 . S
C434 O432 1.248 . S
C435 O436 1.264 . S
C435 O443 1.249 . S
O436 C435 1.264 . S
O437 Mg430 1.986 . S
O437 C441 1.246 . S
O438 Mg433 2.032 . S
O438 C441 1.259 . S
O439 Mg430 2.114 . S
O439 C442 1.252 . S
O440 Mg430 2.251 . S
O440 Mg433 2.079 . S
O440 C442 1.273 . S
C441 O437 1.246 . S
C441 O438 1.259 . S
C442 O439 1.252 . S
C442 O440 1.273 . S
O443 Mg430 2.010 . S
O443 C435 1.249 . S
Mg444 O445 2.028 1_655 S
Mg444 O451 1.986 1_655 S
Mg444 O453 2.114 . S
Mg444 O454 2.251 1_655 S
Mg444 O457 2.010 . S
O445 Mg444 2.028 1_455 S
O445 C448 1.250 . S
O446 Mg447 2.028 . S
O446 C448 1.248 . S
Mg447 O446 2.028 . S
Mg447 O452 2.032 . S
Mg447 O454 2.079 . S
C448 O445 1.250 . S
C448 O446 1.248 . S
C449 O450 1.264 . S
C449 O457 1.249 . S
O450 C449 1.264 . S
O451 Mg444 1.986 1_455 S
O451 C455 1.246 . S
O452 Mg447 2.032 . S
O452 C455 1.259 . S
O453 Mg444 2.114 . S
O453 C456 1.252 . S
O454 Mg444 2.251 1_455 S
O454 Mg447 2.079 . S
O454 C456 1.273 1_455 S
C455 O451 1.246 . S
C455 O452 1.259 . S
C456 O453 1.252 . S
C456 O454 1.273 1_655 S
O457 Mg444 2.010 . S
O457 C449 1.249 . S
Mg458 O459 2.028 . S
Mg458 O465 1.986 . S
Mg458 O467 2.114 . S
Mg458 O468 2.251 . S
Mg458 O471 2.010 . S
O459 Mg458 2.028 . S
O459 C462 1.250 . S
O460 Mg461 2.028 . S
O460 C462 1.248 . S
Mg461 O460 2.028 . S
Mg461 O466 2.032 . S
Mg461 O468 2.079 . S
C462 O459 1.250 . S
C462 O460 1.248 . S
C463 O464 1.264 . S
C463 O471 1.249 . S
O464 C463 1.264 . S
O465 Mg458 1.986 . S
O465 C469 1.246 . S
O466 Mg461 2.032 . S
O466 C469 1.259 . S
O467 Mg458 2.114 . S
O467 C470 1.252 . S
O468 Mg458 2.251 . S
O468 Mg461 2.079 . S
O468 C470 1.273 . S
C469 O465 1.246 . S
C469 O466 1.259 . S
C470 O467 1.252 . S
C470 O468 1.273 . S
O471 Mg458 2.010 . S
O471 C463 1.249 . S
H472 C480 0.950 . S
H473 C485 0.950 . S
H474 C482 0.950 . S
H475 C484 0.950 . S
H476 C486 0.950 . S
H477 C488 0.950 . S
H478 C490 0.950 . S
H479 C491 0.950 . S
C480 H472 0.950 . S
C480 C481 1.386 . S
C480 C482 1.391 . S
C481 C480 1.386 . S
C481 C485 1.393 . S
C482 H474 0.950 . S
C482 C480 1.391 . S
C482 C483 1.400 . S
C483 C482 1.400 . S
C483 C484 1.398 . S
C483 C489 1.491 . S
C484 H475 0.950 . S
C484 C483 1.398 . S
C484 C485 1.391 . S
C485 H473 0.950 . S
C485 C481 1.393 . S
C485 C484 1.391 . S
C486 H476 0.950 . S
C486 C487 1.386 . S
C486 C488 1.391 . S
C487 C486 1.386 . S
C487 C491 1.393 . S
C488 H477 0.950 . S
C488 C486 1.391 . S
C488 C489 1.400 . S
C489 C483 1.491 . S
C489 C488 1.400 . S
C489 C490 1.398 . S
C490 H478 0.950 . S
C490 C489 1.398 . S
C490 C491 1.391 . S
C491 H479 0.950 . S
C491 C487 1.393 . S
C491 C490 1.391 . S
H492 C500 0.950 . S
H493 C505 0.975 . S
H494 C502 0.950 . S
H495 C504 0.950 . S
H496 C506 0.950 . S
H497 C508 0.950 . S
H498 C510 0.950 . S
H499 C511 0.950 . S
C500 H492 0.950 . S
C500 C501 1.386 . S
C500 C502 1.391 . S
C501 C500 1.386 . S
C501 C505 1.393 . S
C502 H494 0.950 . S
C502 C500 1.391 . S
C502 C503 1.400 . S
C503 C502 1.400 . S
C503 C504 1.398 . S
C503 C509 1.491 . S
C504 H495 0.950 . S
C504 C503 1.398 . S
C504 C505 1.391 . S
C505 H493 0.975 . S
C505 C501 1.393 . S
C505 C504 1.391 . S
C506 H496 0.950 . S
C506 C507 1.386 . S
C506 C508 1.391 . S
C507 C506 1.386 . S
C507 C511 1.393 . S
C508 H497 0.950 . S
C508 C506 1.391 . S
C508 C509 1.400 . S
C509 C503 1.491 . S
C509 C508 1.400 . S
C509 C510 1.398 . S
C510 H498 0.950 . S
C510 C509 1.398 . S
C510 C511 1.391 . S
C511 H499 0.950 . S
C511 C507 1.393 . S
C511 C510 1.391 . S
H512 C520 0.950 . S
H513 C525 0.950 . S
H514 C522 0.950 . S
H515 C524 0.950 . S
H516 C526 0.950 . S
H517 C528 0.950 . S
H518 C530 0.950 . S
H519 C531 0.950 . S
C520 H512 0.950 . S
C520 C521 1.386 . S
C520 C522 1.391 . S
C521 C520 1.386 . S
C521 C525 1.393 . S
C522 H514 0.950 . S
C522 C520 1.391 . S
C522 C523 1.400 . S
C523 C522 1.400 . S
C523 C524 1.398 . S
C523 C529 1.491 . S
C524 H515 0.950 . S
C524 C523 1.398 . S
C524 C525 1.391 . S
C525 H513 0.950 . S
C525 C521 1.393 . S
C525 C524 1.391 . S
C526 H516 0.950 . S
C526 C527 1.386 . S
C526 C528 1.391 . S
C527 C526 1.386 . S
C527 C531 1.393 . S
C528 H517 0.950 . S
C528 C526 1.391 . S
C528 C529 1.400 . S
C529 C523 1.491 . S
C529 C528 1.400 . S
C529 C530 1.398 . S
C530 H518 0.950 . S
C530 C529 1.398 . S
C530 C531 1.391 . S
C531 H519 0.950 . S
C531 C527 1.393 . S
C531 C530 1.391 . S
H532 C540 0.950 . S
H533 C545 0.950 . S
H534 C542 0.950 . S
H535 C544 0.950 . S
H536 C546 0.950 . S
H537 C548 0.934 1_665 S
H538 C550 0.950 . S
H539 C551 0.950 . S
C540 H532 0.950 . S
C540 C541 1.386 1_545 S
C540 C542 1.391 . S
C541 C540 1.386 1_565 S
C541 C545 1.393 . S
C542 H534 0.950 . S
C542 C540 1.391 . S
C542 C543 1.400 . S
C543 C542 1.400 . S
C543 C544 1.398 1_545 S
C543 C549 1.491 . S
C544 H535 0.950 . S
C544 C543 1.398 1_565 S
C544 C545 1.391 . S
C545 H533 0.950 . S
C545 C541 1.393 . S
C545 C544 1.391 . S
C546 H536 0.950 . S
C546 C547 1.365 1_655 S
C546 C548 1.376 1_655 S
C547 C546 1.365 1_455 S
C547 C551 1.435 . S
C548 H537 0.934 1_445 S
C548 C546 1.376 1_455 S
C548 C549 1.431 . S
C549 C543 1.491 . S
C549 C548 1.431 . S
C549 C550 1.398 . S
C550 H538 0.950 . S
C550 C549 1.398 . S
C550 C551 1.391 . S
C551 H539 0.950 . S
C551 C547 1.435 . S
C551 C550 1.391 . S
H552 C560 0.950 . S
H553 C565 0.950 . S
H554 C562 0.950 . S
H555 C564 0.950 . S
H556 C566 0.950 . S
H557 C568 0.950 . S
H558 C570 0.950 . S
H559 C571 0.950 . S
C560 H552 0.950 . S
C560 C561 1.386 . S
C560 C562 1.391 . S
C561 C560 1.386 . S
C561 C565 1.393 . S
C562 H554 0.950 . S
C562 C560 1.391 . S
C562 C563 1.400 . S
C563 C562 1.400 . S
C563 C564 1.398 . S
C563 C569 1.491 . S
C564 H555 0.950 . S
C564 C563 1.398 . S
C564 C565 1.391 . S
C565 H553 0.950 . S
C565 C561 1.393 . S
C565 C564 1.391 . S
C566 H556 0.950 . S
C566 C567 1.386 . S
C566 C568 1.391 . S
C567 C566 1.386 . S
C567 C571 1.393 . S
C568 H557 0.950 . S
C568 C566 1.391 . S
C568 C569 1.400 . S
C569 C563 1.491 . S
C569 C568 1.400 . S
C569 C570 1.398 . S
C570 H558 0.950 . S
C570 C569 1.398 . S
C570 C571 1.391 . S
C571 H559 0.950 . S
C571 C567 1.393 . S
C571 C570 1.391 . S
H572 C580 0.950 . S
H573 C585 0.950 . S
H574 C582 0.950 . S
H575 C584 0.950 . S
H576 C586 0.950 . S
H577 C588 0.950 . S
H578 C590 0.950 . S
H579 C591 0.950 . S
C580 H572 0.950 . S
C580 C581 1.386 . S
C580 C582 1.391 . S
C581 C580 1.386 . S
C581 C585 1.393 . S
C582 H574 0.950 . S
C582 C580 1.391 . S
C582 C583 1.400 . S
C583 C582 1.400 . S
C583 C584 1.398 . S
C583 C589 1.491 . S
C584 H575 0.950 . S
C584 C583 1.398 . S
C584 C585 1.391 . S
C585 H573 0.950 . S
C585 C581 1.393 . S
C585 C584 1.391 . S
C586 H576 0.950 . S
C586 C587 1.386 . S
C586 C588 1.391 . S
C587 C586 1.386 . S
C587 C591 1.393 . S
C588 H577 0.950 . S
C588 C586 1.391 . S
C588 C589 1.400 . S
C589 C583 1.491 . S
C589 C588 1.400 . S
C589 C590 1.398 . S
C590 H578 0.950 . S
C590 C589 1.398 . S
C590 C591 1.391 . S
C591 H579 0.950 . S
C591 C587 1.393 . S
C591 C590 1.391 . S
H592 C600 0.950 . S
H593 C605 0.950 . S
H594 C602 0.950 . S
H595 C604 0.950 . S
H596 C606 0.950 . S
H597 C608 0.950 . S
H598 C610 0.950 . S
H599 C611 0.950 . S
C600 H592 0.950 . S
C600 C601 1.386 . S
C600 C602 1.391 . S
C601 C600 1.386 . S
C601 C605 1.393 . S
C602 H594 0.950 . S
C602 C600 1.391 . S
C602 C603 1.400 . S
C603 C602 1.400 . S
C603 C604 1.398 . S
C603 C609 1.491 . S
C604 H595 0.950 . S
C604 C603 1.398 . S
C604 C605 1.391 . S
C605 H593 0.950 . S
C605 C601 1.393 . S
C605 C604 1.391 . S
C606 H596 0.950 . S
C606 C607 1.386 . S
C606 C608 1.391 . S
C607 C606 1.386 . S
C607 C611 1.393 . S
C608 H597 0.950 . S
C608 C606 1.391 . S
C608 C609 1.400 . S
C609 C603 1.491 . S
C609 C608 1.400 . S
C609 C610 1.398 . S
C610 H598 0.950 . S
C610 C609 1.398 . S
C610 C611 1.391 . S
C611 H599 0.950 . S
C611 C607 1.393 . S
C611 C610 1.391 . S
H612 C620 0.950 . S
H613 C625 0.950 . S
H614 C622 0.950 . S
H615 C624 0.950 . S
H616 C626 0.950 . S
H617 C628 0.950 . S
H618 C630 0.950 . S
H619 C631 0.950 . S
C620 H612 0.950 . S
C620 C621 1.386 1_545 S
C620 C622 1.391 . S
C621 C620 1.386 1_565 S
C621 C625 1.393 . S
C622 H614 0.950 . S
C622 C620 1.391 . S
C622 C623 1.400 1_545 S
C623 C622 1.400 1_565 S
C623 C624 1.398 . S
C623 C629 1.491 . S
C624 H615 0.950 . S
C624 C623 1.398 . S
C624 C625 1.391 . S
C625 H613 0.950 . S
C625 C621 1.393 . S
C625 C624 1.391 . S
C626 H616 0.950 . S
C626 C627 1.386 1_565 S
C626 C628 1.391 . S
C627 C626 1.386 1_545 S
C627 C631 1.393 . S
C628 H617 0.950 . S
C628 C626 1.391 . S
C628 C629 1.400 . S
C629 C623 1.491 . S
C629 C628 1.400 . S
C629 C630 1.398 1_565 S
C630 H618 0.950 . S
C630 C629 1.398 1_545 S
C630 C631 1.391 . S
C631 H619 0.950 . S
C631 C627 1.393 . S
C631 C630 1.391 . S
H632 C640 0.950 . S
H633 C645 0.950 . S
H634 C642 0.950 . S
H635 C644 0.950 . S
H636 C646 0.950 . S
H637 C648 0.950 . S
H638 C650 0.950 . S
H639 C651 0.950 . S
C640 H632 0.950 . S
C640 C641 1.386 . S
C640 C642 1.391 . S
C641 C640 1.386 . S
C641 C645 1.393 . S
C642 H634 0.950 . S
C642 C640 1.391 . S
C642 C643 1.400 . S
C643 C642 1.400 . S
C643 C644 1.398 . S
C643 C649 1.491 . S
C644 H635 0.950 . S
C644 C643 1.398 . S
C644 C645 1.391 . S
C645 H633 0.950 . S
C645 C641 1.393 . S
C645 C644 1.391 . S
C646 H636 0.950 . S
C646 C647 1.386 . S
C646 C648 1.391 . S
C647 C646 1.386 . S
C647 C651 1.393 . S
C648 H637 0.950 . S
C648 C646 1.391 . S
C648 C649 1.400 . S
C649 C643 1.491 . S
C649 C648 1.400 . S
C649 C650 1.398 . S
C650 H638 0.950 . S
C650 C649 1.398 . S
C650 C651 1.391 . S
C651 H639 0.950 . S
C651 C647 1.393 . S
C651 C650 1.391 . S
H652 C660 0.950 . S
H653 C665 0.950 . S
H654 C662 0.950 . S
H655 C664 0.950 . S
H656 C666 0.950 . S
H657 C668 0.950 . S
H658 C670 0.950 . S
H659 C671 0.950 . S
C660 H652 0.950 . S
C660 C661 1.386 . S
C660 C662 1.391 . S
C661 C660 1.386 . S
C661 C665 1.393 . S
C662 H654 0.950 . S
C662 C660 1.391 . S
C662 C663 1.400 . S
C663 C662 1.400 . S
C663 C664 1.398 . S
C663 C669 1.491 . S
C664 H655 0.950 . S
C664 C663 1.398 . S
C664 C665 1.391 . S
C665 H653 0.950 . S
C665 C661 1.393 . S
C665 C664 1.391 . S
C666 H656 0.950 . S
C666 C667 1.386 . S
C666 C668 1.391 . S
C667 C666 1.386 . S
C667 C671 1.393 . S
C668 H657 0.950 . S
C668 C666 1.391 . S
C668 C669 1.400 . S
C669 C663 1.491 . S
C669 C668 1.400 . S
C669 C670 1.398 . S
C670 H658 0.950 . S
C670 C669 1.398 . S
C670 C671 1.391 . S
C671 H659 0.950 . S
C671 C667 1.393 . S
C671 C670 1.391 . S
H672 C680 0.950 . S
H673 C685 0.950 . S
H674 C682 0.950 . S
H675 C684 0.950 . S
H676 C686 0.950 . S
H677 C688 0.950 . S
H678 C690 0.950 . S
H679 C691 0.950 . S
C680 H672 0.950 . S
C680 C681 1.386 . S
C680 C682 1.391 . S
C681 C680 1.386 . S
C681 C685 1.393 . S
C682 H674 0.950 . S
C682 C680 1.391 . S
C682 C683 1.400 . S
C683 C682 1.400 . S
C683 C684 1.398 . S
C683 C689 1.491 . S
C684 H675 0.950 . S
C684 C683 1.398 . S
C684 C685 1.391 . S
C685 H673 0.950 . S
C685 C681 1.393 . S
C685 C684 1.391 . S
C686 H676 0.950 . S
C686 C687 1.386 . S
C686 C688 1.391 . S
C687 C686 1.386 . S
C687 C691 1.393 . S
C688 H677 0.950 . S
C688 C686 1.391 . S
C688 C689 1.400 . S
C689 C683 1.491 . S
C689 C688 1.400 . S
C689 C690 1.398 . S
C690 H678 0.950 . S
C690 C689 1.398 . S
C690 C691 1.391 . S
C691 H679 0.950 . S
C691 C687 1.393 . S
C691 C690 1.391 . S
H692 C700 0.950 . S
H693 C705 0.950 . S
H694 C702 0.950 . S
H695 C704 0.950 . S
H696 C706 0.950 . S
H697 C708 0.950 . S
H698 C710 0.950 . S
H699 C711 0.950 . S
C700 H692 0.950 . S
C700 C701 1.386 . S
C700 C702 1.391 . S
C701 C700 1.386 . S
C701 C705 1.393 . S
C702 H694 0.950 . S
C702 C700 1.391 . S
C702 C703 1.400 . S
C703 C702 1.400 . S
C703 C704 1.398 . S
C703 C709 1.491 . S
C704 H695 0.950 . S
C704 C703 1.398 . S
C704 C705 1.391 . S
C705 H693 0.950 . S
C705 C701 1.393 . S
C705 C704 1.391 . S
C706 H696 0.950 . S
C706 C707 1.386 . S
C706 C708 1.391 . S
C707 C706 1.386 . S
C707 C711 1.393 . S
C708 H697 0.950 . S
C708 C706 1.391 . S
C708 C709 1.400 . S
C709 C703 1.491 . S
C709 C708 1.400 . S
C709 C710 1.398 . S
C710 H698 0.950 . S
C710 C709 1.398 . S
C710 C711 1.391 . S
C711 H699 0.950 . S
C711 C707 1.393 . S
C711 C710 1.391 . S
H712 C720 0.950 . S
H713 C725 0.950 . S
H714 C722 0.950 . S
H715 C724 0.950 . S
H716 C726 0.950 . S
H717 C728 0.950 . S
H718 C730 0.950 . S
H719 C731 0.950 . S
C720 H712 0.950 . S
C720 C721 1.386 . S
C720 C722 1.391 . S
C721 C720 1.386 . S
C721 C725 1.393 . S
C722 H714 0.950 . S
C722 C720 1.391 . S
C722 C723 1.400 . S
C723 C722 1.400 . S
C723 C724 1.398 . S
C723 C729 1.491 . S
C724 H715 0.950 . S
C724 C723 1.398 . S
C724 C725 1.391 . S
C725 H713 0.950 . S
C725 C721 1.393 . S
C725 C724 1.391 . S
C726 H716 0.950 . S
C726 C727 1.386 . S
C726 C728 1.391 . S
C727 C726 1.386 . S
C727 C731 1.393 . S
C728 H717 0.950 . S
C728 C726 1.391 . S
C728 C729 1.400 . S
C729 C723 1.491 . S
C729 C728 1.400 . S
C729 C730 1.398 . S
C730 H718 0.950 . S
C730 C729 1.398 . S
C730 C731 1.391 . S
C731 H719 0.950 . S
C731 C727 1.393 . S
C731 C730 1.391 . S
H732 C740 0.950 . S
H733 C745 0.950 . S
H734 C742 0.950 . S
H735 C744 0.950 . S
H736 C746 0.950 . S
H737 C748 0.950 . S
H738 C750 0.950 . S
H739 C751 0.950 . S
C740 H732 0.950 . S
C740 C741 1.386 . S
C740 C742 1.391 . S
C741 C740 1.386 . S
C741 C745 1.393 . S
C742 H734 0.950 . S
C742 C740 1.391 . S
C742 C743 1.400 . S
C743 C742 1.400 . S
C743 C744 1.398 . S
C743 C749 1.491 . S
C744 H735 0.950 . S
C744 C743 1.398 . S
C744 C745 1.391 . S
C745 H733 0.950 . S
C745 C741 1.393 . S
C745 C744 1.391 . S
C746 H736 0.950 . S
C746 C747 1.386 . S
C746 C748 1.391 . S
C747 C746 1.386 . S
C747 C751 1.393 . S
C748 H737 0.950 . S
C748 C746 1.391 . S
C748 C749 1.400 . S
C749 C743 1.491 . S
C749 C748 1.400 . S
C749 C750 1.398 . S
C750 H738 0.950 . S
C750 C749 1.398 . S
C750 C751 1.391 . S
C751 H739 0.950 . S
C751 C747 1.393 . S
C751 C750 1.391 . S
H752 C760 0.950 . S
H753 C765 0.950 . S
H754 C762 0.950 . S
H755 C764 0.950 . S
H756 C766 0.950 . S
H757 C768 0.950 . S
H758 C770 0.950 . S
H759 C771 0.950 . S
C760 H752 0.950 . S
C760 C761 1.386 . S
C760 C762 1.391 . S
C761 C760 1.386 . S
C761 C765 1.393 . S
C762 H754 0.950 . S
C762 C760 1.391 . S
C762 C763 1.400 . S
C763 C762 1.400 . S
C763 C764 1.398 . S
C763 C769 1.491 . S
C764 H755 0.950 . S
C764 C763 1.398 . S
C764 C765 1.391 . S
C765 H753 0.950 . S
C765 C761 1.393 . S
C765 C764 1.391 . S
C766 H756 0.950 . S
C766 C767 1.386 . S
C766 C768 1.391 . S
C767 C766 1.386 . S
C767 C771 1.393 . S
C768 H757 0.950 . S
C768 C766 1.391 . S
C768 C769 1.400 . S
C769 C763 1.491 . S
C769 C768 1.400 . S
C769 C770 1.398 . S
C770 H758 0.950 . S
C770 C769 1.398 . S
C770 C771 1.391 . S
C771 H759 0.950 . S
C771 C767 1.393 . S
C771 C770 1.391 . S
H772 C780 0.950 . S
H773 C785 0.950 . S
H774 C782 0.949 1_455 S
H775 C784 0.950 . S
H776 C786 0.950 . S
H777 C788 0.950 . S
H778 C790 0.950 1_455 S
H779 C791 0.968 . S
C780 H772 0.950 . S
C780 C781 1.386 . S
C780 C782 1.391 . S
C781 C780 1.386 . S
C781 C785 1.393 . S
C782 H774 0.949 1_655 S
C782 C780 1.391 . S
C782 C783 1.400 . S
C783 C782 1.400 . S
C783 C784 1.398 . S
C783 C789 1.491 . S
C784 H775 0.950 . S
C784 C783 1.398 . S
C784 C785 1.391 . S
C785 H773 0.950 . S
C785 C781 1.393 . S
C785 C784 1.391 . S
C786 H776 0.950 . S
C786 C787 1.386 . S
C786 C788 1.391 . S
C787 C786 1.386 . S
C787 C791 1.374 1_655 S
C788 H777 0.950 . S
C788 C786 1.391 . S
C788 C789 1.400 . S
C789 C783 1.491 . S
C789 C788 1.400 . S
C789 C790 1.398 . S
C790 H778 0.950 1_655 S
C790 C789 1.398 . S
C790 C791 1.393 1_655 S
C791 H779 0.968 . S
C791 C787 1.374 1_455 S
C791 C790 1.393 1_455 S
H792 C800 0.950 . S
H793 C805 0.950 . S
H794 C802 0.950 . S
H795 C804 0.950 . S
H796 C806 0.950 . S
H797 C808 0.950 . S
H798 C810 0.950 . S
H799 C811 0.950 . S
C800 H792 0.950 . S
C800 C801 1.386 . S
C800 C802 1.391 . S
C801 C800 1.386 . S
C801 C805 1.393 . S
C802 H794 0.950 . S
C802 C800 1.391 . S
C802 C803 1.400 . S
C803 C802 1.400 . S
C803 C804 1.398 . S
C803 C809 1.491 . S
C804 H795 0.950 . S
C804 C803 1.398 . S
C804 C805 1.391 . S
C805 H793 0.950 . S
C805 C801 1.393 . S
C805 C804 1.391 . S
C806 H796 0.950 . S
C806 C807 1.386 . S
C806 C808 1.391 . S
C807 C806 1.386 . S
C807 C811 1.393 . S
C808 H797 0.950 . S
C808 C806 1.391 . S
C808 C809 1.400 . S
C809 C803 1.491 . S
C809 C808 1.400 . S
C809 C810 1.398 . S
C810 H798 0.950 . S
C810 C809 1.398 . S
C810 C811 1.391 . S
C811 H799 0.950 . S
C811 C807 1.393 . S
C811 C810 1.391 . S
H812 C820 0.950 . S
H813 C825 0.950 . S
H814 C822 0.950 . S
H815 C824 0.950 . S
H816 C826 0.950 . S
H817 C828 0.950 . S
H818 C830 0.950 . S
H819 C831 0.950 . S
C820 H812 0.950 . S
C820 C821 1.386 . S
C820 C822 1.391 . S
C821 C820 1.386 . S
C821 C825 1.393 . S
C822 H814 0.950 . S
C822 C820 1.391 . S
C822 C823 1.400 . S
C823 C822 1.400 . S
C823 C824 1.398 . S
C823 C829 1.491 . S
C824 H815 0.950 . S
C824 C823 1.398 . S
C824 C825 1.391 . S
C825 H813 0.950 . S
C825 C821 1.393 . S
C825 C824 1.391 . S
C826 H816 0.950 . S
C826 C827 1.386 . S
C826 C828 1.391 . S
C827 C826 1.386 . S
C827 C831 1.393 . S
C828 H817 0.950 . S
C828 C826 1.391 . S
C828 C829 1.400 . S
C829 C823 1.491 . S
C829 C828 1.400 . S
C829 C830 1.398 . S
C830 H818 0.950 . S
C830 C829 1.398 . S
C830 C831 1.391 . S
C831 H819 0.950 . S
C831 C827 1.393 . S
C831 C830 1.391 . S
H832 C840 0.950 . S
H833 C845 0.949 . S
H834 C842 0.950 . S
H835 C844 0.950 . S
H836 C846 0.950 . S
H837 C848 0.950 . S
H838 C850 0.950 1_556 S
H839 C851 0.950 . S
C840 H832 0.950 . S
C840 C841 1.386 . S
C840 C842 1.391 1_545 S
C841 C840 1.386 . S
C841 C845 1.393 1_545 S
C842 H834 0.950 . S
C842 C840 1.391 1_565 S
C842 C843 1.400 . S
C843 C842 1.400 . S
C843 C844 1.398 1_556 S
C843 C849 1.491 1_556 S
C844 H835 0.950 . S
C844 C843 1.398 1_554 S
C844 C845 1.391 1_554 S
C845 H833 0.949 . S
C845 C841 1.393 1_565 S
C845 C844 1.391 1_556 S
C846 H836 0.950 . S
C846 C847 1.386 . S
C846 C848 1.391 . S
C847 C846 1.386 . S
C847 C851 1.393 . S
C848 H837 0.950 . S
C848 C846 1.391 . S
C848 C849 1.400 . S
C849 C843 1.491 1_554 S
C849 C848 1.400 . S
C849 C850 1.398 . S
C850 H838 0.950 1_554 S
C850 C849 1.398 . S
C850 C851 1.391 . S
C851 H839 0.950 . S
C851 C847 1.393 . S
C851 C850 1.391 . S
H852 C860 0.950 . S
H853 C865 0.950 . S
H854 C862 0.950 . S
H855 C864 0.950 . S
H856 C866 0.950 . S
H857 C868 0.950 . S
H858 C870 0.950 . S
H859 C871 0.950 . S
C860 H852 0.950 . S
C860 C861 1.386 . S
C860 C862 1.391 . S
C861 C860 1.386 . S
C861 C865 1.393 . S
C862 H854 0.950 . S
C862 C860 1.391 . S
C862 C863 1.400 . S
C863 C862 1.400 . S
C863 C864 1.398 . S
C863 C869 1.491 . S
C864 H855 0.950 . S
C864 C863 1.398 . S
C864 C865 1.391 . S
C865 H853 0.950 . S
C865 C861 1.393 . S
C865 C864 1.391 . S
C866 H856 0.950 . S
C866 C867 1.386 . S
C866 C868 1.391 . S
C867 C866 1.386 . S
C867 C871 1.393 . S
C868 H857 0.950 . S
C868 C866 1.391 . S
C868 C869 1.400 . S
C869 C863 1.491 . S
C869 C868 1.400 . S
C869 C870 1.398 . S
C870 H858 0.950 . S
C870 C869 1.398 . S
C870 C871 1.391 . S
C871 H859 0.950 . S
C871 C867 1.393 . S
C871 C870 1.391 . S
H872 C880 0.950 . S
H873 C885 0.950 . S
H874 C882 0.950 . S
H875 C884 0.950 . S
H876 C886 0.950 . S
H877 C888 0.950 . S
H878 C890 0.950 . S
H879 C891 0.950 . S
C880 H872 0.950 . S
C880 C881 1.386 . S
C880 C882 1.391 . S
C881 C880 1.386 . S
C881 C885 1.393 . S
C882 H874 0.950 . S
C882 C880 1.391 . S
C882 C883 1.400 . S
C883 C882 1.400 . S
C883 C884 1.398 . S
C883 C889 1.491 . S
C884 H875 0.950 . S
C884 C883 1.398 . S
C884 C885 1.391 . S
C885 H873 0.950 . S
C885 C881 1.393 . S
C885 C884 1.391 . S
C886 H876 0.950 . S
C886 C887 1.386 . S
C886 C888 1.391 . S
C887 C886 1.386 . S
C887 C891 1.393 . S
C888 H877 0.950 . S
C888 C886 1.391 . S
C888 C889 1.400 . S
C889 C883 1.491 . S
C889 C888 1.400 . S
C889 C890 1.398 . S
C890 H878 0.950 . S
C890 C889 1.398 . S
C890 C891 1.391 . S
C891 H879 0.950 . S
C891 C887 1.393 . S
C891 C890 1.391 . S
H892 C900 0.950 . S
H893 C905 0.950 . S
H894 C902 0.950 . S
H895 C904 0.950 . S
H896 C906 0.950 . S
H897 C908 0.950 . S
H898 C910 0.950 . S
H899 C911 0.950 . S
C900 H892 0.950 . S
C900 C901 1.386 . S
C900 C902 1.391 . S
C901 C900 1.386 . S
C901 C905 1.393 . S
C902 H894 0.950 . S
C902 C900 1.391 . S
C902 C903 1.400 . S
C903 C902 1.400 . S
C903 C904 1.398 . S
C903 C909 1.491 . S
C904 H895 0.950 . S
C904 C903 1.398 . S
C904 C905 1.391 . S
C905 H893 0.950 . S
C905 C901 1.393 . S
C905 C904 1.391 . S
C906 H896 0.950 . S
C906 C907 1.386 . S
C906 C908 1.391 . S
C907 C906 1.386 . S
C907 C911 1.393 . S
C908 H897 0.950 . S
C908 C906 1.391 . S
C908 C909 1.400 . S
C909 C903 1.491 . S
C909 C908 1.400 . S
C909 C910 1.398 . S
C910 H898 0.950 . S
C910 C909 1.398 . S
C910 C911 1.391 . S
C911 H899 0.950 . S
C911 C907 1.393 . S
C911 C910 1.391 . S
H912 C920 0.950 . S
H913 C925 0.950 1_565 S
H914 C922 0.950 . S
H915 C924 0.950 . S
H916 C926 0.950 . S
H917 C928 0.950 . S
H918 C930 0.950 . S
H919 C931 0.950 . S
C920 H912 0.950 . S
C920 C921 1.386 . S
C920 C922 1.391 . S
C921 C920 1.386 . S
C921 C925 1.393 . S
C922 H914 0.950 . S
C922 C920 1.391 . S
C922 C923 1.400 . S
C923 C922 1.400 . S
C923 C924 1.398 . S
C923 C929 1.491 . S
C924 H915 0.950 . S
C924 C923 1.398 . S
C924 C925 1.391 . S
C925 H913 0.950 1_545 S
C925 C921 1.393 . S
C925 C924 1.391 . S
C926 H916 0.950 . S
C926 C927 1.386 . S
C926 C928 1.391 . S
C927 C926 1.386 . S
C927 C931 1.393 . S
C928 H917 0.950 . S
C928 C926 1.391 . S
C928 C929 1.400 . S
C929 C923 1.491 . S
C929 C928 1.400 . S
C929 C930 1.398 . S
C930 H918 0.950 . S
C930 C929 1.398 . S
C930 C931 1.391 . S
C931 H919 0.950 . S
C931 C927 1.393 . S
C931 C930 1.391 . S
H932 C940 0.950 . S
H933 C945 0.950 . S
H934 C942 0.950 . S
H935 C944 0.950 . S
H936 C946 0.950 . S
H937 C948 0.950 . S
H938 C950 0.950 . S
H939 C951 0.950 . S
C940 H932 0.950 . S
C940 C941 1.386 . S
C940 C942 1.391 . S
C941 C940 1.386 . S
C941 C945 1.393 . S
C942 H934 0.950 . S
C942 C940 1.391 . S
C942 C943 1.400 . S
C943 C942 1.400 . S
C943 C944 1.398 . S
C943 C949 1.491 . S
C944 H935 0.950 . S
C944 C943 1.398 . S
C944 C945 1.391 . S
C945 H933 0.950 . S
C945 C941 1.393 . S
C945 C944 1.391 . S
C946 H936 0.950 . S
C946 C947 1.386 . S
C946 C948 1.391 . S
C947 C946 1.386 . S
C947 C951 1.393 . S
C948 H937 0.950 . S
C948 C946 1.391 . S
C948 C949 1.400 . S
C949 C943 1.491 . S
C949 C948 1.400 . S
C949 C950 1.398 . S
C950 H938 0.950 . S
C950 C949 1.398 . S
C950 C951 1.391 . S
C951 H939 0.950 . S
C951 C947 1.393 . S
C951 C950 1.391 . S
H952 C960 0.950 . S
H953 C965 0.950 . S
H954 C962 0.950 . S
H955 C964 0.950 . S
H956 C966 0.950 . S
H957 C968 0.950 . S
H958 C970 0.950 . S
H959 C971 0.950 . S
C960 H952 0.950 . S
C960 C961 1.386 . S
C960 C962 1.391 . S
C961 C960 1.386 . S
C961 C965 1.393 . S
C962 H954 0.950 . S
C962 C960 1.391 . S
C962 C963 1.400 . S
C963 C962 1.400 . S
C963 C964 1.398 . S
C963 C969 1.491 . S
C964 H955 0.950 . S
C964 C963 1.398 . S
C964 C965 1.391 . S
C965 H953 0.950 . S
C965 C961 1.393 . S
C965 C964 1.391 . S
C966 H956 0.950 . S
C966 C967 1.386 . S
C966 C968 1.391 . S
C967 C966 1.386 . S
C967 C971 1.393 . S
C968 H957 0.950 . S
C968 C966 1.391 . S
C968 C969 1.400 . S
C969 C963 1.491 . S
C969 C968 1.400 . S
C969 C970 1.398 . S
C970 H958 0.950 . S
C970 C969 1.398 . S
C970 C971 1.391 . S
C971 H959 0.950 . S
C971 C967 1.393 . S
C971 C970 1.391 . S
H972 C980 0.950 . S
H973 C985 0.950 . S
H974 C982 0.950 . S
H975 C984 0.950 . S
H976 C986 0.950 . S
H977 C988 0.950 . S
H978 C990 0.950 . S
H979 C991 0.950 . S
C980 H972 0.950 . S
C980 C981 1.386 . S
C980 C982 1.391 . S
C981 C980 1.386 . S
C981 C985 1.393 . S
C982 H974 0.950 . S
C982 C980 1.391 . S
C982 C983 1.400 . S
C983 C982 1.400 . S
C983 C984 1.398 . S
C983 C989 1.491 . S
C984 H975 0.950 . S
C984 C983 1.398 . S
C984 C985 1.391 . S
C985 H973 0.950 . S
C985 C981 1.393 . S
C985 C984 1.391 . S
C986 H976 0.950 . S
C986 C987 1.386 . S
C986 C988 1.391 . S
C987 C986 1.386 . S
C987 C991 1.393 . S
C988 H977 0.950 . S
C988 C986 1.391 . S
C988 C989 1.400 . S
C989 C983 1.491 . S
C989 C988 1.400 . S
C989 C990 1.398 . S
C990 H978 0.950 . S
C990 C989 1.398 . S
C990 C991 1.391 . S
C991 H979 0.950 . S
C991 C987 1.393 . S
C991 C990 1.391 . S
H992 C1000 0.950 . S
H993 C1005 0.950 . S
H994 C1002 0.950 . S
H995 C1004 0.950 . S
H996 C1006 0.950 . S
H997 C1008 0.950 . S
H998 C1010 0.950 . S
H999 C1011 0.950 . S
C1000 H992 0.950 . S
C1000 C1001 1.386 . S
C1000 C1002 1.391 . S
C1001 C1000 1.386 . S
C1001 C1005 1.393 . S
C1002 H994 0.950 . S
C1002 C1000 1.391 . S
C1002 C1003 1.400 . S
C1003 C1002 1.400 . S
C1003 C1004 1.398 . S
C1003 C1009 1.491 . S
C1004 H995 0.950 . S
C1004 C1003 1.398 . S
C1004 C1005 1.391 . S
C1005 H993 0.950 . S
C1005 C1001 1.393 . S
C1005 C1004 1.391 . S
C1006 H996 0.950 . S
C1006 C1007 1.386 . S
C1006 C1008 1.391 . S
C1007 C1006 1.386 . S
C1007 C1011 1.393 . S
C1008 H997 0.950 . S
C1008 C1006 1.391 . S
C1008 C1009 1.400 . S
C1009 C1003 1.491 . S
C1009 C1008 1.400 . S
C1009 C1010 1.398 . S
C1010 H998 0.950 . S
C1010 C1009 1.398 . S
C1010 C1011 1.391 . S
C1011 H999 0.950 . S
C1011 C1007 1.393 . S
C1011 C1010 1.391 . S
H1012 C1020 0.950 . S
H1013 C1025 0.950 . S
H1014 C1022 0.950 . S
H1015 C1024 0.950 . S
H1016 C1026 0.950 . S
H1017 C1028 0.950 . S
H1018 C1030 0.950 . S
H1019 C1031 0.950 . S
C1020 H1012 0.950 . S
C1020 C1021 1.386 . S
C1020 C1022 1.391 . S
C1021 C1020 1.386 . S
C1021 C1025 1.393 . S
C1022 H1014 0.950 . S
C1022 C1020 1.391 . S
C1022 C1023 1.400 . S
C1023 C1022 1.400 . S
C1023 C1024 1.398 . S
C1023 C1029 1.491 . S
C1024 H1015 0.950 . S
C1024 C1023 1.398 . S
C1024 C1025 1.391 . S
C1025 H1013 0.950 . S
C1025 C1021 1.393 . S
C1025 C1024 1.391 . S
C1026 H1016 0.950 . S
C1026 C1027 1.386 . S
C1026 C1028 1.391 . S
C1027 C1026 1.386 . S
C1027 C1031 1.393 . S
C1028 H1017 0.950 . S
C1028 C1026 1.391 . S
C1028 C1029 1.400 . S
C1029 C1023 1.491 . S
C1029 C1028 1.400 . S
C1029 C1030 1.398 . S
C1030 H1018 0.950 . S
C1030 C1029 1.398 . S
C1030 C1031 1.391 . S
C1031 H1019 0.950 . S
C1031 C1027 1.393 . S
C1031 C1030 1.391 . S
H1032 C1040 0.950 . S
H1033 C1045 0.950 . S
H1034 C1042 0.950 . S
H1035 C1044 0.950 . S
H1036 C1046 0.950 . S
H1037 C1048 0.950 . S
H1038 C1050 0.950 . S
H1039 C1051 0.950 . S
C1040 H1032 0.950 . S
C1040 C1041 1.386 . S
C1040 C1042 1.391 . S
C1041 C1040 1.386 . S
C1041 C1045 1.393 . S
C1042 H1034 0.950 . S
C1042 C1040 1.391 . S
C1042 C1043 1.400 . S
C1043 C1042 1.400 . S
C1043 C1044 1.398 . S
C1043 C1049 1.491 . S
C1044 H1035 0.950 . S
C1044 C1043 1.398 . S
C1044 C1045 1.391 . S
C1045 H1033 0.950 . S
C1045 C1041 1.393 . S
C1045 C1044 1.391 . S
C1046 H1036 0.950 . S
C1046 C1047 1.386 . S
C1046 C1048 1.391 . S
C1047 C1046 1.386 . S
C1047 C1051 1.393 . S
C1048 H1037 0.950 . S
C1048 C1046 1.391 . S
C1048 C1049 1.400 . S
C1049 C1043 1.491 . S
C1049 C1048 1.400 . S
C1049 C1050 1.398 . S
C1050 H1038 0.950 . S
C1050 C1049 1.398 . S
C1050 C1051 1.391 . S
C1051 H1039 0.950 . S
C1051 C1047 1.393 . S
C1051 C1050 1.391 . S
H1052 C1060 0.950 . S
H1053 C1065 0.950 1_665 S
H1054 C1062 0.950 . S
H1055 C1064 0.950 . S
H1056 C1066 0.950 . S
H1057 C1068 0.950 . S
H1058 C1070 0.950 . S
H1059 C1071 0.950 . S
C1060 H1052 0.950 . S
C1060 C1061 1.386 . S
C1060 C1062 1.391 . S
C1061 C1060 1.386 . S
C1061 C1065 1.393 . S
C1062 H1054 0.950 . S
C1062 C1060 1.391 . S
C1062 C1063 1.400 . S
C1063 C1062 1.400 . S
C1063 C1064 1.398 1_455 S
C1063 C1069 1.491 . S
C1064 H1055 0.950 . S
C1064 C1063 1.398 1_655 S
C1064 C1065 1.391 1_655 S
C1065 H1053 0.950 1_445 S
C1065 C1061 1.393 . S
C1065 C1064 1.391 1_455 S
C1066 H1056 0.950 . S
C1066 C1067 1.386 . S
C1066 C1068 1.391 . S
C1067 C1066 1.386 . S
C1067 C1071 1.393 1_655 S
C1068 H1057 0.950 . S
C1068 C1066 1.391 . S
C1068 C1069 1.400 1_655 S
C1069 C1063 1.491 . S
C1069 C1068 1.400 1_455 S
C1069 C1070 1.398 . S
C1070 H1058 0.950 . S
C1070 C1069 1.398 . S
C1070 C1071 1.391 . S
C1071 H1059 0.950 . S
C1071 C1067 1.393 1_455 S
C1071 C1070 1.391 . S
H1072 C1080 0.950 . S
H1073 C1085 0.950 . S
H1074 C1082 0.950 . S
H1075 C1084 0.950 . S
H1076 C1086 0.950 . S
H1077 C1088 0.950 . S
H1078 C1090 0.950 . S
H1079 C1091 0.950 . S
C1080 H1072 0.950 . S
C1080 C1081 1.386 . S
C1080 C1082 1.391 . S
C1081 C1080 1.386 . S
C1081 C1085 1.393 . S
C1082 H1074 0.950 . S
C1082 C1080 1.391 . S
C1082 C1083 1.400 . S
C1083 C1082 1.400 . S
C1083 C1084 1.398 . S
C1083 C1089 1.491 . S
C1084 H1075 0.950 . S
C1084 C1083 1.398 . S
C1084 C1085 1.391 . S
C1085 H1073 0.950 . S
C1085 C1081 1.393 . S
C1085 C1084 1.391 . S
C1086 H1076 0.950 . S
C1086 C1087 1.386 . S
C1086 C1088 1.391 . S
C1087 C1086 1.386 . S
C1087 C1091 1.393 . S
C1088 H1077 0.950 . S
C1088 C1086 1.391 . S
C1088 C1089 1.400 . S
C1089 C1083 1.491 . S
C1089 C1088 1.400 . S
C1089 C1090 1.398 . S
C1090 H1078 0.950 . S
C1090 C1089 1.398 . S
C1090 C1091 1.391 . S
C1091 H1079 0.950 . S
C1091 C1087 1.393 . S
C1091 C1090 1.391 . S
H1092 C1100 0.950 . S
H1093 C1105 0.950 . S
H1094 C1102 0.950 . S
H1095 C1104 0.950 . S
H1096 C1106 0.950 . S
H1097 C1108 0.950 . S
H1098 C1110 0.950 . S
H1099 C1111 0.950 . S
C1100 H1092 0.950 . S
C1100 C1101 1.386 . S
C1100 C1102 1.391 . S
C1101 C1100 1.386 . S
C1101 C1105 1.393 . S
C1102 H1094 0.950 . S
C1102 C1100 1.391 . S
C1102 C1103 1.400 . S
C1103 C1102 1.400 . S
C1103 C1104 1.398 . S
C1103 C1109 1.491 . S
C1104 H1095 0.950 . S
C1104 C1103 1.398 . S
C1104 C1105 1.391 . S
C1105 H1093 0.950 . S
C1105 C1101 1.393 . S
C1105 C1104 1.391 . S
C1106 H1096 0.950 . S
C1106 C1107 1.386 . S
C1106 C1108 1.391 . S
C1107 C1106 1.386 . S
C1107 C1111 1.393 . S
C1108 H1097 0.950 . S
C1108 C1106 1.391 . S
C1108 C1109 1.400 . S
C1109 C1103 1.491 . S
C1109 C1108 1.400 . S
C1109 C1110 1.398 . S
C1110 H1098 0.950 . S
C1110 C1109 1.398 . S
C1110 C1111 1.391 . S
C1111 H1099 0.950 . S
C1111 C1107 1.393 . S
C1111 C1110 1.391 . S
H1112 C1120 0.950 . S
H1113 C1125 0.950 . S
H1114 C1122 0.950 . S
H1115 C1124 0.950 . S
H1116 C1126 0.950 . S
H1117 C1128 0.950 . S
H1118 C1130 0.950 . S
H1119 C1131 0.950 . S
C1120 H1112 0.950 . S
C1120 C1121 1.386 . S
C1120 C1122 1.391 . S
C1121 C1120 1.386 . S
C1121 C1125 1.393 . S
C1122 H1114 0.950 . S
C1122 C1120 1.391 . S
C1122 C1123 1.400 . S
C1123 C1122 1.400 . S
C1123 C1124 1.398 . S
C1123 C1129 1.491 . S
C1124 H1115 0.950 . S
C1124 C1123 1.398 . S
C1124 C1125 1.391 . S
C1125 H1113 0.950 . S
C1125 C1121 1.393 . S
C1125 C1124 1.391 . S
C1126 H1116 0.950 . S
C1126 C1127 1.386 . S
C1126 C1128 1.391 . S
C1127 C1126 1.386 . S
C1127 C1131 1.393 . S
C1128 H1117 0.950 . S
C1128 C1126 1.391 . S
C1128 C1129 1.400 . S
C1129 C1123 1.491 . S
C1129 C1128 1.400 . S
C1129 C1130 1.398 . S
C1130 H1118 0.950 . S
C1130 C1129 1.398 . S
C1130 C1131 1.391 . S
C1131 H1119 0.950 . S
C1131 C1127 1.393 . S
C1131 C1130 1.391 . S
H1132 C1140 0.950 . S
H1133 C1145 0.950 . S
H1134 C1142 0.950 . S
H1135 C1144 0.950 . S
H1136 C1146 0.950 . S
H1137 C1148 0.950 . S
H1138 C1150 0.950 . S
H1139 C1151 0.950 . S
C1140 H1132 0.950 . S
C1140 C1141 1.386 1_655 S
C1140 C1142 1.391 . S
C1141 C1140 1.386 1_455 S
C1141 C1145 1.393 . S
C1142 H1134 0.950 . S
C1142 C1140 1.391 . S
C1142 C1143 1.400 1_655 S
C1143 C1142 1.400 1_455 S
C1143 C1144 1.398 . S
C1143 C1149 1.491 . S
C1144 H1135 0.950 . S
C1144 C1143 1.398 . S
C1144 C1145 1.391 . S
C1145 H1133 0.950 . S
C1145 C1141 1.393 . S
C1145 C1144 1.391 . S
C1146 H1136 0.950 . S
C1146 C1147 1.386 . S
C1146 C1148 1.391 . S
C1147 C1146 1.386 . S
C1147 C1151 1.393 1_455 S
C1148 H1137 0.950 . S
C1148 C1146 1.391 . S
C1148 C1149 1.400 . S
C1149 C1143 1.491 . S
C1149 C1148 1.400 . S
C1149 C1150 1.398 1_455 S
C1150 H1138 0.950 . S
C1150 C1149 1.398 1_655 S
C1150 C1151 1.391 . S
C1151 H1139 0.950 . S
C1151 C1147 1.393 1_655 S
C1151 C1150 1.391 . S
H1152 C1160 0.950 . S
H1153 C1165 0.950 . S
H1154 C1162 0.950 . S
H1155 C1164 0.950 . S
H1156 C1166 0.950 . S
H1157 C1168 0.950 . S
H1158 C1170 0.950 . S
H1159 C1171 0.950 . S
C1160 H1152 0.950 . S
C1160 C1161 1.386 . S
C1160 C1162 1.391 . S
C1161 C1160 1.386 . S
C1161 C1165 1.393 . S
C1162 H1154 0.950 . S
C1162 C1160 1.391 . S
C1162 C1163 1.400 . S
C1163 C1162 1.400 . S
C1163 C1164 1.398 . S
C1163 C1169 1.491 . S
C1164 H1155 0.950 . S
C1164 C1163 1.398 . S
C1164 C1165 1.391 . S
C1165 H1153 0.950 . S
C1165 C1161 1.393 . S
C1165 C1164 1.391 . S
C1166 H1156 0.950 . S
C1166 C1167 1.386 . S
C1166 C1168 1.391 . S
C1167 C1166 1.386 . S
C1167 C1171 1.393 . S
C1168 H1157 0.950 . S
C1168 C1166 1.391 . S
C1168 C1169 1.400 . S
C1169 C1163 1.491 . S
C1169 C1168 1.400 . S
C1169 C1170 1.398 . S
C1170 H1158 0.950 . S
C1170 C1169 1.398 . S
C1170 C1171 1.391 . S
C1171 H1159 0.950 . S
C1171 C1167 1.393 . S
C1171 C1170 1.391 . S
H1172 C1180 0.950 . S
H1173 C1185 0.950 . S
H1174 C1182 0.950 . S
H1175 C1184 0.950 . S
H1176 C1186 0.950 . S
H1177 C1188 0.950 . S
H1178 C1190 0.950 . S
H1179 C1191 0.950 . S
C1180 H1172 0.950 . S
C1180 C1181 1.386 . S
C1180 C1182 1.391 . S
C1181 C1180 1.386 . S
C1181 C1185 1.393 . S
C1182 H1174 0.950 . S
C1182 C1180 1.391 . S
C1182 C1183 1.400 . S
C1183 C1182 1.400 . S
C1183 C1184 1.398 . S
C1183 C1189 1.491 . S
C1184 H1175 0.950 . S
C1184 C1183 1.398 . S
C1184 C1185 1.391 . S
C1185 H1173 0.950 . S
C1185 C1181 1.393 . S
C1185 C1184 1.391 . S
C1186 H1176 0.950 . S
C1186 C1187 1.386 . S
C1186 C1188 1.391 . S
C1187 C1186 1.386 . S
C1187 C1191 1.393 . S
C1188 H1177 0.950 . S
C1188 C1186 1.391 . S
C1188 C1189 1.400 . S
C1189 C1183 1.491 . S
C1189 C1188 1.400 . S
C1189 C1190 1.398 . S
C1190 H1178 0.950 . S
C1190 C1189 1.398 . S
C1190 C1191 1.391 . S
C1191 H1179 0.950 . S
C1191 C1187 1.393 . S
C1191 C1190 1.391 . S
H1192 C1200 0.950 . S
H1193 C1205 0.950 . S
H1194 C1202 0.950 . S
H1195 C1204 0.950 . S
H1196 C1206 0.950 . S
H1197 C1208 0.950 . S
H1198 C1210 0.950 . S
H1199 C1211 0.950 . S
C1200 H1192 0.950 . S
C1200 C1201 1.386 . S
C1200 C1202 1.391 . S
C1201 C1200 1.386 . S
C1201 C1205 1.393 . S
C1202 H1194 0.950 . S
C1202 C1200 1.391 . S
C1202 C1203 1.400 . S
C1203 C1202 1.400 . S
C1203 C1204 1.398 . S
C1203 C1209 1.491 . S
C1204 H1195 0.950 . S
C1204 C1203 1.398 . S
C1204 C1205 1.391 . S
C1205 H1193 0.950 . S
C1205 C1201 1.393 . S
C1205 C1204 1.391 . S
C1206 H1196 0.950 . S
C1206 C1207 1.386 . S
C1206 C1208 1.391 . S
C1207 C1206 1.386 . S
C1207 C1211 1.393 . S
C1208 H1197 0.950 . S
C1208 C1206 1.391 . S
C1208 C1209 1.400 . S
C1209 C1203 1.491 . S
C1209 C1208 1.400 . S
C1209 C1210 1.398 . S
C1210 H1198 0.950 . S
C1210 C1209 1.398 . S
C1210 C1211 1.391 . S
C1211 H1199 0.950 . S
C1211 C1207 1.393 . S
C1211 C1210 1.391 . S
H1212 C1220 0.950 . S
H1213 C1225 0.950 . S
H1214 C1222 0.950 . S
H1215 C1224 0.950 . S
H1216 C1226 0.950 . S
H1217 C1228 0.950 . S
H1218 C1230 0.950 . S
H1219 C1231 0.950 . S
C1220 H1212 0.950 . S
C1220 C1221 1.386 . S
C1220 C1222 1.391 . S
C1221 C1220 1.386 . S
C1221 C1225 1.393 . S
C1222 H1214 0.950 . S
C1222 C1220 1.391 . S
C1222 C1223 1.400 . S
C1223 C1222 1.400 . S
C1223 C1224 1.398 . S
C1223 C1229 1.491 . S
C1224 H1215 0.950 . S
C1224 C1223 1.398 . S
C1224 C1225 1.391 . S
C1225 H1213 0.950 . S
C1225 C1221 1.393 . S
C1225 C1224 1.391 . S
C1226 H1216 0.950 . S
C1226 C1227 1.386 . S
C1226 C1228 1.391 . S
C1227 C1226 1.386 . S
C1227 C1231 1.393 . S
C1228 H1217 0.950 . S
C1228 C1226 1.391 . S
C1228 C1229 1.400 . S
C1229 C1223 1.491 . S
C1229 C1228 1.400 . S
C1229 C1230 1.398 . S
C1230 H1218 0.950 . S
C1230 C1229 1.398 . S
C1230 C1231 1.391 . S
C1231 H1219 0.950 . S
C1231 C1227 1.393 . S
C1231 C1230 1.391 . S
H1232 C1240 0.950 . S
H1233 C1245 0.950 . S
H1234 C1242 0.950 . S
H1235 C1244 0.950 . S
H1236 C1246 0.950 . S
H1237 C1248 0.950 . S
H1238 C1250 0.950 . S
H1239 C1251 0.950 . S
C1240 H1232 0.950 . S
C1240 C1241 1.386 . S
C1240 C1242 1.391 . S
C1241 C1240 1.386 . S
C1241 C1245 1.393 . S
C1242 H1234 0.950 . S
C1242 C1240 1.391 . S
C1242 C1243 1.400 . S
C1243 C1242 1.400 . S
C1243 C1244 1.398 . S
C1243 C1249 1.491 . S
C1244 H1235 0.950 . S
C1244 C1243 1.398 . S
C1244 C1245 1.391 . S
C1245 H1233 0.950 . S
C1245 C1241 1.393 . S
C1245 C1244 1.391 . S
C1246 H1236 0.950 . S
C1246 C1247 1.386 . S
C1246 C1248 1.391 . S
C1247 C1246 1.386 . S
C1247 C1251 1.393 . S
C1248 H1237 0.950 . S
C1248 C1246 1.391 . S
C1248 C1249 1.400 . S
C1249 C1243 1.491 . S
C1249 C1248 1.400 . S
C1249 C1250 1.398 . S
C1250 H1238 0.950 . S
C1250 C1249 1.398 . S
C1250 C1251 1.391 . S
C1251 H1239 0.950 . S
C1251 C1247 1.393 . S
C1251 C1250 1.391 . S
H1252 C1260 0.950 1_556 S
H1253 C1265 0.950 . S
H1254 C1262 0.950 . S
H1255 C1264 0.950 . S
H1256 C1266 0.950 . S
H1257 C1268 0.950 . S
H1258 C1270 0.950 . S
H1259 C1271 0.950 . S
C1260 H1252 0.950 1_554 S
C1260 C1261 1.386 1_554 S
C1260 C1262 1.391 . S
C1261 C1260 1.386 1_556 S
C1261 C1265 1.393 1_556 S
C1262 H1254 0.950 . S
C1262 C1260 1.391 . S
C1262 C1263 1.400 . S
C1263 C1262 1.400 . S
C1263 C1264 1.398 . S
C1263 C1269 1.491 . S
C1264 H1255 0.950 . S
C1264 C1263 1.398 . S
C1264 C1265 1.391 . S
C1265 H1253 0.950 . S
C1265 C1261 1.393 1_554 S
C1265 C1264 1.391 . S
C1266 H1256 0.950 . S
C1266 C1267 1.386 . S
C1266 C1268 1.391 . S
C1267 C1266 1.386 . S
C1267 C1271 1.393 . S
C1268 H1257 0.950 . S
C1268 C1266 1.391 . S
C1268 C1269 1.400 . S
C1269 C1263 1.491 . S
C1269 C1268 1.400 . S
C1269 C1270 1.398 . S
C1270 H1258 0.950 . S
C1270 C1269 1.398 . S
C1270 C1271 1.391 . S
C1271 H1259 0.950 . S
C1271 C1267 1.393 . S
C1271 C1270 1.391 . S
H1272 C1280 0.950 . S
H1273 C1285 0.950 . S
H1274 C1282 0.950 . S
H1275 C1284 0.950 . S
H1276 C1286 0.950 . S
H1277 C1288 0.950 . S
H1278 C1290 0.950 . S
H1279 C1291 0.950 . S
C1280 H1272 0.950 . S
C1280 C1281 1.386 . S
C1280 C1282 1.391 . S
C1281 C1280 1.386 . S
C1281 C1285 1.393 . S
C1282 H1274 0.950 . S
C1282 C1280 1.391 . S
C1282 C1283 1.400 . S
C1283 C1282 1.400 . S
C1283 C1284 1.398 . S
C1283 C1289 1.491 . S
C1284 H1275 0.950 . S
C1284 C1283 1.398 . S
C1284 C1285 1.391 . S
C1285 H1273 0.950 . S
C1285 C1281 1.393 . S
C1285 C1284 1.391 . S
C1286 H1276 0.950 . S
C1286 C1287 1.386 . S
C1286 C1288 1.391 . S
C1287 C1286 1.386 . S
C1287 C1291 1.393 . S
C1288 H1277 0.950 . S
C1288 C1286 1.391 . S
C1288 C1289 1.400 . S
C1289 C1283 1.491 . S
C1289 C1288 1.400 . S
C1289 C1290 1.398 . S
C1290 H1278 0.950 . S
C1290 C1289 1.398 . S
C1290 C1291 1.391 . S
C1291 H1279 0.950 . S
C1291 C1287 1.393 . S
C1291 C1290 1.391 . S
H1292 C1300 0.950 . S
H1293 C1305 0.950 . S
H1294 C1302 0.950 . S
H1295 C1304 0.950 . S
H1296 C1306 0.950 . S
H1297 C1308 0.950 . S
H1298 C1310 0.950 . S
H1299 C1311 0.950 . S
C1300 H1292 0.950 . S
C1300 C1301 1.386 . S
C1300 C1302 1.391 . S
C1301 C1300 1.386 . S
C1301 C1305 1.393 . S
C1302 H1294 0.950 . S
C1302 C1300 1.391 . S
C1302 C1303 1.400 . S
C1303 C1302 1.400 . S
C1303 C1304 1.398 . S
C1303 C1309 1.491 . S
C1304 H1295 0.950 . S
C1304 C1303 1.398 . S
C1304 C1305 1.391 . S
C1305 H1293 0.950 . S
C1305 C1301 1.393 . S
C1305 C1304 1.391 . S
C1306 H1296 0.950 . S
C1306 C1307 1.386 . S
C1306 C1308 1.391 . S
C1307 C1306 1.386 . S
C1307 C1311 1.393 . S
C1308 H1297 0.950 . S
C1308 C1306 1.391 . S
C1308 C1309 1.400 . S
C1309 C1303 1.491 . S
C1309 C1308 1.400 . S
C1309 C1310 1.398 . S
C1310 H1298 0.950 . S
C1310 C1309 1.398 . S
C1310 C1311 1.391 . S
C1311 H1299 0.950 . S
C1311 C1307 1.393 . S
C1311 C1310 1.391 . S
H1312 C1320 0.950 . S
H1313 C1325 0.950 . S
H1314 C1322 0.950 . S
H1315 C1324 0.950 . S
H1316 C1326 0.950 . S
H1317 C1328 0.950 . S
H1318 C1330 0.950 . S
H1319 C1331 0.950 . S
C1320 H1312 0.950 . S
C1320 C1321 1.386 . S
C1320 C1322 1.391 . S
C1321 C1320 1.386 . S
C1321 C1325 1.393 . S
C1322 H1314 0.950 . S
C1322 C1320 1.391 . S
C1322 C1323 1.400 . S
C1323 C1322 1.400 . S
C1323 C1324 1.398 . S
C1323 C1329 1.491 . S
C1324 H1315 0.950 . S
C1324 C1323 1.398 . S
C1324 C1325 1.391 . S
C1325 H1313 0.950 . S
C1325 C1321 1.393 . S
C1325 C1324 1.391 . S
C1326 H1316 0.950 . S
C1326 C1327 1.386 . S
C1326 C1328 1.391 . S
C1327 C1326 1.386 . S
C1327 C1331 1.393 . S
C1328 H1317 0.950 . S
C1328 C1326 1.391 . S
C1328 C1329 1.400 . S
C1329 C1323 1.491 . S
C1329 C1328 1.400 . S
C1329 C1330 1.398 . S
C1330 H1318 0.950 . S
C1330 C1329 1.398 . S
C1330 C1331 1.391 . S
C1331 H1319 0.950 . S
C1331 C1327 1.393 . S
C1331 C1330 1.391 . S
H1332 C1340 0.950 . S
H1333 C1345 0.950 . S
H1334 C1342 0.950 . S
H1335 C1344 0.950 . S
H1336 C1346 0.950 . S
H1337 C1348 0.950 . S
H1338 C1350 0.950 . S
H1339 C1351 0.950 . S
C1340 H1332 0.950 . S
C1340 C1341 1.386 . S
C1340 C1342 1.391 . S
C1341 C1340 1.386 . S
C1341 C1345 1.393 . S
C1342 H1334 0.950 . S
C1342 C1340 1.391 . S
C1342 C1343 1.400 . S
C1343 C1342 1.400 . S
C1343 C1344 1.398 . S
C1343 C1349 1.491 . S
C1344 H1335 0.950 . S
C1344 C1343 1.398 . S
C1344 C1345 1.391 . S
C1345 H1333 0.950 . S
C1345 C1341 1.393 . S
C1345 C1344 1.391 . S
C1346 H1336 0.950 . S
C1346 C1347 1.386 . S
C1346 C1348 1.391 . S
C1347 C1346 1.386 . S
C1347 C1351 1.393 . S
C1348 H1337 0.950 . S
C1348 C1346 1.391 . S
C1348 C1349 1.400 . S
C1349 C1343 1.491 . S
C1349 C1348 1.400 . S
C1349 C1350 1.398 . S
C1350 H1338 0.950 . S
C1350 C1349 1.398 . S
C1350 C1351 1.391 . S
C1351 H1339 0.950 . S
C1351 C1347 1.393 . S
C1351 C1350 1.391 . S
H1352 C1360 0.945 1_554 S
H1353 C1365 0.950 . S
H1354 C1362 0.950 1_554 S
H1355 C1364 0.950 . S
H1356 C1366 0.950 . S
H1357 C1368 0.950 . S
H1358 C1370 0.941 1_554 S
H1359 C1371 0.945 1_554 S
C1360 H1352 0.945 1_556 S
C1360 C1361 1.386 . S
C1360 C1362 1.391 . S
C1361 C1360 1.386 . S
C1361 C1365 1.393 . S
C1362 H1354 0.950 1_556 S
C1362 C1360 1.391 . S
C1362 C1363 1.400 . S
C1363 C1362 1.400 . S
C1363 C1364 1.398 . S
C1363 C1369 1.491 . S
C1364 H1355 0.950 . S
C1364 C1363 1.398 . S
C1364 C1365 1.391 . S
C1365 H1353 0.950 . S
C1365 C1361 1.393 . S
C1365 C1364 1.391 . S
C1366 H1356 0.950 . S
C1366 C1367 1.386 . S
C1366 C1368 1.391 . S
C1367 C1366 1.386 . S
C1367 C1371 1.403 . S
C1368 H1357 0.950 . S
C1368 C1366 1.391 . S
C1368 C1369 1.400 . S
C1369 C1363 1.491 . S
C1369 C1368 1.400 . S
C1369 C1370 1.398 . S
C1370 H1358 0.941 1_556 S
C1370 C1369 1.398 . S
C1370 C1371 1.387 . S
C1371 H1359 0.945 1_556 S
C1371 C1367 1.403 . S
C1371 C1370 1.387 . S
H1372 C1380 0.950 . S
H1373 C1385 0.950 . S
H1374 C1382 0.950 . S
H1375 C1384 0.950 . S
H1376 C1386 0.950 . S
H1377 C1388 0.950 . S
H1378 C1390 0.950 . S
H1379 C1391 0.950 . S
C1380 H1372 0.950 . S
C1380 C1381 1.386 . S
C1380 C1382 1.391 . S
C1381 C1380 1.386 . S
C1381 C1385 1.393 . S
C1382 H1374 0.950 . S
C1382 C1380 1.391 . S
C1382 C1383 1.400 . S
C1383 C1382 1.400 . S
C1383 C1384 1.398 . S
C1383 C1389 1.491 . S
C1384 H1375 0.950 . S
C1384 C1383 1.398 . S
C1384 C1385 1.391 . S
C1385 H1373 0.950 . S
C1385 C1381 1.393 . S
C1385 C1384 1.391 . S
C1386 H1376 0.950 . S
C1386 C1387 1.386 . S
C1386 C1388 1.391 . S
C1387 C1386 1.386 . S
C1387 C1391 1.393 . S
C1388 H1377 0.950 . S
C1388 C1386 1.391 . S
C1388 C1389 1.400 . S
C1389 C1383 1.491 . S
C1389 C1388 1.400 . S
C1389 C1390 1.398 . S
C1390 H1378 0.950 . S
C1390 C1389 1.398 . S
C1390 C1391 1.391 . S
C1391 H1379 0.950 . S
C1391 C1387 1.393 . S
C1391 C1390 1.391 . S
H1392 C1400 0.950 . S
H1393 C1405 0.950 . S
H1394 C1402 0.950 . S
H1395 C1404 0.950 . S
H1396 C1406 0.950 1_556 S
H1397 C1408 0.950 . S
H1398 C1410 0.950 . S
H1399 C1411 0.950 . S
C1400 H1392 0.950 . S
C1400 C1401 1.386 . S
C1400 C1402 1.391 . S
C1401 C1400 1.386 . S
C1401 C1405 1.393 . S
C1402 H1394 0.950 . S
C1402 C1400 1.391 . S
C1402 C1403 1.400 . S
C1403 C1402 1.400 . S
C1403 C1404 1.398 . S
C1403 C1409 1.491 . S
C1404 H1395 0.950 . S
C1404 C1403 1.398 . S
C1404 C1405 1.391 . S
C1405 H1393 0.950 . S
C1405 C1401 1.393 . S
C1405 C1404 1.391 . S
C1406 H1396 0.950 1_554 S
C1406 C1407 1.386 . S
C1406 C1408 1.391 . S
C1407 C1406 1.386 . S
C1407 C1411 1.393 . S
C1408 H1397 0.950 . S
C1408 C1406 1.391 . S
C1408 C1409 1.400 . S
C1409 C1403 1.491 . S
C1409 C1408 1.400 . S
C1409 C1410 1.398 . S
C1410 H1398 0.950 . S
C1410 C1409 1.398 . S
C1410 C1411 1.391 . S
C1411 H1399 0.950 . S
C1411 C1407 1.393 . S
C1411 C1410 1.391 . S
H1412 C1420 0.950 . S
H1413 C1425 0.950 . S
H1414 C1422 0.950 . S
H1415 C1424 0.950 . S
H1416 C1426 0.950 . S
H1417 C1428 0.950 . S
H1418 C1430 0.950 . S
H1419 C1431 0.950 . S
C1420 H1412 0.950 . S
C1420 C1421 1.386 . S
C1420 C1422 1.391 . S
C1421 C1420 1.386 . S
C1421 C1425 1.393 . S
C1422 H1414 0.950 . S
C1422 C1420 1.391 . S
C1422 C1423 1.400 . S
C1423 C1422 1.400 . S
C1423 C1424 1.398 . S
C1423 C1429 1.491 . S
C1424 H1415 0.950 . S
C1424 C1423 1.398 . S
C1424 C1425 1.391 . S
C1425 H1413 0.950 . S
C1425 C1421 1.393 . S
C1425 C1424 1.391 . S
C1426 H1416 0.950 . S
C1426 C1427 1.386 . S
C1426 C1428 1.391 . S
C1427 C1426 1.386 . S
C1427 C1431 1.393 . S
C1428 H1417 0.950 . S
C1428 C1426 1.391 . S
C1428 C1429 1.400 . S
C1429 C1423 1.491 . S
C1429 C1428 1.400 . S
C1429 C1430 1.398 . S
C1430 H1418 0.950 . S
C1430 C1429 1.398 . S
C1430 C1431 1.391 . S
C1431 H1419 0.950 . S
C1431 C1427 1.393 . S
C1431 C1430 1.391 . S
C487 C315 1.797 . S
C481 C101 1.825 . S
C507 C323 0.959 . S
C501 C125 1.060 . S
C521 C139 1.963 . S
C527 C343 1.920 . S
C547 C357 1.748 1_455 S
C541 C82 1.801 . S
C567 C372 1.602 . S
C561 C196 1.602 . S
C587 C386 1.865 . S
C581 C234 1.866 . S
C601 C220 0.862 . S
C607 C400 0.942 . S
C627 C406 1.600 . S
C621 C173 1.665 . S
C641 C211 1.158 . S
C647 C420 1.122 . S
C667 C441 1.104 . S
C661 C182 1.026 . S
C681 C201 1.297 . S
C687 C421 1.127 . S
C707 C442 1.357 . S
C701 C239 1.227 . S
C721 C135 1.649 . S
C727 C449 1.412 . S
C741 C87 1.762 . S
C747 C455 1.910 . S
C761 C106 1.145 . S
C767 C448 1.225 . S
C781 C116 1.185 . S
C787 C456 1.199 . S
C801 C59 1.907 . S
C807 C350 1.869 . S
C821 C268 2.210 . S
C827 C351 2.025 . S
C847 C308 1.198 . S
C841 C291 1.214 . S
C867 C329 1.431 . S
C861 C163 1.307 . S
C881 C78 2.046 1_545 S
C887 C364 2.019 . S
C907 C414 1.198 . S
C901 C215 1.198 . S
C927 C365 1.418 . S
C921 C177 1.527 1_545 S
C947 C393 1.567 . S
C941 C230 1.849 . S
C967 C399 1.793 . S
C961 C272 1.830 . S
C981 C296 1.055 . S
C987 C407 0.932 . S
C1001 C158 1.955 . S
C1007 C371 1.914 . S
C1027 C385 1.731 . S
C1021 C253 1.782 . S
C1041 C63 1.591 . S
C1047 C344 1.590 . S
C1067 C358 1.875 . S
C1061 C6 1.873 . S
C1087 C316 0.928 . S
C1081 C30 0.913 . S
C1107 C322 1.628 . S
C1101 C40 1.688 . S
C1121 C21 1.169 . S
C1127 C434 1.150 . S
C1141 C49 1.014 . S
C1147 C427 1.085 . S
C1161 C68 1.244 . S
C1167 C435 1.120 . S
C1181 C11 1.248 . S
C1187 C428 1.352 . S
C1207 C463 1.390 . S
C1201 C154 1.625 . S
C1227 C469 1.927 . S
C1221 C258 1.783 . S
C1247 C462 1.270 . S
C1241 C277 1.180 . S
C1261 C287 1.176 . S
C1267 C470 1.191 . S
C1281 C192 1.901 . S
C1287 C378 1.859 . S
C1307 C379 1.978 . S
C1301 C97 2.194 . S
C1327 C392 1.176 . S
C1321 C120 1.217 . S
C1347 C413 1.437 . S
C1341 C144 1.313 . S
C1361 C249 2.046 . S
C1367 C336 2.024 . S
C1387 C330 1.216 . S
C1381 C25 1.216 . S
C1401 C44 1.537 . S
C1407 C337 1.404 . S
C1427 C309 1.524 . S
C1421 C2 1.849 1_565 S
