# Generated by pormake.
# Topology zzz, (3,6)-cn, num edge types: 1
# Building blocks:
#     Node 0, Type 0, BuildingBlock: MIDCAF_clean_linker_0, # of connection points: 3
#     Node 1, Type 0, BuildingBlock: MIDCAF_clean_linker_0, # of connection points: 3
#     Node 2, Type 0, BuildingBlock: MIDCAF_clean_linker_0, # of connection points: 3
#     Node 3, Type 0, BuildingBlock: MIDCAF_clean_linker_0, # of connection points: 3
#     Node 4, Type 0, BuildingBlock: MIDCAF_clean_linker_0, # of connection points: 3
#     Node 5, Type 0, BuildingBlock: MIDCAF_clean_linker_0, # of connection points: 3
#     Node 6, Type 0, BuildingBlock: MIDCAF_clean_linker_0, # of connection points: 3
#     Node 7, Type 0, BuildingBlock: MIDCAF_clean_linker_0, # of connection points: 3
#     Node 8, Type 1, BuildingBlock: KUMBOL_clean_sbu_1, # of connection points: 6
#     Node 9, Type 1, BuildingBlock: KUMBOL_clean_sbu_1, # of connection points: 6
#     Node 10, Type 1, BuildingBlock: KUMBOL_clean_sbu_1, # of connection points: 6
#     Node 11, Type 1, BuildingBlock: KUMBOL_clean_sbu_1, # of connection points: 6
#     Edge 12, Type (0, 1), BuildingBlock: OJICUG_clean_linker_0, # of connection points: 2
#     Edge 13, Type (0, 1), BuildingBlock: OJICUG_clean_linker_0, # of connection points: 2
#     Edge 14, Type (0, 1), BuildingBlock: OJICUG_clean_linker_0, # of connection points: 2
#     Edge 15, Type (0, 1), BuildingBlock: OJICUG_clean_linker_0, # of connection points: 2
#     Edge 16, Type (0, 1), BuildingBlock: OJICUG_clean_linker_0, # of connection points: 2
#     Edge 17, Type (0, 1), BuildingBlock: OJICUG_clean_linker_0, # of connection points: 2
#     Edge 18, Type (0, 1), BuildingBlock: OJICUG_clean_linker_0, # of connection points: 2
#     Edge 19, Type (0, 1), BuildingBlock: OJICUG_clean_linker_0, # of connection points: 2
#     Edge 20, Type (0, 1), BuildingBlock: OJICUG_clean_linker_0, # of connection points: 2
#     Edge 21, Type (0, 1), BuildingBlock: OJICUG_clean_linker_0, # of connection points: 2
#     Edge 22, Type (0, 1), BuildingBlock: OJICUG_clean_linker_0, # of connection points: 2
#     Edge 23, Type (0, 1), BuildingBlock: OJICUG_clean_linker_0, # of connection points: 2
#     Edge 24, Type (0, 1), BuildingBlock: OJICUG_clean_linker_0, # of connection points: 2
#     Edge 25, Type (0, 1), BuildingBlock: OJICUG_clean_linker_0, # of connection points: 2
#     Edge 26, Type (0, 1), BuildingBlock: OJICUG_clean_linker_0, # of connection points: 2
#     Edge 27, Type (0, 1), BuildingBlock: OJICUG_clean_linker_0, # of connection points: 2
#     Edge 28, Type (0, 1), BuildingBlock: OJICUG_clean_linker_0, # of connection points: 2
#     Edge 29, Type (0, 1), BuildingBlock: OJICUG_clean_linker_0, # of connection points: 2
#     Edge 30, Type (0, 1), BuildingBlock: OJICUG_clean_linker_0, # of connection points: 2
#     Edge 31, Type (0, 1), BuildingBlock: OJICUG_clean_linker_0, # of connection points: 2
#     Edge 32, Type (0, 1), BuildingBlock: OJICUG_clean_linker_0, # of connection points: 2
#     Edge 33, Type (0, 1), BuildingBlock: OJICUG_clean_linker_0, # of connection points: 2
#     Edge 34, Type (0, 1), BuildingBlock: OJICUG_clean_linker_0, # of connection points: 2
#     Edge 35, Type (0, 1), BuildingBlock: OJICUG_clean_linker_0, # of connection points: 2
# Relax obj value: 0.358
# Max RMSD: 0.207
# Mean RMSD: 0.186
data_MOF--net-zzz--node1-KUMBOL_clean_sbu_1--node2-MIDCAF_clean_linker_0--edge1-OJICUG_clean_linker_0
_symmetry_space_group_name_H-M    P1
_symmetry_Int_Tables_number       1
_symmetry_cell_setting            triclinic
loop_
_symmetry_equiv_pos_as_xyz
'x, y, z'
_cell_length_a     43.915975
_cell_length_b     43.925881
_cell_length_c     16.427461
_cell_angle_alpha  90.020864
_cell_angle_beta   90.007055
_cell_angle_gamma 90.513099
loop_
_atom_site_label
_atom_site_type_symbol
_atom_site_fract_x
_atom_site_fract_y
_atom_site_fract_z
_atom_type_partial_charge
C0 C 0.81575 0.54186 0.48287 0.0
C1 C 0.84029 0.52541 0.44959 0.0
C2 C 0.83608 0.51297 0.37091 0.0
C3 C 0.80922 0.51827 0.32585 0.0
H4 H 0.70825 0.49812 0.14416 0.0
H5 H 0.66586 0.48543 0.05183 0.0
H6 H 0.62617 0.57323 0.0994 0.0
H7 H 0.66791 0.58537 0.19129 0.0
H8 H 0.74779 0.61 0.05733 0.0
H9 H 0.7922 0.61171 0.97141 0.0
H10 H 0.84797 0.6353 0.1785 0.0
H11 H 0.80339 0.63252 0.26564 0.0
H12 H 0.77182 0.56192 0.46327 0.0
H13 H 0.81744 0.55149 0.54336 0.0
H14 H 0.85426 0.50057 0.34174 0.0
H15 H 0.80804 0.51044 0.26338 0.0
N16 N 0.73748 0.5384 0.27051 0.0
N17 N 0.73048 0.582 0.18875 0.0
N18 N 0.77289 0.579 0.27361 0.0
C19 C 0.7202 0.55446 0.21523 0.0
C20 C 0.75677 0.59439 0.21702 0.0
C21 C 0.76379 0.55139 0.3013 0.0
C22 C 0.69145 0.54264 0.17631 0.0
C23 C 0.68989 0.51419 0.137 0.0
C24 C 0.66574 0.50719 0.08276 0.0
C25 C 0.64231 0.52834 0.06669 0.0
C26 C 0.64324 0.55604 0.10992 0.0
C27 C 0.66736 0.56306 0.16313 0.0
C28 C 0.77289 0.61806 0.16916 0.0
C29 C 0.7691 0.61751 0.08421 0.0
C30 C 0.79484 0.61862 0.03434 0.0
C31 C 0.82388 0.62074 0.07013 0.0
C32 C 0.8259 0.63173 0.15039 0.0
C33 C 0.80024 0.63015 0.20051 0.0
C34 C 0.78545 0.53593 0.35792 0.0
C35 C 0.78903 0.54723 0.4376 0.0
C36 C 0.97556 0.82318 0.46992 0.0
C37 C 0.99725 0.84511 0.44428 0.0
C38 C 0.01533 0.83745 0.376 0.0
C39 C 0.01071 0.80988 0.33284 0.0
H40 H 0.03166 0.71126 0.14281 0.0
H41 H 0.04443 0.66885 0.05183 0.0
H42 H 0.9596 0.62428 0.11455 0.0
H43 H 0.94751 0.66615 0.20562 0.0
H44 H 0.9244 0.73951 0.03975 0.0
H45 H 0.93776 0.77674 0.93711 0.0
H46 H 0.91888 0.84903 0.10656 0.0
H47 H 0.90607 0.81175 0.21017 0.0
H48 H 0.95254 0.78072 0.44525 0.0
H49 H 0.96144 0.82743 0.5226 0.0
H50 H 0.03201 0.8535 0.35272 0.0
H51 H 0.02342 0.80609 0.2773 0.0
N52 N 0.98929 0.73934 0.2743 0.0
N53 N 0.95025 0.73078 0.17805 0.0
N54 N 0.94989 0.77487 0.25689 0.0
C55 C 0.97581 0.72103 0.21587 0.0
C56 C 0.93734 0.75773 0.19684 0.0
C57 C 0.97543 0.7662 0.29655 0.0
C58 C 0.98888 0.69194 0.18354 0.0
C59 C 0.01647 0.69173 0.13992 0.0
C60 C 0.02341 0.66757 0.08609 0.0
C61 C 1.00296 0.64282 0.074 0.0
C62 C 0.97629 0.64236 0.1218 0.0
C63 C 0.96936 0.66648 0.17494 0.0
C64 C 0.91807 0.77302 0.13535 0.0
C65 C 0.92106 0.76333 0.05403 0.0
C66 C 0.92868 0.78477 0.99449 0.0
C67 C 0.93171 0.81547 0.01677 0.0
C68 C 0.9181 0.8252 0.08958 0.0
C69 C 0.91073 0.8037 0.1491 0.0
C70 C 0.98807 0.78878 0.35666 0.0
C71 C 0.97091 0.79579 0.42654 0.0
C72 C 0.7074 0.97941 0.47649 0.0
C73 C 0.68941 1.00483 0.45756 0.0
C74 C 0.70038 0.02502 0.3971 0.0
C75 C 0.72714 0.01849 0.35255 0.0
H76 H 0.80768 0.02013 0.09401 0.0
H77 H 0.84865 0.02885 0.99675 0.0
H78 H 0.90844 0.97359 0.14319 0.0
H79 H 0.86654 0.96392 0.23813 0.0
H80 H 0.78883 0.91361 0.06337 0.0
H81 H 0.75341 0.90859 0.95067 0.0
H82 H 0.67826 0.90974 0.12011 0.0
H83 H 0.71341 0.91293 0.23195 0.0
H84 H 0.74576 0.95195 0.44499 0.0
H85 H 0.70028 0.96361 0.52352 0.0
H86 H 0.68723 0.04479 0.3804 0.0
H87 H 0.73343 0.03302 0.30192 0.0
N88 N 0.79027 0.99234 0.27581 0.0
N89 N 0.79608 0.95203 0.18219 0.0
N90 N 0.75466 0.95197 0.27082 0.0
C91 C 0.80676 0.97831 0.2154 0.0
C92 C 0.76999 0.93874 0.20888 0.0
C93 C 0.7643 0.97841 0.30511 0.0
C94 C 0.83402 0.99217 0.17541 0.0
C95 C 0.82996 0.01094 0.10714 0.0
C96 C 0.85365 0.01569 0.05069 0.0
C97 C 0.88234 1.00178 0.06049 0.0
C98 C 0.88678 0.9843 0.13166 0.0
C99 C 0.8629 0.9793 0.18758 0.0
C100 C 0.75363 0.91673 0.15571 0.0
C101 C 0.76482 0.911 0.077 0.0
C102 C 0.74441 0.90819 1.01206 0.0
C103 C 0.71304 0.91208 0.02594 0.0
C104 C 0.70231 0.90856 0.10619 0.0
C105 C 0.72268 0.91066 0.17115 0.0
C106 C 0.74371 0.99178 0.36796 0.0
C107 C 0.73391 0.97296 0.43229 0.0
C108 C 0.62533 0.70493 0.15968 0.0
C109 C 0.61427 0.70662 0.07949 0.0
C110 C 0.61254 0.73549 0.0428 0.0
C111 C 0.61237 0.76149 0.09171 0.0
H112 H 0.58865 0.86131 0.18096 0.0
H113 H 0.57707 0.90242 0.08662 0.0
H114 H 0.48328 0.8732 0.07901 0.0
H115 H 0.49499 0.83103 0.17353 0.0
H116 H 0.50716 0.72528 0.2706 0.0
H117 H 0.49706 0.67876 0.34785 0.0
H118 H 0.54554 0.71685 0.55321 0.0
H119 H 0.5562 0.76289 0.47419 0.0
H120 H 0.62726 0.72804 0.27399 0.0
H121 H 0.62852 0.68299 0.18843 0.0
H122 H 0.60545 0.73783 0.97997 0.0
H123 H 0.6053 0.7827 0.06425 0.0
N124 N 0.57982 0.80193 0.19721 0.0
N125 N 0.53627 0.79677 0.28053 0.0
N126 N 0.57481 0.75976 0.28219 0.0
C127 C 0.55306 0.81339 0.22464 0.0
C128 C 0.54788 0.76995 0.31082 0.0
C129 C 0.59084 0.77523 0.22517 0.0
C130 C 0.5428 0.84257 0.1854 0.0
C131 C 0.56529 0.86388 0.16106 0.0
C132 C 0.55873 0.88755 0.10664 0.0
C133 C 0.52933 0.89112 0.07494 0.0
C134 C 0.50617 0.87117 0.10278 0.0
C135 C 0.51281 0.84712 0.1575 0.0
C136 C 0.53143 0.74859 0.36697 0.0
C137 C 0.51431 0.72433 0.33368 0.0
C138 C 0.50889 0.69729 0.3781 0.0
C139 C 0.52068 0.69332 0.45746 0.0
C140 C 0.53642 0.71836 0.49215 0.0
C141 C 0.5419 0.74532 0.4475 0.0
C142 C 0.61338 0.7582 0.17676 0.0
C143 C 0.62468 0.73086 0.20883 0.0
C144 C 0.20057 0.51603 0.94185 0.0
C145 C 0.18847 0.49251 0.89232 0.0
C146 C 0.20377 0.46439 0.89326 0.0
C147 C 0.2286 0.45926 0.94568 0.0
H148 H 0.32939 0.52597 0.18266 0.0
H149 H 0.37374 0.53544 0.27006 0.0
H150 H 0.38646 0.43839 0.29384 0.0
H151 H 0.34356 0.42952 0.20407 0.0
H152 H 0.2701 0.44388 0.35874 0.0
H153 H 0.23432 0.45081 0.46699 0.0
H154 H 0.16042 0.4265 0.30456 0.0
H155 H 0.1966 0.42243 0.19297 0.0
H156 H 0.2324 0.5286 0.03665 0.0
H157 H 0.18951 0.53795 0.94395 0.0
H158 H 0.1958 0.44574 0.85555 0.0
H159 H 0.23809 0.4366 0.94855 0.0
N160 N 0.28714 0.48054 0.08833 0.0
N161 N 0.28442 0.45309 0.21142 0.0
N162 N 0.24156 0.45569 0.12822 0.0
C163 C 0.30097 0.46996 0.15827 0.0
C164 C 0.25489 0.44601 0.19777 0.0
C165 C 0.25714 0.47262 0.07273 0.0
C166 C 0.33304 0.47698 0.18458 0.0
C167 C 0.34263 0.5068 0.20338 0.0
C168 C 0.36778 0.5121 0.25576 0.0
C169 C 0.38394 0.48774 0.29199 0.0
C170 C 0.37539 0.45804 0.26801 0.0
C171 C 0.35057 0.45285 0.21553 0.0
C172 C 0.2359 0.43485 0.266 0.0
C173 C 0.24631 0.43911 0.34613 0.0
C174 C 0.22551 0.44284 0.40924 0.0
C175 C 0.19403 0.4417 0.39321 0.0
C176 C 0.18439 0.42985 0.31758 0.0
C177 C 0.20515 0.42722 0.25355 0.0
C178 C 0.23951 0.48208 0.99869 0.0
C179 C 0.22553 0.51081 0.99465 0.0
C180 C 0.0152 0.19789 0.96428 0.0
C181 C 0.03646 0.1878 0.90567 0.0
C182 C 0.06313 0.20559 0.89565 0.0
C183 C 0.06918 0.2311 0.9457 0.0
H184 H 1.00712 0.33002 0.18582 0.0
H185 H 0.99702 0.37395 0.27359 0.0
H186 H 0.09395 0.38918 0.29947 0.0
H187 H 0.10339 0.34696 0.20896 0.0
H188 H 0.09877 0.27633 0.35461 0.0
H189 H 0.08954 0.24328 0.46734 0.0
H190 H 0.1031 0.16495 0.31187 0.0
H191 H 0.10896 0.19873 0.19573 0.0
H192 H 1.00529 0.2291 0.06198 0.0
H193 H 0.99418 0.18533 0.97385 0.0
H194 H 0.0804 0.19876 0.8525 0.0
H195 H 0.09105 0.24252 0.9403 0.0
N196 N 0.05169 0.28866 0.09328 0.0
N197 N 0.08235 0.2877 0.21089 0.0
N198 N 0.0787 0.24436 0.1297 0.0
C199 C 0.0637 0.3033 0.16071 0.0
C200 C 0.08974 0.25839 0.19704 0.0
C201 C 0.06015 0.259 0.0768 0.0
C202 C 0.05609 0.33499 0.1887 0.0
C203 C 0.02613 0.34371 0.20721 0.0
C204 C 0.02046 0.36864 0.2599 0.0
C205 C 0.04457 0.38544 0.29689 0.0
C206 C 0.0744 0.37768 0.27329 0.0
C207 C 0.07995 0.35318 0.22037 0.0
C208 C 0.10186 0.24007 0.26507 0.0
C209 C 0.10055 0.25205 0.3443 0.0
C210 C 0.09539 0.23272 0.41009 0.0
C211 C 0.09245 0.2011 0.39762 0.0
C212 C 0.10232 0.18926 0.32234 0.0
C213 C 0.1062 0.20864 0.25564 0.0
C214 C 0.04857 0.24029 1.00657 0.0
C215 C 0.0212 0.22358 1.01392 0.0
C216 C 0.3282 0.01204 0.97539 0.0
C217 C 0.33628 0.02851 0.9047 0.0
C218 C 0.31595 0.05095 0.87742 0.0
C219 C 0.28993 0.05848 0.92269 0.0
H220 H 0.19551 0.01289 0.17502 0.0
H221 H 0.15194 1.00204 0.2648 0.0
H222 H 0.14561 0.09802 0.32028 0.0
H223 H 0.18672 0.10859 0.22849 0.0
H224 H 0.2514 0.13803 0.2807 0.0
H225 H 0.28829 0.14474 0.38938 0.0
H226 H 0.36106 0.12769 0.2192 0.0
H227 H 0.32465 0.12252 0.11075 0.0
H228 H 0.29836 1.00883 0.07945 0.0
H229 H 0.34327 0.99473 0.99875 0.0
H230 H 0.32101 0.0639 0.82291 0.0
H231 H 0.27645 0.07768 0.90312 0.0
N232 N 0.23813 0.05168 0.09257 0.0
N233 N 0.23892 0.09538 0.17598 0.0
N234 N 0.27868 0.08722 0.08545 0.0
C235 C 0.22442 0.06957 0.15089 0.0
C236 C 0.26593 0.10439 0.14432 0.0
C237 C 0.26533 0.06119 0.05856 0.0
C238 C 0.19511 0.06161 0.19422 0.0
C239 C 0.1842 0.03164 0.2049 0.0
C240 C 0.15936 0.02544 0.25779 0.0
C241 C 0.14478 0.04902 0.30178 0.0
C242 C 0.15523 0.07896 0.28784 0.0
C243 C 0.17949 0.08507 0.23498 0.0
C244 C 0.28512 0.12671 0.18914 0.0
C245 C 0.27539 0.13743 0.26544 0.0
C246 C 0.29663 0.14134 0.32801 0.0
C247 C 0.32719 0.13336 0.31454 0.0
C248 C 0.33742 0.13202 0.23338 0.0
C249 C 0.31631 0.12873 0.1705 0.0
C250 C 0.28314 0.04385 0.99681 0.0
C251 C 0.30211 0.0198 0.02122 0.0
C252 C 0.45653 0.3406 0.33793 0.0
C253 C 0.45937 0.32656 0.41474 0.0
C254 C 0.45339 0.29515 0.42066 0.0
C255 C 0.45064 0.27754 0.35019 0.0
H256 H 0.44073 0.18413 0.19117 0.0
H257 H 0.44744 0.13996 0.27917 0.0
H258 H 0.54481 0.15165 0.26545 0.0
H259 H 0.53794 0.19676 0.17811 0.0
H260 H 0.44921 0.28589 0.94386 0.0
H261 H 0.4554 0.32902 0.85109 0.0
H262 H 0.54546 0.34559 0.94734 0.0
H263 H 0.5391 0.302 0.03921 0.0
H264 H 0.45484 0.33444 0.20933 0.0
H265 H 0.46046 0.36477 0.33004 0.0
H266 H 0.45408 0.28374 0.47905 0.0
H267 H 0.44939 0.25301 0.35657 0.0
N268 N 0.46895 0.243 0.2119 0.0
N269 N 0.49225 0.24076 0.08269 0.0
N270 N 0.4716 0.28672 0.13185 0.0
C271 C 0.48322 0.22654 0.15387 0.0
C272 C 0.4858 0.27125 0.07153 0.0
C273 C 0.46314 0.27289 0.20207 0.0
C274 C 0.48876 0.19385 0.17554 0.0
C275 C 0.46368 0.17656 0.20367 0.0
C276 C 0.46751 0.15141 0.25545 0.0
C277 C 0.49665 0.14229 0.28067 0.0
C278 C 0.522 0.15787 0.24717 0.0
C279 C 0.51811 0.18353 0.1959 0.0
C280 C 0.49406 0.28949 0.99725 0.0
C281 C 0.47089 0.29784 0.94255 0.0
C282 C 0.47426 0.32319 0.89039 0.0
C283 C 0.50085 0.34157 0.8915 0.0
C284 C 0.52472 0.33217 0.94325 0.0
C285 C 0.52126 0.30678 0.99565 0.0
C286 C 0.45357 0.2912 0.27303 0.0
C287 C 0.45359 0.32305 0.26774 0.0
C288 C 0.09911 0.04347 0.8019 0.0
C289 C 0.08585 0.06392 0.93427 0.0
C290 C 0.07912 0.04527 0.86668 0.0
C291 C 0.11237 0.08202 0.93364 0.0
C292 C 0.12663 0.06026 0.80306 0.0
C293 C 0.13273 0.08021 0.86809 0.0
N294 N 0.09275 0.02346 0.74101 0.0
C295 C 0.11439 0.01686 0.68416 0.0
C296 C 0.14773 0.05552 0.74059 0.0
C297 C 0.14183 0.03326 0.68181 0.0
Gd298 Gd 0.9809 0.03411 0.60604 0.0
Gd299 Gd 0.04427 0.99991 0.74529 0.0
N300 N 0.05372 0.02751 0.86529 0.0
C301 C 0.0662 0.06303 1.00142 0.0
C302 C 0.03557 0.02494 0.93255 0.0
C303 C 0.04125 0.04303 1.00111 0.0
H304 H 0.01626 1.00954 0.93221 0.0
H305 H 0.02638 0.04159 0.05352 0.0
H306 H 0.01337 0.05704 0.42903 0.0
H307 H 0.11077 0.99869 0.64097 0.0
H308 H 0.01588 0.03974 0.28674 0.0
H309 H 0.07058 0.077 0.0546 0.0
H310 H 0.1178 0.09679 0.98457 0.0
H311 H 0.92104 0.99848 0.6892 0.0
H312 H 0.16914 0.06795 0.7392 0.0
H313 H 0.15857 0.02843 0.63533 0.0
H314 H 0.94226 0.95868 0.27271 0.0
H315 H 0.15359 0.09356 0.86958 0.0
H316 H 0.88236 0.93847 0.51073 0.0
H317 H 0.88224 0.96009 0.64987 0.0
N318 N 0.94355 0.99747 0.57471 0.0
C319 C 0.94307 0.98713 0.49671 0.0
C320 C 0.92146 0.98888 0.62873 0.0
C321 C 0.89949 0.95519 0.52779 0.0
C322 C 0.89938 0.9673 0.60647 0.0
C323 C 0.92128 0.96531 0.47148 0.0
H324 H 0.90523 0.93773 0.37052 0.0
N325 N 0.98336 0.0215 0.46676 0.0
C326 C 0.96398 0.99904 0.44163 0.0
C327 C 0.98328 1.00342 0.30427 0.0
C328 C 0.96355 0.98928 0.35975 0.0
C329 C 1.00076 0.03697 0.41138 0.0
C330 C 1.00159 0.02772 0.32996 0.0
O331 O 0.02345 0.04552 0.77929 0.0
O332 O 0.01678 0.0674 0.65579 0.0
O333 O 0.95488 0.06395 0.52764 0.0
O334 O 0.94777 0.06508 0.65758 0.0
O335 O 0.99548 0.99137 0.79005 0.0
O336 O 0.9669 0.03059 0.73809 0.0
O337 O 0.98436 0.98211 0.62462 0.0
O338 O 0.03534 0.97549 0.62626 0.0
O339 O 0.03089 0.95704 0.79459 0.0
O340 O 0.07939 0.96958 0.79618 0.0
O341 O 0.0293 0.04665 0.56576 0.0
O342 O 0.05762 1.00619 0.61144 0.0
C343 C 0.0225 0.07007 0.73411 0.0
C344 C 0.97176 1.00961 0.79351 0.0
C345 C 0.95133 0.11165 0.59058 0.0
C346 C 0.98906 0.15175 0.56767 0.0
C347 C 0.94093 0.16329 0.63361 0.0
C348 C 0.93182 0.13279 0.62664 0.0
C349 C 0.96941 0.17281 0.60429 0.0
C350 C 0.97995 0.12122 0.56245 0.0
C351 C 0.94375 0.07909 0.58878 0.0
C352 C 0.94275 0.96659 0.33519 0.0
C353 C 0.92161 0.9547 0.39085 0.0
H354 H 0.98364 0.99658 0.24088 0.0
C355 C 0.00822 0.96556 0.60545 0.0
C356 C 0.0534 0.02899 0.56029 0.0
C357 C 0.06399 0.9197 0.85188 0.0
C358 C 0.04248 0.87324 0.90918 0.0
C359 C 0.09709 0.88238 0.91395 0.0
C360 C 0.09327 0.91027 0.87414 0.0
C361 C 0.07176 0.86403 0.9324 0.0
C362 C 0.0389 0.9008 0.86841 0.0
C363 C 0.05853 0.94928 0.81323 0.0
H364 H 0.92586 0.17962 0.66152 0.0
H365 H 0.90986 0.12564 0.65027 0.0
H366 H 0.97573 0.19664 0.60862 0.0
H367 H 0.99543 0.10467 0.53688 0.0
H368 H 0.11964 0.8752 0.93171 0.0
H369 H 0.113 0.92448 0.8616 0.0
H370 H 0.07496 0.84289 0.96505 0.0
H371 H 0.01611 0.90807 0.85269 0.0
C372 C 0.52243 0.92291 0.52487 0.0
C373 C 0.50575 0.8799 0.60626 0.0
C374 C 0.50709 0.91154 0.5919 0.0
C375 C 0.52069 0.85999 0.55285 0.0
C376 C 0.5368 0.90302 0.46981 0.0
C377 C 0.53614 0.87152 0.48467 0.0
N378 N 0.52238 0.95341 0.51205 0.0
C379 C 0.53555 0.96557 0.44405 0.0
C380 C 0.55099 0.91539 0.40088 0.0
C381 C 0.5502 0.9468 0.38776 0.0
Gd382 Gd 0.52531 0.04994 0.74429 0.0
Gd383 Gd 0.49926 0.98339 0.61246 0.0
N384 N 0.49261 0.93138 0.64156 0.0
C385 C 0.48904 0.86924 0.67316 0.0
C386 C 0.47544 0.92107 0.70532 0.0
C387 C 0.47366 0.88992 0.72257 0.0
H388 H 0.46361 0.93683 0.7442 0.0
H389 H 0.46046 0.8819 0.77403 0.0
H390 H 0.56116 0.09661 0.61346 0.0
H391 H 0.53517 0.98981 0.43354 0.0
H392 H 0.56378 0.15157 0.58295 0.0
H393 H 0.48754 0.84512 0.6865 0.0
H394 H 0.52005 0.83562 0.56306 0.0
H395 H 0.48856 0.04333 0.92188 0.0
H396 H 0.56225 0.90089 0.35703 0.0
H397 H 0.5609 0.95656 0.33434 0.0
H398 H 0.50197 0.19739 0.79 0.0
H399 H 0.54716 0.85587 0.44328 0.0
H400 H 0.45947 0.13199 0.99532 0.0
H401 H 0.46168 0.07643 0.01939 0.0
N402 N 0.50099 0.07971 0.84297 0.0
C403 C 0.50051 0.11016 0.82942 0.0
C404 C 0.48775 0.06753 0.91084 0.0
C405 C 0.4712 0.11756 0.95221 0.0
C406 C 0.47247 0.08621 0.96612 0.0
C407 C 0.48555 0.12996 0.88355 0.0
H408 H 0.47437 0.17701 0.90883 0.0
N409 N 0.53121 0.1019 0.71415 0.0
C410 C 0.51609 0.12162 0.7628 0.0
C411 C 0.5342 0.164 0.68196 0.0
C412 C 0.51712 0.15324 0.74809 0.0
C413 C 0.54876 0.11232 0.65127 0.0
C414 C 0.55025 0.14345 0.63369 0.0
O415 O 0.51942 0.96805 0.73287 0.0
O416 O 0.51189 1.00812 0.82061 0.0
O417 O 0.56426 0.02332 0.77994 0.0
O418 O 0.55825 0.07032 0.82685 0.0
O419 O 0.46645 0.992 0.71869 0.0
O420 O 0.47427 0.04233 0.75321 0.0
O421 O 0.50568 0.06511 0.62269 0.0
O422 O 0.51365 0.02484 0.53588 0.0
O423 O 0.46124 0.01156 0.58025 0.0
O424 O 0.46502 0.96469 0.53027 0.0
O425 O 0.55862 0.04095 0.63983 0.0
O426 O 0.55032 0.99087 0.60306 0.0
C427 C 0.51733 0.97898 0.80724 0.0
C428 C 0.4568 0.01783 0.75058 0.0
C429 C 0.60329 0.04292 0.87121 0.0
C430 C 0.64621 0.01239 0.9153 0.0
C431 C 0.64366 0.066 0.95161 0.0
C432 C 0.61603 0.06842 0.91042 0.0
C433 C 0.65876 0.03821 0.95393 0.0
C434 C 0.61836 0.01487 0.8744 0.0
C435 C 0.57484 0.04567 0.82505 0.0
C436 C 0.50157 0.17304 0.80051 0.0
C437 C 0.48585 0.16143 0.86816 0.0
H438 H 0.5355 0.18812 0.66842 0.0
C439 C 0.5081 0.05398 0.54855 0.0
C440 C 0.5681 0.01513 0.60757 0.0
C441 C 0.42107 0.99473 0.48974 0.0
C442 C 0.38162 0.02898 0.44265 0.0
C443 C 0.37739 0.97457 0.41663 0.0
C444 C 0.40504 0.96994 0.45634 0.0
C445 C 0.36564 1.00389 0.40995 0.0
C446 C 0.40938 0.02423 0.48221 0.0
C447 C 0.44954 0.99006 0.53423 0.0
H448 H 0.65341 0.08571 0.98181 0.0
H449 H 0.60481 0.09027 0.90871 0.0
H450 H 0.68003 0.03677 0.98706 0.0
H451 H 0.6087 0.99504 0.84434 0.0
H452 H 0.36504 0.95542 0.39093 0.0
H453 H 0.4137 0.947 0.46158 0.0
H454 H 0.34433 1.00703 0.37793 0.0
H455 H 0.42169 0.04352 0.50763 0.0
C456 C 0.41106 0.50767 0.78563 0.0
C457 C 0.41396 0.47279 0.89952 0.0
C458 C 0.42815 0.49257 0.84325 0.0
C459 C 0.38241 0.4675 0.8944 0.0
C460 C 0.37926 0.50327 0.78179 0.0
C461 C 0.3651 0.48267 0.83552 0.0
N462 N 0.42536 0.52793 0.73617 0.0
C463 C 0.4092 0.54554 0.68362 0.0
C464 C 0.36262 0.52029 0.72542 0.0
C465 C 0.37764 0.54174 0.67663 0.0
Gd466 Gd 0.54618 0.5095 0.6014 0.0
Gd467 Gd 0.47848 0.53121 0.74611 0.0
N468 N 0.45851 0.49838 0.84667 0.0
C469 C 0.43176 0.45958 0.96049 0.0
C470 C 0.4757 0.48687 0.90872 0.0
C471 C 0.4627 0.46696 0.96566 0.0
H472 H 0.49963 0.49232 0.91329 0.0
H473 H 0.47657 0.45731 1.01346 0.0
H474 H 0.50718 0.50506 0.4228 0.0
H475 H 0.42075 0.56257 0.64718 0.0
H476 H 0.49943 0.53617 0.30068 0.0
H477 H 0.42174 0.44424 1.00485 0.0
H478 H 0.3711 0.45222 0.93672 0.0
H479 H 0.60611 0.54081 0.69962 0.0
H480 H 0.33814 0.51755 0.7204 0.0
H481 H 0.36491 0.55546 0.63405 0.0
H482 H 0.573 0.61667 0.32688 0.0
H483 H 0.3407 0.47883 0.83327 0.0
H484 H 0.63882 0.61607 0.55909 0.0
H485 H 0.64223 0.58328 0.68097 0.0
N486 N 0.58152 0.54979 0.59055 0.0
C487 C 0.57996 0.56683 0.5215 0.0
C488 C 0.60394 0.55506 0.64662 0.0
C489 C 0.62278 0.59741 0.56689 0.0
C490 C 0.6247 0.57904 0.63596 0.0
C491 C 0.60032 0.5914 0.50847 0.0
H492 H 0.61273 0.62848 0.42771 0.0
N493 N 0.53831 0.53602 0.47817 0.0
C494 C 0.55739 0.56014 0.46464 0.0
C495 C 0.533 0.56975 0.33528 0.0
C496 C 0.55492 0.57788 0.39327 0.0
C497 C 0.51892 0.52651 0.41819 0.0
C498 C 0.51532 0.54361 0.34715 0.0
O499 O 0.48481 0.48007 0.74369 0.0
O500 O 0.53149 0.46981 0.6839 0.0
O501 O 0.56223 0.4842 0.49677 0.0
O502 O 0.58975 0.48629 0.60498 0.0
O503 O 0.5241 0.52512 0.81183 0.0
O504 O 0.56345 0.50804 0.72985 0.0
O505 O 0.53702 0.55865 0.64213 0.0
O506 O 0.48588 0.56079 0.63479 0.0
O507 O 0.50324 0.56821 0.80189 0.0
O508 O 0.45335 0.56436 0.81816 0.0
O509 O 0.49867 0.49135 0.56382 0.0
O510 O 0.46696 0.52859 0.61156 0.0
C511 C 0.50738 0.46151 0.72715 0.0
C512 C 0.55262 0.51653 0.80077 0.0
C513 C 0.58596 0.43952 0.53798 0.0
C514 C 0.55736 0.39159 0.54542 0.0
C515 C 0.61248 0.39188 0.52394 0.0
C516 C 0.61299 0.42367 0.52545 0.0
C517 C 0.58492 0.37592 0.53243 0.0
C518 C 0.55873 0.42344 0.55138 0.0
C519 C 0.58527 0.47284 0.53566 0.0
C520 C 0.57476 0.60271 0.38104 0.0
C521 C 0.59746 0.60938 0.43831 0.0
H522 H 0.53039 0.5828 0.27978 0.0
C523 C 0.51242 0.57352 0.62045 0.0
C524 C 0.47266 0.50637 0.5601 0.0
C525 C 0.47964 0.60676 0.88505 0.0
C526 C 0.50954 0.64307 0.96385 0.0
C527 C 0.45428 0.64549 0.9648 0.0
C528 C 0.45277 0.62055 0.9122 0.0
C529 C 0.48251 0.6566 0.99114 0.0
C530 C 0.50796 0.61841 0.91021 0.0
C531 C 0.47851 0.57928 0.83441 0.0
H532 H 0.63334 0.37957 0.51336 0.0
H533 H 0.63428 0.43581 0.516 0.0
H534 H 0.58536 0.35147 0.52521 0.0
H535 H 0.53838 0.43622 0.56334 0.0
H536 H 0.43353 0.65604 0.98587 0.0
H537 H 0.43067 0.61189 0.89353 0.0
H538 H 0.48327 0.67582 0.03247 0.0
H539 H 0.52886 0.60769 0.8905 0.0
C540 C 0.01715 0.41127 0.78346 0.0
C541 C 0.05034 0.41135 0.90113 0.0
C542 C 0.03195 0.42694 0.84476 0.0
C543 C 0.05481 0.37991 0.89192 0.0
C544 C 0.0204 0.3795 0.77591 0.0
C545 C 0.03989 0.364 0.82929 0.0
N546 N 0.99794 0.42687 0.73459 0.0
C547 C 0.9799 0.41194 0.67978 0.0
C548 C 1.00321 0.36421 0.7166 0.0
C549 C 0.98258 0.38047 0.66899 0.0
Gd550 Gd 0.02366 0.54781 0.606 0.0
Gd551 Gd 0.99698 0.47995 0.74963 0.0
N552 N 0.02677 0.45718 0.85218 0.0
C553 C 0.06286 0.42767 0.96646 0.0
C554 C 0.03731 0.47279 0.91874 0.0
C555 C 0.05593 0.45844 0.9759 0.0
H556 H 0.03213 0.49656 0.92672 0.0
H557 H 0.06489 0.47111 0.02723 0.0
H558 H 0.03345 0.51042 0.42637 0.0
H559 H 0.96356 0.42444 0.644 0.0
H560 H 1.00533 0.50247 0.29877 0.0
H561 H 0.07714 0.41656 1.01107 0.0
H562 H 0.06909 0.36756 0.93414 0.0
H563 H 0.99267 0.60916 0.6951 0.0
H564 H 1.00507 0.33981 0.70866 0.0
H565 H 0.96863 0.36877 0.62434 0.0
H566 H 0.92396 0.57411 0.313 0.0
H567 H 0.0429 0.33962 0.8241 0.0
H568 H 0.92054 0.64075 0.54338 0.0
H569 H 0.95127 0.64517 0.66904 0.0
N570 N 0.98495 0.5836 0.58666 0.0
C571 C 0.96925 0.58158 0.51548 0.0
C572 C 0.97927 0.60656 0.64054 0.0
C573 C 0.9387 0.62474 0.55453 0.0
C574 C 0.95592 0.62725 0.62567 0.0
C575 C 0.94537 0.60187 0.49808 0.0
H576 H 0.91025 0.61384 0.41145 0.0
N577 N 1.00093 0.54052 0.47705 0.0
C578 C 0.97704 0.55904 0.45998 0.0
C579 C 0.97068 0.53498 0.32861 0.0
C580 C 0.96105 0.55647 0.38565 0.0
C581 C 0.01208 0.52171 0.41822 0.0
C582 C 0.9967 0.51797 0.34432 0.0
O583 O 0.04765 0.4881 0.76063 0.0
O584 O 0.06383 0.52718 0.67515 0.0
O585 O 0.04822 0.56994 0.50728 0.0
O586 O 0.05207 0.58768 0.62923 0.0
O587 O 1.00615 0.52454 0.81812 0.0
O588 O 0.0206 0.5648 0.73467 0.0
O589 O 0.97394 0.53973 0.64348 0.0
O590 O 0.96994 0.4887 0.63467 0.0
O591 O 0.95983 0.50591 0.79852 0.0
O592 O 0.96184 0.4563 0.81988 0.0
O593 O 0.04013 0.50008 0.56855 0.0
O594 O 1.00208 0.46823 0.61518 0.0
C595 C 0.069 0.50612 0.73092 0.0
C596 C 0.01365 0.55345 0.80634 0.0
C597 C 0.09718 0.58056 0.55767 0.0
C598 C 0.13768 0.54319 0.546 0.0
C599 C 0.14837 0.59333 0.60235 0.0
C600 C 0.11792 0.60153 0.59115 0.0
C601 C 0.15826 0.56425 0.58021 0.0
C602 C 0.10728 0.55149 0.53574 0.0
C603 C 0.06431 0.5865 0.55734 0.0
C604 C 0.93661 0.57598 0.36944 0.0
C605 C 0.92888 0.59869 0.42535 0.0
H606 H 0.95901 0.5323 0.27089 0.0
C607 C 0.95853 0.51552 0.61929 0.0
C608 C 0.02463 0.47412 0.5644 0.0
C609 C 0.91927 0.48394 0.87933 0.0
C610 C 0.88361 0.51507 0.95489 0.0
C611 C 0.87834 0.45996 0.95572 0.0
C612 C 0.90381 0.45758 0.90533 0.0
C613 C 0.8684 0.48855 0.9811 0.0
C614 C 0.90876 0.51265 0.90327 0.0
C615 C 0.94749 0.48182 0.83208 0.0
H616 H 0.16432 0.60949 0.62857 0.0
H617 H 0.1104 0.62381 0.61051 0.0
H618 H 0.18201 0.55851 0.58806 0.0
H619 H 0.09124 0.53477 0.51221 0.0
H620 H 0.86652 0.43961 0.976 0.0
H621 H 0.91159 0.4352 0.88763 0.0
H622 H 0.84882 0.48999 0.021 0.0
H623 H 0.92079 0.53316 0.88458 0.0
C624 C 0.11856 0.01546 0.40876 0.0
C625 C 0.11994 0.04297 0.36448 0.0
H626 H 0.09654 0.98922 0.50234 0.0
C627 C 0.0982 0.06542 0.38432 0.0
H628 H 0.13471 0.99753 0.39713 0.0
C629 C 0.07699 0.06107 0.44762 0.0
C630 C 0.07597 0.03375 0.49224 0.0
H631 H 0.0974 0.08668 0.35125 0.0
H632 H 0.06153 0.07937 0.46195 0.0
C633 C 0.09683 0.01086 0.47082 0.0
C634 C 0.4836 0.12249 0.42113 0.0
C635 C 0.49992 0.11901 0.34788 0.0
H636 H 0.47373 0.1054 0.54078 0.0
C637 C 0.51892 0.09341 0.34064 0.0
H638 H 0.4689 0.14191 0.42948 0.0
C639 C 0.52109 0.07179 0.40434 0.0
C640 C 0.50506 0.07569 0.47803 0.0
H641 H 0.53181 0.0899 0.28529 0.0
H642 H 0.53585 0.05238 0.39659 0.0
C643 C 0.48644 0.10149 0.48529 0.0
C644 C 0.40635 0.5183 0.41073 0.0
C645 C 0.4078 0.49288 0.35836 0.0
H646 H 0.42522 0.54262 0.51193 0.0
C647 C 0.43139 0.47177 0.37345 0.0
H648 H 0.3886 0.535 0.40367 0.0
C649 C 0.45213 0.47573 0.43861 0.0
C650 C 0.45042 0.50114 0.49077 0.0
H651 H 0.43412 0.45207 0.3347 0.0
H652 H 0.46966 0.45891 0.44777 0.0
C653 C 0.42726 0.52241 0.47489 0.0
C654 C 0.01295 0.40798 0.4132 0.0
C655 C 0.03909 0.40928 0.36319 0.0
H656 H 0.98771 0.42704 0.51204 0.0
C657 C 0.06053 0.43277 0.38057 0.0
H658 H 0.9959 0.39037 0.40453 0.0
C659 C 0.05625 0.45341 0.44565 0.0
C660 C 0.03009 0.4519 0.49526 0.0
H661 H 0.08078 0.43553 0.3438 0.0
H662 H 0.07348 0.47072 0.45679 0.0
C663 C 0.00848 0.42892 0.47707 0.0
C664 C 0.90863 0.03005 0.9441 0.0
C665 C 0.90659 1.0042 0.99482 0.0
H666 H 0.93011 0.05192 0.84237 0.0
C667 C 0.92721 0.98028 0.97955 0.0
H668 H 0.89402 0.0494 0.95403 0.0
C669 C 0.94859 0.98202 0.91548 0.0
C670 C 0.94985 1.00755 0.86375 0.0
H671 H 0.92643 0.9597 0.01568 0.0
H672 H 0.96371 0.96304 0.9055 0.0
C673 C 0.92965 0.03159 0.87967 0.0
C674 C 0.51086 0.94203 0.01971 0.0
C675 C 0.52433 0.91342 1.00682 0.0
H676 H 0.49833 0.98531 0.96797 0.0
C677 C 0.53539 0.90685 0.92851 0.0
H678 H 0.50242 0.94794 0.07955 0.0
C679 C 0.53292 0.92802 0.8647 0.0
C680 C 0.51977 0.95684 0.87711 0.0
H681 H 0.5462 0.88522 0.91669 0.0
H682 H 0.54176 0.92183 0.80546 0.0
C683 C 0.50876 0.96353 0.95581 0.0
C684 C 0.62546 0.5079 0.92827 0.0
C685 C 0.61825 0.52282 1.00172 0.0
H686 H 0.61103 0.49415 0.8089 0.0
C687 C 0.58834 0.53412 1.0098 0.0
H688 H 0.64813 0.49916 0.91839 0.0
C689 C 0.56685 0.53133 0.94622 0.0
C690 C 0.57445 0.51724 0.87192 0.0
H691 H 0.58148 0.54544 0.06532 0.0
H692 H 0.54444 0.54092 0.95478 0.0
C693 C 0.60405 0.50523 0.86468 0.0
C694 C 0.99759 0.58855 0.01714 0.0
C695 C 0.00801 0.61895 1.0082 0.0
H696 H 0.99127 0.54433 0.96262 0.0
C697 C 0.0217 0.62676 0.93325 0.0
H698 H 0.98723 0.58118 0.07366 0.0
C699 C 0.02415 0.60544 0.86943 0.0
C700 C 0.01309 0.5753 0.87766 0.0
H701 H 0.02969 0.64978 0.92242 0.0
H702 H 0.03434 0.6129 0.81275 0.0
C703 C 1.00014 0.56715 0.95322 0.0
C704 C 0.06423 0.1927 0.53032 0.0
C705 C 0.07131 0.18301 0.45065 0.0
H706 H 0.03168 0.19198 0.62752 0.0
C707 C 0.05287 0.16011 0.41533 0.0
H708 H 0.07822 0.20937 0.56157 0.0
C709 C 0.02693 0.1494 0.45485 0.0
C710 C 0.01837 0.16132 0.53062 0.0
H711 H 0.05668 0.15193 0.35415 0.0
H712 H 0.01253 0.13307 0.42332 0.0
C713 C 0.0376 0.18259 0.56881 0.0
C714 C 0.37489 0.11041 0.37235 0.0
C715 C 0.34308 0.11406 0.37558 0.0
H716 H 0.41219 0.07996 0.39012 0.0
C717 C 0.32566 0.0924 0.41926 0.0
H718 H 0.38912 0.12691 0.34102 0.0
C719 C 0.33882 0.06562 0.44676 0.0
C720 C 0.36968 0.06009 0.4325 0.0
H721 H 0.30116 0.09411 0.4241 0.0
H722 H 0.32437 0.04825 0.47385 0.0
C723 C 0.3881 0.08348 0.40028 0.0
C724 C 0.49998 0.3276 0.52159 0.0
C725 C 0.47652 0.34279 0.48003 0.0
H726 H 0.54327 0.33122 0.57969 0.0
C727 C 0.47577 0.37465 0.48416 0.0
H728 H 0.50113 0.303 0.52222 0.0
C729 C 0.50108 0.39087 0.51215 0.0
C730 C 0.52714 0.37553 0.54073 0.0
H731 H 0.45731 0.38716 0.45651 0.0
H732 H 0.50079 0.41518 0.50291 0.0
C733 C 0.52482 0.34389 0.55275 0.0
C734 C 0.17995 0.46875 0.52381 0.0
C735 C 0.17324 0.46123 0.44216 0.0
H736 H 0.17442 0.50115 0.62069 0.0
C737 C 0.15092 0.47828 0.40131 0.0
H738 H 0.19615 0.45563 0.55854 0.0
C739 C 0.13847 0.50395 0.43715 0.0
C740 C 0.14784 0.51337 0.51484 0.0
H741 H 0.14493 0.47384 0.33854 0.0
H742 H 0.12305 0.51765 0.40134 0.0
C743 C 0.16767 0.49487 0.55946 0.0
C744 C 0.98224 0.83873 0.04323 0.0
C745 C 0.95884 0.83209 0.98716 0.0
H746 H 0.02737 0.8561 0.06175 0.0
C747 C 0.96392 0.83715 0.90401 0.0
H748 H 0.97935 0.83399 0.10753 0.0
C749 C 0.99166 0.84965 0.87786 0.0
C750 C 0.01488 0.8564 0.93437 0.0
H751 H 0.94653 0.83142 0.85967 0.0
H752 H 0.99499 0.85418 0.81363 0.0
C753 C 0.01 0.85064 0.01706 0.0
C754 C 0.66295 0.93092 0.97136 0.0
C755 C 0.69503 0.93135 0.96915 0.0
H756 H 0.6221 0.95679 0.95688 0.0
C757 C 0.70977 0.95617 0.93092 0.0
H758 H 0.65074 0.91195 0.99852 0.0
C759 C 0.69342 0.98168 0.90738 0.0
C760 C 0.66196 0.98286 0.92049 0.0
H761 H 0.73435 0.95771 0.92731 0.0
H762 H 0.7057 1.00138 0.8844 0.0
C763 C 0.64653 0.95659 0.94755 0.0
C764 C 0.571 0.67112 0.10503 0.0
C765 C 0.59291 0.68266 0.05007 0.0
H766 H 0.52727 0.65009 0.12026 0.0
C767 C 0.58887 0.67726 0.96636 0.0
H768 H 0.57289 0.67518 0.16988 0.0
C769 C 0.56232 0.66291 0.9381 0.0
C770 C 0.53936 0.65416 0.99313 0.0
H771 H 0.60524 0.68594 0.92262 0.0
H772 H 0.55889 0.66037 0.87312 0.0
C773 C 0.54445 0.65725 0.07677 0.0
C774 C 0.85244 0.59501 0.95691 0.0
C775 C 0.84734 0.59924 0.04067 0.0
H776 H 0.8681 0.56459 0.86376 0.0
C777 C 0.85836 0.57729 0.0957 0.0
H778 H 0.84415 0.6114 0.91314 0.0
C779 C 0.87123 0.55047 0.0675 0.0
C780 C 0.87388 0.54519 0.98388 0.0
H781 H 0.85452 0.57932 0.16059 0.0
H782 H 0.87785 0.53322 0.11104 0.0
C783 C 0.86584 0.56819 0.92872 0.0
C784 C 0.04189 0.15426 0.7782 0.0
C785 C 0.03183 0.15803 0.85936 0.0
H786 H 0.04627 0.12437 0.67438 0.0
C787 C 0.01824 0.13246 0.89722 0.0
H788 H 0.05288 0.17301 0.74693 0.0
C789 C 0.0151 0.10442 0.85616 0.0
C790 C 0.0249 0.10078 0.77502 0.0
H791 H 0.0107 0.13377 0.95984 0.0
H792 H 1.00483 0.08542 0.88834 0.0
C793 C 0.03807 0.12629 0.73632 0.0
C794 C 0.38424 0.05087 0.84283 0.0
C795 C 0.36696 0.0249 0.8642 0.0
H796 H 0.42543 0.06906 0.79198 0.0
C797 C 0.37966 0.99613 0.84778 0.0
H798 H 0.37566 0.07343 0.85546 0.0
C799 C 0.40849 0.99356 0.81 0.0
C800 C 0.42574 0.01968 0.78922 0.0
H801 H 0.36714 0.97559 0.86329 0.0
H802 H 0.4174 0.97109 0.79799 0.0
C803 C 0.41307 0.04832 0.80664 0.0
C804 C 0.53006 0.38244 0.80964 0.0
C805 C 0.50258 0.3714 0.8441 0.0
H806 H 0.55322 0.41865 0.74523 0.0
C807 C 0.47665 0.38989 0.83543 0.0
H808 H 0.55057 0.36905 0.81376 0.0
C809 C 0.47817 0.41833 0.7958 0.0
C810 C 0.5057 0.42971 0.76297 0.0
H811 H 0.45507 0.38288 0.86151 0.0
H812 H 0.4576 0.43163 0.79198 0.0
C813 C 0.53155 0.41097 0.76947 0.0
C814 C 0.13732 0.47195 0.84302 0.0
C815 C 0.15875 0.49608 0.84571 0.0
H816 H 0.09336 0.45594 0.80482 0.0
C817 C 0.15078 0.52341 0.80584 0.0
H818 H 0.142 0.45063 0.87341 0.0
C819 C 0.12235 0.52648 0.76583 0.0
C820 C 0.10074 0.50248 0.76538 0.0
H821 H 0.1665 0.54253 0.80559 0.0
H822 H 0.11696 0.548 0.73735 0.0
C823 C 0.10901 0.47511 0.80396 0.0
C824 C 0.97452 0.8904 0.52177 0.0
C825 C 1.00004 0.87603 0.48632 0.0
H826 H 0.95698 0.92881 0.58771 0.0
C827 C 0.02814 0.89184 0.49099 0.0
H828 H 0.95227 0.87967 0.51916 0.0
C829 C 0.0306 0.92057 0.52921 0.0
C830 C 1.00508 0.93485 0.56426 0.0
H831 H 0.04856 0.88187 0.46599 0.0
H832 H 0.05271 0.93168 0.53105 0.0
C833 C 0.97705 0.91911 0.56022 0.0
C834 C 0.63939 0.98261 0.50723 0.0
C835 C 0.65834 1.00834 0.49606 0.0
H836 H 0.5969 0.96449 0.54976 0.0
C837 C 0.64705 0.0368 0.52136 0.0
H838 H 0.64676 0.96035 0.48738 0.0
C839 C 0.618 0.03923 0.55795 0.0
C840 C 0.5992 0.01334 0.56912 0.0
H841 H 0.66085 0.05716 0.51402 0.0
H842 H 0.61027 0.06144 0.57717 0.0
C843 C 0.61045 0.98505 0.54275 0.0
C844 C 0.54145 0.65253 0.55365 0.0
C845 C 0.51806 0.66291 0.50164 0.0
H846 H 0.55793 0.61706 0.63222 0.0
C847 C 0.49256 0.64346 0.49102 0.0
H848 H 0.56177 0.66619 0.56313 0.0
C849 C 0.49066 0.61489 0.53014 0.0
C850 C 0.51424 0.6045 0.58097 0.0
H851 H 0.47378 0.65034 0.45274 0.0
H852 H 0.47076 0.60067 0.51953 0.0
C853 C 0.53949 0.62397 0.59275 0.0
C854 C 0.88891 0.4966 0.48629 0.0
C855 C 0.87043 0.52256 0.4948 0.0
H856 H 0.93056 0.47403 0.51813 0.0
C857 C 0.88142 0.54608 0.54612 0.0
H858 H 0.88152 0.47771 0.44866 0.0
C859 C 0.90961 0.54375 0.58687 0.0
C860 C 0.92809 0.51798 0.57735 0.0
H861 H 0.86853 0.56675 0.55399 0.0
H862 H 0.91695 0.56225 0.62597 0.0
C863 C 0.91712 0.49433 0.52696 0.0
loop_
_geom_bond_atom_site_label_1
_geom_bond_atom_site_label_2
_geom_bond_distance
_geom_bond_site_symmetry_2
_ccdc_geom_bond_type
C0 C1 1.384 . S
C0 H13 0.947 . S
C0 C35 1.382 . S
C1 C0 1.384 . S
C1 C2 1.378 . S
C2 C1 1.378 . S
C2 C3 1.378 . S
C2 H14 0.952 . S
C3 C2 1.378 . S
C3 H15 0.950 . S
C3 C34 1.383 . S
H4 C23 0.947 . S
H5 C24 0.946 . S
H6 C26 0.953 . S
H7 C27 0.945 . S
H8 C29 0.952 . S
H9 C30 0.949 1_556 S
H10 C32 0.950 . S
H11 C33 0.948 . S
H12 C35 0.951 . S
H13 C0 0.947 . S
H14 C2 0.952 . S
H15 C3 0.950 . S
N16 C19 1.382 . S
N16 C21 1.363 . S
N17 C19 1.371 . S
N17 C20 1.372 . S
N18 C20 1.361 . S
N18 C21 1.377 . S
C19 N16 1.382 . S
C19 N17 1.371 . S
C19 C22 1.480 . S
C20 N17 1.372 . S
C20 N18 1.361 . S
C20 C28 1.457 . S
C21 N16 1.363 . S
C21 N18 1.377 . S
C21 C34 1.479 . S
C22 C19 1.480 . S
C22 C23 1.383 . S
C22 C27 1.385 . S
C23 H4 0.947 . S
C23 C22 1.383 . S
C23 C24 1.388 . S
C24 H5 0.946 . S
C24 C23 1.388 . S
C24 C25 1.384 . S
C25 C24 1.384 . S
C25 C26 1.377 . S
C26 H6 0.953 . S
C26 C25 1.377 . S
C26 C27 1.369 . S
C27 H7 0.945 . S
C27 C22 1.385 . S
C27 C26 1.369 . S
C28 C20 1.457 . S
C28 C29 1.372 . S
C28 C33 1.364 . S
C29 H8 0.952 . S
C29 C28 1.372 . S
C29 C30 1.389 . S
C30 H9 0.949 1_554 S
C30 C29 1.389 . S
C30 C31 1.387 . S
C31 C30 1.387 . S
C31 C32 1.372 . S
C32 H10 0.950 . S
C32 C31 1.372 . S
C32 C33 1.379 . S
C33 H11 0.948 . S
C33 C28 1.364 . S
C33 C32 1.379 . S
C34 C3 1.383 . S
C34 C21 1.479 . S
C34 C35 1.398 . S
C35 C0 1.382 . S
C35 H12 0.951 . S
C35 C34 1.398 . S
C36 C37 1.384 . S
C36 H49 0.947 . S
C36 C71 1.382 . S
C37 C36 1.384 . S
C37 C38 1.378 . S
C38 C37 1.378 . S
C38 C39 1.378 . S
C38 H50 0.952 . S
C39 C38 1.378 . S
C39 H51 0.950 . S
C39 C70 1.383 . S
H40 C59 0.947 . S
H41 C60 0.946 . S
H42 C62 0.953 . S
H43 C63 0.945 . S
H44 C65 0.952 . S
H45 C66 0.949 1_556 S
H46 C68 0.950 . S
H47 C69 0.948 . S
H48 C71 0.951 . S
H49 C36 0.947 . S
H50 C38 0.952 . S
H51 C39 0.950 . S
N52 C55 1.382 . S
N52 C57 1.363 . S
N53 C55 1.371 . S
N53 C56 1.372 . S
N54 C56 1.361 . S
N54 C57 1.377 . S
C55 N52 1.382 . S
C55 N53 1.371 . S
C55 C58 1.480 . S
C56 N53 1.372 . S
C56 N54 1.361 . S
C56 C64 1.457 . S
C57 N52 1.363 . S
C57 N54 1.377 . S
C57 C70 1.479 . S
C58 C55 1.480 . S
C58 C59 1.383 . S
C58 C63 1.385 . S
C59 H40 0.947 . S
C59 C58 1.383 . S
C59 C60 1.388 . S
C60 H41 0.946 . S
C60 C59 1.388 . S
C60 C61 1.384 . S
C61 C60 1.384 . S
C61 C62 1.377 . S
C62 H42 0.953 . S
C62 C61 1.377 . S
C62 C63 1.369 . S
C63 H43 0.945 . S
C63 C58 1.385 . S
C63 C62 1.369 . S
C64 C56 1.457 . S
C64 C65 1.372 . S
C64 C69 1.364 . S
C65 H44 0.952 . S
C65 C64 1.372 . S
C65 C66 1.389 . S
C66 H45 0.949 1_554 S
C66 C65 1.389 . S
C66 C67 1.387 . S
C67 C66 1.387 . S
C67 C68 1.372 . S
C68 H46 0.950 . S
C68 C67 1.372 . S
C68 C69 1.379 . S
C69 H47 0.948 . S
C69 C64 1.364 . S
C69 C68 1.379 . S
C70 C39 1.383 . S
C70 C57 1.479 . S
C70 C71 1.398 . S
C71 C36 1.382 . S
C71 H48 0.951 . S
C71 C70 1.398 . S
C72 C73 1.384 . S
C72 H85 0.947 . S
C72 C107 1.382 . S
C73 C72 1.384 . S
C73 C74 1.378 . S
C74 C73 1.378 . S
C74 C75 1.378 . S
C74 H86 0.952 . S
C75 C74 1.378 . S
C75 H87 0.950 . S
C75 C106 1.383 . S
H76 C95 0.947 . S
H77 C96 0.946 . S
H78 C98 0.953 . S
H79 C99 0.945 . S
H80 C101 0.952 . S
H81 C102 0.949 1_556 S
H82 C104 0.950 . S
H83 C105 0.948 . S
H84 C107 0.951 . S
H85 C72 0.947 . S
H86 C74 0.952 . S
H87 C75 0.950 . S
N88 C91 1.382 . S
N88 C93 1.363 . S
N89 C91 1.371 . S
N89 C92 1.372 . S
N90 C92 1.361 . S
N90 C93 1.377 . S
C91 N88 1.382 . S
C91 N89 1.371 . S
C91 C94 1.480 . S
C92 N89 1.372 . S
C92 N90 1.361 . S
C92 C100 1.457 . S
C93 N88 1.363 . S
C93 N90 1.377 . S
C93 C106 1.479 . S
C94 C91 1.480 . S
C94 C95 1.383 . S
C94 C99 1.385 . S
C95 H76 0.947 . S
C95 C94 1.383 . S
C95 C96 1.388 . S
C96 H77 0.946 . S
C96 C95 1.388 . S
C96 C97 1.384 . S
C97 C96 1.384 . S
C97 C98 1.377 . S
C98 H78 0.953 . S
C98 C97 1.377 . S
C98 C99 1.369 . S
C99 H79 0.945 . S
C99 C94 1.385 . S
C99 C98 1.369 . S
C100 C92 1.457 . S
C100 C101 1.372 . S
C100 C105 1.364 . S
C101 H80 0.952 . S
C101 C100 1.372 . S
C101 C102 1.389 . S
C102 H81 0.949 1_554 S
C102 C101 1.389 . S
C102 C103 1.387 . S
C103 C102 1.387 . S
C103 C104 1.372 . S
C104 H82 0.950 . S
C104 C103 1.372 . S
C104 C105 1.379 . S
C105 H83 0.948 . S
C105 C100 1.364 . S
C105 C104 1.379 . S
C106 C75 1.383 . S
C106 C93 1.479 . S
C106 C107 1.398 . S
C107 C72 1.382 . S
C107 H84 0.951 . S
C107 C106 1.398 . S
C108 C109 1.384 . S
C108 H121 0.947 . S
C108 C143 1.382 . S
C109 C108 1.384 . S
C109 C110 1.378 . S
C110 C109 1.378 . S
C110 C111 1.378 . S
C110 H122 0.952 1_554 S
C111 C110 1.378 . S
C111 H123 0.950 . S
C111 C142 1.383 . S
H112 C131 0.947 . S
H113 C132 0.946 . S
H114 C134 0.953 . S
H115 C135 0.945 . S
H116 C137 0.952 . S
H117 C138 0.949 . S
H118 C140 0.950 . S
H119 C141 0.948 . S
H120 C143 0.951 . S
H121 C108 0.947 . S
H122 C110 0.952 1_556 S
H123 C111 0.950 . S
N124 C127 1.382 . S
N124 C129 1.363 . S
N125 C127 1.371 . S
N125 C128 1.372 . S
N126 C128 1.361 . S
N126 C129 1.377 . S
C127 N124 1.382 . S
C127 N125 1.371 . S
C127 C130 1.480 . S
C128 N125 1.372 . S
C128 N126 1.361 . S
C128 C136 1.457 . S
C129 N124 1.363 . S
C129 N126 1.377 . S
C129 C142 1.479 . S
C130 C127 1.480 . S
C130 C131 1.383 . S
C130 C135 1.385 . S
C131 H112 0.947 . S
C131 C130 1.383 . S
C131 C132 1.388 . S
C132 H113 0.946 . S
C132 C131 1.388 . S
C132 C133 1.384 . S
C133 C132 1.384 . S
C133 C134 1.377 . S
C134 H114 0.953 . S
C134 C133 1.377 . S
C134 C135 1.369 . S
C135 H115 0.945 . S
C135 C130 1.385 . S
C135 C134 1.369 . S
C136 C128 1.457 . S
C136 C137 1.372 . S
C136 C141 1.364 . S
C137 H116 0.952 . S
C137 C136 1.372 . S
C137 C138 1.389 . S
C138 H117 0.949 . S
C138 C137 1.389 . S
C138 C139 1.387 . S
C139 C138 1.387 . S
C139 C140 1.372 . S
C140 H118 0.950 . S
C140 C139 1.372 . S
C140 C141 1.379 . S
C141 H119 0.948 . S
C141 C136 1.364 . S
C141 C140 1.379 . S
C142 C111 1.383 . S
C142 C129 1.479 . S
C142 C143 1.398 . S
C143 C108 1.382 . S
C143 H120 0.951 . S
C143 C142 1.398 . S
C144 C145 1.384 . S
C144 H157 0.947 . S
C144 C179 1.382 . S
C145 C144 1.384 . S
C145 C146 1.378 . S
C146 C145 1.378 . S
C146 C147 1.378 . S
C146 H158 0.952 . S
C147 C146 1.378 . S
C147 H159 0.950 . S
C147 C178 1.383 . S
H148 C167 0.947 1_556 S
H149 C168 0.946 . S
H150 C170 0.953 . S
H151 C171 0.945 . S
H152 C173 0.952 . S
H153 C174 0.949 . S
H154 C176 0.950 . S
H155 C177 0.948 . S
H156 C179 0.951 . S
H157 C144 0.947 . S
H158 C146 0.952 . S
H159 C147 0.950 . S
N160 C163 1.382 1_556 S
N160 C165 1.363 . S
N161 C163 1.371 . S
N161 C164 1.372 . S
N162 C164 1.361 . S
N162 C165 1.377 1_554 S
C163 N160 1.382 1_554 S
C163 N161 1.371 . S
C163 C166 1.480 . S
C164 N161 1.372 . S
C164 N162 1.361 . S
C164 C172 1.457 . S
C165 N160 1.363 . S
C165 N162 1.377 1_556 S
C165 C178 1.479 . S
C166 C163 1.480 . S
C166 C167 1.383 . S
C166 C171 1.385 . S
C167 H148 0.947 1_554 S
C167 C166 1.383 . S
C167 C168 1.388 . S
C168 H149 0.946 . S
C168 C167 1.388 . S
C168 C169 1.384 . S
C169 C168 1.384 . S
C169 C170 1.377 . S
C170 H150 0.953 . S
C170 C169 1.377 . S
C170 C171 1.369 . S
C171 H151 0.945 . S
C171 C166 1.385 . S
C171 C170 1.369 . S
C172 C164 1.457 . S
C172 C173 1.372 . S
C172 C177 1.364 . S
C173 H152 0.952 . S
C173 C172 1.372 . S
C173 C174 1.389 . S
C174 H153 0.949 . S
C174 C173 1.389 . S
C174 C175 1.387 . S
C175 C174 1.387 . S
C175 C176 1.372 . S
C176 H154 0.950 . S
C176 C175 1.372 . S
C176 C177 1.379 . S
C177 H155 0.948 . S
C177 C172 1.364 . S
C177 C176 1.379 . S
C178 C147 1.383 . S
C178 C165 1.479 . S
C178 C179 1.398 . S
C179 C144 1.382 . S
C179 H156 0.951 . S
C179 C178 1.398 . S
C180 C181 1.384 . S
C180 H193 0.947 . S
C180 C215 1.382 . S
C181 C180 1.384 . S
C181 C182 1.378 . S
C182 C181 1.378 . S
C182 C183 1.378 . S
C182 H194 0.952 . S
C183 C182 1.378 . S
C183 H195 0.950 . S
C183 C214 1.383 . S
H184 C203 0.947 1_556 S
H185 C204 0.946 . S
H186 C206 0.953 . S
H187 C207 0.945 . S
H188 C209 0.952 . S
H189 C210 0.949 . S
H190 C212 0.950 . S
H191 C213 0.948 . S
H192 C215 0.951 . S
H193 C180 0.947 . S
H194 C182 0.952 . S
H195 C183 0.950 . S
N196 C199 1.382 1_556 S
N196 C201 1.363 . S
N197 C199 1.371 . S
N197 C200 1.372 . S
N198 C200 1.361 . S
N198 C201 1.377 1_554 S
C199 N196 1.382 1_554 S
C199 N197 1.371 . S
C199 C202 1.480 . S
C200 N197 1.372 . S
C200 N198 1.361 . S
C200 C208 1.457 . S
C201 N196 1.363 . S
C201 N198 1.377 1_556 S
C201 C214 1.479 . S
C202 C199 1.480 . S
C202 C203 1.383 . S
C202 C207 1.385 . S
C203 H184 0.947 1_554 S
C203 C202 1.383 . S
C203 C204 1.388 . S
C204 H185 0.946 . S
C204 C203 1.388 . S
C204 C205 1.384 . S
C205 C204 1.384 . S
C205 C206 1.377 . S
C206 H186 0.953 . S
C206 C205 1.377 . S
C206 C207 1.369 . S
C207 H187 0.945 . S
C207 C202 1.385 . S
C207 C206 1.369 . S
C208 C200 1.457 . S
C208 C209 1.372 . S
C208 C213 1.364 . S
C209 H188 0.952 . S
C209 C208 1.372 . S
C209 C210 1.389 . S
C210 H189 0.949 . S
C210 C209 1.389 . S
C210 C211 1.387 . S
C211 C210 1.387 . S
C211 C212 1.372 . S
C212 H190 0.950 . S
C212 C211 1.372 . S
C212 C213 1.379 . S
C213 H191 0.948 . S
C213 C208 1.364 . S
C213 C212 1.379 . S
C214 C183 1.383 . S
C214 C201 1.479 . S
C214 C215 1.398 . S
C215 C180 1.382 . S
C215 H192 0.951 . S
C215 C214 1.398 . S
C216 C217 1.384 . S
C216 H229 0.947 . S
C216 C251 1.382 . S
C217 C216 1.384 . S
C217 C218 1.378 . S
C218 C217 1.378 . S
C218 C219 1.378 . S
C218 H230 0.952 . S
C219 C218 1.378 . S
C219 H231 0.950 . S
C219 C250 1.383 . S
H220 C239 0.947 1_556 S
H221 C240 0.946 . S
H222 C242 0.953 . S
H223 C243 0.945 . S
H224 C245 0.952 . S
H225 C246 0.949 . S
H226 C248 0.950 . S
H227 C249 0.948 . S
H228 C251 0.951 . S
H229 C216 0.947 . S
H230 C218 0.952 . S
H231 C219 0.950 . S
N232 C235 1.382 1_556 S
N232 C237 1.363 . S
N233 C235 1.371 . S
N233 C236 1.372 . S
N234 C236 1.361 . S
N234 C237 1.377 1_554 S
C235 N232 1.382 1_554 S
C235 N233 1.371 . S
C235 C238 1.480 . S
C236 N233 1.372 . S
C236 N234 1.361 . S
C236 C244 1.457 . S
C237 N232 1.363 . S
C237 N234 1.377 1_556 S
C237 C250 1.479 . S
C238 C235 1.480 . S
C238 C239 1.383 . S
C238 C243 1.385 . S
C239 H220 0.947 1_554 S
C239 C238 1.383 . S
C239 C240 1.388 . S
C240 H221 0.946 . S
C240 C239 1.388 . S
C240 C241 1.384 . S
C241 C240 1.384 . S
C241 C242 1.377 . S
C242 H222 0.953 . S
C242 C241 1.377 . S
C242 C243 1.369 . S
C243 H223 0.945 . S
C243 C238 1.385 . S
C243 C242 1.369 . S
C244 C236 1.457 . S
C244 C245 1.372 . S
C244 C249 1.364 . S
C245 H224 0.952 . S
C245 C244 1.372 . S
C245 C246 1.389 . S
C246 H225 0.949 . S
C246 C245 1.389 . S
C246 C247 1.387 . S
C247 C246 1.387 . S
C247 C248 1.372 . S
C248 H226 0.950 . S
C248 C247 1.372 . S
C248 C249 1.379 . S
C249 H227 0.948 . S
C249 C244 1.364 . S
C249 C248 1.379 . S
C250 C219 1.383 . S
C250 C237 1.479 . S
C250 C251 1.398 . S
C251 C216 1.382 . S
C251 H228 0.951 . S
C251 C250 1.398 . S
C252 C253 1.384 . S
C252 H265 0.947 . S
C252 C287 1.382 . S
C253 C252 1.384 . S
C253 C254 1.378 . S
C254 C253 1.378 . S
C254 C255 1.378 . S
C254 H266 0.952 . S
C255 C254 1.378 . S
C255 H267 0.950 . S
C255 C286 1.383 . S
H256 C275 0.947 . S
H257 C276 0.946 . S
H258 C278 0.953 1_556 S
H259 C279 0.945 1_556 S
H260 C281 0.952 . S
H261 C282 0.949 . S
H262 C284 0.950 . S
H263 C285 0.948 . S
H264 C287 0.951 . S
H265 C252 0.947 . S
H266 C254 0.952 . S
H267 C255 0.950 . S
N268 C271 1.382 . S
N268 C273 1.363 . S
N269 C271 1.371 1_556 S
N269 C272 1.372 . S
N270 C272 1.361 1_554 S
N270 C273 1.377 . S
C271 N268 1.382 . S
C271 N269 1.371 1_554 S
C271 C274 1.480 . S
C272 N269 1.372 . S
C272 N270 1.361 1_556 S
C272 C280 1.457 . S
C273 N268 1.363 . S
C273 N270 1.377 . S
C273 C286 1.479 . S
C274 C271 1.480 . S
C274 C275 1.383 . S
C274 C279 1.385 . S
C275 H256 0.947 . S
C275 C274 1.383 . S
C275 C276 1.388 . S
C276 H257 0.946 . S
C276 C275 1.388 . S
C276 C277 1.384 . S
C277 C276 1.384 . S
C277 C278 1.377 . S
C278 H258 0.953 1_554 S
C278 C277 1.377 . S
C278 C279 1.369 . S
C279 H259 0.945 1_554 S
C279 C274 1.385 . S
C279 C278 1.369 . S
C280 C272 1.457 . S
C280 C281 1.372 . S
C280 C285 1.364 . S
C281 H260 0.952 . S
C281 C280 1.372 . S
C281 C282 1.389 . S
C282 H261 0.949 . S
C282 C281 1.389 . S
C282 C283 1.387 . S
C283 C282 1.387 . S
C283 C284 1.372 . S
C284 H262 0.950 . S
C284 C283 1.372 . S
C284 C285 1.379 . S
C285 H263 0.948 . S
C285 C280 1.364 . S
C285 C284 1.379 . S
C286 C255 1.383 . S
C286 C273 1.479 . S
C286 C287 1.398 . S
C287 C252 1.382 . S
C287 H264 0.951 . S
C287 C286 1.398 . S
C288 C290 1.422 . S
C288 C292 1.415 . S
C288 N294 1.369 . S
C289 C290 1.421 . S
C289 C291 1.417 1_556 S
C289 C301 1.422 1_556 S
C290 C288 1.422 . S
C290 C289 1.421 . S
C290 N300 1.359 . S
C291 C289 1.417 1_554 S
C291 C293 1.329 1_554 S
C291 H310 0.930 . S
C292 C288 1.415 . S
C292 C293 1.437 . S
C292 C296 1.413 . S
C293 C291 1.329 1_556 S
C293 C292 1.437 . S
C293 H315 0.929 . S
N294 C288 1.369 . S
N294 C295 1.338 1_545 S
N294 Gd299 2.622 1_545 S
C295 N294 1.338 1_565 S
C295 C297 1.378 1_565 S
C295 H307 0.929 . S
C296 C292 1.413 . S
C296 C297 1.348 . S
C296 H312 0.931 . S
C297 C295 1.378 1_545 S
C297 C296 1.348 . S
C297 H313 0.930 . S
Gd298 N318 2.622 . S
Gd298 N325 2.570 . S
Gd298 O332 2.353 1_655 S
Gd298 O333 2.468 . S
Gd298 O334 2.427 . S
Gd298 O336 2.388 . S
Gd298 O337 2.386 1_545 S
Gd298 O341 2.307 1_655 S
Gd298 C351 2.805 . S
Gd299 N294 2.622 1_565 S
Gd299 N300 2.570 1_565 S
Gd299 O331 2.386 1_565 S
Gd299 O335 2.306 1_465 S
Gd299 O338 2.353 . S
Gd299 O339 2.468 . S
Gd299 O340 2.427 . S
Gd299 O342 2.388 . S
Gd299 C363 2.805 . S
N300 C290 1.359 . S
N300 Gd299 2.570 1_545 S
N300 C302 1.343 . S
C301 C289 1.422 1_554 S
C301 C303 1.321 . S
C301 H309 0.931 . S
C302 N300 1.343 . S
C302 C303 1.390 1_556 S
C302 H304 0.931 . S
C303 C301 1.321 . S
C303 C302 1.390 1_554 S
C303 H305 0.930 . S
H304 C302 0.931 . S
H305 C303 0.930 . S
H306 C329 0.931 1_455 S
H307 C295 0.929 . S
H308 C330 0.930 1_455 S
H309 C301 0.931 . S
H310 C291 0.930 . S
H311 C320 0.929 . S
H312 C296 0.931 . S
H313 C297 0.930 . S
H314 C352 0.930 . S
H315 C293 0.929 . S
H316 C321 0.931 . S
H317 C322 0.930 . S
N318 Gd298 2.622 . S
N318 C319 1.354 1_545 S
N318 C320 1.338 . S
C319 N318 1.354 1_565 S
C319 C323 1.427 . S
C319 C326 1.426 . S
C320 H311 0.929 . S
C320 N318 1.338 . S
C320 C322 1.378 . S
C321 H316 0.931 . S
C321 C322 1.348 1_565 S
C321 C323 1.413 . S
C322 H317 0.930 . S
C322 C320 1.378 . S
C322 C321 1.348 1_545 S
C323 C319 1.427 . S
C323 C321 1.413 . S
C323 C353 1.437 . S
H324 C353 0.929 . S
N325 Gd298 2.570 . S
N325 C326 1.359 1_545 S
N325 C329 1.343 . S
C326 C319 1.426 . S
C326 N325 1.359 1_565 S
C326 C328 1.421 . S
C327 C328 1.422 . S
C327 C330 1.321 . S
C327 H354 0.931 . S
C328 C326 1.421 . S
C328 C327 1.422 . S
C328 C352 1.417 . S
C329 H306 0.931 1_655 S
C329 N325 1.343 . S
C329 C330 1.390 1_545 S
C330 H308 0.930 1_655 S
C330 C327 1.321 . S
C330 C329 1.390 1_565 S
O331 Gd299 2.386 1_545 S
O331 C343 1.265 . S
O332 Gd298 2.353 1_455 S
O332 C343 1.242 . S
O333 Gd298 2.468 . S
O333 C351 1.263 . S
O334 Gd298 2.427 . S
O334 C351 1.252 . S
O335 Gd299 2.306 1_645 S
O335 C344 1.262 . S
O336 Gd298 2.388 . S
O336 C344 1.252 . S
O337 Gd298 2.386 1_565 S
O337 C355 1.265 . S
O338 Gd299 2.353 . S
O338 C355 1.242 1_455 S
O339 Gd299 2.468 . S
O339 C363 1.263 . S
O340 Gd299 2.427 . S
O340 C363 1.252 . S
O341 Gd298 2.307 1_455 S
O341 C356 1.261 . S
O342 Gd299 2.388 . S
O342 C356 1.252 1_565 S
C343 O331 1.265 . S
C343 O332 1.242 . S
C344 O335 1.262 . S
C344 O336 1.252 . S
C345 C348 1.394 . S
C345 C350 1.370 . S
C345 C351 1.500 . S
C346 C349 1.383 . S
C346 C350 1.395 . S
C347 C348 1.396 . S
C347 C349 1.365 . S
C347 H364 0.929 . S
C348 C345 1.394 . S
C348 C347 1.396 . S
C348 H365 0.930 . S
C349 C346 1.383 . S
C349 C347 1.365 . S
C349 H366 0.931 . S
C350 C345 1.370 . S
C350 C346 1.395 . S
C350 H367 0.930 1_655 S
C351 Gd298 2.805 . S
C351 O333 1.263 . S
C351 O334 1.252 . S
C351 C345 1.500 . S
C352 H314 0.930 . S
C352 C328 1.417 . S
C352 C353 1.329 . S
C353 C323 1.437 . S
C353 H324 0.929 . S
C353 C352 1.329 . S
H354 C327 0.931 . S
C355 O337 1.265 . S
C355 O338 1.242 1_655 S
C356 O341 1.261 . S
C356 O342 1.252 1_545 S
C357 C360 1.394 . S
C357 C362 1.370 . S
C357 C363 1.500 . S
C358 C361 1.383 . S
C358 C362 1.395 . S
C359 C360 1.396 . S
C359 C361 1.365 . S
C359 H368 0.929 . S
C360 C357 1.394 . S
C360 C359 1.396 . S
C360 H369 0.930 . S
C361 C358 1.383 . S
C361 C359 1.365 . S
C361 H370 0.931 . S
C362 C357 1.370 . S
C362 C358 1.395 . S
C362 H371 0.930 . S
C363 Gd299 2.805 . S
C363 O339 1.263 . S
C363 O340 1.252 . S
C363 C357 1.500 . S
H364 C347 0.929 . S
H365 C348 0.930 . S
H366 C349 0.931 . S
H367 C350 0.930 1_455 S
H368 C359 0.929 . S
H369 C360 0.930 . S
H370 C361 0.931 . S
H371 C362 0.930 . S
C372 C374 1.422 . S
C372 C376 1.415 . S
C372 N378 1.369 . S
C373 C374 1.421 . S
C373 C375 1.417 . S
C373 C385 1.422 . S
C374 C372 1.422 . S
C374 C373 1.421 . S
C374 N384 1.359 . S
C375 C373 1.417 . S
C375 C377 1.329 . S
C375 H394 0.930 . S
C376 C372 1.415 . S
C376 C377 1.437 . S
C376 C380 1.413 . S
C377 C375 1.329 . S
C377 C376 1.437 . S
C377 H399 0.929 . S
N378 C372 1.369 . S
N378 C379 1.338 . S
N378 Gd383 2.622 . S
C379 N378 1.338 . S
C379 C381 1.378 . S
C379 H391 0.929 . S
C380 C376 1.413 . S
C380 C381 1.348 . S
C380 H396 0.931 . S
C381 C379 1.378 . S
C381 C380 1.348 . S
C381 H397 0.930 . S
Gd382 N402 2.622 . S
Gd382 N409 2.570 . S
Gd382 O416 2.353 1_545 S
Gd382 O417 2.468 . S
Gd382 O418 2.427 . S
Gd382 O420 2.388 . S
Gd382 O421 2.386 . S
Gd382 O425 2.307 . S
Gd382 C435 2.805 . S
Gd383 N378 2.622 . S
Gd383 N384 2.570 . S
Gd383 O415 2.386 . S
Gd383 O419 2.307 1_565 S
Gd383 O422 2.353 1_565 S
Gd383 O423 2.468 . S
Gd383 O424 2.427 . S
Gd383 O426 2.388 . S
Gd383 C447 2.805 . S
N384 C374 1.359 . S
N384 Gd383 2.570 . S
N384 C386 1.343 . S
C385 C373 1.422 . S
C385 C387 1.321 . S
C385 H393 0.931 . S
C386 N384 1.343 . S
C386 C387 1.390 . S
C386 H388 0.931 . S
C387 C385 1.321 . S
C387 C386 1.390 . S
C387 H389 0.930 . S
H388 C386 0.931 . S
H389 C387 0.930 . S
H390 C413 0.931 . S
H391 C379 0.929 . S
H392 C414 0.930 . S
H393 C385 0.931 . S
H394 C375 0.930 . S
H395 C404 0.929 . S
H396 C380 0.931 . S
H397 C381 0.930 . S
H398 C436 0.930 . S
H399 C377 0.929 . S
H400 C405 0.931 . S
H401 C406 0.930 . S
N402 Gd382 2.622 . S
N402 C403 1.369 . S
N402 C404 1.338 . S
C403 N402 1.369 . S
C403 C407 1.415 . S
C403 C410 1.422 . S
C404 H395 0.929 . S
C404 N402 1.338 . S
C404 C406 1.378 . S
C405 H400 0.931 . S
C405 C406 1.348 . S
C405 C407 1.413 . S
C406 H401 0.930 . S
C406 C404 1.378 . S
C406 C405 1.348 . S
C407 C403 1.415 . S
C407 C405 1.413 . S
C407 C437 1.437 . S
H408 C437 0.929 . S
N409 Gd382 2.570 . S
N409 C410 1.359 . S
N409 C413 1.343 . S
C410 C403 1.422 . S
C410 N409 1.359 . S
C410 C412 1.421 . S
C411 C412 1.422 . S
C411 C414 1.321 . S
C411 H438 0.931 . S
C412 C410 1.421 . S
C412 C411 1.422 . S
C412 C436 1.417 . S
C413 H390 0.931 . S
C413 N409 1.343 . S
C413 C414 1.390 . S
C414 H392 0.930 . S
C414 C411 1.321 . S
C414 C413 1.390 . S
O415 Gd383 2.386 . S
O415 C427 1.265 . S
O416 Gd382 2.353 1_565 S
O416 C427 1.242 . S
O417 Gd382 2.468 . S
O417 C435 1.263 . S
O418 Gd382 2.427 . S
O418 C435 1.252 . S
O419 Gd383 2.307 1_545 S
O419 C428 1.261 . S
O420 Gd382 2.388 . S
O420 C428 1.252 . S
O421 Gd382 2.386 . S
O421 C439 1.265 . S
O422 Gd383 2.353 1_545 S
O422 C439 1.242 . S
O423 Gd383 2.468 . S
O423 C447 1.263 . S
O424 Gd383 2.427 . S
O424 C447 1.252 . S
O425 Gd382 2.307 . S
O425 C440 1.261 1_545 S
O426 Gd383 2.388 . S
O426 C440 1.252 . S
C427 O415 1.265 . S
C427 O416 1.242 . S
C428 O419 1.261 . S
C428 O420 1.252 . S
C429 C432 1.394 1_556 S
C429 C434 1.370 . S
C429 C435 1.500 . S
C430 C433 1.383 1_556 S
C430 C434 1.395 . S
C431 C432 1.396 . S
C431 C433 1.365 . S
C431 H448 0.929 . S
C432 C429 1.394 1_554 S
C432 C431 1.396 . S
C432 H449 0.930 . S
C433 C430 1.383 1_554 S
C433 C431 1.365 . S
C433 H450 0.931 . S
C434 C429 1.370 . S
C434 C430 1.395 . S
C434 H451 0.930 . S
C435 Gd382 2.805 . S
C435 O417 1.263 . S
C435 O418 1.252 . S
C435 C429 1.500 . S
C436 H398 0.930 . S
C436 C412 1.417 . S
C436 C437 1.329 . S
C437 C407 1.437 . S
C437 H408 0.929 . S
C437 C436 1.329 . S
H438 C411 0.931 . S
C439 O421 1.265 . S
C439 O422 1.242 . S
C440 O425 1.261 1_565 S
C440 O426 1.252 . S
C441 C444 1.394 . S
C441 C446 1.370 . S
C441 C447 1.500 . S
C442 C445 1.383 . S
C442 C446 1.395 . S
C443 C444 1.396 . S
C443 C445 1.365 . S
C443 H452 0.929 . S
C444 C441 1.394 . S
C444 C443 1.396 . S
C444 H453 0.930 . S
C445 C442 1.383 . S
C445 C443 1.365 . S
C445 H454 0.931 . S
C446 C441 1.370 . S
C446 C442 1.395 . S
C446 H455 0.930 . S
C447 Gd383 2.805 . S
C447 O423 1.263 . S
C447 O424 1.252 . S
C447 C441 1.500 . S
H448 C431 0.929 . S
H449 C432 0.930 . S
H450 C433 0.931 . S
H451 C434 0.930 . S
H452 C443 0.929 . S
H453 C444 0.930 . S
H454 C445 0.931 . S
H455 C446 0.930 . S
C456 C458 1.422 . S
C456 C460 1.415 . S
C456 N462 1.369 . S
C457 C458 1.421 . S
C457 C459 1.417 1_556 S
C457 C469 1.422 1_556 S
C458 C456 1.422 . S
C458 C457 1.421 . S
C458 N468 1.359 . S
C459 C457 1.417 1_554 S
C459 C461 1.329 1_554 S
C459 H478 0.930 . S
C460 C456 1.415 . S
C460 C461 1.437 . S
C460 C464 1.413 . S
C461 C459 1.329 1_556 S
C461 C460 1.437 . S
C461 H483 0.929 . S
N462 C456 1.369 . S
N462 C463 1.338 . S
N462 Gd467 2.622 . S
C463 N462 1.338 . S
C463 C465 1.378 . S
C463 H475 0.929 . S
C464 C460 1.413 . S
C464 C465 1.348 . S
C464 H480 0.931 . S
C465 C463 1.378 . S
C465 C464 1.348 . S
C465 H481 0.930 . S
Gd466 N486 2.622 . S
Gd466 N493 2.570 . S
Gd466 O500 2.353 . S
Gd466 O501 2.468 . S
Gd466 O502 2.427 . S
Gd466 O504 2.388 . S
Gd466 O505 2.386 . S
Gd466 O509 2.307 . S
Gd466 C519 2.805 . S
Gd467 N462 2.622 . S
Gd467 N468 2.570 . S
Gd467 O499 2.386 . S
Gd467 O503 2.307 . S
Gd467 O506 2.353 . S
Gd467 O507 2.468 . S
Gd467 O508 2.427 . S
Gd467 O510 2.388 . S
Gd467 C531 2.805 . S
N468 C458 1.359 . S
N468 Gd467 2.570 . S
N468 C470 1.343 . S
C469 C457 1.422 1_554 S
C469 C471 1.321 . S
C469 H477 0.931 . S
C470 N468 1.343 . S
C470 C471 1.390 1_556 S
C470 H472 0.931 . S
C471 C469 1.321 . S
C471 C470 1.390 1_554 S
C471 H473 0.930 . S
H472 C470 0.931 . S
H473 C471 0.930 . S
H474 C497 0.931 . S
H475 C463 0.929 . S
H476 C498 0.930 . S
H477 C469 0.931 . S
H478 C459 0.930 . S
H479 C488 0.929 . S
H480 C464 0.931 . S
H481 C465 0.930 . S
H482 C520 0.930 . S
H483 C461 0.929 . S
H484 C489 0.931 . S
H485 C490 0.930 . S
N486 Gd466 2.622 . S
N486 C487 1.369 . S
N486 C488 1.338 . S
C487 N486 1.369 . S
C487 C491 1.415 . S
C487 C494 1.422 . S
C488 H479 0.929 . S
C488 N486 1.338 . S
C488 C490 1.378 . S
C489 H484 0.931 . S
C489 C490 1.348 . S
C489 C491 1.413 . S
C490 H485 0.930 . S
C490 C488 1.378 . S
C490 C489 1.348 . S
C491 C487 1.415 . S
C491 C489 1.413 . S
C491 C521 1.437 . S
H492 C521 0.929 . S
N493 Gd466 2.570 . S
N493 C494 1.359 . S
N493 C497 1.343 . S
C494 C487 1.422 . S
C494 N493 1.359 . S
C494 C496 1.421 . S
C495 C496 1.422 . S
C495 C498 1.321 . S
C495 H522 0.931 . S
C496 C494 1.421 . S
C496 C495 1.422 . S
C496 C520 1.417 . S
C497 H474 0.931 . S
C497 N493 1.343 . S
C497 C498 1.390 . S
C498 H476 0.930 . S
C498 C495 1.321 . S
C498 C497 1.390 . S
O499 Gd467 2.386 . S
O499 C511 1.265 . S
O500 Gd466 2.353 . S
O500 C511 1.242 . S
O501 Gd466 2.468 . S
O501 C519 1.263 . S
O502 Gd466 2.427 . S
O502 C519 1.252 . S
O503 Gd467 2.307 . S
O503 C512 1.261 . S
O504 Gd466 2.388 . S
O504 C512 1.252 . S
O505 Gd466 2.386 . S
O505 C523 1.265 . S
O506 Gd467 2.353 . S
O506 C523 1.242 . S
O507 Gd467 2.468 . S
O507 C531 1.263 . S
O508 Gd467 2.427 . S
O508 C531 1.252 . S
O509 Gd466 2.307 . S
O509 C524 1.261 . S
O510 Gd467 2.388 . S
O510 C524 1.252 . S
C511 O499 1.265 . S
C511 O500 1.242 . S
C512 O503 1.261 . S
C512 O504 1.252 . S
C513 C516 1.394 . S
C513 C518 1.370 . S
C513 C519 1.500 . S
C514 C517 1.383 . S
C514 C518 1.395 . S
C515 C516 1.396 . S
C515 C517 1.365 . S
C515 H532 0.929 . S
C516 C513 1.394 . S
C516 C515 1.396 . S
C516 H533 0.930 . S
C517 C514 1.383 . S
C517 C515 1.365 . S
C517 H534 0.931 . S
C518 C513 1.370 . S
C518 C514 1.395 . S
C518 H535 0.930 . S
C519 Gd466 2.805 . S
C519 O501 1.263 . S
C519 O502 1.252 . S
C519 C513 1.500 . S
C520 H482 0.930 . S
C520 C496 1.417 . S
C520 C521 1.329 . S
C521 C491 1.437 . S
C521 H492 0.929 . S
C521 C520 1.329 . S
H522 C495 0.931 . S
C523 O505 1.265 . S
C523 O506 1.242 . S
C524 O509 1.261 . S
C524 O510 1.252 . S
C525 C528 1.394 . S
C525 C530 1.370 . S
C525 C531 1.500 . S
C526 C529 1.383 . S
C526 C530 1.395 . S
C527 C528 1.396 . S
C527 C529 1.365 . S
C527 H536 0.929 . S
C528 C525 1.394 . S
C528 C527 1.396 . S
C528 H537 0.930 . S
C529 C526 1.383 . S
C529 C527 1.365 . S
C529 H538 0.931 . S
C530 C525 1.370 . S
C530 C526 1.395 . S
C530 H539 0.930 . S
C531 Gd467 2.805 . S
C531 O507 1.263 . S
C531 O508 1.252 . S
C531 C525 1.500 . S
H532 C515 0.929 . S
H533 C516 0.930 . S
H534 C517 0.931 . S
H535 C518 0.930 . S
H536 C527 0.929 . S
H537 C528 0.930 . S
H538 C529 0.931 . S
H539 C530 0.930 . S
C540 C542 1.422 . S
C540 C544 1.415 . S
C540 N546 1.369 1_455 S
C541 C542 1.421 . S
C541 C543 1.417 1_556 S
C541 C553 1.422 1_556 S
C542 C540 1.422 . S
C542 C541 1.421 . S
C542 N552 1.359 . S
C543 C541 1.417 1_554 S
C543 C545 1.329 1_554 S
C543 H562 0.930 . S
C544 C540 1.415 . S
C544 C545 1.437 . S
C544 C548 1.413 . S
C545 C543 1.329 1_556 S
C545 C544 1.437 . S
C545 H567 0.929 . S
N546 C540 1.369 1_655 S
N546 C547 1.338 . S
N546 Gd551 2.622 . S
C547 N546 1.338 . S
C547 C549 1.378 1_655 S
C547 H559 0.929 . S
C548 C544 1.413 . S
C548 C549 1.348 . S
C548 H564 0.931 . S
C549 C547 1.378 1_455 S
C549 C548 1.348 . S
C549 H565 0.930 . S
Gd550 N570 2.622 . S
Gd550 N577 2.570 . S
Gd550 O584 2.353 . S
Gd550 O585 2.468 . S
Gd550 O586 2.427 . S
Gd550 O588 2.388 . S
Gd550 O589 2.386 1_455 S
Gd550 O593 2.307 . S
Gd550 C603 2.805 . S
Gd551 N546 2.622 . S
Gd551 N552 2.570 1_655 S
Gd551 O583 2.386 1_655 S
Gd551 O587 2.307 . S
Gd551 O590 2.353 . S
Gd551 O591 2.468 . S
Gd551 O592 2.427 . S
Gd551 O594 2.388 . S
Gd551 C615 2.805 . S
N552 C542 1.359 . S
N552 Gd551 2.570 1_455 S
N552 C554 1.343 . S
C553 C541 1.422 1_554 S
C553 C555 1.321 . S
C553 H561 0.931 . S
C554 N552 1.343 . S
C554 C555 1.390 1_556 S
C554 H556 0.926 1_455 S
C555 C553 1.321 . S
C555 C554 1.390 1_554 S
C555 H557 0.930 . S
H556 C554 0.926 1_655 S
H557 C555 0.930 . S
H558 C581 0.931 . S
H559 C547 0.929 . S
H560 C582 0.930 . S
H561 C553 0.931 . S
H562 C543 0.930 . S
H563 C572 0.929 . S
H564 C548 0.931 . S
H565 C549 0.930 . S
H566 C604 0.930 . S
H567 C545 0.929 . S
H568 C573 0.931 . S
H569 C574 0.930 . S
N570 Gd550 2.622 . S
N570 C571 1.356 1_455 S
N570 C572 1.338 . S
C571 N570 1.356 1_655 S
C571 C575 1.426 . S
C571 C578 1.426 . S
C572 H563 0.929 . S
C572 N570 1.338 . S
C572 C574 1.378 . S
C573 H568 0.931 . S
C573 C574 1.348 1_655 S
C573 C575 1.413 . S
C574 H569 0.930 . S
C574 C572 1.378 . S
C574 C573 1.348 1_455 S
C575 C571 1.426 . S
C575 C573 1.413 . S
C575 C605 1.437 . S
H576 C605 0.929 . S
N577 Gd550 2.570 . S
N577 C578 1.359 1_455 S
N577 C581 1.343 . S
C578 C571 1.426 . S
C578 N577 1.359 1_655 S
C578 C580 1.421 . S
C579 C580 1.422 . S
C579 C582 1.321 . S
C579 H606 0.931 . S
C580 C578 1.421 . S
C580 C579 1.422 . S
C580 C604 1.417 . S
C581 H558 0.931 . S
C581 N577 1.343 . S
C581 C582 1.390 1_455 S
C582 H560 0.930 . S
C582 C579 1.321 . S
C582 C581 1.390 1_655 S
O583 Gd551 2.386 1_455 S
O583 C595 1.265 . S
O584 Gd550 2.353 . S
O584 C595 1.242 . S
O585 Gd550 2.468 . S
O585 C603 1.263 . S
O586 Gd550 2.427 . S
O586 C603 1.252 . S
O587 Gd551 2.307 . S
O587 C596 1.261 1_655 S
O588 Gd550 2.388 . S
O588 C596 1.252 . S
O589 Gd550 2.386 1_655 S
O589 C607 1.265 . S
O590 Gd551 2.353 . S
O590 C607 1.242 . S
O591 Gd551 2.468 . S
O591 C615 1.263 . S
O592 Gd551 2.427 . S
O592 C615 1.252 . S
O593 Gd550 2.307 . S
O593 C608 1.261 . S
O594 Gd551 2.388 . S
O594 C608 1.252 1_655 S
C595 O583 1.265 . S
C595 O584 1.242 . S
C596 O587 1.261 1_455 S
C596 O588 1.252 . S
C597 C600 1.394 . S
C597 C602 1.370 . S
C597 C603 1.500 . S
C598 C601 1.383 . S
C598 C602 1.395 . S
C599 C600 1.396 . S
C599 C601 1.365 . S
C599 H616 0.929 . S
C600 C597 1.394 . S
C600 C599 1.396 . S
C600 H617 0.930 . S
C601 C598 1.383 . S
C601 C599 1.365 . S
C601 H618 0.931 . S
C602 C597 1.370 . S
C602 C598 1.395 . S
C602 H619 0.930 . S
C603 Gd550 2.805 . S
C603 O585 1.263 . S
C603 O586 1.252 . S
C603 C597 1.500 . S
C604 H566 0.930 . S
C604 C580 1.417 . S
C604 C605 1.329 . S
C605 C575 1.437 . S
C605 H576 0.929 . S
C605 C604 1.329 . S
H606 C579 0.931 . S
C607 O589 1.265 . S
C607 O590 1.242 . S
C608 O593 1.261 . S
C608 O594 1.252 1_455 S
C609 C612 1.394 . S
C609 C614 1.370 . S
C609 C615 1.500 . S
C610 C613 1.383 . S
C610 C614 1.395 . S
C611 C612 1.396 . S
C611 C613 1.365 . S
C611 H620 0.929 . S
C612 C609 1.394 . S
C612 C611 1.396 . S
C612 H621 0.930 . S
C613 C610 1.383 . S
C613 C611 1.365 . S
C613 H622 0.931 . S
C614 C609 1.370 . S
C614 C610 1.395 . S
C614 H623 0.930 . S
C615 Gd551 2.805 . S
C615 O591 1.263 . S
C615 O592 1.252 . S
C615 C609 1.500 . S
H616 C599 0.929 . S
H617 C600 0.930 . S
H618 C601 0.931 . S
H619 C602 0.930 . S
H620 C611 0.929 . S
H621 C612 0.930 . S
H622 C613 0.931 . S
H623 C614 0.930 . S
C624 C625 1.387 . S
C624 H628 0.950 . S
C624 C633 1.390 . S
C625 C624 1.387 . S
C625 C627 1.387 . S
H626 C633 0.950 . S
C627 C625 1.387 . S
C627 C629 1.390 . S
C627 H631 0.950 . S
H628 C624 0.950 . S
C629 C627 1.390 . S
C629 C630 1.387 . S
C629 H632 0.950 . S
C630 C629 1.387 . S
C630 C633 1.387 . S
H631 C627 0.950 . S
H632 C629 0.950 . S
C633 C624 1.390 . S
C633 H626 0.950 . S
C633 C630 1.387 . S
C634 C635 1.387 . S
C634 H638 0.950 . S
C634 C643 1.390 . S
C635 C634 1.387 . S
C635 C637 1.387 . S
H636 C643 0.950 . S
C637 C635 1.387 . S
C637 C639 1.390 . S
C637 H641 0.950 . S
H638 C634 0.950 . S
C639 C637 1.390 . S
C639 C640 1.387 . S
C639 H642 0.950 . S
C640 C639 1.387 . S
C640 C643 1.387 . S
H641 C637 0.950 . S
H642 C639 0.950 . S
C643 C634 1.390 . S
C643 H636 0.950 . S
C643 C640 1.387 . S
C644 C645 1.387 . S
C644 H648 0.950 . S
C644 C653 1.390 . S
C645 C644 1.387 . S
C645 C647 1.387 . S
H646 C653 0.950 . S
C647 C645 1.387 . S
C647 C649 1.390 . S
C647 H651 0.950 . S
H648 C644 0.950 . S
C649 C647 1.390 . S
C649 C650 1.387 . S
C649 H652 0.950 . S
C650 C649 1.387 . S
C650 C653 1.387 . S
H651 C647 0.950 . S
H652 C649 0.950 . S
C653 C644 1.390 . S
C653 H646 0.950 . S
C653 C650 1.387 . S
C654 C655 1.387 . S
C654 H658 0.950 . S
C654 C663 1.390 . S
C655 C654 1.387 . S
C655 C657 1.387 . S
H656 C663 0.950 . S
C657 C655 1.387 . S
C657 C659 1.390 . S
C657 H661 0.950 . S
H658 C654 0.950 . S
C659 C657 1.390 . S
C659 C660 1.387 . S
C659 H662 0.950 . S
C660 C659 1.387 . S
C660 C663 1.387 . S
H661 C657 0.950 . S
H662 C659 0.950 . S
C663 C654 1.390 . S
C663 H656 0.950 . S
C663 C660 1.387 . S
C664 C665 1.387 1_545 S
C664 H668 0.950 . S
C664 C673 1.390 1_554 S
C665 C664 1.387 1_565 S
C665 C667 1.387 . S
H666 C673 0.950 . S
C667 C665 1.387 . S
C667 C669 1.390 1_554 S
C667 H671 0.950 . S
H668 C664 0.950 . S
C669 C667 1.390 1_556 S
C669 C670 1.387 . S
C669 H672 0.950 . S
C670 C669 1.387 . S
C670 C673 1.387 1_565 S
H671 C667 0.950 . S
H672 C669 0.950 . S
C673 C664 1.390 1_556 S
C673 H666 0.950 . S
C673 C670 1.387 1_545 S
C674 C675 1.387 . S
C674 H678 0.950 . S
C674 C683 1.390 1_554 S
C675 C674 1.387 . S
C675 C677 1.387 . S
H676 C683 0.950 . S
C677 C675 1.387 . S
C677 C679 1.390 1_554 S
C677 H681 0.950 . S
H678 C674 0.950 . S
C679 C677 1.390 1_556 S
C679 C680 1.387 . S
C679 H682 0.950 . S
C680 C679 1.387 . S
C680 C683 1.387 . S
H681 C677 0.950 . S
H682 C679 0.950 . S
C683 C674 1.390 1_556 S
C683 H676 0.950 . S
C683 C680 1.387 . S
C684 C685 1.387 . S
C684 H688 0.950 . S
C684 C693 1.390 1_554 S
C685 C684 1.387 . S
C685 C687 1.387 . S
H686 C693 0.950 . S
C687 C685 1.387 . S
C687 C689 1.390 1_554 S
C687 H691 0.950 . S
H688 C684 0.950 . S
C689 C687 1.390 1_556 S
C689 C690 1.387 . S
C689 H692 0.950 . S
C690 C689 1.387 . S
C690 C693 1.387 . S
H691 C687 0.950 . S
H692 C689 0.950 . S
C693 C684 1.390 1_556 S
C693 H686 0.950 . S
C693 C690 1.387 . S
C694 C695 1.387 . S
C694 H698 0.950 . S
C694 C703 1.390 1_554 S
C695 C694 1.387 . S
C695 C697 1.387 . S
H696 C703 0.950 . S
C697 C695 1.387 . S
C697 C699 1.390 1_554 S
C697 H701 0.950 . S
H698 C694 0.950 . S
C699 C697 1.390 1_556 S
C699 C700 1.387 . S
C699 H702 0.950 . S
C700 C699 1.387 . S
C700 C703 1.387 . S
H701 C697 0.950 . S
H702 C699 0.950 . S
C703 C694 1.390 1_556 S
C703 H696 0.950 . S
C703 C700 1.387 . S
C704 C705 1.387 . S
C704 H708 0.950 . S
C704 C713 1.390 . S
C705 C704 1.387 . S
C705 C707 1.387 . S
H706 C713 0.949 1_655 S
C707 C705 1.387 . S
C707 C709 1.390 . S
C707 H711 0.950 . S
H708 C704 0.950 . S
C709 C707 1.390 . S
C709 C710 1.387 1_455 S
C709 H712 0.950 1_455 S
C710 C709 1.387 1_655 S
C710 C713 1.387 1_655 S
H711 C707 0.950 . S
H712 C709 0.950 1_655 S
C713 C704 1.390 . S
C713 H706 0.949 1_455 S
C713 C710 1.387 1_455 S
C714 C715 1.387 . S
C714 H718 0.950 . S
C714 C723 1.390 . S
C715 C714 1.387 . S
C715 C717 1.387 . S
H716 C723 0.950 . S
C717 C715 1.387 . S
C717 C719 1.419 . S
C717 H721 0.950 . S
H718 C714 0.950 . S
C719 C717 1.419 . S
C719 C720 1.382 1_545 S
C719 H722 0.928 1_545 S
C720 C719 1.382 1_565 S
C720 C723 1.387 1_565 S
H721 C717 0.950 . S
H722 C719 0.928 1_565 S
C723 C714 1.390 . S
C723 H716 0.950 . S
C723 C720 1.387 1_545 S
C724 C725 1.387 . S
C724 H728 0.950 . S
C724 C733 1.390 . S
C725 C724 1.387 . S
C725 C727 1.387 . S
H726 C733 0.950 . S
C727 C725 1.387 . S
C727 C729 1.390 . S
C727 H731 0.950 . S
H728 C724 0.950 . S
C729 C727 1.390 . S
C729 C730 1.387 . S
C729 H732 0.950 . S
C730 C729 1.387 . S
C730 C733 1.387 . S
H731 C727 0.950 . S
H732 C729 0.950 . S
C733 C724 1.390 . S
C733 H726 0.950 . S
C733 C730 1.387 . S
C734 C735 1.387 . S
C734 H738 0.950 . S
C734 C743 1.390 . S
C735 C734 1.387 . S
C735 C737 1.387 . S
H736 C743 0.950 . S
C737 C735 1.387 . S
C737 C739 1.390 . S
C737 H741 0.950 . S
H738 C734 0.950 . S
C739 C737 1.390 . S
C739 C740 1.387 . S
C739 H742 0.950 . S
C740 C739 1.387 . S
C740 C743 1.387 . S
H741 C737 0.950 . S
H742 C739 0.950 . S
C743 C734 1.390 . S
C743 H736 0.950 . S
C743 C740 1.387 . S
C744 C745 1.387 . S
C744 H748 0.950 . S
C744 C753 1.390 1_655 S
C745 C744 1.387 . S
C745 C747 1.387 1_554 S
H746 C753 0.950 . S
C747 C745 1.387 1_556 S
C747 C749 1.390 . S
C747 H751 0.950 . S
H748 C744 0.950 . S
C749 C747 1.390 . S
C749 C750 1.387 1_655 S
C749 H752 0.951 . S
C750 C749 1.387 1_455 S
C750 C753 1.387 1_556 S
H751 C747 0.950 . S
H752 C749 0.951 . S
C753 C744 1.390 1_455 S
C753 H746 0.950 . S
C753 C750 1.387 1_554 S
C754 C755 1.387 1_556 S
C754 H758 0.950 . S
C754 C763 1.390 . S
C755 C754 1.387 1_554 S
C755 C757 1.387 . S
H756 C763 0.950 . S
C757 C755 1.387 . S
C757 C759 1.390 1_565 S
C757 H761 0.950 . S
H758 C754 0.950 . S
C759 C757 1.390 1_545 S
C759 C760 1.387 1_554 S
C759 H762 0.950 . S
C760 C759 1.387 1_556 S
C760 C763 1.387 1_545 S
H761 C757 0.950 . S
H762 C759 0.950 . S
C763 C754 1.390 . S
C763 H756 0.950 . S
C763 C760 1.387 1_565 S
C764 C765 1.387 . S
C764 H768 0.950 . S
C764 C773 1.390 . S
C765 C764 1.387 . S
C765 C767 1.387 1_554 S
H766 C773 0.950 . S
C767 C765 1.387 1_556 S
C767 C769 1.390 . S
C767 H771 0.950 . S
H768 C764 0.950 . S
C769 C767 1.390 . S
C769 C770 1.387 . S
C769 H772 0.950 . S
C770 C769 1.387 . S
C770 C773 1.387 1_556 S
H771 C767 0.950 . S
H772 C769 0.950 . S
C773 C764 1.390 . S
C773 H766 0.950 . S
C773 C770 1.387 1_554 S
C774 C775 1.387 1_556 S
C774 H778 0.950 . S
C774 C783 1.390 . S
C775 C774 1.387 1_554 S
C775 C777 1.387 . S
H776 C783 0.950 . S
C777 C775 1.387 . S
C777 C779 1.390 . S
C777 H781 0.950 . S
H778 C774 0.950 . S
C779 C777 1.390 . S
C779 C780 1.387 1_554 S
C779 H782 0.950 . S
C780 C779 1.387 1_556 S
C780 C783 1.387 . S
H781 C777 0.950 . S
H782 C779 0.950 . S
C783 C774 1.390 . S
C783 H776 0.950 . S
C783 C780 1.387 . S
C784 C785 1.387 . S
C784 H788 0.950 . S
C784 C793 1.390 . S
C785 C784 1.387 . S
C785 C787 1.387 . S
H786 C793 0.950 . S
C787 C785 1.387 . S
C787 C789 1.390 . S
C787 H791 0.950 . S
H788 C784 0.950 . S
C789 C787 1.390 . S
C789 C790 1.387 . S
C789 H792 0.950 . S
C790 C789 1.387 . S
C790 C793 1.387 . S
H791 C787 0.950 . S
H792 C789 0.950 . S
C793 C784 1.390 . S
C793 H786 0.950 . S
C793 C790 1.387 . S
C794 C795 1.387 . S
C794 H798 0.950 . S
C794 C803 1.390 . S
C795 C794 1.387 . S
C795 C797 1.387 . S
H796 C803 0.950 . S
C797 C795 1.387 . S
C797 C799 1.390 . S
C797 H801 0.950 1_545 S
H798 C794 0.950 . S
C799 C797 1.390 . S
C799 C800 1.387 . S
C799 H802 0.950 1_545 S
C800 C799 1.387 . S
C800 C803 1.387 . S
H801 C797 0.950 1_565 S
H802 C799 0.950 1_565 S
C803 C794 1.390 . S
C803 H796 0.950 . S
C803 C800 1.387 . S
C804 C805 1.387 . S
C804 H808 0.950 . S
C804 C813 1.390 . S
C805 C804 1.387 . S
C805 C807 1.387 . S
H806 C813 0.950 . S
C807 C805 1.387 . S
C807 C809 1.390 . S
C807 H811 0.950 . S
H808 C804 0.950 . S
C809 C807 1.390 . S
C809 C810 1.387 . S
C809 H812 0.950 . S
C810 C809 1.387 . S
C810 C813 1.387 . S
H811 C807 0.950 . S
H812 C809 0.950 . S
C813 C804 1.390 . S
C813 H806 0.950 . S
C813 C810 1.387 . S
C814 C815 1.387 . S
C814 H818 0.950 . S
C814 C823 1.390 . S
C815 C814 1.387 . S
C815 C817 1.387 . S
H816 C823 0.950 . S
C817 C815 1.387 . S
C817 C819 1.390 . S
C817 H821 0.950 . S
H818 C814 0.950 . S
C819 C817 1.390 . S
C819 C820 1.387 . S
C819 H822 0.950 . S
C820 C819 1.387 . S
C820 C823 1.387 . S
H821 C817 0.950 . S
H822 C819 0.950 . S
C823 C814 1.390 . S
C823 H816 0.950 . S
C823 C820 1.387 . S
C824 C825 1.387 . S
C824 H828 0.950 . S
C824 C833 1.390 . S
C825 C824 1.387 . S
C825 C827 1.387 . S
H826 C833 0.950 . S
C827 C825 1.387 . S
C827 C829 1.390 . S
C827 H831 0.952 . S
H828 C824 0.950 . S
C829 C827 1.390 . S
C829 C830 1.387 . S
C829 H832 0.950 1_655 S
C830 C829 1.387 . S
C830 C833 1.387 . S
H831 C827 0.952 . S
H832 C829 0.950 1_455 S
C833 C824 1.390 . S
C833 H826 0.950 . S
C833 C830 1.387 . S
C834 C835 1.387 . S
C834 H838 0.950 . S
C834 C843 1.390 . S
C835 C834 1.387 . S
C835 C837 1.387 1_565 S
H836 C843 0.950 . S
C837 C835 1.387 1_545 S
C837 C839 1.390 . S
C837 H841 0.950 . S
H838 C834 0.950 . S
C839 C837 1.390 . S
C839 C840 1.387 1_545 S
C839 H842 0.950 . S
C840 C839 1.387 1_565 S
C840 C843 1.387 . S
H841 C837 0.950 . S
H842 C839 0.950 . S
C843 C834 1.390 . S
C843 H836 0.950 . S
C843 C840 1.387 . S
C844 C845 1.387 . S
C844 H848 0.950 . S
C844 C853 1.390 . S
C845 C844 1.387 . S
C845 C847 1.387 . S
H846 C853 0.950 . S
C847 C845 1.387 . S
C847 C849 1.390 . S
C847 H851 0.950 . S
H848 C844 0.950 . S
C849 C847 1.390 . S
C849 C850 1.387 . S
C849 H852 0.950 . S
C850 C849 1.387 . S
C850 C853 1.387 . S
H851 C847 0.950 . S
H852 C849 0.950 . S
C853 C844 1.390 . S
C853 H846 0.950 . S
C853 C850 1.387 . S
C854 C855 1.387 . S
C854 H858 0.950 . S
C854 C863 1.390 . S
C855 C854 1.387 . S
C855 C857 1.387 . S
H856 C863 0.950 . S
C857 C855 1.387 . S
C857 C859 1.390 . S
C857 H861 0.950 . S
H858 C854 0.950 . S
C859 C857 1.390 . S
C859 C860 1.387 . S
C859 H862 0.950 . S
C860 C859 1.387 . S
C860 C863 1.387 . S
H861 C857 0.950 . S
H862 C859 0.950 . S
C863 C854 1.390 . S
C863 H856 0.950 . S
C863 C860 1.387 . S
C625 C241 2.528 . S
C630 C356 2.825 . S
C640 C439 2.843 . S
C635 C277 2.609 . S
C650 C524 2.832 . S
C645 C169 2.533 . S
C660 C608 2.814 . S
C655 C205 2.519 . S
C670 C344 2.824 1_565 S
C665 C97 2.496 . S
C675 C133 2.639 . S
C680 C427 2.843 . S
C685 C25 2.502 . S
C690 C512 2.830 . S
C695 C61 2.490 . S
C700 C596 2.814 1_655 S
C710 C346 0.779 . S
C705 C211 0.776 . S
C720 C442 0.776 . S
C715 C247 0.772 . S
C730 C514 0.797 . S
C725 C253 0.783 . S
C735 C175 0.772 . S
C740 C598 0.774 . S
C745 C67 0.770 . S
C750 C358 0.778 . S
C760 C430 0.770 . S
C755 C103 0.764 . S
C770 C526 0.793 . S
C765 C109 0.788 . S
C775 C31 0.763 . S
C780 C610 0.777 . S
C785 C181 2.931 . S
C790 C343 3.293 . S
C795 C217 2.926 . S
C800 C428 3.387 . S
C810 C511 3.318 . S
C805 C283 2.856 . S
C820 C595 3.309 . S
C815 C145 2.947 . S
C825 C37 2.919 . S
C830 C355 3.293 . S
C840 C440 3.387 . S
C835 C73 2.910 . S
C850 C523 3.318 . S
C845 C139 2.872 . S
C855 C1 2.936 . S
C860 C607 3.310 . S
