# Generated by pormake.
# Topology rtl, (3,6)-cn, num edge types: 1
# Building blocks:
#     Node 0, Type 0, BuildingBlock: QEWDON_clean_linker_0, # of connection points: 3
#     Node 1, Type 0, BuildingBlock: QEWDON_clean_linker_0, # of connection points: 3
#     Node 2, Type 0, BuildingBlock: QEWDON_clean_linker_0, # of connection points: 3
#     Node 3, Type 0, BuildingBlock: QEWDON_clean_linker_0, # of connection points: 3
#     Node 4, Type 1, BuildingBlock: FUNLAD_clean_sbu_0, # of connection points: 6
#     Node 5, Type 1, BuildingBlock: FUNLAD_clean_sbu_0, # of connection points: 6
#     Edge 6, Type (0, 1), BuildingBlock: EZIPEK_clean_linker_0, # of connection points: 2
#     Edge 7, Type (0, 1), BuildingBlock: EZIPEK_clean_linker_0, # of connection points: 2
#     Edge 8, Type (0, 1), BuildingBlock: EZIPEK_clean_linker_0, # of connection points: 2
#     Edge 9, Type (0, 1), BuildingBlock: EZIPEK_clean_linker_0, # of connection points: 2
#     Edge 10, Type (0, 1), BuildingBlock: EZIPEK_clean_linker_0, # of connection points: 2
#     Edge 11, Type (0, 1), BuildingBlock: EZIPEK_clean_linker_0, # of connection points: 2
#     Edge 12, Type (0, 1), BuildingBlock: EZIPEK_clean_linker_0, # of connection points: 2
#     Edge 13, Type (0, 1), BuildingBlock: EZIPEK_clean_linker_0, # of connection points: 2
#     Edge 14, Type (0, 1), BuildingBlock: EZIPEK_clean_linker_0, # of connection points: 2
#     Edge 15, Type (0, 1), BuildingBlock: EZIPEK_clean_linker_0, # of connection points: 2
#     Edge 16, Type (0, 1), BuildingBlock: EZIPEK_clean_linker_0, # of connection points: 2
#     Edge 17, Type (0, 1), BuildingBlock: EZIPEK_clean_linker_0, # of connection points: 2
# Relax obj value: 0.014
# Max RMSD: 0.071
# Mean RMSD: 0.061
data_MOF--net-rtl--node1-FUNLAD_clean_sbu_0--node2-QEWDON_clean_linker_0--edge1-EZIPEK_clean_linker_0
_symmetry_space_group_name_H-M    P1
_symmetry_Int_Tables_number       1
_symmetry_cell_setting            triclinic
loop_
_symmetry_equiv_pos_as_xyz
'x, y, z'
_cell_length_a     32.282584
_cell_length_b     32.422499
_cell_length_c     15.038375
_cell_angle_alpha  91.958588
_cell_angle_beta   92.726918
_cell_angle_gamma 90.005558
loop_
_atom_site_label
_atom_site_type_symbol
_atom_site_fract_x
_atom_site_fract_y
_atom_site_fract_z
_atom_type_partial_charge
H0 H 0.20963 0.88067 0.12641 0.0
C1 C 0.19158 0.88423 0.06453 0.0
C2 C 0.15265 0.9038 0.06533 0.0
C3 C 0.20828 0.87209 0.98289 0.0
H4 H 0.10174 0.92784 0.98522 0.0
C5 C 0.13088 0.91116 0.98467 0.0
C6 C 0.14738 0.8996 0.90327 0.0
C7 C 0.18546 0.87886 0.90276 0.0
C8 C 0.25212 0.85937 0.97848 0.0
H9 H 0.19868 0.8706 0.83962 0.0
C10 C 0.26627 0.82092 0.00849 0.0
C11 C 0.30745 0.80849 -0.0053 0.0
C12 C 0.27968 0.88565 0.93807 0.0
H13 H 0.26935 0.91536 0.9147 0.0
C14 C 0.32059 0.87379 0.92658 0.0
H15 H 0.24519 0.80031 0.03924 0.0
C16 C 0.33436 0.83536 0.95408 0.0
H17 H 0.36611 0.82638 0.94319 0.0
H18 H 0.34155 0.89423 0.89518 0.0
H19 H 0.70749 0.66366 0.42885 0.0
C20 C 0.69067 0.65794 0.4879 0.0
C21 C 0.65323 0.63566 0.48019 0.0
C22 C 0.70769 0.67015 0.57266 0.0
H23 H 0.60521 0.60701 0.55097 0.0
C24 C 0.63318 0.62568 0.55706 0.0
C25 C 0.64971 0.63756 0.64169 0.0
C26 C 0.6864 0.66089 0.6491 0.0
C27 C 0.75044 0.68659 0.58322 0.0
H28 H 0.69965 0.66967 0.71463 0.0
C29 C 0.76178 0.72401 0.54602 0.0
C30 C 0.80262 0.73903 0.55997 0.0
C31 C 0.78034 0.66424 0.63257 0.0
H32 H 0.7723 0.63526 0.66125 0.0
C33 C 0.82087 0.67883 0.64493 0.0
H34 H 0.73891 0.74177 0.50867 0.0
C35 C 0.83197 0.71609 0.60915 0.0
H36 H 0.86345 0.72734 0.62055 0.0
H37 H 0.84366 0.66137 0.68296 0.0
H38 H 0.82807 0.16116 0.1139 0.0
C39 C 0.84356 0.15483 0.05253 0.0
C40 C 0.88287 0.13618 0.05526 0.0
C41 C 0.82285 0.16185 0.96995 0.0
H42 H 0.93182 0.11093 0.97795 0.0
C43 C 0.90195 0.12634 0.9757 0.0
C44 C 0.88115 0.132 0.89339 0.0
C45 C 0.84162 0.14992 0.89056 0.0
C46 C 0.77922 0.17551 0.96595 0.0
H47 H 0.82484 0.153 0.82694 0.0
C48 C 0.76829 0.21638 0.98896 0.0
C49 C 0.72657 0.22889 0.97993 0.0
C50 C 0.74825 0.1473 0.93569 0.0
H51 H 0.75618 0.11573 0.91767 0.0
C52 C 0.70686 0.15957 0.92838 0.0
H53 H 0.79205 0.2385 0.01136 0.0
C54 C 0.69604 0.20019 0.95001 0.0
H55 H 0.66383 0.20941 0.94275 0.0
H56 H 0.68316 0.13763 0.90507 0.0
H57 H 0.37309 0.33354 0.65492 0.0
C58 C 0.37756 0.35033 0.595 0.0
C59 C 0.39841 0.38843 0.60073 0.0
C60 C 0.36516 0.33272 0.51117 0.0
H61 H 0.42517 0.43664 0.52739 0.0
C62 C 0.40723 0.40827 0.52271 0.0
C63 C 0.39546 0.39091 0.43884 0.0
C64 C 0.37308 0.3537 0.43345 0.0
C65 C 0.35172 0.28927 0.50319 0.0
H66 H 0.36459 0.33959 0.36872 0.0
C67 C 0.31034 0.27769 0.51416 0.0
C68 C 0.29854 0.23598 0.50203 0.0
C69 C 0.38105 0.25907 0.48137 0.0
H70 H 0.41302 0.2676 0.47249 0.0
C71 C 0.36939 0.21774 0.47051 0.0
H72 H 0.28743 0.30087 0.53024 0.0
C73 C 0.32832 0.20621 0.48051 0.0
H74 H 0.31963 0.17402 0.47099 0.0
H75 H 0.39218 0.19463 0.45366 0.0
C76 C 0.06194 0.97806 0.35061 0.0
N77 N 0.08391 0.08747 0.50197 0.0
C78 C 0.12429 0.07538 0.50801 0.0
C79 C 0.1561 0.10459 0.51325 0.0
C80 C 0.14628 0.14662 0.5121 0.0
C81 C 0.10451 0.15858 0.50758 0.0
C82 C 0.07355 0.12822 0.50246 0.0
Zn83 Zn 0.03909 0.04244 0.48772 0.0
C84 C 0.97384 0.06115 0.34789 0.0
N85 N 0.94822 0.94637 0.45609 0.0
C86 C 0.9609 0.90631 0.45547 0.0
C87 C 0.90723 0.95622 0.45768 0.0
C88 C 0.87734 0.92523 0.46286 0.0
C89 C 0.89002 0.88396 0.46746 0.0
C90 C 0.93215 0.87447 0.46137 0.0
Zn91 Zn 0.99241 0.99208 0.46804 0.0
O92 O 0.07517 1.0099 0.39467 0.0
C93 C 0.05708 0.97268 0.60764 0.0
O94 O 0.02623 0.96374 0.36456 0.0
H95 H 0.89779 0.98823 0.45847 0.0
H96 H 0.13195 0.04297 0.50733 0.0
H97 H 0.99356 0.89907 0.45404 0.0
O98 O 0.06827 1.00938 0.59302 0.0
O99 O 0.02678 0.95691 0.56169 0.0
H100 H 0.04129 0.13719 0.49773 0.0
O101 O 0.95934 0.02158 0.57107 0.0
O102 O 1.00268 0.07395 0.58144 0.0
O103 O 0.95918 0.02772 0.37522 0.0
O104 O 1.00857 0.0744 0.38088 0.0
C105 C 0.97002 0.05654 0.60576 0.0
H106 H 0.18811 0.0945 0.51664 0.0
H107 H 0.09609 0.1909 0.50659 0.0
H108 H 0.84497 0.93344 0.46733 0.0
H109 H 0.94283 0.84286 0.46456 0.0
C110 C 0.47471 0.47699 0.90499 0.0
N111 N 0.58572 0.44718 0.04085 0.0
C112 C 0.57181 0.4075 0.03918 0.0
C113 C 0.59961 0.37465 0.03462 0.0
C114 C 0.64212 0.38266 0.03153 0.0
C115 C 0.656 0.42368 0.03483 0.0
C116 C 0.62702 0.45574 0.03946 0.0
Zn117 Zn 0.54261 0.49393 0.0414 0.0
C118 C 0.56247 0.56019 0.91923 0.0
N119 N 0.4514 0.59016 0.04103 0.0
C120 C 0.44111 0.60895 0.96349 0.0
C121 C 0.4344 0.60271 0.1186 0.0
C122 C 0.40636 0.6356 0.12032 0.0
C123 C 0.39667 0.65648 0.04187 0.0
C124 C 0.41399 0.64253 0.96255 0.0
Zn125 Zn 0.49472 0.54338 0.04073 0.0
O126 O 0.50636 0.46132 0.94393 0.0
C127 C 0.47446 0.47725 0.16255 0.0
O128 O 0.46275 0.51294 0.92891 0.0
H129 H 0.44309 0.5877 0.17962 0.0
H130 H 0.53899 0.40125 0.03997 0.0
H131 H 0.45444 0.59834 0.90238 0.0
O132 O 0.51034 0.46491 0.14233 0.0
O133 O 0.45917 0.50911 0.12666 0.0
H134 H 0.63749 0.48743 0.04078 0.0
O135 O 0.52821 0.57236 0.15248 0.0
O136 O 0.57847 0.52718 0.13842 0.0
O137 O 0.53122 0.57668 0.95441 0.0
O138 O 0.57353 0.52405 0.94057 0.0
C139 C 0.56403 0.55918 0.17675 0.0
H140 H 0.58803 0.34324 0.03201 0.0
H141 H 0.68871 0.43074 0.03246 0.0
H142 H 0.39337 0.6455 0.18261 0.0
H143 H 0.40696 0.65781 0.9007 0.0
C144 C 0.22907 0.21804 0.43073 0.0
C145 C 0.25493 0.22243 0.50931 0.0
C146 C 0.20278 0.18768 0.59373 0.0
C147 C 0.18031 0.17749 0.51262 0.0
N148 N 0.17178 0.18156 0.35296 0.0
N149 N 0.26749 0.21216 0.66608 0.0
C150 C 0.19297 0.19288 0.4309 0.0
C151 C 0.24179 0.20798 0.59138 0.0
N152 N 0.23929 0.23784 0.35598 0.0
N153 N 0.18658 0.17798 0.67274 0.0
H154 H 0.2954 0.22845 0.6673 0.0
H155 H 0.26227 0.19799 0.7256 0.0
H156 H 0.15812 0.16299 0.67613 0.0
H157 H 0.1994 0.18765 0.73476 0.0
H158 H 0.21989 0.23923 0.29887 0.0
H159 H 0.26584 0.25606 0.35378 0.0
H160 H 0.1822 0.18747 0.29021 0.0
H161 H 0.1447 0.16395 0.35054 0.0
C162 C 0.35685 0.76597 0.08591 0.0
C163 C 0.32365 0.76739 0.02095 0.0
C164 C 0.33158 0.69309 0.99022 0.0
C165 C 0.36948 0.69369 0.04218 0.0
N166 N 0.42109 0.7328 0.13134 0.0
N167 N 0.28136 0.73273 0.90438 0.0
C168 C 0.38271 0.73056 0.08894 0.0
C169 C 0.31109 0.73093 0.97191 0.0
N170 N 0.36368 0.79868 0.14447 0.0
N171 N 0.31498 0.65628 0.95918 0.0
H172 H 0.2656 0.75973 0.88841 0.0
H173 H 0.27454 0.7081 0.8598 0.0
H174 H 0.32894 0.62799 0.9726 0.0
H175 H 0.28554 0.65358 0.92803 0.0
H176 H 0.38505 0.79798 0.19855 0.0
H177 H 0.34489 0.82489 0.14418 0.0
H178 H 0.43394 0.76026 0.15802 0.0
H179 H 0.44184 0.70819 0.13284 0.0
C180 C 0.81977 0.81327 0.59103 0.0
C181 C 0.81537 0.77982 0.52821 0.0
C182 C 0.84944 0.82042 0.41787 0.0
C183 C 0.86012 0.85067 0.48552 0.0
N184 N 0.85836 0.87468 0.63924 0.0
N185 N 0.82612 0.75032 0.38202 0.0
C186 C 0.84552 0.84717 0.57261 0.0
C187 C 0.8297 0.78326 0.44107 0.0
N188 N 0.79939 0.81236 0.66855 0.0
N189 N 0.85796 0.8275 0.33156 0.0
H190 H 0.81057 0.72326 0.39597 0.0
H191 H 0.8403 0.74892 0.32126 0.0
H192 H 0.8723 0.85451 0.31288 0.0
H193 H 0.8477 0.8085 0.27778 0.0
H194 H 0.79803 0.83745 0.71343 0.0
H195 H 0.78041 0.78776 0.68376 0.0
H196 H 0.85275 0.87086 0.70607 0.0
H197 H 0.87747 0.89985 0.62922 0.0
C198 C 0.70169 0.28485 0.08418 0.0
C199 C 0.71394 0.27232 -0.00196 0.0
C200 C 0.68441 0.3354 0.93585 0.0
C201 C 0.67143 0.34761 0.0217 0.0
N202 N 0.67552 0.33968 0.18041 0.0
N203 N 0.72641 0.28922 0.84704 0.0
C204 C 0.68275 0.32413 0.09694 0.0
C205 C 0.7085 0.29896 0.9256 0.0
N206 N 0.7066 0.25839 0.15273 0.0
N207 N 0.67186 0.35745 0.8635 0.0
H208 H 0.7439 0.26251 0.83747 0.0
H209 H 0.72711 0.3091 0.79423 0.0
H210 H 0.65494 0.38476 0.86847 0.0
H211 H 0.67592 0.34751 0.79795 0.0
H212 H 0.69393 0.26334 0.21454 0.0
H213 H 0.72186 0.23015 0.14634 0.0
H214 H 0.68631 0.32605 0.23872 0.0
H215 H 0.66157 0.36832 0.19148 0.0
C216 C 0.13319 0.96551 0.15738 0.0
C217 C 0.1359 0.92196 0.14832 0.0
C218 C 0.09647 0.91558 0.28254 0.0
C219 C 0.08791 0.9586 0.28204 0.0
N220 N 0.09233 0.02336 0.20765 0.0
N221 N 0.11696 0.85476 0.19714 0.0
C222 C 0.10499 0.98341 0.21688 0.0
C223 C 0.11689 0.89668 0.20985 0.0
N224 N 0.15762 0.98975 0.10879 0.0
N225 N 0.0865 0.89309 0.35373 0.0
H226 H 0.13232 0.83984 0.14575 0.0
H227 H 0.09947 0.83506 0.23384 0.0
H228 H 0.07289 0.90609 0.40959 0.0
H229 H 0.09553 0.86252 0.36138 0.0
H230 H 0.15974 0.02166 0.11872 0.0
H231 H 0.179 0.97749 0.06517 0.0
H232 H 0.10078 0.04134 0.15533 0.0
H233 H 0.06982 0.03722 0.2461 0.0
C234 C 0.65062 0.59656 0.78235 0.0
C235 C 0.62924 0.62253 0.72126 0.0
C236 C 0.56372 0.60475 0.78533 0.0
C237 C 0.58552 0.5828 0.85292 0.0
N238 N 0.65137 0.56922 0.92984 0.0
N239 N 0.5669 0.66049 0.68331 0.0
C240 C 0.62954 0.58222 0.856 0.0
C241 C 0.58626 0.62983 0.72936 0.0
N242 N 0.68999 0.58334 0.76792 0.0
N243 N 0.52202 0.59939 0.76958 0.0
H244 H 0.58285 0.68024 0.64348 0.0
H245 H 0.53619 0.66893 0.69261 0.0
H246 H 0.50496 0.57769 0.80201 0.0
H247 H 0.50562 0.61244 0.71617 0.0
H248 H 0.70495 0.56128 0.80674 0.0
H249 H 0.706 0.59072 0.71209 0.0
H250 H 0.68358 0.57146 0.93734 0.0
H251 H 0.63719 0.56102 0.98756 0.0
C252 C 0.92446 0.14463 0.20144 0.0
C253 C 0.90155 0.11924 0.13838 0.0
C254 C 0.93186 0.0578 0.2039 0.0
C255 C 0.95114 0.08241 0.27402 0.0
N256 N 0.9596 0.14997 0.34707 0.0
N257 N 0.87418 0.05186 0.09626 0.0
C258 C 0.94584 0.12614 0.27508 0.0
C259 C 0.90214 0.07587 0.14547 0.0
N260 N 0.9267 0.18615 0.18984 0.0
N261 N 0.94376 0.01777 0.18905 0.0
H262 H 0.85076 0.06445 0.05541 0.0
H263 H 0.87135 0.02019 0.10426 0.0
H264 H 0.96847 1.00424 0.22447 0.0
H265 H 0.93281 0.99989 0.13397 0.0
H266 H 0.94683 0.20562 0.22772 0.0
H267 H 0.91034 0.20067 0.13823 0.0
H268 H 0.95245 0.18117 0.35499 0.0
H269 H 0.97518 0.13814 0.40257 0.0
C270 C 0.46036 0.4081 0.69753 0.0
C271 C 0.4166 0.40595 0.68638 0.0
C272 C 0.41046 0.44632 0.82599 0.0
C273 C 0.45391 0.45371 0.82896 0.0
N274 N 0.51877 0.44882 0.75499 0.0
N275 N 0.34927 0.4268 0.73427 0.0
C276 C 0.47856 0.43641 0.76148 0.0
C277 C 0.39132 0.42596 0.74925 0.0
N278 N 0.48453 0.38292 0.64693 0.0
N279 N 0.38774 0.45718 0.89748 0.0
H280 H 0.33418 0.41164 0.67966 0.0
H281 H 0.32973 0.44487 0.77259 0.0
H282 H 0.40075 0.47113 0.95577 0.0
H283 H 0.35678 0.44883 0.90223 0.0
H284 H 0.51654 0.38059 0.65804 0.0
H285 H 0.47207 0.36122 0.60022 0.0
H286 H 0.53671 0.43995 0.70182 0.0
H287 H 0.53274 0.47168 0.79671 0.0
C288 C 0.63539 0.57398 0.3831 0.0
C289 C 0.63652 0.61753 0.39378 0.0
C290 C 0.59565 0.62311 0.25315 0.0
C291 C 0.5887 0.57976 0.25129 0.0
N292 N 0.59529 0.51517 0.32689 0.0
N293 N 0.61408 0.6842 0.34399 0.0
C294 C 0.60698 0.5554 0.31931 0.0
C295 C 0.61583 0.64241 0.32992 0.0
N296 N 0.66144 0.55036 0.43441 0.0
N297 N 0.58451 0.64561 0.18065 0.0
H298 H 0.62905 0.69944 0.39864 0.0
H299 H 0.59541 0.7033 0.30482 0.0
H300 H 0.57108 0.63245 0.12194 0.0
H301 H 0.59243 0.67656 0.17548 0.0
H302 H 0.66447 0.51859 0.42386 0.0
H303 H 0.68315 0.56318 0.48112 0.0
H304 H 0.60493 0.49744 0.38052 0.0
H305 H 0.57225 0.50089 0.28574 0.0
C306 C 0.90387 0.06976 0.8069 0.0
C307 C 0.89892 0.11317 0.81231 0.0
C308 C 0.93375 0.11855 0.67221 0.0
C309 C 0.94504 0.07619 0.67599 0.0
N310 N 0.94828 0.01412 0.76091 0.0
N311 N 0.91326 0.18002 0.7552 0.0
C312 C 0.93196 0.05236 0.74692 0.0
C313 C 0.9149 0.138 0.74621 0.0
N314 N 0.88136 0.04509 0.85846 0.0
N315 N 0.9393 0.13973 0.59678 0.0
H316 H 0.89931 0.19531 0.80807 0.0
H317 H 0.92851 0.19957 0.71388 0.0
H318 H 0.95082 0.12585 0.53966 0.0
H319 H 0.92823 0.16954 0.58761 0.0
H320 H 0.88145 0.01298 0.85177 0.0
H321 H 0.85899 0.05688 0.90014 0.0
H322 H 0.9423 0.99722 0.81664 0.0
H323 H 0.97167 1.00154 0.72319 0.0
C324 C 0.43617 0.38971 0.29854 0.0
C325 C 0.4101 0.41099 0.35834 0.0
C326 C 0.42834 0.47621 0.29344 0.0
C327 C 0.45059 0.45453 0.22742 0.0
N328 N 0.46269 0.38908 0.1511 0.0
N329 N 0.37171 0.47299 0.39237 0.0
C330 C 0.45046 0.41073 0.22474 0.0
C331 C 0.40275 0.45375 0.34849 0.0
N332 N 0.44966 0.35059 0.31433 0.0
N333 N 0.43393 0.51762 0.30893 0.0
H334 H 0.35163 0.45705 0.43145 0.0
H335 H 0.36334 0.50357 0.38188 0.0
H336 H 0.45614 0.53452 0.2777 0.0
H337 H 0.42057 0.53385 0.36129 0.0
H338 H 0.47168 0.3358 0.27603 0.0
H339 H 0.44266 0.33467 0.3707 0.0
H340 H 0.46019 0.35705 0.14428 0.0
H341 H 0.47009 0.40339 0.09286 0.0
C342 C 0.14552 0.94071 0.76356 0.0
C343 C 0.12593 0.91298 0.81935 0.0
C344 C 0.06007 0.92262 0.73487 0.0
C345 C 0.08052 0.9483 0.67549 0.0
N346 N 0.14581 0.96684 0.61539 0.0
N347 N 0.06786 0.86832 0.84119 0.0
C348 C 0.12427 0.95268 0.68415 0.0
C349 C 0.08425 0.90085 0.79925 0.0
N350 N 0.1833 0.95762 0.78802 0.0
N351 N 0.01778 0.92054 0.73423 0.0
H352 H 0.08508 0.85126 0.88749 0.0
H353 H 0.03887 0.8557 0.82304 0.0
H354 H 0.99811 0.93622 0.69044 0.0
H355 H 1.00196 0.90597 0.7832 0.0
H356 H 0.19661 0.9809 0.7526 0.0
H357 H 0.19926 0.95186 0.84815 0.0
H358 H 0.17813 0.96768 0.61667 0.0
H359 H 0.13167 0.97234 0.55311 0.0
loop_
_geom_bond_atom_site_label_1
_geom_bond_atom_site_label_2
_geom_bond_distance
_geom_bond_site_symmetry_2
_ccdc_geom_bond_type
H0 C1 0.949 . S
C1 H0 0.949 . S
C1 C2 1.395 . S
C1 C3 1.391 1_554 S
C2 C1 1.395 . S
C2 C5 1.390 . S
C3 C1 1.391 1_556 S
C3 C7 1.387 . S
C3 C8 1.491 . S
H4 C5 0.950 . S
C5 C2 1.390 . S
C5 H4 0.950 . S
C5 C6 1.378 1_554 S
C6 C5 1.378 1_556 S
C6 C7 1.409 . S
C7 C3 1.387 . S
C7 C6 1.409 . S
C7 H9 0.951 . S
C8 C3 1.491 . S
C8 C10 1.382 1_556 S
C8 C12 1.404 . S
H9 C7 0.951 . S
C10 C8 1.382 1_554 S
C10 C11 1.390 . S
C10 H15 0.949 . S
C11 C10 1.390 . S
C11 C16 1.399 1_554 S
C12 C8 1.404 . S
C12 H13 0.950 . S
C12 C14 1.375 . S
H13 C12 0.950 . S
C14 C12 1.375 . S
C14 C16 1.382 . S
C14 H18 0.950 . S
H15 C10 0.949 . S
C16 C11 1.399 1_556 S
C16 C14 1.382 . S
C16 H17 0.952 . S
H17 C16 0.952 . S
H18 C14 0.950 . S
H19 C20 0.949 . S
C20 H19 0.949 . S
C20 C21 1.395 . S
C20 C22 1.391 . S
C21 C20 1.395 . S
C21 C24 1.390 . S
C22 C20 1.391 . S
C22 C26 1.387 . S
C22 C27 1.491 . S
H23 C24 0.950 . S
C24 C21 1.390 . S
C24 H23 0.950 . S
C24 C25 1.378 . S
C25 C24 1.378 . S
C25 C26 1.409 . S
C26 C22 1.387 . S
C26 C25 1.409 . S
C26 H28 0.951 . S
C27 C22 1.491 . S
C27 C29 1.382 . S
C27 C31 1.404 . S
H28 C26 0.951 . S
C29 C27 1.382 . S
C29 C30 1.390 . S
C29 H34 0.949 . S
C30 C29 1.390 . S
C30 C35 1.399 . S
C31 C27 1.404 . S
C31 H32 0.950 . S
C31 C33 1.375 . S
H32 C31 0.950 . S
C33 C31 1.375 . S
C33 C35 1.382 . S
C33 H37 0.950 . S
H34 C29 0.949 . S
C35 C30 1.399 . S
C35 C33 1.382 . S
C35 H36 0.952 . S
H36 C35 0.952 . S
H37 C33 0.950 . S
H38 C39 0.949 . S
C39 H38 0.949 . S
C39 C40 1.395 . S
C39 C41 1.391 1_554 S
C40 C39 1.395 . S
C40 C43 1.390 . S
C41 C39 1.391 1_556 S
C41 C45 1.387 . S
C41 C46 1.491 . S
H42 C43 0.950 . S
C43 C40 1.390 . S
C43 H42 0.950 . S
C43 C44 1.378 1_554 S
C44 C43 1.378 1_556 S
C44 C45 1.409 . S
C45 C41 1.387 . S
C45 C44 1.409 . S
C45 H47 0.951 . S
C46 C41 1.491 . S
C46 C48 1.382 1_556 S
C46 C50 1.404 . S
H47 C45 0.951 . S
C48 C46 1.382 1_554 S
C48 C49 1.390 . S
C48 H53 0.949 . S
C49 C48 1.390 . S
C49 C54 1.399 1_554 S
C50 C46 1.404 . S
C50 H51 0.950 . S
C50 C52 1.375 . S
H51 C50 0.950 . S
C52 C50 1.375 . S
C52 C54 1.382 . S
C52 H56 0.950 . S
H53 C48 0.949 . S
C54 C49 1.399 1_556 S
C54 C52 1.382 . S
C54 H55 0.952 . S
H55 C54 0.952 . S
H56 C52 0.950 . S
H57 C58 0.949 . S
C58 H57 0.949 . S
C58 C59 1.395 . S
C58 C60 1.391 . S
C59 C58 1.395 . S
C59 C62 1.390 . S
C60 C58 1.391 . S
C60 C64 1.387 . S
C60 C65 1.491 . S
H61 C62 0.950 . S
C62 C59 1.390 . S
C62 H61 0.950 . S
C62 C63 1.378 . S
C63 C62 1.378 . S
C63 C64 1.409 . S
C64 C60 1.387 . S
C64 C63 1.409 . S
C64 H66 0.951 . S
C65 C60 1.491 . S
C65 C67 1.382 . S
C65 C69 1.404 . S
H66 C64 0.951 . S
C67 C65 1.382 . S
C67 C68 1.390 . S
C67 H72 0.949 . S
C68 C67 1.390 . S
C68 C73 1.399 . S
C69 C65 1.404 . S
C69 H70 0.950 . S
C69 C71 1.375 . S
H70 C69 0.950 . S
C71 C69 1.375 . S
C71 C73 1.382 . S
C71 H75 0.950 . S
H72 C67 0.949 . S
C73 C68 1.399 . S
C73 C71 1.382 . S
C73 H74 0.952 . S
H74 C73 0.952 . S
H75 C71 0.950 . S
C76 O92 1.244 1_565 S
C76 O94 1.254 . S
N77 C78 1.333 . S
N77 C82 1.307 . S
N77 Zn83 2.020 . S
C78 N77 1.333 . S
C78 C79 1.379 . S
C78 H96 0.952 . S
C79 C78 1.379 . S
C79 C80 1.390 . S
C79 H106 0.949 . S
C80 C79 1.390 . S
C80 C81 1.357 . S
C81 C80 1.357 . S
C81 C82 1.370 . S
C81 H107 0.950 . S
C82 N77 1.307 . S
C82 C81 1.370 . S
C82 H100 0.948 . S
Zn83 N77 2.020 . S
Zn83 O92 2.044 . S
Zn83 O98 2.034 1_545 S
Zn83 O102 2.017 1_455 S
Zn83 O104 2.024 1_455 S
C84 O103 1.246 . S
C84 O104 1.249 . S
N85 C86 1.307 . S
N85 C87 1.333 . S
N85 Zn91 2.020 . S
C86 N85 1.307 . S
C86 C90 1.370 . S
C86 H97 0.948 . S
C87 N85 1.333 . S
C87 C88 1.379 . S
C87 H95 0.952 . S
C88 C87 1.379 . S
C88 C89 1.390 . S
C88 H108 0.949 . S
C89 C88 1.390 . S
C89 C90 1.357 . S
C90 C86 1.370 . S
C90 C89 1.357 . S
C90 H109 0.950 . S
Zn91 N85 2.020 . S
Zn91 O94 2.025 1_655 S
Zn91 O99 2.024 1_655 S
Zn91 O101 2.039 1_565 S
Zn91 O103 2.034 1_565 S
O92 C76 1.244 1_545 S
O92 Zn83 2.044 . S
C93 O98 1.246 . S
C93 O99 1.249 . S
O94 C76 1.254 . S
O94 Zn91 2.025 1_455 S
H95 C87 0.952 . S
H96 C78 0.952 . S
H97 C86 0.948 . S
O98 Zn83 2.034 1_565 S
O98 C93 1.246 . S
O99 Zn91 2.024 1_455 S
O99 C93 1.249 . S
H100 C82 0.948 . S
O101 Zn91 2.039 1_545 S
O101 C105 1.251 . S
O102 Zn83 2.017 1_655 S
O102 C105 1.264 . S
O103 C84 1.246 . S
O103 Zn91 2.034 1_545 S
O104 Zn83 2.024 1_655 S
O104 C84 1.249 . S
C105 O101 1.251 . S
C105 O102 1.264 . S
H106 C79 0.949 . S
H107 C81 0.950 . S
H108 C88 0.949 . S
H109 C90 0.950 . S
C110 O126 1.251 . S
C110 O128 1.254 . S
N111 C112 1.333 . S
N111 C116 1.307 . S
N111 Zn117 2.020 . S
C112 N111 1.333 . S
C112 C113 1.379 . S
C112 H130 0.952 1_554 S
C113 C112 1.379 . S
C113 C114 1.390 . S
C113 H140 0.949 1_554 S
C114 C113 1.390 . S
C114 C115 1.357 . S
C115 C114 1.357 . S
C115 C116 1.370 . S
C115 H141 0.950 . S
C116 N111 1.307 . S
C116 C115 1.370 . S
C116 H134 0.948 . S
Zn117 N111 2.020 . S
Zn117 O126 2.039 1_554 S
Zn117 O132 2.034 . S
Zn117 O136 2.025 . S
Zn117 O138 2.024 1_554 S
C118 O137 1.246 . S
C118 O138 1.249 . S
N119 C120 1.307 . S
N119 C121 1.333 . S
N119 Zn125 2.020 . S
C120 N119 1.307 . S
C120 C124 1.370 . S
C120 H131 0.948 1_554 S
C121 N119 1.333 . S
C121 C122 1.379 . S
C121 H129 0.952 . S
C122 C121 1.379 . S
C122 C123 1.390 . S
C122 H142 0.949 . S
C123 C122 1.390 . S
C123 C124 1.357 . S
C124 C120 1.370 . S
C124 C123 1.357 . S
C124 H143 0.950 1_554 S
Zn125 N119 2.020 . S
Zn125 O128 2.025 1_554 S
Zn125 O133 2.024 . S
Zn125 O135 2.039 . S
Zn125 O137 2.034 1_554 S
O126 C110 1.251 . S
O126 Zn117 2.039 1_556 S
C127 O132 1.246 . S
C127 O133 1.249 . S
O128 C110 1.254 . S
O128 Zn125 2.025 1_556 S
H129 C121 0.952 . S
H130 C112 0.952 1_556 S
H131 C120 0.948 1_556 S
O132 Zn117 2.034 . S
O132 C127 1.246 . S
O133 Zn125 2.024 . S
O133 C127 1.249 . S
H134 C116 0.948 . S
O135 Zn125 2.039 . S
O135 C139 1.251 . S
O136 Zn117 2.025 . S
O136 C139 1.254 . S
O137 C118 1.246 . S
O137 Zn125 2.034 1_556 S
O138 Zn117 2.024 1_556 S
O138 C118 1.249 . S
C139 O135 1.251 . S
C139 O136 1.254 . S
H140 C113 0.949 1_556 S
H141 C115 0.950 . S
H142 C122 0.949 . S
H143 C124 0.950 1_556 S
C144 C145 1.363 . S
C144 C150 1.379 . S
C144 N152 1.356 . S
C145 C144 1.363 . S
C145 C151 1.363 . S
C146 C147 1.363 . S
C146 C151 1.379 . S
C146 N153 1.356 . S
C147 C146 1.363 . S
C147 C150 1.363 . S
N148 C150 1.356 . S
N148 H160 0.984 . S
N148 H161 0.985 . S
N149 C151 1.356 . S
N149 H154 0.984 . S
N149 H155 0.985 . S
C150 C144 1.379 . S
C150 C147 1.363 . S
C150 N148 1.356 . S
C151 C145 1.363 . S
C151 C146 1.379 . S
C151 N149 1.356 . S
N152 C144 1.356 . S
N152 H158 0.984 . S
N152 H159 0.984 . S
N153 C146 1.356 . S
N153 H156 0.984 . S
N153 H157 0.985 . S
H154 N149 0.984 . S
H155 N149 0.985 . S
H156 N153 0.984 . S
H157 N153 0.985 . S
H158 N152 0.984 . S
H159 N152 0.984 . S
H160 N148 0.984 . S
H161 N148 0.985 . S
C162 C163 1.363 . S
C162 C168 1.379 . S
C162 N170 1.356 1_554 S
C163 C162 1.363 . S
C163 C169 1.363 . S
C164 C165 1.363 . S
C164 C169 1.379 . S
C164 N171 1.356 . S
C165 C164 1.363 . S
C165 C168 1.363 . S
N166 C168 1.356 1_556 S
N166 H178 0.984 . S
N166 H179 0.985 . S
N167 C169 1.356 . S
N167 H172 0.984 . S
N167 H173 0.985 . S
C168 C162 1.379 . S
C168 C165 1.363 . S
C168 N166 1.356 1_554 S
C169 C163 1.363 . S
C169 C164 1.379 . S
C169 N167 1.356 . S
N170 C162 1.356 1_556 S
N170 H176 0.984 . S
N170 H177 0.984 . S
N171 C164 1.356 . S
N171 H174 0.984 . S
N171 H175 0.985 . S
H172 N167 0.984 . S
H173 N167 0.985 . S
H174 N171 0.984 . S
H175 N171 0.985 . S
H176 N170 0.984 . S
H177 N170 0.984 . S
H178 N166 0.984 . S
H179 N166 0.985 . S
C180 C181 1.363 . S
C180 C186 1.379 . S
C180 N188 1.356 . S
C181 C180 1.363 . S
C181 C187 1.363 . S
C182 C183 1.363 . S
C182 C187 1.379 . S
C182 N189 1.356 . S
C183 C182 1.363 . S
C183 C186 1.363 . S
N184 C186 1.356 . S
N184 H196 0.984 . S
N184 H197 0.985 . S
N185 C187 1.356 . S
N185 H190 0.984 . S
N185 H191 0.985 . S
C186 C180 1.379 . S
C186 C183 1.363 . S
C186 N184 1.356 . S
C187 C181 1.363 . S
C187 C182 1.379 . S
C187 N185 1.356 . S
N188 C180 1.356 . S
N188 H194 0.984 . S
N188 H195 0.984 . S
N189 C182 1.356 . S
N189 H192 0.984 . S
N189 H193 0.985 . S
H190 N185 0.984 . S
H191 N185 0.985 . S
H192 N189 0.984 . S
H193 N189 0.985 . S
H194 N188 0.984 . S
H195 N188 0.984 . S
H196 N184 0.984 . S
H197 N184 0.985 . S
C198 C199 1.363 . S
C198 C204 1.379 . S
C198 N206 1.356 . S
C199 C198 1.363 . S
C199 C205 1.363 1_554 S
C200 C201 1.363 1_556 S
C200 C205 1.379 . S
C200 N207 1.356 . S
C201 C200 1.363 1_554 S
C201 C204 1.363 . S
N202 C204 1.356 . S
N202 H214 0.984 . S
N202 H215 0.985 . S
N203 C205 1.356 . S
N203 H208 0.984 . S
N203 H209 0.985 . S
C204 C198 1.379 . S
C204 C201 1.363 . S
C204 N202 1.356 . S
C205 C199 1.363 1_556 S
C205 C200 1.379 . S
C205 N203 1.356 . S
N206 C198 1.356 . S
N206 H212 0.984 . S
N206 H213 0.984 . S
N207 C200 1.356 . S
N207 H210 0.984 . S
N207 H211 0.985 . S
H208 N203 0.984 . S
H209 N203 0.985 . S
H210 N207 0.984 . S
H211 N207 0.985 . S
H212 N206 0.984 . S
H213 N206 0.984 . S
H214 N202 0.984 . S
H215 N202 0.985 . S
C216 C217 1.363 . S
C216 C222 1.379 . S
C216 N224 1.356 . S
C217 C216 1.363 . S
C217 C223 1.363 . S
C218 C219 1.363 . S
C218 C223 1.379 . S
C218 N225 1.356 . S
C219 C218 1.363 . S
C219 C222 1.363 . S
N220 C222 1.356 . S
N220 H232 0.984 1_565 S
N220 H233 0.985 1_565 S
N221 C223 1.356 . S
N221 H226 0.984 . S
N221 H227 0.985 . S
C222 C216 1.379 . S
C222 C219 1.363 . S
C222 N220 1.356 . S
C223 C217 1.363 . S
C223 C218 1.379 . S
C223 N221 1.356 . S
N224 C216 1.356 . S
N224 H230 0.984 . S
N224 H231 0.984 . S
N225 C218 1.356 . S
N225 H228 0.984 . S
N225 H229 0.985 . S
H226 N221 0.984 . S
H227 N221 0.985 . S
H228 N225 0.984 . S
H229 N225 0.985 . S
H230 N224 0.984 . S
H231 N224 0.984 . S
H232 N220 0.984 1_545 S
H233 N220 0.985 1_545 S
C234 C235 1.363 . S
C234 C240 1.379 . S
C234 N242 1.356 . S
C235 C234 1.363 . S
C235 C241 1.363 . S
C236 C237 1.363 . S
C236 C241 1.379 . S
C236 N243 1.356 . S
C237 C236 1.363 . S
C237 C240 1.363 . S
N238 C240 1.356 . S
N238 H250 0.984 . S
N238 H251 0.985 . S
N239 C241 1.356 . S
N239 H244 0.984 . S
N239 H245 0.985 . S
C240 C234 1.379 . S
C240 C237 1.363 . S
C240 N238 1.356 . S
C241 C235 1.363 . S
C241 C236 1.379 . S
C241 N239 1.356 . S
N242 C234 1.356 . S
N242 H248 0.984 . S
N242 H249 0.984 . S
N243 C236 1.356 . S
N243 H246 0.984 . S
N243 H247 0.985 . S
H244 N239 0.984 . S
H245 N239 0.985 . S
H246 N243 0.984 . S
H247 N243 0.985 . S
H248 N242 0.984 . S
H249 N242 0.984 . S
H250 N238 0.984 . S
H251 N238 0.985 . S
C252 C253 1.363 . S
C252 C258 1.379 . S
C252 N260 1.356 . S
C253 C252 1.363 . S
C253 C259 1.363 . S
C254 C255 1.363 . S
C254 C259 1.379 . S
C254 N261 1.356 . S
C255 C254 1.363 . S
C255 C258 1.363 . S
N256 C258 1.356 . S
N256 H268 0.982 1_655 S
N256 H269 0.985 . S
N257 C259 1.356 . S
N257 H262 0.984 . S
N257 H263 0.985 . S
C258 C252 1.379 . S
C258 C255 1.363 . S
C258 N256 1.356 . S
C259 C253 1.363 . S
C259 C254 1.379 . S
C259 N257 1.356 . S
N260 C252 1.356 . S
N260 H266 0.984 . S
N260 H267 0.984 . S
N261 C254 1.356 . S
N261 H264 0.984 . S
N261 H265 0.985 1_545 S
H262 N257 0.984 . S
H263 N257 0.985 . S
H264 N261 0.984 . S
H265 N261 0.985 1_565 S
H266 N260 0.984 . S
H267 N260 0.984 . S
H268 N256 0.982 1_455 S
H269 N256 0.985 . S
C270 C271 1.363 . S
C270 C276 1.379 . S
C270 N278 1.356 . S
C271 C270 1.363 . S
C271 C277 1.363 . S
C272 C273 1.363 . S
C272 C277 1.379 . S
C272 N279 1.356 . S
C273 C272 1.363 . S
C273 C276 1.363 . S
N274 C276 1.356 . S
N274 H286 0.984 . S
N274 H287 0.985 . S
N275 C277 1.356 . S
N275 H280 0.984 . S
N275 H281 0.985 . S
C276 C270 1.379 . S
C276 C273 1.363 . S
C276 N274 1.356 . S
C277 C271 1.363 . S
C277 C272 1.379 . S
C277 N275 1.356 . S
N278 C270 1.356 . S
N278 H284 0.984 . S
N278 H285 0.984 . S
N279 C272 1.356 . S
N279 H282 0.984 . S
N279 H283 0.985 . S
H280 N275 0.984 . S
H281 N275 0.985 . S
H282 N279 0.984 . S
H283 N279 0.985 . S
H284 N278 0.984 . S
H285 N278 0.984 . S
H286 N274 0.984 . S
H287 N274 0.985 . S
C288 C289 1.363 . S
C288 C294 1.379 . S
C288 N296 1.356 . S
C289 C288 1.363 . S
C289 C295 1.363 . S
C290 C291 1.363 . S
C290 C295 1.379 . S
C290 N297 1.356 . S
C291 C290 1.363 . S
C291 C294 1.363 . S
N292 C294 1.356 . S
N292 H304 0.984 . S
N292 H305 0.985 . S
N293 C295 1.356 . S
N293 H298 0.984 . S
N293 H299 0.985 . S
C294 C288 1.379 . S
C294 C291 1.363 . S
C294 N292 1.356 . S
C295 C289 1.363 . S
C295 C290 1.379 . S
C295 N293 1.356 . S
N296 C288 1.356 . S
N296 H302 0.984 . S
N296 H303 0.984 . S
N297 C290 1.356 . S
N297 H300 0.984 . S
N297 H301 0.985 . S
H298 N293 0.984 . S
H299 N293 0.985 . S
H300 N297 0.984 . S
H301 N297 0.985 . S
H302 N296 0.984 . S
H303 N296 0.984 . S
H304 N292 0.984 . S
H305 N292 0.985 . S
C306 C307 1.363 . S
C306 C312 1.379 . S
C306 N314 1.356 . S
C307 C306 1.363 . S
C307 C313 1.363 . S
C308 C309 1.363 . S
C308 C313 1.379 . S
C308 N315 1.356 . S
C309 C308 1.363 . S
C309 C312 1.363 . S
N310 C312 1.356 . S
N310 H322 0.984 1_545 S
N310 H323 0.985 . S
N311 C313 1.356 . S
N311 H316 0.984 . S
N311 H317 0.985 . S
C312 C306 1.379 . S
C312 C309 1.363 . S
C312 N310 1.356 . S
C313 C307 1.363 . S
C313 C308 1.379 . S
C313 N311 1.356 . S
N314 C306 1.356 . S
N314 H320 0.984 . S
N314 H321 0.984 . S
N315 C308 1.356 . S
N315 H318 0.984 . S
N315 H319 0.985 . S
H316 N311 0.984 . S
H317 N311 0.985 . S
H318 N315 0.984 . S
H319 N315 0.985 . S
H320 N314 0.984 . S
H321 N314 0.984 . S
H322 N310 0.984 1_565 S
H323 N310 0.985 . S
C324 C325 1.363 . S
C324 C330 1.379 . S
C324 N332 1.356 . S
C325 C324 1.363 . S
C325 C331 1.363 . S
C326 C327 1.363 . S
C326 C331 1.379 . S
C326 N333 1.356 . S
C327 C326 1.363 . S
C327 C330 1.363 . S
N328 C330 1.356 . S
N328 H340 0.984 . S
N328 H341 0.985 . S
N329 C331 1.356 . S
N329 H334 0.984 . S
N329 H335 0.985 . S
C330 C324 1.379 . S
C330 C327 1.363 . S
C330 N328 1.356 . S
C331 C325 1.363 . S
C331 C326 1.379 . S
C331 N329 1.356 . S
N332 C324 1.356 . S
N332 H338 0.984 . S
N332 H339 0.984 . S
N333 C326 1.356 . S
N333 H336 0.984 . S
N333 H337 0.985 . S
H334 N329 0.984 . S
H335 N329 0.985 . S
H336 N333 0.984 . S
H337 N333 0.985 . S
H338 N332 0.984 . S
H339 N332 0.984 . S
H340 N328 0.984 . S
H341 N328 0.985 . S
C342 C343 1.363 . S
C342 C348 1.379 . S
C342 N350 1.356 . S
C343 C342 1.363 . S
C343 C349 1.363 . S
C344 C345 1.363 . S
C344 C349 1.379 . S
C344 N351 1.356 . S
C345 C344 1.363 . S
C345 C348 1.363 . S
N346 C348 1.356 . S
N346 H358 0.984 . S
N346 H359 0.985 . S
N347 C349 1.356 . S
N347 H352 0.984 . S
N347 H353 0.985 . S
C348 C342 1.379 . S
C348 C345 1.363 . S
C348 N346 1.356 . S
C349 C343 1.363 . S
C349 C344 1.379 . S
C349 N347 1.356 . S
N350 C342 1.356 . S
N350 H356 0.984 . S
N350 H357 0.984 . S
N351 C344 1.356 . S
N351 H354 0.984 . S
N351 H355 0.985 1_455 S
H352 N347 0.984 . S
H353 N347 0.985 . S
H354 N351 0.984 . S
H355 N351 0.985 1_655 S
H356 N350 0.984 . S
H357 N350 0.984 . S
H358 N346 0.984 . S
H359 N346 0.985 . S
C147 C80 1.528 . S
C145 C68 1.402 . S
C163 C11 1.403 . S
C165 C123 1.532 . S
C181 C30 1.413 . S
C183 C89 1.530 . S
C199 C49 1.407 . S
C201 C114 1.527 . S
C219 C76 1.614 . S
C217 C2 1.572 . S
C237 C118 1.588 . S
C235 C25 1.589 . S
C253 C40 1.574 . S
C255 C84 1.605 . S
C271 C59 1.552 . S
C273 C110 1.588 . S
C291 C139 1.502 . S
C289 C21 1.470 . S
C309 C105 1.491 . S
C307 C44 1.490 . S
C327 C127 1.508 . S
C325 C63 1.510 . S
C343 C6 1.492 . S
C345 C93 1.490 . S
