# Generated by pormake.
# Topology pyr, (3,6)-cn, num edge types: 1
# Building blocks:
#     Node 0, Type 0, BuildingBlock: MIDCAF_clean_linker_0, # of connection points: 3
#     Node 1, Type 0, BuildingBlock: MIDCAF_clean_linker_0, # of connection points: 3
#     Node 2, Type 0, BuildingBlock: MIDCAF_clean_linker_0, # of connection points: 3
#     Node 3, Type 0, BuildingBlock: MIDCAF_clean_linker_0, # of connection points: 3
#     Node 4, Type 0, BuildingBlock: MIDCAF_clean_linker_0, # of connection points: 3
#     Node 5, Type 0, BuildingBlock: MIDCAF_clean_linker_0, # of connection points: 3
#     Node 6, Type 0, BuildingBlock: MIDCAF_clean_linker_0, # of connection points: 3
#     Node 7, Type 0, BuildingBlock: MIDCAF_clean_linker_0, # of connection points: 3
#     Node 8, Type 1, BuildingBlock: BETFAJ_clean_sbu_0, # of connection points: 6
#     Node 9, Type 1, BuildingBlock: BETFAJ_clean_sbu_0, # of connection points: 6
#     Node 10, Type 1, BuildingBlock: BETFAJ_clean_sbu_0, # of connection points: 6
#     Node 11, Type 1, BuildingBlock: BETFAJ_clean_sbu_0, # of connection points: 6
#     Edge 12, Type (0, 1), BuildingBlock: AJUNOK_clean_linker_0, # of connection points: 2
#     Edge 13, Type (0, 1), BuildingBlock: AJUNOK_clean_linker_0, # of connection points: 2
#     Edge 14, Type (0, 1), BuildingBlock: AJUNOK_clean_linker_0, # of connection points: 2
#     Edge 15, Type (0, 1), BuildingBlock: AJUNOK_clean_linker_0, # of connection points: 2
#     Edge 16, Type (0, 1), BuildingBlock: AJUNOK_clean_linker_0, # of connection points: 2
#     Edge 17, Type (0, 1), BuildingBlock: AJUNOK_clean_linker_0, # of connection points: 2
#     Edge 18, Type (0, 1), BuildingBlock: AJUNOK_clean_linker_0, # of connection points: 2
#     Edge 19, Type (0, 1), BuildingBlock: AJUNOK_clean_linker_0, # of connection points: 2
#     Edge 20, Type (0, 1), BuildingBlock: AJUNOK_clean_linker_0, # of connection points: 2
#     Edge 21, Type (0, 1), BuildingBlock: AJUNOK_clean_linker_0, # of connection points: 2
#     Edge 22, Type (0, 1), BuildingBlock: AJUNOK_clean_linker_0, # of connection points: 2
#     Edge 23, Type (0, 1), BuildingBlock: AJUNOK_clean_linker_0, # of connection points: 2
#     Edge 24, Type (0, 1), BuildingBlock: AJUNOK_clean_linker_0, # of connection points: 2
#     Edge 25, Type (0, 1), BuildingBlock: AJUNOK_clean_linker_0, # of connection points: 2
#     Edge 26, Type (0, 1), BuildingBlock: AJUNOK_clean_linker_0, # of connection points: 2
#     Edge 27, Type (0, 1), BuildingBlock: AJUNOK_clean_linker_0, # of connection points: 2
#     Edge 28, Type (0, 1), BuildingBlock: AJUNOK_clean_linker_0, # of connection points: 2
#     Edge 29, Type (0, 1), BuildingBlock: AJUNOK_clean_linker_0, # of connection points: 2
#     Edge 30, Type (0, 1), BuildingBlock: AJUNOK_clean_linker_0, # of connection points: 2
#     Edge 31, Type (0, 1), BuildingBlock: AJUNOK_clean_linker_0, # of connection points: 2
#     Edge 32, Type (0, 1), BuildingBlock: AJUNOK_clean_linker_0, # of connection points: 2
#     Edge 33, Type (0, 1), BuildingBlock: AJUNOK_clean_linker_0, # of connection points: 2
#     Edge 34, Type (0, 1), BuildingBlock: AJUNOK_clean_linker_0, # of connection points: 2
#     Edge 35, Type (0, 1), BuildingBlock: AJUNOK_clean_linker_0, # of connection points: 2
# Relax obj value: 0.134
# Max RMSD: 0.130
# Mean RMSD: 0.064
data_MOF--net-pyr--node1-BETFAJ_clean_sbu_0--node2-MIDCAF_clean_linker_0--edge1-AJUNOK_clean_linker_0
_symmetry_space_group_name_H-M    P1
_symmetry_Int_Tables_number       1
_symmetry_cell_setting            triclinic
loop_
_symmetry_equiv_pos_as_xyz
'x, y, z'
_cell_length_a     36.499117
_cell_length_b     38.20285
_cell_length_c     34.693
_cell_angle_alpha  90.914815
_cell_angle_beta   88.677011
_cell_angle_gamma 101.66628
loop_
_atom_site_label
_atom_site_type_symbol
_atom_site_fract_x
_atom_site_fract_y
_atom_site_fract_z
_atom_type_partial_charge
C0 C 0.29993 0.29207 0.37886 0.0
C1 C 0.3095 0.26142 0.39421 0.0
C2 C 0.34449 0.25342 0.38452 0.0
C3 C 0.36664 0.27224 0.35529 0.0
H4 H 0.42668 0.24169 0.2716 0.0
H5 H 0.45259 0.19493 0.23994 0.0
H6 H 0.4365 0.23805 0.12892 0.0
H7 H 0.40963 0.28536 0.16056 0.0
H8 H 0.34695 0.34167 0.16048 0.0
H9 H 0.30202 0.37236 0.1308 0.0
H10 H 0.27703 0.4145 0.24243 0.0
H11 H 0.32267 0.38616 0.27134 0.0
H12 H 0.31224 0.33267 0.33651 0.0
H13 H 0.27329 0.29914 0.38605 0.0
H14 H 0.35311 0.23065 0.39703 0.0
H15 H 0.39167 0.26322 0.34569 0.0
N16 N 0.38974 0.28989 0.27734 0.0
N17 N 0.38047 0.31707 0.21905 0.0
N18 N 0.35413 0.33395 0.27705 0.0
C19 C 0.39609 0.29322 0.23873 0.0
C20 C 0.35981 0.33801 0.23848 0.0
C21 C 0.36883 0.31005 0.29676 0.0
C22 C 0.41568 0.26739 0.21866 0.0
C23 C 0.42871 0.24169 0.24042 0.0
C24 C 0.44353 0.21469 0.22238 0.0
C25 C 0.44632 0.21287 0.18215 0.0
C26 C 0.43472 0.2391 0.16011 0.0
C27 C 0.41937 0.26611 0.17822 0.0
C28 C 0.33834 0.36114 0.21835 0.0
C29 C 0.33272 0.35845 0.17837 0.0
C30 C 0.30678 0.37579 0.16145 0.0
C31 C 0.28607 0.39611 0.18418 0.0
C32 C 0.2931 0.40001 0.22375 0.0
C33 C 0.31912 0.38319 0.24047 0.0
C34 C 0.35424 0.2996 0.33589 0.0
C35 C 0.32231 0.31123 0.35017 0.0
C36 C 0.13168 0.89195 0.65644 0.0
C37 C 0.11913 0.89008 0.61853 0.0
C38 C 0.12792 0.86399 0.59312 0.0
C39 C 0.15579 0.84579 0.60263 0.0
H40 H 0.23554 0.78577 0.56076 0.0
H41 H 0.26727 0.7407 0.5328 0.0
H42 H 0.37404 0.80742 0.56026 0.0
H43 H 0.34289 0.85264 0.58653 0.0
H44 H 0.34868 0.884 0.67448 0.0
H45 H 0.38517 0.91768 0.72604 0.0
H46 H 0.29 0.96258 0.76099 0.0
H47 H 0.25341 0.9293 0.70966 0.0
H48 H 0.17268 0.87946 0.6937 0.0
H49 H 0.12444 0.91152 0.67665 0.0
H50 H 0.11763 0.86178 0.56395 0.0
H51 H 0.16604 0.82972 0.58045 0.0
N52 N 0.23117 0.83698 0.60959 0.0
N53 N 0.29048 0.8637 0.63198 0.0
N54 N 0.23688 0.87511 0.66357 0.0
C55 C 0.26897 0.8421 0.60628 0.0
C56 C 0.27461 0.88034 0.66059 0.0
C57 C 0.21493 0.85338 0.63833 0.0
C58 C 0.28679 0.82173 0.57775 0.0
C59 C 0.26583 0.79143 0.55931 0.0
C60 C 0.28392 0.76565 0.54322 0.0
C61 C 0.32287 0.76992 0.5461 0.0
C62 C 0.34388 0.80306 0.55818 0.0
C63 C 0.32593 0.82885 0.57387 0.0
C64 C 0.298 0.90355 0.68853 0.0
C65 C 0.33573 0.90152 0.69273 0.0
C66 C 0.35662 0.92071 0.72207 0.0
C67 C 0.34011 0.94233 0.74724 0.0
C68 C 0.30323 0.94612 0.74161 0.0
C69 C 0.28225 0.92678 0.71254 0.0
C70 C 0.17488 0.85426 0.63732 0.0
C71 C 0.15952 0.87375 0.666 0.0
C72 C 0.6385 0.25322 0.9405 0.0
C73 C 0.60252 0.23592 0.92927 0.0
C74 C 0.58523 0.2522 0.90037 0.0
C75 C 0.6029 0.28513 0.88409 0.0
H76 H 0.59919 0.3617 0.79199 0.0
H77 H 0.57451 0.3913 0.73896 0.0
H78 H 0.66182 0.48448 0.75519 0.0
H79 H 0.68605 0.45546 0.80821 0.0
H80 H 0.74211 0.461 0.88503 0.0
H81 H 0.79845 0.48993 0.91864 0.0
H82 H 0.81123 0.38748 0.96102 0.0
H83 H 0.75375 0.35909 0.92954 0.0
H84 H 0.68353 0.29849 0.93459 0.0
H85 H 0.65278 0.24179 0.96264 0.0
H86 H 0.55785 0.23947 0.89028 0.0
H87 H 0.58837 0.29682 0.86239 0.0
N88 N 0.6428 0.35509 0.85117 0.0
N89 N 0.69253 0.40512 0.85565 0.0
N90 N 0.68963 0.35654 0.89693 0.0
C91 C 0.66029 0.3882 0.83822 0.0
C92 C 0.7075 0.38943 0.88497 0.0
C93 C 0.65734 0.33904 0.88069 0.0
C94 C 0.6447 0.40599 0.80517 0.0
C95 C 0.61313 0.38857 0.78446 0.0
C96 C 0.59899 0.40555 0.75372 0.0
C97 C 0.61561 0.44072 0.74273 0.0
C98 C 0.64745 0.45783 0.76307 0.0
C99 C 0.66163 0.4409 0.7936 0.0
C100 C 0.74309 0.40754 0.90419 0.0
C101 C 0.75699 0.44459 0.90139 0.0
C102 C 0.78979 0.46119 0.92049 0.0
C103 C 0.81049 0.4412 0.94225 0.0
C104 C 0.7964 0.40412 0.94496 0.0
C105 C 0.76328 0.38768 0.92654 0.0
C106 C 0.63851 0.30293 0.89616 0.0
C107 C 0.65608 0.2861 0.9244 0.0
C108 C 0.74543 0.67452 0.46135 0.0
C109 C 0.7274 0.63942 0.45201 0.0
C110 C 0.74486 0.62016 0.4247 0.0
C111 C 0.77895 0.63612 0.40637 0.0
H112 H 0.84781 0.63116 0.30763 0.0
H113 H 0.87211 0.60247 0.25254 0.0
H114 H 0.97473 0.68179 0.25576 0.0
H115 H 0.94942 0.71172 0.30997 0.0
H116 H 0.94506 0.78967 0.36638 0.0
H117 H 0.97304 0.84764 0.39621 0.0
H118 H 0.8903 0.82828 0.4882 0.0
H119 H 0.86289 0.77118 0.45941 0.0
H120 H 0.79196 0.71748 0.45157 0.0
H121 H 0.7332 0.68992 0.48276 0.0
H122 H 0.73178 0.593 0.41699 0.0
H123 H 0.79136 0.62068 0.38518 0.0
N124 N 0.84792 0.6745 0.36537 0.0
N125 N 0.89835 0.72416 0.36228 0.0
N126 N 0.85093 0.72177 0.40966 0.0
C127 C 0.88065 0.69149 0.34802 0.0
C128 C 0.88349 0.7395 0.39333 0.0
C129 C 0.83282 0.68947 0.39624 0.0
C130 C 0.89639 0.67411 0.31369 0.0
C131 C 0.8755 0.64285 0.29659 0.0
C132 C 0.88966 0.6261 0.26479 0.0
C133 C 0.92553 0.63959 0.2488 0.0
C134 C 0.94661 0.67082 0.26604 0.0
C135 C 0.93218 0.68792 0.29769 0.0
C136 C 0.90172 0.77516 0.41036 0.0
C137 C 0.93297 0.7977 0.39305 0.0
C138 C 0.94892 0.83105 0.41007 0.0
C139 C 0.93434 0.84248 0.44504 0.0
C140 C 0.9029 0.82016 0.46183 0.0
C141 C 0.88698 0.78723 0.44494 0.0
C142 C 0.79668 0.67156 0.41538 0.0
C143 C 0.77942 0.69028 0.44345 0.0
C144 C 0.57868 0.8692 0.87872 0.0
C145 C 0.5848 0.87822 0.91767 0.0
C146 C 0.60603 0.85903 0.93941 0.0
C147 C 0.62213 0.83226 0.92205 0.0
H148 H 0.69874 0.76219 0.93826 0.0
H149 H 0.74763 0.73575 0.96646 0.0
H150 H 0.76381 0.68422 0.8575 0.0
H151 H 0.71443 0.70925 0.82987 0.0
H152 H 0.70984 0.75497 0.75286 0.0
H153 H 0.7556 0.78512 0.70583 0.0
H154 H 0.71493 0.88269 0.725 0.0
H155 H 0.66848 0.85251 0.77055 0.0
H156 H 0.59069 0.83733 0.83083 0.0
H157 H 0.56289 0.88385 0.86118 0.0
H158 H 0.61106 0.8655 0.9696 0.0
H159 H 0.6396 0.81897 0.93913 0.0
N160 N 0.65707 0.77845 0.88124 0.0
N161 N 0.68639 0.76543 0.82339 0.0
N162 N 0.64718 0.80659 0.82373 0.0
C163 C 0.67992 0.75982 0.86165 0.0
C164 C 0.67041 0.78881 0.80421 0.0
C165 C 0.63984 0.80131 0.86198 0.0
C166 C 0.70303 0.73827 0.88167 0.0
C167 C 0.71202 0.74444 0.92069 0.0
C168 C 0.74039 0.72973 0.93665 0.0
C169 C 0.76025 0.70873 0.91383 0.0
C170 C 0.74921 0.70043 0.87577 0.0
C171 C 0.72093 0.71495 0.85992 0.0
C172 C 0.68633 0.80165 0.76628 0.0
C173 C 0.70949 0.78239 0.74565 0.0
C174 C 0.73575 0.79964 0.71878 0.0
C175 C 0.73934 0.8364 0.71237 0.0
C176 C 0.71273 0.85428 0.729 0.0
C177 C 0.68612 0.83691 0.75545 0.0
C178 C 0.61763 0.82455 0.88251 0.0
C179 C 0.59488 0.84267 0.86134 0.0
C180 C 0.73868 0.18823 0.34656 0.0
C181 C 0.70569 0.19837 0.33578 0.0
C182 C 0.68963 0.22144 0.35959 0.0
C183 C 0.70706 0.23477 0.39378 0.0
H184 H 0.68984 0.27446 0.50664 0.0
H185 H 0.66531 0.31862 0.54428 0.0
H186 H 0.77417 0.35747 0.59292 0.0
H187 H 0.799 0.31221 0.55499 0.0
H188 H 0.86958 0.24334 0.52067 0.0
H189 H 0.90882 0.20008 0.53643 0.0
H190 H 0.82056 0.11328 0.50049 0.0
H191 H 0.78201 0.1558 0.48476 0.0
H192 H 0.7816 0.19298 0.38738 0.0
H193 H 0.75097 0.1697 0.329 0.0
H194 H 0.66388 0.22918 0.35165 0.0
H195 H 0.69418 0.25231 0.41208 0.0
N196 N 0.74587 0.25951 0.46542 0.0
N197 N 0.78887 0.25045 0.51205 0.0
N198 N 0.78532 0.2196 0.45311 0.0
C199 C 0.76148 0.26707 0.50064 0.0
C200 C 0.80065 0.2266 0.48802 0.0
C201 C 0.75822 0.23597 0.44133 0.0
C202 C 0.74638 0.29072 0.52737 0.0
C203 C 0.7084 0.29189 0.52594 0.0
C204 C 0.69422 0.3167 0.54813 0.0
C205 C 0.7179 0.3412 0.57174 0.0
C206 C 0.75544 0.33852 0.57524 0.0
C207 C 0.76958 0.31302 0.55335 0.0
C208 C 0.82323 0.20247 0.50169 0.0
C209 C 0.85873 0.21496 0.51687 0.0
C210 C 0.88096 0.19051 0.52551 0.0
C211 C 0.86715 0.15379 0.51963 0.0
C212 C 0.83131 0.14155 0.50545 0.0
C213 C 0.80951 0.16576 0.49644 0.0
C214 C 0.74045 0.22479 0.40434 0.0
C215 C 0.75607 0.20153 0.3802 0.0
C216 C 0.2531 0.63005 0.18339 0.0
C217 C 0.23095 0.65078 0.16468 0.0
C218 C 0.24199 0.68826 0.16776 0.0
C219 C 0.27469 0.70433 0.18697 0.0
H220 H 0.35398 0.79184 0.1736 0.0
H221 H 0.38221 0.84844 0.14446 0.0
H222 H 0.48226 0.85166 0.20928 0.0
H223 H 0.45408 0.794 0.23838 0.0
H224 H 0.4551 0.71584 0.29313 0.0
H225 H 0.48085 0.6883 0.3471 0.0
H226 H 0.37117 0.62632 0.37391 0.0
H227 H 0.34553 0.65318 0.31976 0.0
H228 H 0.30202 0.62937 0.21684 0.0
H229 H 0.24586 0.60115 0.18195 0.0
H230 H 0.2252 0.70552 0.15569 0.0
H231 H 0.28225 0.73325 0.18791 0.0
N232 N 0.3508 0.73421 0.2102 0.0
N233 N 0.39923 0.73624 0.2541 0.0
N234 N 0.34878 0.68652 0.25248 0.0
C235 C 0.3837 0.75183 0.22496 0.0
C236 C 0.38179 0.70361 0.26837 0.0
C237 C 0.33314 0.70169 0.22325 0.0
C238 C 0.40156 0.78781 0.20866 0.0
C239 C 0.38197 0.80442 0.18207 0.0
C240 C 0.39807 0.8374 0.16547 0.0
C241 C 0.43442 0.85526 0.17477 0.0
C242 C 0.45415 0.83883 0.20139 0.0
C243 C 0.43792 0.80572 0.21824 0.0
C244 C 0.39803 0.68694 0.30165 0.0
C245 C 0.43637 0.69638 0.31049 0.0
C246 C 0.45124 0.68045 0.34149 0.0
C247 C 0.42817 0.65519 0.36539 0.0
C248 C 0.38985 0.64593 0.35668 0.0
C249 C 0.37515 0.66126 0.32526 0.0
C250 C 0.29713 0.68367 0.20499 0.0
C251 C 0.2855 0.64623 0.20349 0.0
C252 C 0.15243 0.27377 0.66009 0.0
C253 C 0.11691 0.25452 0.67135 0.0
C254 C 0.09624 0.27048 0.69906 0.0
C255 C 0.11092 0.30447 0.71513 0.0
H256 H 0.10106 0.38085 0.80894 0.0
H257 H 0.07333 0.4096 0.86264 0.0
H258 H 0.15882 0.50475 0.84808 0.0
H259 H 0.18603 0.47652 0.79422 0.0
H260 H 0.25788 0.47711 0.73352 0.0
H261 H 0.31484 0.5072 0.69876 0.0
H262 H 0.30153 0.41987 0.61659 0.0
H263 H 0.24515 0.39041 0.65021 0.0
H264 H 0.19445 0.32111 0.66603 0.0
H265 H 0.16945 0.26248 0.63923 0.0
H266 H 0.0684 0.257 0.70792 0.0
H267 H 0.09417 0.31587 0.73615 0.0
N268 N 0.14709 0.37556 0.74971 0.0
N269 N 0.19533 0.42701 0.74542 0.0
N270 N 0.19472 0.37901 0.70248 0.0
C271 C 0.16318 0.40902 0.76312 0.0
C272 C 0.21129 0.41216 0.71498 0.0
C273 C 0.16289 0.36033 0.71926 0.0
C274 C 0.14602 0.42611 0.79675 0.0
C275 C 0.11409 0.40788 0.81717 0.0
C276 C 0.0983 0.42434 0.84841 0.0
C277 C 0.11386 0.45961 0.86035 0.0
C278 C 0.14576 0.4777 0.83991 0.0
C279 C 0.16155 0.46131 0.80886 0.0
C280 C 0.24635 0.43131 0.69474 0.0
C281 C 0.26699 0.46445 0.7079 0.0
C282 C 0.29976 0.48168 0.68804 0.0
C283 C 0.31247 0.46642 0.6543 0.0
C284 C 0.29216 0.43307 0.64172 0.0
C285 C 0.25973 0.41593 0.66142 0.0
C286 C 0.14652 0.32366 0.70363 0.0
C287 C 0.1669 0.30761 0.67581 0.0
Sm288 Sm 0.04343 0.06109 0.52272 0.0
Sm289 Sm 1.00731 1.03224 0.59859 0.0
C290 C 0.06807 0.09924 0.46152 0.0
C291 C 0.1051 0.12145 0.45418 0.0
C292 C 0.10834 0.1554 0.43822 0.0
C293 C 0.1435 0.1777 0.43402 0.0
C294 C 0.17564 0.16611 0.44556 0.0
C295 C 0.17234 0.13233 0.46193 0.0
C296 C 0.13726 0.11022 0.46649 0.0
C297 C 0.08281 1.01795 0.55877 0.0
C298 C 0.06112 0.1133 0.59905 0.0
C299 C 0.97942 1.01121 0.6668 0.0
C300 C 0.94603 0.98349 0.67528 0.0
C301 C 0.94544 0.94748 0.66554 0.0
C302 C 0.91202 0.92233 0.66735 0.0
C303 C 0.87865 0.93276 0.67861 0.0
C304 C 0.87929 0.96846 0.68929 0.0
C305 C 0.91277 0.99362 0.68777 0.0
C306 C 0.95994 0.05417 0.54847 0.0
C307 C 0.994 0.98026 0.52279 0.0
O308 O 0.04857 0.1109 0.48909 0.0
O309 O 0.06668 0.06485 0.46304 0.0
O310 O 0.06624 1.03989 0.57579 0.0
O311 O 0.0827 1.02136 0.52177 0.0
O312 O 0.07038 0.10803 0.56261 0.0
O313 O 0.03762 0.08852 0.61836 0.0
O314 O 1.00824 1.00031 0.65144 0.0
O315 O 0.97273 1.0397 0.65021 0.0
O316 O 0.99275 0.06973 0.55539 0.0
O317 O 0.95076 1.02537 0.56861 0.0
O318 O 0.99956 0.9812 0.56042 0.0
O319 O 1.00123 1.01026 0.5027 0.0
H320 H 0.08372 0.16468 0.42931 0.0
H321 H 0.14571 0.20368 0.42105 0.0
H322 H 0.19691 0.12308 0.47106 0.0
H323 H 0.1353 0.08446 0.47987 0.0
H324 H 0.97048 0.93881 0.65537 0.0
H325 H 0.91209 0.89483 0.65928 0.0
H326 H 0.85393 0.97685 0.69893 0.0
H327 H 0.91244 1.02122 0.69517 0.0
Sm328 Sm 0.55201 0.04872 0.06443 0.0
Sm329 Sm 0.48219 1.04224 1.03994 0.0
C330 C 0.61838 0.06579 0.096 0.0
C331 C 0.63024 0.08665 0.13052 0.0
C332 C 0.61388 0.11582 0.14087 0.0
C333 C 0.62237 0.13358 0.17573 0.0
C334 C 0.6475 0.1225 0.20023 0.0
C335 C 0.66368 0.09322 0.19023 0.0
C336 C 0.65484 0.07515 0.15548 0.0
C337 C 0.50657 0.98654 0.09296 0.0
C338 C 0.49733 0.0925 0.11019 0.0
C339 C 0.41449 1.02319 1.01196 0.0
C340 C 0.40313 1.01742 0.97216 0.0
C341 C 0.37068 0.9925 0.96354 0.0
C342 C 0.36311 0.98244 0.92538 0.0
C343 C 0.38798 0.99732 0.89577 0.0
C344 C 0.41965 1.02339 0.90424 0.0
C345 C 0.42739 1.03323 0.94242 0.0
C346 C 0.52626 0.10443 1.00944 0.0
C347 C 0.53912 1.00067 0.99137 0.0
O348 O 0.6086 0.08324 0.06725 0.0
O349 O 0.59509 1.03586 0.10263 0.0
O350 O 0.49814 1.01718 0.09388 0.0
O351 O 0.53807 0.98792 0.07465 0.0
O352 O 0.53147 0.09483 0.09642 0.0
O353 O 0.47143 0.06576 0.09881 0.0
O354 O 0.43333 1.00021 1.02442 0.0
O355 O 0.4293 0.05609 1.02131 0.0
O356 O 0.53596 0.07429 1.01014 0.0
O357 O 0.49352 0.10188 1.02524 0.0
O358 O 0.50396 0.99977 1.00165 0.0
O359 O 0.56539 1.02413 1.00766 0.0
H360 H 0.59467 0.125 0.12207 0.0
H361 H 0.61025 0.15655 0.18306 0.0
H362 H 0.68347 0.08479 0.20905 0.0
H363 H 0.66703 0.05222 0.14813 0.0
H364 H 0.35209 0.97986 0.98634 0.0
H365 H 0.33838 0.9624 0.91898 0.0
H366 H 0.43904 1.03495 0.88156 0.0
H367 H 0.45301 0.05209 0.94885 0.0
Sm368 Sm 0.51913 0.51579 0.52722 0.0
Sm369 Sm 0.52334 0.58438 0.58369 0.0
C370 C 0.54242 0.4678 0.4847 0.0
C371 C 0.57627 0.45577 0.49521 0.0
C372 C 0.60414 0.48036 0.51424 0.0
C373 C 0.63044 0.46865 0.53635 0.0
C374 C 0.6292 0.43207 0.53975 0.0
C375 C 0.60247 0.4074 0.51932 0.0
C376 C 0.57602 0.4192 0.49722 0.0
C377 C 0.45093 0.5125 0.5658 0.0
C378 C 0.55339 0.5149 0.61711 0.0
C379 C 0.50229 0.63059 0.63123 0.0
C380 C 0.46906 0.64587 0.62768 0.0
C381 C 0.43645 0.62458 0.61251 0.0
C382 C 0.40907 0.64049 0.59718 0.0
C383 C 0.4143 0.67777 0.59639 0.0
C384 C 0.4457 0.69898 0.61366 0.0
C385 C 0.47293 0.68306 0.62941 0.0
C386 C 0.59084 0.58954 0.54305 0.0
C387 C 0.48992 0.58527 0.49379 0.0
O388 O 0.54727 0.50119 0.47359 0.0
O389 O 0.51534 0.45912 0.51034 0.0
O390 O 0.4803 0.53625 0.56859 0.0
O391 O 0.45658 0.48968 0.53933 0.0
O392 O 0.54872 0.49986 0.58215 0.0
O393 O 0.5439 0.54598 0.62499 0.0
O394 O 0.49645 0.59635 0.63898 0.0
O395 O 0.52694 0.64013 0.60337 0.0
O396 O 0.56236 0.56441 0.54194 0.0
O397 O 0.58398 0.61329 0.5678 0.0
O398 O 0.4912 0.59854 0.52972 0.0
O399 O 0.50226 0.55571 0.48482 0.0
H400 H 0.60375 0.50856 0.51441 0.0
H401 H 0.65082 0.48801 0.55187 0.0
H402 H 0.60166 0.37895 0.52108 0.0
H403 H 0.55407 0.3998 0.48379 0.0
H404 H 0.43329 0.59582 0.60993 0.0
H405 H 0.38491 0.62382 0.58402 0.0
H406 H 0.44974 0.72787 0.61371 0.0
H407 H 0.49824 0.69983 0.64027 0.0
Sm408 Sm 0.01943 0.51408 0.07923 0.0
Sm409 Sm 0.01693 0.58053 1.03619 0.0
C410 C 0.04168 0.45982 0.11155 0.0
C411 C 0.07878 0.45204 0.12017 0.0
C412 C 0.10215 0.4426 0.09064 0.0
C413 C 0.13738 0.436 0.09899 0.0
C414 C 0.15012 0.43896 0.13698 0.0
C415 C 0.12688 0.44843 0.16654 0.0
C416 C 0.09151 0.45478 0.15823 0.0
C417 C 0.98101 0.5592 0.11945 0.0
C418 C 0.09199 0.58341 0.08517 0.0
C419 C 0.98889 0.63692 1.01974 0.0
C420 C 0.95747 0.64378 0.99697 0.0
C421 C 0.92191 0.62125 1.00013 0.0
C422 C 0.89083 0.63096 0.98394 0.0
C423 C 0.89466 0.66318 0.96388 0.0
C424 C 0.93073 0.68421 0.95811 0.0
C425 C 0.96181 0.67476 0.97488 0.0
C426 C 0.04857 0.5387 0.98394 0.0
C427 C 0.94898 0.50874 1.02263 0.0
O428 O 0.03276 0.45992 0.07527 0.0
O429 O 0.03168 0.48578 0.13142 0.0
O430 O 1.01144 0.56864 0.10036 0.0
O431 O 0.96952 0.52476 0.11649 0.0
O432 O 0.07838 0.54901 0.09111 0.0
O433 O 0.07314 0.60298 0.06536 0.0
O434 O 0.97914 0.6171 1.05007 0.0
O435 O 0.01825 0.62964 1.00125 0.0
O436 O 0.03809 0.52969 1.01831 0.0
O437 O 0.04424 0.571 0.97761 0.0
O438 O 0.96128 0.54342 1.01838 0.0
O439 O 0.96707 0.48982 1.04405 0.0
H440 H 0.09337 0.44036 0.06102 0.0
H441 H 0.15479 0.42871 0.07571 0.0
H442 H 0.13579 0.45025 0.19621 0.0
H443 H 0.0741 0.46186 0.18162 0.0
H444 H 0.91771 0.59686 1.0166 0.0
H445 H 0.86354 0.61401 0.98868 0.0
H446 H 0.93482 0.70849 0.94148 0.0
H447 H 0.98901 0.69227 0.97168 0.0
C448 C 0.25556 0.24601 0.44085 0.0
C449 C 0.27996 0.23477 0.41348 0.0
C450 C 0.22233 0.22311 0.45254 0.0
C451 C 0.21281 0.18819 0.43758 0.0
H452 H 0.26132 0.27323 0.45186 0.0
H453 H 0.20338 0.2331 0.47238 0.0
S454 S 0.26699 0.14525 0.36616 0.0
N455 N 0.29216 0.18592 0.37226 0.0
N456 N 0.23026 0.14278 0.39537 0.0
C457 C 0.23769 0.17594 0.41185 0.0
C458 C 0.27123 0.19925 0.39956 0.0
C459 C 0.36217 0.99382 0.79133 0.0
C460 C 0.35905 0.95734 0.78238 0.0
C461 C 0.37357 1.00721 0.8278 0.0
C462 C 0.38147 0.98427 0.85622 0.0
H463 H 0.35435 1.01171 0.77052 0.0
H464 H 0.37442 1.03517 0.83444 0.0
S465 S 0.38015 0.88743 0.8463 0.0
N466 N 0.36683 0.89905 0.80399 0.0
N467 N 0.38826 0.92442 0.87271 0.0
C468 C 0.38025 0.94822 0.84707 0.0
C469 C 0.36903 0.93466 0.80997 0.0
C470 C 0.58929 0.44288 0.675 0.0
C471 C 0.59968 0.45979 0.71082 0.0
C472 C 0.57499 0.46073 0.64488 0.0
C473 C 0.56977 0.49633 0.64911 0.0
H474 H 0.5927 0.41567 0.66992 0.0
H475 H 0.56775 0.44629 0.6181 0.0
S476 S 0.59155 0.55256 0.73761 0.0
N477 N 0.60275 0.51427 0.74866 0.0
N478 N 0.57646 0.54752 0.693 0.0
C479 C 0.57995 0.51339 0.68495 0.0
C480 C 0.59467 0.49531 0.71537 0.0
C481 C 0.93268 0.58248 0.21321 0.0
C482 C 0.94066 0.62024 0.21522 0.0
C483 C 0.94543 0.56346 0.18218 0.0
C484 C 0.96763 0.58094 0.15163 0.0
H485 H 0.91658 0.56718 0.2361 0.0
H486 H 0.93817 0.53454 0.18257 0.0
S487 S 0.99627 0.67939 0.14153 0.0
N488 N 0.97117 0.67436 0.18201 0.0
N489 N 0.99729 0.63861 0.12565 0.0
C490 C 0.97642 0.61862 0.15335 0.0
C491 C 0.96253 0.63816 0.18452 0.0
C492 C 0.44244 0.1473 0.17215 0.0
C493 C 0.46018 0.18268 0.1637 0.0
C494 C 0.45511 0.11814 0.15542 0.0
C495 C 0.48653 0.12335 0.13042 0.0
H496 H 0.41819 0.14217 0.1914 0.0
H497 H 0.44013 0.09135 0.16198 0.0
S498 S 0.5427 0.21085 0.09902 0.0
N499 N 0.51043 0.22139 0.12864 0.0
N500 N 0.53482 0.16675 0.09761 0.0
C501 C 0.50479 0.15867 0.12211 0.0
C502 C 0.49142 0.1883 0.13859 0.0
C503 C 0.07666 0.93314 0.61492 0.0
C504 C 0.10927 0.92209 0.60262 0.0
C505 C 0.069 0.96518 0.60171 0.0
C506 C 0.09373 0.98722 0.57649 0.0
H507 H 0.05691 0.91679 0.63437 0.0
H508 H 0.04283 0.97169 0.60992 0.0
S509 S 0.18465 0.97138 0.53883 0.0
N510 N 0.16797 0.93639 0.56596 0.0
N511 N 0.15282 0.99657 0.54093 0.0
C512 C 0.12677 0.9767 0.56463 0.0
C513 C 0.13475 0.94416 0.57792 0.0
C514 C 0.85502 0.44692 0.99885 0.0
C515 C 0.84633 0.4586 0.96223 0.0
C516 C 0.88831 0.46257 1.01794 0.0
C517 C 0.91429 0.49115 1.00173 0.0
H518 H 0.83567 0.42572 1.01332 0.0
H519 H 0.89331 0.4527 1.04603 0.0
S520 S 0.90763 0.52999 0.90529 0.0
N521 N 0.86911 0.49897 0.90944 0.0
N522 N 0.93008 0.52918 0.9459 0.0
C523 C 0.90632 0.50287 0.96509 0.0
C524 C 0.87287 0.48652 0.94531 0.0
C525 C 0.68496 0.59135 0.49126 0.0
C526 C 0.69034 0.62368 0.47074 0.0
C527 C 0.6518 0.57891 0.51315 0.0
C528 C 0.62234 0.59775 0.51433 0.0
H529 H 0.70736 0.57662 0.49214 0.0
H530 H 0.6503 0.55572 0.53101 0.0
S531 S 0.62124 0.68236 0.46382 0.0
N532 N 0.66239 0.67321 0.45192 0.0
N533 N 0.60038 0.6496 0.49207 0.0
C534 C 0.62692 0.62926 0.49279 0.0
C535 C 0.66066 0.64217 0.47113 0.0
C536 C 0.22825 0.3875 0.14472 0.0
C537 C 0.25437 0.40995 0.16805 0.0
C538 C 0.19518 0.39763 0.1338 0.0
C539 C 0.18682 0.43045 0.14603 0.0
H540 H 0.23249 0.36118 0.13625 0.0
H541 H 0.17529 0.37899 0.11693 0.0
S542 S 0.24792 0.50099 0.20298 0.0
N543 N 0.2713 0.46826 0.19953 0.0
N544 N 0.20866 0.4868 0.17965 0.0
C545 C 0.21333 0.45385 0.16788 0.0
C546 C 0.24721 0.44374 0.17869 0.0
C547 C 0.6011 0.1733 0.95522 0.0
C548 C 0.58273 0.20192 0.94882 0.0
C549 C 0.58291 0.14165 0.97416 0.0
C550 C 0.54567 0.13737 0.98808 0.0
H551 H 0.62978 0.17527 0.94527 0.0
H552 H 0.5983 0.1206 0.97831 0.0
S553 S 0.48567 0.20499 0.98094 0.0
N554 N 0.52542 0.22394 0.95957 0.0
N555 N 0.49159 0.16544 0.9948 0.0
C556 C 0.52727 0.16602 0.98225 0.0
C557 C 0.5456 0.1979 0.96276 0.0
C558 C 0.95859 0.90976 0.44438 0.0
C559 C 0.95148 0.87726 0.46458 0.0
C560 C 0.97218 0.9428 0.46322 0.0
C561 C 0.97952 0.94486 0.5031 0.0
H562 H 0.95278 0.90977 0.41391 0.0
H563 H 0.97672 0.96693 0.44631 0.0
S564 S 0.96854 0.86702 0.56857 0.0
N565 N 0.95502 0.84916 0.52631 0.0
N566 N 0.98017 0.91049 0.56155 0.0
C567 C 0.97332 0.91232 0.52335 0.0
C568 C 0.95946 0.87885 0.5042 0.0
C569 C 0.37707 0.741 0.53316 0.0
C570 C 0.34057 0.73857 0.54823 0.0
C571 C 0.40045 0.71978 0.54761 0.0
C572 C 0.38763 0.69493 0.57675 0.0
H573 H 0.38868 0.76166 0.51272 0.0
H574 H 0.42924 0.72399 0.5373 0.0
S575 S 0.29308 0.67427 0.62177 0.0
N576 N 0.29163 0.7066 0.59119 0.0
N577 N 0.33553 0.6658 0.61696 0.0
C578 C 0.3502 0.68947 0.58907 0.0
C579 C 0.32651 0.71141 0.57491 0.0
C580 C 0.80878 0.85186 0.71173 0.0
C581 C 0.77494 0.85744 0.69667 0.0
C582 C 0.8425 0.87562 0.70424 0.0
C583 C 0.84357 0.90593 0.68165 0.0
H584 H 0.80901 0.8302 0.73144 0.0
H585 H 0.86757 0.87123 0.71789 0.0
S586 S 0.7641 0.93003 0.63087 0.0
N587 N 0.74537 0.89338 0.65461 0.0
N588 N 0.8091 0.93849 0.64083 0.0
C589 C 0.8105 0.91085 0.66455 0.0
C590 C 0.77609 0.88648 0.67198 0.0
C591 C 0.65201 0.16321 0.29993 0.0
C592 C 0.68854 0.18389 0.29965 0.0
C593 C 0.63811 0.14367 0.26709 0.0
C594 C 0.66068 0.14436 0.23373 0.0
H595 H 0.6349 0.16081 0.32606 0.0
H596 H 0.61027 0.12708 0.26813 0.0
S597 S 0.75625 0.19714 0.21733 0.0
N598 N 0.74543 0.2064 0.26231 0.0
N599 N 0.7194 0.16892 0.20093 0.0
C600 C 0.69637 0.1661 0.23258 0.0
C601 C 0.71031 0.18618 0.26556 0.0
C602 C 0.4751 0.62184 0.3935 0.0
C603 C 0.44398 0.63827 0.39888 0.0
C604 C 0.48946 0.60478 0.42407 0.0
C605 C 0.47414 0.6041 0.46192 0.0
H606 H 0.48808 0.62151 0.36514 0.0
H607 H 0.51309 0.59226 0.41799 0.0
S608 S 0.3924 0.64299 0.49173 0.0
N609 N 0.39821 0.65231 0.44541 0.0
N610 N 0.42562 0.62138 0.50258 0.0
C611 C 0.44335 0.62083 0.46781 0.0
C612 C 0.4282 0.6375 0.43649 0.0
C613 C 0.0927 0.51408 0.88849 0.0
C614 C 0.09656 0.47836 0.89278 0.0
C615 C 0.0773 0.53274 0.91804 0.0
C616 C 0.06496 0.51696 0.95382 0.0
H617 H 0.10133 0.52782 0.86171 0.0
H618 H 0.07509 0.56007 0.9126 0.0
S619 S 0.06874 0.42407 0.98058 0.0
N620 N 0.08678 0.42796 0.93638 0.0
N621 N 0.05766 0.46294 0.99158 0.0
C622 C 0.0685 0.48122 0.95867 0.0
C623 C 0.08418 0.46203 0.92835 0.0
C624 C 0.59813 0.93654 0.95295 0.0
C625 C 0.57209 0.90972 0.93463 0.0
C626 C 0.58742 0.96673 0.96923 0.0
C627 C 0.55005 0.97123 0.96834 0.0
H628 H 0.62713 0.93416 0.95474 0.0
H629 H 0.6086 0.98609 0.98376 0.0
S630 S 0.47139 0.90941 0.92187 0.0
N631 N 0.50766 0.8901 0.91486 0.0
N632 N 0.48727 0.94688 0.94591 0.0
C633 C 0.52386 0.94505 0.94913 0.0
C634 C 0.53494 0.91433 0.93217 0.0
C635 C 0.92314 0.12856 0.50532 0.0
C636 C 0.89009 0.12768 0.52691 0.0
C637 C 0.94438 0.10259 0.51053 0.0
C638 C 0.93295 0.07517 0.53733 0.0
H639 H 0.93256 0.14941 0.48441 0.0
H640 H 0.97049 0.10457 0.49441 0.0
S641 S 0.84845 0.06205 0.60106 0.0
N642 N 0.84661 0.09789 0.57578 0.0
N643 N 0.88661 0.04871 0.58573 0.0
C644 C 0.89941 0.07361 0.55843 0.0
C645 C 0.87796 0.10015 0.55325 0.0
C646 C 0.17263 0.60205 0.15656 0.0
C647 C 0.19625 0.63351 0.14282 0.0
C648 C 0.1397 0.58588 0.13738 0.0
C649 C 0.12824 0.60052 0.10368 0.0
H650 H 0.17914 0.59003 0.18293 0.0
H651 H 0.12259 0.56203 0.14972 0.0
S652 S 0.18111 0.6805 0.05309 0.0
N653 N 0.20676 0.67679 0.09082 0.0
N654 N 0.14429 0.64743 0.05627 0.0
C655 C 0.15165 0.63161 0.08922 0.0
C656 C 0.18563 0.64778 0.10833 0.0
C657 C 0.3811 0.49749 0.65049 0.0
C658 C 0.34684 0.48444 0.632 0.0
C659 C 0.41468 0.50958 0.6291 0.0
C660 C 0.4152 0.50891 0.58848 0.0
H661 H 0.38236 0.49657 0.68161 0.0
H662 H 0.44068 0.51728 0.64439 0.0
S663 S 0.33258 0.4834 0.52629 0.0
N664 N 0.31529 0.47663 0.57057 0.0
N665 N 0.37805 0.49804 0.53089 0.0
C666 C 0.38089 0.49818 0.56989 0.0
C667 C 0.34686 0.48633 0.59146 0.0
C668 C 0.79891 0.66204 0.92195 0.0
C669 C 0.794 0.69731 0.92831 0.0
C670 C 0.8316 0.65131 0.93314 0.0
C671 C 0.86077 0.67545 0.951 0.0
H672 H 0.77729 0.64257 0.90817 0.0
H673 H 0.83418 0.62394 0.92744 0.0
S674 S 0.86178 0.77087 0.97416 0.0
N675 N 0.8214 0.75653 0.95295 0.0
N676 N 0.88209 0.73605 0.9754 0.0
C677 C 0.85609 0.71074 0.95774 0.0
C678 C 0.82289 0.7217 0.94616 0.0
C679 C 0.48892 0.89443 0.13985 0.0
C680 C 0.45224 0.88984 0.15529 0.0
C681 C 0.50582 0.92561 0.11991 0.0
C682 C 0.48718 0.95412 0.11477 0.0
H683 H 0.50457 0.87336 0.14245 0.0
H684 H 0.53396 0.9273 0.10841 0.0
S685 S 0.39096 0.95643 0.15001 0.0
N686 N 0.39792 0.91728 0.1643 0.0
N687 N 0.42981 0.97568 0.12707 0.0
C688 C 0.45064 0.9502 0.1303 0.0
C689 C 0.43318 0.9182 0.15037 0.0
C690 C 0.10712 0.21199 0.6139 0.0
C691 C 0.10201 0.21819 0.65374 0.0
C692 C 0.09455 0.17812 0.59673 0.0
C693 C 0.07609 0.14863 0.61847 0.0
H694 H 0.12066 0.23369 0.59556 0.0
H695 H 0.09895 0.17525 0.56595 0.0
S696 S 0.05715 0.14973 0.72428 0.0
N697 N 0.07842 0.19113 0.71466 0.0
N698 N 0.05427 0.12798 0.68262 0.0
C699 C 0.07097 0.15436 0.65841 0.0
C700 C 0.08393 0.18887 0.6759 0.0
C701 C 0.66863 0.3695 0.6002 0.0
C702 C 0.70473 0.37371 0.58355 0.0
C703 C 0.64469 0.39172 0.58937 0.0
C704 C 0.65687 0.41911 0.56272 0.0
H705 H 0.65696 0.34566 0.61637 0.0
H706 H 0.61552 0.38501 0.59844 0.0
S707 S 0.75267 0.44841 0.52236 0.0
N708 N 0.75446 0.41264 0.54776 0.0
N709 N 0.70953 0.45496 0.52806 0.0
C710 C 0.69489 0.42782 0.55224 0.0
C711 C 0.71914 0.40505 0.56301 0.0
loop_
_geom_bond_atom_site_label_1
_geom_bond_atom_site_label_2
_geom_bond_distance
_geom_bond_site_symmetry_2
_ccdc_geom_bond_type
C0 C1 1.384 . S
C0 H13 0.947 . S
C0 C35 1.382 . S
C1 C0 1.384 . S
C1 C2 1.378 . S
C2 C1 1.378 . S
C2 C3 1.378 . S
C2 H14 0.952 . S
C3 C2 1.378 . S
C3 H15 0.950 . S
C3 C34 1.383 . S
H4 C23 0.947 . S
H5 C24 0.946 . S
H6 C26 0.953 . S
H7 C27 0.945 . S
H8 C29 0.952 . S
H9 C30 0.949 . S
H10 C32 0.950 . S
H11 C33 0.948 . S
H12 C35 0.951 . S
H13 C0 0.947 . S
H14 C2 0.952 . S
H15 C3 0.950 . S
N16 C19 1.382 . S
N16 C21 1.363 . S
N17 C19 1.371 . S
N17 C20 1.372 . S
N18 C20 1.361 . S
N18 C21 1.377 . S
C19 N16 1.382 . S
C19 N17 1.371 . S
C19 C22 1.480 . S
C20 N17 1.372 . S
C20 N18 1.361 . S
C20 C28 1.457 . S
C21 N16 1.363 . S
C21 N18 1.377 . S
C21 C34 1.479 . S
C22 C19 1.480 . S
C22 C23 1.383 . S
C22 C27 1.385 . S
C23 H4 0.947 . S
C23 C22 1.383 . S
C23 C24 1.388 . S
C24 H5 0.946 . S
C24 C23 1.388 . S
C24 C25 1.384 . S
C25 C24 1.384 . S
C25 C26 1.377 . S
C26 H6 0.953 . S
C26 C25 1.377 . S
C26 C27 1.369 . S
C27 H7 0.945 . S
C27 C22 1.385 . S
C27 C26 1.369 . S
C28 C20 1.457 . S
C28 C29 1.372 . S
C28 C33 1.364 . S
C29 H8 0.952 . S
C29 C28 1.372 . S
C29 C30 1.389 . S
C30 H9 0.949 . S
C30 C29 1.389 . S
C30 C31 1.387 . S
C31 C30 1.387 . S
C31 C32 1.372 . S
C32 H10 0.950 . S
C32 C31 1.372 . S
C32 C33 1.379 . S
C33 H11 0.948 . S
C33 C28 1.364 . S
C33 C32 1.379 . S
C34 C3 1.383 . S
C34 C21 1.479 . S
C34 C35 1.398 . S
C35 C0 1.382 . S
C35 H12 0.951 . S
C35 C34 1.398 . S
C36 C37 1.384 . S
C36 H49 0.947 . S
C36 C71 1.382 . S
C37 C36 1.384 . S
C37 C38 1.378 . S
C38 C37 1.378 . S
C38 C39 1.378 . S
C38 H50 0.952 . S
C39 C38 1.378 . S
C39 H51 0.950 . S
C39 C70 1.383 . S
H40 C59 0.947 . S
H41 C60 0.946 . S
H42 C62 0.953 . S
H43 C63 0.945 . S
H44 C65 0.952 . S
H45 C66 0.949 . S
H46 C68 0.950 . S
H47 C69 0.948 . S
H48 C71 0.951 . S
H49 C36 0.947 . S
H50 C38 0.952 . S
H51 C39 0.950 . S
N52 C55 1.382 . S
N52 C57 1.363 . S
N53 C55 1.371 . S
N53 C56 1.372 . S
N54 C56 1.361 . S
N54 C57 1.377 . S
C55 N52 1.382 . S
C55 N53 1.371 . S
C55 C58 1.480 . S
C56 N53 1.372 . S
C56 N54 1.361 . S
C56 C64 1.457 . S
C57 N52 1.363 . S
C57 N54 1.377 . S
C57 C70 1.479 . S
C58 C55 1.480 . S
C58 C59 1.383 . S
C58 C63 1.385 . S
C59 H40 0.947 . S
C59 C58 1.383 . S
C59 C60 1.388 . S
C60 H41 0.946 . S
C60 C59 1.388 . S
C60 C61 1.384 . S
C61 C60 1.384 . S
C61 C62 1.377 . S
C62 H42 0.953 . S
C62 C61 1.377 . S
C62 C63 1.369 . S
C63 H43 0.945 . S
C63 C58 1.385 . S
C63 C62 1.369 . S
C64 C56 1.457 . S
C64 C65 1.372 . S
C64 C69 1.364 . S
C65 H44 0.952 . S
C65 C64 1.372 . S
C65 C66 1.389 . S
C66 H45 0.949 . S
C66 C65 1.389 . S
C66 C67 1.387 . S
C67 C66 1.387 . S
C67 C68 1.372 . S
C68 H46 0.950 . S
C68 C67 1.372 . S
C68 C69 1.379 . S
C69 H47 0.948 . S
C69 C64 1.364 . S
C69 C68 1.379 . S
C70 C39 1.383 . S
C70 C57 1.479 . S
C70 C71 1.398 . S
C71 C36 1.382 . S
C71 H48 0.951 . S
C71 C70 1.398 . S
C72 C73 1.384 . S
C72 H85 0.947 . S
C72 C107 1.382 . S
C73 C72 1.384 . S
C73 C74 1.378 . S
C74 C73 1.378 . S
C74 C75 1.378 . S
C74 H86 0.952 . S
C75 C74 1.378 . S
C75 H87 0.950 . S
C75 C106 1.383 . S
H76 C95 0.947 . S
H77 C96 0.946 . S
H78 C98 0.953 . S
H79 C99 0.945 . S
H80 C101 0.952 . S
H81 C102 0.949 . S
H82 C104 0.950 . S
H83 C105 0.948 . S
H84 C107 0.951 . S
H85 C72 0.947 . S
H86 C74 0.952 . S
H87 C75 0.950 . S
N88 C91 1.382 . S
N88 C93 1.363 . S
N89 C91 1.371 . S
N89 C92 1.372 . S
N90 C92 1.361 . S
N90 C93 1.377 . S
C91 N88 1.382 . S
C91 N89 1.371 . S
C91 C94 1.480 . S
C92 N89 1.372 . S
C92 N90 1.361 . S
C92 C100 1.457 . S
C93 N88 1.363 . S
C93 N90 1.377 . S
C93 C106 1.479 . S
C94 C91 1.480 . S
C94 C95 1.383 . S
C94 C99 1.385 . S
C95 H76 0.947 . S
C95 C94 1.383 . S
C95 C96 1.388 . S
C96 H77 0.946 . S
C96 C95 1.388 . S
C96 C97 1.384 . S
C97 C96 1.384 . S
C97 C98 1.377 . S
C98 H78 0.953 . S
C98 C97 1.377 . S
C98 C99 1.369 . S
C99 H79 0.945 . S
C99 C94 1.385 . S
C99 C98 1.369 . S
C100 C92 1.457 . S
C100 C101 1.372 . S
C100 C105 1.364 . S
C101 H80 0.952 . S
C101 C100 1.372 . S
C101 C102 1.389 . S
C102 H81 0.949 . S
C102 C101 1.389 . S
C102 C103 1.387 . S
C103 C102 1.387 . S
C103 C104 1.372 . S
C104 H82 0.950 . S
C104 C103 1.372 . S
C104 C105 1.379 . S
C105 H83 0.948 . S
C105 C100 1.364 . S
C105 C104 1.379 . S
C106 C75 1.383 . S
C106 C93 1.479 . S
C106 C107 1.398 . S
C107 C72 1.382 . S
C107 H84 0.951 . S
C107 C106 1.398 . S
C108 C109 1.384 . S
C108 H121 0.947 . S
C108 C143 1.382 . S
C109 C108 1.384 . S
C109 C110 1.378 . S
C110 C109 1.378 . S
C110 C111 1.378 . S
C110 H122 0.952 . S
C111 C110 1.378 . S
C111 H123 0.950 . S
C111 C142 1.383 . S
H112 C131 0.947 . S
H113 C132 0.946 . S
H114 C134 0.953 . S
H115 C135 0.945 . S
H116 C137 0.952 . S
H117 C138 0.949 . S
H118 C140 0.950 . S
H119 C141 0.948 . S
H120 C143 0.951 . S
H121 C108 0.947 . S
H122 C110 0.952 . S
H123 C111 0.950 . S
N124 C127 1.382 . S
N124 C129 1.363 . S
N125 C127 1.371 . S
N125 C128 1.372 . S
N126 C128 1.361 . S
N126 C129 1.377 . S
C127 N124 1.382 . S
C127 N125 1.371 . S
C127 C130 1.480 . S
C128 N125 1.372 . S
C128 N126 1.361 . S
C128 C136 1.457 . S
C129 N124 1.363 . S
C129 N126 1.377 . S
C129 C142 1.479 . S
C130 C127 1.480 . S
C130 C131 1.383 . S
C130 C135 1.385 . S
C131 H112 0.947 . S
C131 C130 1.383 . S
C131 C132 1.388 . S
C132 H113 0.946 . S
C132 C131 1.388 . S
C132 C133 1.384 . S
C133 C132 1.384 . S
C133 C134 1.377 . S
C134 H114 0.953 . S
C134 C133 1.377 . S
C134 C135 1.369 . S
C135 H115 0.945 . S
C135 C130 1.385 . S
C135 C134 1.369 . S
C136 C128 1.457 . S
C136 C137 1.372 . S
C136 C141 1.364 . S
C137 H116 0.952 . S
C137 C136 1.372 . S
C137 C138 1.389 . S
C138 H117 0.949 . S
C138 C137 1.389 . S
C138 C139 1.387 . S
C139 C138 1.387 . S
C139 C140 1.372 . S
C140 H118 0.950 . S
C140 C139 1.372 . S
C140 C141 1.379 . S
C141 H119 0.948 . S
C141 C136 1.364 . S
C141 C140 1.379 . S
C142 C111 1.383 . S
C142 C129 1.479 . S
C142 C143 1.398 . S
C143 C108 1.382 . S
C143 H120 0.951 . S
C143 C142 1.398 . S
C144 C145 1.384 . S
C144 H157 0.947 . S
C144 C179 1.382 . S
C145 C144 1.384 . S
C145 C146 1.378 . S
C146 C145 1.378 . S
C146 C147 1.378 . S
C146 H158 0.952 . S
C147 C146 1.378 . S
C147 H159 0.950 . S
C147 C178 1.383 . S
H148 C167 0.947 . S
H149 C168 0.946 . S
H150 C170 0.953 . S
H151 C171 0.945 . S
H152 C173 0.952 . S
H153 C174 0.949 . S
H154 C176 0.950 . S
H155 C177 0.948 . S
H156 C179 0.951 . S
H157 C144 0.947 . S
H158 C146 0.952 . S
H159 C147 0.950 . S
N160 C163 1.382 . S
N160 C165 1.363 . S
N161 C163 1.371 . S
N161 C164 1.372 . S
N162 C164 1.361 . S
N162 C165 1.377 . S
C163 N160 1.382 . S
C163 N161 1.371 . S
C163 C166 1.480 . S
C164 N161 1.372 . S
C164 N162 1.361 . S
C164 C172 1.457 . S
C165 N160 1.363 . S
C165 N162 1.377 . S
C165 C178 1.479 . S
C166 C163 1.480 . S
C166 C167 1.383 . S
C166 C171 1.385 . S
C167 H148 0.947 . S
C167 C166 1.383 . S
C167 C168 1.388 . S
C168 H149 0.946 . S
C168 C167 1.388 . S
C168 C169 1.384 . S
C169 C168 1.384 . S
C169 C170 1.377 . S
C170 H150 0.953 . S
C170 C169 1.377 . S
C170 C171 1.369 . S
C171 H151 0.945 . S
C171 C166 1.385 . S
C171 C170 1.369 . S
C172 C164 1.457 . S
C172 C173 1.372 . S
C172 C177 1.364 . S
C173 H152 0.952 . S
C173 C172 1.372 . S
C173 C174 1.389 . S
C174 H153 0.949 . S
C174 C173 1.389 . S
C174 C175 1.387 . S
C175 C174 1.387 . S
C175 C176 1.372 . S
C176 H154 0.950 . S
C176 C175 1.372 . S
C176 C177 1.379 . S
C177 H155 0.948 . S
C177 C172 1.364 . S
C177 C176 1.379 . S
C178 C147 1.383 . S
C178 C165 1.479 . S
C178 C179 1.398 . S
C179 C144 1.382 . S
C179 H156 0.951 . S
C179 C178 1.398 . S
C180 C181 1.384 . S
C180 H193 0.947 . S
C180 C215 1.382 . S
C181 C180 1.384 . S
C181 C182 1.378 . S
C182 C181 1.378 . S
C182 C183 1.378 . S
C182 H194 0.952 . S
C183 C182 1.378 . S
C183 H195 0.950 . S
C183 C214 1.383 . S
H184 C203 0.947 . S
H185 C204 0.946 . S
H186 C206 0.953 . S
H187 C207 0.945 . S
H188 C209 0.952 . S
H189 C210 0.949 . S
H190 C212 0.950 . S
H191 C213 0.948 . S
H192 C215 0.951 . S
H193 C180 0.947 . S
H194 C182 0.952 . S
H195 C183 0.950 . S
N196 C199 1.382 . S
N196 C201 1.363 . S
N197 C199 1.371 . S
N197 C200 1.372 . S
N198 C200 1.361 . S
N198 C201 1.377 . S
C199 N196 1.382 . S
C199 N197 1.371 . S
C199 C202 1.480 . S
C200 N197 1.372 . S
C200 N198 1.361 . S
C200 C208 1.457 . S
C201 N196 1.363 . S
C201 N198 1.377 . S
C201 C214 1.479 . S
C202 C199 1.480 . S
C202 C203 1.383 . S
C202 C207 1.385 . S
C203 H184 0.947 . S
C203 C202 1.383 . S
C203 C204 1.388 . S
C204 H185 0.946 . S
C204 C203 1.388 . S
C204 C205 1.384 . S
C205 C204 1.384 . S
C205 C206 1.377 . S
C206 H186 0.953 . S
C206 C205 1.377 . S
C206 C207 1.369 . S
C207 H187 0.945 . S
C207 C202 1.385 . S
C207 C206 1.369 . S
C208 C200 1.457 . S
C208 C209 1.372 . S
C208 C213 1.364 . S
C209 H188 0.952 . S
C209 C208 1.372 . S
C209 C210 1.389 . S
C210 H189 0.949 . S
C210 C209 1.389 . S
C210 C211 1.387 . S
C211 C210 1.387 . S
C211 C212 1.372 . S
C212 H190 0.950 . S
C212 C211 1.372 . S
C212 C213 1.379 . S
C213 H191 0.948 . S
C213 C208 1.364 . S
C213 C212 1.379 . S
C214 C183 1.383 . S
C214 C201 1.479 . S
C214 C215 1.398 . S
C215 C180 1.382 . S
C215 H192 0.951 . S
C215 C214 1.398 . S
C216 C217 1.384 . S
C216 H229 0.947 . S
C216 C251 1.382 . S
C217 C216 1.384 . S
C217 C218 1.378 . S
C218 C217 1.378 . S
C218 C219 1.378 . S
C218 H230 0.952 . S
C219 C218 1.378 . S
C219 H231 0.950 . S
C219 C250 1.383 . S
H220 C239 0.947 . S
H221 C240 0.946 . S
H222 C242 0.953 . S
H223 C243 0.945 . S
H224 C245 0.952 . S
H225 C246 0.949 . S
H226 C248 0.950 . S
H227 C249 0.948 . S
H228 C251 0.951 . S
H229 C216 0.947 . S
H230 C218 0.952 . S
H231 C219 0.950 . S
N232 C235 1.382 . S
N232 C237 1.363 . S
N233 C235 1.371 . S
N233 C236 1.372 . S
N234 C236 1.361 . S
N234 C237 1.377 . S
C235 N232 1.382 . S
C235 N233 1.371 . S
C235 C238 1.480 . S
C236 N233 1.372 . S
C236 N234 1.361 . S
C236 C244 1.457 . S
C237 N232 1.363 . S
C237 N234 1.377 . S
C237 C250 1.479 . S
C238 C235 1.480 . S
C238 C239 1.383 . S
C238 C243 1.385 . S
C239 H220 0.947 . S
C239 C238 1.383 . S
C239 C240 1.388 . S
C240 H221 0.946 . S
C240 C239 1.388 . S
C240 C241 1.384 . S
C241 C240 1.384 . S
C241 C242 1.377 . S
C242 H222 0.953 . S
C242 C241 1.377 . S
C242 C243 1.369 . S
C243 H223 0.945 . S
C243 C238 1.385 . S
C243 C242 1.369 . S
C244 C236 1.457 . S
C244 C245 1.372 . S
C244 C249 1.364 . S
C245 H224 0.952 . S
C245 C244 1.372 . S
C245 C246 1.389 . S
C246 H225 0.949 . S
C246 C245 1.389 . S
C246 C247 1.387 . S
C247 C246 1.387 . S
C247 C248 1.372 . S
C248 H226 0.950 . S
C248 C247 1.372 . S
C248 C249 1.379 . S
C249 H227 0.948 . S
C249 C244 1.364 . S
C249 C248 1.379 . S
C250 C219 1.383 . S
C250 C237 1.479 . S
C250 C251 1.398 . S
C251 C216 1.382 . S
C251 H228 0.951 . S
C251 C250 1.398 . S
C252 C253 1.384 . S
C252 H265 0.947 . S
C252 C287 1.382 . S
C253 C252 1.384 . S
C253 C254 1.378 . S
C254 C253 1.378 . S
C254 C255 1.378 . S
C254 H266 0.952 . S
C255 C254 1.378 . S
C255 H267 0.950 . S
C255 C286 1.383 . S
H256 C275 0.947 . S
H257 C276 0.946 . S
H258 C278 0.953 . S
H259 C279 0.945 . S
H260 C281 0.952 . S
H261 C282 0.949 . S
H262 C284 0.950 . S
H263 C285 0.948 . S
H264 C287 0.951 . S
H265 C252 0.947 . S
H266 C254 0.952 . S
H267 C255 0.950 . S
N268 C271 1.382 . S
N268 C273 1.363 . S
N269 C271 1.371 . S
N269 C272 1.372 . S
N270 C272 1.361 . S
N270 C273 1.377 . S
C271 N268 1.382 . S
C271 N269 1.371 . S
C271 C274 1.480 . S
C272 N269 1.372 . S
C272 N270 1.361 . S
C272 C280 1.457 . S
C273 N268 1.363 . S
C273 N270 1.377 . S
C273 C286 1.479 . S
C274 C271 1.480 . S
C274 C275 1.383 . S
C274 C279 1.385 . S
C275 H256 0.947 . S
C275 C274 1.383 . S
C275 C276 1.388 . S
C276 H257 0.946 . S
C276 C275 1.388 . S
C276 C277 1.384 . S
C277 C276 1.384 . S
C277 C278 1.377 . S
C278 H258 0.953 . S
C278 C277 1.377 . S
C278 C279 1.369 . S
C279 H259 0.945 . S
C279 C274 1.385 . S
C279 C278 1.369 . S
C280 C272 1.457 . S
C280 C281 1.372 . S
C280 C285 1.364 . S
C281 H260 0.952 . S
C281 C280 1.372 . S
C281 C282 1.389 . S
C282 H261 0.949 . S
C282 C281 1.389 . S
C282 C283 1.387 . S
C283 C282 1.387 . S
C283 C284 1.372 . S
C284 H262 0.950 . S
C284 C283 1.372 . S
C284 C285 1.379 . S
C285 H263 0.948 . S
C285 C280 1.364 . S
C285 C284 1.379 . S
C286 C255 1.383 . S
C286 C273 1.479 . S
C286 C287 1.398 . S
C287 C252 1.382 . S
C287 H264 0.951 . S
C287 C286 1.398 . S
Sm288 C290 2.846 . S
Sm288 O308 2.543 . S
Sm288 O309 2.450 . S
Sm288 O310 2.681 1_545 S
Sm288 O311 2.464 1_545 S
Sm288 O312 2.396 . S
Sm288 O316 2.386 1_455 S
Sm288 O319 2.408 1_445 S
Sm289 C299 2.846 . S
Sm289 O310 2.386 1_655 S
Sm289 O313 2.408 1_665 S
Sm289 O314 2.543 . S
Sm289 O315 2.450 . S
Sm289 O316 2.681 1_565 S
Sm289 O317 2.464 1_565 S
Sm289 O318 2.396 . S
C290 Sm288 2.846 . S
C290 C291 1.506 . S
C290 O308 1.261 . S
C290 O309 1.242 . S
C291 C290 1.506 . S
C291 C292 1.358 . S
C291 C296 1.382 . S
C292 C291 1.358 . S
C292 C293 1.385 . S
C292 H320 0.930 . S
C293 C292 1.385 . S
C293 C294 1.395 . S
C293 H321 0.929 . S
C294 C293 1.395 . S
C294 C295 1.335 . S
C295 C294 1.335 . S
C295 C296 1.398 . S
C295 H322 0.930 . S
C296 C291 1.382 . S
C296 C295 1.398 . S
C296 H323 0.929 . S
C297 O310 1.271 . S
C297 O311 1.251 . S
C298 O312 1.252 . S
C298 O313 1.272 . S
C299 Sm289 2.846 . S
C299 C300 1.506 . S
C299 O314 1.261 . S
C299 O315 1.242 . S
C300 C299 1.506 . S
C300 C301 1.358 . S
C300 C305 1.382 . S
C301 C300 1.358 . S
C301 C302 1.385 . S
C301 H324 0.930 . S
C302 C301 1.385 . S
C302 C303 1.395 . S
C302 H325 0.929 . S
C303 C302 1.395 . S
C303 C304 1.335 . S
C304 C303 1.335 . S
C304 C305 1.398 . S
C304 H326 0.930 . S
C305 C300 1.382 . S
C305 C304 1.398 . S
C305 H327 0.929 . S
C306 O316 1.271 . S
C306 O317 1.251 . S
C307 O318 1.252 . S
C307 O319 1.272 . S
O308 Sm288 2.543 . S
O308 C290 1.261 . S
O309 Sm288 2.450 . S
O309 C290 1.242 . S
O310 Sm288 2.681 1_565 S
O310 Sm289 2.386 1_455 S
O310 C297 1.271 . S
O311 Sm288 2.464 1_565 S
O311 C297 1.251 . S
O312 Sm288 2.396 . S
O312 C298 1.252 . S
O313 Sm289 2.408 1_445 S
O313 C298 1.272 . S
O314 Sm289 2.543 . S
O314 C299 1.261 . S
O315 Sm289 2.450 . S
O315 C299 1.242 . S
O316 Sm288 2.386 1_655 S
O316 Sm289 2.681 1_545 S
O316 C306 1.271 . S
O317 Sm289 2.464 1_545 S
O317 C306 1.251 . S
O318 Sm289 2.396 . S
O318 C307 1.252 . S
O319 Sm288 2.408 1_665 S
O319 C307 1.272 . S
H320 C292 0.930 . S
H321 C293 0.929 . S
H322 C295 0.930 . S
H323 C296 0.929 . S
H324 C301 0.930 . S
H325 C302 0.929 . S
H326 C304 0.930 . S
H327 C305 0.929 . S
Sm328 C330 2.846 1_565 S
Sm328 O348 2.543 1_565 S
Sm328 O349 2.450 1_565 S
Sm328 O350 2.681 . S
Sm328 O351 2.464 . S
Sm328 O352 2.396 1_565 S
Sm328 O356 2.386 1_564 S
Sm328 O359 2.408 1_554 S
Sm329 C339 2.846 1_545 S
Sm329 O350 2.386 1_546 S
Sm329 O353 2.408 1_556 S
Sm329 O354 2.543 1_545 S
Sm329 O355 2.450 1_545 S
Sm329 O356 2.681 . S
Sm329 O357 2.464 . S
Sm329 O358 2.396 1_545 S
C330 Sm328 2.846 1_545 S
C330 C331 1.506 . S
C330 O348 1.261 . S
C330 O349 1.242 . S
C331 C330 1.506 . S
C331 C332 1.358 . S
C331 C336 1.382 . S
C332 C331 1.358 . S
C332 C333 1.385 . S
C332 H360 0.930 . S
C333 C332 1.385 . S
C333 C334 1.395 . S
C333 H361 0.929 . S
C334 C333 1.395 . S
C334 C335 1.335 . S
C335 C334 1.335 . S
C335 C336 1.398 . S
C335 H362 0.930 . S
C336 C331 1.382 . S
C336 C335 1.398 . S
C336 H363 0.929 . S
C337 O350 1.271 . S
C337 O351 1.251 . S
C338 O352 1.252 . S
C338 O353 1.272 . S
C339 Sm329 2.846 1_565 S
C339 C340 1.506 . S
C339 O354 1.261 . S
C339 O355 1.242 . S
C340 C339 1.506 . S
C340 C341 1.358 . S
C340 C345 1.382 . S
C341 C340 1.358 . S
C341 C342 1.385 . S
C341 H364 0.930 . S
C342 C341 1.385 . S
C342 C343 1.395 . S
C342 H365 0.929 . S
C343 C342 1.395 . S
C343 C344 1.335 . S
C344 C343 1.335 . S
C344 C345 1.398 . S
C344 H366 0.930 . S
C345 C340 1.382 . S
C345 C344 1.398 . S
C345 H367 0.929 . S
C346 O356 1.271 . S
C346 O357 1.251 . S
C347 O358 1.252 . S
C347 O359 1.272 . S
O348 Sm328 2.543 1_545 S
O348 C330 1.261 . S
O349 Sm328 2.450 1_545 S
O349 C330 1.242 . S
O350 Sm328 2.681 . S
O350 Sm329 2.386 1_564 S
O350 C337 1.271 . S
O351 Sm328 2.464 . S
O351 C337 1.251 . S
O352 Sm328 2.396 1_545 S
O352 C338 1.252 . S
O353 Sm329 2.408 1_554 S
O353 C338 1.272 . S
O354 Sm329 2.543 1_565 S
O354 C339 1.261 . S
O355 Sm329 2.450 1_565 S
O355 C339 1.242 . S
O356 Sm328 2.386 1_546 S
O356 Sm329 2.681 . S
O356 C346 1.271 . S
O357 Sm329 2.464 . S
O357 C346 1.251 . S
O358 Sm329 2.396 1_565 S
O358 C347 1.252 . S
O359 Sm328 2.408 1_556 S
O359 C347 1.272 . S
H360 C332 0.930 . S
H361 C333 0.929 . S
H362 C335 0.930 . S
H363 C336 0.929 . S
H364 C341 0.930 . S
H365 C342 0.929 . S
H366 C344 0.930 . S
H367 C345 0.929 . S
Sm368 C370 2.846 . S
Sm368 O388 2.543 . S
Sm368 O389 2.450 . S
Sm368 O390 2.681 . S
Sm368 O391 2.464 . S
Sm368 O392 2.396 . S
Sm368 O396 2.386 . S
Sm368 O399 2.408 . S
Sm369 C379 2.846 . S
Sm369 O390 2.386 . S
Sm369 O393 2.408 . S
Sm369 O394 2.543 . S
Sm369 O395 2.450 . S
Sm369 O396 2.681 . S
Sm369 O397 2.464 . S
Sm369 O398 2.396 . S
C370 Sm368 2.846 . S
C370 C371 1.506 . S
C370 O388 1.261 . S
C370 O389 1.242 . S
C371 C370 1.506 . S
C371 C372 1.358 . S
C371 C376 1.382 . S
C372 C371 1.358 . S
C372 C373 1.385 . S
C372 H400 0.930 . S
C373 C372 1.385 . S
C373 C374 1.395 . S
C373 H401 0.929 . S
C374 C373 1.395 . S
C374 C375 1.335 . S
C375 C374 1.335 . S
C375 C376 1.398 . S
C375 H402 0.930 . S
C376 C371 1.382 . S
C376 C375 1.398 . S
C376 H403 0.929 . S
C377 O390 1.271 . S
C377 O391 1.251 . S
C378 O392 1.252 . S
C378 O393 1.272 . S
C379 Sm369 2.846 . S
C379 C380 1.506 . S
C379 O394 1.261 . S
C379 O395 1.242 . S
C380 C379 1.506 . S
C380 C381 1.358 . S
C380 C385 1.382 . S
C381 C380 1.358 . S
C381 C382 1.385 . S
C381 H404 0.930 . S
C382 C381 1.385 . S
C382 C383 1.395 . S
C382 H405 0.929 . S
C383 C382 1.395 . S
C383 C384 1.335 . S
C384 C383 1.335 . S
C384 C385 1.398 . S
C384 H406 0.930 . S
C385 C380 1.382 . S
C385 C384 1.398 . S
C385 H407 0.929 . S
C386 O396 1.271 . S
C386 O397 1.251 . S
C387 O398 1.252 . S
C387 O399 1.272 . S
O388 Sm368 2.543 . S
O388 C370 1.261 . S
O389 Sm368 2.450 . S
O389 C370 1.242 . S
O390 Sm368 2.681 . S
O390 Sm369 2.386 . S
O390 C377 1.271 . S
O391 Sm368 2.464 . S
O391 C377 1.251 . S
O392 Sm368 2.396 . S
O392 C378 1.252 . S
O393 Sm369 2.408 . S
O393 C378 1.272 . S
O394 Sm369 2.543 . S
O394 C379 1.261 . S
O395 Sm369 2.450 . S
O395 C379 1.242 . S
O396 Sm368 2.386 . S
O396 Sm369 2.681 . S
O396 C386 1.271 . S
O397 Sm369 2.464 . S
O397 C386 1.251 . S
O398 Sm369 2.396 . S
O398 C387 1.252 . S
O399 Sm368 2.408 . S
O399 C387 1.272 . S
H400 C372 0.930 . S
H401 C373 0.929 . S
H402 C375 0.930 . S
H403 C376 0.929 . S
H404 C381 0.930 . S
H405 C382 0.929 . S
H406 C384 0.930 . S
H407 C385 0.929 . S
Sm408 C410 2.846 . S
Sm408 O428 2.543 . S
Sm408 O429 2.450 . S
Sm408 O430 2.681 1_455 S
Sm408 O431 2.464 1_455 S
Sm408 O432 2.396 . S
Sm408 O436 2.386 1_554 S
Sm408 O439 2.408 1_454 S
Sm409 C419 2.846 . S
Sm409 O430 2.386 1_556 S
Sm409 O433 2.408 1_656 S
Sm409 O434 2.543 . S
Sm409 O435 2.450 . S
Sm409 O436 2.681 1_655 S
Sm409 O437 2.464 1_655 S
Sm409 O438 2.396 . S
C410 Sm408 2.846 . S
C410 C411 1.506 . S
C410 O428 1.261 . S
C410 O429 1.242 . S
C411 C410 1.506 . S
C411 C412 1.358 . S
C411 C416 1.382 . S
C412 C411 1.358 . S
C412 C413 1.385 . S
C412 H440 0.930 . S
C413 C412 1.385 . S
C413 C414 1.395 . S
C413 H441 0.929 . S
C414 C413 1.395 . S
C414 C415 1.335 . S
C415 C414 1.335 . S
C415 C416 1.398 . S
C415 H442 0.930 . S
C416 C411 1.382 . S
C416 C415 1.398 . S
C416 H443 0.929 . S
C417 O430 1.271 . S
C417 O431 1.251 . S
C418 O432 1.252 . S
C418 O433 1.272 . S
C419 Sm409 2.846 . S
C419 C420 1.506 . S
C419 O434 1.261 . S
C419 O435 1.242 . S
C420 C419 1.506 . S
C420 C421 1.358 . S
C420 C425 1.382 . S
C421 C420 1.358 . S
C421 C422 1.385 . S
C421 H444 0.930 . S
C422 C421 1.385 . S
C422 C423 1.395 . S
C422 H445 0.929 . S
C423 C422 1.395 . S
C423 C424 1.335 . S
C424 C423 1.335 . S
C424 C425 1.398 . S
C424 H446 0.930 . S
C425 C420 1.382 . S
C425 C424 1.398 . S
C425 H447 0.929 . S
C426 O436 1.271 . S
C426 O437 1.251 . S
C427 O438 1.252 . S
C427 O439 1.272 . S
O428 Sm408 2.543 . S
O428 C410 1.261 . S
O429 Sm408 2.450 . S
O429 C410 1.242 . S
O430 Sm408 2.681 1_655 S
O430 Sm409 2.386 1_554 S
O430 C417 1.271 . S
O431 Sm408 2.464 1_655 S
O431 C417 1.251 . S
O432 Sm408 2.396 . S
O432 C418 1.252 . S
O433 Sm409 2.408 1_454 S
O433 C418 1.272 . S
O434 Sm409 2.543 . S
O434 C419 1.261 . S
O435 Sm409 2.450 . S
O435 C419 1.242 . S
O436 Sm408 2.386 1_556 S
O436 Sm409 2.681 1_455 S
O436 C426 1.271 . S
O437 Sm409 2.464 1_455 S
O437 C426 1.251 . S
O438 Sm409 2.396 . S
O438 C427 1.252 . S
O439 Sm408 2.408 1_656 S
O439 C427 1.272 . S
H440 C412 0.930 . S
H441 C413 0.929 . S
H442 C415 0.930 . S
H443 C416 0.929 . S
H444 C421 0.930 . S
H445 C422 0.929 . S
H446 C424 0.930 . S
H447 C425 0.929 . S
C448 C449 1.369 . S
C448 C450 1.419 . S
C448 H452 0.930 . S
C449 C448 1.369 . S
C449 C458 1.429 . S
C450 C448 1.419 . S
C450 C451 1.363 . S
C450 H453 0.929 . S
C451 C450 1.363 . S
C451 C457 1.428 . S
H452 C448 0.930 . S
H453 C450 0.929 . S
S454 N455 1.613 . S
S454 N456 1.610 . S
N455 S454 1.613 . S
N455 C458 1.350 . S
N456 S454 1.610 . S
N456 C457 1.351 . S
C457 C451 1.428 . S
C457 N456 1.351 . S
C457 C458 1.434 . S
C458 C449 1.429 . S
C458 N455 1.350 . S
C458 C457 1.434 . S
C459 C460 1.369 . S
C459 C461 1.419 . S
C459 H463 0.930 . S
C460 C459 1.369 . S
C460 C469 1.429 . S
C461 C459 1.419 . S
C461 C462 1.363 . S
C461 H464 0.929 . S
C462 C461 1.363 . S
C462 C468 1.428 . S
H463 C459 0.930 . S
H464 C461 0.929 . S
S465 N466 1.613 . S
S465 N467 1.610 . S
N466 S465 1.613 . S
N466 C469 1.350 . S
N467 S465 1.610 . S
N467 C468 1.351 . S
C468 C462 1.428 . S
C468 N467 1.351 . S
C468 C469 1.434 . S
C469 C460 1.429 . S
C469 N466 1.350 . S
C469 C468 1.434 . S
C470 C471 1.369 . S
C470 C472 1.419 . S
C470 H474 0.930 . S
C471 C470 1.369 . S
C471 C480 1.429 . S
C472 C470 1.419 . S
C472 C473 1.363 . S
C472 H475 0.929 . S
C473 C472 1.363 . S
C473 C479 1.428 . S
H474 C470 0.930 . S
H475 C472 0.929 . S
S476 N477 1.613 . S
S476 N478 1.610 . S
N477 S476 1.613 . S
N477 C480 1.350 . S
N478 S476 1.610 . S
N478 C479 1.351 . S
C479 C473 1.428 . S
C479 N478 1.351 . S
C479 C480 1.434 . S
C480 C471 1.429 . S
C480 N477 1.350 . S
C480 C479 1.434 . S
C481 C482 1.369 . S
C481 C483 1.419 . S
C481 H485 0.930 . S
C482 C481 1.369 . S
C482 C491 1.429 . S
C483 C481 1.419 . S
C483 C484 1.363 . S
C483 H486 0.929 . S
C484 C483 1.363 . S
C484 C490 1.428 . S
H485 C481 0.930 . S
H486 C483 0.929 . S
S487 N488 1.613 . S
S487 N489 1.610 . S
N488 S487 1.613 . S
N488 C491 1.350 . S
N489 S487 1.610 . S
N489 C490 1.351 . S
C490 C484 1.428 . S
C490 N489 1.351 . S
C490 C491 1.434 . S
C491 C482 1.429 . S
C491 N488 1.350 . S
C491 C490 1.434 . S
C492 C493 1.369 . S
C492 C494 1.419 . S
C492 H496 0.930 . S
C493 C492 1.369 . S
C493 C502 1.429 . S
C494 C492 1.419 . S
C494 C495 1.363 . S
C494 H497 0.929 . S
C495 C494 1.363 . S
C495 C501 1.428 . S
H496 C492 0.930 . S
H497 C494 0.929 . S
S498 N499 1.613 . S
S498 N500 1.610 . S
N499 S498 1.613 . S
N499 C502 1.350 . S
N500 S498 1.610 . S
N500 C501 1.351 . S
C501 C495 1.428 . S
C501 N500 1.351 . S
C501 C502 1.434 . S
C502 C493 1.429 . S
C502 N499 1.350 . S
C502 C501 1.434 . S
C503 C504 1.369 . S
C503 C505 1.419 . S
C503 H507 0.930 . S
C504 C503 1.369 . S
C504 C513 1.429 . S
C505 C503 1.419 . S
C505 C506 1.363 . S
C505 H508 0.929 . S
C506 C505 1.363 . S
C506 C512 1.428 . S
H507 C503 0.930 . S
H508 C505 0.929 . S
S509 N510 1.613 . S
S509 N511 1.610 . S
N510 S509 1.613 . S
N510 C513 1.350 . S
N511 S509 1.610 . S
N511 C512 1.351 . S
C512 C506 1.428 . S
C512 N511 1.351 . S
C512 C513 1.434 . S
C513 C504 1.429 . S
C513 N510 1.350 . S
C513 C512 1.434 . S
C514 C515 1.369 . S
C514 C516 1.419 . S
C514 H518 0.930 . S
C515 C514 1.369 . S
C515 C524 1.429 . S
C516 C514 1.419 . S
C516 C517 1.363 . S
C516 H519 0.929 . S
C517 C516 1.363 . S
C517 C523 1.428 . S
H518 C514 0.930 . S
H519 C516 0.929 . S
S520 N521 1.613 . S
S520 N522 1.610 . S
N521 S520 1.613 . S
N521 C524 1.350 . S
N522 S520 1.610 . S
N522 C523 1.351 . S
C523 C517 1.428 . S
C523 N522 1.351 . S
C523 C524 1.434 . S
C524 C515 1.429 . S
C524 N521 1.350 . S
C524 C523 1.434 . S
C525 C526 1.369 . S
C525 C527 1.419 . S
C525 H529 0.930 . S
C526 C525 1.369 . S
C526 C535 1.429 . S
C527 C525 1.419 . S
C527 C528 1.363 . S
C527 H530 0.929 . S
C528 C527 1.363 . S
C528 C534 1.428 . S
H529 C525 0.930 . S
H530 C527 0.929 . S
S531 N532 1.613 . S
S531 N533 1.610 . S
N532 S531 1.613 . S
N532 C535 1.350 . S
N533 S531 1.610 . S
N533 C534 1.351 . S
C534 C528 1.428 . S
C534 N533 1.351 . S
C534 C535 1.434 . S
C535 C526 1.429 . S
C535 N532 1.350 . S
C535 C534 1.434 . S
C536 C537 1.369 . S
C536 C538 1.419 . S
C536 H540 0.930 . S
C537 C536 1.369 . S
C537 C546 1.429 . S
C538 C536 1.419 . S
C538 C539 1.363 . S
C538 H541 0.929 . S
C539 C538 1.363 . S
C539 C545 1.428 . S
H540 C536 0.930 . S
H541 C538 0.929 . S
S542 N543 1.613 . S
S542 N544 1.610 . S
N543 S542 1.613 . S
N543 C546 1.350 . S
N544 S542 1.610 . S
N544 C545 1.351 . S
C545 C539 1.428 . S
C545 N544 1.351 . S
C545 C546 1.434 . S
C546 C537 1.429 . S
C546 N543 1.350 . S
C546 C545 1.434 . S
C547 C548 1.369 . S
C547 C549 1.419 . S
C547 H551 0.930 . S
C548 C547 1.369 . S
C548 C557 1.429 . S
C549 C547 1.419 . S
C549 C550 1.363 . S
C549 H552 0.929 . S
C550 C549 1.363 . S
C550 C556 1.428 . S
H551 C547 0.930 . S
H552 C549 0.929 . S
S553 N554 1.613 . S
S553 N555 1.610 . S
N554 S553 1.613 . S
N554 C557 1.350 . S
N555 S553 1.610 . S
N555 C556 1.351 . S
C556 C550 1.428 . S
C556 N555 1.351 . S
C556 C557 1.434 . S
C557 C548 1.429 . S
C557 N554 1.350 . S
C557 C556 1.434 . S
C558 C559 1.369 . S
C558 C560 1.419 . S
C558 H562 0.930 . S
C559 C558 1.369 . S
C559 C568 1.429 . S
C560 C558 1.419 . S
C560 C561 1.363 . S
C560 H563 0.929 . S
C561 C560 1.363 . S
C561 C567 1.428 . S
H562 C558 0.930 . S
H563 C560 0.929 . S
S564 N565 1.613 . S
S564 N566 1.610 . S
N565 S564 1.613 . S
N565 C568 1.350 . S
N566 S564 1.610 . S
N566 C567 1.351 . S
C567 C561 1.428 . S
C567 N566 1.351 . S
C567 C568 1.434 . S
C568 C559 1.429 . S
C568 N565 1.350 . S
C568 C567 1.434 . S
C569 C570 1.369 . S
C569 C571 1.419 . S
C569 H573 0.930 . S
C570 C569 1.369 . S
C570 C579 1.429 . S
C571 C569 1.419 . S
C571 C572 1.363 . S
C571 H574 0.929 . S
C572 C571 1.363 . S
C572 C578 1.428 . S
H573 C569 0.930 . S
H574 C571 0.929 . S
S575 N576 1.613 . S
S575 N577 1.610 . S
N576 S575 1.613 . S
N576 C579 1.350 . S
N577 S575 1.610 . S
N577 C578 1.351 . S
C578 C572 1.428 . S
C578 N577 1.351 . S
C578 C579 1.434 . S
C579 C570 1.429 . S
C579 N576 1.350 . S
C579 C578 1.434 . S
C580 C581 1.369 . S
C580 C582 1.419 . S
C580 H584 0.930 . S
C581 C580 1.369 . S
C581 C590 1.429 . S
C582 C580 1.419 . S
C582 C583 1.363 . S
C582 H585 0.929 . S
C583 C582 1.363 . S
C583 C589 1.428 . S
H584 C580 0.930 . S
H585 C582 0.929 . S
S586 N587 1.613 . S
S586 N588 1.610 . S
N587 S586 1.613 . S
N587 C590 1.350 . S
N588 S586 1.610 . S
N588 C589 1.351 . S
C589 C583 1.428 . S
C589 N588 1.351 . S
C589 C590 1.434 . S
C590 C581 1.429 . S
C590 N587 1.350 . S
C590 C589 1.434 . S
C591 C592 1.369 . S
C591 C593 1.419 . S
C591 H595 0.930 . S
C592 C591 1.369 . S
C592 C601 1.429 . S
C593 C591 1.419 . S
C593 C594 1.363 . S
C593 H596 0.929 . S
C594 C593 1.363 . S
C594 C600 1.428 . S
H595 C591 0.930 . S
H596 C593 0.929 . S
S597 N598 1.613 . S
S597 N599 1.610 . S
N598 S597 1.613 . S
N598 C601 1.350 . S
N599 S597 1.610 . S
N599 C600 1.351 . S
C600 C594 1.428 . S
C600 N599 1.351 . S
C600 C601 1.434 . S
C601 C592 1.429 . S
C601 N598 1.350 . S
C601 C600 1.434 . S
C602 C603 1.369 . S
C602 C604 1.419 . S
C602 H606 0.930 . S
C603 C602 1.369 . S
C603 C612 1.429 . S
C604 C602 1.419 . S
C604 C605 1.363 . S
C604 H607 0.929 . S
C605 C604 1.363 . S
C605 C611 1.428 . S
H606 C602 0.930 . S
H607 C604 0.929 . S
S608 N609 1.613 . S
S608 N610 1.610 . S
N609 S608 1.613 . S
N609 C612 1.350 . S
N610 S608 1.610 . S
N610 C611 1.351 . S
C611 C605 1.428 . S
C611 N610 1.351 . S
C611 C612 1.434 . S
C612 C603 1.429 . S
C612 N609 1.350 . S
C612 C611 1.434 . S
C613 C614 1.369 . S
C613 C615 1.419 . S
C613 H617 0.930 . S
C614 C613 1.369 . S
C614 C623 1.429 . S
C615 C613 1.419 . S
C615 C616 1.363 . S
C615 H618 0.929 . S
C616 C615 1.363 . S
C616 C622 1.428 . S
H617 C613 0.930 . S
H618 C615 0.929 . S
S619 N620 1.613 . S
S619 N621 1.610 . S
N620 S619 1.613 . S
N620 C623 1.350 . S
N621 S619 1.610 . S
N621 C622 1.351 . S
C622 C616 1.428 . S
C622 N621 1.351 . S
C622 C623 1.434 . S
C623 C614 1.429 . S
C623 N620 1.350 . S
C623 C622 1.434 . S
C624 C625 1.369 . S
C624 C626 1.419 . S
C624 H628 0.930 . S
C625 C624 1.369 . S
C625 C634 1.429 . S
C626 C624 1.419 . S
C626 C627 1.363 . S
C626 H629 0.929 . S
C627 C626 1.363 . S
C627 C633 1.428 . S
H628 C624 0.930 . S
H629 C626 0.929 . S
S630 N631 1.613 . S
S630 N632 1.610 . S
N631 S630 1.613 . S
N631 C634 1.350 . S
N632 S630 1.610 . S
N632 C633 1.351 . S
C633 C627 1.428 . S
C633 N632 1.351 . S
C633 C634 1.434 . S
C634 C625 1.429 . S
C634 N631 1.350 . S
C634 C633 1.434 . S
C635 C636 1.369 . S
C635 C637 1.419 . S
C635 H639 0.930 . S
C636 C635 1.369 . S
C636 C645 1.429 . S
C637 C635 1.419 . S
C637 C638 1.363 . S
C637 H640 0.929 . S
C638 C637 1.363 . S
C638 C644 1.428 . S
H639 C635 0.930 . S
H640 C637 0.929 . S
S641 N642 1.613 . S
S641 N643 1.610 . S
N642 S641 1.613 . S
N642 C645 1.350 . S
N643 S641 1.610 . S
N643 C644 1.351 . S
C644 C638 1.428 . S
C644 N643 1.351 . S
C644 C645 1.434 . S
C645 C636 1.429 . S
C645 N642 1.350 . S
C645 C644 1.434 . S
C646 C647 1.369 . S
C646 C648 1.419 . S
C646 H650 0.930 . S
C647 C646 1.369 . S
C647 C656 1.429 . S
C648 C646 1.419 . S
C648 C649 1.363 . S
C648 H651 0.929 . S
C649 C648 1.363 . S
C649 C655 1.428 . S
H650 C646 0.930 . S
H651 C648 0.929 . S
S652 N653 1.613 . S
S652 N654 1.610 . S
N653 S652 1.613 . S
N653 C656 1.350 . S
N654 S652 1.610 . S
N654 C655 1.351 . S
C655 C649 1.428 . S
C655 N654 1.351 . S
C655 C656 1.434 . S
C656 C647 1.429 . S
C656 N653 1.350 . S
C656 C655 1.434 . S
C657 C658 1.369 . S
C657 C659 1.419 . S
C657 H661 0.930 . S
C658 C657 1.369 . S
C658 C667 1.429 . S
C659 C657 1.419 . S
C659 C660 1.363 . S
C659 H662 0.929 . S
C660 C659 1.363 . S
C660 C666 1.428 . S
H661 C657 0.930 . S
H662 C659 0.929 . S
S663 N664 1.613 . S
S663 N665 1.610 . S
N664 S663 1.613 . S
N664 C667 1.350 . S
N665 S663 1.610 . S
N665 C666 1.351 . S
C666 C660 1.428 . S
C666 N665 1.351 . S
C666 C667 1.434 . S
C667 C658 1.429 . S
C667 N664 1.350 . S
C667 C666 1.434 . S
C668 C669 1.369 . S
C668 C670 1.419 . S
C668 H672 0.930 . S
C669 C668 1.369 . S
C669 C678 1.429 . S
C670 C668 1.419 . S
C670 C671 1.363 . S
C670 H673 0.929 . S
C671 C670 1.363 . S
C671 C677 1.428 . S
H672 C668 0.930 . S
H673 C670 0.929 . S
S674 N675 1.613 . S
S674 N676 1.610 . S
N675 S674 1.613 . S
N675 C678 1.350 . S
N676 S674 1.610 . S
N676 C677 1.351 . S
C677 C671 1.428 . S
C677 N676 1.351 . S
C677 C678 1.434 . S
C678 C669 1.429 . S
C678 N675 1.350 . S
C678 C677 1.434 . S
C679 C680 1.369 . S
C679 C681 1.419 . S
C679 H683 0.930 . S
C680 C679 1.369 . S
C680 C689 1.429 . S
C681 C679 1.419 . S
C681 C682 1.363 . S
C681 H684 0.929 . S
C682 C681 1.363 . S
C682 C688 1.428 . S
H683 C679 0.930 . S
H684 C681 0.929 . S
S685 N686 1.613 . S
S685 N687 1.610 . S
N686 S685 1.613 . S
N686 C689 1.350 . S
N687 S685 1.610 . S
N687 C688 1.351 . S
C688 C682 1.428 . S
C688 N687 1.351 . S
C688 C689 1.434 . S
C689 C680 1.429 . S
C689 N686 1.350 . S
C689 C688 1.434 . S
C690 C691 1.369 . S
C690 C692 1.419 . S
C690 H694 0.930 . S
C691 C690 1.369 . S
C691 C700 1.429 . S
C692 C690 1.419 . S
C692 C693 1.363 . S
C692 H695 0.929 . S
C693 C692 1.363 . S
C693 C699 1.428 . S
H694 C690 0.930 . S
H695 C692 0.929 . S
S696 N697 1.613 . S
S696 N698 1.610 . S
N697 S696 1.613 . S
N697 C700 1.350 . S
N698 S696 1.610 . S
N698 C699 1.351 . S
C699 C693 1.428 . S
C699 N698 1.351 . S
C699 C700 1.434 . S
C700 C691 1.429 . S
C700 N697 1.350 . S
C700 C699 1.434 . S
C701 C702 1.369 . S
C701 C703 1.419 . S
C701 H705 0.930 . S
C702 C701 1.369 . S
C702 C711 1.429 . S
C703 C701 1.419 . S
C703 C704 1.363 . S
C703 H706 0.929 . S
C704 C703 1.363 . S
C704 C710 1.428 . S
H705 C701 0.930 . S
H706 C703 0.929 . S
S707 N708 1.613 . S
S707 N709 1.610 . S
N708 S707 1.613 . S
N708 C711 1.350 . S
N709 S707 1.610 . S
N709 C710 1.351 . S
C710 C704 1.428 . S
C710 N709 1.351 . S
C710 C711 1.434 . S
C711 C702 1.429 . S
C711 N708 1.350 . S
C711 C710 1.434 . S
C449 C1 1.351 . S
C451 C294 1.403 . S
C460 C67 1.092 . S
C462 C343 1.096 . S
C473 C378 2.483 . S
C471 C97 2.525 . S
C482 C133 2.475 . S
C484 C417 2.415 . S
C495 C338 2.618 . S
C493 C25 2.466 . S
C506 C297 0.839 . S
C504 C37 0.854 . S
C517 C427 1.928 . S
C515 C103 1.994 . S
C528 C386 1.706 . S
C526 C109 1.729 . S
C537 C31 1.725 . S
C539 C414 1.820 . S
C550 C346 2.320 . S
C548 C73 2.424 . S
C559 C139 2.374 . S
C561 C307 2.368 . S
C570 C61 1.063 . S
C572 C383 1.108 . S
C583 C303 1.398 . S
C581 C175 1.286 . S
C592 C181 1.060 . S
C594 C334 1.081 . S
C603 C247 2.553 . S
C605 C387 2.505 . S
C614 C277 2.459 . S
C616 C426 2.401 . S
C625 C145 2.348 . S
C627 C347 2.608 . S
C638 C306 0.833 . S
C636 C211 0.867 . S
C649 C418 1.920 . S
C647 C217 1.962 . S
C660 C377 1.724 . S
C658 C283 1.738 . S
C669 C169 1.621 . S
C671 C423 1.815 . S
C682 C337 2.332 . S
C680 C241 2.430 . S
C693 C298 2.351 . S
C691 C253 2.365 . S
C702 C205 1.106 . S
C704 C374 1.113 . S
