# Generated by pormake.
# Topology zzz, (3,6)-cn, num edge types: 1
# Building blocks:
#     Node 0, Type 0, BuildingBlock: BELTOD_clean_linker_0, # of connection points: 3
#     Node 1, Type 0, BuildingBlock: BELTOD_clean_linker_0, # of connection points: 3
#     Node 2, Type 0, BuildingBlock: BELTOD_clean_linker_0, # of connection points: 3
#     Node 3, Type 0, BuildingBlock: BELTOD_clean_linker_0, # of connection points: 3
#     Node 4, Type 0, BuildingBlock: BELTOD_clean_linker_0, # of connection points: 3
#     Node 5, Type 0, BuildingBlock: BELTOD_clean_linker_0, # of connection points: 3
#     Node 6, Type 0, BuildingBlock: BELTOD_clean_linker_0, # of connection points: 3
#     Node 7, Type 0, BuildingBlock: BELTOD_clean_linker_0, # of connection points: 3
#     Node 8, Type 1, BuildingBlock: NUHQIS_clean_sbu_0, # of connection points: 6
#     Node 9, Type 1, BuildingBlock: NUHQIS_clean_sbu_0, # of connection points: 6
#     Node 10, Type 1, BuildingBlock: NUHQIS_clean_sbu_0, # of connection points: 6
#     Node 11, Type 1, BuildingBlock: NUHQIS_clean_sbu_0, # of connection points: 6
#     Edge 12, Type (0, 1), BuildingBlock: ZUJKAS_clean_linker_0, # of connection points: 2
#     Edge 13, Type (0, 1), BuildingBlock: ZUJKAS_clean_linker_0, # of connection points: 2
#     Edge 14, Type (0, 1), BuildingBlock: ZUJKAS_clean_linker_0, # of connection points: 2
#     Edge 15, Type (0, 1), BuildingBlock: ZUJKAS_clean_linker_0, # of connection points: 2
#     Edge 16, Type (0, 1), BuildingBlock: ZUJKAS_clean_linker_0, # of connection points: 2
#     Edge 17, Type (0, 1), BuildingBlock: ZUJKAS_clean_linker_0, # of connection points: 2
#     Edge 18, Type (0, 1), BuildingBlock: ZUJKAS_clean_linker_0, # of connection points: 2
#     Edge 19, Type (0, 1), BuildingBlock: ZUJKAS_clean_linker_0, # of connection points: 2
#     Edge 20, Type (0, 1), BuildingBlock: ZUJKAS_clean_linker_0, # of connection points: 2
#     Edge 21, Type (0, 1), BuildingBlock: ZUJKAS_clean_linker_0, # of connection points: 2
#     Edge 22, Type (0, 1), BuildingBlock: ZUJKAS_clean_linker_0, # of connection points: 2
#     Edge 23, Type (0, 1), BuildingBlock: ZUJKAS_clean_linker_0, # of connection points: 2
#     Edge 24, Type (0, 1), BuildingBlock: ZUJKAS_clean_linker_0, # of connection points: 2
#     Edge 25, Type (0, 1), BuildingBlock: ZUJKAS_clean_linker_0, # of connection points: 2
#     Edge 26, Type (0, 1), BuildingBlock: ZUJKAS_clean_linker_0, # of connection points: 2
#     Edge 27, Type (0, 1), BuildingBlock: ZUJKAS_clean_linker_0, # of connection points: 2
#     Edge 28, Type (0, 1), BuildingBlock: ZUJKAS_clean_linker_0, # of connection points: 2
#     Edge 29, Type (0, 1), BuildingBlock: ZUJKAS_clean_linker_0, # of connection points: 2
#     Edge 30, Type (0, 1), BuildingBlock: ZUJKAS_clean_linker_0, # of connection points: 2
#     Edge 31, Type (0, 1), BuildingBlock: ZUJKAS_clean_linker_0, # of connection points: 2
#     Edge 32, Type (0, 1), BuildingBlock: ZUJKAS_clean_linker_0, # of connection points: 2
#     Edge 33, Type (0, 1), BuildingBlock: ZUJKAS_clean_linker_0, # of connection points: 2
#     Edge 34, Type (0, 1), BuildingBlock: ZUJKAS_clean_linker_0, # of connection points: 2
#     Edge 35, Type (0, 1), BuildingBlock: ZUJKAS_clean_linker_0, # of connection points: 2
# Relax obj value: 0.371
# Max RMSD: 0.244
# Mean RMSD: 0.221
data_MOF--net-zzz--node1-NUHQIS_clean_sbu_0--node2-BELTOD_clean_linker_0--edge1-ZUJKAS_clean_linker_0
_symmetry_space_group_name_H-M    P1
_symmetry_Int_Tables_number       1
_symmetry_cell_setting            triclinic
loop_
_symmetry_equiv_pos_as_xyz
'x, y, z'
_cell_length_a     70.662986
_cell_length_b     70.643949
_cell_length_c     22.245389
_cell_angle_alpha  89.982826
_cell_angle_beta   89.979208
_cell_angle_gamma 89.99586
loop_
_atom_site_label
_atom_site_type_symbol
_atom_site_fract_x
_atom_site_fract_y
_atom_site_fract_z
_atom_type_partial_charge
P0 P 0.7235 0.4812 0.33102 0.0
H1 H 0.73414 0.48957 0.45561 0.0
H2 H 0.76402 0.5004 0.49787 0.0
H3 H 0.78317 0.51613 0.32035 0.0
H4 H 0.75327 0.50497 0.27816 0.0
H5 H 0.68497 0.46922 0.30948 0.0
H6 H 0.66027 0.48001 0.24167 0.0
H7 H 0.69555 0.52692 0.18711 0.0
H8 H 0.72045 0.51588 0.25581 0.0
H9 H 0.74723 0.44866 0.35716 0.0
H10 H 0.73049 0.48059 0.20072 0.0
O11 O 0.71386 0.46821 0.38577 0.0
H12 H 0.77189 0.433 0.2983 0.0
H13 H 0.75524 0.46542 0.14226 0.0
C14 C 0.74136 0.4964 0.36356 0.0
C15 C 0.74443 0.49599 0.42587 0.0
C16 C 0.76164 0.50218 0.45012 0.0
C17 C 0.7762 0.50882 0.41243 0.0
C18 C 0.77242 0.51076 0.35058 0.0
C19 C 0.75516 0.50464 0.32644 0.0
C20 C 0.70446 0.49192 0.28871 0.0
C21 C 0.68727 0.48212 0.28422 0.0
C22 C 0.67309 0.48833 0.24525 0.0
C23 C 0.67583 0.5044 0.209 0.0
C24 C 0.693 0.51444 0.21423 0.0
C25 C 0.70719 0.50826 0.25388 0.0
C26 C 0.73686 0.46562 0.28326 0.0
C27 C 0.74841 0.4518 0.30965 0.0
C28 C 0.76263 0.44302 0.27612 0.0
C29 C 0.76565 0.44809 0.21574 0.0
C30 C 0.75317 0.46099 0.1884 0.0
C31 C 0.73895 0.46974 0.22197 0.0
P32 P 0.02413 0.72153 0.33212 0.0
H33 H 0.01941 0.73307 0.45767 0.0
H34 H 0.00879 0.76279 0.50084 0.0
H35 H 0.98616 0.77948 0.32826 0.0
H36 H 0.99774 0.74997 0.28471 0.0
H37 H 0.03533 0.68241 0.31583 0.0
H38 H 0.0244 0.6574 0.24954 0.0
H39 H 0.9778 0.6927 0.1927 0.0
H40 H 0.98897 0.71791 0.25973 0.0
H41 H 0.05154 0.75141 0.35022 0.0
H42 H 0.02682 0.72214 0.19923 0.0
O43 O 0.03879 0.71258 0.38366 0.0
H44 H 0.06487 0.77497 0.28221 0.0
H45 H 0.0405 0.74531 0.13097 0.0
C46 C 0.0093 0.73911 0.36787 0.0
C47 C 0.0116 0.74279 0.42941 0.0
C48 C 0.00548 0.75994 0.45421 0.0
C49 C 0.99685 0.77384 0.41798 0.0
C50 C 0.99311 0.76936 0.35738 0.0
C51 C 0.99937 0.75223 0.33256 0.0
C52 C 0.01282 0.70199 0.29375 0.0
C53 C 0.02242 0.68464 0.29062 0.0
C54 C 0.01613 0.67027 0.25245 0.0
C55 C 1.00018 0.67297 0.21567 0.0
C56 C 0.9902 0.69019 0.22015 0.0
C57 C 0.99646 0.70457 0.25895 0.0
C58 C 0.03814 0.73505 0.28002 0.0
C59 C 0.04954 0.74968 0.30226 0.0
C60 C 0.05719 0.76313 0.26323 0.0
C61 C 0.05357 0.76214 0.20116 0.0
C62 C 0.04326 0.74665 0.17866 0.0
C63 C 0.03551 0.73328 0.21781 0.0
P64 P 0.78261 0.02278 0.31764 0.0
H65 H 0.77428 0.01434 0.44399 0.0
H66 H 0.7454 0.00303 0.49223 0.0
H67 H 0.72247 0.98843 0.31833 0.0
H68 H 0.75159 0.99942 0.27052 0.0
H69 H 0.82225 0.0329 0.30674 0.0
H70 H 0.84758 0.02181 0.24199 0.0
H71 H 0.81149 0.97686 0.17717 0.0
H72 H 0.78589 0.98829 0.24264 0.0
H73 H 0.75221 0.04977 0.33375 0.0
H74 H 0.78342 0.02617 0.18476 0.0
O75 O 0.79133 0.03752 0.36933 0.0
H76 H 0.72945 0.06349 0.26379 0.0
H77 H 0.76098 0.04015 0.11468 0.0
C78 C 0.76511 0.00787 0.35351 0.0
C79 C 0.76333 0.00811 0.41629 0.0
C80 C 0.74665 1.00185 0.44385 0.0
C81 C 0.73136 0.99524 0.40914 0.0
C82 C 0.7339 0.9934 0.3466 0.0
C83 C 0.75064 0.99963 0.3191 0.0
C84 C 0.80224 0.01124 0.28051 0.0
C85 C 0.81988 0.0203 0.2801 0.0
C86 C 0.83444 0.01391 0.24281 0.0
C87 C 0.83165 0.9984 0.20425 0.0
C88 C 0.8141 0.98892 0.20605 0.0
C89 C 0.79951 0.99528 0.24397 0.0
C90 C 0.76943 0.03683 0.26471 0.0
C91 C 0.75451 0.04805 0.2859 0.0
C92 C 0.74153 0.05595 0.24578 0.0
C93 C 0.7433 0.05274 0.18365 0.0
C94 C 0.75906 0.0426 0.16236 0.0
C95 C 0.77198 0.03464 0.20258 0.0
P96 P 0.48234 0.78524 0.33987 0.0
H97 H 0.48931 0.77615 0.46646 0.0
H98 H 0.49971 0.74678 0.51357 0.0
H99 H 0.51722 0.72549 0.3403 0.0
H100 H 0.50705 0.75509 0.29351 0.0
H101 H 0.46976 0.82339 0.31617 0.0
H102 H 0.48091 0.84838 0.25029 0.0
H103 H 0.52957 0.81442 0.20322 0.0
H104 H 0.51806 0.78911 0.26992 0.0
H105 H 0.44986 0.76097 0.36099 0.0
H106 H 0.48414 0.77791 0.20981 0.0
O107 O 0.46812 0.7947 0.39176 0.0
H108 H 0.43517 0.73633 0.2996 0.0
H109 H 0.46987 0.7532 0.1488 0.0
C110 C 0.49728 0.76787 0.37624 0.0
C111 C 0.49603 0.7655 0.43873 0.0
C112 C 0.50178 0.74854 0.46565 0.0
C113 C 0.50887 0.73356 0.43058 0.0
C114 C 0.51183 0.7367 0.36877 0.0
C115 C 0.50609 0.75371 0.34188 0.0
C116 C 0.49325 0.8045 0.29911 0.0
C117 C 0.4831 0.82143 0.29304 0.0
C118 C 0.48953 0.8358 0.25516 0.0
C119 C 0.50625 0.83355 0.22162 0.0
C120 C 0.51662 0.81662 0.22831 0.0
C121 C 0.51017 0.8022 0.26684 0.0
C122 C 0.46791 0.77145 0.28984 0.0
C123 C 0.45377 0.75982 0.31405 0.0
C124 C 0.44553 0.74562 0.2791 0.0
C125 C 0.45145 0.74273 0.21947 0.0
C126 C 0.46478 0.75521 0.19429 0.0
C127 C 0.47301 0.76939 0.22931 0.0
P128 P 0.27912 0.45115 0.042 0.0
H129 H 0.26635 0.44382 0.91869 0.0
H130 H 0.23871 0.45556 0.86488 0.0
H131 H 0.23197 0.49975 0.9972 0.0
H132 H 0.25969 0.48788 0.05106 0.0
H133 H 0.31275 0.43083 0.07837 0.0
H134 H 0.34122 0.44021 0.13153 0.0
H135 H 0.32472 0.4989 0.11637 0.0
H136 H 0.29592 0.48925 0.06236 0.0
H137 H 0.24465 0.43004 0.06533 0.0
H138 H 0.27932 0.47071 0.15906 0.0
O139 O 0.28154 0.42927 0.01468 0.0
H140 H 0.21909 0.4355 0.13723 0.0
H141 H 0.25386 0.4767 0.22904 0.0
C142 C 0.26519 0.46489 0.98924 0.0
C143 C 0.25946 0.45651 0.93498 0.0
C144 C 0.24349 0.46321 0.90422 0.0
C145 C 0.23282 0.47838 0.92733 0.0
C146 C 0.23963 0.48781 0.97873 0.0
C147 C 0.25572 0.4812 0.00912 0.0
C148 C 0.30227 0.45932 0.06534 0.0
C149 C 0.31549 0.44579 0.08445 0.0
C150 C 0.33185 0.45119 0.11517 0.0
C151 C 0.33533 0.47033 0.12848 0.0
C152 C 0.32243 0.48402 0.10721 0.0
C153 C 0.30606 0.47856 0.07566 0.0
C154 C 0.26395 0.44988 0.10673 0.0
C155 C 0.24704 0.43961 0.10259 0.0
C156 C 0.23236 0.44294 0.14325 0.0
C157 C 0.23431 0.45679 0.18824 0.0
C158 C 0.25188 0.46583 0.19532 0.0
C159 C 0.26655 0.46242 0.15485 0.0
P160 P 0.05269 0.27326 0.07415 0.0
H161 H 0.06995 0.26105 0.96072 0.0
H162 H 0.06184 0.23494 0.89383 0.0
H163 H 0.00759 0.22962 0.98187 0.0
H164 H 0.01562 0.25616 0.04739 0.0
H165 H 0.0758 0.30556 0.10812 0.0
H166 H 0.06774 0.3363 0.14911 0.0
H167 H 0.00892 0.32659 0.10648 0.0
H168 H 0.01724 0.29548 0.0644 0.0
H169 H 0.05792 0.23435 0.11108 0.0
H170 H 0.02854 0.28348 0.17924 0.0
O171 O 0.07621 0.27098 0.07335 0.0
H172 H 0.04179 0.21463 0.18514 0.0
H173 H 0.01236 0.26382 0.25267 0.0
C174 C 0.04352 0.26049 0.00975 0.0
C175 C 0.05602 0.25477 0.96424 0.0
C176 C 0.05145 0.23958 0.92648 0.0
C177 C 0.03428 0.22969 0.93351 0.0
C178 C 0.02097 0.23677 0.97504 0.0
C179 C 0.02553 0.25208 0.01256 0.0
C180 C 0.04716 0.29816 0.0827 0.0
C181 C 0.06125 0.31023 0.10516 0.0
C182 C 0.05659 0.32792 0.12892 0.0
C183 C 0.03765 0.33391 0.13171 0.0
C184 C 0.02364 0.32234 0.10548 0.0
C185 C 0.0284 0.30466 0.08063 0.0
C186 C 0.04428 0.26034 0.13866 0.0
C187 C 0.04837 0.24099 0.14284 0.0
C188 C 0.03915 0.22973 0.18525 0.0
C189 C 0.02566 0.23769 0.22419 0.0
C190 C 0.02247 0.2573 0.22249 0.0
C191 C 0.03176 0.26855 0.1802 0.0
P192 P 0.229 0.05023 0.04213 0.0
H193 H 0.23971 0.05946 0.91808 0.0
H194 H 0.26623 0.04881 0.85663 0.0
H195 H 0.27741 0.00408 0.98424 0.0
H196 H 0.25046 0.01452 0.04455 0.0
H197 H 0.19242 0.06878 0.05509 0.0
H198 H 0.16363 0.05927 0.1061 0.0
H199 H 0.1852 1.00226 0.12192 0.0
H200 H 0.2144 0.01209 0.07086 0.0
H201 H 0.26859 0.05854 0.06538 0.0
H202 H 0.21985 0.04192 0.17004 0.0
O203 O 0.22701 0.0728 0.02079 0.0
H204 H 0.28902 0.05193 0.151 0.0
H205 H 0.24021 0.03542 0.25574 0.0
C206 C 0.24311 0.03791 0.98635 0.0
C207 C 0.24742 0.04695 0.93188 0.0
C208 C 0.26284 0.04099 0.8971 0.0
C209 C 0.27439 0.02588 0.91614 0.0
C210 C 0.26892 0.01575 0.96792 0.0
C211 C 0.25339 0.02167 0.00249 0.0
C212 C 0.20559 0.04113 0.0584 0.0
C213 C 0.19077 0.05404 0.06731 0.0
C214 C 0.1742 0.04856 0.09686 0.0
C215 C 0.17206 0.03001 0.11884 0.0
C216 C 0.18644 0.01673 0.1063 0.0
C217 C 0.20304 0.02224 0.0762 0.0
C218 C 0.2428 0.04998 0.11025 0.0
C219 C 0.26222 0.05383 0.10709 0.0
C220 C 0.27388 0.05017 0.15632 0.0
C221 C 0.26624 0.04281 0.20982 0.0
C222 C 0.24653 0.04066 0.21461 0.0
C223 C 0.23488 0.04432 0.16528 0.0
P224 P 0.45241 0.22849 0.04269 0.0
H225 H 0.44657 0.24048 0.91781 0.0
H226 H 0.45845 0.26821 0.86491 0.0
H227 H 0.50102 0.27584 0.00198 0.0
H228 H 0.48896 0.24804 0.05502 0.0
H229 H 0.43174 0.19443 0.07312 0.0
H230 H 0.44003 0.16625 0.12956 0.0
H231 H 0.49847 0.18419 0.1333 0.0
H232 H 0.49006 0.21228 0.07388 0.0
H233 H 0.43173 0.2636 0.05862 0.0
H234 H 0.46958 0.22895 0.16376 0.0
O235 O 0.43091 0.22589 0.01268 0.0
H236 H 0.43694 0.28996 0.12762 0.0
H237 H 0.47537 0.25518 0.2309 0.0
C238 C 0.46678 0.24208 0.99075 0.0
C239 C 0.45898 0.24757 0.93537 0.0
C240 C 0.46576 0.2636 0.90511 0.0
C241 C 0.48044 0.27458 0.92981 0.0
C242 C 0.48944 0.26796 0.98226 0.0
C243 C 0.48275 0.25181 0.01218 0.0
C244 C 0.46027 0.20549 0.0687 0.0
C245 C 0.44647 0.1921 0.08423 0.0
C246 C 0.45121 0.17604 0.11757 0.0
C247 C 0.46986 0.1731 0.1375 0.0
C248 C 0.48396 0.18595 0.11875 0.0
C249 C 0.4792 0.20202 0.08451 0.0
C250 C 0.45026 0.24427 0.10573 0.0
C251 C 0.44058 0.2614 0.09775 0.0
C252 C 0.44378 0.27654 0.13676 0.0
C253 C 0.45688 0.27479 0.18403 0.0
C254 C 0.46512 0.25703 0.19519 0.0
C255 C 0.46185 0.24191 0.15632 0.0
Tb256 Tb 0.01969 0.99736 0.71123 0.0
Eu257 Eu 0.98566 0.0096 0.62002 0.0
C258 C 0.02871 0.01047 0.57802 0.0
C259 C 0.00801 0.04004 0.70038 0.0
C260 C 0.04832 0.97065 0.82173 0.0
C261 C 0.06899 0.95124 0.88311 0.0
C262 C 0.0659 0.96757 0.84903 0.0
C263 C 0.03372 0.95745 0.82952 0.0
C264 C 0.03678 0.94114 0.86361 0.0
C265 C 0.05452 0.93776 0.89027 0.0
C266 C 0.04572 0.98693 0.78188 0.0
O267 O 0.99414 0.99982 0.76646 0.0
O268 O 0.972 0.9932 0.69482 0.0
O269 O 0.99338 0.97965 0.59534 0.0
O270 O 0.00602 0.97073 0.68607 0.0
C271 C 0.97688 0.99473 0.75141 0.0
O272 O 0.9569 0.02018 0.60939 0.0
O273 O 0.97368 0.01382 0.53058 0.0
O274 O 0.01257 0.01963 0.57567 0.0
O275 O 0.03234 0.99854 0.62184 0.0
O276 O 0.02224 0.02809 0.70344 0.0
O277 O 0.99141 0.03459 0.68041 0.0
C278 C 0.99913 0.96644 0.63276 0.0
O279 O 0.0452 0.98286 0.72491 0.0
O280 O 0.03238 0.99878 0.79662 0.0
C281 C 0.95539 0.04146 0.52987 0.0
C282 C 0.94953 0.07927 0.49492 0.0
C283 C 0.93542 0.06555 0.48492 0.0
C284 C 0.93833 0.04673 0.50254 0.0
C285 C 0.96943 0.05509 0.53998 0.0
C286 C 0.96657 0.07377 0.52251 0.0
C287 C 0.95854 0.02215 0.55138 0.0
H288 H 0.08273 0.94913 0.90364 0.0
H289 H 0.07733 0.97763 0.84314 0.0
H290 H 0.0201 0.95956 0.80814 0.0
H291 H 0.02543 0.93091 0.86758 0.0
H292 H 0.92215 0.06938 0.46386 0.0
H293 H 0.92728 0.03635 0.49514 0.0
H294 H 0.98265 0.05126 0.56148 0.0
H295 H 0.97793 0.08382 0.5296 0.0
Tb296 Tb 0.50808 0.01411 0.70683 0.0
Eu297 Eu 0.49642 0.9802 0.61376 0.0
C298 C 0.49626 0.02377 0.5746 0.0
C299 C 0.46518 1.00212 0.69107 0.0
C300 C 0.53591 0.04526 0.80666 0.0
C301 C 0.55433 0.06671 0.86835 0.0
C302 C 0.53726 0.06188 0.84064 0.0
C303 C 0.55176 0.03349 0.80043 0.0
C304 C 0.56882 0.0383 0.82806 0.0
C305 C 0.57031 0.05498 0.86229 0.0
C306 C 0.51815 0.04054 0.77632 0.0
O307 O 0.51806 0.98825 0.75053 0.0
O308 O 0.4975 0.9675 0.7063 0.0
O309 O 0.52803 0.97789 0.62233 0.0
O310 O 0.53356 0.00836 0.65389 0.0
C311 C 0.50927 0.97184 0.74969 0.0
O312 O 0.4815 0.95368 0.59795 0.0
O313 O 0.49687 0.96685 0.52517 0.0
O314 O 0.50072 0.00652 0.55815 0.0
O315 O 0.49393 0.02802 0.63162 0.0
O316 O 0.47867 0.00726 0.72849 0.0
O317 O 0.4692 0.995 0.63806 0.0
C318 C 0.53956 0.99221 0.63112 0.0
O319 O 0.51866 0.04161 0.71793 0.0
O320 O 0.50977 0.02512 0.79441 0.0
C321 C 0.46642 0.95434 0.50398 0.0
C322 C 0.4302 0.96171 0.45675 0.0
C323 C 0.43263 0.94787 0.5014 0.0
C324 C 0.45061 0.94414 0.52461 0.0
C325 C 0.46421 0.96683 0.45528 0.0
C326 C 0.44627 0.97045 0.43186 0.0
C327 C 0.484 0.95443 0.53994 0.0
H328 H 0.55509 0.07974 0.89391 0.0
H329 H 0.52514 0.07116 0.84544 0.0
H330 H 0.55091 0.0206 0.77415 0.0
H331 H 0.58077 0.02881 0.82329 0.0
H332 H 0.42054 0.94086 0.5214 0.0
H333 H 0.45193 0.93431 0.56175 0.0
H334 H 0.47611 0.97474 0.43765 0.0
H335 H 0.44487 0.9808 0.39621 0.0
Tb336 Tb 0.48873 0.50888 0.71533 0.0
Eu337 Eu 0.52224 0.49671 0.62167 0.0
C338 C 0.47903 0.49515 0.58356 0.0
C339 C 0.50091 0.46619 0.70534 0.0
C340 C 0.46038 0.53639 0.82423 0.0
C341 C 0.43951 0.55753 0.87886 0.0
C342 C 0.44241 0.54078 0.84675 0.0
C343 C 0.47553 0.54878 0.8346 0.0
C344 C 0.47267 0.5655 0.8668 0.0
C345 C 0.45458 0.57017 0.88879 0.0
C346 C 0.46293 0.51964 0.78634 0.0
O347 O 0.51454 0.50651 0.76915 0.0
O348 O 0.53667 0.51246 0.69648 0.0
O349 O 0.51416 0.52667 0.59842 0.0
O350 O 0.50239 0.53551 0.69024 0.0
C351 C 0.53186 0.51117 0.75328 0.0
O352 O 0.55046 0.48529 0.60585 0.0
O353 O 0.53329 0.49417 0.53037 0.0
O354 O 0.49508 0.48586 0.58127 0.0
O355 O 0.47579 0.50753 0.62634 0.0
O356 O 0.48662 0.47804 0.71041 0.0
O357 O 0.51713 0.47161 0.68221 0.0
C358 C 0.50886 0.53986 0.63649 0.0
O359 O 0.46298 0.523 0.72889 0.0
O360 O 0.47652 0.50815 0.80153 0.0
C361 C 0.55045 0.46613 0.51984 0.0
C362 C 0.54909 0.4312 0.45934 0.0
C363 C 0.55834 0.44683 0.43319 0.0
C364 C 0.55898 0.46422 0.46331 0.0
C365 C 0.54198 0.45036 0.54704 0.0
C366 C 0.54136 0.43307 0.51725 0.0
C367 C 0.54824 0.4848 0.54764 0.0
H368 H 0.42537 0.56081 0.89454 0.0
H369 H 0.43053 0.53143 0.83847 0.0
H370 H 0.48949 0.54564 0.81707 0.0
H371 H 0.48464 0.57476 0.87445 0.0
H372 H 0.56449 0.44578 0.38873 0.0
H373 H 0.56545 0.47632 0.44154 0.0
H374 H 0.53503 0.45162 0.59023 0.0
H375 H 0.53377 0.42149 0.53824 0.0
Tb376 Tb 0.99889 0.488 0.71269 0.0
Eu377 Eu 0.01095 0.52217 0.62105 0.0
C378 C 0.01238 0.47918 0.58015 0.0
C379 C 0.04155 0.50034 0.70287 0.0
C380 C 0.97176 0.45887 0.82061 0.0
C381 C 0.95087 0.43762 0.87476 0.0
C382 C 0.96748 0.44074 0.8421 0.0
C383 C 0.95941 0.47394 0.83254 0.0
C384 C 0.94284 0.47086 0.8653 0.0
C385 C 0.93828 0.45262 0.88629 0.0
C386 C 0.98839 0.4617 0.78228 0.0
O387 O 1.00097 0.5135 0.76812 0.0
O388 O 0.99522 0.53613 0.6968 0.0
O389 O 0.98087 0.5145 0.59806 0.0
O390 O 0.97216 0.50157 0.68856 0.0
C391 C 0.99634 0.53093 0.75327 0.0
O392 O 0.02221 0.55054 0.60667 0.0
O393 O 0.01355 0.53364 0.53028 0.0
O394 O 0.02172 0.4952 0.57893 0.0
O395 O 0.99999 0.47572 0.62276 0.0
O396 O 0.02973 0.486 0.70694 0.0
O397 O 0.03607 0.51673 0.68114 0.0
C398 C 0.96776 0.50869 0.63568 0.0
O399 O 0.98485 0.46213 0.72497 0.0
O400 O 0.99991 0.47521 0.79801 0.0
C401 C 0.04157 0.55092 0.52083 0.0
C402 C 0.07654 0.54866 0.46081 0.0
C403 C 0.0607 0.55669 0.43211 0.0
C404 C 0.04329 0.55777 0.46197 0.0
C405 C 0.05759 0.54387 0.55054 0.0
C406 C 0.0749 0.54281 0.52096 0.0
C407 C 0.02286 0.54853 0.54838 0.0
H408 H 0.94768 0.42338 0.88963 0.0
H409 H 0.9768 0.42893 0.83261 0.0
H410 H 0.96247 0.48803 0.81584 0.0
H411 H 0.9336 0.48277 0.87418 0.0
H412 H 0.06157 0.56143 0.38589 0.0
H413 H 0.03102 0.56312 0.43824 0.0
H414 H 0.05653 0.53822 0.59565 0.0
H415 H 0.08666 0.53621 0.54413 0.0
H416 H 0.17263 0.00862 0.22181 0.0
H417 H 0.1472 0.00423 0.29502 0.0
H418 H 0.10974 0.03751 0.18444 0.0
H419 H 0.13488 0.04139 0.1099 0.0
H420 H 0.12985 0.03239 0.35855 0.0
H421 H 0.07606 0.99308 0.22694 0.0
H422 H 0.1003 0.99542 0.20237 0.0
H423 H 0.08385 0.01455 0.19157 0.0
C424 C 0.15884 0.01455 0.21205 0.0
C425 C 0.15587 0.02533 0.15962 0.0
C426 C 0.14433 0.01218 0.25437 0.0
C427 C 0.12645 0.0204 0.24523 0.0
C428 C 0.12327 0.03073 0.19222 0.0
H429 H 0.02573 0.03125 0.47355 0.0
H430 H 0.04926 0.03427 0.39289 0.0
C431 C 0.13776 0.0331 0.14983 0.0
C432 C 0.11166 0.01928 0.29305 0.0
H433 H 0.06619 0.00522 0.32167 0.0
C434 C 0.11597 0.02635 0.35048 0.0
C435 C 0.09345 0.01155 0.28258 0.0
C436 C 0.08814 0.00305 0.22271 0.0
C437 C 0.10262 0.02605 0.39738 0.0
C438 C 0.08448 0.0182 0.38707 0.0
C439 C 0.08007 0.01128 0.32955 0.0
C440 C 0.07016 0.01649 0.43604 0.0
C441 C 0.10797 0.03443 0.4574 0.0
C442 C 0.07398 0.00537 0.48689 0.0
C443 C 0.06061 0.00362 0.53296 0.0
C444 C 0.043 0.01289 0.5293 0.0
C445 C 0.03915 0.02399 0.47813 0.0
C446 C 0.05257 0.02569 0.43185 0.0
H447 H 0.12013 0.04432 0.45339 0.0
H448 H 0.09585 0.04213 0.47773 0.0
H449 H 0.11214 0.02287 0.48846 0.0
H450 H 0.08729 0.99786 0.49074 0.0
H451 H 0.06409 0.99487 0.57138 0.0
H452 H 0.44806 0.16123 0.23191 0.0
H453 H 0.45404 0.13544 0.30208 0.0
H454 H 0.50718 0.12382 0.21434 0.0
H455 H 0.50115 0.14962 0.14274 0.0
H456 H 0.45956 0.09693 0.27677 0.0
H457 H 0.52166 0.12814 0.39381 0.0
H458 H 0.50606 0.14201 0.34696 0.0
H459 H 0.52339 0.12674 0.31329 0.0
C460 C 0.46096 0.15311 0.22681 0.0
C461 C 0.47402 0.15745 0.18095 0.0
C462 C 0.46441 0.13841 0.26741 0.0
C463 C 0.48109 0.12773 0.26386 0.0
C464 C 0.49431 0.13204 0.21856 0.0
H465 H 0.4975 0.01979 0.45193 0.0
H466 H 0.49427 0.0445 0.37551 0.0
C467 C 0.49084 0.14679 0.17762 0.0
C468 C 0.48426 0.11194 0.30719 0.0
H469 H 0.5124 0.09737 0.42345 0.0
C470 C 0.47117 0.09697 0.30862 0.0
C471 C 0.49928 0.11211 0.34928 0.0
C472 C 0.51335 0.12815 0.3514 0.0
C473 C 0.47266 0.08223 0.3509 0.0
C474 C 0.48777 0.08231 0.39265 0.0
C475 C 0.50088 0.09726 0.39124 0.0
C476 C 0.48991 0.06725 0.43911 0.0
C477 C 0.45773 0.06696 0.35162 0.0
C478 C 0.48884 0.07181 0.50046 0.0
C479 C 0.49068 0.0577 0.5444 0.0
C480 C 0.49381 0.03871 0.52795 0.0
C481 C 0.49501 0.03422 0.46638 0.0
C482 C 0.49311 0.04834 0.4225 0.0
H483 H 0.44486 0.07124 0.32635 0.0
H484 H 0.4635 0.05398 0.33034 0.0
H485 H 0.45359 0.06339 0.39844 0.0
H486 H 0.48642 0.0863 0.51439 0.0
H487 H 0.48978 0.06173 0.59129 0.0
H488 H 0.33568 0.49574 0.22178 0.0
H489 H 0.361 0.50124 0.29489 0.0
H490 H 0.39654 0.4613 0.20148 0.0
H491 H 0.37153 0.45613 0.12736 0.0
H492 H 0.37632 0.47405 0.37022 0.0
H493 H 0.43275 0.50531 0.22816 0.0
H494 H 0.40842 0.50379 0.20381 0.0
H495 H 0.42355 0.48336 0.1999 0.0
C496 C 0.34906 0.48851 0.21579 0.0
C497 C 0.35153 0.47551 0.16848 0.0
C498 C 0.36348 0.49154 0.258 0.0
C499 C 0.38078 0.48181 0.25357 0.0
C500 C 0.38348 0.46923 0.20545 0.0
H501 H 0.48074 0.4721 0.48381 0.0
H502 H 0.4569 0.46847 0.4045 0.0
C503 C 0.36907 0.46616 0.16333 0.0
C504 C 0.39543 0.48379 0.30147 0.0
H505 H 0.44167 0.49574 0.32674 0.0
C506 C 0.39057 0.47892 0.36073 0.0
C507 C 0.4141 0.48998 0.28914 0.0
C508 C 0.42002 0.49608 0.22693 0.0
C509 C 0.40387 0.4798 0.40769 0.0
C510 C 0.42252 0.48608 0.39547 0.0
C511 C 0.42741 0.49089 0.33616 0.0
C512 C 0.43698 0.48814 0.44388 0.0
C513 C 0.39793 0.47358 0.4698 0.0
C514 C 0.43384 0.50054 0.49219 0.0
C515 C 0.44739 0.50261 0.5376 0.0
C516 C 0.46452 0.49243 0.5357 0.0
C517 C 0.46771 0.4801 0.487 0.0
C518 C 0.4541 0.47804 0.44148 0.0
H519 H 0.38526 0.46427 0.46834 0.0
H520 H 0.40955 0.4659 0.49292 0.0
H521 H 0.39429 0.48624 0.49697 0.0
H522 H 0.42095 0.5088 0.49451 0.0
H523 H 0.44444 0.51234 0.57404 0.0
H524 H 0.0089 0.33784 0.2133 0.0
H525 H 0.00368 0.36399 0.28363 0.0
H526 H 0.05047 0.39438 0.20521 0.0
H527 H 0.05557 0.36844 0.13405 0.0
H528 H 0.03125 0.37617 0.36744 0.0
H529 H 0.0091 0.4353 0.21875 0.0
H530 H 0.00811 0.41083 0.19544 0.0
H531 H 0.03031 0.42321 0.19599 0.0
C532 C 0.01774 0.35032 0.20979 0.0
C533 C 0.03263 0.35103 0.16782 0.0
C534 C 0.01484 0.3652 0.25042 0.0
C535 C 0.0266 0.38123 0.24958 0.0
C536 C 0.04103 0.38231 0.20628 0.0
H537 H 0.03716 0.48032 0.48451 0.0
H538 H 0.04113 0.45667 0.40472 0.0
C539 C 0.04401 0.36739 0.16584 0.0
C540 C 0.02477 0.39602 0.29702 0.0
H541 H 0.01578 0.44304 0.32034 0.0
C542 C 0.02777 0.39077 0.35715 0.0
C543 C 0.02046 0.41513 0.28358 0.0
C544 C 0.01665 0.42151 0.22002 0.0
C545 C 0.02674 0.40407 0.40407 0.0
C546 C 0.02214 0.42314 0.39085 0.0
C547 C 0.0193 0.42845 0.3306 0.0
C548 C 0.01973 0.43761 0.43913 0.0
C549 C 0.03104 0.3976 0.46728 0.0
C550 C 0.00623 0.43495 0.48467 0.0
C551 C 0.00401 0.44836 0.53043 0.0
C552 C 0.0151 0.46492 0.53154 0.0
C553 C 0.02844 0.46772 0.48534 0.0
C554 C 0.03069 0.45422 0.43955 0.0
H555 H 0.03974 0.3845 0.46752 0.0
H556 H 0.03865 0.40872 0.49295 0.0
H557 H 0.01757 0.39443 0.49087 0.0
H558 H 0.99726 0.42252 0.48466 0.0
H559 H 0.99346 0.44575 0.56477 0.0
H560 H 0.82706 0.98869 0.0857 0.0
H561 H 0.8517 0.98413 0.0097 0.0
H562 H 0.89464 0.99318 0.14427 0.0
H563 H 0.87015 0.99711 0.2208 0.0
H564 H 0.87748 0.01091 0.9759 0.0
H565 H 0.91537 0.94723 0.05738 0.0
H566 H 0.89226 0.95385 0.08487 0.0
H567 H 0.91311 0.96533 0.1135 0.0
C568 C 0.84174 0.98918 0.09953 0.0
C569 C 0.84658 0.99327 0.15952 0.0
C570 C 0.85583 0.98672 0.05586 0.0
C571 C 0.87507 0.98813 0.07121 0.0
C572 C 0.87995 0.99166 0.13136 0.0
H573 H 0.98088 0.99798 0.8739 0.0
H574 H 0.9561 0.99553 0.95062 0.0
C575 C 0.86589 0.99412 0.17502 0.0
C576 C 0.88993 0.98751 0.02365 0.0
H577 H 0.93098 0.96547 0.98166 0.0
C578 C 0.88907 1.00084 0.97686 0.0
C579 C 0.90515 0.97447 0.02505 0.0
C580 C 0.90648 0.95929 0.07257 0.0
C581 C 0.90316 1.00177 0.93234 0.0
C582 C 0.91844 0.98881 0.93392 0.0
C583 C 0.91929 0.97541 0.9805 0.0
C584 C 0.93368 0.9891 0.88768 0.0
C585 C 0.90185 0.017 0.88492 0.0
C586 C 0.92943 0.98583 0.82693 0.0
C587 C 0.94354 0.98723 0.78297 0.0
C588 C 0.96227 0.99186 0.79878 0.0
C589 C 0.96662 0.99448 0.85998 0.0
C590 C 0.95247 0.99306 0.90397 0.0
H591 H 0.89207 0.02856 0.89848 0.0
H592 H 0.91598 0.02321 0.87551 0.0
H593 H 0.89639 0.01072 0.84263 0.0
H594 H 0.91512 0.98239 0.81338 0.0
H595 H 0.93965 0.98498 0.73643 0.0
H596 H 0.52001 0.8289 0.1069 0.0
H597 H 0.52477 0.85337 0.03032 0.0
H598 H 0.50931 0.89637 0.1587 0.0
H599 H 0.50483 0.87209 0.23567 0.0
H600 H 0.48808 0.89724 0.05185 0.0
H601 H 0.56517 0.89515 0.00392 0.0
H602 H 0.55352 0.87252 0.00312 0.0
H603 H 0.55504 0.88562 0.07213 0.0
C604 C 0.51814 0.84359 0.11937 0.0
C605 C 0.51189 0.84847 0.17746 0.0
C606 C 0.52085 0.85759 0.07544 0.0
C607 C 0.51746 0.87674 0.08878 0.0
C608 C 0.51199 0.8817 0.14733 0.0
H609 H 0.53094 0.97557 0.85215 0.0
H610 H 0.53391 0.95288 0.93538 0.0
C611 C 0.50935 0.86777 0.19122 0.0
C612 C 0.51777 0.89136 0.0406 0.0
H613 H 0.54603 0.9129 0.93606 0.0
C614 C 0.50079 0.90074 0.02683 0.0
C615 C 0.53437 0.89604 0.00825 0.0
C616 C 0.55313 0.88696 0.02275 0.0
C617 C 0.49985 0.9143 0.98076 0.0
C618 C 0.51629 0.91853 0.947 0.0
C619 C 0.53341 0.90955 0.9617 0.0
C620 C 0.51564 0.93183 0.89517 0.0
C621 C 0.48122 0.92402 0.96858 0.0
C622 C 0.50474 0.92736 0.84447 0.0
C623 C 0.503 0.94023 0.79707 0.0
C624 C 0.5122 0.95791 0.79905 0.0
C625 C 0.52361 0.96214 0.84916 0.0
C626 C 0.52536 0.94918 0.89673 0.0
H627 H 0.47135 0.92275 0.00728 0.0
H628 H 0.48338 0.93926 0.95848 0.0
H629 H 0.4744 0.91736 0.92894 0.0
H630 H 0.49736 0.91395 0.84188 0.0
H631 H 0.49422 0.93635 0.75915 0.0
H632 H 0.68121 0.51556 0.09204 0.0
H633 H 0.65706 0.52075 0.01479 0.0
H634 H 0.61327 0.50944 0.14496 0.0
H635 H 0.63726 0.50478 0.22266 0.0
H636 H 0.63147 0.49391 0.97633 0.0
H637 H 0.59304 0.55665 0.06251 0.0
H638 H 0.6161 0.54986 0.09005 0.0
H639 H 0.59521 0.538 0.11685 0.0
C640 C 0.66643 0.51467 0.10462 0.0
C641 C 0.6612 0.50974 0.16365 0.0
C642 C 0.65263 0.5175 0.06027 0.0
C643 C 0.63331 0.51567 0.07407 0.0
C644 C 0.62804 0.51128 0.13332 0.0
H645 H 0.52805 0.50774 0.87566 0.0
H646 H 0.55293 0.50979 0.95193 0.0
C647 C 0.64181 0.50842 0.17761 0.0
C648 C 0.61876 0.51681 0.02574 0.0
H649 H 0.57782 0.53913 0.9844 0.0
C650 C 0.61986 0.50394 0.97775 0.0
C651 C 0.60352 0.52981 0.02778 0.0
C652 C 0.60194 0.54449 0.07675 0.0
C653 C 0.60592 0.50336 0.93273 0.0
C654 C 0.59058 0.51625 0.93499 0.0
C655 C 0.58956 0.52925 0.98267 0.0
C656 C 0.57533 0.51617 0.8888 0.0
C657 C 0.60741 0.4885 0.8842 0.0
C658 C 0.57952 0.51956 0.82804 0.0
C659 C 0.56535 0.51835 0.78425 0.0
C660 C 0.5466 0.51385 0.8003 0.0
C661 C 0.54232 0.51115 0.86153 0.0
C662 C 0.55653 0.51234 0.90528 0.0
H663 H 0.61715 0.47685 0.8972 0.0
H664 H 0.59332 0.48235 0.87386 0.0
H665 H 0.61301 0.49511 0.84259 0.0
H666 H 0.59384 0.52295 0.81435 0.0
H667 H 0.56917 0.52068 0.73769 0.0
H668 H 0.98946 0.67846 0.09845 0.0
H669 H 0.98483 0.65443 0.02053 0.0
H670 H 0.99585 0.61045 0.15027 0.0
H671 H 0.99994 0.63432 0.22872 0.0
H672 H 0.01212 0.62928 0.98295 0.0
H673 H 0.94936 0.5899 0.06466 0.0
H674 H 0.95574 0.61295 0.09324 0.0
H675 H 0.96773 0.59212 0.11991 0.0
C676 C 0.99038 0.66366 0.11083 0.0
C677 C 0.99507 0.65835 0.16998 0.0
C678 C 0.98788 0.64993 0.06608 0.0
C679 C 0.98981 0.6306 0.07953 0.0
C680 C 0.99394 0.62523 0.13888 0.0
H681 H 0.99938 0.52632 0.8755 0.0
H682 H 0.99691 0.55069 0.95336 0.0
C683 C 0.99647 0.63893 0.18361 0.0
C684 C 0.9891 0.61617 0.03072 0.0
H685 H 0.9673 0.57525 0.98644 0.0
C686 C 1.00219 0.61759 0.98339 0.0
C687 C 0.97623 0.60081 0.0315 0.0
C688 C 0.96135 0.5989 0.07974 0.0
C689 C 0.00308 0.60386 0.93773 0.0
C690 C 0.99029 0.58844 0.93864 0.0
C691 C 0.9771 0.58707 0.98574 0.0
C692 C 0.99062 0.57347 0.8915 0.0
C693 C 0.01813 0.60571 0.88993 0.0
C694 C 0.98744 0.57805 0.83092 0.0
C695 C 0.98889 0.56417 0.78625 0.0
C696 C 0.99344 0.54534 0.80119 0.0
C697 C 0.99595 0.54067 0.86221 0.0
C698 C 0.99452 0.55459 0.90687 0.0
H699 H 0.02968 0.61542 0.90401 0.0
H700 H 0.02439 0.59171 0.87897 0.0
H701 H 0.01168 0.61154 0.8484 0.0
H702 H 0.98401 0.59243 0.81806 0.0
H703 H 0.9867 0.56829 0.73988 0.0
H704 H 0.03694 0.20795 0.29395 0.0
H705 H 0.01662 0.18453 0.34304 0.0
H706 H 0.96711 0.21567 0.28758 0.0
H707 H 0.98734 0.23918 0.23837 0.0
H708 H 0.96494 0.19995 0.40717 0.0
H709 H 0.98635 0.1477 0.23427 0.0
H710 H 0.00612 0.15835 0.27197 0.0
H711 H 0.99077 0.17275 0.22646 0.0
C712 C 0.02174 0.20991 0.29286 0.0
C713 C 0.01371 0.22525 0.26191 0.0
C714 C 0.01017 0.19657 0.32085 0.0
C715 C 0.99041 0.19826 0.3178 0.0
C716 C 0.98235 0.21414 0.29014 0.0
H717 H 0.93443 0.09149 0.38845 0.0
H718 H 0.93758 0.12304 0.34465 0.0
C719 C 0.99392 0.22756 0.26232 0.0
C720 C 0.97832 0.18268 0.33961 0.0
H721 H 0.97123 0.13539 0.32183 0.0
C722 C 0.96606 0.18585 0.38819 0.0
C723 C 0.97935 0.16451 0.31335 0.0
C724 C 0.9912 0.16062 0.25821 0.0
C725 C 0.95575 0.1709 0.4139 0.0
C726 C 0.95812 0.15236 0.39091 0.0
C727 C 0.96943 0.14955 0.33979 0.0
C728 C 0.95116 0.13531 0.42271 0.0
C729 C 0.94268 0.17508 0.46582 0.0
C730 C 0.95688 0.13197 0.48216 0.0
C731 C 0.95479 0.11406 0.5076 0.0
C732 C 0.94735 0.09903 0.47358 0.0
C733 C 0.94018 0.10277 0.41587 0.0
C734 C 0.94205 0.12079 0.39068 0.0
H735 H 0.93659 0.18953 0.46182 0.0
H736 H 0.93093 0.16469 0.46855 0.0
H737 H 0.95086 0.17457 0.50838 0.0
H738 H 0.96428 0.14276 0.50749 0.0
H739 H 0.96009 0.11171 0.55267 0.0
H740 H 0.29876 0.05866 0.25422 0.0
H741 H 0.3229 0.04279 0.31505 0.0
H742 H 0.28681 0.99387 0.3319 0.0
H743 H 0.26281 0.00938 0.2701 0.0
H744 H 0.32249 0.02276 0.43484 0.0
H745 H 0.33517 0.97681 0.23502 0.0
H746 H 0.32219 0.99875 0.22996 0.0
H747 H 0.31133 0.97828 0.26302 0.0
C748 C 0.29585 0.04466 0.27176 0.0
C749 C 0.279 0.03519 0.25681 0.0
C750 C 0.30957 0.03568 0.30676 0.0
C751 C 0.30664 0.01712 0.32712 0.0
C752 C 0.2893 0.00817 0.31616 0.0
H753 H 0.39805 0.9407 0.43755 0.0
H754 H 0.36619 0.95261 0.41534 0.0
C755 C 0.27557 0.01713 0.28121 0.0
C756 C 0.32258 0.00644 0.35315 0.0
H757 H 0.35551 0.97302 0.31714 0.0
C758 C 0.32962 0.01172 0.4096 0.0
C759 C 0.33171 0.99202 0.31996 0.0
C760 C 0.32486 0.98612 0.25845 0.0
C761 C 0.34592 0.00319 0.43327 0.0
C762 C 0.35557 0.9894 0.39872 0.0
C763 C 0.34805 0.98359 0.34343 0.0
C764 C 0.3744 0.98213 0.41608 0.0
C765 C 0.35275 0.00912 0.49471 0.0
C766 C 0.38953 0.99477 0.42279 0.0
C767 C 0.40762 0.98805 0.43542 0.0
C768 C 0.41101 0.96851 0.44087 0.0
C769 C 0.39584 0.95583 0.43386 0.0
C770 C 0.37767 0.9626 0.42125 0.0
H771 H 0.34089 0.01445 0.52283 0.0
H772 H 0.35973 0.99722 0.51862 0.0
H773 H 0.36315 0.02079 0.48977 0.0
H774 H 0.38741 0.00986 0.41743 0.0
H775 H 0.41893 0.99822 0.44163 0.0
H776 H 0.46627 0.27863 0.30331 0.0
H777 H 0.48323 0.30514 0.3497 0.0
H778 H 0.48135 0.33564 0.18193 0.0
H779 H 0.46494 0.30919 0.13479 0.0
H780 H 0.51962 0.31971 0.30122 0.0
H781 H 0.46262 0.37389 0.31326 0.0
H782 H 0.45773 0.34884 0.30797 0.0
H783 H 0.46503 0.3618 0.24253 0.0
C784 C 0.46929 0.29107 0.2765 0.0
C785 C 0.46417 0.29182 0.21542 0.0
C786 C 0.47895 0.30616 0.30305 0.0
C787 C 0.48341 0.32228 0.26915 0.0
C788 C 0.47776 0.32338 0.20893 0.0
H789 H 0.5384 0.42868 0.34176 0.0
H790 H 0.52537 0.40098 0.29098 0.0
C791 C 0.46823 0.30829 0.18225 0.0
C792 C 0.49497 0.33755 0.29535 0.0
H793 H 0.49375 0.38415 0.33426 0.0
C794 C 0.514 0.33381 0.30884 0.0
C795 C 0.48755 0.35587 0.30447 0.0
C796 C 0.46708 0.36041 0.29179 0.0
C797 C 0.52598 0.3481 0.33049 0.0
C798 C 0.51854 0.36644 0.33988 0.0
C799 C 0.49946 0.37011 0.32651 0.0
C800 C 0.5299 0.38197 0.3659 0.0
C801 C 0.54653 0.34354 0.34185 0.0
C802 C 0.53745 0.38025 0.42394 0.0
C803 C 0.54519 0.39599 0.45273 0.0
C804 C 0.54523 0.41378 0.42432 0.0
C805 C 0.53878 0.41516 0.3647 0.0
C806 C 0.53116 0.39938 0.33579 0.0
H807 H 0.5512 0.33103 0.31545 0.0
H808 H 0.55578 0.35573 0.33045 0.0
H809 H 0.54848 0.34018 0.39018 0.0
H810 H 0.53636 0.36703 0.44837 0.0
H811 H 0.55025 0.39445 0.49844 0.0
H812 H 0.19878 0.46263 0.14417 0.0
H813 H 0.17252 0.47875 0.19352 0.0
H814 H 0.20572 0.48442 0.35501 0.0
H815 H 0.23206 0.46773 0.3066 0.0
H816 H 0.15382 0.47013 0.31253 0.0
H817 H 0.19015 0.53998 0.29705 0.0
H818 H 0.19665 0.52015 0.2501 0.0
H819 H 0.20329 0.52041 0.32787 0.0
C820 C 0.20037 0.46675 0.19078 0.0
C821 C 0.21755 0.46387 0.22148 0.0
C822 C 0.1854 0.47614 0.21863 0.0
C823 C 0.18739 0.48296 0.27735 0.0
C824 C 0.20412 0.47944 0.30924 0.0
H825 H 0.11341 0.55153 0.49812 0.0
H826 H 0.14094 0.53653 0.45142 0.0
C827 C 0.2191 0.46992 0.28155 0.0
C828 C 0.17209 0.49433 0.30415 0.0
H829 H 0.15986 0.53956 0.34142 0.0
C830 C 0.15509 0.4853 0.31904 0.0
C831 C 0.17396 0.51407 0.31243 0.0
C832 C 0.19193 0.52436 0.29581 0.0
C833 C 0.13981 0.49554 0.34253 0.0
C834 C 0.14149 0.51539 0.34958 0.0
C835 C 0.15861 0.52438 0.33536 0.0
C836 C 0.12566 0.52688 0.37295 0.0
C837 C 0.12214 0.48494 0.36061 0.0
C838 C 0.10827 0.52727 0.34263 0.0
C839 C 0.09249 0.53561 0.36942 0.0
C840 C 0.09393 0.54388 0.42673 0.0
C841 C 0.1118 0.54494 0.45446 0.0
C842 C 0.12754 0.53646 0.42779 0.0
H843 H 0.12495 0.4696 0.36715 0.0
H844 H 0.1161 0.49076 0.40283 0.0
H845 H 0.11137 0.4864 0.32461 0.0
H846 H 0.1067 0.52032 0.29952 0.0
H847 H 0.07896 0.53446 0.34692 0.0
H848 H 0.08609 0.78353 0.20069 0.0
H849 H 0.0917 0.81294 0.14479 0.0
H850 H 0.03759 0.80685 0.05737 0.0
H851 H 0.03176 0.77776 0.11314 0.0
H852 H 0.06737 0.81892 0.98006 0.0
H853 H 0.06207 0.86156 0.18999 0.0
H854 H 0.07943 0.84295 0.18941 0.0
H855 H 0.05472 0.83713 0.18643 0.0
C856 C 0.07547 0.7884 0.16918 0.0
C857 C 0.05845 0.77834 0.16155 0.0
C858 C 0.0787 0.80517 0.13735 0.0
C859 C 0.06494 0.81214 0.09766 0.0
C860 C 0.04839 0.80166 0.08778 0.0
H861 H 0.03111 0.92021 0.97066 0.0
H862 H 0.03606 0.88978 0.02073 0.0
C863 C 0.04515 0.78495 0.11948 0.0
C864 C 0.06698 0.8309 0.06897 0.0
H865 H 0.06567 0.87824 0.09935 0.0
C866 C 0.06727 0.83192 0.00601 0.0
C867 C 0.06657 0.84776 0.10322 0.0
C868 C 0.06554 0.84744 0.171 0.0
C869 C 0.06672 0.84941 0.97619 0.0
C870 C 0.06609 0.86626 0.01045 0.0
C871 C 0.06627 0.86525 0.07341 0.0
C872 C 0.06373 0.88499 0.98183 0.0
C873 C 0.06594 0.84972 0.9084 0.0
C874 C 0.07779 0.89247 0.94424 0.0
C875 C 0.07496 0.9098 0.9153 0.0
C876 C 0.05802 0.91994 0.92367 0.0
C877 C 0.04418 0.9126 0.96264 0.0
C878 C 0.04704 0.8953 0.99156 0.0
H879 H 0.06299 0.83549 0.88932 0.0
H880 H 0.05486 0.85969 0.89254 0.0
H881 H 0.07975 0.85464 0.89052 0.0
H882 H 0.09087 0.88481 0.93684 0.0
H883 H 0.08582 0.91501 0.8852 0.0
H884 H 0.72203 0.08534 0.18207 0.0
H885 H 0.6929 0.09096 0.12457 0.0
H886 H 0.69982 0.03719 0.03582 0.0
H887 H 0.72856 0.03125 0.09346 0.0
H888 H 0.68509 0.08721 0.98467 0.0
H889 H 0.64771 0.03757 0.13848 0.0
H890 H 0.66933 0.04954 0.15933 0.0
H891 H 0.67009 0.02966 0.10917 0.0
C892 C 0.71746 0.07484 0.14973 0.0
C893 C 0.72757 0.05782 0.1425 0.0
C894 C 0.70092 0.07813 0.11677 0.0
C895 C 0.69428 0.06442 0.07645 0.0
C896 C 0.70481 0.0479 0.06685 0.0
H897 H 0.60622 0.05186 0.8172 0.0
H898 H 0.63602 0.0572 0.87023 0.0
C899 C 0.72131 0.04462 0.09956 0.0
C900 C 0.6755 0.06636 0.04829 0.0
H901 H 0.63123 0.04724 0.05118 0.0
C902 C 0.67321 0.07866 0.99939 0.0
C903 C 0.66007 0.05533 0.06836 0.0
C904 C 0.66176 0.04235 0.122 0.0
C905 C 0.65592 0.07967 0.96841 0.0
C906 C 0.64075 0.06792 0.98669 0.0
C907 C 0.6429 0.05619 0.03712 0.0
C908 C 0.6228 0.0667 0.95267 0.0
C909 C 0.65405 0.09322 0.91634 0.0
C910 C 0.60549 0.07006 0.98167 0.0
C911 C 0.58843 0.06673 0.9518 0.0
C912 C 0.58839 0.05986 0.89248 0.0
C913 C 0.60578 0.05695 0.8631 0.0
C914 C 0.62282 0.06027 0.89302 0.0
H915 H 0.66447 0.10495 0.91956 0.0
H916 H 0.65679 0.0855 0.87379 0.0
H917 H 0.63959 0.09933 0.91412 0.0
H918 H 0.60519 0.07483 0.02795 0.0
H919 H 0.57529 0.06891 0.97591 0.0
H920 H 0.442 0.73923 0.10022 0.0
H921 H 0.43825 0.70972 0.04348 0.0
H922 H 0.44492 0.6776 0.20693 0.0
H923 H 0.44908 0.70685 0.26361 0.0
H924 H 0.47084 0.66878 0.11214 0.0
H925 H 0.3959 0.66833 0.03555 0.0
H926 H 0.40876 0.69004 0.02424 0.0
H927 H 0.40384 0.68208 0.09925 0.0
C928 C 0.44234 0.72588 0.12415 0.0
C929 C 0.44584 0.72538 0.18638 0.0
C930 C 0.44004 0.70907 0.09179 0.0
C931 C 0.44118 0.69154 0.12121 0.0
C932 C 0.44384 0.69103 0.1836 0.0
H933 H 0.43264 0.57638 0.98855 0.0
H934 H 0.42833 0.60616 0.04326 0.0
C935 C 0.44608 0.70778 0.21596 0.0
C936 C 0.44189 0.67376 0.08639 0.0
H937 H 0.41617 0.64475 0.99482 0.0
C938 C 0.45888 0.66348 0.08664 0.0
C939 C 0.42622 0.66694 0.05342 0.0
C940 C 0.40757 0.6773 0.05319 0.0
C941 C 0.4607 0.6466 0.05418 0.0
C942 C 0.44516 0.63994 0.02036 0.0
C943 C 0.42806 0.65004 0.02063 0.0
C944 C 0.44658 0.6224 0.98467 0.0
C945 C 0.47918 0.63592 0.0565 0.0
C946 C 0.45802 0.62186 0.93325 0.0
C947 C 0.46043 0.60496 0.90173 0.0
C948 C 0.45145 0.58827 0.92121 0.0
C949 C 0.43963 0.589 0.97208 0.0
C950 C 0.43717 0.60597 0.00346 0.0
H951 H 0.48855 0.64111 0.09307 0.0
H952 H 0.47661 0.62055 0.0632 0.0
H953 H 0.48674 0.6377 0.01312 0.0
H954 H 0.46524 0.6345 0.9179 0.0
H955 H 0.4693 0.60498 0.86203 0.0
H956 H 0.76976 0.43745 0.09764 0.0
H957 H 0.79953 0.43375 0.04237 0.0
H958 H 0.83087 0.44214 0.20648 0.0
H959 H 0.80135 0.44637 0.26162 0.0
H960 H 0.84003 0.46733 0.11284 0.0
H961 H 0.84136 0.39252 0.03565 0.0
H962 H 0.81967 0.4051 0.02163 0.0
H963 H 0.82683 0.40043 0.09764 0.0
C964 C 0.78299 0.43817 0.12208 0.0
C965 C 0.78318 0.44222 0.184 0.0
C966 C 0.79997 0.43588 0.09056 0.0
C967 C 0.81736 0.43755 0.12051 0.0
C968 C 0.81756 0.44067 0.18272 0.0
H969 H 0.93249 0.42998 0.98481 0.0
H970 H 0.90295 0.42526 0.04049 0.0
C971 C 0.80065 0.44294 0.21422 0.0
C972 C 0.83526 0.43841 0.08623 0.0
H973 H 0.86446 0.41322 0.99371 0.0
C974 C 0.84542 0.45547 0.08705 0.0
C975 C 0.84223 0.42289 0.05284 0.0
C976 C 0.83208 0.40412 0.05205 0.0
C977 C 0.86229 0.45753 0.05463 0.0
C978 C 0.86904 0.44217 0.02014 0.0
C979 C 0.85909 0.42498 0.01999 0.0
C980 C 0.88646 0.4439 0.98394 0.0
C981 C 0.87282 0.47609 0.05761 0.0
C982 C 0.88678 0.4557 0.93331 0.0
C983 C 0.90355 0.45835 0.90124 0.0
C984 C 0.92032 0.44925 0.91934 0.0
C985 C 0.91981 0.43707 0.9694 0.0
C986 C 0.90298 0.43438 1.00133 0.0
H987 H 0.86772 0.48517 0.09504 0.0
H988 H 0.88824 0.47362 0.06336 0.0
H989 H 0.87075 0.48391 0.01484 0.0
H990 H 0.87407 0.463 0.91898 0.0
H991 H 0.90336 0.4675 0.86217 0.0
H992 H 1.00125 0.2151 0.88542 0.0
H993 H 0.99619 0.18341 0.84304 0.0
H994 H 0.0552 0.17044 0.86911 0.0
H995 H 0.06029 0.20167 0.9128 0.0
H996 H 0.01365 0.16458 0.74309 0.0
H997 H 0.02799 0.12722 0.95763 0.0
H998 H 0.02334 0.15233 0.95412 0.0
H999 H 0.04637 0.14329 0.93513 0.0
C1000 C 0.01315 0.2055 0.88222 0.0
C1001 C 0.03119 0.21107 0.90268 0.0
C1002 C 0.01025 0.1874 0.8577 0.0
C1003 C 0.02525 0.1744 0.85369 0.0
C1004 C 0.04333 0.18008 0.87254 0.0
H1005 H 0.04001 0.05691 0.74588 0.0
H1006 H 0.04383 0.08965 0.7799 0.0
C1007 C 0.04626 0.19812 0.89684 0.0
C1008 C 0.0221 0.1548 0.83065 0.0
H1009 H 0.02567 0.10814 0.87023 0.0
C1010 C 0.01616 0.15223 0.77095 0.0
C1011 C 0.02538 0.13865 0.86696 0.0
C1012 C 0.03095 0.14043 0.93219 0.0
C1013 C 0.01394 0.134 0.74613 0.0
C1014 C 0.01738 0.11783 0.78236 0.0
C1015 C 0.02313 0.12045 0.84224 0.0
C1016 C 0.01511 0.09807 0.75936 0.0
C1017 C 0.00847 0.13225 0.6808 0.0
C1018 C 0.99765 0.09175 0.73673 0.0
C1019 C 0.99544 0.07303 0.71701 0.0
C1020 C 0.01058 0.06008 0.71998 0.0
C1021 C 0.02804 0.06644 0.74277 0.0
C1022 C 0.03025 0.08519 0.76235 0.0
H1023 H 0.01167 0.14541 0.6554 0.0
H1024 H 0.01596 0.12025 0.659 0.0
H1025 H 0.99302 0.12964 0.67754 0.0
H1026 H 0.9856 0.1012 0.7352 0.0
H1027 H 0.98176 0.06868 0.69997 0.0
H1028 H 0.29162 0.99141 0.89416 0.0
H1029 H 0.32302 0.9857 0.8509 0.0
H1030 H 0.33075 0.04573 0.82663 0.0
H1031 H 0.2996 0.05159 0.86998 0.0
H1032 H 0.3427 0.02524 0.72778 0.0
H1033 H 0.37295 0.99541 0.93783 0.0
H1034 H 0.35217 0.98351 0.91076 0.0
H1035 H 0.35051 0.0076 0.9362 0.0
C1036 C 0.29999 0.00341 0.87972 0.0
C1037 C 0.29293 0.02198 0.88571 0.0
C1038 C 0.31799 1.00012 0.85502 0.0
C1039 C 0.32943 0.0153 0.83619 0.0
C1040 C 0.32224 0.03376 0.8407 0.0
H1041 H 0.45105 0.01956 0.79165 0.0
H1042 H 0.41803 0.0223 0.82314 0.0
C1043 C 0.30429 0.03707 0.86526 0.0
C1044 C 0.34902 0.01217 0.81281 0.0
H1045 H 0.39277 0.99564 0.85246 0.0
C1046 C 0.35364 0.0187 0.75494 0.0
C1047 C 0.36339 0.00384 0.84846 0.0
C1048 C 0.35963 0.99732 0.91196 0.0
C1049 C 0.37216 0.01723 0.73189 0.0
C1050 C 0.38651 0.00872 0.76734 0.0
C1051 C 0.38183 1.00209 0.82508 0.0
C1052 C 0.40661 0.00721 0.74667 0.0
C1053 C 0.37627 0.02537 0.67052 0.0
C1054 C 0.41137 0.99771 0.69321 0.0
C1055 C 0.43031 0.99626 0.67473 0.0
C1056 C 0.44499 0.00406 0.70971 0.0
C1057 C 0.44018 0.0134 0.76346 0.0
C1058 C 0.42125 0.01495 0.78164 0.0
H1059 H 0.36535 0.03581 0.65668 0.0
H1060 H 0.39032 0.0324 0.66947 0.0
H1061 H 0.37631 0.01378 0.63688 0.0
H1062 H 0.40046 0.99118 0.66605 0.0
H1063 H 0.43344 0.98879 0.63338 0.0
H1064 H 0.48693 0.30742 0.99192 0.0
H1065 H 0.4909 0.33938 0.9519 0.0
H1066 H 0.4875 0.31753 0.77129 0.0
H1067 H 0.48334 0.28545 0.8111 0.0
H1068 H 0.51686 0.35589 0.88089 0.0
H1069 H 0.44718 0.35796 0.76678 0.0
H1070 H 0.4536 0.33945 0.81879 0.0
H1071 H 0.46189 0.33874 0.74233 0.0
C1072 C 0.48732 0.30932 0.94362 0.0
C1073 C 0.48479 0.29377 0.90479 0.0
C1074 C 0.48946 0.32768 0.92076 0.0
C1075 C 0.4891 0.33103 0.8585 0.0
C1076 C 0.48728 0.31546 0.81951 0.0
H1077 H 0.52594 0.43686 0.691 0.0
H1078 H 0.52303 0.40435 0.72691 0.0
C1079 C 0.48502 0.29708 0.84236 0.0
C1080 C 0.49057 0.3508 0.83482 0.0
H1081 H 0.46793 0.3837 0.74767 0.0
C1082 C 0.50614 0.36195 0.85178 0.0
C1083 C 0.47644 0.35893 0.79766 0.0
C1084 C 0.45874 0.34824 0.78075 0.0
C1085 C 0.5081 0.38081 0.83217 0.0
C1086 C 0.49432 0.38872 0.79325 0.0
C1087 C 0.47862 0.37765 0.77691 0.0
C1088 C 0.49582 0.40849 0.76962 0.0
C1089 C 0.52471 0.39221 0.85468 0.0
C1090 C 0.48118 0.42163 0.77942 0.0
C1091 C 0.48268 0.44028 0.7581 0.0
C1092 C 0.49887 0.44623 0.72637 0.0
C1093 C 0.51333 0.43292 0.71566 0.0
C1094 C 0.51176 0.41428 0.73663 0.0
H1095 H 0.5306 0.3862 0.8969 0.0
H1096 H 0.53611 0.392 0.82036 0.0
H1097 H 0.52065 0.40716 0.86302 0.0
H1098 H 0.46867 0.41753 0.80438 0.0
H1099 H 0.47125 0.45007 0.76715 0.0
H1100 H 0.22218 0.4804 0.80828 0.0
H1101 H 0.19031 0.48534 0.7676 0.0
H1102 H 0.16831 0.49056 0.94764 0.0
H1103 H 0.20003 0.48589 0.9884 0.0
H1104 H 0.159 0.46456 0.78043 0.0
H1105 H 0.14463 0.53607 0.87073 0.0
H1106 H 0.16794 0.52568 0.87181 0.0
H1107 H 0.15087 0.5196 0.92878 0.0
C1108 C 0.21058 0.48279 0.83919 0.0
C1109 C 0.21378 0.48296 0.90167 0.0
C1110 C 0.19234 0.48561 0.81586 0.0
C1111 C 0.17683 0.48865 0.85437 0.0
C1112 C 0.18002 0.48882 0.91673 0.0
H1113 H 0.05777 0.4703 0.76252 0.0
H1114 H 0.09046 0.46732 0.79772 0.0
C1115 C 0.19824 0.48615 0.94005 0.0
C1116 C 0.15726 0.49076 0.82958 0.0
H1117 H 0.11797 0.51904 0.83295 0.0
C1118 C 0.15009 0.47655 0.79164 0.0
C1119 C 0.1456 0.5065 0.84334 0.0
C1120 C 0.15271 0.52292 0.88037 0.0
C1121 C 0.13158 0.47745 0.76821 0.0
C1122 C 0.11964 0.49276 0.78422 0.0
C1123 C 0.12695 0.50716 0.82116 0.0
C1124 C 0.09967 0.49436 0.76239 0.0
C1125 C 0.12519 0.46214 0.72552 0.0
C1126 C 0.09364 0.51076 0.73218 0.0
C1127 C 0.07487 0.51262 0.71278 0.0
C1128 C 0.06158 0.49811 0.72295 0.0
C1129 C 0.06761 0.48169 0.75331 0.0
C1130 C 0.08639 0.47991 0.77316 0.0
H1131 H 0.13742 0.45492 0.70399 0.0
H1132 H 0.11708 0.45132 0.75087 0.0
H1133 H 0.11593 0.46796 0.68969 0.0
H1134 H 0.10351 0.52216 0.72342 0.0
H1135 H 0.07082 0.5255 0.68981 0.0
H1136 H 0.98573 0.78478 0.53192 0.0
H1137 H 0.9843 0.81698 0.57266 0.0
H1138 H 0.99918 0.83961 0.39922 0.0
H1139 H 1.00139 0.80761 0.35845 0.0
H1140 H 0.01994 0.84655 0.54983 0.0
H1141 H 0.94755 0.86746 0.47636 0.0
H1142 H 0.95346 0.84319 0.49411 0.0
H1143 H 0.96218 0.8537 0.42624 0.0
C1144 C 0.98871 0.79656 0.50228 0.0
C1145 C 0.99369 0.79343 0.44169 0.0
C1146 C 0.98779 0.81497 0.52567 0.0
C1147 C 0.99161 0.83064 0.48889 0.0
C1148 C 0.99606 0.82769 0.42821 0.0
H1149 H 0.99096 0.95237 0.52113 0.0
H1150 H 0.98916 0.91929 0.48997 0.0
C1151 C 0.99713 0.80932 0.40487 0.0
C1152 C 0.9919 0.85008 0.51421 0.0
H1153 H 0.96631 0.891 0.52206 0.0
C1154 C 0.00819 0.85627 0.54431 0.0
C1155 C 0.97662 0.8627 0.50623 0.0
C1156 C 0.95886 0.85656 0.47417 0.0
C1157 C 0.0098 0.87497 0.56556 0.0
C1158 C 0.99445 0.88768 0.55788 0.0
C1159 C 0.97806 0.88132 0.52823 0.0
C1160 C 0.99538 0.90783 0.578 0.0
C1161 C 0.02823 0.88107 0.59382 0.0
C1162 C 0.99924 0.91254 0.63818 0.0
C1163 C 1.0005 0.93153 0.65609 0.0
C1164 C 0.99758 0.94624 0.61441 0.0
C1165 C 0.99328 0.94146 0.55453 0.0
C1166 C 0.99223 0.9225 0.53658 0.0
H1167 H 0.04007 0.87154 0.58104 0.0
H1168 H 0.03198 0.89575 0.58046 0.0
H1169 H 0.02681 0.88061 0.64347 0.0
H1170 H 1.00123 0.90154 0.67146 0.0
H1171 H 0.00366 0.93467 0.70268 0.0
H1172 H 0.71405 0.01686 0.495 0.0
H1173 H 0.68224 0.01356 0.536 0.0
H1174 H 0.67322 0.96397 0.42682 0.0
H1175 H 0.70521 0.96721 0.38519 0.0
H1176 H 0.64373 0.98852 0.4195 0.0
H1177 H 0.66132 0.97739 0.65926 0.0
H1178 H 0.67202 0.99841 0.62947 0.0
H1179 H 0.67882 0.97561 0.60042 0.0
C1180 C 0.70552 0.00496 0.48062 0.0
C1181 C 0.71237 0.99217 0.43717 0.0
C1182 C 0.68726 0.0031 0.50421 0.0
C1183 C 0.67538 0.98831 0.4855 0.0
C1184 C 0.68214 0.97544 0.4423 0.0
H1185 H 0.55634 0.96339 0.56768 0.0
H1186 H 0.58916 0.9614 0.53299 0.0
C1187 C 0.70044 0.97733 0.41843 0.0
C1188 C 0.65558 0.98701 0.50853 0.0
H1189 H 0.62921 0.98585 0.63754 0.0
C1190 C 0.64057 0.98769 0.46714 0.0
C1191 C 0.65138 0.98597 0.57075 0.0
C1192 C 0.66674 0.98411 0.61749 0.0
C1193 C 0.62159 0.988 0.48627 0.0
C1194 C 0.61743 0.98739 0.54849 0.0
C1195 C 0.6324 0.98641 0.58987 0.0
C1196 C 0.59765 0.9882 0.57146 0.0
C1197 C 0.60612 0.98959 0.4398 0.0
C1198 C 0.5916 0.00368 0.60605 0.0
C1199 C 0.57283 0.00488 0.62603 0.0
C1200 C 0.55972 0.9905 0.61231 0.0
C1201 C 0.56598 0.97476 0.57897 0.0
C1202 C 0.58474 0.97363 0.55876 0.0
H1203 H 0.61172 0.99392 0.3952 0.0
H1204 H 0.5991 0.97563 0.43461 0.0
H1205 H 0.59523 0.99999 0.45417 0.0
H1206 H 0.60134 0.01504 0.61672 0.0
H1207 H 0.56859 0.01715 0.65191 0.0
H1208 H 0.53727 0.70744 0.41108 0.0
H1209 H 0.53886 0.67473 0.44852 0.0
H1210 H 0.48681 0.68312 0.54583 0.0
H1211 H 0.48498 0.71559 0.50851 0.0
H1212 H 0.53603 0.66074 0.58118 0.0
H1213 H 0.47941 0.63603 0.42606 0.0
H1214 H 0.4933 0.65701 0.41142 0.0
H1215 H 0.47495 0.65754 0.46712 0.0
C1216 C 0.52622 0.70235 0.44072 0.0
C1217 C 0.51104 0.71422 0.45692 0.0
C1218 C 0.52719 0.68369 0.46224 0.0
C1219 C 0.5129 0.6765 0.4997 0.0
C1220 C 0.49797 0.68839 0.51689 0.0
H1221 H 0.50228 0.57167 0.70478 0.0
H1222 H 0.50413 0.60484 0.67276 0.0
C1223 C 0.49705 0.70702 0.49585 0.0
C1224 C 0.51308 0.65638 0.5192 0.0
H1225 H 0.49037 0.61417 0.49844 0.0
C1226 C 0.5261 0.65052 0.56308 0.0
C1227 C 0.50017 0.64308 0.49523 0.0
C1228 C 0.4862 0.64858 0.44704 0.0
C1229 C 0.52633 0.63173 0.58427 0.0
C1230 C 0.51316 0.61851 0.56109 0.0
C1231 C 0.50037 0.62434 0.51648 0.0
C1232 C 0.51262 0.59845 0.58154 0.0
C1233 C 0.54081 0.62606 0.63072 0.0
C1234 C 0.51654 0.58381 0.54079 0.0
C1235 C 0.51552 0.56486 0.55889 0.0
C1236 C 0.51035 0.56008 0.61813 0.0
C1237 C 0.50637 0.5748 0.65891 0.0
C1238 C 0.50751 0.59379 0.64077 0.0
H1239 H 0.55235 0.63667 0.63465 0.0
H1240 H 0.53379 0.6248 0.67517 0.0
H1241 H 0.5471 0.6121 0.61951 0.0
H1242 H 0.52041 0.58706 0.49479 0.0
H1243 H 0.51863 0.55396 0.52612 0.0
H1244 H 0.80966 0.49815 0.36067 0.0
H1245 H 0.84144 0.4998 0.40351 0.0
H1246 H 0.81902 0.52648 0.56252 0.0
H1247 H 0.78708 0.52524 0.51939 0.0
H1248 H 0.85358 0.54307 0.51714 0.0
H1249 H 0.85888 0.46512 0.54341 0.0
H1250 H 0.85254 0.47283 0.46912 0.0
H1251 H 0.83665 0.47708 0.53075 0.0
C1252 C 0.81147 0.50472 0.40427 0.0
C1253 C 0.79574 0.51158 0.43651 0.0
C1254 C 0.82965 0.50543 0.42903 0.0
C1255 C 0.83258 0.51297 0.48663 0.0
C1256 C 0.81707 0.52046 0.51817 0.0
H1257 H 0.93634 0.49568 0.69592 0.0
H1258 H 0.9032 0.49763 0.66399 0.0
C1259 C 0.79882 0.51968 0.49353 0.0
C1260 C 0.85178 0.51268 0.51409 0.0
H1261 H 0.88712 0.48276 0.55874 0.0
C1262 C 0.86089 0.5299 0.52657 0.0
C1263 C 0.8612 0.49548 0.52725 0.0
C1264 C 0.85179 0.47656 0.51753 0.0
C1265 C 0.87939 0.53036 0.54998 0.0
C1266 C 0.8891 0.51315 0.56073 0.0
C1267 C 0.87975 0.49595 0.55008 0.0
C1268 C 0.90915 0.51266 0.58138 0.0
C1269 C 0.88836 0.54928 0.56327 0.0
C1270 C 0.92356 0.52033 0.5454 0.0
C1271 C 0.9425 0.5192 0.56337 0.0
C1272 C 0.94752 0.51032 0.61777 0.0
C1273 C 0.93303 0.50269 0.65389 0.0
C1274 C 0.91406 0.50376 0.63568 0.0
H1275 H 0.87755 0.56059 0.56839 0.0
H1276 H 0.89701 0.54864 0.60488 0.0
H1277 H 0.89779 0.55326 0.52543 0.0
H1278 H 0.92018 0.52692 0.50276 0.0
H1279 H 0.95323 0.52517 0.53422 0.0
loop_
_geom_bond_atom_site_label_1
_geom_bond_atom_site_label_2
_geom_bond_distance
_geom_bond_site_symmetry_2
_ccdc_geom_bond_type
P0 O11 1.490 . S
P0 C14 1.812 . S
P0 C20 1.803 . S
P0 C26 1.819 . S
H1 C15 0.941 . S
H2 C16 0.939 . S
H3 C18 0.940 . S
H4 C19 0.940 . S
H5 C21 0.939 . S
H6 C22 0.942 . S
H7 C24 0.940 . S
H8 C25 0.939 . S
H9 C27 0.941 . S
H10 C31 0.939 . S
O11 P0 1.490 . S
H12 C28 0.939 . S
H13 C30 0.940 . S
C14 P0 1.812 . S
C14 C15 1.389 . S
C14 C19 1.391 . S
C15 H1 0.941 . S
C15 C14 1.389 . S
C15 C16 1.397 . S
C16 H2 0.939 . S
C16 C15 1.397 . S
C16 C17 1.378 . S
C17 C16 1.378 . S
C17 C18 1.378 . S
C18 H3 0.940 . S
C18 C17 1.378 . S
C18 C19 1.396 . S
C19 H4 0.940 . S
C19 C14 1.391 . S
C19 C18 1.396 . S
C20 P0 1.803 . S
C20 C21 1.378 . S
C20 C25 1.400 . S
C21 H5 0.939 . S
C21 C20 1.378 . S
C21 C22 1.361 . S
C22 H6 0.942 . S
C22 C21 1.361 . S
C22 C23 1.369 . S
C23 C22 1.369 . S
C23 C24 1.404 . S
C24 H7 0.940 . S
C24 C23 1.404 . S
C24 C25 1.389 . S
C25 H8 0.939 . S
C25 C20 1.400 . S
C25 C24 1.389 . S
C26 P0 1.819 . S
C26 C27 1.391 . S
C26 C31 1.391 . S
C27 H9 0.941 . S
C27 C26 1.391 . S
C27 C28 1.396 . S
C28 H12 0.939 . S
C28 C27 1.396 . S
C28 C29 1.397 . S
C29 C28 1.397 . S
C29 C30 1.385 . S
C30 H13 0.940 . S
C30 C29 1.385 . S
C30 C31 1.388 . S
C31 H10 0.939 . S
C31 C26 1.391 . S
C31 C30 1.388 . S
P32 O43 1.490 . S
P32 C46 1.812 . S
P32 C52 1.803 . S
P32 C58 1.819 . S
H33 C47 0.941 . S
H34 C48 0.939 . S
H35 C50 0.940 . S
H36 C51 0.950 . S
H37 C53 0.939 . S
H38 C54 0.942 . S
H39 C56 0.940 . S
H40 C57 0.959 . S
H41 C59 0.941 . S
H42 C63 0.929 1_655 S
O43 P32 1.490 . S
H44 C60 0.939 . S
H45 C62 0.940 . S
C46 P32 1.812 . S
C46 C47 1.389 . S
C46 C51 1.375 1_455 S
C47 H33 0.941 . S
C47 C46 1.389 . S
C47 C48 1.397 . S
C48 H34 0.939 . S
C48 C47 1.397 . S
C48 C49 1.378 . S
C49 C48 1.378 . S
C49 C50 1.378 1_455 S
C50 H35 0.940 . S
C50 C49 1.378 1_655 S
C50 C51 1.403 . S
C51 H36 0.950 . S
C51 C46 1.375 1_655 S
C51 C50 1.403 . S
C52 P32 1.803 . S
C52 C53 1.378 . S
C52 C57 1.368 1_455 S
C53 H37 0.939 . S
C53 C52 1.378 . S
C53 C54 1.361 . S
C54 H38 0.942 . S
C54 C53 1.361 . S
C54 C55 1.369 . S
C55 C54 1.369 . S
C55 C56 1.404 1_455 S
C56 H39 0.940 . S
C56 C55 1.404 1_655 S
C56 C57 1.402 . S
C57 H40 0.959 . S
C57 C52 1.368 1_655 S
C57 C56 1.402 . S
C58 P32 1.819 . S
C58 C59 1.391 . S
C58 C63 1.391 . S
C59 H41 0.941 . S
C59 C58 1.391 . S
C59 C60 1.396 . S
C60 H44 0.939 . S
C60 C59 1.396 . S
C60 C61 1.397 . S
C61 C60 1.397 . S
C61 C62 1.385 1_455 S
C62 H45 0.940 . S
C62 C61 1.385 1_655 S
C62 C63 1.388 1_655 S
C63 H42 0.929 1_455 S
C63 C58 1.391 . S
C63 C62 1.388 1_455 S
P64 O75 1.490 . S
P64 C78 1.812 . S
P64 C84 1.803 . S
P64 C90 1.819 . S
H65 C79 0.941 . S
H66 C80 0.939 . S
H67 C82 0.940 . S
H68 C83 0.950 . S
H69 C85 0.939 . S
H70 C86 0.942 . S
H71 C88 0.940 . S
H72 C89 0.959 . S
H73 C91 0.941 . S
H74 C95 0.929 1_565 S
O75 P64 1.490 . S
H76 C92 0.939 . S
H77 C94 0.940 . S
C78 P64 1.812 . S
C78 C79 1.389 . S
C78 C83 1.375 1_545 S
C79 H65 0.941 . S
C79 C78 1.389 . S
C79 C80 1.397 . S
C80 H66 0.939 . S
C80 C79 1.397 . S
C80 C81 1.378 . S
C81 C80 1.378 . S
C81 C82 1.378 1_545 S
C82 H67 0.940 . S
C82 C81 1.378 1_565 S
C82 C83 1.403 . S
C83 H68 0.950 . S
C83 C78 1.375 1_565 S
C83 C82 1.403 . S
C84 P64 1.803 . S
C84 C85 1.378 . S
C84 C89 1.368 1_545 S
C85 H69 0.939 . S
C85 C84 1.378 . S
C85 C86 1.361 . S
C86 H70 0.942 . S
C86 C85 1.361 . S
C86 C87 1.369 . S
C87 C86 1.369 . S
C87 C88 1.404 1_545 S
C88 H71 0.940 . S
C88 C87 1.404 1_565 S
C88 C89 1.402 . S
C89 H72 0.959 . S
C89 C84 1.368 1_565 S
C89 C88 1.402 . S
C90 P64 1.819 . S
C90 C91 1.391 . S
C90 C95 1.391 . S
C91 H73 0.941 . S
C91 C90 1.391 . S
C91 C92 1.396 . S
C92 H76 0.939 . S
C92 C91 1.396 . S
C92 C93 1.397 . S
C93 C92 1.397 . S
C93 C94 1.385 1_545 S
C94 H77 0.940 . S
C94 C93 1.385 1_565 S
C94 C95 1.388 1_565 S
C95 H74 0.929 1_545 S
C95 C90 1.391 . S
C95 C94 1.388 1_545 S
P96 O107 1.490 . S
P96 C110 1.812 . S
P96 C116 1.803 . S
P96 C122 1.819 . S
H97 C111 0.941 . S
H98 C112 0.939 . S
H99 C114 0.940 . S
H100 C115 0.940 . S
H101 C117 0.939 . S
H102 C118 0.942 . S
H103 C120 0.940 . S
H104 C121 0.939 . S
H105 C123 0.941 . S
H106 C127 0.939 . S
O107 P96 1.490 . S
H108 C124 0.939 . S
H109 C126 0.940 . S
C110 P96 1.812 . S
C110 C111 1.389 . S
C110 C115 1.391 . S
C111 H97 0.941 . S
C111 C110 1.389 . S
C111 C112 1.397 . S
C112 H98 0.939 . S
C112 C111 1.397 . S
C112 C113 1.378 . S
C113 C112 1.378 . S
C113 C114 1.378 . S
C114 H99 0.940 . S
C114 C113 1.378 . S
C114 C115 1.396 . S
C115 H100 0.940 . S
C115 C110 1.391 . S
C115 C114 1.396 . S
C116 P96 1.803 . S
C116 C117 1.378 . S
C116 C121 1.400 . S
C117 H101 0.939 . S
C117 C116 1.378 . S
C117 C118 1.361 . S
C118 H102 0.942 . S
C118 C117 1.361 . S
C118 C119 1.369 . S
C119 C118 1.369 . S
C119 C120 1.404 . S
C120 H103 0.940 . S
C120 C119 1.404 . S
C120 C121 1.389 . S
C121 H104 0.939 . S
C121 C116 1.400 . S
C121 C120 1.389 . S
C122 P96 1.819 . S
C122 C123 1.391 . S
C122 C127 1.391 . S
C123 H105 0.941 . S
C123 C122 1.391 . S
C123 C124 1.396 . S
C124 H108 0.939 . S
C124 C123 1.396 . S
C124 C125 1.397 . S
C125 C124 1.397 . S
C125 C126 1.385 . S
C126 H109 0.940 . S
C126 C125 1.385 . S
C126 C127 1.388 . S
C127 H106 0.939 . S
C127 C122 1.391 . S
C127 C126 1.388 . S
P128 O139 1.490 . S
P128 C142 1.812 1_554 S
P128 C148 1.803 . S
P128 C154 1.819 . S
H129 C143 0.941 . S
H130 C144 0.939 . S
H131 C146 0.940 . S
H132 C147 0.940 1_554 S
H133 C149 0.939 . S
H134 C150 0.942 . S
H135 C152 0.940 . S
H136 C153 0.939 . S
H137 C155 0.941 . S
H138 C159 0.939 . S
O139 P128 1.490 . S
H140 C156 0.939 . S
H141 C158 0.940 . S
C142 P128 1.812 1_556 S
C142 C143 1.389 . S
C142 C147 1.391 . S
C143 H129 0.941 . S
C143 C142 1.389 . S
C143 C144 1.397 . S
C144 H130 0.939 . S
C144 C143 1.397 . S
C144 C145 1.378 . S
C145 C144 1.378 . S
C145 C146 1.378 . S
C146 H131 0.940 . S
C146 C145 1.378 . S
C146 C147 1.396 . S
C147 H132 0.940 1_556 S
C147 C142 1.391 . S
C147 C146 1.396 . S
C148 P128 1.803 . S
C148 C149 1.378 . S
C148 C153 1.400 . S
C149 H133 0.939 . S
C149 C148 1.378 . S
C149 C150 1.361 . S
C150 H134 0.942 . S
C150 C149 1.361 . S
C150 C151 1.369 . S
C151 C150 1.369 . S
C151 C152 1.404 . S
C152 H135 0.940 . S
C152 C151 1.404 . S
C152 C153 1.389 . S
C153 H136 0.939 . S
C153 C148 1.400 . S
C153 C152 1.389 . S
C154 P128 1.819 . S
C154 C155 1.391 . S
C154 C159 1.391 . S
C155 H137 0.941 . S
C155 C154 1.391 . S
C155 C156 1.396 . S
C156 H140 0.939 . S
C156 C155 1.396 . S
C156 C157 1.397 . S
C157 C156 1.397 . S
C157 C158 1.385 . S
C158 H141 0.940 . S
C158 C157 1.385 . S
C158 C159 1.388 . S
C159 H138 0.939 . S
C159 C154 1.391 . S
C159 C158 1.388 . S
P160 O171 1.490 . S
P160 C174 1.812 1_554 S
P160 C180 1.803 . S
P160 C186 1.819 . S
H161 C175 0.941 . S
H162 C176 0.939 . S
H163 C178 0.940 . S
H164 C179 0.942 1_554 S
H165 C181 0.939 . S
H166 C182 0.942 . S
H167 C184 0.940 . S
H168 C185 0.951 . S
H169 C187 0.941 . S
H170 C191 0.934 1_655 S
O171 P160 1.490 . S
H172 C188 0.939 . S
H173 C190 0.940 . S
C174 P160 1.812 1_556 S
C174 C175 1.389 . S
C174 C179 1.388 1_455 S
C175 H161 0.941 . S
C175 C174 1.389 . S
C175 C176 1.397 . S
C176 H162 0.939 . S
C176 C175 1.397 . S
C176 C177 1.378 . S
C177 C176 1.378 . S
C177 C178 1.378 1_455 S
C178 H163 0.940 . S
C178 C177 1.378 1_655 S
C178 C179 1.398 . S
C179 H164 0.942 1_556 S
C179 C174 1.388 1_655 S
C179 C178 1.398 . S
C180 P160 1.803 . S
C180 C181 1.378 . S
C180 C185 1.381 1_455 S
C181 H165 0.939 . S
C181 C180 1.378 . S
C181 C182 1.361 . S
C182 H166 0.942 . S
C182 C181 1.361 . S
C182 C183 1.369 . S
C183 C182 1.369 . S
C183 C184 1.404 1_455 S
C184 H167 0.940 . S
C184 C183 1.404 1_655 S
C184 C185 1.396 . S
C185 H168 0.951 . S
C185 C180 1.381 1_655 S
C185 C184 1.396 . S
C186 P160 1.819 . S
C186 C187 1.391 . S
C186 C191 1.391 . S
C187 H169 0.941 . S
C187 C186 1.391 . S
C187 C188 1.396 . S
C188 H172 0.939 . S
C188 C187 1.396 . S
C188 C189 1.397 . S
C189 C188 1.397 . S
C189 C190 1.385 1_455 S
C190 H173 0.940 . S
C190 C189 1.385 1_655 S
C190 C191 1.388 1_655 S
C191 H170 0.934 1_455 S
C191 C186 1.391 . S
C191 C190 1.388 1_455 S
P192 O203 1.490 . S
P192 C206 1.812 1_554 S
P192 C212 1.803 . S
P192 C218 1.819 . S
H193 C207 0.941 . S
H194 C208 0.939 . S
H195 C210 0.940 . S
H196 C211 0.942 1_554 S
H197 C213 0.939 . S
H198 C214 0.942 . S
H199 C216 0.940 . S
H200 C217 0.951 . S
H201 C219 0.941 . S
H202 C223 0.934 1_565 S
O203 P192 1.490 . S
H204 C220 0.939 . S
H205 C222 0.940 . S
C206 P192 1.812 1_556 S
C206 C207 1.389 . S
C206 C211 1.388 1_545 S
C207 H193 0.941 . S
C207 C206 1.389 . S
C207 C208 1.397 . S
C208 H194 0.939 . S
C208 C207 1.397 . S
C208 C209 1.378 . S
C209 C208 1.378 . S
C209 C210 1.378 1_545 S
C210 H195 0.940 . S
C210 C209 1.378 1_565 S
C210 C211 1.398 . S
C211 H196 0.942 1_556 S
C211 C206 1.388 1_565 S
C211 C210 1.398 . S
C212 P192 1.803 . S
C212 C213 1.378 . S
C212 C217 1.381 1_545 S
C213 H197 0.939 . S
C213 C212 1.378 . S
C213 C214 1.361 . S
C214 H198 0.942 . S
C214 C213 1.361 . S
C214 C215 1.369 . S
C215 C214 1.369 . S
C215 C216 1.404 1_545 S
C216 H199 0.940 . S
C216 C215 1.404 1_565 S
C216 C217 1.396 . S
C217 H200 0.951 . S
C217 C212 1.381 1_565 S
C217 C216 1.396 . S
C218 P192 1.819 . S
C218 C219 1.391 . S
C218 C223 1.391 . S
C219 H201 0.941 . S
C219 C218 1.391 . S
C219 C220 1.396 . S
C220 H204 0.939 . S
C220 C219 1.396 . S
C220 C221 1.397 . S
C221 C220 1.397 . S
C221 C222 1.385 1_545 S
C222 H205 0.940 . S
C222 C221 1.385 1_565 S
C222 C223 1.388 1_565 S
C223 H202 0.934 1_545 S
C223 C218 1.391 . S
C223 C222 1.388 1_545 S
P224 O235 1.490 . S
P224 C238 1.812 1_554 S
P224 C244 1.803 . S
P224 C250 1.819 . S
H225 C239 0.941 . S
H226 C240 0.939 . S
H227 C242 0.940 . S
H228 C243 0.940 1_554 S
H229 C245 0.939 . S
H230 C246 0.942 . S
H231 C248 0.940 . S
H232 C249 0.939 . S
H233 C251 0.941 . S
H234 C255 0.939 . S
O235 P224 1.490 . S
H236 C252 0.939 . S
H237 C254 0.940 . S
C238 P224 1.812 1_556 S
C238 C239 1.389 . S
C238 C243 1.391 . S
C239 H225 0.941 . S
C239 C238 1.389 . S
C239 C240 1.397 . S
C240 H226 0.939 . S
C240 C239 1.397 . S
C240 C241 1.378 . S
C241 C240 1.378 . S
C241 C242 1.378 . S
C242 H227 0.940 . S
C242 C241 1.378 . S
C242 C243 1.396 . S
C243 H228 0.940 1_556 S
C243 C238 1.391 . S
C243 C242 1.396 . S
C244 P224 1.803 . S
C244 C245 1.378 . S
C244 C249 1.400 . S
C245 H229 0.939 . S
C245 C244 1.378 . S
C245 C246 1.361 . S
C246 H230 0.942 . S
C246 C245 1.361 . S
C246 C247 1.369 . S
C247 C246 1.369 . S
C247 C248 1.404 . S
C248 H231 0.940 . S
C248 C247 1.404 . S
C248 C249 1.389 . S
C249 H232 0.939 . S
C249 C244 1.400 . S
C249 C248 1.389 . S
C250 P224 1.819 . S
C250 C251 1.391 . S
C250 C255 1.391 . S
C251 H233 0.941 . S
C251 C250 1.391 . S
C251 C252 1.396 . S
C252 H236 0.939 . S
C252 C251 1.396 . S
C252 C253 1.397 . S
C253 C252 1.397 . S
C253 C254 1.385 . S
C254 H237 0.940 . S
C254 C253 1.385 . S
C254 C255 1.388 . S
C255 H234 0.939 . S
C255 C250 1.391 . S
C255 C254 1.388 . S
Tb256 C266 2.825 . S
Tb256 O267 2.347 1_455 S
Tb256 O270 2.366 . S
Tb256 O275 2.418 . S
Tb256 O276 2.384 1_565 S
Tb256 O279 2.479 . S
Tb256 O280 2.471 . S
Eu257 O268 2.418 . S
Eu257 O269 2.384 1_545 S
Eu257 O272 2.479 . S
Eu257 O273 2.471 . S
Eu257 O274 2.347 1_655 S
Eu257 O277 2.366 . S
Eu257 C287 2.825 . S
C258 O274 1.259 1_565 S
C258 O275 1.265 . S
C259 O276 1.255 . S
C259 O277 1.265 1_455 S
C260 C262 1.380 . S
C260 C263 1.374 . S
C260 C266 1.507 . S
C261 C262 1.384 . S
C261 C265 1.387 . S
C261 H288 0.930 . S
C262 C260 1.380 . S
C262 C261 1.384 . S
C262 H289 0.931 . S
C263 C260 1.374 . S
C263 C264 1.390 . S
C263 H290 0.930 1_455 S
C264 C263 1.390 . S
C264 C265 1.391 . S
C264 H291 0.930 1_455 S
C265 C261 1.387 . S
C265 C264 1.391 . S
C266 Tb256 2.825 . S
C266 C260 1.507 . S
C266 O279 1.238 . S
C266 O280 1.247 . S
O267 Tb256 2.347 1_655 S
O267 C271 1.259 1_565 S
O268 Eu257 2.418 . S
O268 C271 1.265 . S
O269 Eu257 2.384 1_565 S
O269 C278 1.255 . S
O270 Tb256 2.366 . S
O270 C278 1.265 1_455 S
C271 O267 1.259 1_545 S
C271 O268 1.265 . S
O272 Eu257 2.479 . S
O272 C287 1.238 . S
O273 Eu257 2.471 . S
O273 C287 1.247 . S
O274 Eu257 2.347 1_455 S
O274 C258 1.259 1_545 S
O275 Tb256 2.418 . S
O275 C258 1.265 . S
O276 Tb256 2.384 1_545 S
O276 C259 1.255 . S
O277 Eu257 2.366 . S
O277 C259 1.265 1_655 S
C278 O269 1.255 . S
C278 O270 1.265 1_655 S
O279 Tb256 2.479 . S
O279 C266 1.238 . S
O280 Tb256 2.471 . S
O280 C266 1.247 . S
C281 C284 1.380 . S
C281 C285 1.374 . S
C281 C287 1.507 . S
C282 C283 1.387 . S
C282 C286 1.391 . S
C283 C282 1.387 . S
C283 C284 1.384 . S
C283 H292 0.930 . S
C284 C281 1.380 . S
C284 C283 1.384 . S
C284 H293 0.931 . S
C285 C281 1.374 . S
C285 C286 1.390 . S
C285 H294 0.930 1_655 S
C286 C282 1.391 . S
C286 C285 1.390 . S
C286 H295 0.930 1_655 S
C287 Eu257 2.825 . S
C287 O272 1.238 . S
C287 O273 1.247 . S
C287 C281 1.507 . S
H288 C261 0.930 . S
H289 C262 0.931 . S
H290 C263 0.930 1_655 S
H291 C264 0.930 1_655 S
H292 C283 0.930 . S
H293 C284 0.931 . S
H294 C285 0.930 1_455 S
H295 C286 0.930 1_455 S
Tb296 C306 2.825 . S
Tb296 O307 2.347 1_545 S
Tb296 O310 2.366 . S
Tb296 O315 2.418 . S
Tb296 O316 2.384 . S
Tb296 O319 2.479 . S
Tb296 O320 2.471 . S
Eu297 O308 2.418 . S
Eu297 O309 2.384 . S
Eu297 O312 2.479 . S
Eu297 O313 2.471 . S
Eu297 O314 2.347 1_565 S
Eu297 O317 2.366 . S
Eu297 C327 2.825 . S
C298 O314 1.259 . S
C298 O315 1.265 . S
C299 O316 1.255 . S
C299 O317 1.265 1_545 S
C300 C302 1.380 . S
C300 C303 1.374 . S
C300 C306 1.507 . S
C301 C302 1.384 . S
C301 C305 1.387 . S
C301 H328 0.930 . S
C302 C300 1.380 . S
C302 C301 1.384 . S
C302 H329 0.931 . S
C303 C300 1.374 . S
C303 C304 1.390 . S
C303 H330 0.930 1_545 S
C304 C303 1.390 . S
C304 C305 1.391 . S
C304 H331 0.930 1_545 S
C305 C301 1.387 . S
C305 C304 1.391 . S
C306 Tb296 2.825 . S
C306 C300 1.507 . S
C306 O319 1.238 . S
C306 O320 1.247 . S
O307 Tb296 2.347 1_565 S
O307 C311 1.259 . S
O308 Eu297 2.418 . S
O308 C311 1.265 . S
O309 Eu297 2.384 . S
O309 C318 1.255 . S
O310 Tb296 2.366 . S
O310 C318 1.265 1_545 S
C311 O307 1.259 . S
C311 O308 1.265 . S
O312 Eu297 2.479 . S
O312 C327 1.238 . S
O313 Eu297 2.471 . S
O313 C327 1.247 . S
O314 Eu297 2.347 1_545 S
O314 C298 1.259 . S
O315 Tb296 2.418 . S
O315 C298 1.265 . S
O316 Tb296 2.384 . S
O316 C299 1.255 . S
O317 Eu297 2.366 . S
O317 C299 1.265 1_565 S
C318 O309 1.255 . S
C318 O310 1.265 1_565 S
O319 Tb296 2.479 . S
O319 C306 1.238 . S
O320 Tb296 2.471 . S
O320 C306 1.247 . S
C321 C324 1.380 . S
C321 C325 1.374 . S
C321 C327 1.507 . S
C322 C323 1.387 . S
C322 C326 1.391 . S
C323 C322 1.387 . S
C323 C324 1.384 . S
C323 H332 0.930 . S
C324 C321 1.380 . S
C324 C323 1.384 . S
C324 H333 0.931 . S
C325 C321 1.374 . S
C325 C326 1.390 . S
C325 H334 0.930 1_565 S
C326 C322 1.391 . S
C326 C325 1.390 . S
C326 H335 0.930 1_565 S
C327 Eu297 2.825 . S
C327 O312 1.238 . S
C327 O313 1.247 . S
C327 C321 1.507 . S
H328 C301 0.930 . S
H329 C302 0.931 . S
H330 C303 0.930 1_565 S
H331 C304 0.930 1_565 S
H332 C323 0.930 . S
H333 C324 0.931 . S
H334 C325 0.930 1_545 S
H335 C326 0.930 1_545 S
Tb336 C346 2.825 . S
Tb336 O347 2.347 . S
Tb336 O350 2.366 . S
Tb336 O355 2.418 . S
Tb336 O356 2.384 . S
Tb336 O359 2.479 . S
Tb336 O360 2.471 . S
Eu337 O348 2.418 . S
Eu337 O349 2.384 . S
Eu337 O352 2.479 . S
Eu337 O353 2.471 . S
Eu337 O354 2.347 . S
Eu337 O357 2.366 . S
Eu337 C367 2.825 . S
C338 O354 1.259 . S
C338 O355 1.265 . S
C339 O356 1.255 . S
C339 O357 1.265 . S
C340 C342 1.380 . S
C340 C343 1.374 . S
C340 C346 1.507 . S
C341 C342 1.384 . S
C341 C345 1.387 . S
C341 H368 0.930 . S
C342 C340 1.380 . S
C342 C341 1.384 . S
C342 H369 0.931 . S
C343 C340 1.374 . S
C343 C344 1.390 . S
C343 H370 0.930 . S
C344 C343 1.390 . S
C344 C345 1.391 . S
C344 H371 0.930 . S
C345 C341 1.387 . S
C345 C344 1.391 . S
C346 Tb336 2.825 . S
C346 C340 1.507 . S
C346 O359 1.238 . S
C346 O360 1.247 . S
O347 Tb336 2.347 . S
O347 C351 1.259 . S
O348 Eu337 2.418 . S
O348 C351 1.265 . S
O349 Eu337 2.384 . S
O349 C358 1.255 . S
O350 Tb336 2.366 . S
O350 C358 1.265 . S
C351 O347 1.259 . S
C351 O348 1.265 . S
O352 Eu337 2.479 . S
O352 C367 1.238 . S
O353 Eu337 2.471 . S
O353 C367 1.247 . S
O354 Eu337 2.347 . S
O354 C338 1.259 . S
O355 Tb336 2.418 . S
O355 C338 1.265 . S
O356 Tb336 2.384 . S
O356 C339 1.255 . S
O357 Eu337 2.366 . S
O357 C339 1.265 . S
C358 O349 1.255 . S
C358 O350 1.265 . S
O359 Tb336 2.479 . S
O359 C346 1.238 . S
O360 Tb336 2.471 . S
O360 C346 1.247 . S
C361 C364 1.380 . S
C361 C365 1.374 . S
C361 C367 1.507 . S
C362 C363 1.387 . S
C362 C366 1.391 . S
C363 C362 1.387 . S
C363 C364 1.384 . S
C363 H372 0.930 . S
C364 C361 1.380 . S
C364 C363 1.384 . S
C364 H373 0.931 . S
C365 C361 1.374 . S
C365 C366 1.390 . S
C365 H374 0.930 . S
C366 C362 1.391 . S
C366 C365 1.390 . S
C366 H375 0.930 . S
C367 Eu337 2.825 . S
C367 O352 1.238 . S
C367 O353 1.247 . S
C367 C361 1.507 . S
H368 C341 0.930 . S
H369 C342 0.931 . S
H370 C343 0.930 . S
H371 C344 0.930 . S
H372 C363 0.930 . S
H373 C364 0.931 . S
H374 C365 0.930 . S
H375 C366 0.930 . S
Tb376 C386 2.825 . S
Tb376 O387 2.347 . S
Tb376 O390 2.366 . S
Tb376 O395 2.418 . S
Tb376 O396 2.384 1_655 S
Tb376 O399 2.479 . S
Tb376 O400 2.471 . S
Eu377 O388 2.418 . S
Eu377 O389 2.384 1_455 S
Eu377 O392 2.479 . S
Eu377 O393 2.471 . S
Eu377 O394 2.347 . S
Eu377 O397 2.366 . S
Eu377 C407 2.825 . S
C378 O394 1.259 1_655 S
C378 O395 1.265 . S
C379 O396 1.255 . S
C379 O397 1.265 . S
C380 C382 1.380 . S
C380 C383 1.374 . S
C380 C386 1.507 . S
C381 C382 1.384 . S
C381 C385 1.387 . S
C381 H408 0.930 . S
C382 C380 1.380 . S
C382 C381 1.384 . S
C382 H409 0.931 . S
C383 C380 1.374 . S
C383 C384 1.390 . S
C383 H410 0.930 . S
C384 C383 1.390 . S
C384 C385 1.391 . S
C384 H411 0.930 . S
C385 C381 1.387 . S
C385 C384 1.391 . S
C386 Tb376 2.825 . S
C386 C380 1.507 . S
C386 O399 1.238 . S
C386 O400 1.247 . S
O387 Tb376 2.347 . S
O387 C391 1.259 1_655 S
O388 Eu377 2.418 . S
O388 C391 1.265 . S
O389 Eu377 2.384 1_655 S
O389 C398 1.255 . S
O390 Tb376 2.366 . S
O390 C398 1.265 . S
C391 O387 1.259 1_455 S
C391 O388 1.265 . S
O392 Eu377 2.479 . S
O392 C407 1.238 . S
O393 Eu377 2.471 . S
O393 C407 1.247 . S
O394 Eu377 2.347 . S
O394 C378 1.259 1_455 S
O395 Tb376 2.418 . S
O395 C378 1.265 . S
O396 Tb376 2.384 1_455 S
O396 C379 1.255 . S
O397 Eu377 2.366 . S
O397 C379 1.265 . S
C398 O389 1.255 . S
C398 O390 1.265 . S
O399 Tb376 2.479 . S
O399 C386 1.238 . S
O400 Tb376 2.471 . S
O400 C386 1.247 . S
C401 C404 1.380 . S
C401 C405 1.374 . S
C401 C407 1.507 . S
C402 C403 1.387 . S
C402 C406 1.391 . S
C403 C402 1.387 . S
C403 C404 1.384 . S
C403 H412 0.930 . S
C404 C401 1.380 . S
C404 C403 1.384 . S
C404 H413 0.931 . S
C405 C401 1.374 . S
C405 C406 1.390 . S
C405 H414 0.930 . S
C406 C402 1.391 . S
C406 C405 1.390 . S
C406 H415 0.930 . S
C407 Eu377 2.825 . S
C407 O392 1.238 . S
C407 O393 1.247 . S
C407 C401 1.507 . S
H408 C381 0.930 . S
H409 C382 0.931 . S
H410 C383 0.930 . S
H411 C384 0.930 . S
H412 C403 0.930 . S
H413 C404 0.931 . S
H414 C405 0.930 . S
H415 C406 0.930 . S
H416 C424 0.929 . S
H417 C426 0.930 . S
H418 C428 0.930 . S
H419 C431 0.929 . S
H420 C434 0.930 . S
H421 C436 0.960 . S
H422 C436 0.960 . S
H423 C436 0.960 . S
C424 H416 0.929 . S
C424 C425 1.378 . S
C424 C426 1.384 . S
C425 C424 1.378 . S
C425 C431 1.389 1_565 S
C426 H417 0.930 . S
C426 C424 1.384 . S
C426 C427 1.374 . S
C427 C426 1.374 . S
C427 C428 1.397 1_565 S
C427 C432 1.489 1_565 S
C428 H418 0.930 . S
C428 C427 1.397 1_545 S
C428 C431 1.386 . S
H429 C445 0.930 . S
H430 C446 0.931 . S
C431 H419 0.929 . S
C431 C425 1.389 1_545 S
C431 C428 1.386 . S
C432 C427 1.489 1_545 S
C432 C434 1.404 . S
C432 C435 1.394 1_545 S
H433 C439 0.930 . S
C434 H420 0.930 . S
C434 C432 1.404 . S
C434 C437 1.403 . S
C435 C432 1.394 1_565 S
C435 C436 1.524 . S
C435 C439 1.400 . S
C436 H421 0.960 . S
C436 H422 0.960 . S
C436 H423 0.960 . S
C436 C435 1.524 . S
C437 C434 1.403 . S
C437 C438 1.392 . S
C437 C441 1.495 . S
C438 C437 1.392 . S
C438 C439 1.385 1_545 S
C438 C440 1.478 . S
C439 H433 0.930 . S
C439 C435 1.400 . S
C439 C438 1.385 1_565 S
C440 C438 1.478 . S
C440 C442 1.381 1_545 S
C440 C446 1.383 . S
C441 C437 1.495 . S
C441 H447 0.959 . S
C441 H448 0.961 . S
C441 H449 0.960 . S
C442 C440 1.381 1_565 S
C442 C443 1.394 . S
C442 H450 0.930 . S
C443 C442 1.394 . S
C443 C444 1.383 1_565 S
C443 H451 0.929 . S
C444 C443 1.383 1_545 S
C444 C445 1.377 . S
C445 H429 0.930 . S
C445 C444 1.377 . S
C445 C446 1.379 . S
C446 H430 0.931 . S
C446 C440 1.383 . S
C446 C445 1.379 . S
H447 C441 0.959 . S
H448 C441 0.961 . S
H449 C441 0.960 . S
H450 C442 0.930 . S
H451 C443 0.929 . S
H452 C460 0.929 . S
H453 C462 0.930 . S
H454 C464 0.930 . S
H455 C467 0.929 . S
H456 C470 0.930 . S
H457 C472 0.960 . S
H458 C472 0.960 . S
H459 C472 0.960 . S
C460 H452 0.929 . S
C460 C461 1.377 . S
C460 C462 1.384 . S
C461 C460 1.377 . S
C461 C467 1.390 . S
C462 H453 0.930 . S
C462 C460 1.384 . S
C462 C463 1.372 . S
C463 C462 1.372 . S
C463 C464 1.400 . S
C463 C468 1.490 . S
C464 H454 0.930 . S
C464 C463 1.400 . S
C464 C467 1.386 . S
H465 C481 0.930 . S
H466 C482 0.931 . S
C467 H455 0.929 . S
C467 C461 1.390 . S
C467 C464 1.386 . S
C468 C463 1.490 . S
C468 C470 1.395 . S
C468 C471 1.403 . S
H469 C475 0.930 . S
C470 H456 0.930 . S
C470 C468 1.395 . S
C470 C473 1.403 . S
C471 C468 1.403 . S
C471 C472 1.524 . S
C471 C475 1.400 . S
C472 H457 0.960 . S
C472 H458 0.960 . S
C472 H459 0.960 . S
C472 C471 1.524 . S
C473 C470 1.403 . S
C473 C474 1.392 . S
C473 C477 1.495 . S
C474 C473 1.392 . S
C474 C475 1.385 . S
C474 C476 1.478 . S
C475 H469 0.930 . S
C475 C471 1.400 . S
C475 C474 1.385 . S
C476 C474 1.478 . S
C476 C478 1.381 . S
C476 C482 1.383 . S
C477 C473 1.495 . S
C477 H483 0.959 . S
C477 H484 0.961 . S
C477 H485 0.960 . S
C478 C476 1.381 . S
C478 C479 1.394 . S
C478 H486 0.930 . S
C479 C478 1.394 . S
C479 C480 1.383 . S
C479 H487 0.929 . S
C480 C479 1.383 . S
C480 C481 1.377 . S
C481 H465 0.930 . S
C481 C480 1.377 . S
C481 C482 1.379 . S
C482 H466 0.931 . S
C482 C476 1.383 . S
C482 C481 1.379 . S
H483 C477 0.959 . S
H484 C477 0.961 . S
H485 C477 0.960 . S
H486 C478 0.930 . S
H487 C479 0.929 . S
H488 C496 0.929 . S
H489 C498 0.930 . S
H490 C500 0.930 . S
H491 C503 0.929 . S
H492 C506 0.930 . S
H493 C508 0.960 . S
H494 C508 0.960 . S
H495 C508 0.960 . S
C496 H488 0.929 . S
C496 C497 1.377 . S
C496 C498 1.384 . S
C497 C496 1.377 . S
C497 C503 1.390 . S
C498 H489 0.930 . S
C498 C496 1.384 . S
C498 C499 1.372 . S
C499 C498 1.372 . S
C499 C500 1.400 . S
C499 C504 1.490 . S
C500 H490 0.930 . S
C500 C499 1.400 . S
C500 C503 1.386 . S
H501 C517 0.930 . S
H502 C518 0.931 . S
C503 H491 0.929 . S
C503 C497 1.390 . S
C503 C500 1.386 . S
C504 C499 1.490 . S
C504 C506 1.395 . S
C504 C507 1.403 . S
H505 C511 0.930 . S
C506 H492 0.930 . S
C506 C504 1.395 . S
C506 C509 1.403 . S
C507 C504 1.403 . S
C507 C508 1.524 . S
C507 C511 1.400 . S
C508 H493 0.960 . S
C508 H494 0.960 . S
C508 H495 0.960 . S
C508 C507 1.524 . S
C509 C506 1.403 . S
C509 C510 1.392 . S
C509 C513 1.495 . S
C510 C509 1.392 . S
C510 C511 1.385 . S
C510 C512 1.478 . S
C511 H505 0.930 . S
C511 C507 1.400 . S
C511 C510 1.385 . S
C512 C510 1.478 . S
C512 C514 1.381 . S
C512 C518 1.383 . S
C513 C509 1.495 . S
C513 H519 0.959 . S
C513 H520 0.961 . S
C513 H521 0.960 . S
C514 C512 1.381 . S
C514 C515 1.394 . S
C514 H522 0.930 . S
C515 C514 1.394 . S
C515 C516 1.383 . S
C515 H523 0.929 . S
C516 C515 1.383 . S
C516 C517 1.377 . S
C517 H501 0.930 . S
C517 C516 1.377 . S
C517 C518 1.379 . S
C518 H502 0.931 . S
C518 C512 1.383 . S
C518 C517 1.379 . S
H519 C513 0.959 . S
H520 C513 0.961 . S
H521 C513 0.960 . S
H522 C514 0.930 . S
H523 C515 0.929 . S
H524 C532 0.929 . S
H525 C534 0.930 . S
H526 C536 0.930 . S
H527 C539 0.929 . S
H528 C542 0.930 . S
H529 C544 0.960 . S
H530 C544 0.960 1_655 S
H531 C544 0.960 . S
C532 H524 0.929 . S
C532 C533 1.377 . S
C532 C534 1.384 . S
C533 C532 1.377 . S
C533 C539 1.390 1_655 S
C534 H525 0.930 . S
C534 C532 1.384 . S
C534 C535 1.407 . S
C535 C534 1.407 . S
C535 C536 1.364 1_655 S
C535 C540 1.490 . S
C536 H526 0.930 . S
C536 C535 1.364 1_455 S
C536 C539 1.386 . S
H537 C553 0.930 . S
H538 C554 0.931 . S
C539 H527 0.929 . S
C539 C533 1.390 1_455 S
C539 C536 1.386 . S
C540 C535 1.490 . S
C540 C542 1.402 . S
C540 C543 1.397 1_655 S
H541 C547 0.930 . S
C542 H528 0.930 . S
C542 C540 1.402 . S
C542 C545 1.403 . S
C543 C540 1.397 1_455 S
C543 C544 1.524 . S
C543 C547 1.400 . S
C544 H529 0.960 . S
C544 H530 0.960 1_455 S
C544 H531 0.960 . S
C544 C543 1.524 . S
C545 C542 1.403 . S
C545 C546 1.399 . S
C545 C549 1.495 . S
C546 C545 1.399 . S
C546 C547 1.380 1_655 S
C546 C548 1.477 . S
C547 H541 0.930 . S
C547 C543 1.400 . S
C547 C546 1.380 1_455 S
C548 C546 1.477 . S
C548 C550 1.378 . S
C548 C554 1.386 1_655 S
C549 C545 1.495 . S
C549 H555 0.959 . S
C549 H556 0.961 1_655 S
C549 H557 0.960 . S
C550 C548 1.378 . S
C550 C551 1.394 . S
C550 H558 0.930 . S
C551 C550 1.394 . S
C551 C552 1.346 1_655 S
C551 H559 0.929 . S
C552 C551 1.346 1_455 S
C552 C553 1.413 . S
C553 H537 0.930 . S
C553 C552 1.413 . S
C553 C554 1.379 . S
C554 H538 0.931 . S
C554 C548 1.386 1_455 S
C554 C553 1.379 . S
H555 C549 0.959 . S
H556 C549 0.961 1_455 S
H557 C549 0.960 . S
H558 C550 0.930 . S
H559 C551 0.929 . S
H560 C568 0.929 . S
H561 C570 0.930 . S
H562 C572 0.930 . S
H563 C575 0.929 . S
H564 C578 0.930 . S
H565 C580 0.960 . S
H566 C580 0.960 1_565 S
H567 C580 0.960 . S
C568 H560 0.929 . S
C568 C569 1.384 . S
C568 C570 1.384 . S
C569 C568 1.384 . S
C569 C575 1.383 1_565 S
C570 H561 0.930 . S
C570 C568 1.384 . S
C570 C571 1.372 . S
C571 C570 1.372 . S
C571 C572 1.400 1_565 S
C571 C576 1.490 . S
C572 H562 0.930 . S
C572 C571 1.400 1_545 S
C572 C575 1.386 . S
H573 C589 0.930 . S
H574 C590 0.931 . S
C575 H563 0.929 . S
C575 C569 1.383 1_545 S
C575 C572 1.386 . S
C576 C571 1.490 . S
C576 C578 1.395 1_554 S
C576 C579 1.399 1_565 S
H577 C583 0.938 . S
C578 H564 0.930 . S
C578 C576 1.395 1_556 S
C578 C581 1.403 . S
C579 C576 1.399 1_545 S
C579 C580 1.528 . S
C579 C583 1.400 1_554 S
C580 H565 0.960 . S
C580 H566 0.960 1_545 S
C580 H567 0.960 . S
C580 C579 1.528 . S
C581 C578 1.403 . S
C581 C582 1.392 . S
C581 C585 1.495 . S
C582 C581 1.392 . S
C582 C583 1.380 1_565 S
C582 C584 1.480 . S
C583 H577 0.938 . S
C583 C579 1.400 1_556 S
C583 C582 1.380 1_545 S
C584 C582 1.480 . S
C584 C586 1.430 . S
C584 C590 1.334 1_565 S
C585 C581 1.495 . S
C585 H591 0.959 . S
C585 H592 0.961 1_565 S
C585 H593 0.960 . S
C586 C584 1.430 . S
C586 C587 1.394 . S
C586 H594 0.930 . S
C587 C586 1.394 . S
C587 C588 1.410 . S
C587 H595 0.929 . S
C588 C587 1.410 . S
C588 C589 1.351 1_565 S
C589 H573 0.930 . S
C589 C588 1.351 1_545 S
C589 C590 1.379 . S
C590 H574 0.931 . S
C590 C584 1.334 1_545 S
C590 C589 1.379 . S
H591 C585 0.959 . S
H592 C585 0.961 1_545 S
H593 C585 0.960 . S
H594 C586 0.930 . S
H595 C587 0.929 . S
H596 C604 0.929 . S
H597 C606 0.930 . S
H598 C608 0.930 . S
H599 C611 0.929 . S
H600 C614 0.930 . S
H601 C616 0.960 . S
H602 C616 0.960 . S
H603 C616 0.960 . S
C604 H596 0.929 . S
C604 C605 1.377 . S
C604 C606 1.384 . S
C605 C604 1.377 . S
C605 C611 1.390 . S
C606 H597 0.930 . S
C606 C604 1.384 . S
C606 C607 1.372 . S
C607 C606 1.372 . S
C607 C608 1.400 . S
C607 C612 1.490 . S
C608 H598 0.930 . S
C608 C607 1.400 . S
C608 C611 1.386 . S
H609 C625 0.930 . S
H610 C626 0.931 . S
C611 H599 0.929 . S
C611 C605 1.390 . S
C611 C608 1.386 . S
C612 C607 1.490 . S
C612 C614 1.395 1_554 S
C612 C615 1.403 . S
H613 C619 0.931 . S
C614 H600 0.930 . S
C614 C612 1.395 1_556 S
C614 C617 1.403 . S
C615 C612 1.403 . S
C615 C616 1.524 . S
C615 C619 1.400 1_554 S
C616 H601 0.960 . S
C616 H602 0.960 . S
C616 H603 0.960 . S
C616 C615 1.524 . S
C617 C614 1.403 . S
C617 C618 1.392 . S
C617 C621 1.495 . S
C618 C617 1.392 . S
C618 C619 1.385 . S
C618 C620 1.478 . S
C619 H613 0.931 . S
C619 C615 1.400 1_556 S
C619 C618 1.385 . S
C620 C618 1.478 . S
C620 C622 1.381 . S
C620 C626 1.383 . S
C621 C617 1.495 . S
C621 H627 0.959 . S
C621 H628 0.961 . S
C621 H629 0.960 . S
C622 C620 1.381 . S
C622 C623 1.394 . S
C622 H630 0.930 . S
C623 C622 1.394 . S
C623 C624 1.383 . S
C623 H631 0.929 . S
C624 C623 1.383 . S
C624 C625 1.377 . S
C625 H609 0.930 . S
C625 C624 1.377 . S
C625 C626 1.379 . S
C626 H610 0.931 . S
C626 C620 1.383 . S
C626 C625 1.379 . S
H627 C621 0.959 . S
H628 C621 0.961 . S
H629 C621 0.960 . S
H630 C622 0.930 . S
H631 C623 0.929 . S
H632 C640 0.929 . S
H633 C642 0.930 . S
H634 C644 0.930 . S
H635 C647 0.929 . S
H636 C650 0.930 . S
H637 C652 0.960 . S
H638 C652 0.960 . S
H639 C652 0.960 . S
C640 H632 0.929 . S
C640 C641 1.377 . S
C640 C642 1.384 . S
C641 C640 1.377 . S
C641 C647 1.390 . S
C642 H633 0.930 . S
C642 C640 1.384 . S
C642 C643 1.372 . S
C643 C642 1.372 . S
C643 C644 1.400 . S
C643 C648 1.490 . S
C644 H634 0.930 . S
C644 C643 1.400 . S
C644 C647 1.386 . S
H645 C661 0.930 . S
H646 C662 0.931 . S
C647 H635 0.929 . S
C647 C641 1.390 . S
C647 C644 1.386 . S
C648 C643 1.490 . S
C648 C650 1.395 1_554 S
C648 C651 1.403 . S
H649 C655 0.930 1_554 S
C650 H636 0.930 . S
C650 C648 1.395 1_556 S
C650 C653 1.403 . S
C651 C648 1.403 . S
C651 C652 1.524 . S
C651 C655 1.400 1_554 S
C652 H637 0.960 . S
C652 H638 0.960 . S
C652 H639 0.960 . S
C652 C651 1.524 . S
C653 C650 1.403 . S
C653 C654 1.392 . S
C653 C657 1.495 . S
C654 C653 1.392 . S
C654 C655 1.385 . S
C654 C656 1.478 . S
C655 H649 0.930 1_556 S
C655 C651 1.400 1_556 S
C655 C654 1.385 . S
C656 C654 1.478 . S
C656 C658 1.381 . S
C656 C662 1.383 . S
C657 C653 1.495 . S
C657 H663 0.959 . S
C657 H664 0.961 . S
C657 H665 0.960 . S
C658 C656 1.381 . S
C658 C659 1.394 . S
C658 H666 0.930 . S
C659 C658 1.394 . S
C659 C660 1.383 . S
C659 H667 0.929 . S
C660 C659 1.383 . S
C660 C661 1.377 . S
C661 H645 0.930 . S
C661 C660 1.377 . S
C661 C662 1.379 . S
C662 H646 0.931 . S
C662 C656 1.383 . S
C662 C661 1.379 . S
H663 C657 0.959 . S
H664 C657 0.961 . S
H665 C657 0.960 . S
H666 C658 0.930 . S
H667 C659 0.929 . S
H668 C676 0.929 . S
H669 C678 0.930 . S
H670 C680 0.930 . S
H671 C683 0.929 . S
H672 C686 0.930 . S
H673 C688 0.959 . S
H674 C688 1.001 . S
H675 C688 0.922 1_455 S
C676 H668 0.929 . S
C676 C677 1.396 . S
C676 C678 1.384 . S
C677 C676 1.396 . S
C677 C683 1.372 1_655 S
C678 H669 0.930 . S
C678 C676 1.384 . S
C678 C679 1.372 . S
C679 C678 1.372 . S
C679 C680 1.400 1_655 S
C679 C684 1.490 . S
C680 H670 0.930 . S
C680 C679 1.400 1_455 S
C680 C683 1.386 . S
H681 C697 0.930 . S
H682 C698 0.931 . S
C683 H671 0.929 . S
C683 C677 1.372 1_455 S
C683 C680 1.386 . S
C684 C679 1.490 . S
C684 C686 1.395 1_554 S
C684 C687 1.405 . S
H685 C691 0.929 1_455 S
C686 H672 0.930 . S
C686 C684 1.395 1_556 S
C686 C689 1.403 . S
C687 C684 1.405 . S
C687 C688 1.524 . S
C687 C691 1.400 1_554 S
C688 H673 0.959 . S
C688 H674 1.001 . S
C688 H675 0.922 1_655 S
C688 C687 1.524 . S
C689 C686 1.403 . S
C689 C690 1.392 . S
C689 C693 1.495 . S
C690 C689 1.392 . S
C690 C691 1.387 . S
C690 C692 1.480 . S
C691 H685 0.929 1_655 S
C691 C687 1.400 1_556 S
C691 C690 1.387 . S
C692 C690 1.480 . S
C692 C694 1.427 . S
C692 C698 1.337 1_655 S
C693 C689 1.495 . S
C693 H699 0.959 . S
C693 H700 0.961 1_655 S
C693 H701 0.960 . S
C694 C692 1.427 . S
C694 C695 1.394 . S
C694 H702 0.930 . S
C695 C694 1.394 . S
C695 C696 1.421 . S
C695 H703 0.929 . S
C696 C695 1.421 . S
C696 C697 1.340 1_655 S
C697 H681 0.930 . S
C697 C696 1.340 1_455 S
C697 C698 1.379 . S
C698 H682 0.931 . S
C698 C692 1.337 1_455 S
C698 C697 1.379 . S
H699 C693 0.959 . S
H700 C693 0.961 1_455 S
H701 C693 0.960 . S
H702 C694 0.930 . S
H703 C695 0.929 . S
H704 C712 0.929 . S
H705 C714 0.930 . S
H706 C716 0.930 . S
H707 C719 0.929 . S
H708 C722 0.930 . S
H709 C724 0.960 . S
H710 C724 0.960 . S
H711 C724 0.965 . S
C712 H704 0.929 . S
C712 C713 1.377 . S
C712 C714 1.384 . S
C713 C712 1.377 . S
C713 C719 1.390 1_455 S
C714 H705 0.930 . S
C714 C712 1.384 . S
C714 C715 1.372 1_455 S
C715 C714 1.372 1_655 S
C715 C716 1.400 . S
C715 C720 1.490 . S
C716 H706 0.930 . S
C716 C715 1.400 . S
C716 C719 1.386 . S
H717 C733 0.930 . S
H718 C734 0.931 . S
C719 H707 0.929 . S
C719 C713 1.390 1_655 S
C719 C716 1.386 . S
C720 C715 1.490 . S
C720 C722 1.395 . S
C720 C723 1.403 . S
H721 C727 0.930 . S
C722 H708 0.930 . S
C722 C720 1.395 . S
C722 C725 1.403 . S
C723 C720 1.403 . S
C723 C724 1.524 1_655 S
C723 C727 1.400 . S
C724 H709 0.960 . S
C724 H710 0.960 . S
C724 H711 0.965 . S
C724 C723 1.524 1_455 S
C725 C722 1.403 . S
C725 C726 1.392 . S
C725 C729 1.495 . S
C726 C725 1.392 . S
C726 C727 1.385 . S
C726 C728 1.478 . S
C727 H721 0.930 . S
C727 C723 1.400 . S
C727 C726 1.385 . S
C728 C726 1.478 . S
C728 C730 1.381 . S
C728 C734 1.383 . S
C729 C725 1.495 . S
C729 H735 0.959 . S
C729 H736 0.961 . S
C729 H737 0.960 . S
C730 C728 1.381 . S
C730 C731 1.394 . S
C730 H738 0.930 . S
C731 C730 1.394 . S
C731 C732 1.383 . S
C731 H739 0.929 . S
C732 C731 1.383 . S
C732 C733 1.377 . S
C733 H717 0.930 . S
C733 C732 1.377 . S
C733 C734 1.379 . S
C734 H718 0.931 . S
C734 C728 1.383 . S
C734 C733 1.379 . S
H735 C729 0.959 . S
H736 C729 0.961 . S
H737 C729 0.960 . S
H738 C730 0.930 . S
H739 C731 0.929 . S
H740 C748 0.929 . S
H741 C750 0.930 . S
H742 C752 0.930 . S
H743 C755 0.929 . S
H744 C758 0.930 1_545 S
H745 C760 0.960 . S
H746 C760 0.960 . S
H747 C760 0.960 . S
C748 H740 0.929 . S
C748 C749 1.377 . S
C748 C750 1.384 . S
C749 C748 1.377 . S
C749 C755 1.390 1_545 S
C750 H741 0.930 . S
C750 C748 1.384 . S
C750 C751 1.372 1_545 S
C751 C750 1.372 1_565 S
C751 C752 1.400 . S
C751 C756 1.490 . S
C752 H742 0.930 . S
C752 C751 1.400 . S
C752 C755 1.386 . S
H753 C769 0.930 . S
H754 C770 0.931 . S
C755 H743 0.929 . S
C755 C749 1.390 1_565 S
C755 C752 1.386 . S
C756 C751 1.490 . S
C756 C758 1.395 . S
C756 C759 1.403 . S
H757 C763 0.930 . S
C758 H744 0.930 1_565 S
C758 C756 1.395 . S
C758 C761 1.403 . S
C759 C756 1.403 . S
C759 C760 1.524 . S
C759 C763 1.400 . S
C760 H745 0.960 . S
C760 H746 0.960 . S
C760 H747 0.960 . S
C760 C759 1.524 . S
C761 C758 1.403 . S
C761 C762 1.392 . S
C761 C765 1.495 1_565 S
C762 C761 1.392 . S
C762 C763 1.385 . S
C762 C764 1.478 . S
C763 H757 0.930 . S
C763 C759 1.400 . S
C763 C762 1.385 . S
C764 C762 1.478 . S
C764 C766 1.381 . S
C764 C770 1.383 . S
C765 C761 1.495 1_545 S
C765 H771 0.959 . S
C765 H772 0.961 1_545 S
C765 H773 0.960 . S
C766 C764 1.381 . S
C766 C767 1.394 . S
C766 H774 0.930 1_565 S
C767 C766 1.394 . S
C767 C768 1.383 . S
C767 H775 0.929 1_565 S
C768 C767 1.383 . S
C768 C769 1.377 . S
C769 H753 0.930 . S
C769 C768 1.377 . S
C769 C770 1.379 . S
C770 H754 0.931 . S
C770 C764 1.383 . S
C770 C769 1.379 . S
H771 C765 0.959 . S
H772 C765 0.961 1_565 S
H773 C765 0.960 . S
H774 C766 0.930 1_545 S
H775 C767 0.929 1_545 S
H776 C784 0.929 . S
H777 C786 0.930 . S
H778 C788 0.930 . S
H779 C791 0.929 . S
H780 C794 0.930 . S
H781 C796 0.960 . S
H782 C796 0.960 . S
H783 C796 0.960 . S
C784 H776 0.929 . S
C784 C785 1.377 . S
C784 C786 1.384 . S
C785 C784 1.377 . S
C785 C791 1.390 . S
C786 H777 0.930 . S
C786 C784 1.384 . S
C786 C787 1.372 . S
C787 C786 1.372 . S
C787 C788 1.400 . S
C787 C792 1.490 . S
C788 H778 0.930 . S
C788 C787 1.400 . S
C788 C791 1.386 . S
H789 C805 0.930 . S
H790 C806 0.931 . S
C791 H779 0.929 . S
C791 C785 1.390 . S
C791 C788 1.386 . S
C792 C787 1.490 . S
C792 C794 1.395 . S
C792 C795 1.403 . S
H793 C799 0.930 . S
C794 H780 0.930 . S
C794 C792 1.395 . S
C794 C797 1.403 . S
C795 C792 1.403 . S
C795 C796 1.524 . S
C795 C799 1.400 . S
C796 H781 0.960 . S
C796 H782 0.960 . S
C796 H783 0.960 . S
C796 C795 1.524 . S
C797 C794 1.403 . S
C797 C798 1.392 . S
C797 C801 1.495 . S
C798 C797 1.392 . S
C798 C799 1.385 . S
C798 C800 1.478 . S
C799 H793 0.930 . S
C799 C795 1.400 . S
C799 C798 1.385 . S
C800 C798 1.478 . S
C800 C802 1.381 . S
C800 C806 1.383 . S
C801 C797 1.495 . S
C801 H807 0.959 . S
C801 H808 0.961 . S
C801 H809 0.960 . S
C802 C800 1.381 . S
C802 C803 1.394 . S
C802 H810 0.930 . S
C803 C802 1.394 . S
C803 C804 1.383 . S
C803 H811 0.929 . S
C804 C803 1.383 . S
C804 C805 1.377 . S
C805 H789 0.930 . S
C805 C804 1.377 . S
C805 C806 1.379 . S
C806 H790 0.931 . S
C806 C800 1.383 . S
C806 C805 1.379 . S
H807 C801 0.959 . S
H808 C801 0.961 . S
H809 C801 0.960 . S
H810 C802 0.930 . S
H811 C803 0.929 . S
H812 C820 0.929 . S
H813 C822 0.930 . S
H814 C824 0.930 . S
H815 C827 0.929 . S
H816 C830 0.930 . S
H817 C832 0.960 . S
H818 C832 0.960 . S
H819 C832 0.960 . S
C820 H812 0.929 . S
C820 C821 1.377 . S
C820 C822 1.384 . S
C821 C820 1.377 . S
C821 C827 1.390 . S
C822 H813 0.930 . S
C822 C820 1.384 . S
C822 C823 1.372 . S
C823 C822 1.372 . S
C823 C824 1.400 . S
C823 C828 1.490 . S
C824 H814 0.930 . S
C824 C823 1.400 . S
C824 C827 1.386 . S
H825 C841 0.930 . S
H826 C842 0.931 . S
C827 H815 0.929 . S
C827 C821 1.390 . S
C827 C824 1.386 . S
C828 C823 1.490 . S
C828 C830 1.395 . S
C828 C831 1.403 . S
H829 C835 0.930 . S
C830 H816 0.930 . S
C830 C828 1.395 . S
C830 C833 1.403 . S
C831 C828 1.403 . S
C831 C832 1.524 . S
C831 C835 1.400 . S
C832 H817 0.960 . S
C832 H818 0.960 . S
C832 H819 0.960 . S
C832 C831 1.524 . S
C833 C830 1.403 . S
C833 C834 1.392 . S
C833 C837 1.495 . S
C834 C833 1.392 . S
C834 C835 1.385 . S
C834 C836 1.478 . S
C835 H829 0.930 . S
C835 C831 1.400 . S
C835 C834 1.385 . S
C836 C834 1.478 . S
C836 C838 1.381 . S
C836 C842 1.383 . S
C837 C833 1.495 . S
C837 H843 0.959 . S
C837 H844 0.961 . S
C837 H845 0.960 . S
C838 C836 1.381 . S
C838 C839 1.394 . S
C838 H846 0.930 . S
C839 C838 1.394 . S
C839 C840 1.383 . S
C839 H847 0.929 . S
C840 C839 1.383 . S
C840 C841 1.377 . S
C841 H825 0.930 . S
C841 C840 1.377 . S
C841 C842 1.379 . S
C842 H826 0.931 . S
C842 C836 1.383 . S
C842 C841 1.379 . S
H843 C837 0.959 . S
H844 C837 0.961 . S
H845 C837 0.960 . S
H846 C838 0.930 . S
H847 C839 0.929 . S
H848 C856 0.929 . S
H849 C858 0.930 . S
H850 C860 0.930 . S
H851 C863 0.929 . S
H852 C866 0.930 . S
H853 C868 0.960 1_655 S
H854 C868 0.960 . S
H855 C868 0.960 1_655 S
C856 H848 0.929 . S
C856 C857 1.377 1_455 S
C856 C858 1.384 . S
C857 C856 1.377 1_655 S
C857 C863 1.390 . S
C858 H849 0.930 . S
C858 C856 1.384 . S
C858 C859 1.372 . S
C859 C858 1.372 . S
C859 C860 1.400 1_455 S
C859 C864 1.490 . S
C860 H850 0.930 . S
C860 C859 1.400 1_655 S
C860 C863 1.386 . S
H861 C877 0.930 1_655 S
H862 C878 0.931 1_655 S
C863 H851 0.929 . S
C863 C857 1.390 . S
C863 C860 1.386 . S
C864 C859 1.490 . S
C864 C866 1.395 1_554 S
C864 C867 1.403 . S
H865 C871 0.930 . S
C866 H852 0.930 . S
C866 C864 1.395 1_556 S
C866 C869 1.403 . S
C867 C864 1.403 . S
C867 C868 1.524 . S
C867 C871 1.400 . S
C868 H853 0.960 1_455 S
C868 H854 0.960 . S
C868 H855 0.960 1_455 S
C868 C867 1.524 . S
C869 C866 1.403 . S
C869 C870 1.392 . S
C869 C873 1.495 . S
C870 C869 1.392 . S
C870 C871 1.385 1_556 S
C870 C872 1.478 . S
C871 H865 0.930 . S
C871 C867 1.400 . S
C871 C870 1.385 1_554 S
C872 C870 1.478 . S
C872 C874 1.381 . S
C872 C878 1.383 . S
C873 C869 1.495 . S
C873 H879 0.959 . S
C873 H880 0.961 . S
C873 H881 0.960 . S
C874 C872 1.381 . S
C874 C875 1.394 . S
C874 H882 0.930 . S
C875 C874 1.394 . S
C875 C876 1.383 . S
C875 H883 0.929 . S
C876 C875 1.383 . S
C876 C877 1.377 . S
C877 H861 0.930 1_455 S
C877 C876 1.377 . S
C877 C878 1.379 . S
C878 H862 0.931 1_455 S
C878 C872 1.383 . S
C878 C877 1.379 . S
H879 C873 0.959 . S
H880 C873 0.961 . S
H881 C873 0.960 . S
H882 C874 0.930 . S
H883 C875 0.929 . S
H884 C892 0.929 . S
H885 C894 0.930 . S
H886 C896 0.930 . S
H887 C899 0.929 . S
H888 C902 0.930 1_556 S
H889 C904 0.960 . S
H890 C904 0.960 . S
H891 C904 0.960 . S
C892 H884 0.929 . S
C892 C893 1.377 1_545 S
C892 C894 1.384 . S
C893 C892 1.377 1_565 S
C893 C899 1.390 . S
C894 H885 0.930 . S
C894 C892 1.384 . S
C894 C895 1.372 . S
C895 C894 1.372 . S
C895 C896 1.400 1_545 S
C895 C900 1.490 . S
C896 H886 0.930 . S
C896 C895 1.400 1_565 S
C896 C899 1.386 . S
H897 C913 0.930 1_565 S
H898 C914 0.931 1_565 S
C899 H887 0.929 . S
C899 C893 1.390 . S
C899 C896 1.386 . S
C900 C895 1.490 . S
C900 C902 1.395 . S
C900 C903 1.403 . S
H901 C907 0.922 1_565 S
C902 H888 0.930 1_554 S
C902 C900 1.395 . S
C902 C905 1.403 1_554 S
C903 C900 1.403 . S
C903 C904 1.524 1_545 S
C903 C907 1.400 . S
C904 H889 0.960 . S
C904 H890 0.960 . S
C904 H891 0.960 . S
C904 C903 1.524 1_565 S
C905 C902 1.403 1_556 S
C905 C906 1.392 . S
C905 C909 1.495 . S
C906 C905 1.392 . S
C906 C907 1.385 1_556 S
C906 C908 1.478 . S
C907 H901 0.922 1_545 S
C907 C903 1.400 . S
C907 C906 1.385 1_554 S
C908 C906 1.478 . S
C908 C910 1.381 . S
C908 C914 1.383 . S
C909 C905 1.495 . S
C909 H915 0.959 . S
C909 H916 0.961 . S
C909 H917 0.960 . S
C910 C908 1.381 . S
C910 C911 1.394 . S
C910 H918 0.930 . S
C911 C910 1.394 . S
C911 C912 1.383 . S
C911 H919 0.929 . S
C912 C911 1.383 . S
C912 C913 1.377 . S
C913 H897 0.930 1_545 S
C913 C912 1.377 . S
C913 C914 1.379 . S
C914 H898 0.931 1_545 S
C914 C908 1.383 . S
C914 C913 1.379 . S
H915 C909 0.959 . S
H916 C909 0.961 . S
H917 C909 0.960 . S
H918 C910 0.930 . S
H919 C911 0.929 . S
H920 C928 0.929 . S
H921 C930 0.930 . S
H922 C932 0.930 . S
H923 C935 0.929 . S
H924 C938 0.930 . S
H925 C940 0.960 . S
H926 C940 0.960 . S
H927 C940 0.960 . S
C928 H920 0.929 . S
C928 C929 1.377 . S
C928 C930 1.384 . S
C929 C928 1.377 . S
C929 C935 1.390 . S
C930 H921 0.930 . S
C930 C928 1.384 . S
C930 C931 1.372 . S
C931 C930 1.372 . S
C931 C932 1.400 . S
C931 C936 1.490 . S
C932 H922 0.930 . S
C932 C931 1.400 . S
C932 C935 1.386 . S
H933 C949 0.930 . S
H934 C950 0.931 1_554 S
C935 H923 0.929 . S
C935 C929 1.390 . S
C935 C932 1.386 . S
C936 C931 1.490 . S
C936 C938 1.395 . S
C936 C939 1.403 . S
H937 C943 0.930 1_556 S
C938 H924 0.930 . S
C938 C936 1.395 . S
C938 C941 1.403 1_554 S
C939 C936 1.403 . S
C939 C940 1.524 . S
C939 C943 1.400 . S
C940 H925 0.960 . S
C940 H926 0.960 . S
C940 H927 0.960 . S
C940 C939 1.524 . S
C941 C938 1.403 1_556 S
C941 C942 1.392 . S
C941 C945 1.495 . S
C942 C941 1.392 . S
C942 C943 1.385 1_556 S
C942 C944 1.478 . S
C943 H937 0.930 1_554 S
C943 C939 1.400 . S
C943 C942 1.385 1_554 S
C944 C942 1.478 . S
C944 C946 1.381 . S
C944 C950 1.383 . S
C945 C941 1.495 . S
C945 H951 0.959 . S
C945 H952 0.961 . S
C945 H953 0.960 . S
C946 C944 1.381 . S
C946 C947 1.394 . S
C946 H954 0.930 . S
C947 C946 1.394 . S
C947 C948 1.383 . S
C947 H955 0.929 . S
C948 C947 1.383 . S
C948 C949 1.377 . S
C949 H933 0.930 . S
C949 C948 1.377 . S
C949 C950 1.379 . S
C950 H934 0.931 1_556 S
C950 C944 1.383 . S
C950 C949 1.379 . S
H951 C945 0.959 . S
H952 C945 0.961 . S
H953 C945 0.960 . S
H954 C946 0.930 . S
H955 C947 0.929 . S
H956 C964 0.929 . S
H957 C966 0.930 . S
H958 C968 0.930 . S
H959 C971 0.929 . S
H960 C974 0.930 . S
H961 C976 0.960 . S
H962 C976 0.960 . S
H963 C976 0.960 . S
C964 H956 0.929 . S
C964 C965 1.377 . S
C964 C966 1.384 . S
C965 C964 1.377 . S
C965 C971 1.390 . S
C966 H957 0.930 . S
C966 C964 1.384 . S
C966 C967 1.372 . S
C967 C966 1.372 . S
C967 C968 1.400 . S
C967 C972 1.490 . S
C968 H958 0.930 . S
C968 C967 1.400 . S
C968 C971 1.386 . S
H969 C985 0.930 . S
H970 C986 0.931 1_554 S
C971 H959 0.929 . S
C971 C965 1.390 . S
C971 C968 1.386 . S
C972 C967 1.490 . S
C972 C974 1.395 . S
C972 C975 1.403 . S
H973 C979 0.930 . S
C974 H960 0.930 . S
C974 C972 1.395 . S
C974 C977 1.403 . S
C975 C972 1.403 . S
C975 C976 1.524 . S
C975 C979 1.400 1_554 S
C976 H961 0.960 . S
C976 H962 0.960 . S
C976 H963 0.960 . S
C976 C975 1.524 . S
C977 C974 1.403 . S
C977 C978 1.392 1_554 S
C977 C981 1.494 1_554 S
C978 C977 1.392 1_556 S
C978 C979 1.385 . S
C978 C980 1.478 . S
C979 H973 0.930 . S
C979 C975 1.400 1_556 S
C979 C978 1.385 . S
C980 C978 1.478 . S
C980 C982 1.381 . S
C980 C986 1.383 . S
C981 C977 1.494 1_556 S
C981 H987 0.954 1_556 S
C981 H988 0.956 1_556 S
C981 H989 0.972 . S
C982 C980 1.381 . S
C982 C983 1.394 . S
C982 H990 0.930 . S
C983 C982 1.394 . S
C983 C984 1.383 . S
C983 H991 0.929 . S
C984 C983 1.383 . S
C984 C985 1.377 . S
C985 H969 0.930 . S
C985 C984 1.377 . S
C985 C986 1.379 . S
C986 H970 0.931 1_556 S
C986 C980 1.383 . S
C986 C985 1.379 . S
H987 C981 0.954 1_554 S
H988 C981 0.956 1_554 S
H989 C981 0.972 . S
H990 C982 0.930 . S
H991 C983 0.929 . S
H992 C1000 0.929 . S
H993 C1002 0.930 . S
H994 C1004 0.930 . S
H995 C1007 0.929 . S
H996 C1010 0.930 1_655 S
H997 C1012 0.960 . S
H998 C1012 0.960 1_655 S
H999 C1012 0.960 . S
C1000 H992 0.929 . S
C1000 C1001 1.340 1_655 S
C1000 C1002 1.384 . S
C1001 C1000 1.340 1_455 S
C1001 C1007 1.429 . S
C1002 H993 0.930 . S
C1002 C1000 1.384 . S
C1002 C1003 1.372 1_655 S
C1003 C1002 1.372 1_455 S
C1003 C1004 1.400 . S
C1003 C1008 1.490 . S
C1004 H994 0.930 . S
C1004 C1003 1.400 . S
C1004 C1007 1.386 . S
H1005 C1021 0.930 . S
H1006 C1022 0.931 . S
C1007 H995 0.929 . S
C1007 C1001 1.429 . S
C1007 C1004 1.386 . S
C1008 C1003 1.490 . S
C1008 C1010 1.395 . S
C1008 C1011 1.403 . S
H1009 C1015 0.930 . S
C1010 H996 0.930 1_455 S
C1010 C1008 1.395 . S
C1010 C1013 1.403 . S
C1011 C1008 1.403 . S
C1011 C1012 1.524 . S
C1011 C1015 1.400 . S
C1012 H997 0.960 . S
C1012 H998 0.960 1_455 S
C1012 H999 0.960 . S
C1012 C1011 1.524 . S
C1013 C1010 1.403 . S
C1013 C1014 1.392 . S
C1013 C1017 1.495 . S
C1014 C1013 1.392 . S
C1014 C1015 1.385 . S
C1014 C1016 1.478 . S
C1015 H1009 0.930 . S
C1015 C1011 1.400 . S
C1015 C1014 1.385 . S
C1016 C1014 1.478 . S
C1016 C1018 1.381 1_455 S
C1016 C1022 1.383 . S
C1017 C1013 1.495 . S
C1017 H1023 0.959 1_455 S
C1017 H1024 0.961 . S
C1017 H1025 0.960 1_455 S
C1018 C1016 1.381 1_655 S
C1018 C1019 1.394 . S
C1018 H1026 0.930 . S
C1019 C1018 1.394 . S
C1019 C1020 1.383 1_655 S
C1019 H1027 0.929 . S
C1020 C1019 1.383 1_455 S
C1020 C1021 1.377 . S
C1021 H1005 0.930 . S
C1021 C1020 1.377 . S
C1021 C1022 1.379 . S
C1022 H1006 0.931 . S
C1022 C1016 1.383 . S
C1022 C1021 1.379 . S
H1023 C1017 0.959 1_655 S
H1024 C1017 0.961 . S
H1025 C1017 0.960 1_655 S
H1026 C1018 0.930 . S
H1027 C1019 0.929 . S
H1028 C1036 0.929 . S
H1029 C1038 0.930 . S
H1030 C1040 0.930 . S
H1031 C1043 0.929 . S
H1032 C1046 0.930 . S
H1033 C1048 0.960 . S
H1034 C1048 0.960 . S
H1035 C1048 0.944 1_545 S
C1036 H1028 0.929 . S
C1036 C1037 1.350 1_565 S
C1036 C1038 1.384 . S
C1037 C1036 1.350 1_545 S
C1037 C1043 1.419 . S
C1038 H1029 0.930 . S
C1038 C1036 1.384 . S
C1038 C1039 1.372 1_565 S
C1039 C1038 1.372 1_545 S
C1039 C1040 1.400 . S
C1039 C1044 1.490 . S
C1040 H1030 0.930 . S
C1040 C1039 1.400 . S
C1040 C1043 1.386 . S
H1041 C1057 0.930 . S
H1042 C1058 0.931 . S
C1043 H1031 0.929 . S
C1043 C1037 1.419 . S
C1043 C1040 1.386 . S
C1044 C1039 1.490 . S
C1044 C1046 1.395 . S
C1044 C1047 1.403 1_545 S
H1045 C1051 0.931 1_565 S
C1046 H1032 0.930 . S
C1046 C1044 1.395 . S
C1046 C1049 1.403 . S
C1047 C1044 1.403 1_565 S
C1047 C1048 1.524 . S
C1047 C1051 1.400 1_565 S
C1048 H1033 0.960 . S
C1048 H1034 0.960 . S
C1048 H1035 0.944 1_565 S
C1048 C1047 1.524 . S
C1049 C1046 1.403 . S
C1049 C1050 1.392 . S
C1049 C1053 1.495 . S
C1050 C1049 1.392 . S
C1050 C1051 1.384 . S
C1050 C1052 1.478 . S
C1051 H1045 0.931 1_545 S
C1051 C1047 1.400 1_545 S
C1051 C1050 1.384 . S
C1052 C1050 1.478 . S
C1052 C1054 1.381 1_545 S
C1052 C1058 1.383 . S
C1053 C1049 1.495 . S
C1053 H1059 0.959 . S
C1053 H1060 0.961 . S
C1053 H1061 0.960 . S
C1054 C1052 1.381 1_565 S
C1054 C1055 1.394 . S
C1054 H1062 0.930 . S
C1055 C1054 1.394 . S
C1055 C1056 1.383 1_565 S
C1055 H1063 0.929 . S
C1056 C1055 1.383 1_545 S
C1056 C1057 1.377 . S
C1057 H1041 0.930 . S
C1057 C1056 1.377 . S
C1057 C1058 1.379 . S
C1058 H1042 0.931 . S
C1058 C1052 1.383 . S
C1058 C1057 1.379 . S
H1059 C1053 0.959 . S
H1060 C1053 0.961 . S
H1061 C1053 0.960 . S
H1062 C1054 0.930 . S
H1063 C1055 0.929 . S
H1064 C1072 0.929 . S
H1065 C1074 0.930 . S
H1066 C1076 0.930 . S
H1067 C1079 0.929 . S
H1068 C1082 0.930 . S
H1069 C1084 0.960 . S
H1070 C1084 0.960 . S
H1071 C1084 0.960 . S
C1072 H1064 0.929 . S
C1072 C1073 1.377 . S
C1072 C1074 1.384 . S
C1073 C1072 1.377 . S
C1073 C1079 1.390 . S
C1074 H1065 0.930 . S
C1074 C1072 1.384 . S
C1074 C1075 1.372 . S
C1075 C1074 1.372 . S
C1075 C1076 1.400 . S
C1075 C1080 1.490 . S
C1076 H1066 0.930 . S
C1076 C1075 1.400 . S
C1076 C1079 1.386 . S
H1077 C1093 0.930 . S
H1078 C1094 0.931 . S
C1079 H1067 0.929 . S
C1079 C1073 1.390 . S
C1079 C1076 1.386 . S
C1080 C1075 1.490 . S
C1080 C1082 1.395 . S
C1080 C1083 1.403 . S
H1081 C1087 0.930 . S
C1082 H1068 0.930 . S
C1082 C1080 1.395 . S
C1082 C1085 1.403 . S
C1083 C1080 1.403 . S
C1083 C1084 1.524 . S
C1083 C1087 1.400 . S
C1084 H1069 0.960 . S
C1084 H1070 0.960 . S
C1084 H1071 0.960 . S
C1084 C1083 1.524 . S
C1085 C1082 1.403 . S
C1085 C1086 1.392 . S
C1085 C1089 1.495 . S
C1086 C1085 1.392 . S
C1086 C1087 1.385 . S
C1086 C1088 1.478 . S
C1087 H1081 0.930 . S
C1087 C1083 1.400 . S
C1087 C1086 1.385 . S
C1088 C1086 1.478 . S
C1088 C1090 1.381 . S
C1088 C1094 1.383 . S
C1089 C1085 1.495 . S
C1089 H1095 0.959 . S
C1089 H1096 0.961 . S
C1089 H1097 0.960 . S
C1090 C1088 1.381 . S
C1090 C1091 1.394 . S
C1090 H1098 0.930 . S
C1091 C1090 1.394 . S
C1091 C1092 1.383 . S
C1091 H1099 0.929 . S
C1092 C1091 1.383 . S
C1092 C1093 1.377 . S
C1093 H1077 0.930 . S
C1093 C1092 1.377 . S
C1093 C1094 1.379 . S
C1094 H1078 0.931 . S
C1094 C1088 1.383 . S
C1094 C1093 1.379 . S
H1095 C1089 0.959 . S
H1096 C1089 0.961 . S
H1097 C1089 0.960 . S
H1098 C1090 0.930 . S
H1099 C1091 0.929 . S
H1100 C1108 0.929 . S
H1101 C1110 0.930 . S
H1102 C1112 0.930 . S
H1103 C1115 0.929 . S
H1104 C1118 0.930 . S
H1105 C1120 0.960 . S
H1106 C1120 0.960 . S
H1107 C1120 0.960 . S
C1108 H1100 0.929 . S
C1108 C1109 1.377 . S
C1108 C1110 1.384 . S
C1109 C1108 1.377 . S
C1109 C1115 1.390 . S
C1110 H1101 0.930 . S
C1110 C1108 1.384 . S
C1110 C1111 1.372 . S
C1111 C1110 1.372 . S
C1111 C1112 1.400 . S
C1111 C1116 1.490 . S
C1112 H1102 0.930 . S
C1112 C1111 1.400 . S
C1112 C1115 1.386 . S
H1113 C1129 0.930 . S
H1114 C1130 0.931 . S
C1115 H1103 0.929 . S
C1115 C1109 1.390 . S
C1115 C1112 1.386 . S
C1116 C1111 1.490 . S
C1116 C1118 1.395 . S
C1116 C1119 1.403 . S
H1117 C1123 0.930 . S
C1118 H1104 0.930 . S
C1118 C1116 1.395 . S
C1118 C1121 1.403 . S
C1119 C1116 1.403 . S
C1119 C1120 1.524 . S
C1119 C1123 1.400 . S
C1120 H1105 0.960 . S
C1120 H1106 0.960 . S
C1120 H1107 0.960 . S
C1120 C1119 1.524 . S
C1121 C1118 1.403 . S
C1121 C1122 1.392 . S
C1121 C1125 1.495 . S
C1122 C1121 1.392 . S
C1122 C1123 1.385 . S
C1122 C1124 1.478 . S
C1123 H1117 0.930 . S
C1123 C1119 1.400 . S
C1123 C1122 1.385 . S
C1124 C1122 1.478 . S
C1124 C1126 1.381 . S
C1124 C1130 1.383 . S
C1125 C1121 1.495 . S
C1125 H1131 0.959 . S
C1125 H1132 0.961 . S
C1125 H1133 0.960 . S
C1126 C1124 1.381 . S
C1126 C1127 1.394 . S
C1126 H1134 0.930 . S
C1127 C1126 1.394 . S
C1127 C1128 1.383 . S
C1127 H1135 0.929 . S
C1128 C1127 1.383 . S
C1128 C1129 1.377 . S
C1129 H1113 0.930 . S
C1129 C1128 1.377 . S
C1129 C1130 1.379 . S
C1130 H1114 0.931 . S
C1130 C1124 1.383 . S
C1130 C1129 1.379 . S
H1131 C1125 0.959 . S
H1132 C1125 0.961 . S
H1133 C1125 0.960 . S
H1134 C1126 0.930 . S
H1135 C1127 0.929 . S
H1136 C1144 0.929 . S
H1137 C1146 0.930 . S
H1138 C1148 0.930 . S
H1139 C1151 0.929 . S
H1140 C1154 0.930 . S
H1141 C1156 0.960 . S
H1142 C1156 0.960 . S
H1143 C1156 0.960 . S
C1144 H1136 0.929 . S
C1144 C1145 1.377 1_455 S
C1144 C1146 1.384 . S
C1145 C1144 1.377 1_655 S
C1145 C1151 1.390 . S
C1146 H1137 0.930 . S
C1146 C1144 1.384 . S
C1146 C1147 1.372 1_455 S
C1147 C1146 1.372 1_655 S
C1147 C1148 1.400 . S
C1147 C1152 1.490 . S
C1148 H1138 0.930 . S
C1148 C1147 1.400 . S
C1148 C1151 1.386 . S
H1149 C1165 0.930 . S
H1150 C1166 0.931 . S
C1151 H1139 0.929 . S
C1151 C1145 1.390 . S
C1151 C1148 1.386 . S
C1152 C1147 1.490 . S
C1152 C1154 1.395 1_655 S
C1152 C1155 1.403 . S
H1153 C1159 0.930 . S
C1154 H1140 0.930 . S
C1154 C1152 1.395 1_455 S
C1154 C1157 1.403 . S
C1155 C1152 1.403 . S
C1155 C1156 1.524 . S
C1155 C1159 1.400 . S
C1156 H1141 0.960 . S
C1156 H1142 0.960 . S
C1156 H1143 0.960 . S
C1156 C1155 1.524 . S
C1157 C1154 1.403 . S
C1157 C1158 1.392 1_455 S
C1157 C1161 1.495 . S
C1158 C1157 1.392 1_655 S
C1158 C1159 1.385 . S
C1158 C1160 1.478 . S
C1159 H1153 0.930 . S
C1159 C1155 1.400 . S
C1159 C1158 1.385 . S
C1160 C1158 1.478 . S
C1160 C1162 1.381 1_655 S
C1160 C1166 1.383 . S
C1161 C1157 1.495 . S
C1161 H1167 0.959 . S
C1161 H1168 0.961 . S
C1161 H1169 0.960 . S
C1162 C1160 1.381 1_455 S
C1162 C1163 1.393 1_455 S
C1162 H1170 0.930 . S
C1163 C1162 1.393 1_655 S
C1163 C1164 1.386 . S
C1163 H1171 0.927 1_655 S
C1164 C1163 1.386 . S
C1164 C1165 1.377 . S
C1165 H1149 0.930 . S
C1165 C1164 1.377 . S
C1165 C1166 1.379 . S
C1166 H1150 0.931 . S
C1166 C1160 1.383 . S
C1166 C1165 1.379 . S
H1167 C1161 0.959 . S
H1168 C1161 0.961 . S
H1169 C1161 0.960 . S
H1170 C1162 0.930 . S
H1171 C1163 0.927 1_455 S
H1172 C1180 0.929 . S
H1173 C1182 0.930 . S
H1174 C1184 0.930 . S
H1175 C1187 0.929 . S
H1176 C1190 0.930 . S
H1177 C1192 0.960 . S
H1178 C1192 0.960 1_545 S
H1179 C1192 0.960 . S
C1180 H1172 0.929 . S
C1180 C1181 1.351 1_545 S
C1180 C1182 1.384 . S
C1181 C1180 1.351 1_565 S
C1181 C1187 1.417 . S
C1182 H1173 0.930 . S
C1182 C1180 1.384 . S
C1182 C1183 1.372 1_545 S
C1183 C1182 1.372 1_565 S
C1183 C1184 1.400 . S
C1183 C1188 1.490 . S
C1184 H1174 0.930 . S
C1184 C1183 1.400 . S
C1184 C1187 1.386 . S
H1185 C1201 0.930 . S
H1186 C1202 0.931 . S
C1187 H1175 0.929 . S
C1187 C1181 1.417 . S
C1187 C1184 1.386 . S
C1188 C1183 1.490 . S
C1188 C1190 1.395 . S
C1188 C1191 1.403 . S
H1189 C1195 0.930 . S
C1190 H1176 0.930 . S
C1190 C1188 1.395 . S
C1190 C1193 1.403 . S
C1191 C1188 1.403 . S
C1191 C1192 1.524 . S
C1191 C1195 1.400 . S
C1192 H1177 0.960 . S
C1192 H1178 0.960 1_565 S
C1192 H1179 0.960 . S
C1192 C1191 1.524 . S
C1193 C1190 1.403 . S
C1193 C1194 1.392 . S
C1193 C1197 1.495 . S
C1194 C1193 1.392 . S
C1194 C1195 1.385 . S
C1194 C1196 1.478 . S
C1195 H1189 0.930 . S
C1195 C1191 1.400 . S
C1195 C1194 1.385 . S
C1196 C1194 1.478 . S
C1196 C1198 1.381 1_565 S
C1196 C1202 1.383 . S
C1197 C1193 1.495 . S
C1197 H1203 0.959 . S
C1197 H1204 0.961 . S
C1197 H1205 0.960 1_565 S
C1198 C1196 1.381 1_545 S
C1198 C1199 1.394 . S
C1198 H1206 0.930 . S
C1199 C1198 1.394 . S
C1199 C1200 1.383 1_545 S
C1199 H1207 0.929 . S
C1200 C1199 1.383 1_565 S
C1200 C1201 1.377 . S
C1201 H1185 0.930 . S
C1201 C1200 1.377 . S
C1201 C1202 1.379 . S
C1202 H1186 0.931 . S
C1202 C1196 1.383 . S
C1202 C1201 1.379 . S
H1203 C1197 0.959 . S
H1204 C1197 0.961 . S
H1205 C1197 0.960 1_545 S
H1206 C1198 0.930 . S
H1207 C1199 0.929 . S
H1208 C1216 0.929 . S
H1209 C1218 0.930 . S
H1210 C1220 0.930 . S
H1211 C1223 0.929 . S
H1212 C1226 0.930 . S
H1213 C1228 0.960 . S
H1214 C1228 0.960 . S
H1215 C1228 0.960 . S
C1216 H1208 0.929 . S
C1216 C1217 1.377 . S
C1216 C1218 1.384 . S
C1217 C1216 1.377 . S
C1217 C1223 1.390 . S
C1218 H1209 0.930 . S
C1218 C1216 1.384 . S
C1218 C1219 1.372 . S
C1219 C1218 1.372 . S
C1219 C1220 1.400 . S
C1219 C1224 1.490 . S
C1220 H1210 0.930 . S
C1220 C1219 1.400 . S
C1220 C1223 1.386 . S
H1221 C1237 0.930 . S
H1222 C1238 0.931 . S
C1223 H1211 0.929 . S
C1223 C1217 1.390 . S
C1223 C1220 1.386 . S
C1224 C1219 1.490 . S
C1224 C1226 1.395 . S
C1224 C1227 1.403 . S
H1225 C1231 0.930 . S
C1226 H1212 0.930 . S
C1226 C1224 1.395 . S
C1226 C1229 1.403 . S
C1227 C1224 1.403 . S
C1227 C1228 1.524 . S
C1227 C1231 1.400 . S
C1228 H1213 0.960 . S
C1228 H1214 0.960 . S
C1228 H1215 0.960 . S
C1228 C1227 1.524 . S
C1229 C1226 1.403 . S
C1229 C1230 1.392 . S
C1229 C1233 1.495 . S
C1230 C1229 1.392 . S
C1230 C1231 1.385 . S
C1230 C1232 1.478 . S
C1231 H1225 0.930 . S
C1231 C1227 1.400 . S
C1231 C1230 1.385 . S
C1232 C1230 1.478 . S
C1232 C1234 1.381 . S
C1232 C1238 1.383 . S
C1233 C1229 1.495 . S
C1233 H1239 0.959 . S
C1233 H1240 0.961 . S
C1233 H1241 0.960 . S
C1234 C1232 1.381 . S
C1234 C1235 1.394 . S
C1234 H1242 0.930 . S
C1235 C1234 1.394 . S
C1235 C1236 1.383 . S
C1235 H1243 0.929 . S
C1236 C1235 1.383 . S
C1236 C1237 1.377 . S
C1237 H1221 0.930 . S
C1237 C1236 1.377 . S
C1237 C1238 1.379 . S
C1238 H1222 0.931 . S
C1238 C1232 1.383 . S
C1238 C1237 1.379 . S
H1239 C1233 0.959 . S
H1240 C1233 0.961 . S
H1241 C1233 0.960 . S
H1242 C1234 0.930 . S
H1243 C1235 0.929 . S
H1244 C1252 0.929 . S
H1245 C1254 0.930 . S
H1246 C1256 0.930 . S
H1247 C1259 0.929 . S
H1248 C1262 0.930 . S
H1249 C1264 0.960 . S
H1250 C1264 0.960 . S
H1251 C1264 0.960 . S
C1252 H1244 0.929 . S
C1252 C1253 1.377 . S
C1252 C1254 1.384 . S
C1253 C1252 1.377 . S
C1253 C1259 1.390 . S
C1254 H1245 0.930 . S
C1254 C1252 1.384 . S
C1254 C1255 1.372 . S
C1255 C1254 1.372 . S
C1255 C1256 1.400 . S
C1255 C1260 1.490 . S
C1256 H1246 0.930 . S
C1256 C1255 1.400 . S
C1256 C1259 1.386 . S
H1257 C1273 0.930 . S
H1258 C1274 0.931 . S
C1259 H1247 0.929 . S
C1259 C1253 1.390 . S
C1259 C1256 1.386 . S
C1260 C1255 1.490 . S
C1260 C1262 1.395 . S
C1260 C1263 1.403 . S
H1261 C1267 0.930 . S
C1262 H1248 0.930 . S
C1262 C1260 1.395 . S
C1262 C1265 1.403 . S
C1263 C1260 1.403 . S
C1263 C1264 1.524 . S
C1263 C1267 1.400 . S
C1264 H1249 0.960 . S
C1264 H1250 0.960 . S
C1264 H1251 0.960 . S
C1264 C1263 1.524 . S
C1265 C1262 1.403 . S
C1265 C1266 1.392 . S
C1265 C1269 1.495 . S
C1266 C1265 1.392 . S
C1266 C1267 1.385 . S
C1266 C1268 1.478 . S
C1267 H1261 0.930 . S
C1267 C1263 1.400 . S
C1267 C1266 1.385 . S
C1268 C1266 1.478 . S
C1268 C1270 1.381 . S
C1268 C1274 1.383 . S
C1269 C1265 1.495 . S
C1269 H1275 0.959 . S
C1269 H1276 0.961 . S
C1269 H1277 0.960 . S
C1270 C1268 1.381 . S
C1270 C1271 1.394 . S
C1270 H1278 0.930 . S
C1271 C1270 1.394 . S
C1271 C1272 1.383 . S
C1271 H1279 0.929 . S
C1272 C1271 1.383 . S
C1272 C1273 1.377 . S
C1273 H1257 0.930 . S
C1273 C1272 1.377 . S
C1273 C1274 1.379 . S
C1274 H1258 0.931 . S
C1274 C1268 1.383 . S
C1274 C1273 1.379 . S
H1275 C1269 0.959 . S
H1276 C1269 0.961 . S
H1277 C1269 0.960 . S
H1278 C1270 0.930 . S
H1279 C1271 0.929 . S
C425 C215 1.825 1_565 S
C444 C258 1.934 1_545 S
C480 C298 1.941 . S
C461 C247 1.815 . S
C516 C338 1.937 . S
C497 C151 1.831 . S
C552 C378 1.931 1_455 S
C533 C183 1.831 1_655 S
C588 C271 1.931 1_565 S
C569 C87 1.831 1_565 S
C605 C119 1.833 . S
C624 C311 1.938 . S
C641 C23 1.835 . S
C660 C351 1.935 . S
C677 C55 1.827 1_655 S
C696 C391 1.931 1_655 S
C732 C282 0.311 . S
C713 C189 0.233 . S
C768 C322 0.274 . S
C749 C221 0.235 . S
C804 C362 0.315 . S
C785 C253 0.245 . S
C821 C157 0.266 . S
C840 C402 0.151 . S
C857 C61 0.398 1_655 S
C876 C265 0.299 . S
C912 C305 0.313 . S
C893 C93 0.389 1_565 S
C948 C345 0.178 . S
C929 C125 0.410 . S
C965 C29 0.414 . S
C984 C385 0.170 . S
C1001 C177 2.248 . S
C1020 C259 2.481 . S
C1037 C209 2.241 . S
C1056 C299 2.482 . S
C1092 C339 2.472 . S
C1073 C241 2.222 . S
C1128 C379 2.488 . S
C1109 C145 2.235 . S
C1145 C49 2.264 1_655 S
C1164 C278 2.493 . S
C1200 C318 2.488 . S
C1181 C81 2.244 1_565 S
C1236 C358 2.478 . S
C1217 C113 2.243 . S
C1253 C17 2.251 . S
C1272 C398 2.500 . S
