# Generated by pormake.
# Topology zzz, (3,6)-cn, num edge types: 1
# Building blocks:
#     Node 0, Type 0, BuildingBlock: BETDIP_clean_linker_0, # of connection points: 3
#     Node 1, Type 0, BuildingBlock: BETDIP_clean_linker_0, # of connection points: 3
#     Node 2, Type 0, BuildingBlock: BETDIP_clean_linker_0, # of connection points: 3
#     Node 3, Type 0, BuildingBlock: BETDIP_clean_linker_0, # of connection points: 3
#     Node 4, Type 0, BuildingBlock: BETDIP_clean_linker_0, # of connection points: 3
#     Node 5, Type 0, BuildingBlock: BETDIP_clean_linker_0, # of connection points: 3
#     Node 6, Type 0, BuildingBlock: BETDIP_clean_linker_0, # of connection points: 3
#     Node 7, Type 0, BuildingBlock: BETDIP_clean_linker_0, # of connection points: 3
#     Node 8, Type 1, BuildingBlock: JUFBIX_clean_sbu_0, # of connection points: 6
#     Node 9, Type 1, BuildingBlock: JUFBIX_clean_sbu_0, # of connection points: 6
#     Node 10, Type 1, BuildingBlock: JUFBIX_clean_sbu_0, # of connection points: 6
#     Node 11, Type 1, BuildingBlock: JUFBIX_clean_sbu_0, # of connection points: 6
#     Edge 12, Type (0, 1), BuildingBlock: MIFKUJ_clean_linker_0, # of connection points: 2
#     Edge 13, Type (0, 1), BuildingBlock: MIFKUJ_clean_linker_0, # of connection points: 2
#     Edge 14, Type (0, 1), BuildingBlock: MIFKUJ_clean_linker_0, # of connection points: 2
#     Edge 15, Type (0, 1), BuildingBlock: MIFKUJ_clean_linker_0, # of connection points: 2
#     Edge 16, Type (0, 1), BuildingBlock: MIFKUJ_clean_linker_0, # of connection points: 2
#     Edge 17, Type (0, 1), BuildingBlock: MIFKUJ_clean_linker_0, # of connection points: 2
#     Edge 18, Type (0, 1), BuildingBlock: MIFKUJ_clean_linker_0, # of connection points: 2
#     Edge 19, Type (0, 1), BuildingBlock: MIFKUJ_clean_linker_0, # of connection points: 2
#     Edge 20, Type (0, 1), BuildingBlock: MIFKUJ_clean_linker_0, # of connection points: 2
#     Edge 21, Type (0, 1), BuildingBlock: MIFKUJ_clean_linker_0, # of connection points: 2
#     Edge 22, Type (0, 1), BuildingBlock: MIFKUJ_clean_linker_0, # of connection points: 2
#     Edge 23, Type (0, 1), BuildingBlock: MIFKUJ_clean_linker_0, # of connection points: 2
#     Edge 24, Type (0, 1), BuildingBlock: MIFKUJ_clean_linker_0, # of connection points: 2
#     Edge 25, Type (0, 1), BuildingBlock: MIFKUJ_clean_linker_0, # of connection points: 2
#     Edge 26, Type (0, 1), BuildingBlock: MIFKUJ_clean_linker_0, # of connection points: 2
#     Edge 27, Type (0, 1), BuildingBlock: MIFKUJ_clean_linker_0, # of connection points: 2
#     Edge 28, Type (0, 1), BuildingBlock: MIFKUJ_clean_linker_0, # of connection points: 2
#     Edge 29, Type (0, 1), BuildingBlock: MIFKUJ_clean_linker_0, # of connection points: 2
#     Edge 30, Type (0, 1), BuildingBlock: MIFKUJ_clean_linker_0, # of connection points: 2
#     Edge 31, Type (0, 1), BuildingBlock: MIFKUJ_clean_linker_0, # of connection points: 2
#     Edge 32, Type (0, 1), BuildingBlock: MIFKUJ_clean_linker_0, # of connection points: 2
#     Edge 33, Type (0, 1), BuildingBlock: MIFKUJ_clean_linker_0, # of connection points: 2
#     Edge 34, Type (0, 1), BuildingBlock: MIFKUJ_clean_linker_0, # of connection points: 2
#     Edge 35, Type (0, 1), BuildingBlock: MIFKUJ_clean_linker_0, # of connection points: 2
# Relax obj value: 0.128
# Max RMSD: 0.180
# Mean RMSD: 0.088
data_MOF--net-zzz--node1-JUFBIX_clean_sbu_0--node2-BETDIP_clean_linker_0--edge1-MIFKUJ_clean_linker_0
_symmetry_space_group_name_H-M    P1
_symmetry_Int_Tables_number       1
_symmetry_cell_setting            triclinic
loop_
_symmetry_equiv_pos_as_xyz
'x, y, z'
_cell_length_a     67.247845
_cell_length_b     66.881286
_cell_length_c     22.3577
_cell_angle_alpha  83.14956
_cell_angle_beta   89.831617
_cell_angle_gamma 91.210911
loop_
_atom_site_label
_atom_site_type_symbol
_atom_site_fract_x
_atom_site_fract_y
_atom_site_fract_z
_atom_type_partial_charge
H0 H 0.77787 0.51013 0.35849 0.0
H1 H 0.78767 0.4982 0.17526 0.0
H2 H 0.83516 0.49145 0.30312 0.0
H3 H 0.76624 0.52672 0.16311 0.0
C4 C 0.75476 0.51922 0.19257 0.0
C5 C 0.78754 0.50555 0.32399 0.0
C6 C 0.80734 0.50039 0.3379 0.0
C7 C 0.78035 0.50502 0.26497 0.0
C8 C 0.79313 0.49911 0.2204 0.0
C9 C 0.81283 0.49396 0.23407 0.0
C10 C 0.81972 0.49468 0.29275 0.0
N11 N 0.76028 0.51011 0.25086 0.0
H12 H 0.97144 0.75109 0.36013 0.0
H13 H 0.98011 0.76525 0.16804 0.0
H14 H 0.98303 0.81226 0.28238 0.0
H15 H 0.95246 0.74104 0.17713 0.0
C16 C 0.96129 0.72969 0.2032 0.0
C17 C 0.97453 0.76194 0.32109 0.0
C18 C 0.97741 0.78248 0.32791 0.0
C19 C 0.9751 0.75561 0.26309 0.0
C20 C 0.9792 0.76992 0.21273 0.0
C21 C 0.98181 0.79032 0.21957 0.0
C22 C 0.98093 0.79643 0.27706 0.0
N23 N 0.97137 0.73503 0.25519 0.0
H24 H 0.75969 0.99846 0.26825 0.0
H25 H 0.74937 0.01783 0.07979 0.0
H26 H 0.70227 0.01937 0.20891 0.0
H27 H 0.77167 0.99126 0.07466 0.0
C28 C 0.78303 0.99668 0.10364 0.0
C29 C 0.75001 0.00466 0.2324 0.0
C30 C 0.7302 0.00909 0.24545 0.0
C31 C 0.7571 0.00769 0.17247 0.0
C32 C 0.74414 0.01527 0.12598 0.0
C33 C 0.72442 0.01976 0.13892 0.0
C34 C 0.71773 0.01676 0.19873 0.0
N35 N 0.77717 0.00309 0.15954 0.0
H36 H 0.5204 0.73257 0.295 0.0
H37 H 0.5093 0.723 0.11031 0.0
H38 H 0.50583 0.67333 0.25082 0.0
H39 H 0.53361 0.74886 0.09646 0.0
C40 C 0.52684 0.75901 0.12472 0.0
C41 C 0.51662 0.72262 0.2617 0.0
C42 C 0.51279 0.70206 0.27973 0.0
C43 C 0.51576 0.73028 0.20032 0.0
C44 C 0.51067 0.71719 0.15738 0.0
C45 C 0.50675 0.69663 0.17533 0.0
C46 C 0.50806 0.6893 0.23648 0.0
N47 N 0.51947 0.75121 0.18277 0.0
H48 H 0.23635 0.49761 0.19005 0.0
H49 H 0.22353 0.50971 0.37158 0.0
H50 H 0.17594 0.50382 0.24732 0.0
H51 H 0.25231 0.52974 0.34779 0.0
C52 C 0.26138 0.5176 0.33527 0.0
C53 C 0.22577 0.5001 0.22488 0.0
C54 C 0.20525 0.50032 0.21229 0.0
C55 C 0.23257 0.50392 0.28218 0.0
C56 C 0.21858 0.50715 0.32702 0.0
C57 C 0.19818 0.50741 0.31446 0.0
C58 C 0.19173 0.50387 0.25722 0.0
N59 N 0.25338 0.50475 0.29439 0.0
H60 H 0.03433 0.25732 0.16608 0.0
H61 H 0.02203 0.2403 0.35534 0.0
H62 H 0.03888 0.19556 0.24441 0.0
H63 H 0.99879 0.26603 0.32837 0.0
C64 C 0.01011 0.27717 0.31164 0.0
C65 C 0.03361 0.24603 0.20506 0.0
C66 C 0.03762 0.22577 0.19883 0.0
C67 C 0.02807 0.25151 0.26172 0.0
C68 C 0.02637 0.23648 0.31148 0.0
C69 C 0.03039 0.21641 0.30519 0.0
C70 C 0.03637 0.21126 0.24937 0.0
N71 N 0.02416 0.272 0.26852 0.0
H72 H 0.26193 0.01352 0.27204 0.0
H73 H 0.27255 1.00202 0.46365 0.0
H74 H 0.32134 0.0165 0.34254 0.0
H75 H 0.24547 0.9819 0.45879 0.0
C76 C 0.23575 0.99201 0.43147 0.0
C77 C 0.27202 0.01234 0.3099 0.0
C78 C 0.29259 0.01613 0.30011 0.0
C79 C 0.26452 0.00699 0.36891 0.0
C80 C 0.27787 0.00554 0.4178 0.0
C81 C 0.29826 0.00914 0.4082 0.0
C82 C 0.30542 0.0144 0.34968 0.0
N83 N 0.24362 0.00369 0.37878 0.0
H84 H 0.49524 0.26427 0.27149 0.0
H85 H 0.49506 0.27468 0.45877 0.0
H86 H 0.48692 0.32375 0.3205 0.0
H87 H 0.51437 0.24809 0.46815 0.0
C88 C 0.50723 0.2379 0.44008 0.0
C89 C 0.49377 0.27428 0.30587 0.0
C90 C 0.49027 0.29487 0.28918 0.0
C91 C 0.49567 0.2667 0.36718 0.0
C92 C 0.49407 0.28006 0.41132 0.0
C93 C 0.49089 0.3006 0.39465 0.0
C94 C 0.48877 0.30775 0.33375 0.0
N95 N 0.49904 0.24575 0.38358 0.0
Co96 Co 0.01771 0.011 0.80585 0.0
C97 C 0.97736 0.00375 0.8264 0.0
Co98 Co 0.00341 0.99501 0.73535 0.0
C99 C 0.02442 0.04455 0.87389 0.0
C100 C 0.04642 0.02209 0.89308 0.0
N101 N 0.02974 0.02613 0.86109 0.0
N102 N 0.03722 0.05235 0.91197 0.0
C103 C 0.05104 0.03812 0.92434 0.0
H104 H 0.01177 0.05242 0.85362 0.0
H105 H 0.05496 0.00858 0.89249 0.0
C106 C 0.04369 1.00208 0.71475 0.0
N107 N 0.99105 0.97999 0.68034 0.0
C108 C 0.99532 0.96122 0.66795 0.0
C109 C 0.97423 0.98464 0.64963 0.0
N110 N 0.98168 0.95386 0.63149 0.0
C111 C 0.96846 0.96868 0.61961 0.0
C112 C 0.00299 0.03581 0.70657 0.0
O113 O 0.04263 0.00965 0.76435 0.0
O114 O 0.02802 0.99476 0.69321 0.0
O115 O 0.99716 0.01949 0.68777 0.0
O116 O 0.01211 0.03512 0.75634 0.0
O117 O 0.97881 0.99543 0.7783 0.0
H118 H 0.96625 0.99847 0.65069 0.0
H119 H 0.00772 0.95276 0.68754 0.0
O120 O 0.99277 0.01205 0.84647 0.0
O121 O 0.02321 0.98655 0.85484 0.0
O122 O 0.00997 0.97092 0.78325 0.0
C123 C 0.01848 0.97024 0.83401 0.0
H124 H 0.06375 0.03922 0.95341 0.0
H125 H 0.95537 0.968 0.59183 0.0
Co126 Co 0.50237 0.00264 0.81828 0.0
C127 C 0.51245 0.96236 0.83551 0.0
Co128 Co 0.51866 0.99285 0.74035 0.0
C129 C 0.46723 0.01332 0.8834 0.0
C130 C 0.49335 0.01331 0.93768 0.0
N131 N 0.48714 0.01056 0.88183 0.0
N132 N 0.46082 0.01752 0.93776 0.0
C133 C 0.47728 0.01766 0.97192 0.0
H134 H 0.45745 0.01211 0.84563 0.0
H135 H 0.50848 0.01166 0.95341 0.0
C136 C 0.50855 0.03312 0.72328 0.0
N137 N 0.53356 0.98468 0.67729 0.0
C138 C 0.55156 0.99174 0.65602 0.0
C139 C 0.52913 0.9693 0.64548 0.0
N140 N 0.55864 0.98128 0.61255 0.0
C141 C 0.54441 0.96721 0.60574 0.0
C142 C 0.47835 0.98801 0.73048 0.0
O143 O 0.50069 0.02897 0.77534 0.0
O144 O 0.51749 0.01943 0.69942 0.0
O145 O 0.49452 0.98615 0.70241 0.0
O146 O 0.47882 0.99458 0.78134 0.0
O147 O 0.51956 0.96631 0.78244 0.0
H148 H 0.51582 0.95991 0.65159 0.0
H149 H 0.55957 0.00395 0.67356 0.0
O150 O 0.50428 0.97629 0.86028 0.0
O151 O 0.52654 0.01051 0.85408 0.0
O152 O 0.54248 0.99969 0.77887 0.0
C153 C 0.54284 0.0074 0.82811 0.0
H154 H 0.47758 0.0199 0.01906 0.0
H155 H 0.54492 0.95607 0.57448 0.0
Co156 Co 0.52179 0.49856 0.78973 0.0
C157 C 0.50169 0.46855 0.86322 0.0
Co158 Co 0.48924 0.49849 0.77391 0.0
C159 C 0.5593 0.49987 0.85408 0.0
C160 C 0.56329 0.49972 0.75911 0.0
N161 N 0.54915 0.49904 0.80219 0.0
N162 N 0.57921 0.50125 0.84491 0.0
C163 C 0.5817 0.50107 0.7851 0.0
H164 H 0.55216 0.5001 0.89745 0.0
H165 H 0.56037 0.49958 0.71161 0.0
C166 C 0.50955 0.52847 0.70052 0.0
N167 N 0.46191 0.49817 0.761 0.0
C168 C 0.45203 0.49883 0.70815 0.0
C169 C 0.44754 0.49784 0.80332 0.0
N170 N 0.43209 0.49909 0.71587 0.0
C171 C 0.42925 0.49848 0.77578 0.0
C172 C 0.50129 0.5237 0.85684 0.0
O173 O 0.5246 0.52083 0.72822 0.0
O174 O 0.49242 0.52055 0.71248 0.0
O175 O 0.48627 0.51715 0.8303 0.0
O176 O 0.51842 0.51703 0.84724 0.0
O177 O 0.48644 0.47617 0.8363 0.0
H178 H 0.45022 0.49732 0.85116 0.0
H179 H 0.45936 0.4996 0.66474 0.0
O180 O 0.51874 0.47652 0.85047 0.0
O181 O 0.52472 0.47992 0.73199 0.0
O182 O 0.49247 0.48017 0.71728 0.0
C183 C 0.50945 0.47358 0.70586 0.0
H184 H 0.59584 0.5019 0.76159 0.0
H185 H 0.41495 0.4984 0.79818 0.0
Co186 Co 0.00465 0.51552 0.78895 0.0
C187 C 0.03643 0.49607 0.84557 0.0
Co188 Co 0.00695 0.48407 0.76751 0.0
C189 C 0.99778 0.54915 0.85871 0.0
C190 C 1.00065 0.55823 0.76395 0.0
N191 N 1.00149 0.54197 0.80568 0.0
N192 N 0.99449 0.5692 0.85144 0.0
C193 C 0.99644 0.57489 0.79176 0.0
H194 H 0.99677 0.53971 0.90147 0.0
H195 H 1.00246 0.55793 0.71599 0.0
C196 C 0.9752 0.50357 0.71084 0.0
N197 N 0.00983 0.45781 0.74998 0.0
C198 C 0.01038 0.45102 0.69538 0.0
C199 C 0.01169 0.44122 0.79 0.0
N200 N 0.01233 0.43084 0.69988 0.0
C201 C 0.01312 0.42463 0.7594 0.0
C202 C 0.9829 0.48747 0.86535 0.0
O203 O 0.98187 0.51814 0.73729 0.0
O204 O 0.98434 0.487 0.71696 0.0
O205 O 0.98986 0.47492 0.83289 0.0
O206 O 0.98774 0.50601 0.85447 0.0
O207 O 0.02981 0.48148 0.81898 0.0
H208 H 0.01192 0.44119 0.83839 0.0
H209 H 0.00896 0.46065 0.65318 0.0
O210 O 0.02721 0.51262 0.83975 0.0
O211 O 0.02198 0.52454 0.72321 0.0
O212 O 0.02367 0.4934 0.70211 0.0
C213 C 0.02872 0.51183 0.69081 0.0
H214 H 0.99485 0.59004 0.76944 0.0
H215 H 0.01472 0.40919 0.77936 0.0
H216 H 0.20239 0.00711 0.37081 0.0
H217 H 0.16881 0.00934 0.4129 0.0
H218 H 0.19037 0.9857 0.58845 0.0
H219 H 0.22331 0.9823 0.54568 0.0
H220 H 0.15785 0.96881 0.57715 0.0
H221 H 0.1785 0.03842 0.54023 0.0
H222 H 0.19058 0.06971 0.48039 0.0
H223 H 0.13968 0.06872 0.36516 0.0
H224 H 0.12742 0.03727 0.42389 0.0
H225 H 0.08127 0.00451 0.76045 0.0
H226 H 0.11299 0.0035 0.70637 0.0
H227 H 0.08139 0.99902 0.54093 0.0
H228 H 0.04961 0.99941 0.59494 0.0
H229 H 0.11699 0.02992 0.54192 0.0
H230 H 0.09685 0.95949 0.58818 0.0
H231 H 0.0854 0.92998 0.65736 0.0
H232 H 0.13732 0.93511 0.7663 0.0
H233 H 0.14892 0.96487 0.69823 0.0
C234 C 0.19987 0.00245 0.41834 0.0
C235 C 0.21542 0.99453 0.45506 0.0
C236 C 0.18069 0.00384 0.44259 0.0
C237 C 0.17691 0.99792 0.50435 0.0
C238 C 0.19266 0.99026 0.54075 0.0
C239 C 0.21157 0.98841 0.51631 0.0
C240 C 0.15663 0.9991 0.53154 0.0
C241 C 0.14913 0.98233 0.56964 0.0
C242 C 0.1448 0.01652 0.52151 0.0
C243 C 0.15217 0.03537 0.48601 0.0
C244 C 0.16997 0.04479 0.50183 0.0
C245 C 0.17683 0.06257 0.46817 0.0
C246 C 0.16594 0.07116 0.41888 0.0
C247 C 0.14813 0.06202 0.40326 0.0
C248 C 0.14121 0.04423 0.43673 0.0
C249 C 0.08107 0.00335 0.71254 0.0
C250 C 0.06293 1.00195 0.68203 0.0
C251 C 0.09919 0.00279 0.68173 0.0
C252 C 0.09951 1.00123 0.61965 0.0
C253 C 0.08145 1.00029 0.58878 0.0
C254 C 0.06332 1.0004 0.61979 0.0
C255 C 0.11873 0.99985 0.5876 0.0
C256 C 0.12588 0.0165 0.5488 0.0
C257 C 0.13048 0.98255 0.59797 0.0
C258 C 0.12364 0.96453 0.63848 0.0
C259 C 0.10573 0.95444 0.6272 0.0
C260 C 0.09923 0.93765 0.66614 0.0
C261 C 0.1106 0.93071 0.71629 0.0
C262 C 0.12852 0.94052 0.72749 0.0
C263 C 0.13507 0.95734 0.68872 0.0
H264 H 0.10554 0.9177 0.7464 0.0
H265 H 0.17127 0.08493 0.3929 0.0
H266 H 0.51391 0.22201 0.55412 0.0
H267 H 0.51297 0.18672 0.59658 0.0
H268 H 0.49774 0.16933 0.42234 0.0
H269 H 0.49781 0.20505 0.38009 0.0
H270 H 0.47756 0.14633 0.50569 0.0
H271 H 0.54601 0.16467 0.4805 0.0
H272 H 0.57664 0.18512 0.48807 0.0
H273 H 0.57308 0.17491 0.68112 0.0
H274 H 0.54227 0.15462 0.67473 0.0
H275 H 0.51169 0.04452 0.60201 0.0
H276 H 0.51012 0.07874 0.54875 0.0
H277 H 0.50198 0.10242 0.71797 0.0
H278 H 0.50291 0.06823 0.77143 0.0
H279 H 0.53484 0.12071 0.62945 0.0
H280 H 0.46454 0.10289 0.6494 0.0
H281 H 0.43549 0.08071 0.63674 0.0
H282 H 0.44478 0.08823 0.44521 0.0
H283 H 0.47416 0.11016 0.45688 0.0
C284 C 0.51032 0.21067 0.52484 0.0
C285 C 0.5061 0.21625 0.46378 0.0
C286 C 0.50989 0.19046 0.54909 0.0
C287 C 0.50578 0.17522 0.51247 0.0
C288 C 0.50108 0.18077 0.4515 0.0
C289 C 0.50118 0.20116 0.42732 0.0
C290 C 0.50665 0.15363 0.53841 0.0
C291 C 0.49023 0.1407 0.53193 0.0
C292 C 0.52314 0.14613 0.57299 0.0
C293 C 0.54173 0.15825 0.5771 0.0
C294 C 0.55169 0.16689 0.52457 0.0
C295 C 0.56909 0.17844 0.52866 0.0
C296 C 0.57678 0.18134 0.58504 0.0
C297 C 0.5671 0.17266 0.63747 0.0
C298 C 0.54968 0.16111 0.63365 0.0
C299 C 0.50949 0.05702 0.62783 0.0
C300 C 0.50743 0.05371 0.69091 0.0
C301 C 0.50855 0.07651 0.59734 0.0
C302 C 0.50591 0.09304 0.6295 0.0
C303 C 0.50399 0.08982 0.69244 0.0
C304 C 0.50448 0.0703 0.72283 0.0
C305 C 0.50566 0.11378 0.5977 0.0
C306 C 0.52225 0.12644 0.60291 0.0
C307 C 0.48954 0.12086 0.56122 0.0
C308 C 0.4717 0.10796 0.55409 0.0
C309 C 0.46052 0.09965 0.60464 0.0
C310 C 0.44397 0.08715 0.59764 0.0
C311 C 0.43833 0.08301 0.54022 0.0
C312 C 0.44919 0.09142 0.48967 0.0
C313 C 0.46579 0.10389 0.49645 0.0
H314 H 0.42552 0.07332 0.53489 0.0
H315 H 0.59026 0.19029 0.58811 0.0
H316 H 0.29142 0.49155 0.31302 0.0
H317 H 0.32334 0.4874 0.36611 0.0
H318 H 0.30656 0.53215 0.47987 0.0
H319 H 0.27531 0.53679 0.42576 0.0
H320 H 0.34293 0.53875 0.44975 0.0
H321 H 0.30456 0.47874 0.52446 0.0
H322 H 0.28566 0.44724 0.51541 0.0
H323 H 0.33655 0.42281 0.43582 0.0
H324 H 0.35568 0.45428 0.44378 0.0
H325 H 0.39706 0.51806 0.71829 0.0
H326 H 0.371 0.52 0.64198 0.0
H327 H 0.40632 0.48504 0.53313 0.0
H328 H 0.43263 0.4831 0.60976 0.0
H329 H 0.36479 0.47231 0.54669 0.0
H330 H 0.40417 0.53184 0.48723 0.0
H331 H 0.42239 0.56314 0.50301 0.0
H332 H 0.3684 0.58848 0.56016 0.0
H333 H 0.34989 0.5572 0.54562 0.0
C334 C 0.29465 0.5005 0.34924 0.0
C335 C 0.2809 0.5145 0.36535 0.0
C336 C 0.31284 0.49806 0.37982 0.0
C337 C 0.3174 0.50933 0.42761 0.0
C338 C 0.30358 0.52333 0.44314 0.0
C339 C 0.28565 0.52593 0.41228 0.0
C340 C 0.33636 0.50683 0.46216 0.0
C341 C 0.34759 0.5242 0.4711 0.0
C342 C 0.34294 0.48782 0.48885 0.0
C343 C 0.33145 0.46894 0.484 0.0
C344 C 0.31166 0.46671 0.5046 0.0
C345 C 0.30092 0.44885 0.49975 0.0
C346 C 0.30987 0.43306 0.47486 0.0
C347 C 0.32961 0.43507 0.45495 0.0
C348 C 0.34041 0.45291 0.45963 0.0
C349 C 0.39927 0.5107 0.67828 0.0
C350 C 0.41691 0.50041 0.6701 0.0
C351 C 0.38441 0.51191 0.63453 0.0
C352 C 0.38674 0.50273 0.58174 0.0
C353 C 0.40423 0.49225 0.57351 0.0
C354 C 0.41928 0.49127 0.61705 0.0
C355 C 0.37077 0.50428 0.5356 0.0
C356 C 0.36022 0.48678 0.52447 0.0
C357 C 0.36462 0.52318 0.50745 0.0
C358 C 0.37567 0.54211 0.5157 0.0
C359 C 0.3962 0.54403 0.50358 0.0
C360 C 0.40658 0.56178 0.51224 0.0
C361 C 0.39657 0.57777 0.53267 0.0
C362 C 0.37614 0.57607 0.54435 0.0
C363 C 0.36569 0.55834 0.53584 0.0
H364 H 0.40463 0.5915 0.53935 0.0
H365 H 0.30154 0.41925 0.47116 0.0
H366 H 0.9894 0.28544 0.40804 0.0
H367 H 0.99126 0.31536 0.46008 0.0
H368 H 0.03547 0.3418 0.33248 0.0
H369 H 0.03416 0.31116 0.28123 0.0
H370 H 0.04548 0.34977 0.44082 0.0
H371 H 0.98658 0.35856 0.32799 0.0
H372 H 0.95432 0.34968 0.28499 0.0
H373 H 0.92879 0.33906 0.46247 0.0
H374 H 0.96097 0.34759 0.50666 0.0
H375 H 0.02938 0.43965 0.58939 0.0
H376 H 0.03039 0.41764 0.50869 0.0
H377 H 0.99698 0.37183 0.62122 0.0
H378 H 0.99608 0.3936 0.70155 0.0
H379 H 0.98267 0.37981 0.50059 0.0
H380 H 0.04537 0.36787 0.60921 0.0
H381 H 0.07748 0.37991 0.64599 0.0
H382 H 0.09558 0.40072 0.4645 0.0
H383 H 0.06342 0.38909 0.42673 0.0
C384 C 0.99947 0.29766 0.39082 0.0
C385 C 0.0115 0.29603 0.34033 0.0
C386 C 1.00045 0.31485 0.42044 0.0
C387 C 0.01315 0.33116 0.39953 0.0
C388 C 0.02543 0.32952 0.34928 0.0
C389 C 0.02463 0.31206 0.31989 0.0
C390 C 0.01355 0.34953 0.43154 0.0
C391 C 0.03176 0.3566 0.45271 0.0
C392 C 0.99572 0.35871 0.44692 0.0
C393 C 0.97625 0.35363 0.42066 0.0
C394 C 0.97413 0.35421 0.3579 0.0
C395 C 0.95584 0.34925 0.3333 0.0
C396 C 0.93952 0.34379 0.37097 0.0
C397 C 0.94144 0.3433 0.43334 0.0
C398 C 0.9597 0.34824 0.45818 0.0
C399 C 0.02217 0.42492 0.59654 0.0
C400 C 0.01269 0.41829 0.65176 0.0
C401 C 0.02283 0.41235 0.55063 0.0
C402 C 0.01376 0.39309 0.55903 0.0
C403 C 0.00404 0.38664 0.61377 0.0
C404 C 0.00365 0.39902 0.65978 0.0
C405 C 0.0144 0.37929 0.51169 0.0
C406 C 0.99637 0.37317 0.48757 0.0
C407 C 0.03239 0.3714 0.49256 0.0
C408 C 0.05193 0.37779 0.51521 0.0
C409 C 0.05616 0.37511 0.57718 0.0
C410 C 0.07437 0.38185 0.5982 0.0
C411 C 0.08855 0.39111 0.55761 0.0
C412 C 0.08458 0.39355 0.49588 0.0
C413 C 0.06637 0.38689 0.47465 0.0
H414 H 0.10261 0.39639 0.57399 0.0
H415 H 0.92538 0.33995 0.35184 0.0
H416 H 0.81661 0.01181 0.15558 0.0
H417 H 0.85087 0.01269 0.11646 0.0
H418 H 0.83095 0.98276 0.96618 0.0
H419 H 0.79689 0.98182 0.00506 0.0
H420 H 0.86508 0.96686 0.01223 0.0
H421 H 0.84006 0.0334 0.95086 0.0
H422 H 0.82553 0.06582 0.96775 0.0
H423 H 0.8749 0.07825 0.07996 0.0
H424 H 0.8896 0.04575 0.06435 0.0
H425 H 0.94205 0.98641 0.7969 0.0
H426 H 0.91054 0.98487 0.85191 0.0
H427 H 0.93731 0.01796 0.98624 0.0
H428 H 0.9689 0.01984 0.93079 0.0
H429 H 0.90137 0.0319 0.95863 0.0
H430 H 0.92789 0.96684 0.01448 0.0
H431 H 0.94239 0.93415 1.00041 0.0
H432 H 0.89075 0.91856 0.90198 0.0
H433 H 0.87603 0.95127 0.91477 0.0
C434 C 0.8196 0.00532 0.11444 0.0
C435 C 0.80408 0.99673 0.0833 0.0
C436 C 0.83916 0.00591 0.09196 0.0
C437 C 0.84351 0.99791 0.03805 0.0
C438 C 0.82803 0.98899 0.00782 0.0
C439 C 0.80855 0.9885 0.03003 0.0
C440 C 0.86402 0.99901 0.01205 0.0
C441 C 0.87295 0.9811 1.00007 0.0
C442 C 0.8746 0.01751 0.99772 0.0
C443 C 0.8658 0.03705 0.00702 0.0
C444 C 0.84773 0.04297 0.97954 0.0
C445 C 0.83948 0.06137 0.9888 0.0
C446 C 0.84925 0.07406 0.02506 0.0
C447 C 0.86733 0.06839 0.05199 0.0
C448 C 0.87563 0.04999 0.04293 0.0
C449 C 0.94128 0.9934 0.83809 0.0
C450 C 0.95807 0.00322 0.8594 0.0
C451 C 0.92324 0.99239 0.86979 0.0
C452 C 0.92155 1.00102 0.92386 0.0
C453 C 0.93821 0.01111 0.94481 0.0
C454 C 0.95629 0.01215 0.91306 0.0
C455 C 0.90232 0.99975 0.95779 0.0
C456 C 0.89363 0.01762 0.97127 0.0
C457 C 0.89199 0.98118 0.97378 0.0
C458 C 0.90091 0.96159 0.96526 0.0
C459 C 0.91969 0.95652 0.9894 0.0
C460 C 0.92793 0.93796 0.98179 0.0
C461 C 0.91748 0.92428 0.9504 0.0
C462 C 0.89881 0.92916 0.92637 0.0
C463 C 0.8905 0.9477 0.93384 0.0
H464 H 0.92384 0.90989 0.94474 0.0
H465 H 0.84285 0.0883 0.03217 0.0
H466 H 0.54269 0.77719 0.0207 0.0
H467 H 0.54059 0.81249 0.97815 0.0
H468 H 0.50666 0.82506 0.13289 0.0
H469 H 0.50869 0.78959 0.17568 0.0
H470 H 0.49011 0.84157 0.02715 0.0
H471 H 0.55433 0.84103 0.11756 0.0
H472 H 0.58822 0.82907 0.14019 0.0
H473 H 0.60403 0.84121 0.95298 0.0
H474 H 0.57013 0.85298 0.92906 0.0
H475 H 0.49669 0.94818 0.946 0.0
H476 H 0.4992 0.91432 1.00012 0.0
H477 H 0.53374 0.89611 0.85383 0.0
H478 H 0.5314 0.92995 0.7995 0.0
H479 H 0.54997 0.88332 0.96245 0.0
H480 H 0.48537 0.88215 0.8715 0.0
H481 H 0.45147 0.89401 0.84839 0.0
H482 H 0.4364 0.88501 0.03658 0.0
H483 H 0.47034 0.87338 0.06092 0.0
C484 C 0.53491 0.78752 0.04585 0.0
C485 C 0.52595 0.78068 0.10156 0.0
C486 C 0.53376 0.8077 0.0216 0.0
C487 C 0.52364 0.8215 0.05259 0.0
C488 C 0.5146 0.81469 0.10829 0.0
C489 C 0.51583 0.79446 0.13279 0.0
C490 C 0.52214 0.84285 0.02568 0.0
C491 C 0.5032 0.85083 0.01401 0.0
C492 C 0.53921 0.85481 0.00729 0.0
C493 C 0.55962 0.84772 0.02146 0.0
C494 C 0.56498 0.84099 0.08113 0.0
C495 C 0.5842 0.83427 0.09421 0.0
C496 C 0.59826 0.83434 0.04804 0.0
C497 C 0.59312 0.84115 0.98869 0.0
C498 C 0.57391 0.84787 0.97536 0.0
C499 C 0.50481 0.93697 0.92525 0.0
C500 C 0.51381 0.94178 0.86829 0.0
C501 C 0.50617 0.91759 0.95621 0.0
C502 C 0.51653 0.90261 0.93086 0.0
C503 C 0.52567 0.90742 0.87427 0.0
C504 C 0.52425 0.92677 0.84317 0.0
C505 C 0.51795 0.88195 0.96334 0.0
C506 C 0.53688 0.87411 0.97602 0.0
C507 C 0.50088 0.87013 0.98261 0.0
C508 C 0.48047 0.87712 0.96809 0.0
C509 C 0.47489 0.88288 0.90802 0.0
C510 C 0.45566 0.88953 0.89468 0.0
C511 C 0.44181 0.89033 0.941 0.0
C512 C 0.44716 0.88443 0.00076 0.0
C513 C 0.46639 0.87779 0.01435 0.0
H514 H 0.42693 0.89547 0.93059 0.0
H515 H 0.61314 0.82914 0.05826 0.0
H516 H 0.74247 0.53493 0.08299 0.0
H517 H 0.7097 0.53222 0.03795 0.0
H518 H 0.68785 0.49805 0.2017 0.0
H519 H 0.72103 0.50045 0.24687 0.0
H520 H 0.67526 0.48114 0.10525 0.0
H521 H 0.67374 0.54695 0.16331 0.0
H522 H 0.68581 0.58139 0.17416 0.0
H523 H 0.68714 0.59576 0.98181 0.0
H524 H 0.67535 0.56131 0.96972 0.0
H525 H 0.57856 0.48746 0.96455 0.0
H526 H 0.60527 0.49086 0.03757 0.0
H527 H 0.64156 0.52326 0.89728 0.0
H528 H 0.61496 0.52028 0.8249 0.0
H529 H 0.64282 0.54124 0.99982 0.0
H530 H 0.64876 0.47328 0.94498 0.0
H531 H 0.6361 0.43889 0.9359 0.0
H532 H 0.62519 0.4291 0.1266 0.0
H533 H 0.6376 0.46353 0.13667 0.0
C534 C 0.73064 0.52697 0.10965 0.0
C535 C 0.73428 0.51802 0.16851 0.0
C536 C 0.71186 0.5255 0.08393 0.0
C537 C 0.69613 0.51522 0.11665 0.0
C538 C 0.6997 0.50617 0.17565 0.0
C539 C 0.71863 0.50761 0.2015 0.0
C540 C 0.67629 0.51354 0.08772 0.0
C541 C 0.66794 0.49433 0.08336 0.0
C542 C 0.6667 0.53069 0.05868 0.0
C543 C 0.67376 0.55148 0.06563 0.0
C544 C 0.67673 0.55741 0.1233 0.0
C545 C 0.68351 0.57694 0.12967 0.0
C546 C 0.68727 0.59074 0.07871 0.0
C547 C 0.68422 0.58505 0.02125 0.0
C548 C 0.67746 0.56553 0.01461 0.0
C549 C 0.59217 0.49544 0.94946 0.0
C550 C 0.59465 0.50345 0.88867 0.0
C551 C 0.60748 0.49726 0.99114 0.0
C552 C 0.62552 0.50718 0.97285 0.0
C553 C 0.62783 0.5155 0.91252 0.0
C554 C 0.61264 0.51361 0.87096 0.0
C555 C 0.64225 0.50887 0.01567 0.0
C556 C 0.64997 0.5281 0.02267 0.0
C557 C 0.65113 0.49177 0.04746 0.0
C558 C 0.64389 0.47103 0.04147 0.0
C559 C 0.64354 0.46383 0.9849 0.0
C560 C 0.63643 0.44433 0.97959 0.0
C561 C 0.62979 0.43184 0.03062 0.0
C562 C 0.63031 0.4388 0.08711 0.0
C563 C 0.63739 0.4583 0.09265 0.0
H564 H 0.62428 0.41675 0.02641 0.0
H565 H 0.69251 0.60586 0.08374 0.0
H566 H 0.98016 0.69528 0.2541 0.0
H567 H 0.98445 0.66394 0.20841 0.0
H568 H 0.95348 0.6898 0.04977 0.0
H569 H 0.94856 0.7205 0.09602 0.0
H570 H 0.94122 0.65353 0.07432 0.0
H571 H 0.00648 0.68569 0.06088 0.0
H572 H 0.03696 0.70018 0.10109 0.0
H573 H 0.04817 0.64374 0.2072 0.0
H574 H 0.0176 0.62898 0.16811 0.0
H575 H 0.97355 0.60359 0.83466 0.0
H576 H 0.96654 0.62648 0.90824 0.0
H577 H 0.99538 0.58676 0.04595 0.0
H578 H 0.00317 0.56393 0.97125 0.0
H579 H 0.00776 0.62505 0.04887 0.0
H580 H 0.94253 0.59275 0.05025 0.0
H581 H 0.91167 0.58013 0.00629 0.0
H582 H 0.90138 0.63896 0.91408 0.0
H583 H 0.93189 0.65201 0.95819 0.0
C584 C 0.97422 0.69415 0.20964 0.0
C585 C 0.96402 0.71031 0.17851 0.0
C586 C 0.97676 0.67629 0.18336 0.0
C587 C 0.96946 0.67447 0.12517 0.0
C588 C 0.95918 0.69066 0.09469 0.0
C589 C 0.95643 0.70827 0.12111 0.0
C590 C 0.97239 0.65598 0.09494 0.0
C591 C 0.95582 0.64739 0.06866 0.0
C592 C 0.9913 0.64747 0.08868 0.0
C593 C 0.00964 0.65632 0.1122 0.0
C594 C 0.01537 0.67642 0.09315 0.0
C595 C 0.03267 0.68467 0.11567 0.0
C596 C 0.04446 0.67291 0.15684 0.0
C597 C 0.039 0.65285 0.17543 0.0
C598 C 0.0217 0.64453 0.1531 0.0
C599 C 0.97852 0.59966 0.88044 0.0
C600 C 0.98916 0.58196 0.89667 0.0
C601 C 0.97419 0.61268 0.9229 0.0
C602 C 0.98016 0.60828 0.98307 0.0
C603 C 0.99051 0.59045 0.99989 0.0
C604 C 0.99488 0.57736 0.9572 0.0
C605 C 0.97668 0.6231 0.02669 0.0
C606 C 0.99313 0.63096 0.05556 0.0
C607 C 0.9577 0.63122 0.0345 0.0
C608 C 0.93954 0.62329 0.0072 0.0
C609 C 0.93373 0.60293 0.02029 0.0
C610 C 0.9163 0.59572 0.9955 0.0
C611 C 0.90471 0.60867 0.95708 0.0
C612 C 0.9104 0.62892 0.94375 0.0
C613 C 0.92768 0.63626 0.96892 0.0
H614 H 0.89126 0.60303 0.93784 0.0
H615 H 0.05785 0.67932 0.17421 0.0
H616 H 0.05709 0.19052 0.36053 0.0
H617 H 0.04987 0.16086 0.43331 0.0
H618 H 0.98754 0.17527 0.42892 0.0
H619 H 0.99502 0.20554 0.35878 0.0
H620 H 0.99654 0.16168 0.53732 0.0
H621 H 0.00786 0.13564 0.34382 0.0
H622 H 0.02685 0.13025 0.25249 0.0
H623 H 0.07642 0.10948 0.3613 0.0
H624 H 0.05753 0.11406 0.45335 0.0
H625 H 0.9876 0.04305 0.5929 0.0
H626 H 0.98812 0.07516 0.52752 0.0
H627 H 0.01473 0.10461 0.67006 0.0
H628 H 0.01391 0.07286 0.7358 0.0
H629 H 0.02079 0.09584 0.48953 0.0
H630 H 0.00372 0.15387 0.65407 0.0
H631 H 0.9831 0.15631 0.74426 0.0
H632 H 0.94196 0.11212 0.68934 0.0
H633 H 0.96219 0.10959 0.59849 0.0
C634 C 0.04194 0.18748 0.37626 0.0
C635 C 0.02659 0.20023 0.3548 0.0
C636 C 0.03776 0.17043 0.41707 0.0
C637 C 0.01807 0.16551 0.43536 0.0
C638 C 0.00284 0.1787 0.41535 0.0
C639 C 0.00709 0.19599 0.37557 0.0
C640 C 0.01325 0.14649 0.47445 0.0
C641 C 1.00179 0.14728 0.52674 0.0
C642 C 0.0199 0.12762 0.46057 0.0
C643 C 0.03138 0.12538 0.40525 0.0
C644 C 0.02286 0.13005 0.34815 0.0
C645 C 0.03357 0.12711 0.29632 0.0
C646 C 0.05289 0.11982 0.30102 0.0
C647 C 0.06148 0.1152 0.35767 0.0
C648 C 0.05074 0.11782 0.40968 0.0
C649 C 0.99319 0.05645 0.61065 0.0
C650 C 1.00082 0.0554 0.66934 0.0
C651 C 0.99353 0.07475 0.57324 0.0
C652 C 1.0014 0.09227 0.59403 0.0
C653 C 0.00832 0.09137 0.65335 0.0
C654 C 0.00794 0.07314 0.69076 0.0
C655 C 0.00409 0.11104 0.55226 0.0
C656 C 0.01532 0.11021 0.49975 0.0
C657 C 0.99704 0.12978 0.56573 0.0
C658 C 0.98456 0.13145 0.61968 0.0
C659 C 0.99021 0.14476 0.66107 0.0
C660 C 0.97861 0.14613 0.71236 0.0
C661 C 0.96126 0.13434 0.72259 0.0
C662 C 0.95544 0.12119 0.68146 0.0
C663 C 0.96698 0.11976 0.63011 0.0
H664 H 0.95231 0.13541 0.76235 0.0
H665 H 0.06116 0.11763 0.26078 0.0
H666 H 0.32575 0.03642 0.4388 0.0
H667 H 0.35377 0.02991 0.50764 0.0
H668 H 0.33174 0.9691 0.55662 0.0
H669 H 0.30352 0.97566 0.48807 0.0
H670 H 0.35917 0.01578 0.63124 0.0
H671 H 0.37257 0.93967 0.54493 0.0
H672 H 0.36568 0.9223 0.45548 0.0
H673 H 0.36505 0.97928 0.34424 0.0
H674 H 0.37197 0.99689 0.43285 0.0
H675 H 0.44334 0.97824 0.78866 0.0
H676 H 0.41026 0.97752 0.74413 0.0
H677 H 0.43629 0.99012 0.56656 0.0
H678 H 0.46954 0.98993 0.6109 0.0
H679 H 0.4052 0.96593 0.56273 0.0
H680 H 0.41868 0.02873 0.64634 0.0
H681 H 0.42857 0.04783 0.72978 0.0
H682 H 0.37894 0.02192 0.83535 0.0
H683 H 0.36885 0.00261 0.75269 0.0
C684 C 0.32664 0.02185 0.46557 0.0
C685 C 0.3126 0.0065 0.45826 0.0
C686 C 0.34257 0.01817 0.5049 0.0
C687 C 0.34486 0.999 0.53672 0.0
C688 C 0.3302 0.98399 0.53226 0.0
C689 C 0.31409 0.98775 0.49343 0.0
C690 C 0.3637 0.99417 0.56864 0.0
C691 C 0.36915 0.00473 0.61681 0.0
C692 C 0.37685 0.98005 0.54894 0.0
C693 C 0.37253 0.96957 0.49556 0.0
C694 C 0.37092 0.94845 0.50134 0.0
C695 C 0.367 0.93857 0.4508 0.0
C696 C 0.36482 0.94967 0.39423 0.0
C697 C 0.36657 0.97067 0.38807 0.0
C698 C 0.37045 0.98061 0.43846 0.0
C699 C 0.44201 0.98045 0.74004 0.0
C700 C 0.45894 0.98435 0.70311 0.0
C701 C 0.42311 0.98013 0.7147 0.0
C702 C 0.42077 0.98431 0.65215 0.0
C703 C 0.43775 0.98696 0.615 0.0
C704 C 0.45673 0.98685 0.6403 0.0
C705 C 0.40074 0.98746 0.62565 0.0
C706 C 0.39507 0.97666 0.5782 0.0
C707 C 0.38761 1.00172 0.64517 0.0
C708 C 0.39308 0.01415 0.69355 0.0
C709 C 0.40987 0.02715 0.68735 0.0
C710 C 0.41552 0.038 0.73452 0.0
C711 C 0.40442 0.03607 0.78792 0.0
C712 C 0.38753 0.02343 0.79401 0.0
C713 C 0.38181 0.01257 0.74697 0.0
H714 H 0.4089 0.04435 0.82457 0.0
H715 H 0.36185 0.94197 0.35517 0.0
H716 H 0.51897 0.30449 0.48053 0.0
H717 H 0.52373 0.33308 0.53848 0.0
H718 H 0.46925 0.35862 0.46563 0.0
H719 H 0.46457 0.3302 0.40738 0.0
H720 H 0.49958 0.38495 0.44721 0.0
H721 H 0.47338 0.34024 0.61454 0.0
H722 H 0.47143 0.30926 0.68629 0.0
H723 H 0.53068 0.32076 0.74664 0.0
H724 H 0.53309 0.35169 0.67461 0.0
H725 H 0.4819 0.46258 0.62666 0.0
H726 H 0.48162 0.43253 0.57472 0.0
H727 H 0.53929 0.41687 0.64784 0.0
H728 H 0.53971 0.4471 0.70023 0.0
H729 H 0.51121 0.38536 0.66602 0.0
H730 H 0.53619 0.43154 0.50267 0.0
H731 H 0.5374 0.46284 0.43218 0.0
H732 H 0.47971 0.44864 0.36493 0.0
H733 H 0.478 0.41739 0.43568 0.0
C734 C 0.50773 0.31591 0.47842 0.0
C735 C 0.49146 0.31525 0.43932 0.0
C736 C 0.51049 0.33227 0.51134 0.0
C737 C 0.4969 0.34804 0.50603 0.0
C738 C 0.48 0.3467 0.46994 0.0
C739 C 0.4773 0.33045 0.43691 0.0
C740 C 0.50111 0.36679 0.5334 0.0
C741 C 0.50189 0.38505 0.49519 0.0
C742 C 0.50488 0.36682 0.5956 0.0
C743 C 0.5035 0.34816 0.63865 0.0
C744 C 0.48607 0.33606 0.64266 0.0
C745 C 0.48487 0.31853 0.68349 0.0
C746 C 0.50095 0.31301 0.72086 0.0
C747 C 0.51825 0.32503 0.71757 0.0
C748 C 0.51954 0.34257 0.67678 0.0
C749 C 0.49469 0.45294 0.63091 0.0
C750 C 0.51083 0.45718 0.6675 0.0
C751 C 0.49452 0.43579 0.60113 0.0
C752 C 0.51045 0.42252 0.60743 0.0
C753 C 0.52687 0.42697 0.64249 0.0
C754 C 0.52715 0.44429 0.67194 0.0
C755 C 0.50921 0.40348 0.57995 0.0
C756 C 0.50907 0.38519 0.618 0.0
C757 C 0.50594 0.40339 0.51758 0.0
C758 C 0.50691 0.42218 0.47486 0.0
C759 C 0.52368 0.43517 0.47322 0.0
C760 C 0.52447 0.45289 0.43313 0.0
C761 C 0.50863 0.45774 0.39418 0.0
C762 C 0.49197 0.44486 0.39516 0.0
C763 C 0.49109 0.42713 0.43519 0.0
H764 H 0.50927 0.47147 0.36317 0.0
H765 H 0.49997 0.29944 0.75247 0.0
H766 H 0.16698 0.5327 0.29867 0.0
H767 H 0.14008 0.53658 0.36929 0.0
H768 H 0.16891 0.49587 0.5047 0.0
H769 H 0.19569 0.49137 0.433 0.0
H770 H 0.13105 0.4856 0.49639 0.0
H771 H 0.1664 0.5462 0.51911 0.0
H772 H 0.18439 0.57822 0.48729 0.0
H773 H 0.13181 0.60244 0.40036 0.0
H774 H 0.11356 0.57046 0.43091 0.0
H775 H 0.05991 0.53754 0.70111 0.0
H776 H 0.09052 0.53984 0.64097 0.0
H777 H 0.06367 0.5014 0.52015 0.0
H778 H 0.03362 0.49798 0.58271 0.0
H779 H 0.10364 0.55122 0.53486 0.0
H780 H 0.0955 0.46957 0.47473 0.0
H781 H 0.0784 0.4377 0.51426 0.0
H782 H 0.08015 0.45501 0.69304 0.0
H783 H 0.09743 0.4869 0.65469 0.0
C784 C 0.16765 0.52464 0.3436 0.0
C785 C 0.18332 0.51158 0.36021 0.0
C786 C 0.15237 0.52704 0.38414 0.0
C787 C 0.15255 0.51663 0.44243 0.0
C788 C 0.16852 0.50407 0.45992 0.0
C789 C 0.18385 0.50162 0.41917 0.0
C790 C 0.13529 0.51785 0.48307 0.0
C791 C 0.12516 0.49993 0.50527 0.0
C792 C 0.12776 0.53655 0.49539 0.0
C793 C 0.13864 0.55586 0.477 0.0
C794 C 0.1587 0.5583 0.49284 0.0
C795 C 0.16895 0.57646 0.47508 0.0
C796 C 0.15926 0.59234 0.44174 0.0
C797 C 0.1393 0.59012 0.42618 0.0
C798 C 0.12899 0.57199 0.44379 0.0
C799 C 0.06044 0.53 0.66085 0.0
C800 C 0.04458 0.51748 0.6465 0.0
C801 C 0.07794 0.53124 0.62666 0.0
C802 C 0.07962 0.52026 0.57717 0.0
C803 C 0.06297 0.50943 0.5594 0.0
C804 C 0.04573 0.50767 0.59461 0.0
C805 C 0.09912 0.519 0.54676 0.0
C806 C 0.10965 0.53688 0.52653 0.0
C807 C 0.10732 0.50022 0.53767 0.0
C808 C 0.09766 0.48069 0.5617 0.0
C809 C 0.09239 0.4665 0.52255 0.0
C810 C 0.08263 0.44845 0.54473 0.0
C811 C 0.07818 0.44433 0.60611 0.0
C812 C 0.08358 0.45823 0.64549 0.0
C813 C 0.09335 0.4763 0.62355 0.0
H814 H 0.07056 0.43038 0.62313 0.0
H815 H 0.16722 0.60638 0.42803 0.0
H816 H 0.01143 0.79154 0.13554 0.0
H817 H 0.02023 0.81992 0.0591 0.0
H818 H 0.96908 0.85186 0.11099 0.0
H819 H 0.96038 0.82368 0.18732 0.0
H820 H 0.97586 0.85685 0.98638 0.0
H821 H 0.01082 0.86106 0.17324 0.0
H822 H 0.03255 0.84811 0.25707 0.0
H823 H 0.08041 0.84325 0.13239 0.0
H824 H 0.05882 0.85588 0.04766 0.0
H825 H 0.02225 0.96195 0.95613 0.0
H826 H 0.01981 0.92859 0.01476 0.0
H827 H 0.01874 0.9008 0.85023 0.0
H828 H 0.02065 0.93399 0.79157 0.0
H829 H 0.0391 0.89246 0.02679 0.0
H830 H 0.98137 0.86529 0.86326 0.0
H831 H 0.95931 0.88005 0.78243 0.0
H832 H 0.95508 0.93385 0.8686 0.0
H833 H 0.9766 0.91918 0.95082 0.0
C834 C 1.00187 0.80445 0.12943 0.0
C835 C 0.98535 0.80561 0.16725 0.0
C836 C 0.00692 0.82062 0.08611 0.0
C837 C 0.99537 0.83799 0.07993 0.0
C838 C 0.97814 0.83857 0.11508 0.0
C839 C 0.97325 0.82255 0.15873 0.0
C840 C 1.00213 0.85638 0.04141 0.0
C841 C 0.98978 0.86452 0.99468 0.0
C842 C 0.0201 0.86655 0.05323 0.0
C843 C 0.03315 0.85918 0.10411 0.0
C844 C 0.02593 0.85707 0.16367 0.0
C845 C 0.03822 0.84981 0.21135 0.0
C846 C 0.05783 0.8448 0.20005 0.0
C847 C 0.0652 0.8471 0.14105 0.0
C848 C 0.05295 0.85431 0.09319 0.0
C849 C 0.02197 0.94869 0.93261 0.0
C850 C 0.02124 0.95051 0.86945 0.0
C851 C 0.02063 0.92967 0.96607 0.0
C852 C 0.01869 0.91232 0.93668 0.0
C853 C 0.01986 0.91406 0.87366 0.0
C854 C 0.02093 0.93302 0.84028 0.0
C855 C 0.01296 0.89282 0.97129 0.0
C856 C 0.02539 0.88456 0.01759 0.0
C857 C 0.99486 0.88274 0.95981 0.0
C858 C 0.98078 0.8912 0.91283 0.0
C859 C 0.97555 0.88017 0.86529 0.0
C860 C 0.96313 0.88853 0.81924 0.0
C861 C 0.95583 0.90789 0.82034 0.0
C862 C 0.96076 0.91886 0.86779 0.0
C863 C 0.97301 0.91051 0.91422 0.0
H864 H 0.94633 0.91438 0.78445 0.0
H865 H 0.06733 0.83919 0.23701 0.0
H866 H 0.71836 0.00295 0.0346 0.0
H867 H 0.68906 0.00691 0.96975 0.0
H868 H 0.66771 0.05304 0.07147 0.0
H869 H 0.69709 0.04944 0.13565 0.0
H870 H 0.64218 0.0195 0.07204 0.0
H871 H 0.67917 0.06526 0.9289 0.0
H872 H 0.70714 0.07623 0.86041 0.0
H873 H 0.69445 0.02735 0.75717 0.0
H874 H 0.66661 0.01586 0.82567 0.0
H875 H 0.5501 0.03028 0.91993 0.0
H876 H 0.58233 0.03751 0.96423 0.0
H877 H 0.61128 1.00177 0.84242 0.0
H878 H 0.57936 0.99523 0.79654 0.0
H879 H 0.63319 0.03292 0.85102 0.0
H880 H 0.60018 0.98428 0.99369 0.0
H881 H 0.57393 0.9695 0.06364 0.0
H882 H 0.5809 0.0188 0.16901 0.0
H883 H 0.60694 0.03409 0.099 0.0
C884 C 0.70782 0.01449 0.0416 0.0
C885 C 0.70985 0.0257 0.09066 0.0
C886 C 0.69106 0.01669 0.00465 0.0
C887 C 0.67617 0.03014 0.01625 0.0
C888 C 0.679 0.0425 0.06206 0.0
C889 C 0.69576 0.04041 0.09867 0.0
C890 C 0.65651 0.02921 0.98699 0.0
C891 C 0.64009 0.02284 0.02379 0.0
C892 C 0.65407 0.03275 0.92392 0.0
C893 C 0.6709 0.03959 0.88284 0.0
C894 C 0.68246 0.05672 0.89199 0.0
C895 C 0.69828 0.06305 0.85307 0.0
C896 C 0.7026 0.05246 0.80457 0.0
C897 C 0.6911 0.03552 0.79482 0.0
C898 C 0.67529 0.0291 0.83367 0.0
C899 C 0.56336 0.02404 0.90255 0.0
C900 C 0.56218 0.01212 0.85497 0.0
C901 C 0.58177 0.02811 0.92801 0.0
C902 C 0.59925 0.01995 0.90727 0.0
C903 C 0.59806 0.00829 0.85918 0.0
C904 C 0.57975 0.00449 0.83314 0.0
C905 C 0.61876 0.02316 0.93611 0.0
C906 C 0.63517 0.02983 0.89934 0.0
C907 C 0.62136 0.01937 0.99926 0.0
C908 C 0.60533 0.01048 0.04057 0.0
C909 C 0.59594 0.99211 0.03133 0.0
C910 C 0.58113 0.98361 0.07108 0.0
C911 C 0.5757 0.99324 0.12062 0.0
C912 C 0.58507 0.0114 0.1305 0.0
C913 C 0.59984 0.01999 0.09076 0.0
H914 H 0.56429 0.9866 0.15147 0.0
H915 H 0.71484 0.0574 0.77446 0.0
H916 H 0.47922 0.66585 0.18719 0.0
H917 H 0.47658 0.63797 0.12711 0.0
H918 H 0.51967 0.66748 0.00084 0.0
H919 H 0.52356 0.69482 0.06386 0.0
H920 H 0.46653 0.62997 0.02529 0.0
H921 H 0.54874 0.6333 0.94641 0.0
H922 H 0.58145 0.64561 0.97831 0.0
H923 H 0.56118 0.63987 0.16201 0.0
H924 H 0.52848 0.6273 0.1313 0.0
H925 H 0.47731 0.55536 0.83047 0.0
H926 H 0.47663 0.58626 0.87807 0.0
H927 H 0.51964 0.56185 0.00873 0.0
H928 H 0.52153 0.53151 0.95748 0.0
H929 H 0.5295 0.59739 0.97998 0.0
H930 H 0.46637 0.56705 0.03845 0.0
H931 H 0.43352 0.55122 0.02445 0.0
H932 H 0.41519 0.60453 0.91397 0.0
H933 H 0.44802 0.6206 0.92672 0.0
C934 C 0.48817 0.66644 0.14662 0.0
C935 C 0.50204 0.68227 0.13129 0.0
C936 C 0.48647 0.65055 0.11185 0.0
C937 C 0.49832 0.65029 0.06022 0.0
C938 C 0.51079 0.66704 0.04149 0.0
C939 C 0.5128 0.68281 0.07709 0.0
C940 C 0.49852 0.63183 0.02921 0.0
C941 C 0.48031 0.62288 0.01516 0.0
C942 C 0.51644 0.62221 0.01742 0.0
C943 C 0.53611 0.62961 0.0364 0.0
C944 C 0.5513 0.63463 0.9936 0.0
C945 C 0.56983 0.64165 0.01148 0.0
C946 C 0.57336 0.64359 0.07211 0.0
C947 C 0.5584 0.63844 0.11504 0.0
C948 C 0.53987 0.63138 0.09742 0.0
C949 C 0.4864 0.55651 0.86992 0.0
C950 C 0.49928 0.54102 0.89099 0.0
C951 C 0.48595 0.57417 0.8973 0.0
C952 C 0.49776 0.57635 0.94797 0.0
C953 C 0.51038 0.56062 0.96971 0.0
C954 C 0.51135 0.54322 0.94089 0.0
C955 C 0.49747 0.59529 0.97685 0.0
C956 C 0.51569 0.60442 0.99001 0.0
C957 C 0.47951 0.60453 0.99065 0.0
C958 C 0.45972 0.59495 0.98309 0.0
C959 C 0.45537 0.57535 0.01087 0.0
C960 C 0.43675 0.56634 0.0032 0.0
C961 C 0.4223 0.57684 0.96822 0.0
C962 C 0.42641 0.5964 0.94099 0.0
C963 C 0.44501 0.60548 0.94847 0.0
H964 H 0.40789 0.56984 0.96232 0.0
H965 H 0.58771 0.64905 0.08584 0.0
H966 H 0.81802 0.51278 0.11928 0.0
H967 H 0.84473 0.50743 0.04857 0.0
H968 H 0.86675 0.45909 0.17456 0.0
H969 H 0.83967 0.46375 0.24378 0.0
H970 H 0.88248 0.5132 0.06469 0.0
H971 H 0.8923 0.42606 0.10653 0.0
H972 H 0.87125 0.39525 0.124 0.0
H973 H 0.82231 0.42674 0.03659 0.0
H974 H 0.84312 0.45765 0.01784 0.0
H975 H 0.97886 0.4975 0.9789 0.0
H976 H 0.94882 0.49301 0.04167 0.0
H977 H 0.9199 0.46159 0.90683 0.0
H978 H 0.95053 0.46453 0.84685 0.0
H979 H 0.9053 0.44769 0.00941 0.0
H980 H 0.91571 0.51494 0.90796 0.0
H981 H 0.93699 0.54517 0.87998 0.0
H982 H 0.94234 0.554 0.0664 0.0
H983 H 0.92101 0.52389 0.09541 0.0
C984 C 0.8282 0.50061 0.13098 0.0
C985 C 0.82685 0.48878 0.18722 0.0
C986 C 0.84356 0.49769 0.09084 0.0
C987 C 0.85776 0.48286 0.1062 0.0
C988 C 0.85586 0.47045 0.16121 0.0
C989 C 0.84047 0.47326 0.20104 0.0
C990 C 0.87555 0.48143 0.06766 0.0
C991 C 0.88732 0.49888 0.05215 0.0
C992 C 0.88183 0.46284 0.05058 0.0
C993 C 0.86925 0.44423 0.06124 0.0
C994 C 0.87707 0.42639 0.09078 0.0
C995 C 0.86518 0.40891 0.10096 0.0
C996 C 0.84544 0.40905 0.08157 0.0
C997 C 0.83758 0.42666 0.0518 0.0
C998 C 0.84941 0.44418 0.04147 0.0
C999 C 0.96627 0.48906 0.96394 0.0
C1000 C 0.96682 0.48139 0.90836 0.0
C1001 C 0.94907 0.48667 0.99931 0.0
C1002 C 0.93184 0.47766 0.97781 0.0
C1003 C 0.93292 0.46874 0.92418 0.0
C1004 C 0.9504 0.47041 0.88996 0.0
C1005 C 0.91234 0.47932 0.00782 0.0
C1006 C 0.90029 0.46198 0.02158 0.0
C1007 C 0.90542 0.49812 0.02148 0.0
C1008 C 0.9168 0.51718 0.00383 0.0
C1009 C 0.92129 0.52345 0.94289 0.0
C1010 C 0.9334 0.54052 0.92688 0.0
C1011 C 0.94105 0.55146 0.97139 0.0
C1012 C 0.93641 0.5455 0.03197 0.0
C1013 C 0.9242 0.52852 0.0482 0.0
H1014 H 0.95046 0.56463 0.95896 0.0
H1015 H 0.83626 0.3955 0.08951 0.0
H1016 H 0.01053 0.22411 0.10988 0.0
H1017 H 0.01034 0.19907 0.03822 0.0
H1018 H 0.07047 0.18358 0.08803 0.0
H1019 H 0.07064 0.20858 0.15948 0.0
H1020 H 0.06157 0.17782 0.9673 0.0
H1021 H 0.03378 0.16303 0.16868 0.0
H1022 H 0.01073 0.16883 0.25053 0.0
H1023 H 0.96088 0.15771 0.13876 0.0
H1024 H 0.98362 0.15239 0.05556 0.0
H1025 H 0.06846 0.07357 0.95193 0.0
H1026 H 0.06805 0.10715 0.98368 0.0
H1027 H 0.00527 0.11063 0.94642 0.0
H1028 H 0.00536 0.07664 0.91668 0.0
H1029 H 0.01305 0.12457 0.04994 0.0
H1030 H 0.03977 0.13681 0.85129 0.0
H1031 H 0.06207 0.13194 0.76676 0.0
H1032 H 0.11258 0.14803 0.8694 0.0
H1033 H 0.0906 0.15273 0.95492 0.0
C1034 C 0.02407 0.21619 0.10285 0.0
C1035 C 0.04063 0.21828 0.13991 0.0
C1036 C 0.02389 0.20172 0.06242 0.0
C1037 C 0.04024 0.18916 0.05879 0.0
C1038 C 0.05768 0.19306 0.09017 0.0
C1039 C 0.05783 0.20744 0.13073 0.0
C1040 C 0.03811 0.16992 0.03194 0.0
C1041 C 0.05099 0.16615 0.98532 0.0
C1042 C 0.02406 0.1548 0.05491 0.0
C1043 C 0.01041 0.15758 0.10552 0.0
C1044 C 0.0179 0.16206 0.16123 0.0
C1045 C 0.00489 0.16528 0.20789 0.0
C1046 C 0.98436 0.16372 0.19977 0.0
C1047 C 0.97679 0.15895 0.14495 0.0
C1048 C 0.98973 0.15586 0.09799 0.0
C1049 C 0.05448 0.0813 0.95095 0.0
C1050 C 0.03694 0.07224 0.93149 0.0
C1051 C 0.05433 0.1007 0.96847 0.0
C1052 C 0.0367 0.11165 0.96653 0.0
C1053 C 0.0191 0.10259 0.94794 0.0
C1054 C 0.01922 0.08315 0.9305 0.0
C1055 C 0.03661 0.13232 0.98528 0.0
C1056 C 0.0234 0.13631 0.03093 0.0
C1057 C 0.05025 0.14767 0.96112 0.0
C1058 C 0.06354 0.14497 0.90971 0.0
C1059 C 0.05565 0.13917 0.85601 0.0
C1060 C 0.06823 0.13646 0.80789 0.0
C1061 C 0.08874 0.13963 0.81275 0.0
C1062 C 0.09669 0.14556 0.86571 0.0
C1063 C 0.08418 0.14828 0.914 0.0
H1064 H 0.09845 0.13752 0.77545 0.0
H1065 H 0.97433 0.16614 0.23602 0.0
H1066 H 0.28818 0.99579 0.20077 0.0
H1067 H 0.31087 0.99817 0.1137 0.0
H1068 H 0.34163 0.04849 0.17904 0.0
H1069 H 0.31842 0.04687 0.26316 0.0
H1070 H 0.34476 0.05324 0.06495 0.0
H1071 H 0.3526 0.99584 0.21829 0.0
H1072 H 0.34113 0.96414 0.27728 0.0
H1073 H 0.33533 0.93615 0.11503 0.0
H1074 H 0.34598 0.96792 0.05473 0.0
H1075 H 0.44789 0.04049 0.0211 0.0
H1076 H 0.41394 0.04211 0.05975 0.0
H1077 H 0.39369 1.00061 0.93835 0.0
H1078 H 0.42768 0.99901 0.89918 0.0
H1079 H 0.38149 0.98992 0.05999 0.0
H1080 H 0.37936 0.04665 0.90966 0.0
H1081 H 0.39153 0.07848 0.85315 0.0
H1082 H 0.38874 0.10756 0.01407 0.0
H1083 H 0.37683 0.07579 0.0717 0.0
C1084 C 0.29925 0.00787 0.19492 0.0
C1085 C 0.30173 0.02095 0.23922 0.0
C1086 C 0.31243 0.00906 0.14563 0.0
C1087 C 0.32852 0.02305 0.14075 0.0
C1088 C 0.32959 0.03739 0.18173 0.0
C1089 C 0.3163 0.03643 0.23007 0.0
C1090 C 0.3455 0.02166 0.09814 0.0
C1091 C 0.35274 0.03936 0.06398 0.0
C1092 C 0.35586 0.00349 0.09544 0.0
C1093 C 0.34983 0.98433 0.13193 0.0
C1094 C 0.34876 0.98296 0.19515 0.0
C1095 C 0.34241 0.96499 0.22883 0.0
C1096 C 0.33759 0.94814 0.19998 0.0
C1097 C 0.33905 0.94923 0.13732 0.0
C1098 C 0.34515 0.96723 0.10333 0.0
C1099 C 0.43619 0.0318 0.00239 0.0
C1100 C 0.44052 0.01958 0.95724 0.0
C1101 C 0.41677 0.03283 0.02423 0.0
C1102 C 0.40123 0.02153 0.00182 0.0
C1103 C 0.40542 0.00949 0.9562 0.0
C1104 C 0.42484 0.00868 0.93364 0.0
C1105 C 0.38095 0.02159 0.02875 0.0
C1106 C 0.37321 0.00367 0.06002 0.0
C1107 C 0.37031 0.03957 0.02952 0.0
C1108 C 0.37733 0.05878 0.99504 0.0
C1109 C 0.38149 0.05978 0.93306 0.0
C1110 C 0.38832 0.07783 0.90082 0.0
C1111 C 0.39095 0.09502 0.93003 0.0
C1112 C 0.38671 0.09422 0.9915 0.0
C1113 C 0.37989 0.0762 0.02396 0.0
H1114 H 0.39624 0.10898 0.905 0.0
H1115 H 0.33272 0.93423 0.22619 0.0
H1116 H 0.45869 0.31137 0.22823 0.0
H1117 H 0.46053 0.3376 0.14208 0.0
H1118 H 0.52341 0.32785 0.12545 0.0
H1119 H 0.5215 0.30153 0.2118 0.0
H1120 H 0.5154 0.36629 0.14368 0.0
H1121 H 0.49211 0.31991 0.01109 0.0
H1122 H 0.46985 0.29393 0.97645 0.0
H1123 H 0.42093 0.33431 0.97178 0.0
H1124 H 0.44283 0.36046 0.0072 0.0
H1125 H 0.53184 0.44464 0.90765 0.0
H1126 H 0.52941 0.4122 0.96966 0.0
H1127 H 0.46554 0.41676 0.97586 0.0
H1128 H 0.46783 0.44908 0.91138 0.0
H1129 H 0.47469 0.3799 0.9593 0.0
H1130 H 0.49629 0.42502 0.09852 0.0
H1131 H 0.51754 0.45131 0.1359 0.0
H1132 H 0.56827 0.41353 0.13241 0.0
H1133 H 0.54736 0.38709 0.09439 0.0
C1134 C 0.47266 0.31412 0.20408 0.0
C1135 C 0.4899 0.30426 0.22591 0.0
C1136 C 0.47375 0.32921 0.1551 0.0
C1137 C 0.49214 0.33478 0.12736 0.0
C1138 C 0.50907 0.32379 0.14611 0.0
C1139 C 0.50794 0.30858 0.19488 0.0
C1140 C 0.49414 0.35381 0.08569 0.0
C1141 C 0.5068 0.3691 0.10265 0.0
C1142 C 0.48232 0.3578 0.03353 0.0
C1143 C 0.46909 0.3421 0.01231 0.0
C1144 C 0.47656 0.3232 0.00319 0.0
C1145 C 0.46402 0.30845 0.9833 0.0
C1146 C 0.44398 0.31245 0.97205 0.0
C1147 C 0.43645 0.33123 0.98056 0.0
C1148 C 0.44893 0.34603 1.00046 0.0
C1149 C 0.51725 0.43888 0.92257 0.0
C1150 C 0.50002 0.44958 0.90493 0.0
C1151 C 0.51589 0.42028 0.95824 0.0
C1152 C 0.49732 0.41208 0.97841 0.0
C1153 C 0.48006 0.42275 0.96099 0.0
C1154 C 0.48139 0.44129 0.92447 0.0
C1155 C 0.496 0.39235 0.01725 0.0
C1156 C 0.4834 0.37701 1.00005 0.0
C1157 C 0.50771 0.38833 0.06975 0.0
C1158 C 0.52029 0.40415 0.09308 0.0
C1159 C 0.512 0.42237 0.10538 0.0
C1160 C 0.52398 0.43729 0.12675 0.0
C1161 C 0.54425 0.43411 0.13638 0.0
C1162 C 0.55257 0.41598 0.12487 0.0
C1163 C 0.54066 0.40101 0.1035 0.0
H1164 H 0.5535 0.44569 0.15287 0.0
H1165 H 0.43429 0.30101 0.95664 0.0
H1166 H 0.19687 0.46529 0.16575 0.0
H1167 H 0.17232 0.46118 0.08681 0.0
H1168 H 0.16768 0.5258 0.05231 0.0
H1169 H 0.19256 0.52976 0.12932 0.0
H1170 H 0.13571 0.4703 0.0954 0.0
H1171 H 0.1477 0.54168 0.92025 0.0
H1172 H 0.17546 0.56108 0.86755 0.0
H1173 H 0.21212 0.50899 0.89273 0.0
H1174 H 0.1845 0.48918 0.94482 0.0
H1175 H 0.05798 0.52618 0.88938 0.0
H1176 H 0.09029 0.52388 0.93923 0.0
H1177 H 0.09064 0.46005 0.92696 0.0
H1178 H 0.05829 0.46221 0.87655 0.0
H1179 H 0.12663 0.51091 0.89727 0.0
H1180 H 0.11403 0.43826 0.05807 0.0
H1181 H 0.08652 0.4182 0.11023 0.0
H1182 H 0.05232 0.47164 0.11162 0.0
H1183 H 0.07972 0.49204 0.06026 0.0
C1184 C 0.19139 0.47855 0.13878 0.0
C1185 C 0.1969 0.49784 0.15247 0.0
C1186 C 0.17712 0.47623 0.09434 0.0
C1187 C 0.16805 0.49316 0.0632 0.0
C1188 C 0.17465 0.51246 0.07431 0.0
C1189 C 0.18898 0.51476 0.11825 0.0
C1190 C 0.14996 0.49084 0.02575 0.0
C1191 C 0.13399 0.4788 0.05135 0.0
C1192 C 0.14738 0.5022 0.9687 0.0
C1193 C 0.16404 0.51397 0.93686 0.0
C1194 C 0.16164 0.53432 0.91427 0.0
C1195 C 0.17737 0.5454 0.88456 0.0
C1196 C 0.19556 0.53629 0.87693 0.0
C1197 C 0.19804 0.51605 0.89886 0.0
C1198 C 0.18236 0.5049 0.92857 0.0
C1199 C 0.06483 0.5116 0.89759 0.0
C1200 C 0.05546 0.49435 0.8792 0.0
C1201 C 0.08339 0.51035 0.9257 0.0
C1202 C 0.0929 0.49181 0.93684 0.0
C1203 C 0.08354 0.4745 0.91907 0.0
C1204 C 0.06503 0.47577 0.89035 0.0
C1205 C 0.11252 0.4907 0.96759 0.0
C1206 C 0.12865 0.50213 0.94077 0.0
C1207 C 0.11534 0.47866 0.02321 0.0
C1208 C 0.09882 0.46661 0.05462 0.0
C1209 C 0.10065 0.44572 0.06963 0.0
C1210 C 0.08508 0.4343 0.09906 0.0
C1211 C 0.06765 0.44363 0.114 0.0
C1212 C 0.06579 0.46442 0.09977 0.0
C1213 C 0.08132 0.47591 0.07041 0.0
H1214 H 0.05561 0.43475 0.13675 0.0
H1215 H 0.20772 0.5449 0.85394 0.0
H1216 H 0.00792 0.79182 0.39922 0.0
H1217 H 0.00695 0.81695 0.47033 0.0
H1218 H 0.94312 0.81895 0.45344 0.0
H1219 H 0.94417 0.79379 0.38226 0.0
H1220 H 0.96078 0.85524 0.42121 0.0
H1221 H 0.96427 0.80417 0.58909 0.0
H1222 H 0.97747 0.77427 0.65 0.0
H1223 H 0.03354 0.80515 0.66478 0.0
H1224 H 0.02078 0.83517 0.60319 0.0
H1225 H 0.94854 0.93335 0.60224 0.0
H1226 H 0.94677 0.90034 0.56641 0.0
H1227 H 0.01042 0.89556 0.58264 0.0
H1228 H 0.01232 0.92876 0.61854 0.0
H1229 H 0.99168 0.85964 0.62052 0.0
H1230 H 0.98985 0.90898 0.4468 0.0
H1231 H 0.97782 0.93895 0.38335 0.0
H1232 H 0.91993 0.91102 0.37642 0.0
H1233 H 0.93155 0.88098 0.44058 0.0
C1234 C 0.99362 0.79682 0.4134 0.0
C1235 C 0.97608 0.7906 0.38638 0.0
C1236 C 0.99306 0.81131 0.45367 0.0
C1237 C 0.97495 0.81993 0.46719 0.0
C1238 C 0.95725 0.81251 0.44382 0.0
C1239 C 0.95781 0.79794 0.40381 0.0
C1240 C 0.97485 0.8386 0.49746 0.0
C1241 C 0.96714 0.85605 0.46543 0.0
C1242 C 0.98386 0.83991 0.55407 0.0
C1243 C 0.99161 0.82187 0.59103 0.0
C1244 C 0.97948 0.80454 0.60484 0.0
C1245 C 0.98687 0.78757 0.6396 0.0
C1246 C 0.00635 0.78779 0.66112 0.0
C1247 C 0.01846 0.805 0.64803 0.0
C1248 C 0.01115 0.822 0.61325 0.0
C1249 C 0.96221 0.92541 0.59786 0.0
C1250 C 0.98062 0.93393 0.61245 0.0
C1251 C 0.96115 0.90643 0.57764 0.0
C1252 C 0.97849 0.89554 0.57097 0.0
C1253 C 0.99683 0.90366 0.58738 0.0
C1254 C 0.9979 0.92267 0.60786 0.0
C1255 C 0.97747 0.87615 0.54436 0.0
C1256 C 0.9851 0.85869 0.57669 0.0
C1257 C 0.96855 0.87479 0.48764 0.0
C1258 C 0.96151 0.89283 0.44905 0.0
C1259 C 0.97451 0.9093 0.43218 0.0
C1260 C 0.96777 0.92628 0.39601 0.0
C1261 C 0.94811 0.92691 0.37602 0.0
C1262 C 0.93515 0.91053 0.39203 0.0
C1263 C 0.9418 0.89351 0.42827 0.0
H1264 H 0.94292 0.94007 0.34799 0.0
H1265 H 0.01204 0.77464 0.68805 0.0
H1266 H 0.71981 0.035 0.32442 0.0
H1267 H 0.69393 0.02861 0.4023 0.0
H1268 H 0.69153 0.96595 0.37412 0.0
H1269 H 0.71763 0.97231 0.29695 0.0
H1270 H 0.65573 0.98613 0.35185 0.0
H1271 H 0.70496 0.97781 0.50669 0.0
H1272 H 0.73409 0.98705 0.56498 0.0
H1273 H 0.70423 0.0393 0.61086 0.0
H1274 H 0.67505 0.0306 0.55183 0.0
H1275 H 0.57805 0.95361 0.55538 0.0
H1276 H 0.60988 0.95791 0.50297 0.0
H1277 H 0.61527 0.01865 0.54828 0.0
H1278 H 0.58312 0.01462 0.6003 0.0
H1279 H 0.65025 0.99944 0.56471 0.0
H1280 H 0.60289 0.0106 0.40758 0.0
H1281 H 0.57388 0.00428 0.3448 0.0
H1282 H 0.6001 0.95014 0.29877 0.0
H1283 H 0.62917 0.95597 0.362 0.0
C1284 C 0.7145 0.01968 0.33733 0.0
C1285 C 0.72096 0.00406 0.30566 0.0
C1286 C 0.6996 0.01606 0.38144 0.0
C1287 C 0.69072 0.99681 0.39391 0.0
C1288 C 0.69821 0.9809 0.36539 0.0
C1289 C 0.71329 0.98447 0.32186 0.0
C1290 C 0.67182 0.99401 0.42906 0.0
C1291 C 0.65461 0.98862 0.39881 0.0
C1292 C 0.6702 0.99823 0.48942 0.0
C1293 C 0.68788 0.00366 0.52418 0.0
C1294 C 0.70468 0.99141 0.52853 0.0
C1295 C 0.7212 0.99653 0.56185 0.0
C1296 C 0.72104 0.01378 0.59143 0.0
C1297 C 0.70436 0.02596 0.58779 0.0
C1298 C 0.68782 0.02094 0.5544 0.0
C1299 C 0.58577 0.96801 0.55381 0.0
C1300 C 0.57773 0.98382 0.58193 0.0
C1301 C 0.6041 0.97041 0.52387 0.0
C1302 C 0.61493 0.98867 0.52105 0.0
C1303 C 0.60721 0.00439 0.54986 0.0
C1304 C 0.58879 1.00204 0.57975 0.0
C1305 C 0.63422 0.99127 0.48766 0.0
C1306 C 0.65142 0.99677 0.51793 0.0
C1307 C 0.63584 0.98751 0.42683 0.0
C1308 C 0.61811 0.9836 0.39017 0.0
C1309 C 0.60236 0.99721 0.3847 0.0
C1310 C 0.58593 0.99375 0.34886 0.0
C1311 C 0.58512 0.97679 0.31793 0.0
C1312 C 0.60073 0.96325 0.32284 0.0
C1313 C 0.61719 0.96662 0.35867 0.0
H1314 H 0.57242 0.97419 0.29002 0.0
H1315 H 0.73382 0.01769 0.61731 0.0
H1316 H 0.48235 0.68714 0.35162 0.0
H1317 H 0.4848 0.66137 0.43802 0.0
H1318 H 0.54875 0.66847 0.43351 0.0
H1319 H 0.5462 0.69416 0.34585 0.0
H1320 H 0.53835 0.63078 0.42662 0.0
H1321 H 0.5207 0.6783 0.55821 0.0
H1322 H 0.50166 0.7055 0.59503 0.0
H1323 H 0.44908 0.66765 0.60915 0.0
H1324 H 0.46772 0.6403 0.57158 0.0
H1325 H 0.5438 0.54986 0.66693 0.0
H1326 H 0.54685 0.58277 0.60641 0.0
H1327 H 0.48329 0.58325 0.58124 0.0
H1328 H 0.48007 0.55045 0.64202 0.0
H1329 H 0.4974 0.619 0.61281 0.0
H1330 H 0.51423 0.57358 0.46888 0.0
H1331 H 0.53306 0.54646 0.43074 0.0
H1332 H 0.58733 0.58095 0.43989 0.0
H1333 H 0.56883 0.60818 0.47887 0.0
C1334 C 0.49685 0.68389 0.37103 0.0
C1335 C 0.51407 0.69279 0.34288 0.0
C1336 C 0.49827 0.66908 0.42033 0.0
C1337 C 0.51697 0.66293 0.44254 0.0
C1338 C 0.53416 0.67297 0.41727 0.0
C1339 C 0.53272 0.68783 0.36778 0.0
C1340 C 0.51848 0.64422 0.48552 0.0
C1341 C 0.52979 0.62842 0.46816 0.0
C1342 C 0.50691 0.64087 0.53894 0.0
C1343 C 0.49561 0.65727 0.5617 0.0
C1344 C 0.50504 0.67581 0.56873 0.0
C1345 C 0.49432 0.69126 0.58983 0.0
C1346 C 0.47417 0.68832 0.60434 0.0
C1347 C 0.4647 0.66991 0.5979 0.0
C1348 C 0.47535 0.65441 0.5768 0.0
C1349 C 0.53048 0.55686 0.64802 0.0
C1350 C 0.51169 0.54747 0.65919 0.0
C1351 C 0.53225 0.5757 0.61347 0.0
C1352 C 0.5153 0.58548 0.58923 0.0
C1353 C 0.49657 0.57603 0.59973 0.0
C1354 C 0.49478 0.55719 0.63413 0.0
C1355 C 0.51698 0.60562 0.55319 0.0
C1356 C 0.50623 0.62158 0.57182 0.0
C1357 C 0.52906 0.60916 0.50094 0.0
C1358 C 0.54018 0.5928 0.47747 0.0
C1359 C 0.5302 0.57531 0.46326 0.0
C1360 C 0.54081 0.55993 0.44139 0.0
C1361 C 0.56139 0.56195 0.43309 0.0
C1362 C 0.57139 0.57938 0.44647 0.0
C1363 C 0.56086 0.5948 0.46842 0.0
H1364 H 0.56958 0.55003 0.41613 0.0
H1365 H 0.4659 0.70029 0.62065 0.0
H1366 H 0.82346 0.47007 0.41161 0.0
H1367 H 0.84781 0.47357 0.49031 0.0
H1368 H 0.83735 0.53742 0.47571 0.0
H1369 H 0.81317 0.53388 0.39519 0.0
H1370 H 0.87521 0.53155 0.46447 0.0
H1371 H 0.82706 0.5049 0.60906 0.0
H1372 H 0.80059 0.48189 0.65469 0.0
H1373 H 0.84077 0.43255 0.66655 0.0
H1374 H 0.86742 0.45519 0.6202 0.0
H1375 H 0.95221 0.53696 0.68591 0.0
H1376 H 0.91993 0.53906 0.63523 0.0
H1377 H 0.92276 0.47629 0.60962 0.0
H1378 H 0.95494 0.47404 0.66012 0.0
H1379 H 0.88621 0.48597 0.65263 0.0
H1380 H 0.93237 0.51243 0.49439 0.0
H1381 H 0.95865 0.53567 0.4486 0.0
H1382 H 0.92132 0.58607 0.46472 0.0
H1383 H 0.89489 0.56312 0.51137 0.0
C1384 C 0.82575 0.48471 0.42703 0.0
C1385 C 0.81633 0.50168 0.39779 0.0
C1386 C 0.83972 0.48673 0.47208 0.0
C1387 C 0.84447 0.50577 0.48939 0.0
C1388 C 0.83396 0.52256 0.46325 0.0
C1389 C 0.81994 0.52052 0.41785 0.0
C1390 C 0.86211 0.50826 0.52845 0.0
C1391 C 0.87735 0.52192 0.50647 0.0
C1392 C 0.8652 0.49547 0.58273 0.0
C1393 C 0.84923 0.48176 0.61082 0.0
C1394 C 0.83023 0.48912 0.62101 0.0
C1395 C 0.81519 0.47614 0.64707 0.0
C1396 C 0.81899 0.45577 0.66344 0.0
C1397 C 0.83785 0.44834 0.65387 0.0
C1398 C 0.85294 0.46125 0.62779 0.0
C1399 C 0.94603 0.52364 0.66911 0.0
C1400 C 0.95624 0.50535 0.67688 0.0
C1401 C 0.92756 0.52486 0.64019 0.0
C1402 C 0.91891 0.50784 0.61856 0.0
C1403 C 0.92909 0.48961 0.62615 0.0
C1404 C 0.94758 0.48839 0.6547 0.0
C1405 C 0.8993 0.50887 0.58775 0.0
C1406 C 0.8838 0.49584 0.61129 0.0
C1407 C 0.8959 0.52231 0.53514 0.0
C1408 C 0.91176 0.53609 0.50703 0.0
C1409 C 0.92984 0.52848 0.48865 0.0
C1410 C 0.94474 0.54159 0.46244 0.0
C1411 C 0.94168 0.56234 0.45394 0.0
C1412 C 0.92368 0.57 0.47146 0.0
C1413 C 0.90873 0.55695 0.49775 0.0
H1414 H 0.95324 0.57247 0.43363 0.0
H1415 H 0.80733 0.44574 0.6836 0.0
loop_
_geom_bond_atom_site_label_1
_geom_bond_atom_site_label_2
_geom_bond_distance
_geom_bond_site_symmetry_2
_ccdc_geom_bond_type
H0 C5 0.930 . S
H1 C8 0.930 . S
H2 C10 0.930 . S
H3 C4 1.016 . S
C4 H3 1.016 . S
C4 N11 1.286 . S
C5 H0 0.930 . S
C5 C6 1.397 . S
C5 C7 1.361 . S
C6 C5 1.397 . S
C6 C10 1.390 . S
C7 C5 1.361 . S
C7 C8 1.393 . S
C7 N11 1.413 . S
C8 H1 0.930 . S
C8 C7 1.393 . S
C8 C9 1.399 . S
C9 C8 1.399 . S
C9 C10 1.381 . S
C10 H2 0.930 . S
C10 C6 1.390 . S
C10 C9 1.381 . S
N11 C4 1.286 . S
N11 C7 1.413 . S
H12 C17 0.930 . S
H13 C20 0.930 . S
H14 C22 0.930 . S
H15 C16 1.016 . S
C16 H15 1.016 . S
C16 N23 1.286 . S
C17 H12 0.930 . S
C17 C18 1.397 . S
C17 C19 1.361 . S
C18 C17 1.397 . S
C18 C22 1.390 . S
C19 C17 1.361 . S
C19 C20 1.393 . S
C19 N23 1.413 . S
C20 H13 0.930 . S
C20 C19 1.393 . S
C20 C21 1.399 . S
C21 C20 1.399 . S
C21 C22 1.381 . S
C22 H14 0.930 . S
C22 C18 1.390 . S
C22 C21 1.381 . S
N23 C16 1.286 . S
N23 C19 1.413 . S
H24 C29 0.930 . S
H25 C32 0.930 1_556 S
H26 C34 0.930 . S
H27 C28 1.033 1_556 S
C28 H27 1.033 1_554 S
C28 N35 1.264 1_565 S
C29 H24 0.930 . S
C29 C30 1.405 . S
C29 C31 1.361 . S
C30 C29 1.405 . S
C30 C34 1.381 1_545 S
C31 C29 1.361 . S
C31 C32 1.393 . S
C31 N35 1.413 . S
C32 H25 0.930 1_554 S
C32 C31 1.393 . S
C32 C33 1.401 . S
C33 C32 1.401 . S
C33 C34 1.381 1_545 S
C34 H26 0.930 . S
C34 C30 1.381 1_565 S
C34 C33 1.381 1_565 S
N35 C28 1.264 1_545 S
N35 C31 1.413 . S
H36 C41 0.930 . S
H37 C44 0.930 . S
H38 C46 0.930 . S
H39 C40 1.016 . S
C40 H39 1.016 . S
C40 N47 1.286 . S
C41 H36 0.930 . S
C41 C42 1.397 . S
C41 C43 1.361 . S
C42 C41 1.397 . S
C42 C46 1.390 . S
C43 C41 1.361 . S
C43 C44 1.393 . S
C43 N47 1.413 . S
C44 H37 0.930 . S
C44 C43 1.393 . S
C44 C45 1.399 . S
C45 C44 1.399 . S
C45 C46 1.381 . S
C46 H38 0.930 . S
C46 C42 1.390 . S
C46 C45 1.381 . S
N47 C40 1.286 . S
N47 C43 1.413 . S
H48 C53 0.930 . S
H49 C56 0.930 . S
H50 C58 0.930 . S
H51 C52 1.016 . S
C52 H51 1.016 . S
C52 N59 1.286 . S
C53 H48 0.930 . S
C53 C54 1.397 . S
C53 C55 1.361 . S
C54 C53 1.397 . S
C54 C58 1.390 . S
C55 C53 1.361 . S
C55 C56 1.393 . S
C55 N59 1.413 . S
C56 H49 0.930 . S
C56 C55 1.393 . S
C56 C57 1.399 . S
C57 C56 1.399 . S
C57 C58 1.381 . S
C58 H50 0.930 . S
C58 C54 1.390 . S
C58 C57 1.381 . S
N59 C52 1.286 . S
N59 C55 1.413 . S
H60 C65 0.930 . S
H61 C68 0.930 . S
H62 C70 0.930 . S
H63 C64 1.016 . S
C64 H63 1.016 . S
C64 N71 1.286 . S
C65 H60 0.930 . S
C65 C66 1.397 . S
C65 C67 1.361 . S
C66 C65 1.397 . S
C66 C70 1.390 . S
C67 C65 1.361 . S
C67 C68 1.393 . S
C67 N71 1.413 . S
C68 H61 0.930 . S
C68 C67 1.393 . S
C68 C69 1.399 . S
C69 C68 1.399 . S
C69 C70 1.381 . S
C70 H62 0.930 . S
C70 C66 1.390 . S
C70 C69 1.381 . S
N71 C64 1.286 . S
N71 C67 1.413 . S
H72 C77 0.930 . S
H73 C80 0.930 . S
H74 C82 0.930 . S
H75 C76 1.022 . S
C76 H75 1.022 . S
C76 N83 1.277 1_565 S
C77 H72 0.930 . S
C77 C78 1.397 . S
C77 C79 1.361 . S
C78 C77 1.397 . S
C78 C82 1.390 1_545 S
C79 C77 1.361 . S
C79 C80 1.393 . S
C79 N83 1.413 . S
C80 H73 0.930 . S
C80 C79 1.393 . S
C80 C81 1.405 . S
C81 C80 1.405 . S
C81 C82 1.374 1_545 S
C82 H74 0.930 . S
C82 C78 1.390 1_565 S
C82 C81 1.374 1_565 S
N83 C76 1.277 1_545 S
N83 C79 1.413 . S
H84 C89 0.930 . S
H85 C92 0.930 . S
H86 C94 0.930 . S
H87 C88 1.016 . S
C88 H87 1.016 . S
C88 N95 1.286 . S
C89 H84 0.930 . S
C89 C90 1.397 . S
C89 C91 1.361 . S
C90 C89 1.397 . S
C90 C94 1.390 . S
C91 C89 1.361 . S
C91 C92 1.393 . S
C91 N95 1.413 . S
C92 H85 0.930 . S
C92 C91 1.393 . S
C92 C93 1.399 . S
C93 C92 1.399 . S
C93 C94 1.381 . S
C94 H86 0.930 . S
C94 C90 1.390 . S
C94 C93 1.381 . S
N95 C88 1.286 . S
N95 C91 1.413 . S
Co96 N101 2.057 . S
Co96 O113 2.021 . S
Co96 O116 2.062 . S
Co96 O120 2.117 1_455 S
Co96 O121 2.020 1_545 S
C97 O117 1.259 1_545 S
C97 O120 1.258 . S
Co98 N107 2.057 . S
Co98 O114 2.117 1_655 S
Co98 O115 2.019 1_665 S
Co98 O117 2.021 . S
Co98 O122 2.062 . S
C99 N101 1.316 . S
C99 N102 1.347 . S
C99 H104 0.931 . S
C100 N101 1.375 1_655 S
C100 C103 1.350 1_655 S
C100 H105 0.930 . S
N101 Co96 2.057 . S
N101 C99 1.316 . S
N101 C100 1.375 1_455 S
N102 C99 1.347 . S
N102 C103 1.373 . S
C103 C100 1.350 1_455 S
C103 N102 1.373 . S
C103 H124 0.931 1_455 S
H104 C99 0.931 . S
H105 C100 0.930 . S
C106 O113 1.259 1_565 S
C106 O114 1.258 . S
N107 Co98 2.057 . S
N107 C108 1.316 . S
N107 C109 1.375 1_655 S
C108 N107 1.316 . S
C108 N110 1.347 . S
C108 H119 0.931 . S
C109 N107 1.375 1_455 S
C109 C111 1.350 . S
C109 H118 0.930 . S
N110 C108 1.347 . S
N110 C111 1.373 1_655 S
C111 C109 1.350 . S
C111 N110 1.373 1_455 S
C111 H125 0.931 . S
C112 O115 1.259 . S
C112 O116 1.255 . S
O113 Co96 2.021 . S
O113 C106 1.259 1_545 S
O114 Co98 2.117 1_455 S
O114 C106 1.258 . S
O115 Co98 2.019 1_445 S
O115 C112 1.259 . S
O116 Co96 2.062 . S
O116 C112 1.255 . S
O117 C97 1.259 1_565 S
O117 Co98 2.021 . S
H118 C109 0.930 . S
H119 C108 0.931 . S
O120 Co96 2.117 1_655 S
O120 C97 1.258 . S
O121 Co96 2.020 1_565 S
O121 C123 1.256 . S
O122 Co98 2.062 . S
O122 C123 1.255 1_655 S
C123 O121 1.256 . S
C123 O122 1.255 1_455 S
H124 C103 0.931 1_655 S
H125 C111 0.931 . S
Co126 N131 2.057 1_545 S
Co126 O143 2.021 . S
Co126 O146 2.065 . S
Co126 O150 2.117 1_545 S
Co126 O151 2.020 . S
C127 O147 1.259 . S
C127 O150 1.258 . S
Co128 N137 2.057 1_565 S
Co128 O144 2.117 1_565 S
Co128 O145 2.020 . S
Co128 O147 2.021 . S
Co128 O152 2.062 . S
C129 N131 1.316 1_545 S
C129 N132 1.347 . S
C129 H134 0.931 . S
C130 N131 1.375 . S
C130 C133 1.350 . S
C130 H135 0.930 . S
N131 Co126 2.057 1_565 S
N131 C129 1.316 1_565 S
N131 C130 1.375 . S
N132 C129 1.347 . S
N132 C133 1.373 1_545 S
C133 C130 1.350 . S
C133 N132 1.373 1_565 S
C133 H154 0.931 1_556 S
H134 C129 0.931 . S
H135 C130 0.930 . S
C136 O143 1.259 . S
C136 O144 1.258 . S
N137 Co128 2.057 1_545 S
N137 C138 1.306 1_545 S
N137 C139 1.386 . S
C138 N137 1.306 1_565 S
C138 N140 1.347 . S
C138 H149 0.931 . S
C139 N137 1.386 . S
C139 C141 1.350 . S
C139 H148 0.930 . S
N140 C138 1.347 . S
N140 C141 1.373 1_565 S
C141 C139 1.350 . S
C141 N140 1.373 1_545 S
C141 H155 0.931 . S
C142 O145 1.256 . S
C142 O146 1.249 1_565 S
O143 Co126 2.021 . S
O143 C136 1.259 . S
O144 Co128 2.117 1_545 S
O144 C136 1.258 . S
O145 Co128 2.020 . S
O145 C142 1.256 . S
O146 Co126 2.065 . S
O146 C142 1.249 1_545 S
O147 C127 1.259 . S
O147 Co128 2.021 . S
H148 C139 0.930 . S
H149 C138 0.931 . S
O150 Co126 2.117 1_565 S
O150 C127 1.258 . S
O151 Co126 2.020 . S
O151 C153 1.256 . S
O152 Co128 2.062 . S
O152 C153 1.253 1_565 S
C153 O151 1.256 . S
C153 O152 1.253 1_545 S
H154 C133 0.931 1_554 S
H155 C141 0.931 . S
Co156 N161 2.057 . S
Co156 O173 2.021 . S
Co156 O176 2.062 . S
Co156 O180 2.117 . S
Co156 O181 2.020 . S
C157 O177 1.259 . S
C157 O180 1.258 . S
Co158 N167 2.057 . S
Co158 O174 2.117 . S
Co158 O175 2.020 . S
Co158 O177 2.021 . S
Co158 O182 2.062 . S
C159 N161 1.316 . S
C159 N162 1.347 . S
C159 H164 0.931 . S
C160 N161 1.375 . S
C160 C163 1.350 . S
C160 H165 0.930 . S
N161 Co156 2.057 . S
N161 C159 1.316 . S
N161 C160 1.375 . S
N162 C159 1.347 . S
N162 C163 1.373 . S
C163 C160 1.350 . S
C163 N162 1.373 . S
C163 H184 0.931 . S
H164 C159 0.931 . S
H165 C160 0.930 . S
C166 O173 1.259 . S
C166 O174 1.258 . S
N167 Co158 2.057 . S
N167 C168 1.316 . S
N167 C169 1.375 . S
C168 N167 1.316 . S
C168 N170 1.347 . S
C168 H179 0.931 . S
C169 N167 1.375 . S
C169 C171 1.350 . S
C169 H178 0.930 . S
N170 C168 1.347 . S
N170 C171 1.373 . S
C171 C169 1.350 . S
C171 N170 1.373 . S
C171 H185 0.931 . S
C172 O175 1.256 . S
C172 O176 1.255 . S
O173 Co156 2.021 . S
O173 C166 1.259 . S
O174 Co158 2.117 . S
O174 C166 1.258 . S
O175 Co158 2.020 . S
O175 C172 1.256 . S
O176 Co156 2.062 . S
O176 C172 1.255 . S
O177 C157 1.259 . S
O177 Co158 2.021 . S
H178 C169 0.930 . S
H179 C168 0.931 . S
O180 Co156 2.117 . S
O180 C157 1.258 . S
O181 Co156 2.020 . S
O181 C183 1.256 . S
O182 Co158 2.062 . S
O182 C183 1.255 . S
C183 O181 1.256 . S
C183 O182 1.255 . S
H184 C163 0.931 . S
H185 C171 0.931 . S
Co186 N191 2.057 . S
Co186 O203 2.021 1_455 S
Co186 O206 2.062 1_455 S
Co186 O210 2.117 . S
Co186 O211 2.020 . S
C187 O207 1.259 . S
C187 O210 1.258 . S
Co188 N197 2.057 . S
Co188 O204 2.117 1_455 S
Co188 O205 2.020 1_455 S
Co188 O207 2.021 . S
Co188 O212 2.062 . S
C189 N191 1.316 1_655 S
C189 N192 1.355 . S
C189 H194 0.931 . S
C190 N191 1.375 . S
C190 C193 1.350 . S
C190 H195 0.930 . S
N191 Co186 2.057 . S
N191 C189 1.316 1_455 S
N191 C190 1.375 . S
N192 C189 1.355 . S
N192 C193 1.343 1_655 S
C193 C190 1.350 . S
C193 N192 1.343 1_455 S
C193 H214 0.931 . S
H194 C189 0.931 . S
H195 C190 0.930 . S
C196 O203 1.259 . S
C196 O204 1.258 . S
N197 Co188 2.057 . S
N197 C198 1.316 . S
N197 C199 1.375 1_455 S
C198 N197 1.316 . S
C198 N200 1.347 . S
C198 H209 0.931 . S
C199 N197 1.375 1_655 S
C199 C201 1.350 . S
C199 H208 0.930 . S
N200 C198 1.347 . S
N200 C201 1.373 1_455 S
C201 C199 1.350 . S
C201 N200 1.373 1_655 S
C201 H215 0.931 . S
C202 O205 1.256 . S
C202 O206 1.255 . S
O203 Co186 2.021 1_655 S
O203 C196 1.259 . S
O204 Co188 2.117 1_655 S
O204 C196 1.258 . S
O205 Co188 2.020 1_655 S
O205 C202 1.256 . S
O206 Co186 2.062 1_655 S
O206 C202 1.255 . S
O207 C187 1.259 . S
O207 Co188 2.021 . S
H208 C199 0.930 . S
H209 C198 0.931 . S
O210 Co186 2.117 . S
O210 C187 1.258 . S
O211 Co186 2.020 . S
O211 C213 1.256 . S
O212 Co188 2.062 . S
O212 C213 1.255 . S
C213 O211 1.256 . S
C213 O212 1.255 . S
H214 C193 0.931 . S
H215 C201 0.931 . S
H216 C234 0.951 . S
H217 C236 0.951 . S
H218 C238 0.950 . S
H219 C239 0.950 . S
H220 C241 0.950 . S
H221 C244 0.950 . S
H222 C245 0.950 . S
H223 C247 0.950 . S
H224 C248 0.950 . S
H225 C249 0.949 1_545 S
H226 C251 0.948 1_545 S
H227 C253 0.950 . S
H228 C254 0.950 . S
H229 C256 0.950 . S
H230 C259 0.950 . S
H231 C260 0.950 . S
H232 C262 0.950 . S
H233 C263 0.950 . S
C234 H216 0.951 . S
C234 C235 1.367 . S
C234 C236 1.388 . S
C235 C234 1.367 . S
C235 C239 1.383 1_565 S
C236 H217 0.951 . S
C236 C234 1.388 . S
C236 C237 1.366 1_565 S
C237 C236 1.366 1_545 S
C237 C238 1.413 . S
C237 C240 1.499 1_545 S
C238 H218 0.950 . S
C238 C237 1.413 . S
C238 C239 1.374 . S
C239 H219 0.950 . S
C239 C235 1.383 1_545 S
C239 C238 1.374 . S
C240 C237 1.499 1_565 S
C240 C241 1.376 . S
C240 C242 1.387 1_565 S
C241 H220 0.950 . S
C241 C240 1.376 . S
C241 C257 1.377 . S
C242 C240 1.387 1_545 S
C242 C243 1.524 . S
C242 C256 1.377 . S
C243 C242 1.524 . S
C243 C244 1.397 . S
C243 C248 1.363 . S
C244 H221 0.950 . S
C244 C243 1.397 . S
C244 C245 1.334 . S
C245 H222 0.950 . S
C245 C244 1.334 . S
C245 C246 1.287 . S
C246 C245 1.287 . S
C246 C247 1.524 . S
C246 H265 0.913 . S
C247 H223 0.950 . S
C247 C246 1.524 . S
C247 C248 1.415 . S
C248 H224 0.950 . S
C248 C243 1.363 . S
C248 C247 1.415 . S
C249 H225 0.949 1_565 S
C249 C250 1.367 . S
C249 C251 1.387 . S
C250 C249 1.367 . S
C250 C254 1.385 . S
C251 H226 0.948 1_565 S
C251 C249 1.387 . S
C251 C252 1.369 . S
C252 C251 1.369 . S
C252 C253 1.414 . S
C252 C255 1.499 . S
C253 H227 0.950 . S
C253 C252 1.414 . S
C253 C254 1.374 . S
C254 H228 0.950 . S
C254 C250 1.385 . S
C254 C253 1.374 . S
C255 C252 1.499 . S
C255 C256 1.373 1_565 S
C255 C257 1.389 . S
C256 H229 0.950 . S
C256 C242 1.377 . S
C256 C255 1.373 1_545 S
C257 C241 1.377 . S
C257 C255 1.389 . S
C257 C258 1.524 . S
C258 C257 1.524 . S
C258 C259 1.397 . S
C258 C263 1.363 . S
C259 H230 0.950 . S
C259 C258 1.397 . S
C259 C260 1.334 . S
C260 H231 0.950 . S
C260 C259 1.334 . S
C260 C261 1.287 . S
C261 C260 1.287 . S
C261 C262 1.524 . S
C261 H264 0.999 . S
C262 H232 0.950 . S
C262 C261 1.524 . S
C262 C263 1.415 . S
C263 H233 0.950 . S
C263 C258 1.363 . S
C263 C262 1.415 . S
H264 C261 0.999 . S
H265 C246 0.913 . S
H266 C284 0.951 . S
H267 C286 0.951 . S
H268 C288 0.950 . S
H269 C289 0.950 . S
H270 C291 0.950 . S
H271 C294 0.950 . S
H272 C295 0.950 . S
H273 C297 0.950 . S
H274 C298 0.950 . S
H275 C299 0.951 . S
H276 C301 0.951 . S
H277 C303 0.950 . S
H278 C304 0.950 . S
H279 C306 0.950 . S
H280 C309 0.950 . S
H281 C310 0.950 . S
H282 C312 0.950 . S
H283 C313 0.950 . S
C284 H266 0.951 . S
C284 C285 1.366 . S
C284 C286 1.388 . S
C285 C284 1.366 . S
C285 C289 1.385 . S
C286 H267 0.951 . S
C286 C284 1.388 . S
C286 C287 1.366 . S
C287 C286 1.366 . S
C287 C288 1.414 . S
C287 C290 1.499 . S
C288 H268 0.950 . S
C288 C287 1.414 . S
C288 C289 1.374 . S
C289 H269 0.950 . S
C289 C285 1.385 . S
C289 C288 1.374 . S
C290 C287 1.499 . S
C290 C291 1.373 . S
C290 C292 1.389 . S
C291 H270 0.950 . S
C291 C290 1.373 . S
C291 C307 1.377 . S
C292 C290 1.389 . S
C292 C293 1.524 . S
C292 C306 1.377 . S
C293 C292 1.524 . S
C293 C294 1.397 . S
C293 C298 1.363 . S
C294 H271 0.950 . S
C294 C293 1.397 . S
C294 C295 1.334 . S
C295 H272 0.950 . S
C295 C294 1.334 . S
C295 C296 1.287 . S
C296 C295 1.287 . S
C296 C297 1.524 . S
C296 H315 0.913 . S
C297 H273 0.950 . S
C297 C296 1.524 . S
C297 C298 1.415 . S
C298 H274 0.950 . S
C298 C293 1.363 . S
C298 C297 1.415 . S
C299 H275 0.951 . S
C299 C300 1.366 . S
C299 C301 1.388 . S
C300 C299 1.366 . S
C300 C304 1.385 . S
C301 H276 0.951 . S
C301 C299 1.388 . S
C301 C302 1.366 . S
C302 C301 1.366 . S
C302 C303 1.414 . S
C302 C305 1.499 . S
C303 H277 0.950 . S
C303 C302 1.414 . S
C303 C304 1.374 . S
C304 H278 0.950 . S
C304 C300 1.385 . S
C304 C303 1.374 . S
C305 C302 1.499 . S
C305 C306 1.373 . S
C305 C307 1.389 . S
C306 H279 0.950 . S
C306 C292 1.377 . S
C306 C305 1.373 . S
C307 C291 1.377 . S
C307 C305 1.389 . S
C307 C308 1.524 . S
C308 C307 1.524 . S
C308 C309 1.397 . S
C308 C313 1.363 . S
C309 H280 0.950 . S
C309 C308 1.397 . S
C309 C310 1.334 . S
C310 H281 0.950 . S
C310 C309 1.334 . S
C310 C311 1.287 . S
C311 C310 1.287 . S
C311 C312 1.524 . S
C311 H314 0.999 . S
C312 H282 0.950 . S
C312 C311 1.524 . S
C312 C313 1.415 . S
C313 H283 0.950 . S
C313 C308 1.363 . S
C313 C312 1.415 . S
H314 C311 0.999 . S
H315 C296 0.913 . S
H316 C334 0.951 . S
H317 C336 0.951 . S
H318 C338 0.950 . S
H319 C339 0.950 . S
H320 C341 0.950 . S
H321 C344 0.950 . S
H322 C345 0.950 . S
H323 C347 0.950 . S
H324 C348 0.950 . S
H325 C349 0.951 . S
H326 C351 0.951 . S
H327 C353 0.950 . S
H328 C354 0.950 . S
H329 C356 0.950 . S
H330 C359 0.950 . S
H331 C360 0.950 . S
H332 C362 0.950 . S
H333 C363 0.950 . S
C334 H316 0.951 . S
C334 C335 1.366 . S
C334 C336 1.388 . S
C335 C334 1.366 . S
C335 C339 1.385 . S
C336 H317 0.951 . S
C336 C334 1.388 . S
C336 C337 1.366 . S
C337 C336 1.366 . S
C337 C338 1.414 . S
C337 C340 1.499 . S
C338 H318 0.950 . S
C338 C337 1.414 . S
C338 C339 1.374 . S
C339 H319 0.950 . S
C339 C335 1.385 . S
C339 C338 1.374 . S
C340 C337 1.499 . S
C340 C341 1.373 . S
C340 C342 1.389 . S
C341 H320 0.950 . S
C341 C340 1.373 . S
C341 C357 1.377 . S
C342 C340 1.389 . S
C342 C343 1.524 . S
C342 C356 1.377 . S
C343 C342 1.524 . S
C343 C344 1.397 . S
C343 C348 1.363 . S
C344 H321 0.950 . S
C344 C343 1.397 . S
C344 C345 1.334 . S
C345 H322 0.950 . S
C345 C344 1.334 . S
C345 C346 1.287 . S
C346 C345 1.287 . S
C346 C347 1.524 . S
C346 H365 0.913 . S
C347 H323 0.950 . S
C347 C346 1.524 . S
C347 C348 1.415 . S
C348 H324 0.950 . S
C348 C343 1.363 . S
C348 C347 1.415 . S
C349 H325 0.951 . S
C349 C350 1.366 . S
C349 C351 1.388 . S
C350 C349 1.366 . S
C350 C354 1.385 . S
C351 H326 0.951 . S
C351 C349 1.388 . S
C351 C352 1.366 . S
C352 C351 1.366 . S
C352 C353 1.414 . S
C352 C355 1.499 . S
C353 H327 0.950 . S
C353 C352 1.414 . S
C353 C354 1.374 . S
C354 H328 0.950 . S
C354 C350 1.385 . S
C354 C353 1.374 . S
C355 C352 1.499 . S
C355 C356 1.373 . S
C355 C357 1.389 . S
C356 H329 0.950 . S
C356 C342 1.377 . S
C356 C355 1.373 . S
C357 C341 1.377 . S
C357 C355 1.389 . S
C357 C358 1.524 . S
C358 C357 1.524 . S
C358 C359 1.397 . S
C358 C363 1.363 . S
C359 H330 0.950 . S
C359 C358 1.397 . S
C359 C360 1.334 . S
C360 H331 0.950 . S
C360 C359 1.334 . S
C360 C361 1.287 . S
C361 C360 1.287 . S
C361 C362 1.524 . S
C361 H364 0.999 . S
C362 H332 0.950 . S
C362 C361 1.524 . S
C362 C363 1.415 . S
C363 H333 0.950 . S
C363 C358 1.363 . S
C363 C362 1.415 . S
H364 C361 0.999 . S
H365 C346 0.913 . S
H366 C384 0.951 . S
H367 C386 0.951 . S
H368 C388 0.950 . S
H369 C389 0.950 . S
H370 C391 0.950 . S
H371 C394 0.950 1_455 S
H372 C395 0.950 . S
H373 C397 0.950 . S
H374 C398 0.950 . S
H375 C399 0.951 . S
H376 C401 0.951 . S
H377 C403 0.950 . S
H378 C404 0.950 . S
H379 C406 0.950 . S
H380 C409 0.950 . S
H381 C410 0.950 . S
H382 C412 0.950 . S
H383 C413 0.950 . S
C384 H366 0.951 . S
C384 C385 1.366 . S
C384 C386 1.388 . S
C385 C384 1.366 . S
C385 C389 1.385 . S
C386 H367 0.951 . S
C386 C384 1.388 . S
C386 C387 1.366 . S
C387 C386 1.366 . S
C387 C388 1.414 . S
C387 C390 1.499 . S
C388 H368 0.950 . S
C388 C387 1.414 . S
C388 C389 1.374 . S
C389 H369 0.950 . S
C389 C385 1.385 . S
C389 C388 1.374 . S
C390 C387 1.499 . S
C390 C391 1.373 . S
C390 C392 1.389 . S
C391 H370 0.950 . S
C391 C390 1.373 . S
C391 C407 1.377 . S
C392 C390 1.389 . S
C392 C393 1.524 . S
C392 C406 1.377 . S
C393 C392 1.524 . S
C393 C394 1.397 1_455 S
C393 C398 1.363 1_455 S
C394 H371 0.950 1_655 S
C394 C393 1.397 1_655 S
C394 C395 1.334 . S
C395 H372 0.950 . S
C395 C394 1.334 . S
C395 C396 1.287 . S
C396 C395 1.287 . S
C396 C397 1.524 . S
C396 H415 0.913 . S
C397 H373 0.950 . S
C397 C396 1.524 . S
C397 C398 1.415 . S
C398 H374 0.950 . S
C398 C393 1.363 1_655 S
C398 C397 1.415 . S
C399 H375 0.951 . S
C399 C400 1.366 . S
C399 C401 1.388 . S
C400 C399 1.366 . S
C400 C404 1.385 . S
C401 H376 0.951 . S
C401 C399 1.388 . S
C401 C402 1.366 . S
C402 C401 1.366 . S
C402 C403 1.414 . S
C402 C405 1.499 . S
C403 H377 0.950 . S
C403 C402 1.414 . S
C403 C404 1.374 . S
C404 H378 0.950 . S
C404 C400 1.385 . S
C404 C403 1.374 . S
C405 C402 1.499 . S
C405 C406 1.373 . S
C405 C407 1.389 . S
C406 H379 0.950 . S
C406 C392 1.377 . S
C406 C405 1.373 . S
C407 C391 1.377 . S
C407 C405 1.389 . S
C407 C408 1.524 . S
C408 C407 1.524 . S
C408 C409 1.397 . S
C408 C413 1.363 . S
C409 H380 0.950 . S
C409 C408 1.397 . S
C409 C410 1.334 . S
C410 H381 0.950 . S
C410 C409 1.334 . S
C410 C411 1.287 . S
C411 C410 1.287 . S
C411 C412 1.524 . S
C411 H414 0.999 . S
C412 H382 0.950 . S
C412 C411 1.524 . S
C412 C413 1.415 . S
C413 H383 0.950 . S
C413 C408 1.363 . S
C413 C412 1.415 . S
H414 C411 0.999 . S
H415 C396 0.913 . S
H416 C434 0.951 . S
H417 C436 0.951 . S
H418 C438 0.950 . S
H419 C439 0.950 . S
H420 C441 0.950 . S
H421 C444 0.950 . S
H422 C445 0.950 . S
H423 C447 0.950 1_554 S
H424 C448 0.950 . S
H425 C449 0.951 . S
H426 C451 0.951 . S
H427 C453 0.950 . S
H428 C454 0.950 . S
H429 C456 0.950 . S
H430 C459 0.950 . S
H431 C460 0.950 . S
H432 C462 0.950 . S
H433 C463 0.950 . S
C434 H416 0.951 . S
C434 C435 1.373 . S
C434 C436 1.388 . S
C435 C434 1.373 . S
C435 C439 1.377 1_544 S
C436 H417 0.951 . S
C436 C434 1.388 . S
C436 C437 1.366 1_554 S
C437 C436 1.366 1_556 S
C437 C438 1.414 1_545 S
C437 C440 1.499 . S
C438 H418 0.950 . S
C438 C437 1.414 1_565 S
C438 C439 1.374 . S
C439 H419 0.950 . S
C439 C435 1.377 1_566 S
C439 C438 1.374 . S
C440 C437 1.499 . S
C440 C441 1.373 1_545 S
C440 C442 1.389 . S
C441 H420 0.950 . S
C441 C440 1.373 1_565 S
C441 C457 1.377 . S
C442 C440 1.389 . S
C442 C443 1.524 . S
C442 C456 1.377 . S
C443 C442 1.524 . S
C443 C444 1.397 . S
C443 C448 1.363 . S
C444 H421 0.950 . S
C444 C443 1.397 . S
C444 C445 1.334 . S
C445 H422 0.950 . S
C445 C444 1.334 . S
C445 C446 1.287 . S
C446 C445 1.287 . S
C446 C447 1.524 . S
C446 H465 0.913 . S
C447 H423 0.950 1_556 S
C447 C446 1.524 . S
C447 C448 1.415 . S
C448 H424 0.950 . S
C448 C443 1.363 . S
C448 C447 1.415 . S
C449 H425 0.951 . S
C449 C450 1.366 1_565 S
C449 C451 1.388 . S
C450 C449 1.366 1_545 S
C450 C454 1.385 . S
C451 H426 0.951 . S
C451 C449 1.388 . S
C451 C452 1.366 1_565 S
C452 C451 1.366 1_545 S
C452 C453 1.414 . S
C452 C455 1.499 . S
C453 H427 0.950 . S
C453 C452 1.414 . S
C453 C454 1.374 . S
C454 H428 0.950 . S
C454 C450 1.385 . S
C454 C453 1.374 . S
C455 C452 1.499 . S
C455 C456 1.373 . S
C455 C457 1.389 1_545 S
C456 H429 0.950 . S
C456 C442 1.377 . S
C456 C455 1.373 . S
C457 C441 1.377 . S
C457 C455 1.389 1_565 S
C457 C458 1.524 . S
C458 C457 1.524 . S
C458 C459 1.397 . S
C458 C463 1.363 . S
C459 H430 0.950 . S
C459 C458 1.397 . S
C459 C460 1.334 . S
C460 H431 0.950 . S
C460 C459 1.334 . S
C460 C461 1.287 . S
C461 C460 1.287 . S
C461 C462 1.524 . S
C461 H464 0.999 . S
C462 H432 0.950 . S
C462 C461 1.524 . S
C462 C463 1.415 . S
C463 H433 0.950 . S
C463 C458 1.363 . S
C463 C462 1.415 . S
H464 C461 0.999 . S
H465 C446 0.913 . S
H466 C484 0.951 . S
H467 C486 0.951 . S
H468 C488 0.950 1_556 S
H469 C489 0.950 . S
H470 C491 0.950 . S
H471 C494 0.950 . S
H472 C495 0.950 . S
H473 C497 0.950 . S
H474 C498 0.950 . S
H475 C499 0.951 . S
H476 C501 0.951 . S
H477 C503 0.950 . S
H478 C504 0.950 . S
H479 C506 0.950 . S
H480 C509 0.950 . S
H481 C510 0.950 . S
H482 C512 0.950 . S
H483 C513 0.950 . S
C484 H466 0.951 . S
C484 C485 1.366 . S
C484 C486 1.388 . S
C485 C484 1.366 . S
C485 C489 1.385 . S
C486 H467 0.951 . S
C486 C484 1.388 . S
C486 C487 1.366 1_554 S
C487 C486 1.366 1_556 S
C487 C488 1.414 1_556 S
C487 C490 1.499 . S
C488 H468 0.950 1_554 S
C488 C487 1.414 1_554 S
C488 C489 1.374 . S
C489 H469 0.950 . S
C489 C485 1.385 . S
C489 C488 1.374 . S
C490 C487 1.499 . S
C490 C491 1.373 . S
C490 C492 1.389 . S
C491 H470 0.950 . S
C491 C490 1.373 . S
C491 C507 1.377 . S
C492 C490 1.389 . S
C492 C493 1.524 1_556 S
C492 C506 1.377 . S
C493 C492 1.524 1_554 S
C493 C494 1.397 . S
C493 C498 1.363 . S
C494 H471 0.950 . S
C494 C493 1.397 . S
C494 C495 1.334 . S
C495 H472 0.950 . S
C495 C494 1.334 . S
C495 C496 1.287 . S
C496 C495 1.287 . S
C496 C497 1.524 . S
C496 H515 0.913 . S
C497 H473 0.950 . S
C497 C496 1.524 . S
C497 C498 1.415 . S
C498 H474 0.950 . S
C498 C493 1.363 . S
C498 C497 1.415 . S
C499 H475 0.951 . S
C499 C500 1.366 . S
C499 C501 1.388 . S
C500 C499 1.366 . S
C500 C504 1.385 . S
C501 H476 0.951 . S
C501 C499 1.388 . S
C501 C502 1.366 . S
C502 C501 1.366 . S
C502 C503 1.414 . S
C502 C505 1.499 . S
C503 H477 0.950 . S
C503 C502 1.414 . S
C503 C504 1.374 . S
C504 H478 0.950 . S
C504 C500 1.385 . S
C504 C503 1.374 . S
C505 C502 1.499 . S
C505 C506 1.373 . S
C505 C507 1.389 . S
C506 H479 0.950 . S
C506 C492 1.377 . S
C506 C505 1.373 . S
C507 C491 1.377 . S
C507 C505 1.389 . S
C507 C508 1.524 . S
C508 C507 1.524 . S
C508 C509 1.397 . S
C508 C513 1.363 . S
C509 H480 0.950 . S
C509 C508 1.397 . S
C509 C510 1.334 . S
C510 H481 0.950 . S
C510 C509 1.334 . S
C510 C511 1.287 . S
C511 C510 1.287 . S
C511 C512 1.524 . S
C511 H514 0.999 . S
C512 H482 0.950 . S
C512 C511 1.524 . S
C512 C513 1.415 . S
C513 H483 0.950 . S
C513 C508 1.363 . S
C513 C512 1.415 . S
H514 C511 0.999 . S
H515 C496 0.913 . S
H516 C534 0.951 . S
H517 C536 0.951 1_556 S
H518 C538 0.950 . S
H519 C539 0.950 . S
H520 C541 0.950 . S
H521 C544 0.950 . S
H522 C545 0.950 . S
H523 C547 0.950 . S
H524 C548 0.950 . S
H525 C549 0.951 . S
H526 C551 0.951 . S
H527 C553 0.950 . S
H528 C554 0.950 . S
H529 C556 0.950 . S
H530 C559 0.950 . S
H531 C560 0.950 . S
H532 C562 0.950 . S
H533 C563 0.950 . S
C534 H516 0.951 . S
C534 C535 1.366 . S
C534 C536 1.388 . S
C535 C534 1.366 . S
C535 C539 1.385 . S
C536 H517 0.951 1_554 S
C536 C534 1.388 . S
C536 C537 1.366 . S
C537 C536 1.366 . S
C537 C538 1.414 . S
C537 C540 1.499 . S
C538 H518 0.950 . S
C538 C537 1.414 . S
C538 C539 1.374 . S
C539 H519 0.950 . S
C539 C535 1.385 . S
C539 C538 1.374 . S
C540 C537 1.499 . S
C540 C541 1.373 . S
C540 C542 1.389 1_554 S
C541 H520 0.950 . S
C541 C540 1.373 . S
C541 C557 1.377 1_554 S
C542 C540 1.389 1_556 S
C542 C543 1.524 . S
C542 C556 1.377 . S
C543 C542 1.524 . S
C543 C544 1.397 1_556 S
C543 C548 1.363 . S
C544 H521 0.950 . S
C544 C543 1.397 1_554 S
C544 C545 1.334 . S
C545 H522 0.950 . S
C545 C544 1.334 . S
C545 C546 1.287 1_554 S
C546 C545 1.287 1_556 S
C546 C547 1.524 . S
C546 H565 0.913 . S
C547 H523 0.950 . S
C547 C546 1.524 . S
C547 C548 1.415 . S
C548 H524 0.950 . S
C548 C543 1.363 . S
C548 C547 1.415 . S
C549 H525 0.951 . S
C549 C550 1.366 . S
C549 C551 1.388 . S
C550 C549 1.366 . S
C550 C554 1.385 . S
C551 H526 0.951 . S
C551 C549 1.388 . S
C551 C552 1.366 . S
C552 C551 1.366 . S
C552 C553 1.414 . S
C552 C555 1.499 . S
C553 H527 0.950 . S
C553 C552 1.414 . S
C553 C554 1.374 . S
C554 H528 0.950 . S
C554 C550 1.385 . S
C554 C553 1.374 . S
C555 C552 1.499 . S
C555 C556 1.373 . S
C555 C557 1.389 . S
C556 H529 0.950 . S
C556 C542 1.377 . S
C556 C555 1.373 . S
C557 C541 1.377 1_556 S
C557 C555 1.389 . S
C557 C558 1.524 . S
C558 C557 1.524 . S
C558 C559 1.397 . S
C558 C563 1.363 1_556 S
C559 H530 0.950 . S
C559 C558 1.397 . S
C559 C560 1.334 . S
C560 H531 0.950 . S
C560 C559 1.334 . S
C560 C561 1.287 . S
C561 C560 1.287 . S
C561 C562 1.524 1_556 S
C561 H564 0.999 . S
C562 H532 0.950 . S
C562 C561 1.524 1_554 S
C562 C563 1.415 . S
C563 H533 0.950 . S
C563 C558 1.363 1_554 S
C563 C562 1.415 . S
H564 C561 0.999 . S
H565 C546 0.913 . S
H566 C584 0.951 . S
H567 C586 0.951 . S
H568 C588 0.950 . S
H569 C589 0.950 1_556 S
H570 C591 0.950 . S
H571 C594 0.950 1_556 S
H572 C595 0.950 . S
H573 C597 0.950 . S
H574 C598 0.950 . S
H575 C599 0.951 . S
H576 C601 0.951 . S
H577 C603 0.950 . S
H578 C604 0.950 . S
H579 C606 0.957 . S
H580 C609 0.950 . S
H581 C610 0.950 . S
H582 C612 0.950 . S
H583 C613 0.950 . S
C584 H566 0.951 . S
C584 C585 1.366 . S
C584 C586 1.388 . S
C585 C584 1.366 . S
C585 C589 1.385 . S
C586 H567 0.951 . S
C586 C584 1.388 . S
C586 C587 1.366 . S
C587 C586 1.366 . S
C587 C588 1.414 1_554 S
C587 C590 1.499 1_554 S
C588 H568 0.950 . S
C588 C587 1.414 1_556 S
C588 C589 1.374 1_556 S
C589 H569 0.950 1_554 S
C589 C585 1.385 . S
C589 C588 1.374 1_554 S
C590 C587 1.499 1_556 S
C590 C591 1.373 . S
C590 C592 1.389 . S
C591 H570 0.950 . S
C591 C590 1.373 . S
C591 C607 1.377 . S
C592 C590 1.389 . S
C592 C593 1.486 1_656 S
C592 C606 1.377 . S
C593 C592 1.486 1_454 S
C593 C594 1.421 . S
C593 C598 1.382 . S
C594 H571 0.950 1_554 S
C594 C593 1.421 . S
C594 C595 1.334 . S
C595 H572 0.950 . S
C595 C594 1.334 . S
C595 C596 1.287 . S
C596 C595 1.287 . S
C596 C597 1.524 . S
C596 H615 0.913 . S
C597 H573 0.950 . S
C597 C596 1.524 . S
C597 C598 1.415 . S
C598 H574 0.950 . S
C598 C593 1.382 . S
C598 C597 1.415 . S
C599 H575 0.951 . S
C599 C600 1.366 . S
C599 C601 1.388 . S
C600 C599 1.366 . S
C600 C604 1.385 . S
C601 H576 0.951 . S
C601 C599 1.388 . S
C601 C602 1.366 . S
C602 C601 1.366 . S
C602 C603 1.414 . S
C602 C605 1.499 . S
C603 H577 0.950 . S
C603 C602 1.414 . S
C603 C604 1.374 . S
C604 H578 0.950 . S
C604 C600 1.385 . S
C604 C603 1.374 . S
C605 C602 1.499 . S
C605 C606 1.373 . S
C605 C607 1.389 . S
C606 H579 0.957 . S
C606 C592 1.377 . S
C606 C605 1.373 . S
C607 C591 1.377 . S
C607 C605 1.389 . S
C607 C608 1.524 . S
C608 C607 1.524 . S
C608 C609 1.397 . S
C608 C613 1.363 . S
C609 H580 0.950 . S
C609 C608 1.397 . S
C609 C610 1.334 . S
C610 H581 0.950 . S
C610 C609 1.334 . S
C610 C611 1.287 . S
C611 C610 1.287 . S
C611 C612 1.524 . S
C611 H614 0.999 . S
C612 H582 0.950 . S
C612 C611 1.524 . S
C612 C613 1.415 . S
C613 H583 0.950 . S
C613 C608 1.363 . S
C613 C612 1.415 . S
H614 C611 0.999 . S
H615 C596 0.913 . S
H616 C634 0.951 . S
H617 C636 0.951 . S
H618 C638 0.950 . S
H619 C639 0.950 . S
H620 C641 0.950 . S
H621 C644 0.950 . S
H622 C645 0.950 . S
H623 C647 0.950 . S
H624 C648 0.950 . S
H625 C649 0.951 . S
H626 C651 0.937 1_655 S
H627 C653 0.950 . S
H628 C654 0.950 . S
H629 C656 0.950 . S
H630 C659 0.950 . S
H631 C660 0.950 . S
H632 C662 0.950 . S
H633 C663 0.950 . S
C634 H616 0.951 . S
C634 C635 1.366 . S
C634 C636 1.388 . S
C635 C634 1.366 . S
C635 C639 1.385 . S
C636 H617 0.951 . S
C636 C634 1.388 . S
C636 C637 1.366 . S
C637 C636 1.366 . S
C637 C638 1.414 . S
C637 C640 1.499 . S
C638 H618 0.950 . S
C638 C637 1.414 . S
C638 C639 1.374 . S
C639 H619 0.950 . S
C639 C635 1.385 . S
C639 C638 1.374 . S
C640 C637 1.499 . S
C640 C641 1.373 . S
C640 C642 1.389 . S
C641 H620 0.950 . S
C641 C640 1.373 . S
C641 C657 1.377 . S
C642 C640 1.389 . S
C642 C643 1.524 . S
C642 C656 1.377 . S
C643 C642 1.524 . S
C643 C644 1.397 . S
C643 C648 1.363 . S
C644 H621 0.950 . S
C644 C643 1.397 . S
C644 C645 1.334 . S
C645 H622 0.950 . S
C645 C644 1.334 . S
C645 C646 1.287 . S
C646 C645 1.287 . S
C646 C647 1.524 . S
C646 H665 0.913 . S
C647 H623 0.950 . S
C647 C646 1.524 . S
C647 C648 1.415 . S
C648 H624 0.950 . S
C648 C643 1.363 . S
C648 C647 1.415 . S
C649 H625 0.951 . S
C649 C650 1.366 1_655 S
C649 C651 1.380 1_655 S
C650 C649 1.366 1_455 S
C650 C654 1.385 . S
C651 H626 0.937 1_455 S
C651 C649 1.380 1_455 S
C651 C652 1.388 . S
C652 C651 1.388 . S
C652 C653 1.414 . S
C652 C655 1.499 . S
C653 H627 0.950 . S
C653 C652 1.414 . S
C653 C654 1.374 . S
C654 H628 0.950 . S
C654 C650 1.385 . S
C654 C653 1.374 . S
C655 C652 1.499 . S
C655 C656 1.373 . S
C655 C657 1.389 . S
C656 H629 0.950 . S
C656 C642 1.377 . S
C656 C655 1.373 . S
C657 C641 1.377 . S
C657 C655 1.389 . S
C657 C658 1.524 1_455 S
C658 C657 1.524 1_655 S
C658 C659 1.397 . S
C658 C663 1.363 . S
C659 H630 0.950 . S
C659 C658 1.397 . S
C659 C660 1.334 . S
C660 H631 0.950 . S
C660 C659 1.334 . S
C660 C661 1.287 . S
C661 C660 1.287 . S
C661 C662 1.524 . S
C661 H664 0.999 . S
C662 H632 0.950 . S
C662 C661 1.524 . S
C662 C663 1.415 . S
C663 H633 0.950 . S
C663 C658 1.363 . S
C663 C662 1.415 . S
H664 C661 0.999 . S
H665 C646 0.913 . S
H666 C684 0.951 . S
H667 C686 0.951 . S
H668 C688 0.950 . S
H669 C689 0.950 . S
H670 C691 0.950 . S
H671 C694 0.950 . S
H672 C695 0.950 . S
H673 C697 0.950 . S
H674 C698 0.950 . S
H675 C699 0.951 . S
H676 C701 0.951 . S
H677 C703 0.950 . S
H678 C704 0.951 . S
H679 C706 0.950 . S
H680 C709 0.950 . S
H681 C710 0.950 . S
H682 C712 0.950 . S
H683 C713 0.950 . S
C684 H666 0.951 . S
C684 C685 1.368 . S
C684 C686 1.388 . S
C685 C684 1.368 . S
C685 C689 1.382 1_545 S
C686 H667 0.951 . S
C686 C684 1.388 . S
C686 C687 1.366 1_545 S
C687 C686 1.366 1_565 S
C687 C688 1.414 . S
C687 C690 1.499 . S
C688 H668 0.950 . S
C688 C687 1.414 . S
C688 C689 1.374 . S
C689 H669 0.950 . S
C689 C685 1.382 1_565 S
C689 C688 1.374 . S
C690 C687 1.499 . S
C690 C691 1.373 1_565 S
C690 C692 1.389 . S
C691 H670 0.950 . S
C691 C690 1.373 1_545 S
C691 C707 1.377 . S
C692 C690 1.389 . S
C692 C693 1.524 . S
C692 C706 1.377 . S
C693 C692 1.524 . S
C693 C694 1.397 . S
C693 C698 1.363 . S
C694 H671 0.950 . S
C694 C693 1.397 . S
C694 C695 1.334 . S
C695 H672 0.950 . S
C695 C694 1.334 . S
C695 C696 1.287 . S
C696 C695 1.287 . S
C696 C697 1.524 . S
C696 H715 0.913 . S
C697 H673 0.950 . S
C697 C696 1.524 . S
C697 C698 1.415 . S
C698 H674 0.950 . S
C698 C693 1.363 . S
C698 C697 1.415 . S
C699 H675 0.951 . S
C699 C700 1.366 . S
C699 C701 1.388 . S
C700 C699 1.366 . S
C700 C704 1.383 1_565 S
C701 H676 0.951 . S
C701 C699 1.388 . S
C701 C702 1.366 . S
C702 C701 1.366 . S
C702 C703 1.414 1_565 S
C702 C705 1.499 . S
C703 H677 0.950 . S
C703 C702 1.414 1_545 S
C703 C704 1.374 . S
C704 H678 0.951 . S
C704 C700 1.383 1_545 S
C704 C703 1.374 . S
C705 C702 1.499 . S
C705 C706 1.373 . S
C705 C707 1.389 1_565 S
C706 H679 0.950 . S
C706 C692 1.377 . S
C706 C705 1.373 . S
C707 C691 1.377 . S
C707 C705 1.389 1_545 S
C707 C708 1.524 . S
C708 C707 1.524 . S
C708 C709 1.397 . S
C708 C713 1.363 . S
C709 H680 0.950 . S
C709 C708 1.397 . S
C709 C710 1.334 . S
C710 H681 0.950 . S
C710 C709 1.334 . S
C710 C711 1.287 . S
C711 C710 1.287 . S
C711 C712 1.524 . S
C711 H714 0.999 . S
C712 H682 0.950 . S
C712 C711 1.524 . S
C712 C713 1.415 . S
C713 H683 0.950 . S
C713 C708 1.363 . S
C713 C712 1.415 . S
H714 C711 0.999 . S
H715 C696 0.913 . S
H716 C734 0.951 . S
H717 C736 0.951 . S
H718 C738 0.950 . S
H719 C739 0.950 . S
H720 C741 0.950 . S
H721 C744 0.950 . S
H722 C745 0.950 . S
H723 C747 0.950 . S
H724 C748 0.950 . S
H725 C749 0.951 . S
H726 C751 0.951 . S
H727 C753 0.950 . S
H728 C754 0.950 . S
H729 C756 0.950 . S
H730 C759 0.950 . S
H731 C760 0.950 . S
H732 C762 0.950 . S
H733 C763 0.950 . S
C734 H716 0.951 . S
C734 C735 1.366 . S
C734 C736 1.388 . S
C735 C734 1.366 . S
C735 C739 1.385 . S
C736 H717 0.951 . S
C736 C734 1.388 . S
C736 C737 1.366 . S
C737 C736 1.366 . S
C737 C738 1.414 . S
C737 C740 1.499 . S
C738 H718 0.950 . S
C738 C737 1.414 . S
C738 C739 1.374 . S
C739 H719 0.950 . S
C739 C735 1.385 . S
C739 C738 1.374 . S
C740 C737 1.499 . S
C740 C741 1.373 . S
C740 C742 1.389 . S
C741 H720 0.950 . S
C741 C740 1.373 . S
C741 C757 1.377 . S
C742 C740 1.389 . S
C742 C743 1.524 . S
C742 C756 1.377 . S
C743 C742 1.524 . S
C743 C744 1.397 . S
C743 C748 1.363 . S
C744 H721 0.950 . S
C744 C743 1.397 . S
C744 C745 1.334 . S
C745 H722 0.950 . S
C745 C744 1.334 . S
C745 C746 1.287 . S
C746 C745 1.287 . S
C746 C747 1.524 . S
C746 H765 0.913 . S
C747 H723 0.950 . S
C747 C746 1.524 . S
C747 C748 1.415 . S
C748 H724 0.950 . S
C748 C743 1.363 . S
C748 C747 1.415 . S
C749 H725 0.951 . S
C749 C750 1.366 . S
C749 C751 1.388 . S
C750 C749 1.366 . S
C750 C754 1.385 . S
C751 H726 0.951 . S
C751 C749 1.388 . S
C751 C752 1.366 . S
C752 C751 1.366 . S
C752 C753 1.414 . S
C752 C755 1.499 . S
C753 H727 0.950 . S
C753 C752 1.414 . S
C753 C754 1.374 . S
C754 H728 0.950 . S
C754 C750 1.385 . S
C754 C753 1.374 . S
C755 C752 1.499 . S
C755 C756 1.373 . S
C755 C757 1.389 . S
C756 H729 0.950 . S
C756 C742 1.377 . S
C756 C755 1.373 . S
C757 C741 1.377 . S
C757 C755 1.389 . S
C757 C758 1.524 . S
C758 C757 1.524 . S
C758 C759 1.397 . S
C758 C763 1.363 . S
C759 H730 0.950 . S
C759 C758 1.397 . S
C759 C760 1.334 . S
C760 H731 0.950 . S
C760 C759 1.334 . S
C760 C761 1.287 . S
C761 C760 1.287 . S
C761 C762 1.524 . S
C761 H764 0.999 . S
C762 H732 0.950 . S
C762 C761 1.524 . S
C762 C763 1.415 . S
C763 H733 0.950 . S
C763 C758 1.363 . S
C763 C762 1.415 . S
H764 C761 0.999 . S
H765 C746 0.913 . S
H766 C784 0.951 . S
H767 C786 0.951 . S
H768 C788 0.950 . S
H769 C789 0.950 . S
H770 C791 0.950 . S
H771 C794 0.950 . S
H772 C795 0.950 . S
H773 C797 0.950 . S
H774 C798 0.950 . S
H775 C799 0.951 . S
H776 C801 0.951 . S
H777 C803 0.950 . S
H778 C804 0.950 . S
H779 C806 0.950 . S
H780 C809 0.950 . S
H781 C810 0.950 . S
H782 C812 0.950 . S
H783 C813 0.950 . S
C784 H766 0.951 . S
C784 C785 1.366 . S
C784 C786 1.388 . S
C785 C784 1.366 . S
C785 C789 1.385 . S
C786 H767 0.951 . S
C786 C784 1.388 . S
C786 C787 1.366 . S
C787 C786 1.366 . S
C787 C788 1.414 . S
C787 C790 1.499 . S
C788 H768 0.950 . S
C788 C787 1.414 . S
C788 C789 1.374 . S
C789 H769 0.950 . S
C789 C785 1.385 . S
C789 C788 1.374 . S
C790 C787 1.499 . S
C790 C791 1.373 . S
C790 C792 1.389 . S
C791 H770 0.950 . S
C791 C790 1.373 . S
C791 C807 1.377 . S
C792 C790 1.389 . S
C792 C793 1.524 . S
C792 C806 1.377 . S
C793 C792 1.524 . S
C793 C794 1.397 . S
C793 C798 1.363 . S
C794 H771 0.950 . S
C794 C793 1.397 . S
C794 C795 1.334 . S
C795 H772 0.950 . S
C795 C794 1.334 . S
C795 C796 1.287 . S
C796 C795 1.287 . S
C796 C797 1.524 . S
C796 H815 0.913 . S
C797 H773 0.950 . S
C797 C796 1.524 . S
C797 C798 1.415 . S
C798 H774 0.950 . S
C798 C793 1.363 . S
C798 C797 1.415 . S
C799 H775 0.951 . S
C799 C800 1.366 . S
C799 C801 1.388 . S
C800 C799 1.366 . S
C800 C804 1.385 . S
C801 H776 0.951 . S
C801 C799 1.388 . S
C801 C802 1.366 . S
C802 C801 1.366 . S
C802 C803 1.414 . S
C802 C805 1.499 . S
C803 H777 0.950 . S
C803 C802 1.414 . S
C803 C804 1.374 . S
C804 H778 0.950 . S
C804 C800 1.385 . S
C804 C803 1.374 . S
C805 C802 1.499 . S
C805 C806 1.373 . S
C805 C807 1.389 . S
C806 H779 0.950 . S
C806 C792 1.377 . S
C806 C805 1.373 . S
C807 C791 1.377 . S
C807 C805 1.389 . S
C807 C808 1.524 . S
C808 C807 1.524 . S
C808 C809 1.397 . S
C808 C813 1.363 . S
C809 H780 0.950 . S
C809 C808 1.397 . S
C809 C810 1.334 . S
C810 H781 0.950 . S
C810 C809 1.334 . S
C810 C811 1.287 . S
C811 C810 1.287 . S
C811 C812 1.524 . S
C811 H814 0.999 . S
C812 H782 0.950 . S
C812 C811 1.524 . S
C812 C813 1.415 . S
C813 H783 0.950 . S
C813 C808 1.363 . S
C813 C812 1.415 . S
H814 C811 0.999 . S
H815 C796 0.913 . S
H816 C834 0.951 . S
H817 C836 0.951 1_556 S
H818 C838 0.950 . S
H819 C839 0.950 . S
H820 C841 0.950 . S
H821 C844 0.950 . S
H822 C845 0.950 . S
H823 C847 0.950 . S
H824 C848 0.950 1_556 S
H825 C849 0.951 . S
H826 C851 0.951 . S
H827 C853 0.950 . S
H828 C854 0.950 . S
H829 C856 0.950 1_455 S
H830 C859 0.950 . S
H831 C860 0.950 . S
H832 C862 0.950 . S
H833 C863 0.950 . S
C834 H816 0.951 . S
C834 C835 1.366 . S
C834 C836 1.388 . S
C835 C834 1.366 . S
C835 C839 1.385 . S
C836 H817 0.951 1_554 S
C836 C834 1.388 . S
C836 C837 1.366 . S
C837 C836 1.366 . S
C837 C838 1.414 . S
C837 C840 1.499 1_554 S
C838 H818 0.950 . S
C838 C837 1.414 . S
C838 C839 1.374 . S
C839 H819 0.950 . S
C839 C835 1.385 . S
C839 C838 1.374 . S
C840 C837 1.499 1_556 S
C840 C841 1.373 . S
C840 C842 1.389 . S
C841 H820 0.950 . S
C841 C840 1.373 . S
C841 C857 1.377 . S
C842 C840 1.389 . S
C842 C843 1.524 1_656 S
C842 C856 1.377 . S
C843 C842 1.524 1_454 S
C843 C844 1.397 1_455 S
C843 C848 1.363 . S
C844 H821 0.950 . S
C844 C843 1.397 1_655 S
C844 C845 1.334 1_655 S
C845 H822 0.950 . S
C845 C844 1.334 1_455 S
C845 C846 1.287 . S
C846 C845 1.287 . S
C846 C847 1.524 . S
C846 H865 0.913 . S
C847 H823 0.950 . S
C847 C846 1.524 . S
C847 C848 1.415 . S
C848 H824 0.950 1_554 S
C848 C843 1.363 . S
C848 C847 1.415 . S
C849 H825 0.951 . S
C849 C850 1.366 1_655 S
C849 C851 1.388 . S
C850 C849 1.366 1_455 S
C850 C854 1.385 . S
C851 H826 0.951 . S
C851 C849 1.388 . S
C851 C852 1.366 . S
C852 C851 1.366 . S
C852 C853 1.414 1_655 S
C852 C855 1.499 . S
C853 H827 0.950 . S
C853 C852 1.414 1_455 S
C853 C854 1.374 . S
C854 H828 0.950 . S
C854 C850 1.385 . S
C854 C853 1.374 . S
C855 C852 1.499 . S
C855 C856 1.373 . S
C855 C857 1.389 . S
C856 H829 0.950 1_655 S
C856 C842 1.377 . S
C856 C855 1.373 . S
C857 C841 1.377 . S
C857 C855 1.389 . S
C857 C858 1.524 . S
C858 C857 1.524 . S
C858 C859 1.397 . S
C858 C863 1.363 . S
C859 H830 0.950 . S
C859 C858 1.397 . S
C859 C860 1.334 . S
C860 H831 0.950 . S
C860 C859 1.334 . S
C860 C861 1.287 . S
C861 C860 1.287 . S
C861 C862 1.524 . S
C861 H864 0.999 . S
C862 H832 0.950 . S
C862 C861 1.524 . S
C862 C863 1.415 . S
C863 H833 0.950 . S
C863 C858 1.363 . S
C863 C862 1.415 . S
H864 C861 0.999 . S
H865 C846 0.913 . S
H866 C884 0.951 . S
H867 C886 0.951 . S
H868 C888 0.950 . S
H869 C889 0.950 . S
H870 C891 0.950 1_554 S
H871 C894 0.950 . S
H872 C895 0.950 . S
H873 C897 0.950 . S
H874 C898 0.950 1_565 S
H875 C899 0.951 . S
H876 C901 0.951 . S
H877 C903 0.950 . S
H878 C904 0.950 . S
H879 C906 0.950 . S
H880 C909 0.933 1_556 S
H881 C910 0.950 . S
H882 C912 0.950 . S
H883 C913 0.950 1_545 S
C884 H866 0.951 . S
C884 C885 1.365 1_556 S
C884 C886 1.388 . S
C885 C884 1.365 1_554 S
C885 C889 1.385 1_565 S
C886 H867 0.951 . S
C886 C884 1.388 . S
C886 C887 1.366 1_565 S
C887 C886 1.366 1_545 S
C887 C888 1.414 1_556 S
C887 C890 1.499 . S
C888 H868 0.950 . S
C888 C887 1.414 1_554 S
C888 C889 1.374 . S
C889 H869 0.950 . S
C889 C885 1.385 1_545 S
C889 C888 1.374 . S
C890 C887 1.499 . S
C890 C891 1.373 1_545 S
C890 C892 1.389 . S
C891 H870 0.950 1_556 S
C891 C890 1.373 1_565 S
C891 C907 1.377 . S
C892 C890 1.389 . S
C892 C893 1.524 . S
C892 C906 1.377 . S
C893 C892 1.524 . S
C893 C894 1.397 . S
C893 C898 1.363 . S
C894 H871 0.950 . S
C894 C893 1.397 . S
C894 C895 1.334 . S
C895 H872 0.950 . S
C895 C894 1.334 . S
C895 C896 1.287 . S
C896 C895 1.287 . S
C896 C897 1.524 . S
C896 H915 0.913 . S
C897 H873 0.950 . S
C897 C896 1.524 . S
C897 C898 1.415 . S
C898 H874 0.950 1_545 S
C898 C893 1.363 . S
C898 C897 1.415 . S
C899 H875 0.951 . S
C899 C900 1.366 . S
C899 C901 1.388 . S
C900 C899 1.366 . S
C900 C904 1.385 1_545 S
C901 H876 0.951 . S
C901 C899 1.388 . S
C901 C902 1.366 . S
C902 C901 1.366 . S
C902 C903 1.414 1_545 S
C902 C905 1.499 . S
C903 H877 0.950 . S
C903 C902 1.414 1_565 S
C903 C904 1.374 . S
C904 H878 0.950 . S
C904 C900 1.385 1_565 S
C904 C903 1.374 . S
C905 C902 1.499 . S
C905 C906 1.373 . S
C905 C907 1.389 1_545 S
C906 H879 0.950 . S
C906 C892 1.377 . S
C906 C905 1.373 . S
C907 C891 1.377 . S
C907 C905 1.389 1_565 S
C907 C908 1.524 1_556 S
C908 C907 1.524 1_554 S
C908 C909 1.402 . S
C908 C913 1.363 . S
C909 H880 0.933 1_554 S
C909 C908 1.402 . S
C909 C910 1.345 . S
C910 H881 0.950 . S
C910 C909 1.345 . S
C910 C911 1.287 . S
C911 C910 1.287 . S
C911 C912 1.524 . S
C911 H914 0.999 . S
C912 H882 0.950 . S
C912 C911 1.524 . S
C912 C913 1.415 . S
C913 H883 0.950 1_565 S
C913 C908 1.363 . S
C913 C912 1.415 . S
H914 C911 0.999 . S
H915 C896 0.913 . S
H916 C934 0.951 . S
H917 C936 0.951 . S
H918 C938 0.950 . S
H919 C939 0.950 . S
H920 C941 0.950 . S
H921 C944 0.950 1_556 S
H922 C945 0.950 . S
H923 C947 0.950 . S
H924 C948 0.950 . S
H925 C949 0.951 . S
H926 C951 0.951 . S
H927 C953 0.950 . S
H928 C954 0.950 . S
H929 C956 0.950 . S
H930 C959 0.950 . S
H931 C960 0.950 . S
H932 C962 0.950 . S
H933 C963 0.950 . S
C934 H916 0.951 . S
C934 C935 1.366 . S
C934 C936 1.388 . S
C935 C934 1.366 . S
C935 C939 1.385 1_554 S
C936 H917 0.951 . S
C936 C934 1.388 . S
C936 C937 1.366 . S
C937 C936 1.366 . S
C937 C938 1.414 1_554 S
C937 C940 1.499 1_554 S
C938 H918 0.950 . S
C938 C937 1.414 1_556 S
C938 C939 1.374 . S
C939 H919 0.950 . S
C939 C935 1.385 1_556 S
C939 C938 1.374 . S
C940 C937 1.499 1_556 S
C940 C941 1.373 . S
C940 C942 1.389 . S
C941 H920 0.950 . S
C941 C940 1.373 . S
C941 C957 1.377 . S
C942 C940 1.389 . S
C942 C943 1.524 1_556 S
C942 C956 1.377 . S
C943 C942 1.524 1_554 S
C943 C944 1.397 . S
C943 C948 1.363 . S
C944 H921 0.950 1_554 S
C944 C943 1.397 . S
C944 C945 1.334 . S
C945 H922 0.950 . S
C945 C944 1.334 . S
C945 C946 1.287 . S
C946 C945 1.287 . S
C946 C947 1.524 . S
C946 H965 0.913 . S
C947 H923 0.950 . S
C947 C946 1.524 . S
C947 C948 1.415 . S
C948 H924 0.950 . S
C948 C943 1.363 . S
C948 C947 1.415 . S
C949 H925 0.951 . S
C949 C950 1.366 . S
C949 C951 1.388 . S
C950 C949 1.366 . S
C950 C954 1.385 . S
C951 H926 0.951 . S
C951 C949 1.388 . S
C951 C952 1.366 . S
C952 C951 1.366 . S
C952 C953 1.414 . S
C952 C955 1.499 . S
C953 H927 0.950 . S
C953 C952 1.414 . S
C953 C954 1.374 . S
C954 H928 0.950 . S
C954 C950 1.385 . S
C954 C953 1.374 . S
C955 C952 1.499 . S
C955 C956 1.373 . S
C955 C957 1.389 . S
C956 H929 0.950 . S
C956 C942 1.377 . S
C956 C955 1.373 . S
C957 C941 1.377 . S
C957 C955 1.389 . S
C957 C958 1.524 . S
C958 C957 1.524 . S
C958 C959 1.397 . S
C958 C963 1.363 . S
C959 H930 0.950 . S
C959 C958 1.397 . S
C959 C960 1.334 . S
C960 H931 0.950 . S
C960 C959 1.334 . S
C960 C961 1.287 . S
C961 C960 1.287 . S
C961 C962 1.524 . S
C961 H964 0.999 . S
C962 H932 0.950 . S
C962 C961 1.524 . S
C962 C963 1.415 . S
C963 H933 0.950 . S
C963 C958 1.363 . S
C963 C962 1.415 . S
H964 C961 0.999 . S
H965 C946 0.913 . S
H966 C984 0.951 . S
H967 C986 0.951 1_556 S
H968 C988 0.950 . S
H969 C989 0.950 . S
H970 C991 0.950 . S
H971 C994 0.950 . S
H972 C995 0.950 . S
H973 C997 0.950 . S
H974 C998 0.950 . S
H975 C999 0.951 . S
H976 C1001 0.951 . S
H977 C1003 0.950 . S
H978 C1004 0.950 . S
H979 C1006 0.950 . S
H980 C1009 0.950 . S
H981 C1010 0.950 . S
H982 C1012 0.950 . S
H983 C1013 0.950 . S
C984 H966 0.951 . S
C984 C985 1.366 . S
C984 C986 1.388 . S
C985 C984 1.366 . S
C985 C989 1.385 . S
C986 H967 0.951 1_554 S
C986 C984 1.388 . S
C986 C987 1.366 . S
C987 C986 1.366 . S
C987 C988 1.414 . S
C987 C990 1.499 . S
C988 H968 0.950 . S
C988 C987 1.414 . S
C988 C989 1.374 . S
C989 H969 0.950 . S
C989 C985 1.385 . S
C989 C988 1.374 . S
C990 C987 1.499 . S
C990 C991 1.373 . S
C990 C992 1.389 1_554 S
C991 H970 0.950 . S
C991 C990 1.373 . S
C991 C1007 1.377 1_554 S
C992 C990 1.389 1_556 S
C992 C993 1.524 . S
C992 C1006 1.377 . S
C993 C992 1.524 . S
C993 C994 1.397 1_556 S
C993 C998 1.363 . S
C994 H971 0.950 . S
C994 C993 1.397 1_554 S
C994 C995 1.334 . S
C995 H972 0.950 . S
C995 C994 1.334 . S
C995 C996 1.287 1_554 S
C996 C995 1.287 1_556 S
C996 C997 1.524 . S
C996 H1015 0.913 . S
C997 H973 0.950 . S
C997 C996 1.524 . S
C997 C998 1.415 . S
C998 H974 0.950 . S
C998 C993 1.363 . S
C998 C997 1.415 . S
C999 H975 0.951 . S
C999 C1000 1.366 . S
C999 C1001 1.388 . S
C1000 C999 1.366 . S
C1000 C1004 1.385 . S
C1001 H976 0.951 . S
C1001 C999 1.388 . S
C1001 C1002 1.366 . S
C1002 C1001 1.366 . S
C1002 C1003 1.414 . S
C1002 C1005 1.499 . S
C1003 H977 0.950 . S
C1003 C1002 1.414 . S
C1003 C1004 1.374 . S
C1004 H978 0.950 . S
C1004 C1000 1.385 . S
C1004 C1003 1.374 . S
C1005 C1002 1.499 . S
C1005 C1006 1.373 . S
C1005 C1007 1.389 . S
C1006 H979 0.950 . S
C1006 C992 1.377 . S
C1006 C1005 1.373 . S
C1007 C991 1.377 1_556 S
C1007 C1005 1.389 . S
C1007 C1008 1.524 . S
C1008 C1007 1.524 . S
C1008 C1009 1.397 . S
C1008 C1013 1.363 1_556 S
C1009 H980 0.950 . S
C1009 C1008 1.397 . S
C1009 C1010 1.334 . S
C1010 H981 0.950 . S
C1010 C1009 1.334 . S
C1010 C1011 1.287 . S
C1011 C1010 1.287 . S
C1011 C1012 1.524 1_556 S
C1011 H1014 0.999 . S
C1012 H982 0.950 . S
C1012 C1011 1.524 1_554 S
C1012 C1013 1.415 . S
C1013 H983 0.950 . S
C1013 C1008 1.363 1_554 S
C1013 C1012 1.415 . S
H1014 C1011 0.999 . S
H1015 C996 0.913 . S
H1016 C1034 0.951 . S
H1017 C1036 0.951 . S
H1018 C1038 0.950 . S
H1019 C1039 0.950 . S
H1020 C1041 0.950 . S
H1021 C1044 0.950 . S
H1022 C1045 0.950 . S
H1023 C1047 0.950 . S
H1024 C1048 0.950 . S
H1025 C1049 0.951 . S
H1026 C1051 0.951 . S
H1027 C1053 0.950 . S
H1028 C1054 0.950 1_556 S
H1029 C1056 0.950 . S
H1030 C1059 0.950 . S
H1031 C1060 0.950 . S
H1032 C1062 0.950 . S
H1033 C1063 0.950 . S
C1034 H1016 0.951 . S
C1034 C1035 1.366 . S
C1034 C1036 1.388 . S
C1035 C1034 1.366 . S
C1035 C1039 1.385 . S
C1036 H1017 0.951 . S
C1036 C1034 1.388 . S
C1036 C1037 1.366 . S
C1037 C1036 1.366 . S
C1037 C1038 1.414 . S
C1037 C1040 1.499 . S
C1038 H1018 0.950 . S
C1038 C1037 1.414 . S
C1038 C1039 1.374 . S
C1039 H1019 0.950 . S
C1039 C1035 1.385 . S
C1039 C1038 1.374 . S
C1040 C1037 1.499 . S
C1040 C1041 1.373 . S
C1040 C1042 1.389 . S
C1041 H1020 0.950 . S
C1041 C1040 1.373 . S
C1041 C1057 1.377 . S
C1042 C1040 1.389 . S
C1042 C1043 1.524 . S
C1042 C1056 1.377 . S
C1043 C1042 1.524 . S
C1043 C1044 1.397 . S
C1043 C1048 1.363 1_455 S
C1044 H1021 0.950 . S
C1044 C1043 1.397 . S
C1044 C1045 1.334 . S
C1045 H1022 0.950 . S
C1045 C1044 1.334 . S
C1045 C1046 1.287 1_455 S
C1046 C1045 1.287 1_655 S
C1046 C1047 1.524 . S
C1046 H1065 0.913 . S
C1047 H1023 0.950 . S
C1047 C1046 1.524 . S
C1047 C1048 1.415 . S
C1048 H1024 0.950 . S
C1048 C1043 1.363 1_655 S
C1048 C1047 1.415 . S
C1049 H1025 0.951 . S
C1049 C1050 1.366 1_554 S
C1049 C1051 1.388 . S
C1050 C1049 1.366 1_556 S
C1050 C1054 1.385 1_556 S
C1051 H1026 0.951 . S
C1051 C1049 1.388 . S
C1051 C1052 1.366 . S
C1052 C1051 1.366 . S
C1052 C1053 1.414 . S
C1052 C1055 1.499 . S
C1053 H1027 0.950 . S
C1053 C1052 1.414 . S
C1053 C1054 1.374 . S
C1054 H1028 0.950 1_554 S
C1054 C1050 1.385 1_554 S
C1054 C1053 1.374 . S
C1055 C1052 1.499 . S
C1055 C1056 1.373 . S
C1055 C1057 1.389 . S
C1056 H1029 0.950 . S
C1056 C1042 1.377 . S
C1056 C1055 1.373 . S
C1057 C1041 1.377 . S
C1057 C1055 1.389 . S
C1057 C1058 1.524 . S
C1058 C1057 1.524 . S
C1058 C1059 1.397 1_554 S
C1058 C1063 1.363 . S
C1059 H1030 0.950 . S
C1059 C1058 1.397 1_556 S
C1059 C1060 1.334 . S
C1060 H1031 0.950 . S
C1060 C1059 1.334 . S
C1060 C1061 1.287 . S
C1061 C1060 1.287 . S
C1061 C1062 1.524 1_556 S
C1061 H1064 0.999 . S
C1062 H1032 0.950 . S
C1062 C1061 1.524 1_554 S
C1062 C1063 1.415 . S
C1063 H1033 0.950 . S
C1063 C1058 1.363 . S
C1063 C1062 1.415 . S
H1064 C1061 0.999 . S
H1065 C1046 0.913 . S
H1066 C1084 0.951 . S
H1067 C1086 0.951 . S
H1068 C1088 0.950 . S
H1069 C1089 0.950 . S
H1070 C1091 0.950 . S
H1071 C1094 0.950 . S
H1072 C1095 0.950 . S
H1073 C1097 0.950 . S
H1074 C1098 0.950 . S
H1075 C1099 0.951 . S
H1076 C1101 0.951 . S
H1077 C1103 0.950 1_565 S
H1078 C1104 0.956 . S
H1079 C1106 0.950 . S
H1080 C1109 0.950 . S
H1081 C1110 0.950 . S
H1082 C1112 0.950 . S
H1083 C1113 0.950 . S
C1084 H1066 0.951 . S
C1084 C1085 1.354 1_565 S
C1084 C1086 1.388 . S
C1085 C1084 1.354 1_545 S
C1085 C1089 1.395 . S
C1086 H1067 0.951 . S
C1086 C1084 1.388 . S
C1086 C1087 1.366 1_565 S
C1087 C1086 1.366 1_545 S
C1087 C1088 1.414 . S
C1087 C1090 1.499 . S
C1088 H1068 0.950 . S
C1088 C1087 1.414 . S
C1088 C1089 1.374 . S
C1089 H1069 0.950 . S
C1089 C1085 1.395 . S
C1089 C1088 1.374 . S
C1090 C1087 1.499 . S
C1090 C1091 1.373 . S
C1090 C1092 1.389 1_545 S
C1091 H1070 0.950 . S
C1091 C1090 1.373 . S
C1091 C1107 1.377 . S
C1092 C1090 1.389 1_565 S
C1092 C1093 1.524 . S
C1092 C1106 1.377 . S
C1093 C1092 1.524 . S
C1093 C1094 1.397 . S
C1093 C1098 1.363 . S
C1094 H1071 0.950 . S
C1094 C1093 1.397 . S
C1094 C1095 1.334 . S
C1095 H1072 0.950 . S
C1095 C1094 1.334 . S
C1095 C1096 1.287 . S
C1096 C1095 1.287 . S
C1096 C1097 1.524 . S
C1096 H1115 0.913 . S
C1097 H1073 0.950 . S
C1097 C1096 1.524 . S
C1097 C1098 1.415 . S
C1098 H1074 0.950 . S
C1098 C1093 1.363 . S
C1098 C1097 1.415 . S
C1099 H1075 0.951 . S
C1099 C1100 1.366 . S
C1099 C1101 1.388 . S
C1100 C1099 1.366 . S
C1100 C1104 1.385 1_554 S
C1101 H1076 0.951 . S
C1101 C1099 1.388 . S
C1101 C1102 1.366 . S
C1102 C1101 1.366 . S
C1102 C1103 1.414 . S
C1102 C1105 1.499 . S
C1103 H1077 0.950 1_545 S
C1103 C1102 1.414 . S
C1103 C1104 1.374 1_554 S
C1104 H1078 0.956 . S
C1104 C1100 1.385 1_556 S
C1104 C1103 1.374 1_556 S
C1105 C1102 1.499 . S
C1105 C1106 1.373 1_545 S
C1105 C1107 1.389 . S
C1106 H1079 0.950 . S
C1106 C1092 1.377 . S
C1106 C1105 1.373 1_565 S
C1107 C1091 1.377 . S
C1107 C1105 1.389 . S
C1107 C1108 1.524 . S
C1108 C1107 1.524 . S
C1108 C1109 1.397 . S
C1108 C1113 1.363 . S
C1109 H1080 0.950 . S
C1109 C1108 1.397 . S
C1109 C1110 1.334 . S
C1110 H1081 0.950 . S
C1110 C1109 1.334 . S
C1110 C1111 1.287 . S
C1111 C1110 1.287 . S
C1111 C1112 1.524 . S
C1111 H1114 0.999 . S
C1112 H1082 0.950 . S
C1112 C1111 1.524 . S
C1112 C1113 1.415 . S
C1113 H1083 0.950 . S
C1113 C1108 1.363 . S
C1113 C1112 1.415 . S
H1114 C1111 0.999 . S
H1115 C1096 0.913 . S
H1116 C1134 0.951 . S
H1117 C1136 0.951 . S
H1118 C1138 0.950 . S
H1119 C1139 0.950 . S
H1120 C1141 0.950 . S
H1121 C1144 0.950 . S
H1122 C1145 0.950 . S
H1123 C1147 0.950 . S
H1124 C1148 0.950 . S
H1125 C1149 0.951 . S
H1126 C1151 0.951 . S
H1127 C1153 0.950 . S
H1128 C1154 0.950 . S
H1129 C1156 0.950 . S
H1130 C1159 0.950 . S
H1131 C1160 0.950 . S
H1132 C1162 0.950 . S
H1133 C1163 0.950 . S
C1134 H1116 0.951 . S
C1134 C1135 1.366 . S
C1134 C1136 1.388 . S
C1135 C1134 1.366 . S
C1135 C1139 1.385 . S
C1136 H1117 0.951 . S
C1136 C1134 1.388 . S
C1136 C1137 1.366 . S
C1137 C1136 1.366 . S
C1137 C1138 1.414 . S
C1137 C1140 1.499 . S
C1138 H1118 0.950 . S
C1138 C1137 1.414 . S
C1138 C1139 1.374 . S
C1139 H1119 0.950 . S
C1139 C1135 1.385 . S
C1139 C1138 1.374 . S
C1140 C1137 1.499 . S
C1140 C1141 1.373 . S
C1140 C1142 1.389 . S
C1141 H1120 0.950 . S
C1141 C1140 1.373 . S
C1141 C1157 1.377 . S
C1142 C1140 1.389 . S
C1142 C1143 1.524 . S
C1142 C1156 1.377 . S
C1143 C1142 1.524 . S
C1143 C1144 1.397 . S
C1143 C1148 1.363 . S
C1144 H1121 0.950 . S
C1144 C1143 1.397 . S
C1144 C1145 1.334 . S
C1145 H1122 0.950 . S
C1145 C1144 1.334 . S
C1145 C1146 1.287 . S
C1146 C1145 1.287 . S
C1146 C1147 1.524 . S
C1146 H1165 0.913 . S
C1147 H1123 0.950 . S
C1147 C1146 1.524 . S
C1147 C1148 1.415 . S
C1148 H1124 0.950 . S
C1148 C1143 1.363 . S
C1148 C1147 1.415 . S
C1149 H1125 0.951 . S
C1149 C1150 1.366 . S
C1149 C1151 1.388 . S
C1150 C1149 1.366 . S
C1150 C1154 1.385 . S
C1151 H1126 0.951 . S
C1151 C1149 1.388 . S
C1151 C1152 1.366 1_556 S
C1152 C1151 1.366 1_554 S
C1152 C1153 1.414 . S
C1152 C1155 1.499 . S
C1153 H1127 0.950 . S
C1153 C1152 1.414 . S
C1153 C1154 1.374 1_554 S
C1154 H1128 0.950 . S
C1154 C1150 1.385 . S
C1154 C1153 1.374 1_556 S
C1155 C1152 1.499 . S
C1155 C1156 1.373 . S
C1155 C1157 1.389 . S
C1156 H1129 0.950 . S
C1156 C1142 1.377 . S
C1156 C1155 1.373 . S
C1157 C1141 1.377 . S
C1157 C1155 1.389 . S
C1157 C1158 1.524 . S
C1158 C1157 1.524 . S
C1158 C1159 1.397 . S
C1158 C1163 1.363 . S
C1159 H1130 0.950 . S
C1159 C1158 1.397 . S
C1159 C1160 1.334 . S
C1160 H1131 0.950 . S
C1160 C1159 1.334 . S
C1160 C1161 1.287 . S
C1161 C1160 1.287 . S
C1161 C1162 1.524 . S
C1161 H1164 0.999 . S
C1162 H1132 0.950 . S
C1162 C1161 1.524 . S
C1162 C1163 1.415 . S
C1163 H1133 0.950 . S
C1163 C1158 1.363 . S
C1163 C1162 1.415 . S
H1164 C1161 0.999 . S
H1165 C1146 0.913 . S
H1166 C1184 0.951 . S
H1167 C1186 0.951 . S
H1168 C1188 0.950 . S
H1169 C1189 0.950 . S
H1170 C1191 0.950 . S
H1171 C1194 0.950 . S
H1172 C1195 0.950 . S
H1173 C1197 0.950 . S
H1174 C1198 0.950 1_556 S
H1175 C1199 0.951 . S
H1176 C1201 0.951 . S
H1177 C1203 0.950 . S
H1178 C1204 0.950 . S
H1179 C1206 0.950 1_556 S
H1180 C1209 0.950 . S
H1181 C1210 0.950 . S
H1182 C1212 0.950 . S
H1183 C1213 0.950 . S
C1184 H1166 0.951 . S
C1184 C1185 1.366 . S
C1184 C1186 1.388 . S
C1185 C1184 1.366 . S
C1185 C1189 1.385 . S
C1186 H1167 0.951 . S
C1186 C1184 1.388 . S
C1186 C1187 1.366 . S
C1187 C1186 1.366 . S
C1187 C1188 1.414 . S
C1187 C1190 1.499 . S
C1188 H1168 0.950 . S
C1188 C1187 1.414 . S
C1188 C1189 1.374 . S
C1189 H1169 0.950 . S
C1189 C1185 1.385 . S
C1189 C1188 1.374 . S
C1190 C1187 1.499 . S
C1190 C1191 1.373 . S
C1190 C1192 1.389 . S
C1191 H1170 0.950 . S
C1191 C1190 1.373 . S
C1191 C1207 1.377 . S
C1192 C1190 1.389 . S
C1192 C1193 1.524 . S
C1192 C1206 1.377 . S
C1193 C1192 1.524 . S
C1193 C1194 1.397 . S
C1193 C1198 1.363 . S
C1194 H1171 0.950 . S
C1194 C1193 1.397 . S
C1194 C1195 1.334 . S
C1195 H1172 0.950 . S
C1195 C1194 1.334 . S
C1195 C1196 1.287 . S
C1196 C1195 1.287 . S
C1196 C1197 1.524 1_554 S
C1196 H1215 0.913 . S
C1197 H1173 0.950 . S
C1197 C1196 1.524 1_556 S
C1197 C1198 1.415 1_556 S
C1198 H1174 0.950 1_554 S
C1198 C1193 1.363 . S
C1198 C1197 1.415 1_554 S
C1199 H1175 0.951 . S
C1199 C1200 1.366 . S
C1199 C1201 1.388 1_556 S
C1200 C1199 1.366 . S
C1200 C1204 1.385 . S
C1201 H1176 0.951 . S
C1201 C1199 1.388 1_554 S
C1201 C1202 1.366 1_554 S
C1202 C1201 1.366 1_556 S
C1202 C1203 1.414 . S
C1202 C1205 1.499 1_556 S
C1203 H1177 0.950 . S
C1203 C1202 1.414 . S
C1203 C1204 1.374 . S
C1204 H1178 0.950 . S
C1204 C1200 1.385 . S
C1204 C1203 1.374 . S
C1205 C1202 1.499 1_554 S
C1205 C1206 1.373 . S
C1205 C1207 1.389 . S
C1206 H1179 0.950 1_554 S
C1206 C1192 1.377 . S
C1206 C1205 1.373 . S
C1207 C1191 1.377 . S
C1207 C1205 1.389 . S
C1207 C1208 1.524 . S
C1208 C1207 1.524 . S
C1208 C1209 1.397 . S
C1208 C1213 1.363 . S
C1209 H1180 0.950 . S
C1209 C1208 1.397 . S
C1209 C1210 1.334 . S
C1210 H1181 0.950 . S
C1210 C1209 1.334 . S
C1210 C1211 1.287 . S
C1211 C1210 1.287 . S
C1211 C1212 1.524 . S
C1211 H1214 0.999 . S
C1212 H1182 0.950 . S
C1212 C1211 1.524 . S
C1212 C1213 1.415 . S
C1213 H1183 0.950 . S
C1213 C1208 1.363 . S
C1213 C1212 1.415 . S
H1214 C1211 0.999 . S
H1215 C1196 0.913 . S
H1216 C1234 0.951 . S
H1217 C1236 0.951 . S
H1218 C1238 0.950 . S
H1219 C1239 0.950 . S
H1220 C1241 0.950 . S
H1221 C1244 0.950 . S
H1222 C1245 0.950 . S
H1223 C1247 0.950 . S
H1224 C1248 0.950 . S
H1225 C1249 0.951 . S
H1226 C1251 0.951 . S
H1227 C1253 0.950 . S
H1228 C1254 0.950 1_455 S
H1229 C1256 0.950 . S
H1230 C1259 0.950 . S
H1231 C1260 0.950 . S
H1232 C1262 0.950 . S
H1233 C1263 0.950 . S
C1234 H1216 0.951 . S
C1234 C1235 1.366 . S
C1234 C1236 1.388 . S
C1235 C1234 1.366 . S
C1235 C1239 1.385 . S
C1236 H1217 0.951 . S
C1236 C1234 1.388 . S
C1236 C1237 1.366 . S
C1237 C1236 1.366 . S
C1237 C1238 1.414 . S
C1237 C1240 1.499 . S
C1238 H1218 0.950 . S
C1238 C1237 1.414 . S
C1238 C1239 1.374 . S
C1239 H1219 0.950 . S
C1239 C1235 1.385 . S
C1239 C1238 1.374 . S
C1240 C1237 1.499 . S
C1240 C1241 1.373 . S
C1240 C1242 1.389 . S
C1241 H1220 0.950 . S
C1241 C1240 1.373 . S
C1241 C1257 1.377 . S
C1242 C1240 1.389 . S
C1242 C1243 1.524 . S
C1242 C1256 1.377 . S
C1243 C1242 1.524 . S
C1243 C1244 1.397 . S
C1243 C1248 1.363 . S
C1244 H1221 0.950 . S
C1244 C1243 1.397 . S
C1244 C1245 1.334 . S
C1245 H1222 0.950 . S
C1245 C1244 1.334 . S
C1245 C1246 1.287 . S
C1246 C1245 1.287 . S
C1246 C1247 1.524 . S
C1246 H1265 0.913 . S
C1247 H1223 0.950 . S
C1247 C1246 1.524 . S
C1247 C1248 1.415 . S
C1248 H1224 0.950 . S
C1248 C1243 1.363 . S
C1248 C1247 1.415 . S
C1249 H1225 0.951 . S
C1249 C1250 1.366 . S
C1249 C1251 1.388 . S
C1250 C1249 1.366 . S
C1250 C1254 1.385 . S
C1251 H1226 0.951 . S
C1251 C1249 1.388 . S
C1251 C1252 1.366 . S
C1252 C1251 1.366 . S
C1252 C1253 1.414 . S
C1252 C1255 1.499 . S
C1253 H1227 0.950 . S
C1253 C1252 1.414 . S
C1253 C1254 1.374 . S
C1254 H1228 0.950 1_655 S
C1254 C1250 1.385 . S
C1254 C1253 1.374 . S
C1255 C1252 1.499 . S
C1255 C1256 1.373 . S
C1255 C1257 1.389 . S
C1256 H1229 0.950 . S
C1256 C1242 1.377 . S
C1256 C1255 1.373 . S
C1257 C1241 1.377 . S
C1257 C1255 1.389 . S
C1257 C1258 1.524 . S
C1258 C1257 1.524 . S
C1258 C1259 1.397 . S
C1258 C1263 1.363 . S
C1259 H1230 0.950 . S
C1259 C1258 1.397 . S
C1259 C1260 1.334 . S
C1260 H1231 0.950 . S
C1260 C1259 1.334 . S
C1260 C1261 1.287 . S
C1261 C1260 1.287 . S
C1261 C1262 1.524 . S
C1261 H1264 0.999 . S
C1262 H1232 0.950 . S
C1262 C1261 1.524 . S
C1262 C1263 1.415 . S
C1263 H1233 0.950 . S
C1263 C1258 1.363 . S
C1263 C1262 1.415 . S
H1264 C1261 0.999 . S
H1265 C1246 0.913 . S
H1266 C1284 0.951 . S
H1267 C1286 0.951 . S
H1268 C1288 0.950 . S
H1269 C1289 0.950 . S
H1270 C1291 0.951 . S
H1271 C1294 0.950 . S
H1272 C1295 0.950 . S
H1273 C1297 0.952 1_545 S
H1274 C1298 0.950 1_545 S
H1275 C1299 0.951 . S
H1276 C1301 0.951 . S
H1277 C1303 0.950 . S
H1278 C1304 0.950 . S
H1279 C1306 0.950 . S
H1280 C1309 0.950 . S
H1281 C1310 0.950 . S
H1282 C1312 0.950 . S
H1283 C1313 0.950 . S
C1284 H1266 0.951 . S
C1284 C1285 1.353 1_545 S
C1284 C1286 1.388 . S
C1285 C1284 1.353 1_565 S
C1285 C1289 1.397 . S
C1286 H1267 0.951 . S
C1286 C1284 1.388 . S
C1286 C1287 1.366 1_545 S
C1287 C1286 1.366 1_565 S
C1287 C1288 1.414 . S
C1287 C1290 1.499 . S
C1288 H1268 0.950 . S
C1288 C1287 1.414 . S
C1288 C1289 1.374 . S
C1289 H1269 0.950 . S
C1289 C1285 1.397 . S
C1289 C1288 1.374 . S
C1290 C1287 1.499 . S
C1290 C1291 1.373 . S
C1290 C1292 1.389 . S
C1291 H1270 0.951 . S
C1291 C1290 1.373 . S
C1291 C1307 1.377 . S
C1292 C1290 1.389 . S
C1292 C1293 1.524 . S
C1292 C1306 1.377 . S
C1293 C1292 1.524 . S
C1293 C1294 1.397 . S
C1293 C1298 1.363 . S
C1294 H1271 0.950 . S
C1294 C1293 1.397 . S
C1294 C1295 1.334 . S
C1295 H1272 0.950 . S
C1295 C1294 1.334 . S
C1295 C1296 1.287 . S
C1296 C1295 1.287 . S
C1296 C1297 1.524 . S
C1296 H1315 0.913 . S
C1297 H1273 0.952 1_565 S
C1297 C1296 1.524 . S
C1297 C1298 1.415 . S
C1298 H1274 0.950 1_565 S
C1298 C1293 1.363 . S
C1298 C1297 1.415 . S
C1299 H1275 0.951 . S
C1299 C1300 1.366 . S
C1299 C1301 1.388 . S
C1300 C1299 1.366 . S
C1300 C1304 1.385 1_565 S
C1301 H1276 0.951 . S
C1301 C1299 1.388 . S
C1301 C1302 1.366 . S
C1302 C1301 1.366 . S
C1302 C1303 1.414 1_565 S
C1302 C1305 1.499 . S
C1303 H1277 0.950 . S
C1303 C1302 1.414 1_545 S
C1303 C1304 1.374 . S
C1304 H1278 0.950 . S
C1304 C1300 1.385 1_545 S
C1304 C1303 1.374 . S
C1305 C1302 1.499 . S
C1305 C1306 1.373 . S
C1305 C1307 1.389 . S
C1306 H1279 0.950 . S
C1306 C1292 1.377 . S
C1306 C1305 1.373 . S
C1307 C1291 1.377 . S
C1307 C1305 1.389 . S
C1307 C1308 1.524 1_565 S
C1308 C1307 1.524 1_545 S
C1308 C1309 1.397 . S
C1308 C1313 1.363 1_545 S
C1309 H1280 0.950 . S
C1309 C1308 1.397 . S
C1309 C1310 1.334 . S
C1310 H1281 0.950 . S
C1310 C1309 1.334 . S
C1310 C1311 1.287 . S
C1311 C1310 1.287 . S
C1311 C1312 1.524 1_545 S
C1311 H1314 0.999 . S
C1312 H1282 0.950 . S
C1312 C1311 1.524 1_565 S
C1312 C1313 1.415 . S
C1313 H1283 0.950 . S
C1313 C1308 1.363 1_565 S
C1313 C1312 1.415 . S
H1314 C1311 0.999 . S
H1315 C1296 0.913 . S
H1316 C1334 0.951 . S
H1317 C1336 0.951 . S
H1318 C1338 0.950 . S
H1319 C1339 0.950 . S
H1320 C1341 0.950 . S
H1321 C1344 0.950 . S
H1322 C1345 0.950 . S
H1323 C1347 0.950 . S
H1324 C1348 0.950 . S
H1325 C1349 0.951 . S
H1326 C1351 0.951 . S
H1327 C1353 0.950 . S
H1328 C1354 0.950 . S
H1329 C1356 0.950 . S
H1330 C1359 0.950 . S
H1331 C1360 0.950 . S
H1332 C1362 0.950 . S
H1333 C1363 0.950 . S
C1334 H1316 0.951 . S
C1334 C1335 1.366 . S
C1334 C1336 1.388 . S
C1335 C1334 1.366 . S
C1335 C1339 1.385 . S
C1336 H1317 0.951 . S
C1336 C1334 1.388 . S
C1336 C1337 1.366 . S
C1337 C1336 1.366 . S
C1337 C1338 1.414 . S
C1337 C1340 1.499 . S
C1338 H1318 0.950 . S
C1338 C1337 1.414 . S
C1338 C1339 1.374 . S
C1339 H1319 0.950 . S
C1339 C1335 1.385 . S
C1339 C1338 1.374 . S
C1340 C1337 1.499 . S
C1340 C1341 1.373 . S
C1340 C1342 1.389 . S
C1341 H1320 0.950 . S
C1341 C1340 1.373 . S
C1341 C1357 1.377 . S
C1342 C1340 1.389 . S
C1342 C1343 1.524 . S
C1342 C1356 1.377 . S
C1343 C1342 1.524 . S
C1343 C1344 1.397 . S
C1343 C1348 1.363 . S
C1344 H1321 0.950 . S
C1344 C1343 1.397 . S
C1344 C1345 1.334 . S
C1345 H1322 0.950 . S
C1345 C1344 1.334 . S
C1345 C1346 1.287 . S
C1346 C1345 1.287 . S
C1346 C1347 1.524 . S
C1346 H1365 0.913 . S
C1347 H1323 0.950 . S
C1347 C1346 1.524 . S
C1347 C1348 1.415 . S
C1348 H1324 0.950 . S
C1348 C1343 1.363 . S
C1348 C1347 1.415 . S
C1349 H1325 0.951 . S
C1349 C1350 1.366 . S
C1349 C1351 1.388 . S
C1350 C1349 1.366 . S
C1350 C1354 1.385 . S
C1351 H1326 0.951 . S
C1351 C1349 1.388 . S
C1351 C1352 1.366 . S
C1352 C1351 1.366 . S
C1352 C1353 1.414 . S
C1352 C1355 1.499 . S
C1353 H1327 0.950 . S
C1353 C1352 1.414 . S
C1353 C1354 1.374 . S
C1354 H1328 0.950 . S
C1354 C1350 1.385 . S
C1354 C1353 1.374 . S
C1355 C1352 1.499 . S
C1355 C1356 1.373 . S
C1355 C1357 1.389 . S
C1356 H1329 0.950 . S
C1356 C1342 1.377 . S
C1356 C1355 1.373 . S
C1357 C1341 1.377 . S
C1357 C1355 1.389 . S
C1357 C1358 1.524 . S
C1358 C1357 1.524 . S
C1358 C1359 1.397 . S
C1358 C1363 1.363 . S
C1359 H1330 0.950 . S
C1359 C1358 1.397 . S
C1359 C1360 1.334 . S
C1360 H1331 0.950 . S
C1360 C1359 1.334 . S
C1360 C1361 1.287 . S
C1361 C1360 1.287 . S
C1361 C1362 1.524 . S
C1361 H1364 0.999 . S
C1362 H1332 0.950 . S
C1362 C1361 1.524 . S
C1362 C1363 1.415 . S
C1363 H1333 0.950 . S
C1363 C1358 1.363 . S
C1363 C1362 1.415 . S
H1364 C1361 0.999 . S
H1365 C1346 0.913 . S
H1366 C1384 0.951 . S
H1367 C1386 0.951 . S
H1368 C1388 0.950 . S
H1369 C1389 0.950 . S
H1370 C1391 0.950 . S
H1371 C1394 0.950 . S
H1372 C1395 0.950 . S
H1373 C1397 0.950 . S
H1374 C1398 0.950 . S
H1375 C1399 0.951 . S
H1376 C1401 0.951 . S
H1377 C1403 0.950 . S
H1378 C1404 0.950 . S
H1379 C1406 0.950 . S
H1380 C1409 0.950 . S
H1381 C1410 0.950 . S
H1382 C1412 0.950 . S
H1383 C1413 0.950 . S
C1384 H1366 0.951 . S
C1384 C1385 1.366 . S
C1384 C1386 1.388 . S
C1385 C1384 1.366 . S
C1385 C1389 1.385 . S
C1386 H1367 0.951 . S
C1386 C1384 1.388 . S
C1386 C1387 1.366 . S
C1387 C1386 1.366 . S
C1387 C1388 1.414 . S
C1387 C1390 1.499 . S
C1388 H1368 0.950 . S
C1388 C1387 1.414 . S
C1388 C1389 1.374 . S
C1389 H1369 0.950 . S
C1389 C1385 1.385 . S
C1389 C1388 1.374 . S
C1390 C1387 1.499 . S
C1390 C1391 1.373 . S
C1390 C1392 1.389 . S
C1391 H1370 0.950 . S
C1391 C1390 1.373 . S
C1391 C1407 1.377 . S
C1392 C1390 1.389 . S
C1392 C1393 1.524 . S
C1392 C1406 1.377 . S
C1393 C1392 1.524 . S
C1393 C1394 1.397 . S
C1393 C1398 1.363 . S
C1394 H1371 0.950 . S
C1394 C1393 1.397 . S
C1394 C1395 1.334 . S
C1395 H1372 0.950 . S
C1395 C1394 1.334 . S
C1395 C1396 1.287 . S
C1396 C1395 1.287 . S
C1396 C1397 1.524 . S
C1396 H1415 0.913 . S
C1397 H1373 0.950 . S
C1397 C1396 1.524 . S
C1397 C1398 1.415 . S
C1398 H1374 0.950 . S
C1398 C1393 1.363 . S
C1398 C1397 1.415 . S
C1399 H1375 0.951 . S
C1399 C1400 1.366 . S
C1399 C1401 1.388 . S
C1400 C1399 1.366 . S
C1400 C1404 1.385 . S
C1401 H1376 0.951 . S
C1401 C1399 1.388 . S
C1401 C1402 1.366 . S
C1402 C1401 1.366 . S
C1402 C1403 1.414 . S
C1402 C1405 1.499 . S
C1403 H1377 0.950 . S
C1403 C1402 1.414 . S
C1403 C1404 1.374 . S
C1404 H1378 0.950 . S
C1404 C1400 1.385 . S
C1404 C1403 1.374 . S
C1405 C1402 1.499 . S
C1405 C1406 1.373 . S
C1405 C1407 1.389 . S
C1406 H1379 0.950 . S
C1406 C1392 1.377 . S
C1406 C1405 1.373 . S
C1407 C1391 1.377 . S
C1407 C1405 1.389 . S
C1407 C1408 1.524 . S
C1408 C1407 1.524 . S
C1408 C1409 1.397 . S
C1408 C1413 1.363 . S
C1409 H1380 0.950 . S
C1409 C1408 1.397 . S
C1409 C1410 1.334 . S
C1410 H1381 0.950 . S
C1410 C1409 1.334 . S
C1410 C1411 1.287 . S
C1411 C1410 1.287 . S
C1411 C1412 1.524 . S
C1411 H1414 0.999 . S
C1412 H1382 0.950 . S
C1412 C1411 1.524 . S
C1412 C1413 1.415 . S
C1413 H1383 0.950 . S
C1413 C1408 1.363 . S
C1413 C1412 1.415 . S
H1414 C1411 0.999 . S
H1415 C1396 0.913 . S
C235 C76 1.620 . S
C250 C106 1.644 . S
C300 C136 1.809 . S
C285 C88 1.770 . S
C350 N170 1.374 . S
C335 C52 1.385 . S
C400 N200 1.371 . S
C385 C64 1.370 . S
C450 C97 1.644 . S
C435 C28 1.624 1_545 S
C485 C40 1.783 . S
C500 C127 1.815 . S
C535 C4 1.388 . S
C550 N162 1.374 . S
C585 C16 1.378 . S
C600 N192 1.388 . S
C650 C112 0.234 . S
C635 C69 0.391 . S
C700 C142 0.449 . S
C685 C81 0.513 . S
C750 C183 0.720 . S
C735 C93 0.722 . S
C785 C57 0.344 . S
C800 C213 0.318 . S
C835 C21 0.426 . S
C850 C123 0.240 . S
C900 C153 0.448 . S
C885 C33 0.505 1_565 S
C950 C172 0.721 . S
C935 C45 0.724 . S
C985 C9 0.356 . S
C1000 C202 0.318 . S
C1035 C66 1.477 . S
C1050 N102 1.470 . S
C1085 C78 1.437 . S
C1100 N132 1.426 1_554 S
C1150 C157 1.649 . S
C1135 C90 1.619 . S
C1200 C187 1.592 . S
C1185 C54 1.555 . S
C1235 C18 1.467 . S
C1250 N110 1.481 . S
C1300 N140 1.427 . S
C1285 C30 1.441 1_565 S
C1350 C166 1.649 . S
C1335 C42 1.611 . S
C1385 C6 1.554 . S
C1400 C196 1.592 . S
