# Generated by pormake.
# Topology rtl, (3,6)-cn, num edge types: 1
# Building blocks:
#     Node 0, Type 0, BuildingBlock: QEWDON_clean_linker_0, # of connection points: 3
#     Node 1, Type 0, BuildingBlock: QEWDON_clean_linker_0, # of connection points: 3
#     Node 2, Type 0, BuildingBlock: QEWDON_clean_linker_0, # of connection points: 3
#     Node 3, Type 0, BuildingBlock: QEWDON_clean_linker_0, # of connection points: 3
#     Node 4, Type 1, BuildingBlock: CIFDUS_clean_sbu_1, # of connection points: 6
#     Node 5, Type 1, BuildingBlock: CIFDUS_clean_sbu_1, # of connection points: 6
#     Edge 6, Type (0, 1), BuildingBlock: UVAHIK_clean_linker_0, # of connection points: 2
#     Edge 7, Type (0, 1), BuildingBlock: UVAHIK_clean_linker_0, # of connection points: 2
#     Edge 8, Type (0, 1), BuildingBlock: UVAHIK_clean_linker_0, # of connection points: 2
#     Edge 9, Type (0, 1), BuildingBlock: UVAHIK_clean_linker_0, # of connection points: 2
#     Edge 10, Type (0, 1), BuildingBlock: UVAHIK_clean_linker_0, # of connection points: 2
#     Edge 11, Type (0, 1), BuildingBlock: UVAHIK_clean_linker_0, # of connection points: 2
#     Edge 12, Type (0, 1), BuildingBlock: UVAHIK_clean_linker_0, # of connection points: 2
#     Edge 13, Type (0, 1), BuildingBlock: UVAHIK_clean_linker_0, # of connection points: 2
#     Edge 14, Type (0, 1), BuildingBlock: UVAHIK_clean_linker_0, # of connection points: 2
#     Edge 15, Type (0, 1), BuildingBlock: UVAHIK_clean_linker_0, # of connection points: 2
#     Edge 16, Type (0, 1), BuildingBlock: UVAHIK_clean_linker_0, # of connection points: 2
#     Edge 17, Type (0, 1), BuildingBlock: UVAHIK_clean_linker_0, # of connection points: 2
# Relax obj value: 0.038
# Max RMSD: 0.177
# Mean RMSD: 0.138
data_MOF--net-rtl--node1-CIFDUS_clean_sbu_1--node2-QEWDON_clean_linker_0--edge1-UVAHIK_clean_linker_0
_symmetry_space_group_name_H-M    P1
_symmetry_Int_Tables_number       1
_symmetry_cell_setting            triclinic
loop_
_symmetry_equiv_pos_as_xyz
'x, y, z'
_cell_length_a     48.706562
_cell_length_b     48.464027
_cell_length_c     28.253597
_cell_angle_alpha  91.388304
_cell_angle_beta   98.770408
_cell_angle_gamma 90.02091
loop_
_atom_site_label
_atom_site_type_symbol
_atom_site_fract_x
_atom_site_fract_y
_atom_site_fract_z
_atom_type_partial_charge
H0 H 0.22874 0.84683 0.15296 0.0
C1 C 0.21706 0.84978 0.11763 0.0
C2 C 0.19087 0.86282 0.11275 0.0
C3 C 0.22901 0.84189 0.07695 0.0
H4 H 0.15737 0.87881 0.06195 0.0
C5 C 0.17674 0.86752 0.06624 0.0
C6 C 0.18832 0.86003 0.02513 0.0
C7 C 0.21449 0.84711 0.03098 0.0
C8 C 0.25902 0.83475 0.08207 0.0
H9 H 0.22419 0.84209 0.99981 0.0
C10 C 0.26949 0.80788 0.09253 0.0
C11 C 0.29849 0.80272 0.09673 0.0
C12 C 0.27754 0.85598 0.07554 0.0
H13 H 0.26997 0.87662 0.0674 0.0
C14 C 0.30589 0.85096 0.0793 0.0
H15 H 0.25533 0.79134 0.09755 0.0
C16 C 0.31627 0.82468 0.08968 0.0
H17 H 0.33842 0.82147 0.09152 0.0
H18 H 0.31991 0.86753 0.07393 0.0
H19 H 0.72026 0.7175 0.53039 0.0
C20 C 0.70976 0.71009 0.55879 0.0
C21 C 0.68388 0.69623 0.54741 0.0
C22 C 0.72294 0.71297 0.60674 0.0
H23 H 0.65214 0.67402 0.57694 0.0
C24 C 0.67141 0.68552 0.58508 0.0
C25 C 0.68402 0.68834 0.63313 0.0
C26 C 0.70944 0.70261 0.64351 0.0
C27 C 0.75279 0.72161 0.61869 0.0
H28 H 0.71976 0.70411 0.6803 0.0
C29 C 0.76357 0.74679 0.60402 0.0
C30 C 0.79225 0.7534 0.61723 0.0
C31 C 0.77102 0.70347 0.64595 0.0
H32 H 0.76363 0.68391 0.65702 0.0
C33 C 0.79894 0.71002 0.65916 0.0
H34 H 0.74991 0.76095 0.58276 0.0
C35 C 0.80944 0.73469 0.64522 0.0
H36 H 0.83124 0.73924 0.65683 0.0
H37 H 0.81257 0.69586 0.68045 0.0
H38 H 0.80524 0.22212 0.06095 0.0
C39 C 0.81502 0.21387 0.03172 0.0
C40 C 0.84033 0.19917 0.04132 0.0
C41 C 0.8013 0.21658 0.98438 0.0
H42 H 0.87054 0.17558 0.00866 0.0
C43 C 0.85172 0.18768 0.00223 0.0
C44 C 0.83861 0.19051 0.95471 0.0
C45 C 0.81355 0.20524 0.94622 0.0
C46 C 0.77165 0.22533 0.97476 0.0
H47 H 0.80255 0.20639 0.90995 0.0
C48 C 0.76277 0.25298 0.98016 0.0
C49 C 0.73435 0.25988 0.96677 0.0
C50 C 0.75183 0.20496 0.95771 0.0
H51 H 0.75807 0.18368 0.95352 0.0
C52 C 0.72391 0.21164 0.94564 0.0
H53 H 0.77782 0.26897 0.99294 0.0
C54 C 0.71525 0.23883 0.9498 0.0
H55 H 0.69341 0.24349 0.93971 0.0
H56 H 0.70891 0.19569 0.93254 0.0
H57 H 0.32404 0.30961 0.56083 0.0
C58 C 0.32746 0.32261 0.53157 0.0
C59 C 0.33968 0.34891 0.54152 0.0
C60 C 0.32081 0.31256 0.48395 0.0
H61 H 0.35425 0.38534 0.51115 0.0
C62 C 0.34496 0.36512 0.50322 0.0
C63 C 0.33976 0.35511 0.45542 0.0
C64 C 0.3273 0.32883 0.44632 0.0
C65 C 0.31254 0.28314 0.47363 0.0
H66 H 0.32394 0.32022 0.41015 0.0
C67 C 0.28549 0.27284 0.47612 0.0
C68 C 0.27854 0.245 0.46233 0.0
C69 C 0.33243 0.26525 0.45893 0.0
H70 H 0.35322 0.27263 0.45686 0.0
C71 C 0.32585 0.23781 0.44661 0.0
H72 H 0.26987 0.28651 0.48696 0.0
C73 C 0.2992 0.2278 0.44805 0.0
H74 H 0.29472 0.20636 0.43802 0.0
H75 H 0.34145 0.22425 0.43546 0.0
O76 O 0.98745 0.04852 0.47301 0.0
Mn77 Mn 0.00914 0.02359 0.52793 0.0
O78 O 0.95837 0.02001 0.42651 0.0
Mn79 Mn 0.97425 0.98868 0.45325 0.0
O80 O 0.03066 0.99887 0.58263 0.0
O81 O 0.03859 0.0552 0.54042 0.0
Mn82 Mn 0.04243 0.05899 0.60418 0.0
O83 O 0.98375 0.04125 0.57537 0.0
O84 O 0.05798 0.0276 0.63232 0.0
O85 O 0.03421 0.00566 0.47948 0.0
O86 O 0.00593 0.97717 0.43117 0.0
O87 O 0.06584 0.08459 0.58821 0.0
O88 O 0.01006 0.07142 0.62346 0.0
C89 C 0.96134 0.97191 0.51316 0.0
C90 C 0.96766 0.04412 0.43765 0.0
C91 C 0.04956 0.00343 0.61917 0.0
C92 C 0.05725 0.07518 0.5452 0.0
C93 C 0.98675 0.06024 0.60841 0.0
C94 C 0.0298 0.98765 0.44466 0.0
O95 O 0.97982 0.99199 0.51663 0.0
O96 O 0.95149 0.96281 0.47044 0.0
O97 O 0.53119 0.54777 0.1039 0.0
Mn98 Mn 0.50946 0.52408 0.04522 0.0
O99 O 0.55431 0.51713 0.15287 0.0
Mn100 Mn 0.53807 0.48651 0.12043 0.0
O101 O 0.48778 0.50038 0.98679 0.0
O102 O 0.48222 0.55694 0.03237 0.0
Mn103 Mn 0.48147 0.56163 0.96983 0.0
O104 O 0.53785 0.53977 0.00192 0.0
O105 O 0.46581 0.53097 0.93631 0.0
O106 O 0.48124 0.50847 0.08896 0.0
O107 O 0.50415 0.47672 0.13576 0.0
O108 O 0.45834 0.58794 0.98625 0.0
O109 O 0.5156 0.57266 0.95707 0.0
C110 C 0.55382 0.4703 0.0609 0.0
C111 C 0.54826 0.54192 0.14196 0.0
C112 C 0.47113 0.50619 0.94827 0.0
C113 C 0.46461 0.57763 0.02838 0.0
C114 C 0.53752 0.55949 0.97202 0.0
C115 C 0.48208 0.4897 0.12074 0.0
O116 O 0.53641 0.49112 0.05786 0.0
O117 O 0.56043 0.45975 0.10277 0.0
C118 C 0.23697 0.23306 0.50233 0.0
C119 C 0.2501 0.23297 0.46133 0.0
C120 C 0.21281 0.21714 0.5032 0.0
C121 C 0.1757 0.15543 0.44161 0.0
H122 H 0.11744 0.17676 0.51411 0.0
C123 C 0.09612 0.0778 0.49853 0.0
C124 C 0.06997 0.08752 0.50634 0.0
C125 C 0.11568 0.09569 0.48356 0.0
C126 C 0.13327 0.17052 0.49302 0.0
H127 H 0.24705 0.2175 0.38815 0.0
H128 H 0.20495 0.19055 0.38914 0.0
H129 H 0.15532 0.20882 0.50854 0.0
H130 H 0.04324 0.12324 0.50141 0.0
H131 H 0.07659 0.15411 0.47311 0.0
H132 H 0.15365 0.11717 0.426 0.0
C133 C 0.21356 0.20211 0.42126 0.0
C134 C 0.15532 0.18887 0.49045 0.0
C135 C 0.23762 0.21784 0.4205 0.0
C136 C 0.0629 0.11488 0.49442 0.0
C137 C 0.08239 0.13279 0.47944 0.0
C138 C 0.15369 0.13707 0.44426 0.0
C139 C 0.20115 0.20081 0.463 0.0
C140 C 0.17701 0.18161 0.46488 0.0
C141 C 0.1096 0.12388 0.47626 0.0
C142 C 0.13214 0.14421 0.47023 0.0
H143 H 0.24618 0.24424 0.53451 0.0
H144 H 0.20404 0.21669 0.53615 0.0
H145 H 0.19209 0.14875 0.42208 0.0
H146 H 0.10259 0.05715 0.50904 0.0
H147 H 0.13633 0.0879 0.48178 0.0
C148 C 0.33639 0.77301 0.1391 0.0
C149 C 0.31121 0.77491 0.10734 0.0
C150 C 0.35176 0.74855 0.14253 0.0
C151 C 0.35061 0.67326 0.1159 0.0
H152 H 0.42773 0.68478 0.10231 0.0
C153 C 0.42048 0.5856 0.05854 0.0
C154 C 0.44952 0.58875 0.06622 0.0
C155 C 0.40328 0.60559 0.07534 0.0
C156 C 0.40652 0.68091 0.10744 0.0
H157 H 0.2816 0.75161 0.0568 0.0
H158 H 0.30829 0.70843 0.06355 0.0
H159 H 0.39767 0.72419 0.10792 0.0
H160 H 0.48335 0.61423 0.10128 0.0
H161 H 0.45365 0.64813 0.13394 0.0
H162 H 0.35945 0.62994 0.1159 0.0
C163 C 0.31619 0.72618 0.08549 0.0
C164 C 0.38911 0.70373 0.11026 0.0
C165 C 0.30081 0.75089 0.08174 0.0
C166 C 0.46109 0.61083 0.09568 0.0
C167 C 0.44388 0.63074 0.11318 0.0
C168 C 0.36818 0.65033 0.11385 0.0
C169 C 0.34235 0.72501 0.11473 0.0
C170 C 0.36083 0.70028 0.11395 0.0
C171 C 0.41465 0.62936 0.10074 0.0
C172 C 0.39642 0.65371 0.10885 0.0
H173 H 0.34484 0.79089 0.16012 0.0
H174 H 0.37147 0.74828 0.1662 0.0
H175 H 0.32902 0.66982 0.11926 0.0
H176 H 0.41091 0.56924 0.03479 0.0
H177 H 0.38109 0.60344 0.06448 0.0
C178 C 0.79489 0.80569 0.61278 0.0
C179 C 0.80547 0.7794 0.60351 0.0
C180 C 0.81088 0.82967 0.60932 0.0
C181 C 0.88441 0.85098 0.62044 0.0
H182 H 0.85843 0.91695 0.55332 0.0
C183 C 0.95992 0.93149 0.56382 0.0
C184 C 0.95087 0.95847 0.55331 0.0
C185 C 0.94228 0.91216 0.58015 0.0
C186 C 0.86604 0.89902 0.57329 0.0
H187 H 0.8402 0.75808 0.57962 0.0
H188 H 0.86782 0.79941 0.57414 0.0
H189 H 0.82617 0.87884 0.558 0.0
H190 H 0.9168 0.98682 0.5551 0.0
H191 H 0.88659 0.95382 0.58649 0.0
H192 H 0.92409 0.87085 0.63633 0.0
C193 C 0.84751 0.80162 0.58492 0.0
C194 C 0.84743 0.87703 0.57563 0.0
C195 C 0.83154 0.77791 0.58779 0.0
C196 C 0.92474 0.96643 0.56415 0.0
C197 C 0.90707 0.94716 0.58085 0.0
C198 C 0.90288 0.87303 0.61875 0.0
C199 C 0.83783 0.82777 0.59698 0.0
C200 C 0.85656 0.85244 0.5982 0.0
C201 C 0.91497 0.91928 0.58658 0.0
C202 C 0.89426 0.89723 0.59411 0.0
H203 H 0.77502 0.80762 0.62526 0.0
H204 H 0.80273 0.84954 0.61857 0.0
H205 H 0.89205 0.83255 0.63897 0.0
H206 H 0.9795 0.92441 0.55425 0.0
H207 H 0.94937 0.89105 0.58357 0.0
C208 C 0.70916 0.29996 0.92651 0.0
C209 C 0.72342 0.2886 0.96857 0.0
C210 C 0.69299 0.32376 0.92838 0.0
C211 C 0.67564 0.38218 0.00804 0.0
H212 H 0.60464 0.37919 0.9245 0.0
C213 C 0.59473 0.46832 0.01886 0.0
C214 C 0.5678 0.45885 0.02195 0.0
C215 C 0.61441 0.45062 0.00275 0.0
C216 C 0.62434 0.38046 0.94811 0.0
H217 H 0.73264 0.29392 0.04552 0.0
H218 H 0.70435 0.33558 0.04915 0.0
H219 H 0.63862 0.34293 0.91884 0.0
H220 H 0.53998 0.4239 0.00779 0.0
H221 H 0.57366 0.39333 0.97838 0.0
H222 H 0.66081 0.41913 0.03868 0.0
C223 C 0.70593 0.32632 0.01443 0.0
C224 C 0.64409 0.35972 0.94453 0.0
C225 C 0.7223 0.30247 0.01246 0.0
C226 C 0.56024 0.43213 0.00429 0.0
C227 C 0.57982 0.41444 0.98802 0.0
C228 C 0.65588 0.40298 0.01156 0.0
C229 C 0.69031 0.33682 0.97249 0.0
C230 C 0.66997 0.36004 0.97477 0.0
C231 C 0.60763 0.42294 0.98942 0.0
C232 C 0.62975 0.40229 0.98205 0.0
H233 H 0.70953 0.28964 0.89217 0.0
H234 H 0.68194 0.33145 0.89518 0.0
H235 H 0.69533 0.38341 0.03168 0.0
H236 H 0.60146 0.48849 0.03358 0.0
H237 H 0.6354 0.45817 0.00347 0.0
C238 C 0.15 0.87358 0.15506 0.0
C239 C 0.17893 0.87397 0.15528 0.0
C240 C 0.13813 0.88749 0.19085 0.0
C241 C 0.1486 0.9166 0.31309 0.0
H242 H 0.08839 0.96487 0.26212 0.0
C243 C 0.08056 0.98143 0.43251 0.0
C244 C 0.05186 0.97896 0.41596 0.0
C245 C 0.1001 0.97128 0.40415 0.0
C246 C 0.10511 0.95147 0.27715 0.0
H247 H 0.21807 0.88827 0.19565 0.0
H248 H 0.19717 0.91188 0.25916 0.0
H249 H 0.11429 0.94003 0.20763 0.0
H250 H 0.02158 0.96446 0.35577 0.0
H251 H 0.05481 0.94715 0.30802 0.0
H252 H 0.1384 0.9273 0.38278 0.0
C253 C 0.1838 0.90096 0.23062 0.0
C254 C 0.11995 0.93721 0.2458 0.0
C255 C 0.19575 0.88728 0.19428 0.0
C256 C 0.04339 0.96671 0.37032 0.0
C257 C 0.0626 0.95691 0.34235 0.0
C258 C 0.13341 0.93074 0.34472 0.0
C259 C 0.15478 0.9019 0.22846 0.0
C260 C 0.14137 0.91901 0.26316 0.0
C261 C 0.09123 0.95898 0.35851 0.0
C262 C 0.11088 0.94771 0.32694 0.0
H263 H 0.13635 0.86303 0.12645 0.0
H264 H 0.11573 0.88735 0.18866 0.0
H265 H 0.16511 0.90281 0.32752 0.0
H266 H 0.08785 0.99068 0.46744 0.0
H267 H 0.12206 0.97322 0.41769 0.0
C268 C 0.67108 0.68767 0.71664 0.0
C269 C 0.67178 0.6744 0.67197 0.0
C270 C 0.65983 0.67435 0.75296 0.0
C271 C 0.64151 0.60485 0.79298 0.0
H272 H 0.59341 0.64599 0.866 0.0
C273 C 0.56966 0.55239 0.91196 0.0
C274 C 0.56249 0.56733 0.95144 0.0
C275 C 0.58678 0.56427 0.8821 0.0
C276 C 0.60722 0.63418 0.84679 0.0
H277 H 0.66169 0.63624 0.63131 0.0
H278 H 0.64188 0.61325 0.69417 0.0
H279 H 0.61515 0.66919 0.8059 0.0
H280 H 0.56841 0.60587 0.99183 0.0
H281 H 0.59939 0.62608 0.94171 0.0
H282 H 0.63352 0.56978 0.8338 0.0
C283 C 0.65009 0.63396 0.70127 0.0
C284 C 0.61965 0.64758 0.812 0.0
C285 C 0.66115 0.64733 0.66489 0.0
C286 C 0.57408 0.59368 0.96216 0.0
C287 C 0.5914 0.60546 0.93273 0.0
C288 C 0.62919 0.59145 0.82804 0.0
C289 C 0.64919 0.64727 0.74583 0.0
C290 C 0.63681 0.63309 0.78428 0.0
C291 C 0.59709 0.59143 0.89104 0.0
C292 C 0.61169 0.60586 0.85536 0.0
H293 H 0.67901 0.70851 0.72338 0.0
H294 H 0.65973 0.68521 0.78689 0.0
H295 H 0.65491 0.59307 0.77287 0.0
H296 H 0.56031 0.53237 0.90205 0.0
H297 H 0.59038 0.55279 0.85029 0.0
C298 C 0.83774 0.18848 0.1281 0.0
C299 C 0.85379 0.19325 0.09164 0.0
C300 C 0.8501 0.17924 0.17307 0.0
C301 C 0.91974 0.16334 0.24792 0.0
H302 H 0.8748 0.11104 0.30404 0.0
C303 C 0.96447 0.0943 0.41067 0.0
C304 C 0.95488 0.06678 0.40655 0.0
C305 C 0.95211 0.11434 0.37865 0.0
C306 C 0.88783 0.12546 0.28885 0.0
H307 H 0.89617 0.1941 0.07644 0.0
H308 H 0.9172 0.17626 0.15262 0.0
H309 H 0.85403 0.1371 0.2363 0.0
H310 H 0.92451 0.03924 0.36493 0.0
H311 H 0.90419 0.07308 0.31014 0.0
H312 H 0.95409 0.14973 0.29891 0.0
C313 C 0.89507 0.18007 0.14724 0.0
C314 C 0.87567 0.14096 0.25011 0.0
C315 C 0.88281 0.1899 0.10273 0.0
C316 C 0.93265 0.06008 0.36997 0.0
C317 C 0.92059 0.07977 0.33838 0.0
C318 C 0.93206 0.14737 0.28638 0.0
C319 C 0.87887 0.17384 0.18289 0.0
C320 C 0.89147 0.15978 0.22809 0.0
C321 C 0.92987 0.10727 0.34208 0.0
C322 C 0.91643 0.12757 0.30646 0.0
H323 H 0.81539 0.19067 0.1215 0.0
H324 H 0.83679 0.17569 0.19969 0.0
H325 H 0.93264 0.17805 0.23319 0.0
H326 H 0.98157 0.10026 0.43817 0.0
H327 H 0.95986 0.13534 0.3827 0.0
C328 C 0.34252 0.38586 0.60613 0.0
C329 C 0.34935 0.35911 0.59162 0.0
C330 C 0.35444 0.39705 0.65074 0.0
C331 C 0.41691 0.39323 0.74179 0.0
H332 H 0.3734 0.43844 0.81739 0.0
C333 C 0.46658 0.45694 0.9136 0.0
C334 C 0.45666 0.48417 0.9157 0.0
C335 C 0.45317 0.43763 0.87944 0.0
C336 C 0.38597 0.42601 0.79669 0.0
H337 H 0.37394 0.32303 0.61295 0.0
H338 H 0.39503 0.3427 0.69104 0.0
H339 H 0.35026 0.41259 0.7476 0.0
H340 H 0.42422 0.51189 0.88427 0.0
H341 H 0.40149 0.47896 0.8259 0.0
H342 H 0.45278 0.40757 0.79005 0.0
C343 C 0.3803 0.35495 0.66784 0.0
C344 C 0.37263 0.41113 0.75661 0.0
C345 C 0.36799 0.34356 0.62337 0.0
C346 C 0.4327 0.49124 0.88385 0.0
C347 C 0.41936 0.47213 0.85038 0.0
C348 C 0.43034 0.40835 0.78187 0.0
C349 C 0.37387 0.38197 0.68192 0.0
C350 C 0.38793 0.39506 0.72786 0.0
C351 C 0.42935 0.44507 0.84725 0.0
C352 C 0.41511 0.42559 0.80912 0.0
H353 H 0.32836 0.3984 0.58239 0.0
H354 H 0.34917 0.41799 0.66006 0.0
H355 H 0.42938 0.38114 0.72038 0.0
H356 H 0.485 0.45077 0.93743 0.0
H357 H 0.46143 0.41693 0.87824 0.0
C358 C 0.64163 0.68933 0.4839 0.0
C359 C 0.67077 0.69019 0.49651 0.0
C360 C 0.62915 0.67927 0.43877 0.0
C361 C 0.6457 0.6332 0.33963 0.0
H362 H 0.57067 0.65134 0.28184 0.0
C363 C 0.57993 0.55559 0.21708 0.0
C364 C 0.56191 0.56382 0.17599 0.0
C365 C 0.59342 0.57484 0.24998 0.0
C366 C 0.59178 0.64627 0.29701 0.0
H367 H 0.70946 0.68276 0.46926 0.0
H368 H 0.68785 0.66661 0.39011 0.0
H369 H 0.59416 0.67959 0.34892 0.0
H370 H 0.54386 0.59948 0.13832 0.0
H371 H 0.56788 0.63362 0.19656 0.0
H372 H 0.64352 0.60014 0.28776 0.0
C373 C 0.67451 0.67275 0.4158 0.0
C374 C 0.6052 0.66226 0.33604 0.0
C375 C 0.687 0.68252 0.46121 0.0
C376 C 0.55764 0.59231 0.16929 0.0
C377 C 0.57133 0.61185 0.20277 0.0
C378 C 0.63243 0.61745 0.30063 0.0
C379 C 0.64538 0.67004 0.40436 0.0
C380 C 0.63215 0.65552 0.35884 0.0
C381 C 0.58969 0.60327 0.24334 0.0
C382 C 0.60495 0.62312 0.27968 0.0
H383 H 0.62831 0.69562 0.50956 0.0
H384 H 0.60674 0.67753 0.43192 0.0
H385 H 0.66622 0.62693 0.35597 0.0
H386 H 0.58378 0.53398 0.22435 0.0
H387 H 0.60666 0.56726 0.28125 0.0
C388 C 0.85964 0.14895 0.91859 0.0
C389 C 0.85018 0.17636 0.91441 0.0
C390 C 0.87087 0.13568 0.8813 0.0
C391 C 0.90539 0.14995 0.77695 0.0
H392 H 0.8883 0.07337 0.7415 0.0
C393 C 0.95398 0.09731 0.62478 0.0
C394 C 0.96299 0.06998 0.63113 0.0
C395 C 0.93658 0.10938 0.65457 0.0
C396 C 0.89358 0.09467 0.75116 0.0
H397 H 0.84492 0.21114 0.86722 0.0
H398 H 0.86472 0.18806 0.80216 0.0
H399 H 0.86566 0.09624 0.80307 0.0
H400 H 0.96068 0.03361 0.67312 0.0
H401 H 0.93071 0.05463 0.72597 0.0
H402 H 0.93394 0.14837 0.7266 0.0
C403 C 0.8635 0.17685 0.83448 0.0
C404 C 0.8805 0.10783 0.7865 0.0
C405 C 0.85198 0.19004 0.87163 0.0
C406 C 0.95344 0.05452 0.66675 0.0
C407 C 0.93631 0.06671 0.69714 0.0
C408 C 0.91866 0.13676 0.74202 0.0
C409 C 0.87318 0.14949 0.83886 0.0
C410 C 0.8863 0.13564 0.79999 0.0
C411 C 0.92828 0.09463 0.69244 0.0
C412 C 0.91305 0.10887 0.72852 0.0
H413 H 0.85824 0.13762 0.95072 0.0
H414 H 0.87828 0.11472 0.88616 0.0
H415 H 0.91073 0.17122 0.78691 0.0
H416 H 0.96139 0.10977 0.59796 0.0
H417 H 0.93037 0.13062 0.64872 0.0
C418 C 0.33476 0.37049 0.36882 0.0
C419 C 0.34933 0.37128 0.41602 0.0
C420 C 0.34423 0.38551 0.3324 0.0
C421 C 0.38727 0.44592 0.31384 0.0
H422 H 0.39753 0.4104 0.19344 0.0
C423 C 0.46249 0.48951 0.1964 0.0
C424 C 0.4584 0.48461 0.14666 0.0
C425 C 0.44424 0.47871 0.22492 0.0
C426 C 0.39428 0.42093 0.22634 0.0
H427 H 0.38625 0.38807 0.46042 0.0
H428 H 0.40178 0.41479 0.39798 0.0
H429 H 0.37522 0.38512 0.25125 0.0
H430 H 0.43153 0.46499 0.08742 0.0
H431 H 0.39881 0.44652 0.13718 0.0
H432 H 0.40613 0.48169 0.28949 0.0
C433 C 0.38285 0.40276 0.38926 0.0
C434 C 0.38156 0.40632 0.25963 0.0
C435 C 0.37373 0.38747 0.42531 0.0
C436 C 0.43482 0.4696 0.12557 0.0
C437 C 0.41639 0.45864 0.15429 0.0
C438 C 0.3996 0.46061 0.28046 0.0
C439 C 0.36827 0.40205 0.34234 0.0
C440 C 0.37863 0.4184 0.30436 0.0
C441 C 0.42126 0.46246 0.20464 0.0
C442 C 0.40412 0.44812 0.23674 0.0
H443 H 0.31582 0.35853 0.36 0.0
H444 H 0.33246 0.38457 0.29663 0.0
H445 H 0.38485 0.45603 0.34756 0.0
H446 H 0.48084 0.50049 0.2137 0.0
H447 H 0.44923 0.48181 0.26334 0.0
C448 C 0.18928 0.88073 0.9442 0.0
C449 C 0.17414 0.86844 0.97678 0.0
C450 C 0.17568 0.89149 0.90128 0.0
C451 C 0.10887 0.89169 0.81673 0.0
H452 H 0.13422 0.96396 0.7863 0.0
C453 C 0.04731 0.96221 0.67134 0.0
C454 C 0.06286 0.98056 0.64811 0.0
C455 C 0.06066 0.94525 0.70763 0.0
C456 C 0.12707 0.94355 0.79344 0.0
H457 H 0.13273 0.85676 0.98828 0.0
H458 H 0.10903 0.8756 0.91352 0.0
H459 H 0.15797 0.94055 0.85558 0.0
H460 H 0.10443 0.99421 0.64206 0.0
H461 H 0.12768 0.96391 0.70277 0.0
H462 H 0.07783 0.89485 0.75433 0.0
C463 C 0.13147 0.8769 0.92116 0.0
C464 C 0.14076 0.9301 0.83351 0.0
C465 C 0.14507 0.86628 0.96427 0.0
C466 C 0.09193 0.98029 0.65947 0.0
C467 C 0.10522 0.96315 0.69489 0.0
C468 C 0.09521 0.90512 0.77622 0.0
C469 C 0.14653 0.89018 0.88951 0.0
C470 C 0.13195 0.90396 0.84581 0.0
C471 C 0.08981 0.9462 0.72103 0.0
C472 C 0.10418 0.93127 0.76383 0.0
H473 H 0.21162 0.88305 0.95268 0.0
H474 H 0.18804 0.90123 0.87754 0.0
H475 H 0.10156 0.87151 0.82494 0.0
H476 H 0.02483 0.9623 0.66376 0.0
H477 H 0.04799 0.93257 0.72685 0.0
loop_
_geom_bond_atom_site_label_1
_geom_bond_atom_site_label_2
_geom_bond_distance
_geom_bond_site_symmetry_2
_ccdc_geom_bond_type
H0 C1 0.949 . S
C1 H0 0.949 . S
C1 C2 1.395 . S
C1 C3 1.391 . S
C2 C1 1.395 . S
C2 C5 1.390 . S
C3 C1 1.391 . S
C3 C7 1.387 . S
C3 C8 1.491 . S
H4 C5 0.950 . S
C5 C2 1.390 . S
C5 H4 0.950 . S
C5 C6 1.378 . S
C6 C5 1.378 . S
C6 C7 1.409 . S
C7 C3 1.387 . S
C7 C6 1.409 . S
C7 H9 0.951 1_554 S
C8 C3 1.491 . S
C8 C10 1.382 . S
C8 C12 1.404 . S
H9 C7 0.951 1_556 S
C10 C8 1.382 . S
C10 C11 1.390 . S
C10 H15 0.949 . S
C11 C10 1.390 . S
C11 C16 1.399 . S
C12 C8 1.404 . S
C12 H13 0.950 . S
C12 C14 1.375 . S
H13 C12 0.950 . S
C14 C12 1.375 . S
C14 C16 1.382 . S
C14 H18 0.950 . S
H15 C10 0.949 . S
C16 C11 1.399 . S
C16 C14 1.382 . S
C16 H17 0.952 . S
H17 C16 0.952 . S
H18 C14 0.950 . S
H19 C20 0.949 . S
C20 H19 0.949 . S
C20 C21 1.395 . S
C20 C22 1.391 . S
C21 C20 1.395 . S
C21 C24 1.390 . S
C22 C20 1.391 . S
C22 C26 1.387 . S
C22 C27 1.491 . S
H23 C24 0.950 . S
C24 C21 1.390 . S
C24 H23 0.950 . S
C24 C25 1.378 . S
C25 C24 1.378 . S
C25 C26 1.409 . S
C26 C22 1.387 . S
C26 C25 1.409 . S
C26 H28 0.951 . S
C27 C22 1.491 . S
C27 C29 1.382 . S
C27 C31 1.404 . S
H28 C26 0.951 . S
C29 C27 1.382 . S
C29 C30 1.390 . S
C29 H34 0.949 . S
C30 C29 1.390 . S
C30 C35 1.399 . S
C31 C27 1.404 . S
C31 H32 0.950 . S
C31 C33 1.375 . S
H32 C31 0.950 . S
C33 C31 1.375 . S
C33 C35 1.382 . S
C33 H37 0.950 . S
H34 C29 0.949 . S
C35 C30 1.399 . S
C35 C33 1.382 . S
C35 H36 0.952 . S
H36 C35 0.952 . S
H37 C33 0.950 . S
H38 C39 0.949 . S
C39 H38 0.949 . S
C39 C40 1.395 . S
C39 C41 1.391 1_554 S
C40 C39 1.395 . S
C40 C43 1.396 . S
C41 C39 1.391 1_556 S
C41 C45 1.387 . S
C41 C46 1.491 . S
H42 C43 0.951 . S
C43 C40 1.396 . S
C43 H42 0.951 . S
C43 C44 1.371 1_554 S
C44 C43 1.371 1_556 S
C44 C45 1.409 . S
C45 C41 1.387 . S
C45 C44 1.409 . S
C45 H47 0.951 . S
C46 C41 1.491 . S
C46 C48 1.394 . S
C46 C50 1.404 . S
H47 C45 0.951 . S
C48 C46 1.394 . S
C48 C49 1.391 . S
C48 H53 0.935 1_556 S
C49 C48 1.391 . S
C49 C54 1.399 . S
C50 C46 1.404 . S
C50 H51 0.950 . S
C50 C52 1.375 . S
H51 C50 0.950 . S
C52 C50 1.375 . S
C52 C54 1.382 . S
C52 H56 0.950 . S
H53 C48 0.935 1_554 S
C54 C49 1.399 . S
C54 C52 1.382 . S
C54 H55 0.952 . S
H55 C54 0.952 . S
H56 C52 0.950 . S
H57 C58 0.949 . S
C58 H57 0.949 . S
C58 C59 1.395 . S
C58 C60 1.391 . S
C59 C58 1.395 . S
C59 C62 1.390 . S
C60 C58 1.391 . S
C60 C64 1.387 . S
C60 C65 1.491 . S
H61 C62 0.950 . S
C62 C59 1.390 . S
C62 H61 0.950 . S
C62 C63 1.378 . S
C63 C62 1.378 . S
C63 C64 1.409 . S
C64 C60 1.387 . S
C64 C63 1.409 . S
C64 H66 0.951 . S
C65 C60 1.491 . S
C65 C67 1.382 . S
C65 C69 1.404 . S
H66 C64 0.951 . S
C67 C65 1.382 . S
C67 C68 1.390 . S
C67 H72 0.949 . S
C68 C67 1.390 . S
C68 C73 1.399 . S
C69 C65 1.404 . S
C69 H70 0.950 . S
C69 C71 1.375 . S
H70 C69 0.950 . S
C71 C69 1.375 . S
C71 C73 1.382 . S
C71 H75 0.950 . S
H72 C67 0.949 . S
C73 C68 1.399 . S
C73 C71 1.382 . S
C73 H74 0.952 . S
H74 C73 0.952 . S
H75 C71 0.950 . S
O76 Mn77 2.154 1_655 S
O76 C90 1.262 . S
Mn77 O76 2.154 1_455 S
Mn77 O80 2.160 1_545 S
Mn77 O81 2.221 . S
Mn77 O83 2.163 1_455 S
Mn77 O85 2.160 1_545 S
Mn77 O95 2.221 1_445 S
O78 Mn79 2.087 1_545 S
O78 C90 1.256 . S
Mn79 O78 2.087 1_565 S
Mn79 O86 2.089 1_655 S
Mn79 O95 2.290 . S
Mn79 O96 2.251 . S
O80 Mn77 2.160 1_565 S
O80 C91 1.239 . S
O81 Mn77 2.221 . S
O81 Mn82 2.290 . S
O81 C92 1.278 . S
Mn82 O81 2.290 . S
Mn82 O84 2.089 . S
Mn82 O87 2.251 . S
Mn82 O88 2.087 . S
O83 Mn77 2.163 1_655 S
O83 C93 1.244 . S
O84 Mn82 2.089 . S
O84 C91 1.256 1_545 S
O85 Mn77 2.160 1_565 S
O85 C94 1.239 . S
O86 Mn79 2.089 1_455 S
O86 C94 1.256 . S
O87 Mn82 2.251 . S
O87 C92 1.241 . S
O88 Mn82 2.087 . S
O88 C93 1.256 1_455 S
C89 O95 1.278 . S
C89 O96 1.241 . S
C90 O76 1.262 . S
C90 O78 1.256 . S
C91 O80 1.239 . S
C91 O84 1.256 1_565 S
C92 O81 1.278 . S
C92 O87 1.241 . S
C93 O83 1.244 . S
C93 O88 1.256 1_655 S
C94 O85 1.239 . S
C94 O86 1.256 . S
O95 Mn77 2.221 1_665 S
O95 Mn79 2.290 . S
O95 C89 1.278 . S
O96 Mn79 2.251 . S
O96 C89 1.241 . S
O97 Mn98 2.163 . S
O97 C111 1.244 . S
Mn98 O97 2.163 . S
Mn98 O101 2.160 1_554 S
Mn98 O102 2.221 . S
Mn98 O104 2.149 1_554 S
Mn98 O106 2.160 . S
Mn98 O116 2.221 . S
O99 Mn100 2.087 . S
O99 C111 1.256 . S
Mn100 O99 2.087 . S
Mn100 O107 2.089 . S
Mn100 O116 2.290 . S
Mn100 O117 2.251 . S
O101 Mn98 2.160 1_556 S
O101 C112 1.239 . S
O102 Mn98 2.221 . S
O102 Mn103 2.290 1_554 S
O102 C113 1.278 . S
Mn103 O102 2.290 1_556 S
Mn103 O105 2.089 . S
Mn103 O108 2.251 1_556 S
Mn103 O109 2.087 . S
O104 Mn98 2.149 1_556 S
O104 C114 1.259 . S
O105 Mn103 2.089 . S
O105 C112 1.256 . S
O106 Mn98 2.160 . S
O106 C115 1.239 . S
O107 Mn100 2.089 . S
O107 C115 1.256 . S
O108 Mn103 2.251 1_554 S
O108 C113 1.241 . S
O109 Mn103 2.087 . S
O109 C114 1.256 . S
C110 O116 1.278 . S
C110 O117 1.241 . S
C111 O97 1.244 . S
C111 O99 1.256 . S
C112 O101 1.239 . S
C112 O105 1.256 . S
C113 O102 1.278 . S
C113 O108 1.241 . S
C114 O104 1.259 . S
C114 O109 1.256 . S
C115 O106 1.239 . S
C115 O107 1.256 . S
O116 Mn98 2.221 . S
O116 Mn100 2.290 . S
O116 C110 1.278 . S
O117 Mn100 2.251 . S
O117 C110 1.241 . S
C118 C119 1.349 . S
C118 C120 1.327 . S
C118 H143 0.950 . S
C119 C118 1.349 . S
C119 C135 1.349 . S
C120 C118 1.327 . S
C120 C139 1.429 . S
C120 H144 0.950 . S
C121 C138 1.574 . S
C121 C140 1.368 . S
C121 H145 0.949 . S
H122 C126 0.949 . S
C123 C124 1.349 . S
C123 C125 1.327 . S
C123 H146 0.950 . S
C124 C123 1.349 . S
C124 C136 1.349 . S
C125 C123 1.327 . S
C125 C141 1.429 . S
C125 H147 0.950 . S
C126 H122 0.949 . S
C126 C134 1.574 . S
C126 C142 1.368 . S
H127 C135 0.950 . S
H128 C133 0.950 . S
H129 C134 0.949 . S
H130 C136 0.950 . S
H131 C137 0.950 . S
H132 C138 0.949 . S
C133 H128 0.950 . S
C133 C135 1.327 . S
C133 C139 1.429 . S
C134 C126 1.574 . S
C134 H129 0.949 . S
C134 C140 1.368 . S
C135 C119 1.349 . S
C135 H127 0.950 . S
C135 C133 1.327 . S
C136 C124 1.349 . S
C136 H130 0.950 . S
C136 C137 1.327 . S
C137 H131 0.950 . S
C137 C136 1.327 . S
C137 C141 1.429 . S
C138 C121 1.574 . S
C138 H132 0.949 . S
C138 C142 1.368 . S
C139 C120 1.429 . S
C139 C133 1.429 . S
C139 C140 1.523 . S
C140 C121 1.368 . S
C140 C134 1.368 . S
C140 C139 1.523 . S
C141 C125 1.429 . S
C141 C137 1.429 . S
C141 C142 1.523 . S
C142 C126 1.368 . S
C142 C138 1.368 . S
C142 C141 1.523 . S
H143 C118 0.950 . S
H144 C120 0.950 . S
H145 C121 0.949 . S
H146 C123 0.950 . S
H147 C125 0.950 . S
C148 C149 1.349 . S
C148 C150 1.327 . S
C148 H173 0.950 . S
C149 C148 1.349 . S
C149 C165 1.349 . S
C150 C148 1.327 . S
C150 C169 1.429 . S
C150 H174 0.950 . S
C151 C168 1.574 . S
C151 C170 1.368 . S
C151 H175 0.949 . S
H152 C156 0.949 . S
C153 C154 1.349 . S
C153 C155 1.327 . S
C153 H176 0.950 . S
C154 C153 1.349 . S
C154 C166 1.349 . S
C155 C153 1.327 . S
C155 C171 1.429 . S
C155 H177 0.950 . S
C156 H152 0.949 . S
C156 C164 1.574 . S
C156 C172 1.368 . S
H157 C165 0.950 . S
H158 C163 0.950 . S
H159 C164 0.949 . S
H160 C166 0.950 . S
H161 C167 0.950 . S
H162 C168 0.949 . S
C163 H158 0.950 . S
C163 C165 1.327 . S
C163 C169 1.429 . S
C164 C156 1.574 . S
C164 H159 0.949 . S
C164 C170 1.368 . S
C165 C149 1.349 . S
C165 H157 0.950 . S
C165 C163 1.327 . S
C166 C154 1.349 . S
C166 H160 0.950 . S
C166 C167 1.327 . S
C167 H161 0.950 . S
C167 C166 1.327 . S
C167 C171 1.429 . S
C168 C151 1.574 . S
C168 H162 0.949 . S
C168 C172 1.368 . S
C169 C150 1.429 . S
C169 C163 1.429 . S
C169 C170 1.523 . S
C170 C151 1.368 . S
C170 C164 1.368 . S
C170 C169 1.523 . S
C171 C155 1.429 . S
C171 C167 1.429 . S
C171 C172 1.523 . S
C172 C156 1.368 . S
C172 C168 1.368 . S
C172 C171 1.523 . S
H173 C148 0.950 . S
H174 C150 0.950 . S
H175 C151 0.949 . S
H176 C153 0.950 . S
H177 C155 0.950 . S
C178 C179 1.349 . S
C178 C180 1.327 . S
C178 H203 0.950 . S
C179 C178 1.349 . S
C179 C195 1.349 . S
C180 C178 1.327 . S
C180 C199 1.429 . S
C180 H204 0.950 . S
C181 C198 1.574 . S
C181 C200 1.368 . S
C181 H205 0.949 . S
H182 C186 0.949 . S
C183 C184 1.349 . S
C183 C185 1.327 . S
C183 H206 0.950 . S
C184 C183 1.349 . S
C184 C196 1.349 . S
C185 C183 1.327 . S
C185 C201 1.429 . S
C185 H207 0.950 . S
C186 H182 0.949 . S
C186 C194 1.574 . S
C186 C202 1.368 . S
H187 C195 0.950 . S
H188 C193 0.950 . S
H189 C194 0.949 . S
H190 C196 0.950 . S
H191 C197 0.950 . S
H192 C198 0.949 . S
C193 H188 0.950 . S
C193 C195 1.327 . S
C193 C199 1.429 . S
C194 C186 1.574 . S
C194 H189 0.949 . S
C194 C200 1.368 . S
C195 C179 1.349 . S
C195 H187 0.950 . S
C195 C193 1.327 . S
C196 C184 1.349 . S
C196 H190 0.950 . S
C196 C197 1.327 . S
C197 H191 0.950 . S
C197 C196 1.327 . S
C197 C201 1.429 . S
C198 C181 1.574 . S
C198 H192 0.949 . S
C198 C202 1.368 . S
C199 C180 1.429 . S
C199 C193 1.429 . S
C199 C200 1.523 . S
C200 C181 1.368 . S
C200 C194 1.368 . S
C200 C199 1.523 . S
C201 C185 1.429 . S
C201 C197 1.429 . S
C201 C202 1.523 . S
C202 C186 1.368 . S
C202 C198 1.368 . S
C202 C201 1.523 . S
H203 C178 0.950 . S
H204 C180 0.950 . S
H205 C181 0.949 . S
H206 C183 0.950 . S
H207 C185 0.950 . S
C208 C209 1.349 1_556 S
C208 C210 1.327 . S
C208 H233 0.950 . S
C209 C208 1.349 1_554 S
C209 C225 1.349 . S
C210 C208 1.327 . S
C210 C229 1.429 1_556 S
C210 H234 0.950 . S
C211 C228 1.574 . S
C211 C230 1.368 . S
C211 H235 0.949 . S
H212 C216 0.949 . S
C213 C214 1.349 . S
C213 C215 1.327 . S
C213 H236 0.950 . S
C214 C213 1.349 . S
C214 C226 1.349 1_554 S
C215 C213 1.327 . S
C215 C231 1.429 . S
C215 H237 0.950 . S
C216 H212 0.949 . S
C216 C224 1.574 . S
C216 C232 1.368 1_556 S
H217 C225 0.950 . S
H218 C223 0.950 . S
H219 C224 0.949 . S
H220 C226 0.950 . S
H221 C227 0.950 . S
H222 C228 0.949 . S
C223 H218 0.950 . S
C223 C225 1.327 . S
C223 C229 1.429 . S
C224 C216 1.574 . S
C224 H219 0.949 . S
C224 C230 1.368 1_556 S
C225 C209 1.349 . S
C225 H217 0.950 . S
C225 C223 1.327 . S
C226 C214 1.349 1_556 S
C226 H220 0.950 . S
C226 C227 1.327 . S
C227 H221 0.950 . S
C227 C226 1.327 . S
C227 C231 1.429 1_556 S
C228 C211 1.574 . S
C228 H222 0.949 . S
C228 C232 1.368 . S
C229 C210 1.429 1_554 S
C229 C223 1.429 . S
C229 C230 1.523 . S
C230 C211 1.368 . S
C230 C224 1.368 1_554 S
C230 C229 1.523 . S
C231 C215 1.429 . S
C231 C227 1.429 1_554 S
C231 C232 1.523 . S
C232 C216 1.368 1_554 S
C232 C228 1.368 . S
C232 C231 1.523 . S
H233 C208 0.950 . S
H234 C210 0.950 . S
H235 C211 0.949 . S
H236 C213 0.950 . S
H237 C215 0.950 . S
C238 C239 1.349 . S
C238 C240 1.327 . S
C238 H263 0.950 . S
C239 C238 1.349 . S
C239 C255 1.349 . S
C240 C238 1.327 . S
C240 C259 1.429 . S
C240 H264 0.950 . S
C241 C258 1.574 . S
C241 C260 1.368 . S
C241 H265 0.949 . S
H242 C246 0.949 . S
C243 C244 1.349 . S
C243 C245 1.327 . S
C243 H266 0.950 . S
C244 C243 1.349 . S
C244 C256 1.349 . S
C245 C243 1.327 . S
C245 C261 1.429 . S
C245 H267 0.950 . S
C246 H242 0.949 . S
C246 C254 1.574 . S
C246 C262 1.368 . S
H247 C255 0.950 . S
H248 C253 0.950 . S
H249 C254 0.949 . S
H250 C256 0.950 . S
H251 C257 0.950 . S
H252 C258 0.949 . S
C253 H248 0.950 . S
C253 C255 1.327 . S
C253 C259 1.429 . S
C254 C246 1.574 . S
C254 H249 0.949 . S
C254 C260 1.368 . S
C255 C239 1.349 . S
C255 H247 0.950 . S
C255 C253 1.327 . S
C256 C244 1.349 . S
C256 H250 0.950 . S
C256 C257 1.327 . S
C257 H251 0.950 . S
C257 C256 1.327 . S
C257 C261 1.429 . S
C258 C241 1.574 . S
C258 H252 0.949 . S
C258 C262 1.368 . S
C259 C240 1.429 . S
C259 C253 1.429 . S
C259 C260 1.523 . S
C260 C241 1.368 . S
C260 C254 1.368 . S
C260 C259 1.523 . S
C261 C245 1.429 . S
C261 C257 1.429 . S
C261 C262 1.523 . S
C262 C246 1.368 . S
C262 C258 1.368 . S
C262 C261 1.523 . S
H263 C238 0.950 . S
H264 C240 0.950 . S
H265 C241 0.949 . S
H266 C243 0.950 . S
H267 C245 0.950 . S
C268 C269 1.349 . S
C268 C270 1.327 . S
C268 H293 0.950 . S
C269 C268 1.349 . S
C269 C285 1.349 . S
C270 C268 1.327 . S
C270 C289 1.429 . S
C270 H294 0.950 . S
C271 C288 1.574 . S
C271 C290 1.368 . S
C271 H295 0.949 . S
H272 C276 0.949 . S
C273 C274 1.349 . S
C273 C275 1.327 . S
C273 H296 0.950 . S
C274 C273 1.349 . S
C274 C286 1.349 . S
C275 C273 1.327 . S
C275 C291 1.429 . S
C275 H297 0.950 . S
C276 H272 0.949 . S
C276 C284 1.574 . S
C276 C292 1.368 . S
H277 C285 0.950 . S
H278 C283 0.950 . S
H279 C284 0.949 . S
H280 C286 0.950 . S
H281 C287 0.950 . S
H282 C288 0.949 . S
C283 H278 0.950 . S
C283 C285 1.327 . S
C283 C289 1.429 . S
C284 C276 1.574 . S
C284 H279 0.949 . S
C284 C290 1.368 . S
C285 C269 1.349 . S
C285 H277 0.950 . S
C285 C283 1.327 . S
C286 C274 1.349 . S
C286 H280 0.950 . S
C286 C287 1.327 . S
C287 H281 0.950 . S
C287 C286 1.327 . S
C287 C291 1.429 . S
C288 C271 1.574 . S
C288 H282 0.949 . S
C288 C292 1.368 . S
C289 C270 1.429 . S
C289 C283 1.429 . S
C289 C290 1.523 . S
C290 C271 1.368 . S
C290 C284 1.368 . S
C290 C289 1.523 . S
C291 C275 1.429 . S
C291 C287 1.429 . S
C291 C292 1.523 . S
C292 C276 1.368 . S
C292 C288 1.368 . S
C292 C291 1.523 . S
H293 C268 0.950 . S
H294 C270 0.950 . S
H295 C271 0.949 . S
H296 C273 0.950 . S
H297 C275 0.950 . S
C298 C299 1.349 . S
C298 C300 1.327 . S
C298 H323 0.950 . S
C299 C298 1.349 . S
C299 C315 1.349 . S
C300 C298 1.327 . S
C300 C319 1.429 . S
C300 H324 0.950 . S
C301 C318 1.574 . S
C301 C320 1.368 . S
C301 H325 0.949 . S
H302 C306 0.949 . S
C303 C304 1.349 . S
C303 C305 1.327 . S
C303 H326 0.950 . S
C304 C303 1.349 . S
C304 C316 1.349 . S
C305 C303 1.327 . S
C305 C321 1.429 . S
C305 H327 0.950 . S
C306 H302 0.949 . S
C306 C314 1.574 . S
C306 C322 1.368 . S
H307 C315 0.950 . S
H308 C313 0.950 . S
H309 C314 0.949 . S
H310 C316 0.950 . S
H311 C317 0.950 . S
H312 C318 0.949 . S
C313 H308 0.950 . S
C313 C315 1.327 . S
C313 C319 1.429 . S
C314 C306 1.574 . S
C314 H309 0.949 . S
C314 C320 1.368 . S
C315 C299 1.349 . S
C315 H307 0.950 . S
C315 C313 1.327 . S
C316 C304 1.349 . S
C316 H310 0.950 . S
C316 C317 1.327 . S
C317 H311 0.950 . S
C317 C316 1.327 . S
C317 C321 1.429 . S
C318 C301 1.574 . S
C318 H312 0.949 . S
C318 C322 1.368 . S
C319 C300 1.429 . S
C319 C313 1.429 . S
C319 C320 1.523 . S
C320 C301 1.368 . S
C320 C314 1.368 . S
C320 C319 1.523 . S
C321 C305 1.429 . S
C321 C317 1.429 . S
C321 C322 1.523 . S
C322 C306 1.368 . S
C322 C318 1.368 . S
C322 C321 1.523 . S
H323 C298 0.950 . S
H324 C300 0.950 . S
H325 C301 0.949 . S
H326 C303 0.950 . S
H327 C305 0.950 . S
C328 C329 1.349 . S
C328 C330 1.327 . S
C328 H353 0.950 . S
C329 C328 1.349 . S
C329 C345 1.349 . S
C330 C328 1.327 . S
C330 C349 1.429 . S
C330 H354 0.950 . S
C331 C348 1.574 . S
C331 C350 1.368 . S
C331 H355 0.949 . S
H332 C336 0.949 . S
C333 C334 1.349 . S
C333 C335 1.327 . S
C333 H356 0.950 . S
C334 C333 1.349 . S
C334 C346 1.349 . S
C335 C333 1.327 . S
C335 C351 1.429 . S
C335 H357 0.950 . S
C336 H332 0.949 . S
C336 C344 1.574 . S
C336 C352 1.368 . S
H337 C345 0.950 . S
H338 C343 0.950 . S
H339 C344 0.949 . S
H340 C346 0.950 . S
H341 C347 0.950 . S
H342 C348 0.949 . S
C343 H338 0.950 . S
C343 C345 1.327 . S
C343 C349 1.429 . S
C344 C336 1.574 . S
C344 H339 0.949 . S
C344 C350 1.368 . S
C345 C329 1.349 . S
C345 H337 0.950 . S
C345 C343 1.327 . S
C346 C334 1.349 . S
C346 H340 0.950 . S
C346 C347 1.327 . S
C347 H341 0.950 . S
C347 C346 1.327 . S
C347 C351 1.429 . S
C348 C331 1.574 . S
C348 H342 0.949 . S
C348 C352 1.368 . S
C349 C330 1.429 . S
C349 C343 1.429 . S
C349 C350 1.523 . S
C350 C331 1.368 . S
C350 C344 1.368 . S
C350 C349 1.523 . S
C351 C335 1.429 . S
C351 C347 1.429 . S
C351 C352 1.523 . S
C352 C336 1.368 . S
C352 C348 1.368 . S
C352 C351 1.523 . S
H353 C328 0.950 . S
H354 C330 0.950 . S
H355 C331 0.949 . S
H356 C333 0.950 . S
H357 C335 0.950 . S
C358 C359 1.349 . S
C358 C360 1.327 . S
C358 H383 0.950 . S
C359 C358 1.349 . S
C359 C375 1.349 . S
C360 C358 1.327 . S
C360 C379 1.429 . S
C360 H384 0.950 . S
C361 C378 1.574 . S
C361 C380 1.368 . S
C361 H385 0.949 . S
H362 C366 0.949 . S
C363 C364 1.349 . S
C363 C365 1.327 . S
C363 H386 0.950 . S
C364 C363 1.349 . S
C364 C376 1.349 . S
C365 C363 1.327 . S
C365 C381 1.429 . S
C365 H387 0.950 . S
C366 H362 0.949 . S
C366 C374 1.574 . S
C366 C382 1.368 . S
H367 C375 0.950 . S
H368 C373 0.950 . S
H369 C374 0.949 . S
H370 C376 0.950 . S
H371 C377 0.950 . S
H372 C378 0.949 . S
C373 H368 0.950 . S
C373 C375 1.327 . S
C373 C379 1.429 . S
C374 C366 1.574 . S
C374 H369 0.949 . S
C374 C380 1.368 . S
C375 C359 1.349 . S
C375 H367 0.950 . S
C375 C373 1.327 . S
C376 C364 1.349 . S
C376 H370 0.950 . S
C376 C377 1.327 . S
C377 H371 0.950 . S
C377 C376 1.327 . S
C377 C381 1.429 . S
C378 C361 1.574 . S
C378 H372 0.949 . S
C378 C382 1.368 . S
C379 C360 1.429 . S
C379 C373 1.429 . S
C379 C380 1.523 . S
C380 C361 1.368 . S
C380 C374 1.368 . S
C380 C379 1.523 . S
C381 C365 1.429 . S
C381 C377 1.429 . S
C381 C382 1.523 . S
C382 C366 1.368 . S
C382 C378 1.368 . S
C382 C381 1.523 . S
H383 C358 0.950 . S
H384 C360 0.950 . S
H385 C361 0.949 . S
H386 C363 0.950 . S
H387 C365 0.950 . S
C388 C389 1.349 . S
C388 C390 1.327 . S
C388 H413 0.950 . S
C389 C388 1.349 . S
C389 C405 1.349 . S
C390 C388 1.327 . S
C390 C409 1.429 . S
C390 H414 0.950 . S
C391 C408 1.574 . S
C391 C410 1.368 . S
C391 H415 0.949 . S
H392 C396 0.949 . S
C393 C394 1.349 . S
C393 C395 1.327 . S
C393 H416 0.950 . S
C394 C393 1.349 . S
C394 C406 1.349 . S
C395 C393 1.327 . S
C395 C411 1.429 . S
C395 H417 0.950 . S
C396 H392 0.949 . S
C396 C404 1.574 . S
C396 C412 1.368 . S
H397 C405 0.950 . S
H398 C403 0.950 . S
H399 C404 0.949 . S
H400 C406 0.950 . S
H401 C407 0.950 . S
H402 C408 0.949 . S
C403 H398 0.950 . S
C403 C405 1.327 . S
C403 C409 1.429 . S
C404 C396 1.574 . S
C404 H399 0.949 . S
C404 C410 1.368 . S
C405 C389 1.349 . S
C405 H397 0.950 . S
C405 C403 1.327 . S
C406 C394 1.349 . S
C406 H400 0.950 . S
C406 C407 1.327 . S
C407 H401 0.950 . S
C407 C406 1.327 . S
C407 C411 1.429 . S
C408 C391 1.574 . S
C408 H402 0.949 . S
C408 C412 1.368 . S
C409 C390 1.429 . S
C409 C403 1.429 . S
C409 C410 1.523 . S
C410 C391 1.368 . S
C410 C404 1.368 . S
C410 C409 1.523 . S
C411 C395 1.429 . S
C411 C407 1.429 . S
C411 C412 1.523 . S
C412 C396 1.368 . S
C412 C408 1.368 . S
C412 C411 1.523 . S
H413 C388 0.950 . S
H414 C390 0.950 . S
H415 C391 0.949 . S
H416 C393 0.950 . S
H417 C395 0.950 . S
C418 C419 1.349 . S
C418 C420 1.327 . S
C418 H443 0.950 . S
C419 C418 1.349 . S
C419 C435 1.349 . S
C420 C418 1.327 . S
C420 C439 1.429 . S
C420 H444 0.950 . S
C421 C438 1.574 . S
C421 C440 1.368 . S
C421 H445 0.949 . S
H422 C426 0.949 . S
C423 C424 1.349 . S
C423 C425 1.327 . S
C423 H446 0.950 . S
C424 C423 1.349 . S
C424 C436 1.349 . S
C425 C423 1.327 . S
C425 C441 1.429 . S
C425 H447 0.950 . S
C426 H422 0.949 . S
C426 C434 1.574 . S
C426 C442 1.368 . S
H427 C435 0.950 . S
H428 C433 0.950 . S
H429 C434 0.949 . S
H430 C436 0.950 . S
H431 C437 0.950 . S
H432 C438 0.949 . S
C433 H428 0.950 . S
C433 C435 1.327 . S
C433 C439 1.429 . S
C434 C426 1.574 . S
C434 H429 0.949 . S
C434 C440 1.368 . S
C435 C419 1.349 . S
C435 H427 0.950 . S
C435 C433 1.327 . S
C436 C424 1.349 . S
C436 H430 0.950 . S
C436 C437 1.327 . S
C437 H431 0.950 . S
C437 C436 1.327 . S
C437 C441 1.429 . S
C438 C421 1.574 . S
C438 H432 0.949 . S
C438 C442 1.368 . S
C439 C420 1.429 . S
C439 C433 1.429 . S
C439 C440 1.523 . S
C440 C421 1.368 . S
C440 C434 1.368 . S
C440 C439 1.523 . S
C441 C425 1.429 . S
C441 C437 1.429 . S
C441 C442 1.523 . S
C442 C426 1.368 . S
C442 C438 1.368 . S
C442 C441 1.523 . S
H443 C418 0.950 . S
H444 C420 0.950 . S
H445 C421 0.949 . S
H446 C423 0.950 . S
H447 C425 0.950 . S
C448 C449 1.349 . S
C448 C450 1.327 . S
C448 H473 0.950 1_556 S
C449 C448 1.349 . S
C449 C465 1.349 . S
C450 C448 1.327 . S
C450 C469 1.429 . S
C450 H474 0.950 . S
C451 C468 1.574 . S
C451 C470 1.368 . S
C451 H475 0.949 . S
H452 C456 0.949 . S
C453 C454 1.349 . S
C453 C455 1.327 . S
C453 H476 0.950 . S
C454 C453 1.349 . S
C454 C466 1.349 . S
C455 C453 1.327 . S
C455 C471 1.429 . S
C455 H477 0.950 . S
C456 H452 0.949 . S
C456 C464 1.574 . S
C456 C472 1.368 . S
H457 C465 0.950 . S
H458 C463 0.950 . S
H459 C464 0.949 . S
H460 C466 0.950 1_545 S
H461 C467 0.950 . S
H462 C468 0.949 . S
C463 H458 0.950 . S
C463 C465 1.327 . S
C463 C469 1.429 . S
C464 C456 1.574 . S
C464 H459 0.949 . S
C464 C470 1.368 . S
C465 C449 1.349 . S
C465 H457 0.950 . S
C465 C463 1.327 . S
C466 C454 1.349 . S
C466 H460 0.950 1_565 S
C466 C467 1.327 . S
C467 H461 0.950 . S
C467 C466 1.327 . S
C467 C471 1.429 . S
C468 C451 1.574 . S
C468 H462 0.949 . S
C468 C472 1.368 . S
C469 C450 1.429 . S
C469 C463 1.429 . S
C469 C470 1.523 . S
C470 C451 1.368 . S
C470 C464 1.368 . S
C470 C469 1.523 . S
C471 C455 1.429 . S
C471 C467 1.429 . S
C471 C472 1.523 . S
C472 C456 1.368 . S
C472 C468 1.368 . S
C472 C471 1.523 . S
H473 C448 0.950 1_554 S
H474 C450 0.950 . S
H475 C451 0.949 . S
H476 C453 0.950 . S
H477 C455 0.950 . S
C124 C92 1.281 . S
C119 C68 1.378 . S
C149 C11 1.366 . S
C154 C113 1.319 . S
C179 C30 1.585 . S
C184 C89 1.482 . S
C209 C49 1.572 1_554 S
C214 C110 1.461 . S
C244 C94 1.578 . S
C239 C2 1.570 . S
C274 C114 1.626 . S
C269 C25 1.687 . S
C299 C40 1.638 . S
C304 C90 1.616 . S
C329 C59 1.567 . S
C334 C112 1.534 . S
C364 C111 1.502 . S
C359 C21 1.527 . S
C394 C93 1.517 . S
C389 C44 1.572 . S
C424 C115 1.461 . S
C419 C63 1.494 . S
C449 C6 1.498 1_556 S
C454 C91 1.445 . S
