# Generated by pormake.
# Topology anh, (6,3)-cn, num edge types: 1
# Building blocks:
#     Node 0, Type 0, BuildingBlock: BETDEL_clean_sbu_0, # of connection points: 6
#     Node 1, Type 0, BuildingBlock: BETDEL_clean_sbu_0, # of connection points: 6
#     Node 2, Type 0, BuildingBlock: BETDEL_clean_sbu_0, # of connection points: 6
#     Node 3, Type 1, BuildingBlock: VETTIZ_charged_linker_0, # of connection points: 3
#     Node 4, Type 1, BuildingBlock: VETTIZ_charged_linker_0, # of connection points: 3
#     Node 5, Type 1, BuildingBlock: VETTIZ_charged_linker_0, # of connection points: 3
#     Node 6, Type 1, BuildingBlock: VETTIZ_charged_linker_0, # of connection points: 3
#     Node 7, Type 1, BuildingBlock: VETTIZ_charged_linker_0, # of connection points: 3
#     Node 8, Type 1, BuildingBlock: VETTIZ_charged_linker_0, # of connection points: 3
#     Edge 9, Type (0, 1), BuildingBlock: OJICUG_clean_linker_0, # of connection points: 2
#     Edge 10, Type (0, 1), BuildingBlock: OJICUG_clean_linker_0, # of connection points: 2
#     Edge 11, Type (0, 1), BuildingBlock: OJICUG_clean_linker_0, # of connection points: 2
#     Edge 12, Type (0, 1), BuildingBlock: OJICUG_clean_linker_0, # of connection points: 2
#     Edge 13, Type (0, 1), BuildingBlock: OJICUG_clean_linker_0, # of connection points: 2
#     Edge 14, Type (0, 1), BuildingBlock: OJICUG_clean_linker_0, # of connection points: 2
#     Edge 15, Type (0, 1), BuildingBlock: OJICUG_clean_linker_0, # of connection points: 2
#     Edge 16, Type (0, 1), BuildingBlock: OJICUG_clean_linker_0, # of connection points: 2
#     Edge 17, Type (0, 1), BuildingBlock: OJICUG_clean_linker_0, # of connection points: 2
#     Edge 18, Type (0, 1), BuildingBlock: OJICUG_clean_linker_0, # of connection points: 2
#     Edge 19, Type (0, 1), BuildingBlock: OJICUG_clean_linker_0, # of connection points: 2
#     Edge 20, Type (0, 1), BuildingBlock: OJICUG_clean_linker_0, # of connection points: 2
#     Edge 21, Type (0, 1), BuildingBlock: OJICUG_clean_linker_0, # of connection points: 2
#     Edge 22, Type (0, 1), BuildingBlock: OJICUG_clean_linker_0, # of connection points: 2
#     Edge 23, Type (0, 1), BuildingBlock: OJICUG_clean_linker_0, # of connection points: 2
#     Edge 24, Type (0, 1), BuildingBlock: OJICUG_clean_linker_0, # of connection points: 2
#     Edge 25, Type (0, 1), BuildingBlock: OJICUG_clean_linker_0, # of connection points: 2
#     Edge 26, Type (0, 1), BuildingBlock: OJICUG_clean_linker_0, # of connection points: 2
# Relax obj value: 0.152
# Max RMSD: 0.169
# Mean RMSD: 0.138
data_MOF--net-anh--node1-BETDEL_clean_sbu_0--node2-VETTIZ_charged_linker_0--edge1-OJICUG_clean_linker_0
_symmetry_space_group_name_H-M    P1
_symmetry_Int_Tables_number       1
_symmetry_cell_setting            triclinic
loop_
_symmetry_equiv_pos_as_xyz
'x, y, z'
_cell_length_a     27.729813
_cell_length_b     27.786708
_cell_length_c     50.403904
_cell_angle_alpha  89.999692
_cell_angle_beta   90.003652
_cell_angle_gamma 119.9125
loop_
_atom_site_label
_atom_site_type_symbol
_atom_site_fract_x
_atom_site_fract_y
_atom_site_fract_z
_atom_type_partial_charge
Dy0 Dy 0.07775 0.49061 0.16256 0.0
C1 C 0.94705 0.58413 0.1842 0.0
C2 C 0.15408 0.45696 0.16445 0.0
Dy3 Dy 1.01629 0.55116 0.16328 0.0
O4 O 0.14792 0.4872 0.18206 0.0
O5 O 0.11855 0.44504 0.14517 0.0
O6 O 0.03481 0.45074 0.20071 0.0
O7 O 0.06028 0.53429 0.19341 0.0
C8 C 0.03607 0.49499 0.2096 0.0
C9 C 0.03055 0.54065 0.11186 0.0
O10 O 0.10263 0.62639 0.16765 0.0
O11 O 0.1493 0.57979 0.15666 0.0
O12 O 0.98716 0.61293 0.16754 0.0
O13 O 0.94631 0.53823 0.18984 0.0
O14 O 1.00483 0.56505 0.12137 0.0
O15 O 0.04823 0.522 0.13023 0.0
O16 O 0.99386 0.41578 0.15278 0.0
O17 O 0.94519 0.46079 0.16269 0.0
C18 C 0.14983 0.62711 0.16187 0.0
C19 C 0.94574 0.41434 0.15678 0.0
Dy20 Dy 0.46843 0.0256 0.49296 0.0
C21 C 0.69582 0.15546 0.52007 0.0
C22 C 0.36063 0.94819 0.48551 0.0
Dy23 Dy 0.59594 0.0887 0.49687 0.0
O24 O 0.38118 0.97454 0.50748 0.0
O25 O 0.39853 0.96667 0.46711 0.0
O26 O 0.46648 0.0613 0.53227 0.0
O27 O 0.52858 0.04079 0.52428 0.0
C28 C 0.51125 0.06275 0.54078 0.0
C29 C 0.56708 0.07866 0.44547 0.0
O30 O 0.58294 1.0014 0.49987 0.0
O31 O 0.48748 0.95395 0.49241 0.0
O32 O 0.6868 0.11885 0.50172 0.0
O33 O 0.64957 0.15394 0.52608 0.0
O34 O 0.61861 0.10421 0.45331 0.0
O35 O 0.53593 0.06169 0.46543 0.0
O36 O 0.48235 0.11106 0.48217 0.0
O37 O 0.57329 0.15749 0.49773 0.0
C38 C 0.5353 0.95403 0.49602 0.0
C39 C 0.52801 0.15809 0.48909 0.0
Dy40 Dy 0.61558 0.63063 0.82814 0.0
C41 C 0.5314 0.41057 0.85296 0.0
C42 C 0.64922 0.74042 0.82768 0.0
Dy43 Dy 0.55502 0.50872 0.83054 0.0
O44 O 0.62072 0.70606 0.84633 0.0
O45 O 0.65933 0.71473 0.80878 0.0
O46 O 0.65531 0.62895 0.8667 0.0
O47 O 0.57173 0.5714 0.85966 0.0
C48 C 0.6109 0.58663 0.87592 0.0
C49 C 0.56343 0.53094 0.77892 0.0
O50 O 0.47975 0.51957 0.83531 0.0
O51 O 0.52564 0.61165 0.82228 0.0
O52 O 0.49841 0.4173 0.83686 0.0
O53 O 0.57567 0.45793 0.85747 0.0
O54 O 0.53882 0.48126 0.78885 0.0
O55 O 0.58264 0.56768 0.79699 0.0
O56 O 0.69013 0.62171 0.81749 0.0
O57 O 0.64575 0.52941 0.82934 0.0
C58 C 0.47859 0.56529 0.82848 0.0
C59 C 0.69177 0.57555 0.82223 0.0
C60 C 0.69088 0.16062 0.16246 0.0
C61 C 0.73629 0.20694 0.17573 0.0
C62 C 0.73441 0.20872 0.20345 0.0
C63 C 0.64517 0.12283 0.20502 0.0
C64 C 0.64534 0.11849 0.17773 0.0
C65 C 0.59236 0.06491 0.16875 0.0
H66 H 0.34229 0.83326 0.21211 0.0
C67 C 0.5934 0.07541 0.21594 0.0
C68 C 0.56086 0.03988 0.19509 0.0
H69 H 0.3974 0.86231 0.13092 0.0
H70 H 0.48205 0.94952 0.14408 0.0
H71 H 0.46032 0.8654 0.23692 0.0
H72 H 0.36975 0.95154 0.22472 0.0
H73 H 0.40528 0.97775 0.2547 0.0
H74 H 0.35474 0.90471 0.25197 0.0
H75 H 0.39888 0.85064 0.25518 0.0
H76 H 0.46712 0.90228 0.26624 0.0
C77 C 0.6095 0.02598 0.15537 0.0
C78 C 0.55819 0.08002 0.15003 0.0
C79 C 0.56683 0.07229 0.31583 0.0
C80 C 0.52318 0.03819 0.33322 0.0
C81 C 0.47474 0.99323 0.32224 0.0
C82 C 0.47044 0.98228 0.29487 0.0
C83 C 0.51458 0.01703 0.27787 0.0
C84 C 0.5612 0.06151 0.28854 0.0
C85 C 0.60297 0.09578 0.26774 0.0
C86 C 0.57446 0.06387 0.24262 0.0
C87 C 0.52305 0.01762 0.24867 0.0
C88 C 0.6574 0.09453 0.27358 0.0
C89 C 0.60869 0.1544 0.26815 0.0
C90 C 0.37232 0.85789 0.19698 0.0
C91 C 0.36252 0.8402 0.17056 0.0
C92 C 0.40352 0.87439 0.1516 0.0
C93 C 0.45263 0.92489 0.15921 0.0
C94 C 0.4616 0.94156 0.18613 0.0
C95 C 0.42096 0.90721 0.20419 0.0
C96 C 0.43458 0.9284 0.2319 0.0
C97 C 0.49001 0.98084 0.22824 0.0
C98 C 0.50762 0.99041 0.20134 0.0
C99 C 0.44024 0.88456 0.24866 0.0
C100 C 0.38878 0.94101 0.24157 0.0
H101 H 0.69289 0.17338 0.23891 0.0
H102 H 0.6908 0.15753 0.14106 0.0
H103 H 0.54841 0.11005 0.15977 0.0
H104 H 0.51835 0.04287 0.14455 0.0
H105 H 0.58176 0.0993 0.13152 0.0
H106 H 0.63631 0.01779 0.16887 0.0
H107 H 0.63319 0.04495 0.13686 0.0
H108 H 0.57286 0.98556 0.15029 0.0
H109 H 0.60538 0.10661 0.3231 0.0
H110 H 0.4397 0.96649 0.3347 0.0
H111 H 0.43272 0.947 0.28807 0.0
H112 H 0.6485 0.05521 0.28356 0.0
H113 H 0.68559 0.12933 0.28676 0.0
H114 H 0.68015 0.09557 0.25536 0.0
H115 H 0.56962 0.15255 0.27498 0.0
H116 H 0.61594 0.17356 0.24825 0.0
H117 H 0.64248 0.18289 0.28173 0.0
H118 H 0.76787 0.24283 0.21422 0.0
C119 C 0.69007 0.16776 0.2179 0.0
C120 C 0.53016 0.69719 0.49887 0.0
C121 C 0.5346 0.74407 0.51317 0.0
C122 C 0.54001 0.74439 0.54081 0.0
C123 C 0.53858 0.6561 0.54029 0.0
C124 C 0.53233 0.6532 0.51303 0.0
C125 C 0.52866 0.59894 0.5028 0.0
H126 H 0.54745 0.3647 0.54039 0.0
C127 C 0.54147 0.60711 0.54997 0.0
C128 C 0.53594 0.57214 0.5283 0.0
H129 H 0.51126 0.39321 0.4608 0.0
H130 H 0.51542 0.4806 0.47554 0.0
H131 H 0.63949 0.48327 0.55221 0.0
H132 H 0.46451 0.39057 0.56709 0.0
H133 H 0.49177 0.4311 0.59559 0.0
H134 H 0.51399 0.38234 0.58657 0.0
H135 H 0.61015 0.43358 0.57856 0.0
H136 H 0.63222 0.50607 0.58355 0.0
C137 C 0.57584 0.61272 0.48294 0.0
C138 C 0.47112 0.56208 0.49028 0.0
C139 C 0.56473 0.59236 0.64975 0.0
C140 C 0.56959 0.55271 0.66511 0.0
C141 C 0.57432 0.51035 0.65217 0.0
C142 C 0.57109 0.50541 0.62463 0.0
C143 C 0.56313 0.54329 0.60945 0.0
C144 C 0.56153 0.58665 0.62194 0.0
C145 C 0.55445 0.6235 0.60235 0.0
C146 C 0.55002 0.5938 0.57617 0.0
C147 C 0.55465 0.54679 0.58063 0.0
C148 C 0.60773 0.68167 0.60366 0.0
C149 C 0.4994 0.62261 0.60919 0.0
C150 C 0.54054 0.38927 0.52578 0.0
C151 C 0.52968 0.37148 0.49942 0.0
C152 C 0.51981 0.40532 0.48144 0.0
C153 C 0.52234 0.45603 0.48994 0.0
C154 C 0.53394 0.47301 0.51681 0.0
C155 C 0.54206 0.43838 0.53385 0.0
C156 C 0.55186 0.45829 0.56171 0.0
C157 C 0.54876 0.51084 0.55942 0.0
C158 C 0.53875 0.52166 0.53309 0.0
C159 C 0.6112 0.47067 0.56968 0.0
C160 C 0.50355 0.41346 0.57882 0.0
H161 H 0.54594 0.70582 0.57527 0.0
H162 H 0.52571 0.69519 0.47751 0.0
H163 H 0.43766 0.55467 0.50463 0.0
H164 H 0.46534 0.5212 0.4844 0.0
H165 H 0.46582 0.58232 0.47237 0.0
H166 H 0.61689 0.6409 0.49216 0.0
H167 H 0.57124 0.63358 0.46509 0.0
H168 H 0.57585 0.57466 0.47644 0.0
H169 H 0.56124 0.62555 0.65915 0.0
H170 H 0.57921 0.47993 0.66353 0.0
H171 H 0.57363 0.47121 0.61644 0.0
H172 H 0.64419 0.67919 0.61116 0.0
H173 H 0.60189 0.7101 0.61704 0.0
H174 H 0.6211 0.70126 0.58388 0.0
H175 H 0.46755 0.58112 0.61674 0.0
H176 H 0.47958 0.62974 0.59176 0.0
H177 H 0.50608 0.65363 0.62476 0.0
H178 H 0.54312 0.77879 0.55234 0.0
C179 C 0.54186 0.70147 0.55421 0.0
C180 C 0.22756 0.57176 0.8314 0.0
C181 C 0.26997 0.56704 0.84561 0.0
C182 C 0.26548 0.56238 0.8733 0.0
C183 C 0.17875 0.56426 0.87295 0.0
C184 C 0.18178 0.57021 0.84567 0.0
C185 C 0.13128 0.57422 0.83553 0.0
H186 H 0.87755 0.55451 0.87272 0.0
C187 C 0.12688 0.5614 0.88271 0.0
C188 C 0.09734 0.56696 0.86108 0.0
H189 H 0.94446 0.59347 0.79359 0.0
H190 H 0.02731 0.58865 0.80849 0.0
H191 H 0.90549 0.46263 0.88459 0.0
H192 H 0.9859 0.63707 0.90009 0.0
H193 H 0.99883 0.60934 0.92855 0.0
H194 H 0.92797 0.5872 0.91924 0.0
H195 H 0.88376 0.49138 0.9107 0.0
H196 H 0.93466 0.4699 0.91618 0.0
C197 C 0.09787 0.52735 0.81558 0.0
C198 C 0.15214 0.63184 0.82314 0.0
C199 C 0.08873 0.53672 0.98245 0.0
C200 C 0.04415 0.5316 -0.00211 0.0
C201 C 0.9969 0.52688 0.98502 0.0
C202 C 0.99508 0.53031 0.95745 0.0
C203 C 0.04103 0.53859 0.94221 0.0
C204 C 0.08615 0.5402 0.95465 0.0
C205 C 0.13026 0.54778 0.93502 0.0
C206 C 0.1049 0.55244 0.9089 0.0
C207 C 0.05304 0.54751 0.91339 0.0
C208 C 0.1357 0.49476 0.93608 0.0
C209 C 0.18412 0.60277 0.94198 0.0
C210 C 0.90956 0.56197 0.8583 0.0
C211 C 0.90346 0.57387 0.83199 0.0
C212 C 0.94754 0.5842 0.81418 0.0
C213 C 0.9955 0.58132 0.82277 0.0
C214 C 1.00025 0.56893 0.84959 0.0
C215 C 0.95709 0.56028 0.86651 0.0
C216 C 0.96697 0.55011 0.89438 0.0
C217 C 0.0229 0.55353 0.89219 0.0
C218 C 0.04395 0.56397 0.86591 0.0
C219 C 0.92032 0.49072 0.90213 0.0
C220 C 0.96975 0.59788 0.91166 0.0
H221 H 0.22168 0.5575 0.90788 0.0
H222 H 0.22965 0.57577 0.81002 0.0
H223 H 0.17848 0.66502 0.8375 0.0
H224 H 0.11723 0.63819 0.81744 0.0
H225 H 0.17745 0.63702 0.80514 0.0
H226 H 0.08508 0.48627 0.8247 0.0
H227 H 0.12328 0.53202 0.79769 0.0
H228 H 0.05976 0.52747 0.80916 0.0
H229 H 0.12557 0.54032 0.99179 0.0
H230 H 0.96161 0.52195 -0.00355 0.0
H231 H 0.95822 0.52772 0.94928 0.0
H232 H 0.09686 0.45812 0.9434 0.0
H233 H 0.16991 0.50049 0.94952 0.0
H234 H 0.14232 0.48187 0.91627 0.0
H235 H 0.17411 0.63421 0.94984 0.0
H236 H 0.21081 0.62305 0.92454 0.0
H237 H 0.20882 0.59598 0.95735 0.0
H238 H 0.2969 0.55926 0.88477 0.0
C239 C 0.22107 0.56115 0.88681 0.0
C240 C 0.90564 0.4071 0.49794 0.0
C241 C 0.86559 0.35479 0.48865 0.0
C242 C 0.85303 0.34645 0.4614 0.0
C243 C 0.92437 0.44055 0.45249 0.0
C244 C 0.93496 0.44935 0.47944 0.0
C245 C 0.98235 0.50641 0.48535 0.0
H246 H 0.19675 0.74334 0.43827 0.0
C247 C 0.9653 0.49053 0.43834 0.0
C248 C 0.99951 0.52927 0.4575 0.0
H249 H 0.14924 0.70238 0.52035 0.0
H250 H 0.06916 0.61465 0.50679 0.0
H251 H 0.17349 0.62302 0.42045 0.0
H252 H 0.08345 0.71123 0.41762 0.0
H253 H 0.06218 0.66968 0.38909 0.0
H254 H 0.13459 0.72161 0.39312 0.0
H255 H 0.19032 0.67977 0.39829 0.0
H256 H 0.14152 0.60907 0.38917 0.0
C257 C 0.02829 0.50026 0.49983 0.0
C258 C 0.95953 0.53841 0.50132 0.0
C259 C 0.97374 0.49303 0.33733 0.0
C260 C 1.01163 0.53234 0.31925 0.0
C261 C 0.05525 0.58301 0.32891 0.0
C262 C 0.06164 0.59419 0.35603 0.0
C263 C 0.02419 0.55431 0.37387 0.0
C264 C 0.98085 0.50493 0.36453 0.0
C265 C 0.94649 0.46705 0.38676 0.0
C266 C 0.97638 0.50232 0.41087 0.0
C267 C 0.02165 0.55301 0.40301 0.0
C268 C 0.95065 0.41346 0.38527 0.0
C269 C 0.88665 0.45735 0.38429 0.0
C270 C 0.16963 0.71507 0.45341 0.0
C271 C 0.17942 0.72846 0.48031 0.0
C272 C 0.14228 0.692 0.49946 0.0
C273 C 0.0962 0.64145 0.49153 0.0
C274 C 0.08783 0.62822 0.4643 0.0
C275 C 0.12408 0.66535 0.4459 0.0
C276 C 0.10849 0.6468 0.41787 0.0
C277 C 0.05628 0.59188 0.4222 0.0
C278 C 0.04484 0.58059 0.44932 0.0
C279 C 0.15579 0.63951 0.40554 0.0
C280 C 0.09684 0.68943 0.40346 0.0
H281 H 0.87106 0.38029 0.42272 0.0
H282 H 0.91516 0.41426 0.51891 0.0
H283 H 0.91596 0.52521 0.49549 0.0
H284 H 0.98293 0.58359 0.49751 0.0
H285 H 0.95966 0.53088 0.52296 0.0
H286 H 0.03344 0.4667 0.49062 0.0
H287 H 1.01751 0.48947 0.52105 0.0
H288 H 0.06967 0.53778 0.49872 0.0
H289 H 0.93985 0.45365 0.33051 0.0
H290 H 0.08581 0.61345 0.31553 0.0
H291 H 0.09635 0.6331 0.36198 0.0
H292 H 0.9914 0.42221 0.37693 0.0
H293 H 0.91752 0.38175 0.3724 0.0
H294 H 0.94884 0.39509 0.40492 0.0
H295 H 0.88745 0.49639 0.3785 0.0
H296 H 0.86343 0.4447 0.40318 0.0
H297 H 0.86271 0.42565 0.36891 0.0
H298 H 0.821 0.3064 0.45414 0.0
C299 C 0.88198 0.38923 0.44325 0.0
C300 C 0.61131 0.95694 0.81498 0.0
C301 C 0.61673 0.91685 0.80033 0.0
C302 C 0.59858 0.9063 0.77381 0.0
C303 C 0.5792 0.98142 0.77526 0.0
C304 C 0.59222 0.98881 0.80195 0.0
C305 C 0.58517 0.03481 0.81363 0.0
H306 H 0.54045 0.24988 0.79295 0.0
C307 C 0.56792 0.02508 0.76661 0.0
C308 C 0.57038 0.0562 0.78891 0.0
H309 H 0.55647 0.18415 0.86796 0.0
H310 H 0.56762 0.11348 0.84494 0.0
H311 H 0.64095 0.23499 0.76214 0.0
H312 H 0.4618 0.13945 0.76573 0.0
H313 H 0.48152 0.13506 0.73311 0.0
H314 H 0.49742 0.20171 0.74632 0.0
H315 H 0.5968 0.2583 0.74789 0.0
H316 H 0.61484 0.21355 0.72983 0.0
C317 C 0.64152 0.07881 0.82561 0.0
C318 C 0.53658 1.0092 0.83389 0.0
C319 C 0.55421 0.05088 0.66827 0.0
C320 C 0.54787 0.08974 0.65315 0.0
C321 C 0.54527 0.13326 0.66632 0.0
C322 C 0.54818 0.13732 0.6941 0.0
C323 C 0.55333 0.09723 0.70889 0.0
C324 C 0.55627 0.05508 0.69584 0.0
C325 C 0.56199 0.01618 0.7144 0.0
C326 C 0.56203 0.04189 0.7409 0.0
C327 C 0.55692 0.08921 0.73766 0.0
C328 C 0.61852 0.01959 0.70832 0.0
C329 C 0.51014 0.95748 0.71108 0.0
C330 C 0.54655 0.22017 0.80429 0.0
C331 C 0.54707 0.22144 0.83209 0.0
C332 C 0.55566 0.1831 0.84647 0.0
C333 C 0.56208 0.14241 0.8331 0.0
C334 C 0.56084 0.14115 0.80518 0.0
C335 C 0.55353 0.17984 0.79124 0.0
C336 C 0.55206 0.17145 0.76171 0.0
C337 C 0.55696 0.11965 0.76027 0.0
C338 C 0.5633 0.10292 0.78576 0.0
C339 C 0.60354 0.22222 0.74953 0.0
C340 C 0.49555 0.16172 0.75092 0.0
H341 H 0.56744 0.92871 0.74092 0.0
H342 H 0.62307 0.96427 0.83571 0.0
H343 H 0.50789 0.96428 0.83003 0.0
H344 H 0.50987 0.02833 0.83267 0.0
H345 H 0.55219 0.01308 0.85452 0.0
H346 H 0.67609 0.08814 0.81159 0.0
H347 H 0.65011 0.06362 0.84442 0.0
H348 H 0.64365 0.11884 0.8296 0.0
H349 H 0.55749 0.01754 0.65891 0.0
H350 H 0.53972 0.1635 0.65521 0.0
H351 H 0.54568 0.1711 0.703 0.0
H352 H 0.65106 0.06302 0.7037 0.0
H353 H 0.61498 0.99349 0.69092 0.0
H354 H 0.63565 1.00756 0.72512 0.0
H355 H 0.4738 0.95966 0.70318 0.0
H356 H 0.49538 0.93527 0.73023 0.0
H357 H 0.51858 0.93156 0.69716 0.0
H358 H 0.59958 0.87351 0.76261 0.0
C359 C 0.57956 0.93814 0.76127 0.0
C360 C 0.69439 0.54375 0.16263 0.0
C361 C 0.74733 0.55967 0.15243 0.0
C362 C 0.75467 0.55799 0.12488 0.0
C363 C 0.6586 0.53079 0.11765 0.0
C364 C 0.65058 0.52986 0.14479 0.0
C365 C 0.59188 0.51476 0.15166 0.0
H366 H 0.34269 0.47172 0.10869 0.0
C367 C 0.60688 0.51944 0.10441 0.0
C368 C 0.56742 0.50989 0.12415 0.0
H369 H 0.38747 0.45547 0.189 0.0
H370 H 0.48018 0.47954 0.17412 0.0
H371 H 0.46303 0.58206 0.09349 0.0
H372 H 0.3854 0.4058 0.08247 0.0
H373 H 0.42837 0.43438 0.05468 0.0
H374 H 0.3722 0.44839 0.06034 0.0
H375 H 0.40508 0.54283 0.07176 0.0
H376 H 0.47577 0.57051 0.06057 0.0
C377 C 0.59381 0.56319 0.1677 0.0
C378 C 0.56401 0.45843 0.16653 0.0
C379 C 0.60411 0.5383 0.00424 0.0
C380 C 0.56423 0.53747 0.98672 0.0
C381 C 0.51209 0.52594 -0.00322 0.0
C382 C 0.50043 0.51701 0.02386 0.0
C383 C 0.54104 0.519 0.04117 0.0
C384 C 0.59162 0.52897 0.03129 0.0
C385 C 0.63022 0.53127 0.05284 0.0
C386 C 0.59434 0.52129 0.07727 0.0
C387 C 0.54224 0.5137 0.07019 0.0
C388 C 0.6828 0.58997 0.05259 0.0
C389 C 0.64197 0.48294 0.04826 0.0
C390 C 0.37206 0.47247 0.12311 0.0
C391 C 0.35757 0.46036 0.14988 0.0
C392 C 0.39771 0.46395 0.16816 0.0
C393 C 0.45126 0.47784 0.15949 0.0
C394 C 0.46448 0.48862 0.13239 0.0
C395 C 0.42498 0.4858 0.11481 0.0
C396 C 0.44467 0.4961 0.08667 0.0
C397 C 0.50216 0.50368 0.08995 0.0
C398 C 0.51425 0.50085 0.11677 0.0
C399 C 0.44707 0.55046 0.07737 0.0
C400 C 0.40574 0.44387 0.06999 0.0
H401 H 0.71881 0.54313 0.08671 0.0
H402 H 0.68773 0.54354 0.18382 0.0
H403 H 0.58245 0.4325 0.16057 0.0
H404 H 0.51926 0.43269 0.1618 0.0
H405 H 0.56916 0.46457 0.18834 0.0
H406 H 0.62277 0.60369 0.15822 0.0
H407 H 0.60866 0.56401 0.18825 0.0
H408 H 0.55322 0.56134 0.16877 0.0
H409 H 0.64488 0.54787 -0.00273 0.0
H410 H 0.48019 0.52399 0.98368 0.0
H411 H 0.46035 0.50937 0.03024 0.0
H412 H 0.67411 0.62137 0.04353 0.0
H413 H 0.71707 0.59025 0.04106 0.0
H414 H 0.69799 0.6062 0.07273 0.0
H415 H 0.60337 0.44463 0.04209 0.0
H416 H 0.65605 0.47122 0.06639 0.0
H417 H 0.67342 0.49335 0.03237 0.0
H418 H 0.79491 0.56822 0.11681 0.0
C419 C 0.71051 0.54327 0.10746 0.0
C420 C 0.24453 0.47522 0.18275 0.0
C421 C 0.20093 0.44674 0.16453 0.0
H422 H 0.32938 0.50199 0.1923 0.0
C423 C 0.20568 0.41397 0.14483 0.0
H424 H 0.24144 0.50041 0.19833 0.0
C425 C 0.2555 0.4138 0.14183 0.0
C426 C 0.3014 0.44737 0.15813 0.0
H427 H 0.17217 0.39102 0.13088 0.0
H428 H 0.25942 0.39049 0.12556 0.0
C429 C 0.2947 0.47579 0.17949 0.0
C430 C 0.75186 0.25455 0.53213 0.0
C431 C 0.7501 0.20542 0.52372 0.0
H432 H 0.79177 0.34277 0.52699 0.0
C433 C 0.79646 0.2085 0.51098 0.0
H434 H 0.71671 0.25318 0.54225 0.0
C435 C 0.8392 0.25966 0.50233 0.0
C436 C 0.83593 0.30777 0.50671 0.0
H437 H 0.79628 0.17116 0.50462 0.0
H438 H 0.87136 0.26086 0.48966 0.0
C439 C 0.79465 0.30582 0.5234 0.0
C440 C 0.62536 0.81086 0.84251 0.0
C441 C 0.65565 0.79569 0.82543 0.0
H442 H 0.58877 0.86226 0.84768 0.0
C443 C 0.68365 0.82918 0.80366 0.0
H444 H 0.60389 0.78577 0.85966 0.0
C445 C 0.67586 0.87345 0.79717 0.0
C446 C 0.63922 0.88382 0.81213 0.0
H447 H 0.70793 0.81864 0.79053 0.0
H448 H 0.69463 0.89655 0.77915 0.0
C449 C 0.61688 0.85471 0.83579 0.0
C450 C 0.84764 0.5447 0.19582 0.0
C451 C 0.89754 0.59001 0.1866 0.0
H452 H 0.75885 0.49936 0.19184 0.0
C453 C 0.89591 0.63289 0.17274 0.0
H454 H 0.84792 0.51131 0.20679 0.0
C455 C 0.84505 0.62598 0.16428 0.0
C456 C 0.79565 0.57641 0.16979 0.0
H457 H 0.93384 0.66851 0.16569 0.0
H458 H 0.84478 0.65657 0.15103 0.0
C459 C 0.79665 0.53776 0.1873 0.0
C460 C 0.26511 0.87787 0.49977 0.0
C461 C 0.31373 0.89194 0.48544 0.0
H462 H 0.18273 0.81274 0.50959 0.0
C463 C 0.32099 0.85038 0.47369 0.0
H464 H 0.26004 0.90957 0.50977 0.0
C465 C 0.27886 0.79557 0.4749 0.0
C466 C 0.22808 0.78177 0.48705 0.0
H467 H 0.35942 0.86018 0.46368 0.0
H468 H 0.28456 0.76424 0.46487 0.0
C469 C 0.22184 0.82276 0.50026 0.0
C470 C 0.4829 0.30805 0.84873 0.0
C471 C 0.53017 0.35759 0.85639 0.0
H472 H 0.4515 0.22451 0.83527 0.0
C473 C 0.58029 0.35795 0.86137 0.0
H474 H 0.44393 0.3069 0.84481 0.0
C475 C 0.58464 0.31111 0.85576 0.0
C476 C 0.53874 0.26349 0.84549 0.0
H477 H 0.61757 0.39588 0.86705 0.0
H478 H 0.62486 0.31368 0.85722 0.0
C479 C 0.48723 0.26117 0.84325 0.0
C480 C 0.58514 0.89733 0.49914 0.0
C481 C 0.53522 0.89893 0.49652 0.0
H482 H 0.62418 0.84782 0.50534 0.0
C483 C 0.48536 0.84704 0.49519 0.0
H484 H 0.6246 0.93566 0.50019 0.0
C485 C 0.48535 0.79609 0.49781 0.0
C486 C 0.53519 0.79479 0.50141 0.0
H487 H 0.44581 0.84567 0.49319 0.0
H488 H 0.44586 0.75771 0.49855 0.0
C489 C 0.58506 0.84651 0.50165 0.0
C490 C 0.7478 0.52666 0.82896 0.0
C491 C 0.74643 0.57489 0.8214 0.0
H492 H 0.79696 0.48848 0.83765 0.0
C493 C 0.79792 0.6219 0.81447 0.0
H494 H 0.70978 0.48937 0.83448 0.0
C495 C 0.84874 0.62098 0.81597 0.0
C496 C 0.84985 0.57314 0.82457 0.0
H497 H 0.79924 0.66 0.80856 0.0
H498 H 0.88743 0.65857 0.81162 0.0
C499 C 0.79821 0.52595 0.83064 0.0
C500 C 0.20633 0.73371 0.16289 0.0
C501 C 0.20485 0.68214 0.1617 0.0
H502 H 0.25612 0.82295 0.16595 0.0
C503 C 0.25688 0.68414 0.16108 0.0
H504 H 0.16783 0.73477 0.16332 0.0
C505 C 0.3079 0.73526 0.16237 0.0
C506 C 0.30911 0.78657 0.16403 0.0
H507 H 0.2583 0.64592 0.16038 0.0
H508 H 0.34654 0.73449 0.16305 0.0
C509 C 0.25729 0.7847 0.16414 0.0
C510 C 0.57565 0.26184 0.4986 0.0
C511 C 0.52898 0.21354 0.4887 0.0
H512 H 0.61271 0.34799 0.50908 0.0
C513 C 0.4838 0.21944 0.47965 0.0
H514 H 0.61155 0.2601 0.50579 0.0
C515 C 0.48485 0.27118 0.4813 0.0
C516 C 0.53096 0.31875 0.49221 0.0
H517 H 0.44695 0.18374 0.47184 0.0
H518 H 0.44852 0.27325 0.47516 0.0
C519 C 0.57649 0.31291 0.5004 0.0
C520 C 0.37265 0.51562 0.83335 0.0
C521 C 0.42337 0.56498 0.82858 0.0
H522 H 0.28484 0.47734 0.84129 0.0
C523 C 0.42045 0.61405 0.82511 0.0
H524 H 0.37226 0.47678 0.83609 0.0
C525 C 0.36947 0.61413 0.82782 0.0
C526 C 0.31928 0.56503 0.83371 0.0
H527 H 0.45809 0.65313 0.82144 0.0
H528 H 0.36998 0.65332 0.82692 0.0
C529 C 0.3219 0.51572 0.83592 0.0
C530 C 0.8889 0.30738 0.15765 0.0
C531 C 0.89084 0.3592 0.15659 0.0
H532 H 0.83899 0.2188 0.16381 0.0
C533 C 0.83915 0.35777 0.15744 0.0
H534 H 0.92722 0.30599 0.15735 0.0
C535 C 0.78824 0.3073 0.16053 0.0
C536 C 0.78645 0.25579 0.16283 0.0
H537 H 0.83802 0.39615 0.15676 0.0
H538 H 0.7503 0.309 0.16287 0.0
C539 C 0.83785 0.25686 0.16099 0.0
C540 C 0.05708 0.50499 0.07119 0.0
C541 C 0.04024 0.54008 0.08303 0.0
H542 H 0.0717 0.47452 0.03441 0.0
C543 C 0.02988 0.57499 0.06678 0.0
H544 H 0.0656 0.4779 0.08331 0.0
C545 C 0.03363 0.57335 0.03937 0.0
C546 C 0.04747 0.53646 0.02724 0.0
H547 H 1.01784 0.60331 0.07523 0.0
H548 H 0.02447 0.60037 0.02753 0.0
C549 C 0.06071 0.5032 0.04334 0.0
C550 C 0.57465 0.11288 0.3994 0.0
C551 C 0.5495 0.06909 0.41755 0.0
H552 H 0.58313 0.13861 0.35907 0.0
C553 C 0.51211 0.01558 0.40834 0.0
H554 H 0.60332 0.15461 0.4062 0.0
C555 C 0.50259 1.00547 0.38105 0.0
C556 C 0.52906 0.04911 0.36251 0.0
H557 H 0.49274 0.98108 0.42209 0.0
H558 H 0.47627 0.96304 0.3746 0.0
C559 C 0.5636 0.10331 0.3723 0.0
C560 C 0.52819 0.49513 0.73407 0.0
C561 C 0.5631 0.54059 0.75014 0.0
H562 H 0.502 0.4641 0.69493 0.0
C563 C 0.59729 0.59252 0.73821 0.0
H564 H 0.50056 0.45477 0.74264 0.0
C565 C 0.59829 0.5978 0.7104 0.0
C566 C 0.56511 0.55118 0.69444 0.0
H567 H 0.6243 0.62829 0.75022 0.0
H568 H 0.62637 0.63749 0.70138 0.0
C569 C 0.52899 0.5004 0.70667 0.0
C570 C 0.50428 0.02324 0.5853 0.0
C571 C 0.52602 0.06983 0.5688 0.0
H572 H 0.49242 0.99303 0.62498 0.0
C573 C 0.55655 0.12311 0.57967 0.0
H574 H 0.47972 0.98187 0.57711 0.0
C575 C 0.56491 0.12981 0.60707 0.0
C576 C 0.54184 0.08322 0.62392 0.0
H577 H 0.57317 0.15945 0.56702 0.0
H578 H 0.58902 0.17138 0.61504 0.0
C579 C 0.51177 0.02983 0.61265 0.0
C580 C 0.57041 0.59478 0.918 0.0
C581 C 0.60113 0.57539 0.90422 0.0
H582 H 0.53618 0.59948 0.95515 0.0
C583 C 0.62046 0.54397 0.91738 0.0
H584 H 0.55542 0.61932 0.90798 0.0
C585 C 0.60841 0.53134 0.94426 0.0
C586 C 0.57738 0.55059 0.95825 0.0
H587 H 0.64384 0.52837 0.90678 0.0
H588 H 0.62257 0.50582 0.95394 0.0
C589 C 0.55903 0.58293 0.94486 0.0
C590 C 1.00624 0.45877 0.25539 0.0
C591 C 0.0221 0.50179 0.23689 0.0
H592 H 0.99075 0.43486 0.29621 0.0
C593 C 0.02811 0.55272 0.24509 0.0
H594 H 1.00109 0.419 0.24946 0.0
C595 C 0.02143 0.56157 0.27171 0.0
C596 C 1.00904 0.51976 0.29061 0.0
H597 H 0.0397 0.58633 0.23108 0.0
H598 H 0.02773 0.60177 0.27765 0.0
C599 C 0.99989 0.46772 0.28209 0.0
loop_
_geom_bond_atom_site_label_1
_geom_bond_atom_site_label_2
_geom_bond_distance
_geom_bond_site_symmetry_2
_ccdc_geom_bond_type
Dy0 O4 2.398 . S
Dy0 O5 2.491 . S
Dy0 O6 2.403 . S
Dy0 O7 2.664 . S
Dy0 O11 2.326 . S
Dy0 O15 2.310 . S
Dy0 O16 2.351 1_455 S
C1 O12 1.185 . S
C1 O13 1.355 . S
C2 O4 1.185 . S
C2 O5 1.355 . S
Dy3 O7 2.310 1_655 S
Dy3 O10 2.351 1_655 S
Dy3 O12 2.398 . S
Dy3 O13 2.491 . S
Dy3 O14 2.406 . S
Dy3 O15 2.664 1_655 S
Dy3 O17 2.326 . S
O4 Dy0 2.398 . S
O4 C2 1.185 . S
O5 Dy0 2.491 . S
O5 C2 1.355 . S
O6 Dy0 2.403 . S
O6 C8 1.254 . S
O7 Dy0 2.664 . S
O7 Dy3 2.310 1_455 S
O7 C8 1.268 . S
C8 O6 1.254 . S
C8 O7 1.268 . S
C9 O14 1.239 1_455 S
C9 O15 1.268 . S
O10 Dy3 2.351 1_455 S
O10 C18 1.249 . S
O11 Dy0 2.326 . S
O11 C18 1.267 . S
O12 C1 1.185 . S
O12 Dy3 2.398 . S
O13 C1 1.355 . S
O13 Dy3 2.491 . S
O14 Dy3 2.406 . S
O14 C9 1.239 1_655 S
O15 Dy0 2.310 . S
O15 Dy3 2.664 1_455 S
O15 C9 1.268 . S
O16 Dy0 2.351 1_655 S
O16 C19 1.249 . S
O17 Dy3 2.326 . S
O17 C19 1.267 . S
C18 O10 1.249 . S
C18 O11 1.267 . S
C19 O16 1.249 . S
C19 O17 1.267 . S
Dy20 O24 2.398 . S
Dy20 O25 2.491 . S
Dy20 O26 2.403 1_565 S
Dy20 O27 2.664 1_565 S
Dy20 O31 2.326 . S
Dy20 O35 2.310 1_565 S
Dy20 O36 2.351 1_565 S
C21 O32 1.185 . S
C21 O33 1.355 . S
C22 O24 1.185 . S
C22 O25 1.355 . S
Dy23 O27 2.310 . S
Dy23 O30 2.351 1_545 S
Dy23 O32 2.398 . S
Dy23 O33 2.491 . S
Dy23 O34 2.403 . S
Dy23 O35 2.664 . S
Dy23 O37 2.326 . S
O24 Dy20 2.398 . S
O24 C22 1.185 . S
O25 Dy20 2.491 . S
O25 C22 1.355 . S
O26 Dy20 2.403 1_545 S
O26 C28 1.254 . S
O27 Dy20 2.664 1_545 S
O27 Dy23 2.310 . S
O27 C28 1.268 . S
C28 O26 1.254 . S
C28 O27 1.268 . S
C29 O34 1.254 . S
C29 O35 1.268 . S
O30 Dy23 2.351 1_565 S
O30 C38 1.249 . S
O31 Dy20 2.326 . S
O31 C38 1.267 . S
O32 C21 1.185 . S
O32 Dy23 2.398 . S
O33 C21 1.355 . S
O33 Dy23 2.491 . S
O34 Dy23 2.403 . S
O34 C29 1.254 . S
O35 Dy20 2.310 1_545 S
O35 Dy23 2.664 . S
O35 C29 1.268 . S
O36 Dy20 2.351 1_545 S
O36 C39 1.249 . S
O37 Dy23 2.326 . S
O37 C39 1.267 . S
C38 O30 1.249 . S
C38 O31 1.267 . S
C39 O36 1.249 . S
C39 O37 1.267 . S
Dy40 O44 2.398 . S
Dy40 O45 2.491 . S
Dy40 O46 2.403 . S
Dy40 O47 2.664 . S
Dy40 O51 2.326 . S
Dy40 O55 2.310 . S
Dy40 O56 2.351 . S
C41 O52 1.185 . S
C41 O53 1.355 . S
C42 O44 1.185 . S
C42 O45 1.355 . S
Dy43 O47 2.310 . S
Dy43 O50 2.351 . S
Dy43 O52 2.398 . S
Dy43 O53 2.491 . S
Dy43 O54 2.403 . S
Dy43 O55 2.664 . S
Dy43 O57 2.326 . S
O44 Dy40 2.398 . S
O44 C42 1.185 . S
O45 Dy40 2.491 . S
O45 C42 1.355 . S
O46 Dy40 2.403 . S
O46 C48 1.254 . S
O47 Dy40 2.664 . S
O47 Dy43 2.310 . S
O47 C48 1.268 . S
C48 O46 1.254 . S
C48 O47 1.268 . S
C49 O54 1.254 . S
C49 O55 1.268 . S
O50 Dy43 2.351 . S
O50 C58 1.249 . S
O51 Dy40 2.326 . S
O51 C58 1.267 . S
O52 C41 1.185 . S
O52 Dy43 2.398 . S
O53 C41 1.355 . S
O53 Dy43 2.491 . S
O54 Dy43 2.403 . S
O54 C49 1.254 . S
O55 Dy40 2.310 . S
O55 Dy43 2.664 . S
O55 C49 1.268 . S
O56 Dy40 2.351 . S
O56 C59 1.249 . S
O57 Dy43 2.326 . S
O57 C59 1.267 . S
C58 O50 1.249 . S
C58 O51 1.267 . S
C59 O56 1.249 . S
C59 O57 1.267 . S
C60 C61 1.391 . S
C60 C64 1.391 . S
C60 H102 0.948 . S
C61 C60 1.391 . S
C61 C62 1.391 . S
C62 C61 1.391 . S
C62 H118 0.947 . S
C62 C119 1.392 . S
C63 C64 1.391 . S
C63 C67 1.397 . S
C63 C119 1.419 . S
C64 C60 1.391 . S
C64 C63 1.391 . S
C64 C65 1.399 . S
C65 C64 1.399 . S
C65 C68 1.396 . S
C65 C77 1.453 . S
C65 C78 1.684 . S
H66 C90 0.948 . S
C67 C63 1.397 . S
C67 C68 1.394 . S
C67 C86 1.723 . S
C68 C65 1.396 . S
C68 C67 1.394 . S
C68 C98 1.723 1_545 S
H69 C92 0.947 . S
H70 C93 0.948 . S
H71 C99 0.982 . S
H72 C100 0.979 . S
H73 C100 0.980 . S
H74 C100 0.983 . S
H75 C99 0.979 . S
H76 C99 0.977 . S
C77 C65 1.453 . S
C77 H106 0.982 . S
C77 H107 0.979 . S
C77 H108 0.977 1_545 S
C78 C65 1.684 . S
C78 H103 0.979 . S
C78 H104 0.980 . S
C78 H105 0.983 . S
C79 C80 1.391 . S
C79 C84 1.391 . S
C79 H109 0.948 . S
C80 C79 1.391 . S
C80 C81 1.391 1_545 S
C81 C80 1.391 1_565 S
C81 C82 1.392 . S
C81 H110 0.947 . S
C82 C81 1.392 . S
C82 C83 1.419 1_565 S
C82 H111 0.948 . S
C83 C82 1.419 1_545 S
C83 C84 1.391 . S
C83 C87 1.397 . S
C84 C79 1.391 . S
C84 C83 1.391 . S
C84 C85 1.399 . S
C85 C84 1.399 . S
C85 C86 1.396 . S
C85 C88 1.453 . S
C85 C89 1.684 . S
C86 C67 1.723 . S
C86 C85 1.396 . S
C86 C87 1.394 . S
C87 C83 1.397 . S
C87 C86 1.394 . S
C87 C97 1.723 1_545 S
C88 C85 1.453 . S
C88 H112 0.982 . S
C88 H113 0.979 . S
C88 H114 0.977 . S
C89 C85 1.684 . S
C89 H115 0.979 . S
C89 H116 0.980 . S
C89 H117 0.983 . S
C90 H66 0.948 . S
C90 C91 1.391 . S
C90 C95 1.391 . S
C91 C90 1.391 . S
C91 C92 1.391 . S
C92 H69 0.947 . S
C92 C91 1.391 . S
C92 C93 1.392 . S
C93 H70 0.948 . S
C93 C92 1.392 . S
C93 C94 1.419 . S
C94 C93 1.419 . S
C94 C95 1.391 . S
C94 C98 1.397 . S
C95 C90 1.391 . S
C95 C94 1.391 . S
C95 C96 1.399 . S
C96 C95 1.399 . S
C96 C97 1.396 . S
C96 C99 1.453 . S
C96 C100 1.684 . S
C97 C87 1.723 1_565 S
C97 C96 1.396 . S
C97 C98 1.394 . S
C98 C68 1.723 1_565 S
C98 C94 1.397 . S
C98 C97 1.394 . S
C99 H71 0.982 . S
C99 H75 0.979 . S
C99 H76 0.977 . S
C99 C96 1.453 . S
C100 H72 0.979 . S
C100 H73 0.980 . S
C100 H74 0.983 . S
C100 C96 1.684 . S
H101 C119 0.948 . S
H102 C60 0.948 . S
H103 C78 0.979 . S
H104 C78 0.980 . S
H105 C78 0.983 . S
H106 C77 0.982 . S
H107 C77 0.979 . S
H108 C77 0.977 1_565 S
H109 C79 0.948 . S
H110 C81 0.947 . S
H111 C82 0.948 . S
H112 C88 0.982 . S
H113 C88 0.979 . S
H114 C88 0.977 . S
H115 C89 0.979 . S
H116 C89 0.980 . S
H117 C89 0.983 . S
H118 C62 0.947 . S
C119 C62 1.392 . S
C119 C63 1.419 . S
C119 H101 0.948 . S
C120 C121 1.391 . S
C120 C124 1.391 . S
C120 H162 0.948 . S
C121 C120 1.391 . S
C121 C122 1.391 . S
C122 C121 1.391 . S
C122 H178 0.947 . S
C122 C179 1.392 . S
C123 C124 1.391 . S
C123 C127 1.397 . S
C123 C179 1.419 . S
C124 C120 1.391 . S
C124 C123 1.391 . S
C124 C125 1.399 . S
C125 C124 1.399 . S
C125 C128 1.396 . S
C125 C137 1.453 . S
C125 C138 1.684 . S
H126 C150 0.948 . S
C127 C123 1.397 . S
C127 C128 1.394 . S
C127 C146 1.723 . S
C128 C125 1.396 . S
C128 C127 1.394 . S
C128 C158 1.723 . S
H129 C152 0.947 . S
H130 C153 0.948 . S
H131 C159 0.982 . S
H132 C160 0.979 . S
H133 C160 0.980 . S
H134 C160 0.983 . S
H135 C159 0.979 . S
H136 C159 0.977 . S
C137 C125 1.453 . S
C137 H166 0.982 . S
C137 H167 0.979 . S
C137 H168 0.977 . S
C138 C125 1.684 . S
C138 H163 0.979 . S
C138 H164 0.980 . S
C138 H165 0.983 . S
C139 C140 1.391 . S
C139 C144 1.391 . S
C139 H169 0.948 . S
C140 C139 1.391 . S
C140 C141 1.391 . S
C141 C140 1.391 . S
C141 C142 1.392 . S
C141 H170 0.947 . S
C142 C141 1.392 . S
C142 C143 1.419 . S
C142 H171 0.948 . S
C143 C142 1.419 . S
C143 C144 1.391 . S
C143 C147 1.397 . S
C144 C139 1.391 . S
C144 C143 1.391 . S
C144 C145 1.399 . S
C145 C144 1.399 . S
C145 C146 1.396 . S
C145 C148 1.453 . S
C145 C149 1.684 . S
C146 C127 1.723 . S
C146 C145 1.396 . S
C146 C147 1.394 . S
C147 C143 1.397 . S
C147 C146 1.394 . S
C147 C157 1.723 . S
C148 C145 1.453 . S
C148 H172 0.982 . S
C148 H173 0.979 . S
C148 H174 0.977 . S
C149 C145 1.684 . S
C149 H175 0.979 . S
C149 H176 0.980 . S
C149 H177 0.983 . S
C150 H126 0.948 . S
C150 C151 1.391 . S
C150 C155 1.391 . S
C151 C150 1.391 . S
C151 C152 1.391 . S
C152 H129 0.947 . S
C152 C151 1.391 . S
C152 C153 1.392 . S
C153 H130 0.948 . S
C153 C152 1.392 . S
C153 C154 1.419 . S
C154 C153 1.419 . S
C154 C155 1.391 . S
C154 C158 1.397 . S
C155 C150 1.391 . S
C155 C154 1.391 . S
C155 C156 1.399 . S
C156 C155 1.399 . S
C156 C157 1.396 . S
C156 C159 1.453 . S
C156 C160 1.684 . S
C157 C147 1.723 . S
C157 C156 1.396 . S
C157 C158 1.394 . S
C158 C128 1.723 . S
C158 C154 1.397 . S
C158 C157 1.394 . S
C159 H131 0.982 . S
C159 H135 0.979 . S
C159 H136 0.977 . S
C159 C156 1.453 . S
C160 H132 0.979 . S
C160 H133 0.980 . S
C160 H134 0.983 . S
C160 C156 1.684 . S
H161 C179 0.948 . S
H162 C120 0.948 . S
H163 C138 0.979 . S
H164 C138 0.980 . S
H165 C138 0.983 . S
H166 C137 0.982 . S
H167 C137 0.979 . S
H168 C137 0.977 . S
H169 C139 0.948 . S
H170 C141 0.947 . S
H171 C142 0.948 . S
H172 C148 0.982 . S
H173 C148 0.979 . S
H174 C148 0.977 . S
H175 C149 0.979 . S
H176 C149 0.980 . S
H177 C149 0.983 . S
H178 C122 0.947 . S
C179 C122 1.392 . S
C179 C123 1.419 . S
C179 H161 0.948 . S
C180 C181 1.391 . S
C180 C184 1.391 . S
C180 H222 0.948 . S
C181 C180 1.391 . S
C181 C182 1.391 . S
C182 C181 1.391 . S
C182 H238 0.947 . S
C182 C239 1.392 . S
C183 C184 1.391 . S
C183 C187 1.397 . S
C183 C239 1.419 . S
C184 C180 1.391 . S
C184 C183 1.391 . S
C184 C185 1.399 . S
C185 C184 1.399 . S
C185 C188 1.396 . S
C185 C197 1.453 . S
C185 C198 1.684 . S
H186 C210 0.948 . S
C187 C183 1.397 . S
C187 C188 1.394 . S
C187 C206 1.723 . S
C188 C185 1.396 . S
C188 C187 1.394 . S
C188 C218 1.723 . S
H189 C212 0.947 . S
H190 C213 0.948 1_455 S
H191 C219 0.982 . S
H192 C220 0.979 . S
H193 C220 0.980 . S
H194 C220 0.983 . S
H195 C219 0.979 . S
H196 C219 0.977 . S
C197 C185 1.453 . S
C197 H226 0.982 . S
C197 H227 0.979 . S
C197 H228 0.977 . S
C198 C185 1.684 . S
C198 H223 0.979 . S
C198 H224 0.980 . S
C198 H225 0.983 . S
C199 C200 1.391 1_556 S
C199 C204 1.391 . S
C199 H229 0.948 . S
C200 C199 1.391 1_554 S
C200 C201 1.386 1_454 S
C201 C200 1.386 1_656 S
C201 C202 1.392 . S
C201 H230 0.952 1_556 S
C202 C201 1.392 . S
C202 C203 1.419 1_655 S
C202 H231 0.948 . S
C203 C202 1.419 1_455 S
C203 C204 1.391 . S
C203 C207 1.397 . S
C204 C199 1.391 . S
C204 C203 1.391 . S
C204 C205 1.399 . S
C205 C204 1.399 . S
C205 C206 1.396 . S
C205 C208 1.453 . S
C205 C209 1.684 . S
C206 C187 1.723 . S
C206 C205 1.396 . S
C206 C207 1.394 . S
C207 C203 1.397 . S
C207 C206 1.394 . S
C207 C217 1.723 1_455 S
C208 C205 1.453 . S
C208 H232 0.982 . S
C208 H233 0.979 . S
C208 H234 0.977 . S
C209 C205 1.684 . S
C209 H235 0.979 . S
C209 H236 0.980 . S
C209 H237 0.983 . S
C210 H186 0.948 . S
C210 C211 1.391 . S
C210 C215 1.391 . S
C211 C210 1.391 . S
C211 C212 1.391 . S
C212 H189 0.947 . S
C212 C211 1.391 . S
C212 C213 1.392 . S
C213 H190 0.948 1_655 S
C213 C212 1.392 . S
C213 C214 1.419 . S
C214 C213 1.419 . S
C214 C215 1.391 . S
C214 C218 1.397 1_655 S
C215 C210 1.391 . S
C215 C214 1.391 . S
C215 C216 1.399 . S
C216 C215 1.399 . S
C216 C217 1.396 . S
C216 C219 1.453 . S
C216 C220 1.684 . S
C217 C207 1.723 1_655 S
C217 C216 1.396 . S
C217 C218 1.394 1_655 S
C218 C188 1.723 . S
C218 C214 1.397 1_455 S
C218 C217 1.394 1_455 S
C219 H191 0.982 . S
C219 H195 0.979 . S
C219 H196 0.977 . S
C219 C216 1.453 . S
C220 H192 0.979 . S
C220 H193 0.980 . S
C220 H194 0.983 . S
C220 C216 1.684 . S
H221 C239 0.948 . S
H222 C180 0.948 . S
H223 C198 0.979 . S
H224 C198 0.980 . S
H225 C198 0.983 . S
H226 C197 0.982 . S
H227 C197 0.979 . S
H228 C197 0.977 . S
H229 C199 0.948 . S
H230 C201 0.952 1_554 S
H231 C202 0.948 . S
H232 C208 0.982 . S
H233 C208 0.979 . S
H234 C208 0.977 . S
H235 C209 0.979 . S
H236 C209 0.980 . S
H237 C209 0.983 . S
H238 C182 0.947 . S
C239 C182 1.392 . S
C239 C183 1.419 . S
C239 H221 0.948 . S
C240 C241 1.391 . S
C240 C244 1.391 . S
C240 H282 0.948 . S
C241 C240 1.391 . S
C241 C242 1.391 . S
C242 C241 1.391 . S
C242 H298 0.947 . S
C242 C299 1.392 . S
C243 C244 1.391 . S
C243 C247 1.397 . S
C243 C299 1.419 . S
C244 C240 1.391 . S
C244 C243 1.391 . S
C244 C245 1.399 . S
C245 C244 1.399 . S
C245 C248 1.396 . S
C245 C257 1.453 . S
C245 C258 1.684 . S
H246 C270 0.948 . S
C247 C243 1.397 . S
C247 C248 1.394 . S
C247 C266 1.723 . S
C248 C245 1.396 . S
C248 C247 1.394 . S
C248 C278 1.723 1_655 S
H249 C272 0.947 . S
H250 C273 0.948 . S
H251 C279 0.982 . S
H252 C280 0.979 . S
H253 C280 0.980 . S
H254 C280 0.983 . S
H255 C279 0.979 . S
H256 C279 0.977 . S
C257 C245 1.453 . S
C257 H286 0.982 1_655 S
C257 H287 0.979 . S
C257 H288 0.977 1_655 S
C258 C245 1.684 . S
C258 H283 0.979 . S
C258 H284 0.980 . S
C258 H285 0.983 . S
C259 C260 1.391 1_655 S
C259 C264 1.391 . S
C259 H289 0.948 . S
C260 C259 1.391 1_455 S
C260 C261 1.391 . S
C261 C260 1.391 . S
C261 C262 1.392 . S
C261 H290 0.947 . S
C262 C261 1.392 . S
C262 C263 1.419 . S
C262 H291 0.948 . S
C263 C262 1.419 . S
C263 C264 1.391 1_455 S
C263 C267 1.397 . S
C264 C259 1.391 . S
C264 C263 1.391 1_655 S
C264 C265 1.399 . S
C265 C264 1.399 . S
C265 C266 1.396 . S
C265 C268 1.453 . S
C265 C269 1.684 . S
C266 C247 1.723 . S
C266 C265 1.396 . S
C266 C267 1.394 1_655 S
C267 C263 1.397 . S
C267 C266 1.394 1_455 S
C267 C277 1.723 . S
C268 C265 1.453 . S
C268 H292 0.982 . S
C268 H293 0.979 . S
C268 H294 0.977 . S
C269 C265 1.684 . S
C269 H295 0.979 . S
C269 H296 0.980 . S
C269 H297 0.983 . S
C270 H246 0.948 . S
C270 C271 1.391 . S
C270 C275 1.391 . S
C271 C270 1.391 . S
C271 C272 1.391 . S
C272 H249 0.947 . S
C272 C271 1.391 . S
C272 C273 1.392 . S
C273 H250 0.948 . S
C273 C272 1.392 . S
C273 C274 1.419 . S
C274 C273 1.419 . S
C274 C275 1.391 . S
C274 C278 1.397 . S
C275 C270 1.391 . S
C275 C274 1.391 . S
C275 C276 1.399 . S
C276 C275 1.399 . S
C276 C277 1.396 . S
C276 C279 1.453 . S
C276 C280 1.684 . S
C277 C267 1.723 . S
C277 C276 1.396 . S
C277 C278 1.394 . S
C278 C248 1.723 1_455 S
C278 C274 1.397 . S
C278 C277 1.394 . S
C279 H251 0.982 . S
C279 H255 0.979 . S
C279 H256 0.977 . S
C279 C276 1.453 . S
C280 H252 0.979 . S
C280 H253 0.980 . S
C280 H254 0.983 . S
C280 C276 1.684 . S
H281 C299 0.948 . S
H282 C240 0.948 . S
H283 C258 0.979 . S
H284 C258 0.980 . S
H285 C258 0.983 . S
H286 C257 0.982 1_455 S
H287 C257 0.979 . S
H288 C257 0.977 1_455 S
H289 C259 0.948 . S
H290 C261 0.947 . S
H291 C262 0.948 . S
H292 C268 0.982 . S
H293 C268 0.979 . S
H294 C268 0.977 . S
H295 C269 0.979 . S
H296 C269 0.980 . S
H297 C269 0.983 . S
H298 C242 0.947 . S
C299 C242 1.392 . S
C299 C243 1.419 . S
C299 H281 0.948 . S
C300 C301 1.391 . S
C300 C304 1.391 . S
C300 H342 0.948 . S
C301 C300 1.391 . S
C301 C302 1.391 . S
C302 C301 1.391 . S
C302 H358 0.947 . S
C302 C359 1.392 . S
C303 C304 1.391 . S
C303 C307 1.397 1_565 S
C303 C359 1.419 . S
C304 C300 1.391 . S
C304 C303 1.391 . S
C304 C305 1.399 1_565 S
C305 C304 1.399 1_545 S
C305 C308 1.396 . S
C305 C317 1.453 . S
C305 C318 1.684 . S
H306 C330 0.948 . S
C307 C303 1.397 1_545 S
C307 C308 1.394 . S
C307 C326 1.723 . S
C308 C305 1.396 . S
C308 C307 1.394 . S
C308 C338 1.723 . S
H309 C332 0.947 . S
H310 C333 0.948 . S
H311 C339 0.982 . S
H312 C340 0.979 . S
H313 C340 0.980 . S
H314 C340 0.983 . S
H315 C339 0.979 . S
H316 C339 0.977 . S
C317 C305 1.453 . S
C317 H346 0.982 . S
C317 H347 0.979 . S
C317 H348 0.977 . S
C318 C305 1.684 . S
C318 H343 0.979 1_545 S
C318 H344 0.980 . S
C318 H345 0.983 . S
C319 C320 1.391 . S
C319 C324 1.391 . S
C319 H349 0.948 1_545 S
C320 C319 1.391 . S
C320 C321 1.391 . S
C321 C320 1.391 . S
C321 C322 1.392 . S
C321 H350 0.947 . S
C322 C321 1.392 . S
C322 C323 1.419 . S
C322 H351 0.948 . S
C323 C322 1.419 . S
C323 C324 1.391 . S
C323 C327 1.397 . S
C324 C319 1.391 . S
C324 C323 1.391 . S
C324 C325 1.399 1_545 S
C325 C324 1.399 1_565 S
C325 C326 1.396 1_565 S
C325 C328 1.453 . S
C325 C329 1.684 . S
C326 C307 1.723 . S
C326 C325 1.396 1_545 S
C326 C327 1.394 . S
C327 C323 1.397 . S
C327 C326 1.394 . S
C327 C337 1.723 . S
C328 C325 1.453 . S
C328 H352 0.982 1_565 S
C328 H353 0.979 . S
C328 H354 0.977 . S
C329 C325 1.684 . S
C329 H355 0.979 . S
C329 H356 0.980 . S
C329 H357 0.983 . S
C330 H306 0.948 . S
C330 C331 1.391 . S
C330 C335 1.391 . S
C331 C330 1.391 . S
C331 C332 1.391 . S
C332 H309 0.947 . S
C332 C331 1.391 . S
C332 C333 1.392 . S
C333 H310 0.948 . S
C333 C332 1.392 . S
C333 C334 1.419 . S
C334 C333 1.419 . S
C334 C335 1.391 . S
C334 C338 1.397 . S
C335 C330 1.391 . S
C335 C334 1.391 . S
C335 C336 1.399 . S
C336 C335 1.399 . S
C336 C337 1.396 . S
C336 C339 1.453 . S
C336 C340 1.684 . S
C337 C327 1.723 . S
C337 C336 1.396 . S
C337 C338 1.394 . S
C338 C308 1.723 . S
C338 C334 1.397 . S
C338 C337 1.394 . S
C339 H311 0.982 . S
C339 H315 0.979 . S
C339 H316 0.977 . S
C339 C336 1.453 . S
C340 H312 0.979 . S
C340 H313 0.980 . S
C340 H314 0.983 . S
C340 C336 1.684 . S
H341 C359 0.948 . S
H342 C300 0.948 . S
H343 C318 0.979 1_565 S
H344 C318 0.980 . S
H345 C318 0.983 . S
H346 C317 0.982 . S
H347 C317 0.979 . S
H348 C317 0.977 . S
H349 C319 0.948 1_565 S
H350 C321 0.947 . S
H351 C322 0.948 . S
H352 C328 0.982 1_545 S
H353 C328 0.979 . S
H354 C328 0.977 . S
H355 C329 0.979 . S
H356 C329 0.980 . S
H357 C329 0.983 . S
H358 C302 0.947 . S
C359 C302 1.392 . S
C359 C303 1.419 . S
C359 H341 0.948 . S
C360 C361 1.391 . S
C360 C364 1.391 . S
C360 H402 0.948 . S
C361 C360 1.391 . S
C361 C362 1.391 . S
C362 C361 1.391 . S
C362 H418 0.947 . S
C362 C419 1.392 . S
C363 C364 1.391 . S
C363 C367 1.397 . S
C363 C419 1.419 . S
C364 C360 1.391 . S
C364 C363 1.391 . S
C364 C365 1.399 . S
C365 C364 1.399 . S
C365 C368 1.396 . S
C365 C377 1.453 . S
C365 C378 1.684 . S
H366 C390 0.948 . S
C367 C363 1.397 . S
C367 C368 1.394 . S
C367 C386 1.723 . S
C368 C365 1.396 . S
C368 C367 1.394 . S
C368 C398 1.723 . S
H369 C392 0.947 . S
H370 C393 0.948 . S
H371 C399 0.982 . S
H372 C400 0.979 . S
H373 C400 0.980 . S
H374 C400 0.983 . S
H375 C399 0.979 . S
H376 C399 0.977 . S
C377 C365 1.453 . S
C377 H406 0.982 . S
C377 H407 0.979 . S
C377 H408 0.977 . S
C378 C365 1.684 . S
C378 H403 0.979 . S
C378 H404 0.980 . S
C378 H405 0.983 . S
C379 C380 1.391 1_554 S
C379 C384 1.391 . S
C379 H409 0.948 . S
C380 C379 1.391 1_556 S
C380 C381 1.391 1_556 S
C381 C380 1.391 1_554 S
C381 C382 1.392 . S
C381 H410 0.947 1_554 S
C382 C381 1.392 . S
C382 C383 1.419 . S
C382 H411 0.948 . S
C383 C382 1.419 . S
C383 C384 1.391 . S
C383 C387 1.397 . S
C384 C379 1.391 . S
C384 C383 1.391 . S
C384 C385 1.399 . S
C385 C384 1.399 . S
C385 C386 1.396 . S
C385 C388 1.453 . S
C385 C389 1.684 . S
C386 C367 1.723 . S
C386 C385 1.396 . S
C386 C387 1.394 . S
C387 C383 1.397 . S
C387 C386 1.394 . S
C387 C397 1.723 . S
C388 C385 1.453 . S
C388 H412 0.982 . S
C388 H413 0.979 . S
C388 H414 0.977 . S
C389 C385 1.684 . S
C389 H415 0.979 . S
C389 H416 0.980 . S
C389 H417 0.983 . S
C390 H366 0.948 . S
C390 C391 1.391 . S
C390 C395 1.391 . S
C391 C390 1.391 . S
C391 C392 1.391 . S
C392 H369 0.947 . S
C392 C391 1.391 . S
C392 C393 1.392 . S
C393 H370 0.948 . S
C393 C392 1.392 . S
C393 C394 1.419 . S
C394 C393 1.419 . S
C394 C395 1.391 . S
C394 C398 1.397 . S
C395 C390 1.391 . S
C395 C394 1.391 . S
C395 C396 1.399 . S
C396 C395 1.399 . S
C396 C397 1.396 . S
C396 C399 1.453 . S
C396 C400 1.684 . S
C397 C387 1.723 . S
C397 C396 1.396 . S
C397 C398 1.394 . S
C398 C368 1.723 . S
C398 C394 1.397 . S
C398 C397 1.394 . S
C399 H371 0.982 . S
C399 H375 0.979 . S
C399 H376 0.977 . S
C399 C396 1.453 . S
C400 H372 0.979 . S
C400 H373 0.980 . S
C400 H374 0.983 . S
C400 C396 1.684 . S
H401 C419 0.948 . S
H402 C360 0.948 . S
H403 C378 0.979 . S
H404 C378 0.980 . S
H405 C378 0.983 . S
H406 C377 0.982 . S
H407 C377 0.979 . S
H408 C377 0.977 . S
H409 C379 0.948 . S
H410 C381 0.947 1_556 S
H411 C382 0.948 . S
H412 C388 0.982 . S
H413 C388 0.979 . S
H414 C388 0.977 . S
H415 C389 0.979 . S
H416 C389 0.980 . S
H417 C389 0.983 . S
H418 C362 0.947 . S
C419 C362 1.392 . S
C419 C363 1.419 . S
C419 H401 0.948 . S
C420 C421 1.387 . S
C420 H424 0.950 . S
C420 C429 1.390 . S
C421 C420 1.387 . S
C421 C423 1.387 . S
H422 C429 0.950 . S
C423 C421 1.387 . S
C423 C425 1.390 . S
C423 H427 0.950 . S
H424 C420 0.950 . S
C425 C423 1.390 . S
C425 C426 1.387 . S
C425 H428 0.950 . S
C426 C425 1.387 . S
C426 C429 1.387 . S
H427 C423 0.950 . S
H428 C425 0.950 . S
C429 C420 1.390 . S
C429 H422 0.950 . S
C429 C426 1.387 . S
C430 C431 1.387 . S
C430 H434 0.950 . S
C430 C439 1.390 . S
C431 C430 1.387 . S
C431 C433 1.387 . S
H432 C439 0.950 . S
C433 C431 1.387 . S
C433 C435 1.390 . S
C433 H437 0.950 . S
H434 C430 0.950 . S
C435 C433 1.390 . S
C435 C436 1.387 . S
C435 H438 0.950 . S
C436 C435 1.387 . S
C436 C439 1.387 . S
H437 C433 0.950 . S
H438 C435 0.950 . S
C439 C430 1.390 . S
C439 H432 0.950 . S
C439 C436 1.387 . S
C440 C441 1.387 . S
C440 H444 0.950 . S
C440 C449 1.390 . S
C441 C440 1.387 . S
C441 C443 1.387 . S
H442 C449 0.950 . S
C443 C441 1.387 . S
C443 C445 1.390 . S
C443 H447 0.950 . S
H444 C440 0.950 . S
C445 C443 1.390 . S
C445 C446 1.387 . S
C445 H448 0.950 . S
C446 C445 1.387 . S
C446 C449 1.387 . S
H447 C443 0.950 . S
H448 C445 0.950 . S
C449 C440 1.390 . S
C449 H442 0.950 . S
C449 C446 1.387 . S
C450 C451 1.387 . S
C450 H454 0.950 . S
C450 C459 1.390 . S
C451 C450 1.387 . S
C451 C453 1.387 . S
H452 C459 0.950 . S
C453 C451 1.387 . S
C453 C455 1.390 . S
C453 H457 0.950 . S
H454 C450 0.950 . S
C455 C453 1.390 . S
C455 C456 1.387 . S
C455 H458 0.950 . S
C456 C455 1.387 . S
C456 C459 1.387 . S
H457 C453 0.950 . S
H458 C455 0.950 . S
C459 C450 1.390 . S
C459 H452 0.950 . S
C459 C456 1.387 . S
C460 C461 1.387 . S
C460 H464 0.950 . S
C460 C469 1.390 . S
C461 C460 1.387 . S
C461 C463 1.387 . S
H462 C469 0.950 . S
C463 C461 1.387 . S
C463 C465 1.390 . S
C463 H467 0.950 . S
H464 C460 0.950 . S
C465 C463 1.390 . S
C465 C466 1.387 . S
C465 H468 0.950 . S
C466 C465 1.387 . S
C466 C469 1.387 . S
H467 C463 0.950 . S
H468 C465 0.950 . S
C469 C460 1.390 . S
C469 H462 0.950 . S
C469 C466 1.387 . S
C470 C471 1.387 . S
C470 H474 0.950 . S
C470 C479 1.390 . S
C471 C470 1.387 . S
C471 C473 1.387 . S
H472 C479 0.950 . S
C473 C471 1.387 . S
C473 C475 1.390 . S
C473 H477 0.950 . S
H474 C470 0.950 . S
C475 C473 1.390 . S
C475 C476 1.387 . S
C475 H478 0.950 . S
C476 C475 1.387 . S
C476 C479 1.387 . S
H477 C473 0.950 . S
H478 C475 0.950 . S
C479 C470 1.390 . S
C479 H472 0.950 . S
C479 C476 1.387 . S
C480 C481 1.387 . S
C480 H484 0.950 . S
C480 C489 1.390 . S
C481 C480 1.387 . S
C481 C483 1.387 . S
H482 C489 0.950 . S
C483 C481 1.387 . S
C483 C485 1.390 . S
C483 H487 0.950 . S
H484 C480 0.950 . S
C485 C483 1.390 . S
C485 C486 1.387 . S
C485 H488 0.950 . S
C486 C485 1.387 . S
C486 C489 1.387 . S
H487 C483 0.950 . S
H488 C485 0.950 . S
C489 C480 1.390 . S
C489 H482 0.950 . S
C489 C486 1.387 . S
C490 C491 1.387 . S
C490 H494 0.950 . S
C490 C499 1.390 . S
C491 C490 1.387 . S
C491 C493 1.387 . S
H492 C499 0.950 . S
C493 C491 1.387 . S
C493 C495 1.390 . S
C493 H497 0.950 . S
H494 C490 0.950 . S
C495 C493 1.390 . S
C495 C496 1.387 . S
C495 H498 0.950 . S
C496 C495 1.387 . S
C496 C499 1.387 . S
H497 C493 0.950 . S
H498 C495 0.950 . S
C499 C490 1.390 . S
C499 H492 0.950 . S
C499 C496 1.387 . S
C500 C501 1.387 . S
C500 H504 0.950 . S
C500 C509 1.390 . S
C501 C500 1.387 . S
C501 C503 1.387 . S
H502 C509 0.950 . S
C503 C501 1.387 . S
C503 C505 1.390 . S
C503 H507 0.950 . S
H504 C500 0.950 . S
C505 C503 1.390 . S
C505 C506 1.387 . S
C505 H508 0.950 . S
C506 C505 1.387 . S
C506 C509 1.387 . S
H507 C503 0.950 . S
H508 C505 0.950 . S
C509 C500 1.390 . S
C509 H502 0.950 . S
C509 C506 1.387 . S
C510 C511 1.387 . S
C510 H514 0.950 . S
C510 C519 1.390 . S
C511 C510 1.387 . S
C511 C513 1.387 . S
H512 C519 0.950 . S
C513 C511 1.387 . S
C513 C515 1.390 . S
C513 H517 0.950 . S
H514 C510 0.950 . S
C515 C513 1.390 . S
C515 C516 1.387 . S
C515 H518 0.950 . S
C516 C515 1.387 . S
C516 C519 1.387 . S
H517 C513 0.950 . S
H518 C515 0.950 . S
C519 C510 1.390 . S
C519 H512 0.950 . S
C519 C516 1.387 . S
C520 C521 1.387 . S
C520 H524 0.950 . S
C520 C529 1.390 . S
C521 C520 1.387 . S
C521 C523 1.387 . S
H522 C529 0.950 . S
C523 C521 1.387 . S
C523 C525 1.390 . S
C523 H527 0.950 . S
H524 C520 0.950 . S
C525 C523 1.390 . S
C525 C526 1.387 . S
C525 H528 0.950 . S
C526 C525 1.387 . S
C526 C529 1.387 . S
H527 C523 0.950 . S
H528 C525 0.950 . S
C529 C520 1.390 . S
C529 H522 0.950 . S
C529 C526 1.387 . S
C530 C531 1.387 . S
C530 H534 0.950 . S
C530 C539 1.390 . S
C531 C530 1.387 . S
C531 C533 1.387 . S
H532 C539 0.950 . S
C533 C531 1.387 . S
C533 C535 1.390 . S
C533 H537 0.950 . S
H534 C530 0.950 . S
C535 C533 1.390 . S
C535 C536 1.387 . S
C535 H538 0.950 . S
C536 C535 1.387 . S
C536 C539 1.387 . S
H537 C533 0.950 . S
H538 C535 0.950 . S
C539 C530 1.390 . S
C539 H532 0.950 . S
C539 C536 1.387 . S
C540 C541 1.387 . S
C540 H544 0.950 . S
C540 C549 1.390 . S
C541 C540 1.387 . S
C541 C543 1.387 . S
H542 C549 0.950 . S
C543 C541 1.387 . S
C543 C545 1.390 . S
C543 H547 0.941 1_455 S
H544 C540 0.950 . S
C545 C543 1.390 . S
C545 C546 1.387 . S
C545 H548 0.950 . S
C546 C545 1.387 . S
C546 C549 1.387 . S
H547 C543 0.941 1_655 S
H548 C545 0.950 . S
C549 C540 1.390 . S
C549 H542 0.950 . S
C549 C546 1.387 . S
C550 C551 1.387 . S
C550 H554 0.950 . S
C550 C559 1.390 . S
C551 C550 1.387 . S
C551 C553 1.387 1_545 S
H552 C559 0.950 . S
C553 C551 1.387 1_565 S
C553 C555 1.390 . S
C553 H557 0.950 . S
H554 C550 0.950 . S
C555 C553 1.390 . S
C555 C556 1.387 1_565 S
C555 H558 0.950 . S
C556 C555 1.387 1_545 S
C556 C559 1.387 . S
H557 C553 0.950 . S
H558 C555 0.950 . S
C559 C550 1.390 . S
C559 H552 0.950 . S
C559 C556 1.387 . S
C560 C561 1.387 . S
C560 H564 0.950 . S
C560 C569 1.390 . S
C561 C560 1.387 . S
C561 C563 1.387 . S
H562 C569 0.950 . S
C563 C561 1.387 . S
C563 C565 1.390 . S
C563 H567 0.950 . S
H564 C560 0.950 . S
C565 C563 1.390 . S
C565 C566 1.387 . S
C565 H568 0.950 . S
C566 C565 1.387 . S
C566 C569 1.387 . S
H567 C563 0.950 . S
H568 C565 0.950 . S
C569 C560 1.390 . S
C569 H562 0.950 . S
C569 C566 1.387 . S
C570 C571 1.387 1_565 S
C570 H574 0.950 . S
C570 C579 1.390 1_565 S
C571 C570 1.387 1_545 S
C571 C573 1.387 . S
H572 C579 0.949 1_565 S
C573 C571 1.387 . S
C573 C575 1.390 . S
C573 H577 0.950 . S
H574 C570 0.950 . S
C575 C573 1.390 . S
C575 C576 1.387 . S
C575 H578 0.950 . S
C576 C575 1.387 . S
C576 C579 1.388 . S
H577 C573 0.950 . S
H578 C575 0.950 . S
C579 C570 1.390 1_545 S
C579 H572 0.949 1_545 S
C579 C576 1.388 . S
C580 C581 1.387 . S
C580 H584 0.950 . S
C580 C589 1.390 . S
C581 C580 1.387 . S
C581 C583 1.387 . S
H582 C589 0.950 . S
C583 C581 1.387 . S
C583 C585 1.390 . S
C583 H587 0.950 . S
H584 C580 0.950 . S
C585 C583 1.390 . S
C585 C586 1.387 . S
C585 H588 0.950 . S
C586 C585 1.387 . S
C586 C589 1.387 . S
H587 C583 0.950 . S
H588 C585 0.950 . S
C589 C580 1.390 . S
C589 H582 0.950 . S
C589 C586 1.387 . S
C590 C591 1.387 1_655 S
C590 H594 0.950 . S
C590 C599 1.390 . S
C591 C590 1.387 1_455 S
C591 C593 1.387 . S
H592 C599 0.950 . S
C593 C591 1.387 . S
C593 C595 1.390 . S
C593 H597 0.950 . S
H594 C590 0.950 . S
C595 C593 1.390 . S
C595 C596 1.387 . S
C595 H598 0.950 . S
C596 C595 1.387 . S
C596 C599 1.387 1_455 S
H597 C593 0.950 . S
H598 C595 0.950 . S
C599 C590 1.390 . S
C599 H592 0.950 . S
C599 C596 1.387 1_655 S
C421 C2 1.160 . S
C426 C391 1.166 . S
C431 C21 1.114 . S
C436 C241 1.040 . S
C441 C42 1.160 . S
C446 C301 1.074 . S
C451 C1 1.116 . S
C456 C361 1.041 . S
C466 C271 1.165 . S
C461 C22 1.160 . S
C476 C331 1.113 . S
C471 C41 1.116 . S
C481 C38 2.020 . S
C486 C121 1.830 . S
C491 C59 2.053 . S
C496 C211 2.045 . S
C501 C18 2.020 . S
C506 C91 1.998 . S
C516 C151 2.045 . S
C511 C39 2.052 . S
C526 C181 1.828 . S
C521 C58 2.020 . S
C531 C19 2.052 . S
C536 C61 1.872 . S
C546 C200 1.557 . S
C541 C9 1.508 . S
C551 C29 1.509 . S
C556 C80 1.548 . S
C561 C49 1.509 . S
C566 C140 1.557 . S
C576 C320 1.360 . S
C571 C28 1.363 . S
C586 C380 1.373 . S
C581 C48 1.363 . S
C591 C8 1.365 . S
C596 C260 1.374 . S
