# Generated by pormake.
# Topology ssb, (4,4)-cn, num edge types: 1
# Building blocks:
#     Node 0, Type 0, BuildingBlock: NAHDIM_clean_linker_0, # of connection points: 4
#     Node 1, Type 0, BuildingBlock: NAHDIM_clean_linker_0, # of connection points: 4
#     Node 2, Type 0, BuildingBlock: NAHDIM_clean_linker_0, # of connection points: 4
#     Node 3, Type 0, BuildingBlock: NAHDIM_clean_linker_0, # of connection points: 4
#     Node 4, Type 0, BuildingBlock: NAHDIM_clean_linker_0, # of connection points: 4
#     Node 5, Type 0, BuildingBlock: NAHDIM_clean_linker_0, # of connection points: 4
#     Node 6, Type 0, BuildingBlock: NAHDIM_clean_linker_0, # of connection points: 4
#     Node 7, Type 0, BuildingBlock: NAHDIM_clean_linker_0, # of connection points: 4
#     Node 8, Type 1, BuildingBlock: NAWXER_clean_sbu_0, # of connection points: 4
#     Node 9, Type 1, BuildingBlock: NAWXER_clean_sbu_0, # of connection points: 4
#     Node 10, Type 1, BuildingBlock: NAWXER_clean_sbu_0, # of connection points: 4
#     Node 11, Type 1, BuildingBlock: NAWXER_clean_sbu_0, # of connection points: 4
#     Node 12, Type 1, BuildingBlock: NAWXER_clean_sbu_0, # of connection points: 4
#     Node 13, Type 1, BuildingBlock: NAWXER_clean_sbu_0, # of connection points: 4
#     Node 14, Type 1, BuildingBlock: NAWXER_clean_sbu_0, # of connection points: 4
#     Node 15, Type 1, BuildingBlock: NAWXER_clean_sbu_0, # of connection points: 4
#     Edge 16, Type (0, 1), BuildingBlock: AJUNOK_clean_linker_0, # of connection points: 2
#     Edge 17, Type (0, 1), BuildingBlock: AJUNOK_clean_linker_0, # of connection points: 2
#     Edge 18, Type (0, 1), BuildingBlock: AJUNOK_clean_linker_0, # of connection points: 2
#     Edge 19, Type (0, 1), BuildingBlock: AJUNOK_clean_linker_0, # of connection points: 2
#     Edge 20, Type (0, 1), BuildingBlock: AJUNOK_clean_linker_0, # of connection points: 2
#     Edge 21, Type (0, 1), BuildingBlock: AJUNOK_clean_linker_0, # of connection points: 2
#     Edge 22, Type (0, 1), BuildingBlock: AJUNOK_clean_linker_0, # of connection points: 2
#     Edge 23, Type (0, 1), BuildingBlock: AJUNOK_clean_linker_0, # of connection points: 2
#     Edge 24, Type (0, 1), BuildingBlock: AJUNOK_clean_linker_0, # of connection points: 2
#     Edge 25, Type (0, 1), BuildingBlock: AJUNOK_clean_linker_0, # of connection points: 2
#     Edge 26, Type (0, 1), BuildingBlock: AJUNOK_clean_linker_0, # of connection points: 2
#     Edge 27, Type (0, 1), BuildingBlock: AJUNOK_clean_linker_0, # of connection points: 2
#     Edge 28, Type (0, 1), BuildingBlock: AJUNOK_clean_linker_0, # of connection points: 2
#     Edge 29, Type (0, 1), BuildingBlock: AJUNOK_clean_linker_0, # of connection points: 2
#     Edge 30, Type (0, 1), BuildingBlock: AJUNOK_clean_linker_0, # of connection points: 2
#     Edge 31, Type (0, 1), BuildingBlock: AJUNOK_clean_linker_0, # of connection points: 2
#     Edge 32, Type (0, 1), BuildingBlock: AJUNOK_clean_linker_0, # of connection points: 2
#     Edge 33, Type (0, 1), BuildingBlock: AJUNOK_clean_linker_0, # of connection points: 2
#     Edge 34, Type (0, 1), BuildingBlock: AJUNOK_clean_linker_0, # of connection points: 2
#     Edge 35, Type (0, 1), BuildingBlock: AJUNOK_clean_linker_0, # of connection points: 2
#     Edge 36, Type (0, 1), BuildingBlock: AJUNOK_clean_linker_0, # of connection points: 2
#     Edge 37, Type (0, 1), BuildingBlock: AJUNOK_clean_linker_0, # of connection points: 2
#     Edge 38, Type (0, 1), BuildingBlock: AJUNOK_clean_linker_0, # of connection points: 2
#     Edge 39, Type (0, 1), BuildingBlock: AJUNOK_clean_linker_0, # of connection points: 2
#     Edge 40, Type (0, 1), BuildingBlock: AJUNOK_clean_linker_0, # of connection points: 2
#     Edge 41, Type (0, 1), BuildingBlock: AJUNOK_clean_linker_0, # of connection points: 2
#     Edge 42, Type (0, 1), BuildingBlock: AJUNOK_clean_linker_0, # of connection points: 2
#     Edge 43, Type (0, 1), BuildingBlock: AJUNOK_clean_linker_0, # of connection points: 2
#     Edge 44, Type (0, 1), BuildingBlock: AJUNOK_clean_linker_0, # of connection points: 2
#     Edge 45, Type (0, 1), BuildingBlock: AJUNOK_clean_linker_0, # of connection points: 2
#     Edge 46, Type (0, 1), BuildingBlock: AJUNOK_clean_linker_0, # of connection points: 2
#     Edge 47, Type (0, 1), BuildingBlock: AJUNOK_clean_linker_0, # of connection points: 2
# Relax obj value: 0.006
# Max RMSD: 0.044
# Mean RMSD: 0.034
data_MOF--net-ssb--node1-NAWXER_clean_sbu_0--node2-NAHDIM_clean_linker_0--edge1-AJUNOK_clean_linker_0
_symmetry_space_group_name_H-M    P1
_symmetry_Int_Tables_number       1
_symmetry_cell_setting            triclinic
loop_
_symmetry_equiv_pos_as_xyz
'x, y, z'
_cell_length_a     50.473535
_cell_length_b     50.477835
_cell_length_c     43.322774
_cell_angle_alpha  89.920859
_cell_angle_beta   90.001845
_cell_angle_gamma 90.007669
loop_
_atom_site_label
_atom_site_type_symbol
_atom_site_fract_x
_atom_site_fract_y
_atom_site_fract_z
_atom_type_partial_charge
C0 C 0.31159 0.06996 0.31543 0.0
C1 C 0.30488 0.09038 0.34029 0.0
C2 C 0.28239 0.12914 0.32014 0.0
C3 C 0.29545 0.14984 0.33542 0.0
C4 C 0.29568 0.17554 0.32295 0.0
C5 C 0.28277 0.18046 0.29451 0.0
C6 C 0.26947 0.15953 0.27918 0.0
C7 C 0.26904 0.13422 0.29257 0.0
C8 C 0.30958 0.19746 0.3402 0.0
C9 C 0.25589 0.16382 0.24853 0.0
C10 C 0.4438 0.23876 0.21393 0.0
C11 C 0.42261 0.23695 0.18878 0.0
C12 C 0.38028 0.255 0.20376 0.0
C13 C 0.36199 0.23772 0.19021 0.0
C14 C 0.33709 0.23349 0.20374 0.0
C15 C 0.33066 0.24651 0.23171 0.0
C16 C 0.34891 0.26459 0.2449 0.0
C17 C 0.37337 0.26897 0.23034 0.0
C18 C 0.31794 0.21461 0.18855 0.0
C19 C 0.34302 0.2785 0.27494 0.0
C20 C 0.20671 0.36995 0.18464 0.0
C21 C 0.19602 0.345 0.17736 0.0
C22 C 0.19866 0.32352 0.19767 0.0
C23 C 0.2111 0.32726 0.22661 0.0
C24 C 0.2208 0.35263 0.23469 0.0
C25 C 0.21869 0.37359 0.21343 0.0
C26 C 0.18816 0.29679 0.18798 0.0
C27 C 0.23372 0.35746 0.26556 0.0
C28 C 0.09277 0.18788 0.36887 0.0
C29 C 0.10716 0.21435 0.37294 0.0
C30 C 0.1255 0.24134 0.33116 0.0
C31 C 0.12606 0.24173 0.29901 0.0
C32 C 0.1473 0.25321 0.28304 0.0
C33 C 0.16795 0.26558 0.29983 0.0
C34 C 0.16625 0.26725 0.33244 0.0
C35 C 0.1452 0.25471 0.34785 0.0
C36 C 0.14776 0.25155 0.24827 0.0
C37 C 0.18717 0.28137 0.35106 0.0
C38 C 0.28292 0.20744 0.28074 0.0
C39 C 0.30537 0.21547 0.26439 0.0
C40 C 0.30589 0.23956 0.24839 0.0
C41 C 0.28323 0.25607 0.24833 0.0
C42 C 0.28235 0.27958 0.23092 0.0
C43 C 0.25979 0.29548 0.23079 0.0
C44 C 0.23736 0.28868 0.2484 0.0
C45 C 0.21413 0.30443 0.24802 0.0
C46 C 0.19225 0.29706 0.26595 0.0
C47 C 0.19256 0.27385 0.28362 0.0
C48 C 0.21536 0.25753 0.28364 0.0
C49 C 0.21593 0.23345 0.30006 0.0
C50 C 0.23815 0.21727 0.29953 0.0
C51 C 0.26063 0.22431 0.28228 0.0
C52 C 0.26067 0.24859 0.26578 0.0
C53 C 0.23789 0.26511 0.26622 0.0
C54 C 0.21791 0.37459 0.11391 0.0
C55 C 0.19827 0.39039 0.1339 0.0
O56 O 0.28232 0.10412 0.33158 0.0
O57 O 0.10558 0.22793 0.34518 0.0
O58 O 0.2063 0.39076 0.16455 0.0
O59 O 0.40497 0.25781 0.19197 0.0
H60 H 0.32212 0.10407 0.34178 0.0
H61 H 0.3154 0.08018 0.29315 0.0
H62 H 0.29493 0.05584 0.31217 0.0
H63 H 0.32968 0.05873 0.32195 0.0
H64 H 0.3052 0.14592 0.35724 0.0
H65 H 0.25888 0.11807 0.28113 0.0
H66 H 0.3268 0.20448 0.3265 0.0
H67 H 0.31675 0.19091 0.36322 0.0
H68 H 0.29597 0.21454 0.34328 0.0
H69 H 0.24959 0.14488 0.23775 0.0
H70 H 0.26929 0.1744 0.23233 0.0
H71 H 0.23806 0.17635 0.2519 0.0
H72 H 0.41219 0.21767 0.19222 0.0
H73 H 0.45808 0.22212 0.21176 0.0
H74 H 0.43432 0.23752 0.23703 0.0
H75 H 0.45476 0.2578 0.21239 0.0
H76 H 0.3674 0.22736 0.16924 0.0
H77 H 0.38771 0.2824 0.24042 0.0
H78 H 0.2977 0.22323 0.18812 0.0
H79 H 0.31707 0.19595 0.2021 0.0
H80 H 0.32397 0.20969 0.16457 0.0
H81 H 0.36022 0.29015 0.28343 0.0
H82 H 0.33739 0.26381 0.29289 0.0
H83 H 0.32601 0.29215 0.27179 0.0
H84 H 0.17834 0.38108 0.13234 0.0
H85 H 0.18586 0.34189 0.15571 0.0
H86 H 0.22663 0.39293 0.21909 0.0
H87 H 0.20282 0.28096 0.19299 0.0
H88 H 0.18317 0.29614 0.16302 0.0
H89 H 0.16995 0.29239 0.20131 0.0
H90 H 0.23832 0.37873 0.26933 0.0
H91 H 0.25242 0.34595 0.26704 0.0
H92 H 0.22054 0.35045 0.28441 0.0
H93 H 0.12822 0.20983 0.37861 0.0
H94 H 0.09454 0.17539 0.38988 0.0
H95 H 0.10166 0.17679 0.34931 0.0
H96 H 0.07144 0.19123 0.36383 0.0
H97 H 0.11031 0.2319 0.28643 0.0
H98 H 0.14421 0.25529 0.37281 0.0
H99 H 0.16766 0.24564 0.23978 0.0
H100 H 0.14309 0.27138 0.23868 0.0
H101 H 0.13291 0.23726 0.23927 0.0
H102 H 0.18023 0.28582 0.37483 0.0
H103 H 0.19306 0.30016 0.3396 0.0
H104 H 0.20505 0.26865 0.35276 0.0
H105 H 0.32254 0.20255 0.26365 0.0
H106 H 0.29902 0.2858 0.21694 0.0
H107 H 0.26019 0.31322 0.21672 0.0
H108 H 0.1744 0.30903 0.26525 0.0
H109 H 0.19914 0.22663 0.3134 0.0
H110 H 0.23741 0.19905 0.31272 0.0
H111 H 0.21186 0.37541 0.08926 0.0
H112 H 0.21854 0.35346 0.12076 0.0
H113 H 0.23827 0.38274 0.11607 0.0
C114 C 0.62365 0.12699 0.15795 0.0
C115 C 0.62352 0.15692 0.15202 0.0
C116 C 0.66427 0.18133 0.16134 0.0
C117 C 0.65388 0.20341 0.17683 0.0
C118 C 0.6695 0.21778 0.19776 0.0
C119 C 0.69598 0.20986 0.20321 0.0
C120 C 0.70705 0.18889 0.18577 0.0
C121 C 0.69105 0.17507 0.16471 0.0
C122 C 0.6573 0.24058 0.21516 0.0
C123 C 0.73529 0.18006 0.19072 0.0
C124 C 0.69383 0.17552 0.4484 0.0
C125 C 0.70217 0.1592 0.42024 0.0
C126 C 0.69427 0.17744 0.36919 0.0
C127 C 0.71689 0.16868 0.35338 0.0
C128 C 0.72533 0.18137 0.32621 0.0
C129 C 0.71104 0.20352 0.31498 0.0
C130 C 0.68811 0.21223 0.33086 0.0
C131 C 0.67981 0.19877 0.35754 0.0
C132 C 0.74921 0.17083 0.30925 0.0
C133 C 0.67223 0.23561 0.31951 0.0
C134 C 0.86546 0.29862 0.34136 0.0
C135 C 0.86403 0.27691 0.32102 0.0
C136 C 0.84311 0.27435 0.29999 0.0
C137 C 0.82289 0.29375 0.29925 0.0
C138 C 0.82406 0.31556 0.31966 0.0
C139 C 0.84541 0.31774 0.3404 0.0
C140 C 0.84284 0.25098 0.27821 0.0
C141 C 0.80283 0.33656 0.31944 0.0
C142 C 0.80522 0.34783 0.06319 0.0
C143 C 0.79914 0.36537 0.09108 0.0
C144 C 0.80904 0.34471 0.14041 0.0
C145 C 0.82479 0.32339 0.14952 0.0
C146 C 0.81812 0.30805 0.17542 0.0
C147 C 0.79557 0.31488 0.1932 0.0
C148 C 0.7799 0.33692 0.18443 0.0
C149 C 0.78671 0.3515 0.15795 0.0
C150 C 0.83534 0.2847 0.18388 0.0
C151 C 0.75629 0.34541 0.20337 0.0
C152 C 0.71058 0.22051 0.23025 0.0
C153 C 0.70519 0.20889 0.25886 0.0
C154 C 0.71882 0.21644 0.28546 0.0
C155 C 0.73901 0.23583 0.2835 0.0
C156 C 0.75404 0.24311 0.30948 0.0
C157 C 0.77461 0.26138 0.30696 0.0
C158 C 0.78027 0.27377 0.27863 0.0
C159 C 0.80164 0.2917 0.27562 0.0
C160 C 0.80542 0.30523 0.24783 0.0
C161 C 0.78953 0.30012 0.22208 0.0
C162 C 0.7694 0.28062 0.22392 0.0
C163 C 0.75439 0.27334 0.19791 0.0
C164 C 0.73507 0.25366 0.19988 0.0
C165 C 0.72984 0.24077 0.22801 0.0
C166 C 0.74436 0.24818 0.25469 0.0
C167 C 0.76451 0.26773 0.25248 0.0
C168 C 0.89465 0.26051 0.38762 0.0
C169 C 0.9056 0.28362 0.36837 0.0
O170 O 0.64876 0.16526 0.14386 0.0
O171 O 0.81613 0.35879 0.11502 0.0
O172 O 0.8856 0.30176 0.36211 0.0
O173 O 0.68589 0.16551 0.39555 0.0
H174 H 0.61738 0.16584 0.17442 0.0
H175 H 0.63595 0.1226 0.17861 0.0
H176 H 0.63216 0.11589 0.13823 0.0
H177 H 0.60321 0.11976 0.16244 0.0
H178 H 0.63341 0.20904 0.17313 0.0
H179 H 0.69899 0.15832 0.15212 0.0
H180 H 0.65325 0.23429 0.23927 0.0
H181 H 0.63837 0.24721 0.20458 0.0
H182 H 0.67123 0.25759 0.21602 0.0
H183 H 0.74121 0.16407 0.17452 0.0
H184 H 0.73771 0.17272 0.21473 0.0
H185 H 0.74893 0.19711 0.18767 0.0
H186 H 0.72293 0.16539 0.41541 0.0
H187 H 0.70591 0.16993 0.46885 0.0
H188 H 0.67253 0.17259 0.45384 0.0
H189 H 0.69703 0.19691 0.44363 0.0
H190 H 0.72762 0.15164 0.36197 0.0
H191 H 0.66222 0.20519 0.36979 0.0
H192 H 0.74394 0.16659 0.28486 0.0
H193 H 0.75716 0.15248 0.31997 0.0
H194 H 0.76509 0.18604 0.30907 0.0
H195 H 0.65704 0.24198 0.3365 0.0
H196 H 0.66206 0.23021 0.2977 0.0
H197 H 0.68554 0.25261 0.31448 0.0
H198 H 0.91362 0.27596 0.34624 0.0
H199 H 0.87916 0.26178 0.32112 0.0
H200 H 0.84652 0.33443 0.35607 0.0
H201 H 0.82548 0.23822 0.28336 0.0
H202 H 0.86105 0.23872 0.28011 0.0
H203 H 0.84089 0.25792 0.25399 0.0
H204 H 0.80533 0.35105 0.3385 0.0
H205 H 0.78299 0.32718 0.32146 0.0
H206 H 0.80339 0.34738 0.29712 0.0
H207 H 0.7782 0.36123 0.09768 0.0
H208 H 0.79172 0.35273 0.04373 0.0
H209 H 0.80224 0.32669 0.06943 0.0
H210 H 0.82605 0.35048 0.0555 0.0
H211 H 0.84215 0.31852 0.13593 0.0
H212 H 0.77499 0.36857 0.15132 0.0
H213 H 0.82295 0.26721 0.18969 0.0
H214 H 0.84728 0.28973 0.20458 0.0
H215 H 0.84913 0.27926 0.16493 0.0
H216 H 0.7475 0.36424 0.19489 0.0
H217 H 0.76218 0.34798 0.22789 0.0
H218 H 0.74086 0.32977 0.20258 0.0
H219 H 0.69016 0.19355 0.26043 0.0
H220 H 0.7504 0.23434 0.3319 0.0
H221 H 0.78592 0.26591 0.32754 0.0
H222 H 0.82172 0.31916 0.24582 0.0
H223 H 0.75766 0.28256 0.17565 0.0
H224 H 0.72424 0.24866 0.17911 0.0
H225 H 0.91056 0.24588 0.39253 0.0
H226 H 0.8786 0.25006 0.3751 0.0
H227 H 0.8865 0.26786 0.40985 0.0
C228 C 0.73398 0.93415 0.30849 0.0
C229 C 0.72967 0.91501 0.33545 0.0
C230 C 0.74195 0.87019 0.32249 0.0
C231 C 0.72221 0.8546 0.33613 0.0
C232 C 0.71539 0.82988 0.32358 0.0
C233 C 0.72831 0.82095 0.2965 0.0
C234 C 0.74855 0.83665 0.28299 0.0
C235 C 0.75548 0.86087 0.29663 0.0
C236 C 0.6942 0.8135 0.33907 0.0
C237 C 0.76239 0.82826 0.25369 0.0
C238 C 0.5498 0.80618 0.20501 0.0
C239 C 0.57361 0.80098 0.18403 0.0
C240 C 0.61095 0.77674 0.20534 0.0
C241 C 0.63216 0.79036 0.19169 0.0
C242 C 0.65759 0.78945 0.20484 0.0
C243 C 0.66169 0.77485 0.23236 0.0
C244 C 0.6403 0.76082 0.24588 0.0
C245 C 0.6153 0.76155 0.23177 0.0
C246 C 0.68004 0.80403 0.18931 0.0
C247 C 0.64369 0.74533 0.27545 0.0
C248 C 0.73349 0.62642 0.17344 0.0
C249 C 0.74991 0.64778 0.16529 0.0
C250 C 0.75845 0.66601 0.18754 0.0
C251 C 0.75031 0.66287 0.21855 0.0
C252 C 0.73514 0.6405 0.2272 0.0
C253 C 0.72716 0.62236 0.20448 0.0
C254 C 0.77538 0.68919 0.1777 0.0
C255 C 0.72649 0.63639 0.26018 0.0
C256 C 0.85261 0.70069 0.41661 0.0
C257 C 0.86973 0.68473 0.39391 0.0
C258 C 0.8487 0.69604 0.34423 0.0
C259 C 0.85176 0.71034 0.31682 0.0
C260 C 0.83109 0.71221 0.29524 0.0
C261 C 0.80649 0.69994 0.30171 0.0
C262 C 0.80346 0.6848 0.32898 0.0
C263 C 0.82471 0.68264 0.3497 0.0
C264 C 0.83538 0.72768 0.26584 0.0
C265 C 0.7776 0.6712 0.3365 0.0
C266 C 0.71985 0.79596 0.2813 0.0
C267 C 0.69617 0.79621 0.26449 0.0
C268 C 0.68822 0.77423 0.24722 0.0
C269 C 0.70491 0.75183 0.24536 0.0
C270 C 0.69871 0.73038 0.22602 0.0
C271 C 0.71519 0.70837 0.22446 0.0
C272 C 0.73833 0.70678 0.2425 0.0
C273 C 0.75523 0.68449 0.24098 0.0
C274 C 0.77749 0.68301 0.26008 0.0
C275 C 0.7836 0.70352 0.28058 0.0
C276 C 0.76753 0.72651 0.28149 0.0
C277 C 0.77348 0.74791 0.30111 0.0
C278 C 0.75797 0.77073 0.30105 0.0
C279 C 0.73549 0.77272 0.28204 0.0
C280 C 0.72837 0.75087 0.2633 0.0
C281 C 0.74477 0.72804 0.26243 0.0
C282 C 0.68476 0.61683 0.12218 0.0
C283 C 0.71513 0.61572 0.12264 0.0
O284 O 0.74788 0.89452 0.33367 0.0
O285 O 0.86914 0.69611 0.36475 0.0
O286 O 0.72361 0.60929 0.15217 0.0
O287 O 0.58609 0.77793 0.19355 0.0
H288 H 0.70912 0.90712 0.33314 0.0
H289 H 0.73106 0.92354 0.2863 0.0
H290 H 0.75437 0.94242 0.30884 0.0
H291 H 0.7195 0.9507 0.30962 0.0
H292 H 0.71217 0.86185 0.35655 0.0
H293 H 0.77078 0.87315 0.28645 0.0
H294 H 0.67596 0.81388 0.32477 0.0
H295 H 0.68924 0.8211 0.36242 0.0
H296 H 0.70068 0.79254 0.34111 0.0
H297 H 0.77474 0.84441 0.24381 0.0
H298 H 0.74769 0.82198 0.23608 0.0
H299 H 0.77545 0.81109 0.25859 0.0
H300 H 0.58707 0.81828 0.1868 0.0
H301 H 0.53947 0.82463 0.19786 0.0
H302 H 0.55662 0.8086 0.22923 0.0
H303 H 0.53559 0.78938 0.20415 0.0
H304 H 0.62886 0.80151 0.17064 0.0
H305 H 0.59878 0.75092 0.2419 0.0
H306 H 0.6974 0.79072 0.18663 0.0
H307 H 0.68626 0.82093 0.20399 0.0
H308 H 0.67433 0.81181 0.16625 0.0
H309 H 0.62441 0.7388 0.28523 0.0
H310 H 0.6542 0.75747 0.29297 0.0
H311 H 0.65591 0.72748 0.27093 0.0
H312 H 0.72151 0.63595 0.11576 0.0
H313 H 0.7561 0.65048 0.14165 0.0
H314 H 0.71499 0.60548 0.21068 0.0
H315 H 0.76358 0.7077 0.17921 0.0
H316 H 0.78274 0.68707 0.15366 0.0
H317 H 0.79262 0.69131 0.19344 0.0
H318 H 0.71522 0.61767 0.2633 0.0
H319 H 0.71385 0.65323 0.26758 0.0
H320 H 0.74411 0.636 0.2755 0.0
H321 H 0.86207 0.66414 0.39249 0.0
H322 H 0.854 0.69199 0.44014 0.0
H323 H 0.83147 0.70046 0.40973 0.0
H324 H 0.85922 0.72167 0.41753 0.0
H325 H 0.87043 0.7203 0.3125 0.0
H326 H 0.82214 0.67078 0.37028 0.0
H327 H 0.82372 0.7463 0.2667 0.0
H328 H 0.82832 0.71611 0.24566 0.0
H329 H 0.85656 0.73286 0.2623 0.0
H330 H 0.7777 0.66205 0.35984 0.0
H331 H 0.77374 0.65545 0.31923 0.0
H332 H 0.761 0.68559 0.3352 0.0
H333 H 0.68378 0.81377 0.26483 0.0
H334 H 0.68118 0.73048 0.21163 0.0
H335 H 0.70939 0.69252 0.20906 0.0
H336 H 0.79015 0.66567 0.25905 0.0
H337 H 0.79042 0.74745 0.31642 0.0
H338 H 0.76368 0.78674 0.31628 0.0
H339 H 0.67736 0.61909 0.09817 0.0
H340 H 0.67791 0.63416 0.13581 0.0
H341 H 0.67601 0.59881 0.13279 0.0
C342 C 0.3678 0.90784 0.09772 0.0
C343 C 0.37683 0.8826 0.11422 0.0
C344 C 0.34786 0.85407 0.1446 0.0
C345 C 0.36631 0.84085 0.16325 0.0
C346 C 0.35817 0.82771 0.19029 0.0
C347 C 0.33114 0.8286 0.19921 0.0
C348 C 0.31266 0.84246 0.18049 0.0
C349 C 0.32121 0.85429 0.15297 0.0
C350 C 0.37844 0.81282 0.20911 0.0
C351 C 0.28385 0.84518 0.18948 0.0
C352 C 0.35892 0.8367 0.45057 0.0
C353 C 0.34524 0.85279 0.42521 0.0
C354 C 0.35009 0.84468 0.37042 0.0
C355 C 0.32659 0.85591 0.35909 0.0
C356 C 0.31613 0.84798 0.33049 0.0
C357 C 0.32901 0.82774 0.31356 0.0
C358 C 0.35304 0.81684 0.32478 0.0
C359 C 0.36351 0.82586 0.35284 0.0
C360 C 0.2913 0.86108 0.31852 0.0
C361 C 0.36751 0.79538 0.30734 0.0
C362 C 0.16916 0.74453 0.34335 0.0
C363 C 0.17386 0.7664 0.32397 0.0
C364 C 0.19459 0.76617 0.30241 0.0
C365 C 0.21174 0.74398 0.3008 0.0
C366 C 0.20721 0.72196 0.32036 0.0
C367 C 0.18572 0.72239 0.34104 0.0
C368 C 0.19777 0.78965 0.28102 0.0
C369 C 0.22511 0.69804 0.31953 0.0
C370 C 0.27092 0.67827 0.07235 0.0
C371 C 0.26489 0.66136 0.10082 0.0
C372 C 0.24302 0.68492 0.14318 0.0
C373 C 0.22578 0.70634 0.14694 0.0
C374 C 0.22605 0.72152 0.17406 0.0
C375 C 0.24375 0.71471 0.19811 0.0
C376 C 0.26006 0.69205 0.19518 0.0
C377 C 0.25945 0.6773 0.16776 0.0
C378 C 0.20819 0.74537 0.17662 0.0
C379 C 0.27859 0.68379 0.22078 0.0
C380 C 0.32194 0.81551 0.22811 0.0
C381 C 0.32882 0.82689 0.25644 0.0
C382 C 0.31775 0.81774 0.28411 0.0
C383 C 0.29753 0.7983 0.28332 0.0
C384 C 0.28345 0.79085 0.31002 0.0
C385 C 0.26227 0.77315 0.30826 0.0
C386 C 0.25566 0.76088 0.28018 0.0
C387 C 0.23354 0.74377 0.27762 0.0
C388 C 0.23 0.72896 0.2506 0.0
C389 C 0.24689 0.73231 0.22527 0.0
C390 C 0.2666 0.7522 0.226 0.0
C391 C 0.28158 0.75863 0.19963 0.0
C392 C 0.29982 0.77931 0.20024 0.0
C393 C 0.30453 0.79357 0.22755 0.0
C394 C 0.29122 0.78595 0.25492 0.0
C395 C 0.27129 0.76617 0.25377 0.0
C396 C 0.15405 0.77936 0.40026 0.0
C397 C 0.13586 0.76553 0.37695 0.0
O398 O 0.35499 0.86632 0.11802 0.0
O399 O 0.24296 0.6719 0.11578 0.0
O400 O 0.14893 0.74388 0.36425 0.0
O401 O 0.36008 0.85143 0.39838 0.0
H402 H 0.38471 0.88866 0.13721 0.0
H403 H 0.35178 0.91753 0.11119 0.0
H404 H 0.36008 0.90309 0.07434 0.0
H405 H 0.38446 0.9221 0.09549 0.0
H406 H 0.38693 0.84034 0.15631 0.0
H407 H 0.30718 0.86452 0.13823 0.0
H408 H 0.38342 0.82453 0.22999 0.0
H409 H 0.397 0.80935 0.19594 0.0
H410 H 0.37042 0.79342 0.21684 0.0
H411 H 0.27408 0.86178 0.17705 0.0
H412 H 0.28172 0.84853 0.21468 0.0
H413 H 0.27315 0.82668 0.18352 0.0
H414 H 0.32559 0.84315 0.42155 0.0
H415 H 0.34732 0.83772 0.47234 0.0
H416 H 0.37928 0.8441 0.45498 0.0
H417 H 0.36027 0.81562 0.44344 0.0
H418 H 0.3166 0.87099 0.37252 0.0
H419 H 0.38178 0.81756 0.36176 0.0
H420 H 0.29377 0.86665 0.29387 0.0
H421 H 0.28611 0.87909 0.33194 0.0
H422 H 0.27449 0.84698 0.31999 0.0
H423 H 0.38455 0.7873 0.32059 0.0
H424 H 0.37503 0.80352 0.28521 0.0
H425 H 0.35375 0.7789 0.30177 0.0
H426 H 0.13031 0.77969 0.35845 0.0
H427 H 0.16124 0.78365 0.32494 0.0
H428 H 0.182 0.70553 0.35595 0.0
H429 H 0.2152 0.80149 0.2883 0.0
H430 H 0.18014 0.80281 0.28127 0.0
H431 H 0.20122 0.78297 0.25693 0.0
H432 H 0.22139 0.6844 0.33921 0.0
H433 H 0.24621 0.70429 0.31997 0.0
H434 H 0.22176 0.68702 0.29773 0.0
H435 H 0.28274 0.6621 0.1158 0.0
H436 H 0.28858 0.67048 0.06003 0.0
H437 H 0.27513 0.69898 0.07949 0.0
H438 H 0.25375 0.6784 0.05628 0.0
H439 H 0.21273 0.71168 0.12806 0.0
H440 H 0.27178 0.65985 0.16566 0.0
H441 H 0.22039 0.76356 0.17903 0.0
H442 H 0.19571 0.74367 0.19764 0.0
H443 H 0.19507 0.74763 0.15619 0.0
H444 H 0.28828 0.66445 0.21605 0.0
H445 H 0.26758 0.68236 0.24292 0.0
H446 H 0.29421 0.69907 0.22369 0.0
H447 H 0.34295 0.84308 0.25702 0.0
H448 H 0.28796 0.79937 0.33231 0.0
H449 H 0.25133 0.76885 0.32918 0.0
H450 H 0.21357 0.71519 0.24894 0.0
H451 H 0.27875 0.74837 0.17796 0.0
H452 H 0.31031 0.78394 0.1791 0.0
H453 H 0.15979 0.7654 0.41897 0.0
H454 H 0.14398 0.79677 0.41065 0.0
H455 H 0.17231 0.78649 0.38863 0.0
C456 C 0.17384 0.67414 0.56916 0.0
C457 C 0.14918 0.67595 0.58983 0.0
C458 C 0.16159 0.69952 0.63756 0.0
C459 C 0.15399 0.7207 0.65625 0.0
C460 C 0.16536 0.72454 0.68541 0.0
C461 C 0.18606 0.7076 0.69523 0.0
C462 C 0.19363 0.68586 0.67653 0.0
C463 C 0.1808 0.68164 0.64824 0.0
C464 C 0.15558 0.74709 0.70524 0.0
C465 C 0.21545 0.66712 0.68611 0.0
C466 C 0.17904 0.58988 0.90477 0.0
C467 C 0.17989 0.60186 0.8732 0.0
C468 C 0.18686 0.64566 0.84984 0.0
C469 C 0.20048 0.63642 0.82366 0.0
C470 C 0.20937 0.65398 0.80084 0.0
C471 C 0.20311 0.68125 0.80309 0.0
C472 C 0.18862 0.69054 0.82894 0.0
C473 C 0.18133 0.67268 0.85234 0.0
C474 C 0.225 0.64294 0.77407 0.0
C475 C 0.18032 0.71918 0.83171 0.0
C476 C 0.34634 0.77983 0.85878 0.0
C477 C 0.3491 0.76231 0.83387 0.0
C478 C 0.33065 0.76223 0.80963 0.0
C479 C 0.3088 0.77982 0.8105 0.0
C480 C 0.30631 0.79791 0.83526 0.0
C481 C 0.32537 0.79791 0.85888 0.0
C482 C 0.33462 0.74337 0.78299 0.0
C483 C 0.28335 0.817 0.83695 0.0
C484 C 0.22847 0.8666 0.61569 0.0
C485 C 0.2452 0.88793 0.63171 0.0
C486 C 0.26964 0.85904 0.66772 0.0
C487 C 0.29176 0.84242 0.66915 0.0
C488 C 0.29382 0.82257 0.6918 0.0
C489 C 0.27354 0.81988 0.71411 0.0
C490 C 0.25186 0.83772 0.7139 0.0
C491 C 0.24995 0.85686 0.69049 0.0
C492 C 0.31718 0.80393 0.6912 0.0
C493 C 0.23028 0.83623 0.738 0.0
C494 C 0.2005 0.71306 0.7244 0.0
C495 C 0.19546 0.69681 0.74983 0.0
C496 C 0.20981 0.6995 0.77728 0.0
C497 C 0.22995 0.71895 0.77943 0.0
C498 C 0.2461 0.72117 0.80578 0.0
C499 C 0.26553 0.74073 0.80774 0.0
C500 C 0.26933 0.75901 0.78358 0.0
C501 C 0.28878 0.77919 0.78536 0.0
C502 C 0.29013 0.79857 0.76223 0.0
C503 C 0.27369 0.79734 0.73628 0.0
C504 C 0.25637 0.77557 0.73254 0.0
C505 C 0.24205 0.77189 0.70506 0.0
C506 C 0.22444 0.75091 0.70194 0.0
C507 C 0.21952 0.73353 0.7267 0.0
C508 C 0.2342 0.73653 0.75436 0.0
C509 C 0.25333 0.75703 0.75684 0.0
C510 C 0.35324 0.74698 0.91982 0.0
C511 C 0.37404 0.75811 0.89756 0.0
O512 O 0.15054 0.69778 0.6091 0.0
O513 O 0.26802 0.87664 0.64396 0.0
O514 O 0.36381 0.78023 0.88264 0.0
O515 O 0.17897 0.62936 0.87318 0.0
H516 H 0.14768 0.65752 0.60389 0.0
H517 H 0.19196 0.67107 0.58312 0.0
H518 H 0.17663 0.69251 0.55543 0.0
H519 H 0.17192 0.65711 0.55309 0.0
H520 H 0.13891 0.73423 0.64791 0.0
H521 H 0.18644 0.6648 0.63436 0.0
H522 H 0.15498 0.74125 0.72996 0.0
H523 H 0.1355 0.75373 0.69814 0.0
H524 H 0.16926 0.76418 0.70294 0.0
H525 H 0.22265 0.65495 0.66648 0.0
H526 H 0.2077 0.65353 0.70406 0.0
H527 H 0.23251 0.67809 0.69604 0.0
H528 H 0.16617 0.59297 0.8559 0.0
H529 H 0.15991 0.57843 0.90555 0.0
H530 H 0.17205 0.60591 0.92093 0.0
H531 H 0.21634 0.5716 0.90895 0.0
H532 H 0.20446 0.61554 0.82071 0.0
H533 H 0.17067 0.67967 0.87246 0.0
H534 H 0.21101 0.6374 0.75543 0.0
H535 H 0.23599 0.62477 0.78087 0.0
H536 H 0.23937 0.65755 0.76475 0.0
H537 H 0.1652 0.72208 0.85003 0.0
H538 H 0.17214 0.72651 0.80948 0.0
H539 H 0.19783 0.73148 0.8375 0.0
H540 H 0.37913 0.74252 0.88053 0.0
H541 H 0.3659 0.74905 0.83284 0.0
H542 H 0.32365 0.81163 0.87799 0.0
H543 H 0.31905 0.72785 0.78363 0.0
H544 H 0.35427 0.7335 0.78377 0.0
H545 H 0.33271 0.75408 0.76069 0.0
H546 H 0.28284 0.82794 0.85917 0.0
H547 H 0.26436 0.80617 0.83404 0.0
H548 H 0.2849 0.83158 0.81783 0.0
H549 H 0.23349 0.89729 0.65046 0.0
H550 H 0.21031 0.87541 0.60545 0.0
H551 H 0.22217 0.85127 0.63255 0.0
H552 H 0.2401 0.85685 0.59712 0.0
H553 H 0.307 0.84444 0.65169 0.0
H554 H 0.23299 0.86993 0.6902 0.0
H555 H 0.31013 0.7831 0.69042 0.0
H556 H 0.32893 0.80634 0.71267 0.0
H557 H 0.33035 0.80755 0.67109 0.0
H558 H 0.21806 0.85453 0.73853 0.0
H559 H 0.23888 0.83293 0.76129 0.0
H560 H 0.21703 0.81927 0.73275 0.0
H561 H 0.18037 0.68157 0.74808 0.0
H562 H 0.24392 0.70775 0.82512 0.0
H563 H 0.27729 0.7416 0.82862 0.0
H564 H 0.30416 0.81474 0.76443 0.0
H565 H 0.24455 0.78502 0.68548 0.0
H566 H 0.21437 0.74887 0.68003 0.0
H567 H 0.34758 0.76214 0.93718 0.0
H568 H 0.36101 0.72921 0.93198 0.0
H569 H 0.33523 0.74101 0.90683 0.0
C570 C 0.23269 0.44067 0.84154 0.0
C571 C 0.23091 0.41912 0.86638 0.0
C572 C 0.24873 0.37914 0.84376 0.0
C573 C 0.22799 0.36094 0.84766 0.0
C574 C 0.2252 0.33926 0.82764 0.0
C575 C 0.24349 0.33587 0.80322 0.0
C576 C 0.26476 0.35397 0.7997 0.0
C577 C 0.26732 0.37517 0.82041 0.0
C578 C 0.20271 0.32002 0.83252 0.0
C579 C 0.28453 0.35119 0.77376 0.0
C580 C 0.12753 0.36609 0.65168 0.0
C581 C 0.13457 0.34333 0.62975 0.0
C582 C 0.15964 0.31477 0.66577 0.0
C583 C 0.18374 0.32873 0.66517 0.0
C584 C 0.20409 0.3227 0.68619 0.0
C585 C 0.20009 0.30271 0.70871 0.0
C586 C 0.1759 0.2885 0.70916 0.0
C587 C 0.15624 0.29442 0.68728 0.0
C588 C 0.22975 0.338 0.68457 0.0
C589 C 0.17045 0.26754 0.73324 0.0
C590 C 0.29698 0.15381 0.65949 0.0
C591 C 0.31386 0.17594 0.66129 0.0
C592 C 0.31121 0.19445 0.68524 0.0
C593 C 0.29162 0.19058 0.70817 0.0
C594 C 0.27485 0.16817 0.70669 0.0
C595 C 0.27769 0.15016 0.68225 0.0
C596 C 0.32947 0.21812 0.68617 0.0
C597 C 0.25407 0.16321 0.73105 0.0
C598 C 0.35439 0.21129 0.93145 0.0
C599 C 0.37586 0.19837 0.9113 0.0
C600 C 0.36156 0.21284 0.85939 0.0
C601 C 0.36744 0.23023 0.83525 0.0
C602 C 0.35019 0.2333 0.81012 0.0
C603 C 0.32616 0.21887 0.80944 0.0
C604 C 0.32039 0.20062 0.83333 0.0
C605 C 0.3383 0.19753 0.8579 0.0
C606 C 0.35745 0.25232 0.78456 0.0
C607 C 0.29507 0.18471 0.83314 0.0
C608 C 0.24034 0.3137 0.78099 0.0
C609 C 0.22229 0.31682 0.75681 0.0
C610 C 0.22033 0.29807 0.73315 0.0
C611 C 0.23738 0.27576 0.73321 0.0
C612 C 0.23746 0.25744 0.70878 0.0
C613 C 0.2545 0.2357 0.70904 0.0
C614 C 0.27192 0.23131 0.73388 0.0
C615 C 0.2895 0.20945 0.73431 0.0
C616 C 0.30653 0.20574 0.75941 0.0
C617 C 0.30678 0.22343 0.78417 0.0
C618 C 0.2895 0.24549 0.78409 0.0
C619 C 0.28934 0.26377 0.80856 0.0
C620 C 0.27317 0.28604 0.80767 0.0
C621 C 0.25616 0.29065 0.78255 0.0
C622 C 0.25507 0.27189 0.75827 0.0
C623 C 0.27207 0.24946 0.75882 0.0
C624 C 0.30518 0.15654 0.58711 0.0
C625 C 0.31481 0.13591 0.61068 0.0
O626 O 0.25102 0.40081 0.86206 0.0
O627 O 0.37874 0.21185 0.88359 0.0
O628 O 0.29843 0.1356 0.6364 0.0
O629 O 0.13916 0.3202 0.6463 0.0
H630 H 0.21129 0.40942 0.86352 0.0
H631 H 0.22996 0.43172 0.81834 0.0
H632 H 0.25233 0.45062 0.84213 0.0
H633 H 0.21691 0.45573 0.84504 0.0
H634 H 0.21408 0.36363 0.86644 0.0
H635 H 0.28337 0.38926 0.81783 0.0
H636 H 0.18873 0.32132 0.81279 0.0
H637 H 0.19163 0.32405 0.85417 0.0
H638 H 0.21045 0.29943 0.8333 0.0
H639 H 0.29821 0.3684 0.77234 0.0
H640 H 0.27405 0.34913 0.75135 0.0
H641 H 0.2965 0.333 0.77732 0.0
H642 H 0.15265 0.34867 0.61647 0.0
H643 H 0.12331 0.38443 0.63835 0.0
H644 H 0.10987 0.36094 0.66578 0.0
H645 H 0.14432 0.37026 0.66749 0.0
H646 H 0.18689 0.34431 0.64842 0.0
H647 H 0.13764 0.28367 0.68749 0.0
H648 H 0.24694 0.3244 0.68676 0.0
H649 H 0.23062 0.35223 0.70406 0.0
H650 H 0.23163 0.34932 0.66267 0.0
H651 H 0.14957 0.26061 0.73268 0.0
H652 H 0.17484 0.27532 0.75665 0.0
H653 H 0.18356 0.25024 0.72924 0.0
H654 H 0.33538 0.14085 0.6179 0.0
H655 H 0.32916 0.17899 0.64419 0.0
H656 H 0.26483 0.13301 0.6808 0.0
H657 H 0.3177 0.23665 0.68793 0.0
H658 H 0.34237 0.21938 0.66544 0.0
H659 H 0.34226 0.2169 0.70698 0.0
H660 H 0.24299 0.14452 0.72699 0.0
H661 H 0.23979 0.17993 0.73143 0.0
H662 H 0.26356 0.16222 0.75416 0.0
H663 H 0.37021 0.17747 0.90652 0.0
H664 H 0.35307 0.20097 0.95407 0.0
H665 H 0.33467 0.21001 0.9203 0.0
H666 H 0.35888 0.23254 0.93554 0.0
H667 H 0.38557 0.2417 0.83636 0.0
H668 H 0.33377 0.1834 0.87591 0.0
H669 H 0.34411 0.26977 0.78539 0.0
H670 H 0.35478 0.24272 0.76172 0.0
H671 H 0.37824 0.25937 0.78652 0.0
H672 H 0.29282 0.17235 0.85422 0.0
H673 H 0.29478 0.17154 0.81264 0.0
H674 H 0.27777 0.19821 0.83131 0.0
H675 H 0.20981 0.33432 0.75616 0.0
H676 H 0.22452 0.25987 0.68905 0.0
H677 H 0.25383 0.22234 0.68952 0.0
H678 H 0.32011 0.18907 0.75943 0.0
H679 H 0.30198 0.26125 0.82855 0.0
H680 H 0.27412 0.2996 0.82699 0.0
H681 H 0.31806 0.15625 0.56631 0.0
H682 H 0.3059 0.17678 0.59696 0.0
H683 H 0.28444 0.15242 0.58 0.0
C684 C 0.85415 0.2861 0.57514 0.0
C685 C 0.87376 0.29605 0.59956 0.0
C686 C 0.85599 0.28103 0.64955 0.0
C687 C 0.86097 0.26456 0.6748 0.0
C688 C 0.84414 0.26438 0.70051 0.0
C689 C 0.8214 0.28073 0.70055 0.0
C690 C 0.81621 0.29757 0.67515 0.0
C691 C 0.83367 0.29772 0.64997 0.0
C692 C 0.85057 0.24657 0.72751 0.0
C693 C 0.79209 0.31525 0.67449 0.0
C694 C 0.82793 0.42331 0.82608 0.0
C695 C 0.80273 0.4152 0.84341 0.0
C696 C 0.79859 0.36744 0.83362 0.0
C697 C 0.77978 0.36826 0.80968 0.0
C698 C 0.77542 0.34611 0.79088 0.0
C699 C 0.79003 0.32266 0.7962 0.0
C700 C 0.80821 0.32141 0.82098 0.0
C701 C 0.81207 0.34381 0.83956 0.0
C702 C 0.75543 0.34784 0.76503 0.0
C703 C 0.82394 0.29658 0.82735 0.0
C704 C 0.65688 0.22381 0.86468 0.0
C705 C 0.65197 0.23867 0.83793 0.0
C706 C 0.66864 0.23651 0.81214 0.0
C707 C 0.69086 0.21941 0.8134 0.0
C708 C 0.69522 0.20364 0.83995 0.0
C709 C 0.67786 0.20579 0.86513 0.0
C710 C 0.66279 0.25289 0.78377 0.0
C711 C 0.71862 0.18512 0.84205 0.0
C712 C 0.78169 0.13193 0.63031 0.0
C713 C 0.76259 0.10969 0.63985 0.0
C714 C 0.73434 0.13646 0.67393 0.0
C715 C 0.7131 0.15416 0.6724 0.0
C716 C 0.70941 0.17356 0.6952 0.0
C717 C 0.72711 0.17471 0.72047 0.0
C718 C 0.74729 0.15539 0.72344 0.0
C719 C 0.75087 0.1366 0.69999 0.0
C720 C 0.68759 0.19372 0.6914 0.0
C721 C 0.76597 0.15542 0.75065 0.0
C722 C 0.80274 0.27986 0.72692 0.0
C723 C 0.80459 0.2997 0.74919 0.0
C724 C 0.78751 0.30015 0.77453 0.0
C725 C 0.76823 0.28008 0.77818 0.0
C726 C 0.75094 0.2798 0.8036 0.0
C727 C 0.732 0.25994 0.80685 0.0
C728 C 0.72962 0.23961 0.78478 0.0
C729 C 0.71038 0.21935 0.78777 0.0
C730 C 0.70955 0.19866 0.76628 0.0
C731 C 0.7271 0.19804 0.7413 0.0
C732 C 0.74541 0.21892 0.73701 0.0
C733 C 0.76226 0.21967 0.71114 0.0
C734 C 0.78081 0.23977 0.70758 0.0
C735 C 0.78343 0.25977 0.72989 0.0
C736 C 0.76624 0.25978 0.75576 0.0
C737 C 0.74703 0.23946 0.75916 0.0
C738 C 0.65771 0.26007 0.92356 0.0
C739 C 0.63452 0.24994 0.90405 0.0
O740 O 0.87307 0.27985 0.62537 0.0
O741 O 0.73851 0.12006 0.64956 0.0
O742 O 0.64154 0.22617 0.89022 0.0
O743 O 0.80409 0.3887 0.85173 0.0
H744 H 0.86845 0.31663 0.60624 0.0
H745 H 0.8336 0.28646 0.5842 0.0
H746 H 0.85889 0.26543 0.56828 0.0
H747 H 0.85492 0.29901 0.55436 0.0
H748 H 0.87826 0.25183 0.67429 0.0
H749 H 0.82947 0.31065 0.63068 0.0
H750 H 0.84966 0.25794 0.74941 0.0
H751 H 0.87051 0.23744 0.72539 0.0
H752 H 0.83563 0.23048 0.72897 0.0
H753 H 0.78969 0.32556 0.652 0.0
H754 H 0.79377 0.33039 0.69295 0.0
H755 H 0.77397 0.30342 0.67918 0.0
H756 H 0.78576 0.41889 0.82777 0.0
H757 H 0.82732 0.44476 0.82031 0.0
H758 H 0.82942 0.41197 0.80419 0.0
H759 H 0.84592 0.41921 0.84004 0.0
H760 H 0.76816 0.38586 0.80555 0.0
H761 H 0.82621 0.34322 0.85838 0.0
H762 H 0.7655 0.34469 0.74255 0.0
H763 H 0.74514 0.36729 0.76438 0.0
H764 H 0.74038 0.33196 0.7677 0.0
H765 H 0.83623 0.2983 0.84852 0.0
H766 H 0.83715 0.29237 0.80746 0.0
H767 H 0.81032 0.27944 0.82994 0.0
H768 H 0.62986 0.26504 0.88618 0.0
H769 H 0.63501 0.25177 0.83701 0.0
H770 H 0.68115 0.19408 0.88577 0.0
H771 H 0.67769 0.26898 0.78175 0.0
H772 H 0.64278 0.26202 0.78466 0.0
H773 H 0.66426 0.24048 0.76269 0.0
H774 H 0.71996 0.17523 0.86492 0.0
H775 H 0.73726 0.19624 0.83781 0.0
H776 H 0.71698 0.16968 0.82394 0.0
H777 H 0.7716 0.09806 0.65897 0.0
H778 H 0.80047 0.12341 0.62133 0.0
H779 H 0.78667 0.14456 0.65044 0.0
H780 H 0.77267 0.14461 0.61216 0.0
H781 H 0.70018 0.15359 0.65242 0.0
H782 H 0.76687 0.12245 0.70193 0.0
H783 H 0.69635 0.21381 0.68907 0.0
H784 H 0.67482 0.19381 0.71226 0.0
H785 H 0.67506 0.1897 0.67085 0.0
H786 H 0.77708 0.1365 0.75263 0.0
H787 H 0.75492 0.15887 0.77245 0.0
H788 H 0.7805 0.17177 0.7479 0.0
H789 H 0.81937 0.31517 0.7466 0.0
H790 H 0.7519 0.2949 0.82128 0.0
H791 H 0.71933 0.26068 0.82698 0.0
H792 H 0.69527 0.18278 0.76917 0.0
H793 H 0.76131 0.20476 0.69325 0.0
H794 H 0.79319 0.23929 0.68719 0.0
H795 H 0.66308 0.24533 0.94159 0.0
H796 H 0.65248 0.2791 0.93487 0.0
H797 H 0.67527 0.26354 0.90863 0.0
C798 C 0.87135 0.63554 0.87834 0.0
C799 C 0.84576 0.64132 0.89621 0.0
C800 C 0.8208 0.66612 0.85633 0.0
C801 C 0.83467 0.69022 0.85849 0.0
C802 C 0.82988 0.71085 0.83735 0.0
C803 C 0.81109 0.70722 0.81344 0.0
C804 C 0.79704 0.68301 0.81139 0.0
C805 C 0.80186 0.66297 0.83314 0.0
C806 C 0.84502 0.73649 0.84041 0.0
C807 C 0.77727 0.67806 0.78588 0.0
C808 C 0.94519 0.72974 0.6786 0.0
C809 C 0.92392 0.72725 0.65357 0.0
C810 C 0.88508 0.74876 0.67469 0.0
C811 C 0.86575 0.72885 0.6734 0.0
C812 C 0.84443 0.72867 0.69424 0.0
C813 C 0.84258 0.74874 0.71694 0.0
C814 C 0.86172 0.76927 0.71767 0.0
C815 C 0.88253 0.76923 0.69612 0.0
C816 C 0.8241 0.70683 0.69227 0.0
C817 C 0.86064 0.79084 0.74173 0.0
C818 C 0.71306 0.86492 0.66228 0.0
C819 C 0.69812 0.84168 0.66643 0.0
C820 C 0.70363 0.82426 0.69094 0.0
C821 C 0.72378 0.83068 0.71243 0.0
C822 C 0.73781 0.85482 0.70925 0.0
C823 C 0.73251 0.87138 0.68394 0.0
C824 C 0.68797 0.79889 0.69373 0.0
C825 C 0.7585 0.86314 0.73247 0.0
C826 C 0.66142 0.80599 0.93771 0.0
C827 C 0.6427 0.81691 0.91286 0.0
C828 C 0.66114 0.79978 0.8641 0.0
C829 C 0.65707 0.78202 0.83983 0.0
C830 C 0.67511 0.78019 0.81522 0.0
C831 C 0.69786 0.79654 0.81498 0.0
C832 C 0.70223 0.8145 0.83947 0.0
C833 C 0.68388 0.81596 0.86376 0.0
C834 C 0.66987 0.76083 0.78944 0.0
C835 C 0.72634 0.83221 0.83992 0.0
C836 C 0.80691 0.72812 0.78967 0.0
C837 C 0.8253 0.72993 0.76563 0.0
C838 C 0.82156 0.74745 0.74098 0.0
C839 C 0.79846 0.7633 0.73981 0.0
C840 C 0.79312 0.77984 0.71443 0.0
C841 C 0.77047 0.79558 0.71366 0.0
C842 C 0.75253 0.79578 0.73852 0.0
C843 C 0.72987 0.81235 0.73842 0.0
C844 C 0.71251 0.81195 0.76357 0.0
C845 C 0.7169 0.79528 0.78885 0.0
C846 C 0.73931 0.77845 0.78927 0.0
C847 C 0.74424 0.76128 0.81423 0.0
C848 C 0.76635 0.74479 0.81443 0.0
C849 C 0.7845 0.74497 0.78981 0.0
C850 C 0.78012 0.7624 0.7646 0.0
C851 C 0.7573 0.77889 0.76413 0.0
C852 C 0.7035 0.85626 0.59131 0.0
C853 C 0.69331 0.87855 0.61234 0.0
O854 O 0.82495 0.64534 0.87577 0.0
O855 O 0.64277 0.80049 0.88719 0.0
O856 O 0.7097 0.88159 0.63785 0.0
O857 O 0.90648 0.74842 0.6557 0.0
H858 H 0.84841 0.65926 0.91073 0.0
H859 H 0.87673 0.65262 0.86345 0.0
H860 H 0.8688 0.61779 0.86347 0.0
H861 H 0.88804 0.632 0.89454 0.0
H862 H 0.84922 0.69309 0.8765 0.0
H863 H 0.79121 0.64437 0.83172 0.0
H864 H 0.85891 0.73854 0.82069 0.0
H865 H 0.85659 0.73742 0.8622 0.0
H866 H 0.83116 0.75357 0.83961 0.0
H867 H 0.77001 0.65728 0.78575 0.0
H868 H 0.78634 0.6825 0.76309 0.0
H869 H 0.76001 0.69143 0.78879 0.0
H870 H 0.91317 0.70835 0.65771 0.0
H871 H 0.95939 0.71297 0.67711 0.0
H872 H 0.93581 0.7293 0.70179 0.0
H873 H 0.95622 0.74868 0.67609 0.0
H874 H 0.86735 0.71346 0.6561 0.0
H875 H 0.89747 0.78464 0.69667 0.0
H876 H 0.82621 0.69352 0.71255 0.0
H877 H 0.82636 0.69481 0.67097 0.0
H878 H 0.80379 0.71529 0.69285 0.0
H879 H 0.87812 0.80418 0.74062 0.0
H880 H 0.85959 0.78195 0.76516 0.0
H881 H 0.84249 0.8029 0.73837 0.0
H882 H 0.6729 0.87384 0.6203 0.0
H883 H 0.68231 0.83684 0.65058 0.0
H884 H 0.74366 0.88955 0.68089 0.0
H885 H 0.70152 0.7818 0.69714 0.0
H886 H 0.6755 0.79511 0.67306 0.0
H887 H 0.67483 0.80005 0.71423 0.0
H888 H 0.76426 0.88425 0.72964 0.0
H889 H 0.77649 0.85077 0.72955 0.0
H890 H 0.75111 0.86011 0.75636 0.0
H891 H 0.6495 0.83699 0.906 0.0
H892 H 0.6611 0.81899 0.95839 0.0
H893 H 0.68208 0.8052 0.92902 0.0
H894 H 0.65547 0.78564 0.94463 0.0
H895 H 0.63958 0.76957 0.8402 0.0
H896 H 0.68762 0.82978 0.88228 0.0
H897 H 0.68684 0.74697 0.78723 0.0
H898 H 0.66805 0.77171 0.76724 0.0
H899 H 0.65149 0.74916 0.79326 0.0
H900 H 0.72696 0.84513 0.86064 0.0
H901 H 0.72653 0.84491 0.81897 0.0
H902 H 0.74457 0.81991 0.83945 0.0
H903 H 0.84269 0.71727 0.76594 0.0
H904 H 0.80636 0.7807 0.69479 0.0
H905 H 0.76733 0.80777 0.69342 0.0
H906 H 0.69535 0.82491 0.76354 0.0
H907 H 0.73099 0.76034 0.83385 0.0
H908 H 0.76915 0.73199 0.83424 0.0
H909 H 0.69086 0.85469 0.57039 0.0
H910 H 0.70303 0.83682 0.60317 0.0
H911 H 0.72425 0.86021 0.58404 0.0
C912 C 0.97776 0.29121 0.54044 0.0
C913 C 0.04979 0.26783 0.47159 0.0
O914 O 0.98767 0.31155 0.52691 0.0
Zn915 Zn 0.01945 0.32006 0.4952 0.0
O916 O 0.98846 0.26867 0.53661 0.0
Zn917 Zn 0.01558 0.27974 0.50852 0.0
O918 O 0.04169 0.30166 0.53698 0.0
O919 O 0.04416 0.3422 0.51836 0.0
O920 O 0.03814 0.25311 0.49113 0.0
O921 O 0.04458 0.2927 0.47061 0.0
O922 O 0.99889 0.335 0.46134 0.0
O923 O 0.9924 0.2921 0.46932 0.0
C924 C 0.05111 0.32515 0.53837 0.0
C925 C 0.98763 0.31332 0.45401 0.0
C926 C 0.74472 0.03662 0.53757 0.0
C927 C 0.73471 0.97778 0.44894 0.0
O928 O 0.7633 0.02462 0.52349 0.0
Zn929 Zn 0.74074 0.00644 0.49415 0.0
O930 O 0.72054 0.03261 0.52986 0.0
Zn931 Zn 0.69845 0.01018 0.49673 0.0
O932 O 0.67872 0.98527 0.52255 0.0
O933 O 0.7218 0.97826 0.52316 0.0
O934 O 0.71256 0.98589 0.4599 0.0
O935 O 0.75617 0.98495 0.46182 0.0
O936 O 0.72413 0.03919 0.46942 0.0
O937 O 0.6807 0.03891 0.47481 0.0
C938 C 0.69849 0.97206 0.53233 0.0
C939 C 0.70151 0.04966 0.46382 0.0
C940 C 0.9823 0.72466 0.53644 0.0
C941 C 0.04191 0.73575 0.4485 0.0
O942 O 0.99003 0.74612 0.52399 0.0
Zn943 Zn 0.0101 0.73048 0.49062 0.0
O944 O 0.98937 0.70253 0.52449 0.0
Zn945 Zn 0.01276 0.68884 0.48605 0.0
O946 O 0.03966 0.66832 0.50689 0.0
O947 O 0.04226 0.71151 0.51466 0.0
O948 O 0.03723 0.71126 0.45438 0.0
O949 O 0.02935 0.75353 0.4632 0.0
O950 O 0.98016 0.71343 0.462 0.0
O951 O 0.98739 0.67042 0.46062 0.0
C952 C 0.05154 0.6881 0.51866 0.0
C953 C 0.97357 0.69028 0.45263 0.0
C954 C 0.31595 0.03643 0.54144 0.0
C955 C 0.3273 0.95873 0.47537 0.0
O956 O 0.33738 0.02406 0.53592 0.0
Zn957 Zn 0.32274 0.99806 0.50772 0.0
O958 O 0.29447 0.02891 0.52836 0.0
Zn959 Zn 0.2814 0.99894 0.49713 0.0
O960 O 0.25638 0.97941 0.52231 0.0
O961 O 0.29799 0.97419 0.53692 0.0
O962 O 0.30337 0.9672 0.47647 0.0
O963 O 0.34542 0.97129 0.48962 0.0
O964 O 0.31233 0.02162 0.46867 0.0
O965 O 0.26917 0.01922 0.46171 0.0
C966 C 0.27334 0.96871 0.54013 0.0
C967 C 0.2916 0.02828 0.45348 0.0
C968 C 0.46334 0.83966 0.03996 0.0
C969 C 0.53934 0.82181 0.97425 0.0
O970 O 0.4776 0.85605 0.02513 0.0
Zn971 Zn 0.50035 0.83033 0.00649 0.0
O972 O 0.46835 0.81474 0.03851 0.0
Zn973 Zn 0.49779 0.78968 0.01618 0.0
O974 O 0.51563 0.77434 0.05142 0.0
O975 O 0.52201 0.81729 0.04649 0.0
O976 O 0.53032 0.80039 0.98629 0.0
O977 O 0.52738 0.84344 0.97936 0.0
O978 O 0.47309 0.8087 0.97747 0.0
O979 O 0.47618 0.76677 0.99127 0.0
C980 C 0.5261 0.79563 0.06122 0.0
C981 C 0.46586 0.78448 0.97427 0.0
C982 C 0.24413 0.55594 0.05037 0.0
C983 C 0.23569 0.48051 0.98019 0.0
O984 O 0.26274 0.54163 0.03975 0.0
Zn985 Zn 0.24109 0.51651 0.01759 0.0
O986 O 0.21999 0.5495 0.0449 0.0
Zn987 Zn 0.19876 0.51948 0.02022 0.0
O988 O 0.18027 0.49892 0.05132 0.0
O989 O 0.22353 0.49292 0.05278 0.0
O990 O 0.2136 0.48971 0.98993 0.0
O991 O 0.25723 0.49014 0.99057 0.0
O992 O 0.22259 0.5413 0.98383 0.0
O993 O 0.17904 0.54026 0.99024 0.0
C994 C 0.20038 0.48779 0.0633 0.0
C995 C 0.19933 0.54851 0.97568 0.0
C996 C 0.54467 0.23525 0.98786 0.0
C997 C 0.48073 0.2325 0.07202 0.0
O998 O 0.53499 0.25448 0.00297 0.0
Zn999 Zn 0.51143 0.23415 0.02878 0.0
O1000 O 0.53641 0.21167 0.99324 0.0
Zn1001 Zn 0.50854 0.19272 0.02345 0.0
O1002 O 0.4823 0.1778 0.99616 0.0
O1003 O 0.48099 0.22136 0.99756 0.0
O1004 O 0.48528 0.20946 0.06062 0.0
O1005 O 0.49169 0.25266 0.05993 0.0
O1006 O 0.53833 0.21089 0.0567 0.0
O1007 O 0.53161 0.16874 0.04506 0.0
C1008 C 0.47195 0.19938 0.98715 0.0
C1009 C 0.544 0.1863 0.0603 0.0
C1010 C 0.76099 0.53982 0.0358 0.0
C1011 C 0.7869 0.48191 0.95189 0.0
O1012 O 0.786 0.53541 0.03571 0.0
Zn1013 Zn 0.81362 0.51242 0.00933 0.0
O1014 O 0.74621 0.52855 0.01609 0.0
Zn1015 Zn 0.77371 0.5103 0.99407 0.0
O1016 O 0.78532 0.47952 0.02518 0.0
O1017 O 0.82693 0.4862 0.03837 0.0
O1018 O 0.76389 0.49058 0.95814 0.0
O1019 O 0.80668 0.48856 0.96882 0.0
O1020 O 0.8371 0.53979 0.99382 0.0
O1021 O 0.79687 0.54153 0.97385 0.0
C1022 C 0.80596 0.47232 0.04023 0.0
C1023 C 0.82053 0.55066 0.97567 0.0
C1024 C 0.07836 0.2521 0.39322 0.0
C1025 C 0.09477 0.23006 0.39914 0.0
C1026 C 0.0651 0.26509 0.41719 0.0
C1027 C 0.06689 0.25598 0.44778 0.0
H1028 H 0.07526 0.2592 0.36992 0.0
H1029 H 0.05242 0.2817 0.4115 0.0
S1030 S 0.10869 0.20077 0.47608 0.0
N1031 N 0.11382 0.20134 0.43843 0.0
N1032 N 0.0874 0.22485 0.48319 0.0
C1033 C 0.08365 0.23453 0.45424 0.0
C1034 C 0.0979 0.22182 0.43 0.0
C1035 C 0.67765 0.11771 0.43814 0.0
C1036 C 0.70107 0.12963 0.42703 0.0
C1037 C 0.67745 0.09133 0.44855 0.0
C1038 C 0.70053 0.0757 0.44771 0.0
H1039 H 0.65959 0.12917 0.43997 0.0
H1040 H 0.65935 0.08355 0.45848 0.0
S1041 S 0.76552 0.09589 0.41473 0.0
N1042 N 0.74691 0.12264 0.41197 0.0
N1043 N 0.74641 0.07304 0.43045 0.0
C1044 C 0.72342 0.08672 0.43409 0.0
C1045 C 0.72369 0.11362 0.42394 0.0
C1046 C 0.91359 0.70742 0.40404 0.0
C1047 C 0.89807 0.68428 0.40562 0.0
C1048 C 0.93845 0.70877 0.4183 0.0
C1049 C 0.9489 0.68699 0.43454 0.0
H1050 H 0.90603 0.72495 0.39259 0.0
H1051 H 0.94928 0.72727 0.41718 0.0
S1052 S 0.91658 0.62153 0.4448 0.0
N1053 N 0.89519 0.63891 0.42425 0.0
N1054 N 0.94216 0.64129 0.45061 0.0
C1055 C 0.93406 0.66341 0.43538 0.0
C1056 C 0.90857 0.66212 0.42112 0.0
C1057 C 0.31577 0.89014 0.44273 0.0
C1058 C 0.34135 0.88131 0.43519 0.0
C1059 C 0.31151 0.91551 0.45466 0.0
C1060 C 0.33272 0.93306 0.46 0.0
H1061 H 0.29887 0.87713 0.43996 0.0
H1062 H 0.29142 0.921 0.46068 0.0
S1063 S 0.40344 0.92025 0.4421 0.0
N1064 N 0.38811 0.89266 0.43208 0.0
N1065 N 0.38018 0.94031 0.45524 0.0
C1066 C 0.35838 0.92479 0.45182 0.0
C1067 C 0.36268 0.89897 0.43924 0.0
C1068 C 0.10649 0.65771 0.56715 0.0
C1069 C 0.12453 0.67884 0.57015 0.0
C1070 C 0.08299 0.66061 0.55012 0.0
C1071 C 0.07672 0.68478 0.53566 0.0
H1072 H 0.11041 0.63893 0.57837 0.0
H1073 H 0.06945 0.644 0.54878 0.0
S1074 S 0.11856 0.74532 0.534 0.0
N1075 N 0.13525 0.72415 0.55555 0.0
N1076 N 0.0914 0.72955 0.52351 0.0
C1077 C 0.095 0.70575 0.53768 0.0
C1078 C 0.11884 0.70279 0.55485 0.0
C1079 C 0.33877 0.09815 0.58406 0.0
C1080 C 0.31495 0.10871 0.59571 0.0
C1081 C 0.33913 0.07425 0.56754 0.0
C1082 C 0.31561 0.06018 0.56161 0.0
H1083 H 0.35723 0.10876 0.58718 0.0
H1084 H 0.35786 0.06726 0.55847 0.0
S1085 S 0.24811 0.07872 0.58818 0.0
N1086 N 0.26735 0.10278 0.60089 0.0
N1087 N 0.26795 0.05795 0.57004 0.0
C1088 C 0.29173 0.0702 0.57375 0.0
C1089 C 0.2914 0.09444 0.59065 0.0
C1090 C 0.91556 0.2718 0.58404 0.0
C1091 C 0.90156 0.29583 0.58641 0.0
C1092 C 0.9406 0.27073 0.57025 0.0
C1093 C 0.9526 0.29358 0.55793 0.0
H1094 H 0.90686 0.25355 0.59245 0.0
H1095 H 0.95027 0.25163 0.56857 0.0
S1096 S 0.92414 0.36153 0.55841 0.0
N1097 N 0.90147 0.34304 0.57546 0.0
N1098 N 0.94859 0.3412 0.54957 0.0
C1099 C 0.93895 0.31786 0.56054 0.0
C1100 C 0.91341 0.31892 0.57463 0.0
C1101 C 0.717 0.91796 0.58911 0.0
C1102 C 0.6931 0.90425 0.59401 0.0
C1103 C 0.71816 0.94014 0.5698 0.0
C1104 C 0.69553 0.94958 0.55425 0.0
H1105 H 0.73517 0.91113 0.59978 0.0
H1106 H 0.73719 0.9497 0.56675 0.0
S1107 S 0.62806 0.92066 0.5589 0.0
N1108 N 0.6462 0.9016 0.5816 0.0
N1109 N 0.64835 0.94354 0.54526 0.0
C1110 C 0.67136 0.93636 0.55922 0.0
C1111 C 0.67019 0.91359 0.57894 0.0
C1112 C 0.94628 0.74987 0.60796 0.0
C1113 C 0.93686 0.72648 0.6219 0.0
C1114 C 0.96041 0.74917 0.58004 0.0
C1115 C 0.96596 0.72503 0.56508 0.0
H1116 H 0.94312 0.76884 0.61903 0.0
H1117 H 0.96748 0.76771 0.5705 0.0
S1118 S 0.94559 0.65812 0.59217 0.0
N1119 N 0.93407 0.67852 0.61869 0.0
N1120 N 0.96039 0.67708 0.56634 0.0
C1121 C 0.95639 0.7015 0.57869 0.0
C1122 C 0.942 0.70226 0.60706 0.0
C1123 C 0.27705 0.90926 0.59338 0.0
C1124 C 0.25238 0.90945 0.60858 0.0
C1125 C 0.28357 0.92872 0.57162 0.0
C1126 C 0.26547 0.94872 0.5634 0.0
H1127 H 0.29154 0.894 0.59824 0.0
H1128 H 0.30287 0.92775 0.56072 0.0
S1129 S 0.19779 0.95735 0.59503 0.0
N1130 N 0.20952 0.93108 0.61322 0.0
N1131 N 0.22159 0.96722 0.57149 0.0
C1132 C 0.24052 0.94884 0.57773 0.0
C1133 C 0.23403 0.9293 0.60041 0.0
C1134 C 0.11261 0.35189 0.57802 0.0
C1135 C 0.11204 0.33908 0.60696 0.0
C1136 C 0.09229 0.34822 0.55629 0.0
C1137 C 0.07072 0.33148 0.56265 0.0
H1138 H 0.12912 0.3646 0.57199 0.0
H1139 H 0.09394 0.35784 0.534 0.0
S1140 S 0.05766 0.2964 0.63642 0.0
N1141 N 0.0863 0.31145 0.64197 0.0
N1142 N 0.04864 0.30394 0.60085 0.0
C1143 C 0.06927 0.3195 0.59193 0.0
C1144 C 0.08971 0.32353 0.61419 0.0
C1145 C 0.77331 0.06807 0.60967 0.0
C1146 C 0.75807 0.09134 0.61265 0.0
C1147 C 0.76959 0.0507 0.58475 0.0
C1148 C 0.75038 0.05596 0.56213 0.0
H1149 H 0.78806 0.06316 0.62691 0.0
H1150 H 0.78127 0.03272 0.58367 0.0
S1151 S 0.70802 0.11581 0.55659 0.0
N1152 N 0.72516 0.12003 0.58868 0.0
N1153 N 0.71769 0.08704 0.54249 0.0
C1154 C 0.73578 0.0796 0.56409 0.0
C1155 C 0.73981 0.09743 0.58911 0.0
C1156 C 0.92349 0.31503 0.40949 0.0
C1157 C 0.92832 0.29642 0.38588 0.0
C1158 C 0.94366 0.32262 0.43008 0.0
C1159 C 0.96912 0.31154 0.42792 0.0
H1160 H 0.90367 0.32263 0.41317 0.0
H1161 H 0.93881 0.33569 0.44908 0.0
S1162 S 0.99255 0.26334 0.36969 0.0
N1163 N 0.96113 0.26839 0.36084 0.0
N1164 N 0.99857 0.28234 0.39986 0.0
C1165 C 0.97452 0.29398 0.40373 0.0
C1166 C 0.95424 0.28648 0.38265 0.0
C1167 C 0.70905 0.93672 0.38199 0.0
C1168 C 0.73215 0.92945 0.366 0.0
C1169 C 0.71027 0.95185 0.40897 0.0
C1170 C 0.73466 0.96059 0.4211 0.0
H1171 H 0.68976 0.93099 0.37331 0.0
H1172 H 0.69178 0.957 0.42013 0.0
S1173 S 0.80107 0.94681 0.38791 0.0
N1174 N 0.78023 0.93195 0.3642 0.0
N1175 N 0.78261 0.96049 0.41502 0.0
C1176 C 0.75801 0.9532 0.40554 0.0
C1177 C 0.75673 0.9377 0.37797 0.0
C1178 C 0.10715 0.73146 0.40503 0.0
C1179 C 0.1103 0.75714 0.39283 0.0
C1180 C 0.08437 0.72444 0.42172 0.0
C1181 C 0.06408 0.74297 0.42758 0.0
H1182 H 0.12257 0.71675 0.40219 0.0
H1183 H 0.08319 0.70458 0.43113 0.0
S1184 S 0.06273 0.81281 0.40084 0.0
N1185 N 0.09103 0.80104 0.38755 0.0
N1186 N 0.04854 0.78801 0.41942 0.0
C1187 C 0.06688 0.76862 0.41536 0.0
C1188 C 0.0899 0.77566 0.398 0.0
C1189 C 0.2771 0.06247 0.37695 0.0
C1190 C 0.30061 0.07668 0.3711 0.0
C1191 C 0.27394 0.04751 0.40405 0.0
C1192 C 0.2943 0.04591 0.42617 0.0
H1193 H 0.26126 0.06244 0.36008 0.0
H1194 H 0.25572 0.0365 0.40721 0.0
S1195 S 0.35925 0.08055 0.42253 0.0
N1196 N 0.34418 0.08892 0.39016 0.0
N1197 N 0.33834 0.06106 0.44103 0.0
C1198 C 0.31765 0.06058 0.42092 0.0
C1199 C 0.3208 0.07582 0.39341 0.0
C1200 C 0.59968 0.79595 0.93112 0.0
C1201 C 0.6148 0.81897 0.92588 0.0
C1202 C 0.57502 0.79713 0.94603 0.0
C1203 C 0.56441 0.8214 0.95622 0.0
H1204 H 0.6073 0.77677 0.9243 0.0
H1205 H 0.56441 0.77879 0.95 0.0
S1206 S 0.59604 0.8875 0.9479 0.0
N1207 N 0.6173 0.86677 0.93199 0.0
N1208 N 0.57091 0.86911 0.95954 0.0
C1209 C 0.57907 0.84465 0.95052 0.0
C1210 C 0.60427 0.8434 0.93557 0.0
C1211 C 0.22028 0.60968 0.90704 0.0
C1212 C 0.20571 0.59154 0.87339 0.0
C1213 C 0.21276 0.5951 0.94422 0.0
C1214 C 0.19711 0.56284 0.94668 0.0
H1215 H 0.22829 0.62948 0.905 0.0
H1216 H 0.21901 0.60506 0.96507 0.0
S1217 S 0.17892 0.51321 0.87354 0.0
N1218 N 0.18912 0.53954 0.85259 0.0
N1219 N 0.18078 0.51859 0.91195 0.0
C1220 C 0.19008 0.54351 0.91277 0.0
C1221 C 0.19659 0.55594 0.87532 0.0
C1222 C 0.4112 0.17556 0.94331 0.0
C1223 C 0.40205 0.19868 0.92856 0.0
C1224 C 0.43423 0.17578 0.96144 0.0
C1225 C 0.44884 0.19923 0.96593 0.0
H1226 H 0.4002 0.15722 0.94124 0.0
H1227 H 0.44017 0.15755 0.97269 0.0
S1228 S 0.43376 0.265 0.93155 0.0
N1229 N 0.40979 0.24554 0.91904 0.0
N1230 N 0.45294 0.24604 0.95312 0.0
C1231 C 0.44015 0.22241 0.95089 0.0
C1232 C 0.4168 0.22213 0.93229 0.0
C1233 C 0.77857 0.45093 0.87298 0.0
C1234 C 0.79896 0.43191 0.87207 0.0
C1235 C 0.77455 0.46674 0.89908 0.0
C1236 C 0.79107 0.46445 0.92505 0.0
H1237 H 0.76557 0.45363 0.85333 0.0
H1238 H 0.75868 0.48118 0.89868 0.0
S1239 S 0.84673 0.41718 0.93493 0.0
N1240 N 0.83536 0.41118 0.89989 0.0
N1241 N 0.82814 0.44131 0.94876 0.0
C1242 C 0.81151 0.44554 0.92455 0.0
C1243 C 0.81539 0.42918 0.89812 0.0
C1244 C 0.58285 0.18206 0.13467 0.0
C1245 C 0.60372 0.16467 0.12724 0.0
C1246 C 0.56375 0.18914 0.11271 0.0
C1247 C 0.5645 0.17867 0.08273 0.0
H1248 H 0.5812 0.19022 0.1577 0.0
H1249 H 0.54799 0.20254 0.1194 0.0
S1250 S 0.61612 0.13464 0.05037 0.0
N1251 N 0.62519 0.13919 0.08661 0.0
N1252 N 0.58832 0.15148 0.0459 0.0
C1253 C 0.58535 0.16168 0.0747 0.0
C1254 C 0.60525 0.155 0.09679 0.0
C1255 C 0.71382 0.5721 0.0924 0.0
C1256 C 0.72678 0.59607 0.09977 0.0
C1257 C 0.72483 0.55412 0.07136 0.0
C1258 C 0.7497 0.55884 0.05794 0.0
H1259 H 0.69496 0.56706 0.10266 0.0
H1260 H 0.71402 0.53617 0.06598 0.0
S1261 S 0.79266 0.61737 0.07064 0.0
N1262 N 0.76634 0.62287 0.09232 0.0
N1263 N 0.78739 0.58853 0.05383 0.0
C1264 C 0.76331 0.58212 0.06576 0.0
C1265 C 0.75184 0.60075 0.08653 0.0
C1266 C 0.42438 0.88061 0.0971 0.0
C1267 C 0.39886 0.86934 0.09593 0.0
C1268 C 0.4451 0.87096 0.07881 0.0
C1269 C 0.44127 0.84926 0.05913 0.0
H1270 H 0.42819 0.89745 0.11193 0.0
H1271 H 0.46432 0.88045 0.08024 0.0
S1272 S 0.3786 0.81273 0.04634 0.0
N1273 N 0.37093 0.83561 0.07205 0.0
N1274 N 0.41043 0.81676 0.03895 0.0
C1275 C 0.41613 0.83746 0.05784 0.0
C1276 C 0.39475 0.84771 0.07585 0.0
C1277 C 0.17527 0.4255 0.10189 0.0
C1278 C 0.19649 0.41844 0.12138 0.0
C1279 C 0.1756 0.44921 0.08498 0.0
C1280 C 0.19741 0.46647 0.08649 0.0
H1281 H 0.15888 0.41195 0.09849 0.0
H1282 H 0.15952 0.4531 0.06904 0.0
S1283 S 0.25647 0.45887 0.13669 0.0
N1284 N 0.23868 0.43203 0.14341 0.0
N1285 N 0.23948 0.47635 0.11125 0.0
C1286 C 0.21796 0.46051 0.10728 0.0
C1287 C 0.21748 0.43656 0.12478 0.0
C1288 C 0.43872 0.21319 0.14114 0.0
C1289 C 0.4353 0.23721 0.15705 0.0
C1290 C 0.45267 0.21211 0.11326 0.0
C1291 C 0.46405 0.23499 0.10014 0.0
H1292 H 0.43101 0.1949 0.15068 0.0
H1293 H 0.45504 0.19297 0.10232 0.0
S1294 S 0.46019 0.30307 0.13235 0.0
N1295 N 0.4439 0.28458 0.15743 0.0
N1296 N 0.47019 0.28268 0.10496 0.0
C1297 C 0.46027 0.25932 0.11547 0.0
C1298 C 0.44598 0.26038 0.14393 0.0
C1299 C 0.77899 0.409 0.0752 0.0
C1300 C 0.80188 0.39441 0.08244 0.0
C1301 C 0.78064 0.43464 0.06306 0.0
C1302 C 0.80527 0.44684 0.05743 0.0
H1303 H 0.75957 0.40018 0.078 0.0
H1304 H 0.76234 0.44465 0.05715 0.0
S1305 S 0.87129 0.41754 0.07363 0.0
N1306 N 0.85004 0.39435 0.08418 0.0
N1307 N 0.85319 0.44268 0.06133 0.0
C1308 C 0.82838 0.43291 0.06567 0.0
C1309 C 0.82668 0.40666 0.07805 0.0
C1310 C 0.5512 0.77571 0.14065 0.0
C1311 C 0.56461 0.79858 0.15074 0.0
C1312 C 0.53981 0.77443 0.11114 0.0
C1313 C 0.54118 0.79608 0.09066 0.0
H1314 H 0.54876 0.75898 0.15607 0.0
H1315 H 0.52901 0.7567 0.10485 0.0
S1316 S 0.57586 0.85983 0.10515 0.0
N1317 N 0.57983 0.84279 0.13735 0.0
N1318 N 0.55869 0.84044 0.08193 0.0
C1319 C 0.55546 0.81867 0.10006 0.0
C1320 C 0.56704 0.81993 0.13008 0.0
C1321 C 0.23394 0.62513 0.08223 0.0
C1322 C 0.25956 0.63297 0.09115 0.0
C1323 C 0.22912 0.59981 0.07038 0.0
C1324 C 0.24978 0.58137 0.06628 0.0
H1325 H 0.21751 0.63886 0.08372 0.0
H1326 H 0.20907 0.59508 0.06336 0.0
S1327 S 0.32051 0.59209 0.08621 0.0
N1328 N 0.30584 0.62023 0.09544 0.0
N1329 N 0.29687 0.57263 0.0728 0.0
C1330 C 0.27547 0.58881 0.07546 0.0
C1331 C 0.28033 0.61459 0.08784 0.0
C1332 C 0.40293 0.79099 0.92692 0.0
C1333 C 0.39905 0.76524 0.91525 0.0
C1334 C 0.42513 0.79718 0.94499 0.0
C1335 C 0.44399 0.77775 0.95283 0.0
H1336 H 0.38855 0.80645 0.92248 0.0
H1337 H 0.42701 0.81719 0.95375 0.0
S1338 S 0.44286 0.7073 0.92856 0.0
N1339 N 0.41599 0.72022 0.91287 0.0
N1340 N 0.4574 0.73174 0.94736 0.0
C1341 C 0.44036 0.75195 0.94139 0.0
C1342 C 0.41797 0.74574 0.9226 0.0
C1343 C 0.25686 0.44258 0.90858 0.0
C1344 C 0.23286 0.43137 0.89828 0.0
C1345 C 0.25812 0.45717 0.93614 0.0
C1346 C 0.2354 0.46113 0.95439 0.0
H1347 H 0.27457 0.44091 0.89458 0.0
H1348 H 0.27673 0.46642 0.94235 0.0
S1349 S 0.16837 0.43342 0.93931 0.0
N1350 N 0.18637 0.4236 0.90968 0.0
N1351 N 0.1887 0.45045 0.96153 0.0
C1352 C 0.21164 0.44872 0.94518 0.0
C1353 C 0.21037 0.43405 0.91711 0.0
C1354 C 0.605 0.2215 0.93828 0.0
C1355 C 0.61028 0.24615 0.92432 0.0
C1356 C 0.58337 0.21814 0.95813 0.0
C1357 C 0.56651 0.23942 0.96554 0.0
H1358 H 0.61777 0.20465 0.93409 0.0
H1359 H 0.58027 0.19878 0.96835 0.0
S1360 S 0.57228 0.30825 0.9361 0.0
N1361 N 0.59714 0.29231 0.91973 0.0
N1362 N 0.55673 0.28611 0.95759 0.0
C1363 C 0.57171 0.26425 0.95209 0.0
C1364 C 0.59355 0.26759 0.93148 0.0
C1365 C 0.82196 0.59786 0.90768 0.0
C1366 C 0.83944 0.61801 0.91731 0.0
C1367 C 0.81609 0.57627 0.92681 0.0
C1368 C 0.82807 0.57338 0.95593 0.0
H1369 H 0.81255 0.59875 0.88525 0.0
H1370 H 0.80221 0.56152 0.91852 0.0
S1371 S 0.87646 0.61949 0.99132 0.0
N1372 N 0.86934 0.6331 0.95762 0.0
N1373 N 0.85885 0.59194 0.99319 0.0
C1374 C 0.84622 0.59279 0.96551 0.0
C1375 C 0.85181 0.61516 0.94628 0.0
loop_
_geom_bond_atom_site_label_1
_geom_bond_atom_site_label_2
_geom_bond_distance
_geom_bond_site_symmetry_2
_ccdc_geom_bond_type
C0 C1 1.560 . S
C0 H61 0.959 . S
C0 H62 0.959 . S
C0 H63 0.960 . S
C1 C0 1.560 . S
C1 O56 1.426 . S
C1 H60 0.980 . S
C2 C3 1.407 . S
C2 C7 1.418 . S
C2 O56 1.334 . S
C3 C2 1.407 . S
C3 C4 1.360 . S
C3 H64 0.929 . S
C4 C3 1.360 . S
C4 C5 1.401 . S
C4 C8 1.527 . S
C5 C4 1.401 . S
C5 C6 1.405 . S
C5 C38 1.587 . S
C6 C5 1.405 . S
C6 C7 1.332 . S
C6 C9 1.496 . S
C7 C2 1.418 . S
C7 C6 1.332 . S
C7 H65 0.929 . S
C8 C4 1.527 . S
C8 H66 0.959 . S
C8 H67 0.961 . S
C8 H68 0.961 . S
C9 C6 1.496 . S
C9 H69 0.960 . S
C9 H70 0.960 . S
C9 H71 0.961 . S
C10 C11 1.517 . S
C10 H73 0.961 . S
C10 H74 0.960 . S
C10 H75 0.959 . S
C11 C10 1.517 . S
C11 O59 1.468 . S
C11 H72 0.980 . S
C12 C13 1.349 . S
C12 C17 1.367 . S
C12 O59 1.408 . S
C13 C12 1.349 . S
C13 C14 1.407 . S
C13 H76 0.930 . S
C14 C13 1.407 . S
C14 C15 1.449 . S
C14 C18 1.535 . S
C15 C14 1.449 . S
C15 C16 1.384 . S
C15 C40 1.553 . S
C16 C15 1.384 . S
C16 C17 1.364 . S
C16 C19 1.450 . S
C17 C12 1.367 . S
C17 C16 1.364 . S
C17 H77 0.931 . S
C18 C14 1.535 . S
C18 H78 0.959 . S
C18 H79 0.961 . S
C18 H80 0.959 . S
C19 C16 1.450 . S
C19 H81 0.960 . S
C19 H82 0.960 . S
C19 H83 0.960 . S
C20 C21 1.309 . S
C20 C25 1.304 . S
C20 O58 1.435 . S
C21 C20 1.309 . S
C21 C22 1.476 . S
C21 H85 0.930 . S
C22 C21 1.476 . S
C22 C23 1.400 . S
C22 C26 1.567 . S
C23 C22 1.400 . S
C23 C24 1.373 . S
C23 C45 1.432 . S
C24 C23 1.373 . S
C24 C25 1.339 . S
C24 C27 1.530 . S
C25 C20 1.304 . S
C25 C24 1.339 . S
C25 H86 0.930 . S
C26 C22 1.567 . S
C26 H87 0.961 . S
C26 H88 0.960 . S
C26 H89 0.958 . S
C27 C24 1.530 . S
C27 H90 0.961 . S
C27 H91 0.960 . S
C27 H92 0.960 . S
C28 C29 1.530 . S
C28 H94 0.961 . S
C28 H95 0.961 . S
C28 H96 0.959 . S
C29 C28 1.530 . S
C29 O57 1.412 . S
C29 H93 0.980 . S
C30 C31 1.288 . S
C30 C35 1.377 . S
C30 O57 1.393 . S
C31 C30 1.288 . S
C31 C32 1.369 . S
C31 H97 0.932 . S
C32 C31 1.369 . S
C32 C33 1.398 . S
C32 C36 1.527 . S
C33 C32 1.398 . S
C33 C34 1.380 . S
C33 C47 1.497 . S
C34 C33 1.380 . S
C34 C35 1.383 . S
C34 C37 1.603 . S
C35 C30 1.377 . S
C35 C34 1.383 . S
C35 H98 0.929 . S
C36 C32 1.527 . S
C36 H99 0.961 . S
C36 H100 0.959 . S
C36 H101 0.959 . S
C37 C34 1.603 . S
C37 H102 0.960 . S
C37 H103 0.962 . S
C37 H104 0.961 . S
C38 C5 1.587 . S
C38 C39 1.360 . S
C38 C51 1.412 . S
C39 C38 1.360 . S
C39 C40 1.365 . S
C39 H105 0.929 . S
C40 C15 1.553 . S
C40 C39 1.365 . S
C40 C41 1.404 . S
C41 C40 1.404 . S
C41 C42 1.395 . S
C41 C52 1.451 . S
C42 C41 1.395 . S
C42 C43 1.322 . S
C42 H106 0.930 . S
C43 C42 1.322 . S
C43 C44 1.459 . S
C43 H107 0.929 . S
C44 C43 1.459 . S
C44 C45 1.445 . S
C44 C53 1.395 . S
C45 C23 1.432 . S
C45 C44 1.445 . S
C45 C46 1.370 . S
C46 C45 1.370 . S
C46 C47 1.438 . S
C46 H108 0.930 . S
C47 C33 1.497 . S
C47 C46 1.438 . S
C47 C48 1.360 . S
C48 C47 1.360 . S
C48 C49 1.401 . S
C48 C53 1.446 . S
C49 C48 1.401 . S
C49 C50 1.347 . S
C49 H109 0.929 . S
C50 C49 1.347 . S
C50 C51 1.455 . S
C50 H110 0.930 . S
C51 C38 1.412 . S
C51 C50 1.455 . S
C51 C52 1.331 . S
C52 C41 1.451 . S
C52 C51 1.331 . S
C52 C53 1.497 . S
C53 C44 1.395 . S
C53 C48 1.446 . S
C53 C52 1.497 . S
C54 C55 1.582 . S
C54 H111 0.962 . S
C54 H112 0.959 . S
C54 H113 0.958 . S
C55 C54 1.582 . S
C55 O58 1.458 . S
C55 H84 0.980 . S
O56 C1 1.426 . S
O56 C2 1.334 . S
O57 C29 1.412 . S
O57 C30 1.393 . S
O58 C20 1.435 . S
O58 C55 1.458 . S
O59 C11 1.468 . S
O59 C12 1.408 . S
H60 C1 0.980 . S
H61 C0 0.959 . S
H62 C0 0.959 . S
H63 C0 0.960 . S
H64 C3 0.929 . S
H65 C7 0.929 . S
H66 C8 0.959 . S
H67 C8 0.961 . S
H68 C8 0.961 . S
H69 C9 0.960 . S
H70 C9 0.960 . S
H71 C9 0.961 . S
H72 C11 0.980 . S
H73 C10 0.961 . S
H74 C10 0.960 . S
H75 C10 0.959 . S
H76 C13 0.930 . S
H77 C17 0.931 . S
H78 C18 0.959 . S
H79 C18 0.961 . S
H80 C18 0.959 . S
H81 C19 0.960 . S
H82 C19 0.960 . S
H83 C19 0.960 . S
H84 C55 0.980 . S
H85 C21 0.930 . S
H86 C25 0.930 . S
H87 C26 0.961 . S
H88 C26 0.960 . S
H89 C26 0.958 . S
H90 C27 0.961 . S
H91 C27 0.960 . S
H92 C27 0.960 . S
H93 C29 0.980 . S
H94 C28 0.961 . S
H95 C28 0.961 . S
H96 C28 0.959 . S
H97 C31 0.932 . S
H98 C35 0.929 . S
H99 C36 0.961 . S
H100 C36 0.959 . S
H101 C36 0.959 . S
H102 C37 0.960 . S
H103 C37 0.962 . S
H104 C37 0.961 . S
H105 C39 0.929 . S
H106 C42 0.930 . S
H107 C43 0.929 . S
H108 C46 0.930 . S
H109 C49 0.929 . S
H110 C50 0.930 . S
H111 C54 0.962 . S
H112 C54 0.959 . S
H113 C54 0.958 . S
C114 C115 1.560 . S
C114 H175 0.959 . S
C114 H176 0.959 . S
C114 H177 0.960 . S
C115 C114 1.560 . S
C115 O170 1.426 . S
C115 H174 0.980 . S
C116 C117 1.407 . S
C116 C121 1.418 . S
C116 O170 1.334 . S
C117 C116 1.407 . S
C117 C118 1.360 . S
C117 H178 0.929 . S
C118 C117 1.360 . S
C118 C119 1.401 . S
C118 C122 1.527 . S
C119 C118 1.401 . S
C119 C120 1.405 . S
C119 C152 1.587 . S
C120 C119 1.405 . S
C120 C121 1.332 . S
C120 C123 1.496 . S
C121 C116 1.418 . S
C121 C120 1.332 . S
C121 H179 0.929 . S
C122 C118 1.527 . S
C122 H180 0.959 . S
C122 H181 0.961 . S
C122 H182 0.961 . S
C123 C120 1.496 . S
C123 H183 0.960 . S
C123 H184 0.960 . S
C123 H185 0.961 . S
C124 C125 1.517 . S
C124 H187 0.961 . S
C124 H188 0.960 . S
C124 H189 0.959 . S
C125 C124 1.517 . S
C125 O173 1.468 . S
C125 H186 0.980 . S
C126 C127 1.349 . S
C126 C131 1.367 . S
C126 O173 1.408 . S
C127 C126 1.349 . S
C127 C128 1.407 . S
C127 H190 0.930 . S
C128 C127 1.407 . S
C128 C129 1.449 . S
C128 C132 1.535 . S
C129 C128 1.449 . S
C129 C130 1.384 . S
C129 C154 1.553 . S
C130 C129 1.384 . S
C130 C131 1.364 . S
C130 C133 1.450 . S
C131 C126 1.367 . S
C131 C130 1.364 . S
C131 H191 0.931 . S
C132 C128 1.535 . S
C132 H192 0.959 . S
C132 H193 0.961 . S
C132 H194 0.959 . S
C133 C130 1.450 . S
C133 H195 0.960 . S
C133 H196 0.960 . S
C133 H197 0.960 . S
C134 C135 1.309 . S
C134 C139 1.304 . S
C134 O172 1.435 . S
C135 C134 1.309 . S
C135 C136 1.476 . S
C135 H199 0.930 . S
C136 C135 1.476 . S
C136 C137 1.400 . S
C136 C140 1.567 . S
C137 C136 1.400 . S
C137 C138 1.373 . S
C137 C159 1.432 . S
C138 C137 1.373 . S
C138 C139 1.339 . S
C138 C141 1.530 . S
C139 C134 1.304 . S
C139 C138 1.339 . S
C139 H200 0.930 . S
C140 C136 1.567 . S
C140 H201 0.961 . S
C140 H202 0.960 . S
C140 H203 0.958 . S
C141 C138 1.530 . S
C141 H204 0.961 . S
C141 H205 0.960 . S
C141 H206 0.960 . S
C142 C143 1.530 . S
C142 H208 0.961 . S
C142 H209 0.961 . S
C142 H210 0.959 . S
C143 C142 1.530 . S
C143 O171 1.412 . S
C143 H207 0.980 . S
C144 C145 1.288 . S
C144 C149 1.377 . S
C144 O171 1.393 . S
C145 C144 1.288 . S
C145 C146 1.369 . S
C145 H211 0.932 . S
C146 C145 1.369 . S
C146 C147 1.398 . S
C146 C150 1.527 . S
C147 C146 1.398 . S
C147 C148 1.380 . S
C147 C161 1.497 . S
C148 C147 1.380 . S
C148 C149 1.383 . S
C148 C151 1.603 . S
C149 C144 1.377 . S
C149 C148 1.383 . S
C149 H212 0.929 . S
C150 C146 1.527 . S
C150 H213 0.961 . S
C150 H214 0.959 . S
C150 H215 0.959 . S
C151 C148 1.603 . S
C151 H216 0.960 . S
C151 H217 0.962 . S
C151 H218 0.961 . S
C152 C119 1.587 . S
C152 C153 1.360 . S
C152 C165 1.412 . S
C153 C152 1.360 . S
C153 C154 1.365 . S
C153 H219 0.929 . S
C154 C129 1.553 . S
C154 C153 1.365 . S
C154 C155 1.404 . S
C155 C154 1.404 . S
C155 C156 1.395 . S
C155 C166 1.451 . S
C156 C155 1.395 . S
C156 C157 1.322 . S
C156 H220 0.930 . S
C157 C156 1.322 . S
C157 C158 1.459 . S
C157 H221 0.929 . S
C158 C157 1.459 . S
C158 C159 1.445 . S
C158 C167 1.395 . S
C159 C137 1.432 . S
C159 C158 1.445 . S
C159 C160 1.370 . S
C160 C159 1.370 . S
C160 C161 1.438 . S
C160 H222 0.930 . S
C161 C147 1.497 . S
C161 C160 1.438 . S
C161 C162 1.360 . S
C162 C161 1.360 . S
C162 C163 1.401 . S
C162 C167 1.446 . S
C163 C162 1.401 . S
C163 C164 1.347 . S
C163 H223 0.929 . S
C164 C163 1.347 . S
C164 C165 1.455 . S
C164 H224 0.930 . S
C165 C152 1.412 . S
C165 C164 1.455 . S
C165 C166 1.331 . S
C166 C155 1.451 . S
C166 C165 1.331 . S
C166 C167 1.497 . S
C167 C158 1.395 . S
C167 C162 1.446 . S
C167 C166 1.497 . S
C168 C169 1.582 . S
C168 H225 0.962 . S
C168 H226 0.959 . S
C168 H227 0.958 . S
C169 C168 1.582 . S
C169 O172 1.458 . S
C169 H198 0.980 . S
O170 C115 1.426 . S
O170 C116 1.334 . S
O171 C143 1.412 . S
O171 C144 1.393 . S
O172 C134 1.435 . S
O172 C169 1.458 . S
O173 C125 1.468 . S
O173 C126 1.408 . S
H174 C115 0.980 . S
H175 C114 0.959 . S
H176 C114 0.959 . S
H177 C114 0.960 . S
H178 C117 0.929 . S
H179 C121 0.929 . S
H180 C122 0.959 . S
H181 C122 0.961 . S
H182 C122 0.961 . S
H183 C123 0.960 . S
H184 C123 0.960 . S
H185 C123 0.961 . S
H186 C125 0.980 . S
H187 C124 0.961 . S
H188 C124 0.960 . S
H189 C124 0.959 . S
H190 C127 0.930 . S
H191 C131 0.931 . S
H192 C132 0.959 . S
H193 C132 0.961 . S
H194 C132 0.959 . S
H195 C133 0.960 . S
H196 C133 0.960 . S
H197 C133 0.960 . S
H198 C169 0.980 . S
H199 C135 0.930 . S
H200 C139 0.930 . S
H201 C140 0.961 . S
H202 C140 0.960 . S
H203 C140 0.958 . S
H204 C141 0.961 . S
H205 C141 0.960 . S
H206 C141 0.960 . S
H207 C143 0.980 . S
H208 C142 0.961 . S
H209 C142 0.961 . S
H210 C142 0.959 . S
H211 C145 0.932 . S
H212 C149 0.929 . S
H213 C150 0.961 . S
H214 C150 0.959 . S
H215 C150 0.959 . S
H216 C151 0.960 . S
H217 C151 0.962 . S
H218 C151 0.961 . S
H219 C153 0.929 . S
H220 C156 0.930 . S
H221 C157 0.929 . S
H222 C160 0.930 . S
H223 C163 0.929 . S
H224 C164 0.930 . S
H225 C168 0.962 . S
H226 C168 0.959 . S
H227 C168 0.958 . S
C228 C229 1.560 . S
C228 H289 0.959 . S
C228 H290 0.959 . S
C228 H291 0.960 . S
C229 C228 1.560 . S
C229 O284 1.426 . S
C229 H288 0.980 . S
C230 C231 1.407 . S
C230 C235 1.418 . S
C230 O284 1.334 . S
C231 C230 1.407 . S
C231 C232 1.360 . S
C231 H292 0.929 . S
C232 C231 1.360 . S
C232 C233 1.401 . S
C232 C236 1.527 . S
C233 C232 1.401 . S
C233 C234 1.405 . S
C233 C266 1.587 . S
C234 C233 1.405 . S
C234 C235 1.332 . S
C234 C237 1.496 . S
C235 C230 1.418 . S
C235 C234 1.332 . S
C235 H293 0.929 . S
C236 C232 1.527 . S
C236 H294 0.959 . S
C236 H295 0.961 . S
C236 H296 0.961 . S
C237 C234 1.496 . S
C237 H297 0.960 . S
C237 H298 0.960 . S
C237 H299 0.961 . S
C238 C239 1.517 . S
C238 H301 0.961 . S
C238 H302 0.960 . S
C238 H303 0.959 . S
C239 C238 1.517 . S
C239 O287 1.468 . S
C239 H300 0.980 . S
C240 C241 1.349 . S
C240 C245 1.367 . S
C240 O287 1.408 . S
C241 C240 1.349 . S
C241 C242 1.407 . S
C241 H304 0.930 . S
C242 C241 1.407 . S
C242 C243 1.449 . S
C242 C246 1.535 . S
C243 C242 1.449 . S
C243 C244 1.384 . S
C243 C268 1.553 . S
C244 C243 1.384 . S
C244 C245 1.364 . S
C244 C247 1.450 . S
C245 C240 1.367 . S
C245 C244 1.364 . S
C245 H305 0.931 . S
C246 C242 1.535 . S
C246 H306 0.959 . S
C246 H307 0.961 . S
C246 H308 0.959 . S
C247 C244 1.450 . S
C247 H309 0.960 . S
C247 H310 0.960 . S
C247 H311 0.960 . S
C248 C249 1.309 . S
C248 C253 1.304 . S
C248 O286 1.435 . S
C249 C248 1.309 . S
C249 C250 1.476 . S
C249 H313 0.930 . S
C250 C249 1.476 . S
C250 C251 1.400 . S
C250 C254 1.567 . S
C251 C250 1.400 . S
C251 C252 1.373 . S
C251 C273 1.432 . S
C252 C251 1.373 . S
C252 C253 1.339 . S
C252 C255 1.530 . S
C253 C248 1.304 . S
C253 C252 1.339 . S
C253 H314 0.930 . S
C254 C250 1.567 . S
C254 H315 0.961 . S
C254 H316 0.960 . S
C254 H317 0.958 . S
C255 C252 1.530 . S
C255 H318 0.961 . S
C255 H319 0.960 . S
C255 H320 0.960 . S
C256 C257 1.530 . S
C256 H322 0.961 . S
C256 H323 0.961 . S
C256 H324 0.959 . S
C257 C256 1.530 . S
C257 O285 1.412 . S
C257 H321 0.980 . S
C258 C259 1.288 . S
C258 C263 1.377 . S
C258 O285 1.393 . S
C259 C258 1.288 . S
C259 C260 1.369 . S
C259 H325 0.932 . S
C260 C259 1.369 . S
C260 C261 1.398 . S
C260 C264 1.527 . S
C261 C260 1.398 . S
C261 C262 1.380 . S
C261 C275 1.497 . S
C262 C261 1.380 . S
C262 C263 1.383 . S
C262 C265 1.603 . S
C263 C258 1.377 . S
C263 C262 1.383 . S
C263 H326 0.929 . S
C264 C260 1.527 . S
C264 H327 0.961 . S
C264 H328 0.959 . S
C264 H329 0.959 . S
C265 C262 1.603 . S
C265 H330 0.960 . S
C265 H331 0.962 . S
C265 H332 0.961 . S
C266 C233 1.587 . S
C266 C267 1.360 . S
C266 C279 1.412 . S
C267 C266 1.360 . S
C267 C268 1.365 . S
C267 H333 0.929 . S
C268 C243 1.553 . S
C268 C267 1.365 . S
C268 C269 1.404 . S
C269 C268 1.404 . S
C269 C270 1.395 . S
C269 C280 1.451 . S
C270 C269 1.395 . S
C270 C271 1.322 . S
C270 H334 0.930 . S
C271 C270 1.322 . S
C271 C272 1.459 . S
C271 H335 0.929 . S
C272 C271 1.459 . S
C272 C273 1.445 . S
C272 C281 1.395 . S
C273 C251 1.432 . S
C273 C272 1.445 . S
C273 C274 1.370 . S
C274 C273 1.370 . S
C274 C275 1.438 . S
C274 H336 0.930 . S
C275 C261 1.497 . S
C275 C274 1.438 . S
C275 C276 1.360 . S
C276 C275 1.360 . S
C276 C277 1.401 . S
C276 C281 1.446 . S
C277 C276 1.401 . S
C277 C278 1.347 . S
C277 H337 0.929 . S
C278 C277 1.347 . S
C278 C279 1.455 . S
C278 H338 0.930 . S
C279 C266 1.412 . S
C279 C278 1.455 . S
C279 C280 1.331 . S
C280 C269 1.451 . S
C280 C279 1.331 . S
C280 C281 1.497 . S
C281 C272 1.395 . S
C281 C276 1.446 . S
C281 C280 1.497 . S
C282 C283 1.582 . S
C282 H339 0.962 . S
C282 H340 0.959 . S
C282 H341 0.958 . S
C283 C282 1.582 . S
C283 O286 1.458 . S
C283 H312 0.980 . S
O284 C229 1.426 . S
O284 C230 1.334 . S
O285 C257 1.412 . S
O285 C258 1.393 . S
O286 C248 1.435 . S
O286 C283 1.458 . S
O287 C239 1.468 . S
O287 C240 1.408 . S
H288 C229 0.980 . S
H289 C228 0.959 . S
H290 C228 0.959 . S
H291 C228 0.960 . S
H292 C231 0.929 . S
H293 C235 0.929 . S
H294 C236 0.959 . S
H295 C236 0.961 . S
H296 C236 0.961 . S
H297 C237 0.960 . S
H298 C237 0.960 . S
H299 C237 0.961 . S
H300 C239 0.980 . S
H301 C238 0.961 . S
H302 C238 0.960 . S
H303 C238 0.959 . S
H304 C241 0.930 . S
H305 C245 0.931 . S
H306 C246 0.959 . S
H307 C246 0.961 . S
H308 C246 0.959 . S
H309 C247 0.960 . S
H310 C247 0.960 . S
H311 C247 0.960 . S
H312 C283 0.980 . S
H313 C249 0.930 . S
H314 C253 0.930 . S
H315 C254 0.961 . S
H316 C254 0.960 . S
H317 C254 0.958 . S
H318 C255 0.961 . S
H319 C255 0.960 . S
H320 C255 0.960 . S
H321 C257 0.980 . S
H322 C256 0.961 . S
H323 C256 0.961 . S
H324 C256 0.959 . S
H325 C259 0.932 . S
H326 C263 0.929 . S
H327 C264 0.961 . S
H328 C264 0.959 . S
H329 C264 0.959 . S
H330 C265 0.960 . S
H331 C265 0.962 . S
H332 C265 0.961 . S
H333 C267 0.929 . S
H334 C270 0.930 . S
H335 C271 0.929 . S
H336 C274 0.930 . S
H337 C277 0.929 . S
H338 C278 0.930 . S
H339 C282 0.962 . S
H340 C282 0.959 . S
H341 C282 0.958 . S
C342 C343 1.560 . S
C342 H403 0.959 . S
C342 H404 0.959 . S
C342 H405 0.960 . S
C343 C342 1.560 . S
C343 O398 1.426 . S
C343 H402 0.980 . S
C344 C345 1.407 . S
C344 C349 1.418 . S
C344 O398 1.334 . S
C345 C344 1.407 . S
C345 C346 1.360 . S
C345 H406 0.929 . S
C346 C345 1.360 . S
C346 C347 1.401 . S
C346 C350 1.527 . S
C347 C346 1.401 . S
C347 C348 1.405 . S
C347 C380 1.587 . S
C348 C347 1.405 . S
C348 C349 1.332 . S
C348 C351 1.496 . S
C349 C344 1.418 . S
C349 C348 1.332 . S
C349 H407 0.929 . S
C350 C346 1.527 . S
C350 H408 0.959 . S
C350 H409 0.961 . S
C350 H410 0.961 . S
C351 C348 1.496 . S
C351 H411 0.960 . S
C351 H412 0.960 . S
C351 H413 0.961 . S
C352 C353 1.517 . S
C352 H415 0.961 . S
C352 H416 0.960 . S
C352 H417 0.959 . S
C353 C352 1.517 . S
C353 O401 1.468 . S
C353 H414 0.980 . S
C354 C355 1.349 . S
C354 C359 1.367 . S
C354 O401 1.408 . S
C355 C354 1.349 . S
C355 C356 1.407 . S
C355 H418 0.930 . S
C356 C355 1.407 . S
C356 C357 1.449 . S
C356 C360 1.535 . S
C357 C356 1.449 . S
C357 C358 1.384 . S
C357 C382 1.553 . S
C358 C357 1.384 . S
C358 C359 1.364 . S
C358 C361 1.450 . S
C359 C354 1.367 . S
C359 C358 1.364 . S
C359 H419 0.931 . S
C360 C356 1.535 . S
C360 H420 0.959 . S
C360 H421 0.961 . S
C360 H422 0.959 . S
C361 C358 1.450 . S
C361 H423 0.960 . S
C361 H424 0.960 . S
C361 H425 0.960 . S
C362 C363 1.309 . S
C362 C367 1.304 . S
C362 O400 1.435 . S
C363 C362 1.309 . S
C363 C364 1.476 . S
C363 H427 0.930 . S
C364 C363 1.476 . S
C364 C365 1.400 . S
C364 C368 1.567 . S
C365 C364 1.400 . S
C365 C366 1.373 . S
C365 C387 1.432 . S
C366 C365 1.373 . S
C366 C367 1.339 . S
C366 C369 1.530 . S
C367 C362 1.304 . S
C367 C366 1.339 . S
C367 H428 0.930 . S
C368 C364 1.567 . S
C368 H429 0.961 . S
C368 H430 0.960 . S
C368 H431 0.958 . S
C369 C366 1.530 . S
C369 H432 0.961 . S
C369 H433 0.960 . S
C369 H434 0.960 . S
C370 C371 1.530 . S
C370 H436 0.961 . S
C370 H437 0.961 . S
C370 H438 0.959 . S
C371 C370 1.530 . S
C371 O399 1.412 . S
C371 H435 0.980 . S
C372 C373 1.288 . S
C372 C377 1.377 . S
C372 O399 1.393 . S
C373 C372 1.288 . S
C373 C374 1.369 . S
C373 H439 0.932 . S
C374 C373 1.369 . S
C374 C375 1.398 . S
C374 C378 1.527 . S
C375 C374 1.398 . S
C375 C376 1.380 . S
C375 C389 1.497 . S
C376 C375 1.380 . S
C376 C377 1.383 . S
C376 C379 1.603 . S
C377 C372 1.377 . S
C377 C376 1.383 . S
C377 H440 0.929 . S
C378 C374 1.527 . S
C378 H441 0.961 . S
C378 H442 0.959 . S
C378 H443 0.959 . S
C379 C376 1.603 . S
C379 H444 0.960 . S
C379 H445 0.962 . S
C379 H446 0.961 . S
C380 C347 1.587 . S
C380 C381 1.360 . S
C380 C393 1.412 . S
C381 C380 1.360 . S
C381 C382 1.365 . S
C381 H447 0.929 . S
C382 C357 1.553 . S
C382 C381 1.365 . S
C382 C383 1.404 . S
C383 C382 1.404 . S
C383 C384 1.395 . S
C383 C394 1.451 . S
C384 C383 1.395 . S
C384 C385 1.322 . S
C384 H448 0.930 . S
C385 C384 1.322 . S
C385 C386 1.459 . S
C385 H449 0.929 . S
C386 C385 1.459 . S
C386 C387 1.445 . S
C386 C395 1.395 . S
C387 C365 1.432 . S
C387 C386 1.445 . S
C387 C388 1.370 . S
C388 C387 1.370 . S
C388 C389 1.438 . S
C388 H450 0.930 . S
C389 C375 1.497 . S
C389 C388 1.438 . S
C389 C390 1.360 . S
C390 C389 1.360 . S
C390 C391 1.401 . S
C390 C395 1.446 . S
C391 C390 1.401 . S
C391 C392 1.347 . S
C391 H451 0.929 . S
C392 C391 1.347 . S
C392 C393 1.455 . S
C392 H452 0.930 . S
C393 C380 1.412 . S
C393 C392 1.455 . S
C393 C394 1.331 . S
C394 C383 1.451 . S
C394 C393 1.331 . S
C394 C395 1.497 . S
C395 C386 1.395 . S
C395 C390 1.446 . S
C395 C394 1.497 . S
C396 C397 1.582 . S
C396 H453 0.962 . S
C396 H454 0.959 . S
C396 H455 0.958 . S
C397 C396 1.582 . S
C397 O400 1.458 . S
C397 H426 0.980 . S
O398 C343 1.426 . S
O398 C344 1.334 . S
O399 C371 1.412 . S
O399 C372 1.393 . S
O400 C362 1.435 . S
O400 C397 1.458 . S
O401 C353 1.468 . S
O401 C354 1.408 . S
H402 C343 0.980 . S
H403 C342 0.959 . S
H404 C342 0.959 . S
H405 C342 0.960 . S
H406 C345 0.929 . S
H407 C349 0.929 . S
H408 C350 0.959 . S
H409 C350 0.961 . S
H410 C350 0.961 . S
H411 C351 0.960 . S
H412 C351 0.960 . S
H413 C351 0.961 . S
H414 C353 0.980 . S
H415 C352 0.961 . S
H416 C352 0.960 . S
H417 C352 0.959 . S
H418 C355 0.930 . S
H419 C359 0.931 . S
H420 C360 0.959 . S
H421 C360 0.961 . S
H422 C360 0.959 . S
H423 C361 0.960 . S
H424 C361 0.960 . S
H425 C361 0.960 . S
H426 C397 0.980 . S
H427 C363 0.930 . S
H428 C367 0.930 . S
H429 C368 0.961 . S
H430 C368 0.960 . S
H431 C368 0.958 . S
H432 C369 0.961 . S
H433 C369 0.960 . S
H434 C369 0.960 . S
H435 C371 0.980 . S
H436 C370 0.961 . S
H437 C370 0.961 . S
H438 C370 0.959 . S
H439 C373 0.932 . S
H440 C377 0.929 . S
H441 C378 0.961 . S
H442 C378 0.959 . S
H443 C378 0.959 . S
H444 C379 0.960 . S
H445 C379 0.962 . S
H446 C379 0.961 . S
H447 C381 0.929 . S
H448 C384 0.930 . S
H449 C385 0.929 . S
H450 C388 0.930 . S
H451 C391 0.929 . S
H452 C392 0.930 . S
H453 C396 0.962 . S
H454 C396 0.959 . S
H455 C396 0.958 . S
C456 C457 1.560 . S
C456 H517 0.959 . S
C456 H518 0.959 . S
C456 H519 0.960 . S
C457 C456 1.560 . S
C457 O512 1.426 . S
C457 H516 0.980 . S
C458 C459 1.407 . S
C458 C463 1.418 . S
C458 O512 1.334 . S
C459 C458 1.407 . S
C459 C460 1.360 . S
C459 H520 0.929 . S
C460 C459 1.360 . S
C460 C461 1.401 . S
C460 C464 1.527 . S
C461 C460 1.401 . S
C461 C462 1.405 . S
C461 C494 1.587 . S
C462 C461 1.405 . S
C462 C463 1.332 . S
C462 C465 1.496 . S
C463 C458 1.418 . S
C463 C462 1.332 . S
C463 H521 0.929 . S
C464 C460 1.527 . S
C464 H522 0.959 . S
C464 H523 0.961 . S
C464 H524 0.961 . S
C465 C462 1.496 . S
C465 H525 0.960 . S
C465 H526 0.960 . S
C465 H527 0.961 . S
C466 C467 1.517 . S
C466 H529 0.961 . S
C466 H530 0.960 . S
C466 H531 0.959 . S
C467 C466 1.517 . S
C467 O515 1.468 . S
C467 H528 0.980 . S
C468 C469 1.349 . S
C468 C473 1.367 . S
C468 O515 1.408 . S
C469 C468 1.349 . S
C469 C470 1.407 . S
C469 H532 0.930 . S
C470 C469 1.407 . S
C470 C471 1.449 . S
C470 C474 1.535 . S
C471 C470 1.449 . S
C471 C472 1.384 . S
C471 C496 1.553 . S
C472 C471 1.384 . S
C472 C473 1.364 . S
C472 C475 1.450 . S
C473 C468 1.367 . S
C473 C472 1.364 . S
C473 H533 0.931 . S
C474 C470 1.535 . S
C474 H534 0.959 . S
C474 H535 0.961 . S
C474 H536 0.959 . S
C475 C472 1.450 . S
C475 H537 0.960 . S
C475 H538 0.960 . S
C475 H539 0.960 . S
C476 C477 1.309 . S
C476 C481 1.304 . S
C476 O514 1.435 . S
C477 C476 1.309 . S
C477 C478 1.476 . S
C477 H541 0.930 . S
C478 C477 1.476 . S
C478 C479 1.400 . S
C478 C482 1.567 . S
C479 C478 1.400 . S
C479 C480 1.373 . S
C479 C501 1.432 . S
C480 C479 1.373 . S
C480 C481 1.339 . S
C480 C483 1.530 . S
C481 C476 1.304 . S
C481 C480 1.339 . S
C481 H542 0.930 . S
C482 C478 1.567 . S
C482 H543 0.961 . S
C482 H544 0.960 . S
C482 H545 0.958 . S
C483 C480 1.530 . S
C483 H546 0.961 . S
C483 H547 0.960 . S
C483 H548 0.960 . S
C484 C485 1.530 . S
C484 H550 0.961 . S
C484 H551 0.961 . S
C484 H552 0.959 . S
C485 C484 1.530 . S
C485 O513 1.412 . S
C485 H549 0.980 . S
C486 C487 1.288 . S
C486 C491 1.377 . S
C486 O513 1.393 . S
C487 C486 1.288 . S
C487 C488 1.369 . S
C487 H553 0.932 . S
C488 C487 1.369 . S
C488 C489 1.398 . S
C488 C492 1.527 . S
C489 C488 1.398 . S
C489 C490 1.380 . S
C489 C503 1.497 . S
C490 C489 1.380 . S
C490 C491 1.383 . S
C490 C493 1.603 . S
C491 C486 1.377 . S
C491 C490 1.383 . S
C491 H554 0.929 . S
C492 C488 1.527 . S
C492 H555 0.961 . S
C492 H556 0.959 . S
C492 H557 0.959 . S
C493 C490 1.603 . S
C493 H558 0.960 . S
C493 H559 0.962 . S
C493 H560 0.961 . S
C494 C461 1.587 . S
C494 C495 1.360 . S
C494 C507 1.412 . S
C495 C494 1.360 . S
C495 C496 1.365 . S
C495 H561 0.929 . S
C496 C471 1.553 . S
C496 C495 1.365 . S
C496 C497 1.404 . S
C497 C496 1.404 . S
C497 C498 1.395 . S
C497 C508 1.451 . S
C498 C497 1.395 . S
C498 C499 1.322 . S
C498 H562 0.930 . S
C499 C498 1.322 . S
C499 C500 1.459 . S
C499 H563 0.929 . S
C500 C499 1.459 . S
C500 C501 1.445 . S
C500 C509 1.395 . S
C501 C479 1.432 . S
C501 C500 1.445 . S
C501 C502 1.370 . S
C502 C501 1.370 . S
C502 C503 1.438 . S
C502 H564 0.930 . S
C503 C489 1.497 . S
C503 C502 1.438 . S
C503 C504 1.360 . S
C504 C503 1.360 . S
C504 C505 1.401 . S
C504 C509 1.446 . S
C505 C504 1.401 . S
C505 C506 1.347 . S
C505 H565 0.929 . S
C506 C505 1.347 . S
C506 C507 1.455 . S
C506 H566 0.930 . S
C507 C494 1.412 . S
C507 C506 1.455 . S
C507 C508 1.331 . S
C508 C497 1.451 . S
C508 C507 1.331 . S
C508 C509 1.497 . S
C509 C500 1.395 . S
C509 C504 1.446 . S
C509 C508 1.497 . S
C510 C511 1.582 . S
C510 H567 0.962 . S
C510 H568 0.959 . S
C510 H569 0.958 . S
C511 C510 1.582 . S
C511 O514 1.458 . S
C511 H540 0.980 . S
O512 C457 1.426 . S
O512 C458 1.334 . S
O513 C485 1.412 . S
O513 C486 1.393 . S
O514 C476 1.435 . S
O514 C511 1.458 . S
O515 C467 1.468 . S
O515 C468 1.408 . S
H516 C457 0.980 . S
H517 C456 0.959 . S
H518 C456 0.959 . S
H519 C456 0.960 . S
H520 C459 0.929 . S
H521 C463 0.929 . S
H522 C464 0.959 . S
H523 C464 0.961 . S
H524 C464 0.961 . S
H525 C465 0.960 . S
H526 C465 0.960 . S
H527 C465 0.961 . S
H528 C467 0.980 . S
H529 C466 0.961 . S
H530 C466 0.960 . S
H531 C466 0.959 . S
H532 C469 0.930 . S
H533 C473 0.931 . S
H534 C474 0.959 . S
H535 C474 0.961 . S
H536 C474 0.959 . S
H537 C475 0.960 . S
H538 C475 0.960 . S
H539 C475 0.960 . S
H540 C511 0.980 . S
H541 C477 0.930 . S
H542 C481 0.930 . S
H543 C482 0.961 . S
H544 C482 0.960 . S
H545 C482 0.958 . S
H546 C483 0.961 . S
H547 C483 0.960 . S
H548 C483 0.960 . S
H549 C485 0.980 . S
H550 C484 0.961 . S
H551 C484 0.961 . S
H552 C484 0.959 . S
H553 C487 0.932 . S
H554 C491 0.929 . S
H555 C492 0.961 . S
H556 C492 0.959 . S
H557 C492 0.959 . S
H558 C493 0.960 . S
H559 C493 0.962 . S
H560 C493 0.961 . S
H561 C495 0.929 . S
H562 C498 0.930 . S
H563 C499 0.929 . S
H564 C502 0.930 . S
H565 C505 0.929 . S
H566 C506 0.930 . S
H567 C510 0.962 . S
H568 C510 0.959 . S
H569 C510 0.958 . S
C570 C571 1.560 . S
C570 H631 0.959 . S
C570 H632 0.959 . S
C570 H633 0.960 . S
C571 C570 1.560 . S
C571 O626 1.426 . S
C571 H630 0.980 . S
C572 C573 1.407 . S
C572 C577 1.418 . S
C572 O626 1.334 . S
C573 C572 1.407 . S
C573 C574 1.360 . S
C573 H634 0.929 . S
C574 C573 1.360 . S
C574 C575 1.401 . S
C574 C578 1.527 . S
C575 C574 1.401 . S
C575 C576 1.405 . S
C575 C608 1.587 . S
C576 C575 1.405 . S
C576 C577 1.332 . S
C576 C579 1.496 . S
C577 C572 1.418 . S
C577 C576 1.332 . S
C577 H635 0.929 . S
C578 C574 1.527 . S
C578 H636 0.959 . S
C578 H637 0.961 . S
C578 H638 0.961 . S
C579 C576 1.496 . S
C579 H639 0.960 . S
C579 H640 0.960 . S
C579 H641 0.961 . S
C580 C581 1.517 . S
C580 H643 0.961 . S
C580 H644 0.960 . S
C580 H645 0.959 . S
C581 C580 1.517 . S
C581 O629 1.468 . S
C581 H642 0.980 . S
C582 C583 1.349 . S
C582 C587 1.367 . S
C582 O629 1.408 . S
C583 C582 1.349 . S
C583 C584 1.407 . S
C583 H646 0.930 . S
C584 C583 1.407 . S
C584 C585 1.449 . S
C584 C588 1.535 . S
C585 C584 1.449 . S
C585 C586 1.384 . S
C585 C610 1.553 . S
C586 C585 1.384 . S
C586 C587 1.364 . S
C586 C589 1.450 . S
C587 C582 1.367 . S
C587 C586 1.364 . S
C587 H647 0.931 . S
C588 C584 1.535 . S
C588 H648 0.959 . S
C588 H649 0.961 . S
C588 H650 0.959 . S
C589 C586 1.450 . S
C589 H651 0.960 . S
C589 H652 0.960 . S
C589 H653 0.960 . S
C590 C591 1.309 . S
C590 C595 1.304 . S
C590 O628 1.435 . S
C591 C590 1.309 . S
C591 C592 1.476 . S
C591 H655 0.930 . S
C592 C591 1.476 . S
C592 C593 1.400 . S
C592 C596 1.567 . S
C593 C592 1.400 . S
C593 C594 1.373 . S
C593 C615 1.432 . S
C594 C593 1.373 . S
C594 C595 1.339 . S
C594 C597 1.530 . S
C595 C590 1.304 . S
C595 C594 1.339 . S
C595 H656 0.930 . S
C596 C592 1.567 . S
C596 H657 0.961 . S
C596 H658 0.960 . S
C596 H659 0.958 . S
C597 C594 1.530 . S
C597 H660 0.961 . S
C597 H661 0.960 . S
C597 H662 0.960 . S
C598 C599 1.530 . S
C598 H664 0.961 . S
C598 H665 0.961 . S
C598 H666 0.959 . S
C599 C598 1.530 . S
C599 O627 1.412 . S
C599 H663 0.980 . S
C600 C601 1.288 . S
C600 C605 1.377 . S
C600 O627 1.393 . S
C601 C600 1.288 . S
C601 C602 1.369 . S
C601 H667 0.932 . S
C602 C601 1.369 . S
C602 C603 1.398 . S
C602 C606 1.527 . S
C603 C602 1.398 . S
C603 C604 1.380 . S
C603 C617 1.497 . S
C604 C603 1.380 . S
C604 C605 1.383 . S
C604 C607 1.603 . S
C605 C600 1.377 . S
C605 C604 1.383 . S
C605 H668 0.929 . S
C606 C602 1.527 . S
C606 H669 0.961 . S
C606 H670 0.959 . S
C606 H671 0.959 . S
C607 C604 1.603 . S
C607 H672 0.960 . S
C607 H673 0.962 . S
C607 H674 0.961 . S
C608 C575 1.587 . S
C608 C609 1.360 . S
C608 C621 1.412 . S
C609 C608 1.360 . S
C609 C610 1.365 . S
C609 H675 0.929 . S
C610 C585 1.553 . S
C610 C609 1.365 . S
C610 C611 1.404 . S
C611 C610 1.404 . S
C611 C612 1.395 . S
C611 C622 1.451 . S
C612 C611 1.395 . S
C612 C613 1.322 . S
C612 H676 0.930 . S
C613 C612 1.322 . S
C613 C614 1.459 . S
C613 H677 0.929 . S
C614 C613 1.459 . S
C614 C615 1.445 . S
C614 C623 1.395 . S
C615 C593 1.432 . S
C615 C614 1.445 . S
C615 C616 1.370 . S
C616 C615 1.370 . S
C616 C617 1.438 . S
C616 H678 0.930 . S
C617 C603 1.497 . S
C617 C616 1.438 . S
C617 C618 1.360 . S
C618 C617 1.360 . S
C618 C619 1.401 . S
C618 C623 1.446 . S
C619 C618 1.401 . S
C619 C620 1.347 . S
C619 H679 0.929 . S
C620 C619 1.347 . S
C620 C621 1.455 . S
C620 H680 0.930 . S
C621 C608 1.412 . S
C621 C620 1.455 . S
C621 C622 1.331 . S
C622 C611 1.451 . S
C622 C621 1.331 . S
C622 C623 1.497 . S
C623 C614 1.395 . S
C623 C618 1.446 . S
C623 C622 1.497 . S
C624 C625 1.582 . S
C624 H681 0.962 . S
C624 H682 0.959 . S
C624 H683 0.958 . S
C625 C624 1.582 . S
C625 O628 1.458 . S
C625 H654 0.980 . S
O626 C571 1.426 . S
O626 C572 1.334 . S
O627 C599 1.412 . S
O627 C600 1.393 . S
O628 C590 1.435 . S
O628 C625 1.458 . S
O629 C581 1.468 . S
O629 C582 1.408 . S
H630 C571 0.980 . S
H631 C570 0.959 . S
H632 C570 0.959 . S
H633 C570 0.960 . S
H634 C573 0.929 . S
H635 C577 0.929 . S
H636 C578 0.959 . S
H637 C578 0.961 . S
H638 C578 0.961 . S
H639 C579 0.960 . S
H640 C579 0.960 . S
H641 C579 0.961 . S
H642 C581 0.980 . S
H643 C580 0.961 . S
H644 C580 0.960 . S
H645 C580 0.959 . S
H646 C583 0.930 . S
H647 C587 0.931 . S
H648 C588 0.959 . S
H649 C588 0.961 . S
H650 C588 0.959 . S
H651 C589 0.960 . S
H652 C589 0.960 . S
H653 C589 0.960 . S
H654 C625 0.980 . S
H655 C591 0.930 . S
H656 C595 0.930 . S
H657 C596 0.961 . S
H658 C596 0.960 . S
H659 C596 0.958 . S
H660 C597 0.961 . S
H661 C597 0.960 . S
H662 C597 0.960 . S
H663 C599 0.980 . S
H664 C598 0.961 . S
H665 C598 0.961 . S
H666 C598 0.959 . S
H667 C601 0.932 . S
H668 C605 0.929 . S
H669 C606 0.961 . S
H670 C606 0.959 . S
H671 C606 0.959 . S
H672 C607 0.960 . S
H673 C607 0.962 . S
H674 C607 0.961 . S
H675 C609 0.929 . S
H676 C612 0.930 . S
H677 C613 0.929 . S
H678 C616 0.930 . S
H679 C619 0.929 . S
H680 C620 0.930 . S
H681 C624 0.962 . S
H682 C624 0.959 . S
H683 C624 0.958 . S
C684 C685 1.560 . S
C684 H745 0.959 . S
C684 H746 0.959 . S
C684 H747 0.960 . S
C685 C684 1.560 . S
C685 O740 1.426 . S
C685 H744 0.980 . S
C686 C687 1.407 . S
C686 C691 1.418 . S
C686 O740 1.334 . S
C687 C686 1.407 . S
C687 C688 1.360 . S
C687 H748 0.929 . S
C688 C687 1.360 . S
C688 C689 1.401 . S
C688 C692 1.527 . S
C689 C688 1.401 . S
C689 C690 1.405 . S
C689 C722 1.587 . S
C690 C689 1.405 . S
C690 C691 1.332 . S
C690 C693 1.496 . S
C691 C686 1.418 . S
C691 C690 1.332 . S
C691 H749 0.929 . S
C692 C688 1.527 . S
C692 H750 0.959 . S
C692 H751 0.961 . S
C692 H752 0.961 . S
C693 C690 1.496 . S
C693 H753 0.960 . S
C693 H754 0.960 . S
C693 H755 0.961 . S
C694 C695 1.517 . S
C694 H757 0.961 . S
C694 H758 0.960 . S
C694 H759 0.959 . S
C695 C694 1.517 . S
C695 O743 1.468 . S
C695 H756 0.980 . S
C696 C697 1.349 . S
C696 C701 1.367 . S
C696 O743 1.408 . S
C697 C696 1.349 . S
C697 C698 1.407 . S
C697 H760 0.930 . S
C698 C697 1.407 . S
C698 C699 1.449 . S
C698 C702 1.535 . S
C699 C698 1.449 . S
C699 C700 1.384 . S
C699 C724 1.553 . S
C700 C699 1.384 . S
C700 C701 1.364 . S
C700 C703 1.450 . S
C701 C696 1.367 . S
C701 C700 1.364 . S
C701 H761 0.931 . S
C702 C698 1.535 . S
C702 H762 0.959 . S
C702 H763 0.961 . S
C702 H764 0.959 . S
C703 C700 1.450 . S
C703 H765 0.960 . S
C703 H766 0.960 . S
C703 H767 0.960 . S
C704 C705 1.309 . S
C704 C709 1.304 . S
C704 O742 1.435 . S
C705 C704 1.309 . S
C705 C706 1.476 . S
C705 H769 0.930 . S
C706 C705 1.476 . S
C706 C707 1.400 . S
C706 C710 1.567 . S
C707 C706 1.400 . S
C707 C708 1.373 . S
C707 C729 1.432 . S
C708 C707 1.373 . S
C708 C709 1.339 . S
C708 C711 1.530 . S
C709 C704 1.304 . S
C709 C708 1.339 . S
C709 H770 0.930 . S
C710 C706 1.567 . S
C710 H771 0.961 . S
C710 H772 0.960 . S
C710 H773 0.958 . S
C711 C708 1.530 . S
C711 H774 0.961 . S
C711 H775 0.960 . S
C711 H776 0.960 . S
C712 C713 1.530 . S
C712 H778 0.961 . S
C712 H779 0.961 . S
C712 H780 0.959 . S
C713 C712 1.530 . S
C713 O741 1.412 . S
C713 H777 0.980 . S
C714 C715 1.288 . S
C714 C719 1.377 . S
C714 O741 1.393 . S
C715 C714 1.288 . S
C715 C716 1.369 . S
C715 H781 0.932 . S
C716 C715 1.369 . S
C716 C717 1.398 . S
C716 C720 1.527 . S
C717 C716 1.398 . S
C717 C718 1.380 . S
C717 C731 1.497 . S
C718 C717 1.380 . S
C718 C719 1.383 . S
C718 C721 1.603 . S
C719 C714 1.377 . S
C719 C718 1.383 . S
C719 H782 0.929 . S
C720 C716 1.527 . S
C720 H783 0.961 . S
C720 H784 0.959 . S
C720 H785 0.959 . S
C721 C718 1.603 . S
C721 H786 0.960 . S
C721 H787 0.962 . S
C721 H788 0.961 . S
C722 C689 1.587 . S
C722 C723 1.360 . S
C722 C735 1.412 . S
C723 C722 1.360 . S
C723 C724 1.365 . S
C723 H789 0.929 . S
C724 C699 1.553 . S
C724 C723 1.365 . S
C724 C725 1.404 . S
C725 C724 1.404 . S
C725 C726 1.395 . S
C725 C736 1.451 . S
C726 C725 1.395 . S
C726 C727 1.322 . S
C726 H790 0.930 . S
C727 C726 1.322 . S
C727 C728 1.459 . S
C727 H791 0.929 . S
C728 C727 1.459 . S
C728 C729 1.445 . S
C728 C737 1.395 . S
C729 C707 1.432 . S
C729 C728 1.445 . S
C729 C730 1.370 . S
C730 C729 1.370 . S
C730 C731 1.438 . S
C730 H792 0.930 . S
C731 C717 1.497 . S
C731 C730 1.438 . S
C731 C732 1.360 . S
C732 C731 1.360 . S
C732 C733 1.401 . S
C732 C737 1.446 . S
C733 C732 1.401 . S
C733 C734 1.347 . S
C733 H793 0.929 . S
C734 C733 1.347 . S
C734 C735 1.455 . S
C734 H794 0.930 . S
C735 C722 1.412 . S
C735 C734 1.455 . S
C735 C736 1.331 . S
C736 C725 1.451 . S
C736 C735 1.331 . S
C736 C737 1.497 . S
C737 C728 1.395 . S
C737 C732 1.446 . S
C737 C736 1.497 . S
C738 C739 1.582 . S
C738 H795 0.962 . S
C738 H796 0.959 . S
C738 H797 0.958 . S
C739 C738 1.582 . S
C739 O742 1.458 . S
C739 H768 0.980 . S
O740 C685 1.426 . S
O740 C686 1.334 . S
O741 C713 1.412 . S
O741 C714 1.393 . S
O742 C704 1.435 . S
O742 C739 1.458 . S
O743 C695 1.468 . S
O743 C696 1.408 . S
H744 C685 0.980 . S
H745 C684 0.959 . S
H746 C684 0.959 . S
H747 C684 0.960 . S
H748 C687 0.929 . S
H749 C691 0.929 . S
H750 C692 0.959 . S
H751 C692 0.961 . S
H752 C692 0.961 . S
H753 C693 0.960 . S
H754 C693 0.960 . S
H755 C693 0.961 . S
H756 C695 0.980 . S
H757 C694 0.961 . S
H758 C694 0.960 . S
H759 C694 0.959 . S
H760 C697 0.930 . S
H761 C701 0.931 . S
H762 C702 0.959 . S
H763 C702 0.961 . S
H764 C702 0.959 . S
H765 C703 0.960 . S
H766 C703 0.960 . S
H767 C703 0.960 . S
H768 C739 0.980 . S
H769 C705 0.930 . S
H770 C709 0.930 . S
H771 C710 0.961 . S
H772 C710 0.960 . S
H773 C710 0.958 . S
H774 C711 0.961 . S
H775 C711 0.960 . S
H776 C711 0.960 . S
H777 C713 0.980 . S
H778 C712 0.961 . S
H779 C712 0.961 . S
H780 C712 0.959 . S
H781 C715 0.932 . S
H782 C719 0.929 . S
H783 C720 0.961 . S
H784 C720 0.959 . S
H785 C720 0.959 . S
H786 C721 0.960 . S
H787 C721 0.962 . S
H788 C721 0.961 . S
H789 C723 0.929 . S
H790 C726 0.930 . S
H791 C727 0.929 . S
H792 C730 0.930 . S
H793 C733 0.929 . S
H794 C734 0.930 . S
H795 C738 0.962 . S
H796 C738 0.959 . S
H797 C738 0.958 . S
C798 C799 1.560 . S
C798 H859 0.959 . S
C798 H860 0.959 . S
C798 H861 0.960 . S
C799 C798 1.560 . S
C799 O854 1.426 . S
C799 H858 0.980 . S
C800 C801 1.407 . S
C800 C805 1.418 . S
C800 O854 1.334 . S
C801 C800 1.407 . S
C801 C802 1.360 . S
C801 H862 0.929 . S
C802 C801 1.360 . S
C802 C803 1.401 . S
C802 C806 1.527 . S
C803 C802 1.401 . S
C803 C804 1.405 . S
C803 C836 1.587 . S
C804 C803 1.405 . S
C804 C805 1.332 . S
C804 C807 1.496 . S
C805 C800 1.418 . S
C805 C804 1.332 . S
C805 H863 0.929 . S
C806 C802 1.527 . S
C806 H864 0.959 . S
C806 H865 0.961 . S
C806 H866 0.961 . S
C807 C804 1.496 . S
C807 H867 0.960 . S
C807 H868 0.960 . S
C807 H869 0.961 . S
C808 C809 1.517 . S
C808 H871 0.961 . S
C808 H872 0.960 . S
C808 H873 0.959 . S
C809 C808 1.517 . S
C809 O857 1.468 . S
C809 H870 0.980 . S
C810 C811 1.349 . S
C810 C815 1.367 . S
C810 O857 1.408 . S
C811 C810 1.349 . S
C811 C812 1.407 . S
C811 H874 0.930 . S
C812 C811 1.407 . S
C812 C813 1.449 . S
C812 C816 1.535 . S
C813 C812 1.449 . S
C813 C814 1.384 . S
C813 C838 1.553 . S
C814 C813 1.384 . S
C814 C815 1.364 . S
C814 C817 1.450 . S
C815 C810 1.367 . S
C815 C814 1.364 . S
C815 H875 0.931 . S
C816 C812 1.535 . S
C816 H876 0.959 . S
C816 H877 0.961 . S
C816 H878 0.959 . S
C817 C814 1.450 . S
C817 H879 0.960 . S
C817 H880 0.960 . S
C817 H881 0.960 . S
C818 C819 1.309 . S
C818 C823 1.304 . S
C818 O856 1.435 . S
C819 C818 1.309 . S
C819 C820 1.476 . S
C819 H883 0.930 . S
C820 C819 1.476 . S
C820 C821 1.400 . S
C820 C824 1.567 . S
C821 C820 1.400 . S
C821 C822 1.373 . S
C821 C843 1.432 . S
C822 C821 1.373 . S
C822 C823 1.339 . S
C822 C825 1.530 . S
C823 C818 1.304 . S
C823 C822 1.339 . S
C823 H884 0.930 . S
C824 C820 1.567 . S
C824 H885 0.961 . S
C824 H886 0.960 . S
C824 H887 0.958 . S
C825 C822 1.530 . S
C825 H888 0.961 . S
C825 H889 0.960 . S
C825 H890 0.960 . S
C826 C827 1.530 . S
C826 H892 0.961 . S
C826 H893 0.961 . S
C826 H894 0.959 . S
C827 C826 1.530 . S
C827 O855 1.412 . S
C827 H891 0.980 . S
C828 C829 1.288 . S
C828 C833 1.377 . S
C828 O855 1.393 . S
C829 C828 1.288 . S
C829 C830 1.369 . S
C829 H895 0.932 . S
C830 C829 1.369 . S
C830 C831 1.398 . S
C830 C834 1.527 . S
C831 C830 1.398 . S
C831 C832 1.380 . S
C831 C845 1.497 . S
C832 C831 1.380 . S
C832 C833 1.383 . S
C832 C835 1.603 . S
C833 C828 1.377 . S
C833 C832 1.383 . S
C833 H896 0.929 . S
C834 C830 1.527 . S
C834 H897 0.961 . S
C834 H898 0.959 . S
C834 H899 0.959 . S
C835 C832 1.603 . S
C835 H900 0.960 . S
C835 H901 0.962 . S
C835 H902 0.961 . S
C836 C803 1.587 . S
C836 C837 1.360 . S
C836 C849 1.412 . S
C837 C836 1.360 . S
C837 C838 1.365 . S
C837 H903 0.929 . S
C838 C813 1.553 . S
C838 C837 1.365 . S
C838 C839 1.404 . S
C839 C838 1.404 . S
C839 C840 1.395 . S
C839 C850 1.451 . S
C840 C839 1.395 . S
C840 C841 1.322 . S
C840 H904 0.930 . S
C841 C840 1.322 . S
C841 C842 1.459 . S
C841 H905 0.929 . S
C842 C841 1.459 . S
C842 C843 1.445 . S
C842 C851 1.395 . S
C843 C821 1.432 . S
C843 C842 1.445 . S
C843 C844 1.370 . S
C844 C843 1.370 . S
C844 C845 1.438 . S
C844 H906 0.930 . S
C845 C831 1.497 . S
C845 C844 1.438 . S
C845 C846 1.360 . S
C846 C845 1.360 . S
C846 C847 1.401 . S
C846 C851 1.446 . S
C847 C846 1.401 . S
C847 C848 1.347 . S
C847 H907 0.929 . S
C848 C847 1.347 . S
C848 C849 1.455 . S
C848 H908 0.930 . S
C849 C836 1.412 . S
C849 C848 1.455 . S
C849 C850 1.331 . S
C850 C839 1.451 . S
C850 C849 1.331 . S
C850 C851 1.497 . S
C851 C842 1.395 . S
C851 C846 1.446 . S
C851 C850 1.497 . S
C852 C853 1.582 . S
C852 H909 0.962 . S
C852 H910 0.959 . S
C852 H911 0.958 . S
C853 C852 1.582 . S
C853 O856 1.458 . S
C853 H882 0.980 . S
O854 C799 1.426 . S
O854 C800 1.334 . S
O855 C827 1.412 . S
O855 C828 1.393 . S
O856 C818 1.435 . S
O856 C853 1.458 . S
O857 C809 1.468 . S
O857 C810 1.408 . S
H858 C799 0.980 . S
H859 C798 0.959 . S
H860 C798 0.959 . S
H861 C798 0.960 . S
H862 C801 0.929 . S
H863 C805 0.929 . S
H864 C806 0.959 . S
H865 C806 0.961 . S
H866 C806 0.961 . S
H867 C807 0.960 . S
H868 C807 0.960 . S
H869 C807 0.961 . S
H870 C809 0.980 . S
H871 C808 0.961 . S
H872 C808 0.960 . S
H873 C808 0.959 . S
H874 C811 0.930 . S
H875 C815 0.931 . S
H876 C816 0.959 . S
H877 C816 0.961 . S
H878 C816 0.959 . S
H879 C817 0.960 . S
H880 C817 0.960 . S
H881 C817 0.960 . S
H882 C853 0.980 . S
H883 C819 0.930 . S
H884 C823 0.930 . S
H885 C824 0.961 . S
H886 C824 0.960 . S
H887 C824 0.958 . S
H888 C825 0.961 . S
H889 C825 0.960 . S
H890 C825 0.960 . S
H891 C827 0.980 . S
H892 C826 0.961 . S
H893 C826 0.961 . S
H894 C826 0.959 . S
H895 C829 0.932 . S
H896 C833 0.929 . S
H897 C834 0.961 . S
H898 C834 0.959 . S
H899 C834 0.959 . S
H900 C835 0.960 . S
H901 C835 0.962 . S
H902 C835 0.961 . S
H903 C837 0.929 . S
H904 C840 0.930 . S
H905 C841 0.929 . S
H906 C844 0.930 . S
H907 C847 0.929 . S
H908 C848 0.930 . S
H909 C852 0.962 . S
H910 C852 0.959 . S
H911 C852 0.958 . S
C912 O914 1.247 . S
C912 O916 1.258 . S
C913 O920 1.247 . S
C913 O921 1.258 . S
O914 C912 1.247 . S
O914 Zn915 2.028 1_655 S
Zn915 O914 2.028 1_455 S
Zn915 O919 2.035 . S
Zn915 O921 2.035 . S
Zn915 O922 2.028 1_455 S
O916 C912 1.258 . S
O916 Zn917 2.035 1_655 S
Zn917 O916 2.035 1_455 S
Zn917 O918 2.028 . S
Zn917 O920 2.028 . S
Zn917 O923 2.035 1_455 S
O918 Zn917 2.028 . S
O918 C924 1.247 . S
O919 Zn915 2.035 . S
O919 C924 1.258 . S
O920 C913 1.247 . S
O920 Zn917 2.028 . S
O921 C913 1.258 . S
O921 Zn915 2.035 . S
O922 Zn915 2.028 1_655 S
O922 C925 1.247 . S
O923 Zn917 2.035 1_655 S
O923 C925 1.258 . S
C924 O918 1.247 . S
C924 O919 1.258 . S
C925 O922 1.247 . S
C925 O923 1.258 . S
C926 O928 1.247 . S
C926 O930 1.258 . S
C927 O934 1.247 . S
C927 O935 1.258 . S
O928 C926 1.247 . S
O928 Zn929 2.028 . S
Zn929 O928 2.028 . S
Zn929 O933 2.035 1_545 S
Zn929 O935 2.035 1_545 S
Zn929 O936 2.028 . S
O930 C926 1.258 . S
O930 Zn931 2.035 . S
Zn931 O930 2.035 . S
Zn931 O932 2.028 1_545 S
Zn931 O934 2.028 1_545 S
Zn931 O937 2.035 . S
O932 Zn931 2.028 1_565 S
O932 C938 1.247 . S
O933 Zn929 2.035 1_565 S
O933 C938 1.258 . S
O934 C927 1.247 . S
O934 Zn931 2.028 1_565 S
O935 C927 1.258 . S
O935 Zn929 2.035 1_565 S
O936 Zn929 2.028 . S
O936 C939 1.247 . S
O937 Zn931 2.035 . S
O937 C939 1.258 . S
C938 O932 1.247 . S
C938 O933 1.258 . S
C939 O936 1.247 . S
C939 O937 1.258 . S
C940 O942 1.247 . S
C940 O944 1.258 . S
C941 O948 1.247 . S
C941 O949 1.258 . S
O942 C940 1.247 . S
O942 Zn943 2.028 1_655 S
Zn943 O942 2.028 1_455 S
Zn943 O947 2.035 . S
Zn943 O949 2.035 . S
Zn943 O950 2.028 1_455 S
O944 C940 1.258 . S
O944 Zn945 2.035 1_655 S
Zn945 O944 2.035 1_455 S
Zn945 O946 2.028 . S
Zn945 O948 2.028 . S
Zn945 O951 2.035 1_455 S
O946 Zn945 2.028 . S
O946 C952 1.247 . S
O947 Zn943 2.035 . S
O947 C952 1.258 . S
O948 C941 1.247 . S
O948 Zn945 2.028 . S
O949 C941 1.258 . S
O949 Zn943 2.035 . S
O950 Zn943 2.028 1_655 S
O950 C953 1.247 . S
O951 Zn945 2.035 1_655 S
O951 C953 1.258 . S
C952 O946 1.247 . S
C952 O947 1.258 . S
C953 O950 1.247 . S
C953 O951 1.258 . S
C954 O956 1.247 . S
C954 O958 1.258 . S
C955 O962 1.247 . S
C955 O963 1.258 . S
O956 C954 1.247 . S
O956 Zn957 2.028 . S
Zn957 O956 2.028 . S
Zn957 O961 2.035 1_545 S
Zn957 O963 2.035 1_545 S
Zn957 O964 2.028 . S
O958 C954 1.258 . S
O958 Zn959 2.035 . S
Zn959 O958 2.035 . S
Zn959 O960 2.028 1_545 S
Zn959 O962 2.028 1_545 S
Zn959 O965 2.035 . S
O960 Zn959 2.028 1_565 S
O960 C966 1.247 . S
O961 Zn957 2.035 1_565 S
O961 C966 1.258 . S
O962 C955 1.247 . S
O962 Zn959 2.028 1_565 S
O963 C955 1.258 . S
O963 Zn957 2.035 1_565 S
O964 Zn957 2.028 . S
O964 C967 1.247 . S
O965 Zn959 2.035 . S
O965 C967 1.258 . S
C966 O960 1.247 . S
C966 O961 1.258 . S
C967 O964 1.247 . S
C967 O965 1.258 . S
C968 O970 1.247 . S
C968 O972 1.258 . S
C969 O976 1.247 . S
C969 O977 1.258 . S
O970 C968 1.247 . S
O970 Zn971 2.030 . S
Zn971 O970 2.030 . S
Zn971 O975 2.037 . S
Zn971 O977 2.033 1_554 S
Zn971 O978 2.026 1_554 S
O972 C968 1.258 . S
O972 Zn973 2.037 . S
Zn973 O972 2.037 . S
Zn973 O974 2.030 . S
Zn973 O976 2.026 1_554 S
Zn973 O979 2.033 1_554 S
O974 Zn973 2.030 . S
O974 C980 1.247 . S
O975 Zn971 2.037 . S
O975 C980 1.258 . S
O976 C969 1.247 . S
O976 Zn973 2.026 1_556 S
O977 C969 1.258 . S
O977 Zn971 2.033 1_556 S
O978 Zn971 2.026 1_556 S
O978 C981 1.247 . S
O979 Zn973 2.033 1_556 S
O979 C981 1.258 . S
C980 O974 1.247 . S
C980 O975 1.258 . S
C981 O978 1.247 . S
C981 O979 1.258 . S
C982 O984 1.247 . S
C982 O986 1.258 . S
C983 O990 1.247 . S
C983 O991 1.258 . S
O984 C982 1.247 . S
O984 Zn985 2.028 . S
Zn985 O984 2.028 . S
Zn985 O989 2.035 . S
Zn985 O991 2.035 1_554 S
Zn985 O992 2.028 1_554 S
O986 C982 1.258 . S
O986 Zn987 2.035 . S
Zn987 O986 2.035 . S
Zn987 O988 2.028 . S
Zn987 O990 2.028 1_554 S
Zn987 O993 2.035 1_554 S
O988 Zn987 2.028 . S
O988 C994 1.247 . S
O989 Zn985 2.035 . S
O989 C994 1.258 . S
O990 C983 1.247 . S
O990 Zn987 2.028 1_556 S
O991 C983 1.258 . S
O991 Zn985 2.035 1_556 S
O992 Zn985 2.028 1_556 S
O992 C995 1.247 . S
O993 Zn987 2.035 1_556 S
O993 C995 1.258 . S
C994 O988 1.247 . S
C994 O989 1.258 . S
C995 O992 1.247 . S
C995 O993 1.258 . S
C996 O998 1.247 . S
C996 O1000 1.258 . S
C997 O1004 1.247 . S
C997 O1005 1.258 . S
O998 C996 1.247 . S
O998 Zn999 2.026 1_556 S
Zn999 O998 2.026 1_554 S
Zn999 O1003 2.033 1_554 S
Zn999 O1005 2.037 . S
Zn999 O1006 2.030 . S
O1000 C996 1.258 . S
O1000 Zn1001 2.032 1_556 S
Zn1001 O1000 2.032 1_554 S
Zn1001 O1002 2.025 1_554 S
Zn1001 O1004 2.031 . S
Zn1001 O1007 2.038 . S
O1002 Zn1001 2.025 1_556 S
O1002 C1008 1.247 . S
O1003 Zn999 2.033 1_556 S
O1003 C1008 1.258 . S
O1004 C997 1.247 . S
O1004 Zn1001 2.031 . S
O1005 C997 1.258 . S
O1005 Zn999 2.037 . S
O1006 Zn999 2.030 . S
O1006 C1009 1.247 . S
O1007 Zn1001 2.038 . S
O1007 C1009 1.258 . S
C1008 O1002 1.247 . S
C1008 O1003 1.258 . S
C1009 O1006 1.247 . S
C1009 O1007 1.258 . S
C1010 O1012 1.247 . S
C1010 O1014 1.258 . S
C1011 O1018 1.247 . S
C1011 O1019 1.258 . S
O1012 C1010 1.247 . S
O1012 Zn1013 2.028 . S
Zn1013 O1012 2.028 . S
Zn1013 O1017 2.035 . S
Zn1013 O1019 2.035 1_554 S
Zn1013 O1020 2.028 1_554 S
O1014 C1010 1.258 . S
O1014 Zn1015 2.035 . S
Zn1015 O1014 2.035 . S
Zn1015 O1016 2.028 . S
Zn1015 O1018 2.028 1_554 S
Zn1015 O1021 2.035 1_554 S
O1016 Zn1015 2.028 . S
O1016 C1022 1.247 . S
O1017 Zn1013 2.035 . S
O1017 C1022 1.258 . S
O1018 C1011 1.247 . S
O1018 Zn1015 2.028 1_556 S
O1019 C1011 1.258 . S
O1019 Zn1013 2.035 1_556 S
O1020 Zn1013 2.028 1_556 S
O1020 C1023 1.247 . S
O1021 Zn1015 2.035 1_556 S
O1021 C1023 1.258 . S
C1022 O1016 1.247 . S
C1022 O1017 1.258 . S
C1023 O1020 1.247 . S
C1023 O1021 1.258 . S
C1024 C1025 1.369 . S
C1024 C1026 1.419 . S
C1024 H1028 0.930 . S
C1025 C1024 1.369 . S
C1025 C1034 1.429 . S
C1026 C1024 1.419 . S
C1026 C1027 1.363 . S
C1026 H1029 0.929 . S
C1027 C1026 1.363 . S
C1027 C1033 1.428 . S
H1028 C1024 0.930 . S
H1029 C1026 0.929 . S
S1030 N1031 1.613 . S
S1030 N1032 1.610 . S
N1031 S1030 1.613 . S
N1031 C1034 1.350 . S
N1032 S1030 1.610 . S
N1032 C1033 1.351 . S
C1033 C1027 1.428 . S
C1033 N1032 1.351 . S
C1033 C1034 1.434 . S
C1034 C1025 1.429 . S
C1034 N1031 1.350 . S
C1034 C1033 1.434 . S
C1035 C1036 1.369 . S
C1035 C1037 1.419 . S
C1035 H1039 0.930 . S
C1036 C1035 1.369 . S
C1036 C1045 1.429 . S
C1037 C1035 1.419 . S
C1037 C1038 1.363 . S
C1037 H1040 0.929 . S
C1038 C1037 1.363 . S
C1038 C1044 1.428 . S
H1039 C1035 0.930 . S
H1040 C1037 0.929 . S
S1041 N1042 1.613 . S
S1041 N1043 1.610 . S
N1042 S1041 1.613 . S
N1042 C1045 1.350 . S
N1043 S1041 1.610 . S
N1043 C1044 1.351 . S
C1044 C1038 1.428 . S
C1044 N1043 1.351 . S
C1044 C1045 1.434 . S
C1045 C1036 1.429 . S
C1045 N1042 1.350 . S
C1045 C1044 1.434 . S
C1046 C1047 1.369 . S
C1046 C1048 1.419 . S
C1046 H1050 0.930 . S
C1047 C1046 1.369 . S
C1047 C1056 1.429 . S
C1048 C1046 1.419 . S
C1048 C1049 1.363 . S
C1048 H1051 0.929 . S
C1049 C1048 1.363 . S
C1049 C1055 1.428 . S
H1050 C1046 0.930 . S
H1051 C1048 0.929 . S
S1052 N1053 1.613 . S
S1052 N1054 1.610 . S
N1053 S1052 1.613 . S
N1053 C1056 1.350 . S
N1054 S1052 1.610 . S
N1054 C1055 1.351 . S
C1055 C1049 1.428 . S
C1055 N1054 1.351 . S
C1055 C1056 1.434 . S
C1056 C1047 1.429 . S
C1056 N1053 1.350 . S
C1056 C1055 1.434 . S
C1057 C1058 1.369 . S
C1057 C1059 1.419 . S
C1057 H1061 0.930 . S
C1058 C1057 1.369 . S
C1058 C1067 1.429 . S
C1059 C1057 1.419 . S
C1059 C1060 1.363 . S
C1059 H1062 0.929 . S
C1060 C1059 1.363 . S
C1060 C1066 1.428 . S
H1061 C1057 0.930 . S
H1062 C1059 0.929 . S
S1063 N1064 1.613 . S
S1063 N1065 1.610 . S
N1064 S1063 1.613 . S
N1064 C1067 1.350 . S
N1065 S1063 1.610 . S
N1065 C1066 1.351 . S
C1066 C1060 1.428 . S
C1066 N1065 1.351 . S
C1066 C1067 1.434 . S
C1067 C1058 1.429 . S
C1067 N1064 1.350 . S
C1067 C1066 1.434 . S
C1068 C1069 1.369 . S
C1068 C1070 1.419 . S
C1068 H1072 0.930 . S
C1069 C1068 1.369 . S
C1069 C1078 1.429 . S
C1070 C1068 1.419 . S
C1070 C1071 1.363 . S
C1070 H1073 0.929 . S
C1071 C1070 1.363 . S
C1071 C1077 1.428 . S
H1072 C1068 0.930 . S
H1073 C1070 0.929 . S
S1074 N1075 1.613 . S
S1074 N1076 1.610 . S
N1075 S1074 1.613 . S
N1075 C1078 1.350 . S
N1076 S1074 1.610 . S
N1076 C1077 1.351 . S
C1077 C1071 1.428 . S
C1077 N1076 1.351 . S
C1077 C1078 1.434 . S
C1078 C1069 1.429 . S
C1078 N1075 1.350 . S
C1078 C1077 1.434 . S
C1079 C1080 1.369 . S
C1079 C1081 1.419 . S
C1079 H1083 0.930 . S
C1080 C1079 1.369 . S
C1080 C1089 1.429 . S
C1081 C1079 1.419 . S
C1081 C1082 1.363 . S
C1081 H1084 0.929 . S
C1082 C1081 1.363 . S
C1082 C1088 1.428 . S
H1083 C1079 0.930 . S
H1084 C1081 0.929 . S
S1085 N1086 1.613 . S
S1085 N1087 1.610 . S
N1086 S1085 1.613 . S
N1086 C1089 1.350 . S
N1087 S1085 1.610 . S
N1087 C1088 1.351 . S
C1088 C1082 1.428 . S
C1088 N1087 1.351 . S
C1088 C1089 1.434 . S
C1089 C1080 1.429 . S
C1089 N1086 1.350 . S
C1089 C1088 1.434 . S
C1090 C1091 1.369 . S
C1090 C1092 1.419 . S
C1090 H1094 0.930 . S
C1091 C1090 1.369 . S
C1091 C1100 1.429 . S
C1092 C1090 1.419 . S
C1092 C1093 1.363 . S
C1092 H1095 0.929 . S
C1093 C1092 1.363 . S
C1093 C1099 1.428 . S
H1094 C1090 0.930 . S
H1095 C1092 0.929 . S
S1096 N1097 1.613 . S
S1096 N1098 1.610 . S
N1097 S1096 1.613 . S
N1097 C1100 1.350 . S
N1098 S1096 1.610 . S
N1098 C1099 1.351 . S
C1099 C1093 1.428 . S
C1099 N1098 1.351 . S
C1099 C1100 1.434 . S
C1100 C1091 1.429 . S
C1100 N1097 1.350 . S
C1100 C1099 1.434 . S
C1101 C1102 1.369 . S
C1101 C1103 1.419 . S
C1101 H1105 0.930 . S
C1102 C1101 1.369 . S
C1102 C1111 1.429 . S
C1103 C1101 1.419 . S
C1103 C1104 1.363 . S
C1103 H1106 0.929 . S
C1104 C1103 1.363 . S
C1104 C1110 1.428 . S
H1105 C1101 0.930 . S
H1106 C1103 0.929 . S
S1107 N1108 1.613 . S
S1107 N1109 1.610 . S
N1108 S1107 1.613 . S
N1108 C1111 1.350 . S
N1109 S1107 1.610 . S
N1109 C1110 1.351 . S
C1110 C1104 1.428 . S
C1110 N1109 1.351 . S
C1110 C1111 1.434 . S
C1111 C1102 1.429 . S
C1111 N1108 1.350 . S
C1111 C1110 1.434 . S
C1112 C1113 1.369 . S
C1112 C1114 1.419 . S
C1112 H1116 0.930 . S
C1113 C1112 1.369 . S
C1113 C1122 1.429 . S
C1114 C1112 1.419 . S
C1114 C1115 1.363 . S
C1114 H1117 0.929 . S
C1115 C1114 1.363 . S
C1115 C1121 1.428 . S
H1116 C1112 0.930 . S
H1117 C1114 0.929 . S
S1118 N1119 1.613 . S
S1118 N1120 1.610 . S
N1119 S1118 1.613 . S
N1119 C1122 1.350 . S
N1120 S1118 1.610 . S
N1120 C1121 1.351 . S
C1121 C1115 1.428 . S
C1121 N1120 1.351 . S
C1121 C1122 1.434 . S
C1122 C1113 1.429 . S
C1122 N1119 1.350 . S
C1122 C1121 1.434 . S
C1123 C1124 1.369 . S
C1123 C1125 1.419 . S
C1123 H1127 0.930 . S
C1124 C1123 1.369 . S
C1124 C1133 1.429 . S
C1125 C1123 1.419 . S
C1125 C1126 1.363 . S
C1125 H1128 0.929 . S
C1126 C1125 1.363 . S
C1126 C1132 1.428 . S
H1127 C1123 0.930 . S
H1128 C1125 0.929 . S
S1129 N1130 1.613 . S
S1129 N1131 1.610 . S
N1130 S1129 1.613 . S
N1130 C1133 1.350 . S
N1131 S1129 1.610 . S
N1131 C1132 1.351 . S
C1132 C1126 1.428 . S
C1132 N1131 1.351 . S
C1132 C1133 1.434 . S
C1133 C1124 1.429 . S
C1133 N1130 1.350 . S
C1133 C1132 1.434 . S
C1134 C1135 1.369 . S
C1134 C1136 1.419 . S
C1134 H1138 0.930 . S
C1135 C1134 1.369 . S
C1135 C1144 1.429 . S
C1136 C1134 1.419 . S
C1136 C1137 1.363 . S
C1136 H1139 0.929 . S
C1137 C1136 1.363 . S
C1137 C1143 1.428 . S
H1138 C1134 0.930 . S
H1139 C1136 0.929 . S
S1140 N1141 1.613 . S
S1140 N1142 1.610 . S
N1141 S1140 1.613 . S
N1141 C1144 1.350 . S
N1142 S1140 1.610 . S
N1142 C1143 1.351 . S
C1143 C1137 1.428 . S
C1143 N1142 1.351 . S
C1143 C1144 1.434 . S
C1144 C1135 1.429 . S
C1144 N1141 1.350 . S
C1144 C1143 1.434 . S
C1145 C1146 1.369 . S
C1145 C1147 1.419 . S
C1145 H1149 0.930 . S
C1146 C1145 1.369 . S
C1146 C1155 1.429 . S
C1147 C1145 1.419 . S
C1147 C1148 1.363 . S
C1147 H1150 0.929 . S
C1148 C1147 1.363 . S
C1148 C1154 1.428 . S
H1149 C1145 0.930 . S
H1150 C1147 0.929 . S
S1151 N1152 1.613 . S
S1151 N1153 1.610 . S
N1152 S1151 1.613 . S
N1152 C1155 1.350 . S
N1153 S1151 1.610 . S
N1153 C1154 1.351 . S
C1154 C1148 1.428 . S
C1154 N1153 1.351 . S
C1154 C1155 1.434 . S
C1155 C1146 1.429 . S
C1155 N1152 1.350 . S
C1155 C1154 1.434 . S
C1156 C1157 1.369 . S
C1156 C1158 1.419 . S
C1156 H1160 0.930 . S
C1157 C1156 1.369 . S
C1157 C1166 1.429 . S
C1158 C1156 1.419 . S
C1158 C1159 1.363 . S
C1158 H1161 0.929 . S
C1159 C1158 1.363 . S
C1159 C1165 1.428 . S
H1160 C1156 0.930 . S
H1161 C1158 0.929 . S
S1162 N1163 1.613 . S
S1162 N1164 1.610 . S
N1163 S1162 1.613 . S
N1163 C1166 1.350 . S
N1164 S1162 1.610 . S
N1164 C1165 1.351 . S
C1165 C1159 1.428 . S
C1165 N1164 1.351 . S
C1165 C1166 1.434 . S
C1166 C1157 1.429 . S
C1166 N1163 1.350 . S
C1166 C1165 1.434 . S
C1167 C1168 1.369 . S
C1167 C1169 1.419 . S
C1167 H1171 0.930 . S
C1168 C1167 1.369 . S
C1168 C1177 1.429 . S
C1169 C1167 1.419 . S
C1169 C1170 1.363 . S
C1169 H1172 0.929 . S
C1170 C1169 1.363 . S
C1170 C1176 1.428 . S
H1171 C1167 0.930 . S
H1172 C1169 0.929 . S
S1173 N1174 1.613 . S
S1173 N1175 1.610 . S
N1174 S1173 1.613 . S
N1174 C1177 1.350 . S
N1175 S1173 1.610 . S
N1175 C1176 1.351 . S
C1176 C1170 1.428 . S
C1176 N1175 1.351 . S
C1176 C1177 1.434 . S
C1177 C1168 1.429 . S
C1177 N1174 1.350 . S
C1177 C1176 1.434 . S
C1178 C1179 1.369 . S
C1178 C1180 1.419 . S
C1178 H1182 0.930 . S
C1179 C1178 1.369 . S
C1179 C1188 1.429 . S
C1180 C1178 1.419 . S
C1180 C1181 1.363 . S
C1180 H1183 0.929 . S
C1181 C1180 1.363 . S
C1181 C1187 1.428 . S
H1182 C1178 0.930 . S
H1183 C1180 0.929 . S
S1184 N1185 1.613 . S
S1184 N1186 1.610 . S
N1185 S1184 1.613 . S
N1185 C1188 1.350 . S
N1186 S1184 1.610 . S
N1186 C1187 1.351 . S
C1187 C1181 1.428 . S
C1187 N1186 1.351 . S
C1187 C1188 1.434 . S
C1188 C1179 1.429 . S
C1188 N1185 1.350 . S
C1188 C1187 1.434 . S
C1189 C1190 1.369 . S
C1189 C1191 1.419 . S
C1189 H1193 0.930 . S
C1190 C1189 1.369 . S
C1190 C1199 1.429 . S
C1191 C1189 1.419 . S
C1191 C1192 1.363 . S
C1191 H1194 0.929 . S
C1192 C1191 1.363 . S
C1192 C1198 1.428 . S
H1193 C1189 0.930 . S
H1194 C1191 0.929 . S
S1195 N1196 1.613 . S
S1195 N1197 1.610 . S
N1196 S1195 1.613 . S
N1196 C1199 1.350 . S
N1197 S1195 1.610 . S
N1197 C1198 1.351 . S
C1198 C1192 1.428 . S
C1198 N1197 1.351 . S
C1198 C1199 1.434 . S
C1199 C1190 1.429 . S
C1199 N1196 1.350 . S
C1199 C1198 1.434 . S
C1200 C1201 1.369 . S
C1200 C1202 1.419 . S
C1200 H1204 0.930 . S
C1201 C1200 1.369 . S
C1201 C1210 1.429 . S
C1202 C1200 1.419 . S
C1202 C1203 1.363 . S
C1202 H1205 0.929 . S
C1203 C1202 1.363 . S
C1203 C1209 1.428 . S
H1204 C1200 0.930 . S
H1205 C1202 0.929 . S
S1206 N1207 1.613 . S
S1206 N1208 1.610 . S
N1207 S1206 1.613 . S
N1207 C1210 1.350 . S
N1208 S1206 1.610 . S
N1208 C1209 1.351 . S
C1209 C1203 1.428 . S
C1209 N1208 1.351 . S
C1209 C1210 1.434 . S
C1210 C1201 1.429 . S
C1210 N1207 1.350 . S
C1210 C1209 1.434 . S
C1211 C1212 1.369 . S
C1211 C1213 1.419 . S
C1211 H1215 0.930 . S
C1212 C1211 1.369 . S
C1212 C1221 1.429 . S
C1213 C1211 1.419 . S
C1213 C1214 1.363 . S
C1213 H1216 0.929 . S
C1214 C1213 1.363 . S
C1214 C1220 1.428 . S
H1215 C1211 0.930 . S
H1216 C1213 0.929 . S
S1217 N1218 1.613 . S
S1217 N1219 1.610 . S
N1218 S1217 1.613 . S
N1218 C1221 1.350 . S
N1219 S1217 1.610 . S
N1219 C1220 1.351 . S
C1220 C1214 1.428 . S
C1220 N1219 1.351 . S
C1220 C1221 1.434 . S
C1221 C1212 1.429 . S
C1221 N1218 1.350 . S
C1221 C1220 1.434 . S
C1222 C1223 1.369 . S
C1222 C1224 1.419 . S
C1222 H1226 0.930 . S
C1223 C1222 1.369 . S
C1223 C1232 1.429 . S
C1224 C1222 1.419 . S
C1224 C1225 1.363 . S
C1224 H1227 0.929 . S
C1225 C1224 1.363 . S
C1225 C1231 1.428 . S
H1226 C1222 0.930 . S
H1227 C1224 0.929 . S
S1228 N1229 1.613 . S
S1228 N1230 1.610 . S
N1229 S1228 1.613 . S
N1229 C1232 1.350 . S
N1230 S1228 1.610 . S
N1230 C1231 1.351 . S
C1231 C1225 1.428 . S
C1231 N1230 1.351 . S
C1231 C1232 1.434 . S
C1232 C1223 1.429 . S
C1232 N1229 1.350 . S
C1232 C1231 1.434 . S
C1233 C1234 1.369 . S
C1233 C1235 1.419 . S
C1233 H1237 0.930 . S
C1234 C1233 1.369 . S
C1234 C1243 1.429 . S
C1235 C1233 1.419 . S
C1235 C1236 1.363 . S
C1235 H1238 0.929 . S
C1236 C1235 1.363 . S
C1236 C1242 1.428 . S
H1237 C1233 0.930 . S
H1238 C1235 0.929 . S
S1239 N1240 1.613 . S
S1239 N1241 1.610 . S
N1240 S1239 1.613 . S
N1240 C1243 1.350 . S
N1241 S1239 1.610 . S
N1241 C1242 1.351 . S
C1242 C1236 1.428 . S
C1242 N1241 1.351 . S
C1242 C1243 1.434 . S
C1243 C1234 1.429 . S
C1243 N1240 1.350 . S
C1243 C1242 1.434 . S
C1244 C1245 1.369 . S
C1244 C1246 1.419 . S
C1244 H1248 0.930 . S
C1245 C1244 1.369 . S
C1245 C1254 1.429 . S
C1246 C1244 1.419 . S
C1246 C1247 1.363 . S
C1246 H1249 0.929 . S
C1247 C1246 1.363 . S
C1247 C1253 1.428 . S
H1248 C1244 0.930 . S
H1249 C1246 0.929 . S
S1250 N1251 1.613 . S
S1250 N1252 1.610 . S
N1251 S1250 1.613 . S
N1251 C1254 1.350 . S
N1252 S1250 1.610 . S
N1252 C1253 1.351 . S
C1253 C1247 1.428 . S
C1253 N1252 1.351 . S
C1253 C1254 1.434 . S
C1254 C1245 1.429 . S
C1254 N1251 1.350 . S
C1254 C1253 1.434 . S
C1255 C1256 1.369 . S
C1255 C1257 1.419 . S
C1255 H1259 0.930 . S
C1256 C1255 1.369 . S
C1256 C1265 1.429 . S
C1257 C1255 1.419 . S
C1257 C1258 1.363 . S
C1257 H1260 0.929 . S
C1258 C1257 1.363 . S
C1258 C1264 1.428 . S
H1259 C1255 0.930 . S
H1260 C1257 0.929 . S
S1261 N1262 1.613 . S
S1261 N1263 1.610 . S
N1262 S1261 1.613 . S
N1262 C1265 1.350 . S
N1263 S1261 1.610 . S
N1263 C1264 1.351 . S
C1264 C1258 1.428 . S
C1264 N1263 1.351 . S
C1264 C1265 1.434 . S
C1265 C1256 1.429 . S
C1265 N1262 1.350 . S
C1265 C1264 1.434 . S
C1266 C1267 1.369 . S
C1266 C1268 1.419 . S
C1266 H1270 0.930 . S
C1267 C1266 1.369 . S
C1267 C1276 1.429 . S
C1268 C1266 1.419 . S
C1268 C1269 1.363 . S
C1268 H1271 0.929 . S
C1269 C1268 1.363 . S
C1269 C1275 1.428 . S
H1270 C1266 0.930 . S
H1271 C1268 0.929 . S
S1272 N1273 1.613 . S
S1272 N1274 1.610 . S
N1273 S1272 1.613 . S
N1273 C1276 1.350 . S
N1274 S1272 1.610 . S
N1274 C1275 1.351 . S
C1275 C1269 1.428 . S
C1275 N1274 1.351 . S
C1275 C1276 1.434 . S
C1276 C1267 1.429 . S
C1276 N1273 1.350 . S
C1276 C1275 1.434 . S
C1277 C1278 1.369 . S
C1277 C1279 1.419 . S
C1277 H1281 0.930 . S
C1278 C1277 1.369 . S
C1278 C1287 1.429 . S
C1279 C1277 1.419 . S
C1279 C1280 1.363 . S
C1279 H1282 0.929 . S
C1280 C1279 1.363 . S
C1280 C1286 1.428 . S
H1281 C1277 0.930 . S
H1282 C1279 0.929 . S
S1283 N1284 1.613 . S
S1283 N1285 1.610 . S
N1284 S1283 1.613 . S
N1284 C1287 1.350 . S
N1285 S1283 1.610 . S
N1285 C1286 1.351 . S
C1286 C1280 1.428 . S
C1286 N1285 1.351 . S
C1286 C1287 1.434 . S
C1287 C1278 1.429 . S
C1287 N1284 1.350 . S
C1287 C1286 1.434 . S
C1288 C1289 1.369 . S
C1288 C1290 1.419 . S
C1288 H1292 0.930 . S
C1289 C1288 1.369 . S
C1289 C1298 1.429 . S
C1290 C1288 1.419 . S
C1290 C1291 1.363 . S
C1290 H1293 0.929 . S
C1291 C1290 1.363 . S
C1291 C1297 1.428 . S
H1292 C1288 0.930 . S
H1293 C1290 0.929 . S
S1294 N1295 1.613 . S
S1294 N1296 1.610 . S
N1295 S1294 1.613 . S
N1295 C1298 1.350 . S
N1296 S1294 1.610 . S
N1296 C1297 1.351 . S
C1297 C1291 1.428 . S
C1297 N1296 1.351 . S
C1297 C1298 1.434 . S
C1298 C1289 1.429 . S
C1298 N1295 1.350 . S
C1298 C1297 1.434 . S
C1299 C1300 1.369 . S
C1299 C1301 1.419 . S
C1299 H1303 0.930 . S
C1300 C1299 1.369 . S
C1300 C1309 1.429 . S
C1301 C1299 1.419 . S
C1301 C1302 1.363 . S
C1301 H1304 0.929 . S
C1302 C1301 1.363 . S
C1302 C1308 1.428 . S
H1303 C1299 0.930 . S
H1304 C1301 0.929 . S
S1305 N1306 1.613 . S
S1305 N1307 1.610 . S
N1306 S1305 1.613 . S
N1306 C1309 1.350 . S
N1307 S1305 1.610 . S
N1307 C1308 1.351 . S
C1308 C1302 1.428 . S
C1308 N1307 1.351 . S
C1308 C1309 1.434 . S
C1309 C1300 1.429 . S
C1309 N1306 1.350 . S
C1309 C1308 1.434 . S
C1310 C1311 1.369 . S
C1310 C1312 1.419 . S
C1310 H1314 0.930 . S
C1311 C1310 1.369 . S
C1311 C1320 1.429 . S
C1312 C1310 1.419 . S
C1312 C1313 1.363 . S
C1312 H1315 0.929 . S
C1313 C1312 1.363 . S
C1313 C1319 1.428 . S
H1314 C1310 0.930 . S
H1315 C1312 0.929 . S
S1316 N1317 1.613 . S
S1316 N1318 1.610 . S
N1317 S1316 1.613 . S
N1317 C1320 1.350 . S
N1318 S1316 1.610 . S
N1318 C1319 1.351 . S
C1319 C1313 1.428 . S
C1319 N1318 1.351 . S
C1319 C1320 1.434 . S
C1320 C1311 1.429 . S
C1320 N1317 1.350 . S
C1320 C1319 1.434 . S
C1321 C1322 1.369 . S
C1321 C1323 1.419 . S
C1321 H1325 0.930 . S
C1322 C1321 1.369 . S
C1322 C1331 1.429 . S
C1323 C1321 1.419 . S
C1323 C1324 1.363 . S
C1323 H1326 0.929 . S
C1324 C1323 1.363 . S
C1324 C1330 1.428 . S
H1325 C1321 0.930 . S
H1326 C1323 0.929 . S
S1327 N1328 1.613 . S
S1327 N1329 1.610 . S
N1328 S1327 1.613 . S
N1328 C1331 1.350 . S
N1329 S1327 1.610 . S
N1329 C1330 1.351 . S
C1330 C1324 1.428 . S
C1330 N1329 1.351 . S
C1330 C1331 1.434 . S
C1331 C1322 1.429 . S
C1331 N1328 1.350 . S
C1331 C1330 1.434 . S
C1332 C1333 1.369 . S
C1332 C1334 1.419 . S
C1332 H1336 0.930 . S
C1333 C1332 1.369 . S
C1333 C1342 1.429 . S
C1334 C1332 1.419 . S
C1334 C1335 1.363 . S
C1334 H1337 0.929 . S
C1335 C1334 1.363 . S
C1335 C1341 1.428 . S
H1336 C1332 0.930 . S
H1337 C1334 0.929 . S
S1338 N1339 1.613 . S
S1338 N1340 1.610 . S
N1339 S1338 1.613 . S
N1339 C1342 1.350 . S
N1340 S1338 1.610 . S
N1340 C1341 1.351 . S
C1341 C1335 1.428 . S
C1341 N1340 1.351 . S
C1341 C1342 1.434 . S
C1342 C1333 1.429 . S
C1342 N1339 1.350 . S
C1342 C1341 1.434 . S
C1343 C1344 1.369 . S
C1343 C1345 1.419 . S
C1343 H1347 0.930 . S
C1344 C1343 1.369 . S
C1344 C1353 1.429 . S
C1345 C1343 1.419 . S
C1345 C1346 1.363 . S
C1345 H1348 0.929 . S
C1346 C1345 1.363 . S
C1346 C1352 1.428 . S
H1347 C1343 0.930 . S
H1348 C1345 0.929 . S
S1349 N1350 1.613 . S
S1349 N1351 1.610 . S
N1350 S1349 1.613 . S
N1350 C1353 1.350 . S
N1351 S1349 1.610 . S
N1351 C1352 1.351 . S
C1352 C1346 1.428 . S
C1352 N1351 1.351 . S
C1352 C1353 1.434 . S
C1353 C1344 1.429 . S
C1353 N1350 1.350 . S
C1353 C1352 1.434 . S
C1354 C1355 1.369 . S
C1354 C1356 1.419 . S
C1354 H1358 0.930 . S
C1355 C1354 1.369 . S
C1355 C1364 1.429 . S
C1356 C1354 1.419 . S
C1356 C1357 1.363 . S
C1356 H1359 0.929 . S
C1357 C1356 1.363 . S
C1357 C1363 1.428 . S
H1358 C1354 0.930 . S
H1359 C1356 0.929 . S
S1360 N1361 1.613 . S
S1360 N1362 1.610 . S
N1361 S1360 1.613 . S
N1361 C1364 1.350 . S
N1362 S1360 1.610 . S
N1362 C1363 1.351 . S
C1363 C1357 1.428 . S
C1363 N1362 1.351 . S
C1363 C1364 1.434 . S
C1364 C1355 1.429 . S
C1364 N1361 1.350 . S
C1364 C1363 1.434 . S
C1365 C1366 1.369 . S
C1365 C1367 1.419 . S
C1365 H1369 0.930 . S
C1366 C1365 1.369 . S
C1366 C1375 1.429 . S
C1367 C1365 1.419 . S
C1367 C1368 1.363 . S
C1367 H1370 0.929 . S
C1368 C1367 1.363 . S
C1368 C1374 1.428 . S
H1369 C1365 0.930 . S
H1370 C1367 0.929 . S
S1371 N1372 1.613 . S
S1371 N1373 1.610 . S
N1372 S1371 1.613 . S
N1372 C1375 1.350 . S
N1373 S1371 1.610 . S
N1373 C1374 1.351 . S
C1374 C1368 1.428 . S
C1374 N1373 1.351 . S
C1374 C1375 1.434 . S
C1375 C1366 1.429 . S
C1375 N1372 1.350 . S
C1375 C1374 1.434 . S
C1027 C913 1.525 . S
C1025 C29 1.201 . S
C1038 C939 1.665 . S
C1036 C125 0.910 . S
C1049 C953 1.526 . S
C1047 C257 1.207 . S
C1060 C955 1.669 . S
C1058 C353 0.894 . S
C1069 C457 1.185 . S
C1071 C952 1.486 . S
C1082 C954 1.647 . S
C1080 C625 1.347 . S
C1093 C912 1.488 . S
C1091 C685 1.164 . S
C1104 C938 1.648 . S
C1102 C853 1.351 . S
C1115 C940 1.703 . S
C1113 C809 1.113 . S
C1126 C966 1.505 . S
C1124 C485 1.226 . S
C1137 C924 1.697 . S
C1135 C581 1.118 . S
C1148 C926 1.507 . S
C1146 C713 1.226 . S
C1159 C925 1.670 . S
C1157 C169 1.239 . S
C1170 C927 1.473 . S
C1168 C229 1.166 . S
C1181 C941 1.674 . S
C1179 C397 1.224 . S
C1192 C967 1.475 . S
C1190 C1 1.151 . S
C1203 C969 1.526 . S
C1201 C827 1.213 . S
C1212 C467 0.907 . S
C1214 C995 1.665 . S
C1223 C599 1.202 . S
C1225 C1008 1.526 . S
C1234 C695 0.905 . S
C1236 C1011 1.667 . S
C1245 C115 1.169 . S
C1247 C1009 1.487 . S
C1256 C283 1.348 . S
C1258 C1010 1.647 . S
C1267 C343 1.179 . S
C1269 C968 1.487 . S
C1280 C994 1.645 . S
C1278 C55 1.338 . S
C1291 C997 1.700 . S
C1289 C11 1.114 . S
C1300 C143 1.231 . S
C1302 C1022 1.507 . S
C1311 C239 1.107 . S
C1313 C980 1.702 . S
C1322 C371 1.228 . S
C1324 C982 1.505 . S
C1335 C981 1.672 . S
C1333 C511 1.227 . S
C1346 C983 1.474 . S
C1344 C571 1.147 . S
C1355 C739 1.228 . S
C1357 C996 1.669 . S
C1368 C1023 1.474 . S
C1366 C799 1.147 . S
