# Generated by pormake.
# Topology anh, (6,3)-cn, num edge types: 1
# Building blocks:
#     Node 0, Type 0, BuildingBlock: BETGAK_clean_sbu_0, # of connection points: 6
#     Node 1, Type 0, BuildingBlock: BETGAK_clean_sbu_0, # of connection points: 6
#     Node 2, Type 0, BuildingBlock: BETGAK_clean_sbu_0, # of connection points: 6
#     Node 3, Type 1, BuildingBlock: BELTOD_clean_linker_0, # of connection points: 3
#     Node 4, Type 1, BuildingBlock: BELTOD_clean_linker_0, # of connection points: 3
#     Node 5, Type 1, BuildingBlock: BELTOD_clean_linker_0, # of connection points: 3
#     Node 6, Type 1, BuildingBlock: BELTOD_clean_linker_0, # of connection points: 3
#     Node 7, Type 1, BuildingBlock: BELTOD_clean_linker_0, # of connection points: 3
#     Node 8, Type 1, BuildingBlock: BELTOD_clean_linker_0, # of connection points: 3
#     Edge 9, Type (0, 1), BuildingBlock: CIFDUS_clean_linker_0, # of connection points: 2
#     Edge 10, Type (0, 1), BuildingBlock: CIFDUS_clean_linker_0, # of connection points: 2
#     Edge 11, Type (0, 1), BuildingBlock: CIFDUS_clean_linker_0, # of connection points: 2
#     Edge 12, Type (0, 1), BuildingBlock: CIFDUS_clean_linker_0, # of connection points: 2
#     Edge 13, Type (0, 1), BuildingBlock: CIFDUS_clean_linker_0, # of connection points: 2
#     Edge 14, Type (0, 1), BuildingBlock: CIFDUS_clean_linker_0, # of connection points: 2
#     Edge 15, Type (0, 1), BuildingBlock: CIFDUS_clean_linker_0, # of connection points: 2
#     Edge 16, Type (0, 1), BuildingBlock: CIFDUS_clean_linker_0, # of connection points: 2
#     Edge 17, Type (0, 1), BuildingBlock: CIFDUS_clean_linker_0, # of connection points: 2
#     Edge 18, Type (0, 1), BuildingBlock: CIFDUS_clean_linker_0, # of connection points: 2
#     Edge 19, Type (0, 1), BuildingBlock: CIFDUS_clean_linker_0, # of connection points: 2
#     Edge 20, Type (0, 1), BuildingBlock: CIFDUS_clean_linker_0, # of connection points: 2
#     Edge 21, Type (0, 1), BuildingBlock: CIFDUS_clean_linker_0, # of connection points: 2
#     Edge 22, Type (0, 1), BuildingBlock: CIFDUS_clean_linker_0, # of connection points: 2
#     Edge 23, Type (0, 1), BuildingBlock: CIFDUS_clean_linker_0, # of connection points: 2
#     Edge 24, Type (0, 1), BuildingBlock: CIFDUS_clean_linker_0, # of connection points: 2
#     Edge 25, Type (0, 1), BuildingBlock: CIFDUS_clean_linker_0, # of connection points: 2
#     Edge 26, Type (0, 1), BuildingBlock: CIFDUS_clean_linker_0, # of connection points: 2
# Relax obj value: 0.196
# Max RMSD: 0.213
# Mean RMSD: 0.153
data_MOF--net-anh--node1-BETGAK_clean_sbu_0--node2-BELTOD_clean_linker_0--edge1-CIFDUS_clean_linker_0
_symmetry_space_group_name_H-M    P1
_symmetry_Int_Tables_number       1
_symmetry_cell_setting            triclinic
loop_
_symmetry_equiv_pos_as_xyz
'x, y, z'
_cell_length_a     30.647527
_cell_length_b     37.367247
_cell_length_c     54.21735
_cell_angle_alpha  92.640271
_cell_angle_beta   89.260297
_cell_angle_gamma 129.37985
loop_
_atom_site_label
_atom_site_type_symbol
_atom_site_fract_x
_atom_site_fract_y
_atom_site_fract_z
_atom_type_partial_charge
La0 La 0.15182 0.54581 0.1397 0.0
La1 La 1.07897 0.56195 0.16598 0.0
C2 C 0.21957 0.55045 0.1106 0.0
C3 C 0.27901 0.57167 0.11353 0.0
C4 C 0.30818 0.59578 0.13577 0.0
C5 C 0.35815 0.60398 0.14173 0.0
C6 C 0.37919 0.58788 0.12555 0.0
C7 C 0.35292 0.5684 0.10213 0.0
C8 C 0.30302 0.56019 0.09623 0.0
C9 C 0.14841 0.5375 0.18773 0.0
C10 C 0.20235 0.64931 0.15867 0.0
C11 C 1.00613 0.55069 0.19424 0.0
C12 C 0.94655 0.50899 0.19491 0.0
C13 C 0.92057 0.4807 0.1733 0.0
C14 C 0.86586 0.43901 0.17368 0.0
C15 C 0.83558 0.42432 0.1957 0.0
C16 C 0.86156 0.45261 0.21745 0.0
C17 C 0.917 0.49462 0.21708 0.0
C18 C 0.08317 0.56872 0.11748 0.0
C19 C 1.02866 0.45909 0.14785 0.0
O20 O 0.18599 0.51597 0.1249 0.0
O21 O 0.2081 0.57872 0.11041 0.0
O22 O 0.15662 0.51533 0.17201 0.0
O23 O 0.14903 0.56663 0.17669 0.0
O24 O 0.20668 0.62224 0.144 0.0
O25 O 0.15719 0.63206 0.17214 0.0
O26 O 1.0214 0.57342 0.17397 0.0
O27 O 1.04177 0.54457 0.20088 0.0
O28 O 1.07785 0.59341 0.13274 0.0
O29 O 1.08141 0.53989 0.12933 0.0
O30 O 1.02732 0.48588 0.16408 0.0
O31 O 1.07059 0.47744 0.13221 0.0
H32 H 0.28993 0.60481 0.14936 0.0
H33 H 0.37773 0.61948 0.15976 0.0
H34 H 0.36747 0.55509 0.08928 0.0
H35 H 0.28078 0.54137 0.07905 0.0
H36 H 0.94275 0.49068 0.156 0.0
H37 H 0.84684 0.41882 0.15644 0.0
H38 H 0.83911 0.44223 0.23466 0.0
H39 H 0.93684 0.51565 0.23403 0.0
La40 La 0.65417 0.03675 0.47324 0.0
La41 La 0.5843 0.06596 0.46868 0.0
C42 C 0.69762 1.00142 0.48636 0.0
C43 C 0.68227 0.95563 0.48921 0.0
C44 C 0.71914 0.94812 0.48034 0.0
C45 C 0.70848 0.90656 0.48423 0.0
C46 C 0.66072 0.87159 0.49721 0.0
C47 C 0.62284 0.87862 0.50553 0.0
C48 C 0.6334 0.92026 0.50148 0.0
C49 C 0.64313 0.05293 0.42809 0.0
C50 C 0.51962 0.96011 0.46728 0.0
C51 C 0.54405 0.10486 0.45773 0.0
C52 C 0.56036 0.15101 0.46391 0.0
C53 C 0.52414 0.15419 0.47805 0.0
C54 C 0.54062 0.1974 0.48599 0.0
C55 C 0.59367 0.23855 0.47984 0.0
C56 C 0.62913 0.23531 0.46495 0.0
C57 C 0.61268 0.19205 0.45707 0.0
C58 C 0.60072 0.05359 0.51416 0.0
C59 C 0.71989 0.14282 0.47229 0.0
O60 O 0.69852 0.01265 0.46377 0.0
O61 O 0.67583 0.0141 0.50173 0.0
O62 O 0.6884 0.06217 0.43706 0.0
O63 O 0.60449 0.03264 0.44375 0.0
O64 O 0.56741 0.97079 0.47543 0.0
O65 O 0.51809 0.99244 0.45967 0.0
O66 O 0.52698 0.07786 0.47624 0.0
O67 O 0.57744 0.10318 0.44333 0.0
O68 O 0.55475 0.04446 0.50642 0.0
O69 O 0.63604 0.07181 0.49728 0.0
O70 O 0.67103 0.13242 0.4663 0.0
O71 O 0.72238 0.11065 0.47918 0.0
H72 H 0.7571 0.97498 0.47087 0.0
H73 H 0.7389 0.90257 0.47788 0.0
H74 H 0.58541 0.85214 0.51539 0.0
H75 H 0.60399 0.92506 0.50834 0.0
H76 H 0.48355 0.1231 0.48354 0.0
H77 H 0.51246 0.19844 0.49765 0.0
H78 H 0.66988 0.26625 0.45951 0.0
H79 H 0.64141 0.19085 0.44599 0.0
La80 La 0.61828 0.55614 0.85743 0.0
La81 La 0.54561 0.45354 0.84742 0.0
C82 C 0.66961 0.64178 0.85531 0.0
C83 C 0.65797 0.67315 0.8497 0.0
C84 C 0.69824 0.72033 0.85653 0.0
C85 C 0.69006 0.75156 0.85028 0.0
C86 C 0.64122 0.73618 0.83707 0.0
C87 C 0.60033 0.68855 0.83061 0.0
C88 C 0.60869 0.65728 0.83685 0.0
C89 C 0.5855 0.50563 0.89634 0.0
C90 C 0.48357 0.49568 0.85184 0.0
C91 C 0.49909 0.36894 0.84954 0.0
C92 C 0.51712 0.34097 0.84438 0.0
C93 C 0.48239 0.29981 0.82969 0.0
C94 C 0.50012 0.27421 0.82327 0.0
C95 C 0.55306 0.28933 0.83144 0.0
C96 C 0.58735 0.33019 0.84658 0.0
C97 C 0.56955 0.35573 0.85301 0.0
C98 C 0.57572 0.50156 0.80772 0.0
C99 C 0.68161 0.51517 0.85489 0.0
O100 O 0.64815 0.61916 0.87555 0.0
O101 O 0.66469 0.61559 0.83679 0.0
O102 O 0.63484 0.5461 0.89501 0.0
O103 O 0.55711 0.4968 0.87727 0.0
O104 O 0.53431 0.5366 0.84926 0.0
O105 O 0.47857 0.45811 0.85488 0.0
O106 O 0.49494 0.38665 0.83033 0.0
O107 O 0.52308 0.39863 0.86859 0.0
O108 O 0.52767 0.46068 0.81014 0.0
O109 O 0.60631 0.51275 0.82661 0.0
O110 O 0.63087 0.47338 0.85276 0.0
O111 O 0.68705 0.5533 0.85522 0.0
H112 H 0.73668 0.73321 0.86633 0.0
H113 H 0.72288 0.78801 0.85519 0.0
H114 H 0.562 0.67545 0.82067 0.0
H115 H 0.57718 0.62095 0.83135 0.0
H116 H 0.4419 0.28789 0.82278 0.0
H117 H 0.47298 0.24326 0.81133 0.0
H118 H 0.62804 0.34251 0.85344 0.0
H119 H 0.5971 0.38723 0.8645 0.0
P120 P 0.6663 0.0433 0.19746 0.0
H121 H 0.63176 0.98973 0.15066 0.0
H122 H 0.54284 0.9159 0.13647 0.0
H123 H 0.46154 0.91936 0.20132 0.0
H124 H 0.54909 0.99485 0.21396 0.0
H125 H 0.77651 0.10228 0.17422 0.0
H126 H 0.83664 0.18273 0.16301 0.0
H127 H 0.70105 0.18682 0.17797 0.0
H128 H 0.64052 0.10549 0.18924 0.0
H129 H 0.6106 0.97863 0.23714 0.0
H130 H 0.71754 0.12679 0.23065 0.0
O131 O 0.70411 0.02538 0.19457 0.0
H132 H 0.6095 0.98932 0.28197 0.0
H133 H 0.71673 0.13739 0.27521 0.0
C134 C 0.59766 0.99717 0.18377 0.0
C135 C 0.59427 0.97519 0.16139 0.0
C136 C 0.54338 0.93242 0.15352 0.0
C137 C 0.49492 0.91027 0.16815 0.0
C138 C 0.49751 0.9347 0.18947 0.0
C139 C 0.54816 0.97801 0.19697 0.0
C140 C 0.70386 0.09773 0.18257 0.0
C141 C 0.75889 0.11983 0.17442 0.0
C142 C 0.79342 0.16606 0.16795 0.0
C143 C 0.7739 0.19142 0.16978 0.0
C144 C 0.71754 0.16836 0.1766 0.0
C145 C 0.68269 0.12178 0.18279 0.0
C146 C 0.66244 0.05165 0.23028 0.0
C147 C 0.63274 0.01333 0.24523 0.0
C148 C 0.63206 0.01943 0.27083 0.0
C149 C 0.66251 0.06415 0.282 0.0
C150 C 0.69261 0.10251 0.26705 0.0
C151 C 0.6927 0.09634 0.24144 0.0
P152 P 0.70965 0.5957 0.58617 0.0
H153 H 0.75885 0.57846 0.54571 0.0
H154 H 0.7264 0.50826 0.52168 0.0
H155 H 0.56898 0.43006 0.56057 0.0
H156 H 0.60141 0.50065 0.58419 0.0
H157 H 0.73503 0.68069 0.60499 0.0
H158 H 0.7123 0.72818 0.59066 0.0
H159 H 0.62187 0.63258 0.52764 0.0
H160 H 0.6453 0.58516 0.54211 0.0
H161 H 0.75295 0.58405 0.63021 0.0
H162 H 0.60851 0.57214 0.60988 0.0
O163 O 0.77995 0.62958 0.58758 0.0
H164 H 0.71839 0.56387 0.67234 0.0
H165 H 0.57431 0.55299 0.65201 0.0
C166 C 0.68303 0.54456 0.56709 0.0
C167 C 0.71725 0.54624 0.54899 0.0
C168 C 0.69874 0.50602 0.53533 0.0
C169 C 0.64538 0.46336 0.53942 0.0
C170 C 0.61022 0.46231 0.55688 0.0
C171 C 0.62886 0.50262 0.57054 0.0
C172 C 0.69186 0.6295 0.57464 0.0
C173 C 0.71022 0.66989 0.5881 0.0
C174 C 0.69679 0.6968 0.57999 0.0
C175 C 0.66483 0.68394 0.55811 0.0
C176 C 0.64672 0.64345 0.54451 0.0
C177 C 0.65998 0.61629 0.55278 0.0
C178 C 0.68373 0.58026 0.61707 0.0
C179 C 0.71403 0.57746 0.63488 0.0
C180 C 0.69442 0.56623 0.659 0.0
C181 C 0.64383 0.55721 0.66562 0.0
C182 C 0.61325 0.55948 0.64752 0.0
C183 C 0.63292 0.5707 0.62345 0.0
P184 P 0.11763 0.55094 0.88548 0.0
H185 H 0.17336 0.55957 0.83896 0.0
H186 H 0.24424 0.55085 0.82837 0.0
H187 H 0.21666 0.48727 0.89749 0.0
H188 H 0.14662 0.49622 0.90801 0.0
H189 H 0.0862 0.59653 0.85635 0.0
H190 H 0.99708 0.57964 0.84785 0.0
H191 H 0.90787 0.4462 0.87946 0.0
H192 H 0.9977 0.46265 0.88692 0.0
H193 H 0.16774 0.62341 0.92548 0.0
H194 H 1.05332 0.47391 0.91929 0.0
O195 O 0.16436 0.60711 0.8797 0.0
H196 H 0.16018 0.62113 0.97023 0.0
H197 H 1.04425 0.47145 0.96408 0.0
C198 C 0.15324 0.52825 0.87424 0.0
C199 C 0.18098 0.54228 0.85153 0.0
C200 C 0.22243 0.53789 0.84564 0.0
C201 C 0.23726 0.51887 0.86218 0.0
C202 C 0.20662 0.50189 0.88414 0.0
C203 C 0.16573 0.50685 0.89016 0.0
C204 C 1.04986 0.53124 0.87263 0.0
C205 C 1.04769 0.56308 0.86106 0.0
C206 C 0.99608 0.5536 0.8565 0.0
C207 C 0.94433 0.51193 0.8635 0.0
C208 C 0.94628 0.47882 0.87376 0.0
C209 C 0.99818 0.48829 0.87818 0.0
C210 C 0.11121 0.54877 0.9188 0.0
C211 C 0.14066 0.58998 0.93362 0.0
C212 C 0.13597 0.5887 0.95933 0.0
C213 C 0.10161 0.54613 0.97083 0.0
C214 C 1.07159 0.50488 0.9559 0.0
C215 C 1.07625 0.50623 0.93018 0.0
P216 P 0.15233 0.5345 0.41923 0.0
H217 H 0.23191 0.57594 0.46111 0.0
H218 H 0.30125 0.65579 0.47695 0.0
H219 H 0.23072 0.69694 0.4283 0.0
H220 H 0.1584 0.61614 0.41438 0.0
H221 H 0.123 0.47557 0.46017 0.0
H222 H 1.0334 0.4068 0.47466 0.0
H223 H 0.94428 0.42569 0.42275 0.0
H224 H 1.0344 0.4963 0.40957 0.0
H225 H 0.22334 0.6104 0.38561 0.0
H226 H 1.07326 0.46682 0.37977 0.0
O227 O 0.19122 0.51764 0.42081 0.0
H228 H 0.21774 0.61638 0.34147 0.0
H229 H 1.06815 0.47256 0.33529 0.0
C230 C 0.19149 0.59037 0.43578 0.0
C231 C 0.2305 0.60201 0.45433 0.0
C232 C 0.27085 0.64807 0.46311 0.0
C233 C 0.27384 0.68379 0.45316 0.0
C234 C 0.2307 0.671 0.43639 0.0
C235 C 0.18925 0.62457 0.42819 0.0
C236 C 0.08553 0.49016 0.43316 0.0
C237 C 0.08413 0.46537 0.45221 0.0
C238 C 1.03264 0.42559 0.46029 0.0
C239 C 0.98118 0.40939 0.44934 0.0
C240 C 0.98274 0.43664 0.4316 0.0
C241 C 1.03445 0.47699 0.42384 0.0
C242 C 0.14615 0.53913 0.38656 0.0
C243 C 0.18783 0.58056 0.37512 0.0
C244 C 0.18503 0.58389 0.34973 0.0
C245 C 0.14174 0.54527 0.33503 0.0
C246 C 0.1015 0.50311 0.34625 0.0
C247 C 0.10396 0.50001 0.37176 0.0
P248 P 0.67604 0.04991 0.74094 0.0
H249 H 0.72539 0.12269 0.78025 0.0
H250 H 0.69169 0.1598 0.80157 0.0
H251 H 0.53259 0.06661 0.76136 0.0
H252 H 0.56623 0.02896 0.74056 0.0
H253 H 0.68087 0.98023 0.71906 0.0
H254 H 0.65953 0.91053 0.73455 0.0
H255 H 0.59979 0.93046 0.80226 0.0
H256 H 0.6224 1.0009 0.7867 0.0
H257 H 0.7314 0.11439 0.70138 0.0
H258 H 0.57806 0.97489 0.71037 0.0
O259 O 0.74635 0.0868 0.74364 0.0
H260 H 0.70595 0.10899 0.65808 0.0
H261 H 0.55262 0.96883 0.66686 0.0
C262 C 0.64867 0.07366 0.75849 0.0
C263 C 0.68311 0.11002 0.77615 0.0
C264 C 0.66388 0.13139 0.78824 0.0
C265 C 0.60971 0.11663 0.78294 0.0
C266 C 0.57442 0.07874 0.76598 0.0
C267 C 0.59373 0.05735 0.75393 0.0
C268 C 0.6523 0.99526 0.75152 0.0
C269 C 0.66218 0.96911 0.73705 0.0
C270 C 0.64977 0.92912 0.74593 0.0
C271 C 0.62767 0.91468 0.76964 0.0
C272 C 0.6171 0.94075 0.78399 0.0
C273 C 0.62956 0.98084 0.77504 0.0
C274 C 0.65727 0.04468 0.70889 0.0
C275 C 0.69256 0.08236 0.69392 0.0
C276 C 0.67801 0.07916 0.66915 0.0
C277 C 0.62753 0.03829 0.65892 0.0
C278 C 0.5917 1.00083 0.67417 0.0
C279 C 0.6064 1.00409 0.69898 0.0
P280 P 0.43878 0.31195 0.09598 0.0
H281 H 0.4051 0.25476 0.13817 0.0
H282 H 0.46088 0.25286 0.16942 0.0
H283 H 0.60986 0.34242 0.12622 0.0
H284 H 0.55579 0.34715 0.09631 0.0
H285 H 0.37414 0.33288 0.12405 0.0
H286 H 0.39584 0.40639 0.1363 0.0
H287 H 0.56645 0.48049 0.11101 0.0
H288 H 0.54414 0.40678 0.09849 0.0
H289 H 0.51019 0.30578 0.06045 0.0
H290 H 0.40693 0.34718 0.06084 0.0
O291 O 0.36931 0.26896 0.09724 0.0
H292 H 0.54937 0.34197 0.0208 0.0
H293 H 0.44375 0.38121 0.02107 0.0
C294 C 0.47559 0.2992 0.11414 0.0
C295 C 0.44935 0.27253 0.13495 0.0
C296 C 0.48102 0.27149 0.15283 0.0
C297 C 0.53902 0.29649 0.14975 0.0
C298 C 0.56468 0.32161 0.12848 0.0
C299 C 0.53352 0.32381 0.11113 0.0
C300 C 0.45731 0.36449 0.11014 0.0
C301 C 0.41655 0.36484 0.12171 0.0
C302 C 0.42927 0.40696 0.1289 0.0
C303 C 0.48293 0.44927 0.12453 0.0
C304 C 0.52476 0.4485 0.11448 0.0
C305 C 0.51203 0.40638 0.1074 0.0
C306 C 0.45735 0.32552 0.06412 0.0
C307 C 0.49589 0.32254 0.05213 0.0
C308 C 0.51797 0.3429 0.02939 0.0
C309 C 0.50015 0.36493 0.01807 0.0
C310 C 0.45827 0.36445 0.0293 0.0
C311 C 0.43713 0.34493 0.05206 0.0
H312 H 0.46611 0.60049 0.10113 0.0
H313 H 0.37921 0.55765 0.17035 0.0
H314 H 0.41666 0.51847 0.17913 0.0
H315 H 0.45252 0.47973 0.16213 0.0
H316 H 0.53126 0.51636 0.09104 0.0
H317 H 0.51952 0.57467 0.08821 0.0
C318 C 0.45679 0.58371 0.11846 0.0
C319 C 0.41865 0.5809 0.13466 0.0
C320 C 0.47603 0.55905 0.12283 0.0
C321 C 0.40819 0.56024 0.1574 0.0
C322 C 0.42896 0.53713 0.16232 0.0
C323 C 0.46839 0.50138 0.14635 0.0
C324 C 0.4914 0.49299 0.1266 0.0
C325 C 0.45952 0.53363 0.14438 0.0
C326 C 0.51312 0.52195 0.10649 0.0
C327 C 0.50593 0.55506 0.10472 0.0
H328 H 0.73339 0.22187 0.46604 0.0
H329 H 0.82724 0.1728 0.47448 0.0
H330 H 0.9153 0.25042 0.46877 0.0
H331 H 0.9656 0.33101 0.45922 0.0
H332 H 0.87384 0.38226 0.45227 0.0
H333 H 0.78524 0.30491 0.45907 0.0
C334 C 0.77309 0.22818 0.46673 0.0
C335 C 0.77333 0.19122 0.47058 0.0
C336 C 0.82409 0.27327 0.46345 0.0
C337 C 0.82543 0.20034 0.47162 0.0
C338 C 0.87601 0.24482 0.46826 0.0
C339 C 0.92658 0.32584 0.4597 0.0
C340 C 0.927 0.36293 0.45519 0.0
C341 C 0.87583 0.28142 0.46393 0.0
C342 C 0.87522 0.35456 0.4553 0.0
C343 C 0.82438 0.31026 0.45934 0.0
H344 H 0.60111 0.73771 0.79283 0.0
H345 H 0.66706 0.81172 0.86371 0.0
H346 H 0.66585 0.87213 0.84954 0.0
H347 H 0.65224 0.90658 0.81616 0.0
H348 H 0.58426 0.83183 0.74558 0.0
H349 H 0.57967 0.76893 0.76061 0.0
C350 C 0.61418 0.76655 0.80537 0.0
C351 C 0.63466 0.77027 0.82924 0.0
C352 C 0.6134 0.80126 0.7971 0.0
C353 C 0.65208 0.80832 0.84509 0.0
C354 C 0.65118 0.84283 0.83704 0.0
C355 C 0.63532 0.87614 0.8042 0.0
C356 C 0.61905 0.87421 0.77969 0.0
C357 C 0.63285 0.84008 0.81295 0.0
C358 C 0.59799 0.83466 0.76439 0.0
C359 C 0.59514 0.79856 0.77299 0.0
H360 H 0.74698 0.41291 0.21707 0.0
H361 H 0.78874 0.34135 0.17127 0.0
H362 H 0.69078 0.2841 0.15761 0.0
H363 H 0.60165 0.26901 0.14984 0.0
H364 H 0.56097 0.34302 0.19358 0.0
H365 H 0.64912 0.38374 0.21743 0.0
C366 C 0.73422 0.38367 0.20496 0.0
C367 C 0.77535 0.38209 0.19469 0.0
C368 C 0.67794 0.35173 0.19644 0.0
C369 C 0.75806 0.3438 0.17911 0.0
C370 C 0.702 0.31116 0.17113 0.0
C371 C 0.61103 0.29236 0.16543 0.0
C372 C 0.57587 0.30368 0.16989 0.0
C373 C 0.66264 0.31683 0.17832 0.0
C374 C 0.58781 0.33392 0.18997 0.0
C375 C 0.63853 0.35765 0.20335 0.0
H376 H 0.51171 0.88364 0.4706 0.0
H377 H 0.4105 0.9252 0.45976 0.0
H378 H 0.32533 0.84389 0.45603 0.0
H379 H 0.27968 0.76086 0.45512 0.0
H380 H 0.38341 0.72053 0.46249 0.0
H381 H 0.46652 0.8011 0.46907 0.0
C382 C 0.47103 0.87502 0.46753 0.0
C383 C 0.46771 0.91066 0.46545 0.0
C384 C 0.42226 0.82817 0.465 0.0
C385 C 0.41451 0.8986 0.46132 0.0
C386 C 0.36566 0.85203 0.45923 0.0
C387 C 0.32035 0.76944 0.45797 0.0
C388 C 0.32423 0.73377 0.4585 0.0
C389 C 0.36903 0.81644 0.46085 0.0
C390 C 0.37789 0.74641 0.46263 0.0
C391 C 0.42603 0.79284 0.46609 0.0
H392 H 0.49272 0.1956 0.8279 0.0
H393 H 0.65888 0.32509 0.81675 0.0
H394 H 0.69144 0.28315 0.80187 0.0
H395 H 0.67167 0.20992 0.79007 0.0
H396 H 0.50554 0.08022 0.80085 0.0
H397 H 0.47375 0.12208 0.81728 0.0
C398 C 0.53599 0.21464 0.82212 0.0
C399 C 0.5732 0.26346 0.82342 0.0
C400 C 0.55435 0.19029 0.81331 0.0
C401 C 0.62944 0.28756 0.81624 0.0
C402 C 0.64804 0.26359 0.80755 0.0
C403 C 0.62873 0.19072 0.79637 0.0
C404 C 0.59107 0.14194 0.79419 0.0
C405 C 0.61076 0.21499 0.80583 0.0
C406 C 0.53526 0.11775 0.80203 0.0
C407 C 0.5171 0.14167 0.81153 0.0
H408 H 0.63143 0.83107 0.54137 0.0
H409 H 0.67444 0.81861 0.46717 0.0
H410 H 0.67512 0.75662 0.47899 0.0
H411 H 0.67197 0.71098 0.51137 0.0
H412 H 0.62969 0.72418 0.5856 0.0
H413 H 0.6198 0.78051 0.57276 0.0
C414 C 0.63972 0.8141 0.52764 0.0
C415 C 0.65326 0.82969 0.50347 0.0
C416 C 0.64076 0.77891 0.53464 0.0
C417 C 0.66465 0.8077 0.486 0.0
C418 C 0.66497 0.7722 0.49273 0.0
C419 C 0.65952 0.72551 0.52461 0.0
C420 C 0.65221 0.71376 0.54946 0.0
C421 C 0.65441 0.75828 0.51715 0.0
C422 C 0.63655 0.73325 0.56645 0.0
C423 C 0.6307 0.76536 0.55911 0.0
H424 H 0.69541 0.4481 0.84986 0.0
H425 H 0.78893 0.59489 0.86462 0.0
H426 H 0.876 0.60642 0.86846 0.0
H427 H 0.92701 0.57591 0.86837 0.0
H428 H 0.83624 0.42984 0.85272 0.0
H429 H 0.74791 0.41733 0.84904 0.0
C430 C 0.73472 0.4826 0.85397 0.0
C431 C 0.73461 0.52045 0.85693 0.0
C432 C 0.78582 0.48935 0.85616 0.0
C433 C 0.78673 0.56486 0.86212 0.0
C434 C 0.83705 0.57164 0.86439 0.0
C435 C 0.88828 0.54129 0.86379 0.0
C436 C 0.88943 0.50404 0.86079 0.0
C437 C 0.8373 0.53427 0.86145 0.0
C438 C 0.83759 0.4594 0.85547 0.0
C439 C 0.78669 0.45217 0.8532 0.0
H440 H 0.31075 0.69381 0.14474 0.0
H441 H 0.20246 0.71846 0.17765 0.0
H442 H 0.28208 0.80149 0.18186 0.0
H443 H 0.38285 0.86694 0.17692 0.0
H444 H 0.49204 0.84043 0.14721 0.0
H445 H 0.41145 0.75894 0.14033 0.0
C446 C 0.30442 0.71733 0.15273 0.0
C447 C 0.2506 0.69981 0.16087 0.0
C448 C 0.35058 0.76498 0.15547 0.0
C449 C 0.24343 0.73087 0.17134 0.0
C450 C 0.28896 0.77844 0.1737 0.0
C451 C 0.38939 0.84349 0.16911 0.0
C452 C 0.44413 0.86066 0.16251 0.0
C453 C 0.34289 0.79589 0.166 0.0
C454 C 0.45075 0.82918 0.15197 0.0
C455 C 0.40458 0.78213 0.14828 0.0
H456 H 0.53165 0.26781 0.48543 0.0
H457 H 0.69913 0.31257 0.49726 0.0
H458 H 0.73018 0.38639 0.51556 0.0
H459 H 0.70891 0.43683 0.53016 0.0
H460 H 0.54123 0.39193 0.51926 0.0
H461 H 0.51089 0.31918 0.49926 0.0
C462 C 0.57489 0.29359 0.49211 0.0
C463 C 0.61289 0.28443 0.48991 0.0
C464 C 0.59236 0.33584 0.50302 0.0
C465 C 0.66905 0.31873 0.49833 0.0
C466 C 0.6868 0.36091 0.50901 0.0
C467 C 0.66592 0.41144 0.5231 0.0
C468 C 0.62745 0.41992 0.52624 0.0
C469 C 0.64874 0.36969 0.51164 0.0
C470 C 0.57159 0.38615 0.51736 0.0
C471 C 0.55426 0.34461 0.50581 0.0
H472 H 0.47166 0.56098 0.8412 0.0
H473 H 0.37819 0.42287 0.86708 0.0
H474 H 0.29501 0.41744 0.87237 0.0
H475 H 0.24798 0.4521 0.87054 0.0
H476 H 0.34045 0.58934 0.84365 0.0
H477 H 0.42338 0.59445 0.83778 0.0
C478 C 0.4331 0.52957 0.84791 0.0
C479 C 0.43197 0.49244 0.85373 0.0
C480 C 0.38455 0.52636 0.85075 0.0
C481 C 0.38098 0.45208 0.86231 0.0
C482 C 0.33307 0.44893 0.86543 0.0
C483 C 0.2862 0.48317 0.86338 0.0
C484 C 0.28715 0.5202 0.85753 0.0
C485 C 0.33425 0.48589 0.85986 0.0
C486 C 0.33748 0.55988 0.84803 0.0
C487 C 0.38539 0.56302 0.8448 0.0
H488 H 0.94134 0.41027 0.17951 0.0
H489 H 1.01132 0.39303 0.1149 0.0
H490 H 0.93692 0.30898 0.11508 0.0
H491 H 0.85379 0.24 0.13455 0.0
H492 H 0.78562 0.25797 0.19958 0.0
H493 H 0.8575 0.34197 0.19823 0.0
C494 C 0.9402 0.38828 0.1653 0.0
C495 C 0.98205 0.40815 0.1472 0.0
C496 C 0.89754 0.33995 0.16561 0.0
C497 C 0.97983 0.37883 0.12908 0.0
C498 C 0.93723 0.33069 0.12917 0.0
C499 C 0.85441 0.26234 0.14829 0.0
C500 C 0.81407 0.24255 0.16706 0.0
C501 C 0.89611 0.31081 0.14747 0.0
C502 C 0.81543 0.2721 0.18469 0.0
C503 C 0.85688 0.3202 0.18406 0.0
H504 H 0.09022 0.51528 0.08524 0.0
H505 H 0.0841 0.62753 0.08885 0.0
H506 H 0.08921 0.63057 0.04373 0.0
H507 H 0.09444 0.60052 0.00325 0.0
H508 H 0.10163 0.48871 1.00023 0.0
H509 H 0.09638 0.48594 0.04511 0.0
C510 C 0.09 0.54042 0.07616 0.0
C511 C 0.08668 0.5711 0.09031 0.0
C512 C 0.09284 0.54186 0.05031 0.0
C513 C 0.08655 0.60353 0.07831 0.0
C514 C 0.08946 0.60524 0.05254 0.0
C515 C 0.09527 0.57578 0.01241 0.0
C516 C 0.09818 0.54473 0.99827 0.0
C517 C 0.09256 0.57452 0.03833 0.0
C518 C 0.09849 0.51251 0.01052 0.0
C519 C 0.09588 0.51109 0.03623 0.0
H520 H 0.72451 0.10531 0.39556 0.0
H521 H 0.54384 1.00302 0.40125 0.0
H522 H 0.5333 0.99852 0.35614 0.0
H523 H 0.57683 0.02005 0.31492 0.0
H524 H 0.75778 0.12341 0.31013 0.0
H525 H 0.76696 0.1314 0.35508 0.0
C526 C 0.68278 0.08237 0.3869 0.0
C527 C 0.63507 0.05417 0.40152 0.0
C528 C 0.67723 0.08003 0.36115 0.0
C529 C 0.58116 0.025 0.39026 0.0
C530 C 0.5752 0.02227 0.3645 0.0
C531 C 0.61814 0.04444 0.3238 0.0
C532 C 0.6666 0.07097 0.30928 0.0
C533 C 0.6231 0.04896 0.34973 0.0
C534 C 0.71988 0.10287 0.32093 0.0
C535 C 0.72518 0.10729 0.34661 0.0
H536 H 0.51554 0.47267 0.76515 0.0
H537 H 0.68375 0.57537 0.7958 0.0
H538 H 0.71963 0.60303 0.75445 0.0
H539 H 0.7035 0.59501 0.7093 0.0
H540 H 0.53513 0.48978 0.67913 0.0
H541 H 0.49897 0.46631 0.7206 0.0
C542 C 0.56001 0.50137 0.76281 0.0
C543 C 0.59702 0.52186 0.78342 0.0
C544 C 0.58031 0.51643 0.73905 0.0
C545 C 0.65445 0.55912 0.78017 0.0
C546 C 0.67498 0.57474 0.75654 0.0
C547 C 0.65894 0.56683 0.71182 0.0
C548 C 0.62214 0.54416 0.69108 0.0
C549 C 0.63841 0.5531 0.73578 0.0
C550 C 0.56434 0.50821 0.69471 0.0
C551 C 0.54362 0.49456 0.71843 0.0
H552 H 0.52886 0.01739 0.55251 0.0
H553 H 0.70203 0.08648 0.53358 0.0
H554 H 0.72509 0.08634 0.5765 0.0
H555 H 0.69669 0.06835 0.61956 0.0
H556 H 0.52414 1.00101 0.63897 0.0
H557 H 0.50002 0.99818 0.59573 0.0
C558 C 0.57156 0.03226 0.55783 0.0
C559 C 0.61368 0.05187 0.53997 0.0
C560 C 0.58461 0.03236 0.58261 0.0
C561 C 0.66883 0.07097 0.54701 0.0
C562 C 0.68208 0.07104 0.57156 0.0
C563 C 0.65387 0.05331 0.61437 0.0
C564 C 0.61238 0.03513 0.63252 0.0
C565 C 0.64043 0.05217 0.58954 0.0
C566 C 0.55682 0.0149 0.62536 0.0
C567 C 0.54305 0.01351 0.60066 0.0
H568 H 0.64371 0.50679 0.93473 0.0
H569 H 0.47615 0.43452 0.90414 0.0
H570 H 0.43548 0.38222 0.93793 0.0
H571 H 0.44646 0.35874 0.97703 0.0
H572 H 0.61262 0.42929 0.00846 0.0
H573 H 0.65501 0.47967 0.97334 0.0
C574 C 0.59839 0.47958 0.93559 0.0
C575 C 0.56295 0.47473 0.91714 0.0
C576 C 0.57504 0.44904 0.95509 0.0
C577 C 0.50431 0.43903 0.91818 0.0
C578 C 0.48093 0.40901 0.93748 0.0
C579 C 0.49199 0.38493 0.97606 0.0
C580 C 0.52636 0.39053 0.99528 0.0
C581 C 0.51577 0.41392 0.95611 0.0
C582 C 0.58534 0.42415 0.99372 0.0
C583 C 0.60951 0.45323 0.97379 0.0
H584 H 0.15334 0.59338 0.22358 0.0
H585 H 0.13298 0.46854 0.21194 0.0
H586 H 0.12623 0.4585 0.25643 0.0
H587 H 0.12901 0.48649 0.29877 0.0
H588 H 0.15222 0.61254 0.31065 0.0
H589 H 0.15487 0.62087 0.26603 0.0
C590 C 0.14719 0.56392 0.23084 0.0
C591 C 0.14371 0.53176 0.2146 0.0
C592 C 0.14393 0.55864 0.25648 0.0
C593 C 0.13603 0.49385 0.22416 0.0
C594 C 0.13206 0.48804 0.24957 0.0
C595 C 0.13397 0.51545 0.29154 0.0
C596 C 0.14031 0.5488 0.30794 0.0
C597 C 0.13626 0.52035 0.26592 0.0
C598 C 0.14762 0.58659 0.29837 0.0
C599 C 0.14905 0.59132 0.27288 0.0
loop_
_geom_bond_atom_site_label_1
_geom_bond_atom_site_label_2
_geom_bond_distance
_geom_bond_site_symmetry_2
_ccdc_geom_bond_type
La0 C2 2.928 . S
La0 O20 2.521 . S
La0 O21 2.628 . S
La0 O22 2.554 . S
La0 O23 2.757 . S
La0 O24 2.470 . S
La0 O29 2.482 . S
La0 O31 2.503 1_455 S
La1 C11 2.928 . S
La1 O23 2.482 1_655 S
La1 O25 2.503 1_655 S
La1 O26 2.521 . S
La1 O27 2.628 . S
La1 O28 2.554 . S
La1 O29 2.757 1_655 S
La1 O30 2.470 . S
C2 La0 2.928 . S
C2 C3 1.503 . S
C2 O20 1.261 . S
C2 O21 1.243 . S
C3 C2 1.503 . S
C3 C4 1.394 . S
C3 C8 1.373 . S
C4 C3 1.394 . S
C4 C5 1.380 . S
C4 H32 0.930 . S
C5 C4 1.380 . S
C5 C6 1.376 . S
C5 H33 0.930 . S
C6 C5 1.376 . S
C6 C7 1.370 . S
C7 C6 1.370 . S
C7 C8 1.396 . S
C7 H34 0.929 . S
C8 C3 1.373 . S
C8 C7 1.396 . S
C8 H35 0.929 . S
C9 O22 1.240 . S
C9 O23 1.289 . S
C10 O24 1.258 . S
C10 O25 1.256 . S
C11 La1 2.928 . S
C11 C12 1.503 . S
C11 O26 1.261 . S
C11 O27 1.243 . S
C12 C11 1.503 . S
C12 C13 1.394 . S
C12 C17 1.373 . S
C13 C12 1.394 . S
C13 C14 1.380 . S
C13 H36 0.930 . S
C14 C13 1.380 . S
C14 C15 1.376 . S
C14 H37 0.930 . S
C15 C14 1.376 . S
C15 C16 1.370 . S
C16 C15 1.370 . S
C16 C17 1.396 . S
C16 H38 0.929 . S
C17 C12 1.373 . S
C17 C16 1.396 . S
C17 H39 0.929 . S
C18 O28 1.240 1_455 S
C18 O29 1.289 . S
C19 O30 1.258 . S
C19 O31 1.256 . S
O20 La0 2.521 . S
O20 C2 1.261 . S
O21 La0 2.628 . S
O21 C2 1.243 . S
O22 La0 2.554 . S
O22 C9 1.240 . S
O23 La0 2.757 . S
O23 La1 2.482 1_455 S
O23 C9 1.289 . S
O24 La0 2.470 . S
O24 C10 1.258 . S
O25 La1 2.503 1_455 S
O25 C10 1.256 . S
O26 La1 2.521 . S
O26 C11 1.261 . S
O27 La1 2.628 . S
O27 C11 1.243 . S
O28 La1 2.554 . S
O28 C18 1.240 1_655 S
O29 La0 2.482 . S
O29 La1 2.757 1_455 S
O29 C18 1.289 . S
O30 La1 2.470 . S
O30 C19 1.258 . S
O31 La0 2.503 1_655 S
O31 C19 1.256 . S
H32 C4 0.930 . S
H33 C5 0.930 . S
H34 C7 0.929 . S
H35 C8 0.929 . S
H36 C13 0.930 . S
H37 C14 0.930 . S
H38 C16 0.929 . S
H39 C17 0.929 . S
La40 C42 2.928 . S
La40 O60 2.521 . S
La40 O61 2.628 . S
La40 O62 2.554 . S
La40 O63 2.757 1_565 S
La40 O64 2.470 . S
La40 O69 2.482 . S
La40 O71 2.503 1_565 S
La41 C51 2.928 . S
La41 O63 2.482 . S
La41 O65 2.503 1_545 S
La41 O66 2.521 . S
La41 O67 2.628 . S
La41 O68 2.554 . S
La41 O69 2.757 1_545 S
La41 O70 2.470 . S
C42 La40 2.928 . S
C42 C43 1.503 . S
C42 O60 1.261 . S
C42 O61 1.243 . S
C43 C42 1.503 . S
C43 C44 1.394 . S
C43 C48 1.373 . S
C44 C43 1.394 . S
C44 C45 1.380 . S
C44 H72 0.930 . S
C45 C44 1.380 . S
C45 C46 1.376 . S
C45 H73 0.930 . S
C46 C45 1.376 . S
C46 C47 1.370 . S
C47 C46 1.370 . S
C47 C48 1.396 . S
C47 H74 0.929 . S
C48 C43 1.373 . S
C48 C47 1.396 . S
C48 H75 0.929 . S
C49 O62 1.240 1_545 S
C49 O63 1.289 . S
C50 O64 1.258 . S
C50 O65 1.256 . S
C51 La41 2.928 . S
C51 C52 1.503 . S
C51 O66 1.261 . S
C51 O67 1.243 . S
C52 C51 1.503 . S
C52 C53 1.394 . S
C52 C57 1.373 . S
C53 C52 1.394 . S
C53 C54 1.380 . S
C53 H76 0.930 . S
C54 C53 1.380 . S
C54 C55 1.376 . S
C54 H77 0.930 . S
C55 C54 1.376 . S
C55 C56 1.370 . S
C56 C55 1.370 . S
C56 C57 1.396 . S
C56 H78 0.929 . S
C57 C52 1.373 . S
C57 C56 1.396 . S
C57 H79 0.929 . S
C58 O68 1.240 . S
C58 O69 1.289 1_545 S
C59 O70 1.258 . S
C59 O71 1.256 . S
O60 La40 2.521 . S
O60 C42 1.261 . S
O61 La40 2.628 . S
O61 C42 1.243 . S
O62 La40 2.554 . S
O62 C49 1.240 1_565 S
O63 La40 2.757 1_545 S
O63 La41 2.482 . S
O63 C49 1.289 . S
O64 La40 2.470 . S
O64 C50 1.258 . S
O65 La41 2.503 1_565 S
O65 C50 1.256 . S
O66 La41 2.521 . S
O66 C51 1.261 . S
O67 La41 2.628 . S
O67 C51 1.243 . S
O68 La41 2.554 . S
O68 C58 1.240 . S
O69 La40 2.482 . S
O69 La41 2.757 1_565 S
O69 C58 1.289 1_565 S
O70 La41 2.470 . S
O70 C59 1.258 . S
O71 La40 2.503 1_545 S
O71 C59 1.256 . S
H72 C44 0.930 . S
H73 C45 0.930 . S
H74 C47 0.929 . S
H75 C48 0.929 . S
H76 C53 0.930 . S
H77 C54 0.930 . S
H78 C56 0.929 . S
H79 C57 0.929 . S
La80 C82 2.928 . S
La80 O100 2.521 . S
La80 O101 2.628 . S
La80 O102 2.554 . S
La80 O103 2.757 . S
La80 O104 2.470 . S
La80 O109 2.482 . S
La80 O111 2.503 . S
La81 C91 2.928 . S
La81 O103 2.482 . S
La81 O105 2.503 . S
La81 O106 2.521 . S
La81 O107 2.628 . S
La81 O108 2.554 . S
La81 O109 2.757 . S
La81 O110 2.470 . S
C82 La80 2.928 . S
C82 C83 1.503 . S
C82 O100 1.261 . S
C82 O101 1.243 . S
C83 C82 1.503 . S
C83 C84 1.394 . S
C83 C88 1.373 . S
C84 C83 1.394 . S
C84 C85 1.380 . S
C84 H112 0.930 . S
C85 C84 1.380 . S
C85 C86 1.376 . S
C85 H113 0.930 . S
C86 C85 1.376 . S
C86 C87 1.370 . S
C87 C86 1.370 . S
C87 C88 1.396 . S
C87 H114 0.929 . S
C88 C83 1.373 . S
C88 C87 1.396 . S
C88 H115 0.929 . S
C89 O102 1.240 . S
C89 O103 1.289 . S
C90 O104 1.258 . S
C90 O105 1.256 . S
C91 La81 2.928 . S
C91 C92 1.503 . S
C91 O106 1.261 . S
C91 O107 1.243 . S
C92 C91 1.503 . S
C92 C93 1.394 . S
C92 C97 1.373 . S
C93 C92 1.394 . S
C93 C94 1.380 . S
C93 H116 0.930 . S
C94 C93 1.380 . S
C94 C95 1.376 . S
C94 H117 0.930 . S
C95 C94 1.376 . S
C95 C96 1.370 . S
C96 C95 1.370 . S
C96 C97 1.396 . S
C96 H118 0.929 . S
C97 C92 1.373 . S
C97 C96 1.396 . S
C97 H119 0.929 . S
C98 O108 1.240 . S
C98 O109 1.289 . S
C99 O110 1.258 . S
C99 O111 1.256 . S
O100 La80 2.521 . S
O100 C82 1.261 . S
O101 La80 2.628 . S
O101 C82 1.243 . S
O102 La80 2.554 . S
O102 C89 1.240 . S
O103 La80 2.757 . S
O103 La81 2.482 . S
O103 C89 1.289 . S
O104 La80 2.470 . S
O104 C90 1.258 . S
O105 La81 2.503 . S
O105 C90 1.256 . S
O106 La81 2.521 . S
O106 C91 1.261 . S
O107 La81 2.628 . S
O107 C91 1.243 . S
O108 La81 2.554 . S
O108 C98 1.240 . S
O109 La80 2.482 . S
O109 La81 2.757 . S
O109 C98 1.289 . S
O110 La81 2.470 . S
O110 C99 1.258 . S
O111 La80 2.503 . S
O111 C99 1.256 . S
H112 C84 0.930 . S
H113 C85 0.930 . S
H114 C87 0.929 . S
H115 C88 0.929 . S
H116 C93 0.930 . S
H117 C94 0.930 . S
H118 C96 0.929 . S
H119 C97 0.929 . S
P120 O131 1.493 1_545 S
P120 C134 1.812 1_545 S
P120 C140 1.801 . S
P120 C146 1.818 . S
H121 C135 0.941 . S
H122 C136 0.939 . S
H123 C138 0.940 . S
H124 C139 0.940 . S
H125 C141 0.939 . S
H126 C142 0.942 . S
H127 C144 0.940 . S
H128 C145 0.939 . S
H129 C147 0.941 . S
H130 C151 0.939 . S
O131 P120 1.493 1_565 S
H132 C148 0.939 . S
H133 C150 0.940 . S
C134 P120 1.812 1_565 S
C134 C135 1.389 . S
C134 C139 1.391 . S
C135 H121 0.941 . S
C135 C134 1.389 . S
C135 C136 1.397 . S
C136 H122 0.939 . S
C136 C135 1.397 . S
C136 C137 1.378 . S
C137 C136 1.378 . S
C137 C138 1.378 . S
C138 H123 0.940 . S
C138 C137 1.378 . S
C138 C139 1.396 . S
C139 H124 0.940 . S
C139 C134 1.391 . S
C139 C138 1.396 . S
C140 P120 1.801 . S
C140 C141 1.378 . S
C140 C145 1.400 . S
C141 H125 0.939 . S
C141 C140 1.378 . S
C141 C142 1.361 . S
C142 H126 0.942 . S
C142 C141 1.361 . S
C142 C143 1.369 . S
C143 C142 1.369 . S
C143 C144 1.404 . S
C144 H127 0.940 . S
C144 C143 1.404 . S
C144 C145 1.389 . S
C145 H128 0.939 . S
C145 C140 1.400 . S
C145 C144 1.389 . S
C146 P120 1.818 . S
C146 C147 1.391 1_545 S
C146 C151 1.391 . S
C147 H129 0.941 . S
C147 C146 1.391 1_565 S
C147 C148 1.396 . S
C148 H132 0.939 . S
C148 C147 1.396 . S
C148 C149 1.397 1_565 S
C149 C148 1.397 1_545 S
C149 C150 1.385 . S
C150 H133 0.940 . S
C150 C149 1.385 . S
C150 C151 1.388 . S
C151 H130 0.939 . S
C151 C146 1.391 . S
C151 C150 1.388 . S
P152 O163 1.490 . S
P152 C166 1.812 . S
P152 C172 1.803 . S
P152 C178 1.819 . S
H153 C167 0.941 . S
H154 C168 0.939 . S
H155 C170 0.940 . S
H156 C171 0.940 . S
H157 C173 0.939 . S
H158 C174 0.942 . S
H159 C176 0.940 . S
H160 C177 0.939 . S
H161 C179 0.941 . S
H162 C183 0.939 . S
O163 P152 1.490 . S
H164 C180 0.939 . S
H165 C182 0.940 . S
C166 P152 1.812 . S
C166 C167 1.389 . S
C166 C171 1.391 . S
C167 H153 0.941 . S
C167 C166 1.389 . S
C167 C168 1.397 . S
C168 H154 0.939 . S
C168 C167 1.397 . S
C168 C169 1.378 . S
C169 C168 1.378 . S
C169 C170 1.378 . S
C170 H155 0.940 . S
C170 C169 1.378 . S
C170 C171 1.396 . S
C171 H156 0.940 . S
C171 C166 1.391 . S
C171 C170 1.396 . S
C172 P152 1.803 . S
C172 C173 1.378 . S
C172 C177 1.400 . S
C173 H157 0.939 . S
C173 C172 1.378 . S
C173 C174 1.361 . S
C174 H158 0.942 . S
C174 C173 1.361 . S
C174 C175 1.369 . S
C175 C174 1.369 . S
C175 C176 1.404 . S
C176 H159 0.940 . S
C176 C175 1.404 . S
C176 C177 1.389 . S
C177 H160 0.939 . S
C177 C172 1.400 . S
C177 C176 1.389 . S
C178 P152 1.819 . S
C178 C179 1.391 . S
C178 C183 1.391 . S
C179 H161 0.941 . S
C179 C178 1.391 . S
C179 C180 1.396 . S
C180 H164 0.939 . S
C180 C179 1.396 . S
C180 C181 1.397 . S
C181 C180 1.397 . S
C181 C182 1.385 . S
C182 H165 0.940 . S
C182 C181 1.385 . S
C182 C183 1.388 . S
C183 H162 0.939 . S
C183 C178 1.391 . S
C183 C182 1.388 . S
P184 O195 1.490 . S
P184 C198 1.812 . S
P184 C204 1.803 . S
P184 C210 1.819 . S
H185 C199 0.941 . S
H186 C200 0.939 . S
H187 C202 0.940 . S
H188 C203 0.940 . S
H189 C205 0.939 . S
H190 C206 0.942 . S
H191 C208 0.940 . S
H192 C209 0.939 . S
H193 C211 0.941 . S
H194 C215 0.939 1_655 S
O195 P184 1.490 . S
H196 C212 0.939 . S
H197 C214 0.940 1_655 S
C198 P184 1.812 . S
C198 C199 1.389 . S
C198 C203 1.391 . S
C199 H185 0.941 . S
C199 C198 1.389 . S
C199 C200 1.397 . S
C200 H186 0.939 . S
C200 C199 1.397 . S
C200 C201 1.378 . S
C201 C200 1.378 . S
C201 C202 1.378 . S
C202 H187 0.940 . S
C202 C201 1.378 . S
C202 C203 1.396 . S
C203 H188 0.940 . S
C203 C198 1.391 . S
C203 C202 1.396 . S
C204 P184 1.803 . S
C204 C205 1.378 . S
C204 C209 1.400 . S
C205 H189 0.939 . S
C205 C204 1.378 . S
C205 C206 1.361 1_455 S
C206 H190 0.942 . S
C206 C205 1.361 1_655 S
C206 C207 1.369 . S
C207 C206 1.369 . S
C207 C208 1.404 . S
C208 H191 0.940 . S
C208 C207 1.404 . S
C208 C209 1.389 1_655 S
C209 H192 0.939 . S
C209 C204 1.400 . S
C209 C208 1.389 1_455 S
C210 P184 1.819 . S
C210 C211 1.391 . S
C210 C215 1.391 . S
C211 H193 0.941 . S
C211 C210 1.391 . S
C211 C212 1.396 . S
C212 H196 0.939 . S
C212 C211 1.396 . S
C212 C213 1.397 . S
C213 C212 1.397 . S
C213 C214 1.385 . S
C214 H197 0.940 1_455 S
C214 C213 1.385 . S
C214 C215 1.388 . S
C215 H194 0.939 1_455 S
C215 C210 1.391 . S
C215 C214 1.388 . S
P216 O227 1.490 . S
P216 C230 1.812 . S
P216 C236 1.803 1_455 S
P216 C242 1.819 . S
H217 C231 0.941 . S
H218 C232 0.939 . S
H219 C234 0.940 . S
H220 C235 0.940 . S
H221 C237 0.939 . S
H222 C238 0.942 . S
H223 C240 0.940 . S
H224 C241 0.939 . S
H225 C243 0.941 . S
H226 C247 0.939 . S
O227 P216 1.490 . S
H228 C244 0.939 . S
H229 C246 0.940 . S
C230 P216 1.812 . S
C230 C231 1.389 . S
C230 C235 1.391 . S
C231 H217 0.941 . S
C231 C230 1.389 . S
C231 C232 1.397 . S
C232 H218 0.939 . S
C232 C231 1.397 . S
C232 C233 1.378 . S
C233 C232 1.378 . S
C233 C234 1.378 . S
C234 H219 0.940 . S
C234 C233 1.378 . S
C234 C235 1.396 . S
C235 H220 0.940 . S
C235 C230 1.391 . S
C235 C234 1.396 . S
C236 P216 1.803 1_655 S
C236 C237 1.378 . S
C236 C241 1.400 . S
C237 H221 0.939 . S
C237 C236 1.378 . S
C237 C238 1.361 . S
C238 H222 0.942 . S
C238 C237 1.361 . S
C238 C239 1.369 . S
C239 C238 1.369 . S
C239 C240 1.404 . S
C240 H223 0.940 . S
C240 C239 1.404 . S
C240 C241 1.389 . S
C241 H224 0.939 . S
C241 C236 1.400 . S
C241 C240 1.389 . S
C242 P216 1.819 . S
C242 C243 1.391 . S
C242 C247 1.391 1_455 S
C243 H225 0.941 . S
C243 C242 1.391 . S
C243 C244 1.396 . S
C244 H228 0.939 . S
C244 C243 1.396 . S
C244 C245 1.397 . S
C245 C244 1.397 . S
C245 C246 1.385 1_455 S
C246 H229 0.940 . S
C246 C245 1.385 1_655 S
C246 C247 1.388 . S
C247 H226 0.939 . S
C247 C242 1.391 1_655 S
C247 C246 1.388 . S
P248 O259 1.490 . S
P248 C262 1.812 . S
P248 C268 1.803 1_545 S
P248 C274 1.819 . S
H249 C263 0.941 . S
H250 C264 0.939 . S
H251 C266 0.940 . S
H252 C267 0.940 . S
H253 C269 0.940 . S
H254 C270 0.942 . S
H255 C272 0.940 . S
H256 C273 0.939 . S
H257 C275 0.941 . S
H258 C279 0.939 . S
O259 P248 1.490 . S
H260 C276 0.939 . S
H261 C278 0.940 . S
C262 P248 1.812 . S
C262 C263 1.389 . S
C262 C267 1.391 . S
C263 H249 0.941 . S
C263 C262 1.389 . S
C263 C264 1.397 . S
C264 H250 0.939 . S
C264 C263 1.397 . S
C264 C265 1.378 . S
C265 C264 1.378 . S
C265 C266 1.378 . S
C266 H251 0.940 . S
C266 C265 1.378 . S
C266 C267 1.396 . S
C267 H252 0.940 . S
C267 C262 1.391 . S
C267 C266 1.396 . S
C268 P248 1.803 1_565 S
C268 C269 1.378 . S
C268 C273 1.400 . S
C269 H253 0.940 . S
C269 C268 1.378 . S
C269 C270 1.361 . S
C270 H254 0.942 . S
C270 C269 1.361 . S
C270 C271 1.369 . S
C271 C270 1.369 . S
C271 C272 1.404 . S
C272 H255 0.940 . S
C272 C271 1.404 . S
C272 C273 1.389 . S
C273 H256 0.939 . S
C273 C268 1.400 . S
C273 C272 1.389 . S
C274 P248 1.819 . S
C274 C275 1.391 . S
C274 C279 1.391 1_545 S
C275 H257 0.941 . S
C275 C274 1.391 . S
C275 C276 1.396 . S
C276 H260 0.939 . S
C276 C275 1.396 . S
C276 C277 1.397 . S
C277 C276 1.397 . S
C277 C278 1.385 1_545 S
C278 H261 0.940 . S
C278 C277 1.385 1_565 S
C278 C279 1.388 . S
C279 H258 0.939 . S
C279 C274 1.391 1_565 S
C279 C278 1.388 . S
P280 O291 1.490 . S
P280 C294 1.812 . S
P280 C300 1.803 . S
P280 C306 1.819 . S
H281 C295 0.941 . S
H282 C296 0.939 . S
H283 C298 0.940 . S
H284 C299 0.940 . S
H285 C301 0.939 . S
H286 C302 0.942 . S
H287 C304 0.940 . S
H288 C305 0.939 . S
H289 C307 0.941 . S
H290 C311 0.939 . S
O291 P280 1.490 . S
H292 C308 0.939 . S
H293 C310 0.940 . S
C294 P280 1.812 . S
C294 C295 1.389 . S
C294 C299 1.391 . S
C295 H281 0.941 . S
C295 C294 1.389 . S
C295 C296 1.397 . S
C296 H282 0.939 . S
C296 C295 1.397 . S
C296 C297 1.378 . S
C297 C296 1.378 . S
C297 C298 1.378 . S
C298 H283 0.940 . S
C298 C297 1.378 . S
C298 C299 1.396 . S
C299 H284 0.940 . S
C299 C294 1.391 . S
C299 C298 1.396 . S
C300 P280 1.803 . S
C300 C301 1.378 . S
C300 C305 1.400 . S
C301 H285 0.939 . S
C301 C300 1.378 . S
C301 C302 1.361 . S
C302 H286 0.942 . S
C302 C301 1.361 . S
C302 C303 1.369 . S
C303 C302 1.369 . S
C303 C304 1.404 . S
C304 H287 0.940 . S
C304 C303 1.404 . S
C304 C305 1.389 . S
C305 H288 0.939 . S
C305 C300 1.400 . S
C305 C304 1.389 . S
C306 P280 1.819 . S
C306 C307 1.391 . S
C306 C311 1.391 . S
C307 H289 0.941 . S
C307 C306 1.391 . S
C307 C308 1.396 . S
C308 H292 0.939 . S
C308 C307 1.396 . S
C308 C309 1.397 . S
C309 C308 1.397 . S
C309 C310 1.385 . S
C310 H293 0.940 . S
C310 C309 1.385 . S
C310 C311 1.388 . S
C311 H290 0.939 . S
C311 C306 1.391 . S
C311 C310 1.388 . S
H312 C318 0.930 . S
H313 C321 0.930 . S
H314 C322 0.930 . S
H315 C323 0.930 . S
H316 C326 0.930 . S
H317 C327 0.930 . S
C318 H312 0.930 . S
C318 C319 1.355 . S
C318 C320 1.415 . S
C319 C318 1.355 . S
C319 C321 1.419 . S
C320 C318 1.415 . S
C320 C325 1.425 . S
C320 C327 1.409 . S
C321 H313 0.930 . S
C321 C319 1.419 . S
C321 C322 1.362 . S
C322 H314 0.930 . S
C322 C321 1.362 . S
C322 C325 1.409 . S
C323 H315 0.930 . S
C323 C324 1.355 . S
C323 C325 1.415 . S
C324 C323 1.355 . S
C324 C326 1.419 . S
C325 C320 1.425 . S
C325 C322 1.409 . S
C325 C323 1.415 . S
C326 H316 0.930 . S
C326 C324 1.419 . S
C326 C327 1.362 . S
C327 H317 0.930 . S
C327 C320 1.409 . S
C327 C326 1.362 . S
H328 C334 0.930 . S
H329 C337 0.930 . S
H330 C338 0.930 . S
H331 C339 0.930 . S
H332 C342 0.930 . S
H333 C343 0.930 . S
C334 H328 0.930 . S
C334 C335 1.355 . S
C334 C336 1.415 . S
C335 C334 1.355 . S
C335 C337 1.419 . S
C336 C334 1.415 . S
C336 C341 1.425 . S
C336 C343 1.409 . S
C337 H329 0.930 . S
C337 C335 1.419 . S
C337 C338 1.362 . S
C338 H330 0.930 . S
C338 C337 1.362 . S
C338 C341 1.409 . S
C339 H331 0.930 . S
C339 C340 1.355 . S
C339 C341 1.415 . S
C340 C339 1.355 . S
C340 C342 1.419 . S
C341 C336 1.425 . S
C341 C338 1.409 . S
C341 C339 1.415 . S
C342 H332 0.930 . S
C342 C340 1.419 . S
C342 C343 1.362 . S
C343 H333 0.930 . S
C343 C336 1.409 . S
C343 C342 1.362 . S
H344 C350 0.930 . S
H345 C353 0.930 . S
H346 C354 0.930 . S
H347 C355 0.930 . S
H348 C358 0.930 . S
H349 C359 0.930 . S
C350 H344 0.930 . S
C350 C351 1.355 . S
C350 C352 1.415 . S
C351 C350 1.355 . S
C351 C353 1.419 . S
C352 C350 1.415 . S
C352 C357 1.425 . S
C352 C359 1.409 . S
C353 H345 0.930 . S
C353 C351 1.419 . S
C353 C354 1.362 . S
C354 H346 0.930 . S
C354 C353 1.362 . S
C354 C357 1.409 . S
C355 H347 0.930 . S
C355 C356 1.355 . S
C355 C357 1.415 . S
C356 C355 1.355 . S
C356 C358 1.419 . S
C357 C352 1.425 . S
C357 C354 1.409 . S
C357 C355 1.415 . S
C358 H348 0.930 . S
C358 C356 1.419 . S
C358 C359 1.362 . S
C359 H349 0.930 . S
C359 C352 1.409 . S
C359 C358 1.362 . S
H360 C366 0.930 . S
H361 C369 0.930 . S
H362 C370 0.930 . S
H363 C371 0.930 . S
H364 C374 0.930 . S
H365 C375 0.930 . S
C366 H360 0.930 . S
C366 C367 1.355 . S
C366 C368 1.415 . S
C367 C366 1.355 . S
C367 C369 1.419 . S
C368 C366 1.415 . S
C368 C373 1.425 . S
C368 C375 1.409 . S
C369 H361 0.930 . S
C369 C367 1.419 . S
C369 C370 1.362 . S
C370 H362 0.930 . S
C370 C369 1.362 . S
C370 C373 1.409 . S
C371 H363 0.930 . S
C371 C372 1.355 . S
C371 C373 1.415 . S
C372 C371 1.355 . S
C372 C374 1.419 . S
C373 C368 1.425 . S
C373 C370 1.409 . S
C373 C371 1.415 . S
C374 H364 0.930 . S
C374 C372 1.419 . S
C374 C375 1.362 . S
C375 H365 0.930 . S
C375 C368 1.409 . S
C375 C374 1.362 . S
H376 C382 0.930 . S
H377 C385 0.930 . S
H378 C386 0.930 . S
H379 C387 0.930 . S
H380 C390 0.930 . S
H381 C391 0.930 . S
C382 H376 0.930 . S
C382 C383 1.355 . S
C382 C384 1.415 . S
C383 C382 1.355 . S
C383 C385 1.419 . S
C384 C382 1.415 . S
C384 C389 1.425 . S
C384 C391 1.409 . S
C385 H377 0.930 . S
C385 C383 1.419 . S
C385 C386 1.362 . S
C386 H378 0.930 . S
C386 C385 1.362 . S
C386 C389 1.409 . S
C387 H379 0.930 . S
C387 C388 1.355 . S
C387 C389 1.415 . S
C388 C387 1.355 . S
C388 C390 1.419 . S
C389 C384 1.425 . S
C389 C386 1.409 . S
C389 C387 1.415 . S
C390 H380 0.930 . S
C390 C388 1.419 . S
C390 C391 1.362 . S
C391 H381 0.930 . S
C391 C384 1.409 . S
C391 C390 1.362 . S
H392 C398 0.930 . S
H393 C401 0.930 . S
H394 C402 0.930 . S
H395 C403 0.930 . S
H396 C406 0.930 . S
H397 C407 0.930 . S
C398 H392 0.930 . S
C398 C399 1.355 . S
C398 C400 1.415 . S
C399 C398 1.355 . S
C399 C401 1.419 . S
C400 C398 1.415 . S
C400 C405 1.425 . S
C400 C407 1.409 . S
C401 H393 0.930 . S
C401 C399 1.419 . S
C401 C402 1.362 . S
C402 H394 0.930 . S
C402 C401 1.362 . S
C402 C405 1.409 . S
C403 H395 0.930 . S
C403 C404 1.355 . S
C403 C405 1.415 . S
C404 C403 1.355 . S
C404 C406 1.419 . S
C405 C400 1.425 . S
C405 C402 1.409 . S
C405 C403 1.415 . S
C406 H396 0.930 . S
C406 C404 1.419 . S
C406 C407 1.362 . S
C407 H397 0.930 . S
C407 C400 1.409 . S
C407 C406 1.362 . S
H408 C414 0.930 . S
H409 C417 0.930 . S
H410 C418 0.930 . S
H411 C419 0.930 . S
H412 C422 0.930 . S
H413 C423 0.930 . S
C414 H408 0.930 . S
C414 C415 1.355 . S
C414 C416 1.415 . S
C415 C414 1.355 . S
C415 C417 1.419 . S
C416 C414 1.415 . S
C416 C421 1.425 . S
C416 C423 1.409 . S
C417 H409 0.930 . S
C417 C415 1.419 . S
C417 C418 1.362 . S
C418 H410 0.930 . S
C418 C417 1.362 . S
C418 C421 1.409 . S
C419 H411 0.930 . S
C419 C420 1.355 . S
C419 C421 1.415 . S
C420 C419 1.355 . S
C420 C422 1.419 . S
C421 C416 1.425 . S
C421 C418 1.409 . S
C421 C419 1.415 . S
C422 H412 0.930 . S
C422 C420 1.419 . S
C422 C423 1.362 . S
C423 H413 0.930 . S
C423 C416 1.409 . S
C423 C422 1.362 . S
H424 C430 0.930 . S
H425 C433 0.930 . S
H426 C434 0.930 . S
H427 C435 0.930 . S
H428 C438 0.930 . S
H429 C439 0.930 . S
C430 H424 0.930 . S
C430 C431 1.355 . S
C430 C432 1.415 . S
C431 C430 1.355 . S
C431 C433 1.419 . S
C432 C430 1.415 . S
C432 C437 1.425 . S
C432 C439 1.409 . S
C433 H425 0.930 . S
C433 C431 1.419 . S
C433 C434 1.362 . S
C434 H426 0.930 . S
C434 C433 1.362 . S
C434 C437 1.409 . S
C435 H427 0.930 . S
C435 C436 1.355 . S
C435 C437 1.415 . S
C436 C435 1.355 . S
C436 C438 1.419 . S
C437 C432 1.425 . S
C437 C434 1.409 . S
C437 C435 1.415 . S
C438 H428 0.930 . S
C438 C436 1.419 . S
C438 C439 1.362 . S
C439 H429 0.930 . S
C439 C432 1.409 . S
C439 C438 1.362 . S
H440 C446 0.930 . S
H441 C449 0.930 . S
H442 C450 0.930 . S
H443 C451 0.930 . S
H444 C454 0.930 . S
H445 C455 0.930 . S
C446 H440 0.930 . S
C446 C447 1.355 . S
C446 C448 1.415 . S
C447 C446 1.355 . S
C447 C449 1.419 . S
C448 C446 1.415 . S
C448 C453 1.425 . S
C448 C455 1.409 . S
C449 H441 0.930 . S
C449 C447 1.419 . S
C449 C450 1.362 . S
C450 H442 0.930 . S
C450 C449 1.362 . S
C450 C453 1.409 . S
C451 H443 0.930 . S
C451 C452 1.355 . S
C451 C453 1.415 . S
C452 C451 1.355 . S
C452 C454 1.419 . S
C453 C448 1.425 . S
C453 C450 1.409 . S
C453 C451 1.415 . S
C454 H444 0.930 . S
C454 C452 1.419 . S
C454 C455 1.362 . S
C455 H445 0.930 . S
C455 C448 1.409 . S
C455 C454 1.362 . S
H456 C462 0.930 . S
H457 C465 0.930 . S
H458 C466 0.930 . S
H459 C467 0.930 . S
H460 C470 0.930 . S
H461 C471 0.930 . S
C462 H456 0.930 . S
C462 C463 1.355 . S
C462 C464 1.415 . S
C463 C462 1.355 . S
C463 C465 1.419 . S
C464 C462 1.415 . S
C464 C469 1.425 . S
C464 C471 1.409 . S
C465 H457 0.930 . S
C465 C463 1.419 . S
C465 C466 1.362 . S
C466 H458 0.930 . S
C466 C465 1.362 . S
C466 C469 1.409 . S
C467 H459 0.930 . S
C467 C468 1.355 . S
C467 C469 1.415 . S
C468 C467 1.355 . S
C468 C470 1.419 . S
C469 C464 1.425 . S
C469 C466 1.409 . S
C469 C467 1.415 . S
C470 H460 0.930 . S
C470 C468 1.419 . S
C470 C471 1.362 . S
C471 H461 0.930 . S
C471 C464 1.409 . S
C471 C470 1.362 . S
H472 C478 0.930 . S
H473 C481 0.930 . S
H474 C482 0.930 . S
H475 C483 0.930 . S
H476 C486 0.930 . S
H477 C487 0.930 . S
C478 H472 0.930 . S
C478 C479 1.355 . S
C478 C480 1.415 . S
C479 C478 1.355 . S
C479 C481 1.419 . S
C480 C478 1.415 . S
C480 C485 1.425 . S
C480 C487 1.409 . S
C481 H473 0.930 . S
C481 C479 1.419 . S
C481 C482 1.362 . S
C482 H474 0.930 . S
C482 C481 1.362 . S
C482 C485 1.409 . S
C483 H475 0.930 . S
C483 C484 1.355 . S
C483 C485 1.415 . S
C484 C483 1.355 . S
C484 C486 1.419 . S
C485 C480 1.425 . S
C485 C482 1.409 . S
C485 C483 1.415 . S
C486 H476 0.930 . S
C486 C484 1.419 . S
C486 C487 1.362 . S
C487 H477 0.930 . S
C487 C480 1.409 . S
C487 C486 1.362 . S
H488 C494 0.930 . S
H489 C497 0.930 . S
H490 C498 0.930 . S
H491 C499 0.930 . S
H492 C502 0.930 . S
H493 C503 0.930 . S
C494 H488 0.930 . S
C494 C495 1.355 . S
C494 C496 1.415 . S
C495 C494 1.355 . S
C495 C497 1.419 . S
C496 C494 1.415 . S
C496 C501 1.425 . S
C496 C503 1.409 . S
C497 H489 0.930 . S
C497 C495 1.419 . S
C497 C498 1.362 . S
C498 H490 0.930 . S
C498 C497 1.362 . S
C498 C501 1.409 . S
C499 H491 0.930 . S
C499 C500 1.355 . S
C499 C501 1.415 . S
C500 C499 1.355 . S
C500 C502 1.419 . S
C501 C496 1.425 . S
C501 C498 1.409 . S
C501 C499 1.415 . S
C502 H492 0.930 . S
C502 C500 1.419 . S
C502 C503 1.362 . S
C503 H493 0.930 . S
C503 C496 1.409 . S
C503 C502 1.362 . S
H504 C510 0.930 1_655 S
H505 C513 0.930 . S
H506 C514 0.930 . S
H507 C515 0.930 . S
H508 C518 0.930 1_556 S
H509 C519 0.930 . S
C510 H504 0.930 1_455 S
C510 C511 1.355 . S
C510 C512 1.415 . S
C511 C510 1.355 . S
C511 C513 1.419 . S
C512 C510 1.415 . S
C512 C517 1.425 . S
C512 C519 1.409 1_455 S
C513 H505 0.930 . S
C513 C511 1.419 . S
C513 C514 1.362 . S
C514 H506 0.930 . S
C514 C513 1.362 . S
C514 C517 1.409 . S
C515 H507 0.930 . S
C515 C516 1.355 1_554 S
C515 C517 1.415 . S
C516 C515 1.355 1_556 S
C516 C518 1.419 1_456 S
C517 C512 1.425 . S
C517 C514 1.409 . S
C517 C515 1.415 . S
C518 H508 0.930 1_554 S
C518 C516 1.419 1_654 S
C518 C519 1.362 . S
C519 H509 0.930 . S
C519 C512 1.409 1_655 S
C519 C518 1.362 . S
H520 C526 0.930 . S
H521 C529 0.930 . S
H522 C530 0.930 . S
H523 C531 0.930 . S
H524 C534 0.930 . S
H525 C535 0.930 . S
C526 H520 0.930 . S
C526 C527 1.355 . S
C526 C528 1.415 . S
C527 C526 1.355 . S
C527 C529 1.419 1_545 S
C528 C526 1.415 . S
C528 C533 1.425 1_545 S
C528 C535 1.409 . S
C529 H521 0.930 . S
C529 C527 1.419 1_565 S
C529 C530 1.362 . S
C530 H522 0.930 . S
C530 C529 1.362 . S
C530 C533 1.409 . S
C531 H523 0.930 . S
C531 C532 1.355 1_565 S
C531 C533 1.415 . S
C532 C531 1.355 1_545 S
C532 C534 1.419 . S
C533 C528 1.425 1_565 S
C533 C530 1.409 . S
C533 C531 1.415 . S
C534 H524 0.930 . S
C534 C532 1.419 . S
C534 C535 1.362 . S
C535 H525 0.930 . S
C535 C528 1.409 . S
C535 C534 1.362 . S
H536 C542 0.930 . S
H537 C545 0.930 . S
H538 C546 0.930 . S
H539 C547 0.930 . S
H540 C550 0.930 . S
H541 C551 0.930 . S
C542 H536 0.930 . S
C542 C543 1.355 . S
C542 C544 1.415 . S
C543 C542 1.355 . S
C543 C545 1.419 . S
C544 C542 1.415 . S
C544 C549 1.425 . S
C544 C551 1.409 . S
C545 H537 0.930 . S
C545 C543 1.419 . S
C545 C546 1.362 . S
C546 H538 0.930 . S
C546 C545 1.362 . S
C546 C549 1.409 . S
C547 H539 0.930 . S
C547 C548 1.355 . S
C547 C549 1.415 . S
C548 C547 1.355 . S
C548 C550 1.419 . S
C549 C544 1.425 . S
C549 C546 1.409 . S
C549 C547 1.415 . S
C550 H540 0.930 . S
C550 C548 1.419 . S
C550 C551 1.362 . S
C551 H541 0.930 . S
C551 C544 1.409 . S
C551 C550 1.362 . S
H552 C558 0.930 . S
H553 C561 0.930 . S
H554 C562 0.930 . S
H555 C563 0.930 . S
H556 C566 0.930 . S
H557 C567 0.930 . S
C558 H552 0.930 . S
C558 C559 1.355 1_565 S
C558 C560 1.415 . S
C559 C558 1.355 1_545 S
C559 C561 1.419 . S
C560 C558 1.415 . S
C560 C565 1.425 1_565 S
C560 C567 1.409 . S
C561 H553 0.930 . S
C561 C559 1.419 . S
C561 C562 1.362 . S
C562 H554 0.930 . S
C562 C561 1.362 . S
C562 C565 1.409 . S
C563 H555 0.930 . S
C563 C564 1.355 1_545 S
C563 C565 1.415 . S
C564 C563 1.355 1_565 S
C564 C566 1.419 . S
C565 C560 1.425 1_545 S
C565 C562 1.409 . S
C565 C563 1.415 . S
C566 H556 0.930 . S
C566 C564 1.419 . S
C566 C567 1.362 . S
C567 H557 0.930 . S
C567 C560 1.409 . S
C567 C566 1.362 . S
H568 C574 0.930 . S
H569 C577 0.930 . S
H570 C578 0.930 . S
H571 C579 0.930 . S
H572 C582 0.930 . S
H573 C583 0.930 . S
C574 H568 0.930 . S
C574 C575 1.355 . S
C574 C576 1.415 . S
C575 C574 1.355 . S
C575 C577 1.419 . S
C576 C574 1.415 . S
C576 C581 1.425 . S
C576 C583 1.409 . S
C577 H569 0.930 . S
C577 C575 1.419 . S
C577 C578 1.362 . S
C578 H570 0.930 . S
C578 C577 1.362 . S
C578 C581 1.409 . S
C579 H571 0.930 . S
C579 C580 1.355 . S
C579 C581 1.415 . S
C580 C579 1.355 . S
C580 C582 1.419 . S
C581 C576 1.425 . S
C581 C578 1.409 . S
C581 C579 1.415 . S
C582 H572 0.930 . S
C582 C580 1.419 . S
C582 C583 1.362 . S
C583 H573 0.930 . S
C583 C576 1.409 . S
C583 C582 1.362 . S
H584 C590 0.930 . S
H585 C593 0.930 . S
H586 C594 0.930 . S
H587 C595 0.930 . S
H588 C598 0.930 . S
H589 C599 0.930 . S
C590 H584 0.930 . S
C590 C591 1.355 . S
C590 C592 1.415 . S
C591 C590 1.355 . S
C591 C593 1.419 1_455 S
C592 C590 1.415 . S
C592 C597 1.425 1_455 S
C592 C599 1.409 . S
C593 H585 0.930 . S
C593 C591 1.419 1_655 S
C593 C594 1.362 . S
C594 H586 0.930 . S
C594 C593 1.362 . S
C594 C597 1.409 . S
C595 H587 0.930 . S
C595 C596 1.355 1_655 S
C595 C597 1.415 . S
C596 C595 1.355 1_455 S
C596 C598 1.419 . S
C597 C592 1.425 1_655 S
C597 C594 1.409 . S
C597 C595 1.415 . S
C598 H588 0.930 . S
C598 C596 1.419 . S
C598 C599 1.362 . S
C599 H589 0.930 . S
C599 C592 1.409 . S
C599 C598 1.362 . S
C319 C6 0.608 . S
C324 C303 0.659 . S
C335 C59 1.925 . S
C340 C239 1.885 . S
C351 C86 1.330 . S
C356 C271 1.294 . S
C367 C15 0.667 . S
C372 C297 0.608 . S
C388 C233 1.895 . S
C383 C50 1.965 . S
C404 C265 1.329 . S
C399 C95 1.327 . S
C415 C46 1.278 . S
C420 C175 1.244 . S
C431 C99 3.092 . S
C436 C207 3.029 . S
C447 C10 1.983 . S
C452 C137 1.927 . S
C468 C169 1.332 . S
C463 C55 1.326 . S
C484 C201 3.018 . S
C479 C90 3.019 . S
C495 C19 1.896 . S
C500 C143 1.899 . S
C516 C213 1.761 . S
C511 C18 1.716 . S
C527 C49 1.318 . S
C532 C149 1.343 . S
C543 C98 1.458 . S
C548 C181 1.498 . S
C564 C277 1.471 1_565 S
C559 C58 1.445 . S
C580 C309 1.064 1_556 S
C575 C89 1.038 . S
C591 C9 1.301 . S
C596 C245 1.332 . S
