# Generated by pormake.
# Topology anh, (6,3)-cn, num edge types: 1
# Building blocks:
#     Node 0, Type 0, BuildingBlock: BETDIP_clean_sbu_0, # of connection points: 6
#     Node 1, Type 0, BuildingBlock: BETDIP_clean_sbu_0, # of connection points: 6
#     Node 2, Type 0, BuildingBlock: BETDIP_clean_sbu_0, # of connection points: 6
#     Node 3, Type 1, BuildingBlock: VETTIZ_charged_linker_0, # of connection points: 3
#     Node 4, Type 1, BuildingBlock: VETTIZ_charged_linker_0, # of connection points: 3
#     Node 5, Type 1, BuildingBlock: VETTIZ_charged_linker_0, # of connection points: 3
#     Node 6, Type 1, BuildingBlock: VETTIZ_charged_linker_0, # of connection points: 3
#     Node 7, Type 1, BuildingBlock: VETTIZ_charged_linker_0, # of connection points: 3
#     Node 8, Type 1, BuildingBlock: VETTIZ_charged_linker_0, # of connection points: 3
#     Edge 9, Type (0, 1), BuildingBlock: EZIPEK_clean_linker_0, # of connection points: 2
#     Edge 10, Type (0, 1), BuildingBlock: EZIPEK_clean_linker_0, # of connection points: 2
#     Edge 11, Type (0, 1), BuildingBlock: EZIPEK_clean_linker_0, # of connection points: 2
#     Edge 12, Type (0, 1), BuildingBlock: EZIPEK_clean_linker_0, # of connection points: 2
#     Edge 13, Type (0, 1), BuildingBlock: EZIPEK_clean_linker_0, # of connection points: 2
#     Edge 14, Type (0, 1), BuildingBlock: EZIPEK_clean_linker_0, # of connection points: 2
#     Edge 15, Type (0, 1), BuildingBlock: EZIPEK_clean_linker_0, # of connection points: 2
#     Edge 16, Type (0, 1), BuildingBlock: EZIPEK_clean_linker_0, # of connection points: 2
#     Edge 17, Type (0, 1), BuildingBlock: EZIPEK_clean_linker_0, # of connection points: 2
#     Edge 18, Type (0, 1), BuildingBlock: EZIPEK_clean_linker_0, # of connection points: 2
#     Edge 19, Type (0, 1), BuildingBlock: EZIPEK_clean_linker_0, # of connection points: 2
#     Edge 20, Type (0, 1), BuildingBlock: EZIPEK_clean_linker_0, # of connection points: 2
#     Edge 21, Type (0, 1), BuildingBlock: EZIPEK_clean_linker_0, # of connection points: 2
#     Edge 22, Type (0, 1), BuildingBlock: EZIPEK_clean_linker_0, # of connection points: 2
#     Edge 23, Type (0, 1), BuildingBlock: EZIPEK_clean_linker_0, # of connection points: 2
#     Edge 24, Type (0, 1), BuildingBlock: EZIPEK_clean_linker_0, # of connection points: 2
#     Edge 25, Type (0, 1), BuildingBlock: EZIPEK_clean_linker_0, # of connection points: 2
#     Edge 26, Type (0, 1), BuildingBlock: EZIPEK_clean_linker_0, # of connection points: 2
# Relax obj value: 0.311
# Max RMSD: 0.194
# Mean RMSD: 0.166
data_MOF--net-anh--node1-BETDIP_clean_sbu_0--node2-VETTIZ_charged_linker_0--edge1-EZIPEK_clean_linker_0
_symmetry_space_group_name_H-M    P1
_symmetry_Int_Tables_number       1
_symmetry_cell_setting            triclinic
loop_
_symmetry_equiv_pos_as_xyz
'x, y, z'
_cell_length_a     28.838438
_cell_length_b     28.893052
_cell_length_c     52.176053
_cell_angle_alpha  89.954313
_cell_angle_beta   90.231275
_cell_angle_gamma 119.65234
loop_
_atom_site_label
_atom_site_type_symbol
_atom_site_fract_x
_atom_site_fract_y
_atom_site_fract_z
_atom_type_partial_charge
Tb0 Tb 0.14308 0.61677 0.16217 0.0
Tb1 Tb 1.09052 0.50664 0.17213 0.0
C2 C 0.17752 0.71481 0.16533 0.0
C3 C 0.21636 0.77076 0.15989 0.0
C4 C 0.24495 0.80379 0.18052 0.0
C5 C 0.26778 0.85877 0.17838 0.0
C6 C 0.2623 0.8814 0.15563 0.0
C7 C 0.23851 0.84918 0.13411 0.0
C8 C 0.21537 0.79391 0.13625 0.0
C9 C 0.12796 0.55993 0.12015 0.0
C10 C 0.2187 0.56269 0.1616 0.0
C11 C 1.02369 0.40938 0.17624 0.0
C12 C 0.96623 0.3864 0.18118 0.0
C13 C 0.92823 0.35046 0.16373 0.0
C14 C 0.8743 0.33556 0.1664 0.0
C15 C 0.85838 0.35713 0.18634 0.0
C16 C 0.89593 0.39148 0.20416 0.0
C17 C 0.94929 0.40601 0.20166 0.0
C18 C 0.13022 0.564 0.21468 0.0
C19 C 1.01406 0.56107 0.16353 0.0
O20 O 0.18891 0.68839 0.18235 0.0
O21 O 0.14728 0.68506 0.14658 0.0
O22 O 1.09613 0.54947 0.13843 0.0
O23 O 0.17007 0.60561 0.12457 0.0
O24 O 0.21669 0.6076 0.16548 0.0
O25 O 0.17153 0.51719 0.16061 0.0
O26 O 1.04005 0.43305 0.15419 0.0
O27 O 1.05518 0.43787 0.1948 0.0
O28 O 1.10605 0.57286 0.19662 0.0
O29 O 0.1354 0.52385 0.20796 0.0
O30 O 1.01689 0.51761 0.17029 0.0
O31 O 1.06022 0.60534 0.15932 0.0
H32 H 0.24584 0.78704 0.19898 0.0
H33 H 0.28652 0.88345 0.19508 0.0
H34 H 0.23443 0.8664 0.11638 0.0
H35 H 0.19328 0.76938 0.12005 0.0
H36 H 0.9405 0.33532 0.14769 0.0
H37 H 0.84531 0.30831 0.15272 0.0
H38 H 0.88392 0.4077 0.21987 0.0
H39 H 0.97742 0.43422 0.21533 0.0
Tb40 Tb 0.63149 1.06827 0.49604 0.0
Tb41 Tb 0.57318 0.12423 0.50122 0.0
C42 C 0.67433 1.01316 0.50389 0.0
C43 C 0.69971 0.98064 0.50825 0.0
C44 C 0.70731 0.9683 0.53337 0.0
C45 C 0.73973 0.94601 0.53798 0.0
C46 C 0.76463 0.93563 0.51753 0.0
C47 C 0.75493 0.94524 0.49231 0.0
C48 C 0.72273 0.96786 0.48769 0.0
C49 C 0.60554 0.09396 0.45217 0.0
C50 C 0.49832 0.99541 0.49782 0.0
C51 C 0.5415 0.189 0.49189 0.0
C52 C 0.57367 0.24746 0.4901 0.0
C53 C 0.57945 0.27275 0.46631 0.0
C54 C 0.61904 0.32591 0.46295 0.0
C55 C 0.65319 0.35396 0.48336 0.0
C56 C 0.64527 0.32985 0.50745 0.0
C57 C 0.60596 0.27708 0.51083 0.0
C58 C 0.59884 0.10026 0.5461 0.0
C59 C 0.7058 0.1961 0.49517 0.0
O60 O 0.64707 1.02134 0.52165 0.0
O61 O 0.67536 1.0342 0.48156 0.0
O62 O 0.57713 0.07677 0.47187 0.0
O63 O 0.64991 0.09394 0.456 0.0
O64 O 0.54595 0.99702 0.49745 0.0
O65 O 0.49975 1.04251 0.49886 0.0
O66 O 0.55143 0.16347 0.47399 0.0
O67 O 0.5379 0.16802 0.51458 0.0
O68 O 0.62826 0.1165 0.52635 0.0
O69 O 0.55423 0.09917 0.54102 0.0
O70 O 0.65821 0.19428 0.49469 0.0
O71 O 0.7047 0.14963 0.49813 0.0
H72 H 0.69026 0.97805 0.54953 0.0
H73 H 0.7466 0.93817 0.55753 0.0
H74 H 0.77354 0.93674 0.47638 0.0
H75 H 0.71747 0.97709 0.46813 0.0
H76 H 0.55526 0.25058 0.45001 0.0
H77 H 0.62445 0.34441 0.44432 0.0
H78 H 0.67107 0.35138 0.52345 0.0
H79 H 0.60296 0.2589 0.52936 0.0
Tb80 Tb 0.62946 0.59011 0.82256 0.0
Tb81 Tb 0.73777 0.63912 0.83661 0.0
C82 C 0.52923 0.53634 0.82043 0.0
C83 C 0.4845 0.48715 0.83031 0.0
C84 C 0.48977 0.46244 0.85246 0.0
C85 C 0.44421 0.42376 0.86503 0.0
C86 C 0.3934 0.41017 0.85553 0.0
C87 C 0.38859 0.43134 0.83214 0.0
C88 C 0.43396 0.46963 0.81958 0.0
C89 C 0.6943 0.62297 0.78262 0.0
C90 C 0.68592 0.7181 0.82563 0.0
C91 C 0.8377 0.68718 0.8373 0.0
C92 C 0.87282 0.66543 0.83032 0.0
C93 C 0.88025 0.65666 0.80443 0.0
C94 C 0.90171 0.62412 0.79809 0.0
C95 C 0.9154 0.59962 0.81757 0.0
C96 C 0.91235 0.61194 0.84326 0.0
C97 C 0.8916 0.64488 0.8496 0.0
C98 C 0.67512 0.60082 0.87725 0.0
C99 C 0.68191 0.51221 0.82821 0.0
O100 O 0.56038 0.5319 0.80376 0.0
O101 O 0.55578 0.57338 0.83747 0.0
O102 O 0.69835 0.60054 0.80244 0.0
O103 O 0.65078 0.62541 0.78414 0.0
O104 O 0.64075 0.67288 0.8209 0.0
O105 O 0.72858 0.71343 0.83238 0.0
O106 O 0.80982 0.69153 0.81862 0.0
O107 O 0.80866 0.66657 0.85777 0.0
O108 O 0.66844 0.62513 0.85847 0.0
O109 O 0.71847 0.59915 0.87354 0.0
O110 O 0.72807 0.55819 0.82758 0.0
O111 O 0.63752 0.51624 0.82989 0.0
H112 H 0.52864 0.47569 0.86094 0.0
H113 H 0.44842 0.40803 0.8832 0.0
H114 H 0.34959 0.42134 0.82468 0.0
H115 H 0.42933 0.48836 0.8025 0.0
H116 H 0.86664 0.67229 0.78909 0.0
H117 H 0.90477 0.61563 0.77815 0.0
H118 H 0.92369 0.59395 0.8585 0.0
H119 H 0.887 0.65135 0.86966 0.0
C120 C 0.61484 0.31636 0.20947 0.0
C121 C 0.66542 0.34399 0.2208 0.0
C122 C 0.6702 0.36106 0.24648 0.0
C123 C 0.57519 0.3058 0.25126 0.0
C124 C 0.56983 0.29761 0.22511 0.0
C125 C 0.51346 0.25916 0.21739 0.0
H126 H 0.33352 1.02543 0.22633 0.0
C127 C 0.52587 0.26548 0.26353 0.0
C128 C 0.48784 0.24092 0.24384 0.0
H129 H 0.33427 0.14283 0.17457 0.0
H130 H 0.38818 0.21357 0.20617 0.0
H131 H 0.4479 0.07769 0.24105 0.0
H132 H 0.3259 0.09478 0.28019 0.0
H133 H 0.36787 0.09075 0.30357 0.0
H134 H 0.33061 1.03522 0.28218 0.0
H135 H 0.39855 1.02581 0.26074 0.0
H136 H 0.45991 0.07813 0.27404 0.0
C137 C 0.5123 0.21304 0.20167 0.0
C138 C 0.49128 0.28958 0.20183 0.0
C139 C 0.54814 0.19274 0.34916 0.0
C140 C 0.52612 0.14025 0.35841 0.0
C141 C 0.48458 0.09865 0.34429 0.0
C142 C 0.46402 0.10926 0.3221 0.0
C143 C 0.48771 0.16158 0.31272 0.0
C144 C 0.53044 0.20199 0.32562 0.0
C145 C 0.55786 0.2524 0.30997 0.0
C146 C 0.52052 0.23701 0.28675 0.0
C147 C 0.47915 0.18394 0.28894 0.0
C148 C 0.61481 0.26284 0.30324 0.0
C149 C 0.55848 0.29845 0.32514 0.0
C150 C 0.34537 1.06635 0.22167 0.0
C151 C 0.33274 0.07963 0.19769 0.0
C152 C 0.34614 0.13266 0.19248 0.0
C153 C 0.37831 0.17307 0.20981 0.0
C154 C 0.39804 0.15949 0.23134 0.0
C155 C 0.37761 0.10733 0.23854 0.0
C156 C 0.39994 0.10274 0.26398 0.0
C157 C 0.43983 0.16104 0.26944 0.0
C158 C 0.44074 0.19276 0.24899 0.0
C159 C 0.42781 1.0691 0.26002 0.0
C160 C 0.35389 0.07933 0.28363 0.0
H161 H 0.62869 0.35516 0.2814 0.0
H162 H 0.61097 0.30458 0.18955 0.0
H163 H 0.52344 0.32379 0.19126 0.0
H164 H 0.47153 0.3055 0.2145 0.0
H165 H 0.46284 0.26411 0.18681 0.0
H166 H 0.53045 0.19312 0.21279 0.0
H167 H 0.53421 0.22766 0.18335 0.0
H168 H 0.4714 0.18258 0.19623 0.0
H169 H 0.5809 0.22543 0.35921 0.0
H170 H 0.46776 1.05771 0.35053 0.0
H171 H 0.43192 0.07591 0.31253 0.0
H172 H 0.62794 0.23996 0.31547 0.0
H173 H 0.64572 0.30496 0.3063 0.0
H174 H 0.61678 0.25098 0.28322 0.0
H175 H 0.51797 0.28659 0.33251 0.0
H176 H 0.57087 0.33403 0.31296 0.0
H177 H 0.5863 0.30987 0.34173 0.0
H178 H 0.7092 0.38409 0.25526 0.0
C179 C 0.62453 0.34275 0.26174 0.0
C180 C 0.91401 0.82464 0.53979 0.0
C181 C 0.90378 0.86035 0.55338 0.0
C182 C 0.91272 0.86614 0.57994 0.0
C183 C 0.92083 0.78698 0.58007 0.0
C184 C 0.92154 0.7873 0.55363 0.0
C185 C 0.91956 0.7382 0.5428 0.0
H186 H 0.79914 0.48323 0.54864 0.0
C187 C 0.91155 0.73463 0.58885 0.0
C188 C 0.91428 0.70694 0.56736 0.0
H189 H 0.88514 0.58846 0.48609 0.0
H190 H 0.9388 0.65822 0.51653 0.0
H191 H 0.91409 0.54591 0.59113 0.0
H192 H 0.76949 0.55488 0.58001 0.0
H193 H 0.77838 0.54083 0.61227 0.0
H194 H 0.76872 0.49389 0.58808 0.0
H195 H 0.85048 0.49393 0.60201 0.0
H196 H 0.88981 0.55342 0.6208 0.0
C197 C 0.97254 0.75504 0.52838 0.0
C198 C 0.86903 0.70996 0.52551 0.0
C199 C 0.81805 0.66978 0.67405 0.0
C200 C 0.79825 0.62197 0.6877 0.0
C201 C 0.80503 0.58052 0.67743 0.0
C202 C 0.8291 0.58621 0.65328 0.0
C203 C 0.8467 0.63383 0.63941 0.0
C204 C 0.84304 0.67525 0.65048 0.0
C205 C 0.86844 0.72487 0.63463 0.0
C206 C 0.8884 0.70667 0.61192 0.0
C207 C 0.87306 0.65238 0.61415 0.0
C208 C 0.91473 0.76979 0.65028 0.0
C209 C 0.82345 0.73702 0.62708 0.0
C210 C 0.83027 0.52132 0.54171 0.0
C211 C 0.83699 0.53126 0.51512 0.0
C212 C 0.87878 0.58015 0.50641 0.0
C213 C 0.90853 0.62096 0.52391 0.0
C214 C 0.89257 0.61393 0.54964 0.0
C215 C 0.85815 0.56378 0.55882 0.0
C216 C 0.84899 0.5647 0.5873 0.0
C217 C 0.87717 0.6246 0.59247 0.0
C218 C 0.90085 0.65278 0.56979 0.0
C219 C 0.87688 0.53782 0.6012 0.0
C220 C 0.78823 0.53717 0.59232 0.0
H221 H 0.92585 0.83384 0.61379 0.0
H222 H 0.90848 0.82109 0.51921 0.0
H223 H 0.83327 0.70482 0.53599 0.0
H224 H 0.85955 0.67017 0.51899 0.0
H225 H 0.87361 0.73343 0.5079 0.0
H226 H 1.00131 0.79843 0.53004 0.0
H227 H 0.96548 0.74626 0.50755 0.0
H228 H 0.99368 0.73477 0.53624 0.0
H229 H 0.81478 0.70279 0.68186 0.0
H230 H 0.79114 0.5437 0.68796 0.0
H231 H 0.83267 0.55335 0.6461 0.0
H232 H 0.92608 0.75418 0.66726 0.0
H233 H 0.90369 0.79923 0.65746 0.0
H234 H 0.95185 0.79082 0.63886 0.0
H235 H 0.78954 0.70152 0.61798 0.0
H236 H 0.83567 0.76985 0.61341 0.0
H237 H 0.80803 0.7477 0.64423 0.0
H238 H 0.90621 0.89464 0.59054 0.0
C239 C 0.92277 0.83011 0.59337 0.0
C240 C 0.15218 0.31977 0.88615 0.0
C241 C 0.18892 0.31852 0.90344 0.0
C242 C 0.17771 0.31311 0.9298 0.0
C243 C 1.10273 0.32687 0.92183 0.0
C244 C 0.10937 0.32438 0.89575 0.0
C245 C 1.07346 0.33812 0.88043 0.0
H246 H 0.9392 0.47197 0.87534 0.0
C247 C 1.06553 0.34734 0.92578 0.0
C248 C 1.04691 0.35258 0.90166 0.0
H249 H 0.97956 0.40108 0.81281 0.0
H250 H 1.00679 0.35501 0.84307 0.0
H251 H 0.89018 0.36688 0.91468 0.0
H252 H 1.04381 0.50763 0.90548 0.0
H253 H 1.02865 0.49918 0.93828 0.0
H254 H 0.98611 0.50967 0.91679 0.0
H255 H 0.90283 0.43114 0.92535 0.0
H256 H 0.91703 0.38872 0.9455 0.0
C257 C 1.03274 0.28775 0.8656 0.0
C258 C 0.10913 0.38659 0.86314 0.0
C259 C 1.07428 0.43489 0.01089 0.0
C260 C 1.05177 0.46503 0.01998 0.0
C261 C 1.01381 0.46971 0.00478 0.0
C262 C 1.00088 0.44708 0.98017 0.0
C263 C 1.02613 0.41949 0.97078 0.0
C264 C 1.06046 0.41204 0.98652 0.0
C265 C 1.08061 0.3784 0.97429 0.0
C266 C 1.05598 0.37034 0.94773 0.0
C267 C 1.02445 0.3948 0.94571 0.0
C268 C 1.05655 0.32506 0.98912 0.0
C269 C 0.14281 0.41017 0.97402 0.0
C270 C 0.95269 0.44533 0.86834 0.0
C271 C 0.95771 0.43991 0.84196 0.0
C272 C 0.97552 0.40545 0.83316 0.0
C273 C 0.99163 0.37932 0.85074 0.0
C274 C 0.99151 0.38943 0.87714 0.0
C275 C 0.97021 0.42023 0.88559 0.0
C276 C 0.97525 0.4286 0.91413 0.0
C277 C 1.00377 0.39822 0.92146 0.0
C278 C 1.01395 0.37614 0.89965 0.0
C279 C 0.91853 0.40295 0.92568 0.0
C280 C 1.00994 0.4893 0.91918 0.0
H281 H 0.12966 0.3165 0.95947 0.0
H282 H 0.16056 0.32403 0.8658 0.0
H283 H 0.1453 0.41601 0.8738 0.0
H284 H 1.08975 0.40915 0.8567 0.0
H285 H 0.12255 0.37398 0.84591 0.0
H286 H 1.02446 0.25076 0.87595 0.0
H287 H 1.04781 0.28603 0.84627 0.0
H288 H 0.99332 0.28526 0.86369 0.0
H289 H 1.10247 0.42953 0.02254 0.0
H290 H 0.99504 0.49169 0.01183 0.0
H291 H 0.97261 0.45281 0.96916 0.0
H292 H 1.01435 0.3112 0.99444 0.0
H293 H 1.07915 0.32953 0.00711 0.0
H294 H 1.05519 0.29236 0.97757 0.0
H295 H 0.15931 0.45208 0.98051 0.0
H296 H 0.15925 0.41358 0.95452 0.0
H297 H 0.16011 0.39184 0.98681 0.0
H298 H 0.20575 0.31188 0.94329 0.0
C299 C 0.13428 0.31693 0.93912 0.0
C300 C 0.96205 0.45055 0.48915 0.0
C301 C 0.91748 0.40659 0.47517 0.0
C302 C 0.92103 0.41266 0.4483 0.0
C303 C 1.0072 0.49716 0.44922 0.0
C304 C 1.00636 0.49597 0.47567 0.0
C305 C 1.05781 0.54799 0.48538 0.0
H306 H 0.29575 0.78781 0.44313 0.0
C307 C 1.05714 0.54614 0.43961 0.0
C308 C 1.08875 0.57854 0.46054 0.0
H309 H 0.2594 0.75246 0.5229 0.0
H310 H 0.17642 0.66793 0.51119 0.0
H311 H 0.27053 0.67421 0.4281 0.0
H312 H 0.18117 0.75627 0.42525 0.0
H313 H 0.16484 0.71952 0.39673 0.0
H314 H 0.23341 0.76904 0.40301 0.0
H315 H 0.2816 0.72297 0.40408 0.0
H316 H 0.23473 0.65313 0.39935 0.0
C317 C 1.09253 0.53266 0.50169 0.0
C318 C 1.04104 0.58239 0.50089 0.0
C319 C 1.0865 0.55961 0.34204 0.0
C320 C 0.12642 0.59792 0.32598 0.0
C321 C 0.16753 0.64433 0.33741 0.0
C322 C 0.16987 0.65196 0.36409 0.0
C323 C 0.13045 0.613 0.38011 0.0
C324 C 1.08925 0.56821 0.36887 0.0
C325 C 1.04979 0.53221 0.38864 0.0
C326 C 1.07505 0.56143 0.4138 0.0
C327 C 0.12245 0.60881 0.40866 0.0
C328 C 1.0479 0.47767 0.38712 0.0
C329 C 0.99584 0.53026 0.38307 0.0
C330 C 0.27083 0.76278 0.45851 0.0
C331 C 0.28672 0.77946 0.48407 0.0
C332 C 0.25042 0.74276 0.50281 0.0
C333 C 0.20175 0.69331 0.49606 0.0
C334 C 0.1871 0.67797 0.47 0.0
C335 C 0.22312 0.71394 0.45221 0.0
C336 C 0.20613 0.69497 0.42547 0.0
C337 C 0.15434 0.6426 0.42908 0.0
C338 C 0.13991 0.6296 0.45536 0.0
C339 C 0.25039 0.68612 0.41338 0.0
C340 C 0.19617 0.73702 0.41167 0.0
H341 H 0.96165 0.45419 0.41532 0.0
H342 H 0.96284 0.44937 0.50985 0.0
H343 H 1.01553 0.59297 0.48903 0.0
H344 H 1.0766 0.61985 0.50726 0.0
H345 H 1.01798 0.56054 0.5181 0.0
H346 H 1.10409 0.50737 0.4904 0.0
H347 H 1.07045 0.51002 0.51894 0.0
H348 H 0.12953 0.56878 0.50804 0.0
H349 H 1.054 0.52365 0.33389 0.0
H350 H 0.19851 0.67458 0.32558 0.0
H351 H 0.20288 0.68815 0.37111 0.0
H352 H 1.08828 0.4832 0.38333 0.0
H353 H 1.02109 0.45272 0.37141 0.0
H354 H 1.0354 0.45498 0.4052 0.0
H355 H 1.0016 0.5662 0.3725 0.0
H356 H 0.97489 0.53025 0.40082 0.0
H357 H 0.96899 0.495 0.37126 0.0
H358 H 0.88968 0.38264 0.43641 0.0
C359 C 0.96396 0.45568 0.43574 0.0
C360 C 0.68375 0.97235 0.81856 0.0
C361 C 0.68151 0.92698 0.80471 0.0
C362 C 0.67561 0.92834 0.778 0.0
C363 C 0.67451 1.01354 0.77873 0.0
C364 C 0.68026 1.01551 0.80506 0.0
C365 C 0.68176 1.0681 0.81468 0.0
H366 H 0.67691 0.3053 0.77275 0.0
C367 C 0.67212 1.06202 0.76914 0.0
C368 C 0.67642 0.09621 0.78992 0.0
H369 H 0.68225 0.27065 0.85246 0.0
H370 H 0.68202 0.18677 0.8405 0.0
H371 H 0.75733 0.27063 0.75234 0.0
H372 H 0.58735 0.19248 0.75988 0.0
H373 H 0.59766 0.16842 0.73097 0.0
H374 H 0.62186 0.23889 0.73463 0.0
H375 H 0.71564 0.28455 0.73186 0.0
H376 H 0.73216 0.23358 0.7241 0.0
C377 C 0.73501 0.10413 0.82827 0.0
C378 C 0.63468 1.05372 0.83274 0.0
C379 C 0.64903 0.0719 0.67191 0.0
C380 C 0.64493 0.10912 0.65588 0.0
C381 C 0.64894 0.15519 0.66719 0.0
C382 C 0.65631 0.16397 0.69376 0.0
C383 C 0.65953 0.1262 0.70977 0.0
C384 C 0.65607 0.08124 0.69865 0.0
C385 C 0.66057 1.04565 0.71846 0.0
C386 C 0.66664 0.07605 0.74343 0.0
C387 C 0.66609 0.12337 0.73823 0.0
C388 C 0.71158 1.04245 0.71228 0.0
C389 C 0.60765 0.99155 0.71778 0.0
C390 C 0.67829 0.28072 0.78809 0.0
C391 C 0.68003 0.2976 0.81371 0.0
C392 C 0.68138 0.26125 0.83233 0.0
C393 C 0.68103 0.21197 0.82544 0.0
C394 C 0.67863 0.19621 0.79937 0.0
C395 C 0.67695 0.23171 0.78167 0.0
C396 C 0.67135 0.21123 0.75496 0.0
C397 C 0.67079 0.15861 0.75853 0.0
C398 C 0.67555 0.14702 0.78472 0.0
C399 C 0.72129 0.252 0.73981 0.0
C400 C 0.61712 0.20255 0.74431 0.0
H401 H 0.66756 0.96546 0.74505 0.0
H402 H 0.68842 0.97435 0.83918 0.0
H403 H 0.59629 1.02727 0.82283 0.0
H404 H 0.63411 0.09009 0.83909 0.0
H405 H 0.63753 1.03262 0.84997 0.0
H406 H 0.76891 0.11401 0.81513 0.0
H407 H 0.73962 0.08391 0.84542 0.0
H408 H 0.73721 0.14192 0.83449 0.0
H409 H 0.64645 1.03619 0.66382 0.0
H410 H 0.64621 0.18457 0.65534 0.0
H411 H 0.65909 0.20014 0.70071 0.0
H412 H 0.74224 0.07933 0.70267 0.0
H413 H 0.70249 1.00849 0.69932 0.0
H414 H 0.73199 1.03942 0.72967 0.0
H415 H 0.57323 0.99716 0.71268 0.0
H416 H 0.59689 0.97151 0.73662 0.0
H417 H 0.6093 0.96415 0.70336 0.0
H418 H 0.67367 0.89631 0.76641 0.0
C419 C 0.67211 0.96972 0.76538 0.0
C420 C 0.76205 0.56781 0.15186 0.0
C421 C 0.80303 0.5603 0.13876 0.0
C422 C 0.79231 0.54755 0.11251 0.0
C423 C 0.71187 0.55729 0.11175 0.0
C424 C 0.71571 0.56446 0.13796 0.0
C425 C 0.66476 0.56696 0.14693 0.0
H426 H 0.42797 0.57089 0.10253 0.0
C427 C 0.66417 0.56017 0.10131 0.0
C428 C 0.63325 0.56388 0.1217 0.0
H429 H 0.45832 0.55952 0.18236 0.0
H430 H 0.54318 0.56129 0.17108 0.0
H431 H 0.54642 0.65722 0.08873 0.0
H432 H 0.45778 0.4868 0.08326 0.0
H433 H 0.49468 0.50894 0.05488 0.0
H434 H 0.44649 0.52948 0.06226 0.0
H435 H 0.49696 0.62328 0.06437 0.0
H436 H 0.566 0.64169 0.05975 0.0
C437 C 0.68149 0.61942 0.16112 0.0
C438 C 0.63082 0.51897 0.16423 0.0
C439 C 0.6569 0.57663 0.00355 0.0
C440 C 0.62185 0.58237 0.9866 0.0
C441 C 0.5771 0.58285 0.99706 0.0
C442 C 0.56791 0.57859 0.02373 0.0
C443 C 0.6035 0.57323 0.0406 0.0
C444 C 0.64685 0.57197 0.03023 0.0
C445 C 0.67937 0.56394 0.05059 0.0
C446 C 0.65031 0.56337 0.07523 0.0
C447 C 0.60538 0.56822 0.0693 0.0
C448 C 0.73664 0.6124 0.04942 0.0
C449 C 0.67561 0.50915 0.04548 0.0
C450 C 0.45188 0.56853 0.11799 0.0
C451 C 0.43361 0.56485 0.14352 0.0
C452 C 0.46911 0.5624 0.16234 0.0
C453 C 0.51874 0.5632 0.15584 0.0
C454 C 0.53536 0.5663 0.12992 0.0
C455 C 0.50068 0.56884 0.11188 0.0
C456 C 0.52072 0.57144 0.08521 0.0
C457 C 0.57165 0.56854 0.08928 0.0
C458 C 0.58337 0.56611 0.11573 0.0
C459 C 0.53288 0.62588 0.07367 0.0
C460 C 0.47783 0.52201 0.0704 0.0
H461 H 0.74735 0.53877 0.07934 0.0
H462 H 0.76612 0.57669 0.17214 0.0
H463 H 0.6192 0.48115 0.15386 0.0
H464 H 0.59387 0.51869 0.17026 0.0
H465 H 0.65359 0.52014 0.18169 0.0
H466 H 0.70657 0.6539 0.14855 0.0
H467 H 0.70488 0.62234 0.17863 0.0
H468 H 0.64583 0.62207 0.16688 0.0
H469 H 0.69121 0.57527 0.99612 0.0
H470 H 0.54925 0.58678 0.9845 0.0
H471 H 0.53304 0.57943 0.03013 0.0
H472 H 0.7353 0.65005 0.04728 0.0
H473 H 0.75879 0.60912 0.03279 0.0
H474 H 0.76037 0.61789 0.06689 0.0
H475 H 0.64073 0.48283 0.0332 0.0
H476 H 0.66929 0.48599 0.06335 0.0
H477 H 0.71181 0.51394 0.03564 0.0
H478 H 0.81918 0.5394 0.10143 0.0
C479 C 0.74918 0.54683 0.09937 0.0
C480 C 0.3229 0.59835 0.17137 0.0
C481 C 0.27452 0.56358 0.15741 0.0
C482 C 0.32887 0.52517 0.1376 0.0
C483 C 0.37827 0.56329 0.14951 0.0
N484 N 0.42054 0.64369 0.17453 0.0
N485 N 0.24119 0.50407 0.1212 0.0
C486 C 0.37437 0.60166 0.16556 0.0
C487 C 0.28048 0.5297 0.13902 0.0
N488 N 0.32011 0.62765 0.19115 0.0
N489 N 0.32707 0.48267 0.12528 0.0
H490 H 0.20855 0.51003 0.11976 0.0
H491 H 0.24464 0.48307 0.1058 0.0
H492 H 0.35985 0.4767 0.12435 0.0
H493 H 0.29171 0.45054 0.11855 0.0
H494 H 0.35118 0.64826 0.20415 0.0
H495 H 0.28521 0.62753 0.19608 0.0
H496 H 0.42208 0.67655 0.18357 0.0
H497 H 0.458 0.64824 0.17067 0.0
C498 C 0.77513 0.29929 0.50589 0.0
C499 C 0.76171 0.25074 0.49211 0.0
C500 C 0.85634 0.30197 0.47474 0.0
C501 C 0.86727 0.35229 0.48541 0.0
N502 N 0.83434 0.3955 0.51317 0.0
N503 N 0.79263 0.2125 0.45995 0.0
C504 C 0.82578 0.34954 0.50171 0.0
C505 C 0.80359 0.25423 0.47585 0.0
N506 N 0.7401 0.29715 0.52399 0.0
N507 N 0.898 0.29883 0.46422 0.0
H508 H 0.756 0.17754 0.45951 0.0
H509 H 0.81802 0.2146 0.4453 0.0
H510 H 0.93676 0.33117 0.46396 0.0
H511 H 0.89565 0.26311 0.45869 0.0
H512 H 0.7481 0.32766 0.53688 0.0
H513 H 0.70383 0.26293 0.52747 0.0
H514 H 0.80528 0.39972 0.52293 0.0
H515 H 0.87069 0.43075 0.51188 0.0
C516 C 0.73206 0.8218 0.81245 0.0
C517 C 0.6878 0.77469 0.82333 0.0
C518 C 0.64097 0.83007 0.82518 0.0
C519 C 0.68594 0.87741 0.81544 0.0
N520 N 0.77852 0.91826 0.80461 0.0
N521 N 0.60528 0.74345 0.84632 0.0
C522 C 0.73249 0.8728 0.81065 0.0
C523 C 0.64382 0.78184 0.83134 0.0
N524 N 0.77344 0.81781 0.8023 0.0
N525 N 0.59406 0.83025 0.828 0.0
H526 H 0.607 0.7101 0.85262 0.0
H527 H 0.57516 0.7477 0.85503 0.0
H528 H 0.59095 0.8643 0.82488 0.0
H529 H 0.55783 0.79604 0.83168 0.0
H530 H 0.80306 0.84722 0.79101 0.0
H531 H 0.77609 0.78335 0.80329 0.0
H532 H 0.81566 0.92057 0.8037 0.0
H533 H 0.78033 0.95515 0.80308 0.0
C534 C 0.91387 0.53744 0.17608 0.0
C535 C 0.95891 0.56094 0.15886 0.0
C536 C 0.9063 0.59587 0.13457 0.0
C537 C 0.85825 0.56612 0.14922 0.0
N538 N 0.81965 0.50812 0.18532 0.0
N539 N 0.98819 0.60307 0.11764 0.0
C540 C 0.86342 0.53712 0.17046 0.0
C541 C 0.95215 0.5877 0.13716 0.0
N542 N 0.91957 0.51657 0.19851 0.0
N543 N 0.90944 0.63457 0.11847 0.0
H544 H 1.01975 0.59518 0.11746 0.0
H545 H 0.98289 0.61756 0.10022 0.0
H546 H 0.87901 0.64409 0.11702 0.0
H547 H 0.94448 0.6614 0.10916 0.0
H548 H 0.89248 0.50459 0.21353 0.0
H549 H 0.95377 0.51469 0.20286 0.0
H550 H 0.81751 0.48197 0.19957 0.0
H551 H 0.78397 0.50817 0.18244 0.0
C552 C 0.396 0.93493 0.48234 0.0
C553 C 0.44255 0.93999 0.49562 0.0
C554 C 0.38678 0.83907 0.50157 0.0
C555 C 0.33971 0.83506 0.48989 0.0
N556 N 0.29951 0.88519 0.47435 0.0
N557 N 0.47216 0.89305 0.52356 0.0
C558 C 0.34479 0.88489 0.48184 0.0
C559 C 0.43483 0.89074 0.50666 0.0
N560 N 0.40037 0.97728 0.46875 0.0
N561 N 0.3867 0.79296 0.50728 0.0
H562 H 0.50531 0.92871 0.52913 0.0
H563 H 0.46706 0.86057 0.53438 0.0
H564 H 0.35332 0.75553 0.50439 0.0
H565 H 0.42084 0.79173 0.51277 0.0
H566 H 0.37129 0.97442 0.45593 0.0
H567 H 0.43482 1.0141 0.46797 0.0
H568 H 0.29781 0.91996 0.47135 0.0
H569 H 0.2622 0.85077 0.47382 0.0
C570 C 0.64263 0.41389 0.80939 0.0
C571 C 0.68008 0.45598 0.82578 0.0
C572 C 0.71872 0.39485 0.83465 0.0
C573 C 0.67868 0.35143 0.81973 0.0
N574 N 0.59387 0.31915 0.79858 0.0
N575 N 0.74792 0.47848 0.85804 0.0
C576 C 0.63844 0.36124 0.80878 0.0
C577 C 0.71643 0.44391 0.83942 0.0
N578 N 0.61217 0.42454 0.79296 0.0
N579 N 0.76098 0.39063 0.84364 0.0
H580 H 0.74666 0.5129 0.86271 0.0
H581 H 0.7711 0.47044 0.87065 0.0
H582 H 0.76466 0.35696 0.84061 0.0
H583 H 0.79478 0.42221 0.85187 0.0
H584 H 0.58895 0.39852 0.77845 0.0
H585 H 0.61448 0.46158 0.79191 0.0
H586 H 0.56043 0.32144 0.79283 0.0
H587 H 0.58775 0.28043 0.79867 0.0
C588 C 0.85741 0.95068 0.52369 0.0
C589 C 0.80142 0.91517 0.52295 0.0
C590 C 0.8133 0.84383 0.54069 0.0
C591 C 0.86944 0.879 0.54155 0.0
N592 N 0.94611 0.96193 0.52966 0.0
N593 N 0.72616 0.82663 0.52785 0.0
C594 C 0.89193 0.93132 0.53169 0.0
C595 C 0.77968 0.86134 0.53025 0.0
N596 N 0.87715 1.00331 0.51797 0.0
N597 N 0.79011 0.79325 0.55014 0.0
H598 H 0.69967 0.8373 0.51971 0.0
H599 H 0.70871 0.7867 0.53327 0.0
H600 H 0.81066 0.77621 0.5589 0.0
H601 H 0.81066 0.77621 0.5589 0.0
H602 H 0.91672 1.03246 0.52088 0.0
H603 H 0.85317 1.01871 0.51164 0.0
H604 H 0.96515 0.99846 0.52028 0.0
H605 H 0.97217 0.94882 0.53576 0.0
C606 C 0.98398 0.57172 0.81625 0.0
C607 C 0.93045 0.55858 0.812 0.0
C608 C 0.90202 0.46356 0.81407 0.0
C609 C 0.95254 0.47756 0.82456 0.0
N610 N 1.04468 0.54259 0.832 0.0
N611 N 0.83949 0.49335 0.80195 0.0
C612 C 0.99497 0.53096 0.82382 0.0
C613 C 0.88989 0.50472 0.80868 0.0
N614 N 1.02354 0.62341 0.81361 0.0
N615 N 0.86573 0.41105 0.81021 0.0
H616 H 0.82969 0.52278 0.79786 0.0
H617 H 0.80712 0.45508 0.80037 0.0
H618 H 0.87444 0.38085 0.81445 0.0
H619 H 0.82904 0.39742 0.80117 0.0
H620 H 1.06405 0.63589 0.8149 0.0
H621 H 1.01546 0.6534 0.80796 0.0
H622 H 1.07616 0.58105 0.83484 0.0
H623 H 1.0541 0.51304 0.83659 0.0
C624 C 0.23801 0.95081 0.16537 0.0
C625 C 0.27641 0.93795 0.15607 0.0
C626 C 0.34738 1.02934 0.16315 0.0
C627 C 0.31097 1.03819 0.17763 0.0
N628 N 0.22148 1.01214 0.19038 0.0
N629 N 0.36573 0.96446 0.14279 0.0
C630 C 0.25584 1.00078 0.17751 0.0
C631 C 0.33046 0.97759 0.15333 0.0
N632 N 0.18492 0.91447 0.16321 0.0
N633 N 0.39827 0.07011 0.15957 0.0
H634 H 0.35338 0.92724 0.13452 0.0
H635 H 0.40689 0.98937 0.14275 0.0
H636 H 0.41145 0.10829 0.16675 0.0
H637 H 0.42611 1.06762 0.1479 0.0
H638 H 0.15451 0.92231 0.16803 0.0
H639 H 0.17113 0.87736 0.1546 0.0
H640 H 0.18156 0.9847 0.19368 0.0
H641 H 0.23378 1.04952 0.19843 0.0
C642 C 0.69517 0.45061 0.49182 0.0
C643 C 0.69887 0.40836 0.48034 0.0
C644 C 0.79624 0.46199 0.48016 0.0
C645 C 0.79203 0.49684 0.49781 0.0
N646 N 0.74053 0.53463 0.51491 0.0
N647 N 0.75104 0.37527 0.45951 0.0
C648 C 0.74229 0.49491 0.50147 0.0
C649 C 0.7489 0.41523 0.47249 0.0
N650 N 0.64625 0.44693 0.49399 0.0
N651 N 0.84508 0.47303 0.47126 0.0
H652 H 0.71684 0.34106 0.45332 0.0
H653 H 0.78628 0.37519 0.45542 0.0
H654 H 0.88056 0.50532 0.47776 0.0
H655 H 0.85006 0.45253 0.45612 0.0
H656 H 0.63991 0.47677 0.50133 0.0
H657 H 0.61177 0.4145 0.48661 0.0
H658 H 0.70559 0.53378 0.52055 0.0
H659 H 0.77496 0.56929 0.52054 0.0
C660 C 0.33301 0.41597 0.88746 0.0
C661 C 0.34578 0.38346 0.87207 0.0
C662 C 0.25992 0.30519 0.88257 0.0
C663 C 0.24448 0.33922 0.89479 0.0
N664 N 0.26365 0.42802 0.9066 0.0
N665 N 0.32303 0.29792 0.85438 0.0
C666 C 0.28053 0.39481 0.89695 0.0
C667 C 0.30988 0.32804 0.86967 0.0
N668 N 0.37102 0.46737 0.89282 0.0
N669 N 0.2268 0.25132 0.88343 0.0
H670 H 0.36023 0.3134 0.84562 0.0
H671 H 0.29664 0.2585 0.84949 0.0
H672 H 0.18987 0.23397 0.8926 0.0
H673 H 0.23727 0.22378 0.87681 0.0
H674 H 0.36588 0.49094 0.90634 0.0
H675 H 0.40963 0.48528 0.88551 0.0
H676 H 0.2858 0.46936 0.90536 0.0
H677 H 0.22574 0.4148 0.91412 0.0
C678 C 0.77295 0.30766 0.20979 0.0
C679 C 0.80217 0.34327 0.18983 0.0
C680 C 0.73574 0.3726 0.18644 0.0
C681 C 0.71031 0.34159 0.20843 0.0
N682 N 0.69148 0.26498 0.2344 0.0
N683 N 0.8099 0.40419 0.15644 0.0
C684 C 0.72491 0.30458 0.21811 0.0
C685 C 0.78236 0.37326 0.1769 0.0
N686 N 0.7926 0.2785 0.22149 0.0
N687 N 0.71533 0.40133 0.175 0.0
H688 H 0.84398 0.40512 0.14918 0.0
H689 H 0.79957 0.42883 0.14639 0.0
H690 H 0.68309 0.40372 0.18245 0.0
H691 H 0.72908 0.42209 0.1579 0.0
H692 H 0.77764 0.25772 0.23854 0.0
H693 H 0.82578 0.27697 0.21466 0.0
H694 H 0.69726 0.23372 0.24018 0.0
H695 H 0.65474 0.25998 0.2402 0.0
C696 C 0.1087 0.56895 0.07356 0.0
C697 C 0.10928 0.53691 0.09414 0.0
C698 C 1.06027 0.45764 0.06727 0.0
C699 C 1.06774 0.49026 0.0457 0.0
N700 N 0.1086 0.57874 0.02751 0.0
N701 N 1.09583 0.45137 0.10798 0.0
C702 C 1.09461 0.54652 0.04856 0.0
C703 C 1.08777 0.48137 0.09029 0.0
N704 N 0.11894 0.61979 0.07788 0.0
N705 N 1.02606 0.40398 0.06597 0.0
H706 H 0.11742 0.46757 0.12468 0.0
H707 H 1.08575 0.41186 0.1048 0.0
H708 H 1.00371 0.38527 0.0496 0.0
H709 H 1.01564 0.37923 0.08198 0.0
H710 H 0.11393 0.64262 0.06383 0.0
H711 H 0.12644 0.63705 0.09603 0.0
H712 H 0.13295 0.61995 0.02861 0.0
H713 H 1.1003 0.56412 0.00881 0.0
C714 C 0.53246 0.07375 0.42031 0.0
C715 C 0.58696 0.10424 0.42727 0.0
C716 C 0.60343 0.15027 0.38612 0.0
C717 C 0.54751 0.12824 0.3822 0.0
N718 N 0.45938 0.07889 0.40103 0.0
N719 N 0.67305 0.18091 0.41813 0.0
C720 C 0.51205 0.0929 0.40092 0.0
C721 C 0.62233 0.14532 0.41058 0.0
N722 N 0.50069 1.02486 0.4308 0.0
N723 N 0.63843 0.1733 0.3664 0.0
H724 H 0.68734 0.1811 0.4365 0.0
H725 H 0.69846 0.21385 0.40708 0.0
H726 H 0.62604 0.17304 0.34758 0.0
H727 H 0.67907 0.18631 0.36825 0.0
H728 H 0.46194 0.99976 0.42419 0.0
H729 H 0.5153 1.0068 0.44326 0.0
H730 H 0.43357 1.05551 0.41554 0.0
H731 H 0.44335 0.09569 0.38863 0.0
C732 C 0.69276 0.57868 0.74059 0.0
C733 C 0.71944 0.62196 0.75793 0.0
C734 C 0.80039 0.65621 0.7321 0.0
C735 C 0.77194 0.61742 0.71293 0.0
N736 N 0.68722 0.54732 0.69705 0.0
N737 N 0.79386 0.70908 0.76618 0.0
C738 C 0.71705 0.57984 0.71668 0.0
C739 C 0.77199 0.66274 0.75258 0.0
N740 N 0.64456 0.53619 0.74699 0.0
N741 N 0.85471 0.6864 0.73093 0.0
H742 H 0.77238 0.71603 0.78017 0.0
H743 H 0.8304 0.74221 0.76164 0.0
H744 H 0.87709 0.68114 0.71674 0.0
H745 H 0.87769 0.71256 0.74545 0.0
H746 H 0.62628 0.50098 0.73641 0.0
H747 H 0.62482 0.53451 0.76394 0.0
H748 H 0.6459 0.52333 0.69793 0.0
H749 H 0.7028 0.54776 0.67901 0.0
C750 C 0.57927 1.05707 0.58975 0.0
C751 C 0.61603 0.09817 0.57331 0.0
C752 C 0.6772 0.13669 0.61034 0.0
C753 C 0.63667 0.1012 0.62726 0.0
N754 N 0.54609 1.03046 0.63302 0.0
N755 N 0.6985 0.18217 0.56953 0.0
C756 C 0.58701 1.06181 0.61692 0.0
C757 C 0.66499 0.13902 0.58392 0.0
N758 N 0.53728 1.01263 0.57932 0.0
N759 N 0.72784 0.168 0.6195 0.0
H760 H 0.69145 0.1869 0.55047 0.0
H761 H 0.73112 0.21589 0.5772 0.0
H762 H 0.73819 0.16703 0.6386 0.0
H763 H 0.76043 0.19064 0.60771 0.0
H764 H 0.51214 0.97902 0.59 0.0
H765 H 0.53099 1.00706 0.55959 0.0
H766 H 0.50719 1.00546 0.62669 0.0
H767 H 0.54987 1.03254 0.65292 0.0
C768 C 0.62734 0.54531 0.91594 0.0
C769 C 0.65392 0.59631 0.90408 0.0
C770 C 0.65326 0.63744 0.94563 0.0
C771 C 0.63134 0.58698 0.95794 0.0
N772 N 0.59929 0.49276 0.95512 0.0
N773 N 0.69809 0.69189 0.90845 0.0
C774 C 0.6187 0.54087 0.9431 0.0
C775 C 0.66785 0.64261 0.91908 0.0
N776 N 0.60945 0.50082 0.90097 0.0
N777 N 0.66034 0.68075 0.95937 0.0
H778 H 0.70929 0.69777 0.88925 0.0
H779 H 0.71545 0.72714 0.91897 0.0
H780 H 0.65341 0.6795 0.97902 0.0
H781 H 0.66963 0.7171 0.95107 0.0
H782 H 0.58486 0.46222 0.90751 0.0
H783 H 0.61578 0.50266 0.88125 0.0
H784 H 0.59528 0.45866 0.94634 0.0
H785 H 0.58964 0.48734 0.97455 0.0
C786 C 0.17327 0.58461 0.25873 0.0
C787 C 0.12956 0.57661 0.24287 0.0
C788 C 1.08603 0.58796 0.28132 0.0
C789 C 0.12676 0.58968 0.29737 0.0
N790 N 0.20408 0.57868 0.30131 0.0
N791 N 1.03739 0.55619 0.2415 0.0
C792 C 0.16904 0.58505 0.28602 0.0
C793 C 1.0841 0.57467 0.25476 0.0
N794 N 0.21964 0.5929 0.24772 0.0
N795 N 1.04949 0.59998 0.29123 0.0
H796 H 1.03228 0.54146 0.22296 0.0
H797 H 1.00181 0.54908 0.24998 0.0
H798 H 1.04958 0.61007 0.31043 0.0
H799 H 1.02242 0.60489 0.27988 0.0
H800 H 0.25477 0.60475 0.25802 0.0
H801 H 0.22439 0.59286 0.22797 0.0
H802 H 0.23219 0.56938 0.29419 0.0
H803 H 0.20161 0.57727 0.32125 0.0
loop_
_geom_bond_atom_site_label_1
_geom_bond_atom_site_label_2
_geom_bond_distance
_geom_bond_site_symmetry_2
_ccdc_geom_bond_type
Tb0 C2 2.809 . S
Tb0 O20 2.484 . S
Tb0 O21 2.440 . S
Tb0 O22 2.658 . S
Tb0 O23 2.409 . S
Tb0 O24 2.378 . S
Tb0 O28 2.325 . S
Tb0 O31 2.341 1_455 S
Tb1 C11 2.809 . S
Tb1 O22 2.325 1_655 S
Tb1 O25 2.341 1_655 S
Tb1 O26 2.484 . S
Tb1 O27 2.440 . S
Tb1 O28 2.658 1_655 S
Tb1 O29 2.408 . S
Tb1 O30 2.378 . S
C2 Tb0 2.809 . S
C2 C3 1.514 . S
C2 O20 1.248 . S
C2 O21 1.266 . S
C3 C2 1.514 . S
C3 C4 1.359 . S
C3 C8 1.348 . S
C4 C3 1.359 . S
C4 C5 1.380 . S
C4 H32 0.929 . S
C5 C4 1.380 . S
C5 C6 1.347 . S
C5 H33 0.931 . S
C6 C5 1.347 . S
C6 C7 1.369 . S
C7 C6 1.369 . S
C7 C8 1.408 . S
C7 H34 0.930 . S
C8 C3 1.348 . S
C8 C7 1.408 . S
C8 H35 0.930 . S
C9 O22 1.281 . S
C9 O23 1.254 . S
C10 O24 1.236 . S
C10 O25 1.266 . S
C11 Tb1 2.809 . S
C11 C12 1.514 . S
C11 O26 1.248 . S
C11 O27 1.266 . S
C12 C11 1.514 . S
C12 C13 1.359 . S
C12 C17 1.348 . S
C13 C12 1.359 . S
C13 C14 1.380 . S
C13 H36 0.929 . S
C14 C13 1.380 . S
C14 C15 1.347 . S
C14 H37 0.931 . S
C15 C14 1.347 . S
C15 C16 1.369 . S
C16 C15 1.369 . S
C16 C17 1.408 . S
C16 H38 0.930 . S
C17 C12 1.348 . S
C17 C16 1.408 . S
C17 H39 0.930 . S
C18 O28 1.281 . S
C18 O29 1.252 1_455 S
C19 O30 1.236 . S
C19 O31 1.266 . S
O20 Tb0 2.484 . S
O20 C2 1.248 . S
O21 Tb0 2.440 . S
O21 C2 1.266 . S
O22 Tb0 2.658 . S
O22 Tb1 2.325 1_455 S
O22 C9 1.281 . S
O23 Tb0 2.409 . S
O23 C9 1.254 . S
O24 Tb0 2.378 . S
O24 C10 1.236 . S
O25 Tb1 2.341 1_455 S
O25 C10 1.266 . S
O26 Tb1 2.484 . S
O26 C11 1.248 . S
O27 Tb1 2.440 . S
O27 C11 1.266 . S
O28 Tb0 2.325 . S
O28 Tb1 2.658 1_455 S
O28 C18 1.281 . S
O29 Tb1 2.408 . S
O29 C18 1.252 1_655 S
O30 Tb1 2.378 . S
O30 C19 1.236 . S
O31 Tb0 2.341 1_655 S
O31 C19 1.266 . S
H32 C4 0.929 . S
H33 C5 0.931 . S
H34 C7 0.930 . S
H35 C8 0.930 . S
H36 C13 0.929 . S
H37 C14 0.931 . S
H38 C16 0.930 . S
H39 C17 0.930 . S
Tb40 C42 2.809 . S
Tb40 O60 2.484 . S
Tb40 O61 2.440 . S
Tb40 O62 2.658 1_565 S
Tb40 O63 2.409 1_565 S
Tb40 O64 2.378 . S
Tb40 O68 2.325 1_565 S
Tb40 O71 2.341 1_565 S
Tb41 C51 2.809 . S
Tb41 O62 2.325 . S
Tb41 O65 2.341 1_545 S
Tb41 O66 2.484 . S
Tb41 O67 2.440 . S
Tb41 O68 2.658 . S
Tb41 O69 2.409 . S
Tb41 O70 2.378 . S
C42 Tb40 2.809 . S
C42 C43 1.514 . S
C42 O60 1.248 . S
C42 O61 1.266 . S
C43 C42 1.514 . S
C43 C44 1.359 . S
C43 C48 1.348 . S
C44 C43 1.359 . S
C44 C45 1.380 . S
C44 H72 0.929 . S
C45 C44 1.380 . S
C45 C46 1.347 . S
C45 H73 0.931 . S
C46 C45 1.347 . S
C46 C47 1.369 . S
C47 C46 1.369 . S
C47 C48 1.408 . S
C47 H74 0.930 . S
C48 C43 1.348 . S
C48 C47 1.408 . S
C48 H75 0.930 . S
C49 O62 1.281 . S
C49 O63 1.254 . S
C50 O64 1.236 . S
C50 O65 1.266 . S
C51 Tb41 2.809 . S
C51 C52 1.514 . S
C51 O66 1.248 . S
C51 O67 1.266 . S
C52 C51 1.514 . S
C52 C53 1.359 . S
C52 C57 1.348 . S
C53 C52 1.359 . S
C53 C54 1.380 . S
C53 H76 0.929 . S
C54 C53 1.380 . S
C54 C55 1.347 . S
C54 H77 0.931 . S
C55 C54 1.347 . S
C55 C56 1.369 . S
C56 C55 1.369 . S
C56 C57 1.408 . S
C56 H78 0.930 . S
C57 C52 1.348 . S
C57 C56 1.408 . S
C57 H79 0.930 . S
C58 O68 1.281 . S
C58 O69 1.254 . S
C59 O70 1.236 . S
C59 O71 1.266 . S
O60 Tb40 2.484 . S
O60 C42 1.248 . S
O61 Tb40 2.440 . S
O61 C42 1.266 . S
O62 Tb40 2.658 1_545 S
O62 Tb41 2.325 . S
O62 C49 1.281 . S
O63 Tb40 2.409 1_545 S
O63 C49 1.254 . S
O64 Tb40 2.378 . S
O64 C50 1.236 . S
O65 Tb41 2.341 1_565 S
O65 C50 1.266 . S
O66 Tb41 2.484 . S
O66 C51 1.248 . S
O67 Tb41 2.440 . S
O67 C51 1.266 . S
O68 Tb40 2.325 1_545 S
O68 Tb41 2.658 . S
O68 C58 1.281 . S
O69 Tb41 2.409 . S
O69 C58 1.254 . S
O70 Tb41 2.378 . S
O70 C59 1.236 . S
O71 Tb40 2.341 1_545 S
O71 C59 1.266 . S
H72 C44 0.929 . S
H73 C45 0.931 . S
H74 C47 0.930 . S
H75 C48 0.930 . S
H76 C53 0.929 . S
H77 C54 0.931 . S
H78 C56 0.930 . S
H79 C57 0.930 . S
Tb80 C82 2.809 . S
Tb80 O100 2.484 . S
Tb80 O101 2.440 . S
Tb80 O102 2.658 . S
Tb80 O103 2.409 . S
Tb80 O104 2.378 . S
Tb80 O108 2.325 . S
Tb80 O111 2.341 . S
Tb81 C91 2.809 . S
Tb81 O102 2.325 . S
Tb81 O105 2.341 . S
Tb81 O106 2.484 . S
Tb81 O107 2.440 . S
Tb81 O108 2.658 . S
Tb81 O109 2.409 . S
Tb81 O110 2.378 . S
C82 Tb80 2.809 . S
C82 C83 1.514 . S
C82 O100 1.248 . S
C82 O101 1.266 . S
C83 C82 1.514 . S
C83 C84 1.359 . S
C83 C88 1.348 . S
C84 C83 1.359 . S
C84 C85 1.380 . S
C84 H112 0.929 . S
C85 C84 1.380 . S
C85 C86 1.347 . S
C85 H113 0.931 . S
C86 C85 1.347 . S
C86 C87 1.369 . S
C87 C86 1.369 . S
C87 C88 1.408 . S
C87 H114 0.930 . S
C88 C83 1.348 . S
C88 C87 1.408 . S
C88 H115 0.930 . S
C89 O102 1.281 . S
C89 O103 1.254 . S
C90 O104 1.236 . S
C90 O105 1.266 . S
C91 Tb81 2.809 . S
C91 C92 1.514 . S
C91 O106 1.248 . S
C91 O107 1.266 . S
C92 C91 1.514 . S
C92 C93 1.359 . S
C92 C97 1.348 . S
C93 C92 1.359 . S
C93 C94 1.380 . S
C93 H116 0.929 . S
C94 C93 1.380 . S
C94 C95 1.347 . S
C94 H117 0.931 . S
C95 C94 1.347 . S
C95 C96 1.369 . S
C96 C95 1.369 . S
C96 C97 1.408 . S
C96 H118 0.930 . S
C97 C92 1.348 . S
C97 C96 1.408 . S
C97 H119 0.930 . S
C98 O108 1.281 . S
C98 O109 1.254 . S
C99 O110 1.236 . S
C99 O111 1.266 . S
O100 Tb80 2.484 . S
O100 C82 1.248 . S
O101 Tb80 2.440 . S
O101 C82 1.266 . S
O102 Tb80 2.658 . S
O102 Tb81 2.325 . S
O102 C89 1.281 . S
O103 Tb80 2.409 . S
O103 C89 1.254 . S
O104 Tb80 2.378 . S
O104 C90 1.236 . S
O105 Tb81 2.341 . S
O105 C90 1.266 . S
O106 Tb81 2.484 . S
O106 C91 1.248 . S
O107 Tb81 2.440 . S
O107 C91 1.266 . S
O108 Tb80 2.325 . S
O108 Tb81 2.658 . S
O108 C98 1.281 . S
O109 Tb81 2.409 . S
O109 C98 1.254 . S
O110 Tb81 2.378 . S
O110 C99 1.236 . S
O111 Tb80 2.341 . S
O111 C99 1.266 . S
H112 C84 0.929 . S
H113 C85 0.931 . S
H114 C87 0.930 . S
H115 C88 0.930 . S
H116 C93 0.929 . S
H117 C94 0.931 . S
H118 C96 0.930 . S
H119 C97 0.930 . S
C120 C121 1.391 . S
C120 C124 1.391 . S
C120 H162 0.948 . S
C121 C120 1.391 . S
C121 C122 1.391 . S
C122 C121 1.391 . S
C122 H178 0.947 . S
C122 C179 1.392 . S
C123 C124 1.391 . S
C123 C127 1.397 . S
C123 C179 1.419 . S
C124 C120 1.391 . S
C124 C123 1.391 . S
C124 C125 1.399 . S
C125 C124 1.399 . S
C125 C128 1.396 . S
C125 C137 1.453 . S
C125 C138 1.684 . S
H126 C150 0.948 . S
C127 C123 1.397 . S
C127 C128 1.394 . S
C127 C146 1.723 . S
C128 C125 1.396 . S
C128 C127 1.394 . S
C128 C158 1.723 . S
H129 C152 0.947 . S
H130 C153 0.948 1_545 S
H131 C159 0.982 . S
H132 C160 0.979 . S
H133 C160 0.980 . S
H134 C160 0.983 . S
H135 C159 0.979 . S
H136 C159 0.977 . S
C137 C125 1.453 . S
C137 H166 0.982 . S
C137 H167 0.979 . S
C137 H168 0.977 . S
C138 C125 1.684 . S
C138 H163 0.979 . S
C138 H164 0.980 . S
C138 H165 0.983 . S
C139 C140 1.391 . S
C139 C144 1.391 . S
C139 H169 0.948 . S
C140 C139 1.391 . S
C140 C141 1.392 . S
C141 C140 1.392 . S
C141 C142 1.392 1_545 S
C141 H170 0.946 1_545 S
C142 C141 1.392 1_565 S
C142 C143 1.419 1_565 S
C142 H171 0.948 . S
C143 C142 1.419 1_545 S
C143 C144 1.391 . S
C143 C147 1.397 . S
C144 C139 1.391 . S
C144 C143 1.391 . S
C144 C145 1.399 . S
C145 C144 1.399 . S
C145 C146 1.396 . S
C145 C148 1.453 . S
C145 C149 1.684 . S
C146 C127 1.723 . S
C146 C145 1.396 . S
C146 C147 1.394 . S
C147 C143 1.397 . S
C147 C146 1.394 . S
C147 C157 1.723 1_545 S
C148 C145 1.453 . S
C148 H172 0.982 . S
C148 H173 0.979 . S
C148 H174 0.977 . S
C149 C145 1.684 . S
C149 H175 0.979 . S
C149 H176 0.980 . S
C149 H177 0.983 . S
C150 H126 0.948 . S
C150 C151 1.391 . S
C150 C155 1.391 . S
C151 C150 1.391 . S
C151 C152 1.391 . S
C152 H129 0.947 . S
C152 C151 1.391 . S
C152 C153 1.392 . S
C153 H130 0.948 1_565 S
C153 C152 1.392 . S
C153 C154 1.419 . S
C154 C153 1.419 . S
C154 C155 1.391 . S
C154 C158 1.397 1_565 S
C155 C150 1.391 . S
C155 C154 1.391 . S
C155 C156 1.399 . S
C156 C155 1.399 . S
C156 C157 1.396 . S
C156 C159 1.453 . S
C156 C160 1.684 . S
C157 C147 1.723 1_565 S
C157 C156 1.396 . S
C157 C158 1.394 1_565 S
C158 C128 1.723 . S
C158 C154 1.397 1_545 S
C158 C157 1.394 1_545 S
C159 H131 0.982 . S
C159 H135 0.979 . S
C159 H136 0.977 . S
C159 C156 1.453 . S
C160 H132 0.979 . S
C160 H133 0.980 . S
C160 H134 0.983 . S
C160 C156 1.684 . S
H161 C179 0.948 . S
H162 C120 0.948 . S
H163 C138 0.979 . S
H164 C138 0.980 . S
H165 C138 0.983 . S
H166 C137 0.982 . S
H167 C137 0.979 . S
H168 C137 0.977 . S
H169 C139 0.948 . S
H170 C141 0.946 1_565 S
H171 C142 0.948 . S
H172 C148 0.982 . S
H173 C148 0.979 . S
H174 C148 0.977 . S
H175 C149 0.979 . S
H176 C149 0.980 . S
H177 C149 0.983 . S
H178 C122 0.947 . S
C179 C122 1.392 . S
C179 C123 1.419 . S
C179 H161 0.948 . S
C180 C181 1.391 . S
C180 C184 1.391 . S
C180 H222 0.948 . S
C181 C180 1.391 . S
C181 C182 1.391 . S
C182 C181 1.391 . S
C182 H238 0.947 . S
C182 C239 1.392 . S
C183 C184 1.391 . S
C183 C187 1.397 . S
C183 C239 1.419 . S
C184 C180 1.391 . S
C184 C183 1.391 . S
C184 C185 1.399 . S
C185 C184 1.399 . S
C185 C188 1.396 . S
C185 C197 1.453 . S
C185 C198 1.684 . S
H186 C210 0.948 . S
C187 C183 1.397 . S
C187 C188 1.394 . S
C187 C206 1.723 . S
C188 C185 1.396 . S
C188 C187 1.394 . S
C188 C218 1.723 . S
H189 C212 0.947 . S
H190 C213 0.948 . S
H191 C219 0.982 . S
H192 C220 0.979 . S
H193 C220 0.980 . S
H194 C220 0.983 . S
H195 C219 0.979 . S
H196 C219 0.977 . S
C197 C185 1.453 . S
C197 H226 0.982 . S
C197 H227 0.979 . S
C197 H228 0.977 . S
C198 C185 1.684 . S
C198 H223 0.979 . S
C198 H224 0.980 . S
C198 H225 0.983 . S
C199 C200 1.391 . S
C199 C204 1.391 . S
C199 H229 0.948 . S
C200 C199 1.391 . S
C200 C201 1.391 . S
C201 C200 1.391 . S
C201 C202 1.392 . S
C201 H230 0.947 . S
C202 C201 1.392 . S
C202 C203 1.419 . S
C202 H231 0.948 . S
C203 C202 1.419 . S
C203 C204 1.391 . S
C203 C207 1.397 . S
C204 C199 1.391 . S
C204 C203 1.391 . S
C204 C205 1.399 . S
C205 C204 1.399 . S
C205 C206 1.396 . S
C205 C208 1.453 . S
C205 C209 1.684 . S
C206 C187 1.723 . S
C206 C205 1.396 . S
C206 C207 1.394 . S
C207 C203 1.397 . S
C207 C206 1.394 . S
C207 C217 1.723 . S
C208 C205 1.453 . S
C208 H232 0.982 . S
C208 H233 0.979 . S
C208 H234 0.977 . S
C209 C205 1.684 . S
C209 H235 0.979 . S
C209 H236 0.980 . S
C209 H237 0.983 . S
C210 H186 0.948 . S
C210 C211 1.391 . S
C210 C215 1.391 . S
C211 C210 1.391 . S
C211 C212 1.391 . S
C212 H189 0.947 . S
C212 C211 1.391 . S
C212 C213 1.392 . S
C213 H190 0.948 . S
C213 C212 1.392 . S
C213 C214 1.419 . S
C214 C213 1.419 . S
C214 C215 1.391 . S
C214 C218 1.397 . S
C215 C210 1.391 . S
C215 C214 1.391 . S
C215 C216 1.399 . S
C216 C215 1.399 . S
C216 C217 1.396 . S
C216 C219 1.453 . S
C216 C220 1.684 . S
C217 C207 1.723 . S
C217 C216 1.396 . S
C217 C218 1.394 . S
C218 C188 1.723 . S
C218 C214 1.397 . S
C218 C217 1.394 . S
C219 H191 0.982 . S
C219 H195 0.979 . S
C219 H196 0.977 . S
C219 C216 1.453 . S
C220 H192 0.979 . S
C220 H193 0.980 . S
C220 H194 0.983 . S
C220 C216 1.684 . S
H221 C239 0.948 . S
H222 C180 0.948 . S
H223 C198 0.979 . S
H224 C198 0.980 . S
H225 C198 0.983 . S
H226 C197 0.982 . S
H227 C197 0.979 . S
H228 C197 0.977 . S
H229 C199 0.948 . S
H230 C201 0.947 . S
H231 C202 0.948 . S
H232 C208 0.982 . S
H233 C208 0.979 . S
H234 C208 0.977 . S
H235 C209 0.979 . S
H236 C209 0.980 . S
H237 C209 0.983 . S
H238 C182 0.947 . S
C239 C182 1.392 . S
C239 C183 1.419 . S
C239 H221 0.948 . S
C240 C241 1.391 . S
C240 C244 1.391 . S
C240 H282 0.948 . S
C241 C240 1.391 . S
C241 C242 1.391 . S
C242 C241 1.391 . S
C242 H298 0.947 . S
C242 C299 1.392 . S
C243 C244 1.391 . S
C243 C247 1.397 . S
C243 C299 1.419 . S
C244 C240 1.391 . S
C244 C243 1.391 . S
C244 C245 1.399 . S
C245 C244 1.399 . S
C245 C248 1.396 . S
C245 C257 1.453 . S
C245 C258 1.684 . S
H246 C270 0.948 . S
C247 C243 1.397 . S
C247 C248 1.394 . S
C247 C266 1.723 . S
C248 C245 1.396 . S
C248 C247 1.394 . S
C248 C278 1.723 1_455 S
H249 C272 0.947 . S
H250 C273 0.948 . S
H251 C279 0.982 . S
H252 C280 0.979 . S
H253 C280 0.980 . S
H254 C280 0.983 . S
H255 C279 0.979 . S
H256 C279 0.977 . S
C257 C245 1.453 . S
C257 H286 0.986 1_455 S
C257 H287 0.979 . S
C257 H288 0.977 1_455 S
C258 C245 1.684 . S
C258 H283 0.979 . S
C258 H284 0.980 . S
C258 H285 0.983 . S
C259 C260 1.391 . S
C259 C264 1.391 1_554 S
C259 H289 0.948 . S
C260 C259 1.391 . S
C260 C261 1.391 1_455 S
C261 C260 1.391 1_655 S
C261 C262 1.392 1_554 S
C261 H290 0.947 . S
C262 C261 1.392 1_556 S
C262 C263 1.419 . S
C262 H291 0.948 . S
C263 C262 1.419 . S
C263 C264 1.391 1_655 S
C263 C267 1.397 . S
C264 C259 1.391 1_556 S
C264 C263 1.391 1_455 S
C264 C265 1.399 . S
C265 C264 1.399 . S
C265 C266 1.396 . S
C265 C268 1.453 . S
C265 C269 1.684 . S
C266 C247 1.723 . S
C266 C265 1.396 . S
C266 C267 1.394 1_455 S
C267 C263 1.397 . S
C267 C266 1.394 1_655 S
C267 C277 1.723 . S
C268 C265 1.453 . S
C268 H292 0.982 . S
C268 H293 0.979 . S
C268 H294 0.977 . S
C269 C265 1.684 . S
C269 H295 0.979 . S
C269 H296 0.980 . S
C269 H297 0.983 . S
C270 H246 0.948 . S
C270 C271 1.391 . S
C270 C275 1.391 . S
C271 C270 1.391 . S
C271 C272 1.391 . S
C272 H249 0.947 . S
C272 C271 1.391 . S
C272 C273 1.392 . S
C273 H250 0.948 . S
C273 C272 1.392 . S
C273 C274 1.419 . S
C274 C273 1.419 . S
C274 C275 1.391 . S
C274 C278 1.397 . S
C275 C270 1.391 . S
C275 C274 1.391 . S
C275 C276 1.399 . S
C276 C275 1.399 . S
C276 C277 1.396 . S
C276 C279 1.453 . S
C276 C280 1.684 . S
C277 C267 1.723 . S
C277 C276 1.396 . S
C277 C278 1.394 . S
C278 C248 1.723 1_655 S
C278 C274 1.397 . S
C278 C277 1.394 . S
C279 H251 0.982 . S
C279 H255 0.979 . S
C279 H256 0.977 . S
C279 C276 1.453 . S
C280 H252 0.979 . S
C280 H253 0.980 . S
C280 H254 0.983 . S
C280 C276 1.684 . S
H281 C299 0.948 . S
H282 C240 0.948 . S
H283 C258 0.979 . S
H284 C258 0.980 . S
H285 C258 0.983 . S
H286 C257 0.986 1_655 S
H287 C257 0.979 . S
H288 C257 0.977 1_655 S
H289 C259 0.948 . S
H290 C261 0.947 . S
H291 C262 0.948 . S
H292 C268 0.982 . S
H293 C268 0.979 . S
H294 C268 0.977 . S
H295 C269 0.979 . S
H296 C269 0.980 . S
H297 C269 0.983 . S
H298 C242 0.947 . S
C299 C242 1.392 . S
C299 C243 1.419 . S
C299 H281 0.948 . S
C300 C301 1.391 . S
C300 C304 1.391 . S
C300 H342 0.948 . S
C301 C300 1.391 . S
C301 C302 1.391 . S
C302 C301 1.391 . S
C302 H358 0.947 . S
C302 C359 1.392 . S
C303 C304 1.391 . S
C303 C307 1.397 1_655 S
C303 C359 1.419 . S
C304 C300 1.391 . S
C304 C303 1.391 . S
C304 C305 1.399 1_655 S
C305 C304 1.399 1_455 S
C305 C308 1.396 . S
C305 C317 1.453 . S
C305 C318 1.684 . S
H306 C330 0.948 . S
C307 C303 1.397 1_455 S
C307 C308 1.394 . S
C307 C326 1.723 . S
C308 C305 1.396 . S
C308 C307 1.394 . S
C308 C338 1.723 . S
H309 C332 0.947 . S
H310 C333 0.948 . S
H311 C339 0.982 . S
H312 C340 0.979 . S
H313 C340 0.980 . S
H314 C340 0.983 . S
H315 C339 0.979 . S
H316 C339 0.977 . S
C317 C305 1.453 . S
C317 H346 0.982 . S
C317 H347 0.979 . S
C317 H348 0.977 . S
C318 C305 1.684 . S
C318 H343 0.979 1_455 S
C318 H344 0.980 . S
C318 H345 0.983 1_455 S
C319 C320 1.391 . S
C319 C324 1.391 . S
C319 H349 0.948 1_455 S
C320 C319 1.391 . S
C320 C321 1.391 . S
C321 C320 1.391 . S
C321 C322 1.392 . S
C321 H350 0.947 . S
C322 C321 1.392 . S
C322 C323 1.419 . S
C322 H351 0.948 . S
C323 C322 1.419 . S
C323 C324 1.391 . S
C323 C327 1.397 . S
C324 C319 1.391 . S
C324 C323 1.391 . S
C324 C325 1.399 1_455 S
C325 C324 1.399 1_655 S
C325 C326 1.396 1_655 S
C325 C328 1.453 . S
C325 C329 1.684 . S
C326 C307 1.723 . S
C326 C325 1.396 1_455 S
C326 C327 1.394 . S
C327 C323 1.397 . S
C327 C326 1.394 . S
C327 C337 1.723 . S
C328 C325 1.453 . S
C328 H352 0.982 1_655 S
C328 H353 0.979 . S
C328 H354 0.977 . S
C329 C325 1.684 . S
C329 H355 0.979 . S
C329 H356 0.980 . S
C329 H357 0.983 . S
C330 H306 0.948 . S
C330 C331 1.391 . S
C330 C335 1.391 . S
C331 C330 1.391 . S
C331 C332 1.391 . S
C332 H309 0.947 . S
C332 C331 1.391 . S
C332 C333 1.392 . S
C333 H310 0.948 . S
C333 C332 1.392 . S
C333 C334 1.419 . S
C334 C333 1.419 . S
C334 C335 1.391 . S
C334 C338 1.397 . S
C335 C330 1.391 . S
C335 C334 1.391 . S
C335 C336 1.399 . S
C336 C335 1.399 . S
C336 C337 1.396 . S
C336 C339 1.453 . S
C336 C340 1.684 . S
C337 C327 1.723 . S
C337 C336 1.396 . S
C337 C338 1.394 . S
C338 C308 1.723 . S
C338 C334 1.397 . S
C338 C337 1.394 . S
C339 H311 0.982 . S
C339 H315 0.979 . S
C339 H316 0.977 . S
C339 C336 1.453 . S
C340 H312 0.979 . S
C340 H313 0.980 . S
C340 H314 0.983 . S
C340 C336 1.684 . S
H341 C359 0.948 . S
H342 C300 0.948 . S
H343 C318 0.979 1_655 S
H344 C318 0.980 . S
H345 C318 0.983 1_655 S
H346 C317 0.982 . S
H347 C317 0.979 . S
H348 C317 0.977 . S
H349 C319 0.948 1_655 S
H350 C321 0.947 . S
H351 C322 0.948 . S
H352 C328 0.982 1_455 S
H353 C328 0.979 . S
H354 C328 0.977 . S
H355 C329 0.979 . S
H356 C329 0.980 . S
H357 C329 0.983 . S
H358 C302 0.947 . S
C359 C302 1.392 . S
C359 C303 1.419 . S
C359 H341 0.948 . S
C360 C361 1.391 . S
C360 C364 1.391 . S
C360 H402 0.948 . S
C361 C360 1.391 . S
C361 C362 1.391 . S
C362 C361 1.391 . S
C362 H418 0.947 . S
C362 C419 1.392 . S
C363 C364 1.391 . S
C363 C367 1.397 . S
C363 C419 1.419 . S
C364 C360 1.391 . S
C364 C363 1.391 . S
C364 C365 1.399 . S
C365 C364 1.399 . S
C365 C368 1.396 . S
C365 C377 1.453 . S
C365 C378 1.684 . S
H366 C390 0.948 . S
C367 C363 1.397 . S
C367 C368 1.394 . S
C367 C386 1.723 . S
C368 C365 1.396 . S
C368 C367 1.394 . S
C368 C398 1.723 1_565 S
H369 C392 0.947 . S
H370 C393 0.948 . S
H371 C399 0.982 . S
H372 C400 0.979 . S
H373 C400 0.980 . S
H374 C400 0.983 . S
H375 C399 0.979 . S
H376 C399 0.977 . S
C377 C365 1.453 . S
C377 H406 0.982 1_565 S
C377 H407 0.979 . S
C377 H408 0.977 1_565 S
C378 C365 1.684 . S
C378 H403 0.979 . S
C378 H404 0.980 . S
C378 H405 0.983 . S
C379 C380 1.391 1_565 S
C379 C384 1.391 . S
C379 H409 0.948 . S
C380 C379 1.391 1_545 S
C380 C381 1.391 . S
C381 C380 1.391 . S
C381 C382 1.392 . S
C381 H410 0.947 . S
C382 C381 1.392 . S
C382 C383 1.419 . S
C382 H411 0.948 . S
C383 C382 1.419 . S
C383 C384 1.391 1_545 S
C383 C387 1.397 . S
C384 C379 1.391 . S
C384 C383 1.391 1_565 S
C384 C385 1.399 . S
C385 C384 1.399 . S
C385 C386 1.396 . S
C385 C388 1.453 . S
C385 C389 1.684 . S
C386 C367 1.723 . S
C386 C385 1.396 . S
C386 C387 1.394 1_565 S
C387 C383 1.397 . S
C387 C386 1.394 1_545 S
C387 C397 1.723 . S
C388 C385 1.453 . S
C388 H412 0.982 . S
C388 H413 0.979 . S
C388 H414 0.977 . S
C389 C385 1.684 . S
C389 H415 0.979 . S
C389 H416 0.980 . S
C389 H417 0.983 . S
C390 H366 0.948 . S
C390 C391 1.391 . S
C390 C395 1.391 . S
C391 C390 1.391 . S
C391 C392 1.391 . S
C392 H369 0.947 . S
C392 C391 1.391 . S
C392 C393 1.392 . S
C393 H370 0.948 . S
C393 C392 1.392 . S
C393 C394 1.419 . S
C394 C393 1.419 . S
C394 C395 1.391 . S
C394 C398 1.397 . S
C395 C390 1.391 . S
C395 C394 1.391 . S
C395 C396 1.399 . S
C396 C395 1.399 . S
C396 C397 1.396 . S
C396 C399 1.453 . S
C396 C400 1.684 . S
C397 C387 1.723 . S
C397 C396 1.396 . S
C397 C398 1.394 . S
C398 C368 1.723 1_545 S
C398 C394 1.397 . S
C398 C397 1.394 . S
C399 H371 0.982 . S
C399 H375 0.979 . S
C399 H376 0.977 . S
C399 C396 1.453 . S
C400 H372 0.979 . S
C400 H373 0.980 . S
C400 H374 0.983 . S
C400 C396 1.684 . S
H401 C419 0.948 . S
H402 C360 0.948 . S
H403 C378 0.979 . S
H404 C378 0.980 . S
H405 C378 0.983 . S
H406 C377 0.982 1_545 S
H407 C377 0.979 . S
H408 C377 0.977 1_545 S
H409 C379 0.948 . S
H410 C381 0.947 . S
H411 C382 0.948 . S
H412 C388 0.982 . S
H413 C388 0.979 . S
H414 C388 0.977 . S
H415 C389 0.979 . S
H416 C389 0.980 . S
H417 C389 0.983 . S
H418 C362 0.947 . S
C419 C362 1.392 . S
C419 C363 1.419 . S
C419 H401 0.948 . S
C420 C421 1.391 . S
C420 C424 1.391 . S
C420 H462 0.948 . S
C421 C420 1.391 . S
C421 C422 1.391 . S
C422 C421 1.391 . S
C422 H478 0.947 . S
C422 C479 1.392 . S
C423 C424 1.391 . S
C423 C427 1.397 . S
C423 C479 1.419 . S
C424 C420 1.391 . S
C424 C423 1.391 . S
C424 C425 1.399 . S
C425 C424 1.399 . S
C425 C428 1.396 . S
C425 C437 1.453 . S
C425 C438 1.684 . S
H426 C450 0.948 . S
C427 C423 1.397 . S
C427 C428 1.394 . S
C427 C446 1.723 . S
C428 C425 1.396 . S
C428 C427 1.394 . S
C428 C458 1.723 . S
H429 C452 0.947 . S
H430 C453 0.948 . S
H431 C459 0.982 . S
H432 C460 0.979 . S
H433 C460 0.980 . S
H434 C460 0.983 . S
H435 C459 0.979 . S
H436 C459 0.977 . S
C437 C425 1.453 . S
C437 H466 0.982 . S
C437 H467 0.979 . S
C437 H468 0.977 . S
C438 C425 1.684 . S
C438 H463 0.979 . S
C438 H464 0.980 . S
C438 H465 0.983 . S
C439 C440 1.377 1_554 S
C439 C444 1.391 . S
C439 H469 0.948 . S
C440 C439 1.377 1_556 S
C440 C441 1.381 1_556 S
C441 C440 1.381 1_554 S
C441 C442 1.392 . S
C441 H470 0.948 . S
C442 C441 1.392 . S
C442 C443 1.419 . S
C442 H471 0.948 . S
C443 C442 1.419 . S
C443 C444 1.391 . S
C443 C447 1.397 . S
C444 C439 1.391 . S
C444 C443 1.391 . S
C444 C445 1.399 . S
C445 C444 1.399 . S
C445 C446 1.396 . S
C445 C448 1.453 . S
C445 C449 1.684 . S
C446 C427 1.723 . S
C446 C445 1.396 . S
C446 C447 1.394 . S
C447 C443 1.397 . S
C447 C446 1.394 . S
C447 C457 1.723 . S
C448 C445 1.453 . S
C448 H472 0.982 . S
C448 H473 0.979 . S
C448 H474 0.977 . S
C449 C445 1.684 . S
C449 H475 0.979 . S
C449 H476 0.980 . S
C449 H477 0.983 . S
C450 H426 0.948 . S
C450 C451 1.391 . S
C450 C455 1.391 . S
C451 C450 1.391 . S
C451 C452 1.391 . S
C452 H429 0.947 . S
C452 C451 1.391 . S
C452 C453 1.392 . S
C453 H430 0.948 . S
C453 C452 1.392 . S
C453 C454 1.419 . S
C454 C453 1.419 . S
C454 C455 1.391 . S
C454 C458 1.397 . S
C455 C450 1.391 . S
C455 C454 1.391 . S
C455 C456 1.399 . S
C456 C455 1.399 . S
C456 C457 1.396 . S
C456 C459 1.453 . S
C456 C460 1.684 . S
C457 C447 1.723 . S
C457 C456 1.396 . S
C457 C458 1.394 . S
C458 C428 1.723 . S
C458 C454 1.397 . S
C458 C457 1.394 . S
C459 H431 0.982 . S
C459 H435 0.979 . S
C459 H436 0.977 . S
C459 C456 1.453 . S
C460 H432 0.979 . S
C460 H433 0.980 . S
C460 H434 0.983 . S
C460 C456 1.684 . S
H461 C479 0.948 . S
H462 C420 0.948 . S
H463 C438 0.979 . S
H464 C438 0.980 . S
H465 C438 0.983 . S
H466 C437 0.982 . S
H467 C437 0.979 . S
H468 C437 0.977 . S
H469 C439 0.948 . S
H470 C441 0.948 . S
H471 C442 0.948 . S
H472 C448 0.982 . S
H473 C448 0.979 . S
H474 C448 0.977 . S
H475 C449 0.979 . S
H476 C449 0.980 . S
H477 C449 0.983 . S
H478 C422 0.947 . S
C479 C422 1.392 . S
C479 C423 1.419 . S
C479 H461 0.948 . S
C480 C481 1.363 . S
C480 C486 1.379 . S
C480 N488 1.356 . S
C481 C480 1.363 . S
C481 C487 1.363 . S
C482 C483 1.363 . S
C482 C487 1.379 . S
C482 N489 1.356 . S
C483 C482 1.363 . S
C483 C486 1.363 . S
N484 C486 1.356 . S
N484 H496 0.984 . S
N484 H497 0.985 . S
N485 C487 1.356 . S
N485 H490 0.984 . S
N485 H491 0.985 . S
C486 C480 1.379 . S
C486 C483 1.363 . S
C486 N484 1.356 . S
C487 C481 1.363 . S
C487 C482 1.379 . S
C487 N485 1.356 . S
N488 C480 1.356 . S
N488 H494 0.984 . S
N488 H495 0.984 . S
N489 C482 1.356 . S
N489 H492 0.984 . S
N489 H493 0.985 . S
H490 N485 0.984 . S
H491 N485 0.985 . S
H492 N489 0.984 . S
H493 N489 0.985 . S
H494 N488 0.984 . S
H495 N488 0.984 . S
H496 N484 0.984 . S
H497 N484 0.985 . S
C498 C499 1.363 . S
C498 C504 1.379 . S
C498 N506 1.356 . S
C499 C498 1.363 . S
C499 C505 1.363 . S
C500 C501 1.363 . S
C500 C505 1.379 . S
C500 N507 1.356 . S
C501 C500 1.363 . S
C501 C504 1.363 . S
N502 C504 1.356 . S
N502 H514 0.984 . S
N502 H515 0.985 . S
N503 C505 1.356 . S
N503 H508 0.984 . S
N503 H509 0.985 . S
C504 C498 1.379 . S
C504 C501 1.363 . S
C504 N502 1.356 . S
C505 C499 1.363 . S
C505 C500 1.379 . S
C505 N503 1.356 . S
N506 C498 1.356 . S
N506 H512 0.984 . S
N506 H513 0.984 . S
N507 C500 1.356 . S
N507 H510 0.984 . S
N507 H511 0.985 . S
H508 N503 0.984 . S
H509 N503 0.985 . S
H510 N507 0.984 . S
H511 N507 0.985 . S
H512 N506 0.984 . S
H513 N506 0.984 . S
H514 N502 0.984 . S
H515 N502 0.985 . S
C516 C517 1.363 . S
C516 C522 1.379 . S
C516 N524 1.356 . S
C517 C516 1.363 . S
C517 C523 1.363 . S
C518 C519 1.363 . S
C518 C523 1.379 . S
C518 N525 1.356 . S
C519 C518 1.363 . S
C519 C522 1.363 . S
N520 C522 1.356 . S
N520 H532 0.984 . S
N520 H533 0.985 . S
N521 C523 1.356 . S
N521 H526 0.984 . S
N521 H527 0.985 . S
C522 C516 1.379 . S
C522 C519 1.363 . S
C522 N520 1.356 . S
C523 C517 1.363 . S
C523 C518 1.379 . S
C523 N521 1.356 . S
N524 C516 1.356 . S
N524 H530 0.984 . S
N524 H531 0.984 . S
N525 C518 1.356 . S
N525 H528 0.984 . S
N525 H529 0.985 . S
H526 N521 0.984 . S
H527 N521 0.985 . S
H528 N525 0.984 . S
H529 N525 0.985 . S
H530 N524 0.984 . S
H531 N524 0.984 . S
H532 N520 0.984 . S
H533 N520 0.985 . S
C534 C535 1.363 . S
C534 C540 1.379 . S
C534 N542 1.356 . S
C535 C534 1.363 . S
C535 C541 1.363 . S
C536 C537 1.363 . S
C536 C541 1.379 . S
C536 N543 1.356 . S
C537 C536 1.363 . S
C537 C540 1.363 . S
N538 C540 1.356 . S
N538 H550 0.984 . S
N538 H551 0.985 . S
N539 C541 1.356 . S
N539 H544 0.984 . S
N539 H545 0.985 . S
C540 C534 1.379 . S
C540 C537 1.363 . S
C540 N538 1.356 . S
C541 C535 1.363 . S
C541 C536 1.379 . S
C541 N539 1.356 . S
N542 C534 1.356 . S
N542 H548 0.984 . S
N542 H549 0.984 . S
N543 C536 1.356 . S
N543 H546 0.984 . S
N543 H547 0.985 . S
H544 N539 0.984 . S
H545 N539 0.985 . S
H546 N543 0.984 . S
H547 N543 0.985 . S
H548 N542 0.984 . S
H549 N542 0.984 . S
H550 N538 0.984 . S
H551 N538 0.985 . S
C552 C553 1.363 . S
C552 C558 1.379 . S
C552 N560 1.356 . S
C553 C552 1.363 . S
C553 C559 1.363 . S
C554 C555 1.363 . S
C554 C559 1.379 . S
C554 N561 1.356 . S
C555 C554 1.363 . S
C555 C558 1.363 . S
N556 C558 1.356 . S
N556 H568 0.984 . S
N556 H569 0.985 . S
N557 C559 1.356 . S
N557 H562 0.984 . S
N557 H563 0.985 . S
C558 C552 1.379 . S
C558 C555 1.363 . S
C558 N556 1.356 . S
C559 C553 1.363 . S
C559 C554 1.379 . S
C559 N557 1.356 . S
N560 C552 1.356 . S
N560 H566 0.984 . S
N560 H567 0.984 . S
N561 C554 1.356 . S
N561 H564 0.984 . S
N561 H565 0.985 . S
H562 N557 0.984 . S
H563 N557 0.985 . S
H564 N561 0.984 . S
H565 N561 0.985 . S
H566 N560 0.984 . S
H567 N560 0.984 . S
H568 N556 0.984 . S
H569 N556 0.985 . S
C570 C571 1.363 . S
C570 C576 1.379 . S
C570 N578 1.356 . S
C571 C570 1.363 . S
C571 C577 1.363 . S
C572 C573 1.363 . S
C572 C577 1.379 . S
C572 N579 1.356 . S
C573 C572 1.363 . S
C573 C576 1.363 . S
N574 C576 1.356 . S
N574 H586 0.984 . S
N574 H587 0.985 . S
N575 C577 1.356 . S
N575 H580 0.984 . S
N575 H581 0.985 . S
C576 C570 1.379 . S
C576 C573 1.363 . S
C576 N574 1.356 . S
C577 C571 1.363 . S
C577 C572 1.379 . S
C577 N575 1.356 . S
N578 C570 1.356 . S
N578 H584 0.984 . S
N578 H585 0.984 . S
N579 C572 1.356 . S
N579 H582 0.984 . S
N579 H583 0.985 . S
H580 N575 0.984 . S
H581 N575 0.985 . S
H582 N579 0.984 . S
H583 N579 0.985 . S
H584 N578 0.984 . S
H585 N578 0.984 . S
H586 N574 0.984 . S
H587 N574 0.985 . S
C588 C589 1.363 . S
C588 C594 1.379 . S
C588 N596 1.356 . S
C589 C588 1.363 . S
C589 C595 1.363 . S
C590 C591 1.363 . S
C590 C595 1.379 . S
C590 N597 1.356 . S
C591 C590 1.363 . S
C591 C594 1.363 . S
N592 C594 1.356 . S
N592 H604 0.984 . S
N592 H605 0.985 . S
N593 C595 1.356 . S
N593 H598 0.984 . S
N593 H599 0.985 . S
C594 C588 1.379 . S
C594 C591 1.363 . S
C594 N592 1.356 . S
C595 C589 1.363 . S
C595 C590 1.379 . S
C595 N593 1.356 . S
N596 C588 1.356 . S
N596 H602 0.984 . S
N596 H603 0.984 . S
N597 C590 1.356 . S
N597 H600 0.984 . S
N597 H601 0.985 . S
H598 N593 0.984 . S
H599 N593 0.985 . S
H600 N597 0.984 . S
H601 N597 0.985 . S
H602 N596 0.984 . S
H603 N596 0.984 . S
H604 N592 0.984 . S
H605 N592 0.985 . S
C606 C607 1.363 . S
C606 C612 1.379 . S
C606 N614 1.356 . S
C607 C606 1.363 . S
C607 C613 1.363 . S
C608 C609 1.363 . S
C608 C613 1.379 . S
C608 N615 1.356 . S
C609 C608 1.363 . S
C609 C612 1.363 . S
N610 C612 1.356 . S
N610 H622 0.984 . S
N610 H623 0.985 . S
N611 C613 1.356 . S
N611 H616 0.984 . S
N611 H617 0.985 . S
C612 C606 1.379 . S
C612 C609 1.363 . S
C612 N610 1.356 . S
C613 C607 1.363 . S
C613 C608 1.379 . S
C613 N611 1.356 . S
N614 C606 1.356 . S
N614 H620 0.984 . S
N614 H621 0.984 . S
N615 C608 1.356 . S
N615 H618 0.984 . S
N615 H619 0.985 . S
H616 N611 0.984 . S
H617 N611 0.985 . S
H618 N615 0.984 . S
H619 N615 0.985 . S
H620 N614 0.984 . S
H621 N614 0.984 . S
H622 N610 0.984 . S
H623 N610 0.985 . S
C624 C625 1.363 . S
C624 C630 1.379 . S
C624 N632 1.356 . S
C625 C624 1.363 . S
C625 C631 1.363 . S
C626 C627 1.363 . S
C626 C631 1.379 . S
C626 N633 1.356 . S
C627 C626 1.363 . S
C627 C630 1.363 . S
N628 C630 1.356 . S
N628 H640 0.984 . S
N628 H641 0.985 . S
N629 C631 1.356 . S
N629 H634 0.984 . S
N629 H635 0.985 . S
C630 C624 1.379 . S
C630 C627 1.363 . S
C630 N628 1.356 . S
C631 C625 1.363 . S
C631 C626 1.379 . S
C631 N629 1.356 . S
N632 C624 1.356 . S
N632 H638 0.984 . S
N632 H639 0.984 . S
N633 C626 1.356 . S
N633 H636 0.984 . S
N633 H637 0.985 . S
H634 N629 0.984 . S
H635 N629 0.985 . S
H636 N633 0.984 . S
H637 N633 0.985 . S
H638 N632 0.984 . S
H639 N632 0.984 . S
H640 N628 0.984 . S
H641 N628 0.985 . S
C642 C643 1.363 . S
C642 C648 1.379 . S
C642 N650 1.356 . S
C643 C642 1.363 . S
C643 C649 1.363 . S
C644 C645 1.363 . S
C644 C649 1.379 . S
C644 N651 1.356 . S
C645 C644 1.363 . S
C645 C648 1.363 . S
N646 C648 1.356 . S
N646 H658 0.984 . S
N646 H659 0.985 . S
N647 C649 1.356 . S
N647 H652 0.984 . S
N647 H653 0.985 . S
C648 C642 1.379 . S
C648 C645 1.363 . S
C648 N646 1.356 . S
C649 C643 1.363 . S
C649 C644 1.379 . S
C649 N647 1.356 . S
N650 C642 1.356 . S
N650 H656 0.984 . S
N650 H657 0.984 . S
N651 C644 1.356 . S
N651 H654 0.984 . S
N651 H655 0.985 . S
H652 N647 0.984 . S
H653 N647 0.985 . S
H654 N651 0.984 . S
H655 N651 0.985 . S
H656 N650 0.984 . S
H657 N650 0.984 . S
H658 N646 0.984 . S
H659 N646 0.985 . S
C660 C661 1.363 . S
C660 C666 1.379 . S
C660 N668 1.356 . S
C661 C660 1.363 . S
C661 C667 1.363 . S
C662 C663 1.363 . S
C662 C667 1.379 . S
C662 N669 1.356 . S
C663 C662 1.363 . S
C663 C666 1.363 . S
N664 C666 1.356 . S
N664 H676 0.984 . S
N664 H677 0.985 . S
N665 C667 1.356 . S
N665 H670 0.984 . S
N665 H671 0.985 . S
C666 C660 1.379 . S
C666 C663 1.363 . S
C666 N664 1.356 . S
C667 C661 1.363 . S
C667 C662 1.379 . S
C667 N665 1.356 . S
N668 C660 1.356 . S
N668 H674 0.984 . S
N668 H675 0.984 . S
N669 C662 1.356 . S
N669 H672 0.984 . S
N669 H673 0.985 . S
H670 N665 0.984 . S
H671 N665 0.985 . S
H672 N669 0.984 . S
H673 N669 0.985 . S
H674 N668 0.984 . S
H675 N668 0.984 . S
H676 N664 0.984 . S
H677 N664 0.985 . S
C678 C679 1.363 . S
C678 C684 1.379 . S
C678 N686 1.356 . S
C679 C678 1.363 . S
C679 C685 1.363 . S
C680 C681 1.363 . S
C680 C685 1.379 . S
C680 N687 1.356 . S
C681 C680 1.363 . S
C681 C684 1.363 . S
N682 C684 1.356 . S
N682 H694 0.984 . S
N682 H695 0.985 . S
N683 C685 1.356 . S
N683 H688 0.984 . S
N683 H689 0.985 . S
C684 C678 1.379 . S
C684 C681 1.363 . S
C684 N682 1.356 . S
C685 C679 1.363 . S
C685 C680 1.379 . S
C685 N683 1.356 . S
N686 C678 1.356 . S
N686 H692 0.984 . S
N686 H693 0.984 . S
N687 C680 1.356 . S
N687 H690 0.984 . S
N687 H691 0.985 . S
H688 N683 0.984 . S
H689 N683 0.985 . S
H690 N687 0.984 . S
H691 N687 0.985 . S
H692 N686 0.984 . S
H693 N686 0.984 . S
H694 N682 0.984 . S
H695 N682 0.985 . S
C696 C697 1.363 . S
C696 C702 1.379 . S
C696 N704 1.356 . S
C697 C696 1.363 . S
C697 C703 1.363 1_455 S
C698 C699 1.363 1_655 S
C698 C703 1.379 . S
C698 N705 1.356 . S
C699 C698 1.363 1_455 S
C699 C702 1.363 . S
N700 C702 1.356 . S
N700 H712 0.984 . S
N700 H713 0.985 . S
N701 C703 1.356 . S
N701 H706 0.984 . S
N701 H707 0.985 . S
C702 C696 1.379 . S
C702 C699 1.363 . S
C702 N700 1.356 . S
C703 C697 1.363 1_655 S
C703 C698 1.379 . S
C703 N701 1.356 . S
N704 C696 1.356 . S
N704 H710 0.984 . S
N704 H711 0.984 . S
N705 C698 1.356 . S
N705 H708 0.984 . S
N705 H709 0.985 . S
H706 N701 0.984 . S
H707 N701 0.985 . S
H708 N705 0.984 . S
H709 N705 0.985 . S
H710 N704 0.984 . S
H711 N704 0.984 . S
H712 N700 0.984 . S
H713 N700 0.985 . S
C714 C715 1.363 . S
C714 C720 1.379 . S
C714 N722 1.356 1_545 S
C715 C714 1.363 . S
C715 C721 1.363 . S
C716 C717 1.363 . S
C716 C721 1.379 . S
C716 N723 1.356 . S
C717 C716 1.363 . S
C717 C720 1.363 . S
N718 C720 1.356 1_565 S
N718 H730 0.984 . S
N718 H731 0.985 1_565 S
N719 C721 1.356 . S
N719 H724 0.984 . S
N719 H725 0.985 . S
C720 C714 1.379 . S
C720 C717 1.363 . S
C720 N718 1.356 1_545 S
C721 C715 1.363 . S
C721 C716 1.379 . S
C721 N719 1.356 . S
N722 C714 1.356 1_565 S
N722 H728 0.984 . S
N722 H729 0.984 . S
N723 C716 1.356 . S
N723 H726 0.984 . S
N723 H727 0.985 . S
H724 N719 0.984 . S
H725 N719 0.985 . S
H726 N723 0.984 . S
H727 N723 0.985 . S
H728 N722 0.984 . S
H729 N722 0.984 . S
H730 N718 0.984 . S
H731 N718 0.985 1_545 S
C732 C733 1.363 . S
C732 C738 1.379 . S
C732 N740 1.356 . S
C733 C732 1.363 . S
C733 C739 1.363 . S
C734 C735 1.363 . S
C734 C739 1.379 . S
C734 N741 1.356 . S
C735 C734 1.363 . S
C735 C738 1.363 . S
N736 C738 1.356 . S
N736 H748 0.984 . S
N736 H749 0.985 . S
N737 C739 1.356 . S
N737 H742 0.984 . S
N737 H743 0.985 . S
C738 C732 1.379 . S
C738 C735 1.363 . S
C738 N736 1.356 . S
C739 C733 1.363 . S
C739 C734 1.379 . S
C739 N737 1.356 . S
N740 C732 1.356 . S
N740 H746 0.984 . S
N740 H747 0.984 . S
N741 C734 1.356 . S
N741 H744 0.984 . S
N741 H745 0.985 . S
H742 N737 0.984 . S
H743 N737 0.985 . S
H744 N741 0.984 . S
H745 N741 0.985 . S
H746 N740 0.984 . S
H747 N740 0.984 . S
H748 N736 0.984 . S
H749 N736 0.985 . S
C750 C751 1.363 1_565 S
C750 C756 1.379 . S
C750 N758 1.356 . S
C751 C750 1.363 1_545 S
C751 C757 1.363 . S
C752 C753 1.363 . S
C752 C757 1.379 . S
C752 N759 1.356 . S
C753 C752 1.363 . S
C753 C756 1.363 1_545 S
N754 C756 1.356 . S
N754 H766 0.984 . S
N754 H767 0.985 . S
N755 C757 1.356 . S
N755 H760 0.984 . S
N755 H761 0.985 . S
C756 C750 1.379 . S
C756 C753 1.363 1_565 S
C756 N754 1.356 . S
C757 C751 1.363 . S
C757 C752 1.379 . S
C757 N755 1.356 . S
N758 C750 1.356 . S
N758 H764 0.984 . S
N758 H765 0.984 . S
N759 C752 1.356 . S
N759 H762 0.984 . S
N759 H763 0.985 . S
H760 N755 0.984 . S
H761 N755 0.985 . S
H762 N759 0.984 . S
H763 N759 0.985 . S
H764 N758 0.984 . S
H765 N758 0.984 . S
H766 N754 0.984 . S
H767 N754 0.985 . S
C768 C769 1.363 . S
C768 C774 1.379 . S
C768 N776 1.356 . S
C769 C768 1.363 . S
C769 C775 1.363 . S
C770 C771 1.363 . S
C770 C775 1.379 . S
C770 N777 1.356 . S
C771 C770 1.363 . S
C771 C774 1.363 . S
N772 C774 1.356 . S
N772 H784 0.984 . S
N772 H785 0.985 . S
N773 C775 1.356 . S
N773 H778 0.984 . S
N773 H779 0.985 . S
C774 C768 1.379 . S
C774 C771 1.363 . S
C774 N772 1.356 . S
C775 C769 1.363 . S
C775 C770 1.379 . S
C775 N773 1.356 . S
N776 C768 1.356 . S
N776 H782 0.984 . S
N776 H783 0.984 . S
N777 C770 1.356 . S
N777 H780 0.984 . S
N777 H781 0.985 . S
H778 N773 0.984 . S
H779 N773 0.985 . S
H780 N777 0.984 . S
H781 N777 0.985 . S
H782 N776 0.984 . S
H783 N776 0.984 . S
H784 N772 0.984 . S
H785 N772 0.985 . S
C786 C787 1.363 . S
C786 C792 1.379 . S
C786 N794 1.356 . S
C787 C786 1.363 . S
C787 C793 1.363 1_455 S
C788 C789 1.363 1_655 S
C788 C793 1.379 . S
C788 N795 1.356 . S
C789 C788 1.363 1_455 S
C789 C792 1.363 . S
N790 C792 1.356 . S
N790 H802 0.984 . S
N790 H803 0.985 . S
N791 C793 1.356 . S
N791 H796 0.984 . S
N791 H797 0.985 . S
C792 C786 1.379 . S
C792 C789 1.363 . S
C792 N790 1.356 . S
C793 C787 1.363 1_655 S
C793 C788 1.379 . S
C793 N791 1.356 . S
N794 C786 1.356 . S
N794 H800 0.984 . S
N794 H801 0.984 . S
N795 C788 1.356 . S
N795 H798 0.984 . S
N795 H799 0.985 . S
H796 N791 0.984 . S
H797 N791 0.985 . S
H798 N795 0.984 . S
H799 N795 0.985 . S
H800 N794 0.984 . S
H801 N794 0.984 . S
H802 N790 0.984 . S
H803 N790 0.985 . S
C481 C10 3.116 . S
C483 C451 3.109 . S
C499 C59 3.171 . S
C501 C301 2.974 . S
C517 C90 3.116 . S
C519 C361 2.915 . S
C535 C19 3.172 . S
C537 C421 2.975 . S
C555 C331 3.109 . S
C553 C50 3.116 . S
C573 C391 3.167 . S
C571 C99 3.172 . S
C589 C46 0.664 . S
C591 C181 0.661 . S
C607 C95 0.624 . S
C609 C271 0.589 . S
C625 C6 0.664 . S
C627 C151 0.632 . S
C645 C211 0.589 . S
C643 C55 0.624 . S
C663 C241 0.661 . S
C661 C86 0.664 . S
C679 C15 0.625 . S
C681 C121 0.532 . S
C699 C260 1.003 . S
C697 C9 1.021 . S
C715 C49 1.021 . S
C717 C140 1.025 . S
C733 C89 1.021 . S
C735 C200 1.003 . S
C753 C380 1.790 . S
C751 C58 1.727 . S
C771 C440 1.809 . S
C769 C98 1.727 . S
C787 C18 1.728 . S
C789 C320 1.785 . S
