# Generated by pormake.
# Topology rtl, (3,6)-cn, num edge types: 1
# Building blocks:
#     Node 0, Type 0, BuildingBlock: QEWDON_clean_linker_0, # of connection points: 3
#     Node 1, Type 0, BuildingBlock: QEWDON_clean_linker_0, # of connection points: 3
#     Node 2, Type 0, BuildingBlock: QEWDON_clean_linker_0, # of connection points: 3
#     Node 3, Type 0, BuildingBlock: QEWDON_clean_linker_0, # of connection points: 3
#     Node 4, Type 1, BuildingBlock: FUNLAD_clean_sbu_0, # of connection points: 6
#     Node 5, Type 1, BuildingBlock: FUNLAD_clean_sbu_0, # of connection points: 6
#     Edge 6, Type (0, 1), BuildingBlock: OJICUG_clean_linker_0, # of connection points: 2
#     Edge 7, Type (0, 1), BuildingBlock: OJICUG_clean_linker_0, # of connection points: 2
#     Edge 8, Type (0, 1), BuildingBlock: OJICUG_clean_linker_0, # of connection points: 2
#     Edge 9, Type (0, 1), BuildingBlock: OJICUG_clean_linker_0, # of connection points: 2
#     Edge 10, Type (0, 1), BuildingBlock: OJICUG_clean_linker_0, # of connection points: 2
#     Edge 11, Type (0, 1), BuildingBlock: OJICUG_clean_linker_0, # of connection points: 2
#     Edge 12, Type (0, 1), BuildingBlock: OJICUG_clean_linker_0, # of connection points: 2
#     Edge 13, Type (0, 1), BuildingBlock: OJICUG_clean_linker_0, # of connection points: 2
#     Edge 14, Type (0, 1), BuildingBlock: OJICUG_clean_linker_0, # of connection points: 2
#     Edge 15, Type (0, 1), BuildingBlock: OJICUG_clean_linker_0, # of connection points: 2
#     Edge 16, Type (0, 1), BuildingBlock: OJICUG_clean_linker_0, # of connection points: 2
#     Edge 17, Type (0, 1), BuildingBlock: OJICUG_clean_linker_0, # of connection points: 2
# Relax obj value: 0.014
# Max RMSD: 0.071
# Mean RMSD: 0.061
data_MOF--net-rtl--node1-FUNLAD_clean_sbu_0--node2-QEWDON_clean_linker_0--edge1-OJICUG_clean_linker_0
_symmetry_space_group_name_H-M    P1
_symmetry_Int_Tables_number       1
_symmetry_cell_setting            triclinic
loop_
_symmetry_equiv_pos_as_xyz
'x, y, z'
_cell_length_a     32.036382
_cell_length_b     31.77929
_cell_length_c     15.236814
_cell_angle_alpha  92.244972
_cell_angle_beta   93.270585
_cell_angle_gamma 89.888313
loop_
_atom_site_label
_atom_site_type_symbol
_atom_site_fract_x
_atom_site_fract_y
_atom_site_fract_z
_atom_type_partial_charge
H0 H 0.20673 0.89306 0.13193 0.0
C1 C 0.18982 0.89622 0.06883 0.0
C2 C 0.14768 0.90876 0.0654 0.0
C3 C 0.21094 0.89034 -0.0089 0.0
H4 H 0.09477 0.92591 0.98059 0.0
C5 C 0.12663 0.91423 0.98331 0.0
C6 C 0.14774 0.90952 0.90536 0.0
C7 C 0.18992 0.8973 0.90969 0.0
C8 C 0.25652 0.88374 -0.0044 0.0
H9 H 0.20686 0.89476 0.85009 0.0
C10 C 0.27388 0.84352 0.00711 0.0
C11 C 0.31763 0.8381 0.01136 0.0
C12 C 0.28284 0.91844 -0.01196 0.0
H13 H 0.26983 0.94958 0.97898 0.0
C14 C 0.3261 0.91327 -0.00755 0.0
H15 H 0.25346 0.81674 0.01303 0.0
C16 C 0.34345 0.87345 0.00403 0.0
H17 H 0.37715 0.8702 0.00577 0.0
H18 H 0.34626 0.94017 -0.01353 0.0
H19 H 0.71143 0.66361 0.40825 0.0
C20 C 0.69484 0.65773 0.46663 0.0
C21 C 0.65401 0.6415 0.45813 0.0
C22 C 0.71497 0.66443 0.55039 0.0
H23 H 0.60203 0.61933 0.5272 0.0
C24 C 0.63307 0.6331 0.53381 0.0
C25 C 0.65315 0.63865 0.61752 0.0
C26 C 0.6942 0.6542 0.62554 0.0
C27 C 0.75914 0.67803 0.55918 0.0
H28 H 0.71011 0.65797 0.6901 0.0
C29 C 0.77169 0.71676 0.52719 0.0
C30 C 0.8141 0.72855 0.5346 0.0
C31 C 0.78913 0.65158 0.59917 0.0
H32 H 0.78004 0.62167 0.62407 0.0
C33 C 0.83118 0.66313 0.60591 0.0
H34 H 0.74868 0.73751 0.49686 0.0
C35 C 0.84368 0.70128 0.57355 0.0
H36 H 0.87647 0.70984 0.58008 0.0
H37 H 0.85417 0.64246 0.63634 0.0
H38 H 0.82742 0.16419 0.10899 0.0
C39 C 0.84432 0.16001 0.04961 0.0
C40 C 0.88596 0.14577 0.0549 0.0
C41 C 0.82362 0.16622 0.96736 0.0
H42 H 0.93845 0.12623 0.98089 0.0
C43 C 0.90699 0.13899 0.97728 0.0
C44 C 0.88635 0.14398 0.89468 0.0
C45 C 0.84462 0.15774 0.89019 0.0
C46 C 0.77823 0.17466 0.96126 0.0
H47 H 0.82801 0.16054 0.82665 0.0
C48 C 0.7619 0.21463 0.9834 0.0
C49 C 0.7183 0.22144 0.97762 0.0
C50 C 0.75094 0.14177 0.93299 0.0
H51 H 0.76305 0.11087 0.91562 0.0
C52 C 0.70788 0.14833 0.92765 0.0
H53 H 0.78293 0.24013 0.00499 0.0
C54 C 0.69161 0.18779 0.94988 0.0
H55 H 0.65804 0.19221 0.94386 0.0
H56 H 0.68703 0.12277 0.9059 0.0
H57 H 0.36714 0.35053 0.62461 0.0
C58 C 0.37218 0.36757 0.56584 0.0
C59 C 0.38783 0.40894 0.57335 0.0
C60 C 0.36598 0.34705 0.48286 0.0
H61 H 0.40984 0.46114 0.50253 0.0
C62 C 0.39583 0.43004 0.49682 0.0
C63 C 0.3906 0.40957 0.4137 0.0
C64 C 0.37542 0.36809 0.40719 0.0
C65 C 0.35662 0.30157 0.47605 0.0
H66 H 0.37242 0.35155 0.34352 0.0
C67 C 0.3172 0.28587 0.49487 0.0
C68 C 0.30959 0.24217 0.4893 0.0
C69 C 0.38812 0.27353 0.45117 0.0
H70 H 0.41863 0.28517 0.43649 0.0
C71 C 0.38073 0.2303 0.44614 0.0
H72 H 0.29273 0.30744 0.51376 0.0
C73 C 0.3418 0.21464 0.46525 0.0
H74 H 0.33661 0.18094 0.45982 0.0
H75 H 0.40522 0.20885 0.42718 0.0
C76 C 0.05994 0.98328 0.3521 0.0
N77 N 0.08775 0.09592 0.49353 0.0
C78 C 0.12739 0.08038 0.49695 0.0
C79 C 0.16166 0.10733 0.50416 0.0
C80 C 0.15558 0.15109 0.50827 0.0
C81 C 0.11436 0.16658 0.50373 0.0
C82 C 0.08064 0.13822 0.49664 0.0
Zn83 Zn 0.04097 0.05139 0.48427 0.0
C84 C 0.97222 0.06978 0.35076 0.0
N85 N 0.94859 0.95311 0.46623 0.0
C86 C 0.96492 0.91356 0.46363 0.0
C87 C 0.90653 0.95928 0.46742 0.0
C88 C 0.87929 0.92467 0.46708 0.0
C89 C 0.89561 0.88349 0.46514 0.0
C90 C 0.93909 0.87844 0.46316 0.0
Zn91 Zn 0.99192 1.00106 0.47398 0.0
O92 O 0.07361 1.01785 0.38695 0.0
C93 C 0.0605 0.98308 0.60818 0.0
O94 O 0.02554 0.96876 0.37525 0.0
H95 H 0.89414 0.99097 0.46984 0.0
H96 H 0.13266 0.04677 0.4939 0.0
H97 H 0.99837 0.90907 0.46383 0.0
O98 O 0.07395 1.01784 0.58292 0.0
O99 O 0.02624 0.96843 0.57403 0.0
H100 H 0.0489 0.14997 0.4938 0.0
O101 O 0.9592 0.03444 0.57135 0.0
O102 O 1.00736 0.08399 0.58227 0.0
O103 O 0.95835 0.03491 0.37573 0.0
O104 O 1.00683 0.0842 0.38464 0.0
C105 C 0.97303 0.06916 0.60598 0.0
H106 H 0.19275 0.09384 0.50515 0.0
H107 H 0.10826 0.20011 0.50665 0.0
H108 H 0.84595 0.93009 0.46857 0.0
H109 H 0.95339 0.84754 0.46407 0.0
C110 C 0.46837 0.49015 0.88186 0.0
N111 N 0.57947 0.45115 0.01652 0.0
C112 C 0.56138 0.41237 0.01173 0.0
C113 C 0.58592 0.37607 0.01156 0.0
C114 C 0.62976 0.37932 0.01679 0.0
C115 C 0.6477 0.41978 0.02141 0.0
C116 C 0.62184 0.45543 0.02128 0.0
Zn117 Zn 0.54044 0.50276 0.01628 0.0
C118 C 0.56414 0.56699 0.89381 0.0
N119 N 0.45584 0.60745 0.01569 0.0
C120 C 0.41347 0.60344 0.01358 0.0
C121 C 0.47425 0.64606 0.01992 0.0
C122 C 0.45006 0.68252 0.02306 0.0
C123 C 0.4063 0.67951 0.02199 0.0
C124 C 0.38795 0.63927 0.01643 0.0
Zn125 Zn 0.49453 0.55593 0.01508 0.0
O126 O 0.50194 0.47364 0.9132 0.0
C127 C 0.47097 0.49149 0.13746 0.0
O128 O 0.45706 0.526 0.91203 0.0
H129 H 0.50792 0.64868 0.02118 0.0
H130 H 0.5277 0.40949 0.00768 0.0
H131 H 0.39946 0.57243 0.01035 0.0
O132 O 0.50401 0.47473 0.10959 0.0
O133 O 0.45901 0.52696 0.10943 0.0
H134 H 0.63565 0.48653 0.02511 0.0
O135 O 0.53263 0.58498 0.11838 0.0
O136 O 0.57795 0.53308 0.11901 0.0
O137 O 0.53087 0.58383 0.92043 0.0
O138 O 0.57611 0.53181 0.92323 0.0
C139 C 0.56631 0.56876 0.14952 0.0
H140 H 0.57054 0.34569 0.00598 0.0
H141 H 0.6813 0.42388 0.02606 0.0
H142 H 0.46557 0.71283 0.02548 0.0
H143 H 0.35435 0.6355 0.0158 0.0
C144 C 0.26569 0.19079 0.56251 0.0
C145 C 0.26818 0.22442 0.50609 0.0
H146 H 0.22781 0.14231 0.60982 0.0
C147 C 0.23182 0.23741 0.45865 0.0
H148 H 0.29316 0.18053 0.60067 0.0
C149 C 0.19431 0.21506 0.46277 0.0
C150 C 0.19261 0.17953 0.51479 0.0
H151 H 0.23304 0.26318 0.41438 0.0
H152 H 0.16742 0.2241 0.42141 0.0
C153 C 0.22831 0.1688 0.56728 0.0
C154 C 0.37235 0.79111 0.07885 0.0
C155 C 0.33693 0.79589 0.02141 0.0
H156 H 0.42131 0.75052 0.1255 0.0
C157 C 0.32219 0.76089 0.96946 0.0
H158 H 0.38397 0.81726 0.12099 0.0
C159 C 0.3438 0.72251 0.97166 0.0
C160 C 0.38048 0.71845 0.02599 0.0
H161 H 0.29509 0.7637 0.92422 0.0
H162 H 0.3328 0.69665 0.92805 0.0
C163 C 0.3938 0.75289 0.08124 0.0
C164 C 0.81571 0.80741 0.54433 0.0
C165 C 0.82835 0.7694 0.5039 0.0
H166 H 0.82737 0.87362 0.56446 0.0
C167 C 0.85902 0.77015 0.44195 0.0
H168 H 0.79224 0.80743 0.59278 0.0
C169 C 0.87858 0.80788 0.42455 0.0
C170 C 0.86859 0.84561 0.47021 0.0
H171 H 0.86901 0.7412 0.40954 0.0
H172 H 0.90289 0.80713 0.37794 0.0
C173 C 0.83578 0.84525 0.52788 0.0
C174 C 0.6651 0.26665 0.04986 0.0
C175 C 0.69986 0.26341 -0.00217 0.0
H176 H 0.61663 0.30578 0.09874 0.0
C177 C 0.714 0.29969 0.95873 0.0
H178 H 0.6539 0.23936 0.08191 0.0
C179 C 0.69223 0.33785 0.96734 0.0
C180 C 0.65604 0.34048 0.01565 0.0
H181 H 0.74056 0.29802 0.91782 0.0
H182 H 0.70264 0.36468 0.93276 0.0
C183 C 0.64361 0.30469 0.059 0.0
C184 C 0.14704 0.9527 0.20471 0.0
C185 C 0.1272 0.92282 0.14621 0.0
H186 H 0.14116 0.99553 0.31515 0.0
C187 C 0.08592 0.91079 0.15954 0.0
H188 H 0.17863 0.96299 0.19523 0.0
C189 C 0.06442 0.92935 0.22843 0.0
C190 C 0.08362 0.96079 0.28424 0.0
H191 H 0.06994 0.88786 0.11516 0.0
H192 H 0.03231 0.92018 0.23593 0.0
C193 C 0.1254 0.97167 0.27272 0.0
C194 C 0.65154 0.59394 0.74852 0.0
C195 C 0.63221 0.62406 0.6948 0.0
H196 H 0.64488 0.55177 0.85313 0.0
C197 C 0.5912 0.63689 0.70988 0.0
H198 H 0.683 0.58323 0.73741 0.0
C199 C 0.5695 0.61921 0.77637 0.0
C200 C 0.58817 0.58778 0.82783 0.0
H201 H 0.57568 0.66003 0.66906 0.0
H202 H 0.53765 0.62923 0.78554 0.0
C203 C 0.62959 0.5757 0.81405 0.0
C204 C 0.9473 0.14294 0.16433 0.0
C205 C 0.90588 0.13158 0.13883 0.0
H206 H 1.00066 0.13265 0.25209 0.0
C207 C 0.8855 0.10199 0.18751 0.0
H208 H 0.96371 0.16558 0.12763 0.0
C209 C 0.9068 0.08257 0.25761 0.0
C210 C 0.94874 0.09276 0.28117 0.0
H211 H 0.85377 0.09223 0.1685 0.0
H212 H 0.89066 0.05888 0.29212 0.0
C213 C 0.96842 0.12399 0.23535 0.0
C214 C 0.43041 0.40537 0.71523 0.0
C215 C 0.40271 0.42792 0.65987 0.0
H216 H 0.47315 0.4075 0.82845 0.0
C217 C 0.39413 0.47027 0.68209 0.0
H218 H 0.43806 0.37287 0.69902 0.0
C219 C 0.41415 0.49015 0.75646 0.0
C220 C 0.44365 0.4682 0.80903 0.0
H221 H 0.37294 0.48834 0.64031 0.0
H222 H 0.40783 0.52315 0.7706 0.0
C223 C 0.45086 0.42536 0.78876 0.0
C224 C 0.6538 0.59736 0.31906 0.0
C225 C 0.63442 0.62813 0.37144 0.0
H226 H 0.64716 0.55389 0.208 0.0
C227 C 0.59377 0.64137 0.3468 0.0
H228 H 0.68495 0.58629 0.33761 0.0
C229 C 0.57227 0.62314 0.27261 0.0
C230 C 0.59073 0.5907 0.22273 0.0
H231 H 0.57818 0.66487 0.38668 0.0
H232 H 0.54055 0.63329 0.2565 0.0
C233 C 0.63202 0.57855 0.24563 0.0
C234 C 0.88665 0.0996 0.75565 0.0
C235 C 0.90688 0.12912 0.81442 0.0
H236 H 0.89185 0.05722 0.64417 0.0
C237 C 0.94826 0.14074 0.80095 0.0
H238 H 0.85495 0.08966 0.76519 0.0
C239 C 0.96938 0.12234 0.73133 0.0
C240 C 0.94974 0.09141 0.67488 0.0
H241 H 0.96452 0.16342 0.84546 0.0
H242 H 1.00154 0.13128 0.72363 0.0
C243 C 0.90794 0.08073 0.68693 0.0
C244 C 0.43504 0.40715 0.28426 0.0
C245 C 0.40703 0.42944 0.33636 0.0
H246 H 0.47736 0.4094 0.18106 0.0
C247 C 0.3983 0.4718 0.31929 0.0
H248 H 0.44282 0.37466 0.29675 0.0
C249 C 0.41803 0.49177 0.25267 0.0
C250 C 0.44735 0.46988 0.20302 0.0
H251 H 0.37681 0.48964 0.35862 0.0
H252 H 0.41134 0.52466 0.242 0.0
C253 C 0.45514 0.42721 0.21861 0.0
C254 C 0.08612 0.91131 0.79637 0.0
C255 C 0.12723 0.92368 0.8221 0.0
H256 H 0.03281 0.92005 0.70748 0.0
C257 C 0.14712 0.95351 0.77319 0.0
H258 H 0.07014 0.88836 0.83314 0.0
C259 C 0.12568 0.97204 0.70235 0.0
C260 C 0.08406 0.96079 0.67839 0.0
H261 H 0.1786 0.96402 0.79229 0.0
H262 H 0.14145 0.99588 0.66754 0.0
C263 C 0.06482 0.92944 0.72462 0.0
loop_
_geom_bond_atom_site_label_1
_geom_bond_atom_site_label_2
_geom_bond_distance
_geom_bond_site_symmetry_2
_ccdc_geom_bond_type
H0 C1 0.949 . S
C1 H0 0.949 . S
C1 C2 1.395 . S
C1 C3 1.391 1_554 S
C2 C1 1.395 . S
C2 C5 1.390 . S
C3 C1 1.391 1_556 S
C3 C7 1.387 . S
C3 C8 1.491 . S
H4 C5 0.950 . S
C5 C2 1.390 . S
C5 H4 0.950 . S
C5 C6 1.378 1_554 S
C6 C5 1.378 1_556 S
C6 C7 1.409 . S
C7 C3 1.387 . S
C7 C6 1.409 . S
C7 H9 0.951 . S
C8 C3 1.491 . S
C8 C10 1.382 1_556 S
C8 C12 1.404 . S
H9 C7 0.951 . S
C10 C8 1.382 1_554 S
C10 C11 1.390 . S
C10 H15 0.949 . S
C11 C10 1.390 . S
C11 C16 1.399 1_554 S
C12 C8 1.404 . S
C12 H13 0.950 . S
C12 C14 1.375 . S
H13 C12 0.950 . S
C14 C12 1.375 . S
C14 C16 1.382 . S
C14 H18 0.950 . S
H15 C10 0.949 . S
C16 C11 1.399 1_556 S
C16 C14 1.382 . S
C16 H17 0.952 . S
H17 C16 0.952 . S
H18 C14 0.950 . S
H19 C20 0.949 . S
C20 H19 0.949 . S
C20 C21 1.395 . S
C20 C22 1.391 . S
C21 C20 1.395 . S
C21 C24 1.390 . S
C22 C20 1.391 . S
C22 C26 1.387 . S
C22 C27 1.491 . S
H23 C24 0.950 . S
C24 C21 1.390 . S
C24 H23 0.950 . S
C24 C25 1.378 . S
C25 C24 1.378 . S
C25 C26 1.409 . S
C26 C22 1.387 . S
C26 C25 1.409 . S
C26 H28 0.951 . S
C27 C22 1.491 . S
C27 C29 1.382 . S
C27 C31 1.404 . S
H28 C26 0.951 . S
C29 C27 1.382 . S
C29 C30 1.390 . S
C29 H34 0.949 . S
C30 C29 1.390 . S
C30 C35 1.399 . S
C31 C27 1.404 . S
C31 H32 0.950 . S
C31 C33 1.375 . S
H32 C31 0.950 . S
C33 C31 1.375 . S
C33 C35 1.382 . S
C33 H37 0.950 . S
H34 C29 0.949 . S
C35 C30 1.399 . S
C35 C33 1.382 . S
C35 H36 0.952 . S
H36 C35 0.952 . S
H37 C33 0.950 . S
H38 C39 0.949 . S
C39 H38 0.949 . S
C39 C40 1.395 . S
C39 C41 1.391 1_554 S
C40 C39 1.395 . S
C40 C43 1.390 . S
C41 C39 1.391 1_556 S
C41 C45 1.387 . S
C41 C46 1.491 . S
H42 C43 0.950 . S
C43 C40 1.390 . S
C43 H42 0.950 . S
C43 C44 1.378 1_554 S
C44 C43 1.378 1_556 S
C44 C45 1.409 . S
C45 C41 1.387 . S
C45 C44 1.409 . S
C45 H47 0.951 . S
C46 C41 1.491 . S
C46 C48 1.382 1_556 S
C46 C50 1.404 . S
H47 C45 0.951 . S
C48 C46 1.382 1_554 S
C48 C49 1.390 . S
C48 H53 0.949 . S
C49 C48 1.390 . S
C49 C54 1.399 1_554 S
C50 C46 1.404 . S
C50 H51 0.950 . S
C50 C52 1.375 . S
H51 C50 0.950 . S
C52 C50 1.375 . S
C52 C54 1.382 . S
C52 H56 0.950 . S
H53 C48 0.949 . S
C54 C49 1.399 1_556 S
C54 C52 1.382 . S
C54 H55 0.952 . S
H55 C54 0.952 . S
H56 C52 0.950 . S
H57 C58 0.949 . S
C58 H57 0.949 . S
C58 C59 1.395 . S
C58 C60 1.391 . S
C59 C58 1.395 . S
C59 C62 1.390 . S
C60 C58 1.391 . S
C60 C64 1.387 . S
C60 C65 1.491 . S
H61 C62 0.950 . S
C62 C59 1.390 . S
C62 H61 0.950 . S
C62 C63 1.378 . S
C63 C62 1.378 . S
C63 C64 1.409 . S
C64 C60 1.387 . S
C64 C63 1.409 . S
C64 H66 0.951 . S
C65 C60 1.491 . S
C65 C67 1.382 . S
C65 C69 1.404 . S
H66 C64 0.951 . S
C67 C65 1.382 . S
C67 C68 1.390 . S
C67 H72 0.949 . S
C68 C67 1.390 . S
C68 C73 1.399 . S
C69 C65 1.404 . S
C69 H70 0.950 . S
C69 C71 1.375 . S
H70 C69 0.950 . S
C71 C69 1.375 . S
C71 C73 1.382 . S
C71 H75 0.950 . S
H72 C67 0.949 . S
C73 C68 1.399 . S
C73 C71 1.382 . S
C73 H74 0.952 . S
H74 C73 0.952 . S
H75 C71 0.950 . S
C76 O92 1.263 . S
C76 O94 1.254 . S
N77 C78 1.333 . S
N77 C82 1.307 . S
N77 Zn83 2.020 . S
C78 N77 1.333 . S
C78 C79 1.379 . S
C78 H96 0.952 . S
C79 C78 1.379 . S
C79 C80 1.390 . S
C79 H106 0.949 . S
C80 C79 1.390 . S
C80 C81 1.357 . S
C81 C80 1.357 . S
C81 C82 1.370 . S
C81 H107 0.950 . S
C82 N77 1.307 . S
C82 C81 1.370 . S
C82 H100 0.948 . S
Zn83 N77 2.020 . S
Zn83 O92 2.031 1_545 S
Zn83 O98 2.034 1_545 S
Zn83 O102 2.010 1_455 S
Zn83 O104 2.024 1_455 S
C84 O103 1.246 . S
C84 O104 1.249 . S
N85 C86 1.307 . S
N85 C87 1.333 . S
N85 Zn91 2.020 . S
C86 N85 1.307 . S
C86 C90 1.370 . S
C86 H97 0.948 . S
C87 N85 1.333 . S
C87 C88 1.379 . S
C87 H95 0.952 . S
C88 C87 1.379 . S
C88 C89 1.390 . S
C88 H108 0.949 . S
C89 C88 1.390 . S
C89 C90 1.357 . S
C90 C86 1.370 . S
C90 C89 1.357 . S
C90 H109 0.950 . S
Zn91 N85 2.020 . S
Zn91 O94 2.025 1_655 S
Zn91 O99 2.024 1_655 S
Zn91 O101 2.039 1_565 S
Zn91 O103 2.034 1_565 S
O92 C76 1.263 . S
O92 Zn83 2.031 1_565 S
C93 O98 1.246 . S
C93 O99 1.249 . S
O94 C76 1.254 . S
O94 Zn91 2.025 1_455 S
H95 C87 0.952 . S
H96 C78 0.952 . S
H97 C86 0.948 . S
O98 Zn83 2.034 1_565 S
O98 C93 1.246 . S
O99 Zn91 2.024 1_455 S
O99 C93 1.249 . S
H100 C82 0.948 . S
O101 Zn91 2.039 1_545 S
O101 C105 1.251 . S
O102 Zn83 2.010 1_655 S
O102 C105 1.274 . S
O103 C84 1.246 . S
O103 Zn91 2.034 1_545 S
O104 Zn83 2.024 1_655 S
O104 C84 1.249 . S
C105 O101 1.251 . S
C105 O102 1.274 . S
H106 C79 0.949 . S
H107 C81 0.950 . S
H108 C88 0.949 . S
H109 C90 0.950 . S
C110 O126 1.251 . S
C110 O128 1.254 . S
N111 C112 1.333 . S
N111 C116 1.307 . S
N111 Zn117 2.020 . S
C112 N111 1.333 . S
C112 C113 1.379 . S
C112 H130 0.952 1_554 S
C113 C112 1.379 . S
C113 C114 1.390 . S
C113 H140 0.949 1_554 S
C114 C113 1.390 . S
C114 C115 1.357 . S
C115 C114 1.357 . S
C115 C116 1.370 . S
C115 H141 0.950 . S
C116 N111 1.307 . S
C116 C115 1.370 . S
C116 H134 0.948 . S
Zn117 N111 2.020 . S
Zn117 O126 2.039 1_554 S
Zn117 O132 2.034 . S
Zn117 O136 2.025 . S
Zn117 O138 2.024 1_554 S
C118 O137 1.246 . S
C118 O138 1.249 . S
N119 C120 1.307 . S
N119 C121 1.333 . S
N119 Zn125 2.020 . S
C120 N119 1.307 . S
C120 C124 1.370 . S
C120 H131 0.948 1_554 S
C121 N119 1.333 . S
C121 C122 1.379 . S
C121 H129 0.952 . S
C122 C121 1.379 . S
C122 C123 1.390 . S
C122 H142 0.949 . S
C123 C122 1.390 . S
C123 C124 1.357 . S
C124 C120 1.370 . S
C124 C123 1.357 . S
C124 H143 0.950 1_554 S
Zn125 N119 2.020 . S
Zn125 O128 2.025 1_554 S
Zn125 O133 2.024 . S
Zn125 O135 2.039 . S
Zn125 O137 2.034 1_554 S
O126 C110 1.251 . S
O126 Zn117 2.039 1_556 S
C127 O132 1.246 . S
C127 O133 1.249 . S
O128 C110 1.254 . S
O128 Zn125 2.025 1_556 S
H129 C121 0.952 . S
H130 C112 0.952 1_556 S
H131 C120 0.948 1_556 S
O132 Zn117 2.034 . S
O132 C127 1.246 . S
O133 Zn125 2.024 . S
O133 C127 1.249 . S
H134 C116 0.948 . S
O135 Zn125 2.039 . S
O135 C139 1.251 . S
O136 Zn117 2.025 . S
O136 C139 1.254 . S
O137 C118 1.246 . S
O137 Zn125 2.034 1_556 S
O138 Zn117 2.024 1_556 S
O138 C118 1.249 . S
C139 O135 1.251 . S
C139 O136 1.254 . S
H140 C113 0.949 1_556 S
H141 C115 0.950 . S
H142 C122 0.949 . S
H143 C124 0.950 1_556 S
C144 C145 1.387 . S
C144 H148 0.950 . S
C144 C153 1.390 . S
C145 C144 1.387 . S
C145 C147 1.387 . S
H146 C153 0.950 . S
C147 C145 1.387 . S
C147 C149 1.390 . S
C147 H151 0.950 . S
H148 C144 0.950 . S
C149 C147 1.390 . S
C149 C150 1.387 . S
C149 H152 0.950 . S
C150 C149 1.387 . S
C150 C153 1.387 . S
H151 C147 0.950 . S
H152 C149 0.950 . S
C153 C144 1.390 . S
C153 H146 0.950 . S
C153 C150 1.387 . S
C154 C155 1.387 . S
C154 H158 0.950 . S
C154 C163 1.390 . S
C155 C154 1.387 . S
C155 C157 1.387 1_554 S
H156 C163 0.950 . S
C157 C155 1.387 1_556 S
C157 C159 1.390 . S
C157 H161 0.950 . S
H158 C154 0.950 . S
C159 C157 1.390 . S
C159 C160 1.387 1_556 S
C159 H162 0.950 . S
C160 C159 1.387 1_554 S
C160 C163 1.387 . S
H161 C157 0.950 . S
H162 C159 0.950 . S
C163 C154 1.390 . S
C163 H156 0.950 . S
C163 C160 1.387 . S
C164 C165 1.387 . S
C164 H168 0.950 . S
C164 C173 1.390 . S
C165 C164 1.387 . S
C165 C167 1.387 . S
H166 C173 0.950 . S
C167 C165 1.387 . S
C167 C169 1.390 . S
C167 H171 0.950 . S
H168 C164 0.950 . S
C169 C167 1.390 . S
C169 C170 1.387 . S
C169 H172 0.950 . S
C170 C169 1.387 . S
C170 C173 1.387 . S
H171 C167 0.950 . S
H172 C169 0.950 . S
C173 C164 1.390 . S
C173 H166 0.950 . S
C173 C170 1.387 . S
C174 C175 1.387 . S
C174 H178 0.950 . S
C174 C183 1.390 . S
C175 C174 1.387 . S
C175 C177 1.387 1_554 S
H176 C183 0.950 . S
C177 C175 1.387 1_556 S
C177 C179 1.390 . S
C177 H181 0.950 . S
H178 C174 0.950 . S
C179 C177 1.390 . S
C179 C180 1.387 1_556 S
C179 H182 0.950 . S
C180 C179 1.387 1_554 S
C180 C183 1.387 . S
H181 C177 0.950 . S
H182 C179 0.950 . S
C183 C174 1.390 . S
C183 H176 0.950 . S
C183 C180 1.387 . S
C184 C185 1.387 . S
C184 H188 0.950 . S
C184 C193 1.390 . S
C185 C184 1.387 . S
C185 C187 1.387 . S
H186 C193 0.950 . S
C187 C185 1.387 . S
C187 C189 1.390 . S
C187 H191 0.950 . S
H188 C184 0.950 . S
C189 C187 1.390 . S
C189 C190 1.387 . S
C189 H192 0.950 . S
C190 C189 1.387 . S
C190 C193 1.387 . S
H191 C187 0.950 . S
H192 C189 0.950 . S
C193 C184 1.390 . S
C193 H186 0.950 . S
C193 C190 1.387 . S
C194 C195 1.387 . S
C194 H198 0.950 . S
C194 C203 1.390 . S
C195 C194 1.387 . S
C195 C197 1.387 . S
H196 C203 0.950 . S
C197 C195 1.387 . S
C197 C199 1.390 . S
C197 H201 0.950 . S
H198 C194 0.950 . S
C199 C197 1.390 . S
C199 C200 1.387 . S
C199 H202 0.950 . S
C200 C199 1.387 . S
C200 C203 1.387 . S
H201 C197 0.950 . S
H202 C199 0.950 . S
C203 C194 1.390 . S
C203 H196 0.950 . S
C203 C200 1.387 . S
C204 C205 1.387 . S
C204 H208 0.950 . S
C204 C213 1.390 . S
C205 C204 1.387 . S
C205 C207 1.387 . S
H206 C213 0.950 . S
C207 C205 1.387 . S
C207 C209 1.390 . S
C207 H211 0.950 . S
H208 C204 0.950 . S
C209 C207 1.390 . S
C209 C210 1.387 . S
C209 H212 0.950 . S
C210 C209 1.387 . S
C210 C213 1.387 . S
H211 C207 0.950 . S
H212 C209 0.950 . S
C213 C204 1.390 . S
C213 H206 0.950 . S
C213 C210 1.387 . S
C214 C215 1.387 . S
C214 H218 0.950 . S
C214 C223 1.390 . S
C215 C214 1.387 . S
C215 C217 1.387 . S
H216 C223 0.950 . S
C217 C215 1.387 . S
C217 C219 1.390 . S
C217 H221 0.950 . S
H218 C214 0.950 . S
C219 C217 1.390 . S
C219 C220 1.387 . S
C219 H222 0.950 . S
C220 C219 1.387 . S
C220 C223 1.387 . S
H221 C217 0.950 . S
H222 C219 0.950 . S
C223 C214 1.390 . S
C223 H216 0.950 . S
C223 C220 1.387 . S
C224 C225 1.387 . S
C224 H228 0.950 . S
C224 C233 1.390 . S
C225 C224 1.387 . S
C225 C227 1.387 . S
H226 C233 0.950 . S
C227 C225 1.387 . S
C227 C229 1.390 . S
C227 H231 0.950 . S
H228 C224 0.950 . S
C229 C227 1.390 . S
C229 C230 1.387 . S
C229 H232 0.950 . S
C230 C229 1.387 . S
C230 C233 1.387 . S
H231 C227 0.950 . S
H232 C229 0.950 . S
C233 C224 1.390 . S
C233 H226 0.950 . S
C233 C230 1.387 . S
C234 C235 1.387 . S
C234 H238 0.950 . S
C234 C243 1.390 . S
C235 C234 1.387 . S
C235 C237 1.387 . S
H236 C243 0.950 . S
C237 C235 1.387 . S
C237 C239 1.390 . S
C237 H241 0.950 . S
H238 C234 0.950 . S
C239 C237 1.390 . S
C239 C240 1.387 . S
C239 H242 0.950 . S
C240 C239 1.387 . S
C240 C243 1.387 . S
H241 C237 0.950 . S
H242 C239 0.950 . S
C243 C234 1.390 . S
C243 H236 0.950 . S
C243 C240 1.387 . S
C244 C245 1.387 . S
C244 H248 0.950 . S
C244 C253 1.390 . S
C245 C244 1.387 . S
C245 C247 1.387 . S
H246 C253 0.950 . S
C247 C245 1.387 . S
C247 C249 1.390 . S
C247 H251 0.950 . S
H248 C244 0.950 . S
C249 C247 1.390 . S
C249 C250 1.387 . S
C249 H252 0.950 . S
C250 C249 1.387 . S
C250 C253 1.387 . S
H251 C247 0.950 . S
H252 C249 0.950 . S
C253 C244 1.390 . S
C253 H246 0.950 . S
C253 C250 1.387 . S
C254 C255 1.387 . S
C254 H258 0.950 . S
C254 C263 1.390 . S
C255 C254 1.387 . S
C255 C257 1.387 . S
H256 C263 0.950 . S
C257 C255 1.387 . S
C257 C259 1.390 . S
C257 H261 0.950 . S
H258 C254 0.950 . S
C259 C257 1.390 . S
C259 C260 1.387 . S
C259 H262 0.950 . S
C260 C259 1.387 . S
C260 C263 1.387 . S
H261 C257 0.950 . S
H262 C259 0.950 . S
C263 C254 1.390 . S
C263 H256 0.950 . S
C263 C260 1.387 . S
C150 C80 1.528 . S
C145 C68 1.400 . S
C155 C11 1.401 . S
C160 C123 1.532 . S
C165 C30 1.415 . S
C170 C89 1.530 . S
C175 C49 1.405 . S
C180 C114 1.527 . S
C190 C76 1.615 . S
C185 C2 1.573 . S
C200 C118 1.588 . S
C195 C25 1.588 . S
C205 C40 1.574 . S
C210 C84 1.605 . S
C215 C59 1.554 . S
C220 C110 1.588 . S
C230 C139 1.502 . S
C225 C21 1.470 . S
C240 C105 1.491 . S
C235 C44 1.490 . S
C250 C127 1.507 . S
C245 C63 1.510 . S
C255 C6 1.492 . S
C260 C93 1.490 . S
