# Generated by pormake.
# Topology hwx, (6,3)-cn, num edge types: 1
# Building blocks:
#     Node 0, Type 0, BuildingBlock: IZENUY_clean_sbu_0, # of connection points: 6
#     Node 1, Type 0, BuildingBlock: IZENUY_clean_sbu_0, # of connection points: 6
#     Node 2, Type 0, BuildingBlock: IZENUY_clean_sbu_0, # of connection points: 6
#     Node 3, Type 0, BuildingBlock: IZENUY_clean_sbu_0, # of connection points: 6
#     Node 4, Type 1, BuildingBlock: CUQRIR_clean_linker_1, # of connection points: 3
#     Node 5, Type 1, BuildingBlock: CUQRIR_clean_linker_1, # of connection points: 3
#     Node 6, Type 1, BuildingBlock: CUQRIR_clean_linker_1, # of connection points: 3
#     Node 7, Type 1, BuildingBlock: CUQRIR_clean_linker_1, # of connection points: 3
#     Node 8, Type 1, BuildingBlock: CUQRIR_clean_linker_1, # of connection points: 3
#     Node 9, Type 1, BuildingBlock: CUQRIR_clean_linker_1, # of connection points: 3
#     Node 10, Type 1, BuildingBlock: CUQRIR_clean_linker_1, # of connection points: 3
#     Node 11, Type 1, BuildingBlock: CUQRIR_clean_linker_1, # of connection points: 3
#     Edge 12, Type (0, 1), BuildingBlock: TEMPAE_clean_linker_10, # of connection points: 2
#     Edge 13, Type (0, 1), BuildingBlock: TEMPAE_clean_linker_10, # of connection points: 2
#     Edge 14, Type (0, 1), BuildingBlock: TEMPAE_clean_linker_10, # of connection points: 2
#     Edge 15, Type (0, 1), BuildingBlock: TEMPAE_clean_linker_10, # of connection points: 2
#     Edge 16, Type (0, 1), BuildingBlock: TEMPAE_clean_linker_10, # of connection points: 2
#     Edge 17, Type (0, 1), BuildingBlock: TEMPAE_clean_linker_10, # of connection points: 2
#     Edge 18, Type (0, 1), BuildingBlock: TEMPAE_clean_linker_10, # of connection points: 2
#     Edge 19, Type (0, 1), BuildingBlock: TEMPAE_clean_linker_10, # of connection points: 2
#     Edge 20, Type (0, 1), BuildingBlock: TEMPAE_clean_linker_10, # of connection points: 2
#     Edge 21, Type (0, 1), BuildingBlock: TEMPAE_clean_linker_10, # of connection points: 2
#     Edge 22, Type (0, 1), BuildingBlock: TEMPAE_clean_linker_10, # of connection points: 2
#     Edge 23, Type (0, 1), BuildingBlock: TEMPAE_clean_linker_10, # of connection points: 2
#     Edge 24, Type (0, 1), BuildingBlock: TEMPAE_clean_linker_10, # of connection points: 2
#     Edge 25, Type (0, 1), BuildingBlock: TEMPAE_clean_linker_10, # of connection points: 2
#     Edge 26, Type (0, 1), BuildingBlock: TEMPAE_clean_linker_10, # of connection points: 2
#     Edge 27, Type (0, 1), BuildingBlock: TEMPAE_clean_linker_10, # of connection points: 2
#     Edge 28, Type (0, 1), BuildingBlock: TEMPAE_clean_linker_10, # of connection points: 2
#     Edge 29, Type (0, 1), BuildingBlock: TEMPAE_clean_linker_10, # of connection points: 2
#     Edge 30, Type (0, 1), BuildingBlock: TEMPAE_clean_linker_10, # of connection points: 2
#     Edge 31, Type (0, 1), BuildingBlock: TEMPAE_clean_linker_10, # of connection points: 2
#     Edge 32, Type (0, 1), BuildingBlock: TEMPAE_clean_linker_10, # of connection points: 2
#     Edge 33, Type (0, 1), BuildingBlock: TEMPAE_clean_linker_10, # of connection points: 2
#     Edge 34, Type (0, 1), BuildingBlock: TEMPAE_clean_linker_10, # of connection points: 2
#     Edge 35, Type (0, 1), BuildingBlock: TEMPAE_clean_linker_10, # of connection points: 2
# Relax obj value: 0.001
# Max RMSD: 0.072
# Mean RMSD: 0.053
data_MOF--net-hwx--node1-IZENUY_clean_sbu_0--node2-CUQRIR_clean_linker_1--edge1-TEMPAE_clean_linker_10
_symmetry_space_group_name_H-M    P1
_symmetry_Int_Tables_number       1
_symmetry_cell_setting            triclinic
loop_
_symmetry_equiv_pos_as_xyz
'x, y, z'
_cell_length_a     48.84576
_cell_length_b     48.800922
_cell_length_c     19.151631
_cell_angle_alpha  90.01723
_cell_angle_beta   90.035024
_cell_angle_gamma 89.989284
loop_
_atom_site_label
_atom_site_type_symbol
_atom_site_fract_x
_atom_site_fract_y
_atom_site_fract_z
_atom_type_partial_charge
Fe0 Fe 0.2382 0.24364 0.08642 0.0
Fe1 Fe 0.24019 0.24138 0.92627 0.0
O2 O 0.22592 0.23001 1.00646 0.0
Fe3 Fe 0.19954 0.20504 1.00615 0.0
O4 O 0.18192 0.21857 0.08367 0.0
O5 O 0.20458 0.256 0.1112 0.0
O6 O 0.2448 0.27794 0.0511 0.0
C7 C 0.23562 0.28984 0.99716 0.0
C8 C 0.23 0.18732 0.11789 0.0
O9 O 0.22958 0.27643 0.9429 0.0
C10 C 0.23559 0.18687 0.89863 0.0
O11 O 0.27288 0.23214 0.06837 0.0
O12 O 0.27441 0.24793 0.96138 0.0
O13 O 0.21971 0.18146 0.05913 0.0
O14 O 0.23348 0.21201 0.136 0.0
C15 C 0.18388 0.23562 0.89378 0.0
O16 O 0.25165 0.20701 0.90424 0.0
O17 O 0.21235 0.18704 0.92808 0.0
C18 C 0.2864 0.23867 0.01487 0.0
O19 O 0.20871 0.23703 0.87558 0.0
O20 O 0.17738 0.22682 0.95349 0.0
C21 C 0.18344 0.24128 0.11556 0.0
Fe22 Fe 0.26689 0.74347 0.59129 0.0
Fe23 Fe 0.30612 0.70498 0.5125 0.0
O24 O 0.27967 0.72986 0.51185 0.0
Fe25 Fe 0.26582 0.74127 0.43127 0.0
O26 O 0.27646 0.77627 0.44867 0.0
O27 O 0.26008 0.7777 0.55549 0.0
O28 O 0.30033 0.75606 0.61715 0.0
C29 C 0.32156 0.74145 0.62212 0.0
C30 C 0.21915 0.73826 0.51808 0.0
O31 O 0.32332 0.71871 0.59043 0.0
C32 C 0.27053 0.68671 0.40398 0.0
O33 O 0.27163 0.71193 0.6413 0.0
O34 O 0.28578 0.6814 0.56494 0.0
O35 O 0.23139 0.74775 0.46524 0.0
O36 O 0.23242 0.73167 0.57199 0.0
C37 C 0.32224 0.7355 0.40042 0.0
O38 O 0.29364 0.68687 0.43423 0.0
O39 O 0.2545 0.70692 0.40857 0.0
C40 C 0.27522 0.68726 0.62334 0.0
O41 O 0.3285 0.72672 0.46033 0.0
O42 O 0.29749 0.73693 0.38158 0.0
C43 C 0.26969 0.78974 0.50226 0.0
Fe44 Fe 0.76567 0.77201 0.92992 0.0
Fe45 Fe 0.7671 0.77072 0.0899 0.0
O46 O 0.77926 0.7844 0.00988 0.0
Fe47 Fe 0.80475 0.81022 0.00983 0.0
O48 O 0.79104 0.82809 0.93258 0.0
O49 O 0.75333 0.80567 0.90535 0.0
O50 O 0.73146 0.76502 0.96505 0.0
C51 C 0.71918 0.77499 0.01741 0.0
C52 C 0.82172 0.77998 0.89755 0.0
O53 O 0.73244 0.78204 0.07105 0.0
C54 C 0.82177 0.77395 0.11881 0.0
O55 O 0.77739 0.73747 0.94883 0.0
O56 O 0.76047 0.7364 0.05488 0.0
O57 O 0.82778 0.7895 0.95683 0.0
O58 O 0.79704 0.77696 0.87952 0.0
C59 C 0.77439 0.82691 0.12209 0.0
O60 O 0.80089 0.75878 0.11446 0.0
O61 O 0.82282 0.79678 0.08708 0.0
C62 C 0.77053 0.72418 1.00255 0.0
O63 O 0.77172 0.80219 0.1402 0.0
O64 O 0.7838 0.83306 0.06281 0.0
C65 C 0.76822 0.82675 0.90096 0.0
Fe66 Fe 0.70086 0.31031 0.51158 0.0
Fe67 Fe 0.73851 0.27063 0.59126 0.0
O68 O 0.72627 0.28441 0.51139 0.0
Fe69 Fe 0.73972 0.27205 0.43129 0.0
O70 O 0.75216 0.30568 0.4069 0.0
O71 O 0.71454 0.3282 0.43439 0.0
O72 O 0.72192 0.33303 0.56461 0.0
C73 C 0.73141 0.32682 0.62379 0.0
C74 C 0.68368 0.28024 0.39918 0.0
O75 O 0.73408 0.30207 0.64173 0.0
C76 C 0.73477 0.22417 0.50364 0.0
O77 O 0.68283 0.29686 0.58881 0.0
O78 O 0.70471 0.2588 0.61602 0.0
O79 O 0.70833 0.27718 0.38105 0.0
O80 O 0.67771 0.28972 0.45854 0.0
C81 C 0.78633 0.27475 0.51845 0.0
O82 O 0.74495 0.2363 0.556 0.0
O83 O 0.72789 0.23754 0.45004 0.0
C84 C 0.68387 0.27402 0.62048 0.0
O85 O 0.77319 0.28182 0.57223 0.0
O86 O 0.77393 0.26486 0.46617 0.0
C87 C 0.73733 0.32682 0.4027 0.0
C88 C 0.24031 0.51265 0.95558 0.0
N89 N 0.24426 0.53873 0.97761 0.0
N90 N 0.24063 0.49518 0.01024 0.0
C91 C 0.23813 0.50392 0.8804 0.0
C92 C 0.24512 0.51138 0.06637 0.0
N93 N 0.24754 0.53799 0.04663 0.0
C94 C 0.24546 0.50116 0.14044 0.0
H95 H 0.21656 0.5062 0.86311 0.0
H96 H 0.2442 0.48218 0.87359 0.0
H97 H 0.25115 0.51701 0.84664 0.0
H98 H 0.26688 0.49659 0.15577 0.0
H99 H 0.23337 0.482 0.14544 0.0
H100 H 0.23709 0.5168 0.17667 0.0
C101 C 0.99659 0.75245 0.56659 0.0
N102 N 0.97046 0.75384 0.54372 0.0
N103 N 0.01379 0.74726 0.51293 0.0
C104 C 0.00515 0.75506 0.64179 0.0
C105 C 0.99715 0.74551 0.45646 0.0
N106 N 0.97062 0.74927 0.47527 0.0
C107 C 0.00718 0.7428 0.38249 0.0
H108 H 0.00863 0.77702 0.65386 0.0
H109 H 0.02439 0.74364 0.6519 0.0
H110 H 0.98888 0.74735 0.67713 0.0
H111 H 0.00723 0.72082 0.3677 0.0
H112 H 0.02836 0.75075 0.37726 0.0
H113 H 0.99363 0.75404 0.34585 0.0
C114 C 0.76694 0.50199 0.06559 0.0
N115 N 0.76341 0.47542 0.04666 0.0
N116 N 0.76516 0.51863 0.00914 0.0
C117 C 0.76939 0.51204 0.13964 0.0
C118 C 0.76021 0.50139 0.95536 0.0
N119 N 0.75898 0.47524 0.97815 0.0
C120 C 0.75757 0.50995 0.88018 0.0
H121 H 0.75815 0.49841 0.17604 0.0
H122 H 0.76131 0.53319 0.14481 0.0
H123 H 0.79131 0.5122 0.15482 0.0
H124 H 0.76548 0.49375 0.84485 0.0
H125 H 0.76877 0.52933 0.87021 0.0
H126 H 0.7356 0.51319 0.86799 0.0
C127 C 0.0083 0.27006 0.45284 0.0
N128 N 0.03489 0.26658 0.47157 0.0
N129 N 0.99173 0.26808 0.50936 0.0
C130 C 0.99818 0.27264 0.3789 0.0
C131 C 0.00904 0.26307 0.56295 0.0
N132 N 0.03515 0.26198 0.54 0.0
C133 C 1.00058 0.26039 0.63819 0.0
H134 H 0.99792 0.29462 0.3641 0.0
H135 H 0.97708 0.26449 0.37371 0.0
H136 H 0.01181 0.26152 0.34223 0.0
H137 H 0.99735 0.23839 0.65027 0.0
H138 H 0.98123 0.2716 0.64837 0.0
H139 H 0.0168 0.26828 0.67345 0.0
C140 C 0.73841 1.00189 0.56409 0.0
N141 N 0.74201 0.97535 0.54491 0.0
N142 N 0.74019 0.01862 0.50781 0.0
C143 C 0.73594 0.01183 0.63822 0.0
C144 C 0.74521 1.00147 0.4539 0.0
N145 N 0.74648 0.97528 0.47643 0.0
C146 C 0.74785 0.01015 0.37881 0.0
H147 H 0.71401 0.01194 0.65331 0.0
H148 H 0.74398 0.03298 0.64364 0.0
H149 H 0.7472 0.99816 0.67454 0.0
H150 H 0.76982 0.01344 0.36675 0.0
H151 H 0.73662 0.02953 0.36899 0.0
H152 H 0.73997 0.99399 0.34329 0.0
C153 C 0.50842 0.24564 0.95727 0.0
N154 N 0.53494 0.2494 0.97624 0.0
N155 N 0.49174 0.24738 0.01364 0.0
C156 C 0.49842 0.24295 0.88324 0.0
C157 C 0.50892 0.25255 0.06742 0.0
N158 N 0.53505 0.25395 0.0447 0.0
C159 C 0.50033 0.25517 0.14256 0.0
H160 H 0.47724 0.25091 0.87788 0.0
H161 H 0.49837 0.22097 0.86842 0.0
H162 H 0.51199 0.25418 0.84668 0.0
H163 H 0.48108 0.24377 0.15257 0.0
H164 H 0.49684 0.27714 0.15459 0.0
H165 H 0.51658 0.24746 0.178 0.0
C166 C 0.26529 0.01282 0.44975 0.0
N167 N 0.26195 0.03892 0.47208 0.0
N168 N 0.2671 0.99551 0.50459 0.0
C169 C 0.2661 0.00418 0.37431 0.0
C170 C 0.26448 0.01189 0.5612 0.0
N171 N 0.26098 0.0384 0.54155 0.0
C172 C 0.26575 1.00182 0.63539 0.0
H173 H 0.251 0.01609 0.34342 0.0
H174 H 0.26198 0.98199 0.36796 0.0
H175 H 0.28676 0.00852 0.35298 0.0
H176 H 0.27874 0.98326 0.6396 0.0
H177 H 0.24481 0.99625 0.65276 0.0
H178 H 0.27394 0.01788 0.67066 0.0
C179 C 0.49675 0.76368 0.06775 0.0
N180 N 0.47048 0.76268 0.04581 0.0
N181 N 0.51371 0.76875 0.01353 0.0
C182 C 0.50569 0.76082 0.1426 0.0
C183 C 0.49678 0.77086 0.9577 0.0
N184 N 0.47031 0.76741 0.97744 0.0
C185 C 0.50642 0.77354 0.8834 0.0
H186 H 0.52513 0.77197 0.15217 0.0
H187 H 0.50896 0.73879 0.15426 0.0
H188 H 0.48971 0.76867 0.1786 0.0
H189 H 0.52749 0.7654 0.8773 0.0
H190 H 0.50656 0.79553 0.86876 0.0
H191 H 0.49256 0.76246 0.84718 0.0
C192 C 0.16791 0.2646 0.22525 0.0
C193 C 0.16177 0.24853 0.16649 0.0
C194 C 0.14828 0.26916 0.27767 0.0
C195 C 0.12171 0.25791 0.27036 0.0
C196 C 0.11513 0.24253 0.20989 0.0
C197 C 0.13531 0.23777 0.15911 0.0
C198 C 0.15626 0.28521 0.34195 0.0
C199 C 0.08687 0.23068 0.19934 0.0
C200 C 0.07634 0.24346 0.42736 0.0
C201 C 0.05831 0.26576 0.42568 0.0
C202 C 0.09785 0.24128 0.37902 0.0
C203 C 0.10091 0.26153 0.32656 0.0
C204 C 0.08311 0.28444 0.32577 0.0
C205 C 0.06226 0.28644 0.37598 0.0
C206 C 0.11673 0.21682 0.38274 0.0
C207 C 0.08542 0.3063 0.27032 0.0
H208 H 0.1884 0.27275 0.23165 0.0
H209 H 0.13042 0.22546 0.11365 0.0
H210 H 0.142 0.30262 0.34984 0.0
H211 H 0.15469 0.27187 0.38871 0.0
H212 H 0.17747 0.29333 0.3387 0.0
H213 H 0.08457 0.22067 0.14756 0.0
H214 H 0.08256 0.21529 0.24051 0.0
H215 H 0.0712 0.24704 0.2041 0.0
H216 H 0.07305 0.22726 0.46502 0.0
H217 H 0.04852 0.30386 0.37545 0.0
H218 H 0.13841 0.22358 0.38152 0.0
H219 H 0.11337 0.20348 0.33662 0.0
H220 H 0.11337 0.20447 0.4307 0.0
H221 H 0.10645 0.31486 0.26945 0.0
H222 H 0.07067 0.32332 0.27861 0.0
H223 H 0.08153 0.29714 0.21821 0.0
C224 C 0.2577 0.67246 0.74011 0.0
C225 C 0.26944 0.66547 0.67549 0.0
C226 C 0.25318 0.65268 0.7919 0.0
C227 C 0.26049 0.62512 0.779 0.0
C228 C 0.27207 0.61777 0.71376 0.0
C229 C 0.27639 0.63803 0.6627 0.0
C230 C 0.24069 0.66132 0.86064 0.0
C231 C 0.28005 0.58852 0.69812 0.0
C232 C 0.2718 0.57711 0.9329 0.0
C233 C 0.24729 0.56232 0.93324 0.0
C234 C 0.27628 0.59794 0.88357 0.0
C235 C 0.2557 0.60393 0.83358 0.0
C236 C 0.23054 0.58956 0.83547 0.0
C237 C 0.22664 0.56894 0.88547 0.0
C238 C 0.30327 0.61298 0.88367 0.0
C239 C 0.20799 0.59548 0.78366 0.0
H240 H 0.25214 0.69356 0.75068 0.0
H241 H 0.28548 0.63241 0.61312 0.0
H242 H 0.22141 0.64987 0.86989 0.0
H243 H 0.25481 0.65626 0.90417 0.0
H244 H 0.23615 0.68361 0.86244 0.0
H245 H 0.28871 0.58612 0.64485 0.0
H246 H 0.29544 0.58139 0.7367 0.0
H247 H 0.26192 0.57496 0.70305 0.0
H248 H 0.28776 0.57167 0.96969 0.0
H249 H 0.20766 0.55746 0.8865 0.0
H250 H 0.29976 0.6354 0.88721 0.0
H251 H 0.31422 0.60906 0.83392 0.0
H252 H 0.31666 0.60662 0.92771 0.0
H253 H 0.20229 0.61747 0.78582 0.0
H254 H 0.18939 0.58297 0.7935 0.0
H255 H 0.21532 0.59122 0.72992 0.0
C256 C 0.83745 0.7513 0.22921 0.0
C257 C 0.8435 0.76714 0.17003 0.0
C258 C 0.8571 0.74701 0.28174 0.0
C259 C 0.88364 0.7583 0.27415 0.0
C260 C 0.89011 0.77354 0.21339 0.0
C261 C 0.86988 0.77805 0.16251 0.0
C262 C 0.84922 0.73115 0.34635 0.0
C263 C 0.91833 0.78542 0.20256 0.0
C264 C 0.92926 0.77262 0.43106 0.0
C265 C 0.94715 0.75021 0.42944 0.0
C266 C 0.90776 0.77494 0.38264 0.0
C267 C 0.90456 0.75469 0.33017 0.0
C268 C 0.92223 0.73168 0.32942 0.0
C269 C 0.94305 0.72955 0.37971 0.0
C270 C 0.889 0.79948 0.38636 0.0
C271 C 0.91978 0.70982 0.27398 0.0
H272 H 0.817 0.74307 0.23578 0.0
H273 H 0.87468 0.79022 0.11678 0.0
H274 H 0.86336 0.71364 0.3541 0.0
H275 H 0.85107 0.74454 0.39296 0.0
H276 H 0.82793 0.72321 0.34362 0.0
H277 H 0.92052 0.79542 0.15075 0.0
H278 H 0.92272 0.80082 0.24368 0.0
H279 H 0.93402 0.76907 0.20716 0.0
H280 H 0.93265 0.78881 0.46873 0.0
H281 H 0.95667 0.71204 0.37923 0.0
H282 H 0.86728 0.79282 0.38529 0.0
H283 H 0.89236 0.81277 0.34017 0.0
H284 H 0.89249 0.81186 0.43426 0.0
H285 H 0.89876 0.70123 0.27347 0.0
H286 H 0.93456 0.6928 0.282 0.0
H287 H 0.92349 0.71897 0.2218 0.0
C288 C 0.74278 0.37514 0.65777 0.0
C289 C 0.7361 0.34827 0.67697 0.0
C290 C 0.74724 0.39536 0.70882 0.0
C291 C 0.74424 0.38863 0.78044 0.0
C292 C 0.73722 0.3616 0.79994 0.0
C293 C 0.73355 0.3417 0.74805 0.0
C294 C 0.75518 0.42391 0.68622 0.0
C295 C 0.73313 0.35379 0.87557 0.0
C296 C 0.77664 0.43467 0.91766 0.0
C297 C 0.75465 0.45162 0.93503 0.0
C298 C 0.77359 0.41396 0.86733 0.0
C299 C 0.74776 0.41 0.83503 0.0
C300 C 0.72525 0.42659 0.85468 0.0
C301 C 0.72911 0.4475 0.90386 0.0
C302 C 0.79815 0.39696 0.84704 0.0
C303 C 0.69724 0.42257 0.82291 0.0
H304 H 0.74488 0.38023 0.60293 0.0
H305 H 0.72806 0.32101 0.76322 0.0
H306 H 0.73926 0.43875 0.7028 0.0
H307 H 0.7746 0.43003 0.71193 0.0
H308 H 0.75781 0.42551 0.62875 0.0
H309 H 0.72751 0.33188 0.88191 0.0
H310 H 0.7521 0.35779 0.90573 0.0
H311 H 0.71671 0.36658 0.89887 0.0
H312 H 0.79641 0.43844 0.9415 0.0
H313 H 0.71234 0.46101 0.91755 0.0
H314 H 0.80263 0.39988 0.79073 0.0
H315 H 0.79376 0.37489 0.85496 0.0
H316 H 0.81668 0.40246 0.87764 0.0
H317 H 0.69804 0.42678 0.76604 0.0
H318 H 0.68162 0.4362 0.84682 0.0
H319 H 0.69058 0.40098 0.82946 0.0
C320 C 0.66864 0.27856 0.27498 0.0
C321 C 0.6621 0.276 0.34607 0.0
C322 C 0.64867 0.27517 0.22315 0.0
C323 C 0.62159 0.26843 0.24271 0.0
C324 C 0.61489 0.26548 0.31436 0.0
C325 C 0.63519 0.26965 0.36536 0.0
C326 C 0.65647 0.2792 0.1475 0.0
C327 C 0.5863 0.25784 0.33704 0.0
C328 C 0.56288 0.28378 0.11898 0.0
C329 C 0.55864 0.25821 0.08796 0.0
C330 C 0.58378 0.28758 0.16822 0.0
C331 C 0.60021 0.26497 0.18813 0.0
C332 C 0.59611 0.23911 0.15604 0.0
C333 C 0.57543 0.23612 0.10563 0.0
C334 C 0.58796 0.31563 0.19973 0.0
C335 C 0.61293 0.21445 0.1766 0.0
H336 H 0.68936 0.2838 0.25975 0.0
H337 H 0.63012 0.26755 0.4202 0.0
H338 H 0.65243 0.2602 0.11746 0.0
H339 H 0.64373 0.29565 0.1241 0.0
H340 H 0.67838 0.28476 0.14113 0.0
H341 H 0.58466 0.25535 0.39455 0.0
H342 H 0.5716 0.27385 0.32017 0.0
H343 H 0.58003 0.23838 0.31162 0.0
H344 H 0.54948 0.30063 0.1051 0.0
H345 H 0.57157 0.21633 0.08193 0.0
H346 H 0.60956 0.32216 0.19315 0.0
H347 H 0.58375 0.31493 0.25661 0.0
H348 H 0.57443 0.33132 0.17567 0.0
H349 H 0.63501 0.21867 0.16851 0.0
H350 H 0.60728 0.19588 0.14628 0.0
H351 H 0.61003 0.2101 0.23299 0.0
C352 C 0.22392 0.1668 0.78352 0.0
C353 C 0.24061 0.16666 0.84301 0.0
C354 C 0.2278 0.14764 0.72974 0.0
C355 C 0.24827 0.12727 0.73684 0.0
C356 C 0.2653 0.12722 0.79694 0.0
C357 C 0.26152 0.14725 0.84897 0.0
C358 C 0.20973 0.14901 0.66581 0.0
C359 C 0.2869 0.10548 0.8073 0.0
C360 C 0.23706 0.06013 0.64041 0.0
C361 C 0.25658 0.06163 0.58699 0.0
C362 C 0.23429 0.08124 0.68962 0.0
C363 C 0.2507 0.10505 0.68365 0.0
C364 C 0.26946 0.10733 0.62747 0.0
C365 C 0.27246 0.08539 0.58035 0.0
C366 C 0.21425 0.07775 0.74897 0.0
C367 C 0.28662 0.13274 0.61772 0.0
H368 H 0.20788 0.18206 0.779 0.0
H369 H 0.27434 0.14726 0.89521 0.0
H370 H 0.22241 0.14877 0.61775 0.0
H371 H 0.19621 0.13077 0.66391 0.0
H372 H 0.19669 0.16767 0.66529 0.0
H373 H 0.29872 0.10855 0.85626 0.0
H374 H 0.2771 0.08497 0.80905 0.0
H375 H 0.30135 0.10545 0.76265 0.0
H376 H 0.22426 0.04208 0.64436 0.0
H377 H 0.2876 0.08654 0.53917 0.0
H378 H 0.1987 0.0943 0.74753 0.0
H379 H 0.22515 0.07941 0.79966 0.0
H380 H 0.20353 0.05769 0.74704 0.0
H381 H 0.2734 0.15123 0.6179 0.0
H382 H 0.29841 0.13227 0.56814 0.0
H383 H 0.30122 0.13481 0.66178 0.0
C384 C 0.37043 0.74733 0.36661 0.0
C385 C 0.34371 0.74018 0.34733 0.0
C386 C 0.39067 0.75168 0.31564 0.0
C387 C 0.38413 0.74805 0.24407 0.0
C388 C 0.35726 0.74053 0.22452 0.0
C389 C 0.33731 0.73707 0.27627 0.0
C390 C 0.41904 0.76017 0.33827 0.0
C391 C 0.34966 0.73569 0.14901 0.0
C392 C 0.42978 0.78023 0.10588 0.0
C393 C 0.44706 0.75836 0.08955 0.0
C394 C 0.40911 0.77721 0.15622 0.0
C395 C 0.40552 0.75153 0.1896 0.0
C396 C 0.42245 0.72912 0.17104 0.0
C397 C 0.4433 0.73296 0.12178 0.0
C398 C 0.39171 0.80165 0.17526 0.0
C399 C 0.41882 0.70125 0.20395 0.0
H400 H 0.37539 0.74987 0.42141 0.0
H401 H 0.31673 0.73132 0.26096 0.0
H402 H 0.43412 0.74433 0.32256 0.0
H403 H 0.42493 0.77952 0.31182 0.0
H404 H 0.42051 0.76322 0.39564 0.0
H405 H 0.32795 0.72936 0.14274 0.0
H406 H 0.3531 0.75461 0.11815 0.0
H407 H 0.36294 0.71951 0.12643 0.0
H408 H 0.43323 0.79989 0.08112 0.0
H409 H 0.45702 0.71626 0.10878 0.0
H410 H 0.39438 0.80651 0.23147 0.0
H411 H 0.36975 0.79689 0.16697 0.0
H412 H 0.39703 0.82011 0.14413 0.0
H413 H 0.42288 0.70251 0.26085 0.0
H414 H 0.43274 0.68567 0.18094 0.0
H415 H 0.39738 0.69419 0.19735 0.0
C416 C 0.77177 0.8749 0.85717 0.0
C417 C 0.76109 0.8484 0.84982 0.0
C418 C 0.76698 0.89507 0.80629 0.0
C419 C 0.75166 0.88841 0.74576 0.0
C420 C 0.74058 0.86176 0.73839 0.0
C421 C 0.74516 0.84216 0.79089 0.0
C422 C 0.77866 0.92342 0.81687 0.0
C423 C 0.72463 0.85369 0.67402 0.0
C424 C 0.72249 0.94765 0.64034 0.0
C425 C 0.74305 0.95182 0.5905 0.0
C426 C 0.72476 0.92682 0.69057 0.0
C427 C 0.74784 0.90925 0.68966 0.0
C428 C 0.76797 0.9125 0.63705 0.0
C429 C 0.76551 0.934 0.58869 0.0
C430 C 0.70301 0.9243 0.74616 0.0
C431 C 0.79258 0.89385 0.63319 0.0
H432 H 0.784 0.87985 0.90272 0.0
H433 H 0.73709 0.82162 0.78447 0.0
H434 H 0.79395 0.92787 0.77561 0.0
H435 H 0.7622 0.939 0.81231 0.0
H436 H 0.78871 0.92574 0.86859 0.0
H437 H 0.71679 0.83236 0.67702 0.0
H438 H 0.70706 0.86776 0.66633 0.0
H439 H 0.73791 0.85553 0.62725 0.0
H440 H 0.70496 0.96124 0.64099 0.0
H441 H 0.78164 0.93747 0.55096 0.0
H442 H 0.71219 0.92821 0.79823 0.0
H443 H 0.69461 0.90319 0.74698 0.0
H444 H 0.68588 0.93893 0.73806 0.0
H445 H 0.80484 0.89733 0.58514 0.0
H446 H 0.78604 0.87208 0.63448 0.0
H447 H 0.80593 0.89735 0.67921 0.0
C448 C 0.83675 0.77857 0.77335 0.0
C449 C 0.84325 0.7757 0.8444 0.0
C450 C 0.85671 0.77521 0.72153 0.0
C451 C 0.88372 0.76816 0.74105 0.0
C452 C 0.89038 0.76487 0.81265 0.0
C453 C 0.8701 0.76904 0.86365 0.0
C454 C 0.84897 0.77963 0.64596 0.0
C455 C 0.91889 0.75688 0.83529 0.0
C456 C 0.92983 0.73608 0.60358 0.0
C457 C 0.94684 0.7581 0.58682 0.0
C458 C 0.90908 0.73903 0.65375 0.0
C459 C 0.90512 0.76478 0.68652 0.0
C460 C 0.92176 0.78734 0.66747 0.0
C461 C 0.94273 0.78358 0.61844 0.0
C462 C 0.89203 0.71442 0.67338 0.0
C463 C 0.91775 0.81528 0.69971 0.0
H464 H 0.81607 0.78406 0.75818 0.0
H465 H 0.87514 0.7667 0.91847 0.0
H466 H 0.86183 0.7961 0.62312 0.0
H467 H 0.85291 0.76074 0.61538 0.0
H468 H 0.8271 0.78536 0.63961 0.0
H469 H 0.92047 0.75409 0.89272 0.0
H470 H 0.92503 0.7375 0.80929 0.0
H471 H 0.93372 0.77286 0.81906 0.0
H472 H 0.93358 0.71636 0.57939 0.0
H473 H 0.95626 0.80038 0.60521 0.0
H474 H 0.86999 0.71888 0.66527 0.0
H475 H 0.89486 0.70976 0.72964 0.0
H476 H 0.89754 0.69595 0.6425 0.0
H477 H 0.89619 0.82199 0.69315 0.0
H478 H 0.9314 0.83097 0.67618 0.0
H479 H 0.92192 0.81431 0.75659 0.0
C480 C 0.76045 0.34231 0.29285 0.0
C481 C 0.7445 0.3485 0.35172 0.0
C482 C 0.76504 0.36194 0.24044 0.0
C483 C 0.75392 0.38858 0.24784 0.0
C484 C 0.7386 0.39521 0.30834 0.0
C485 C 0.73381 0.37501 0.35912 0.0
C486 C 0.781 0.35391 0.17612 0.0
C487 C 0.72689 0.42354 0.31895 0.0
C488 C 0.78295 0.44785 0.14238 0.0
C489 C 0.76239 0.45195 0.09244 0.0
C490 C 0.78073 0.42704 0.19267 0.0
C491 C 0.75769 0.40943 0.19175 0.0
C492 C 0.73754 0.41263 0.1391 0.0
C493 C 0.73996 0.4341 0.09066 0.0
C494 C 0.80249 0.42457 0.24831 0.0
C495 C 0.71296 0.39394 0.13525 0.0
H496 H 0.76852 0.32177 0.28638 0.0
H497 H 0.72156 0.37993 0.40463 0.0
H498 H 0.76771 0.3557 0.12932 0.0
H499 H 0.79853 0.36803 0.16846 0.0
H500 H 0.7889 0.3326 0.17915 0.0
H501 H 0.71686 0.42585 0.37067 0.0
H502 H 0.74332 0.43914 0.3144 0.0
H503 H 0.71157 0.42798 0.27769 0.0
H504 H 0.80046 0.46147 0.14302 0.0
H505 H 0.72383 0.43752 0.05288 0.0
H506 H 0.81095 0.40348 0.24915 0.0
H507 H 0.79331 0.42846 0.30037 0.0
H508 H 0.81959 0.43924 0.24025 0.0
H509 H 0.71954 0.37218 0.13648 0.0
H510 H 0.70066 0.39742 0.08723 0.0
H511 H 0.69964 0.3974 0.18131 0.0
C512 C 0.13587 0.24768 0.85906 0.0
C513 C 0.16256 0.24027 0.84025 0.0
C514 C 0.11569 0.2519 0.80781 0.0
C515 C 0.12227 0.24789 0.73643 0.0
C516 C 0.14913 0.24015 0.71732 0.0
C517 C 0.16903 0.23681 0.76936 0.0
C518 C 0.08734 0.2606 0.82998 0.0
C519 C 0.15676 0.23492 0.64203 0.0
C520 C 0.06274 0.23241 0.61552 0.0
C521 C 0.05885 0.25772 0.58288 0.0
C522 C 0.08383 0.2287 0.66423 0.0
C523 C 0.10089 0.25114 0.68179 0.0
C524 C 0.09723 0.27668 0.6478 0.0
C525 C 0.07631 0.27958 0.59804 0.0
C526 C 0.08751 0.20096 0.69784 0.0
C527 C 0.11477 0.30115 0.66577 0.0
H528 H 0.13086 0.25048 0.91375 0.0
H529 H 0.18959 0.23083 0.75447 0.0
H530 H 0.08149 0.2798 0.80274 0.0
H531 H 0.07223 0.24471 0.81484 0.0
H532 H 0.08587 0.26401 0.88721 0.0
H533 H 0.17849 0.22861 0.63608 0.0
H534 H 0.14352 0.21858 0.62 0.0
H535 H 0.15327 0.25366 0.61047 0.0
H536 H 0.0489 0.21571 0.60338 0.0
H537 H 0.07277 0.29916 0.57295 0.0
H538 H 0.08341 0.20244 0.75467 0.0
H539 H 0.10896 0.1939 0.69156 0.0
H540 H 0.07362 0.18527 0.67515 0.0
H541 H 0.1121 0.30642 0.72173 0.0
H542 H 0.10956 0.3194 0.63375 0.0
H543 H 0.13671 0.2962 0.65787 0.0
C544 C 0.28133 0.66782 0.28715 0.0
C545 C 0.2658 0.66641 0.34846 0.0
C546 C 0.27794 0.64845 0.23366 0.0
C547 C 0.25908 0.6267 0.2427 0.0
C548 C 0.24321 0.62535 0.30468 0.0
C549 C 0.24655 0.64548 0.35664 0.0
C550 C 0.29481 0.65107 0.16793 0.0
C551 C 0.22329 0.60221 0.31693 0.0
C552 C 0.23457 0.58422 0.08768 0.0
C553 C 0.25174 0.56129 0.09192 0.0
C554 C 0.23718 0.60608 0.13514 0.0
C555 C 0.25701 0.6046 0.18908 0.0
C556 C 0.27478 0.58169 0.19249 0.0
C557 C 0.2722 0.56058 0.14315 0.0
C558 C 0.21841 0.6305 0.12833 0.0
C559 C 0.29607 0.57912 0.24933 0.0
H560 H 0.29616 0.68418 0.28112 0.0
H561 H 0.23466 0.64449 0.40437 0.0
H562 H 0.30913 0.63351 0.16375 0.0
H563 H 0.28133 0.6505 0.1213 0.0
H564 H 0.30691 0.67035 0.16681 0.0
H565 H 0.2122 0.60435 0.36727 0.0
H566 H 0.20807 0.60138 0.27397 0.0
H567 H 0.23442 0.58238 0.31697 0.0
H568 H 0.21867 0.58472 0.04825 0.0
H569 H 0.2859 0.54315 0.14531 0.0
H570 H 0.23055 0.64971 0.12722 0.0
H571 H 0.20468 0.63161 0.17435 0.0
H572 H 0.20563 0.6295 0.08039 0.0
H573 H 0.31043 0.59669 0.24711 0.0
H574 H 0.30805 0.55984 0.24508 0.0
H575 H 0.286 0.57965 0.30125 0.0
C576 C 0.36966 0.7384 0.66613 0.0
C577 C 0.34308 0.74888 0.67335 0.0
C578 C 0.38975 0.74329 0.71711 0.0
C579 C 0.38296 0.75854 0.77765 0.0
C580 C 0.35626 0.7695 0.78483 0.0
C581 C 0.33672 0.7648 0.73221 0.0
C582 C 0.41814 0.73173 0.70669 0.0
C583 C 0.34808 0.7854 0.84916 0.0
C584 C 0.42869 0.74427 0.93424 0.0
C585 C 0.44661 0.76664 0.93239 0.0
C586 C 0.40705 0.74203 0.88623 0.0
C587 C 0.40372 0.76232 0.83397 0.0
C588 C 0.42135 0.78536 0.83319 0.0
C589 C 0.44235 0.78739 0.88303 0.0
C590 C 0.38837 0.71743 0.88993 0.0
C591 C 0.41875 0.80728 0.77799 0.0
H592 H 0.37472 0.7262 0.62061 0.0
H593 H 0.31613 0.77272 0.73849 0.0
H594 H 0.43363 0.74826 0.71157 0.0
H595 H 0.42259 0.71638 0.74785 0.0
H596 H 0.42056 0.72177 0.6549 0.0
H597 H 0.32679 0.7933 0.84582 0.0
H598 H 0.34976 0.77203 0.89584 0.0
H599 H 0.36215 0.80294 0.85727 0.0
H600 H 0.43221 0.72801 0.97164 0.0
H601 H 0.45601 0.80487 0.88238 0.0
H602 H 0.39187 0.70409 0.84388 0.0
H603 H 0.36663 0.72401 0.88856 0.0
H604 H 0.39183 0.70513 0.93795 0.0
H605 H 0.42283 0.79827 0.72581 0.0
H606 H 0.43324 0.8245 0.78659 0.0
H607 H 0.3976 0.81555 0.77702 0.0
C608 C 0.77269 0.84194 0.24624 0.0
C609 C 0.7698 0.84841 0.17519 0.0
C610 C 0.769 0.86186 0.29807 0.0
C611 C 0.76162 0.8888 0.27854 0.0
C612 C 0.7583 0.89543 0.20693 0.0
C613 C 0.76279 0.87519 0.15592 0.0
C614 C 0.77345 0.85418 0.37367 0.0
C615 C 0.74998 0.92386 0.18431 0.0
C616 C 0.72909 0.93452 0.41617 0.0
C617 C 0.75094 0.95173 0.43314 0.0
C618 C 0.73223 0.91384 0.36581 0.0
C619 C 0.758 0.91017 0.33308 0.0
C620 C 0.78038 0.92702 0.35231 0.0
C621 C 0.77642 0.94789 0.40154 0.0
C622 C 0.70782 0.89654 0.34601 0.0
C623 C 0.80833 0.92332 0.32006 0.0
H624 H 0.77843 0.82132 0.26143 0.0
H625 H 0.76043 0.8802 0.10109 0.0
H626 H 0.78975 0.86721 0.39662 0.0
H627 H 0.75451 0.85793 0.40413 0.0
H628 H 0.77939 0.83234 0.38003 0.0
H629 H 0.74719 0.9254 0.12686 0.0
H630 H 0.73054 0.92977 0.21023 0.0
H631 H 0.76575 0.9389 0.20063 0.0
H632 H 0.70936 0.93807 0.44036 0.0
H633 H 0.79309 0.96158 0.41496 0.0
H634 H 0.71249 0.87453 0.35403 0.0
H635 H 0.70315 0.89935 0.28974 0.0
H636 H 0.68931 0.90186 0.37684 0.0
H637 H 0.81528 0.90182 0.32663 0.0
H638 H 0.82386 0.93716 0.3436 0.0
H639 H 0.8073 0.92746 0.26318 0.0
C640 C 0.6682 0.25138 0.73086 0.0
C641 C 0.66215 0.26722 0.67165 0.0
C642 C 0.64854 0.2471 0.78331 0.0
C643 C 0.622 0.25839 0.77562 0.0
C644 C 0.61553 0.27363 0.71484 0.0
C645 C 0.63577 0.27813 0.66403 0.0
C646 C 0.65642 0.23124 0.84796 0.0
C647 C 0.5873 0.28551 0.70389 0.0
C648 C 0.56255 0.22966 0.88089 0.0
C649 C 0.55843 0.25032 0.93057 0.0
C650 C 0.58341 0.23177 0.83072 0.0
C651 C 0.60107 0.25478 0.83156 0.0
C652 C 0.59784 0.27503 0.88399 0.0
C653 C 0.57632 0.27273 0.93227 0.0
C654 C 0.58588 0.2099 0.77532 0.0
C655 C 0.61659 0.29957 0.8878 0.0
H656 H 0.68865 0.24316 0.7375 0.0
H657 H 0.63096 0.2903 0.61828 0.0
H658 H 0.65455 0.24464 0.89456 0.0
H659 H 0.64229 0.21372 0.85566 0.0
H660 H 0.67771 0.2233 0.84532 0.0
H661 H 0.58512 0.2955 0.65206 0.0
H662 H 0.57162 0.26915 0.70843 0.0
H663 H 0.5829 0.30091 0.74499 0.0
H664 H 0.54893 0.21214 0.88033 0.0
H665 H 0.5729 0.28894 0.96988 0.0
H666 H 0.60691 0.20132 0.7749 0.0
H667 H 0.58216 0.21904 0.72312 0.0
H668 H 0.57111 0.19288 0.78329 0.0
H669 H 0.63831 0.29291 0.8868 0.0
H670 H 0.6131 0.31195 0.93569 0.0
H671 H 0.61323 0.31287 0.84161 0.0
C672 C 0.22847 0.13814 0.15763 0.0
C673 C 0.23557 0.16555 0.17025 0.0
C674 C 0.23266 0.11791 0.20886 0.0
C675 C 0.24427 0.12525 0.27411 0.0
C676 C 0.25166 0.1528 0.28692 0.0
C677 C 0.24727 0.17255 0.23496 0.0
C678 C 0.2246 0.08868 0.19333 0.0
C679 C 0.26422 0.16143 0.35562 0.0
C680 C 0.23387 0.07712 0.42826 0.0
C681 C 0.25847 0.06249 0.42791 0.0
C682 C 0.22902 0.09792 0.37899 0.0
C683 C 0.24934 0.10404 0.32846 0.0
C684 C 0.27459 0.0898 0.32967 0.0
C685 C 0.27884 0.06922 0.37955 0.0
C686 C 0.20195 0.11281 0.37979 0.0
C687 C 0.29689 0.09586 0.27733 0.0
H688 H 0.21939 0.13252 0.10801 0.0
H689 H 0.25293 0.19363 0.24544 0.0
H690 H 0.24275 0.07512 0.19761 0.0
H691 H 0.20942 0.08151 0.23234 0.0
H692 H 0.21566 0.08632 0.14031 0.0
H693 H 0.26857 0.18376 0.35761 0.0
H694 H 0.25026 0.15618 0.39928 0.0
H695 H 0.28363 0.15014 0.36447 0.0
H696 H 0.21815 0.0716 0.4656 0.0
H697 H 0.2979 0.05786 0.38012 0.0
H698 H 0.19083 0.10888 0.33024 0.0
H699 H 0.20535 0.13524 0.38341 0.0
H700 H 0.18877 0.10632 0.42407 0.0
H701 H 0.28934 0.09167 0.22373 0.0
H702 H 0.31557 0.08338 0.28654 0.0
H703 H 0.30254 0.11786 0.27959 0.0
C704 C 0.22994 0.33429 0.05937 0.0
C705 C 0.23426 0.32008 0.99669 0.0
C706 C 0.22957 0.36301 0.06108 0.0
C707 C 0.23432 0.3779 0.99886 0.0
C708 C 0.23845 0.36368 0.93522 0.0
C709 C 0.23802 0.33488 0.93473 0.0
C710 C 0.22441 0.3774 0.12965 0.0
C711 C 0.24412 0.37885 0.86809 0.0
C712 C 0.21411 0.4531 0.9916 0.0
C713 C 0.23887 0.46586 0.00824 0.0
C714 C 0.21222 0.42441 0.98864 0.0
C715 C 0.2359 0.40834 1.00108 0.0
C716 C 0.26107 0.42136 0.01707 0.0
C717 C 0.26216 0.45004 0.02118 0.0
C718 C 0.18491 0.41131 0.97296 0.0
C719 C 0.28687 0.405 0.02946 0.0
H720 H 0.22671 0.32288 0.10725 0.0
H721 H 0.2415 0.32394 0.88626 0.0
H722 H 0.24282 0.38923 0.14518 0.0
H723 H 0.20732 0.39222 0.12397 0.0
H724 H 0.21932 0.36285 0.1723 0.0
H725 H 0.24638 0.36479 0.82283 0.0
H726 H 0.22731 0.39349 0.85685 0.0
H727 H 0.26321 0.39101 0.87356 0.0
H728 H 0.19624 0.46569 0.98164 0.0
H729 H 0.28126 0.46027 0.03344 0.0
H730 H 0.17897 0.39753 0.01647 0.0
H731 H 0.18643 0.39854 0.92522 0.0
H732 H 0.16845 0.42673 0.96526 0.0
H733 H 0.28417 0.39143 0.07539 0.0
H734 H 0.30496 0.41832 0.03868 0.0
H735 H 0.29108 0.39166 0.98378 0.0
C736 C 0.17418 0.74785 0.46076 0.0
C737 C 0.18878 0.73776 0.51848 0.0
C738 C 0.1455 0.74852 0.46049 0.0
C739 C 0.13095 0.73871 0.51921 0.0
C740 C 0.14546 0.72805 0.57721 0.0
C741 C 0.17423 0.72773 0.57624 0.0
C742 C 0.13079 0.76012 0.39769 0.0
C743 C 0.13057 0.71727 0.64057 0.0
C744 C 0.05887 0.76619 0.54318 0.0
C745 C 0.04311 0.74491 0.51533 0.0
C746 C 0.0875 0.76424 0.54594 0.0
C747 C 0.10055 0.74036 0.52021 0.0
C748 C 0.0846 0.71868 0.49254 0.0
C749 C 0.05599 0.72127 0.49029 0.0
C750 C 0.10378 0.78789 0.57529 0.0
C751 C 0.09776 0.6929 0.46476 0.0
H752 H 0.18516 0.75559 0.41574 0.0
H753 H 0.18531 0.71978 0.62091 0.0
H754 H 0.11635 0.74474 0.3762 0.0
H755 H 0.11852 0.77824 0.41344 0.0
H756 H 0.14512 0.7664 0.35562 0.0
H757 H 0.1448 0.7088 0.68035 0.0
H758 H 0.11845 0.73397 0.66487 0.0
H759 H 0.11596 0.70099 0.6249 0.0
H760 H 0.0487 0.7845 0.56194 0.0
H761 H 0.04356 0.70482 0.46932 0.0
H762 H 0.11734 0.79643 0.53425 0.0
H763 H 0.11711 0.78068 0.61846 0.0
H764 H 0.09044 0.80458 0.59525 0.0
H765 H 0.11119 0.69797 0.41988 0.0
H766 H 0.08239 0.67756 0.44743 0.0
H767 H 0.11088 0.68349 0.50553 0.0
C768 C 0.78182 0.6793 0.94502 0.0
C769 C 0.77142 0.69382 1.00243 0.0
C770 C 0.78203 0.6505 0.94446 0.0
C771 C 0.77154 0.63596 1.00255 0.0
C772 C 0.76136 0.65048 0.06093 0.0
C773 C 0.76149 0.67918 0.06023 0.0
C774 C 0.79317 0.63564 0.88144 0.0
C775 C 0.74994 0.6357 0.12382 0.0
C776 C 0.74542 0.56336 0.9789 0.0
C777 C 0.76695 0.548 1.00691 0.0
C778 C 0.74685 0.59203 0.97603 0.0
C779 C 0.77043 0.60553 1.00191 0.0
C780 C 0.79234 0.59 0.02989 0.0
C781 C 0.79029 0.56133 0.03218 0.0
C782 C 0.72297 0.60786 0.94634 0.0
C783 C 0.81781 0.60367 0.05788 0.0
H784 H 0.78966 0.69041 0.90031 0.0
H785 H 0.75349 0.69015 0.10502 0.0
H786 H 0.80969 0.62136 0.89749 0.0
H787 H 0.77675 0.62314 0.85715 0.0
H788 H 0.80142 0.64993 0.84152 0.0
H789 H 0.74337 0.65004 0.16564 0.0
H790 H 0.73209 0.62308 0.10807 0.0
H791 H 0.76554 0.62157 0.14564 0.0
H792 H 0.72734 0.55283 0.96001 0.0
H793 H 0.80692 0.5492 0.05332 0.0
H794 H 0.72999 0.62123 0.90306 0.0
H795 H 0.71416 0.62138 0.98716 0.0
H796 H 0.70654 0.59419 0.9264 0.0
H797 H 0.82708 0.61684 0.01705 0.0
H798 H 0.83335 0.58858 0.07568 0.0
H799 H 0.81241 0.61714 0.10247 0.0
C800 C 0.8314 0.28553 0.5756 0.0
C801 C 0.81669 0.27526 0.51834 0.0
C802 C 0.86017 0.28548 0.57582 0.0
C803 C 0.87451 0.27486 0.51752 0.0
C804 C 0.85979 0.26477 0.45935 0.0
C805 C 0.83112 0.26515 0.46039 0.0
C806 C 0.87524 0.29653 0.63865 0.0
C807 C 0.87434 0.25322 0.39624 0.0
C808 C 0.94908 0.29334 0.48682 0.0
C809 C 0.96239 0.26994 0.51185 0.0
C810 C 0.92044 0.29549 0.4895 0.0
C811 C 0.90492 0.27361 0.51766 0.0
C812 C 0.9184 0.24996 0.54327 0.0
C813 C 0.94703 0.24843 0.54 0.0
C814 C 0.90681 0.32102 0.46174 0.0
C815 C 0.90257 0.22612 0.57316 0.0
H816 H 0.82045 0.2935 0.62043 0.0
H817 H 0.82 0.25724 0.41572 0.0
H818 H 0.88776 0.28004 0.66259 0.0
H819 H 0.88951 0.31303 0.62245 0.0
H820 H 0.86111 0.30481 0.67889 0.0
H821 H 0.85987 0.24666 0.3547 0.0
H822 H 0.88845 0.26876 0.37412 0.0
H823 H 0.88693 0.23531 0.41183 0.0
H824 H 0.9612 0.30996 0.4656 0.0
H825 H 0.95754 0.23031 0.55872 0.0
H826 H 0.89381 0.33038 0.50283 0.0
H827 H 0.89318 0.31567 0.41742 0.0
H828 H 0.92188 0.33651 0.44365 0.0
H829 H 0.88937 0.23321 0.61668 0.0
H830 H 0.91622 0.20963 0.59282 0.0
H831 H 0.88892 0.21737 0.53255 0.0
C832 C 0.74375 0.17907 0.56092 0.0
C833 C 0.73382 0.19381 0.50325 0.0
C834 C 0.74386 0.15036 0.56129 0.0
C835 C 0.73368 0.13595 0.50271 0.0
C836 C 0.72318 0.15061 0.44477 0.0
C837 C 0.7234 0.1794 0.44567 0.0
C838 C 0.75529 0.13546 0.62403 0.0
C839 C 0.71203 0.13586 0.38155 0.0
C840 C 0.75987 0.06342 0.47814 0.0
C841 C 0.73835 0.04799 0.50589 0.0
C842 C 0.75841 0.09209 0.47566 0.0
C843 C 0.73482 0.10553 0.50166 0.0
C844 C 0.71292 0.08992 0.52937 0.0
C845 C 0.715 0.06125 0.53127 0.0
C846 C 0.78227 0.10801 0.44624 0.0
C847 C 0.68745 0.10352 0.55749 0.0
H848 H 0.75176 0.18995 0.60584 0.0
H849 H 0.71556 0.19059 0.40106 0.0
H850 H 0.73971 0.12127 0.64559 0.0
H851 H 0.77317 0.12289 0.60818 0.0
H852 H 0.76184 0.14972 0.66607 0.0
H853 H 0.70374 0.15022 0.34183 0.0
H854 H 0.72845 0.12343 0.35709 0.0
H855 H 0.69554 0.12153 0.3974 0.0
H856 H 0.77796 0.05295 0.45918 0.0
H857 H 0.69838 0.04907 0.55221 0.0
H858 H 0.79107 0.12144 0.48727 0.0
H859 H 0.77523 0.12146 0.40314 0.0
H860 H 0.79871 0.09439 0.42615 0.0
H861 H 0.69284 0.1169 0.60228 0.0
H862 H 0.67192 0.08839 0.57504 0.0
H863 H 0.67816 0.11678 0.51682 0.0
C864 C 0.33158 0.24832 0.95897 0.0
C865 C 0.31676 0.23822 0.01626 0.0
C866 C 0.36025 0.24895 0.95945 0.0
C867 C 0.37458 0.23908 0.0185 0.0
C868 C 0.35986 0.22843 0.07612 0.0
C869 C 0.33109 0.22816 0.07439 0.0
C870 C 0.3752 0.26055 0.89706 0.0
C871 C 0.37451 0.21759 0.1398 0.0
C872 C 0.44954 0.22144 0.99069 0.0
C873 C 0.46243 0.24506 0.01586 0.0
C874 C 0.42093 0.2189 0.99265 0.0
C875 C 0.40498 0.24061 0.02018 0.0
C876 C 0.41804 0.26445 0.04612 0.0
C877 C 0.44667 0.26636 0.04363 0.0
C878 C 0.40776 0.19317 0.96462 0.0
C879 C 0.40176 0.28813 0.07531 0.0
H880 H 0.32078 0.2561 0.91367 0.0
H881 H 0.31984 0.2202 0.11873 0.0
H882 H 0.3875 0.27859 0.91319 0.0
H883 H 0.38964 0.24511 0.87579 0.0
H884 H 0.36102 0.26694 0.85471 0.0
H885 H 0.36013 0.20919 0.17928 0.0
H886 H 0.38909 0.20123 0.12446 0.0
H887 H 0.38664 0.23423 0.16436 0.0
H888 H 0.46197 0.20498 0.96978 0.0
H889 H 0.45684 0.28465 0.0625 0.0
H890 H 0.3945 0.19828 0.91941 0.0
H891 H 0.39447 0.18383 1.0051 0.0
H892 H 0.42313 0.17775 0.9477 0.0
H893 H 0.38836 0.29678 0.03403 0.0
H894 H 0.41511 0.30474 0.09571 0.0
H895 H 0.38828 0.28092 0.11812 0.0
C896 C 0.27814 0.83443 0.4407 0.0
C897 C 0.2707 0.82013 0.50137 0.0
C898 C 0.27851 0.86323 0.43947 0.0
C899 C 0.27136 0.87805 0.50038 0.0
C900 C 0.26424 0.86376 0.56199 0.0
C901 C 0.26397 0.83503 0.56173 0.0
C902 C 0.28619 0.8778 0.37277 0.0
C903 C 0.25659 0.87882 0.62809 0.0
C904 C 0.29273 0.95261 0.51946 0.0
C905 C 0.26838 0.96615 0.50291 0.0
C906 C 0.29416 0.92387 0.51809 0.0
C907 C 0.27061 0.90853 0.49948 0.0
C908 C 0.246 0.92233 0.48216 0.0
C909 C 0.2452 0.95105 0.48426 0.0
C910 C 0.32071 0.90992 0.53715 0.0
C911 C 0.22047 0.90676 0.46205 0.0
H912 H 0.28345 0.82314 0.39388 0.0
H913 H 0.25836 0.82423 0.60906 0.0
H914 H 0.26877 0.89052 0.35457 0.0
H915 H 0.30366 0.89183 0.38235 0.0
H916 H 0.29189 0.86331 0.33046 0.0
H917 H 0.2523 0.86466 0.67215 0.0
H918 H 0.27339 0.89285 0.64371 0.0
H919 H 0.23816 0.89159 0.61876 0.0
H920 H 0.31055 0.96462 0.53361 0.0
H921 H 0.22647 0.96187 0.47151 0.0
H922 H 0.3275 0.89648 0.49375 0.0
H923 H 0.31761 0.89666 0.58353 0.0
H924 H 0.33727 0.92483 0.5489 0.0
H925 H 0.22477 0.89319 0.41689 0.0
H926 H 0.20326 0.92062 0.44817 0.0
H927 H 0.21393 0.89347 0.50598 0.0
C928 C 0.67421 0.76559 0.95989 0.0
C929 C 0.68883 0.7756 0.01768 0.0
C930 C 0.64553 0.76526 0.95934 0.0
C931 C 0.631 0.77528 0.01787 0.0
C932 C 0.64553 0.78581 0.076 0.0
C933 C 0.6743 0.78582 0.07527 0.0
C934 C 0.63076 0.75382 0.8964 0.0
C935 C 0.63068 0.79678 0.13921 0.0
C936 C 0.55629 0.79391 0.98955 0.0
C937 C 0.54308 0.77051 0.01488 0.0
C938 C 0.58494 0.79598 0.99121 0.0
C939 C 0.60059 0.77403 0.01864 0.0
C940 C 0.58721 0.75037 0.04446 0.0
C941 C 0.55856 0.74892 0.04221 0.0
C942 C 0.59847 0.82153 0.96326 0.0
C943 C 0.60317 0.72646 0.07363 0.0
H944 H 0.68518 0.75772 0.91497 0.0
H945 H 0.68539 0.79371 0.12 0.0
H946 H 0.61825 0.73586 0.91202 0.0
H947 H 0.61655 0.76938 0.87477 0.0
H948 H 0.64509 0.74735 0.85447 0.0
H949 H 0.64495 0.80502 0.17923 0.0
H950 H 0.61634 0.81329 0.12343 0.0
H951 H 0.61827 0.78025 0.16329 0.0
H952 H 0.54408 0.8106 0.96895 0.0
H953 H 0.54813 0.73079 0.06114 0.0
H954 H 0.61195 0.8162 0.91867 0.0
H955 H 0.61159 0.83087 1.00413 0.0
H956 H 0.58332 0.83702 0.94551 0.0
H957 H 0.61667 0.71781 0.03261 0.0
H958 H 0.5896 0.70991 0.09333 0.0
H959 H 0.61653 0.73344 0.11698 0.0
loop_
_geom_bond_atom_site_label_1
_geom_bond_atom_site_label_2
_geom_bond_distance
_geom_bond_site_symmetry_2
_ccdc_geom_bond_type
Fe0 O2 1.919 . S
Fe0 O5 1.997 . S
Fe0 O6 2.002 . S
Fe0 O11 1.976 . S
Fe0 O14 1.996 . S
Fe1 O2 1.918 1_556 S
Fe1 O9 1.997 . S
Fe1 O12 1.996 . S
Fe1 O16 1.976 . S
Fe1 O19 2.002 . S
O2 Fe0 1.919 . S
O2 Fe1 1.918 1_554 S
O2 Fe3 1.918 1_554 S
Fe3 O2 1.918 1_556 S
Fe3 O4 1.996 1_556 S
Fe3 O13 1.969 1_556 S
Fe3 O17 2.002 . S
Fe3 O20 2.003 . S
O4 Fe3 1.996 1_554 S
O4 C21 1.295 . S
O5 Fe0 1.997 . S
O5 C21 1.235 . S
O6 Fe0 2.002 . S
O6 C7 1.295 . S
C7 O6 1.295 . S
C7 O9 1.235 1_554 S
C8 O13 1.287 . S
C8 O14 1.255 . S
O9 Fe1 1.997 . S
O9 C7 1.235 1_556 S
C10 O16 1.287 . S
C10 O17 1.255 . S
O11 Fe0 1.976 . S
O11 C18 1.287 1_554 S
O12 Fe1 1.996 . S
O12 C18 1.255 . S
O13 Fe3 1.969 1_554 S
O13 C8 1.287 . S
O14 Fe0 1.996 . S
O14 C8 1.255 . S
C15 O19 1.295 . S
C15 O20 1.235 . S
O16 Fe1 1.976 . S
O16 C10 1.287 . S
O17 Fe3 2.002 . S
O17 C10 1.255 . S
C18 O11 1.287 1_556 S
C18 O12 1.255 . S
O19 Fe1 2.002 . S
O19 C15 1.295 . S
O20 Fe3 2.003 . S
O20 C15 1.235 . S
C21 O4 1.295 . S
C21 O5 1.235 . S
Fe22 O24 1.918 . S
Fe22 O27 1.997 . S
Fe22 O28 2.002 . S
Fe22 O33 1.976 . S
Fe22 O36 1.996 . S
Fe23 O24 1.918 . S
Fe23 O31 1.997 . S
Fe23 O34 1.996 . S
Fe23 O38 1.976 . S
Fe23 O41 2.002 . S
O24 Fe22 1.918 . S
O24 Fe23 1.918 . S
O24 Fe25 1.918 . S
Fe25 O24 1.918 . S
Fe25 O26 2.002 . S
Fe25 O35 1.976 . S
Fe25 O39 1.996 . S
Fe25 O42 1.997 . S
O26 Fe25 2.002 . S
O26 C43 1.295 . S
O27 Fe22 1.997 . S
O27 C43 1.235 . S
O28 Fe22 2.002 . S
O28 C29 1.295 . S
C29 O28 1.295 . S
C29 O31 1.235 . S
C30 O35 1.287 . S
C30 O36 1.255 . S
O31 Fe23 1.997 . S
O31 C29 1.235 . S
C32 O38 1.287 . S
C32 O39 1.255 . S
O33 Fe22 1.976 . S
O33 C40 1.287 . S
O34 Fe23 1.996 . S
O34 C40 1.255 . S
O35 Fe25 1.976 . S
O35 C30 1.287 . S
O36 Fe22 1.996 . S
O36 C30 1.255 . S
C37 O41 1.295 . S
C37 O42 1.235 . S
O38 Fe23 1.976 . S
O38 C32 1.287 . S
O39 Fe25 1.996 . S
O39 C32 1.255 . S
C40 O33 1.287 . S
C40 O34 1.255 . S
O41 Fe23 2.002 . S
O41 C37 1.295 . S
O42 Fe25 1.997 . S
O42 C37 1.235 . S
C43 O26 1.295 . S
C43 O27 1.235 . S
Fe44 O46 1.912 1_556 S
Fe44 O49 1.997 . S
Fe44 O50 2.002 . S
Fe44 O55 1.976 . S
Fe44 O58 1.996 . S
Fe45 O46 1.924 . S
Fe45 O53 1.997 . S
Fe45 O56 1.996 . S
Fe45 O60 1.976 . S
Fe45 O63 2.002 . S
O46 Fe44 1.912 1_554 S
O46 Fe45 1.924 . S
O46 Fe47 1.918 . S
Fe47 O46 1.918 . S
Fe47 O48 2.002 1_554 S
Fe47 O57 1.976 1_554 S
Fe47 O61 1.996 . S
Fe47 O64 1.997 . S
O48 Fe47 2.002 1_556 S
O48 C65 1.295 . S
O49 Fe44 1.997 . S
O49 C65 1.235 . S
O50 Fe44 2.002 . S
O50 C51 1.295 . S
C51 O50 1.295 . S
C51 O53 1.235 1_556 S
C52 O57 1.287 . S
C52 O58 1.255 . S
O53 Fe45 1.997 . S
O53 C51 1.235 1_554 S
C54 O60 1.287 . S
C54 O61 1.255 . S
O55 Fe44 1.976 . S
O55 C62 1.287 1_556 S
O56 Fe45 1.996 . S
O56 C62 1.255 . S
O57 Fe47 1.976 1_556 S
O57 C52 1.287 . S
O58 Fe44 1.996 . S
O58 C52 1.255 . S
C59 O63 1.295 . S
C59 O64 1.235 . S
O60 Fe45 1.976 . S
O60 C54 1.287 . S
O61 Fe47 1.996 . S
O61 C54 1.255 . S
C62 O55 1.287 1_554 S
C62 O56 1.255 . S
O63 Fe45 2.002 . S
O63 C59 1.295 . S
O64 Fe47 1.997 . S
O64 C59 1.235 . S
C65 O48 1.295 . S
C65 O49 1.235 . S
Fe66 O68 1.918 . S
Fe66 O71 1.997 . S
Fe66 O72 2.002 . S
Fe66 O77 1.976 . S
Fe66 O80 1.996 . S
Fe67 O68 1.918 . S
Fe67 O75 1.997 . S
Fe67 O78 1.996 . S
Fe67 O82 1.976 . S
Fe67 O85 2.002 . S
O68 Fe66 1.918 . S
O68 Fe67 1.918 . S
O68 Fe69 1.918 . S
Fe69 O68 1.918 . S
Fe69 O70 2.002 . S
Fe69 O79 1.976 . S
Fe69 O83 1.996 . S
Fe69 O86 1.997 . S
O70 Fe69 2.002 . S
O70 C87 1.295 . S
O71 Fe66 1.997 . S
O71 C87 1.235 . S
O72 Fe66 2.002 . S
O72 C73 1.295 . S
C73 O72 1.295 . S
C73 O75 1.235 . S
C74 O79 1.287 . S
C74 O80 1.255 . S
O75 Fe67 1.997 . S
O75 C73 1.235 . S
C76 O82 1.287 . S
C76 O83 1.255 . S
O77 Fe66 1.976 . S
O77 C84 1.287 . S
O78 Fe67 1.996 . S
O78 C84 1.255 . S
O79 Fe69 1.976 . S
O79 C74 1.287 . S
O80 Fe66 1.996 . S
O80 C74 1.255 . S
C81 O85 1.295 . S
C81 O86 1.235 . S
O82 Fe67 1.976 . S
O82 C76 1.287 . S
O83 Fe69 1.996 . S
O83 C76 1.255 . S
C84 O77 1.287 . S
C84 O78 1.255 . S
O85 Fe67 2.002 . S
O85 C81 1.295 . S
O86 Fe69 1.997 . S
O86 C81 1.235 . S
C87 O70 1.295 . S
C87 O71 1.235 . S
C88 N89 1.317 . S
C88 N90 1.360 . S
C88 C91 1.485 . S
N89 C88 1.317 . S
N89 N93 1.370 1_556 S
N90 C88 1.360 . S
N90 C92 1.334 1_556 S
C91 C88 1.485 . S
C91 H95 0.960 . S
C91 H96 0.961 . S
C91 H97 0.960 . S
C92 N90 1.334 1_554 S
C92 N93 1.307 . S
C92 C94 1.486 . S
N93 N89 1.370 1_554 S
N93 C92 1.307 . S
C94 C92 1.486 . S
C94 H98 0.960 . S
C94 H99 0.960 . S
C94 H100 0.959 . S
H95 C91 0.960 . S
H96 C91 0.961 . S
H97 C91 0.960 . S
H98 C94 0.960 . S
H99 C94 0.960 . S
H100 C94 0.959 . S
C101 N102 1.317 1_455 S
C101 N103 1.348 . S
C101 C104 1.485 . S
N102 C101 1.317 1_655 S
N102 N106 1.370 . S
N103 C101 1.348 . S
N103 C105 1.346 . S
C104 C101 1.485 . S
C104 H108 0.960 . S
C104 H109 0.961 . S
C104 H110 0.960 1_455 S
C105 N103 1.346 . S
C105 N106 1.307 1_455 S
C105 C107 1.486 . S
N106 N102 1.370 . S
N106 C105 1.307 1_655 S
C107 C105 1.486 . S
C107 H111 0.960 . S
C107 H112 0.960 . S
C107 H113 0.959 . S
H108 C104 0.960 . S
H109 C104 0.961 . S
H110 C104 0.960 1_655 S
H111 C107 0.960 . S
H112 C107 0.960 . S
H113 C107 0.959 . S
C114 N115 1.317 . S
C114 N116 1.348 . S
C114 C117 1.485 . S
N115 C114 1.317 . S
N115 N119 1.370 1_554 S
N116 C114 1.348 . S
N116 C118 1.346 1_554 S
C117 C114 1.485 . S
C117 H121 0.960 . S
C117 H122 0.961 . S
C117 H123 0.960 . S
C118 N116 1.346 1_556 S
C118 N119 1.307 . S
C118 C120 1.486 . S
N119 N115 1.370 1_556 S
N119 C118 1.307 . S
C120 C118 1.486 . S
C120 H124 0.960 . S
C120 H125 0.960 . S
C120 H126 0.959 . S
H121 C117 0.960 . S
H122 C117 0.961 . S
H123 C117 0.960 . S
H124 C120 0.960 . S
H125 C120 0.960 . S
H126 C120 0.959 . S
C127 N128 1.317 1_655 S
C127 N129 1.348 . S
C127 C130 1.485 . S
N128 C127 1.317 1_455 S
N128 N132 1.370 . S
N129 C127 1.348 . S
N129 C131 1.346 . S
C130 C127 1.485 . S
C130 H134 0.960 . S
C130 H135 0.961 . S
C130 H136 0.960 . S
C131 N129 1.346 . S
C131 N132 1.307 1_655 S
C131 C133 1.486 . S
N132 N128 1.370 . S
N132 C131 1.307 1_455 S
C133 C131 1.486 . S
C133 H137 0.960 . S
C133 H138 0.960 . S
C133 H139 0.949 1_655 S
H134 C130 0.960 . S
H135 C130 0.961 . S
H136 C130 0.960 . S
H137 C133 0.960 . S
H138 C133 0.960 . S
H139 C133 0.949 1_455 S
C140 N141 1.317 1_545 S
C140 N142 1.348 . S
C140 C143 1.485 . S
N141 C140 1.317 1_565 S
N141 N145 1.370 . S
N142 C140 1.348 . S
N142 C144 1.346 . S
C143 C140 1.485 . S
C143 H147 0.960 . S
C143 H148 0.961 . S
C143 H149 0.960 . S
C144 N142 1.346 . S
C144 N145 1.307 1_545 S
C144 C146 1.486 . S
N145 N141 1.370 . S
N145 C144 1.307 1_565 S
C146 C144 1.486 . S
C146 H150 0.960 . S
C146 H151 0.960 . S
C146 H152 0.959 . S
H147 C143 0.960 . S
H148 C143 0.961 . S
H149 C143 0.960 . S
H150 C146 0.960 . S
H151 C146 0.960 . S
H152 C146 0.959 . S
C153 N154 1.317 . S
C153 N155 1.361 . S
C153 C156 1.485 . S
N154 C153 1.317 . S
N154 N158 1.370 1_556 S
N155 C153 1.361 . S
N155 C157 1.334 1_556 S
C156 C153 1.485 . S
C156 H160 0.960 . S
C156 H161 0.961 . S
C156 H162 0.960 . S
C157 N155 1.334 1_554 S
C157 N158 1.307 . S
C157 C159 1.486 . S
N158 N154 1.370 1_554 S
N158 C157 1.307 . S
C159 C157 1.486 . S
C159 H163 0.960 . S
C159 H164 0.960 . S
C159 H165 0.959 . S
H160 C156 0.960 . S
H161 C156 0.961 . S
H162 C156 0.960 . S
H163 C159 0.960 . S
H164 C159 0.960 . S
H165 C159 0.959 . S
C166 N167 1.317 1_565 S
C166 N168 1.348 . S
C166 C169 1.485 . S
N167 C166 1.317 1_545 S
N167 N171 1.370 . S
N168 C166 1.348 . S
N168 C170 1.346 . S
C169 C166 1.485 . S
C169 H173 0.960 . S
C169 H174 0.961 . S
C169 H175 0.960 1_565 S
C170 N168 1.346 . S
C170 N171 1.307 1_565 S
C170 C172 1.486 . S
N171 N167 1.370 . S
N171 C170 1.307 1_545 S
C172 C170 1.486 . S
C172 H176 0.960 . S
C172 H177 0.960 . S
C172 H178 0.936 1_565 S
H173 C169 0.960 . S
H174 C169 0.961 . S
H175 C169 0.960 1_545 S
H176 C172 0.960 . S
H177 C172 0.960 . S
H178 C172 0.936 1_545 S
C179 N180 1.317 . S
C179 N181 1.348 . S
C179 C182 1.485 . S
N180 C179 1.317 . S
N180 N184 1.370 1_554 S
N181 C179 1.348 . S
N181 C183 1.346 1_554 S
C182 C179 1.485 . S
C182 H186 0.960 . S
C182 H187 0.961 . S
C182 H188 0.960 . S
C183 N181 1.346 1_556 S
C183 N184 1.307 . S
C183 C185 1.486 . S
N184 N180 1.370 1_556 S
N184 C183 1.307 . S
C185 C183 1.486 . S
C185 H189 0.960 . S
C185 H190 0.960 . S
C185 H191 0.959 . S
H186 C182 0.960 . S
H187 C182 0.961 . S
H188 C182 0.960 . S
H189 C185 0.960 . S
H190 C185 0.960 . S
H191 C185 0.959 . S
C192 C193 1.391 . S
C192 C194 1.394 . S
C192 H208 0.931 . S
C193 C192 1.391 . S
C193 C197 1.376 . S
C194 C192 1.394 . S
C194 C195 1.369 . S
C194 C198 1.531 . S
C195 C194 1.369 . S
C195 C196 1.410 . S
C195 C203 1.503 . S
C196 C195 1.410 . S
C196 C197 1.392 . S
C196 C199 1.511 . S
C197 C193 1.376 . S
C197 C196 1.392 . S
C197 H209 0.929 . S
C198 C194 1.531 . S
C198 H210 0.960 . S
C198 H211 0.962 . S
C198 H212 0.960 . S
C199 C196 1.511 . S
C199 H213 0.961 . S
C199 H214 0.961 . S
C199 H215 0.961 . S
C200 C201 1.370 . S
C200 C202 1.363 . S
C200 H216 0.931 . S
C201 C200 1.370 . S
C201 C205 1.408 . S
C202 C200 1.363 . S
C202 C203 1.370 . S
C202 C206 1.524 . S
C203 C195 1.503 . S
C203 C202 1.370 . S
C203 C204 1.403 . S
C204 C203 1.403 . S
C204 C205 1.404 . S
C204 C207 1.539 . S
C205 C201 1.408 . S
C205 C204 1.404 . S
C205 H217 0.930 . S
C206 C202 1.524 . S
C206 H218 0.956 . S
C206 H219 0.961 . S
C206 H220 0.961 . S
C207 C204 1.539 . S
C207 H221 0.958 . S
C207 H222 0.961 . S
C207 H223 0.960 . S
H208 C192 0.931 . S
H209 C197 0.929 . S
H210 C198 0.960 . S
H211 C198 0.962 . S
H212 C198 0.960 . S
H213 C199 0.961 . S
H214 C199 0.961 . S
H215 C199 0.961 . S
H216 C200 0.931 . S
H217 C205 0.930 . S
H218 C206 0.956 . S
H219 C206 0.961 . S
H220 C206 0.961 . S
H221 C207 0.958 . S
H222 C207 0.961 . S
H223 C207 0.960 . S
C224 C225 1.391 . S
C224 C226 1.394 . S
C224 H240 0.931 . S
C225 C224 1.391 . S
C225 C229 1.376 . S
C226 C224 1.394 . S
C226 C227 1.369 . S
C226 C230 1.531 . S
C227 C226 1.369 . S
C227 C228 1.410 . S
C227 C235 1.503 . S
C228 C227 1.410 . S
C228 C229 1.392 . S
C228 C231 1.511 . S
C229 C225 1.376 . S
C229 C228 1.392 . S
C229 H241 0.929 . S
C230 C226 1.531 . S
C230 H242 0.960 . S
C230 H243 0.962 . S
C230 H244 0.960 . S
C231 C228 1.511 . S
C231 H245 0.961 . S
C231 H246 0.961 . S
C231 H247 0.961 . S
C232 C233 1.370 . S
C232 C234 1.363 . S
C232 H248 0.931 . S
C233 C232 1.370 . S
C233 C237 1.408 . S
C234 C232 1.363 . S
C234 C235 1.370 . S
C234 C238 1.524 . S
C235 C227 1.503 . S
C235 C234 1.370 . S
C235 C236 1.403 . S
C236 C235 1.403 . S
C236 C237 1.404 . S
C236 C239 1.539 . S
C237 C233 1.408 . S
C237 C236 1.404 . S
C237 H249 0.930 . S
C238 C234 1.524 . S
C238 H250 0.956 . S
C238 H251 0.961 . S
C238 H252 0.961 . S
C239 C236 1.539 . S
C239 H253 0.958 . S
C239 H254 0.961 . S
C239 H255 0.960 . S
H240 C224 0.931 . S
H241 C229 0.929 . S
H242 C230 0.960 . S
H243 C230 0.962 . S
H244 C230 0.960 . S
H245 C231 0.961 . S
H246 C231 0.961 . S
H247 C231 0.961 . S
H248 C232 0.931 . S
H249 C237 0.930 . S
H250 C238 0.956 . S
H251 C238 0.961 . S
H252 C238 0.961 . S
H253 C239 0.958 . S
H254 C239 0.961 . S
H255 C239 0.960 . S
C256 C257 1.391 . S
C256 C258 1.394 . S
C256 H272 0.931 . S
C257 C256 1.391 . S
C257 C261 1.376 . S
C258 C256 1.394 . S
C258 C259 1.369 . S
C258 C262 1.531 . S
C259 C258 1.369 . S
C259 C260 1.410 . S
C259 C267 1.503 . S
C260 C259 1.410 . S
C260 C261 1.392 . S
C260 C263 1.511 . S
C261 C257 1.376 . S
C261 C260 1.392 . S
C261 H273 0.929 . S
C262 C258 1.531 . S
C262 H274 0.960 . S
C262 H275 0.962 . S
C262 H276 0.960 . S
C263 C260 1.511 . S
C263 H277 0.961 . S
C263 H278 0.961 . S
C263 H279 0.961 . S
C264 C265 1.370 . S
C264 C266 1.363 . S
C264 H280 0.931 . S
C265 C264 1.370 . S
C265 C269 1.408 . S
C266 C264 1.363 . S
C266 C267 1.370 . S
C266 C270 1.524 . S
C267 C259 1.503 . S
C267 C266 1.370 . S
C267 C268 1.403 . S
C268 C267 1.403 . S
C268 C269 1.404 . S
C268 C271 1.539 . S
C269 C265 1.408 . S
C269 C268 1.404 . S
C269 H281 0.930 . S
C270 C266 1.524 . S
C270 H282 0.956 . S
C270 H283 0.961 . S
C270 H284 0.961 . S
C271 C268 1.539 . S
C271 H285 0.958 . S
C271 H286 0.961 . S
C271 H287 0.960 . S
H272 C256 0.931 . S
H273 C261 0.929 . S
H274 C262 0.960 . S
H275 C262 0.962 . S
H276 C262 0.960 . S
H277 C263 0.961 . S
H278 C263 0.961 . S
H279 C263 0.961 . S
H280 C264 0.931 . S
H281 C269 0.930 . S
H282 C270 0.956 . S
H283 C270 0.961 . S
H284 C270 0.961 . S
H285 C271 0.958 . S
H286 C271 0.961 . S
H287 C271 0.960 . S
C288 C289 1.391 . S
C288 C290 1.394 . S
C288 H304 0.931 . S
C289 C288 1.391 . S
C289 C293 1.376 . S
C290 C288 1.394 . S
C290 C291 1.369 . S
C290 C294 1.531 . S
C291 C290 1.369 . S
C291 C292 1.410 . S
C291 C299 1.503 . S
C292 C291 1.410 . S
C292 C293 1.392 . S
C292 C295 1.511 . S
C293 C289 1.376 . S
C293 C292 1.392 . S
C293 H305 0.929 . S
C294 C290 1.531 . S
C294 H306 0.960 . S
C294 H307 0.962 . S
C294 H308 0.960 . S
C295 C292 1.511 . S
C295 H309 0.961 . S
C295 H310 0.961 . S
C295 H311 0.961 . S
C296 C297 1.370 . S
C296 C298 1.363 . S
C296 H312 0.931 . S
C297 C296 1.370 . S
C297 C301 1.408 . S
C298 C296 1.363 . S
C298 C299 1.370 . S
C298 C302 1.524 . S
C299 C291 1.503 . S
C299 C298 1.370 . S
C299 C300 1.403 . S
C300 C299 1.403 . S
C300 C301 1.404 . S
C300 C303 1.539 . S
C301 C297 1.408 . S
C301 C300 1.404 . S
C301 H313 0.930 . S
C302 C298 1.524 . S
C302 H314 0.956 . S
C302 H315 0.961 . S
C302 H316 0.961 . S
C303 C300 1.539 . S
C303 H317 0.958 . S
C303 H318 0.961 . S
C303 H319 0.960 . S
H304 C288 0.931 . S
H305 C293 0.929 . S
H306 C294 0.960 . S
H307 C294 0.962 . S
H308 C294 0.960 . S
H309 C295 0.961 . S
H310 C295 0.961 . S
H311 C295 0.961 . S
H312 C296 0.931 . S
H313 C301 0.930 . S
H314 C302 0.956 . S
H315 C302 0.961 . S
H316 C302 0.961 . S
H317 C303 0.958 . S
H318 C303 0.961 . S
H319 C303 0.960 . S
C320 C321 1.391 . S
C320 C322 1.394 . S
C320 H336 0.931 . S
C321 C320 1.391 . S
C321 C325 1.376 . S
C322 C320 1.394 . S
C322 C323 1.369 . S
C322 C326 1.531 . S
C323 C322 1.369 . S
C323 C324 1.410 . S
C323 C331 1.503 . S
C324 C323 1.410 . S
C324 C325 1.392 . S
C324 C327 1.511 . S
C325 C321 1.376 . S
C325 C324 1.392 . S
C325 H337 0.929 . S
C326 C322 1.531 . S
C326 H338 0.960 . S
C326 H339 0.962 . S
C326 H340 0.960 . S
C327 C324 1.511 . S
C327 H341 0.961 . S
C327 H342 0.961 . S
C327 H343 0.961 . S
C328 C329 1.370 . S
C328 C330 1.363 . S
C328 H344 0.931 . S
C329 C328 1.370 . S
C329 C333 1.408 . S
C330 C328 1.363 . S
C330 C331 1.370 . S
C330 C334 1.524 . S
C331 C323 1.503 . S
C331 C330 1.370 . S
C331 C332 1.403 . S
C332 C331 1.403 . S
C332 C333 1.404 . S
C332 C335 1.539 . S
C333 C329 1.408 . S
C333 C332 1.404 . S
C333 H345 0.930 . S
C334 C330 1.524 . S
C334 H346 0.956 . S
C334 H347 0.961 . S
C334 H348 0.961 . S
C335 C332 1.539 . S
C335 H349 0.958 . S
C335 H350 0.961 . S
C335 H351 0.960 . S
H336 C320 0.931 . S
H337 C325 0.929 . S
H338 C326 0.960 . S
H339 C326 0.962 . S
H340 C326 0.960 . S
H341 C327 0.961 . S
H342 C327 0.961 . S
H343 C327 0.961 . S
H344 C328 0.931 . S
H345 C333 0.930 . S
H346 C334 0.956 . S
H347 C334 0.961 . S
H348 C334 0.961 . S
H349 C335 0.958 . S
H350 C335 0.961 . S
H351 C335 0.960 . S
C352 C353 1.391 . S
C352 C354 1.394 . S
C352 H368 0.931 . S
C353 C352 1.391 . S
C353 C357 1.376 . S
C354 C352 1.394 . S
C354 C355 1.369 . S
C354 C358 1.531 . S
C355 C354 1.369 . S
C355 C356 1.410 . S
C355 C363 1.503 . S
C356 C355 1.410 . S
C356 C357 1.392 . S
C356 C359 1.511 . S
C357 C353 1.376 . S
C357 C356 1.392 . S
C357 H369 0.929 . S
C358 C354 1.531 . S
C358 H370 0.960 . S
C358 H371 0.962 . S
C358 H372 0.960 . S
C359 C356 1.511 . S
C359 H373 0.961 . S
C359 H374 0.961 . S
C359 H375 0.961 . S
C360 C361 1.370 . S
C360 C362 1.363 . S
C360 H376 0.931 . S
C361 C360 1.370 . S
C361 C365 1.408 . S
C362 C360 1.363 . S
C362 C363 1.370 . S
C362 C366 1.524 . S
C363 C355 1.503 . S
C363 C362 1.370 . S
C363 C364 1.403 . S
C364 C363 1.403 . S
C364 C365 1.404 . S
C364 C367 1.539 . S
C365 C361 1.408 . S
C365 C364 1.404 . S
C365 H377 0.930 . S
C366 C362 1.524 . S
C366 H378 0.956 . S
C366 H379 0.961 . S
C366 H380 0.961 . S
C367 C364 1.539 . S
C367 H381 0.958 . S
C367 H382 0.961 . S
C367 H383 0.960 . S
H368 C352 0.931 . S
H369 C357 0.929 . S
H370 C358 0.960 . S
H371 C358 0.962 . S
H372 C358 0.960 . S
H373 C359 0.961 . S
H374 C359 0.961 . S
H375 C359 0.961 . S
H376 C360 0.931 . S
H377 C365 0.930 . S
H378 C366 0.956 . S
H379 C366 0.961 . S
H380 C366 0.961 . S
H381 C367 0.958 . S
H382 C367 0.961 . S
H383 C367 0.960 . S
C384 C385 1.391 . S
C384 C386 1.394 . S
C384 H400 0.931 . S
C385 C384 1.391 . S
C385 C389 1.376 . S
C386 C384 1.394 . S
C386 C387 1.369 . S
C386 C390 1.531 . S
C387 C386 1.369 . S
C387 C388 1.410 . S
C387 C395 1.503 . S
C388 C387 1.410 . S
C388 C389 1.392 . S
C388 C391 1.511 . S
C389 C385 1.376 . S
C389 C388 1.392 . S
C389 H401 0.929 . S
C390 C386 1.531 . S
C390 H402 0.960 . S
C390 H403 0.962 . S
C390 H404 0.960 . S
C391 C388 1.511 . S
C391 H405 0.961 . S
C391 H406 0.961 . S
C391 H407 0.961 . S
C392 C393 1.370 . S
C392 C394 1.363 . S
C392 H408 0.931 . S
C393 C392 1.370 . S
C393 C397 1.408 . S
C394 C392 1.363 . S
C394 C395 1.370 . S
C394 C398 1.524 . S
C395 C387 1.503 . S
C395 C394 1.370 . S
C395 C396 1.403 . S
C396 C395 1.403 . S
C396 C397 1.404 . S
C396 C399 1.539 . S
C397 C393 1.408 . S
C397 C396 1.404 . S
C397 H409 0.930 . S
C398 C394 1.524 . S
C398 H410 0.956 . S
C398 H411 0.961 . S
C398 H412 0.961 . S
C399 C396 1.539 . S
C399 H413 0.958 . S
C399 H414 0.961 . S
C399 H415 0.960 . S
H400 C384 0.931 . S
H401 C389 0.929 . S
H402 C390 0.960 . S
H403 C390 0.962 . S
H404 C390 0.960 . S
H405 C391 0.961 . S
H406 C391 0.961 . S
H407 C391 0.961 . S
H408 C392 0.931 . S
H409 C397 0.930 . S
H410 C398 0.956 . S
H411 C398 0.961 . S
H412 C398 0.961 . S
H413 C399 0.958 . S
H414 C399 0.961 . S
H415 C399 0.960 . S
C416 C417 1.391 . S
C416 C418 1.394 . S
C416 H432 0.931 . S
C417 C416 1.391 . S
C417 C421 1.376 . S
C418 C416 1.394 . S
C418 C419 1.369 . S
C418 C422 1.531 . S
C419 C418 1.369 . S
C419 C420 1.410 . S
C419 C427 1.503 . S
C420 C419 1.410 . S
C420 C421 1.392 . S
C420 C423 1.511 . S
C421 C417 1.376 . S
C421 C420 1.392 . S
C421 H433 0.929 . S
C422 C418 1.531 . S
C422 H434 0.960 . S
C422 H435 0.962 . S
C422 H436 0.960 . S
C423 C420 1.511 . S
C423 H437 0.961 . S
C423 H438 0.961 . S
C423 H439 0.961 . S
C424 C425 1.370 . S
C424 C426 1.363 . S
C424 H440 0.931 . S
C425 C424 1.370 . S
C425 C429 1.408 . S
C426 C424 1.363 . S
C426 C427 1.370 . S
C426 C430 1.524 . S
C427 C419 1.503 . S
C427 C426 1.370 . S
C427 C428 1.403 . S
C428 C427 1.403 . S
C428 C429 1.404 . S
C428 C431 1.539 . S
C429 C425 1.408 . S
C429 C428 1.404 . S
C429 H441 0.930 . S
C430 C426 1.524 . S
C430 H442 0.956 . S
C430 H443 0.961 . S
C430 H444 0.961 . S
C431 C428 1.539 . S
C431 H445 0.958 . S
C431 H446 0.961 . S
C431 H447 0.960 . S
H432 C416 0.931 . S
H433 C421 0.929 . S
H434 C422 0.960 . S
H435 C422 0.962 . S
H436 C422 0.960 . S
H437 C423 0.961 . S
H438 C423 0.961 . S
H439 C423 0.961 . S
H440 C424 0.931 . S
H441 C429 0.930 . S
H442 C430 0.956 . S
H443 C430 0.961 . S
H444 C430 0.961 . S
H445 C431 0.958 . S
H446 C431 0.961 . S
H447 C431 0.960 . S
C448 C449 1.391 . S
C448 C450 1.394 . S
C448 H464 0.931 . S
C449 C448 1.391 . S
C449 C453 1.376 . S
C450 C448 1.394 . S
C450 C451 1.369 . S
C450 C454 1.531 . S
C451 C450 1.369 . S
C451 C452 1.410 . S
C451 C459 1.503 . S
C452 C451 1.410 . S
C452 C453 1.392 . S
C452 C455 1.511 . S
C453 C449 1.376 . S
C453 C452 1.392 . S
C453 H465 0.929 . S
C454 C450 1.531 . S
C454 H466 0.960 . S
C454 H467 0.962 . S
C454 H468 0.960 . S
C455 C452 1.511 . S
C455 H469 0.961 . S
C455 H470 0.961 . S
C455 H471 0.961 . S
C456 C457 1.370 . S
C456 C458 1.363 . S
C456 H472 0.931 . S
C457 C456 1.370 . S
C457 C461 1.408 . S
C458 C456 1.363 . S
C458 C459 1.370 . S
C458 C462 1.524 . S
C459 C451 1.503 . S
C459 C458 1.370 . S
C459 C460 1.403 . S
C460 C459 1.403 . S
C460 C461 1.404 . S
C460 C463 1.539 . S
C461 C457 1.408 . S
C461 C460 1.404 . S
C461 H473 0.930 . S
C462 C458 1.524 . S
C462 H474 0.956 . S
C462 H475 0.961 . S
C462 H476 0.961 . S
C463 C460 1.539 . S
C463 H477 0.958 . S
C463 H478 0.961 . S
C463 H479 0.960 . S
H464 C448 0.931 . S
H465 C453 0.929 . S
H466 C454 0.960 . S
H467 C454 0.962 . S
H468 C454 0.960 . S
H469 C455 0.961 . S
H470 C455 0.961 . S
H471 C455 0.961 . S
H472 C456 0.931 . S
H473 C461 0.930 . S
H474 C462 0.956 . S
H475 C462 0.961 . S
H476 C462 0.961 . S
H477 C463 0.958 . S
H478 C463 0.961 . S
H479 C463 0.960 . S
C480 C481 1.391 . S
C480 C482 1.394 . S
C480 H496 0.931 . S
C481 C480 1.391 . S
C481 C485 1.376 . S
C482 C480 1.394 . S
C482 C483 1.369 . S
C482 C486 1.531 . S
C483 C482 1.369 . S
C483 C484 1.410 . S
C483 C491 1.503 . S
C484 C483 1.410 . S
C484 C485 1.392 . S
C484 C487 1.511 . S
C485 C481 1.376 . S
C485 C484 1.392 . S
C485 H497 0.929 . S
C486 C482 1.531 . S
C486 H498 0.960 . S
C486 H499 0.962 . S
C486 H500 0.960 . S
C487 C484 1.511 . S
C487 H501 0.961 . S
C487 H502 0.961 . S
C487 H503 0.961 . S
C488 C489 1.370 . S
C488 C490 1.363 . S
C488 H504 0.931 . S
C489 C488 1.370 . S
C489 C493 1.408 . S
C490 C488 1.363 . S
C490 C491 1.370 . S
C490 C494 1.524 . S
C491 C483 1.503 . S
C491 C490 1.370 . S
C491 C492 1.403 . S
C492 C491 1.403 . S
C492 C493 1.404 . S
C492 C495 1.539 . S
C493 C489 1.408 . S
C493 C492 1.404 . S
C493 H505 0.930 . S
C494 C490 1.524 . S
C494 H506 0.956 . S
C494 H507 0.961 . S
C494 H508 0.961 . S
C495 C492 1.539 . S
C495 H509 0.958 . S
C495 H510 0.961 . S
C495 H511 0.960 . S
H496 C480 0.931 . S
H497 C485 0.929 . S
H498 C486 0.960 . S
H499 C486 0.962 . S
H500 C486 0.960 . S
H501 C487 0.961 . S
H502 C487 0.961 . S
H503 C487 0.961 . S
H504 C488 0.931 . S
H505 C493 0.930 . S
H506 C494 0.956 . S
H507 C494 0.961 . S
H508 C494 0.961 . S
H509 C495 0.958 . S
H510 C495 0.961 . S
H511 C495 0.960 . S
C512 C513 1.391 . S
C512 C514 1.394 . S
C512 H528 0.931 . S
C513 C512 1.391 . S
C513 C517 1.376 . S
C514 C512 1.394 . S
C514 C515 1.369 . S
C514 C518 1.531 . S
C515 C514 1.369 . S
C515 C516 1.410 . S
C515 C523 1.503 . S
C516 C515 1.410 . S
C516 C517 1.392 . S
C516 C519 1.511 . S
C517 C513 1.376 . S
C517 C516 1.392 . S
C517 H529 0.929 . S
C518 C514 1.531 . S
C518 H530 0.960 . S
C518 H531 0.962 . S
C518 H532 0.960 . S
C519 C516 1.511 . S
C519 H533 0.961 . S
C519 H534 0.961 . S
C519 H535 0.961 . S
C520 C521 1.370 . S
C520 C522 1.363 . S
C520 H536 0.931 . S
C521 C520 1.370 . S
C521 C525 1.408 . S
C522 C520 1.363 . S
C522 C523 1.370 . S
C522 C526 1.524 . S
C523 C515 1.503 . S
C523 C522 1.370 . S
C523 C524 1.403 . S
C524 C523 1.403 . S
C524 C525 1.404 . S
C524 C527 1.539 . S
C525 C521 1.408 . S
C525 C524 1.404 . S
C525 H537 0.930 . S
C526 C522 1.524 . S
C526 H538 0.956 . S
C526 H539 0.961 . S
C526 H540 0.961 . S
C527 C524 1.539 . S
C527 H541 0.958 . S
C527 H542 0.961 . S
C527 H543 0.960 . S
H528 C512 0.931 . S
H529 C517 0.929 . S
H530 C518 0.960 . S
H531 C518 0.962 . S
H532 C518 0.960 . S
H533 C519 0.961 . S
H534 C519 0.961 . S
H535 C519 0.961 . S
H536 C520 0.931 . S
H537 C525 0.930 . S
H538 C526 0.956 . S
H539 C526 0.961 . S
H540 C526 0.961 . S
H541 C527 0.958 . S
H542 C527 0.961 . S
H543 C527 0.960 . S
C544 C545 1.391 . S
C544 C546 1.394 . S
C544 H560 0.931 . S
C545 C544 1.391 . S
C545 C549 1.376 . S
C546 C544 1.394 . S
C546 C547 1.369 . S
C546 C550 1.531 . S
C547 C546 1.369 . S
C547 C548 1.410 . S
C547 C555 1.503 . S
C548 C547 1.410 . S
C548 C549 1.392 . S
C548 C551 1.511 . S
C549 C545 1.376 . S
C549 C548 1.392 . S
C549 H561 0.929 . S
C550 C546 1.531 . S
C550 H562 0.960 . S
C550 H563 0.962 . S
C550 H564 0.960 . S
C551 C548 1.511 . S
C551 H565 0.961 . S
C551 H566 0.961 . S
C551 H567 0.961 . S
C552 C553 1.370 . S
C552 C554 1.363 . S
C552 H568 0.931 . S
C553 C552 1.370 . S
C553 C557 1.408 . S
C554 C552 1.363 . S
C554 C555 1.370 . S
C554 C558 1.524 . S
C555 C547 1.503 . S
C555 C554 1.370 . S
C555 C556 1.403 . S
C556 C555 1.403 . S
C556 C557 1.404 . S
C556 C559 1.539 . S
C557 C553 1.408 . S
C557 C556 1.404 . S
C557 H569 0.930 . S
C558 C554 1.524 . S
C558 H570 0.956 . S
C558 H571 0.961 . S
C558 H572 0.961 . S
C559 C556 1.539 . S
C559 H573 0.958 . S
C559 H574 0.961 . S
C559 H575 0.960 . S
H560 C544 0.931 . S
H561 C549 0.929 . S
H562 C550 0.960 . S
H563 C550 0.962 . S
H564 C550 0.960 . S
H565 C551 0.961 . S
H566 C551 0.961 . S
H567 C551 0.961 . S
H568 C552 0.931 . S
H569 C557 0.930 . S
H570 C558 0.956 . S
H571 C558 0.961 . S
H572 C558 0.961 . S
H573 C559 0.958 . S
H574 C559 0.961 . S
H575 C559 0.960 . S
C576 C577 1.391 . S
C576 C578 1.394 . S
C576 H592 0.931 . S
C577 C576 1.391 . S
C577 C581 1.376 . S
C578 C576 1.394 . S
C578 C579 1.369 . S
C578 C582 1.531 . S
C579 C578 1.369 . S
C579 C580 1.410 . S
C579 C587 1.503 . S
C580 C579 1.410 . S
C580 C581 1.392 . S
C580 C583 1.511 . S
C581 C577 1.376 . S
C581 C580 1.392 . S
C581 H593 0.929 . S
C582 C578 1.531 . S
C582 H594 0.960 . S
C582 H595 0.962 . S
C582 H596 0.960 . S
C583 C580 1.511 . S
C583 H597 0.961 . S
C583 H598 0.961 . S
C583 H599 0.961 . S
C584 C585 1.370 . S
C584 C586 1.363 . S
C584 H600 0.931 . S
C585 C584 1.370 . S
C585 C589 1.408 . S
C586 C584 1.363 . S
C586 C587 1.370 . S
C586 C590 1.524 . S
C587 C579 1.503 . S
C587 C586 1.370 . S
C587 C588 1.403 . S
C588 C587 1.403 . S
C588 C589 1.404 . S
C588 C591 1.539 . S
C589 C585 1.408 . S
C589 C588 1.404 . S
C589 H601 0.930 . S
C590 C586 1.524 . S
C590 H602 0.956 . S
C590 H603 0.961 . S
C590 H604 0.961 . S
C591 C588 1.539 . S
C591 H605 0.958 . S
C591 H606 0.961 . S
C591 H607 0.960 . S
H592 C576 0.931 . S
H593 C581 0.929 . S
H594 C582 0.960 . S
H595 C582 0.962 . S
H596 C582 0.960 . S
H597 C583 0.961 . S
H598 C583 0.961 . S
H599 C583 0.961 . S
H600 C584 0.931 . S
H601 C589 0.930 . S
H602 C590 0.956 . S
H603 C590 0.961 . S
H604 C590 0.961 . S
H605 C591 0.958 . S
H606 C591 0.961 . S
H607 C591 0.960 . S
C608 C609 1.391 . S
C608 C610 1.394 . S
C608 H624 0.931 . S
C609 C608 1.391 . S
C609 C613 1.376 . S
C610 C608 1.394 . S
C610 C611 1.369 . S
C610 C614 1.531 . S
C611 C610 1.369 . S
C611 C612 1.410 . S
C611 C619 1.503 . S
C612 C611 1.410 . S
C612 C613 1.392 . S
C612 C615 1.511 . S
C613 C609 1.376 . S
C613 C612 1.392 . S
C613 H625 0.929 . S
C614 C610 1.531 . S
C614 H626 0.960 . S
C614 H627 0.962 . S
C614 H628 0.960 . S
C615 C612 1.511 . S
C615 H629 0.961 . S
C615 H630 0.961 . S
C615 H631 0.961 . S
C616 C617 1.370 . S
C616 C618 1.363 . S
C616 H632 0.931 . S
C617 C616 1.370 . S
C617 C621 1.408 . S
C618 C616 1.363 . S
C618 C619 1.370 . S
C618 C622 1.524 . S
C619 C611 1.503 . S
C619 C618 1.370 . S
C619 C620 1.403 . S
C620 C619 1.403 . S
C620 C621 1.404 . S
C620 C623 1.539 . S
C621 C617 1.408 . S
C621 C620 1.404 . S
C621 H633 0.930 . S
C622 C618 1.524 . S
C622 H634 0.956 . S
C622 H635 0.961 . S
C622 H636 0.961 . S
C623 C620 1.539 . S
C623 H637 0.958 . S
C623 H638 0.961 . S
C623 H639 0.960 . S
H624 C608 0.931 . S
H625 C613 0.929 . S
H626 C614 0.960 . S
H627 C614 0.962 . S
H628 C614 0.960 . S
H629 C615 0.961 . S
H630 C615 0.961 . S
H631 C615 0.961 . S
H632 C616 0.931 . S
H633 C621 0.930 . S
H634 C622 0.956 . S
H635 C622 0.961 . S
H636 C622 0.961 . S
H637 C623 0.958 . S
H638 C623 0.961 . S
H639 C623 0.960 . S
C640 C641 1.391 . S
C640 C642 1.394 . S
C640 H656 0.931 . S
C641 C640 1.391 . S
C641 C645 1.376 . S
C642 C640 1.394 . S
C642 C643 1.369 . S
C642 C646 1.531 . S
C643 C642 1.369 . S
C643 C644 1.410 . S
C643 C651 1.503 . S
C644 C643 1.410 . S
C644 C645 1.392 . S
C644 C647 1.511 . S
C645 C641 1.376 . S
C645 C644 1.392 . S
C645 H657 0.929 . S
C646 C642 1.531 . S
C646 H658 0.960 . S
C646 H659 0.962 . S
C646 H660 0.960 . S
C647 C644 1.511 . S
C647 H661 0.961 . S
C647 H662 0.961 . S
C647 H663 0.961 . S
C648 C649 1.370 . S
C648 C650 1.363 . S
C648 H664 0.931 . S
C649 C648 1.370 . S
C649 C653 1.408 . S
C650 C648 1.363 . S
C650 C651 1.370 . S
C650 C654 1.524 . S
C651 C643 1.503 . S
C651 C650 1.370 . S
C651 C652 1.403 . S
C652 C651 1.403 . S
C652 C653 1.404 . S
C652 C655 1.539 . S
C653 C649 1.408 . S
C653 C652 1.404 . S
C653 H665 0.930 . S
C654 C650 1.524 . S
C654 H666 0.956 . S
C654 H667 0.961 . S
C654 H668 0.961 . S
C655 C652 1.539 . S
C655 H669 0.958 . S
C655 H670 0.961 . S
C655 H671 0.960 . S
H656 C640 0.931 . S
H657 C645 0.929 . S
H658 C646 0.960 . S
H659 C646 0.962 . S
H660 C646 0.960 . S
H661 C647 0.961 . S
H662 C647 0.961 . S
H663 C647 0.961 . S
H664 C648 0.931 . S
H665 C653 0.930 . S
H666 C654 0.956 . S
H667 C654 0.961 . S
H668 C654 0.961 . S
H669 C655 0.958 . S
H670 C655 0.961 . S
H671 C655 0.960 . S
C672 C673 1.391 . S
C672 C674 1.394 . S
C672 H688 0.931 . S
C673 C672 1.391 . S
C673 C677 1.376 . S
C674 C672 1.394 . S
C674 C675 1.369 . S
C674 C678 1.531 . S
C675 C674 1.369 . S
C675 C676 1.410 . S
C675 C683 1.503 . S
C676 C675 1.410 . S
C676 C677 1.392 . S
C676 C679 1.511 . S
C677 C673 1.376 . S
C677 C676 1.392 . S
C677 H689 0.929 . S
C678 C674 1.531 . S
C678 H690 0.960 . S
C678 H691 0.962 . S
C678 H692 0.960 . S
C679 C676 1.511 . S
C679 H693 0.961 . S
C679 H694 0.961 . S
C679 H695 0.961 . S
C680 C681 1.370 . S
C680 C682 1.363 . S
C680 H696 0.931 . S
C681 C680 1.370 . S
C681 C685 1.408 . S
C682 C680 1.363 . S
C682 C683 1.370 . S
C682 C686 1.524 . S
C683 C675 1.503 . S
C683 C682 1.370 . S
C683 C684 1.403 . S
C684 C683 1.403 . S
C684 C685 1.404 . S
C684 C687 1.539 . S
C685 C681 1.408 . S
C685 C684 1.404 . S
C685 H697 0.930 . S
C686 C682 1.524 . S
C686 H698 0.956 . S
C686 H699 0.961 . S
C686 H700 0.961 . S
C687 C684 1.539 . S
C687 H701 0.958 . S
C687 H702 0.961 . S
C687 H703 0.960 . S
H688 C672 0.931 . S
H689 C677 0.929 . S
H690 C678 0.960 . S
H691 C678 0.962 . S
H692 C678 0.960 . S
H693 C679 0.961 . S
H694 C679 0.961 . S
H695 C679 0.961 . S
H696 C680 0.931 . S
H697 C685 0.930 . S
H698 C686 0.956 . S
H699 C686 0.961 . S
H700 C686 0.961 . S
H701 C687 0.958 . S
H702 C687 0.961 . S
H703 C687 0.960 . S
C704 C705 1.391 . S
C704 C706 1.394 . S
C704 H720 0.931 . S
C705 C704 1.391 . S
C705 C709 1.376 1_554 S
C706 C704 1.394 . S
C706 C707 1.369 . S
C706 C710 1.531 . S
C707 C706 1.369 . S
C707 C708 1.410 1_554 S
C707 C715 1.503 . S
C708 C707 1.410 1_556 S
C708 C709 1.392 . S
C708 C711 1.511 . S
C709 C705 1.376 1_556 S
C709 C708 1.392 . S
C709 H721 0.929 . S
C710 C706 1.531 . S
C710 H722 0.960 . S
C710 H723 0.962 . S
C710 H724 0.960 . S
C711 C708 1.511 . S
C711 H725 0.961 . S
C711 H726 0.961 . S
C711 H727 0.961 . S
C712 C713 1.370 1_556 S
C712 C714 1.363 . S
C712 H728 0.931 . S
C713 C712 1.370 1_554 S
C713 C717 1.408 . S
C714 C712 1.363 . S
C714 C715 1.370 1_556 S
C714 C718 1.524 . S
C715 C707 1.503 . S
C715 C714 1.370 1_554 S
C715 C716 1.403 . S
C716 C715 1.403 . S
C716 C717 1.404 . S
C716 C719 1.539 . S
C717 C713 1.408 . S
C717 C716 1.404 . S
C717 H729 0.930 . S
C718 C714 1.524 . S
C718 H730 0.956 . S
C718 H731 0.961 . S
C718 H732 0.961 . S
C719 C716 1.539 . S
C719 H733 0.958 . S
C719 H734 0.961 . S
C719 H735 0.960 . S
H720 C704 0.931 . S
H721 C709 0.929 . S
H722 C710 0.960 . S
H723 C710 0.962 . S
H724 C710 0.960 . S
H725 C711 0.961 . S
H726 C711 0.961 . S
H727 C711 0.961 . S
H728 C712 0.931 . S
H729 C717 0.930 . S
H730 C718 0.956 . S
H731 C718 0.961 . S
H732 C718 0.961 . S
H733 C719 0.958 . S
H734 C719 0.961 . S
H735 C719 0.960 . S
C736 C737 1.391 . S
C736 C738 1.394 . S
C736 H752 0.931 . S
C737 C736 1.391 . S
C737 C741 1.376 . S
C738 C736 1.394 . S
C738 C739 1.369 . S
C738 C742 1.531 . S
C739 C738 1.369 . S
C739 C740 1.410 . S
C739 C747 1.503 . S
C740 C739 1.410 . S
C740 C741 1.392 . S
C740 C743 1.511 . S
C741 C737 1.376 . S
C741 C740 1.392 . S
C741 H753 0.929 . S
C742 C738 1.531 . S
C742 H754 0.960 . S
C742 H755 0.962 . S
C742 H756 0.960 . S
C743 C740 1.511 . S
C743 H757 0.961 . S
C743 H758 0.961 . S
C743 H759 0.961 . S
C744 C745 1.370 . S
C744 C746 1.363 . S
C744 H760 0.931 . S
C745 C744 1.370 . S
C745 C749 1.408 . S
C746 C744 1.363 . S
C746 C747 1.370 . S
C746 C750 1.524 . S
C747 C739 1.503 . S
C747 C746 1.370 . S
C747 C748 1.403 . S
C748 C747 1.403 . S
C748 C749 1.404 . S
C748 C751 1.539 . S
C749 C745 1.408 . S
C749 C748 1.404 . S
C749 H761 0.930 . S
C750 C746 1.524 . S
C750 H762 0.956 . S
C750 H763 0.961 . S
C750 H764 0.961 . S
C751 C748 1.539 . S
C751 H765 0.958 . S
C751 H766 0.961 . S
C751 H767 0.960 . S
H752 C736 0.931 . S
H753 C741 0.929 . S
H754 C742 0.960 . S
H755 C742 0.962 . S
H756 C742 0.960 . S
H757 C743 0.961 . S
H758 C743 0.961 . S
H759 C743 0.961 . S
H760 C744 0.931 . S
H761 C749 0.930 . S
H762 C750 0.956 . S
H763 C750 0.961 . S
H764 C750 0.961 . S
H765 C751 0.958 . S
H766 C751 0.961 . S
H767 C751 0.960 . S
C768 C769 1.391 . S
C768 C770 1.394 . S
C768 H784 0.931 . S
C769 C768 1.391 . S
C769 C773 1.376 1_556 S
C770 C768 1.394 . S
C770 C771 1.369 . S
C770 C774 1.531 . S
C771 C770 1.369 . S
C771 C772 1.410 1_556 S
C771 C779 1.503 . S
C772 C771 1.410 1_554 S
C772 C773 1.392 . S
C772 C775 1.511 . S
C773 C769 1.376 1_554 S
C773 C772 1.392 . S
C773 H785 0.929 . S
C774 C770 1.531 . S
C774 H786 0.960 . S
C774 H787 0.962 . S
C774 H788 0.960 . S
C775 C772 1.511 . S
C775 H789 0.961 . S
C775 H790 0.961 . S
C775 H791 0.961 . S
C776 C777 1.370 1_554 S
C776 C778 1.363 . S
C776 H792 0.931 . S
C777 C776 1.370 1_556 S
C777 C781 1.409 . S
C778 C776 1.363 . S
C778 C779 1.370 1_554 S
C778 C782 1.524 . S
C779 C771 1.503 . S
C779 C778 1.370 1_556 S
C779 C780 1.403 . S
C780 C779 1.403 . S
C780 C781 1.404 . S
C780 C783 1.539 . S
C781 C777 1.409 . S
C781 C780 1.404 . S
C781 H793 0.930 . S
C782 C778 1.524 . S
C782 H794 0.956 . S
C782 H795 0.961 . S
C782 H796 0.961 . S
C783 C780 1.539 . S
C783 H797 0.958 . S
C783 H798 0.961 . S
C783 H799 0.960 . S
H784 C768 0.931 . S
H785 C773 0.929 . S
H786 C774 0.960 . S
H787 C774 0.962 . S
H788 C774 0.960 . S
H789 C775 0.961 . S
H790 C775 0.961 . S
H791 C775 0.961 . S
H792 C776 0.931 . S
H793 C781 0.930 . S
H794 C782 0.956 . S
H795 C782 0.961 . S
H796 C782 0.961 . S
H797 C783 0.958 . S
H798 C783 0.961 . S
H799 C783 0.960 . S
C800 C801 1.391 . S
C800 C802 1.394 . S
C800 H816 0.931 . S
C801 C800 1.391 . S
C801 C805 1.376 . S
C802 C800 1.394 . S
C802 C803 1.369 . S
C802 C806 1.531 . S
C803 C802 1.369 . S
C803 C804 1.410 . S
C803 C811 1.503 . S
C804 C803 1.410 . S
C804 C805 1.392 . S
C804 C807 1.511 . S
C805 C801 1.376 . S
C805 C804 1.392 . S
C805 H817 0.929 . S
C806 C802 1.531 . S
C806 H818 0.960 . S
C806 H819 0.962 . S
C806 H820 0.960 . S
C807 C804 1.511 . S
C807 H821 0.961 . S
C807 H822 0.961 . S
C807 H823 0.961 . S
C808 C809 1.370 . S
C808 C810 1.363 . S
C808 H824 0.931 . S
C809 C808 1.370 . S
C809 C813 1.408 . S
C810 C808 1.363 . S
C810 C811 1.370 . S
C810 C814 1.524 . S
C811 C803 1.503 . S
C811 C810 1.370 . S
C811 C812 1.403 . S
C812 C811 1.403 . S
C812 C813 1.404 . S
C812 C815 1.539 . S
C813 C809 1.408 . S
C813 C812 1.404 . S
C813 H825 0.930 . S
C814 C810 1.524 . S
C814 H826 0.956 . S
C814 H827 0.961 . S
C814 H828 0.961 . S
C815 C812 1.539 . S
C815 H829 0.958 . S
C815 H830 0.961 . S
C815 H831 0.960 . S
H816 C800 0.931 . S
H817 C805 0.929 . S
H818 C806 0.960 . S
H819 C806 0.962 . S
H820 C806 0.960 . S
H821 C807 0.961 . S
H822 C807 0.961 . S
H823 C807 0.961 . S
H824 C808 0.931 . S
H825 C813 0.930 . S
H826 C814 0.956 . S
H827 C814 0.961 . S
H828 C814 0.961 . S
H829 C815 0.958 . S
H830 C815 0.961 . S
H831 C815 0.960 . S
C832 C833 1.391 . S
C832 C834 1.394 . S
C832 H848 0.931 . S
C833 C832 1.391 . S
C833 C837 1.376 . S
C834 C832 1.394 . S
C834 C835 1.369 . S
C834 C838 1.531 . S
C835 C834 1.369 . S
C835 C836 1.410 . S
C835 C843 1.503 . S
C836 C835 1.410 . S
C836 C837 1.392 . S
C836 C839 1.511 . S
C837 C833 1.376 . S
C837 C836 1.392 . S
C837 H849 0.929 . S
C838 C834 1.531 . S
C838 H850 0.960 . S
C838 H851 0.962 . S
C838 H852 0.960 . S
C839 C836 1.511 . S
C839 H853 0.961 . S
C839 H854 0.961 . S
C839 H855 0.961 . S
C840 C841 1.370 . S
C840 C842 1.363 . S
C840 H856 0.931 . S
C841 C840 1.370 . S
C841 C845 1.408 . S
C842 C840 1.363 . S
C842 C843 1.370 . S
C842 C846 1.524 . S
C843 C835 1.503 . S
C843 C842 1.370 . S
C843 C844 1.403 . S
C844 C843 1.403 . S
C844 C845 1.404 . S
C844 C847 1.539 . S
C845 C841 1.408 . S
C845 C844 1.404 . S
C845 H857 0.930 . S
C846 C842 1.524 . S
C846 H858 0.956 . S
C846 H859 0.961 . S
C846 H860 0.961 . S
C847 C844 1.539 . S
C847 H861 0.958 . S
C847 H862 0.961 . S
C847 H863 0.960 . S
H848 C832 0.931 . S
H849 C837 0.929 . S
H850 C838 0.960 . S
H851 C838 0.962 . S
H852 C838 0.960 . S
H853 C839 0.961 . S
H854 C839 0.961 . S
H855 C839 0.961 . S
H856 C840 0.931 . S
H857 C845 0.930 . S
H858 C846 0.956 . S
H859 C846 0.961 . S
H860 C846 0.961 . S
H861 C847 0.958 . S
H862 C847 0.961 . S
H863 C847 0.960 . S
C864 C865 1.391 . S
C864 C866 1.394 . S
C864 H880 0.931 1_554 S
C865 C864 1.391 . S
C865 C869 1.376 . S
C866 C864 1.394 . S
C866 C867 1.369 . S
C866 C870 1.531 . S
C867 C866 1.369 . S
C867 C868 1.410 . S
C867 C875 1.503 . S
C868 C867 1.410 . S
C868 C869 1.392 . S
C868 C871 1.511 . S
C869 C865 1.376 . S
C869 C868 1.392 . S
C869 H881 0.929 . S
C870 C866 1.531 . S
C870 H882 0.960 . S
C870 H883 0.962 1_554 S
C870 H884 0.960 . S
C871 C868 1.511 . S
C871 H885 0.961 . S
C871 H886 0.961 . S
C871 H887 0.961 . S
C872 C873 1.370 1_556 S
C872 C874 1.363 . S
C872 H888 0.931 . S
C873 C872 1.370 1_554 S
C873 C877 1.408 . S
C874 C872 1.363 . S
C874 C875 1.370 1_556 S
C874 C878 1.524 . S
C875 C867 1.503 . S
C875 C874 1.370 1_554 S
C875 C876 1.403 . S
C876 C875 1.403 . S
C876 C877 1.404 . S
C876 C879 1.539 . S
C877 C873 1.408 . S
C877 C876 1.404 . S
C877 H889 0.930 . S
C878 C874 1.524 . S
C878 H890 0.956 . S
C878 H891 0.961 . S
C878 H892 0.961 . S
C879 C876 1.539 . S
C879 H893 0.958 . S
C879 H894 0.961 . S
C879 H895 0.960 . S
H880 C864 0.931 1_556 S
H881 C869 0.929 . S
H882 C870 0.960 . S
H883 C870 0.962 1_556 S
H884 C870 0.960 . S
H885 C871 0.961 . S
H886 C871 0.961 . S
H887 C871 0.961 . S
H888 C872 0.931 . S
H889 C877 0.930 . S
H890 C878 0.956 . S
H891 C878 0.961 . S
H892 C878 0.961 . S
H893 C879 0.958 . S
H894 C879 0.961 . S
H895 C879 0.960 . S
C896 C897 1.391 . S
C896 C898 1.394 . S
C896 H912 0.931 . S
C897 C896 1.391 . S
C897 C901 1.376 . S
C898 C896 1.394 . S
C898 C899 1.369 . S
C898 C902 1.531 . S
C899 C898 1.369 . S
C899 C900 1.410 . S
C899 C907 1.503 . S
C900 C899 1.410 . S
C900 C901 1.392 . S
C900 C903 1.511 . S
C901 C897 1.376 . S
C901 C900 1.392 . S
C901 H913 0.929 . S
C902 C898 1.531 . S
C902 H914 0.960 . S
C902 H915 0.962 . S
C902 H916 0.960 . S
C903 C900 1.511 . S
C903 H917 0.961 . S
C903 H918 0.961 . S
C903 H919 0.961 . S
C904 C905 1.370 . S
C904 C906 1.363 . S
C904 H920 0.931 . S
C905 C904 1.370 . S
C905 C909 1.408 . S
C906 C904 1.363 . S
C906 C907 1.370 . S
C906 C910 1.524 . S
C907 C899 1.503 . S
C907 C906 1.370 . S
C907 C908 1.403 . S
C908 C907 1.403 . S
C908 C909 1.404 . S
C908 C911 1.539 . S
C909 C905 1.408 . S
C909 C908 1.404 . S
C909 H921 0.930 . S
C910 C906 1.524 . S
C910 H922 0.956 . S
C910 H923 0.961 . S
C910 H924 0.961 . S
C911 C908 1.539 . S
C911 H925 0.958 . S
C911 H926 0.961 . S
C911 H927 0.960 . S
H912 C896 0.931 . S
H913 C901 0.929 . S
H914 C902 0.960 . S
H915 C902 0.962 . S
H916 C902 0.960 . S
H917 C903 0.961 . S
H918 C903 0.961 . S
H919 C903 0.961 . S
H920 C904 0.931 . S
H921 C909 0.930 . S
H922 C910 0.956 . S
H923 C910 0.961 . S
H924 C910 0.961 . S
H925 C911 0.958 . S
H926 C911 0.961 . S
H927 C911 0.960 . S
C928 C929 1.391 1_556 S
C928 C930 1.394 . S
C928 H944 0.931 . S
C929 C928 1.391 1_554 S
C929 C933 1.376 . S
C930 C928 1.394 . S
C930 C931 1.369 1_556 S
C930 C934 1.531 . S
C931 C930 1.369 1_554 S
C931 C932 1.410 . S
C931 C939 1.503 . S
C932 C931 1.410 . S
C932 C933 1.392 . S
C932 C935 1.511 . S
C933 C929 1.376 . S
C933 C932 1.392 . S
C933 H945 0.929 . S
C934 C930 1.531 . S
C934 H946 0.960 . S
C934 H947 0.962 . S
C934 H948 0.960 . S
C935 C932 1.511 . S
C935 H949 0.961 . S
C935 H950 0.961 . S
C935 H951 0.961 . S
C936 C937 1.370 1_556 S
C936 C938 1.363 . S
C936 H952 0.931 . S
C937 C936 1.370 1_554 S
C937 C941 1.408 . S
C938 C936 1.363 . S
C938 C939 1.370 1_556 S
C938 C942 1.524 . S
C939 C931 1.503 . S
C939 C938 1.370 1_554 S
C939 C940 1.403 . S
C940 C939 1.403 . S
C940 C941 1.404 . S
C940 C943 1.539 . S
C941 C937 1.408 . S
C941 C940 1.404 . S
C941 H953 0.930 . S
C942 C938 1.524 . S
C942 H954 0.956 . S
C942 H955 0.961 . S
C942 H956 0.961 . S
C943 C940 1.539 . S
C943 H957 0.958 . S
C943 H958 0.961 . S
C943 H959 0.960 . S
H944 C928 0.931 . S
H945 C933 0.929 . S
H946 C934 0.960 . S
H947 C934 0.962 . S
H948 C934 0.960 . S
H949 C935 0.961 . S
H950 C935 0.961 . S
H951 C935 0.961 . S
H952 C936 0.931 . S
H953 C941 0.930 . S
H954 C942 0.956 . S
H955 C942 0.961 . S
H956 C942 0.961 . S
H957 C943 0.958 . S
H958 C943 0.961 . S
H959 C943 0.960 . S
C193 C21 1.519 . S
C201 N128 1.514 . S
C225 C40 1.481 . S
C233 N89 1.482 . S
C265 N106 1.458 . S
C257 C54 1.464 . S
C289 C73 1.490 . S
C297 N119 1.511 . S
C329 N158 1.459 . S
C321 C74 1.463 . S
C361 N171 1.485 . S
C353 C10 1.481 . S
C393 N180 1.511 . S
C385 C37 1.499 . S
C425 N141 1.500 . S
C417 C65 1.503 . S
C449 C52 1.456 . S
C457 N102 1.459 . S
C481 C87 1.485 . S
C489 N115 1.515 . S
C513 C15 1.512 . S
C521 N132 1.518 . S
C553 N93 1.476 . S
C545 C32 1.482 . S
C577 C29 1.505 . S
C585 N184 1.519 . S
C617 N145 1.507 . S
C609 C59 1.510 . S
C649 N154 1.459 . S
C641 C84 1.456 . S
C673 C8 1.484 . S
C681 N167 1.480 . S
C713 N90 1.511 1_554 S
C705 C7 1.493 . S
C745 N103 1.478 . S
C737 C30 1.479 . S
C769 C62 1.503 1_556 S
C777 N116 1.504 1_556 S
C801 C81 1.494 . S
C809 N129 1.513 . S
C841 N142 1.500 . S
C833 C76 1.502 . S
C865 C18 1.476 1_554 S
C873 N155 1.480 1_554 S
C897 C43 1.492 . S
C905 N168 1.515 . S
C929 C51 1.492 1_554 S
C937 N181 1.512 . S
