# Generated by pormake.
# Topology apo, (3,6)-cn, num edge types: 1
# Building blocks:
#     Node 0, Type 0, BuildingBlock: KAKCAD_clean_linker_0, # of connection points: 3
#     Node 1, Type 0, BuildingBlock: KAKCAD_clean_linker_0, # of connection points: 3
#     Node 2, Type 0, BuildingBlock: KAKCAD_clean_linker_0, # of connection points: 3
#     Node 3, Type 0, BuildingBlock: KAKCAD_clean_linker_0, # of connection points: 3
#     Node 4, Type 0, BuildingBlock: KAKCAD_clean_linker_0, # of connection points: 3
#     Node 5, Type 0, BuildingBlock: KAKCAD_clean_linker_0, # of connection points: 3
#     Node 6, Type 0, BuildingBlock: KAKCAD_clean_linker_0, # of connection points: 3
#     Node 7, Type 0, BuildingBlock: KAKCAD_clean_linker_0, # of connection points: 3
#     Node 8, Type 1, BuildingBlock: KUMBOL_clean_sbu_1, # of connection points: 6
#     Node 9, Type 1, BuildingBlock: KUMBOL_clean_sbu_1, # of connection points: 6
#     Node 10, Type 1, BuildingBlock: KUMBOL_clean_sbu_1, # of connection points: 6
#     Node 11, Type 1, BuildingBlock: KUMBOL_clean_sbu_1, # of connection points: 6
#     Edge 12, Type (0, 1), None
#     Edge 13, Type (0, 1), None
#     Edge 14, Type (0, 1), None
#     Edge 15, Type (0, 1), None
#     Edge 16, Type (0, 1), None
#     Edge 17, Type (0, 1), None
#     Edge 18, Type (0, 1), None
#     Edge 19, Type (0, 1), None
#     Edge 20, Type (0, 1), None
#     Edge 21, Type (0, 1), None
#     Edge 22, Type (0, 1), None
#     Edge 23, Type (0, 1), None
#     Edge 24, Type (0, 1), None
#     Edge 25, Type (0, 1), None
#     Edge 26, Type (0, 1), None
#     Edge 27, Type (0, 1), None
#     Edge 28, Type (0, 1), None
#     Edge 29, Type (0, 1), None
#     Edge 30, Type (0, 1), None
#     Edge 31, Type (0, 1), None
#     Edge 32, Type (0, 1), None
#     Edge 33, Type (0, 1), None
#     Edge 34, Type (0, 1), None
#     Edge 35, Type (0, 1), None
# Relax obj value: 0.006
# Max RMSD: 0.142
# Mean RMSD: 0.105
data_MOF--net-apo--node1-KUMBOL_clean_sbu_1--node2-KAKCAD_clean_linker_0--edge1-none
_symmetry_space_group_name_H-M    P1
_symmetry_Int_Tables_number       1
_symmetry_cell_setting            triclinic
loop_
_symmetry_equiv_pos_as_xyz
'x, y, z'
_cell_length_a     16.500531
_cell_length_b     28.310876
_cell_length_c     38.459115
_cell_angle_alpha  90.055507
_cell_angle_beta   89.746362
_cell_angle_gamma 90.614538
loop_
_atom_site_label
_atom_site_type_symbol
_atom_site_fract_x
_atom_site_fract_y
_atom_site_fract_z
_atom_type_partial_charge
C0 C 0.3188 0.51854 0.32824 0.0
C1 C 0.40289 0.52297 0.32278 0.0
C2 C 0.28703 0.48207 0.34879 0.0
C3 C 0.33881 0.45021 0.36521 0.0
C4 C 0.42285 0.45541 0.36101 0.0
C5 C 0.45467 0.49131 0.3398 0.0
C6 C 0.30455 0.40967 0.3846 0.0
C7 C 0.26579 0.37326 0.36624 0.0
C8 C 0.23141 0.33468 0.38387 0.0
C9 C 0.23443 0.33309 0.42035 0.0
C10 C 0.27056 0.37032 0.43941 0.0
C11 C 0.30728 0.40809 0.42109 0.0
C12 C 0.26279 0.37213 0.47812 0.0
C13 C 0.1887 0.35983 0.49413 0.0
C14 C 0.32635 0.38931 0.49915 0.0
C15 C 0.31481 0.39582 0.53504 0.0
C16 C 0.2392 0.38582 0.5505 0.0
C17 C 0.18946 0.29714 0.36393 0.0
C18 C 0.12243 0.30826 0.34324 0.0
C19 C 0.21749 0.25054 0.36455 0.0
C20 C 0.17929 0.21558 0.34455 0.0
C21 C 0.11149 0.22656 0.32422 0.0
C22 C 0.08332 0.27317 0.32378 0.0
C23 C 0.17707 0.3667 0.52977 0.0
H24 H 0.27717 0.54288 0.31641 0.0
H25 H 0.22191 0.47855 0.35174 0.0
H26 H 0.46367 0.43091 0.37336 0.0
H27 H 0.51978 0.49389 0.33648 0.0
H28 H 0.26287 0.3748 0.33808 0.0
H29 H 0.33441 0.43745 0.4351 0.0
H30 H 0.20647 0.3035 0.43386 0.0
H31 H 0.13808 0.34698 0.47885 0.0
H32 H 0.38445 0.39867 0.48774 0.0
H33 H 0.36369 0.41077 0.55036 0.0
H34 H 0.1001 0.34408 0.34232 0.0
H35 H 0.26965 0.24141 0.38007 0.0
H36 H 0.1183 0.3584 0.54102 0.0
H37 H 0.03158 0.28259 0.30809 0.0
H38 H 0.20224 0.17988 0.34522 0.0
C39 C 0.17868 0.98325 0.83112 0.0
C40 C 0.09446 0.97713 0.8274 0.0
C41 C 0.21011 0.02142 0.84995 0.0
C42 C 0.1579 0.05314 0.86649 0.0
C43 C 0.07394 0.0462 0.86417 0.0
C44 C 0.04241 0.00876 0.84455 0.0
C45 C 0.19116 0.09419 0.88542 0.0
C46 C 0.23145 0.13011 0.86706 0.0
C47 C 0.26438 0.16914 0.88466 0.0
C48 C 0.25825 0.17156 0.92107 0.0
C49 C 0.22034 0.13482 0.94003 0.0
C50 C 0.1852 0.09671 0.92175 0.0
C51 C 0.22547 0.13322 0.97868 0.0
C52 C 0.29909 0.14439 0.99518 0.0
C53 C 0.16045 0.11593 0.99903 0.0
C54 C 0.1705 0.10741 0.03466 0.0
C55 C 0.24595 0.11562 0.05044 0.0
C56 C 0.3081 0.20622 0.86485 0.0
C57 C 0.37317 0.19403 0.84311 0.0
C58 C 0.28382 0.25353 0.86671 0.0
C59 C 0.32329 0.28803 0.84664 0.0
C60 C 0.38855 0.27579 0.82501 0.0
C61 C 0.41355 0.22859 0.8236 0.0
C62 C 0.3092 0.13558 0.03059 0.0
H63 H 0.22057 0.95881 0.81943 0.0
H64 H 0.27523 0.02607 0.85177 0.0
H65 H 0.03282 0.07038 0.87686 0.0
H66 H 0.9772 0.00491 0.84266 0.0
H67 H 0.23651 0.12788 0.83896 0.0
H68 H 0.15695 0.06765 0.93577 0.0
H69 H 0.28537 0.2013 0.93465 0.0
H70 H 0.35069 0.15733 0.98037 0.0
H71 H 0.10266 0.10747 0.98717 0.0
H72 H 0.12082 0.09192 0.04939 0.0
H73 H 0.39285 0.15772 0.8413 0.0
H74 H 0.23328 0.26355 0.8831 0.0
H75 H 0.36784 0.1425 0.04221 0.0
H76 H 0.46333 0.21825 0.80688 0.0
H77 H 0.30295 0.32424 0.84804 0.0
C78 C 0.83847 0.00828 0.72321 0.0
C79 C 0.8988 0.97872 0.70991 0.0
C80 C 0.80892 0.04555 0.7034 0.0
C81 C 0.84239 0.05642 0.67046 0.0
C82 C 0.90252 0.02632 0.65713 0.0
C83 C 0.92858 0.98738 0.67615 0.0
C84 C 0.81549 0.09918 0.6507 0.0
C85 C 0.78088 0.1376 0.6684 0.0
C86 C 0.74864 0.17633 0.65049 0.0
C87 C 0.75893 0.17882 0.61428 0.0
C88 C 0.79989 0.14304 0.59637 0.0
C89 C 0.825 0.10267 0.61435 0.0
C90 C 0.82221 0.14962 0.55939 0.0
C91 C 0.76412 0.16261 0.53469 0.0
C92 C 0.90382 0.14616 0.54925 0.0
C93 C 0.92746 0.15707 0.51529 0.0
C94 C 0.86968 0.17074 0.49076 0.0
C95 C 0.70347 0.21331 0.66999 0.0
C96 C 0.65777 0.20059 0.69959 0.0
C97 C 0.70459 0.26104 0.65949 0.0
C98 C 0.66085 0.29491 0.67813 0.0
C99 C 0.61735 0.28182 0.70802 0.0
C100 C 0.61659 0.2345 0.71866 0.0
C101 C 0.78762 0.17256 0.50045 0.0
H102 H 0.81427 0.00314 0.74912 0.0
H103 H 0.76004 0.06588 0.71444 0.0
H104 H 0.93169 0.03302 0.63239 0.0
H105 H 0.97505 0.96531 0.66487 0.0
H106 H 0.77976 0.13799 0.69649 0.0
H107 H 0.85184 0.07432 0.59954 0.0
H108 H 0.73662 0.20888 0.59995 0.0
H109 H 0.70087 0.16547 0.54197 0.0
H110 H 0.94976 0.13661 0.56793 0.0
H111 H 0.99098 0.15519 0.50821 0.0
H112 H 0.65259 0.16419 0.70796 0.0
H113 H 0.73976 0.27247 0.63716 0.0
H114 H 0.74219 0.18306 0.48182 0.0
H115 H 0.58201 0.22339 0.7413 0.0
H116 H 0.66206 0.33136 0.66956 0.0
C117 C 0.66351 0.49113 0.2213 0.0
C118 C 0.60857 0.52266 0.20662 0.0
C119 C 0.69401 0.45357 0.20194 0.0
C120 C 0.66555 0.44382 0.16804 0.0
C121 C 0.61057 0.47586 0.15335 0.0
C122 C 0.58461 0.51533 0.17194 0.0
C123 C 0.6916 0.40012 0.14884 0.0
C124 C 0.72424 0.36173 0.16711 0.0
C125 C 0.75589 0.32227 0.14982 0.0
C126 C 0.74517 0.31835 0.11377 0.0
C127 C 0.70594 0.35402 0.09515 0.0
C128 C 0.68313 0.3956 0.11249 0.0
C129 C 0.68429 0.34648 0.05808 0.0
C130 C 0.73838 0.32445 0.03496 0.0
C131 C 0.60637 0.35813 0.04629 0.0
C132 C 0.58227 0.3467 1.01252 0.0
C133 C 0.63562 0.32349 0.99003 0.0
C134 C 0.80157 0.2862 0.16977 0.0
C135 C 0.84834 0.30028 0.19861 0.0
C136 C 0.80026 0.23806 0.16033 0.0
C137 C 0.84467 0.2051 0.17928 0.0
C138 C 0.88906 0.21956 0.20845 0.0
C139 C 0.89025 0.26724 0.21806 0.0
C140 C 0.71415 0.31305 1.00117 0.0
H141 H 0.6818 0.49432 0.24807 0.0
H142 H 0.73917 0.43207 0.21431 0.0
H143 H 0.58503 0.47043 0.12785 0.0
H144 H 0.54223 0.53882 0.1595 0.0
H145 H 0.7247 0.36177 0.19517 0.0
H146 H 0.65888 0.42403 0.09714 0.0
H147 H 0.76623 0.28729 0.1002 0.0
H148 H 0.79909 0.31558 0.0431 0.0
H149 H 0.56295 0.37459 0.06355 0.0
H150 H 0.52154 0.35519 1.00414 0.0
H151 H 0.85349 0.33704 0.20614 0.0
H152 H 0.76423 0.22561 0.13867 0.0
H153 H 0.75624 0.29553 0.98386 0.0
H154 H 0.92513 0.27916 0.24028 0.0
H155 H 0.84277 0.16823 0.1717 0.0
C156 C 0.54153 0.50294 0.68453 0.0
C157 C 0.59015 0.47728 0.70761 0.0
C158 C 0.57413 0.54098 0.66577 0.0
C159 C 0.65579 0.55425 0.66989 0.0
C160 C 0.70465 0.52823 0.6925 0.0
C161 C 0.67231 0.48996 0.71089 0.0
C162 C 0.68978 0.59567 0.65119 0.0
C163 C 0.73532 0.62979 0.66933 0.0
C164 C 0.76587 0.66978 0.65215 0.0
C165 C 0.75247 0.67511 0.61642 0.0
C166 C 0.70831 0.64092 0.59761 0.0
C167 C 0.67636 0.60146 0.61538 0.0
C168 C 0.69854 0.64596 0.55934 0.0
C169 C 0.68709 0.69077 0.5445 0.0
C170 C 0.70584 0.60662 0.53717 0.0
C171 C 0.70572 0.61238 0.50104 0.0
C172 C 0.69908 0.6576 0.48643 0.0
C173 C 0.81028 0.70675 0.67161 0.0
C174 C 0.78272 0.75343 0.67118 0.0
C175 C 0.87986 0.6957 0.69073 0.0
C176 C 0.9218 0.73106 0.70889 0.0
C177 C 0.89354 0.77767 0.70878 0.0
C178 C 0.8236 0.78851 0.68985 0.0
C179 C 0.68787 0.69655 0.50848 0.0
H180 H 0.47795 0.49415 0.6813 0.0
H181 H 0.53504 0.56068 0.64864 0.0
H182 H 0.76817 0.53723 0.6957 0.0
H183 H 0.7121 0.47005 0.72736 0.0
H184 H 0.74483 0.62602 0.69707 0.0
H185 H 0.64142 0.57505 0.60137 0.0
H186 H 0.77859 0.70548 0.60318 0.0
H187 H 0.67916 0.72165 0.56076 0.0
H188 H 0.71541 0.57164 0.54765 0.0
H189 H 0.71489 0.5818 0.48458 0.0
H190 H 0.72876 0.76258 0.65683 0.0
H191 H 0.90201 0.65982 0.69136 0.0
H192 H 0.68131 0.7317 0.49782 0.0
H193 H 0.80044 0.82418 0.68951 0.0
H194 H 0.97504 0.72176 0.72367 0.0
C195 C 0.68708 0.87082 1.00278 0.0
C196 C 0.75305 0.88895 0.98359 0.0
C197 C 0.69442 0.86158 0.0383 0.0
C198 C 0.76791 0.87052 0.05556 0.0
C199 C 0.83538 0.88601 0.03589 0.0
C200 C 0.82811 0.89493 1.00017 0.0
C201 C 0.77144 0.86791 0.09425 0.0
C202 C 0.73131 0.83129 0.11254 0.0
C203 C 0.72813 0.83122 0.1492 0.0
C204 C 0.76561 0.86865 0.16735 0.0
C205 C 0.8051 0.90541 0.14955 0.0
C206 C 0.80901 0.90458 0.11316 0.0
C207 C 0.83949 0.9457 0.16919 0.0
C208 C 0.78847 0.97551 0.18828 0.0
C209 C 0.92323 0.95429 0.16922 0.0
C210 C 0.95581 0.99142 0.18887 0.0
C211 C 0.90505 0.02128 0.2084 0.0
C212 C 0.68427 0.79303 0.1687 0.0
C213 C 0.68415 0.74588 0.15686 0.0
C214 C 0.64263 0.80348 0.19977 0.0
C215 C 0.60401 0.76785 0.21885 0.0
C216 C 0.60467 0.72096 0.20713 0.0
C217 C 0.64414 0.71027 0.17577 0.0
C218 C 0.82082 0.01343 0.20719 0.0
H219 H 0.62861 0.8657 0.99056 0.0
H220 H 0.64109 0.85 0.05256 0.0
H221 H 0.89313 0.89267 0.04835 0.0
H222 H 0.87981 0.90904 0.986 0.0
H223 H 0.70113 0.80338 0.09812 0.0
H224 H 0.83795 0.93383 0.0996 0.0
H225 H 0.76505 0.86928 0.19553 0.0
H226 H 0.72344 0.96975 0.18822 0.0
H227 H 0.96352 0.9317 0.15455 0.0
H228 H 0.02095 0.9965 0.18877 0.0
H229 H 0.71613 0.73623 0.13331 0.0
H230 H 0.6391 0.83935 0.20939 0.0
H231 H 0.77966 0.03656 0.22065 0.0
H232 H 0.64547 0.67425 0.16627 0.0
H233 H 0.57271 0.77713 0.24268 0.0
C234 C 0.11026 0.97713 0.30693 0.0
C235 C 0.09806 0.02165 0.32166 0.0
C236 C 0.13941 0.94036 0.32718 0.0
C237 C 0.1596 0.94764 0.36241 0.0
C238 C 0.14713 0.99244 0.37713 0.0
C239 C 0.11588 0.02903 0.35698 0.0
C240 C 0.19384 0.90817 0.38301 0.0
C241 C 0.24439 0.87573 0.36632 0.0
C242 C 0.26626 0.83323 0.38223 0.0
C243 C 0.24489 0.82635 0.41734 0.0
C244 C 0.20113 0.86078 0.4359 0.0
C245 C 0.17401 0.90112 0.41826 0.0
C246 C 0.18652 0.85478 0.47389 0.0
C247 C 0.16727 0.81 0.48756 0.0
C248 C 0.20069 0.89249 0.49709 0.0
C249 C 0.20268 0.88454 0.53305 0.0
C250 C 0.19065 0.83881 0.54626 0.0
C251 C 0.30823 0.79602 0.36137 0.0
C252 C 0.2967 0.79332 0.32509 0.0
C253 C 0.35927 0.7627 0.37702 0.0
C254 C 0.39576 0.72736 0.35711 0.0
C255 C 0.38442 0.72535 0.32089 0.0
C256 C 0.33635 0.75963 0.30511 0.0
C257 C 0.16978 0.80206 0.52335 0.0
H258 H 0.0954 0.97041 0.27994 0.0
H259 H 0.14545 0.90598 0.31514 0.0
H260 H 0.16251 0.99949 0.40399 0.0
H261 H 0.10692 0.06331 0.36885 0.0
H262 H 0.26586 0.88365 0.34034 0.0
H263 H 0.13605 0.92619 0.43179 0.0
H264 H 0.26264 0.79437 0.43049 0.0
H265 H 0.15414 0.78047 0.47049 0.0
H266 H 0.21588 0.92739 0.48738 0.0
H267 H 0.21968 0.91328 0.55025 0.0
H268 H 0.25634 0.81692 0.31167 0.0
H269 H 0.37183 0.76381 0.40458 0.0
H270 H 0.16008 0.7665 0.53303 0.0
H271 H 0.32868 0.76057 0.27722 0.0
H272 H 0.4336 0.70194 0.37016 0.0
C273 C 0.27818 0.66514 0.03248 0.0
C274 C 0.3593 0.65939 0.04234 0.0
C275 C 0.25424 0.65608 0.99821 0.0
C276 C 0.31072 0.64033 0.97339 0.0
C277 C 0.39111 0.63275 0.98371 0.0
C278 C 0.41527 0.64252 0.01777 0.0
C279 C 0.28674 0.63367 0.93652 0.0
C280 C 0.24475 0.66947 0.91903 0.0
C281 C 0.22232 0.66421 0.88388 0.0
C282 C 0.24207 0.62165 0.86694 0.0
C283 C 0.28875 0.58698 0.8831 0.0
C284 C 0.30965 0.59292 0.91823 0.0
C285 C 0.32168 0.54727 0.86199 0.0
C286 C 0.2763 0.52667 0.83484 0.0
C287 C 0.40199 0.53274 0.86671 0.0
C288 C 0.43622 0.49903 0.84478 0.0
C289 C 0.39161 0.47926 0.81711 0.0
C290 C 0.18213 0.70333 0.86413 0.0
C291 C 0.13917 0.73965 0.88113 0.0
C292 C 0.18655 0.7048 0.8275 0.0
C293 C 0.14614 0.73904 0.80869 0.0
C294 C 0.10606 0.77595 0.82558 0.0
C295 C 0.10337 0.7761 0.86211 0.0
C296 C 0.31112 0.49354 0.81244 0.0
H297 H 0.23405 0.67838 0.0509 0.0
H298 H 0.19175 0.66186 0.99098 0.0
H299 H 0.43599 0.62085 0.96511 0.0
H300 H 0.47814 0.63767 0.02481 0.0
H301 H 0.23283 0.70199 0.9328 0.0
H302 H 0.34371 0.56581 0.93141 0.0
H303 H 0.22378 0.6157 0.84042 0.0
H304 H 0.21375 0.53628 0.83069 0.0
H305 H 0.4395 0.5483 0.88682 0.0
H306 H 0.49812 0.48873 0.8496 0.0
H307 H 0.13198 0.74013 0.90906 0.0
H308 H 0.22142 0.67983 0.81258 0.0
H309 H 0.27451 0.47888 0.79174 0.0
H310 H 0.07189 0.80374 0.87601 0.0
H311 H 0.1471 0.73645 0.78061 0.0
C312 C 0.72268 0.11218 0.2787 0.0
C313 C 0.6954 0.02816 0.28542 0.0
C314 C 0.74935 0.06706 0.28671 0.0
C315 C 0.61428 0.03526 0.27598 0.0
C316 C 0.64132 0.11942 0.26919 0.0
C317 C 0.58733 0.08073 0.26788 0.0
N318 N 0.77616 0.14896 0.28031 0.0
C319 C 0.75225 0.19394 0.27337 0.0
C320 C 0.61661 0.16538 0.2614 0.0
C321 C 0.67234 0.20278 0.26353 0.0
Gd322 Gd 0.10287 0.12782 0.23464 0.0
Gd323 Gd 0.90694 0.13024 0.2986 0.0
N324 N 0.82876 0.06106 0.29478 0.0
C325 C 0.72489 0.98323 0.29337 0.0
C326 C 0.85728 0.01773 0.30377 0.0
C327 C 0.80608 0.97806 0.30272 0.0
H328 H 0.91945 0.01375 0.31162 0.0
H329 H 0.82911 0.94357 0.30933 0.0
H330 H 0.05137 0.23228 0.19761 0.0
H331 H 0.79439 0.22316 0.27613 0.0
H332 H 0.09688 0.31505 0.19934 0.0
H333 H 0.68545 0.95241 0.29255 0.0
H334 H 0.57194 0.00579 0.27479 0.0
H335 H 0.24222 0.06623 0.2771 0.0
H336 H 0.5546 0.1724 0.25399 0.0
H337 H 0.65356 0.23849 0.25795 0.0
H338 H 0.34324 0.31119 0.26474 0.0
H339 H 0.52456 0.08562 0.26067 0.0
H340 H 0.43376 0.16134 0.30654 0.0
H341 H 0.37497 0.0806 0.30517 0.0
N342 N 0.22697 0.13805 0.26287 0.0
C343 C 0.25869 0.18259 0.26272 0.0
C344 C 0.26755 0.10158 0.27773 0.0
C345 C 0.37575 0.15523 0.29413 0.0
C346 C 0.34265 0.10959 0.29351 0.0
C347 C 0.33357 0.19247 0.27882 0.0
H348 H 0.42081 0.24737 0.29181 0.0
N349 N 0.14185 0.20805 0.23228 0.0
C350 C 0.21437 0.21865 0.24749 0.0
C351 C 0.20054 0.30058 0.23126 0.0
C352 C 0.24492 0.26539 0.24782 0.0
C353 C 0.10223 0.24156 0.21363 0.0
C354 C 0.1296 0.28846 0.21362 0.0
O355 O 0.89194 0.08549 0.24959 0.0
O356 O 0.01979 0.06498 0.22923 0.0
O357 O 0.12658 0.13753 0.17881 0.0
O358 O 0.19536 0.08653 0.20915 0.0
O359 O 0.01677 0.09006 0.31617 0.0
O360 O 0.08533 0.06245 0.2674 0.0
O361 O 0.11315 0.15548 0.28996 0.0
O362 O 0.9926 0.19288 0.29716 0.0
O363 O 0.9155 0.11152 0.35303 0.0
O364 O 0.8333 0.16646 0.33704 0.0
O365 O 0.98495 0.15707 0.21378 0.0
O366 O 0.93403 0.19085 0.26317 0.0
C367 C 0.94046 0.06009 0.22975 0.0
C368 C 0.06453 0.05982 0.30049 0.0
C369 C 0.23176 0.09267 0.14815 0.0
C370 C 0.26264 0.09804 0.08599 0.0
C371 C 0.34658 0.05062 0.12391 0.0
C372 C 0.29849 0.06277 0.15231 0.0
C373 C 0.32912 0.06821 0.09101 0.0
C374 C 0.21342 0.10994 0.1147 0.0
C375 C 0.18367 0.1061 0.17908 0.0
C376 C 0.31917 0.27543 0.26413 0.0
C377 C 0.36348 0.23907 0.27947 0.0
H378 H 0.22195 0.33686 0.23095 0.0
C379 C 0.07033 0.1896 0.30353 0.0
C380 C 0.93378 0.18544 0.22939 0.0
C381 C 0.89148 0.17248 0.39281 0.0
C382 C 0.89562 0.18442 0.4554 0.0
C383 C 0.97648 0.23453 0.41716 0.0
C384 C 0.94619 0.21023 0.38832 0.0
C385 C 0.95188 0.22148 0.45063 0.0
C386 C 0.86541 0.16006 0.42634 0.0
C387 C 0.86495 0.14392 0.36308 0.0
H388 H 0.3978 0.02756 0.12741 0.0
H389 H 0.31408 0.04895 0.17765 0.0
H390 H 0.36722 0.05803 0.0693 0.0
H391 H 0.16218 0.13304 0.11107 0.0
H392 H 0.01938 0.26335 0.41357 0.0
H393 H 0.96567 0.22058 0.36261 0.0
H394 H 0.97602 0.24058 0.47278 0.0
H395 H 0.82332 0.13075 0.42989 0.0
C396 C 0.7784 0.36712 0.77618 0.0
C397 C 0.83043 0.44745 0.77963 0.0
C398 C 0.76598 0.41459 0.78271 0.0
C399 C 0.90679 0.43201 0.76834 0.0
C400 C 0.85567 0.35114 0.7661 0.0
C401 C 0.91936 0.38396 0.76153 0.0
N402 N 0.71623 0.33626 0.78184 0.0
C403 C 0.72829 0.28875 0.77999 0.0
C404 C 0.86716 0.30251 0.76202 0.0
C405 C 0.80337 0.27115 0.76936 0.0
Gd406 Gd 0.39376 0.36369 0.73139 0.0
Gd407 Gd 0.59179 0.36905 0.7982 0.0
N408 N 0.69161 0.42831 0.79366 0.0
C409 C 0.81656 0.4946 0.78881 0.0
C410 C 0.67892 0.47357 0.80461 0.0
C411 C 0.74067 0.50759 0.80173 0.0
H412 H 0.62035 0.48351 0.81469 0.0
H413 H 0.7298 0.54372 0.80953 0.0
H414 H 0.46462 0.27159 0.68344 0.0
H415 H 0.67985 0.26439 0.78673 0.0
H416 H 0.45138 0.18499 0.68278 0.0
H417 H 0.86441 0.52097 0.78673 0.0
H418 H 0.95693 0.45676 0.76553 0.0
H419 H 0.23032 0.40412 0.77177 0.0
H420 H 0.92558 0.28879 0.75426 0.0
H421 H 0.81223 0.23344 0.7672 0.0
H422 H 0.23026 0.15298 0.7609 0.0
H423 H 0.97905 0.37239 0.7536 0.0
H424 H 0.08704 0.28605 0.80652 0.0
H425 H 0.10909 0.3725 0.8024 0.0
N426 N 0.27577 0.33641 0.75918 0.0
C427 C 0.26317 0.289 0.75982 0.0
C428 C 0.2208 0.36644 0.7735 0.0
C429 C 0.13999 0.29978 0.793 0.0
C430 C 0.15227 0.34861 0.79077 0.0
C431 C 0.19552 0.26928 0.77726 0.0
H432 H 0.1344 0.20411 0.79194 0.0
N433 N 0.38075 0.28086 0.72504 0.0
C434 C 0.31802 0.26031 0.74272 0.0
C435 C 0.35668 0.18343 0.72148 0.0
C436 C 0.30537 0.21094 0.74204 0.0
C437 C 0.42408 0.25475 0.70176 0.0
C438 C 0.41478 0.2056 0.70047 0.0
O439 O 0.59615 0.42383 0.75568 0.0
O440 O 0.48657 0.41908 0.71712 0.0
O441 O 0.35018 0.35044 0.6786 0.0
O442 O 0.30649 0.41126 0.70792 0.0
O443 O 0.49578 0.42356 0.80685 0.0
O444 O 0.3867 0.42636 0.76775 0.0
O445 O 0.3875 0.34533 0.78896 0.0
O446 O 0.50654 0.30684 0.79563 0.0
O447 O 0.54647 0.37912 0.85069 0.0
O448 O 0.66538 0.34935 0.84231 0.0
O449 O 0.51783 0.34243 0.71137 0.0
O450 O 0.56304 0.31019 0.76146 0.0
C451 C 0.55541 0.43767 0.72815 0.0
C452 C 0.42754 0.44151 0.79526 0.0
C453 C 0.25331 0.40116 0.64925 0.0
C454 C 0.22149 0.39984 0.58705 0.0
C455 C 0.13469 0.44169 0.62779 0.0
C456 C 0.18459 0.42883 0.65527 0.0
C457 C 0.15272 0.42727 0.59398 0.0
C458 C 0.27203 0.38692 0.61493 0.0
C459 C 0.30446 0.38748 0.67899 0.0
C460 C 0.24015 0.19088 0.76069 0.0
C461 C 0.1853 0.22 0.77824 0.0
H462 H 0.34912 0.14542 0.7202 0.0
C463 C 0.42982 0.31178 0.80346 0.0
C464 C 0.57046 0.31647 0.72798 0.0
C465 C 0.59658 0.32796 0.89359 0.0
C466 C 0.60902 0.30984 0.95499 0.0
C467 C 0.5469 0.25289 0.91584 0.0
C468 C 0.56 0.2837 0.88794 0.0
C469 C 0.57132 0.26586 0.94932 0.0
C470 C 0.62123 0.34087 0.9271 0.0
C471 C 0.61056 0.36113 0.86502 0.0
H472 H 0.08174 0.46297 0.63271 0.0
H473 H 0.16897 0.44022 0.68133 0.0
H474 H 0.11331 0.43815 0.57307 0.0
H475 H 0.32516 0.36572 0.60994 0.0
H476 H 0.51814 0.21886 0.91147 0.0
H477 H 0.54218 0.27303 0.86207 0.0
H478 H 0.56117 0.24164 0.97074 0.0
H479 H 0.65009 0.37496 0.93149 0.0
C480 C 0.74509 0.81532 0.77069 0.0
C481 C 0.76378 0.73278 0.78487 0.0
C482 C 0.79117 0.78018 0.78578 0.0
C483 C 0.69154 0.72119 0.76748 0.0
C484 C 0.67147 0.80405 0.75398 0.0
C485 C 0.64535 0.75675 0.75219 0.0
N486 N 0.77335 0.86056 0.77173 0.0
C487 C 0.72963 0.89641 0.75778 0.0
C488 C 0.62653 0.84066 0.73939 0.0
C489 C 0.65556 0.8871 0.74149 0.0
Gd490 Gd 0.09847 0.87411 0.73632 0.0
Gd491 Gd 0.8984 0.87344 0.79921 0.0
N492 N 0.8614 0.79249 0.80215 0.0
C493 C 0.80863 0.6986 0.80231 0.0
C494 C 0.89968 0.76008 0.82233 0.0
C495 C 0.8758 0.71254 0.82182 0.0
H496 H 0.94629 0.77074 0.84007 0.0
H497 H 0.90803 0.68691 0.83721 0.0
H498 H 0.06207 0.98883 0.71545 0.0
H499 H 0.7516 0.93226 0.75959 0.0
H500 H 0.13215 0.06516 0.717 0.0
H501 H 0.78974 0.66182 0.80222 0.0
H502 H 0.67011 0.68491 0.76626 0.0
H503 H 0.23133 0.79631 0.76705 0.0
H504 H 0.56935 0.8335 0.72657 0.0
H505 H 0.62097 0.91571 0.73055 0.0
H506 H 0.39556 0.02949 0.76082 0.0
H507 H 0.58929 0.74735 0.73922 0.0
H508 H 0.45205 0.86925 0.79104 0.0
H509 H 0.3713 0.79517 0.78917 0.0
N510 N 0.23031 0.87014 0.75893 0.0
C511 C 0.27415 0.91103 0.75896 0.0
C512 C 0.26451 0.82892 0.7694 0.0
C513 C 0.38996 0.86994 0.782 0.0
C514 C 0.34448 0.82813 0.78119 0.0
C515 C 0.35504 0.91208 0.77081 0.0
H516 H 0.46059 0.95641 0.78017 0.0
N517 N 0.15893 0.95021 0.73704 0.0
C518 C 0.23757 0.9522 0.74767 0.0
C519 C 0.24217 0.03649 0.73757 0.0
C520 C 0.281 0.99546 0.74841 0.0
C521 C 0.12202 0.99008 0.7255 0.0
C522 C 0.16242 0.03372 0.72595 0.0
O523 O 0.88898 0.84708 0.74394 0.0
O524 O 0.01148 0.81184 0.73639 0.0
O525 O 0.10562 0.88206 0.6789 0.0
O526 O 0.1807 0.83177 0.70697 0.0
O527 O 0.01507 0.84203 0.82001 0.0
O528 O 0.07415 0.81147 0.77073 0.0
O529 O 0.11093 0.91094 0.78851 0.0
O530 O 0.98182 0.93683 0.80101 0.0
O531 O 0.8785 0.867 0.85569 0.0
O532 O 0.80577 0.91483 0.82446 0.0
O533 O 0.98808 0.91298 0.71674 0.0
O534 O 0.91224 0.93775 0.76467 0.0
C535 C 0.93394 0.81464 0.72958 0.0
C536 C 0.06583 0.81291 0.8047 0.0
C537 C 0.20296 0.83343 0.64525 0.0
C538 C 0.21549 0.82716 0.5821 0.0
C539 C 0.30697 0.784 0.61941 0.0
C540 C 0.26865 0.80242 0.64863 0.0
C541 C 0.28038 0.79601 0.58637 0.0
C542 C 0.17711 0.84641 0.61168 0.0
C543 C 0.16161 0.84984 0.67722 0.0
C544 C 0.36145 0.99657 0.76013 0.0
C545 C 0.39844 0.95498 0.7712 0.0
H546 H 0.27334 0.07034 0.73785 0.0
C547 C 0.06067 0.9387 0.80539 0.0
C548 C 0.93342 0.94047 0.73148 0.0
C549 C 0.77301 0.91241 0.88597 0.0
C550 C 0.73974 0.90748 0.94799 0.0
C551 C 0.66221 0.95827 0.90993 0.0
C552 C 0.70969 0.94471 0.8817 0.0
C553 C 0.67675 0.9397 0.94278 0.0
C554 C 0.78859 0.89418 0.91945 0.0
C555 C 0.81992 0.89744 0.85502 0.0
H556 H 0.35727 0.76013 0.62239 0.0
H557 H 0.29045 0.79197 0.67398 0.0
H558 H 0.31113 0.78125 0.56396 0.0
H559 H 0.12669 0.87023 0.60855 0.0
H560 H 0.61366 0.98317 0.9063 0.0
H561 H 0.69627 0.9594 0.85639 0.0
H562 H 0.63911 0.95096 0.96435 0.0
H563 H 0.8371 0.86921 0.92321 0.0
C564 C 0.75803 0.66947 0.2694 0.0
C565 C 0.76019 0.75384 0.28043 0.0
C566 C 0.72102 0.70944 0.28239 0.0
C567 C 0.83557 0.75777 0.26351 0.0
C568 C 0.83597 0.67278 0.25431 0.0
C569 C 0.87346 0.71729 0.25051 0.0
N570 N 0.72088 0.62693 0.27427 0.0
C571 C 0.76211 0.58625 0.26815 0.0
C572 C 0.87544 0.63108 0.24504 0.0
C573 C 0.83902 0.58756 0.25272 0.0
Gd574 Gd 0.40053 0.62281 0.23044 0.0
Gd575 Gd 0.58991 0.62808 0.29889 0.0
N576 N 0.64824 0.70434 0.2987 0.0
C577 C 0.72363 0.79258 0.29656 0.0
C578 C 0.61522 0.74118 0.31662 0.0
C579 C 0.65155 0.78602 0.31527 0.0
H580 H 0.5602 0.73595 0.33142 0.0
H581 H 0.62412 0.81543 0.32872 0.0
H582 H 0.44348 0.50978 0.20653 0.0
H583 H 0.73685 0.5529 0.27637 0.0
H584 H 0.37939 0.43157 0.20928 0.0
H585 H 0.75178 0.82732 0.29565 0.0
H586 H 0.86625 0.79168 0.26136 0.0
H587 H 0.25927 0.69833 0.25707 0.0
H588 H 0.9355 0.63205 0.23353 0.0
H589 H 0.87083 0.55507 0.24746 0.0
H590 H 0.11606 0.46043 0.25716 0.0
H591 H 0.93297 0.72057 0.23867 0.0
H592 H 0.04614 0.61985 0.28491 0.0
H593 H 0.11925 0.69627 0.27968 0.0
N594 N 0.26772 0.62404 0.25205 0.0
C595 C 0.22744 0.58199 0.25293 0.0
C596 C 0.22922 0.66482 0.26056 0.0
C597 C 0.10809 0.62061 0.27545 0.0
C598 C 0.14928 0.66377 0.27274 0.0
C599 C 0.14678 0.57905 0.26521 0.0
H600 H 0.04539 0.53205 0.27617 0.0
N601 N 0.34472 0.54569 0.22961 0.0
C602 C 0.26708 0.54167 0.2416 0.0
C603 C 0.26864 0.45737 0.23169 0.0
C604 C 0.22719 0.49734 0.24307 0.0
C605 C 0.38415 0.50686 0.21751 0.0
C606 C 0.34726 0.46221 0.21867 0.0
O607 O 0.56471 0.68768 0.26186 0.0
O608 O 0.52335 0.65012 0.21267 0.0
O609 O 0.35292 0.60949 0.17859 0.0
O610 O 0.34792 0.67973 0.20078 0.0
O611 O 0.46883 0.65713 0.31566 0.0
O612 O 0.4091 0.68662 0.26587 0.0
O613 O 0.38662 0.58915 0.28375 0.0
O614 O 0.5146 0.56183 0.29344 0.0
O615 O 0.56615 0.63087 0.3546 0.0
O616 O 0.67736 0.60101 0.33566 0.0
O617 O 0.51341 0.58516 0.21252 0.0
O618 O 0.59318 0.56629 0.26063 0.0
C619 C 0.56495 0.68366 0.22806 0.0
C620 C 0.42264 0.68789 0.29971 0.0
C621 C 0.37607 0.67367 0.14057 0.0
C622 C 0.38721 0.67468 0.07718 0.0
C623 C 0.47839 0.72281 0.11217 0.0
C624 C 0.44049 0.7065 0.14239 0.0
C625 C 0.45242 0.7068 0.07977 0.0
C626 C 0.34889 0.65827 0.10777 0.0
C627 C 0.33972 0.6541 0.17276 0.0
C628 C 0.14741 0.49422 0.25581 0.0
C629 C 0.1072 0.53497 0.26671 0.0
H630 H 0.24017 0.42275 0.2325 0.0
C631 C 0.4363 0.55994 0.29926 0.0
C632 C 0.57158 0.56099 0.22763 0.0
C633 C 0.68299 0.6433 0.38835 0.0
C634 C 0.71073 0.66486 0.44859 0.0
C635 C 0.78038 0.70566 0.40139 0.0
C636 C 0.73959 0.67754 0.37725 0.0
C637 C 0.76595 0.69956 0.43685 0.0
C638 C 0.6692 0.63674 0.42411 0.0
C639 C 0.63722 0.61508 0.36281 0.0
H640 H 0.52805 0.74799 0.11387 0.0
H641 H 0.46179 0.71952 0.16718 0.0
H642 H 0.48239 0.72018 0.05661 0.0
H643 H 0.29918 0.63304 0.10606 0.0
H644 H 0.82373 0.73206 0.39259 0.0
H645 H 0.75265 0.68247 0.34997 0.0
H646 H 0.79931 0.72131 0.45516 0.0
H647 H 0.62582 0.6102 0.43282 0.0
loop_
_geom_bond_atom_site_label_1
_geom_bond_atom_site_label_2
_geom_bond_distance
_geom_bond_site_symmetry_2
_ccdc_geom_bond_type
C0 C1 1.386 . S
C0 C2 1.397 . S
C0 H24 0.931 . S
C1 C0 1.386 . S
C1 C5 1.397 . S
C2 C0 1.397 . S
C2 C3 1.384 . S
C2 H25 0.930 . S
C3 C2 1.384 . S
C3 C4 1.377 . S
C3 C6 1.481 . S
C4 C3 1.377 . S
C4 C5 1.389 . S
C4 H26 0.929 . S
C5 C1 1.397 . S
C5 C4 1.389 . S
C5 H27 0.931 . S
C6 C3 1.481 . S
C6 C7 1.387 . S
C6 C11 1.390 . S
C7 C6 1.387 . S
C7 C8 1.401 . S
C7 H28 0.930 . S
C8 C7 1.401 . S
C8 C9 1.376 . S
C8 C17 1.511 . S
C9 C8 1.376 . S
C9 C10 1.392 . S
C9 H30 0.931 . S
C10 C9 1.392 . S
C10 C11 1.361 . S
C10 C12 1.500 . S
C11 C6 1.390 . S
C11 C10 1.361 . S
C11 H29 0.931 . S
C12 C10 1.500 . S
C12 C13 1.371 . S
C12 C14 1.365 . S
C13 C12 1.371 . S
C13 C23 1.386 . S
C13 H31 0.931 . S
C14 C12 1.365 . S
C14 C15 1.409 . S
C14 H32 0.929 . S
C15 C14 1.409 . S
C15 C16 1.380 . S
C15 H33 0.930 . S
C16 C15 1.380 . S
C16 C23 1.357 . S
C17 C8 1.511 . S
C17 C18 1.341 . S
C17 C19 1.371 . S
C18 C17 1.341 . S
C18 C22 1.394 . S
C18 H34 0.930 . S
C19 C17 1.371 . S
C19 C20 1.392 . S
C19 H35 0.931 . S
C20 C19 1.392 . S
C20 C21 1.331 . S
C20 H38 0.932 . S
C21 C20 1.331 . S
C21 C22 1.336 . S
C22 C18 1.394 . S
C22 C21 1.336 . S
C22 H37 0.929 . S
C23 C13 1.386 . S
C23 C16 1.357 . S
C23 H36 0.928 . S
H24 C0 0.931 . S
H25 C2 0.930 . S
H26 C4 0.929 . S
H27 C5 0.931 . S
H28 C7 0.930 . S
H29 C11 0.931 . S
H30 C9 0.931 . S
H31 C13 0.931 . S
H32 C14 0.929 . S
H33 C15 0.930 . S
H34 C18 0.930 . S
H35 C19 0.931 . S
H36 C23 0.928 . S
H37 C22 0.929 . S
H38 C20 0.932 . S
C39 C40 1.386 . S
C39 C41 1.397 1_565 S
C39 H63 0.931 . S
C40 C39 1.386 . S
C40 C44 1.397 . S
C41 C39 1.397 1_545 S
C41 C42 1.384 . S
C41 H64 0.930 . S
C42 C41 1.384 . S
C42 C43 1.377 . S
C42 C45 1.481 . S
C43 C42 1.377 . S
C43 C44 1.389 1_545 S
C43 H65 0.929 . S
C44 C40 1.397 . S
C44 C43 1.389 1_565 S
C44 H66 0.931 . S
C45 C42 1.481 . S
C45 C46 1.387 . S
C45 C50 1.390 . S
C46 C45 1.387 . S
C46 C47 1.401 . S
C46 H67 0.930 . S
C47 C46 1.401 . S
C47 C48 1.376 . S
C47 C56 1.511 . S
C48 C47 1.376 . S
C48 C49 1.392 . S
C48 H69 0.931 . S
C49 C48 1.392 . S
C49 C50 1.361 . S
C49 C51 1.500 . S
C50 C45 1.390 . S
C50 C49 1.361 . S
C50 H68 0.931 . S
C51 C49 1.500 . S
C51 C52 1.371 . S
C51 C53 1.365 . S
C52 C51 1.371 . S
C52 C62 1.386 1_556 S
C52 H70 0.931 . S
C53 C51 1.365 . S
C53 C54 1.409 1_556 S
C53 H71 0.929 . S
C54 C53 1.409 1_554 S
C54 C55 1.380 . S
C54 H72 0.930 . S
C55 C54 1.380 . S
C55 C62 1.357 . S
C56 C47 1.511 . S
C56 C57 1.341 . S
C56 C58 1.371 . S
C57 C56 1.341 . S
C57 C61 1.394 . S
C57 H73 0.930 . S
C58 C56 1.371 . S
C58 C59 1.392 . S
C58 H74 0.931 . S
C59 C58 1.392 . S
C59 C60 1.331 . S
C59 H77 0.932 . S
C60 C59 1.331 . S
C60 C61 1.336 . S
C61 C57 1.394 . S
C61 C60 1.336 . S
C61 H76 0.929 . S
C62 C52 1.386 1_554 S
C62 C55 1.357 . S
C62 H75 0.928 . S
H63 C39 0.931 . S
H64 C41 0.930 . S
H65 C43 0.929 . S
H66 C44 0.931 . S
H67 C46 0.930 . S
H68 C50 0.931 . S
H69 C48 0.931 . S
H70 C52 0.931 . S
H71 C53 0.929 . S
H72 C54 0.930 . S
H73 C57 0.930 . S
H74 C58 0.931 . S
H75 C62 0.928 . S
H76 C61 0.929 . S
H77 C59 0.932 . S
C78 C79 1.386 . S
C78 C80 1.397 1_565 S
C78 H102 0.931 . S
C79 C78 1.386 . S
C79 C83 1.397 . S
C80 C78 1.397 1_545 S
C80 C81 1.384 . S
C80 H103 0.930 . S
C81 C80 1.384 . S
C81 C82 1.377 . S
C81 C84 1.481 . S
C82 C81 1.377 . S
C82 C83 1.389 1_545 S
C82 H104 0.929 . S
C83 C79 1.397 . S
C83 C82 1.389 1_565 S
C83 H105 0.931 . S
C84 C81 1.481 . S
C84 C85 1.387 . S
C84 C89 1.390 . S
C85 C84 1.387 . S
C85 C86 1.401 . S
C85 H106 0.930 . S
C86 C85 1.401 . S
C86 C87 1.376 . S
C86 C95 1.511 . S
C87 C86 1.376 . S
C87 C88 1.392 . S
C87 H108 0.931 . S
C88 C87 1.392 . S
C88 C89 1.361 . S
C88 C90 1.500 . S
C89 C84 1.390 . S
C89 C88 1.361 . S
C89 H107 0.931 . S
C90 C88 1.500 . S
C90 C91 1.371 . S
C90 C92 1.365 . S
C91 C90 1.371 . S
C91 C101 1.386 . S
C91 H109 0.931 . S
C92 C90 1.365 . S
C92 C93 1.409 . S
C92 H110 0.929 . S
C93 C92 1.409 . S
C93 C94 1.380 . S
C93 H111 0.930 . S
C94 C93 1.380 . S
C94 C101 1.357 . S
C95 C86 1.511 . S
C95 C96 1.341 . S
C95 C97 1.371 . S
C96 C95 1.341 . S
C96 C100 1.394 . S
C96 H112 0.930 . S
C97 C95 1.371 . S
C97 C98 1.392 . S
C97 H113 0.931 . S
C98 C97 1.392 . S
C98 C99 1.331 . S
C98 H116 0.932 . S
C99 C98 1.331 . S
C99 C100 1.336 . S
C100 C96 1.394 . S
C100 C99 1.336 . S
C100 H115 0.929 . S
C101 C91 1.386 . S
C101 C94 1.357 . S
C101 H114 0.928 . S
H102 C78 0.931 . S
H103 C80 0.930 . S
H104 C82 0.929 . S
H105 C83 0.931 . S
H106 C85 0.930 . S
H107 C89 0.931 . S
H108 C87 0.931 . S
H109 C91 0.931 . S
H110 C92 0.929 . S
H111 C93 0.930 . S
H112 C96 0.930 . S
H113 C97 0.931 . S
H114 C101 0.928 . S
H115 C100 0.929 . S
H116 C98 0.932 . S
C117 C118 1.386 . S
C117 C119 1.397 . S
C117 H141 0.931 . S
C118 C117 1.386 . S
C118 C122 1.397 . S
C119 C117 1.397 . S
C119 C120 1.384 . S
C119 H142 0.930 . S
C120 C119 1.384 . S
C120 C121 1.377 . S
C120 C123 1.481 . S
C121 C120 1.377 . S
C121 C122 1.389 . S
C121 H143 0.929 . S
C122 C118 1.397 . S
C122 C121 1.389 . S
C122 H144 0.931 . S
C123 C120 1.481 . S
C123 C124 1.387 . S
C123 C128 1.390 . S
C124 C123 1.387 . S
C124 C125 1.401 . S
C124 H145 0.930 . S
C125 C124 1.401 . S
C125 C126 1.376 . S
C125 C134 1.511 . S
C126 C125 1.376 . S
C126 C127 1.392 . S
C126 H147 0.931 . S
C127 C126 1.392 . S
C127 C128 1.361 . S
C127 C129 1.500 . S
C128 C123 1.390 . S
C128 C127 1.361 . S
C128 H146 0.931 . S
C129 C127 1.500 . S
C129 C130 1.371 . S
C129 C131 1.365 . S
C130 C129 1.371 . S
C130 C140 1.386 1_554 S
C130 H148 0.931 . S
C131 C129 1.365 . S
C131 C132 1.409 1_554 S
C131 H149 0.929 . S
C132 C131 1.409 1_556 S
C132 C133 1.380 . S
C132 H150 0.930 . S
C133 C132 1.380 . S
C133 C140 1.357 . S
C134 C125 1.511 . S
C134 C135 1.341 . S
C134 C136 1.371 . S
C135 C134 1.341 . S
C135 C139 1.394 . S
C135 H151 0.930 . S
C136 C134 1.371 . S
C136 C137 1.392 . S
C136 H152 0.931 . S
C137 C136 1.392 . S
C137 C138 1.331 . S
C137 H155 0.932 . S
C138 C137 1.331 . S
C138 C139 1.336 . S
C139 C135 1.394 . S
C139 C138 1.336 . S
C139 H154 0.929 . S
C140 C130 1.386 1_556 S
C140 C133 1.357 . S
C140 H153 0.928 . S
H141 C117 0.931 . S
H142 C119 0.930 . S
H143 C121 0.929 . S
H144 C122 0.931 . S
H145 C124 0.930 . S
H146 C128 0.931 . S
H147 C126 0.931 . S
H148 C130 0.931 . S
H149 C131 0.929 . S
H150 C132 0.930 . S
H151 C135 0.930 . S
H152 C136 0.931 . S
H153 C140 0.928 . S
H154 C139 0.929 . S
H155 C137 0.932 . S
C156 C157 1.386 . S
C156 C158 1.397 . S
C156 H180 0.931 . S
C157 C156 1.386 . S
C157 C161 1.397 . S
C158 C156 1.397 . S
C158 C159 1.384 . S
C158 H181 0.930 . S
C159 C158 1.384 . S
C159 C160 1.377 . S
C159 C162 1.481 . S
C160 C159 1.377 . S
C160 C161 1.389 . S
C160 H182 0.929 . S
C161 C157 1.397 . S
C161 C160 1.389 . S
C161 H183 0.931 . S
C162 C159 1.481 . S
C162 C163 1.387 . S
C162 C167 1.390 . S
C163 C162 1.387 . S
C163 C164 1.401 . S
C163 H184 0.930 . S
C164 C163 1.401 . S
C164 C165 1.376 . S
C164 C173 1.511 . S
C165 C164 1.376 . S
C165 C166 1.392 . S
C165 H186 0.931 . S
C166 C165 1.392 . S
C166 C167 1.361 . S
C166 C168 1.500 . S
C167 C162 1.390 . S
C167 C166 1.361 . S
C167 H185 0.931 . S
C168 C166 1.500 . S
C168 C169 1.371 . S
C168 C170 1.365 . S
C169 C168 1.371 . S
C169 C179 1.386 . S
C169 H187 0.931 . S
C170 C168 1.365 . S
C170 C171 1.409 . S
C170 H188 0.929 . S
C171 C170 1.409 . S
C171 C172 1.380 . S
C171 H189 0.930 . S
C172 C171 1.380 . S
C172 C179 1.357 . S
C173 C164 1.511 . S
C173 C174 1.341 . S
C173 C175 1.371 . S
C174 C173 1.341 . S
C174 C178 1.394 . S
C174 H190 0.930 . S
C175 C173 1.371 . S
C175 C176 1.392 . S
C175 H191 0.931 . S
C176 C175 1.392 . S
C176 C177 1.331 . S
C176 H194 0.932 . S
C177 C176 1.331 . S
C177 C178 1.336 . S
C178 C174 1.394 . S
C178 C177 1.336 . S
C178 H193 0.929 . S
C179 C169 1.386 . S
C179 C172 1.357 . S
C179 H192 0.928 . S
H180 C156 0.931 . S
H181 C158 0.930 . S
H182 C160 0.929 . S
H183 C161 0.931 . S
H184 C163 0.930 . S
H185 C167 0.931 . S
H186 C165 0.931 . S
H187 C169 0.931 . S
H188 C170 0.929 . S
H189 C171 0.930 . S
H190 C174 0.930 . S
H191 C175 0.931 . S
H192 C179 0.928 . S
H193 C178 0.929 . S
H194 C176 0.932 . S
C195 C196 1.386 . S
C195 C197 1.397 1_556 S
C195 H219 0.931 . S
C196 C195 1.386 . S
C196 C200 1.397 . S
C197 C195 1.397 1_554 S
C197 C198 1.384 . S
C197 H220 0.930 . S
C198 C197 1.384 . S
C198 C199 1.377 . S
C198 C201 1.481 . S
C199 C198 1.377 . S
C199 C200 1.389 1_554 S
C199 H221 0.929 . S
C200 C196 1.397 . S
C200 C199 1.389 1_556 S
C200 H222 0.931 . S
C201 C198 1.481 . S
C201 C202 1.387 . S
C201 C206 1.390 . S
C202 C201 1.387 . S
C202 C203 1.401 . S
C202 H223 0.930 . S
C203 C202 1.401 . S
C203 C204 1.376 . S
C203 C212 1.511 . S
C204 C203 1.376 . S
C204 C205 1.392 . S
C204 H225 0.931 . S
C205 C204 1.392 . S
C205 C206 1.361 . S
C205 C207 1.500 . S
C206 C201 1.390 . S
C206 C205 1.361 . S
C206 H224 0.931 . S
C207 C205 1.500 . S
C207 C208 1.371 . S
C207 C209 1.365 . S
C208 C207 1.371 . S
C208 C218 1.386 1_565 S
C208 H226 0.931 . S
C209 C207 1.365 . S
C209 C210 1.409 1_565 S
C209 H227 0.929 . S
C210 C209 1.409 1_545 S
C210 C211 1.380 . S
C210 H228 0.930 . S
C211 C210 1.380 . S
C211 C218 1.357 . S
C212 C203 1.511 . S
C212 C213 1.341 . S
C212 C214 1.371 . S
C213 C212 1.341 . S
C213 C217 1.394 . S
C213 H229 0.930 . S
C214 C212 1.371 . S
C214 C215 1.392 . S
C214 H230 0.931 . S
C215 C214 1.392 . S
C215 C216 1.331 . S
C215 H233 0.932 . S
C216 C215 1.331 . S
C216 C217 1.336 . S
C217 C213 1.394 . S
C217 C216 1.336 . S
C217 H232 0.929 . S
C218 C208 1.386 1_545 S
C218 C211 1.357 . S
C218 H231 0.928 . S
H219 C195 0.931 . S
H220 C197 0.930 . S
H221 C199 0.929 . S
H222 C200 0.931 . S
H223 C202 0.930 . S
H224 C206 0.931 . S
H225 C204 0.931 . S
H226 C208 0.931 . S
H227 C209 0.929 . S
H228 C210 0.930 . S
H229 C213 0.930 . S
H230 C214 0.931 . S
H231 C218 0.928 . S
H232 C217 0.929 . S
H233 C215 0.932 . S
C234 C235 1.386 1_565 S
C234 C236 1.397 . S
C234 H258 0.931 . S
C235 C234 1.386 1_545 S
C235 C239 1.397 . S
C236 C234 1.397 . S
C236 C237 1.384 . S
C236 H259 0.930 . S
C237 C236 1.384 . S
C237 C238 1.377 1_565 S
C237 C240 1.481 . S
C238 C237 1.377 1_545 S
C238 C239 1.389 . S
C238 H260 0.929 . S
C239 C235 1.397 . S
C239 C238 1.389 . S
C239 H261 0.931 . S
C240 C237 1.481 . S
C240 C241 1.387 . S
C240 C245 1.390 . S
C241 C240 1.387 . S
C241 C242 1.401 . S
C241 H262 0.930 . S
C242 C241 1.401 . S
C242 C243 1.376 . S
C242 C251 1.511 . S
C243 C242 1.376 . S
C243 C244 1.392 . S
C243 H264 0.931 . S
C244 C243 1.392 . S
C244 C245 1.361 . S
C244 C246 1.500 . S
C245 C240 1.390 . S
C245 C244 1.361 . S
C245 H263 0.931 . S
C246 C244 1.500 . S
C246 C247 1.371 . S
C246 C248 1.365 . S
C247 C246 1.371 . S
C247 C257 1.386 . S
C247 H265 0.931 . S
C248 C246 1.365 . S
C248 C249 1.409 . S
C248 H266 0.929 . S
C249 C248 1.409 . S
C249 C250 1.380 . S
C249 H267 0.930 . S
C250 C249 1.380 . S
C250 C257 1.357 . S
C251 C242 1.511 . S
C251 C252 1.341 . S
C251 C253 1.371 . S
C252 C251 1.341 . S
C252 C256 1.394 . S
C252 H268 0.930 . S
C253 C251 1.371 . S
C253 C254 1.392 . S
C253 H269 0.931 . S
C254 C253 1.392 . S
C254 C255 1.331 . S
C254 H272 0.932 . S
C255 C254 1.331 . S
C255 C256 1.336 . S
C256 C252 1.394 . S
C256 C255 1.336 . S
C256 H271 0.929 . S
C257 C247 1.386 . S
C257 C250 1.357 . S
C257 H270 0.928 . S
H258 C234 0.931 . S
H259 C236 0.930 . S
H260 C238 0.929 . S
H261 C239 0.931 . S
H262 C241 0.930 . S
H263 C245 0.931 . S
H264 C243 0.931 . S
H265 C247 0.931 . S
H266 C248 0.929 . S
H267 C249 0.930 . S
H268 C252 0.930 . S
H269 C253 0.931 . S
H270 C257 0.928 . S
H271 C256 0.929 . S
H272 C254 0.932 . S
C273 C274 1.386 . S
C273 C275 1.397 1_554 S
C273 H297 0.931 . S
C274 C273 1.386 . S
C274 C278 1.396 1_554 S
C275 C273 1.397 1_556 S
C275 C276 1.384 . S
C275 H298 0.930 . S
C276 C275 1.384 . S
C276 C277 1.377 . S
C276 C279 1.481 . S
C277 C276 1.377 . S
C277 C278 1.391 . S
C277 H299 0.929 . S
C278 C274 1.396 1_556 S
C278 C277 1.391 . S
C278 H300 0.930 1_556 S
C279 C276 1.481 . S
C279 C280 1.387 . S
C279 C284 1.390 . S
C280 C279 1.387 . S
C280 C281 1.401 . S
C280 H301 0.930 . S
C281 C280 1.401 . S
C281 C282 1.376 . S
C281 C290 1.511 . S
C282 C281 1.376 . S
C282 C283 1.392 . S
C282 H303 0.931 . S
C283 C282 1.392 . S
C283 C284 1.361 . S
C283 C285 1.500 . S
C284 C279 1.390 . S
C284 C283 1.361 . S
C284 H302 0.931 . S
C285 C283 1.500 . S
C285 C286 1.371 . S
C285 C287 1.365 . S
C286 C285 1.371 . S
C286 C296 1.386 . S
C286 H304 0.931 . S
C287 C285 1.365 . S
C287 C288 1.409 . S
C287 H305 0.929 . S
C288 C287 1.409 . S
C288 C289 1.380 . S
C288 H306 0.930 . S
C289 C288 1.380 . S
C289 C296 1.357 . S
C290 C281 1.511 . S
C290 C291 1.341 . S
C290 C292 1.371 . S
C291 C290 1.341 . S
C291 C295 1.394 . S
C291 H307 0.930 . S
C292 C290 1.371 . S
C292 C293 1.392 . S
C292 H308 0.931 . S
C293 C292 1.392 . S
C293 C294 1.331 . S
C293 H311 0.932 . S
C294 C293 1.331 . S
C294 C295 1.336 . S
C295 C291 1.394 . S
C295 C294 1.336 . S
C295 H310 0.929 . S
C296 C286 1.386 . S
C296 C289 1.357 . S
C296 H309 0.928 . S
H297 C273 0.931 . S
H298 C275 0.930 . S
H299 C277 0.929 . S
H300 C278 0.930 1_554 S
H301 C280 0.930 . S
H302 C284 0.931 . S
H303 C282 0.931 . S
H304 C286 0.931 . S
H305 C287 0.929 . S
H306 C288 0.930 . S
H307 C291 0.930 . S
H308 C292 0.931 . S
H309 C296 0.928 . S
H310 C295 0.929 . S
H311 C293 0.932 . S
C312 C314 1.422 . S
C312 C316 1.415 . S
C312 N318 1.369 . S
C313 C314 1.421 . S
C313 C315 1.417 . S
C313 C325 1.422 1_545 S
C314 C312 1.422 . S
C314 C313 1.421 . S
C314 N324 1.359 . S
C315 C313 1.417 . S
C315 C317 1.329 . S
C315 H334 0.930 1_545 S
C316 C312 1.415 . S
C316 C317 1.437 . S
C316 C320 1.413 . S
C317 C315 1.329 . S
C317 C316 1.437 . S
C317 H339 0.929 . S
N318 C312 1.369 . S
N318 C319 1.338 . S
N318 Gd323 2.622 . S
C319 N318 1.338 . S
C319 C321 1.378 . S
C319 H331 0.929 . S
C320 C316 1.413 . S
C320 C321 1.348 . S
C320 H336 0.931 . S
C321 C319 1.378 . S
C321 C320 1.348 . S
C321 H337 0.930 . S
Gd322 N342 2.622 . S
Gd322 N349 2.570 . S
Gd322 O356 2.353 1_455 S
Gd322 O357 2.468 . S
Gd322 O358 2.427 . S
Gd322 O360 2.388 . S
Gd322 O361 2.386 . S
Gd322 O365 2.307 1_455 S
Gd322 C375 2.805 . S
Gd323 N318 2.622 . S
Gd323 N324 2.570 . S
Gd323 O355 2.386 . S
Gd323 O359 2.307 1_655 S
Gd323 O362 2.353 1_655 S
Gd323 O363 2.468 . S
Gd323 O364 2.427 . S
Gd323 O366 2.388 . S
Gd323 C387 2.805 . S
N324 C314 1.359 . S
N324 Gd323 2.570 . S
N324 C326 1.343 . S
C325 C313 1.422 1_565 S
C325 C327 1.321 . S
C325 H333 0.931 . S
C326 N324 1.343 . S
C326 C327 1.390 1_545 S
C326 H328 0.931 . S
C327 C325 1.321 . S
C327 C326 1.390 1_565 S
C327 H329 0.930 . S
H328 C326 0.931 . S
H329 C327 0.930 . S
H330 C353 0.931 . S
H331 C319 0.929 . S
H332 C354 0.930 . S
H333 C325 0.931 . S
H334 C315 0.930 1_565 S
H335 C344 0.929 . S
H336 C320 0.931 . S
H337 C321 0.930 . S
H338 C376 0.930 . S
H339 C317 0.929 . S
H340 C345 0.931 . S
H341 C346 0.930 . S
N342 Gd322 2.622 . S
N342 C343 1.369 . S
N342 C344 1.338 . S
C343 N342 1.369 . S
C343 C347 1.415 . S
C343 C350 1.422 . S
C344 H335 0.929 . S
C344 N342 1.338 . S
C344 C346 1.378 . S
C345 H340 0.931 . S
C345 C346 1.348 . S
C345 C347 1.413 . S
C346 H341 0.930 . S
C346 C344 1.378 . S
C346 C345 1.348 . S
C347 C343 1.415 . S
C347 C345 1.413 . S
C347 C377 1.437 . S
H348 C377 0.929 . S
N349 Gd322 2.570 . S
N349 C350 1.359 . S
N349 C353 1.343 . S
C350 C343 1.422 . S
C350 N349 1.359 . S
C350 C352 1.421 . S
C351 C352 1.422 . S
C351 C354 1.321 . S
C351 H378 0.931 . S
C352 C350 1.421 . S
C352 C351 1.422 . S
C352 C376 1.417 . S
C353 H330 0.931 . S
C353 N349 1.343 . S
C353 C354 1.390 . S
C354 H332 0.930 . S
C354 C351 1.321 . S
C354 C353 1.390 . S
O355 Gd323 2.386 . S
O355 C367 1.265 . S
O356 Gd322 2.353 1_655 S
O356 C367 1.242 . S
O357 Gd322 2.468 . S
O357 C375 1.263 . S
O358 Gd322 2.427 . S
O358 C375 1.252 . S
O359 Gd323 2.307 1_455 S
O359 C368 1.261 . S
O360 Gd322 2.388 . S
O360 C368 1.252 . S
O361 Gd322 2.386 . S
O361 C379 1.265 . S
O362 Gd323 2.353 1_455 S
O362 C379 1.242 . S
O363 Gd323 2.468 . S
O363 C387 1.263 . S
O364 Gd323 2.427 . S
O364 C387 1.252 . S
O365 Gd322 2.307 1_655 S
O365 C380 1.261 . S
O366 Gd323 2.388 . S
O366 C380 1.252 . S
C367 O355 1.265 . S
C367 O356 1.242 . S
C368 O359 1.261 . S
C368 O360 1.252 . S
C369 C372 1.394 . S
C369 C374 1.370 . S
C369 C375 1.500 . S
C370 C373 1.383 . S
C370 C374 1.395 . S
C371 C372 1.396 . S
C371 C373 1.365 . S
C371 H388 0.929 . S
C372 C369 1.394 . S
C372 C371 1.396 . S
C372 H389 0.930 . S
C373 C370 1.383 . S
C373 C371 1.365 . S
C373 H390 0.931 . S
C374 C369 1.370 . S
C374 C370 1.395 . S
C374 H391 0.930 . S
C375 Gd322 2.805 . S
C375 O357 1.263 . S
C375 O358 1.252 . S
C375 C369 1.500 . S
C376 H338 0.930 . S
C376 C352 1.417 . S
C376 C377 1.329 . S
C377 C347 1.437 . S
C377 H348 0.929 . S
C377 C376 1.329 . S
H378 C351 0.931 . S
C379 O361 1.265 . S
C379 O362 1.242 . S
C380 O365 1.261 . S
C380 O366 1.252 . S
C381 C384 1.394 . S
C381 C386 1.370 . S
C381 C387 1.500 . S
C382 C385 1.383 . S
C382 C386 1.395 . S
C383 C384 1.396 . S
C383 C385 1.365 . S
C383 H392 0.929 . S
C384 C381 1.394 . S
C384 C383 1.396 . S
C384 H393 0.930 . S
C385 C382 1.383 . S
C385 C383 1.365 . S
C385 H394 0.931 . S
C386 C381 1.370 . S
C386 C382 1.395 . S
C386 H395 0.930 . S
C387 Gd323 2.805 . S
C387 O363 1.263 . S
C387 O364 1.252 . S
C387 C381 1.500 . S
H388 C371 0.929 . S
H389 C372 0.930 . S
H390 C373 0.931 . S
H391 C374 0.930 . S
H392 C383 0.929 . S
H393 C384 0.930 . S
H394 C385 0.931 . S
H395 C386 0.930 . S
C396 C398 1.422 . S
C396 C400 1.415 . S
C396 N402 1.369 . S
C397 C398 1.421 . S
C397 C399 1.417 . S
C397 C409 1.422 . S
C398 C396 1.422 . S
C398 C397 1.421 . S
C398 N408 1.359 . S
C399 C397 1.417 . S
C399 C401 1.329 . S
C399 H418 0.930 . S
C400 C396 1.415 . S
C400 C401 1.437 . S
C400 C404 1.413 . S
C401 C399 1.329 . S
C401 C400 1.437 . S
C401 H423 0.929 . S
N402 C396 1.369 . S
N402 C403 1.338 . S
N402 Gd407 2.622 . S
C403 N402 1.338 . S
C403 C405 1.378 . S
C403 H415 0.929 . S
C404 C400 1.413 . S
C404 C405 1.348 . S
C404 H420 0.931 . S
C405 C403 1.378 . S
C405 C404 1.348 . S
C405 H421 0.930 . S
Gd406 N426 2.622 . S
Gd406 N433 2.570 . S
Gd406 O440 2.353 . S
Gd406 O441 2.468 . S
Gd406 O442 2.427 . S
Gd406 O444 2.388 . S
Gd406 O445 2.386 . S
Gd406 O449 2.307 . S
Gd406 C459 2.805 . S
Gd407 N402 2.622 . S
Gd407 N408 2.570 . S
Gd407 O439 2.386 . S
Gd407 O443 2.307 . S
Gd407 O446 2.353 . S
Gd407 O447 2.468 . S
Gd407 O448 2.427 . S
Gd407 O450 2.388 . S
Gd407 C471 2.805 . S
N408 C398 1.359 . S
N408 Gd407 2.570 . S
N408 C410 1.343 . S
C409 C397 1.422 . S
C409 C411 1.321 . S
C409 H417 0.931 . S
C410 N408 1.343 . S
C410 C411 1.390 . S
C410 H412 0.931 . S
C411 C409 1.321 . S
C411 C410 1.390 . S
C411 H413 0.930 . S
H412 C410 0.931 . S
H413 C411 0.930 . S
H414 C437 0.931 . S
H415 C403 0.929 . S
H416 C438 0.930 . S
H417 C409 0.931 . S
H418 C399 0.930 . S
H419 C428 0.929 . S
H420 C404 0.931 . S
H421 C405 0.930 . S
H422 C460 0.930 . S
H423 C401 0.929 . S
H424 C429 0.931 . S
H425 C430 0.930 . S
N426 Gd406 2.622 . S
N426 C427 1.369 . S
N426 C428 1.338 . S
C427 N426 1.369 . S
C427 C431 1.415 . S
C427 C434 1.422 . S
C428 H419 0.929 . S
C428 N426 1.338 . S
C428 C430 1.378 . S
C429 H424 0.931 . S
C429 C430 1.348 . S
C429 C431 1.413 . S
C430 H425 0.930 . S
C430 C428 1.378 . S
C430 C429 1.348 . S
C431 C427 1.415 . S
C431 C429 1.413 . S
C431 C461 1.437 . S
H432 C461 0.929 . S
N433 Gd406 2.570 . S
N433 C434 1.359 . S
N433 C437 1.343 . S
C434 C427 1.422 . S
C434 N433 1.359 . S
C434 C436 1.421 . S
C435 C436 1.422 . S
C435 C438 1.321 . S
C435 H462 0.931 . S
C436 C434 1.421 . S
C436 C435 1.422 . S
C436 C460 1.417 . S
C437 H414 0.931 . S
C437 N433 1.343 . S
C437 C438 1.390 . S
C438 H416 0.930 . S
C438 C435 1.321 . S
C438 C437 1.390 . S
O439 Gd407 2.386 . S
O439 C451 1.265 . S
O440 Gd406 2.353 . S
O440 C451 1.242 . S
O441 Gd406 2.468 . S
O441 C459 1.263 . S
O442 Gd406 2.427 . S
O442 C459 1.252 . S
O443 Gd407 2.307 . S
O443 C452 1.261 . S
O444 Gd406 2.388 . S
O444 C452 1.252 . S
O445 Gd406 2.386 . S
O445 C463 1.265 . S
O446 Gd407 2.353 . S
O446 C463 1.242 . S
O447 Gd407 2.468 . S
O447 C471 1.263 . S
O448 Gd407 2.427 . S
O448 C471 1.252 . S
O449 Gd406 2.307 . S
O449 C464 1.261 . S
O450 Gd407 2.388 . S
O450 C464 1.252 . S
C451 O439 1.265 . S
C451 O440 1.242 . S
C452 O443 1.261 . S
C452 O444 1.252 . S
C453 C456 1.394 . S
C453 C458 1.370 . S
C453 C459 1.500 . S
C454 C457 1.383 . S
C454 C458 1.395 . S
C455 C456 1.396 . S
C455 C457 1.365 . S
C455 H472 0.929 . S
C456 C453 1.394 . S
C456 C455 1.396 . S
C456 H473 0.930 . S
C457 C454 1.383 . S
C457 C455 1.365 . S
C457 H474 0.931 . S
C458 C453 1.370 . S
C458 C454 1.395 . S
C458 H475 0.930 . S
C459 Gd406 2.805 . S
C459 O441 1.263 . S
C459 O442 1.252 . S
C459 C453 1.500 . S
C460 H422 0.930 . S
C460 C436 1.417 . S
C460 C461 1.329 . S
C461 C431 1.437 . S
C461 H432 0.929 . S
C461 C460 1.329 . S
H462 C435 0.931 . S
C463 O445 1.265 . S
C463 O446 1.242 . S
C464 O449 1.261 . S
C464 O450 1.252 . S
C465 C468 1.394 . S
C465 C470 1.370 . S
C465 C471 1.500 . S
C466 C469 1.383 . S
C466 C470 1.395 . S
C467 C468 1.396 . S
C467 C469 1.365 . S
C467 H476 0.929 . S
C468 C465 1.394 . S
C468 C467 1.396 . S
C468 H477 0.930 . S
C469 C466 1.383 . S
C469 C467 1.365 . S
C469 H478 0.931 . S
C470 C465 1.370 . S
C470 C466 1.395 . S
C470 H479 0.930 . S
C471 Gd407 2.805 . S
C471 O447 1.263 . S
C471 O448 1.252 . S
C471 C465 1.500 . S
H472 C455 0.929 . S
H473 C456 0.930 . S
H474 C457 0.931 . S
H475 C458 0.930 . S
H476 C467 0.929 . S
H477 C468 0.930 . S
H478 C469 0.931 . S
H479 C470 0.930 . S
C480 C482 1.422 . S
C480 C484 1.415 . S
C480 N486 1.369 . S
C481 C482 1.421 . S
C481 C483 1.417 . S
C481 C493 1.422 . S
C482 C480 1.422 . S
C482 C481 1.421 . S
C482 N492 1.359 . S
C483 C481 1.417 . S
C483 C485 1.329 . S
C483 H502 0.930 . S
C484 C480 1.415 . S
C484 C485 1.437 . S
C484 C488 1.413 . S
C485 C483 1.329 . S
C485 C484 1.437 . S
C485 H507 0.929 . S
N486 C480 1.369 . S
N486 C487 1.338 . S
N486 Gd491 2.622 . S
C487 N486 1.338 . S
C487 C489 1.378 . S
C487 H499 0.929 . S
C488 C484 1.413 . S
C488 C489 1.348 . S
C488 H504 0.931 . S
C489 C487 1.378 . S
C489 C488 1.348 . S
C489 H505 0.930 . S
Gd490 N510 2.622 . S
Gd490 N517 2.570 . S
Gd490 O524 2.360 . S
Gd490 O525 2.468 . S
Gd490 O526 2.427 . S
Gd490 O528 2.388 . S
Gd490 O529 2.386 . S
Gd490 O533 2.305 1_455 S
Gd490 C543 2.805 . S
Gd491 N486 2.622 . S
Gd491 N492 2.570 . S
Gd491 O523 2.386 . S
Gd491 O527 2.307 1_655 S
Gd491 O530 2.353 1_655 S
Gd491 O531 2.468 . S
Gd491 O532 2.427 . S
Gd491 O534 2.388 . S
Gd491 C555 2.805 . S
N492 C482 1.359 . S
N492 Gd491 2.570 . S
N492 C494 1.343 . S
C493 C481 1.422 . S
C493 C495 1.321 . S
C493 H501 0.931 . S
C494 N492 1.343 . S
C494 C495 1.390 . S
C494 H496 0.931 . S
C495 C493 1.321 . S
C495 C494 1.390 . S
C495 H497 0.930 . S
H496 C494 0.931 . S
H497 C495 0.930 . S
H498 C521 0.931 . S
H499 C487 0.929 . S
H500 C522 0.930 . S
H501 C493 0.931 . S
H502 C483 0.930 . S
H503 C512 0.929 . S
H504 C488 0.931 . S
H505 C489 0.930 . S
H506 C544 0.930 1_545 S
H507 C485 0.929 . S
H508 C513 0.931 . S
H509 C514 0.930 . S
N510 Gd490 2.622 . S
N510 C511 1.369 . S
N510 C512 1.338 . S
C511 N510 1.369 . S
C511 C515 1.415 . S
C511 C518 1.422 . S
C512 H503 0.929 . S
C512 N510 1.338 . S
C512 C514 1.378 . S
C513 H508 0.931 . S
C513 C514 1.348 . S
C513 C515 1.413 . S
C514 H509 0.930 . S
C514 C512 1.378 . S
C514 C513 1.348 . S
C515 C511 1.415 . S
C515 C513 1.413 . S
C515 C545 1.437 . S
H516 C545 0.929 . S
N517 Gd490 2.570 . S
N517 C518 1.359 . S
N517 C521 1.343 . S
C518 C511 1.422 . S
C518 N517 1.359 . S
C518 C520 1.421 . S
C519 C520 1.422 1_545 S
C519 C522 1.321 . S
C519 H546 0.931 . S
C520 C518 1.421 . S
C520 C519 1.422 1_565 S
C520 C544 1.417 . S
C521 H498 0.931 . S
C521 N517 1.343 . S
C521 C522 1.390 1_565 S
C522 H500 0.930 . S
C522 C519 1.321 . S
C522 C521 1.390 1_545 S
O523 Gd491 2.386 . S
O523 C535 1.265 . S
O524 Gd490 2.360 . S
O524 C535 1.234 1_455 S
O525 Gd490 2.468 . S
O525 C543 1.263 . S
O526 Gd490 2.427 . S
O526 C543 1.252 . S
O527 Gd491 2.307 1_455 S
O527 C536 1.261 . S
O528 Gd490 2.388 . S
O528 C536 1.252 . S
O529 Gd490 2.386 . S
O529 C547 1.265 . S
O530 Gd491 2.353 1_455 S
O530 C547 1.242 . S
O531 Gd491 2.468 . S
O531 C555 1.263 . S
O532 Gd491 2.427 . S
O532 C555 1.252 . S
O533 Gd490 2.305 1_655 S
O533 C548 1.263 . S
O534 Gd491 2.388 . S
O534 C548 1.252 . S
C535 O523 1.265 . S
C535 O524 1.234 1_655 S
C536 O527 1.261 . S
C536 O528 1.252 . S
C537 C540 1.394 . S
C537 C542 1.370 . S
C537 C543 1.500 . S
C538 C541 1.383 . S
C538 C542 1.395 . S
C539 C540 1.396 . S
C539 C541 1.365 . S
C539 H556 0.929 . S
C540 C537 1.394 . S
C540 C539 1.396 . S
C540 H557 0.930 . S
C541 C538 1.383 . S
C541 C539 1.365 . S
C541 H558 0.931 . S
C542 C537 1.370 . S
C542 C538 1.395 . S
C542 H559 0.930 . S
C543 Gd490 2.805 . S
C543 O525 1.263 . S
C543 O526 1.252 . S
C543 C537 1.500 . S
C544 H506 0.930 1_565 S
C544 C520 1.417 . S
C544 C545 1.329 . S
C545 C515 1.437 . S
C545 H516 0.929 . S
C545 C544 1.329 . S
H546 C519 0.931 . S
C547 O529 1.265 . S
C547 O530 1.242 . S
C548 O533 1.263 . S
C548 O534 1.252 . S
C549 C552 1.394 . S
C549 C554 1.370 . S
C549 C555 1.500 . S
C550 C553 1.383 . S
C550 C554 1.395 . S
C551 C552 1.396 . S
C551 C553 1.365 . S
C551 H560 0.929 . S
C552 C549 1.394 . S
C552 C551 1.396 . S
C552 H561 0.930 . S
C553 C550 1.383 . S
C553 C551 1.365 . S
C553 H562 0.931 . S
C554 C549 1.370 . S
C554 C550 1.395 . S
C554 H563 0.930 . S
C555 Gd491 2.805 . S
C555 O531 1.263 . S
C555 O532 1.252 . S
C555 C549 1.500 . S
H556 C539 0.929 . S
H557 C540 0.930 . S
H558 C541 0.931 . S
H559 C542 0.930 . S
H560 C551 0.929 . S
H561 C552 0.930 . S
H562 C553 0.931 . S
H563 C554 0.930 . S
C564 C566 1.422 . S
C564 C568 1.415 . S
C564 N570 1.369 . S
C565 C566 1.421 . S
C565 C567 1.417 . S
C565 C577 1.422 . S
C566 C564 1.422 . S
C566 C565 1.421 . S
C566 N576 1.359 . S
C567 C565 1.417 . S
C567 C569 1.329 . S
C567 H586 0.930 . S
C568 C564 1.415 . S
C568 C569 1.437 . S
C568 C572 1.413 . S
C569 C567 1.329 . S
C569 C568 1.437 . S
C569 H591 0.929 . S
N570 C564 1.369 . S
N570 C571 1.338 . S
N570 Gd575 2.622 . S
C571 N570 1.338 . S
C571 C573 1.378 . S
C571 H583 0.929 . S
C572 C568 1.413 . S
C572 C573 1.348 . S
C572 H588 0.931 . S
C573 C571 1.378 . S
C573 C572 1.348 . S
C573 H589 0.930 . S
Gd574 N594 2.622 . S
Gd574 N601 2.570 . S
Gd574 O608 2.353 . S
Gd574 O609 2.468 . S
Gd574 O610 2.427 . S
Gd574 O612 2.388 . S
Gd574 O613 2.386 . S
Gd574 O617 2.307 . S
Gd574 C627 2.805 . S
Gd575 N570 2.622 . S
Gd575 N576 2.570 . S
Gd575 O607 2.386 . S
Gd575 O611 2.307 . S
Gd575 O614 2.353 . S
Gd575 O615 2.468 . S
Gd575 O616 2.427 . S
Gd575 O618 2.388 . S
Gd575 C639 2.805 . S
N576 C566 1.359 . S
N576 Gd575 2.570 . S
N576 C578 1.343 . S
C577 C565 1.422 . S
C577 C579 1.321 . S
C577 H585 0.931 . S
C578 N576 1.343 . S
C578 C579 1.390 . S
C578 H580 0.931 . S
C579 C577 1.321 . S
C579 C578 1.390 . S
C579 H581 0.930 . S
H580 C578 0.931 . S
H581 C579 0.930 . S
H582 C605 0.931 . S
H583 C571 0.929 . S
H584 C606 0.930 . S
H585 C577 0.931 . S
H586 C567 0.930 . S
H587 C596 0.929 . S
H588 C572 0.931 . S
H589 C573 0.930 . S
H590 C628 0.930 . S
H591 C569 0.929 . S
H592 C597 0.931 . S
H593 C598 0.930 . S
N594 Gd574 2.622 . S
N594 C595 1.369 . S
N594 C596 1.338 . S
C595 N594 1.369 . S
C595 C599 1.415 . S
C595 C602 1.422 . S
C596 H587 0.929 . S
C596 N594 1.338 . S
C596 C598 1.378 . S
C597 H592 0.931 . S
C597 C598 1.348 . S
C597 C599 1.413 . S
C598 H593 0.930 . S
C598 C596 1.378 . S
C598 C597 1.348 . S
C599 C595 1.415 . S
C599 C597 1.413 . S
C599 C629 1.437 . S
H600 C629 0.929 . S
N601 Gd574 2.570 . S
N601 C602 1.359 . S
N601 C605 1.343 . S
C602 C595 1.422 . S
C602 N601 1.359 . S
C602 C604 1.421 . S
C603 C604 1.422 . S
C603 C606 1.321 . S
C603 H630 0.931 . S
C604 C602 1.421 . S
C604 C603 1.422 . S
C604 C628 1.417 . S
C605 H582 0.931 . S
C605 N601 1.343 . S
C605 C606 1.390 . S
C606 H584 0.930 . S
C606 C603 1.321 . S
C606 C605 1.390 . S
O607 Gd575 2.386 . S
O607 C619 1.265 . S
O608 Gd574 2.353 . S
O608 C619 1.242 . S
O609 Gd574 2.468 . S
O609 C627 1.263 . S
O610 Gd574 2.427 . S
O610 C627 1.252 . S
O611 Gd575 2.307 . S
O611 C620 1.261 . S
O612 Gd574 2.388 . S
O612 C620 1.252 . S
O613 Gd574 2.386 . S
O613 C631 1.265 . S
O614 Gd575 2.353 . S
O614 C631 1.242 . S
O615 Gd575 2.468 . S
O615 C639 1.263 . S
O616 Gd575 2.427 . S
O616 C639 1.252 . S
O617 Gd574 2.307 . S
O617 C632 1.261 . S
O618 Gd575 2.388 . S
O618 C632 1.252 . S
C619 O607 1.265 . S
C619 O608 1.242 . S
C620 O611 1.261 . S
C620 O612 1.252 . S
C621 C624 1.394 . S
C621 C626 1.370 . S
C621 C627 1.500 . S
C622 C625 1.383 . S
C622 C626 1.395 . S
C623 C624 1.396 . S
C623 C625 1.365 . S
C623 H640 0.929 . S
C624 C621 1.394 . S
C624 C623 1.396 . S
C624 H641 0.930 . S
C625 C622 1.383 . S
C625 C623 1.365 . S
C625 H642 0.931 . S
C626 C621 1.370 . S
C626 C622 1.395 . S
C626 H643 0.930 . S
C627 Gd574 2.805 . S
C627 O609 1.263 . S
C627 O610 1.252 . S
C627 C621 1.500 . S
C628 H590 0.930 . S
C628 C604 1.417 . S
C628 C629 1.329 . S
C629 C599 1.437 . S
C629 H600 0.929 . S
C629 C628 1.329 . S
H630 C603 0.931 . S
C631 O613 1.265 . S
C631 O614 1.242 . S
C632 O617 1.261 . S
C632 O618 1.252 . S
C633 C636 1.394 . S
C633 C638 1.370 . S
C633 C639 1.500 . S
C634 C637 1.383 . S
C634 C638 1.395 . S
C635 C636 1.396 . S
C635 C637 1.365 . S
C635 H644 0.929 . S
C636 C633 1.394 . S
C636 C635 1.396 . S
C636 H645 0.930 . S
C637 C634 1.383 . S
C637 C635 1.365 . S
C637 H646 0.931 . S
C638 C633 1.370 . S
C638 C634 1.395 . S
C638 H647 0.930 . S
C639 Gd575 2.805 . S
C639 O615 1.263 . S
C639 O616 1.252 . S
C639 C633 1.500 . S
H640 C623 0.929 . S
H641 C624 0.930 . S
H642 C625 0.931 . S
H643 C626 0.930 . S
H644 C635 0.929 . S
H645 C636 0.930 . S
H646 C637 0.931 . S
H647 C638 0.930 . S
C235 C368 1.490 . S
C452 C289 1.495 . S
C451 C157 1.490 . S
C211 C367 1.491 . S
C548 C79 1.498 . S
C632 C118 1.504 . S
C1 C631 1.496 . S
C40 C547 1.503 . S
C370 C55 1.209 . S
C454 C16 1.211 . S
C466 C133 1.478 . S
C382 C94 1.476 . S
C550 C196 1.221 . S
C172 C634 1.217 . S
C622 C274 1.477 . S
C250 C538 1.481 . S
C379 C21 1.719 . S
C463 C60 1.724 . S
C99 C464 1.723 . S
C380 C138 1.727 . S
C535 C177 1.706 . S
C216 C619 1.722 . S
C255 C620 1.718 . S
C294 C536 1.722 . S
