# Generated by pormake.
# Topology rtl, (3,6)-cn, num edge types: 1
# Building blocks:
#     Node 0, Type 0, BuildingBlock: KAKCAD_clean_linker_0, # of connection points: 3
#     Node 1, Type 0, BuildingBlock: KAKCAD_clean_linker_0, # of connection points: 3
#     Node 2, Type 0, BuildingBlock: KAKCAD_clean_linker_0, # of connection points: 3
#     Node 3, Type 0, BuildingBlock: KAKCAD_clean_linker_0, # of connection points: 3
#     Node 4, Type 1, BuildingBlock: KUMBUR_clean_sbu_1, # of connection points: 6
#     Node 5, Type 1, BuildingBlock: KUMBUR_clean_sbu_1, # of connection points: 6
#     Edge 6, Type (0, 1), BuildingBlock: KIFKEQ_clean_linker_1, # of connection points: 2
#     Edge 7, Type (0, 1), BuildingBlock: KIFKEQ_clean_linker_1, # of connection points: 2
#     Edge 8, Type (0, 1), BuildingBlock: KIFKEQ_clean_linker_1, # of connection points: 2
#     Edge 9, Type (0, 1), BuildingBlock: KIFKEQ_clean_linker_1, # of connection points: 2
#     Edge 10, Type (0, 1), BuildingBlock: KIFKEQ_clean_linker_1, # of connection points: 2
#     Edge 11, Type (0, 1), BuildingBlock: KIFKEQ_clean_linker_1, # of connection points: 2
#     Edge 12, Type (0, 1), BuildingBlock: KIFKEQ_clean_linker_1, # of connection points: 2
#     Edge 13, Type (0, 1), BuildingBlock: KIFKEQ_clean_linker_1, # of connection points: 2
#     Edge 14, Type (0, 1), BuildingBlock: KIFKEQ_clean_linker_1, # of connection points: 2
#     Edge 15, Type (0, 1), BuildingBlock: KIFKEQ_clean_linker_1, # of connection points: 2
#     Edge 16, Type (0, 1), BuildingBlock: KIFKEQ_clean_linker_1, # of connection points: 2
#     Edge 17, Type (0, 1), BuildingBlock: KIFKEQ_clean_linker_1, # of connection points: 2
# Relax obj value: 0.017
# Max RMSD: 0.096
# Mean RMSD: 0.058
data_MOF--net-rtl--node1-KUMBUR_clean_sbu_1--node2-KAKCAD_clean_linker_0--edge1-KIFKEQ_clean_linker_1
_symmetry_space_group_name_H-M    P1
_symmetry_Int_Tables_number       1
_symmetry_cell_setting            triclinic
loop_
_symmetry_equiv_pos_as_xyz
'x, y, z'
_cell_length_a     40.367255
_cell_length_b     41.039342
_cell_length_c     35.498707
_cell_angle_alpha  80.227577
_cell_angle_beta   99.432947
_cell_angle_gamma 90.579417
loop_
_atom_site_label
_atom_site_type_symbol
_atom_site_fract_x
_atom_site_fract_y
_atom_site_fract_z
_atom_type_partial_charge
C0 C 0.14894 0.85659 0.87903 0.0
C1 C 0.14004 0.89034 0.87 0.0
C2 C 0.16503 0.84284 0.91616 0.0
C3 C 0.17297 0.86259 0.94505 0.0
C4 C 0.16391 0.89639 0.93595 0.0
C5 C 0.14748 0.91006 0.8989 0.0
C6 C 0.191 0.84806 0.9843 0.0
C7 C 0.21633 0.82382 0.98854 0.0
C8 C 0.23347 0.80991 0.02532 0.0
C9 C 0.2254 0.8206 0.05827 0.0
C10 C 0.19993 0.84458 0.0548 0.0
C11 C 0.18291 0.85817 0.01769 0.0
C12 C 0.19048 0.85482 0.08992 0.0
C13 C 0.18782 0.83116 0.12286 0.0
C14 C 0.18367 0.88823 0.09065 0.0
C15 C 0.1744 0.89773 0.12356 0.0
C16 C 0.17162 0.87402 0.15645 0.0
C17 C 0.25942 0.78373 0.02915 0.0
C18 C 0.25225 0.75618 0.01071 0.0
C19 C 0.29144 0.78615 0.05092 0.0
C20 C 0.31601 0.76164 0.05372 0.0
C21 C 0.30874 0.73402 0.03541 0.0
C22 C 0.27658 0.73143 0.01407 0.0
C23 C 0.1785 0.84063 0.15571 0.0
H24 H 0.14308 0.84071 0.85747 0.0
H25 H 0.17096 0.8166 0.92226 0.0
H26 H 0.17006 0.91247 0.95723 0.0
H27 H 0.14121 0.93624 0.89261 0.0
H28 H 0.22332 0.81613 0.96314 0.0
H29 H 0.16262 0.87594 0.01492 0.0
H30 H 0.23877 0.80995 0.08666 0.0
H31 H 0.19252 0.80518 0.12312 0.0
H32 H 0.18576 0.90711 0.06587 0.0
H33 H 0.16903 0.92362 0.12306 0.0
H34 H 0.22768 0.75366 0.99394 0.0
H35 H 0.2976 0.80723 0.06526 0.0
H36 H 0.17701 0.82178 0.1807 0.0
H37 H 0.27043 0.71048 0.99948 0.0
H38 H 0.34058 0.7641 0.07049 0.0
C39 C 0.63247 0.66861 0.73785 0.0
C40 C 0.63729 0.6349 0.75457 0.0
C41 C 0.64549 0.68158 0.70424 0.0
C42 C 0.66305 0.66106 0.68615 0.0
C43 C 0.66836 0.62765 0.7029 0.0
C44 C 0.65603 0.61483 0.73689 0.0
C45 C 0.67427 0.67384 0.64872 0.0
C46 C 0.69704 0.69997 0.64552 0.0
C47 C 0.70833 0.71132 0.61009 0.0
C48 C 0.69545 0.69669 0.57767 0.0
C49 C 0.67287 0.67044 0.58042 0.0
C50 C 0.66253 0.65913 0.61621 0.0
C51 C 0.66135 0.65406 0.54622 0.0
C52 C 0.65408 0.67271 0.50864 0.0
C53 C 0.65904 0.61945 0.5507 0.0
C54 C 0.65062 0.60386 0.51841 0.0
C55 C 0.64448 0.62243 0.48072 0.0
C56 C 0.73416 0.73765 0.60664 0.0
C57 C 0.73508 0.76424 0.62724 0.0
C58 C 0.75796 0.73664 0.58187 0.0
C59 C 0.78093 0.762 0.57656 0.0
C60 C 0.78141 0.78865 0.59663 0.0
C61 C 0.75869 0.78933 0.62252 0.0
C62 C 0.64583 0.6571 0.4763 0.0
H63 H 0.61784 0.68491 0.74998 0.0
H64 H 0.64086 0.7074 0.69162 0.0
H65 H 0.68208 0.61141 0.68961 0.0
H66 H 0.66127 0.58906 0.7492 0.0
H67 H 0.70679 0.71049 0.67103 0.0
H68 H 0.64486 0.63913 0.61877 0.0
H69 H 0.70348 0.7054 0.55012 0.0
H70 H 0.65508 0.69945 0.5041 0.0
H71 H 0.6647 0.60423 0.57911 0.0
H72 H 0.64924 0.57715 0.52303 0.0
H73 H 0.71712 0.76614 0.64633 0.0
H74 H 0.75903 0.71616 0.56647 0.0
H75 H 0.64147 0.67223 0.44777 0.0
H76 H 0.7586 0.80972 0.63829 0.0
H77 H 0.79859 0.76066 0.55691 0.0
C78 C 0.83422 0.09884 0.17644 0.0
C79 C 0.86771 0.10522 0.19088 0.0
C80 C 0.81963 0.11353 0.13897 0.0
C81 C 0.83858 0.1341 0.11512 0.0
C82 C 0.87239 0.13958 0.12908 0.0
C83 C 0.88675 0.12555 0.16686 0.0
C84 C 0.82248 0.15163 0.07673 0.0
C85 C 0.79639 0.17453 0.07435 0.0
C86 C 0.78117 0.19235 0.03839 0.0
C87 C 0.79239 0.18644 1.00458 0.0
C88 C 0.81871 0.16363 0.00639 0.0
C89 C 0.83372 0.1464 0.04285 0.0
C90 C 0.83077 0.15843 0.97023 0.0
C91 C 0.80804 0.15909 0.93552 0.0
C92 C 0.86516 0.15365 0.96979 0.0
C93 C 0.87652 0.15005 0.9355 0.0
C94 C 0.85384 0.15148 0.90058 0.0
C95 C 0.75442 0.2178 0.03638 0.0
C96 C 0.73158 0.21358 0.06276 0.0
C97 C 0.752 0.24698 0.0087 0.0
C98 C 0.7276 0.27121 0.00752 0.0
C99 C 0.70534 0.2674 0.03456 0.0
C100 C 0.70766 0.23815 0.06213 0.0
C101 C 0.81942 0.15592 0.90117 0.0
H102 H 0.81907 0.08337 0.19457 0.0
H103 H 0.79346 0.10911 0.12871 0.0
H104 H 0.88733 0.15558 0.11119 0.0
H105 H 0.91265 0.13072 0.17748 0.0
H106 H 0.78889 0.1792 0.10092 0.0
H107 H 0.85376 0.12847 0.045 0.0
H108 H 0.78084 0.19993 0.97671 0.0
H109 H 0.78131 0.16212 0.93475 0.0
H110 H 0.88351 0.15333 0.99578 0.0
H111 H 0.90314 0.14612 0.93647 0.0
H112 H 0.73213 0.19128 0.0841 0.0
H113 H 0.76933 0.25156 0.98822 0.0
H114 H 0.80114 0.15758 0.87491 0.0
H115 H 0.69142 0.2343 0.08384 0.0
H116 H 0.72632 0.29296 0.98528 0.0
C117 C 0.34244 0.35546 0.31783 0.0
C118 C 0.3765 0.36404 0.32031 0.0
C119 C 0.32914 0.34263 0.35131 0.0
C120 C 0.34959 0.33816 0.38797 0.0
C121 C 0.38388 0.34554 0.39017 0.0
C122 C 0.39714 0.35827 0.35685 0.0
C123 C 0.3352 0.32755 0.42412 0.0
C124 C 0.31209 0.30165 0.42706 0.0
C125 C 0.29888 0.29169 0.46157 0.0
C126 C 0.30908 0.30831 0.49306 0.0
C127 C 0.33227 0.33405 0.49081 0.0
C128 C 0.3449 0.34361 0.45608 0.0
C129 C 0.34375 0.35057 0.52494 0.0
C130 C 0.32134 0.35686 0.54945 0.0
C131 C 0.37746 0.35973 0.53366 0.0
C132 C 0.38846 0.3747 0.56595 0.0
C133 C 0.36616 0.38064 0.59073 0.0
C134 C 0.27462 0.26392 0.46526 0.0
C135 C 0.25014 0.25892 0.43375 0.0
C136 C 0.2751 0.2427 0.50095 0.0
C137 C 0.25113 0.21817 0.50547 0.0
C138 C 0.2263 0.21338 0.4742 0.0
C139 C 0.22649 0.23388 0.43808 0.0
C140 C 0.33242 0.37153 0.58198 0.0
H141 H 0.32578 0.35975 0.29021 0.0
H142 H 0.30259 0.33736 0.34864 0.0
H143 H 0.40051 0.34171 0.41784 0.0
H144 H 0.42363 0.36382 0.35977 0.0
H145 H 0.30521 0.28871 0.40283 0.0
H146 H 0.36191 0.36416 0.4536 0.0
H147 H 0.29906 0.30109 0.51966 0.0
H148 H 0.2951 0.35059 0.54345 0.0
H149 H 0.39559 0.35493 0.51582 0.0
H150 H 0.41449 0.3818 0.57128 0.0
H151 H 0.24871 0.27479 0.40584 0.0
H152 H 0.29396 0.24503 0.52576 0.0
H153 H 0.31454 0.37532 0.60054 0.0
H154 H 0.20832 0.23072 0.41299 0.0
H155 H 0.25182 0.20345 0.53394 0.0
Tb156 Tb 0.0283 0.96855 0.51583 0.0
C157 C 0.93205 0.08562 0.48059 0.0
N158 N 0.9635 0.08313 0.50154 0.0
C159 C 0.97834 0.13377 0.46392 0.0
C160 C 0.92286 0.11161 0.44925 0.0
C161 C 0.98634 0.10731 0.49457 0.0
C162 C 0.94659 0.13574 0.44086 0.0
C163 C 0.8764 0.06307 0.46968 0.0
C164 C 0.90939 0.06155 0.49051 0.0
C165 C 0.86723 0.08836 0.43765 0.0
C166 C 0.89043 0.11259 0.42745 0.0
Tb167 Tb 0.97471 0.03834 0.54992 0.0
N168 N 0.91936 0.0374 0.52151 0.0
C169 C 0.85344 0.03963 0.48229 0.0
C170 C 0.8962 0.01634 0.53579 0.0
C171 C 0.86323 0.01657 0.51595 0.0
H172 H 0.01072 0.10615 0.5126 0.0
H173 H 0.84526 0.9993 0.52703 0.0
H174 H 0.98236 0.90006 0.52786 0.0
H175 H 0.15877 0.98679 0.56909 0.0
H176 H 0.90264 0.99986 0.56302 0.0
H177 H 0.82783 0.03992 0.46714 0.0
H178 H 0.10416 0.99961 0.526 0.0
H179 H 0.99664 0.15261 0.45811 0.0
H180 H 0.8421 0.08975 0.42104 0.0
H181 H 0.88293 0.13217 0.40297 0.0
H182 H 0.98318 0.84916 0.57589 0.0
H183 H 0.94053 0.15614 0.41701 0.0
H184 H 0.16489 0.93763 0.62109 0.0
N185 N 0.02756 0.91845 0.55604 0.0
C186 C 0.05571 0.91029 0.58272 0.0
C187 C 1.00349 0.86647 0.57868 0.0
C188 C 0.05819 0.88062 0.60974 0.0
C189 C 1.0026 0.89594 0.55209 0.0
C190 C 0.03113 0.85907 0.60818 0.0
N191 N 0.07951 0.95889 0.5544 0.0
C192 C 0.10655 0.97837 0.54892 0.0
C193 C 0.1135 0.92248 0.6065 0.0
C194 C 0.08294 0.93081 0.58128 0.0
C195 C 0.14092 0.94318 0.60233 0.0
C196 C 0.13753 0.97102 0.57308 0.0
H197 H 0.03198 0.83602 0.62841 0.0
H198 H 0.09027 0.85037 0.65765 0.0
H199 H 0.13878 0.88709 0.65478 0.0
O200 O 0.05174 0.97837 0.46619 0.0
O201 O 0.04433 0.98621 0.57099 0.0
O202 O 0.99579 0.99595 0.59286 0.0
O203 O 0.03654 0.92939 0.48707 0.0
O204 O 0.04318 0.02044 0.50143 0.0
O205 O 0.02854 0.0479 0.54918 0.0
O206 O 0.94351 0.05411 0.58537 0.0
O207 O 0.98214 0.04038 0.4898 0.0
O208 O 0.98089 0.98705 0.47918 0.0
O209 O 0.9938 0.07174 0.58704 0.0
O210 O 0.96064 0.98625 0.56525 0.0
O211 O 0.97459 0.95892 0.51768 0.0
C212 C 0.02695 0.98507 0.59926 0.0
C213 C 0.08393 0.93386 0.45571 0.0
C214 C 0.11968 0.92042 0.41091 0.0
C215 C 0.14363 0.90642 0.44284 0.0
C216 C 0.10788 0.91906 0.487 0.0
C217 C 0.13769 0.9058 0.48056 0.0
C218 C 0.0899 0.93442 0.41769 0.0
C219 C 0.04707 0.04442 0.52246 0.0
C220 C 0.05204 0.94752 0.46204 0.0
C221 C 0.08802 0.87288 0.63638 0.0
C222 C 0.11568 0.89372 0.63466 0.0
C223 C 0.97249 0.01839 0.46779 0.0
C224 C 0.95339 0.10556 0.60494 0.0
C225 C 0.93026 0.1387 0.64581 0.0
C226 C 0.92398 0.16475 0.61414 0.0
C227 C 0.9469 0.13177 0.57364 0.0
C228 C 0.94531 0.10925 0.64099 0.0
C229 C 0.9325 0.16132 0.57838 0.0
C230 C 0.95634 0.9622 0.54456 0.0
C231 C 0.96583 0.07313 0.60046 0.0
H232 H 0.16654 0.89501 0.43869 0.0
H233 H 0.10342 0.91716 0.51638 0.0
H234 H 0.156 0.89443 0.50491 0.0
H235 H 0.07126 0.94553 0.39347 0.0
H236 H 0.91252 0.18775 0.61709 0.0
H237 H 0.9524 0.12933 0.54553 0.0
H238 H 0.94958 0.08869 0.66496 0.0
H239 H 0.92747 0.18146 0.5541 0.0
Tb240 Tb 0.47154 0.48734 1.00017 0.0
C241 C 0.60029 0.55875 0.04069 0.0
N242 N 0.59371 0.52655 0.05283 0.0
C243 C 0.64506 0.5099 0.03529 0.0
C244 C 0.62871 0.5678 0.02331 0.0
C245 C 0.61634 0.50219 0.05218 0.0
C246 C 0.651 0.54281 0.02021 0.0
C247 C 0.58476 0.61631 0.03525 0.0
C248 C 0.57852 0.58249 0.04645 0.0
C249 C 0.61221 0.62562 0.01625 0.0
C250 C 0.63417 0.60139 0.01031 0.0
Tb251 Tb 0.54554 0.51618 0.07819 0.0
N252 N 0.5525 0.5724 0.06523 0.0
C253 C 0.56394 0.63968 0.0447 0.0
C254 C 0.53409 0.59513 0.07753 0.0
C255 C 0.53891 0.62901 0.0666 0.0
H256 H 0.61167 0.47678 0.06378 0.0
H257 H 0.52363 0.64687 0.07557 0.0
H258 H 0.4136 0.54856 0.98153 0.0
H259 H 0.45744 0.3562 0.04176 0.0
H260 H 0.51579 0.5874 0.09613 0.0
H261 H 0.56784 0.66593 0.03661 0.0
H262 H 0.48509 0.40698 0.01451 0.0
H263 H 0.66251 0.4905 0.03381 0.0
H264 H 0.61719 0.65149 0.00701 0.0
H265 H 0.65566 0.60892 0.99643 0.0
H266 H 0.35934 0.55853 1.00111 0.0
H267 H 0.67318 0.54871 0.00703 0.0
H268 H 0.40394 0.36056 0.06637 0.0
N269 N 0.41923 0.49911 0.01239 0.0
C270 C 0.40317 0.47321 0.03027 0.0
C271 C 0.37165 0.53451 0.01011 0.0
C272 C 0.37136 0.47726 0.04052 0.0
C273 C 0.40289 0.52897 0.99987 0.0
C274 C 0.35609 0.50869 0.03122 0.0
N275 N 0.44799 0.43932 0.02474 0.0
C276 C 0.46176 0.40893 0.02524 0.0
C277 C 0.40109 0.414 0.05171 0.0
C278 C 0.41768 0.44207 0.03581 0.0
C279 C 0.4159 0.3828 0.05437 0.0
C280 C 0.44614 0.38024 0.04055 0.0
H281 H 0.33169 0.51291 0.03865 0.0
H282 H 0.33106 0.45229 0.06676 0.0
H283 H 0.35715 0.39682 0.07658 0.0
O284 O 0.48234 0.4664 0.95336 0.0
O285 O 0.48143 0.4617 0.06105 0.0
O286 O 0.4977 0.50213 0.09715 0.0
O287 O 0.43471 0.49003 0.95017 0.0
O288 O 0.52045 0.46211 0.0075 0.0
O289 O 0.54652 0.46414 0.07069 0.0
O290 O 0.56944 0.53392 0.12901 0.0
O291 O 0.55174 0.51622 0.01766 0.0
O292 O 0.50016 0.53129 0.98205 0.0
O293 O 0.5703 0.48176 0.12412 0.0
O294 O 0.49535 0.53908 0.07167 0.0
O295 O 0.47232 0.5397 0.00736 0.0
C296 C 0.48115 0.47505 0.09211 0.0
C297 C 0.45608 0.49247 0.89185 0.0
C298 C 0.44813 0.49085 0.8225 0.0
C299 C 0.46288 0.52209 0.81635 0.0
C300 C 0.47023 0.52383 0.88506 0.0
C301 C 0.47372 0.53848 0.84748 0.0
C302 C 0.44482 0.47617 0.86051 0.0
C303 C 0.54236 0.4509 0.03887 0.0
C304 C 0.45393 0.47596 0.93148 0.0
C305 C 0.35535 0.44962 0.05827 0.0
C306 C 0.37015 0.41802 0.06376 0.0
C307 C 0.53305 0.53229 0.98649 0.0
C308 C 0.60072 0.49527 0.18369 0.0
C309 C 0.61914 0.50412 0.25031 0.0
C310 C 0.64062 0.47623 0.25652 0.0
C311 C 0.62218 0.46741 0.19086 0.0
C312 C 0.59948 0.51383 0.2134 0.0
C313 C 0.6421 0.45812 0.22699 0.0
C314 C 0.47494 0.55189 0.03976 0.0
C315 C 0.5796 0.50415 0.14528 0.0
H316 H 0.46559 0.53406 0.7874 0.0
H317 H 0.47862 0.5369 0.90875 0.0
H318 H 0.48484 0.56262 0.84246 0.0
H319 H 0.43406 0.45183 0.86582 0.0
H320 H 0.65659 0.46853 0.28422 0.0
H321 H 0.62371 0.45287 0.16839 0.0
H322 H 0.58263 0.53511 0.20815 0.0
H323 H 0.65874 0.43673 0.23215 0.0
H324 H 0.16018 0.21499 0.43798 0.0
H325 H 0.23238 0.15296 0.523 0.0
H326 H 0.11728 0.17365 0.44851 0.0
H327 H 0.18864 0.11304 0.53501 0.0
H328 H 0.08466 0.07789 0.57411 0.0
H329 H 0.1285 0.11824 0.56151 0.0
H330 H 0.11136 0.10769 0.44104 0.0
H331 H 0.06823 0.06666 0.45375 0.0
C332 C 0.16717 0.1926 0.45865 0.0
C333 C 0.20005 0.18768 0.47967 0.0
C334 C 0.1424 0.16906 0.46485 0.0
C335 C 0.14967 0.14038 0.49277 0.0
C336 C 0.18234 0.13521 0.51367 0.0
C337 C 0.20732 0.15832 0.50688 0.0
C338 C 0.0903 0.0842 0.54497 0.0
C339 C 0.07318 0.0691 0.51493 0.0
C340 C 0.1154 0.10713 0.53783 0.0
C341 C 0.12321 0.11598 0.50033 0.0
C342 C 0.10571 0.1013 0.47016 0.0
C343 C 0.08122 0.07776 0.4775 0.0
H344 H 0.37296 0.74201 0.02108 0.0
H345 H 0.30264 0.66742 0.05576 0.0
H346 H 0.41501 0.69867 0.02331 0.0
H347 H 0.34477 0.62419 0.05845 0.0
H348 H 0.45645 0.60468 0.98266 0.0
H349 H 0.41748 0.64997 0.98333 0.0
H350 H 0.40452 0.60712 0.09963 0.0
H351 H 0.44394 0.56222 0.0992 0.0
C352 C 0.36667 0.71637 0.02951 0.0
C353 C 0.33461 0.70799 0.03822 0.0
C354 C 0.39058 0.69166 0.03056 0.0
C355 C 0.38305 0.65819 0.04109 0.0
C356 C 0.35122 0.64984 0.05051 0.0
C357 C 0.32712 0.6745 0.04875 0.0
C358 C 0.44543 0.6052 0.00842 0.0
C359 C 0.45304 0.58009 0.04086 0.0
C360 C 0.42332 0.63107 0.00886 0.0
C361 C 0.40801 0.6319 0.0415 0.0
C362 C 0.4159 0.60691 0.07407 0.0
C363 C 0.43853 0.58142 0.07391 0.0
H364 H 0.8291 0.81096 0.64972 0.0
H365 H 0.78785 0.82702 0.52803 0.0
H366 H 0.87136 0.85268 0.63743 0.0
H367 H 0.8284 0.87022 0.51561 0.0
H368 H 0.92528 0.92136 0.49669 0.0
H369 H 0.88363 0.87975 0.51016 0.0
H370 H 0.88378 0.90782 0.6223 0.0
H371 H 0.92756 0.9474 0.60988 0.0
C372 C 0.8288 0.82394 0.62042 0.0
C373 C 0.80541 0.81576 0.5898 0.0
C374 C 0.8529 0.84803 0.61327 0.0
C375 C 0.8537 0.86501 0.57537 0.0
C376 C 0.82942 0.85728 0.545 0.0
C377 C 0.80587 0.83272 0.55209 0.0
C378 C 0.9167 0.91833 0.52441 0.0
C379 C 0.92999 0.93756 0.55228 0.0
C380 C 0.89234 0.89472 0.53201 0.0
C381 C 0.87991 0.89021 0.56738 0.0
C382 C 0.89295 0.90992 0.59502 0.0
C383 C 0.91785 0.93302 0.5877 0.0
H384 H 0.6418 0.26086 0.05384 0.0
H385 H 0.71177 0.33479 0.01518 0.0
H386 H 0.60199 0.30471 0.05564 0.0
H387 H 0.67076 0.3781 0.01459 0.0
H388 H 0.56559 0.43566 0.97609 0.0
H389 H 0.60473 0.39078 0.97467 0.0
H390 H 0.60806 0.35805 0.09733 0.0
H391 H 0.56966 0.4035 0.09913 0.0
C392 C 0.64889 0.28628 0.04582 0.0
C393 C 0.68028 0.29403 0.0344 0.0
C394 C 0.62589 0.31132 0.0466 0.0
C395 C 0.63341 0.34458 0.03512 0.0
C396 C 0.66436 0.35251 0.0232 0.0
C397 C 0.6877 0.32758 0.02326 0.0
C398 C 0.57452 0.41875 1.00268 0.0
C399 C 0.5646 0.42293 0.03772 0.0
C400 C 0.59697 0.39327 1.00187 0.0
C401 C 0.60919 0.3711 0.03587 0.0
C402 C 0.59877 0.37482 0.07075 0.0
C403 C 0.57696 0.4008 0.07177 0.0
H404 H 0.19224 0.92785 0.18996 0.0
H405 H 0.12864 0.8427 0.20236 0.0
H406 H 0.17732 0.94307 0.24866 0.0
H407 H 0.11477 0.85718 0.26175 0.0
H408 H 0.07424 0.90516 0.35049 0.0
H409 H 0.08474 0.8975 0.28677 0.0
H410 H 0.1887 0.92257 0.31784 0.0
H411 H 0.17789 0.93144 0.38091 0.0
C412 C 0.17491 0.9125 0.20505 0.0
C413 C 0.16175 0.88397 0.19153 0.0
C414 C 0.16662 0.92105 0.23891 0.0
C415 C 0.14491 0.90131 0.26 0.0
C416 C 0.13126 0.87315 0.24604 0.0
C417 C 0.13958 0.86459 0.21224 0.0
C418 C 0.09916 0.90971 0.34342 0.0
C419 C 0.12527 0.91875 0.37088 0.0
C420 C 0.10528 0.90492 0.30707 0.0
C421 C 0.13763 0.90913 0.29729 0.0
C422 C 0.16343 0.91933 0.32426 0.0
C423 C 0.15732 0.92408 0.3606 0.0
H424 H 0.61365 0.57196 0.77337 0.0
H425 H 0.62625 0.66494 0.8157 0.0
H426 H 0.59031 0.54818 0.8307 0.0
H427 H 0.60081 0.64126 0.87188 0.0
H428 H 0.51329 0.58925 0.93634 0.0
H429 H 0.53939 0.61526 0.88112 0.0
H430 H 0.61468 0.53722 0.90761 0.0
H431 H 0.58897 0.51157 0.96306 0.0
C432 C 0.61182 0.58738 0.79485 0.0
C433 C 0.62232 0.6205 0.78962 0.0
C434 C 0.59813 0.57369 0.82762 0.0
C435 C 0.59383 0.59288 0.85567 0.0
C436 C 0.60369 0.62602 0.85048 0.0
C437 C 0.61808 0.63959 0.81807 0.0
C438 C 0.5355 0.57782 0.93037 0.0
C439 C 0.54914 0.54844 0.95383 0.0
C440 C 0.55049 0.59275 0.899 0.0
C441 C 0.57897 0.57817 0.89014 0.0
C442 C 0.59265 0.54886 0.91375 0.0
C443 C 0.57807 0.53431 0.94552 0.0
H444 H 0.8928 0.14011 0.24715 0.0
H445 H 0.87499 0.04062 0.22585 0.0
H446 H 0.91617 0.11893 0.31448 0.0
H447 H 0.90048 0.01885 0.2926 0.0
H448 H 0.92237 0.98975 0.42408 0.0
H449 H 0.89528 0.01081 0.35769 0.0
H450 H 0.96282 0.0935 0.35378 0.0
H451 H 0.98814 0.07325 0.42047 0.0
C452 C 0.89439 0.11361 0.25696 0.0
C453 C 0.88234 0.09194 0.23149 0.0
C454 C 0.908 0.10135 0.29548 0.0
C455 C 0.91069 0.06703 0.30925 0.0
C456 C 0.89845 0.04539 0.28348 0.0
C457 C 0.8841 0.05776 0.24512 0.0
C458 C 0.93128 0.01237 0.40873 0.0
C459 C 0.95717 0.02997 0.42719 0.0
C460 C 0.91592 0.02445 0.37065 0.0
C461 C 0.92668 0.05403 0.35002 0.0
C462 C 0.95312 0.07115 0.36871 0.0
C463 C 0.96793 0.05942 0.4069 0.0
H464 H 0.33247 0.42512 0.62131 0.0
H465 H 0.42696 0.37144 0.63937 0.0
H466 H 0.3521 0.45039 0.67816 0.0
H467 H 0.4468 0.39767 0.69539 0.0
H468 H 0.48134 0.48258 0.76354 0.0
H469 H 0.46139 0.4554 0.70805 0.0
H470 H 0.36823 0.4331 0.75099 0.0
H471 H 0.38814 0.46044 0.80644 0.0
C472 C 0.35729 0.41845 0.63747 0.0
C473 C 0.37808 0.39618 0.62552 0.0
C474 C 0.36856 0.43305 0.67001 0.0
C475 C 0.401 0.42606 0.69116 0.0
C476 C 0.42182 0.40386 0.67934 0.0
C477 C 0.41044 0.38895 0.64708 0.0
C478 C 0.45658 0.47193 0.76105 0.0
C479 C 0.43627 0.47367 0.78928 0.0
C480 C 0.44527 0.45616 0.72948 0.0
C481 C 0.41324 0.44216 0.72518 0.0
C482 C 0.39292 0.44389 0.75341 0.0
C483 C 0.40442 0.45928 0.78527 0.0
H484 H 0.60057 0.64106 0.41238 0.0
H485 H 0.67439 0.5658 0.47044 0.0
H486 H 0.59132 0.61349 0.35571 0.0
H487 H 0.66474 0.53821 0.41435 0.0
H488 H 0.61667 0.47826 0.32579 0.0
H489 H 0.62028 0.50737 0.38056 0.0
H490 H 0.62145 0.60072 0.30347 0.0
H491 H 0.61796 0.57141 0.24832 0.0
C492 C 0.6149 0.61874 0.41308 0.0
C493 C 0.63807 0.60557 0.44621 0.0
C494 C 0.60954 0.60294 0.3806 0.0
C495 C 0.62709 0.57352 0.38063 0.0
C496 C 0.65029 0.56046 0.41366 0.0
C497 C 0.65576 0.57628 0.44593 0.0
C498 C 0.61771 0.50501 0.32045 0.0
C499 C 0.61757 0.52248 0.28274 0.0
C500 C 0.61978 0.52169 0.35187 0.0
C501 C 0.62167 0.55633 0.34647 0.0
C502 C 0.61992 0.57401 0.30856 0.0
C503 C 0.6179 0.55724 0.27698 0.0
H504 H 0.91217 0.17549 0.87647 0.0
H505 H 0.82311 0.12178 0.84042 0.0
H506 H 0.93135 0.17212 0.81555 0.0
H507 H 0.84182 0.11981 0.77896 0.0
H508 H 0.86959 0.15969 0.65791 0.0
H509 H 0.85164 0.16248 0.71989 0.0
H510 H 0.94949 0.12673 0.7804 0.0
H511 H 0.96742 0.12379 0.71835 0.0
C512 C 0.89677 0.16271 0.85586 0.0
C513 C 0.86598 0.14895 0.8636 0.0
C514 C 0.90774 0.16098 0.82084 0.0
C515 C 0.88799 0.14588 0.79249 0.0
C516 C 0.85733 0.13202 0.80011 0.0
C517 C 0.84657 0.13331 0.83533 0.0
C518 C 0.88732 0.15268 0.68445 0.0
C519 C 0.9199 0.14157 0.68336 0.0
C520 C 0.87697 0.15401 0.71988 0.0
C521 C 0.89916 0.14474 0.75492 0.0
C522 C 0.93194 0.13417 0.75381 0.0
C523 C 0.94212 0.13233 0.71839 0.0
H524 H 0.36446 0.34936 0.24642 0.0
H525 H 0.41985 0.41554 0.31509 0.0
H526 H 0.38755 0.37635 0.18965 0.0
H527 H 0.44367 0.44157 0.25908 0.0
H528 H 0.45465 0.50393 0.1442 0.0
H529 H 0.42733 0.47728 0.19744 0.0
H530 H 0.44114 0.38223 0.16474 0.0
H531 H 0.46866 0.40911 0.11148 0.0
C532 C 0.38149 0.36966 0.24942 0.0
C533 C 0.39038 0.38015 0.28542 0.0
C534 C 0.39498 0.38492 0.21698 0.0
C535 C 0.41745 0.41119 0.21974 0.0
C536 C 0.42613 0.42172 0.2557 0.0
C537 C 0.41279 0.40646 0.28803 0.0
C538 C 0.45181 0.47734 0.14836 0.0
C539 C 0.46358 0.45862 0.12349 0.0
C540 C 0.43621 0.46204 0.17894 0.0
C541 C 0.43215 0.42755 0.18557 0.0
C542 C 0.44346 0.40887 0.16023 0.0
C543 C 0.45916 0.42424 0.12964 0.0
H544 H 0.085 0.93166 0.84974 0.0
H545 H 0.1573 0.8819 0.80105 0.0
H546 H 0.05734 0.95556 0.78438 0.0
H547 H 0.12954 0.90564 0.73575 0.0
H548 H 0.99697 0.95677 0.65992 0.0
H549 H 0.02425 0.93442 0.72595 0.0
H550 H 0.12075 0.96323 0.69501 0.0
H551 H 0.09334 0.98655 0.62953 0.0
C552 C 0.09501 0.92595 0.82506 0.0
C553 C 0.12327 0.90492 0.83044 0.0
C554 C 0.07905 0.9394 0.78772 0.0
C555 C 0.09133 0.93244 0.75507 0.0
C556 C 0.11972 0.9116 0.76045 0.0
C557 C 0.13541 0.89783 0.79775 0.0
C558 C 0.02397 0.95858 0.6674 0.0
C559 C 0.04318 0.97278 0.63946 0.0
C560 C 0.03955 0.94579 0.70511 0.0
C561 C 0.07463 0.94685 0.71546 0.0
C562 C 0.09373 0.9616 0.68765 0.0
C563 C 0.07809 0.97477 0.65016 0.0
loop_
_geom_bond_atom_site_label_1
_geom_bond_atom_site_label_2
_geom_bond_distance
_geom_bond_site_symmetry_2
_ccdc_geom_bond_type
C0 C1 1.386 . S
C0 C2 1.397 . S
C0 H24 0.931 . S
C1 C0 1.386 . S
C1 C5 1.397 . S
C2 C0 1.397 . S
C2 C3 1.384 . S
C2 H25 0.930 . S
C3 C2 1.384 . S
C3 C4 1.377 . S
C3 C6 1.481 . S
C4 C3 1.377 . S
C4 C5 1.389 . S
C4 H26 0.929 . S
C5 C1 1.397 . S
C5 C4 1.389 . S
C5 H27 0.931 . S
C6 C3 1.481 . S
C6 C7 1.387 . S
C6 C11 1.390 1_556 S
C7 C6 1.387 . S
C7 C8 1.401 1_556 S
C7 H28 0.930 . S
C8 C7 1.401 1_554 S
C8 C9 1.376 . S
C8 C17 1.511 . S
C9 C8 1.376 . S
C9 C10 1.392 . S
C9 H30 0.931 . S
C10 C9 1.392 . S
C10 C11 1.361 . S
C10 C12 1.500 . S
C11 C6 1.390 1_554 S
C11 C10 1.361 . S
C11 H29 0.931 . S
C12 C10 1.500 . S
C12 C13 1.371 . S
C12 C14 1.365 . S
C13 C12 1.371 . S
C13 C23 1.386 . S
C13 H31 0.931 . S
C14 C12 1.365 . S
C14 C15 1.409 . S
C14 H32 0.929 . S
C15 C14 1.409 . S
C15 C16 1.380 . S
C15 H33 0.930 . S
C16 C15 1.380 . S
C16 C23 1.357 . S
C17 C8 1.511 . S
C17 C18 1.341 1_554 S
C17 C19 1.371 . S
C18 C17 1.341 1_556 S
C18 C22 1.394 1_556 S
C18 H34 0.930 . S
C19 C17 1.371 . S
C19 C20 1.392 . S
C19 H35 0.931 . S
C20 C19 1.392 . S
C20 C21 1.331 . S
C20 H38 0.932 . S
C21 C20 1.331 . S
C21 C22 1.336 . S
C22 C18 1.394 1_554 S
C22 C21 1.336 . S
C22 H37 0.929 1_554 S
C23 C13 1.386 . S
C23 C16 1.357 . S
C23 H36 0.928 . S
H24 C0 0.931 . S
H25 C2 0.930 . S
H26 C4 0.929 . S
H27 C5 0.931 . S
H28 C7 0.930 . S
H29 C11 0.931 . S
H30 C9 0.931 . S
H31 C13 0.931 . S
H32 C14 0.929 . S
H33 C15 0.930 . S
H34 C18 0.930 . S
H35 C19 0.931 . S
H36 C23 0.928 . S
H37 C22 0.929 1_556 S
H38 C20 0.932 . S
C39 C40 1.386 . S
C39 C41 1.397 . S
C39 H63 0.931 . S
C40 C39 1.386 . S
C40 C44 1.397 . S
C41 C39 1.397 . S
C41 C42 1.384 . S
C41 H64 0.930 . S
C42 C41 1.384 . S
C42 C43 1.377 . S
C42 C45 1.481 . S
C43 C42 1.377 . S
C43 C44 1.389 . S
C43 H65 0.929 . S
C44 C40 1.397 . S
C44 C43 1.389 . S
C44 H66 0.931 . S
C45 C42 1.481 . S
C45 C46 1.387 . S
C45 C50 1.390 . S
C46 C45 1.387 . S
C46 C47 1.401 . S
C46 H67 0.930 . S
C47 C46 1.401 . S
C47 C48 1.376 . S
C47 C56 1.511 . S
C48 C47 1.376 . S
C48 C49 1.392 . S
C48 H69 0.931 . S
C49 C48 1.392 . S
C49 C50 1.361 . S
C49 C51 1.500 . S
C50 C45 1.390 . S
C50 C49 1.361 . S
C50 H68 0.931 . S
C51 C49 1.500 . S
C51 C52 1.371 . S
C51 C53 1.365 . S
C52 C51 1.371 . S
C52 C62 1.386 . S
C52 H70 0.931 . S
C53 C51 1.365 . S
C53 C54 1.409 . S
C53 H71 0.929 . S
C54 C53 1.409 . S
C54 C55 1.380 . S
C54 H72 0.930 . S
C55 C54 1.380 . S
C55 C62 1.357 . S
C56 C47 1.511 . S
C56 C57 1.341 . S
C56 C58 1.371 . S
C57 C56 1.341 . S
C57 C61 1.394 . S
C57 H73 0.930 . S
C58 C56 1.371 . S
C58 C59 1.392 . S
C58 H74 0.931 . S
C59 C58 1.392 . S
C59 C60 1.331 . S
C59 H77 0.932 . S
C60 C59 1.331 . S
C60 C61 1.336 . S
C61 C57 1.394 . S
C61 C60 1.336 . S
C61 H76 0.929 . S
C62 C52 1.386 . S
C62 C55 1.357 . S
C62 H75 0.928 . S
H63 C39 0.931 . S
H64 C41 0.930 . S
H65 C43 0.929 . S
H66 C44 0.931 . S
H67 C46 0.930 . S
H68 C50 0.931 . S
H69 C48 0.931 . S
H70 C52 0.931 . S
H71 C53 0.929 . S
H72 C54 0.930 . S
H73 C57 0.930 . S
H74 C58 0.931 . S
H75 C62 0.928 . S
H76 C61 0.929 . S
H77 C59 0.932 . S
C78 C79 1.386 . S
C78 C80 1.397 . S
C78 H102 0.931 . S
C79 C78 1.386 . S
C79 C83 1.397 . S
C80 C78 1.397 . S
C80 C81 1.384 . S
C80 H103 0.930 . S
C81 C80 1.384 . S
C81 C82 1.377 . S
C81 C84 1.481 . S
C82 C81 1.377 . S
C82 C83 1.389 . S
C82 H104 0.929 . S
C83 C79 1.397 . S
C83 C82 1.389 . S
C83 H105 0.931 . S
C84 C81 1.481 . S
C84 C85 1.387 . S
C84 C89 1.390 . S
C85 C84 1.387 . S
C85 C86 1.401 . S
C85 H106 0.930 . S
C86 C85 1.401 . S
C86 C87 1.376 . S
C86 C95 1.511 . S
C87 C86 1.376 . S
C87 C88 1.392 . S
C87 H108 0.931 1_554 S
C88 C87 1.392 . S
C88 C89 1.361 . S
C88 C90 1.500 1_554 S
C89 C84 1.390 . S
C89 C88 1.361 . S
C89 H107 0.931 . S
C90 C88 1.500 1_556 S
C90 C91 1.371 . S
C90 C92 1.365 . S
C91 C90 1.371 . S
C91 C101 1.386 . S
C91 H109 0.931 . S
C92 C90 1.365 . S
C92 C93 1.409 . S
C92 H110 0.929 . S
C93 C92 1.409 . S
C93 C94 1.380 . S
C93 H111 0.930 . S
C94 C93 1.380 . S
C94 C101 1.357 . S
C95 C86 1.511 . S
C95 C96 1.341 . S
C95 C97 1.371 1_554 S
C96 C95 1.341 . S
C96 C100 1.394 . S
C96 H112 0.930 . S
C97 C95 1.371 1_556 S
C97 C98 1.392 . S
C97 H113 0.931 . S
C98 C97 1.392 . S
C98 C99 1.331 1_556 S
C98 H116 0.932 . S
C99 C98 1.331 1_554 S
C99 C100 1.336 . S
C100 C96 1.394 . S
C100 C99 1.336 . S
C100 H115 0.929 . S
C101 C91 1.386 . S
C101 C94 1.357 . S
C101 H114 0.928 . S
H102 C78 0.931 . S
H103 C80 0.930 . S
H104 C82 0.929 . S
H105 C83 0.931 . S
H106 C85 0.930 . S
H107 C89 0.931 . S
H108 C87 0.931 1_556 S
H109 C91 0.931 . S
H110 C92 0.929 . S
H111 C93 0.930 . S
H112 C96 0.930 . S
H113 C97 0.931 . S
H114 C101 0.928 . S
H115 C100 0.929 . S
H116 C98 0.932 . S
C117 C118 1.386 . S
C117 C119 1.397 . S
C117 H141 0.931 . S
C118 C117 1.386 . S
C118 C122 1.397 . S
C119 C117 1.397 . S
C119 C120 1.384 . S
C119 H142 0.930 . S
C120 C119 1.384 . S
C120 C121 1.377 . S
C120 C123 1.481 . S
C121 C120 1.377 . S
C121 C122 1.389 . S
C121 H143 0.929 . S
C122 C118 1.397 . S
C122 C121 1.389 . S
C122 H144 0.931 . S
C123 C120 1.481 . S
C123 C124 1.387 . S
C123 C128 1.390 . S
C124 C123 1.387 . S
C124 C125 1.401 . S
C124 H145 0.930 . S
C125 C124 1.401 . S
C125 C126 1.376 . S
C125 C134 1.511 . S
C126 C125 1.376 . S
C126 C127 1.392 . S
C126 H147 0.931 . S
C127 C126 1.392 . S
C127 C128 1.361 . S
C127 C129 1.500 . S
C128 C123 1.390 . S
C128 C127 1.361 . S
C128 H146 0.931 . S
C129 C127 1.500 . S
C129 C130 1.371 . S
C129 C131 1.365 . S
C130 C129 1.371 . S
C130 C140 1.386 . S
C130 H148 0.931 . S
C131 C129 1.365 . S
C131 C132 1.409 . S
C131 H149 0.929 . S
C132 C131 1.409 . S
C132 C133 1.380 . S
C132 H150 0.930 . S
C133 C132 1.380 . S
C133 C140 1.357 . S
C134 C125 1.511 . S
C134 C135 1.341 . S
C134 C136 1.371 . S
C135 C134 1.341 . S
C135 C139 1.394 . S
C135 H151 0.930 . S
C136 C134 1.371 . S
C136 C137 1.392 . S
C136 H152 0.931 . S
C137 C136 1.392 . S
C137 C138 1.331 . S
C137 H155 0.932 . S
C138 C137 1.331 . S
C138 C139 1.336 . S
C139 C135 1.394 . S
C139 C138 1.336 . S
C139 H154 0.929 . S
C140 C130 1.386 . S
C140 C133 1.357 . S
C140 H153 0.928 . S
H141 C117 0.931 . S
H142 C119 0.930 . S
H143 C121 0.929 . S
H144 C122 0.931 . S
H145 C124 0.930 . S
H146 C128 0.931 . S
H147 C126 0.931 . S
H148 C130 0.931 . S
H149 C131 0.929 . S
H150 C132 0.930 . S
H151 C135 0.930 . S
H152 C136 0.931 . S
H153 C140 0.928 . S
H154 C139 0.929 . S
H155 C137 0.932 . S
Tb156 N185 2.617 . S
Tb156 N191 2.572 . S
Tb156 O200 2.465 . S
Tb156 O201 2.387 . S
Tb156 O203 2.428 . S
Tb156 O204 2.308 1_565 S
Tb156 O208 2.349 1_455 S
Tb156 O211 2.393 1_455 S
Tb156 C220 2.802 . S
C157 N158 1.379 . S
C157 C160 1.416 . S
C157 C164 1.424 . S
N158 C157 1.379 . S
N158 C161 1.312 1_655 S
N158 Tb167 2.617 . S
C159 C161 1.390 1_655 S
C159 C162 1.339 . S
C159 H179 0.930 1_655 S
C160 C157 1.416 . S
C160 C162 1.416 . S
C160 C166 1.448 . S
C161 N158 1.312 1_455 S
C161 C159 1.390 1_455 S
C161 H172 0.953 . S
C162 C159 1.339 . S
C162 C160 1.416 . S
C162 H183 0.930 . S
C163 C164 1.413 . S
C163 C165 1.427 . S
C163 C169 1.416 . S
C164 C157 1.424 . S
C164 C163 1.413 . S
C164 N168 1.361 . S
C165 C163 1.427 . S
C165 C166 1.328 . S
C165 H180 0.929 . S
C166 C160 1.448 . S
C166 C165 1.328 . S
C166 H181 0.930 . S
Tb167 N158 2.617 . S
Tb167 N168 2.572 . S
Tb167 O202 2.349 1_655 S
Tb167 O205 2.393 1_655 S
Tb167 O206 2.465 . S
Tb167 O207 2.387 . S
Tb167 O209 2.428 . S
Tb167 O210 2.308 1_545 S
Tb167 C231 2.802 . S
N168 C164 1.361 . S
N168 Tb167 2.572 . S
N168 C170 1.340 . S
C169 C163 1.416 . S
C169 C171 1.332 . S
C169 H177 0.931 . S
C170 N168 1.340 . S
C170 C171 1.407 . S
C170 H176 0.930 . S
C171 C169 1.332 . S
C171 C170 1.407 . S
C171 H173 0.929 . S
H172 C161 0.953 . S
H173 C171 0.929 . S
H174 C189 0.930 1_655 S
H175 C196 0.929 . S
H176 C170 0.930 . S
H177 C169 0.931 . S
H178 C192 0.930 . S
H179 C159 0.930 1_455 S
H180 C165 0.929 . S
H181 C166 0.930 . S
H182 C187 0.930 1_655 S
H183 C162 0.930 . S
H184 C195 0.931 . S
N185 Tb156 2.617 . S
N185 C186 1.379 . S
N185 C189 1.334 . S
C186 N185 1.379 . S
C186 C188 1.416 . S
C186 C194 1.424 . S
C187 H182 0.930 1_455 S
C187 C189 1.390 . S
C187 C190 1.339 . S
C188 C186 1.416 . S
C188 C190 1.416 . S
C188 C221 1.448 . S
C189 H174 0.930 1_455 S
C189 N185 1.334 . S
C189 C187 1.390 . S
C190 C187 1.339 . S
C190 C188 1.416 . S
C190 H197 0.930 . S
N191 Tb156 2.572 . S
N191 C192 1.340 . S
N191 C194 1.361 . S
C192 H178 0.930 . S
C192 N191 1.340 . S
C192 C196 1.407 . S
C193 C194 1.413 . S
C193 C195 1.416 . S
C193 C222 1.427 . S
C194 C186 1.424 . S
C194 N191 1.361 . S
C194 C193 1.413 . S
C195 H184 0.931 . S
C195 C193 1.416 . S
C195 C196 1.332 . S
C196 H175 0.929 . S
C196 C192 1.407 . S
C196 C195 1.332 . S
H197 C190 0.930 . S
H198 C221 0.930 . S
H199 C222 0.929 . S
O200 Tb156 2.465 . S
O200 C220 1.264 . S
O201 Tb156 2.387 . S
O201 C212 1.264 . S
O202 Tb167 2.349 1_455 S
O202 C212 1.243 1_545 S
O203 Tb156 2.428 . S
O203 C220 1.256 . S
O204 Tb156 2.308 1_545 S
O204 C219 1.266 . S
O205 Tb167 2.393 1_455 S
O205 C219 1.248 . S
O206 Tb167 2.465 . S
O206 C231 1.264 . S
O207 Tb167 2.387 . S
O207 C223 1.264 . S
O208 Tb156 2.349 1_655 S
O208 C223 1.243 1_565 S
O209 Tb167 2.428 . S
O209 C231 1.256 . S
O210 Tb167 2.308 1_565 S
O210 C230 1.266 . S
O211 Tb156 2.393 1_655 S
O211 C230 1.248 . S
C212 O201 1.264 . S
C212 O202 1.243 1_565 S
C213 C216 1.399 . S
C213 C218 1.383 . S
C213 C220 1.496 . S
C214 C215 1.399 . S
C214 C218 1.389 . S
C215 C214 1.399 . S
C215 C217 1.380 . S
C215 H232 0.929 . S
C216 C213 1.399 . S
C216 C217 1.392 . S
C216 H233 0.929 . S
C217 C215 1.380 . S
C217 C216 1.392 . S
C217 H234 0.929 . S
C218 C213 1.383 . S
C218 C214 1.389 . S
C218 H235 0.931 . S
C219 O204 1.266 . S
C219 O205 1.248 . S
C220 Tb156 2.802 . S
C220 O200 1.264 . S
C220 O203 1.256 . S
C220 C213 1.496 . S
C221 C188 1.448 . S
C221 H198 0.930 . S
C221 C222 1.328 . S
C222 C193 1.427 . S
C222 H199 0.929 . S
C222 C221 1.328 . S
C223 O207 1.264 . S
C223 O208 1.243 1_545 S
C224 C227 1.399 . S
C224 C228 1.383 . S
C224 C231 1.496 . S
C225 C226 1.399 . S
C225 C228 1.389 . S
C226 C225 1.399 . S
C226 C229 1.380 . S
C226 H236 0.929 . S
C227 C224 1.399 . S
C227 C229 1.392 . S
C227 H237 0.929 . S
C228 C224 1.383 . S
C228 C225 1.389 . S
C228 H238 0.931 . S
C229 C226 1.380 . S
C229 C227 1.392 . S
C229 H239 0.929 . S
C230 O210 1.266 . S
C230 O211 1.248 . S
C231 Tb167 2.802 . S
C231 O206 1.264 . S
C231 O209 1.256 . S
C231 C224 1.496 . S
H232 C215 0.929 . S
H233 C216 0.929 . S
H234 C217 0.929 . S
H235 C218 0.931 . S
H236 C226 0.929 . S
H237 C227 0.929 . S
H238 C228 0.931 . S
H239 C229 0.929 . S
Tb240 N269 2.617 . S
Tb240 N275 2.572 1_556 S
Tb240 O284 2.465 . S
Tb240 O285 2.387 1_556 S
Tb240 O287 2.428 . S
Tb240 O288 2.308 1_556 S
Tb240 O292 2.349 . S
Tb240 O295 2.393 . S
Tb240 C304 2.802 . S
C241 N242 1.379 . S
C241 C244 1.416 . S
C241 C248 1.424 . S
N242 C241 1.379 . S
N242 C245 1.334 . S
N242 Tb251 2.617 . S
C243 C245 1.390 . S
C243 C246 1.339 . S
C243 H263 0.930 . S
C244 C241 1.416 . S
C244 C246 1.416 . S
C244 C250 1.448 . S
C245 N242 1.334 . S
C245 C243 1.390 . S
C245 H256 0.930 . S
C246 C243 1.339 . S
C246 C244 1.416 . S
C246 H267 0.930 . S
C247 C248 1.413 . S
C247 C249 1.427 . S
C247 C253 1.416 . S
C248 C241 1.424 . S
C248 C247 1.413 . S
C248 N252 1.361 . S
C249 C247 1.427 . S
C249 C250 1.328 . S
C249 H264 0.929 . S
C250 C244 1.448 . S
C250 C249 1.328 . S
C250 H265 0.930 . S
Tb251 N242 2.617 . S
Tb251 N252 2.572 . S
Tb251 O286 2.349 . S
Tb251 O289 2.393 . S
Tb251 O290 2.465 . S
Tb251 O291 2.387 1_554 S
Tb251 O293 2.428 . S
Tb251 O294 2.308 . S
Tb251 C315 2.802 . S
N252 C248 1.361 . S
N252 Tb251 2.572 . S
N252 C254 1.340 . S
C253 C247 1.416 . S
C253 C255 1.332 . S
C253 H261 0.931 . S
C254 N252 1.340 . S
C254 C255 1.407 . S
C254 H260 0.930 . S
C255 C253 1.332 . S
C255 C254 1.407 . S
C255 H257 0.929 . S
H256 C245 0.930 . S
H257 C255 0.929 . S
H258 C273 0.930 . S
H259 C280 0.929 . S
H260 C254 0.930 . S
H261 C253 0.931 . S
H262 C276 0.930 . S
H263 C243 0.930 . S
H264 C249 0.929 . S
H265 C250 0.930 . S
H266 C271 0.930 . S
H267 C246 0.930 . S
H268 C279 0.931 . S
N269 Tb240 2.617 . S
N269 C270 1.379 1_556 S
N269 C273 1.334 . S
C270 N269 1.379 1_554 S
C270 C272 1.416 . S
C270 C278 1.424 . S
C271 H266 0.930 . S
C271 C273 1.390 . S
C271 C274 1.339 1_556 S
C272 C270 1.416 . S
C272 C274 1.416 . S
C272 C305 1.448 . S
C273 H258 0.930 . S
C273 N269 1.334 . S
C273 C271 1.390 . S
C274 C271 1.339 1_554 S
C274 C272 1.416 . S
C274 H281 0.930 . S
N275 Tb240 2.572 1_554 S
N275 C276 1.340 . S
N275 C278 1.361 . S
C276 H262 0.930 . S
C276 N275 1.340 . S
C276 C280 1.407 . S
C277 C278 1.413 . S
C277 C279 1.416 . S
C277 C306 1.427 . S
C278 C270 1.424 . S
C278 N275 1.361 . S
C278 C277 1.413 . S
C279 H268 0.931 . S
C279 C277 1.416 . S
C279 C280 1.332 . S
C280 H259 0.929 . S
C280 C276 1.407 . S
C280 C279 1.332 . S
H281 C274 0.930 . S
H282 C305 0.930 . S
H283 C306 0.929 . S
O284 Tb240 2.465 . S
O284 C304 1.264 . S
O285 Tb240 2.387 1_554 S
O285 C296 1.264 . S
O286 Tb251 2.349 . S
O286 C296 1.243 . S
O287 Tb240 2.428 . S
O287 C304 1.256 . S
O288 Tb240 2.308 1_554 S
O288 C303 1.266 . S
O289 Tb251 2.393 . S
O289 C303 1.248 . S
O290 Tb251 2.465 . S
O290 C315 1.264 . S
O291 Tb251 2.387 1_556 S
O291 C307 1.264 . S
O292 Tb240 2.349 . S
O292 C307 1.243 . S
O293 Tb251 2.428 . S
O293 C315 1.256 . S
O294 Tb251 2.308 . S
O294 C314 1.266 . S
O295 Tb240 2.393 . S
O295 C314 1.248 1_556 S
C296 O285 1.264 . S
C296 O286 1.243 . S
C297 C300 1.399 . S
C297 C302 1.383 . S
C297 C304 1.496 . S
C298 C299 1.399 . S
C298 C302 1.389 . S
C299 C298 1.399 . S
C299 C301 1.380 . S
C299 H316 0.929 . S
C300 C297 1.399 . S
C300 C301 1.392 . S
C300 H317 0.929 . S
C301 C299 1.380 . S
C301 C300 1.392 . S
C301 H318 0.929 . S
C302 C297 1.383 . S
C302 C298 1.389 . S
C302 H319 0.931 . S
C303 O288 1.266 . S
C303 O289 1.248 . S
C304 Tb240 2.802 . S
C304 O284 1.264 . S
C304 O287 1.256 . S
C304 C297 1.496 . S
C305 C272 1.448 . S
C305 H282 0.930 . S
C305 C306 1.328 . S
C306 C277 1.427 . S
C306 H283 0.929 . S
C306 C305 1.328 . S
C307 O291 1.264 . S
C307 O292 1.243 . S
C308 C311 1.399 . S
C308 C312 1.383 . S
C308 C315 1.496 . S
C309 C310 1.399 . S
C309 C312 1.389 . S
C310 C309 1.399 . S
C310 C313 1.380 . S
C310 H320 0.929 . S
C311 C308 1.399 . S
C311 C313 1.392 . S
C311 H321 0.929 . S
C312 C308 1.383 . S
C312 C309 1.389 . S
C312 H322 0.931 . S
C313 C310 1.380 . S
C313 C311 1.392 . S
C313 H323 0.929 . S
C314 O294 1.266 . S
C314 O295 1.248 1_554 S
C315 Tb251 2.802 . S
C315 O290 1.264 . S
C315 O293 1.256 . S
C315 C308 1.496 . S
H316 C299 0.929 . S
H317 C300 0.929 . S
H318 C301 0.929 . S
H319 C302 0.931 . S
H320 C310 0.929 . S
H321 C311 0.929 . S
H322 C312 0.931 . S
H323 C313 0.929 . S
H324 C332 0.950 . S
H325 C337 0.950 . S
H326 C334 0.950 . S
H327 C336 0.950 . S
H328 C338 0.950 . S
H329 C340 0.950 . S
H330 C342 0.950 . S
H331 C343 0.950 . S
C332 H324 0.950 . S
C332 C333 1.386 . S
C332 C334 1.391 . S
C333 C332 1.386 . S
C333 C337 1.393 . S
C334 H326 0.950 . S
C334 C332 1.391 . S
C334 C335 1.400 . S
C335 C334 1.400 . S
C335 C336 1.398 . S
C335 C341 1.491 . S
C336 H327 0.950 . S
C336 C335 1.398 . S
C336 C337 1.391 . S
C337 H325 0.950 . S
C337 C333 1.393 . S
C337 C336 1.391 . S
C338 H328 0.950 . S
C338 C339 1.386 . S
C338 C340 1.391 . S
C339 C338 1.386 . S
C339 C343 1.393 . S
C340 H329 0.950 . S
C340 C338 1.391 . S
C340 C341 1.400 . S
C341 C335 1.491 . S
C341 C340 1.400 . S
C341 C342 1.398 . S
C342 H330 0.950 . S
C342 C341 1.398 . S
C342 C343 1.391 . S
C343 H331 0.950 . S
C343 C339 1.393 . S
C343 C342 1.391 . S
H344 C352 0.950 . S
H345 C357 0.950 1_556 S
H346 C354 0.950 . S
H347 C356 0.950 1_556 S
H348 C358 0.950 1_556 S
H349 C360 0.950 1_556 S
H350 C362 0.950 . S
H351 C363 0.950 . S
C352 H344 0.950 . S
C352 C353 1.386 . S
C352 C354 1.391 . S
C353 C352 1.386 . S
C353 C357 1.393 . S
C354 H346 0.950 . S
C354 C352 1.391 . S
C354 C355 1.400 . S
C355 C354 1.400 . S
C355 C356 1.398 . S
C355 C361 1.491 . S
C356 H347 0.950 1_554 S
C356 C355 1.398 . S
C356 C357 1.391 . S
C357 H345 0.950 1_554 S
C357 C353 1.393 . S
C357 C356 1.391 . S
C358 H348 0.950 1_554 S
C358 C359 1.386 . S
C358 C360 1.391 . S
C359 C358 1.386 . S
C359 C363 1.393 . S
C360 H349 0.950 1_554 S
C360 C358 1.391 . S
C360 C361 1.400 . S
C361 C355 1.491 . S
C361 C360 1.400 . S
C361 C362 1.398 . S
C362 H350 0.950 . S
C362 C361 1.398 . S
C362 C363 1.391 . S
C363 H351 0.950 . S
C363 C359 1.393 . S
C363 C362 1.391 . S
H364 C372 0.950 . S
H365 C377 0.950 . S
H366 C374 0.950 . S
H367 C376 0.950 . S
H368 C378 0.950 . S
H369 C380 0.950 . S
H370 C382 0.950 . S
H371 C383 0.950 . S
C372 H364 0.950 . S
C372 C373 1.386 . S
C372 C374 1.391 . S
C373 C372 1.386 . S
C373 C377 1.393 . S
C374 H366 0.950 . S
C374 C372 1.391 . S
C374 C375 1.400 . S
C375 C374 1.400 . S
C375 C376 1.398 . S
C375 C381 1.491 . S
C376 H367 0.950 . S
C376 C375 1.398 . S
C376 C377 1.391 . S
C377 H365 0.950 . S
C377 C373 1.393 . S
C377 C376 1.391 . S
C378 H368 0.950 . S
C378 C379 1.386 . S
C378 C380 1.391 . S
C379 C378 1.386 . S
C379 C383 1.393 . S
C380 H369 0.950 . S
C380 C378 1.391 . S
C380 C381 1.400 . S
C381 C375 1.491 . S
C381 C380 1.400 . S
C381 C382 1.398 . S
C382 H370 0.950 . S
C382 C381 1.398 . S
C382 C383 1.391 . S
C383 H371 0.950 . S
C383 C379 1.393 . S
C383 C382 1.391 . S
H384 C392 0.950 . S
H385 C397 0.950 . S
H386 C394 0.950 . S
H387 C396 0.950 . S
H388 C398 0.950 . S
H389 C400 0.950 . S
H390 C402 0.950 . S
H391 C403 0.950 . S
C392 H384 0.950 . S
C392 C393 1.386 . S
C392 C394 1.391 . S
C393 C392 1.386 . S
C393 C397 1.393 1_554 S
C394 H386 0.950 . S
C394 C392 1.391 . S
C394 C395 1.400 . S
C395 C394 1.400 . S
C395 C396 1.398 1_554 S
C395 C401 1.491 . S
C396 H387 0.950 . S
C396 C395 1.398 1_556 S
C396 C397 1.391 . S
C397 H385 0.950 . S
C397 C393 1.393 1_556 S
C397 C396 1.391 . S
C398 H388 0.950 . S
C398 C399 1.386 1_556 S
C398 C400 1.391 . S
C399 C398 1.386 1_554 S
C399 C403 1.393 . S
C400 H389 0.950 . S
C400 C398 1.391 . S
C400 C401 1.400 1_556 S
C401 C395 1.491 . S
C401 C400 1.400 1_554 S
C401 C402 1.398 . S
C402 H390 0.950 . S
C402 C401 1.398 . S
C402 C403 1.391 . S
C403 H391 0.950 . S
C403 C399 1.393 . S
C403 C402 1.391 . S
H404 C412 0.950 . S
H405 C417 0.950 . S
H406 C414 0.950 . S
H407 C416 0.950 . S
H408 C418 0.950 . S
H409 C420 0.950 . S
H410 C422 0.950 . S
H411 C423 0.950 . S
C412 H404 0.950 . S
C412 C413 1.386 . S
C412 C414 1.391 . S
C413 C412 1.386 . S
C413 C417 1.393 . S
C414 H406 0.950 . S
C414 C412 1.391 . S
C414 C415 1.400 . S
C415 C414 1.400 . S
C415 C416 1.398 . S
C415 C421 1.491 . S
C416 H407 0.950 . S
C416 C415 1.398 . S
C416 C417 1.391 . S
C417 H405 0.950 . S
C417 C413 1.393 . S
C417 C416 1.391 . S
C418 H408 0.950 . S
C418 C419 1.386 . S
C418 C420 1.391 . S
C419 C418 1.386 . S
C419 C423 1.393 . S
C420 H409 0.950 . S
C420 C418 1.391 . S
C420 C421 1.400 . S
C421 C415 1.491 . S
C421 C420 1.400 . S
C421 C422 1.398 . S
C422 H410 0.950 . S
C422 C421 1.398 . S
C422 C423 1.391 . S
C423 H411 0.950 . S
C423 C419 1.393 . S
C423 C422 1.391 . S
H424 C432 0.950 . S
H425 C437 0.950 . S
H426 C434 0.950 . S
H427 C436 0.950 . S
H428 C438 0.950 . S
H429 C440 0.950 . S
H430 C442 0.950 . S
H431 C443 0.950 . S
C432 H424 0.950 . S
C432 C433 1.386 . S
C432 C434 1.391 . S
C433 C432 1.386 . S
C433 C437 1.393 . S
C434 H426 0.950 . S
C434 C432 1.391 . S
C434 C435 1.400 . S
C435 C434 1.400 . S
C435 C436 1.398 . S
C435 C441 1.491 . S
C436 H427 0.950 . S
C436 C435 1.398 . S
C436 C437 1.391 . S
C437 H425 0.950 . S
C437 C433 1.393 . S
C437 C436 1.391 . S
C438 H428 0.950 . S
C438 C439 1.386 . S
C438 C440 1.391 . S
C439 C438 1.386 . S
C439 C443 1.393 . S
C440 H429 0.950 . S
C440 C438 1.391 . S
C440 C441 1.400 . S
C441 C435 1.491 . S
C441 C440 1.400 . S
C441 C442 1.398 . S
C442 H430 0.950 . S
C442 C441 1.398 . S
C442 C443 1.391 . S
C443 H431 0.950 . S
C443 C439 1.393 . S
C443 C442 1.391 . S
H444 C452 0.950 . S
H445 C457 0.950 . S
H446 C454 0.950 . S
H447 C456 0.950 . S
H448 C458 0.950 . S
H449 C460 0.950 . S
H450 C462 0.950 . S
H451 C463 0.950 . S
C452 H444 0.950 . S
C452 C453 1.386 . S
C452 C454 1.391 . S
C453 C452 1.386 . S
C453 C457 1.393 . S
C454 H446 0.950 . S
C454 C452 1.391 . S
C454 C455 1.400 . S
C455 C454 1.400 . S
C455 C456 1.398 . S
C455 C461 1.491 . S
C456 H447 0.950 . S
C456 C455 1.398 . S
C456 C457 1.391 . S
C457 H445 0.950 . S
C457 C453 1.393 . S
C457 C456 1.391 . S
C458 H448 0.950 . S
C458 C459 1.386 . S
C458 C460 1.391 . S
C459 C458 1.386 . S
C459 C463 1.393 . S
C460 H449 0.950 . S
C460 C458 1.391 . S
C460 C461 1.400 . S
C461 C455 1.491 . S
C461 C460 1.400 . S
C461 C462 1.398 . S
C462 H450 0.950 . S
C462 C461 1.398 . S
C462 C463 1.391 . S
C463 H451 0.950 . S
C463 C459 1.393 . S
C463 C462 1.391 . S
H464 C472 0.950 . S
H465 C477 0.950 . S
H466 C474 0.950 . S
H467 C476 0.950 . S
H468 C478 0.950 . S
H469 C480 0.950 . S
H470 C482 0.950 . S
H471 C483 0.950 . S
C472 H464 0.950 . S
C472 C473 1.386 . S
C472 C474 1.391 . S
C473 C472 1.386 . S
C473 C477 1.393 . S
C474 H466 0.950 . S
C474 C472 1.391 . S
C474 C475 1.400 . S
C475 C474 1.400 . S
C475 C476 1.398 . S
C475 C481 1.491 . S
C476 H467 0.950 . S
C476 C475 1.398 . S
C476 C477 1.391 . S
C477 H465 0.950 . S
C477 C473 1.393 . S
C477 C476 1.391 . S
C478 H468 0.950 . S
C478 C479 1.386 . S
C478 C480 1.391 . S
C479 C478 1.386 . S
C479 C483 1.393 . S
C480 H469 0.950 . S
C480 C478 1.391 . S
C480 C481 1.400 . S
C481 C475 1.491 . S
C481 C480 1.400 . S
C481 C482 1.398 . S
C482 H470 0.950 . S
C482 C481 1.398 . S
C482 C483 1.391 . S
C483 H471 0.950 . S
C483 C479 1.393 . S
C483 C482 1.391 . S
H484 C492 0.950 . S
H485 C497 0.950 . S
H486 C494 0.950 . S
H487 C496 0.950 . S
H488 C498 0.950 . S
H489 C500 0.950 . S
H490 C502 0.950 . S
H491 C503 0.950 . S
C492 H484 0.950 . S
C492 C493 1.386 . S
C492 C494 1.391 . S
C493 C492 1.386 . S
C493 C497 1.393 . S
C494 H486 0.950 . S
C494 C492 1.391 . S
C494 C495 1.400 . S
C495 C494 1.400 . S
C495 C496 1.398 . S
C495 C501 1.491 . S
C496 H487 0.950 . S
C496 C495 1.398 . S
C496 C497 1.391 . S
C497 H485 0.950 . S
C497 C493 1.393 . S
C497 C496 1.391 . S
C498 H488 0.950 . S
C498 C499 1.386 . S
C498 C500 1.391 . S
C499 C498 1.386 . S
C499 C503 1.393 . S
C500 H489 0.950 . S
C500 C498 1.391 . S
C500 C501 1.400 . S
C501 C495 1.491 . S
C501 C500 1.400 . S
C501 C502 1.398 . S
C502 H490 0.950 . S
C502 C501 1.398 . S
C502 C503 1.391 . S
C503 H491 0.950 . S
C503 C499 1.393 . S
C503 C502 1.391 . S
H504 C512 0.950 . S
H505 C517 0.950 . S
H506 C514 0.950 . S
H507 C516 0.950 . S
H508 C518 0.950 . S
H509 C520 0.950 . S
H510 C522 0.950 . S
H511 C523 0.950 . S
C512 H504 0.950 . S
C512 C513 1.386 . S
C512 C514 1.391 . S
C513 C512 1.386 . S
C513 C517 1.393 . S
C514 H506 0.950 . S
C514 C512 1.391 . S
C514 C515 1.400 . S
C515 C514 1.400 . S
C515 C516 1.398 . S
C515 C521 1.491 . S
C516 H507 0.950 . S
C516 C515 1.398 . S
C516 C517 1.391 . S
C517 H505 0.950 . S
C517 C513 1.393 . S
C517 C516 1.391 . S
C518 H508 0.950 . S
C518 C519 1.386 . S
C518 C520 1.391 . S
C519 C518 1.386 . S
C519 C523 1.393 . S
C520 H509 0.950 . S
C520 C518 1.391 . S
C520 C521 1.400 . S
C521 C515 1.491 . S
C521 C520 1.400 . S
C521 C522 1.398 . S
C522 H510 0.950 . S
C522 C521 1.398 . S
C522 C523 1.391 . S
C523 H511 0.950 . S
C523 C519 1.393 . S
C523 C522 1.391 . S
H524 C532 0.950 . S
H525 C537 0.950 . S
H526 C534 0.950 . S
H527 C536 0.950 . S
H528 C538 0.950 . S
H529 C540 0.950 . S
H530 C542 0.950 . S
H531 C543 0.950 . S
C532 H524 0.950 . S
C532 C533 1.386 . S
C532 C534 1.391 . S
C533 C532 1.386 . S
C533 C537 1.393 . S
C534 H526 0.950 . S
C534 C532 1.391 . S
C534 C535 1.400 . S
C535 C534 1.400 . S
C535 C536 1.398 . S
C535 C541 1.491 . S
C536 H527 0.950 . S
C536 C535 1.398 . S
C536 C537 1.391 . S
C537 H525 0.950 . S
C537 C533 1.393 . S
C537 C536 1.391 . S
C538 H528 0.950 . S
C538 C539 1.386 . S
C538 C540 1.391 . S
C539 C538 1.386 . S
C539 C543 1.393 . S
C540 H529 0.950 . S
C540 C538 1.391 . S
C540 C541 1.400 . S
C541 C535 1.491 . S
C541 C540 1.400 . S
C541 C542 1.398 . S
C542 H530 0.950 . S
C542 C541 1.398 . S
C542 C543 1.391 . S
C543 H531 0.950 . S
C543 C539 1.393 . S
C543 C542 1.391 . S
H544 C552 0.950 . S
H545 C557 0.950 . S
H546 C554 0.950 . S
H547 C556 0.950 . S
H548 C558 0.950 . S
H549 C560 0.950 . S
H550 C562 0.950 . S
H551 C563 0.950 . S
C552 H544 0.950 . S
C552 C553 1.386 . S
C552 C554 1.391 . S
C553 C552 1.386 . S
C553 C557 1.393 . S
C554 H546 0.950 . S
C554 C552 1.391 . S
C554 C555 1.400 . S
C555 C554 1.400 . S
C555 C556 1.398 . S
C555 C561 1.491 . S
C556 H547 0.950 . S
C556 C555 1.398 . S
C556 C557 1.391 . S
C557 H545 0.950 . S
C557 C553 1.393 . S
C557 C556 1.391 . S
C558 H548 0.950 . S
C558 C559 1.386 . S
C558 C560 1.391 . S
C559 C558 1.386 . S
C559 C563 1.393 . S
C560 H549 0.950 . S
C560 C558 1.391 . S
C560 C561 1.400 . S
C561 C555 1.491 . S
C561 C560 1.400 . S
C561 C562 1.398 . S
C562 H550 0.950 . S
C562 C561 1.398 . S
C562 C563 1.391 . S
C563 H551 0.950 . S
C563 C559 1.393 . S
C563 C562 1.391 . S
C339 C219 1.633 . S
C333 C138 1.634 . S
C353 C21 1.611 . S
C359 C314 1.617 . S
C373 C60 1.627 . S
C379 C230 1.638 . S
C393 C99 1.619 . S
C399 C303 1.624 . S
C419 C214 1.414 . S
C413 C16 1.553 . S
C439 C307 1.615 . S
C433 C40 1.602 . S
C453 C79 1.597 . S
C459 C223 1.618 . S
C473 C133 1.540 . S
C479 C298 1.391 . S
C499 C309 1.421 . S
C493 C55 1.534 . S
C519 C225 1.397 . S
C513 C94 1.557 . S
C539 C296 1.615 . S
C533 C118 1.598 . S
C553 C1 1.605 . S
C559 C212 1.621 . S
