# Generated by pormake.
# Topology apo, (3,6)-cn, num edge types: 1
# Building blocks:
#     Node 0, Type 0, BuildingBlock: ESEHIV_clean_linker_0, # of connection points: 3
#     Node 1, Type 0, BuildingBlock: ESEHIV_clean_linker_0, # of connection points: 3
#     Node 2, Type 0, BuildingBlock: ESEHIV_clean_linker_0, # of connection points: 3
#     Node 3, Type 0, BuildingBlock: ESEHIV_clean_linker_0, # of connection points: 3
#     Node 4, Type 0, BuildingBlock: ESEHIV_clean_linker_0, # of connection points: 3
#     Node 5, Type 0, BuildingBlock: ESEHIV_clean_linker_0, # of connection points: 3
#     Node 6, Type 0, BuildingBlock: ESEHIV_clean_linker_0, # of connection points: 3
#     Node 7, Type 0, BuildingBlock: ESEHIV_clean_linker_0, # of connection points: 3
#     Node 8, Type 1, BuildingBlock: MIDCAF_clean_sbu_0, # of connection points: 6
#     Node 9, Type 1, BuildingBlock: MIDCAF_clean_sbu_0, # of connection points: 6
#     Node 10, Type 1, BuildingBlock: MIDCAF_clean_sbu_0, # of connection points: 6
#     Node 11, Type 1, BuildingBlock: MIDCAF_clean_sbu_0, # of connection points: 6
#     Edge 12, Type (0, 1), BuildingBlock: EZIPEK_clean_linker_0, # of connection points: 2
#     Edge 13, Type (0, 1), BuildingBlock: EZIPEK_clean_linker_0, # of connection points: 2
#     Edge 14, Type (0, 1), BuildingBlock: EZIPEK_clean_linker_0, # of connection points: 2
#     Edge 15, Type (0, 1), BuildingBlock: EZIPEK_clean_linker_0, # of connection points: 2
#     Edge 16, Type (0, 1), BuildingBlock: EZIPEK_clean_linker_0, # of connection points: 2
#     Edge 17, Type (0, 1), BuildingBlock: EZIPEK_clean_linker_0, # of connection points: 2
#     Edge 18, Type (0, 1), BuildingBlock: EZIPEK_clean_linker_0, # of connection points: 2
#     Edge 19, Type (0, 1), BuildingBlock: EZIPEK_clean_linker_0, # of connection points: 2
#     Edge 20, Type (0, 1), BuildingBlock: EZIPEK_clean_linker_0, # of connection points: 2
#     Edge 21, Type (0, 1), BuildingBlock: EZIPEK_clean_linker_0, # of connection points: 2
#     Edge 22, Type (0, 1), BuildingBlock: EZIPEK_clean_linker_0, # of connection points: 2
#     Edge 23, Type (0, 1), BuildingBlock: EZIPEK_clean_linker_0, # of connection points: 2
#     Edge 24, Type (0, 1), BuildingBlock: EZIPEK_clean_linker_0, # of connection points: 2
#     Edge 25, Type (0, 1), BuildingBlock: EZIPEK_clean_linker_0, # of connection points: 2
#     Edge 26, Type (0, 1), BuildingBlock: EZIPEK_clean_linker_0, # of connection points: 2
#     Edge 27, Type (0, 1), BuildingBlock: EZIPEK_clean_linker_0, # of connection points: 2
#     Edge 28, Type (0, 1), BuildingBlock: EZIPEK_clean_linker_0, # of connection points: 2
#     Edge 29, Type (0, 1), BuildingBlock: EZIPEK_clean_linker_0, # of connection points: 2
#     Edge 30, Type (0, 1), BuildingBlock: EZIPEK_clean_linker_0, # of connection points: 2
#     Edge 31, Type (0, 1), BuildingBlock: EZIPEK_clean_linker_0, # of connection points: 2
#     Edge 32, Type (0, 1), BuildingBlock: EZIPEK_clean_linker_0, # of connection points: 2
#     Edge 33, Type (0, 1), BuildingBlock: EZIPEK_clean_linker_0, # of connection points: 2
#     Edge 34, Type (0, 1), BuildingBlock: EZIPEK_clean_linker_0, # of connection points: 2
#     Edge 35, Type (0, 1), BuildingBlock: EZIPEK_clean_linker_0, # of connection points: 2
# Relax obj value: 0.086
# Max RMSD: 0.099
# Mean RMSD: 0.090
data_MOF--net-apo--node1-MIDCAF_clean_sbu_0--node2-ESEHIV_clean_linker_0--edge1-EZIPEK_clean_linker_0
_symmetry_space_group_name_H-M    P1
_symmetry_Int_Tables_number       1
_symmetry_cell_setting            triclinic
loop_
_symmetry_equiv_pos_as_xyz
'x, y, z'
_cell_length_a     24.0382
_cell_length_b     28.572725
_cell_length_c     23.690257
_cell_angle_alpha  89.416541
_cell_angle_beta   90.156044
_cell_angle_gamma 89.066311
loop_
_atom_site_label
_atom_site_type_symbol
_atom_site_fract_x
_atom_site_fract_y
_atom_site_fract_z
_atom_type_partial_charge
H0 H 0.37857 0.35869 0.44307 0.0
H1 H 0.29893 0.32435 0.28674 0.0
H2 H 0.26846 0.2417 0.43626 0.0
C3 C 0.35285 0.33532 0.41885 0.0
C4 C 0.3265 0.29796 0.44609 0.0
C5 C 0.34283 0.34495 0.36157 0.0
C6 C 0.30808 0.31601 0.33059 0.0
C7 C 0.28106 0.27889 0.35732 0.0
C8 C 0.29042 0.26967 0.41514 0.0
H9 H 0.09366 0.10564 0.94351 0.0
H10 H 0.17742 0.13693 0.78805 0.0
H11 H 0.20181 0.22393 0.93315 0.0
C12 C 0.11974 0.12867 0.91879 0.0
C13 C 0.14463 0.16709 0.94462 0.0
C14 C 0.13164 0.11767 0.86245 0.0
C15 C 0.16683 0.14626 0.83102 0.0
C16 C 0.19225 0.18448 0.85625 0.0
C17 C 0.18105 0.19507 0.91311 0.0
H18 H 0.87322 0.10754 0.59704 0.0
H19 H 0.77769 0.14355 0.74385 0.0
H20 H 0.76594 0.22963 0.5939 0.0
C21 C 0.84535 0.13161 0.61857 0.0
C22 C 0.82304 0.17066 0.58932 0.0
C23 C 0.82905 0.12172 0.67426 0.0
C24 C 0.79159 0.15185 0.70145 0.0
C25 C 0.76884 0.19078 0.67274 0.0
C26 C 0.78457 0.2002 0.61663 0.0
H27 H 0.59371 0.35002 0.07687 0.0
H28 H 0.69636 0.34023 0.22579 0.0
H29 H 0.71672 0.23996 0.09257 0.0
C30 C 0.62563 0.33195 0.10163 0.0
C31 C 0.65401 0.29369 0.07817 0.0
C32 C 0.64178 0.35019 0.1539 0.0
C33 C 0.68322 0.32657 0.18545 0.0
C34 C 0.70873 0.28579 0.1645 0.0
C35 C 0.69501 0.26997 0.11015 0.0
H36 H 0.59711 0.60531 0.60585 0.0
H37 H 0.72285 0.71002 0.61077 0.0
H38 H 0.6577 0.65329 0.76596 0.0
C39 C 0.62362 0.62804 0.63012 0.0
C40 C 0.62339 0.62518 0.68934 0.0
C41 C 0.65775 0.65963 0.60161 0.0
C42 C 0.69433 0.68714 0.63263 0.0
C43 C 0.6946 0.68448 0.69195 0.0
C44 C 0.65749 0.65504 0.72022 0.0
H45 H 0.8807 0.85774 0.1091 0.0
H46 H 0.81167 0.81924 0.26991 0.0
H47 H 0.76096 0.74804 0.11918 0.0
C48 C 0.85458 0.83508 0.13431 0.0
C49 C 0.82343 0.8006 0.1077 0.0
C50 C 0.85037 0.84216 0.19262 0.0
C51 C 0.8161 0.81321 0.22502 0.0
C52 C 0.78322 0.77975 0.19853 0.0
C53 C 0.78729 0.77312 0.1399 0.0
H54 H 0.10027 0.85976 0.4712 0.0
H55 H 0.22361 0.74914 0.47384 0.0
H56 H 0.18797 0.82456 0.31912 0.0
C57 C 0.12991 0.83763 0.44903 0.0
C58 C 0.14035 0.84608 0.39168 0.0
C59 C 0.15892 0.80219 0.47868 0.0
C60 C 0.19939 0.77529 0.45064 0.0
C61 C 0.20965 0.78325 0.39293 0.0
C62 C 0.17905 0.81773 0.36326 0.0
H63 H 0.38642 0.63047 0.97795 0.0
H64 H 0.27259 0.62475 0.83756 0.0
H65 H 0.24995 0.72873 0.96582 0.0
C66 C 0.35113 0.64478 0.95448 0.0
C67 C 0.31919 0.68084 0.9783 0.0
C68 C 0.33343 0.62253 0.90518 0.0
C69 C 0.28738 0.64143 0.87552 0.0
C70 C 0.25936 0.68141 0.8956 0.0
C71 C 0.27435 0.70033 0.94791 0.0
Zn72 Zn 0.04 0.1138 0.36971 0.0
Zn73 Zn 0.94606 0.10525 0.17595 0.0
Zn74 Zn -0.00689 0.11516 0.27245 0.0
C75 C 0.04665 0.14513 0.15185 0.0
C76 C 0.94641 0.01814 0.22047 0.0
O77 O 0.93494 0.15055 0.33376 0.0
O78 O 0.97805 0.13696 0.41519 0.0
C79 C 0.1055 0.16737 0.29838 0.0
O80 O 0.04812 0.14745 0.20629 0.0
O81 O 0.00722 0.12496 0.12738 0.0
O82 O 0.92552 0.0392 0.17834 0.0
O83 O 0.97491 0.04054 0.25723 0.0
O84 O 0.09897 0.15713 0.34977 0.0
O85 O 0.07105 0.15331 0.26073 0.0
O86 O 0.01498 0.04205 0.29862 0.0
O87 O 0.06306 0.04809 0.37788 0.0
C88 C 0.04407 0.02327 0.33891 0.0
O89 O 0.9147 0.15611 0.27808 0.0
O90 O 0.88652 0.15154 0.18919 0.0
C91 C 0.93643 0.1527 0.38823 0.0
C92 C 0.8805 0.16766 0.23816 0.0
Zn93 Zn 0.51907 0.37221 0.67548 0.0
Zn94 Zn 0.43186 0.34536 0.86738 0.0
Zn95 Zn 0.47528 0.35623 0.77327 0.0
C96 C 0.42066 0.43872 0.84869 0.0
C97 C 0.36781 0.29493 0.79711 0.0
O98 O 0.55576 0.318 0.77336 0.0
O99 O 0.58358 0.32971 0.68531 0.0
C100 C 0.51418 0.45758 0.72544 0.0
O101 O 0.4535 0.42655 0.80822 0.0
O102 O 0.40036 0.40785 0.8805 0.0
O103 O 0.3778 0.29836 0.84905 0.0
O104 O 0.39794 0.31625 0.76037 0.0
O105 O 0.53251 0.4394 0.68085 0.0
O106 O 0.48939 0.43248 0.76297 0.0
O107 O 0.41988 0.32609 0.70675 0.0
O108 O 0.45881 0.35036 0.62722 0.0
C109 C 0.4205 0.329 0.65231 0.0
O110 O 0.53684 0.31789 0.82923 0.0
O111 O 0.49619 0.32468 0.91239 0.0
C112 C 0.59071 0.31074 0.73311 0.0
C113 C 0.53755 0.31212 0.88336 0.0
Zn114 Zn 0.01173 0.85808 0.87656 0.0
Zn115 Zn 0.93909 0.85297 0.69247 0.0
Zn116 Zn 0.97617 0.85373 0.78515 0.0
C117 C 0.90908 0.93992 0.73539 0.0
C118 C 0.87592 0.79207 0.75142 0.0
O119 O 0.05303 0.81098 0.78477 0.0
O120 O 0.05446 0.7982 0.87673 0.0
C121 C 0.0449 0.93889 0.82204 0.0
O122 O 0.94932 0.92787 0.76894 0.0
O123 O 0.89661 0.91234 0.69626 0.0
O124 O 0.89291 0.79679 0.7014 0.0
O125 O 0.8989 0.81467 0.79161 0.0
O126 O 0.05787 0.91329 0.86385 0.0
O127 O 0.00271 0.92735 0.79187 0.0
O128 O 0.91695 0.82302 0.84778 0.0
O129 O 0.94432 0.8609 0.92336 0.0
C130 C 0.91005 0.83436 0.89987 0.0
O131 O 0.03853 0.81985 0.72824 0.0
O132 O 0.007 0.84793 0.64684 0.0
C133 C 0.07331 0.78936 0.82829 0.0
C134 C 0.04432 0.82641 0.67468 0.0
Zn135 Zn 0.53772 0.62585 0.19224 0.0
Zn136 Zn 0.46083 0.60233 0.37389 0.0
Zn137 Zn 0.49528 0.61377 0.2797 0.0
C138 C 0.56325 0.62608 0.39772 0.0
C139 C 0.43168 0.52223 0.31602 0.0
O140 O 0.43653 0.65592 0.22625 0.0
O141 O 0.47216 0.63633 0.14381 0.0
C142 C 0.59916 0.67825 0.25639 0.0
O143 O 0.55717 0.63657 0.34492 0.0
O144 O 0.52681 0.60255 0.42281 0.0
O145 O 0.42172 0.54391 0.36108 0.0
O146 O 0.46766 0.53898 0.28125 0.0
O147 O 0.58247 0.68061 0.20604 0.0
O148 O 0.5751 0.6508 0.29191 0.0
O149 O 0.51377 0.54349 0.24622 0.0
O150 O 0.58041 0.56637 0.18934 0.0
C151 C 0.55539 0.53364 0.21399 0.0
O152 O 0.41901 0.65723 0.28284 0.0
O153 O 0.41108 0.65819 0.37574 0.0
C154 C 0.43385 0.6556 0.17191 0.0
C155 C 0.39515 0.67252 0.32774 0.0
C156 C 0.05547 0.89182 0.36032 0.0
C157 C 0.1144 0.88788 0.36385 0.0
C158 C 0.12179 0.96737 0.32611 0.0
C159 C 0.06431 0.9745 0.3355 0.0
N160 N 0.97502 0.94431 0.3615 0.0
N161 N 0.2042 0.92495 0.35595 0.0
C162 C 0.03035 0.93674 0.35165 0.0
C163 C 0.14795 0.92612 0.34722 0.0
N164 N 0.02391 0.85271 0.36538 0.0
N165 N 0.15145 0.00068 0.29805 0.0
H166 H 0.2255 0.89665 0.37425 0.0
H167 H 0.2292 0.95404 0.35011 0.0
H168 H 0.1328 0.03122 0.28179 0.0
H169 H 0.19269 -0.00439 0.28575 0.0
H170 H 0.9811 0.8528 0.35839 0.0
H171 H 0.04156 0.81938 0.37117 0.0
H172 H 0.94918 0.91915 0.379 0.0
H173 H 0.95564 0.97683 0.35467 0.0
C174 C 0.37394 0.56676 0.83228 0.0
C175 C 0.35937 0.57661 0.8891 0.0
C176 C 0.40263 0.50221 0.91764 0.0
C177 C 0.40641 0.48839 0.86054 0.0
N178 N 0.37911 0.50502 0.76391 0.0
N179 N 0.34372 0.54346 0.98253 0.0
C180 C 0.38794 0.51998 0.81757 0.0
C181 C 0.36927 0.54153 0.93115 0.0
N182 N 0.37571 0.60162 0.79258 0.0
N183 N 0.43038 0.47782 0.95914 0.0
H184 H 0.31298 0.56826 0.99209 0.0
H185 H 0.34765 0.5166 1.01251 0.0
H186 H 0.45773 0.45009 0.95043 0.0
H187 H 0.43103 0.48893 1.00096 0.0
H188 H 0.38975 0.59573 0.75159 0.0
H189 H 0.3693 0.63679 0.80239 0.0
H190 H 0.35994 0.52633 0.73332 0.0
H191 H 0.38512 0.47036 0.75181 0.0
C192 C 0.5316 0.58674 0.70073 0.0
C193 C 0.58826 0.58917 0.71711 0.0
C194 C 0.57875 0.51408 0.7665 0.0
C195 C 0.52902 0.50646 0.73623 0.0
N196 N 0.45965 0.53472 0.66998 0.0
N197 N 0.66802 0.55099 0.76231 0.0
C198 C 0.50505 0.54292 0.70292 0.0
C199 C 0.61233 0.55237 0.75058 0.0
N200 N 0.50417 0.62586 0.68116 0.0
N201 N 0.59561 0.48315 0.80765 0.0
H202 H 0.6957 0.57622 0.74861 0.0
H203 H 0.68791 0.52214 0.78114 0.0
H204 H 0.57212 0.45426 0.8193 0.0
H205 H 0.62961 0.48903 0.8339 0.0
H206 H 0.46171 0.62649 0.67203 0.0
H207 H 0.52296 0.65855 0.67984 0.0
H208 H 0.44415 0.55891 0.64044 0.0
H209 H 0.43998 0.50245 0.66957 0.0
C210 C 0.84532 0.9226 0.23512 0.0
C211 C 0.87786 0.8834 0.21742 0.0
C212 C 0.96167 0.93112 0.21748 0.0
C213 C 0.92824 0.9702 0.23227 0.0
N214 N 0.84499 -2e-05 0.27594 0.0
N215 N 0.96823 0.84652 0.20914 0.0
C216 C 0.87237 0.96457 0.24865 0.0
C217 C 0.93673 0.8864 0.21474 0.0
N218 N 0.78853 0.92145 0.23434 0.0
N219 N 0.0162 0.93724 0.20372 0.0
H220 H 0.95051 0.81344 0.20757 0.0
H221 H 0.0115 0.84582 0.21135 0.0
H222 H 0.0355 0.96954 0.20738 0.0
H223 H 0.04151 0.91102 0.18684 0.0
H224 H 0.76329 0.951 0.24004 0.0
H225 H 0.7662 0.89208 0.22353 0.0
H226 H 0.8056 -0.00364 0.29353 0.0
H227 H 0.86427 0.03129 0.28616 0.0
C228 C 0.81427 0.03567 0.68195 0.0
C229 C 0.84317 0.0756 0.70039 0.0
C230 C 0.89848 0.02598 0.76568 0.0
C231 C 0.87848 -0.01379 0.73717 0.0
N232 N 0.79405 0.95433 0.69995 0.0
N233 N 0.90555 0.11104 0.76669 0.0
C234 C 0.82905 -0.00869 0.70477 0.0
C235 C 0.88275 0.07155 0.74504 0.0
N236 N 0.77324 0.03993 0.64202 0.0
N237 N 0.92809 0.02011 0.81451 0.0
H238 H 0.89507 0.14457 0.75198 0.0
H239 H 0.93577 0.11097 0.79813 0.0
H240 H 0.93196 -0.01237 0.83459 0.0
H241 H 0.94276 0.04738 0.83883 0.0
H242 H 0.75627 0.01134 0.62161 0.0
H243 H 0.75787 0.07209 0.62717 0.0
H244 H 0.755 0.95671 0.68091 0.0
H245 H 0.80096 0.92296 0.72201 0.0
C246 C 0.61883 0.43446 0.13239 0.0
C247 C 0.61918 0.39671 0.17176 0.0
C248 C 0.58102 0.45002 0.24301 0.0
C249 C 0.57252 0.48488 0.20049 0.0
N250 N 0.56692 0.50225 0.10035 0.0
N251 N 0.5879 0.3667 0.26199 0.0
C252 C 0.58618 0.47457 0.14376 0.0
C253 C 0.59659 0.40382 0.22655 0.0
N254 N 0.65164 0.43332 0.0854 0.0
N255 N 0.5759 0.4609 0.29875 0.0
H256 H 0.59543 0.33213 0.25022 0.0
H257 H 0.56752 0.37002 0.30056 0.0
H258 H 0.56646 0.49456 0.31267 0.0
H259 H 0.58641 0.43739 0.33112 0.0
H260 H 0.65495 0.46189 0.05791 0.0
H261 H 0.68062 0.40655 0.07797 0.0
H262 H 0.57305 0.4936 0.05811 0.0
H263 H 0.53918 0.53022 0.10638 0.0
C264 C 0.32811 0.43116 0.35176 0.0
C265 C 0.35939 0.39048 0.33731 0.0
C266 C 0.42219 0.43843 0.2807 0.0
C267 C 0.39941 0.47862 0.30662 0.0
N268 N 0.31422 0.5147 0.33792 0.0
N269 N 0.43363 0.35397 0.28437 0.0
C270 C 0.3469 0.47537 0.33324 0.0
C271 C 0.4053 0.39355 0.29995 0.0
N272 N 0.28186 0.42764 0.38498 0.0
N273 N 0.45413 0.44321 0.23381 0.0
H274 H 0.4218 0.32054 0.29716 0.0
H275 H 0.47046 0.35459 0.26138 0.0
H276 H 0.45793 0.47557 0.21376 0.0
H277 H 0.4685 0.41502 0.21009 0.0
H278 H 0.2617 0.45627 0.40308 0.0
H279 H 0.2648 0.39573 0.39685 0.0
H280 H 0.27345 0.51477 0.35261 0.0
H281 H 0.3262 0.54672 0.32071 0.0
C282 C 0.14586 0.03113 0.85996 0.0
C283 C 0.11633 0.07143 0.84004 0.0
C284 C 0.05727 0.02179 0.78181 0.0
C285 C 0.07737 0.98267 0.81325 0.0
N286 N 0.16226 0.94794 0.84924 0.0
N287 N 0.05093 0.10677 0.77431 0.0
C288 C 0.12857 -0.01342 0.84236 0.0
C289 C 0.07456 0.06735 0.79781 0.0
N290 N 0.18961 0.03532 0.8965 0.0
N291 N 0.02623 0.01498 0.73444 0.0
H292 H 0.06239 0.14042 0.78575 0.0
H293 H 0.019 0.10643 0.74467 0.0
H294 H 0.02076 0.98171 0.71792 0.0
H295 H 0.01222 0.04176 0.70767 0.0
H296 H 0.20754 0.00701 0.91825 0.0
H297 H 0.20665 0.0674 0.90707 0.0
H298 H 0.20229 0.94893 0.86604 0.0
H299 H 0.15273 0.9159 0.83109 0.0
C300 C 0.16064 0.14302 0.0455 0.0
C301 C 0.1352 0.17453 1.00613 0.0
C302 C 0.07393 0.204 0.08073 0.0
C303 C 0.08995 0.16522 0.11494 0.0
N304 N 0.1526 0.10103 0.135 0.0
N305 N 0.07164 0.2387 0.98662 0.0
C306 C 0.1358 0.13651 0.09951 0.0
C307 C 0.09399 0.20709 1.0243 0.0
N308 N 0.2077 0.11888 0.03039 0.0
N309 N 0.03794 0.23665 0.10221 0.0
H310 H 0.08649 0.24239 0.94552 0.0
H311 H 0.0373 0.26007 0.9952 0.0
H312 H 0.02322 0.23414 0.14358 0.0
H313 H 0.02666 0.26765 0.08143 0.0
H314 H 0.23067 0.09749 0.05792 0.0
H315 H 0.22642 0.12352 0.99106 0.0
H316 H 0.18159 0.07519 0.12433 0.0
H317 H 0.13585 0.09699 0.17533 0.0
C318 C 0.37511 0.26086 0.52988 0.0
C319 C 0.33394 0.29234 0.50824 0.0
C320 C 0.33208 0.33459 0.59778 0.0
C321 C 0.37814 0.30705 0.61629 0.0
N322 N 0.4313 0.23569 0.61079 0.0
N323 N 0.26079 0.34855 0.52613 0.0
C324 C 0.39487 0.26684 0.58603 0.0
C325 C 0.30779 0.32539 0.54422 0.0
N326 N 0.39774 0.22756 0.4955 0.0
N327 N 0.31461 0.37147 0.62978 0.0
H328 H 0.24263 0.34198 0.48698 0.0
H329 H 0.23739 0.37111 0.5512 0.0
H330 H 0.33114 0.37755 0.66978 0.0
H331 H 0.28529 0.39644 0.61652 0.0
H332 H 0.43207 0.20669 0.50637 0.0
H333 H 0.3829 0.22178 0.45478 0.0
H334 H 0.44315 0.2039 0.59307 0.0
H335 H 0.44601 0.24038 0.65185 0.0
C336 C 0.66297 0.31463 0.9763 0.0
C337 C 0.64309 0.28299 1.01781 0.0
C338 C 0.57669 0.25287 0.9494 0.0
C339 C 0.58616 0.29254 0.91468 0.0
N340 N 0.64255 0.35834 0.88998 0.0
N341 N 0.5864 0.2175 0.04277 0.0
C342 C 0.63196 0.32168 0.92557 0.0
C343 C 0.60258 0.24973 1.00343 0.0
N344 N 0.71033 0.33885 0.98677 0.0
N345 N 0.54105 0.21957 0.93097 0.0
H346 H 0.60606 0.21391 0.08194 0.0
H347 H 0.55281 0.19544 0.03742 0.0
H348 H 0.52209 0.22214 0.89128 0.0
H349 H 0.53421 0.18815 0.95224 0.0
H350 H 0.72948 0.36031 0.95712 0.0
H351 H 0.73314 0.33399 1.02401 0.0
H352 H 0.67092 0.38443 0.89872 0.0
H353 H 0.62124 0.36335 0.85197 0.0
C354 C 0.87733 0.21131 0.51247 0.0
C355 C 0.83748 0.17763 0.52861 0.0
C356 C 0.84563 0.14013 0.43619 0.0
C357 C 0.88952 0.1707 0.42261 0.0
N358 N 0.93399 0.24391 0.43703 0.0
N359 N 0.77049 0.12071 0.5004 0.0
C360 C 0.90023 0.20963 0.45713 0.0
C361 C 0.81691 0.1458 0.48826 0.0
N362 N 0.8959 0.24269 0.55107 0.0
N363 N 0.83454 0.10364 0.40134 0.0
H364 H 0.74877 0.12469 0.53819 0.0
H365 H 0.75071 0.0994 0.47144 0.0
H366 H 0.85399 0.09974 0.36234 0.0
H367 H 0.80787 0.07656 0.41172 0.0
H368 H 0.92926 0.26473 0.54397 0.0
H369 H 0.87945 0.24522 0.59162 0.0
H370 H 0.94104 0.27514 0.45793 0.0
H371 H 0.95079 0.24248 0.39643 0.0
C372 C 0.80219 0.83335 1.01178 0.0
C373 C 0.82663 0.797 0.04519 0.0
C374 C 0.88053 0.77058 0.96361 0.0
C375 C 0.86694 0.81337 0.93601 0.0
N376 N 0.80891 0.88195 0.92707 0.0
N377 N 0.88405 0.72736 0.05246 0.0
C378 C 0.82463 0.84306 0.95748 0.0
C379 C 0.86313 0.7636 1.02042 0.0
N380 N 0.75882 0.85904 0.03307 0.0
N381 N 0.91189 0.73787 0.93593 0.0
H382 H 0.87088 0.72087 0.09368 0.0
H383 H 0.9156 0.70471 0.03918 0.0
H384 H 0.92477 0.74298 0.89431 0.0
H385 H 0.92079 0.70451 0.9519 0.0
H386 H 0.7368 0.88452 1.01018 0.0
H387 H 0.74207 0.85205 0.07283 0.0
H388 H 0.78252 0.90818 0.94208 0.0
H389 H 0.82374 0.88804 0.88627 0.0
C390 C 0.62081 0.69688 0.51226 0.0
C391 C 0.65449 0.66185 0.53893 0.0
C392 C 0.64864 0.61262 0.45525 0.0
C393 C 0.60901 0.64461 0.43226 0.0
N394 N 0.57261 0.72318 0.42689 0.0
N395 N 0.71527 0.5948 0.53034 0.0
C396 C 0.60105 0.68921 0.45651 0.0
C397 C 0.67396 0.62271 0.50799 0.0
N398 N 0.60425 0.73546 0.54181 0.0
N399 N 0.65903 0.57153 0.42799 0.0
H400 H 0.73402 0.60218 0.569 0.0
H401 H 0.73385 0.56699 0.5091 0.0
H402 H 0.6422 0.56489 0.38821 0.0
H403 H 0.68296 0.54405 0.44472 0.0
H404 H 0.57441 0.75956 0.5274 0.0
H405 H 0.61904 0.74254 0.58218 0.0
H406 H 0.56843 0.75768 0.44011 0.0
H407 H 0.5575 0.71756 0.38625 0.0
C408 C 0.37063 0.72288 0.05397 0.0
C409 C 0.32876 0.69119 0.03876 0.0
C410 C 0.34026 0.64871 0.12815 0.0
C411 C 0.38681 0.67665 0.14008 0.0
N412 N 0.4351 0.7486 0.12638 0.0
N413 N 0.25971 0.6363 0.06835 0.0
C414 C 0.3975 0.71715 0.10722 0.0
C415 C 0.30823 0.65882 0.07898 0.0
N416 N 0.38683 0.75611 1.0159 0.0
N417 N 0.33018 0.61006 0.1607 0.0
H418 H 0.23629 0.64301 0.03191 0.0
H419 H 0.24033 0.61455 0.09754 0.0
H420 H 0.35354 0.60185 0.19672 0.0
H421 H 0.30087 0.58503 0.15061 0.0
H422 H 0.42108 0.77739 1.02153 0.0
H423 H 0.36603 0.76142 0.97755 0.0
H424 H 0.44314 0.78033 0.10629 0.0
H425 H 0.45486 0.7442 0.16546 0.0
C426 C 0.1113 0.76147 0.55943 0.0
C427 C 0.14806 0.79649 0.54012 0.0
C428 C 0.13457 0.84037 0.62733 0.0
C429 C 0.09286 0.8085 0.64312 0.0
N430 N 0.05489 0.7318 0.63681 0.0
N431 N 0.209 0.85963 0.56215 0.0
C432 C 0.08651 0.76623 0.61359 0.0
C433 C 0.165 0.83248 0.57684 0.0
N434 N 0.09711 0.72584 0.52447 0.0
N435 N 0.14187 0.87974 0.65856 0.0
H436 H 0.23152 0.85406 0.52512 0.0
H437 H 0.22601 0.88465 0.58842 0.0
H438 H 0.12072 0.88525 0.69642 0.0
H439 H 0.16709 0.9073 0.64638 0.0
H440 H 0.06584 0.70214 0.53338 0.0
H441 H 0.11549 0.721 0.48509 0.0
H442 H 0.05102 0.69864 0.6196 0.0
H443 H 0.03656 0.7355 0.67648 0.0
C444 C 0.25126 0.20566 0.30933 0.0
C445 C 0.23896 0.25228 0.32574 0.0
C446 C 0.14446 0.24551 0.2882 0.0
C447 C 0.15317 0.1968 0.28461 0.0
N448 N 0.21442 0.12978 0.28467 0.0
N449 N 0.17389 0.31761 0.33088 0.0
C450 C 0.20701 0.17686 0.2916 0.0
C451 C 0.18592 0.273 0.31389 0.0
N452 N 0.30492 0.18917 0.31125 0.0
N453 N 0.09545 0.26471 0.26915 0.0
H454 H 0.20266 0.33872 0.3509 0.0
H455 H 0.13422 0.3327 0.3288 0.0
H456 H 0.0648 0.24433 0.2507 0.0
H457 H 0.08756 0.30061 0.26654 0.0
H458 H 0.31738 0.15667 0.29587 0.0
H459 H 0.33798 0.20969 0.32438 0.0
H460 H 0.25075 0.11144 0.29541 0.0
H461 H 0.18263 0.10887 0.26935 0.0
C462 C 0.28771 0.19008 0.81387 0.0
C463 C 0.23457 0.21087 0.82425 0.0
C464 C 0.26662 0.28588 0.78708 0.0
C465 C 0.32048 0.2659 0.78165 0.0
N466 N 0.37831 0.19803 0.76956 0.0
N467 N 0.16857 0.27361 0.80582 0.0
C468 C 0.3291 0.21726 0.78723 0.0
C469 C 0.22228 0.25722 0.80547 0.0
N470 N 0.29997 0.14584 0.83324 0.0
N471 N 0.2593 0.33291 0.77851 0.0
H472 H 0.13545 0.25321 0.81937 0.0
H473 H 0.15621 0.30583 0.78868 0.0
H474 H 0.29131 0.35377 0.76322 0.0
H475 H 0.22282 0.35125 0.78802 0.0
H476 H 0.33969 0.13084 0.83197 0.0
H477 H 0.27143 0.12508 0.85452 0.0
H478 H 0.38638 0.16213 0.76845 0.0
H479 H 0.40899 0.2185 0.7509 0.0
C480 C 0.67066 0.20138 0.707 0.0
C481 C 0.72495 0.21957 0.70025 0.0
C482 C 0.69284 0.29581 0.73469 0.0
C483 C 0.63837 0.27799 0.73929 0.0
N484 N 0.5784 0.21175 0.74688 0.0
N485 N 0.79132 0.27936 0.72095 0.0
C486 C 0.62854 0.22983 0.73176 0.0
C487 C 0.73727 0.26533 0.71866 0.0
N488 N 0.65837 0.15822 0.68633 0.0
N489 N 0.70126 0.34238 0.74327 0.0
H490 H 0.82464 0.25773 0.70921 0.0
H491 H 0.80359 0.31078 0.7386 0.0
H492 H 0.66979 0.36476 0.75784 0.0
H493 H 0.73834 0.35913 0.73409 0.0
H494 H 0.61817 0.14532 0.6843 0.0
H495 H 0.68765 0.13649 0.66688 0.0
H496 H 0.57018 0.17608 0.74709 0.0
H497 H 0.54674 0.23211 0.76467 0.0
C498 C 0.73648 0.2161 0.22369 0.0
C499 C 0.75075 0.25979 0.19914 0.0
C500 C 0.84643 0.24918 0.23332 0.0
C501 C 0.83482 0.20192 0.24582 0.0
N502 N 0.76946 0.14013 0.25806 0.0
N503 N 0.81902 0.3191 0.18079 0.0
C504 C 0.77961 0.18564 0.24384 0.0
C505 C 0.80541 0.27728 0.20519 0.0
N506 N 0.68185 0.20389 0.22731 0.0
N507 N 0.89748 0.26625 0.24666 0.0
H508 H 0.79025 0.3405 0.15938 0.0
H509 H 0.85951 0.33132 0.17848 0.0
H510 H 0.92779 0.24564 0.26709 0.0
H511 H 0.90779 0.30137 0.24258 0.0
H512 H 0.66828 0.17424 0.24874 0.0
H513 H 0.64946 0.22565 0.21278 0.0
H514 H 0.73159 0.12393 0.25132 0.0
H515 H 0.80039 0.11804 0.27502 0.0
C516 C 0.79121 0.68715 0.73101 0.0
C517 C 0.73809 0.70898 0.72394 0.0
C518 C 0.77374 0.78278 0.75951 0.0
C519 C 0.82765 0.76209 0.76089 0.0
N520 N 0.88591 0.69348 0.76641 0.0
N521 N 0.67455 0.77254 0.74428 0.0
C522 C 0.8355 0.71357 0.75324 0.0
C523 C 0.72785 0.75518 0.74301 0.0
N524 N 0.79985 0.64215 0.71354 0.0
N525 N 0.76743 0.8294 0.77061 0.0
H526 H 0.64049 0.75312 0.7314 0.0
H527 H 0.66341 0.80469 0.7615 0.0
H528 H 0.80017 0.84946 0.78545 0.0
H529 H 0.73069 0.84847 0.7642 0.0
H530 H 0.83883 0.62589 0.71174 0.0
H531 H 0.76803 0.62142 0.69809 0.0
H532 H 0.89401 0.65761 0.76582 0.0
H533 H 0.91842 0.71296 0.783 0.0
C534 C 0.68532 0.77912 0.23408 0.0
C535 C 0.73835 0.7567 0.23055 0.0
C536 C 0.7008 0.68522 0.27234 0.0
C537 C 0.64735 0.70674 0.27116 0.0
N538 N 0.59178 0.77687 0.27242 0.0
N539 N 0.80052 0.69402 0.25971 0.0
C540 C 0.64121 0.75507 0.26031 0.0
C541 C 0.74753 0.71162 0.25477 0.0
N542 N 0.67595 0.82164 0.20854 0.0
N543 N 0.70591 0.63887 0.28631 0.0
H544 H 0.83516 0.71253 0.2461 0.0
H545 H 0.81056 0.66289 0.28084 0.0
H546 H 0.67246 0.61974 0.30157 0.0
H547 H 0.74242 0.61924 0.28165 0.0
H548 H 0.63672 0.83739 0.20496 0.0
H549 H 0.7066 0.83955 0.18657 0.0
H550 H 0.58542 0.81295 0.26948 0.0
H551 H 0.55893 0.75869 0.29071 0.0
C552 C 0.24686 0.71662 0.33542 0.0
C553 C 0.25651 0.75867 0.36487 0.0
C554 C 0.35631 0.75149 0.34553 0.0
C555 C 0.34768 0.70578 0.32555 0.0
N556 N 0.28609 0.64416 0.29924 0.0
N557 N 0.31956 0.81724 0.39834 0.0
C558 C 0.29315 0.68852 0.31862 0.0
C559 C 0.31098 0.77687 0.36927 0.0
N560 N 0.19356 0.70352 0.32414 0.0
N561 N 0.40821 0.77013 0.34195 0.0
H562 H 0.28726 0.83722 0.41555 0.0
H563 H 0.35878 0.82963 0.40843 0.0
H564 H 0.4417 0.75182 0.32419 0.0
H565 H 0.41701 0.80471 0.35147 0.0
H566 H 0.18362 0.67564 0.29826 0.0
H567 H 0.15881 0.72275 0.33742 0.0
H568 H 0.24828 0.62693 0.29957 0.0
H569 H 0.31924 0.62369 0.28482 0.0
C570 C 0.22108 0.74329 0.8304 0.0
C571 C 0.21212 0.70252 0.86353 0.0
C572 C 0.11196 0.71003 0.84668 0.0
C573 C 0.12022 0.75555 0.82453 0.0
N574 N 0.182 0.81588 0.79262 0.0
N575 N 0.1499 0.64529 0.90235 0.0
C576 C 0.17468 0.77186 0.81412 0.0
C577 C 0.15781 0.68476 0.87047 0.0
N578 N 0.27399 0.7547 0.81517 0.0
N579 N 0.05986 0.69164 0.8454 0.0
H580 H 0.18271 0.62542 0.91948 0.0
H581 H 0.11089 0.63353 0.91439 0.0
H582 H 0.02602 0.70987 0.82756 0.0
H583 H 0.05122 0.65726 0.85686 0.0
H584 H 0.28312 0.7816 0.78688 0.0
H585 H 0.30871 0.73448 0.82707 0.0
H586 H 0.22036 0.83221 0.79078 0.0
H587 H 0.14903 0.83716 0.7788 0.0
loop_
_geom_bond_atom_site_label_1
_geom_bond_atom_site_label_2
_geom_bond_distance
_geom_bond_site_symmetry_2
_ccdc_geom_bond_type
H0 C3 0.931 . S
H1 C6 0.928 . S
H2 C8 0.930 . S
C3 H0 0.931 . S
C3 C4 1.413 . S
C3 C5 1.360 . S
C4 C3 1.413 . S
C4 C8 1.429 . S
C5 C3 1.360 . S
C5 C6 1.372 . S
C6 H1 0.928 . S
C6 C5 1.372 . S
C6 C7 1.404 . S
C7 C6 1.404 . S
C7 C8 1.391 . S
C8 H2 0.930 . S
C8 C4 1.429 . S
C8 C7 1.391 . S
H9 C12 0.931 . S
H10 C15 0.928 . S
H11 C17 0.930 . S
C12 H9 0.931 . S
C12 C13 1.413 . S
C12 C14 1.360 . S
C13 C12 1.413 . S
C13 C17 1.429 . S
C14 C12 1.360 . S
C14 C15 1.372 . S
C15 H10 0.928 . S
C15 C14 1.372 . S
C15 C16 1.404 . S
C16 C15 1.404 . S
C16 C17 1.391 . S
C17 H11 0.930 . S
C17 C13 1.429 . S
C17 C16 1.391 . S
H18 C21 0.931 . S
H19 C24 0.928 . S
H20 C26 0.930 . S
C21 H18 0.931 . S
C21 C22 1.413 . S
C21 C23 1.360 . S
C22 C21 1.413 . S
C22 C26 1.429 . S
C23 C21 1.360 . S
C23 C24 1.372 . S
C24 H19 0.928 . S
C24 C23 1.372 . S
C24 C25 1.404 . S
C25 C24 1.404 . S
C25 C26 1.391 . S
C26 H20 0.930 . S
C26 C22 1.429 . S
C26 C25 1.391 . S
H27 C30 0.931 . S
H28 C33 0.928 . S
H29 C35 0.930 . S
C30 H27 0.931 . S
C30 C31 1.413 . S
C30 C32 1.360 . S
C31 C30 1.413 . S
C31 C35 1.429 . S
C32 C30 1.360 . S
C32 C33 1.372 . S
C33 H28 0.928 . S
C33 C32 1.372 . S
C33 C34 1.404 . S
C34 C33 1.404 . S
C34 C35 1.391 . S
C35 H29 0.930 . S
C35 C31 1.429 . S
C35 C34 1.391 . S
H36 C39 0.931 . S
H37 C42 0.928 . S
H38 C44 0.930 . S
C39 H36 0.931 . S
C39 C40 1.413 . S
C39 C41 1.360 . S
C40 C39 1.413 . S
C40 C44 1.429 . S
C41 C39 1.360 . S
C41 C42 1.372 . S
C42 H37 0.928 . S
C42 C41 1.372 . S
C42 C43 1.404 . S
C43 C42 1.404 . S
C43 C44 1.391 . S
C44 H38 0.930 . S
C44 C40 1.429 . S
C44 C43 1.391 . S
H45 C48 0.931 . S
H46 C51 0.928 . S
H47 C53 0.930 . S
C48 H45 0.931 . S
C48 C49 1.413 . S
C48 C50 1.360 . S
C49 C48 1.413 . S
C49 C53 1.429 . S
C50 C48 1.360 . S
C50 C51 1.372 . S
C51 H46 0.928 . S
C51 C50 1.372 . S
C51 C52 1.404 . S
C52 C51 1.404 . S
C52 C53 1.391 . S
C53 H47 0.930 . S
C53 C49 1.429 . S
C53 C52 1.391 . S
H54 C57 0.931 . S
H55 C60 0.928 . S
H56 C62 0.930 . S
C57 H54 0.931 . S
C57 C58 1.413 . S
C57 C59 1.360 . S
C58 C57 1.413 . S
C58 C62 1.429 . S
C59 C57 1.360 . S
C59 C60 1.372 . S
C60 H55 0.928 . S
C60 C59 1.372 . S
C60 C61 1.404 . S
C61 C60 1.404 . S
C61 C62 1.391 . S
C62 H56 0.930 . S
C62 C58 1.429 . S
C62 C61 1.391 . S
H63 C66 0.931 . S
H64 C69 0.928 . S
H65 C71 0.930 . S
C66 H63 0.931 . S
C66 C67 1.413 . S
C66 C68 1.360 . S
C67 C66 1.413 . S
C67 C71 1.429 . S
C68 C66 1.360 . S
C68 C69 1.372 . S
C69 H64 0.928 . S
C69 C68 1.372 . S
C69 C70 1.404 . S
C70 C69 1.404 . S
C70 C71 1.391 . S
C71 H65 0.930 . S
C71 C67 1.429 . S
C71 C70 1.391 . S
Zn72 O78 1.920 1_455 S
Zn72 O84 1.898 . S
Zn72 O87 1.905 . S
Zn73 O81 1.905 1_655 S
Zn73 O82 1.898 . S
Zn73 O90 1.920 . S
Zn74 O77 2.080 1_455 S
Zn74 O80 2.114 . S
Zn74 O83 2.120 1_455 S
Zn74 O85 2.120 . S
Zn74 O86 2.114 . S
Zn74 O89 2.080 1_455 S
C75 O80 1.166 . S
C75 O81 1.182 . S
C76 O82 1.167 . S
C76 O83 1.299 . S
O77 Zn74 2.080 1_655 S
O77 C91 1.305 . S
O78 Zn72 1.920 1_655 S
O78 C91 1.234 . S
C79 O84 1.167 . S
C79 O85 1.299 . S
O80 Zn74 2.114 . S
O80 C75 1.166 . S
O81 Zn73 1.905 1_455 S
O81 C75 1.182 . S
O82 Zn73 1.898 . S
O82 C76 1.167 . S
O83 Zn74 2.120 1_655 S
O83 C76 1.299 . S
O84 Zn72 1.898 . S
O84 C79 1.167 . S
O85 Zn74 2.120 . S
O85 C79 1.299 . S
O86 Zn74 2.114 . S
O86 C88 1.166 . S
O87 Zn72 1.905 . S
O87 C88 1.182 . S
C88 O86 1.166 . S
C88 O87 1.182 . S
O89 Zn74 2.080 1_655 S
O89 C92 1.305 . S
O90 Zn73 1.920 . S
O90 C92 1.234 . S
C91 O77 1.305 . S
C91 O78 1.234 . S
C92 O89 1.305 . S
C92 O90 1.234 . S
Zn93 O99 1.920 . S
Zn93 O105 1.898 . S
Zn93 O108 1.905 . S
Zn94 O102 1.905 . S
Zn94 O103 1.898 . S
Zn94 O111 1.920 . S
Zn95 O98 2.080 . S
Zn95 O101 2.114 . S
Zn95 O104 2.120 . S
Zn95 O106 2.120 . S
Zn95 O107 2.114 . S
Zn95 O110 2.080 . S
C96 O101 1.166 . S
C96 O102 1.182 . S
C97 O103 1.167 . S
C97 O104 1.299 . S
O98 Zn95 2.080 . S
O98 C112 1.305 . S
O99 Zn93 1.920 . S
O99 C112 1.234 . S
C100 O105 1.167 . S
C100 O106 1.299 . S
O101 Zn95 2.114 . S
O101 C96 1.166 . S
O102 Zn94 1.905 . S
O102 C96 1.182 . S
O103 Zn94 1.898 . S
O103 C97 1.167 . S
O104 Zn95 2.120 . S
O104 C97 1.299 . S
O105 Zn93 1.898 . S
O105 C100 1.167 . S
O106 Zn95 2.120 . S
O106 C100 1.299 . S
O107 Zn95 2.114 . S
O107 C109 1.166 . S
O108 Zn93 1.905 . S
O108 C109 1.182 . S
C109 O107 1.166 . S
C109 O108 1.182 . S
O110 Zn95 2.080 . S
O110 C113 1.305 . S
O111 Zn94 1.920 . S
O111 C113 1.234 . S
C112 O98 1.305 . S
C112 O99 1.234 . S
C113 O110 1.305 . S
C113 O111 1.234 . S
Zn114 O120 1.920 . S
Zn114 O126 1.898 . S
Zn114 O129 1.905 1_455 S
Zn115 O123 1.905 . S
Zn115 O124 1.898 . S
Zn115 O132 1.920 1_655 S
Zn116 O119 2.085 . S
Zn116 O122 2.108 1_455 S
Zn116 O125 2.115 1_455 S
Zn116 O127 2.125 . S
Zn116 O128 2.110 1_455 S
Zn116 O131 2.084 . S
C117 O122 1.166 . S
C117 O123 1.182 . S
C118 O124 1.167 . S
C118 O125 1.299 . S
O119 Zn116 2.085 . S
O119 C133 1.305 . S
O120 Zn114 1.920 . S
O120 C133 1.234 . S
C121 O126 1.167 . S
C121 O127 1.299 . S
O122 Zn116 2.108 1_655 S
O122 C117 1.166 . S
O123 Zn115 1.905 . S
O123 C117 1.182 . S
O124 Zn115 1.898 . S
O124 C118 1.167 . S
O125 Zn116 2.115 1_655 S
O125 C118 1.299 . S
O126 Zn114 1.898 . S
O126 C121 1.167 . S
O127 Zn116 2.125 . S
O127 C121 1.299 . S
O128 Zn116 2.110 1_655 S
O128 C130 1.166 . S
O129 Zn114 1.905 1_655 S
O129 C130 1.182 . S
C130 O128 1.166 . S
C130 O129 1.182 . S
O131 Zn116 2.084 . S
O131 C134 1.305 . S
O132 Zn115 1.920 1_455 S
O132 C134 1.234 . S
C133 O119 1.305 . S
C133 O120 1.234 . S
C134 O131 1.305 . S
C134 O132 1.234 . S
Zn135 O141 1.920 . S
Zn135 O147 1.898 . S
Zn135 O150 1.905 . S
Zn136 O144 1.905 . S
Zn136 O145 1.898 . S
Zn136 O153 1.920 . S
Zn137 O140 2.080 . S
Zn137 O143 2.114 . S
Zn137 O146 2.120 . S
Zn137 O148 2.120 . S
Zn137 O149 2.114 . S
Zn137 O152 2.080 . S
C138 O143 1.166 . S
C138 O144 1.182 . S
C139 O145 1.167 . S
C139 O146 1.299 . S
O140 Zn137 2.080 . S
O140 C154 1.305 . S
O141 Zn135 1.920 . S
O141 C154 1.234 . S
C142 O147 1.167 . S
C142 O148 1.299 . S
O143 Zn137 2.114 . S
O143 C138 1.166 . S
O144 Zn136 1.905 . S
O144 C138 1.182 . S
O145 Zn136 1.898 . S
O145 C139 1.167 . S
O146 Zn137 2.120 . S
O146 C139 1.299 . S
O147 Zn135 1.898 . S
O147 C142 1.167 . S
O148 Zn137 2.120 . S
O148 C142 1.299 . S
O149 Zn137 2.114 . S
O149 C151 1.166 . S
O150 Zn135 1.905 . S
O150 C151 1.182 . S
C151 O149 1.166 . S
C151 O150 1.182 . S
O152 Zn137 2.080 . S
O152 C155 1.305 . S
O153 Zn136 1.920 . S
O153 C155 1.234 . S
C154 O140 1.305 . S
C154 O141 1.234 . S
C155 O152 1.305 . S
C155 O153 1.234 . S
C156 C157 1.363 . S
C156 C162 1.379 . S
C156 N164 1.356 . S
C157 C156 1.363 . S
C157 C163 1.363 . S
C158 C159 1.363 . S
C158 C163 1.379 1_545 S
C158 N165 1.356 . S
C159 C158 1.363 . S
C159 C162 1.363 1_545 S
N160 C162 1.356 1_545 S
N160 H172 0.984 1_545 S
N160 H173 0.985 . S
N161 C163 1.356 . S
N161 H166 0.984 . S
N161 H167 0.985 . S
C162 C156 1.379 . S
C162 C159 1.363 1_565 S
C162 N160 1.356 1_565 S
C163 C157 1.363 . S
C163 C158 1.379 1_565 S
C163 N161 1.356 . S
N164 C156 1.356 . S
N164 H170 0.984 . S
N164 H171 0.984 . S
N165 C158 1.356 . S
N165 H168 0.984 . S
N165 H169 0.985 . S
H166 N161 0.984 . S
H167 N161 0.985 . S
H168 N165 0.984 . S
H169 N165 0.985 . S
H170 N164 0.984 . S
H171 N164 0.984 . S
H172 N160 0.984 1_565 S
H173 N160 0.985 . S
C174 C175 1.363 . S
C174 C180 1.379 . S
C174 N182 1.356 . S
C175 C174 1.363 . S
C175 C181 1.363 . S
C176 C177 1.363 . S
C176 C181 1.379 . S
C176 N183 1.356 . S
C177 C176 1.363 . S
C177 C180 1.363 . S
N178 C180 1.356 . S
N178 H190 0.984 . S
N178 H191 0.985 . S
N179 C181 1.356 . S
N179 H184 0.984 . S
N179 H185 0.985 . S
C180 C174 1.379 . S
C180 C177 1.363 . S
C180 N178 1.356 . S
C181 C175 1.363 . S
C181 C176 1.379 . S
C181 N179 1.356 . S
N182 C174 1.356 . S
N182 H188 0.984 . S
N182 H189 0.984 . S
N183 C176 1.356 . S
N183 H186 0.984 . S
N183 H187 0.985 . S
H184 N179 0.984 . S
H185 N179 0.985 . S
H186 N183 0.984 . S
H187 N183 0.985 . S
H188 N182 0.984 . S
H189 N182 0.984 . S
H190 N178 0.984 . S
H191 N178 0.985 . S
C192 C193 1.363 . S
C192 C198 1.379 . S
C192 N200 1.356 . S
C193 C192 1.363 . S
C193 C199 1.363 . S
C194 C195 1.363 . S
C194 C199 1.379 . S
C194 N201 1.356 . S
C195 C194 1.363 . S
C195 C198 1.363 . S
N196 C198 1.356 . S
N196 H208 0.984 . S
N196 H209 0.985 . S
N197 C199 1.356 . S
N197 H202 0.984 . S
N197 H203 0.985 . S
C198 C192 1.379 . S
C198 C195 1.363 . S
C198 N196 1.356 . S
C199 C193 1.363 . S
C199 C194 1.379 . S
C199 N197 1.356 . S
N200 C192 1.356 . S
N200 H206 0.984 . S
N200 H207 0.984 . S
N201 C194 1.356 . S
N201 H204 0.984 . S
N201 H205 0.985 . S
H202 N197 0.984 . S
H203 N197 0.985 . S
H204 N201 0.984 . S
H205 N201 0.985 . S
H206 N200 0.984 . S
H207 N200 0.984 . S
H208 N196 0.984 . S
H209 N196 0.985 . S
C210 C211 1.363 . S
C210 C216 1.379 . S
C210 N218 1.356 . S
C211 C210 1.363 . S
C211 C217 1.363 . S
C212 C213 1.363 1_565 S
C212 C217 1.379 . S
C212 N219 1.356 1_565 S
C213 C212 1.363 1_545 S
C213 C216 1.363 1_545 S
N214 C216 1.356 1_545 S
N214 H226 0.984 . S
N214 H227 0.985 . S
N215 C217 1.356 . S
N215 H220 0.984 . S
N215 H221 0.985 . S
C216 C210 1.379 . S
C216 C213 1.363 1_565 S
C216 N214 1.356 1_565 S
C217 C211 1.363 . S
C217 C212 1.379 . S
C217 N215 1.356 . S
N218 C210 1.356 . S
N218 H224 0.984 . S
N218 H225 0.984 . S
N219 C212 1.356 1_545 S
N219 H222 0.984 . S
N219 H223 0.985 1_655 S
H220 N215 0.984 . S
H221 N215 0.985 . S
H222 N219 0.984 . S
H223 N219 0.985 1_455 S
H224 N218 0.984 . S
H225 N218 0.984 . S
H226 N214 0.984 . S
H227 N214 0.985 . S
C228 C229 1.363 . S
C228 C234 1.379 1_545 S
C228 N236 1.356 . S
C229 C228 1.363 . S
C229 C235 1.363 . S
C230 C231 1.363 1_545 S
C230 C235 1.379 . S
C230 N237 1.356 . S
C231 C230 1.363 1_565 S
C231 C234 1.363 . S
N232 C234 1.356 . S
N232 H244 0.984 . S
N232 H245 0.985 . S
N233 C235 1.356 . S
N233 H238 0.984 . S
N233 H239 0.985 . S
C234 C228 1.379 1_565 S
C234 C231 1.363 . S
C234 N232 1.356 . S
C235 C229 1.363 . S
C235 C230 1.379 . S
C235 N233 1.356 . S
N236 C228 1.356 . S
N236 H242 0.984 . S
N236 H243 0.984 . S
N237 C230 1.356 . S
N237 H240 0.984 1_545 S
N237 H241 0.985 1_655 S
H238 N233 0.984 . S
H239 N233 0.985 . S
H240 N237 0.984 1_565 S
H241 N237 0.985 1_455 S
H242 N236 0.984 . S
H243 N236 0.984 . S
H244 N232 0.984 . S
H245 N232 0.985 . S
C246 C247 1.363 . S
C246 C252 1.379 . S
C246 N254 1.356 . S
C247 C246 1.363 . S
C247 C253 1.363 . S
C248 C249 1.363 . S
C248 C253 1.379 . S
C248 N255 1.356 . S
C249 C248 1.363 . S
C249 C252 1.363 . S
N250 C252 1.356 . S
N250 H262 0.984 . S
N250 H263 0.985 . S
N251 C253 1.356 . S
N251 H256 0.984 . S
N251 H257 0.985 . S
C252 C246 1.379 . S
C252 C249 1.363 . S
C252 N250 1.356 . S
C253 C247 1.363 . S
C253 C248 1.379 . S
C253 N251 1.356 . S
N254 C246 1.356 . S
N254 H260 0.984 . S
N254 H261 0.984 . S
N255 C248 1.356 . S
N255 H258 0.984 . S
N255 H259 0.985 . S
H256 N251 0.984 . S
H257 N251 0.985 . S
H258 N255 0.984 . S
H259 N255 0.985 . S
H260 N254 0.984 . S
H261 N254 0.984 . S
H262 N250 0.984 . S
H263 N250 0.985 . S
C264 C265 1.363 . S
C264 C270 1.379 . S
C264 N272 1.356 . S
C265 C264 1.363 . S
C265 C271 1.363 . S
C266 C267 1.363 . S
C266 C271 1.379 . S
C266 N273 1.356 . S
C267 C266 1.363 . S
C267 C270 1.363 . S
N268 C270 1.356 . S
N268 H280 0.984 . S
N268 H281 0.985 . S
N269 C271 1.356 . S
N269 H274 0.984 . S
N269 H275 0.985 . S
C270 C264 1.379 . S
C270 C267 1.363 . S
C270 N268 1.356 . S
C271 C265 1.363 . S
C271 C266 1.379 . S
C271 N269 1.356 . S
N272 C264 1.356 . S
N272 H278 0.984 . S
N272 H279 0.984 . S
N273 C266 1.356 . S
N273 H276 0.984 . S
N273 H277 0.985 . S
H274 N269 0.984 . S
H275 N269 0.985 . S
H276 N273 0.984 . S
H277 N273 0.985 . S
H278 N272 0.984 . S
H279 N272 0.984 . S
H280 N268 0.984 . S
H281 N268 0.985 . S
C282 C283 1.363 . S
C282 C288 1.379 1_545 S
C282 N290 1.356 . S
C283 C282 1.363 . S
C283 C289 1.363 . S
C284 C285 1.363 1_545 S
C284 C289 1.379 . S
C284 N291 1.356 . S
C285 C284 1.363 1_565 S
C285 C288 1.363 . S
N286 C288 1.356 . S
N286 H298 0.984 . S
N286 H299 0.985 . S
N287 C289 1.356 . S
N287 H292 0.984 . S
N287 H293 0.985 . S
C288 C282 1.379 1_565 S
C288 C285 1.363 . S
C288 N286 1.356 . S
C289 C283 1.363 . S
C289 C284 1.379 . S
C289 N287 1.356 . S
N290 C282 1.356 . S
N290 H296 0.984 . S
N290 H297 0.984 . S
N291 C284 1.356 . S
N291 H294 0.984 1_545 S
N291 H295 0.985 . S
H292 N287 0.984 . S
H293 N287 0.985 . S
H294 N291 0.984 1_565 S
H295 N291 0.985 . S
H296 N290 0.984 . S
H297 N290 0.984 . S
H298 N286 0.984 . S
H299 N286 0.985 . S
C300 C301 1.363 1_554 S
C300 C306 1.379 . S
C300 N308 1.356 1_554 S
C301 C300 1.363 1_556 S
C301 C307 1.363 1_556 S
C302 C303 1.363 . S
C302 C307 1.379 . S
C302 N309 1.356 . S
C303 C302 1.363 . S
C303 C306 1.363 . S
N304 C306 1.356 . S
N304 H316 0.984 . S
N304 H317 0.985 . S
N305 C307 1.356 . S
N305 H310 0.984 1_554 S
N305 H311 0.985 . S
C306 C300 1.379 . S
C306 C303 1.363 . S
C306 N304 1.356 . S
C307 C301 1.363 1_554 S
C307 C302 1.379 . S
C307 N305 1.356 . S
N308 C300 1.356 1_556 S
N308 H314 0.984 . S
N308 H315 0.984 . S
N309 C302 1.356 . S
N309 H312 0.984 . S
N309 H313 0.985 . S
H310 N305 0.984 1_556 S
H311 N305 0.985 . S
H312 N309 0.984 . S
H313 N309 0.985 . S
H314 N308 0.984 . S
H315 N308 0.984 . S
H316 N304 0.984 . S
H317 N304 0.985 . S
C318 C319 1.363 . S
C318 C324 1.379 . S
C318 N326 1.356 . S
C319 C318 1.363 . S
C319 C325 1.363 . S
C320 C321 1.363 . S
C320 C325 1.379 . S
C320 N327 1.356 . S
C321 C320 1.363 . S
C321 C324 1.363 . S
N322 C324 1.356 . S
N322 H334 0.984 . S
N322 H335 0.985 . S
N323 C325 1.356 . S
N323 H328 0.984 . S
N323 H329 0.985 . S
C324 C318 1.379 . S
C324 C321 1.363 . S
C324 N322 1.356 . S
C325 C319 1.363 . S
C325 C320 1.379 . S
C325 N323 1.356 . S
N326 C318 1.356 . S
N326 H332 0.984 . S
N326 H333 0.984 . S
N327 C320 1.356 . S
N327 H330 0.984 . S
N327 H331 0.985 . S
H328 N323 0.984 . S
H329 N323 0.985 . S
H330 N327 0.984 . S
H331 N327 0.985 . S
H332 N326 0.984 . S
H333 N326 0.984 . S
H334 N322 0.984 . S
H335 N322 0.985 . S
C336 C337 1.363 1_556 S
C336 C342 1.379 . S
C336 N344 1.356 1_556 S
C337 C336 1.363 1_554 S
C337 C343 1.363 1_554 S
C338 C339 1.363 . S
C338 C343 1.379 . S
C338 N345 1.356 . S
C339 C338 1.363 . S
C339 C342 1.363 . S
N340 C342 1.356 . S
N340 H352 0.984 . S
N340 H353 0.985 . S
N341 C343 1.356 1_554 S
N341 H346 0.984 . S
N341 H347 0.985 1_554 S
C342 C336 1.379 . S
C342 C339 1.363 . S
C342 N340 1.356 . S
C343 C337 1.363 1_556 S
C343 C338 1.379 . S
C343 N341 1.356 1_556 S
N344 C336 1.356 1_554 S
N344 H350 0.984 . S
N344 H351 0.984 . S
N345 C338 1.356 . S
N345 H348 0.984 . S
N345 H349 0.985 . S
H346 N341 0.984 . S
H347 N341 0.985 1_556 S
H348 N345 0.984 . S
H349 N345 0.985 . S
H350 N344 0.984 . S
H351 N344 0.984 . S
H352 N340 0.984 . S
H353 N340 0.985 . S
C354 C355 1.363 . S
C354 C360 1.379 . S
C354 N362 1.356 . S
C355 C354 1.363 . S
C355 C361 1.363 . S
C356 C357 1.363 . S
C356 C361 1.379 . S
C356 N363 1.356 . S
C357 C356 1.363 . S
C357 C360 1.363 . S
N358 C360 1.356 . S
N358 H370 0.984 . S
N358 H371 0.985 . S
N359 C361 1.356 . S
N359 H364 0.984 . S
N359 H365 0.985 . S
C360 C354 1.379 . S
C360 C357 1.363 . S
C360 N358 1.356 . S
C361 C355 1.363 . S
C361 C356 1.379 . S
C361 N359 1.356 . S
N362 C354 1.356 . S
N362 H368 0.984 . S
N362 H369 0.984 . S
N363 C356 1.356 . S
N363 H366 0.984 . S
N363 H367 0.985 . S
H364 N359 0.984 . S
H365 N359 0.985 . S
H366 N363 0.984 . S
H367 N363 0.985 . S
H368 N362 0.984 . S
H369 N362 0.984 . S
H370 N358 0.984 . S
H371 N358 0.985 . S
C372 C373 1.363 1_556 S
C372 C378 1.379 . S
C372 N380 1.356 . S
C373 C372 1.363 1_554 S
C373 C379 1.363 1_554 S
C374 C375 1.363 . S
C374 C379 1.379 . S
C374 N381 1.356 . S
C375 C374 1.363 . S
C375 C378 1.363 . S
N376 C378 1.356 . S
N376 H388 0.984 . S
N376 H389 0.985 . S
N377 C379 1.356 1_554 S
N377 H382 0.984 . S
N377 H383 0.985 . S
C378 C372 1.379 . S
C378 C375 1.363 . S
C378 N376 1.356 . S
C379 C373 1.363 1_556 S
C379 C374 1.379 . S
C379 N377 1.356 1_556 S
N380 C372 1.356 . S
N380 H386 0.984 . S
N380 H387 0.984 1_556 S
N381 C374 1.356 . S
N381 H384 0.984 . S
N381 H385 0.985 . S
H382 N377 0.984 . S
H383 N377 0.985 . S
H384 N381 0.984 . S
H385 N381 0.985 . S
H386 N380 0.984 . S
H387 N380 0.984 1_554 S
H388 N376 0.984 . S
H389 N376 0.985 . S
C390 C391 1.363 . S
C390 C396 1.379 . S
C390 N398 1.356 . S
C391 C390 1.363 . S
C391 C397 1.363 . S
C392 C393 1.363 . S
C392 C397 1.379 . S
C392 N399 1.356 . S
C393 C392 1.363 . S
C393 C396 1.363 . S
N394 C396 1.356 . S
N394 H406 0.984 . S
N394 H407 0.985 . S
N395 C397 1.356 . S
N395 H400 0.984 . S
N395 H401 0.985 . S
C396 C390 1.379 . S
C396 C393 1.363 . S
C396 N394 1.356 . S
C397 C391 1.363 . S
C397 C392 1.379 . S
C397 N395 1.356 . S
N398 C390 1.356 . S
N398 H404 0.984 . S
N398 H405 0.984 . S
N399 C392 1.356 . S
N399 H402 0.984 . S
N399 H403 0.985 . S
H400 N395 0.984 . S
H401 N395 0.985 . S
H402 N399 0.984 . S
H403 N399 0.985 . S
H404 N398 0.984 . S
H405 N398 0.984 . S
H406 N394 0.984 . S
H407 N394 0.985 . S
C408 C409 1.363 1_554 S
C408 C414 1.379 . S
C408 N416 1.356 1_554 S
C409 C408 1.363 1_556 S
C409 C415 1.363 1_556 S
C410 C411 1.363 . S
C410 C415 1.379 . S
C410 N417 1.356 . S
C411 C410 1.363 . S
C411 C414 1.363 . S
N412 C414 1.356 . S
N412 H424 0.984 . S
N412 H425 0.985 . S
N413 C415 1.356 . S
N413 H418 0.984 1_554 S
N413 H419 0.985 . S
C414 C408 1.379 . S
C414 C411 1.363 . S
C414 N412 1.356 . S
C415 C409 1.363 1_554 S
C415 C410 1.379 . S
C415 N413 1.356 . S
N416 C408 1.356 1_556 S
N416 H422 0.984 . S
N416 H423 0.984 . S
N417 C410 1.356 . S
N417 H420 0.984 . S
N417 H421 0.985 . S
H418 N413 0.984 1_556 S
H419 N413 0.985 . S
H420 N417 0.984 . S
H421 N417 0.985 . S
H422 N416 0.984 . S
H423 N416 0.984 . S
H424 N412 0.984 . S
H425 N412 0.985 . S
C426 C427 1.363 . S
C426 C432 1.379 . S
C426 N434 1.356 . S
C427 C426 1.363 . S
C427 C433 1.363 . S
C428 C429 1.363 . S
C428 C433 1.379 . S
C428 N435 1.356 . S
C429 C428 1.363 . S
C429 C432 1.363 . S
N430 C432 1.356 . S
N430 H442 0.984 . S
N430 H443 0.985 . S
N431 C433 1.356 . S
N431 H436 0.984 . S
N431 H437 0.985 . S
C432 C426 1.379 . S
C432 C429 1.363 . S
C432 N430 1.356 . S
C433 C427 1.363 . S
C433 C428 1.379 . S
C433 N431 1.356 . S
N434 C426 1.356 . S
N434 H440 0.984 . S
N434 H441 0.984 . S
N435 C428 1.356 . S
N435 H438 0.984 . S
N435 H439 0.985 . S
H436 N431 0.984 . S
H437 N431 0.985 . S
H438 N435 0.984 . S
H439 N435 0.985 . S
H440 N434 0.984 . S
H441 N434 0.984 . S
H442 N430 0.984 . S
H443 N430 0.985 . S
C444 C445 1.363 . S
C444 C450 1.379 . S
C444 N452 1.356 . S
C445 C444 1.363 . S
C445 C451 1.363 . S
C446 C447 1.363 . S
C446 C451 1.379 . S
C446 N453 1.356 . S
C447 C446 1.363 . S
C447 C450 1.363 . S
N448 C450 1.356 . S
N448 H460 0.984 . S
N448 H461 0.985 . S
N449 C451 1.356 . S
N449 H454 0.984 . S
N449 H455 0.985 . S
C450 C444 1.379 . S
C450 C447 1.363 . S
C450 N448 1.356 . S
C451 C445 1.363 . S
C451 C446 1.379 . S
C451 N449 1.356 . S
N452 C444 1.356 . S
N452 H458 0.984 . S
N452 H459 0.984 . S
N453 C446 1.356 . S
N453 H456 0.984 . S
N453 H457 0.985 . S
H454 N449 0.984 . S
H455 N449 0.985 . S
H456 N453 0.984 . S
H457 N453 0.985 . S
H458 N452 0.984 . S
H459 N452 0.984 . S
H460 N448 0.984 . S
H461 N448 0.985 . S
C462 C463 1.363 . S
C462 C468 1.379 . S
C462 N470 1.356 . S
C463 C462 1.363 . S
C463 C469 1.363 . S
C464 C465 1.363 . S
C464 C469 1.379 . S
C464 N471 1.356 . S
C465 C464 1.363 . S
C465 C468 1.363 . S
N466 C468 1.356 . S
N466 H478 0.984 . S
N466 H479 0.985 . S
N467 C469 1.356 . S
N467 H472 0.984 . S
N467 H473 0.985 . S
C468 C462 1.379 . S
C468 C465 1.363 . S
C468 N466 1.356 . S
C469 C463 1.363 . S
C469 C464 1.379 . S
C469 N467 1.356 . S
N470 C462 1.356 . S
N470 H476 0.984 . S
N470 H477 0.984 . S
N471 C464 1.356 . S
N471 H474 0.984 . S
N471 H475 0.985 . S
H472 N467 0.984 . S
H473 N467 0.985 . S
H474 N471 0.984 . S
H475 N471 0.985 . S
H476 N470 0.984 . S
H477 N470 0.984 . S
H478 N466 0.984 . S
H479 N466 0.985 . S
C480 C481 1.363 . S
C480 C486 1.379 . S
C480 N488 1.356 . S
C481 C480 1.363 . S
C481 C487 1.363 . S
C482 C483 1.363 . S
C482 C487 1.379 . S
C482 N489 1.356 . S
C483 C482 1.363 . S
C483 C486 1.363 . S
N484 C486 1.356 . S
N484 H496 0.984 . S
N484 H497 0.985 . S
N485 C487 1.356 . S
N485 H490 0.984 . S
N485 H491 0.985 . S
C486 C480 1.379 . S
C486 C483 1.363 . S
C486 N484 1.356 . S
C487 C481 1.363 . S
C487 C482 1.379 . S
C487 N485 1.356 . S
N488 C480 1.356 . S
N488 H494 0.984 . S
N488 H495 0.984 . S
N489 C482 1.356 . S
N489 H492 0.984 . S
N489 H493 0.985 . S
H490 N485 0.984 . S
H491 N485 0.985 . S
H492 N489 0.984 . S
H493 N489 0.985 . S
H494 N488 0.984 . S
H495 N488 0.984 . S
H496 N484 0.984 . S
H497 N484 0.985 . S
C498 C499 1.363 . S
C498 C504 1.379 . S
C498 N506 1.356 . S
C499 C498 1.363 . S
C499 C505 1.363 . S
C500 C501 1.363 . S
C500 C505 1.379 . S
C500 N507 1.356 . S
C501 C500 1.363 . S
C501 C504 1.363 . S
N502 C504 1.356 . S
N502 H514 0.984 . S
N502 H515 0.985 . S
N503 C505 1.356 . S
N503 H508 0.984 . S
N503 H509 0.985 . S
C504 C498 1.379 . S
C504 C501 1.363 . S
C504 N502 1.356 . S
C505 C499 1.363 . S
C505 C500 1.379 . S
C505 N503 1.356 . S
N506 C498 1.356 . S
N506 H512 0.984 . S
N506 H513 0.984 . S
N507 C500 1.356 . S
N507 H510 0.984 . S
N507 H511 0.985 . S
H508 N503 0.984 . S
H509 N503 0.985 . S
H510 N507 0.984 . S
H511 N507 0.985 . S
H512 N506 0.984 . S
H513 N506 0.984 . S
H514 N502 0.984 . S
H515 N502 0.985 . S
C516 C517 1.363 . S
C516 C522 1.379 . S
C516 N524 1.356 . S
C517 C516 1.363 . S
C517 C523 1.363 . S
C518 C519 1.363 . S
C518 C523 1.379 . S
C518 N525 1.356 . S
C519 C518 1.363 . S
C519 C522 1.363 . S
N520 C522 1.356 . S
N520 H532 0.984 . S
N520 H533 0.985 . S
N521 C523 1.356 . S
N521 H526 0.984 . S
N521 H527 0.985 . S
C522 C516 1.379 . S
C522 C519 1.363 . S
C522 N520 1.356 . S
C523 C517 1.363 . S
C523 C518 1.379 . S
C523 N521 1.356 . S
N524 C516 1.356 . S
N524 H530 0.984 . S
N524 H531 0.984 . S
N525 C518 1.356 . S
N525 H528 0.984 . S
N525 H529 0.985 . S
H526 N521 0.984 . S
H527 N521 0.985 . S
H528 N525 0.984 . S
H529 N525 0.985 . S
H530 N524 0.984 . S
H531 N524 0.984 . S
H532 N520 0.984 . S
H533 N520 0.985 . S
C534 C535 1.363 . S
C534 C540 1.379 . S
C534 N542 1.356 . S
C535 C534 1.363 . S
C535 C541 1.363 . S
C536 C537 1.363 . S
C536 C541 1.379 . S
C536 N543 1.356 . S
C537 C536 1.363 . S
C537 C540 1.363 . S
N538 C540 1.356 . S
N538 H550 0.984 . S
N538 H551 0.985 . S
N539 C541 1.356 . S
N539 H544 0.984 . S
N539 H545 0.985 . S
C540 C534 1.379 . S
C540 C537 1.363 . S
C540 N538 1.356 . S
C541 C535 1.363 . S
C541 C536 1.379 . S
C541 N539 1.356 . S
N542 C534 1.356 . S
N542 H548 0.984 . S
N542 H549 0.984 . S
N543 C536 1.356 . S
N543 H546 0.984 . S
N543 H547 0.985 . S
H544 N539 0.984 . S
H545 N539 0.985 . S
H546 N543 0.984 . S
H547 N543 0.985 . S
H548 N542 0.984 . S
H549 N542 0.984 . S
H550 N538 0.984 . S
H551 N538 0.985 . S
C552 C553 1.363 . S
C552 C558 1.379 . S
C552 N560 1.356 . S
C553 C552 1.363 . S
C553 C559 1.363 . S
C554 C555 1.363 . S
C554 C559 1.379 . S
C554 N561 1.356 . S
C555 C554 1.363 . S
C555 C558 1.363 . S
N556 C558 1.356 . S
N556 H568 0.984 . S
N556 H569 0.985 . S
N557 C559 1.356 . S
N557 H562 0.984 . S
N557 H563 0.985 . S
C558 C552 1.379 . S
C558 C555 1.363 . S
C558 N556 1.356 . S
C559 C553 1.363 . S
C559 C554 1.379 . S
C559 N557 1.356 . S
N560 C552 1.356 . S
N560 H566 0.984 . S
N560 H567 0.984 . S
N561 C554 1.356 . S
N561 H564 0.984 . S
N561 H565 0.985 . S
H562 N557 0.984 . S
H563 N557 0.985 . S
H564 N561 0.984 . S
H565 N561 0.985 . S
H566 N560 0.984 . S
H567 N560 0.984 . S
H568 N556 0.984 . S
H569 N556 0.985 . S
C570 C571 1.363 . S
C570 C576 1.379 . S
C570 N578 1.356 . S
C571 C570 1.363 . S
C571 C577 1.363 . S
C572 C573 1.363 . S
C572 C577 1.379 . S
C572 N579 1.356 . S
C573 C572 1.363 . S
C573 C576 1.363 . S
N574 C576 1.356 . S
N574 H586 0.984 . S
N574 H587 0.985 . S
N575 C577 1.356 . S
N575 H580 0.984 . S
N575 H581 0.985 . S
C576 C570 1.379 . S
C576 C573 1.363 . S
C576 N574 1.356 . S
C577 C571 1.363 . S
C577 C572 1.379 . S
C577 N575 1.356 . S
N578 C570 1.356 . S
N578 H584 0.984 . S
N578 H585 0.984 . S
N579 C572 1.356 . S
N579 H582 0.984 . S
N579 H583 0.985 . S
H580 N575 0.984 . S
H581 N575 0.985 . S
H582 N579 0.984 . S
H583 N579 0.985 . S
H584 N578 0.984 . S
H585 N578 0.984 . S
H586 N574 0.984 . S
H587 N574 0.985 . S
C157 C58 1.423 . S
C159 C88 1.369 . S
C177 C96 1.373 . S
C175 C68 1.428 . S
C195 C100 1.359 . S
C193 C40 1.420 . S
C211 C50 1.425 . S
C213 C76 1.363 . S
C231 C117 1.372 . S
C229 C23 1.425 . S
C249 C151 1.372 . S
C247 C32 1.425 . S
C265 C5 1.422 . S
C267 C139 1.362 . S
C283 C14 1.422 . S
C285 C121 1.362 . S
C303 C75 1.292 . S
C301 C13 1.478 . S
C321 C109 1.292 . S
C319 C4 1.478 . S
C339 C113 1.294 . S
C337 C31 1.483 . S
C357 C91 1.295 . S
C355 C22 1.483 . S
C375 C130 1.293 . S
C373 C49 1.480 . S
C391 C41 1.479 . S
C393 C138 1.294 . S
C411 C154 1.295 . S
C409 C67 1.485 . S
C427 C59 1.485 . S
C429 C134 1.297 . S
C447 C79 1.302 . S
C445 C7 1.510 . S
C465 C97 1.301 . S
C463 C16 1.509 . S
C481 C25 1.503 . S
C483 C112 1.305 . S
C501 C92 1.304 . S
C499 C34 1.502 . S
C519 C118 1.302 . S
C517 C43 1.511 . S
C535 C52 1.512 . S
C537 C142 1.303 . S
C553 C61 1.504 . S
C555 C155 1.304 . S
C571 C70 1.505 . S
C573 C133 1.305 . S
