# Generated by pormake.
# Topology rtl, (3,6)-cn, num edge types: 1
# Building blocks:
#     Node 0, Type 0, BuildingBlock: PAMTOO_clean_linker_0, # of connection points: 3
#     Node 1, Type 0, BuildingBlock: PAMTOO_clean_linker_0, # of connection points: 3
#     Node 2, Type 0, BuildingBlock: PAMTOO_clean_linker_0, # of connection points: 3
#     Node 3, Type 0, BuildingBlock: PAMTOO_clean_linker_0, # of connection points: 3
#     Node 4, Type 1, BuildingBlock: LEVNOQ01_clean_sbu_1, # of connection points: 6
#     Node 5, Type 1, BuildingBlock: LEVNOQ01_clean_sbu_1, # of connection points: 6
#     Edge 6, Type (0, 1), BuildingBlock: TEMPAE_clean_linker_10, # of connection points: 2
#     Edge 7, Type (0, 1), BuildingBlock: TEMPAE_clean_linker_10, # of connection points: 2
#     Edge 8, Type (0, 1), BuildingBlock: TEMPAE_clean_linker_10, # of connection points: 2
#     Edge 9, Type (0, 1), BuildingBlock: TEMPAE_clean_linker_10, # of connection points: 2
#     Edge 10, Type (0, 1), BuildingBlock: TEMPAE_clean_linker_10, # of connection points: 2
#     Edge 11, Type (0, 1), BuildingBlock: TEMPAE_clean_linker_10, # of connection points: 2
#     Edge 12, Type (0, 1), BuildingBlock: TEMPAE_clean_linker_10, # of connection points: 2
#     Edge 13, Type (0, 1), BuildingBlock: TEMPAE_clean_linker_10, # of connection points: 2
#     Edge 14, Type (0, 1), BuildingBlock: TEMPAE_clean_linker_10, # of connection points: 2
#     Edge 15, Type (0, 1), BuildingBlock: TEMPAE_clean_linker_10, # of connection points: 2
#     Edge 16, Type (0, 1), BuildingBlock: TEMPAE_clean_linker_10, # of connection points: 2
#     Edge 17, Type (0, 1), BuildingBlock: TEMPAE_clean_linker_10, # of connection points: 2
# Relax obj value: 0.020
# Max RMSD: 0.115
# Mean RMSD: 0.090
data_MOF--net-rtl--node1-LEVNOQ01_clean_sbu_1--node2-PAMTOO_clean_linker_0--edge1-TEMPAE_clean_linker_10
_symmetry_space_group_name_H-M    P1
_symmetry_Int_Tables_number       1
_symmetry_cell_setting            triclinic
loop_
_symmetry_equiv_pos_as_xyz
'x, y, z'
_cell_length_a     35.848348
_cell_length_b     35.930689
_cell_length_c     22.584445
_cell_angle_alpha  91.959479
_cell_angle_beta   98.619426
_cell_angle_gamma 90.391871
loop_
_atom_site_label
_atom_site_type_symbol
_atom_site_fract_x
_atom_site_fract_y
_atom_site_fract_z
_atom_type_partial_charge
H0 H 0.16099 0.91136 0.07715 0.0
H1 H 0.24295 0.84748 0.18905 0.0
H2 H 0.22722 0.82933 0.99802 0.0
H3 H 0.22809 0.76379 0.09095 0.0
C4 C 0.25554 0.77322 0.11724 0.0
O5 O 0.26439 0.80855 0.10081 0.0
H6 H 0.25248 0.77393 0.16553 0.0
C7 C 0.18238 0.89003 0.0821 0.0
C8 C 0.19173 0.87145 0.03069 0.0
C9 C 0.20047 0.8817 0.13963 0.0
C10 C 0.22905 0.85491 0.14516 0.0
C11 C 0.23837 0.83581 0.09431 0.0
C12 C 0.21994 0.84427 0.0371 0.0
H13 H 0.62549 0.66693 0.55127 0.0
H14 H 0.69014 0.75454 0.48725 0.0
H15 H 0.69665 0.73936 0.67621 0.0
H16 H 0.70412 0.81688 0.65249 0.0
C17 C 0.7126 0.81476 0.6071 0.0
O18 O 0.7215 0.77836 0.59418 0.0
H19 H 0.68839 0.82391 0.5742 0.0
C20 C 0.64541 0.69003 0.55985 0.0
C21 C 0.65982 0.70062 0.61933 0.0
C22 C 0.65599 0.70911 0.5115 0.0
C23 C 0.68088 0.73982 0.52363 0.0
C24 C 0.69539 0.75069 0.58298 0.0
C25 C 0.6848 0.73115 0.63061 0.0
H26 H 0.85482 0.12128 0.00531 0.0
H27 H 0.77265 0.18734 0.8978 0.0
H28 H 0.78098 0.19293 0.08953 0.0
H29 H 0.70001 0.19127 0.01091 0.0
C30 C 0.70792 0.20998 0.9764 0.0
O31 O 0.74599 0.21839 0.98853 0.0
H32 H 0.70138 0.19514 0.93195 0.0
C33 C 0.83223 0.14137 0.00174 0.0
C34 C 0.82053 0.1561 0.05428 0.0
C35 C 0.81514 0.15211 0.94487 0.0
C36 C 0.78551 0.17773 0.941 0.0
C37 C 0.77294 0.19204 0.99297 0.0
C38 C 0.79022 0.18101 0.04954 0.0
H39 H 0.40048 0.37011 0.50724 0.0
H40 H 0.32602 0.28807 0.56343 0.0
H41 H 0.33264 0.29868 0.37643 0.0
H42 H 0.26073 0.27195 0.38168 0.0
C43 C 0.26327 0.27053 0.43119 0.0
O44 O 0.30027 0.26279 0.45431 0.0
H45 H 0.25525 0.29814 0.44917 0.0
C46 C 0.37953 0.34804 0.49662 0.0
C47 C 0.3678 0.33717 0.4364 0.0
C48 C 0.36503 0.33049 0.54317 0.0
C49 C 0.33827 0.30148 0.52852 0.0
C50 C 0.32675 0.29001 0.46843 0.0
C51 C 0.34208 0.3074 0.42269 0.0
O52 O 0.9799 0.10047 0.61873 0.0
Mg53 Mg 0.03055 0.07185 0.62141 0.0
O54 O 0.96464 0.04197 0.60108 0.0
Mg55 Mg 0.01107 0.01894 0.54365 0.0
O56 O 0.05581 0.06986 0.54553 0.0
O57 O 0.07201 0.10961 0.62449 0.0
O58 O 0.05724 0.99647 0.48577 0.0
O59 O 0.9764 0.04642 0.46078 0.0
Mg60 Mg 0.99227 0.96251 0.46748 0.0
O61 O 0.9668 0.96829 0.54224 0.0
O62 O 0.0449 0.93713 0.47374 0.0
O63 O 0.97264 0.99848 0.39684 0.0
O64 O 0.95384 0.9223 0.47193 0.0
C65 C 0.05486 0.00211 0.679 0.0
C66 C 0.95602 0.07462 0.61799 0.0
C67 C 0.07661 0.09743 0.57183 0.0
C68 C 0.06737 0.96385 0.47148 0.0
C69 C 0.96626 0.03248 0.40803 0.0
C70 C 0.94792 0.93822 0.52161 0.0
O71 O 0.04836 0.03569 0.69218 0.0
O72 O 0.04549 0.98983 0.6252 0.0
O73 O 0.59705 0.55535 0.11171 0.0
Mg74 Mg 0.56866 0.5037 0.10367 0.0
O75 O 0.53688 0.56492 0.10251 0.0
Mg76 Mg 0.51306 0.51849 0.02678 0.0
O77 O 0.56253 0.47307 0.02496 0.0
O78 O 0.60888 0.4654 0.10227 0.0
O79 O 0.48787 0.4717 0.95166 0.0
O80 O 0.54335 0.55131 0.96031 0.0
Mg81 Mg 0.46081 0.53499 0.94819 0.0
O82 O 0.46336 0.56392 0.02848 0.0
O83 O 0.42848 0.48598 0.93661 0.0
O84 O 0.497 0.54831 0.88541 0.0
O85 O 0.42514 0.57768 0.94386 0.0
C86 C 0.49886 0.47904 0.14827 0.0
C87 C 0.57051 0.57625 0.12126 0.0
C88 C 0.59271 0.45586 0.04907 0.0
C89 C 0.45378 0.46271 0.93066 0.0
C90 C 0.5308 0.55713 0.90574 0.0
C91 C 0.43702 0.58431 -0.00013 0.0
O92 O 0.53318 0.48744 0.16657 0.0
O93 O 0.48451 0.48582 0.0947 0.0
C94 C 0.20066 0.25079 0.45821 0.0
C95 C 0.23645 0.24073 0.44576 0.0
C96 C 0.1748 0.22388 0.4711 0.0
C97 C 0.18484 0.18581 0.47129 0.0
C98 C 0.22029 0.17526 0.45598 0.0
C99 C 0.24559 0.20286 0.44289 0.0
C100 C 0.1372 0.23637 0.48668 0.0
C101 C 0.23201 0.135 0.4555 0.0
C102 C 0.13728 0.13222 0.5808 0.0
C103 C 0.10662 0.11515 0.54361 0.0
C104 C 0.16407 0.15342 0.55725 0.0
C105 C 0.16006 0.15812 0.49472 0.0
C106 C 0.13036 0.13926 0.45638 0.0
C107 C 0.10399 0.11771 0.48135 0.0
C108 C 0.19558 0.1724 0.59982 0.0
C109 C 0.12519 0.14348 0.38945 0.0
H110 H 0.19306 0.27994 0.45863 0.0
H111 H 0.27278 0.19489 0.43134 0.0
H112 H 0.1139 0.22017 0.45939 0.0
H113 H 0.1359 0.23109 0.53446 0.0
H114 H 0.13238 0.26648 0.47935 0.0
H115 H 0.25859 0.13096 0.43648 0.0
H116 H 0.23626 0.12504 0.50197 0.0
H117 H 0.20948 0.11736 0.42918 0.0
H118 H 0.1399 0.12975 0.62897 0.0
H119 H 0.08041 0.10444 0.45246 0.0
H120 H 0.19149 0.20299 0.59986 0.0
H121 H 0.2232 0.1668 0.585 0.0
H122 H 0.19675 0.16312 0.64647 0.0
H123 H 0.1144 0.17171 0.37874 0.0
H124 H 0.10486 0.1226 0.3654 0.0
H125 H 0.15252 0.1407 0.37238 0.0
C126 C 0.27713 0.7119 0.07749 0.0
C127 C 0.28632 0.74623 0.10761 0.0
C128 C 0.30522 0.68618 0.06866 0.0
C129 C 0.34352 0.69495 0.09057 0.0
C130 C 0.35286 0.72907 0.12285 0.0
C131 C 0.32407 0.75425 0.13128 0.0
C132 C 0.29396 0.65006 0.03425 0.0
C133 C 0.39329 0.73943 0.14686 0.0
C134 C 0.40978 0.61263 0.08702 0.0
C135 C 0.41971 0.61553 0.0297 0.0
C136 C 0.38653 0.63953 0.10942 0.0
C137 C 0.3736 0.67 0.07381 0.0
C138 C 0.38623 0.67436 0.01803 0.0
C139 C 0.40884 0.64697 0.99655 0.0
C140 C 0.37372 0.63392 0.16917 0.0
C141 C 0.3738 0.70667 0.97898 0.0
H142 H 0.24789 0.70529 0.06025 0.0
H143 H 0.33106 0.78047 0.15574 0.0
H144 H 0.30545 0.64951 0.99125 0.0
H145 H 0.30606 0.62611 0.06002 0.0
H146 H 0.26285 0.64622 0.02425 0.0
H147 H 0.39554 0.76524 0.17575 0.0
H148 H 0.40722 0.71647 0.17307 0.0
H149 H 0.40909 0.74382 0.10897 0.0
H150 H 0.41811 0.58827 0.1126 0.0
H151 H 0.41695 0.64946 0.95245 0.0
H152 H 0.34376 0.6246 0.16177 0.0
H153 H 0.37546 0.66045 0.1961 0.0
H154 H 0.39075 0.61265 0.19531 0.0
H155 H 0.34326 0.70367 0.96154 0.0
H156 H 0.38947 0.70824 0.94025 0.0
H157 H 0.37787 0.73336 0.00542 0.0
C158 C 0.75045 0.85841 0.55355 0.0
C159 C 0.7467 0.83923 0.6053 0.0
C160 C 0.78367 0.87829 0.54892 0.0
C161 C 0.81412 0.87853 0.59691 0.0
C162 C 0.80995 0.86022 0.65012 0.0
C163 C 0.7763 0.84061 0.65356 0.0
C164 C 0.78689 0.89739 0.49134 0.0
C165 C 0.84172 0.85961 0.7021 0.0
C166 C 0.90872 0.8846 0.5428 0.0
C167 C 0.91775 0.92259 0.55174 0.0
C168 C 0.87616 0.86965 0.56054 0.0
C169 C 0.85166 0.89333 0.58755 0.0
C170 C 0.86172 0.93138 0.59999 0.0
C171 C 0.89495 0.94557 0.58228 0.0
C172 C 0.86686 0.82887 0.5469 0.0
C173 C 0.83647 0.95739 0.62918 0.0
H174 H 0.72769 0.85703 0.51602 0.0
H175 H 0.77348 0.82542 0.69334 0.0
H176 H 0.79738 0.92642 0.50101 0.0
H177 H 0.8076 0.88255 0.46749 0.0
H178 H 0.75949 0.89797 0.46099 0.0
H179 H 0.83234 0.84865 0.74292 0.0
H180 H 0.86465 0.84169 0.68978 0.0
H181 H 0.85381 0.88797 0.71276 0.0
H182 H 0.92653 0.86666 0.51975 0.0
H183 H 0.90183 0.97498 0.58907 0.0
H184 H 0.84155 0.82605 0.51206 0.0
H185 H 0.86012 0.81528 0.58744 0.0
H186 H 0.8904 0.81365 0.53051 0.0
H187 H 0.80809 0.9579 0.60174 0.0
H188 H 0.84798 0.98629 0.63489 0.0
H189 H 0.83275 0.94723 0.67378 0.0
C190 C 0.68608 0.26994 0.92819 0.0
C191 C 0.68579 0.24557 0.9753 0.0
C192 C 0.66801 0.30455 0.92868 0.0
C193 C 0.64938 0.31502 0.97764 0.0
C194 C 0.64789 0.28982 0.02422 0.0
C195 C 0.66631 0.25552 0.02266 0.0
C196 C 0.67036 0.33058 0.87828 0.0
C197 C 0.6283 0.2998 0.07722 0.0
C198 C 0.64621 0.41494 0.03443 0.0
C199 C 0.60796 0.42343 0.01886 0.0
C200 C 0.66047 0.38063 0.01768 0.0
C201 C 0.63582 0.35385 0.98476 0.0
C202 C 0.59772 0.36329 0.96489 0.0
C203 C 0.58419 0.39818 0.98208 0.0
C204 C 0.70142 0.37214 0.03901 0.0
C205 C 0.5706 0.33572 0.92914 0.0
H206 H 0.70129 0.26223 0.89167 0.0
H207 H 0.66616 0.23675 0.0592 0.0
H208 H 0.64219 0.34207 0.86196 0.0
H209 H 0.68931 0.35443 0.89493 0.0
H210 H 0.68143 0.31654 0.84002 0.0
H211 H 0.6266 0.27589 0.10667 0.0
H212 H 0.64387 0.32294 0.10422 0.0
H213 H 0.59931 0.30959 0.06173 0.0
H214 H 0.6648 0.43461 0.06225 0.0
H215 H 0.55457 0.40461 0.97004 0.0
H216 H 0.71501 0.36064 0.00147 0.0
H217 H 0.70327 0.35075 0.0736 0.0
H218 H 0.71764 0.3972 0.05868 0.0
H219 H 0.58394 0.32128 0.89365 0.0
H220 H 0.54441 0.34934 0.90805 0.0
H221 H 0.5627 0.31421 0.95927 0.0
C222 C 0.14889 0.90339 0.19513 0.0
C223 C 0.18761 0.8992 0.19363 0.0
C224 C 0.13568 0.91816 0.24615 0.0
C225 C 0.16176 0.92882 0.29751 0.0
C226 C 0.20095 0.92553 0.29606 0.0
C227 C 0.21344 0.91066 0.2441 0.0
C228 C 0.09359 0.92109 0.2457 0.0
C229 C 0.22956 0.93673 0.34984 0.0
C230 C 0.11338 0.98603 0.40692 0.0
C231 C 0.10017 0.95768 0.43986 0.0
C232 C 0.13676 0.97771 0.36361 0.0
C233 C 0.14718 0.94029 0.35364 0.0
C234 C 0.13737 0.91246 0.3916 0.0
C235 C 0.11389 0.92149 0.43415 0.0
C236 C 0.14707 0.00832 0.3247 0.0
C237 C 0.14833 0.87232 0.38327 0.0
H238 H 0.12868 0.89402 0.15684 0.0
H239 H 0.24342 0.90788 0.24306 0.0
H240 H 0.08461 0.90218 0.2789 0.0
H241 H 0.08625 0.94985 0.25883 0.0
H242 H 0.07723 0.91369 0.20104 0.0
H243 H 0.25887 0.9364 0.33935 0.0
H244 H 0.22354 0.965 0.36703 0.0
H245 H 0.22768 0.91726 0.38639 0.0
H246 H 0.10303 0.01413 0.41137 0.0
H247 H 0.10423 0.89959 0.46026 0.0
H248 H 0.12813 0.00654 0.28105 0.0
H249 H 0.17645 0.0053 0.31548 0.0
H250 H 0.14403 0.03634 0.34572 0.0
H251 H 0.13102 0.85996 0.34238 0.0
H252 H 0.14379 0.85547 0.42198 0.0
H253 H 0.17835 0.87032 0.37704 0.0
C254 C 0.63403 0.69784 0.71621 0.0
C255 C 0.64846 0.6794 0.66906 0.0
C256 C 0.61874 0.67769 0.75931 0.0
C257 C 0.61836 0.63823 0.75542 0.0
C258 C 0.63504 0.61957 0.70995 0.0
C259 C 0.64965 0.64039 0.66708 0.0
C260 C 0.60095 0.69863 0.80678 0.0
C261 C 0.63574 0.57758 0.70472 0.0
C262 C 0.59248 0.58458 0.88656 0.0
C263 C 0.55419 0.57635 0.86695 0.0
C264 C 0.614 0.6044 0.85061 0.0
C265 C 0.59667 0.61659 0.79417 0.0
C266 C 0.55814 0.60813 0.77411 0.0
C267 C 0.5375 0.58798 0.81049 0.0
C268 C 0.65515 0.61247 0.87306 0.0
C269 C 0.53848 0.62077 0.71436 0.0
H270 H 0.63299 0.72801 0.71767 0.0
H271 H 0.66131 0.62611 0.63106 0.0
H272 H 0.56991 0.69419 0.79817 0.0
H273 H 0.61125 0.68796 0.85173 0.0
H274 H 0.60693 0.72903 0.80751 0.0
H275 H 0.65378 0.5675 0.67172 0.0
H276 H 0.64622 0.56582 0.74883 0.0
H277 H 0.60667 0.56662 0.69035 0.0
H278 H 0.6056 0.57567 0.93009 0.0
H279 H 0.50793 0.58192 0.79493 0.0
H280 H 0.66023 0.643 0.87735 0.0
H281 H 0.67275 0.60124 0.84031 0.0
H282 H 0.66466 0.60022 0.91721 0.0
H283 H 0.54032 0.65155 0.71276 0.0
H284 H 0.50826 0.61223 0.70565 0.0
H285 H 0.55266 0.60898 0.67765 0.0
C286 C 0.88074 0.14703 0.12353 0.0
C287 C 0.84117 0.14574 0.1134 0.0
C288 C 0.90124 0.13297 0.17566 0.0
C289 C 0.88173 0.11688 0.21867 0.0
C290 C 0.84172 0.11734 0.21025 0.0
C291 C 0.82187 0.13195 0.15775 0.0
C292 C 0.94382 0.13347 0.18301 0.0
C293 C 0.81984 0.10037 0.25491 0.0
C294 C 0.93188 0.03781 0.30387 0.0
C295 C 0.94534 0.05489 0.35994 0.0
C296 C 0.91084 0.05762 0.25816 0.0
C297 C 0.90309 0.09569 0.26825 0.0
C298 C 0.91667 0.11329 0.32455 0.0
C299 C 0.93757 0.09266 0.36983 0.0
C300 C 0.89694 0.0377 0.19885 0.0
C301 C 0.90923 0.15391 0.3368 0.0
H302 H 0.89574 0.15822 0.08969 0.0
H303 H 0.79129 0.13088 0.15001 0.0
H304 H 0.95592 0.14426 0.22848 0.0
H305 H 0.95412 0.10465 0.17797 0.0
H306 H 0.95466 0.15079 0.14934 0.0
H307 H 0.78929 0.10678 0.24557 0.0
H308 H 0.82306 0.06967 0.25334 0.0
H309 H 0.83111 0.11055 0.30109 0.0
H310 H 0.93753 0.00865 0.2956 0.0
H311 H 0.94776 0.10611 0.41296 0.0
H312 H 0.9091 0.05113 0.16244 0.0
H313 H 0.8658 0.03975 0.18828 0.0
H314 H 0.90459 0.00778 0.1987 0.0
H315 H 0.92155 0.17121 0.30467 0.0
H316 H 0.92129 0.16339 0.38309 0.0
H317 H 0.87841 0.15891 0.33004 0.0
C318 C 0.38706 0.31809 0.65211 0.0
C319 C 0.37771 0.34346 0.60643 0.0
C320 C 0.40126 0.33056 0.71109 0.0
C321 C 0.40624 0.36925 0.72451 0.0
C322 C 0.39637 0.39489 0.67865 0.0
C323 C 0.38206 0.38172 0.62054 0.0
C324 C 0.41121 0.30243 0.75885 0.0
C325 C 0.40091 0.43643 0.69089 0.0
C326 C 0.40642 0.41832 0.87492 0.0
C327 C 0.44416 0.43028 0.8887 0.0
C328 C 0.39426 0.3951 0.82445 0.0
C329 C 0.42044 0.38378 0.78653 0.0
C330 C 0.45929 0.39253 0.80375 0.0
C331 C 0.47076 0.41562 0.85495 0.0
C332 C 0.35273 0.38586 0.80867 0.0
C333 C 0.48826 0.3807 0.76507 0.0
H334 H 0.38405 0.28848 0.64147 0.0
H335 H 0.37421 0.40155 0.58586 0.0
H336 H 0.44167 0.30481 0.7771 0.0
H337 H 0.39534 0.30817 0.79667 0.0
H338 H 0.40492 0.27341 0.74152 0.0
H339 H 0.39285 0.45255 0.64992 0.0
H340 H 0.38314 0.44558 0.72476 0.0
H341 H 0.43065 0.44338 0.70954 0.0
H342 H 0.3858 0.42907 0.90147 0.0
H343 H 0.50002 0.42457 0.86553 0.0
H344 H 0.34834 0.35641 0.79264 0.0
H345 H 0.34008 0.40361 0.77183 0.0
H346 H 0.33741 0.39079 0.84744 0.0
H347 H 0.48299 0.35162 0.74761 0.0
H348 H 0.51741 0.38298 0.78999 0.0
H349 H 0.48627 0.39887 0.72599 0.0
C350 C 0.64024 0.65721 0.43485 0.0
C351 C 0.64203 0.69559 0.44888 0.0
C352 C 0.62623 0.6434 0.37697 0.0
C353 C 0.61396 0.66853 0.3313 0.0
C354 C 0.61598 0.70737 0.34476 0.0
C355 C 0.63001 0.72046 0.40346 0.0
C356 C 0.62482 0.60176 0.36468 0.0
C357 C 0.60332 0.73498 0.29722 0.0
C358 C 0.61568 0.62203 0.17912 0.0
C359 C 0.57872 0.60781 0.16544 0.0
C360 C 0.62677 0.64486 0.23047 0.0
C361 C 0.60032 0.65349 0.2694 0.0
C362 C 0.56211 0.64212 0.25283 0.0
C363 C 0.5517 0.61951 0.20079 0.0
C364 C 0.66763 0.65683 0.24574 0.0
C365 C 0.53293 0.65088 0.29282 0.0
H366 H 0.65019 0.63779 0.46925 0.0
H367 H 0.63105 0.75014 0.414 0.0
H368 H 0.59559 0.59267 0.34647 0.0
H369 H 0.64292 0.59428 0.33041 0.0
H370 H 0.63446 0.58599 0.40552 0.0
H371 H 0.60664 0.76425 0.31487 0.0
H372 H 0.61986 0.7314 0.25969 0.0
H373 H 0.57326 0.72978 0.27847 0.0
H374 H 0.63662 0.61348 0.15153 0.0
H375 H 0.52305 0.60873 0.19046 0.0
H376 H 0.68175 0.63974 0.28239 0.0
H377 H 0.67003 0.68638 0.26187 0.0
H378 H 0.68298 0.65333 0.20671 0.0
H379 H 0.53742 0.63283 0.3321 0.0
H380 H 0.50376 0.64598 0.2691 0.0
H381 H 0.53569 0.68022 0.30996 0.0
C382 C 0.86867 0.13488 0.89035 0.0
C383 C 0.82966 0.13777 0.89016 0.0
C384 C 0.88327 0.12151 0.83968 0.0
C385 C 0.85832 0.11103 0.78693 0.0
C386 C 0.81887 0.11369 0.78626 0.0
C387 C 0.80498 0.12706 0.83796 0.0
C388 C 0.92558 0.11928 0.84237 0.0
C389 C 0.79146 0.10297 0.73077 0.0
C390 C 0.90954 0.11775 0.65359 0.0
C391 C 0.92281 0.08136 0.64837 0.0
C392 C 0.88523 0.1271 0.69476 0.0
C393 C 0.87431 0.09944 0.73211 0.0
C394 C 0.88469 0.06192 0.72295 0.0
C395 C 0.9087 0.05323 0.68071 0.0
C396 C 0.87436 0.16733 0.70226 0.0
C397 C 0.87341 0.0316 0.76161 0.0
H398 H 0.88798 0.14376 0.93002 0.0
H399 H 0.77479 0.12892 0.83765 0.0
H400 H 0.93364 0.09067 0.82967 0.0
H401 H 0.93503 0.13839 0.80985 0.0
H402 H 0.94098 0.12683 0.88766 0.0
H403 H 0.76164 0.10459 0.73859 0.0
H404 H 0.79544 0.12174 0.69417 0.0
H405 H 0.79697 0.07424 0.71502 0.0
H406 H 0.92004 0.13948 0.62803 0.0
H407 H 0.91885 0.02504 0.67676 0.0
H408 H 0.89121 0.17978 0.7435 0.0
H409 H 0.84416 0.16955 0.70738 0.0
H410 H 0.87958 0.18396 0.66368 0.0
H411 H 0.88836 0.03603 0.80805 0.0
H412 H 0.88039 0.00344 0.74492 0.0
H413 H 0.84271 0.03261 0.76361 0.0
C414 C 0.39682 0.33892 0.34205 0.0
C415 C 0.38204 0.35786 0.38843 0.0
C416 C 0.41325 0.35857 0.29956 0.0
C417 C 0.41451 0.39803 0.30332 0.0
C418 C 0.39809 0.41725 0.34852 0.0
C419 C 0.38221 0.39693 0.39064 0.0
C420 C 0.43069 0.33709 0.25225 0.0
C421 C 0.39845 0.45927 0.3537 0.0
C422 C 0.49429 0.44771 0.24409 0.0
C423 C 0.47656 0.45952 0.18833 0.0
C424 C 0.47441 0.42755 0.28157 0.0
C425 C 0.43568 0.41918 0.26325 0.0
C426 C 0.4174 0.4314 0.20743 0.0
C427 C 0.4381 0.45132 0.17047 0.0
C428 C 0.495 0.41496 0.34071 0.0
C429 C 0.37603 0.42335 0.18674 0.0
H430 H 0.39682 0.30873 0.34038 0.0
H431 H 0.37023 0.41164 0.42593 0.0
H432 H 0.41984 0.3472 0.20713 0.0
H433 H 0.4617 0.34173 0.25987 0.0
H434 H 0.4249 0.30669 0.25261 0.0
H435 H 0.38168 0.46994 0.38809 0.0
H436 H 0.42791 0.46965 0.36591 0.0
H437 H 0.38705 0.47106 0.30999 0.0
H438 H 0.52401 0.45375 0.25829 0.0
H439 H 0.42416 0.46034 0.12751 0.0
H440 H 0.49303 0.3842 0.34262 0.0
H441 H 0.48161 0.42695 0.37814 0.0
H442 H 0.52528 0.42332 0.34799 0.0
H443 H 0.37078 0.39283 0.18362 0.0
H444 H 0.3659 0.43509 0.1424 0.0
H445 H 0.35905 0.43516 0.21994 0.0
C446 C 0.13211 0.88278 0.9613 0.0
C447 C 0.17162 0.88111 0.97094 0.0
C448 C 0.11263 0.89749 0.90888 0.0
C449 C 0.13318 0.91132 0.8653 0.0
C450 C 0.17296 0.90758 0.87315 0.0
C451 C 0.19172 0.8923 0.92585 0.0
C452 C 0.07021 0.90041 0.90205 0.0
C453 C 0.19596 0.92212 0.82795 0.0
C454 C 0.07926 0.93992 0.71516 0.0
C455 C 0.07467 0.97822 0.72593 0.0
C456 C 0.09844 0.91764 0.75983 0.0
C457 C 0.11363 0.93413 0.81627 0.0
C458 C 0.10931 0.97279 0.82706 0.0
C459 C 0.08981 0.99423 0.78203 0.0
C460 C 0.10215 0.87646 0.7469 0.0
C461 C 0.12521 0.99162 0.88645 0.0
H462 H 0.11649 0.8737 0.99588 0.0
H463 H 0.22228 0.89114 0.93333 0.0
H464 H 0.06238 0.92998 0.90794 0.0
H465 H 0.05713 0.89068 0.85647 0.0
H466 H 0.05813 0.88394 0.93552 0.0
H467 H 0.2257 0.91278 0.83648 0.0
H468 H 0.18342 0.9129 0.78185 0.0
H469 H 0.19584 0.95302 0.82999 0.0
H470 H 0.06769 0.9273 0.67197 0.0
H471 H 0.08668 0.0238 0.79084 0.0
H472 H 0.08814 0.86042 0.77865 0.0
H473 H 0.13234 0.86867 0.75372 0.0
H474 H 0.08944 0.86801 0.70043 0.0
H475 H 0.11198 0.97953 0.92292 0.0
H476 H 0.12042 0.02214 0.88701 0.0
H477 H 0.156 0.98674 0.89659 0.0
loop_
_geom_bond_atom_site_label_1
_geom_bond_atom_site_label_2
_geom_bond_distance
_geom_bond_site_symmetry_2
_ccdc_geom_bond_type
H0 C7 0.929 . S
H1 C10 0.930 . S
H2 C12 0.929 1_556 S
H3 C4 0.969 . S
C4 H3 0.969 . S
C4 O5 1.550 . S
C4 H6 0.973 . S
O5 C4 1.550 . S
O5 C11 1.412 . S
H6 C4 0.973 . S
C7 H0 0.929 . S
C7 C8 1.400 . S
C7 C9 1.364 . S
C8 C7 1.400 . S
C8 C12 1.377 . S
C9 C7 1.364 . S
C9 C10 1.374 . S
C10 H1 0.930 . S
C10 C9 1.374 . S
C10 C11 1.383 . S
C11 O5 1.412 . S
C11 C10 1.383 . S
C11 C12 1.394 . S
C12 H2 0.929 1_554 S
C12 C8 1.377 . S
C12 C11 1.394 . S
H13 C20 0.929 . S
H14 C23 0.930 . S
H15 C25 0.929 . S
H16 C17 0.969 . S
C17 H16 0.969 . S
C17 O18 1.550 . S
C17 H19 0.973 . S
O18 C17 1.550 . S
O18 C24 1.412 . S
H19 C17 0.973 . S
C20 H13 0.929 . S
C20 C21 1.400 . S
C20 C22 1.364 . S
C21 C20 1.400 . S
C21 C25 1.377 . S
C22 C20 1.364 . S
C22 C23 1.374 . S
C23 H14 0.930 . S
C23 C22 1.374 . S
C23 C24 1.383 . S
C24 O18 1.412 . S
C24 C23 1.383 . S
C24 C25 1.394 . S
C25 H15 0.929 . S
C25 C21 1.377 . S
C25 C24 1.394 . S
H26 C33 0.929 . S
H27 C36 0.930 . S
H28 C38 0.929 . S
H29 C30 0.969 . S
C30 H29 0.969 . S
C30 O31 1.550 1_556 S
C30 H32 0.973 . S
O31 C30 1.550 1_554 S
O31 C37 1.412 . S
H32 C30 0.973 . S
C33 H26 0.929 . S
C33 C34 1.400 . S
C33 C35 1.364 1_554 S
C34 C33 1.400 . S
C34 C38 1.377 . S
C35 C33 1.364 1_556 S
C35 C36 1.374 . S
C36 H27 0.930 . S
C36 C35 1.374 . S
C36 C37 1.383 1_556 S
C37 O31 1.412 . S
C37 C36 1.383 1_554 S
C37 C38 1.394 . S
C38 H28 0.929 . S
C38 C34 1.377 . S
C38 C37 1.394 . S
H39 C46 0.929 . S
H40 C49 0.930 . S
H41 C51 0.929 . S
H42 C43 0.969 . S
C43 H42 0.969 . S
C43 O44 1.550 . S
C43 H45 0.973 . S
O44 C43 1.550 . S
O44 C50 1.412 . S
H45 C43 0.973 . S
C46 H39 0.929 . S
C46 C47 1.400 . S
C46 C48 1.364 . S
C47 C46 1.400 . S
C47 C51 1.377 . S
C48 C46 1.364 . S
C48 C49 1.374 . S
C49 H40 0.930 . S
C49 C48 1.374 . S
C49 C50 1.383 . S
C50 O44 1.412 . S
C50 C49 1.383 . S
C50 C51 1.394 . S
C51 H41 0.929 . S
C51 C47 1.377 . S
C51 C50 1.394 . S
O52 Mg53 1.990 . S
O52 C66 1.253 1_455 S
Mg53 O52 1.990 . S
Mg53 O56 2.180 . S
Mg53 O57 2.117 . S
Mg53 O71 2.030 . S
O54 Mg55 2.072 1_655 S
O54 C66 1.260 . S
Mg55 O54 2.072 1_455 S
Mg55 O56 2.099 . S
Mg55 O58 2.079 1_545 S
Mg55 O59 2.072 1_455 S
Mg55 O61 2.099 1_445 S
Mg55 O72 2.079 1_545 S
O56 Mg53 2.180 . S
O56 Mg55 2.099 . S
O56 C67 1.279 . S
O57 Mg53 2.117 . S
O57 C67 1.250 . S
O58 Mg55 2.079 1_565 S
O58 C68 1.264 . S
O59 Mg55 2.072 1_655 S
O59 C69 1.260 . S
Mg60 O61 2.180 . S
Mg60 O62 2.030 1_655 S
Mg60 O63 1.990 1_565 S
Mg60 O64 2.117 . S
O61 Mg55 2.099 1_665 S
O61 Mg60 2.180 . S
O61 C70 1.279 . S
O62 Mg60 2.030 1_455 S
O62 C68 1.248 . S
O63 Mg60 1.990 1_545 S
O63 C69 1.253 . S
O64 Mg60 2.117 . S
O64 C70 1.250 . S
C65 O71 1.248 1_565 S
C65 O72 1.264 . S
C66 O52 1.253 1_655 S
C66 O54 1.260 . S
C67 O56 1.279 . S
C67 O57 1.250 . S
C68 O58 1.264 . S
C68 O62 1.248 . S
C69 O59 1.260 . S
C69 O63 1.253 . S
C70 O61 1.279 . S
C70 O64 1.250 . S
O71 Mg53 2.030 . S
O71 C65 1.248 1_545 S
O72 Mg55 2.079 1_565 S
O72 C65 1.264 . S
O73 Mg74 1.990 . S
O73 C87 1.253 . S
Mg74 O73 1.990 . S
Mg74 O77 2.180 . S
Mg74 O78 2.117 . S
Mg74 O92 2.030 . S
O75 Mg76 2.072 . S
O75 C87 1.260 . S
Mg76 O75 2.072 . S
Mg76 O77 2.099 . S
Mg76 O79 2.079 1_554 S
Mg76 O80 2.072 1_554 S
Mg76 O82 2.099 . S
Mg76 O93 2.079 . S
O77 Mg74 2.180 . S
O77 Mg76 2.099 . S
O77 C88 1.279 . S
O78 Mg74 2.117 . S
O78 C88 1.250 . S
O79 Mg76 2.079 1_556 S
O79 C89 1.264 . S
O80 Mg76 2.072 1_556 S
O80 C90 1.260 . S
Mg81 O82 2.180 1_556 S
Mg81 O83 2.030 . S
Mg81 O84 1.990 . S
Mg81 O85 2.117 . S
O82 Mg76 2.099 . S
O82 Mg81 2.180 1_554 S
O82 C91 1.279 . S
O83 Mg81 2.030 . S
O83 C89 1.248 . S
O84 Mg81 1.990 . S
O84 C90 1.253 . S
O85 Mg81 2.117 . S
O85 C91 1.250 1_556 S
C86 O92 1.248 . S
C86 O93 1.264 . S
C87 O73 1.253 . S
C87 O75 1.260 . S
C88 O77 1.279 . S
C88 O78 1.250 . S
C89 O79 1.264 . S
C89 O83 1.248 . S
C90 O80 1.260 . S
C90 O84 1.253 . S
C91 O82 1.279 . S
C91 O85 1.250 1_554 S
O92 Mg74 2.030 . S
O92 C86 1.248 . S
O93 Mg76 2.079 . S
O93 C86 1.264 . S
C94 C95 1.391 . S
C94 C96 1.394 . S
C94 H110 0.931 . S
C95 C94 1.391 . S
C95 C99 1.376 . S
C96 C94 1.394 . S
C96 C97 1.369 . S
C96 C100 1.531 . S
C97 C96 1.369 . S
C97 C98 1.410 . S
C97 C105 1.503 . S
C98 C97 1.410 . S
C98 C99 1.392 . S
C98 C101 1.511 . S
C99 C95 1.376 . S
C99 C98 1.392 . S
C99 H111 0.929 . S
C100 C96 1.531 . S
C100 H112 0.960 . S
C100 H113 0.962 . S
C100 H114 0.960 . S
C101 C98 1.511 . S
C101 H115 0.961 . S
C101 H116 0.961 . S
C101 H117 0.961 . S
C102 C103 1.370 . S
C102 C104 1.363 . S
C102 H118 0.931 . S
C103 C102 1.370 . S
C103 C107 1.408 . S
C104 C102 1.363 . S
C104 C105 1.370 . S
C104 C108 1.524 . S
C105 C97 1.503 . S
C105 C104 1.370 . S
C105 C106 1.403 . S
C106 C105 1.403 . S
C106 C107 1.404 . S
C106 C109 1.539 . S
C107 C103 1.408 . S
C107 C106 1.404 . S
C107 H119 0.930 . S
C108 C104 1.524 . S
C108 H120 0.956 . S
C108 H121 0.961 . S
C108 H122 0.961 . S
C109 C106 1.539 . S
C109 H123 0.958 . S
C109 H124 0.961 . S
C109 H125 0.960 . S
H110 C94 0.931 . S
H111 C99 0.929 . S
H112 C100 0.960 . S
H113 C100 0.962 . S
H114 C100 0.960 . S
H115 C101 0.961 . S
H116 C101 0.961 . S
H117 C101 0.961 . S
H118 C102 0.931 . S
H119 C107 0.930 . S
H120 C108 0.956 . S
H121 C108 0.961 . S
H122 C108 0.961 . S
H123 C109 0.958 . S
H124 C109 0.961 . S
H125 C109 0.960 . S
C126 C127 1.391 . S
C126 C128 1.394 . S
C126 H142 0.931 . S
C127 C126 1.391 . S
C127 C131 1.376 . S
C128 C126 1.394 . S
C128 C129 1.369 . S
C128 C132 1.531 1_554 S
C129 C128 1.369 . S
C129 C130 1.410 . S
C129 C137 1.503 . S
C130 C129 1.410 . S
C130 C131 1.392 . S
C130 C133 1.511 . S
C131 C127 1.376 . S
C131 C130 1.392 . S
C131 H143 0.929 . S
C132 C128 1.531 1_556 S
C132 H144 0.960 . S
C132 H145 0.962 . S
C132 H146 0.960 . S
C133 C130 1.511 . S
C133 H147 0.961 . S
C133 H148 0.961 . S
C133 H149 0.961 . S
C134 C135 1.370 . S
C134 C136 1.363 . S
C134 H150 0.931 . S
C135 C134 1.370 . S
C135 C139 1.408 . S
C136 C134 1.363 . S
C136 C137 1.370 . S
C136 C140 1.524 . S
C137 C129 1.503 . S
C137 C136 1.370 . S
C137 C138 1.403 . S
C138 C137 1.403 . S
C138 C139 1.404 . S
C138 C141 1.539 1_554 S
C139 C135 1.408 . S
C139 C138 1.404 . S
C139 H151 0.930 . S
C140 C136 1.524 . S
C140 H152 0.956 . S
C140 H153 0.961 . S
C140 H154 0.961 . S
C141 C138 1.539 1_556 S
C141 H155 0.958 . S
C141 H156 0.961 . S
C141 H157 0.960 1_556 S
H142 C126 0.931 . S
H143 C131 0.929 . S
H144 C132 0.960 . S
H145 C132 0.962 . S
H146 C132 0.960 . S
H147 C133 0.961 . S
H148 C133 0.961 . S
H149 C133 0.961 . S
H150 C134 0.931 . S
H151 C139 0.930 . S
H152 C140 0.956 . S
H153 C140 0.961 . S
H154 C140 0.961 . S
H155 C141 0.958 . S
H156 C141 0.961 . S
H157 C141 0.960 1_554 S
C158 C159 1.391 . S
C158 C160 1.394 . S
C158 H174 0.931 . S
C159 C158 1.391 . S
C159 C163 1.376 . S
C160 C158 1.394 . S
C160 C161 1.369 . S
C160 C164 1.531 . S
C161 C160 1.369 . S
C161 C162 1.410 . S
C161 C169 1.503 . S
C162 C161 1.410 . S
C162 C163 1.392 . S
C162 C165 1.511 . S
C163 C159 1.376 . S
C163 C162 1.392 . S
C163 H175 0.929 . S
C164 C160 1.531 . S
C164 H176 0.960 . S
C164 H177 0.962 . S
C164 H178 0.960 . S
C165 C162 1.511 . S
C165 H179 0.961 . S
C165 H180 0.961 . S
C165 H181 0.961 . S
C166 C167 1.370 . S
C166 C168 1.363 . S
C166 H182 0.931 . S
C167 C166 1.370 . S
C167 C171 1.408 . S
C168 C166 1.363 . S
C168 C169 1.370 . S
C168 C172 1.524 . S
C169 C161 1.503 . S
C169 C168 1.370 . S
C169 C170 1.403 . S
C170 C169 1.403 . S
C170 C171 1.404 . S
C170 C173 1.539 . S
C171 C167 1.408 . S
C171 C170 1.404 . S
C171 H183 0.930 . S
C172 C168 1.524 . S
C172 H184 0.956 . S
C172 H185 0.961 . S
C172 H186 0.961 . S
C173 C170 1.539 . S
C173 H187 0.958 . S
C173 H188 0.961 . S
C173 H189 0.960 . S
H174 C158 0.931 . S
H175 C163 0.929 . S
H176 C164 0.960 . S
H177 C164 0.962 . S
H178 C164 0.960 . S
H179 C165 0.961 . S
H180 C165 0.961 . S
H181 C165 0.961 . S
H182 C166 0.931 . S
H183 C171 0.930 . S
H184 C172 0.956 . S
H185 C172 0.961 . S
H186 C172 0.961 . S
H187 C173 0.958 . S
H188 C173 0.961 . S
H189 C173 0.960 . S
C190 C191 1.391 . S
C190 C192 1.394 . S
C190 H206 0.931 . S
C191 C190 1.391 . S
C191 C195 1.376 1_556 S
C192 C190 1.394 . S
C192 C193 1.369 . S
C192 C196 1.531 . S
C193 C192 1.369 . S
C193 C194 1.410 1_556 S
C193 C201 1.507 . S
C194 C193 1.410 1_554 S
C194 C195 1.392 . S
C194 C197 1.511 . S
C195 C191 1.376 1_554 S
C195 C194 1.392 . S
C195 H207 0.929 . S
C196 C192 1.531 . S
C196 H208 0.960 . S
C196 H209 0.962 . S
C196 H210 0.960 . S
C197 C194 1.511 . S
C197 H211 0.961 . S
C197 H212 0.961 . S
C197 H213 0.961 . S
C198 C199 1.370 . S
C198 C200 1.363 . S
C198 H214 0.931 . S
C199 C198 1.370 . S
C199 C203 1.408 1_554 S
C200 C198 1.363 . S
C200 C201 1.357 1_554 S
C200 C204 1.524 . S
C201 C193 1.507 . S
C201 C200 1.357 1_556 S
C201 C202 1.412 . S
C202 C201 1.412 . S
C202 C203 1.404 . S
C202 C205 1.539 . S
C203 C199 1.408 1_556 S
C203 C202 1.404 . S
C203 H215 0.930 . S
C204 C200 1.524 . S
C204 H216 0.956 . S
C204 H217 0.961 . S
C204 H218 0.961 . S
C205 C202 1.539 . S
C205 H219 0.958 . S
C205 H220 0.961 . S
C205 H221 0.960 . S
H206 C190 0.931 . S
H207 C195 0.929 . S
H208 C196 0.960 . S
H209 C196 0.962 . S
H210 C196 0.960 . S
H211 C197 0.961 . S
H212 C197 0.961 . S
H213 C197 0.961 . S
H214 C198 0.931 . S
H215 C203 0.930 . S
H216 C204 0.956 . S
H217 C204 0.961 . S
H218 C204 0.961 . S
H219 C205 0.958 . S
H220 C205 0.961 . S
H221 C205 0.960 . S
C222 C223 1.391 . S
C222 C224 1.394 . S
C222 H238 0.931 . S
C223 C222 1.391 . S
C223 C227 1.376 . S
C224 C222 1.394 . S
C224 C225 1.369 . S
C224 C228 1.531 . S
C225 C224 1.369 . S
C225 C226 1.410 . S
C225 C233 1.503 . S
C226 C225 1.410 . S
C226 C227 1.392 . S
C226 C229 1.511 . S
C227 C223 1.376 . S
C227 C226 1.392 . S
C227 H239 0.929 . S
C228 C224 1.531 . S
C228 H240 0.960 . S
C228 H241 0.962 . S
C228 H242 0.960 . S
C229 C226 1.511 . S
C229 H243 0.961 . S
C229 H244 0.961 . S
C229 H245 0.961 . S
C230 C231 1.370 . S
C230 C232 1.363 . S
C230 H246 0.931 . S
C231 C230 1.370 . S
C231 C235 1.408 . S
C232 C230 1.363 . S
C232 C233 1.370 . S
C232 C236 1.524 . S
C233 C225 1.503 . S
C233 C232 1.370 . S
C233 C234 1.403 . S
C234 C233 1.403 . S
C234 C235 1.404 . S
C234 C237 1.539 . S
C235 C231 1.408 . S
C235 C234 1.404 . S
C235 H247 0.930 . S
C236 C232 1.524 . S
C236 H248 0.956 . S
C236 H249 0.961 . S
C236 H250 0.961 . S
C237 C234 1.539 . S
C237 H251 0.958 . S
C237 H252 0.961 . S
C237 H253 0.960 . S
H238 C222 0.931 . S
H239 C227 0.929 . S
H240 C228 0.960 . S
H241 C228 0.962 . S
H242 C228 0.960 . S
H243 C229 0.961 . S
H244 C229 0.961 . S
H245 C229 0.961 . S
H246 C230 0.931 . S
H247 C235 0.930 . S
H248 C236 0.956 . S
H249 C236 0.961 . S
H250 C236 0.961 . S
H251 C237 0.958 . S
H252 C237 0.961 . S
H253 C237 0.960 . S
C254 C255 1.391 . S
C254 C256 1.394 . S
C254 H270 0.931 . S
C255 C254 1.391 . S
C255 C259 1.376 . S
C256 C254 1.394 . S
C256 C257 1.369 . S
C256 C260 1.531 . S
C257 C256 1.369 . S
C257 C258 1.410 . S
C257 C265 1.503 . S
C258 C257 1.410 . S
C258 C259 1.392 . S
C258 C261 1.511 . S
C259 C255 1.376 . S
C259 C258 1.392 . S
C259 H271 0.929 . S
C260 C256 1.531 . S
C260 H272 0.960 . S
C260 H273 0.962 . S
C260 H274 0.960 . S
C261 C258 1.511 . S
C261 H275 0.961 . S
C261 H276 0.961 . S
C261 H277 0.961 . S
C262 C263 1.370 . S
C262 C264 1.363 . S
C262 H278 0.931 . S
C263 C262 1.370 . S
C263 C267 1.408 . S
C264 C262 1.363 . S
C264 C265 1.370 . S
C264 C268 1.524 . S
C265 C257 1.503 . S
C265 C264 1.370 . S
C265 C266 1.403 . S
C266 C265 1.403 . S
C266 C267 1.404 . S
C266 C269 1.539 . S
C267 C263 1.408 . S
C267 C266 1.404 . S
C267 H279 0.930 . S
C268 C264 1.524 . S
C268 H280 0.956 . S
C268 H281 0.961 . S
C268 H282 0.961 . S
C269 C266 1.539 . S
C269 H283 0.958 . S
C269 H284 0.961 . S
C269 H285 0.960 . S
H270 C254 0.931 . S
H271 C259 0.929 . S
H272 C260 0.960 . S
H273 C260 0.962 . S
H274 C260 0.960 . S
H275 C261 0.961 . S
H276 C261 0.961 . S
H277 C261 0.961 . S
H278 C262 0.931 . S
H279 C267 0.930 . S
H280 C268 0.956 . S
H281 C268 0.961 . S
H282 C268 0.961 . S
H283 C269 0.958 . S
H284 C269 0.961 . S
H285 C269 0.960 . S
C286 C287 1.391 . S
C286 C288 1.394 . S
C286 H302 0.931 . S
C287 C286 1.391 . S
C287 C291 1.376 . S
C288 C286 1.394 . S
C288 C289 1.369 . S
C288 C292 1.531 . S
C289 C288 1.369 . S
C289 C290 1.410 . S
C289 C297 1.503 . S
C290 C289 1.410 . S
C290 C291 1.392 . S
C290 C293 1.511 . S
C291 C287 1.376 . S
C291 C290 1.392 . S
C291 H303 0.929 . S
C292 C288 1.531 . S
C292 H304 0.960 . S
C292 H305 0.962 . S
C292 H306 0.960 . S
C293 C290 1.511 . S
C293 H307 0.961 . S
C293 H308 0.961 . S
C293 H309 0.961 . S
C294 C295 1.370 . S
C294 C296 1.363 . S
C294 H310 0.931 . S
C295 C294 1.370 . S
C295 C299 1.408 . S
C296 C294 1.363 . S
C296 C297 1.370 . S
C296 C300 1.524 . S
C297 C289 1.503 . S
C297 C296 1.370 . S
C297 C298 1.403 . S
C298 C297 1.403 . S
C298 C299 1.404 . S
C298 C301 1.539 . S
C299 C295 1.408 . S
C299 C298 1.404 . S
C299 H311 0.930 . S
C300 C296 1.524 . S
C300 H312 0.956 . S
C300 H313 0.961 . S
C300 H314 0.961 . S
C301 C298 1.539 . S
C301 H315 0.958 . S
C301 H316 0.961 . S
C301 H317 0.960 . S
H302 C286 0.931 . S
H303 C291 0.929 . S
H304 C292 0.960 . S
H305 C292 0.962 . S
H306 C292 0.960 . S
H307 C293 0.961 . S
H308 C293 0.961 . S
H309 C293 0.961 . S
H310 C294 0.931 . S
H311 C299 0.930 . S
H312 C300 0.956 . S
H313 C300 0.961 . S
H314 C300 0.961 . S
H315 C301 0.958 . S
H316 C301 0.961 . S
H317 C301 0.960 . S
C318 C319 1.391 . S
C318 C320 1.394 . S
C318 H334 0.931 . S
C319 C318 1.391 . S
C319 C323 1.376 . S
C320 C318 1.394 . S
C320 C321 1.369 . S
C320 C324 1.531 . S
C321 C320 1.369 . S
C321 C322 1.410 . S
C321 C329 1.503 . S
C322 C321 1.410 . S
C322 C323 1.392 . S
C322 C325 1.511 . S
C323 C319 1.376 . S
C323 C322 1.392 . S
C323 H335 0.929 . S
C324 C320 1.531 . S
C324 H336 0.960 . S
C324 H337 0.962 . S
C324 H338 0.960 . S
C325 C322 1.511 . S
C325 H339 0.961 . S
C325 H340 0.961 . S
C325 H341 0.961 . S
C326 C327 1.370 . S
C326 C328 1.363 . S
C326 H342 0.931 . S
C327 C326 1.370 . S
C327 C331 1.408 . S
C328 C326 1.363 . S
C328 C329 1.370 . S
C328 C332 1.524 . S
C329 C321 1.503 . S
C329 C328 1.370 . S
C329 C330 1.403 . S
C330 C329 1.403 . S
C330 C331 1.404 . S
C330 C333 1.539 . S
C331 C327 1.408 . S
C331 C330 1.404 . S
C331 H343 0.930 . S
C332 C328 1.524 . S
C332 H344 0.956 . S
C332 H345 0.961 . S
C332 H346 0.961 . S
C333 C330 1.539 . S
C333 H347 0.958 . S
C333 H348 0.961 . S
C333 H349 0.960 . S
H334 C318 0.931 . S
H335 C323 0.929 . S
H336 C324 0.960 . S
H337 C324 0.962 . S
H338 C324 0.960 . S
H339 C325 0.961 . S
H340 C325 0.961 . S
H341 C325 0.961 . S
H342 C326 0.931 . S
H343 C331 0.930 . S
H344 C332 0.956 . S
H345 C332 0.961 . S
H346 C332 0.961 . S
H347 C333 0.958 . S
H348 C333 0.961 . S
H349 C333 0.960 . S
C350 C351 1.391 . S
C350 C352 1.394 . S
C350 H366 0.931 . S
C351 C350 1.391 . S
C351 C355 1.376 . S
C352 C350 1.394 . S
C352 C353 1.369 . S
C352 C356 1.531 . S
C353 C352 1.369 . S
C353 C354 1.410 . S
C353 C361 1.503 . S
C354 C353 1.410 . S
C354 C355 1.392 . S
C354 C357 1.511 . S
C355 C351 1.376 . S
C355 C354 1.392 . S
C355 H367 0.929 . S
C356 C352 1.531 . S
C356 H368 0.960 . S
C356 H369 0.962 . S
C356 H370 0.960 . S
C357 C354 1.511 . S
C357 H371 0.961 . S
C357 H372 0.961 . S
C357 H373 0.961 . S
C358 C359 1.370 . S
C358 C360 1.363 . S
C358 H374 0.931 . S
C359 C358 1.370 . S
C359 C363 1.408 . S
C360 C358 1.363 . S
C360 C361 1.370 . S
C360 C364 1.524 . S
C361 C353 1.503 . S
C361 C360 1.370 . S
C361 C362 1.403 . S
C362 C361 1.403 . S
C362 C363 1.404 . S
C362 C365 1.539 . S
C363 C359 1.408 . S
C363 C362 1.404 . S
C363 H375 0.930 . S
C364 C360 1.524 . S
C364 H376 0.956 . S
C364 H377 0.961 . S
C364 H378 0.961 . S
C365 C362 1.539 . S
C365 H379 0.958 . S
C365 H380 0.961 . S
C365 H381 0.960 . S
H366 C350 0.931 . S
H367 C355 0.929 . S
H368 C356 0.960 . S
H369 C356 0.962 . S
H370 C356 0.960 . S
H371 C357 0.961 . S
H372 C357 0.961 . S
H373 C357 0.961 . S
H374 C358 0.931 . S
H375 C363 0.930 . S
H376 C364 0.956 . S
H377 C364 0.961 . S
H378 C364 0.961 . S
H379 C365 0.958 . S
H380 C365 0.961 . S
H381 C365 0.960 . S
C382 C383 1.391 . S
C382 C384 1.394 . S
C382 H398 0.931 . S
C383 C382 1.391 . S
C383 C387 1.376 . S
C384 C382 1.394 . S
C384 C385 1.369 . S
C384 C388 1.531 . S
C385 C384 1.369 . S
C385 C386 1.410 . S
C385 C393 1.503 . S
C386 C385 1.410 . S
C386 C387 1.392 . S
C386 C389 1.511 . S
C387 C383 1.376 . S
C387 C386 1.392 . S
C387 H399 0.929 . S
C388 C384 1.531 . S
C388 H400 0.960 . S
C388 H401 0.962 . S
C388 H402 0.960 . S
C389 C386 1.511 . S
C389 H403 0.961 . S
C389 H404 0.961 . S
C389 H405 0.961 . S
C390 C391 1.370 . S
C390 C392 1.363 . S
C390 H406 0.931 . S
C391 C390 1.370 . S
C391 C395 1.408 . S
C392 C390 1.363 . S
C392 C393 1.370 . S
C392 C396 1.524 . S
C393 C385 1.503 . S
C393 C392 1.370 . S
C393 C394 1.403 . S
C394 C393 1.403 . S
C394 C395 1.404 . S
C394 C397 1.539 . S
C395 C391 1.408 . S
C395 C394 1.404 . S
C395 H407 0.930 . S
C396 C392 1.524 . S
C396 H408 0.956 . S
C396 H409 0.961 . S
C396 H410 0.961 . S
C397 C394 1.539 . S
C397 H411 0.958 . S
C397 H412 0.961 . S
C397 H413 0.960 . S
H398 C382 0.931 . S
H399 C387 0.929 . S
H400 C388 0.960 . S
H401 C388 0.962 . S
H402 C388 0.960 . S
H403 C389 0.961 . S
H404 C389 0.961 . S
H405 C389 0.961 . S
H406 C390 0.931 . S
H407 C395 0.930 . S
H408 C396 0.956 . S
H409 C396 0.961 . S
H410 C396 0.961 . S
H411 C397 0.958 . S
H412 C397 0.961 . S
H413 C397 0.960 . S
C414 C415 1.391 . S
C414 C416 1.394 . S
C414 H430 0.931 . S
C415 C414 1.391 . S
C415 C419 1.376 . S
C416 C414 1.394 . S
C416 C417 1.369 . S
C416 C420 1.531 . S
C417 C416 1.369 . S
C417 C418 1.410 . S
C417 C425 1.503 . S
C418 C417 1.410 . S
C418 C419 1.392 . S
C418 C421 1.511 . S
C419 C415 1.376 . S
C419 C418 1.392 . S
C419 H431 0.929 . S
C420 C416 1.531 . S
C420 H432 0.960 . S
C420 H433 0.962 . S
C420 H434 0.960 . S
C421 C418 1.511 . S
C421 H435 0.961 . S
C421 H436 0.961 . S
C421 H437 0.961 . S
C422 C423 1.370 . S
C422 C424 1.363 . S
C422 H438 0.931 . S
C423 C422 1.370 . S
C423 C427 1.408 . S
C424 C422 1.363 . S
C424 C425 1.370 . S
C424 C428 1.524 . S
C425 C417 1.503 . S
C425 C424 1.370 . S
C425 C426 1.403 . S
C426 C425 1.403 . S
C426 C427 1.404 . S
C426 C429 1.539 . S
C427 C423 1.408 . S
C427 C426 1.404 . S
C427 H439 0.930 . S
C428 C424 1.524 . S
C428 H440 0.956 . S
C428 H441 0.961 . S
C428 H442 0.961 . S
C429 C426 1.539 . S
C429 H443 0.958 . S
C429 H444 0.961 . S
C429 H445 0.960 . S
H430 C414 0.931 . S
H431 C419 0.929 . S
H432 C420 0.960 . S
H433 C420 0.962 . S
H434 C420 0.960 . S
H435 C421 0.961 . S
H436 C421 0.961 . S
H437 C421 0.961 . S
H438 C422 0.931 . S
H439 C427 0.930 . S
H440 C428 0.956 . S
H441 C428 0.961 . S
H442 C428 0.961 . S
H443 C429 0.958 . S
H444 C429 0.961 . S
H445 C429 0.960 . S
C446 C447 1.391 . S
C446 C448 1.394 . S
C446 H462 0.931 . S
C447 C446 1.391 . S
C447 C451 1.376 . S
C448 C446 1.394 . S
C448 C449 1.369 . S
C448 C452 1.531 . S
C449 C448 1.369 . S
C449 C450 1.410 . S
C449 C457 1.503 . S
C450 C449 1.410 . S
C450 C451 1.392 . S
C450 C453 1.511 . S
C451 C447 1.376 . S
C451 C450 1.392 . S
C451 H463 0.929 . S
C452 C448 1.531 . S
C452 H464 0.960 . S
C452 H465 0.962 . S
C452 H466 0.960 . S
C453 C450 1.511 . S
C453 H467 0.961 . S
C453 H468 0.961 . S
C453 H469 0.961 . S
C454 C455 1.370 . S
C454 C456 1.363 . S
C454 H470 0.931 . S
C455 C454 1.370 . S
C455 C459 1.408 . S
C456 C454 1.363 . S
C456 C457 1.370 . S
C456 C460 1.524 . S
C457 C449 1.503 . S
C457 C456 1.370 . S
C457 C458 1.403 . S
C458 C457 1.403 . S
C458 C459 1.404 . S
C458 C461 1.533 1_565 S
C459 C455 1.408 . S
C459 C458 1.404 . S
C459 H471 0.930 1_565 S
C460 C456 1.524 . S
C460 H472 0.956 . S
C460 H473 0.961 . S
C460 H474 0.961 . S
C461 C458 1.533 1_545 S
C461 H475 0.958 . S
C461 H476 0.970 . S
C461 H477 0.956 1_545 S
H462 C446 0.931 . S
H463 C451 0.929 . S
H464 C452 0.960 . S
H465 C452 0.962 . S
H466 C452 0.960 . S
H467 C453 0.961 . S
H468 C453 0.961 . S
H469 C453 0.961 . S
H470 C454 0.931 . S
H471 C459 0.930 1_545 S
H472 C460 0.956 . S
H473 C460 0.961 . S
H474 C460 0.961 . S
H475 C461 0.958 . S
H476 C461 0.970 . S
H477 C461 0.956 1_565 S
C103 C67 1.297 . S
C95 C43 1.424 . S
C127 C4 1.466 . S
C135 C91 1.270 . S
C159 C17 1.554 . S
C167 C70 1.410 . S
C191 C30 1.555 . S
C199 C88 1.411 . S
C231 C68 1.461 . S
C223 C9 1.484 . S
C263 C90 1.497 . S
C255 C21 1.578 . S
C287 C34 1.567 . S
C295 C69 1.519 . S
C319 C48 1.470 . S
C327 C89 1.422 . S
C359 C87 1.506 . S
C351 C22 1.534 . S
C391 C66 1.516 . S
C383 C35 1.535 . S
C423 C86 1.449 . S
C415 C47 1.487 . S
C447 C8 1.494 1_556 S
C455 C65 1.427 . S
