# Generated by pormake.
# Topology tsx, (6,3)-cn, num edge types: 1
# Building blocks:
#     Node 0, Type 0, BuildingBlock: VOLQOD_clean_sbu_1, # of connection points: 6
#     Node 1, Type 0, BuildingBlock: VOLQOD_clean_sbu_1, # of connection points: 6
#     Node 2, Type 1, BuildingBlock: KAKCAD_clean_linker_0, # of connection points: 3
#     Node 3, Type 1, BuildingBlock: KAKCAD_clean_linker_0, # of connection points: 3
#     Node 4, Type 1, BuildingBlock: KAKCAD_clean_linker_0, # of connection points: 3
#     Node 5, Type 1, BuildingBlock: KAKCAD_clean_linker_0, # of connection points: 3
#     Edge 6, Type (0, 1), BuildingBlock: EZIPEK_clean_linker_0, # of connection points: 2
#     Edge 7, Type (0, 1), BuildingBlock: EZIPEK_clean_linker_0, # of connection points: 2
#     Edge 8, Type (0, 1), BuildingBlock: EZIPEK_clean_linker_0, # of connection points: 2
#     Edge 9, Type (0, 1), BuildingBlock: EZIPEK_clean_linker_0, # of connection points: 2
#     Edge 10, Type (0, 1), BuildingBlock: EZIPEK_clean_linker_0, # of connection points: 2
#     Edge 11, Type (0, 1), BuildingBlock: EZIPEK_clean_linker_0, # of connection points: 2
#     Edge 12, Type (0, 1), BuildingBlock: EZIPEK_clean_linker_0, # of connection points: 2
#     Edge 13, Type (0, 1), BuildingBlock: EZIPEK_clean_linker_0, # of connection points: 2
#     Edge 14, Type (0, 1), BuildingBlock: EZIPEK_clean_linker_0, # of connection points: 2
#     Edge 15, Type (0, 1), BuildingBlock: EZIPEK_clean_linker_0, # of connection points: 2
#     Edge 16, Type (0, 1), BuildingBlock: EZIPEK_clean_linker_0, # of connection points: 2
#     Edge 17, Type (0, 1), BuildingBlock: EZIPEK_clean_linker_0, # of connection points: 2
# Relax obj value: 0.075
# Max RMSD: 0.108
# Mean RMSD: 0.083
data_MOF--net-tsx--node1-VOLQOD_clean_sbu_1--node2-KAKCAD_clean_linker_0--edge1-EZIPEK_clean_linker_0
_symmetry_space_group_name_H-M    P1
_symmetry_Int_Tables_number       1
_symmetry_cell_setting            triclinic
loop_
_symmetry_equiv_pos_as_xyz
'x, y, z'
_cell_length_a     19.998549
_cell_length_b     20.522461
_cell_length_c     38.715839
_cell_angle_alpha  90.69055
_cell_angle_beta   90.038224
_cell_angle_gamma 90.182085
loop_
_atom_site_label
_atom_site_type_symbol
_atom_site_fract_x
_atom_site_fract_y
_atom_site_fract_z
_atom_type_partial_charge
O0 O 0.04987 0.99049 0.08528 0.0
Zn1 Zn 0.0793 0.99017 0.03568 0.0
O2 O 0.00309 -0.00085 0.00462 0.0
Zn3 Zn -0.00201 0.92308 0.97416 0.0
Zn4 Zn 0.92123 0.00592 0.0319 0.0
Zn5 Zn 0.01368 0.07682 0.9766 0.0
O6 O -0.009 0.9485 0.92427 0.0
O7 O 0.01788 0.05387 0.92581 0.0
O8 O 0.13173 0.90847 0.02565 0.0
O9 O 0.08044 0.86863 0.97897 0.0
O10 O 0.92037 0.86558 0.9867 0.0
O11 O 0.86741 0.92325 0.02731 0.0
O12 O 0.86423 0.08076 0.01605 0.0
O13 O 0.14189 0.06638 0.0307 0.0
O14 O 0.93369 0.13492 0.98182 0.0
O15 O 0.09571 0.12787 0.99016 0.0
C16 C -0.00497 0.0055 0.09999 0.0
C17 C 0.0039 0.00176 0.90911 0.0
C18 C 0.87309 0.87244 0.00839 0.0
C19 C 0.12753 0.86692 1.00107 0.0
C20 C 0.8774 0.12907 0.99684 0.0
C21 C 0.1419 0.11681 0.0119 0.0
O22 O 0.94226 0.01729 0.08271 0.0
O23 O 0.54606 0.47541 0.58274 0.0
Zn24 Zn 0.56788 0.48622 0.5322 0.0
O25 O 0.48683 0.49561 0.50464 0.0
Zn26 Zn 0.47486 0.4192 0.47481 0.0
Zn27 Zn 0.41066 0.50515 0.53571 0.0
Zn28 Zn 0.49399 0.57239 0.47581 0.0
O29 O 0.47249 0.44352 0.42446 0.0
O30 O 0.50279 0.54802 0.42551 0.0
O31 O 0.62258 0.40972 0.5158 0.0
O32 O 0.55315 0.35902 0.47941 0.0
O33 O 0.39215 0.36898 0.48727 0.0
O34 O 0.34924 0.42803 0.53047 0.0
O35 O 0.35737 0.58589 0.5256 0.0
O36 O 0.6244 0.56696 0.52893 0.0
O37 O 0.4114 0.62707 0.48061 0.0
O38 O 0.5726 0.62798 0.49002 0.0
C39 C 0.49376 0.48921 0.60008 0.0
C40 C 0.48891 0.49564 0.40906 0.0
C41 C 0.34774 0.37872 0.51025 0.0
C42 C 0.60875 0.3625 0.49536 0.0
C43 C 0.36272 0.62786 0.5018 0.0
C44 C 0.62005 0.61869 0.51129 0.0
O45 O 0.43959 0.50614 0.58546 0.0
C46 C 0.00768 0.95215 0.26689 0.0
C47 C -0.00201 0.01111 0.24967 0.0
C48 C 0.00876 0.95071 0.30295 0.0
C49 C 0.00116 0.00843 0.3226 0.0
C50 C -0.00755 0.06762 0.3051 0.0
C51 C -0.0097 0.06882 0.26901 0.0
C52 C 0.00042 0.00643 0.36111 0.0
C53 C 0.0411 0.96245 0.37901 0.0
C54 C 0.03745 0.95712 0.41523 0.0
C55 C -0.00644 -0.00194 0.43368 0.0
C56 C 0.95486 0.04403 0.41629 0.0
C57 C 0.95785 0.04748 0.38017 0.0
C58 C 0.91044 0.08887 0.43539 0.0
C59 C 0.85788 0.06481 0.45567 0.0
C60 C 0.91709 0.15628 0.43079 0.0
C61 C 0.87002 0.19893 0.4448 0.0
C62 C 0.81501 0.17468 0.46312 0.0
C63 C 0.07991 0.90897 0.43346 0.0
C64 C 0.09373 0.84816 0.41792 0.0
C65 C 0.10846 0.92375 0.46592 0.0
C66 C 0.15117 0.87942 0.48191 0.0
C67 C 0.16705 0.82025 0.46537 0.0
C68 C 0.13729 0.80462 0.43355 0.0
C69 C 0.80995 0.10754 0.46923 0.0
H70 H 0.01354 0.90709 0.25235 0.0
H71 H 0.01427 0.90406 0.31538 0.0
H72 H 0.98759 0.11321 0.31922 0.0
H73 H 0.98296 0.11482 0.25613 0.0
H74 H 0.07657 0.93296 0.36469 0.0
H75 H 0.92537 0.08125 0.36697 0.0
H76 H -0.01052 -0.0054 0.46152 0.0
H77 H 0.85197 0.01288 0.45944 0.0
H78 H 0.95759 0.17571 0.4154 0.0
H79 H 0.8746 0.25062 0.43988 0.0
H80 H 0.07123 0.83417 0.39348 0.0
H81 H 0.09944 0.97023 0.47856 0.0
H82 H 0.76761 0.08812 0.48324 0.0
H83 H 0.14838 0.7588 0.42062 0.0
H84 H 0.17342 0.89203 0.50663 0.0
C85 C 0.98396 0.06291 0.7421 0.0
C86 C -0.00585 0.00472 0.75992 0.0
C87 C 0.98155 0.06255 0.70601 0.0
C88 C -0.01123 0.00386 0.68724 0.0
C89 C -0.00125 0.94563 0.70531 0.0
C90 C 0.00164 0.94613 0.74138 0.0
C91 C 0.9863 0.00336 0.64891 0.0
C92 C 0.02116 0.05049 0.6301 0.0
C93 C 0.02006 0.0497 0.59381 0.0
C94 C 0.98337 0.0012 0.57623 0.0
C95 C 0.94757 0.954 0.59468 0.0
C96 C 0.94945 0.95548 0.63101 0.0
C97 C 0.90647 0.90413 0.57637 0.0
C98 C 0.86582 0.92129 0.54822 0.0
C99 C 0.90439 0.83974 0.58839 0.0
C100 C 0.86004 0.79453 0.5739 0.0
C101 C 0.81746 0.81275 0.54699 0.0
C102 C 0.05936 0.09858 0.57461 0.0
C103 C 0.05797 0.16446 0.58492 0.0
C104 C 0.10229 0.07909 0.54767 0.0
C105 C 0.1459 0.12407 0.53276 0.0
C106 C 0.14661 0.189 0.54447 0.0
C107 C 0.10127 0.20936 0.56992 0.0
C108 C 0.82156 0.87582 0.53362 0.0
H109 H 0.97793 0.10848 0.75614 0.0
H110 H 0.9732 0.10803 0.69279 0.0
H111 H 0.0052 0.89983 0.69154 0.0
H112 H 0.0096 0.90085 0.75486 0.0
H113 H 0.051 0.08672 0.64375 0.0
H114 H 0.92067 0.9203 0.6455 0.0
H115 H 0.98271 0.00029 0.54823 0.0
H116 H 0.86598 0.97056 0.5385 0.0
H117 H 0.93602 0.82469 0.60955 0.0
H118 H 0.85741 0.74587 0.58437 0.0
H119 H 0.02473 0.18083 0.60531 0.0
H120 H 0.1046 0.02854 0.5394 0.0
H121 H 0.78867 0.8905 0.5129 0.0
H122 H 0.10148 0.25937 0.57921 0.0
H123 H 0.18102 0.10773 0.51323 0.0
C124 C 0.49843 0.42078 0.76777 0.0
C125 C 0.49165 0.47913 0.7496 0.0
C126 C 0.49593 0.42097 0.80388 0.0
C127 C 0.48764 0.47974 0.82255 0.0
C128 C 0.48139 0.53813 0.80407 0.0
C129 C 0.48286 0.53772 0.76801 0.0
C130 C 0.48681 0.48068 0.8611 0.0
C131 C 0.52808 0.43881 0.87994 0.0
C132 C 0.52978 0.44185 0.91618 0.0
C133 C 0.49088 0.48809 0.93386 0.0
C134 C 0.44836 0.52982 0.91557 0.0
C135 C 0.44594 0.52482 0.87928 0.0
C136 C 0.40642 0.57888 0.93398 0.0
C137 C 0.37586 0.56462 0.9658 0.0
C138 C 0.39514 0.64016 0.91917 0.0
C139 C 0.35199 0.68471 0.9348 0.0
C140 C 0.32012 0.66962 0.96592 0.0
C141 C 0.57359 0.39692 0.93515 0.0
C142 C 0.5688 0.32961 0.92881 0.0
C143 C 0.62361 0.42104 0.95742 0.0
C144 C 0.67099 0.37865 0.97126 0.0
C145 C 0.66795 0.31171 0.96345 0.0
C146 C 0.61529 0.28725 0.94309 0.0
C147 C 0.33353 0.60995 0.98182 0.0
H148 H 0.50513 0.37506 0.75395 0.0
H149 H 0.49994 0.37495 0.81709 0.0
H150 H 0.47638 0.58451 0.81743 0.0
H151 H 0.47779 0.58327 0.7544 0.0
H152 H 0.56071 0.40493 0.86651 0.0
H153 H 0.4114 0.55495 0.86507 0.0
H154 H 0.4939 0.49135 0.96178 0.0
H155 H 0.38301 0.51782 0.97786 0.0
H156 H 0.41927 0.6537 0.89527 0.0
H157 H 0.34282 0.73088 0.92239 0.0
H158 H 0.5302 0.31006 0.91194 0.0
H159 H 0.62809 0.47286 0.96261 0.0
H160 H 0.30962 0.59778 0.00601 0.0
H161 H 0.61225 0.23571 0.93686 0.0
H162 H 0.71146 0.39827 0.98687 0.0
C163 C 0.50455 0.54825 0.2413 0.0
C164 C 0.5085 0.49043 0.26008 0.0
C165 C 0.50912 0.54658 0.20528 0.0
C166 C 0.51726 0.48694 0.18749 0.0
C167 C 0.52129 0.42912 0.20652 0.0
C168 C 0.51716 0.4309 0.24256 0.0
C169 C 0.52035 0.48498 0.14917 0.0
C170 C 0.55902 0.53045 0.13119 0.0
C171 C 0.56063 0.53019 0.09484 0.0
C172 C 0.52349 0.48284 0.07649 0.0
C173 C 0.48491 0.43656 0.09414 0.0
C174 C 0.48356 0.43826 0.13045 0.0
C175 C 0.44346 0.38791 0.07508 0.0
C176 C 0.40559 0.40607 0.04609 0.0
C177 C 0.43751 0.32398 0.08746 0.0
C178 C 0.3915 0.28066 0.07276 0.0
C179 C 0.35125 0.30019 0.04519 0.0
C180 C 0.60144 0.57943 0.07639 0.0
C181 C 0.60533 0.64383 0.08916 0.0
C182 C 0.63885 0.56219 0.04686 0.0
C183 C 0.6812 0.60773 0.0314 0.0
C184 C 0.68712 0.67081 0.04545 0.0
C185 C 0.6481 0.68891 0.07397 0.0
C186 C 0.35984 0.36236 0.03118 0.0
H187 H 0.49778 0.59456 0.25455 0.0
H188 H 0.50513 0.5918 0.19129 0.0
H189 H 0.52816 0.38256 0.19355 0.0
H190 H 0.52045 0.3859 0.25679 0.0
H191 H 0.58895 0.56542 0.14566 0.0
H192 H 0.45191 0.40445 0.14427 0.0
H193 H 0.52418 0.48226 0.04851 0.0
H194 H 0.40873 0.45501 0.03605 0.0
H195 H 0.46703 0.30804 0.10923 0.0
H196 H 0.38556 0.23262 0.08369 0.0
H197 H 0.57596 0.65926 0.11127 0.0
H198 H 0.63734 0.51299 0.03645 0.0
H199 H 0.32889 0.37802 0.00988 0.0
H200 H 0.65183 0.73765 0.08489 0.0
H201 H 0.71114 0.59318 0.00933 0.0
C202 C 0.25487 0.16383 0.99949 0.0
C203 C 0.19374 0.16685 0.01797 0.0
C204 C 0.23227 0.26398 0.04958 0.0
C205 C 0.29575 0.2573 0.03356 0.0
N206 N 0.37026 0.20031 0.9949 0.0
N207 N 0.12462 0.21513 0.06233 0.0
C208 C 0.30776 0.20723 0.00877 0.0
C209 C 0.18233 0.21595 0.04334 0.0
N210 N 0.26175 0.11996 0.97286 0.0
N211 N 0.21966 0.31667 0.07055 0.0
H212 H 0.08572 0.18217 0.05768 0.0
H213 H 0.11663 0.24425 0.08412 0.0
H214 H 0.25564 0.35178 0.07679 0.0
H215 H 0.17238 0.32849 0.07987 0.0
H216 H 0.30237 0.11907 0.95609 0.0
H217 H 0.2243 0.08673 0.96597 0.0
H218 H 0.38481 0.16074 0.97966 0.0
H219 H 0.40921 0.23294 1.0001 0.0
C220 C 0.15661 0.74923 0.99374 0.0
C221 C 0.17825 0.8148 0.99772 0.0
C222 C 0.2944 0.77931 0.99141 0.0
C223 C 0.27161 0.71665 0.98094 0.0
N224 N 0.17934 0.64395 0.96782 0.0
N225 N 0.26818 0.89395 0.99567 0.0
C226 C 0.20225 0.70176 0.98124 0.0
C227 C 0.2474 0.83042 0.99577 0.0
N228 N 0.09279 0.73208 0.00252 0.0
N229 N 0.36098 0.78982 0.99726 0.0
H230 H 0.23561 0.93338 0.9974 0.0
H231 H 0.31733 0.90772 0.99054 0.0
H232 H 0.39656 0.75298 0.99466 0.0
H233 H 0.37975 0.83292 0.00802 0.0
H234 H 0.07631 0.68389 0.00313 0.0
H235 H 0.05855 0.7653 0.01282 0.0
H236 H 0.12873 0.63403 0.96395 0.0
H237 H 0.21068 0.60805 0.9577 0.0
C238 C 0.76383 0.81524 0.99878 0.0
C239 C 0.82774 0.81702 0.0146 0.0
C240 C 0.80356 0.71543 0.04482 0.0
C241 C 0.73711 0.7175 0.03199 0.0
N242 N 0.65184 0.76894 0.99792 0.0
N243 N 0.90848 0.77271 0.05413 0.0
C244 C 0.71672 0.7671 0.00905 0.0
C245 C 0.84793 0.76778 0.03776 0.0
N246 N 0.74887 0.85902 0.97358 0.0
N247 N 0.82415 0.66327 0.06372 0.0
H248 H 0.94321 0.80934 0.04894 0.0
H249 H 0.92302 0.74313 0.07442 0.0
H250 H 0.79242 0.6252 0.07063 0.0
H251 H 0.87372 0.65501 0.07054 0.0
H252 H 0.70573 0.8569 0.95857 0.0
H253 H 0.78222 0.89526 0.96587 0.0
H254 H 0.63137 0.80765 0.98445 0.0
H255 H 0.61703 0.73265 0.00362 0.0
C256 C 0.80844 0.18978 0.95403 0.0
C257 C 0.82418 0.17678 0.98904 0.0
C258 C 0.73427 0.25014 0.00786 0.0
C259 C 0.72364 0.26784 0.97299 0.0
N260 N 0.76228 0.26675 0.91389 0.0
N261 N 0.81067 0.20392 0.04951 0.0
C262 C 0.76439 0.24144 0.94638 0.0
C263 C 0.78945 0.20952 0.01612 0.0
N264 N 0.83255 0.1507 0.92805 0.0
N265 N 0.69063 0.27041 0.03289 0.0
H266 H 0.85187 0.17595 0.05648 0.0
H267 H 0.79141 0.23177 0.06983 0.0
H268 H 0.64978 0.30027 0.02777 0.0
H269 H 0.69178 0.25333 0.05811 0.0
H270 H 0.81697 0.15437 0.90246 0.0
H271 H 0.86221 0.10994 0.93243 0.0
H272 H 0.79588 0.25347 0.8945 0.0
H273 H 0.73174 0.30582 0.90732 0.0
C274 C 0.72584 0.67825 0.49729 0.0
C275 C 0.66811 0.67182 0.51824 0.0
C276 C 0.70337 0.76509 0.55389 0.0
C277 C 0.7644 0.76716 0.53527 0.0
N278 N 0.83706 0.72459 0.49089 0.0
N279 N 0.60272 0.70466 0.56776 0.0
C280 C 0.77645 0.72368 0.50722 0.0
C281 C 0.65691 0.71423 0.54682 0.0
N282 N 0.73179 0.64125 0.46785 0.0
N283 N 0.6895 0.81253 0.57795 0.0
H284 H 0.56587 0.66979 0.56258 0.0
H285 H 0.59607 0.72839 0.59141 0.0
H286 H 0.72288 0.84994 0.58434 0.0
H287 H 0.64307 0.81808 0.58973 0.0
H288 H 0.76924 0.64785 0.44956 0.0
H289 H 0.69625 0.6065 0.46037 0.0
H290 H 0.85214 0.68966 0.47284 0.0
H291 H 0.87433 0.7586 0.49686 0.0
C292 C 0.69168 0.27841 0.51491 0.0
C293 C 0.66041 0.31285 0.48772 0.0
C294 C 0.72162 0.24727 0.44522 0.0
C295 C 0.75938 0.21929 0.47222 0.0
N296 N 0.78704 0.21428 0.53278 0.0
N297 N 0.65733 0.34002 0.42707 0.0
C298 C 0.74626 0.2364 0.50716 0.0
C299 C 0.6784 0.29994 0.45284 0.0
N300 N 0.66773 0.28382 0.54787 0.0
N301 N 0.72589 0.2226 0.41233 0.0
H302 H 0.6283 0.38136 0.43152 0.0
H303 H 0.67475 0.33637 0.40176 0.0
H304 H 0.75601 0.18294 0.40574 0.0
H305 H 0.69435 0.23709 0.39242 0.0
H306 H 0.68434 0.25491 0.56805 0.0
H307 H 0.62677 0.31275 0.55442 0.0
H308 H 0.78422 0.23082 0.55827 0.0
H309 H 0.82733 0.18327 0.52804 0.0
C310 C 0.31302 0.27824 0.54075 0.0
C311 C 0.29773 0.32745 0.51663 0.0
C312 C 0.18693 0.27947 0.50669 0.0
C313 C 0.19988 0.23423 0.53326 0.0
N314 N 0.27153 0.19375 0.57835 0.0
N315 N 0.22005 0.37953 0.47834 0.0
C316 C 0.26211 0.23419 0.55093 0.0
C317 C 0.23469 0.32925 0.49991 0.0
N318 N 0.37657 0.27321 0.55358 0.0
N319 N 0.12944 0.27399 0.48772 0.0
H320 H 0.25471 0.41566 0.47213 0.0
H321 H 0.17268 0.38786 0.4682 0.0
H322 H 0.09325 0.23845 0.49243 0.0
H323 H 0.11963 0.30126 0.46582 0.0
H324 H 0.39298 0.23413 0.56819 0.0
H325 H 0.41487 0.30573 0.54749 0.0
H326 H 0.31232 0.19702 0.595 0.0
H327 H 0.23624 0.1594 0.58611 0.0
C328 C 0.24236 0.66126 0.49438 0.0
C329 C 0.31088 0.6787 0.49796 0.0
C330 C 0.2848 0.79103 0.4823 0.0
C331 C 0.21593 0.77434 0.48052 0.0
N332 N 0.12764 0.6988 0.49425 0.0
N333 N 0.3936 0.76365 0.50527 0.0
C334 C 0.19424 0.7111 0.48977 0.0
C335 C 0.33091 0.7448 0.49511 0.0
N336 N 0.2234 0.5972 0.49296 0.0
N337 N 0.30696 0.84941 0.47001 0.0
H338 H 0.42805 0.73136 0.51581 0.0
H339 H 0.40867 0.81225 0.50674 0.0
H340 H 0.2753 0.88442 0.45971 0.0
H341 H 0.35749 0.86069 0.46723 0.0
H342 H 0.17504 0.58222 0.48665 0.0
H343 H 0.25691 0.55862 0.49468 0.0
H344 H 0.10944 0.65521 0.50413 0.0
H345 H 0.09119 0.73465 0.49145 0.0
C346 C 0.94586 0.97243 0.15704 0.0
C347 C -0.0068 0.0096 0.13825 0.0
C348 C 0.04656 0.0442 0.19249 0.0
C349 C -0.0045 0.01212 0.21128 0.0
N350 N 0.88809 0.9581 0.21136 0.0
N351 N 0.07858 0.09315 0.13839 0.0
C352 C 0.94251 0.97996 0.19351 0.0
C353 C 0.04071 0.04912 0.15606 0.0
N354 N 0.90641 0.92746 0.14039 0.0
N355 N 0.10199 0.06777 0.20918 0.0
H356 H 0.07422 0.0999 0.11182 0.0
H357 H 0.10915 0.12765 0.15054 0.0
H358 H 0.10892 0.06409 0.23578 0.0
H359 H 0.14385 0.0854 0.19625 0.0
H360 H 0.87619 0.89436 0.15338 0.0
H361 H 0.90864 0.91863 0.11384 0.0
H362 H 0.84506 0.94027 0.19931 0.0
H363 H 0.88322 0.96371 0.23805 0.0
C364 C 0.93872 -0.00074 0.85391 0.0
C365 C 0.00144 0.00335 0.87097 0.0
C366 C 0.05872 0.01409 0.81534 0.0
C367 C -0.00342 0.00499 0.7982 0.0
N368 N 0.87842 0.98167 0.80018 0.0
N369 N 0.12186 0.00614 0.86868 0.0
C370 C 0.93679 -0.00446 0.81723 0.0
C371 C 0.06172 0.00872 0.8519 0.0
N372 N 0.88095 0.00125 0.8728 0.0
N373 N 0.11461 0.02892 0.79662 0.0
H374 H 0.12596 0.00265 0.89546 0.0
H375 H 0.16768 0.00248 0.85609 0.0
H376 H 0.11473 0.03124 0.76972 0.0
H377 H 0.15979 0.04338 0.80771 0.0
H378 H 0.83364 0.00611 0.86193 0.0
H379 H 0.88038 0.00307 0.89974 0.0
H380 H 0.8348 0.96679 0.81248 0.0
H381 H 0.87457 0.98073 0.77331 0.0
C382 C 0.5437 0.51983 0.65773 0.0
C383 C 0.49527 0.48442 0.63825 0.0
C384 C 0.44178 0.449 0.69182 0.0
C385 C 0.49382 0.47925 0.71119 0.0
N386 N 0.60223 0.53127 0.71224 0.0
N387 N 0.40791 0.40284 0.6367 0.0
C388 C 0.54724 0.51103 0.69403 0.0
C389 C 0.44703 0.44535 0.65528 0.0
N390 N 0.58417 0.56426 0.64194 0.0
N391 N 0.38607 0.42597 0.70814 0.0
H392 H 0.41169 0.39699 0.60997 0.0
H393 H 0.37671 0.36857 0.64816 0.0
H394 H 0.37961 0.42868 0.73484 0.0
H395 H 0.34363 0.40979 0.69494 0.0
H396 H 0.61535 0.59627 0.65552 0.0
H397 H 0.58199 0.57376 0.61556 0.0
H398 H 0.64551 0.54871 0.70052 0.0
H399 H 0.60721 0.52469 0.73879 0.0
C400 C 0.43462 0.49271 0.35075 0.0
C401 C 0.49378 0.49485 0.37097 0.0
C402 C 0.56227 0.49907 0.3185 0.0
C403 C 0.50339 0.49218 0.2983 0.0
N404 N 0.38433 0.47488 0.29434 0.0
N405 N 0.61405 0.49149 0.375 0.0
C406 C 0.43971 0.48683 0.3142 0.0
C407 C 0.55772 0.49589 0.35509 0.0
N408 N 0.37368 0.49866 0.36649 0.0
N409 N 0.62232 0.50992 0.30265 0.0
H410 H 0.61279 0.49024 0.40191 0.0
H411 H 0.66175 0.48427 0.36495 0.0
H412 H 0.6279 0.51056 0.27587 0.0
H413 H 0.66583 0.52278 0.31587 0.0
H414 H 0.32899 0.50472 0.35314 0.0
H415 H 0.3681 0.5026 0.39323 0.0
H416 H 0.33768 0.4631 0.30445 0.0
H417 H 0.38582 0.47233 0.26742 0.0
loop_
_geom_bond_atom_site_label_1
_geom_bond_atom_site_label_2
_geom_bond_distance
_geom_bond_site_symmetry_2
_ccdc_geom_bond_type
O0 Zn1 1.953 . S
O0 C16 1.225 1_565 S
Zn1 O0 1.953 . S
Zn1 O2 1.949 1_565 S
Zn1 O8 1.919 . S
Zn1 O13 1.924 1_565 S
O2 Zn1 1.949 1_545 S
O2 Zn3 1.923 1_444 S
O2 Zn4 1.950 1_455 S
O2 Zn5 1.945 1_554 S
Zn3 O2 1.923 1_666 S
Zn3 O6 1.933 . S
Zn3 O9 1.941 1_655 S
Zn3 O10 1.965 . S
Zn4 O2 1.950 1_655 S
Zn4 O11 1.938 1_545 S
Zn4 O12 1.906 . S
Zn4 O22 1.953 . S
Zn5 O2 1.945 1_556 S
Zn5 O7 1.932 . S
Zn5 O14 1.977 1_455 S
Zn5 O15 1.910 . S
O6 Zn3 1.933 . S
O6 C17 1.226 1_665 S
O7 Zn5 1.932 . S
O7 C17 1.307 . S
O8 Zn1 1.919 . S
O8 C19 1.253 1_554 S
O9 Zn3 1.941 1_455 S
O9 C19 1.283 . S
O10 Zn3 1.965 . S
O10 C18 1.303 1_556 S
O11 Zn4 1.938 1_565 S
O11 C18 1.247 . S
O12 Zn4 1.906 . S
O12 C20 1.304 1_554 S
O13 Zn1 1.924 1_545 S
O13 C21 1.311 . S
O14 Zn5 1.977 1_655 S
O14 C20 1.272 . S
O15 Zn5 1.910 . S
O15 C21 1.231 1_556 S
C16 O0 1.225 1_545 S
C16 O22 1.298 1_455 S
C17 O6 1.226 1_445 S
C17 O7 1.307 . S
C18 O10 1.303 1_554 S
C18 O11 1.247 . S
C19 O8 1.253 1_556 S
C19 O9 1.283 . S
C20 O12 1.304 1_556 S
C20 O14 1.272 . S
C21 O13 1.311 . S
C21 O15 1.231 1_554 S
O22 Zn4 1.953 . S
O22 C16 1.298 1_655 S
O23 Zn24 1.953 . S
O23 C39 1.225 . S
Zn24 O23 1.953 . S
Zn24 O25 1.949 . S
Zn24 O31 1.919 . S
Zn24 O36 1.924 . S
O25 Zn24 1.949 . S
O25 Zn26 1.923 . S
O25 Zn27 1.950 . S
O25 Zn28 1.945 . S
Zn26 O25 1.923 . S
Zn26 O29 1.933 . S
Zn26 O32 1.941 . S
Zn26 O33 1.965 . S
Zn27 O25 1.950 . S
Zn27 O34 1.938 . S
Zn27 O35 1.906 . S
Zn27 O45 1.953 . S
Zn28 O25 1.945 . S
Zn28 O30 1.932 . S
Zn28 O37 1.977 . S
Zn28 O38 1.910 . S
O29 Zn26 1.933 . S
O29 C40 1.226 . S
O30 Zn28 1.932 . S
O30 C40 1.307 . S
O31 Zn24 1.919 . S
O31 C42 1.253 . S
O32 Zn26 1.941 . S
O32 C42 1.283 . S
O33 Zn26 1.965 . S
O33 C41 1.303 . S
O34 Zn27 1.938 . S
O34 C41 1.247 . S
O35 Zn27 1.906 . S
O35 C43 1.304 . S
O36 Zn24 1.924 . S
O36 C44 1.311 . S
O37 Zn28 1.977 . S
O37 C43 1.272 . S
O38 Zn28 1.910 . S
O38 C44 1.231 . S
C39 O23 1.225 . S
C39 O45 1.298 . S
C40 O29 1.226 . S
C40 O30 1.307 . S
C41 O33 1.303 . S
C41 O34 1.247 . S
C42 O31 1.253 . S
C42 O32 1.283 . S
C43 O35 1.304 . S
C43 O37 1.272 . S
C44 O36 1.311 . S
C44 O38 1.231 . S
O45 Zn27 1.953 . S
O45 C39 1.298 . S
C46 C47 1.394 1_455 S
C46 C48 1.397 . S
C46 H70 0.931 . S
C47 C46 1.394 1_655 S
C47 C51 1.389 1_665 S
C48 C46 1.397 . S
C48 C49 1.384 . S
C48 H71 0.930 . S
C49 C48 1.384 . S
C49 C50 1.377 1_565 S
C49 C52 1.481 . S
C50 C49 1.377 1_545 S
C50 C51 1.389 . S
C50 H72 0.929 . S
C51 C47 1.389 1_445 S
C51 C50 1.389 . S
C51 H73 0.931 . S
C52 C49 1.481 . S
C52 C53 1.394 . S
C52 C57 1.383 1_465 S
C53 C52 1.394 . S
C53 C54 1.401 . S
C53 H74 0.930 . S
C54 C53 1.401 . S
C54 C55 1.376 1_455 S
C54 C63 1.511 . S
C55 C54 1.376 1_655 S
C55 C56 1.392 1_565 S
C55 H76 0.931 . S
C56 C55 1.392 1_545 S
C56 C57 1.361 . S
C56 C58 1.500 . S
C57 C52 1.383 1_645 S
C57 C56 1.361 . S
C57 H75 0.931 . S
C58 C56 1.500 . S
C58 C59 1.371 . S
C58 C60 1.365 . S
C59 C58 1.371 . S
C59 C69 1.386 . S
C59 H77 0.931 . S
C60 C58 1.365 . S
C60 C61 1.409 . S
C60 H78 0.929 . S
C61 C60 1.409 . S
C61 C62 1.380 . S
C61 H79 0.930 . S
C62 C61 1.380 . S
C62 C69 1.357 . S
C63 C54 1.511 . S
C63 C64 1.341 . S
C63 C65 1.371 . S
C64 C63 1.341 . S
C64 C68 1.394 . S
C64 H80 0.930 . S
C65 C63 1.371 . S
C65 C66 1.392 . S
C65 H81 0.931 . S
C66 C65 1.392 . S
C66 C67 1.331 . S
C66 H84 0.932 . S
C67 C66 1.331 . S
C67 C68 1.336 . S
C68 C64 1.394 . S
C68 C67 1.336 . S
C68 H83 0.929 . S
C69 C59 1.386 . S
C69 C62 1.357 . S
C69 H82 0.928 . S
H70 C46 0.931 . S
H71 C48 0.930 . S
H72 C50 0.929 . S
H73 C51 0.931 . S
H74 C53 0.930 . S
H75 C57 0.931 . S
H76 C55 0.931 . S
H77 C59 0.931 . S
H78 C60 0.929 . S
H79 C61 0.930 . S
H80 C64 0.930 . S
H81 C65 0.931 . S
H82 C69 0.928 . S
H83 C68 0.929 . S
H84 C66 0.932 . S
C85 C86 1.386 . S
C85 C87 1.397 . S
C85 H109 0.931 . S
C86 C85 1.386 . S
C86 C90 1.397 1_545 S
C87 C85 1.397 . S
C87 C88 1.384 . S
C87 H110 0.930 . S
C88 C87 1.384 . S
C88 C89 1.377 1_545 S
C88 C91 1.481 . S
C89 C88 1.377 1_565 S
C89 C90 1.389 . S
C89 H111 0.929 . S
C90 C86 1.397 1_565 S
C90 C89 1.389 . S
C90 H112 0.931 . S
C91 C88 1.481 . S
C91 C92 1.387 . S
C91 C96 1.390 1_445 S
C92 C91 1.387 . S
C92 C93 1.401 . S
C92 H113 0.930 . S
C93 C92 1.401 . S
C93 C94 1.376 . S
C93 C102 1.511 . S
C94 C93 1.376 . S
C94 C95 1.392 1_445 S
C94 H115 0.931 . S
C95 C94 1.392 1_665 S
C95 C96 1.361 . S
C95 C97 1.500 . S
C96 C91 1.390 1_665 S
C96 C95 1.361 . S
C96 H114 0.931 . S
C97 C95 1.500 . S
C97 C98 1.371 . S
C97 C99 1.365 . S
C98 C97 1.371 . S
C98 C108 1.386 . S
C98 H116 0.931 . S
C99 C97 1.365 . S
C99 C100 1.409 . S
C99 H117 0.929 . S
C100 C99 1.409 . S
C100 C101 1.380 . S
C100 H118 0.930 . S
C101 C100 1.380 . S
C101 C108 1.357 . S
C102 C93 1.511 . S
C102 C103 1.341 . S
C102 C104 1.371 . S
C103 C102 1.341 . S
C103 C107 1.394 . S
C103 H119 0.930 . S
C104 C102 1.371 . S
C104 C105 1.392 . S
C104 H120 0.931 . S
C105 C104 1.392 . S
C105 C106 1.331 . S
C105 H123 0.932 . S
C106 C105 1.331 . S
C106 C107 1.336 . S
C107 C103 1.394 . S
C107 C106 1.336 . S
C107 H122 0.929 . S
C108 C98 1.386 . S
C108 C101 1.357 . S
C108 H121 0.928 . S
H109 C85 0.931 . S
H110 C87 0.930 . S
H111 C89 0.929 . S
H112 C90 0.931 . S
H113 C92 0.930 . S
H114 C96 0.931 . S
H115 C94 0.931 . S
H116 C98 0.931 . S
H117 C99 0.929 . S
H118 C100 0.930 . S
H119 C103 0.930 . S
H120 C104 0.931 . S
H121 C108 0.928 . S
H122 C107 0.929 . S
H123 C105 0.932 . S
C124 C125 1.386 . S
C124 C126 1.397 . S
C124 H148 0.931 . S
C125 C124 1.386 . S
C125 C129 1.397 . S
C126 C124 1.397 . S
C126 C127 1.384 . S
C126 H149 0.930 . S
C127 C126 1.384 . S
C127 C128 1.377 . S
C127 C130 1.481 . S
C128 C127 1.377 . S
C128 C129 1.389 . S
C128 H150 0.929 . S
C129 C125 1.397 . S
C129 C128 1.389 . S
C129 H151 0.931 . S
C130 C127 1.481 . S
C130 C131 1.387 . S
C130 C135 1.390 . S
C131 C130 1.387 . S
C131 C132 1.401 . S
C131 H152 0.930 . S
C132 C131 1.401 . S
C132 C133 1.376 . S
C132 C141 1.511 . S
C133 C132 1.376 . S
C133 C134 1.392 . S
C133 H154 0.931 . S
C134 C133 1.392 . S
C134 C135 1.361 . S
C134 C136 1.500 . S
C135 C130 1.390 . S
C135 C134 1.361 . S
C135 H153 0.931 . S
C136 C134 1.500 . S
C136 C137 1.371 . S
C136 C138 1.365 . S
C137 C136 1.371 . S
C137 C147 1.386 . S
C137 H155 0.931 . S
C138 C136 1.365 . S
C138 C139 1.409 . S
C138 H156 0.929 . S
C139 C138 1.409 . S
C139 C140 1.380 . S
C139 H157 0.930 . S
C140 C139 1.380 . S
C140 C147 1.357 . S
C141 C132 1.511 . S
C141 C142 1.341 . S
C141 C143 1.371 . S
C142 C141 1.341 . S
C142 C146 1.394 . S
C142 H158 0.930 . S
C143 C141 1.371 . S
C143 C144 1.392 . S
C143 H159 0.931 . S
C144 C143 1.392 . S
C144 C145 1.331 . S
C144 H162 0.932 1_556 S
C145 C144 1.331 . S
C145 C146 1.336 . S
C146 C142 1.394 . S
C146 C145 1.336 . S
C146 H161 0.929 . S
C147 C137 1.386 . S
C147 C140 1.357 . S
C147 H160 0.928 . S
H148 C124 0.931 . S
H149 C126 0.930 . S
H150 C128 0.929 . S
H151 C129 0.931 . S
H152 C131 0.930 . S
H153 C135 0.931 . S
H154 C133 0.931 . S
H155 C137 0.931 . S
H156 C138 0.929 . S
H157 C139 0.930 . S
H158 C142 0.930 . S
H159 C143 0.931 . S
H160 C147 0.928 . S
H161 C146 0.929 . S
H162 C144 0.932 1_554 S
C163 C164 1.386 . S
C163 C165 1.397 . S
C163 H187 0.931 . S
C164 C163 1.386 . S
C164 C168 1.397 . S
C165 C163 1.397 . S
C165 C166 1.384 . S
C165 H188 0.930 . S
C166 C165 1.384 . S
C166 C167 1.377 . S
C166 C169 1.481 . S
C167 C166 1.377 . S
C167 C168 1.389 . S
C167 H189 0.929 . S
C168 C164 1.397 . S
C168 C167 1.389 . S
C168 H190 0.931 . S
C169 C166 1.481 . S
C169 C170 1.387 . S
C169 C174 1.390 . S
C170 C169 1.387 . S
C170 C171 1.401 . S
C170 H191 0.930 . S
C171 C170 1.401 . S
C171 C172 1.376 . S
C171 C180 1.511 . S
C172 C171 1.376 . S
C172 C173 1.392 . S
C172 H193 0.931 . S
C173 C172 1.392 . S
C173 C174 1.361 . S
C173 C175 1.500 . S
C174 C169 1.390 . S
C174 C173 1.361 . S
C174 H192 0.931 . S
C175 C173 1.500 . S
C175 C176 1.371 . S
C175 C177 1.365 . S
C176 C175 1.371 . S
C176 C186 1.386 . S
C176 H194 0.931 . S
C177 C175 1.365 . S
C177 C178 1.409 . S
C177 H195 0.929 . S
C178 C177 1.409 . S
C178 C179 1.380 . S
C178 H196 0.930 . S
C179 C178 1.380 . S
C179 C186 1.357 . S
C180 C171 1.511 . S
C180 C181 1.341 . S
C180 C182 1.371 . S
C181 C180 1.341 . S
C181 C185 1.394 . S
C181 H197 0.930 . S
C182 C180 1.371 . S
C182 C183 1.392 . S
C182 H198 0.931 . S
C183 C182 1.392 . S
C183 C184 1.331 . S
C183 H201 0.932 . S
C184 C183 1.331 . S
C184 C185 1.336 . S
C185 C181 1.394 . S
C185 C184 1.336 . S
C185 H200 0.929 . S
C186 C176 1.386 . S
C186 C179 1.357 . S
C186 H199 0.928 . S
H187 C163 0.931 . S
H188 C165 0.930 . S
H189 C167 0.929 . S
H190 C168 0.931 . S
H191 C170 0.930 . S
H192 C174 0.931 . S
H193 C172 0.931 . S
H194 C176 0.931 . S
H195 C177 0.929 . S
H196 C178 0.930 . S
H197 C181 0.930 . S
H198 C182 0.931 . S
H199 C186 0.928 . S
H200 C185 0.929 . S
H201 C183 0.932 . S
C202 C203 1.363 . S
C202 C208 1.379 . S
C202 N210 1.356 . S
C203 C202 1.363 . S
C203 C209 1.363 . S
C204 C205 1.363 . S
C204 C209 1.379 . S
C204 N211 1.356 . S
C205 C204 1.363 . S
C205 C208 1.363 . S
N206 C208 1.356 . S
N206 H218 0.984 . S
N206 H219 0.985 . S
N207 C209 1.356 . S
N207 H212 0.984 . S
N207 H213 0.985 . S
C208 C202 1.379 . S
C208 C205 1.363 . S
C208 N206 1.356 . S
C209 C203 1.363 . S
C209 C204 1.379 . S
C209 N207 1.356 . S
N210 C202 1.356 . S
N210 H216 0.984 . S
N210 H217 0.984 . S
N211 C204 1.356 . S
N211 H214 0.984 . S
N211 H215 0.985 . S
H212 N207 0.984 . S
H213 N207 0.985 . S
H214 N211 0.984 . S
H215 N211 0.985 . S
H216 N210 0.984 . S
H217 N210 0.984 . S
H218 N206 0.984 . S
H219 N206 0.985 . S
C220 C221 1.363 . S
C220 C226 1.379 . S
C220 N228 1.356 . S
C221 C220 1.363 . S
C221 C227 1.363 . S
C222 C223 1.363 . S
C222 C227 1.379 . S
C222 N229 1.356 . S
C223 C222 1.363 . S
C223 C226 1.363 . S
N224 C226 1.356 . S
N224 H236 0.984 . S
N224 H237 0.985 . S
N225 C227 1.356 1_554 S
N225 H230 0.984 . S
N225 H231 0.985 . S
C226 C220 1.379 . S
C226 C223 1.363 . S
C226 N224 1.356 . S
C227 C221 1.363 . S
C227 C222 1.379 . S
C227 N225 1.356 1_556 S
N228 C220 1.356 . S
N228 H234 0.984 . S
N228 H235 0.984 . S
N229 C222 1.356 . S
N229 H232 0.984 . S
N229 H233 0.985 1_556 S
H230 N225 0.984 . S
H231 N225 0.985 . S
H232 N229 0.984 . S
H233 N229 0.985 1_554 S
H234 N228 0.984 . S
H235 N228 0.984 . S
H236 N224 0.984 . S
H237 N224 0.985 . S
C238 C239 1.363 . S
C238 C244 1.379 . S
C238 N246 1.356 . S
C239 C238 1.363 . S
C239 C245 1.363 . S
C240 C241 1.363 . S
C240 C245 1.379 . S
C240 N247 1.356 . S
C241 C240 1.363 . S
C241 C244 1.363 . S
N242 C244 1.356 . S
N242 H254 0.984 . S
N242 H255 0.985 . S
N243 C245 1.356 . S
N243 H248 0.984 . S
N243 H249 0.985 . S
C244 C238 1.379 . S
C244 C241 1.363 . S
C244 N242 1.356 . S
C245 C239 1.363 . S
C245 C240 1.379 . S
C245 N243 1.356 . S
N246 C238 1.356 . S
N246 H252 0.984 . S
N246 H253 0.984 . S
N247 C240 1.356 . S
N247 H250 0.984 . S
N247 H251 0.985 . S
H248 N243 0.984 . S
H249 N243 0.985 . S
H250 N247 0.984 . S
H251 N247 0.985 . S
H252 N246 0.984 . S
H253 N246 0.984 . S
H254 N242 0.984 . S
H255 N242 0.985 . S
C256 C257 1.363 . S
C256 C262 1.379 . S
C256 N264 1.356 . S
C257 C256 1.363 . S
C257 C263 1.363 1_556 S
C258 C259 1.363 1_554 S
C258 C263 1.379 . S
C258 N265 1.356 . S
C259 C258 1.363 1_556 S
C259 C262 1.363 . S
N260 C262 1.356 . S
N260 H272 0.984 . S
N260 H273 0.985 . S
N261 C263 1.356 . S
N261 H266 0.984 . S
N261 H267 0.985 . S
C262 C256 1.379 . S
C262 C259 1.363 . S
C262 N260 1.356 . S
C263 C257 1.363 1_554 S
C263 C258 1.379 . S
C263 N261 1.356 . S
N264 C256 1.356 . S
N264 H270 0.984 . S
N264 H271 0.984 . S
N265 C258 1.356 . S
N265 H268 0.984 . S
N265 H269 0.985 . S
H266 N261 0.984 . S
H267 N261 0.985 . S
H268 N265 0.984 . S
H269 N265 0.985 . S
H270 N264 0.984 . S
H271 N264 0.984 . S
H272 N260 0.984 . S
H273 N260 0.985 . S
C274 C275 1.363 . S
C274 C280 1.379 . S
C274 N282 1.356 . S
C275 C274 1.363 . S
C275 C281 1.363 . S
C276 C277 1.363 . S
C276 C281 1.379 . S
C276 N283 1.356 . S
C277 C276 1.363 . S
C277 C280 1.363 . S
N278 C280 1.356 . S
N278 H290 0.984 . S
N278 H291 0.985 . S
N279 C281 1.356 . S
N279 H284 0.984 . S
N279 H285 0.985 . S
C280 C274 1.379 . S
C280 C277 1.363 . S
C280 N278 1.356 . S
C281 C275 1.363 . S
C281 C276 1.379 . S
C281 N279 1.356 . S
N282 C274 1.356 . S
N282 H288 0.984 . S
N282 H289 0.984 . S
N283 C276 1.356 . S
N283 H286 0.984 . S
N283 H287 0.985 . S
H284 N279 0.984 . S
H285 N279 0.985 . S
H286 N283 0.984 . S
H287 N283 0.985 . S
H288 N282 0.984 . S
H289 N282 0.984 . S
H290 N278 0.984 . S
H291 N278 0.985 . S
C292 C293 1.363 . S
C292 C298 1.379 . S
C292 N300 1.356 . S
C293 C292 1.363 . S
C293 C299 1.363 . S
C294 C295 1.363 . S
C294 C299 1.379 . S
C294 N301 1.356 . S
C295 C294 1.363 . S
C295 C298 1.363 . S
N296 C298 1.356 . S
N296 H308 0.984 . S
N296 H309 0.985 . S
N297 C299 1.356 . S
N297 H302 0.984 . S
N297 H303 0.985 . S
C298 C292 1.379 . S
C298 C295 1.363 . S
C298 N296 1.356 . S
C299 C293 1.363 . S
C299 C294 1.379 . S
C299 N297 1.356 . S
N300 C292 1.356 . S
N300 H306 0.984 . S
N300 H307 0.984 . S
N301 C294 1.356 . S
N301 H304 0.984 . S
N301 H305 0.985 . S
H302 N297 0.984 . S
H303 N297 0.985 . S
H304 N301 0.984 . S
H305 N301 0.985 . S
H306 N300 0.984 . S
H307 N300 0.984 . S
H308 N296 0.984 . S
H309 N296 0.985 . S
C310 C311 1.363 . S
C310 C316 1.379 . S
C310 N318 1.356 . S
C311 C310 1.363 . S
C311 C317 1.363 . S
C312 C313 1.363 . S
C312 C317 1.379 . S
C312 N319 1.356 . S
C313 C312 1.363 . S
C313 C316 1.363 . S
N314 C316 1.356 . S
N314 H326 0.984 . S
N314 H327 0.985 . S
N315 C317 1.356 . S
N315 H320 0.984 . S
N315 H321 0.985 . S
C316 C310 1.379 . S
C316 C313 1.363 . S
C316 N314 1.356 . S
C317 C311 1.363 . S
C317 C312 1.379 . S
C317 N315 1.356 . S
N318 C310 1.356 . S
N318 H324 0.984 . S
N318 H325 0.984 . S
N319 C312 1.356 . S
N319 H322 0.984 . S
N319 H323 0.985 . S
H320 N315 0.984 . S
H321 N315 0.985 . S
H322 N319 0.984 . S
H323 N319 0.985 . S
H324 N318 0.984 . S
H325 N318 0.984 . S
H326 N314 0.984 . S
H327 N314 0.985 . S
C328 C329 1.363 . S
C328 C334 1.379 . S
C328 N336 1.356 . S
C329 C328 1.363 . S
C329 C335 1.363 . S
C330 C331 1.363 . S
C330 C335 1.379 . S
C330 N337 1.356 . S
C331 C330 1.363 . S
C331 C334 1.363 . S
N332 C334 1.356 . S
N332 H344 0.984 . S
N332 H345 0.985 . S
N333 C335 1.356 . S
N333 H338 0.984 . S
N333 H339 0.985 . S
C334 C328 1.379 . S
C334 C331 1.363 . S
C334 N332 1.356 . S
C335 C329 1.363 . S
C335 C330 1.379 . S
C335 N333 1.356 . S
N336 C328 1.356 . S
N336 H342 0.984 . S
N336 H343 0.984 . S
N337 C330 1.356 . S
N337 H340 0.984 . S
N337 H341 0.985 . S
H338 N333 0.984 . S
H339 N333 0.985 . S
H340 N337 0.984 . S
H341 N337 0.985 . S
H342 N336 0.984 . S
H343 N336 0.984 . S
H344 N332 0.984 . S
H345 N332 0.985 . S
C346 C347 1.363 1_665 S
C346 C352 1.379 . S
C346 N354 1.356 . S
C347 C346 1.363 1_445 S
C347 C353 1.363 . S
C348 C349 1.363 . S
C348 C353 1.379 . S
C348 N355 1.356 . S
C349 C348 1.363 . S
C349 C352 1.363 1_445 S
N350 C352 1.356 . S
N350 H362 0.984 . S
N350 H363 0.985 . S
N351 C353 1.356 . S
N351 H356 0.984 . S
N351 H357 0.985 . S
C352 C346 1.379 . S
C352 C349 1.363 1_665 S
C352 N350 1.356 . S
C353 C347 1.363 . S
C353 C348 1.379 . S
C353 N351 1.356 . S
N354 C346 1.356 . S
N354 H360 0.984 . S
N354 H361 0.984 . S
N355 C348 1.356 . S
N355 H358 0.984 . S
N355 H359 0.985 . S
H356 N351 0.984 . S
H357 N351 0.985 . S
H358 N355 0.984 . S
H359 N355 0.985 . S
H360 N354 0.984 . S
H361 N354 0.984 . S
H362 N350 0.984 . S
H363 N350 0.985 . S
C364 C365 1.363 1_655 S
C364 C370 1.379 . S
C364 N372 1.356 . S
C365 C364 1.363 1_455 S
C365 C371 1.363 1_545 S
C366 C367 1.363 1_565 S
C366 C371 1.379 . S
C366 N373 1.356 . S
C367 C366 1.363 1_545 S
C367 C370 1.363 1_455 S
N368 C370 1.356 . S
N368 H380 0.984 . S
N368 H381 0.985 . S
N369 C371 1.356 . S
N369 H374 0.984 . S
N369 H375 0.985 . S
C370 C364 1.379 . S
C370 C367 1.363 1_655 S
C370 N368 1.356 . S
C371 C365 1.363 1_565 S
C371 C366 1.379 . S
C371 N369 1.356 . S
N372 C364 1.356 . S
N372 H378 0.984 . S
N372 H379 0.984 . S
N373 C366 1.356 . S
N373 H376 0.984 . S
N373 H377 0.985 . S
H374 N369 0.984 . S
H375 N369 0.985 . S
H376 N373 0.984 . S
H377 N373 0.985 . S
H378 N372 0.984 . S
H379 N372 0.984 . S
H380 N368 0.984 . S
H381 N368 0.985 . S
C382 C383 1.363 . S
C382 C388 1.379 . S
C382 N390 1.356 . S
C383 C382 1.363 . S
C383 C389 1.363 . S
C384 C385 1.363 . S
C384 C389 1.379 . S
C384 N391 1.356 . S
C385 C384 1.363 . S
C385 C388 1.363 . S
N386 C388 1.356 . S
N386 H398 0.984 . S
N386 H399 0.985 . S
N387 C389 1.356 . S
N387 H392 0.984 . S
N387 H393 0.985 . S
C388 C382 1.379 . S
C388 C385 1.363 . S
C388 N386 1.356 . S
C389 C383 1.363 . S
C389 C384 1.379 . S
C389 N387 1.356 . S
N390 C382 1.356 . S
N390 H396 0.984 . S
N390 H397 0.984 . S
N391 C384 1.356 . S
N391 H394 0.984 . S
N391 H395 0.985 . S
H392 N387 0.984 . S
H393 N387 0.985 . S
H394 N391 0.984 . S
H395 N391 0.985 . S
H396 N390 0.984 . S
H397 N390 0.984 . S
H398 N386 0.984 . S
H399 N386 0.985 . S
C400 C401 1.363 . S
C400 C406 1.379 . S
C400 N408 1.356 . S
C401 C400 1.363 . S
C401 C407 1.363 . S
C402 C403 1.363 . S
C402 C407 1.379 . S
C402 N409 1.356 . S
C403 C402 1.363 . S
C403 C406 1.363 . S
N404 C406 1.356 . S
N404 H416 0.984 . S
N404 H417 0.985 . S
N405 C407 1.356 . S
N405 H410 0.984 . S
N405 H411 0.985 . S
C406 C400 1.379 . S
C406 C403 1.363 . S
C406 N404 1.356 . S
C407 C401 1.363 . S
C407 C402 1.379 . S
C407 N405 1.356 . S
N408 C400 1.356 . S
N408 H414 0.984 . S
N408 H415 0.984 . S
N409 C402 1.356 . S
N409 H412 0.984 . S
N409 H413 0.985 . S
H410 N405 0.984 . S
H411 N405 0.985 . S
H412 N409 0.984 . S
H413 N409 0.985 . S
H414 N408 0.984 . S
H415 N408 0.984 . S
H416 N404 0.984 . S
H417 N404 0.985 . S
C205 C179 1.485 . S
C203 C21 1.491 . S
C221 C19 1.481 . S
C223 C140 1.481 . S
C239 C18 1.464 . S
C241 C184 1.463 . S
C257 C20 1.483 . S
C259 C145 1.474 . S
C275 C44 1.491 . S
C277 C101 1.485 . S
C293 C42 1.481 . S
C295 C62 1.480 . S
C313 C106 1.463 . S
C311 C41 1.463 . S
C331 C67 1.474 . S
C329 C43 1.483 . S
C347 C16 1.497 . S
C349 C47 1.496 1_445 S
C365 C17 1.465 . S
C367 C86 1.465 . S
C385 C125 1.496 . S
C383 C39 1.497 . S
C401 C40 1.465 . S
C403 C164 1.465 . S
