# Generated by pormake.
# Topology zzz, (3,6)-cn, num edge types: 1
# Building blocks:
#     Node 0, Type 0, BuildingBlock: BELTOD_clean_linker_0, # of connection points: 3
#     Node 1, Type 0, BuildingBlock: BELTOD_clean_linker_0, # of connection points: 3
#     Node 2, Type 0, BuildingBlock: BELTOD_clean_linker_0, # of connection points: 3
#     Node 3, Type 0, BuildingBlock: BELTOD_clean_linker_0, # of connection points: 3
#     Node 4, Type 0, BuildingBlock: BELTOD_clean_linker_0, # of connection points: 3
#     Node 5, Type 0, BuildingBlock: BELTOD_clean_linker_0, # of connection points: 3
#     Node 6, Type 0, BuildingBlock: BELTOD_clean_linker_0, # of connection points: 3
#     Node 7, Type 0, BuildingBlock: BELTOD_clean_linker_0, # of connection points: 3
#     Node 8, Type 1, BuildingBlock: MIFKUJ_clean_sbu_0, # of connection points: 6
#     Node 9, Type 1, BuildingBlock: MIFKUJ_clean_sbu_0, # of connection points: 6
#     Node 10, Type 1, BuildingBlock: MIFKUJ_clean_sbu_0, # of connection points: 6
#     Node 11, Type 1, BuildingBlock: MIFKUJ_clean_sbu_0, # of connection points: 6
#     Edge 12, Type (0, 1), BuildingBlock: KIFKEQ_clean_linker_1, # of connection points: 2
#     Edge 13, Type (0, 1), BuildingBlock: KIFKEQ_clean_linker_1, # of connection points: 2
#     Edge 14, Type (0, 1), BuildingBlock: KIFKEQ_clean_linker_1, # of connection points: 2
#     Edge 15, Type (0, 1), BuildingBlock: KIFKEQ_clean_linker_1, # of connection points: 2
#     Edge 16, Type (0, 1), BuildingBlock: KIFKEQ_clean_linker_1, # of connection points: 2
#     Edge 17, Type (0, 1), BuildingBlock: KIFKEQ_clean_linker_1, # of connection points: 2
#     Edge 18, Type (0, 1), BuildingBlock: KIFKEQ_clean_linker_1, # of connection points: 2
#     Edge 19, Type (0, 1), BuildingBlock: KIFKEQ_clean_linker_1, # of connection points: 2
#     Edge 20, Type (0, 1), BuildingBlock: KIFKEQ_clean_linker_1, # of connection points: 2
#     Edge 21, Type (0, 1), BuildingBlock: KIFKEQ_clean_linker_1, # of connection points: 2
#     Edge 22, Type (0, 1), BuildingBlock: KIFKEQ_clean_linker_1, # of connection points: 2
#     Edge 23, Type (0, 1), BuildingBlock: KIFKEQ_clean_linker_1, # of connection points: 2
#     Edge 24, Type (0, 1), BuildingBlock: KIFKEQ_clean_linker_1, # of connection points: 2
#     Edge 25, Type (0, 1), BuildingBlock: KIFKEQ_clean_linker_1, # of connection points: 2
#     Edge 26, Type (0, 1), BuildingBlock: KIFKEQ_clean_linker_1, # of connection points: 2
#     Edge 27, Type (0, 1), BuildingBlock: KIFKEQ_clean_linker_1, # of connection points: 2
#     Edge 28, Type (0, 1), BuildingBlock: KIFKEQ_clean_linker_1, # of connection points: 2
#     Edge 29, Type (0, 1), BuildingBlock: KIFKEQ_clean_linker_1, # of connection points: 2
#     Edge 30, Type (0, 1), BuildingBlock: KIFKEQ_clean_linker_1, # of connection points: 2
#     Edge 31, Type (0, 1), BuildingBlock: KIFKEQ_clean_linker_1, # of connection points: 2
#     Edge 32, Type (0, 1), BuildingBlock: KIFKEQ_clean_linker_1, # of connection points: 2
#     Edge 33, Type (0, 1), BuildingBlock: KIFKEQ_clean_linker_1, # of connection points: 2
#     Edge 34, Type (0, 1), BuildingBlock: KIFKEQ_clean_linker_1, # of connection points: 2
#     Edge 35, Type (0, 1), BuildingBlock: KIFKEQ_clean_linker_1, # of connection points: 2
# Relax obj value: 0.288
# Max RMSD: 0.197
# Mean RMSD: 0.181
data_MOF--net-zzz--node1-MIFKUJ_clean_sbu_0--node2-BELTOD_clean_linker_0--edge1-KIFKEQ_clean_linker_1
_symmetry_space_group_name_H-M    P1
_symmetry_Int_Tables_number       1
_symmetry_cell_setting            triclinic
loop_
_symmetry_equiv_pos_as_xyz
'x, y, z'
_cell_length_a     54.110676
_cell_length_b     54.597042
_cell_length_c     20.058522
_cell_angle_alpha  89.559589
_cell_angle_beta   89.705708
_cell_angle_gamma 91.220631
loop_
_atom_site_label
_atom_site_type_symbol
_atom_site_fract_x
_atom_site_fract_y
_atom_site_fract_z
_atom_type_partial_charge
P0 P 0.72969 0.55356 0.07363 0.0
H1 H 0.73739 0.52859 0.20014 0.0
H2 H 0.76654 0.53726 0.2889 0.0
H3 H 0.77962 0.61001 0.20798 0.0
H4 H 0.75003 0.6011 0.1187 0.0
H5 H 0.68527 0.52304 0.06129 0.0
H6 H 0.64728 0.53044 0.00082 0.0
H7 H 0.66706 0.60721 0.98374 0.0
H8 H 0.7052 0.59984 0.04643 0.0
H9 H 0.78206 0.56739 0.06088 0.0
H10 H 0.71812 0.56316 0.9329 0.0
O11 O 0.73239 0.52317 0.07117 0.0
H12 H 0.80785 0.57803 0.9653 0.0
H13 H 0.74429 0.57325 0.83674 0.0
C14 C 0.74214 0.56394 0.1518 0.0
C15 C 0.7458 0.54674 0.20271 0.0
C16 C 0.76252 0.55177 0.25375 0.0
C17 C 0.7759 0.57415 0.25467 0.0
C18 C 0.76998 0.59242 0.20784 0.0
C19 C 0.7529 0.58744 0.15717 0.0
C20 C 0.69806 0.5609 0.05823 0.0
C21 C 0.68101 0.54169 0.04763 0.0
C22 C 0.65932 0.5459 0.01272 0.0
C23 C 0.6545 0.56933 0.98746 0.0
C24 C 0.67053 0.589 0.00286 0.0
C25 C 0.69208 0.58485 0.03922 0.0
C26 C 0.7479 0.56545 0.00498 0.0
C27 C 0.77329 0.56988 0.01303 0.0
C28 C 0.78807 0.57607 0.95826 0.0
C29 C 0.77785 0.577 0.89415 0.0
C30 C 0.75236 0.57321 0.88606 0.0
C31 C 0.73749 0.56737 0.94114 0.0
P32 P 0.0268 0.73363 0.11357 0.0
H33 H 0.03867 0.73902 0.25469 0.0
H34 H 0.02809 0.77147 0.33191 0.0
H35 H 0.97126 0.79539 0.19719 0.0
H36 H 0.98145 0.76233 0.12121 0.0
H37 H 0.05424 0.69311 0.06269 0.0
H38 H 0.0414 0.65886 0.99319 0.0
H39 H 0.96498 0.67384 0.03461 0.0
H40 H 0.97794 0.7086 0.10516 0.0
H41 H 0.04271 0.78379 0.08907 0.0
H42 H 0.00414 0.72694 0.97943 0.0
O43 O 0.05681 0.73298 0.13225 0.0
H44 H 0.03742 0.81196 0.99474 0.0
H45 H -0.00128 0.75523 0.88628 0.0
C46 C 0.01126 0.74858 0.18143 0.0
C47 C 0.02323 0.75056 0.24299 0.0
C48 C 0.01735 0.76938 0.28682 0.0
C49 C -0.00057 0.78664 0.26967 0.0
C50 C 0.98529 0.78261 0.2119 0.0
C51 C 0.9911 0.76361 0.16828 0.0
C52 C 0.01706 0.7032 0.09017 0.0
C53 C 0.03473 0.68843 0.0599 0.0
C54 C 0.02742 0.66898 0.01954 0.0
C55 C 0.0023 0.66394 0.00873 0.0
C56 C 0.98448 0.67743 0.04291 0.0
C57 C 0.99186 0.69703 0.08372 0.0
C58 C 0.02402 0.75322 0.04158 0.0
C59 C 0.03336 0.77728 0.04476 0.0
C60 C 0.03032 0.79331 0.99123 0.0
C61 C 0.01783 0.78546 0.93396 0.0
C62 C 0.00847 0.76145 0.93029 0.0
C63 C 0.01161 0.74534 0.98381 0.0
P64 P 0.76314 0.9639 0.09888 0.0
H65 H 0.76041 0.98316 0.23359 0.0
H66 H 0.72916 0.97556 0.31888 0.0
H67 H 0.7054 0.90967 0.21749 0.0
H68 H 0.73731 0.91727 0.13231 0.0
H69 H 0.80902 0.99238 0.08715 0.0
H70 H 0.84589 0.98523 0.02097 0.0
H71 H 0.82188 0.91035 0.98998 0.0
H72 H 0.78495 0.91734 0.05899 0.0
H73 H 0.7096 0.96158 0.09187 0.0
H74 H 0.77077 0.9512 0.95649 0.0
O75 O 0.76241 0.99437 0.10459 0.0
H76 H 0.68082 0.95132 0.00353 0.0
H77 H 0.74188 0.94041 0.86813 0.0
C78 C 0.75061 0.95125 0.17548 0.0
C79 C 0.74933 0.96644 0.23122 0.0
C80 C 0.7313 0.96204 0.28015 0.0
C81 C 0.71425 0.94237 0.27391 0.0
C82 C 0.71791 0.92527 0.22286 0.0
C83 C 0.73632 0.92949 0.17448 0.0
C84 C 0.79409 0.95545 0.07734 0.0
C85 C 0.81208 0.97407 0.06895 0.0
C86 C 0.83316 0.97002 0.03085 0.0
C87 C 0.83644 0.94736 -5e-05 0.0
C88 C 0.8196 0.92799 0.01329 0.0
C89 C 0.79871 0.93191 0.05316 0.0
C90 C 0.74243 0.95588 0.03224 0.0
C91 C 0.71691 0.95632 0.04384 0.0
C92 C 0.70045 0.9503 0.99332 0.0
C93 C 0.70917 0.94432 0.92954 0.0
C94 C 0.73473 0.94446 0.91728 0.0
C95 C 0.75125 0.95045 0.96814 0.0
P96 P 0.42612 0.77341 0.11708 0.0
H97 H 0.41343 0.75538 0.2508 0.0
H98 H 0.43185 0.72396 0.31991 0.0
H99 H 0.49568 0.72393 0.18946 0.0
H100 H 0.47653 0.75473 0.11879 0.0
H101 H 0.39978 0.8133 0.05855 0.0
H102 H 0.41355 0.84886 0.99447 0.0
H103 H 0.48912 0.83523 0.05004 0.0
H104 H 0.47499 0.79922 0.11468 0.0
H105 H 0.40151 0.72724 0.08494 0.0
H106 H 0.45481 0.77667 0.9916 0.0
O107 O 0.3967 0.77475 0.142 0.0
H108 H 0.40769 0.69785 0.99528 0.0
H109 H 0.46075 0.74763 0.9021 0.0
C110 C 0.44363 0.7576 0.17972 0.0
C111 C 0.43174 0.74924 0.2381 0.0
C112 C 0.44237 0.73118 0.27784 0.0
C113 C 0.46518 0.7211 0.25998 0.0
C114 C 0.47791 0.73094 0.20415 0.0
C115 C 0.46716 0.74891 0.16422 0.0
C116 C 0.43627 0.80374 0.09218 0.0
C117 C 0.41921 0.81847 0.05942 0.0
C118 C 0.42717 0.83885 0.02242 0.0
C119 C 0.45248 0.84488 0.01683 0.0
C120 C 0.46951 0.83093 0.05295 0.0
C121 C 0.46143 0.8105 0.09058 0.0
C122 C 0.42736 0.75429 0.0447 0.0
C123 C 0.41399 0.73206 0.04433 0.0
C124 C 0.41752 0.71533 0.99308 0.0
C125 C 0.43469 0.72052 0.94182 0.0
C126 C 0.44751 0.74313 0.94125 0.0
C127 C 0.44395 0.75984 0.99241 0.0
P128 P 0.26012 0.38559 0.13912 0.0
H129 H 0.24856 0.37011 0.00212 0.0
H130 H 0.22086 0.38723 0.91844 0.0
H131 H 0.21117 0.45087 0.04203 0.0
H132 H 0.23923 0.43403 0.12379 0.0
H133 H 0.29942 0.36562 0.21907 0.0
H134 H 0.33504 0.38476 0.27329 0.0
H135 H 0.32144 0.45237 0.16753 0.0
H136 H 0.28558 0.43316 0.11429 0.0
H137 H 0.20837 0.37229 0.15599 0.0
H138 H 0.26443 0.41098 0.26892 0.0
O139 O 0.26198 0.35562 0.12476 0.0
H140 H 0.17634 0.39109 0.22391 0.0
H141 H 0.23249 0.4292 0.3372 0.0
C142 C 0.24605 0.40081 0.06912 0.0
C143 C 0.24107 0.38808 0.01011 0.0
C144 C 0.22498 0.39778 0.96266 0.0
C145 C 0.2135 0.42032 0.97372 0.0
C146 C 0.21983 0.43365 0.03115 0.0
C147 C 0.23596 0.42401 0.07816 0.0
C148 C 0.29001 0.39782 0.16197 0.0
C149 C 0.30457 0.38433 0.20591 0.0
C150 C 0.32491 0.39535 0.23712 0.0
C151 C 0.33101 0.42018 0.22514 0.0
C152 C 0.31702 0.43333 0.17861 0.0
C153 C 0.29663 0.42226 0.14748 0.0
C154 C 0.23878 0.39041 0.20657 0.0
C155 C 0.21386 0.38387 0.1972 0.0
C156 C 0.1956 0.3947 0.23562 0.0
C157 C 0.20214 0.41176 0.28475 0.0
C158 C 0.22713 0.41607 0.29943 0.0
C159 C 0.2454 0.40558 0.26017 0.0
P160 P 0.03539 0.27425 0.08363 0.0
H161 H 0.05474 0.26326 0.95121 0.0
H162 H 0.04353 0.2307 0.87392 0.0
H163 H 0.97562 0.21713 0.98346 0.0
H164 H 0.98694 0.24981 0.06064 0.0
H165 H 0.06648 0.31358 0.13335 0.0
H166 H 0.05647 0.35069 0.1917 0.0
H167 H 0.98007 0.34177 0.13366 0.0
H168 H 0.9905 0.30433 0.0731 0.0
H169 H 0.05681 0.23345 0.15593 0.0
H170 H 0.9912 0.27682 0.17035 0.0
O171 O 0.06601 0.27167 0.07709 0.0
H172 H 0.0416 0.20768 0.24798 0.0
H173 H 0.97604 0.25104 0.26193 0.0
C174 C 0.02199 0.25871 0.01278 0.0
C175 C 0.03703 0.2539 0.95742 0.0
C176 C 0.03061 0.23513 0.9132 0.0
C177 C 0.00899 0.2208 0.92356 0.0
C178 C 0.99274 0.22736 0.97515 0.0
C179 C -0.00089 0.24628 0.01905 0.0
C180 C 0.02924 0.30606 0.09881 0.0
C181 C 0.04775 0.32007 0.13018 0.0
C182 C 0.04197 0.34139 0.16405 0.0
C183 C 0.01741 0.34904 0.16822 0.0
C184 C -0.00086 0.33616 0.13195 0.0
C185 C 0.00511 0.31493 0.09674 0.0
C186 C 0.02552 0.25747 0.15696 0.0
C187 C 0.03949 0.23786 0.17978 0.0
C188 C 0.0308 0.22319 0.23241 0.0
C189 C 0.0078 0.22768 0.26226 0.0
C190 C 0.9939 0.24742 0.23992 0.0
C191 C 0.00274 0.26226 0.18776 0.0
P192 P 0.22792 0.12167 0.10902 0.0
H193 H 0.24622 0.14117 0.98061 0.0
H194 H 0.27659 0.12548 0.90187 0.0
H195 H 0.2762 0.05658 0.00926 0.0
H196 H 0.24578 0.07228 0.08713 0.0
H197 H 0.18925 0.14173 0.19006 0.0
H198 H 0.15437 0.12212 0.24855 0.0
H199 H 0.16491 0.0561 0.13608 0.0
H200 H 0.20013 0.07577 0.07769 0.0
H201 H 0.2781 0.13726 0.14257 0.0
H202 H 0.22112 0.08988 0.22799 0.0
O203 O 0.22718 0.15198 0.09805 0.0
H204 H 0.30805 0.12027 0.22069 0.0
H205 H 0.25071 0.07327 0.30534 0.0
C206 C 0.24346 0.10782 0.03943 0.0
C207 C 0.25204 0.12242 0.98594 0.0
C208 C 0.26967 0.11352 0.94137 0.0
C209 C 0.27906 0.08986 0.94961 0.0
C210 C 0.26921 0.07478 0.00086 0.0
C211 C 0.25165 0.0837 0.04535 0.0
C212 C 0.19722 0.11033 0.12909 0.0
C213 C 0.18351 0.12338 0.1759 0.0
C214 C 0.16378 0.11207 0.20997 0.0
C215 C 0.15725 0.08754 0.19738 0.0
C216 C 0.16964 0.07506 0.14656 0.0
C217 C 0.18968 0.08634 0.11294 0.0
C218 C 0.24734 0.11497 0.17913 0.0
C219 C 0.27181 0.12393 0.17951 0.0
C220 C 0.28888 0.1142 0.22402 0.0
C221 C 0.28165 0.09526 0.26824 0.0
C222 C 0.25676 0.08764 0.27106 0.0
C223 C 0.23977 0.09734 0.22678 0.0
P224 P 0.48795 0.23796 0.09793 0.0
H225 H 0.46086 0.25188 0.9785 0.0
H226 H 0.46904 0.2842 0.89782 0.0
H227 H 0.54452 0.29047 0.96695 0.0
H228 H 0.53552 0.25883 0.0508 0.0
H229 H 0.4626 0.194 0.14631 0.0
H230 H 0.4778 0.15717 0.19959 0.0
H231 H 0.55256 0.17851 0.14675 0.0
H232 H 0.53716 0.21551 0.09088 0.0
H233 H 0.47897 0.28899 0.12069 0.0
H234 H 0.51941 0.23174 0.21881 0.0
O235 O 0.45709 0.23722 0.10063 0.0
H236 H 0.49698 0.31895 0.19696 0.0
H237 H 0.53757 0.26189 0.29476 0.0
C238 C 0.4975 0.25294 0.02115 0.0
C239 C 0.47942 0.2596 0.97509 0.0
C240 C 0.48421 0.27827 0.92846 0.0
C241 C 0.50736 0.29059 0.92627 0.0
C242 C 0.52624 0.28203 0.96816 0.0
C243 C 0.5213 0.26347 0.01537 0.0
C244 C 0.4987 0.20748 0.11395 0.0
C245 C 0.48216 0.19041 0.14321 0.0
C246 C 0.49084 0.16937 0.17407 0.0
C247 C 0.51626 0.16519 0.17712 0.0
C248 C 0.53285 0.18142 0.14447 0.0
C249 C 0.52404 0.20238 0.11217 0.0
C250 C 0.49819 0.25824 0.16283 0.0
C251 C 0.49154 0.28282 0.15887 0.0
C252 C 0.50195 0.29991 0.20202 0.0
C253 C 0.51906 0.29265 0.25028 0.0
C254 C 0.52464 0.26782 0.25719 0.0
C255 C 0.5143 0.25065 0.21345 0.0
Zn256 Zn 0.98127 0.03001 0.56664 0.0
Zn257 Zn 0.00911 0.98063 0.60213 0.0
C258 C 0.9791 0.06371 0.66959 0.0
O259 O 0.95624 0.06161 0.64826 0.0
C260 C 0.00985 0.95209 0.48681 0.0
O261 O 0.03331 0.95797 0.49485 0.0
O262 O 0.9667 0.05751 0.51283 0.0
O263 O 0.00719 0.01783 0.5012 0.0
O264 O 0.03549 0.00431 0.5691 0.0
C265 C 0.98481 0.07197 0.49916 0.0
O266 O 0.00692 0.06657 0.52078 0.0
O267 O 0.99521 0.04936 0.64605 0.0
C268 C 0.00735 0.93676 0.66335 0.0
O269 O 0.9846 0.94066 0.64434 0.0
O270 O 0.02419 0.95282 0.6516 0.0
O271 O 0.98391 0.9927 0.66792 0.0
O272 O 0.95523 0.00583 0.60041 0.0
O273 O 0.99391 0.96215 0.52399 0.0
C274 C 0.02982 0.01498 0.5151 0.0
C275 C 0.96123 0.99443 0.65316 0.0
Zn276 Zn 0.45545 0.01319 0.59755 0.0
Zn277 Zn 0.52702 0.00227 0.59622 0.0
C278 C 0.42675 0.0222 0.70946 0.0
O279 O 0.42421 0.99843 0.70145 0.0
C280 C 0.56223 0.0025 0.497 0.0
O281 O 0.56649 0.02304 0.52916 0.0
O282 O 0.42438 0.01002 0.54605 0.0
O283 O 0.47943 0.03157 0.53585 0.0
O284 O 0.5159 0.03694 0.58357 0.0
C285 C 0.42201 0.00932 0.48329 0.0
O286 O 0.44161 0.00665 0.44534 0.0
O287 O 0.44225 0.03401 0.6727 0.0
C288 C 0.56291 0.97804 0.65793 0.0
O289 O 0.55048 0.96169 0.62311 0.0
O290 O 0.556 1.0002 0.65722 0.0
O291 O 0.50368 0.97759 0.63792 0.0
O292 O 0.46309 0.98003 0.63468 0.0
O293 O 0.54253 0.99029 0.51069 0.0
C294 C 0.50098 0.0414 0.53656 0.0
C295 C 0.48238 0.96885 0.65152 0.0
Zn296 Zn 0.51333 0.4839 0.56697 0.0
Zn297 Zn 0.4817 0.53097 0.60751 0.0
C298 C 0.51594 0.45511 0.68788 0.0
O299 O 0.53762 0.46623 0.69222 0.0
C300 C 0.4807 0.55938 0.48861 0.0
O301 O 0.45778 0.55101 0.4907 0.0
O302 O 0.53319 0.45992 0.51593 0.0
O303 O 0.48553 0.49248 0.5036 0.0
O304 O 0.45731 0.50595 0.57296 0.0
C305 C 0.51918 0.44248 0.49643 0.0
O306 O 0.49535 0.44306 0.50873 0.0
O307 O 0.50108 0.46156 0.64228 0.0
C308 C 0.47971 0.57498 0.66896 0.0
O309 O 0.50259 0.57366 0.64736 0.0
O310 O 0.46481 0.55701 0.65923 0.0
O311 O 0.50722 0.51967 0.67192 0.0
O312 O 0.5361 0.51088 0.59992 0.0
O313 O 0.49616 0.5512 0.53043 0.0
C314 C 0.46295 0.49515 0.5193 0.0
C315 C 0.52966 0.52097 0.65381 0.0
Zn316 Zn 0.03904 0.4989 0.61129 0.0
Zn317 Zn 0.96203 0.5129 0.58247 0.0
C318 C 0.0672 0.48734 0.72695 0.0
O319 O 0.06452 0.51095 0.73552 0.0
C320 C 0.9257 0.52787 0.49588 0.0
O321 O 0.91783 0.50621 0.51671 0.0
O322 O 0.06613 0.50504 0.54606 0.0
O323 O 0.00932 0.48226 0.56321 0.0
O324 O 0.96955 0.4812 0.53841 0.0
C325 C 0.06415 0.50364 0.4833 0.0
O326 O 0.04212 0.50112 0.45672 0.0
O327 O 0.05588 0.47688 0.67902 0.0
C328 C 0.93065 0.53033 0.67212 0.0
O329 O 0.94389 0.54931 0.65116 0.0
O330 O 0.93591 0.50916 0.65159 0.0
O331 O 0.99336 0.5252 0.62267 0.0
O332 O 0.03102 0.53103 0.65569 0.0
O333 O 0.94677 0.53588 0.51478 0.0
C334 C 0.99094 0.47204 0.53364 0.0
C335 C 0.00881 0.53772 0.65598 0.0
H336 H 0.11503 0.0622 0.163 0.0
H337 H 0.1593 0.08356 0.33193 0.0
H338 H 0.0847 0.04245 0.23853 0.0
H339 H 0.1292 0.06396 0.40735 0.0
H340 H 0.08004 0.00849 0.52063 0.0
H341 H 0.11144 0.02371 0.4415 0.0
H342 H 0.0545 0.0564 0.32224 0.0
H343 H 0.02322 0.04097 0.40014 0.0
C344 C 0.11829 0.06249 0.21624 0.0
C345 C 0.13928 0.07457 0.24184 0.0
C346 C 0.10094 0.05133 0.25948 0.0
C347 C 0.10451 0.0517 0.32901 0.0
C348 C 0.12596 0.06318 0.35416 0.0
C349 C 0.14307 0.07459 0.31108 0.0
C350 C 0.07424 0.01883 0.47738 0.0
C351 C 0.04911 0.02351 0.46687 0.0
C352 C 0.09222 0.0276 0.43215 0.0
C353 C 0.08546 0.04121 0.37545 0.0
C354 C 0.06031 0.04564 0.36471 0.0
C355 C 0.04238 0.03689 0.40976 0.0
H356 H 0.53372 0.1706 0.30216 0.0
H357 H 0.51589 0.11618 0.15458 0.0
H358 H 0.53531 0.13866 0.38803 0.0
H359 H 0.51833 0.08394 0.23961 0.0
H360 H 0.47771 0.04747 0.41795 0.0
H361 H 0.48861 0.07534 0.32754 0.0
H362 H 0.5524 0.10117 0.4373 0.0
H363 H 0.54125 0.07311 0.52915 0.0
C364 C 0.53129 0.15161 0.28775 0.0
C365 C 0.52478 0.14568 0.2221 0.0
C366 C 0.53216 0.13331 0.33685 0.0
C367 C 0.52651 0.10878 0.32092 0.0
C368 C 0.52225 0.10273 0.25374 0.0
C369 C 0.52114 0.12106 0.20489 0.0
C370 C 0.49412 0.05899 0.42304 0.0
C371 C 0.50845 0.05819 0.48121 0.0
C372 C 0.50059 0.07479 0.3706 0.0
C373 C 0.52153 0.09038 0.37476 0.0
C374 C 0.53613 0.08942 0.43257 0.0
C375 C 0.52975 0.07336 0.48513 0.0
H376 H 0.37608 0.40225 0.25965 0.0
H377 H 0.33072 0.46596 0.28013 0.0
H378 H 0.40737 0.42132 0.33019 0.0
H379 H 0.36255 0.48549 0.34857 0.0
H380 H 0.41256 0.49836 0.53299 0.0
H381 H 0.38079 0.4813 0.45953 0.0
H382 H 0.4376 0.45454 0.32845 0.0
H383 H 0.4692 0.47107 0.402 0.0
C384 C 0.37285 0.42039 0.27886 0.0
C385 C 0.3509 0.43256 0.26412 0.0
C386 C 0.3909 0.43145 0.31879 0.0
C387 C 0.3875 0.45497 0.34493 0.0
C388 C 0.36565 0.46727 0.32971 0.0
C389 C 0.34757 0.4562 0.2897 0.0
C390 C 0.41824 0.48889 0.48841 0.0
C391 C 0.44344 0.48594 0.47373 0.0
C392 C 0.40004 0.47924 0.44609 0.0
C393 C 0.40666 0.4664 0.38833 0.0
C394 C 0.43185 0.46394 0.3731 0.0
C395 C 0.44999 0.47357 0.4152 0.0
H396 H 0.04146 0.39282 0.19068 0.0
H397 H 0.97937 0.34812 0.25841 0.0
H398 H 0.03494 0.42091 0.2828 0.0
H399 H 0.97292 0.37609 0.35086 0.0
H400 H 0.95518 0.44611 0.46763 0.0
H401 H 0.96045 0.41686 0.37846 0.0
H402 H 0.03966 0.42169 0.40334 0.0
H403 H 0.03441 0.45145 0.49243 0.0
C404 C 0.02628 0.38912 0.22498 0.0
C405 C 0.01093 0.36824 0.21716 0.0
C406 C 0.02269 0.40508 0.27817 0.0
C407 C 0.00366 0.40057 0.32496 0.0
C408 C 0.98769 0.38021 0.31563 0.0
C409 C 0.99127 0.36425 0.2623 0.0
C410 C 0.97377 0.44079 0.45475 0.0
C411 C 0.99441 0.45144 0.48679 0.0
C412 C 0.97676 0.4239 0.40357 0.0
C413 C 0.00048 0.41716 0.38293 0.0
C414 C 0.02113 0.42691 0.41699 0.0
C415 C 0.01813 0.44381 0.4685 0.0
H416 H 0.88607 0.95284 0.01342 0.0
H417 H 0.82902 0.94001 0.86785 0.0
H418 H 0.91608 0.96049 0.92437 0.0
H419 H 0.85909 0.94741 0.77775 0.0
H420 H 0.91084 0.00059 0.65346 0.0
H421 H 0.88077 0.98359 0.73376 0.0
H422 H 0.93915 0.94511 0.8335 0.0
H423 H 0.96909 0.96306 0.75635 0.0
C424 C 0.88023 0.95089 0.96211 0.0
C425 C 0.85542 0.9457 0.94725 0.0
C426 C 0.89736 0.95527 0.91093 0.0
C427 C 0.88996 0.95481 0.84372 0.0
C428 C 0.86532 0.94823 0.82893 0.0
C429 C 0.84821 0.94363 0.88034 0.0
C430 C 0.91716 0.98842 0.69242 0.0
C431 C 0.94239 0.98335 0.69871 0.0
C432 C 0.89992 0.97847 0.73807 0.0
C433 C 0.90756 0.96305 0.79041 0.0
C434 C 0.93265 0.95725 0.79472 0.0
C435 C 0.94983 0.96748 0.75004 0.0
H436 H 0.49135 0.84345 0.92865 0.0
H437 H 0.43194 0.88941 0.99351 0.0
H438 H 0.5003 0.87186 0.83627 0.0
H439 H 0.44061 0.9174 0.9008 0.0
H440 H 0.4402 0.94358 0.68759 0.0
H441 H 0.43537 0.91338 0.77696 0.0
H442 H 0.51416 0.91573 0.80983 0.0
H443 H 0.51914 0.94592 0.72031 0.0
C444 C 0.48054 0.85985 0.9241 0.0
C445 C 0.46074 0.86404 0.96806 0.0
C446 C 0.48557 0.876 0.8709 0.0
C447 C 0.47076 0.8965 0.8605 0.0
C448 C 0.45189 0.90136 0.90655 0.0
C449 C 0.447 0.88539 0.9598 0.0
C450 C 0.45657 0.93742 0.71306 0.0
C451 C 0.48003 0.94737 0.69694 0.0
C452 C 0.45377 0.92026 0.76462 0.0
C453 C 0.47434 0.9126 0.80119 0.0
C454 C 0.49798 0.92133 0.78253 0.0
C455 C 0.5008 0.93859 0.731 0.0
H456 H 0.60557 0.56023 0.00599 0.0
H457 H 0.65948 0.5824 0.8572 0.0
H458 H 0.57487 0.55368 0.91935 0.0
H459 H 0.62866 0.57613 0.76953 0.0
H460 H 0.58031 0.52035 0.64571 0.0
H461 H 0.60981 0.53903 0.72297 0.0
H462 H 0.54943 0.56997 0.83374 0.0
H463 H 0.5201 0.55042 0.75902 0.0
C464 C 0.61049 0.56451 0.95472 0.0
C465 C 0.63469 0.57187 0.93802 0.0
C466 C 0.59297 0.5608 0.90495 0.0
C467 C 0.59939 0.56415 0.83735 0.0
C468 C 0.62324 0.5731 0.82105 0.0
C469 C 0.64076 0.57701 0.87113 0.0
C470 C 0.57341 0.53129 0.68633 0.0
C471 C 0.54789 0.53362 0.69678 0.0
C472 C 0.59029 0.54222 0.73019 0.0
C473 C 0.58194 0.55587 0.78485 0.0
C474 C 0.55646 0.55921 0.79294 0.0
C475 C 0.53964 0.54802 0.7499 0.0
H476 H 0.00041 0.67417 0.87722 0.0
H477 H 0.99023 0.61538 0.01985 0.0
H478 H -0.00341 0.64505 0.78569 0.0
H479 H 0.98711 0.5859 0.92883 0.0
H480 H 0.97373 0.53732 0.7536 0.0
H481 H 0.96589 0.56948 0.83478 0.0
H482 H 0.02291 0.61486 0.74153 0.0
H483 H 0.02959 0.58315 0.65885 0.0
C484 C -0.0032 0.65498 0.88863 0.0
C485 C 0.99539 0.64687 0.95508 0.0
C486 C 0.99488 0.63827 0.83642 0.0
C487 C 0.99181 0.61303 0.84969 0.0
C488 C 0.98918 0.60517 0.91654 0.0
C489 C 0.99101 0.62197 0.96879 0.0
C490 C 0.98374 0.55464 0.74898 0.0
C491 C 0.00161 0.5582 0.69874 0.0
C492 C 0.97962 0.57288 0.79618 0.0
C493 C 0.99371 0.59486 0.79486 0.0
C494 C 0.0113 0.59847 0.74349 0.0
C495 C 0.01526 0.58028 0.69621 0.0
H496 H 0.96336 0.20336 0.25968 0.0
H497 H 0.02983 0.21242 0.3758 0.0
H498 H 0.95208 0.16653 0.32478 0.0
H499 H 0.0184 0.17601 0.44124 0.0
H500 H 0.01887 0.09315 0.41953 0.0
H501 H 0.01911 0.13438 0.37405 0.0
H502 H 0.94539 0.14486 0.45063 0.0
H503 H 0.94514 0.10283 0.49738 0.0
C504 C 0.97498 0.19802 0.3009 0.0
C505 C -0.00231 0.21025 0.31222 0.0
C506 C 0.96849 0.17707 0.3381 0.0
C507 C 0.98464 0.16839 0.38687 0.0
C508 C 0.00586 0.18231 0.40313 0.0
C509 C 0.01242 0.20302 0.36577 0.0
C510 C 0.00257 0.1041 0.42625 0.0
C511 C 0.98208 0.09503 0.46238 0.0
C512 C 0.00279 0.12772 0.40068 0.0
C513 C 0.98256 0.14287 0.41076 0.0
C514 C 0.96129 0.13345 0.44319 0.0
C515 C 0.96106 0.10951 0.46922 0.0
H516 H 0.28665 0.04599 0.27129 0.0
H517 H 0.31902 0.11325 0.34637 0.0
H518 H 0.31912 0.02263 0.32539 0.0
H519 H 0.35137 0.08971 0.40136 0.0
H520 H 0.38574 0.03378 0.54701 0.0
H521 H 0.35042 0.05364 0.49725 0.0
H522 H 0.36964 0.02416 0.30536 0.0
H523 H 0.40577 0.00462 0.35466 0.0
C524 C 0.30052 0.0557 0.30021 0.0
C525 C 0.30035 0.08138 0.3051 0.0
C526 C 0.31911 0.04237 0.33055 0.0
C527 C 0.33758 0.05446 0.36713 0.0
C528 C 0.33716 0.08007 0.37344 0.0
C529 C 0.31879 0.09348 0.34203 0.0
C530 C 0.38232 0.03113 0.49435 0.0
C531 C 0.39862 0.0177 0.45449 0.0
C532 C 0.36218 0.04266 0.46602 0.0
C533 C 0.35761 0.04052 0.3977 0.0
C534 C 0.37297 0.026 0.35831 0.0
C535 C 0.39354 0.01487 0.38641 0.0
H536 H 0.51874 0.29599 0.38604 0.0
H537 H 0.54575 0.3319 0.20681 0.0
H538 H 0.52833 0.33319 0.44976 0.0
H539 H 0.5554 0.36884 0.27014 0.0
H540 H 0.50596 0.42911 0.37362 0.0
H541 H 0.51585 0.39114 0.31733 0.0
H542 H 0.56169 0.37006 0.48295 0.0
H543 H 0.55219 0.40889 0.53882 0.0
C544 C 0.52767 0.31148 0.36105 0.0
C545 C 0.53107 0.31151 0.29166 0.0
C546 C 0.53326 0.33264 0.39738 0.0
C547 C 0.54227 0.35382 0.36433 0.0
C548 C 0.54831 0.35273 0.29638 0.0
C549 C 0.5427 0.33172 0.26026 0.0
C550 C 0.5188 0.41671 0.39681 0.0
C551 C 0.52878 0.42186 0.4594 0.0
C552 C 0.52448 0.39507 0.3648 0.0
C553 C 0.53978 0.37794 0.39564 0.0
C554 C 0.55013 0.38322 0.45809 0.0
C555 C 0.54486 0.40533 0.48959 0.0
H556 H 0.17355 0.44226 0.21468 0.0
H557 H 0.1894 0.4185 0.41525 0.0
H558 H 0.14279 0.47031 0.25707 0.0
H559 H 0.15785 0.4459 0.45815 0.0
H560 H 0.11207 0.50778 0.52367 0.0
H561 H 0.1476 0.48869 0.47251 0.0
H562 H 0.10221 0.46646 0.30599 0.0
H563 H 0.06677 0.48586 0.35657 0.0
C564 C 0.17012 0.4429 0.26791 0.0
C565 C 0.18333 0.42803 0.31187 0.0
C566 C 0.15261 0.45896 0.29215 0.0
C567 C 0.1478 0.46025 0.36084 0.0
C568 C 0.1614 0.4456 0.40498 0.0
C569 C 0.1792 0.42973 0.38065 0.0
C570 C 0.10981 0.49935 0.4753 0.0
C571 C 0.08651 0.49796 0.44459 0.0
C572 C 0.13013 0.48822 0.44637 0.0
C573 C 0.12757 0.47558 0.38606 0.0
C574 C 0.1048 0.47606 0.35255 0.0
C575 C 0.08445 0.48721 0.3815 0.0
H576 H 0.97695 0.81138 0.90853 0.0
H577 H 0.05121 0.79909 0.83955 0.0
H578 H 0.97439 0.84706 0.83441 0.0
H579 H 0.04899 0.8349 0.76585 0.0
H580 H 0.02867 0.89608 0.61539 0.0
H581 H 0.02909 0.85571 0.67034 0.0
H582 H -0.0042 0.88692 0.8459 0.0
H583 H 0.99497 0.92677 0.79024 0.0
C584 C 0.99242 0.81604 0.87598 0.0
C585 C 0.01431 0.8029 0.87931 0.0
C586 C 0.99111 0.83648 0.83421 0.0
C587 C 0.01173 0.84401 0.79562 0.0
C588 C 0.03287 0.82954 0.79513 0.0
C589 C 0.03419 0.80915 0.83715 0.0
C590 C 0.02206 0.89419 0.6663 0.0
C591 C 0.01227 0.91427 0.69966 0.0
C592 C 0.02204 0.8712 0.69739 0.0
C593 C 0.01211 0.86815 0.76191 0.0
C594 C 0.00302 0.8886 0.79556 0.0
C595 C 0.00293 0.91144 0.76442 0.0
H596 H 0.71146 0.96513 0.80587 0.0
H597 H 0.66632 0.91715 0.93075 0.0
H598 H 0.67691 0.96986 0.72966 0.0
H599 H 0.63154 0.92253 0.85582 0.0
H600 H 0.57496 0.93186 0.69287 0.0
H601 H 0.61299 0.91844 0.74483 0.0
H602 H 0.63923 0.99367 0.75365 0.0
H603 H 0.60127 0.00709 0.70059 0.0
C604 C 0.69441 0.95498 0.81588 0.0
C605 C 0.69128 0.94125 0.8749 0.0
C606 C 0.67458 0.95794 0.77276 0.0
C607 C 0.65143 0.94718 0.78809 0.0
C608 C 0.64915 0.9312 0.84305 0.0
C609 C 0.66898 0.92821 0.88611 0.0
C610 C 0.58892 0.94552 0.7057 0.0
C611 C 0.58526 0.97052 0.69289 0.0
C612 C 0.61064 0.93781 0.73535 0.0
C613 C 0.62915 0.95496 0.75234 0.0
C614 C 0.62545 0.98 0.73966 0.0
C615 C 0.60362 0.98774 0.71035 0.0
H616 H 0.40261 0.69142 0.87187 0.0
H617 H 0.48039 0.70664 0.90187 0.0
H618 H 0.41276 0.65733 0.79936 0.0
H619 H 0.4906 0.67235 0.8309 0.0
H620 H 0.50187 0.61989 0.66203 0.0
H621 H 0.49019 0.65683 0.72018 0.0
H622 H 0.42897 0.61708 0.81288 0.0
H623 H 0.44019 0.58029 0.75239 0.0
C624 C 0.42186 0.68748 0.8627 0.0
C625 C 0.4407 0.70155 0.89257 0.0
C626 C 0.42769 0.66794 0.82152 0.0
C627 C 0.45247 0.66196 0.80994 0.0
C628 C 0.47132 0.67661 0.8381 0.0
C629 C 0.46549 0.69626 0.87882 0.0
C630 C 0.48583 0.6191 0.69462 0.0
C631 C 0.4719 0.59727 0.70292 0.0
C632 C 0.47921 0.64024 0.72811 0.0
C633 C 0.45867 0.63991 0.77123 0.0
C634 C 0.44462 0.61807 0.77903 0.0
C635 C 0.45109 0.59697 0.74479 0.0
H636 H 0.81497 0.60919 0.85844 0.0
H637 H 0.7793 0.54086 0.8042 0.0
H638 H 0.85111 0.59862 0.79237 0.0
H639 H 0.81573 0.52923 0.74306 0.0
H640 H 0.88595 0.51382 0.63113 0.0
H641 H 0.84614 0.5298 0.66442 0.0
H642 H 0.88249 0.57251 0.81812 0.0
H643 H 0.9223 0.55825 0.77956 0.0
C644 C 0.81466 0.59226 0.83057 0.0
C645 C 0.79469 0.57564 0.83683 0.0
C646 C 0.83548 0.58591 0.79394 0.0
C647 C 0.83687 0.56252 0.76512 0.0
C648 C 0.81558 0.5473 0.76481 0.0
C649 C 0.79454 0.55398 0.79979 0.0
C650 C 0.88517 0.52631 0.67278 0.0
C651 C 0.90688 0.53481 0.70338 0.0
C652 C 0.86242 0.53563 0.69164 0.0
C653 C 0.861 0.55292 0.74315 0.0
C654 C 0.88284 0.56008 0.77637 0.0
C655 C 0.90561 0.55147 0.7557 0.0
H656 H 0.01595 0.21345 0.78945 0.0
H657 H 0.993 0.17597 0.97051 0.0
H658 H 0.01142 0.17514 0.72812 0.0
H659 H 0.98802 0.13779 0.90888 0.0
H660 H 0.00533 0.06848 0.78636 0.0
H661 H 0.01345 0.10665 0.84809 0.0
H662 H 0.97702 0.14762 0.69339 0.0
H663 H 0.96881 0.10977 0.633 0.0
C664 C 0.00987 0.19707 0.81614 0.0
C665 C 0.00468 0.19788 0.88484 0.0
C666 C 0.00719 0.17512 0.78096 0.0
C667 C -0.00054 0.15335 0.81367 0.0
C668 C 0.99429 0.15414 0.88235 0.0
C669 C -0.00322 0.17613 0.91743 0.0
C670 C -0.00062 0.08574 0.7656 0.0
C671 C 0.98641 0.08628 0.70523 0.0
C672 C 0.00381 0.10752 0.80096 0.0
C673 C -0.00418 0.13019 0.77567 0.0
C674 C 0.98358 0.13058 0.71411 0.0
C675 C 0.97876 0.10889 0.67969 0.0
H676 H 0.28611 0.04464 0.89504 0.0
H677 H 0.3207 0.11626 0.91345 0.0
H678 H 0.32289 0.03001 0.83862 0.0
H679 H 0.35762 0.10159 0.85753 0.0
H680 H 0.41118 0.06967 0.69888 0.0
H681 H 0.37513 0.08714 0.75373 0.0
H682 H 0.36445 0.02022 0.86767 0.0
H683 H 0.39987 0.00273 0.81192 0.0
C684 C 0.30156 0.05728 0.88699 0.0
C685 C 0.30045 0.08159 0.90908 0.0
C686 C 0.32273 0.04888 0.8549 0.0
C687 C 0.34344 0.06451 0.84438 0.0
C688 C 0.34201 0.08907 0.86439 0.0
C689 C 0.32078 0.0975 0.89634 0.0
C690 C 0.4014 0.05895 0.73668 0.0
C691 C 0.40831 0.03481 0.75097 0.0
C692 C 0.38067 0.0689 0.76793 0.0
C693 C 0.36655 0.05492 0.81426 0.0
C694 C 0.3744 0.03128 0.83092 0.0
C695 C 0.39492 0.02134 0.79952 0.0
H696 H 0.5357 0.33159 0.95576 0.0
H697 H 0.48629 0.30267 0.80563 0.0
H698 H 0.53797 0.37035 0.89683 0.0
H699 H 0.48626 0.34225 0.75088 0.0
H700 H 0.50454 0.41129 0.6327 0.0
H701 H 0.50469 0.37119 0.68605 0.0
H702 H 0.51819 0.40576 0.87648 0.0
H703 H 0.52024 0.44564 0.82084 0.0
C704 C 0.52539 0.33332 0.90994 0.0
C705 C 0.51068 0.31371 0.88608 0.0
C706 C 0.5262 0.35598 0.87672 0.0
C707 C 0.51189 0.36003 0.81932 0.0
C708 C 0.49775 0.34016 0.79443 0.0
C709 C 0.49743 0.31734 0.82674 0.0
C710 C 0.50717 0.4102 0.68616 0.0
C711 C 0.51203 0.43149 0.72296 0.0
C712 C 0.50724 0.38714 0.71709 0.0
C713 C 0.5115 0.3848 0.78617 0.0
C714 C 0.51551 0.40643 0.8231 0.0
C715 C 0.51625 0.42944 0.7916 0.0
H716 H 0.17672 0.39289 0.91478 0.0
H717 H 0.20426 0.46739 0.93316 0.0
H718 H 0.14085 0.40749 0.85441 0.0
H719 H 0.16831 0.48195 0.87328 0.0
H720 H 0.08862 0.5022 0.84245 0.0
H721 H 0.12441 0.48516 0.89745 0.0
H722 H 0.12628 0.42729 0.75198 0.0
H723 H 0.08999 0.4442 0.69733 0.0
C724 C 0.17542 0.41234 0.90483 0.0
C725 C 0.19335 0.42897 0.92942 0.0
C726 C 0.15475 0.42072 0.8704 0.0
C727 C 0.15147 0.44592 0.85995 0.0
C728 C 0.16994 0.46245 0.88195 0.0
C729 C 0.19061 0.45409 0.91616 0.0
C730 C 0.09646 0.48567 0.82255 0.0
C731 C 0.08649 0.4746 0.76536 0.0
C732 C 0.11716 0.47604 0.85372 0.0
C733 C 0.12853 0.45512 0.82843 0.0
C734 C 0.11795 0.4434 0.77284 0.0
C735 C 0.0971 0.45304 0.74164 0.0
H736 H 0.95843 0.81354 0.30288 0.0
H737 H 0.03812 0.81421 0.3159 0.0
H738 H 0.95798 0.85479 0.35053 0.0
H739 H 0.03757 0.85457 0.365 0.0
H740 H 0.03457 0.93538 0.37915 0.0
H741 H 0.02965 0.89562 0.32621 0.0
H742 H 0.96678 0.87875 0.45327 0.0
H743 H 0.97138 0.91907 0.50523 0.0
C744 C 0.97579 0.82233 0.31648 0.0
C745 C -0.00171 0.81043 0.30569 0.0
C746 C 0.97552 0.8459 0.34405 0.0
C747 C -0.00224 0.85817 0.36064 0.0
C748 C 0.02011 0.84593 0.35157 0.0
C749 C 0.02038 0.82249 0.32442 0.0
C750 C 0.01937 0.9234 0.3948 0.0
C751 C 0.00341 0.93033 0.44635 0.0
C752 C 0.01668 0.90049 0.36497 0.0
C753 C -0.00184 0.88373 0.38651 0.0
C754 C 0.98122 0.89122 0.4354 0.0
C755 C 0.98379 0.91435 0.46499 0.0
H756 H 0.66733 0.9345 0.2277 0.0
H757 H 0.70781 0.952 0.40677 0.0
H758 H 0.62887 0.94578 0.28251 0.0
H759 H 0.66933 0.96354 0.46118 0.0
H760 H 0.60891 0.02094 0.47997 0.0
H761 H 0.64428 0.00092 0.43164 0.0
H762 H 0.5981 0.93847 0.38077 0.0
H763 H 0.56227 0.95851 0.43039 0.0
C764 C 0.66794 0.9399 0.27952 0.0
C765 C 0.69072 0.94267 0.31264 0.0
C766 C 0.64588 0.94649 0.31075 0.0
C767 C 0.64621 0.95605 0.37551 0.0
C768 C 0.66864 0.95673 0.41062 0.0
C769 C 0.69065 0.95005 0.37958 0.0
C770 C 0.60609 0.00302 0.45813 0.0
C771 C 0.58268 0.99133 0.45917 0.0
C772 C 0.62649 0.99142 0.43109 0.0
C773 C 0.62406 0.96793 0.40364 0.0
C774 C 0.60052 0.95652 0.40207 0.0
C775 C 0.58002 0.96805 0.43011 0.0
H776 H 0.48692 0.68121 0.2044 0.0
H777 H 0.46297 0.7097 0.39397 0.0
H778 H 0.49648 0.64242 0.25794 0.0
H779 H 0.47183 0.67046 0.447 0.0
H780 H 0.50451 0.60075 0.53165 0.0
H781 H 0.50538 0.641 0.47685 0.0
H782 H 0.46883 0.60957 0.30572 0.0
H783 H 0.4675 0.56956 0.36131 0.0
C784 C 0.48415 0.67945 0.25773 0.0
C785 C 0.47407 0.69868 0.29472 0.0
C786 C 0.48939 0.65705 0.28825 0.0
C787 C 0.48475 0.65328 0.35655 0.0
C788 C 0.47579 0.67283 0.39432 0.0
C789 C 0.47047 0.69525 0.36376 0.0
C790 C 0.49734 0.60235 0.48155 0.0
C791 C 0.48617 0.58203 0.45025 0.0
C792 C 0.49757 0.62544 0.45051 0.0
C793 C 0.48713 0.62849 0.38699 0.0
C794 C 0.47723 0.6078 0.35436 0.0
C795 C 0.47646 0.58489 0.38605 0.0
H796 H 0.78113 0.55988 0.38512 0.0
H797 H 0.82144 0.59298 0.22006 0.0
H798 H 0.81966 0.55503 0.44536 0.0
H799 H 0.85995 0.58897 0.28137 0.0
H800 H 0.92013 0.53528 0.36272 0.0
H801 H 0.88449 0.55345 0.30811 0.0
H802 H 0.855 0.57313 0.50068 0.0
H803 H 0.89067 0.55483 0.55448 0.0
C804 C 0.79815 0.56669 0.3624 0.0
C805 C 0.79819 0.57658 0.29751 0.0
C806 C 0.82028 0.5641 0.39716 0.0
C807 C 0.84301 0.57137 0.36791 0.0
C808 C 0.84284 0.58285 0.30493 0.0
C809 C 0.82068 0.58545 0.27015 0.0
C810 C 0.90638 0.54424 0.39286 0.0
C811 C 0.90805 0.54385 0.46249 0.0
C812 C 0.88595 0.55465 0.36181 0.0
C813 C 0.8667 0.56457 0.40005 0.0
C814 C 0.86927 0.56537 0.46976 0.0
C815 C 0.88974 0.55506 0.5006 0.0
loop_
_geom_bond_atom_site_label_1
_geom_bond_atom_site_label_2
_geom_bond_distance
_geom_bond_site_symmetry_2
_ccdc_geom_bond_type
P0 O11 1.490 . S
P0 C14 1.812 . S
P0 C20 1.805 . S
P0 C26 1.819 1_554 S
H1 C15 0.941 . S
H2 C16 0.939 . S
H3 C18 0.940 . S
H4 C19 0.940 . S
H5 C21 0.939 . S
H6 C22 0.942 . S
H7 C24 0.940 1_554 S
H8 C25 0.939 . S
H9 C27 0.941 . S
H10 C31 0.939 . S
O11 P0 1.490 . S
H12 C28 0.939 . S
H13 C30 0.940 . S
C14 P0 1.812 . S
C14 C15 1.389 . S
C14 C19 1.391 . S
C15 H1 0.941 . S
C15 C14 1.389 . S
C15 C16 1.397 . S
C16 H2 0.939 . S
C16 C15 1.397 . S
C16 C17 1.378 . S
C17 C16 1.378 . S
C17 C18 1.378 . S
C18 H3 0.940 . S
C18 C17 1.378 . S
C18 C19 1.396 . S
C19 H4 0.940 . S
C19 C14 1.391 . S
C19 C18 1.396 . S
C20 P0 1.805 . S
C20 C21 1.375 1_554 S
C20 C25 1.401 . S
C21 H5 0.939 . S
C21 C20 1.375 1_556 S
C21 C22 1.361 . S
C22 H6 0.942 . S
C22 C21 1.361 . S
C22 C23 1.369 . S
C23 C22 1.369 . S
C23 C24 1.403 . S
C24 H7 0.940 1_556 S
C24 C23 1.403 . S
C24 C25 1.390 1_556 S
C25 H8 0.939 . S
C25 C20 1.401 . S
C25 C24 1.390 1_554 S
C26 P0 1.819 1_556 S
C26 C27 1.391 . S
C26 C31 1.391 . S
C27 H9 0.941 . S
C27 C26 1.391 . S
C27 C28 1.396 . S
C28 H12 0.939 . S
C28 C27 1.396 . S
C28 C29 1.397 . S
C29 C28 1.397 . S
C29 C30 1.385 . S
C30 H13 0.940 . S
C30 C29 1.385 . S
C30 C31 1.388 . S
C31 H10 0.939 . S
C31 C26 1.391 . S
C31 C30 1.388 . S
P32 O43 1.490 . S
P32 C46 1.812 . S
P32 C52 1.803 . S
P32 C58 1.819 1_554 S
H33 C47 0.941 . S
H34 C48 0.939 . S
H35 C50 0.940 . S
H36 C51 0.950 . S
H37 C53 0.939 . S
H38 C54 0.942 . S
H39 C56 0.940 . S
H40 C57 0.959 . S
H41 C59 0.941 1_554 S
H42 C63 0.930 1_655 S
O43 P32 1.490 . S
H44 C60 0.939 . S
H45 C62 0.940 . S
C46 P32 1.812 . S
C46 C47 1.389 . S
C46 C51 1.375 1_455 S
C47 H33 0.941 . S
C47 C46 1.389 . S
C47 C48 1.397 . S
C48 H34 0.939 . S
C48 C47 1.397 . S
C48 C49 1.378 . S
C49 C48 1.378 . S
C49 C50 1.378 1_455 S
C50 H35 0.940 . S
C50 C49 1.378 1_655 S
C50 C51 1.403 . S
C51 H36 0.950 . S
C51 C46 1.375 1_655 S
C51 C50 1.403 . S
C52 P32 1.803 . S
C52 C53 1.378 1_554 S
C52 C57 1.369 1_455 S
C53 H37 0.939 . S
C53 C52 1.378 1_556 S
C53 C54 1.361 . S
C54 H38 0.942 . S
C54 C53 1.361 . S
C54 C55 1.369 . S
C55 C54 1.369 . S
C55 C56 1.404 1_456 S
C56 H39 0.940 . S
C56 C55 1.404 1_654 S
C56 C57 1.401 . S
C57 H40 0.959 . S
C57 C52 1.369 1_655 S
C57 C56 1.401 . S
C58 P32 1.819 1_556 S
C58 C59 1.391 . S
C58 C63 1.391 . S
C59 H41 0.941 1_556 S
C59 C58 1.391 . S
C59 C60 1.396 . S
C60 H44 0.939 . S
C60 C59 1.396 . S
C60 C61 1.397 . S
C61 C60 1.397 . S
C61 C62 1.385 1_455 S
C62 H45 0.940 . S
C62 C61 1.385 1_655 S
C62 C63 1.388 1_655 S
C63 H42 0.930 1_455 S
C63 C58 1.391 . S
C63 C62 1.388 1_455 S
P64 O75 1.490 . S
P64 C78 1.812 . S
P64 C84 1.803 . S
P64 C90 1.819 1_554 S
H65 C79 0.941 . S
H66 C80 0.939 . S
H67 C82 0.940 . S
H68 C83 0.940 . S
H69 C85 0.939 . S
H70 C86 0.942 . S
H71 C88 0.940 . S
H72 C89 0.939 . S
H73 C91 0.931 1_554 S
H74 C95 0.939 . S
O75 P64 1.490 . S
H76 C92 0.939 . S
H77 C94 0.940 . S
C78 P64 1.812 . S
C78 C79 1.389 . S
C78 C83 1.391 . S
C79 H65 0.941 . S
C79 C78 1.389 . S
C79 C80 1.397 . S
C80 H66 0.939 . S
C80 C79 1.397 . S
C80 C81 1.378 . S
C81 C80 1.378 . S
C81 C82 1.378 . S
C82 H67 0.940 . S
C82 C81 1.378 . S
C82 C83 1.396 . S
C83 H68 0.940 . S
C83 C78 1.391 . S
C83 C82 1.396 . S
C84 P64 1.803 . S
C84 C85 1.378 1_554 S
C84 C89 1.400 . S
C85 H69 0.939 . S
C85 C84 1.378 1_556 S
C85 C86 1.361 . S
C86 H70 0.942 . S
C86 C85 1.361 . S
C86 C87 1.369 . S
C87 C86 1.369 . S
C87 C88 1.404 1_556 S
C88 H71 0.940 . S
C88 C87 1.404 1_554 S
C88 C89 1.389 . S
C89 H72 0.939 . S
C89 C84 1.400 . S
C89 C88 1.389 . S
C90 P64 1.819 1_556 S
C90 C91 1.391 . S
C90 C95 1.391 . S
C91 H73 0.931 1_556 S
C91 C90 1.391 . S
C91 C92 1.396 . S
C92 H76 0.939 . S
C92 C91 1.396 . S
C92 C93 1.397 . S
C93 C92 1.397 . S
C93 C94 1.385 . S
C94 H77 0.940 . S
C94 C93 1.385 . S
C94 C95 1.388 . S
C95 H74 0.939 . S
C95 C90 1.391 . S
C95 C94 1.388 . S
P96 O107 1.490 . S
P96 C110 1.812 . S
P96 C116 1.803 . S
P96 C122 1.819 1_554 S
H97 C111 0.941 . S
H98 C112 0.939 . S
H99 C114 0.940 . S
H100 C115 0.940 . S
H101 C117 0.939 . S
H102 C118 0.942 . S
H103 C120 0.940 . S
H104 C121 0.939 . S
H105 C123 0.941 1_554 S
H106 C127 0.939 . S
O107 P96 1.490 . S
H108 C124 0.939 . S
H109 C126 0.940 . S
C110 P96 1.812 . S
C110 C111 1.389 . S
C110 C115 1.391 . S
C111 H97 0.941 . S
C111 C110 1.389 . S
C111 C112 1.397 . S
C112 H98 0.939 . S
C112 C111 1.397 . S
C112 C113 1.378 . S
C113 C112 1.378 . S
C113 C114 1.378 . S
C114 H99 0.940 . S
C114 C113 1.378 . S
C114 C115 1.396 . S
C115 H100 0.940 . S
C115 C110 1.391 . S
C115 C114 1.396 . S
C116 P96 1.803 . S
C116 C117 1.378 1_554 S
C116 C121 1.400 . S
C117 H101 0.939 . S
C117 C116 1.378 1_556 S
C117 C118 1.361 . S
C118 H102 0.942 . S
C118 C117 1.361 . S
C118 C119 1.369 . S
C119 C118 1.369 . S
C119 C120 1.404 1_556 S
C120 H103 0.940 . S
C120 C119 1.404 1_554 S
C120 C121 1.389 . S
C121 H104 0.939 . S
C121 C116 1.400 . S
C121 C120 1.389 . S
C122 P96 1.819 1_556 S
C122 C123 1.391 . S
C122 C127 1.391 . S
C123 H105 0.941 1_556 S
C123 C122 1.391 . S
C123 C124 1.396 . S
C124 H108 0.939 . S
C124 C123 1.396 . S
C124 C125 1.397 . S
C125 C124 1.397 . S
C125 C126 1.385 . S
C126 H109 0.940 . S
C126 C125 1.385 . S
C126 C127 1.388 . S
C127 H106 0.939 . S
C127 C122 1.391 . S
C127 C126 1.388 . S
P128 O139 1.490 . S
P128 C142 1.812 . S
P128 C148 1.803 . S
P128 C154 1.819 . S
H129 C143 0.941 . S
H130 C144 0.939 . S
H131 C146 0.940 . S
H132 C147 0.940 . S
H133 C149 0.939 . S
H134 C150 0.942 . S
H135 C152 0.940 . S
H136 C153 0.939 . S
H137 C155 0.941 . S
H138 C159 0.939 . S
O139 P128 1.490 . S
H140 C156 0.939 . S
H141 C158 0.940 . S
C142 P128 1.812 . S
C142 C143 1.389 . S
C142 C147 1.391 . S
C143 H129 0.941 . S
C143 C142 1.389 . S
C143 C144 1.397 1_554 S
C144 H130 0.939 . S
C144 C143 1.397 1_556 S
C144 C145 1.378 . S
C145 C144 1.378 . S
C145 C146 1.378 1_556 S
C146 H131 0.940 . S
C146 C145 1.378 1_554 S
C146 C147 1.396 . S
C147 H132 0.940 . S
C147 C142 1.391 . S
C147 C146 1.396 . S
C148 P128 1.803 . S
C148 C149 1.378 . S
C148 C153 1.400 . S
C149 H133 0.939 . S
C149 C148 1.378 . S
C149 C150 1.361 . S
C150 H134 0.942 . S
C150 C149 1.361 . S
C150 C151 1.369 . S
C151 C150 1.369 . S
C151 C152 1.404 . S
C152 H135 0.940 . S
C152 C151 1.404 . S
C152 C153 1.389 . S
C153 H136 0.939 . S
C153 C148 1.400 . S
C153 C152 1.389 . S
C154 P128 1.819 . S
C154 C155 1.391 . S
C154 C159 1.391 . S
C155 H137 0.941 . S
C155 C154 1.391 . S
C155 C156 1.396 . S
C156 H140 0.939 . S
C156 C155 1.396 . S
C156 C157 1.397 . S
C157 C156 1.397 . S
C157 C158 1.385 . S
C158 H141 0.940 . S
C158 C157 1.385 . S
C158 C159 1.388 . S
C159 H138 0.939 . S
C159 C154 1.391 . S
C159 C158 1.388 . S
P160 O171 1.490 . S
P160 C174 1.812 . S
P160 C180 1.803 . S
P160 C186 1.819 . S
H161 C175 0.941 . S
H162 C176 0.939 . S
H163 C178 0.940 . S
H164 C179 0.944 . S
H165 C181 0.939 . S
H166 C182 0.942 . S
H167 C184 0.940 . S
H168 C185 0.953 . S
H169 C187 0.941 . S
H170 C191 0.932 1_655 S
O171 P160 1.490 . S
H172 C188 0.939 . S
H173 C190 0.940 . S
C174 P160 1.812 . S
C174 C175 1.389 . S
C174 C179 1.385 1_455 S
C175 H161 0.941 . S
C175 C174 1.389 . S
C175 C176 1.397 1_554 S
C176 H162 0.939 . S
C176 C175 1.397 1_556 S
C176 C177 1.378 . S
C177 C176 1.378 . S
C177 C178 1.378 1_456 S
C178 H163 0.940 . S
C178 C177 1.378 1_654 S
C178 C179 1.399 . S
C179 H164 0.944 . S
C179 C174 1.385 1_655 S
C179 C178 1.399 . S
C180 P160 1.803 . S
C180 C181 1.378 . S
C180 C185 1.378 1_455 S
C181 H165 0.939 . S
C181 C180 1.378 . S
C181 C182 1.361 . S
C182 H166 0.942 . S
C182 C181 1.361 . S
C182 C183 1.369 . S
C183 C182 1.369 . S
C183 C184 1.404 1_455 S
C184 H167 0.940 . S
C184 C183 1.404 1_655 S
C184 C185 1.398 . S
C185 H168 0.953 . S
C185 C180 1.378 1_655 S
C185 C184 1.398 . S
C186 P160 1.819 . S
C186 C187 1.391 . S
C186 C191 1.391 . S
C187 H169 0.941 . S
C187 C186 1.391 . S
C187 C188 1.396 . S
C188 H172 0.939 . S
C188 C187 1.396 . S
C188 C189 1.397 . S
C189 C188 1.397 . S
C189 C190 1.385 1_455 S
C190 H173 0.940 . S
C190 C189 1.385 1_655 S
C190 C191 1.388 1_655 S
C191 H170 0.932 1_455 S
C191 C186 1.391 . S
C191 C190 1.388 1_455 S
P192 O203 1.490 . S
P192 C206 1.812 . S
P192 C212 1.803 . S
P192 C218 1.819 . S
H193 C207 0.941 . S
H194 C208 0.939 . S
H195 C210 0.940 . S
H196 C211 0.940 . S
H197 C213 0.939 . S
H198 C214 0.942 . S
H199 C216 0.940 . S
H200 C217 0.939 . S
H201 C219 0.941 . S
H202 C223 0.939 . S
O203 P192 1.490 . S
H204 C220 0.939 . S
H205 C222 0.940 . S
C206 P192 1.812 . S
C206 C207 1.389 . S
C206 C211 1.391 . S
C207 H193 0.941 . S
C207 C206 1.389 . S
C207 C208 1.397 1_554 S
C208 H194 0.939 . S
C208 C207 1.397 1_556 S
C208 C209 1.378 . S
C209 C208 1.378 . S
C209 C210 1.378 1_556 S
C210 H195 0.940 . S
C210 C209 1.378 1_554 S
C210 C211 1.396 . S
C211 H196 0.940 . S
C211 C206 1.391 . S
C211 C210 1.396 . S
C212 P192 1.803 . S
C212 C213 1.378 . S
C212 C217 1.400 . S
C213 H197 0.939 . S
C213 C212 1.378 . S
C213 C214 1.361 . S
C214 H198 0.942 . S
C214 C213 1.361 . S
C214 C215 1.369 . S
C215 C214 1.369 . S
C215 C216 1.404 . S
C216 H199 0.940 . S
C216 C215 1.404 . S
C216 C217 1.389 . S
C217 H200 0.939 . S
C217 C212 1.400 . S
C217 C216 1.389 . S
C218 P192 1.819 . S
C218 C219 1.391 . S
C218 C223 1.391 . S
C219 H201 0.941 . S
C219 C218 1.391 . S
C219 C220 1.396 . S
C220 H204 0.939 . S
C220 C219 1.396 . S
C220 C221 1.397 . S
C221 C220 1.397 . S
C221 C222 1.385 . S
C222 H205 0.940 . S
C222 C221 1.385 . S
C222 C223 1.388 . S
C223 H202 0.939 . S
C223 C218 1.391 . S
C223 C222 1.388 . S
P224 O235 1.490 . S
P224 C238 1.812 . S
P224 C244 1.803 . S
P224 C250 1.819 . S
H225 C239 0.941 . S
H226 C240 0.939 . S
H227 C242 0.940 . S
H228 C243 0.940 . S
H229 C245 0.939 . S
H230 C246 0.942 . S
H231 C248 0.940 . S
H232 C249 0.939 . S
H233 C251 0.941 . S
H234 C255 0.939 . S
O235 P224 1.490 . S
H236 C252 0.939 . S
H237 C254 0.940 . S
C238 P224 1.812 . S
C238 C239 1.389 . S
C238 C243 1.391 . S
C239 H225 0.941 . S
C239 C238 1.389 . S
C239 C240 1.397 1_554 S
C240 H226 0.939 . S
C240 C239 1.397 1_556 S
C240 C241 1.378 . S
C241 C240 1.378 . S
C241 C242 1.378 1_556 S
C242 H227 0.940 . S
C242 C241 1.378 1_554 S
C242 C243 1.396 . S
C243 H228 0.940 . S
C243 C238 1.391 . S
C243 C242 1.396 . S
C244 P224 1.803 . S
C244 C245 1.378 . S
C244 C249 1.400 . S
C245 H229 0.939 . S
C245 C244 1.378 . S
C245 C246 1.361 . S
C246 H230 0.942 . S
C246 C245 1.361 . S
C246 C247 1.369 . S
C247 C246 1.369 . S
C247 C248 1.404 . S
C248 H231 0.940 . S
C248 C247 1.404 . S
C248 C249 1.389 . S
C249 H232 0.939 . S
C249 C244 1.400 . S
C249 C248 1.389 . S
C250 P224 1.819 . S
C250 C251 1.391 . S
C250 C255 1.391 . S
C251 H233 0.941 . S
C251 C250 1.391 . S
C251 C252 1.396 . S
C252 H236 0.939 . S
C252 C251 1.396 . S
C252 C253 1.397 . S
C253 C252 1.397 . S
C253 C254 1.385 . S
C254 H237 0.940 . S
C254 C253 1.385 . S
C254 C255 1.388 . S
C255 H234 0.939 . S
C255 C250 1.391 . S
C255 C254 1.388 . S
Zn256 O262 1.969 . S
Zn256 O263 1.965 1_655 S
Zn256 O267 2.024 1_655 S
Zn256 O272 1.969 . S
Zn257 O264 1.969 . S
Zn257 O270 1.969 . S
Zn257 O271 1.965 1_455 S
Zn257 O273 2.024 1_455 S
C258 O259 1.229 1_455 S
C258 O267 1.058 . S
O259 C258 1.229 1_655 S
C260 O261 1.229 1_655 S
C260 O273 1.058 . S
O261 C260 1.229 1_455 S
O262 Zn256 1.969 . S
O262 C265 1.267 . S
O263 Zn256 1.965 1_455 S
O263 C274 1.260 . S
O264 Zn257 1.969 . S
O264 C274 1.258 1_565 S
C265 O262 1.267 . S
C265 O266 1.228 1_655 S
O266 C265 1.228 1_455 S
O267 Zn256 2.024 1_455 S
O267 C258 1.058 . S
C268 O269 1.228 1_455 S
C268 O270 1.267 . S
O269 C268 1.228 1_655 S
O270 Zn257 1.969 . S
O270 C268 1.267 . S
O271 Zn257 1.965 1_655 S
O271 C275 1.260 1_565 S
O272 Zn256 1.969 . S
O272 C275 1.258 . S
O273 Zn257 2.024 1_655 S
O273 C260 1.058 . S
C274 O263 1.260 . S
C274 O264 1.258 1_545 S
C275 O271 1.260 1_545 S
C275 O272 1.258 . S
Zn276 O282 1.969 . S
Zn276 O283 1.965 . S
Zn276 O287 2.024 . S
Zn276 O292 1.969 1_545 S
Zn277 O284 1.929 1_565 S
Zn277 O290 1.955 1_565 S
Zn277 O291 1.978 . S
Zn277 O293 2.052 . S
C278 O279 1.229 . S
C278 O287 1.058 . S
O279 C278 1.229 . S
C280 O281 1.261 . S
C280 O293 1.058 . S
O281 C280 1.261 . S
O282 Zn276 1.969 . S
O282 C285 1.267 . S
O283 Zn276 1.965 . S
O283 C294 1.260 . S
O284 Zn277 1.929 1_545 S
O284 C294 1.258 . S
C285 O282 1.267 . S
C285 O286 1.228 . S
O286 C285 1.228 . S
O287 Zn276 2.024 . S
O287 C278 1.058 . S
C288 O289 1.228 . S
C288 O290 1.267 1_565 S
O289 C288 1.228 . S
O290 Zn277 1.955 1_545 S
O290 C288 1.267 1_545 S
O291 Zn277 1.978 . S
O291 C295 1.260 . S
O292 Zn276 1.969 1_565 S
O292 C295 1.258 . S
O293 Zn277 2.052 . S
O293 C280 1.058 . S
C294 O283 1.260 . S
C294 O284 1.258 . S
C295 O291 1.260 . S
C295 O292 1.258 . S
Zn296 O302 1.969 . S
Zn296 O303 1.965 . S
Zn296 O307 2.024 . S
Zn296 O312 1.969 . S
Zn297 O304 1.969 . S
Zn297 O310 1.969 . S
Zn297 O311 1.965 . S
Zn297 O313 2.024 . S
C298 O299 1.229 . S
C298 O307 1.058 . S
O299 C298 1.229 . S
C300 O301 1.229 . S
C300 O313 1.058 . S
O301 C300 1.229 . S
O302 Zn296 1.969 . S
O302 C305 1.267 . S
O303 Zn296 1.965 . S
O303 C314 1.260 . S
O304 Zn297 1.969 . S
O304 C314 1.258 . S
C305 O302 1.267 . S
C305 O306 1.228 . S
O306 C305 1.228 . S
O307 Zn296 2.024 . S
O307 C298 1.058 . S
C308 O309 1.228 . S
C308 O310 1.267 . S
O309 C308 1.228 . S
O310 Zn297 1.969 . S
O310 C308 1.267 . S
O311 Zn297 1.965 . S
O311 C315 1.260 . S
O312 Zn296 1.969 . S
O312 C315 1.258 . S
O313 Zn297 2.024 . S
O313 C300 1.058 . S
C314 O303 1.260 . S
C314 O304 1.258 . S
C315 O311 1.260 . S
C315 O312 1.258 . S
Zn316 O322 1.969 . S
Zn316 O323 1.965 . S
Zn316 O327 2.024 . S
Zn316 O332 1.969 . S
Zn317 O324 1.969 . S
Zn317 O330 1.969 . S
Zn317 O331 1.965 . S
Zn317 O333 2.024 . S
C318 O319 1.229 . S
C318 O327 1.058 . S
O319 C318 1.229 . S
C320 O321 1.229 . S
C320 O333 1.058 . S
O321 C320 1.229 . S
O322 Zn316 1.969 . S
O322 C325 1.267 . S
O323 Zn316 1.965 . S
O323 C334 1.260 1_455 S
O324 Zn317 1.969 . S
O324 C334 1.258 . S
C325 O322 1.267 . S
C325 O326 1.228 . S
O326 C325 1.228 . S
O327 Zn316 2.024 . S
O327 C318 1.058 . S
C328 O329 1.228 . S
C328 O330 1.267 . S
O329 C328 1.228 . S
O330 Zn317 1.969 . S
O330 C328 1.267 . S
O331 Zn317 1.965 . S
O331 C335 1.260 1_655 S
O332 Zn316 1.969 . S
O332 C335 1.258 . S
O333 Zn317 2.024 . S
O333 C320 1.058 . S
C334 O323 1.260 1_655 S
C334 O324 1.258 . S
C335 O331 1.260 1_455 S
C335 O332 1.258 . S
H336 C344 0.950 . S
H337 C349 0.950 . S
H338 C346 0.950 . S
H339 C348 0.950 . S
H340 C350 0.950 . S
H341 C352 0.950 . S
H342 C354 0.950 . S
H343 C355 0.950 . S
C344 H336 0.950 . S
C344 C345 1.386 . S
C344 C346 1.391 . S
C345 C344 1.386 . S
C345 C349 1.393 . S
C346 H338 0.950 . S
C346 C344 1.391 . S
C346 C347 1.400 . S
C347 C346 1.400 . S
C347 C348 1.398 . S
C347 C353 1.491 . S
C348 H339 0.950 . S
C348 C347 1.398 . S
C348 C349 1.391 . S
C349 H337 0.950 . S
C349 C345 1.393 . S
C349 C348 1.391 . S
C350 H340 0.950 . S
C350 C351 1.386 . S
C350 C352 1.391 . S
C351 C350 1.386 . S
C351 C355 1.393 . S
C352 H341 0.950 . S
C352 C350 1.391 . S
C352 C353 1.400 . S
C353 C347 1.491 . S
C353 C352 1.400 . S
C353 C354 1.398 . S
C354 H342 0.950 . S
C354 C353 1.398 . S
C354 C355 1.391 . S
C355 H343 0.950 . S
C355 C351 1.393 . S
C355 C354 1.391 . S
H356 C364 0.950 . S
H357 C369 0.950 . S
H358 C366 0.950 . S
H359 C368 0.950 . S
H360 C370 0.950 . S
H361 C372 0.950 . S
H362 C374 0.950 . S
H363 C375 0.950 . S
C364 H356 0.950 . S
C364 C365 1.386 . S
C364 C366 1.391 . S
C365 C364 1.386 . S
C365 C369 1.393 . S
C366 H358 0.950 . S
C366 C364 1.391 . S
C366 C367 1.400 . S
C367 C366 1.400 . S
C367 C368 1.398 . S
C367 C373 1.491 . S
C368 H359 0.950 . S
C368 C367 1.398 . S
C368 C369 1.391 . S
C369 H357 0.950 . S
C369 C365 1.393 . S
C369 C368 1.391 . S
C370 H360 0.950 . S
C370 C371 1.386 . S
C370 C372 1.391 . S
C371 C370 1.386 . S
C371 C375 1.393 . S
C372 H361 0.950 . S
C372 C370 1.391 . S
C372 C373 1.400 . S
C373 C367 1.491 . S
C373 C372 1.400 . S
C373 C374 1.398 . S
C374 H362 0.950 . S
C374 C373 1.398 . S
C374 C375 1.391 . S
C375 H363 0.950 . S
C375 C371 1.393 . S
C375 C374 1.391 . S
H376 C384 0.950 . S
H377 C389 0.950 . S
H378 C386 0.950 . S
H379 C388 0.950 . S
H380 C390 0.950 . S
H381 C392 0.950 . S
H382 C394 0.950 . S
H383 C395 0.950 . S
C384 H376 0.950 . S
C384 C385 1.386 . S
C384 C386 1.391 . S
C385 C384 1.386 . S
C385 C389 1.393 . S
C386 H378 0.950 . S
C386 C384 1.391 . S
C386 C387 1.400 . S
C387 C386 1.400 . S
C387 C388 1.398 . S
C387 C393 1.491 . S
C388 H379 0.950 . S
C388 C387 1.398 . S
C388 C389 1.391 . S
C389 H377 0.950 . S
C389 C385 1.393 . S
C389 C388 1.391 . S
C390 H380 0.950 . S
C390 C391 1.386 . S
C390 C392 1.391 . S
C391 C390 1.386 . S
C391 C395 1.393 . S
C392 H381 0.950 . S
C392 C390 1.391 . S
C392 C393 1.400 . S
C393 C387 1.491 . S
C393 C392 1.400 . S
C393 C394 1.398 . S
C394 H382 0.950 . S
C394 C393 1.398 . S
C394 C395 1.391 . S
C395 H383 0.950 . S
C395 C391 1.393 . S
C395 C394 1.391 . S
H396 C404 0.950 . S
H397 C409 0.950 . S
H398 C406 0.950 . S
H399 C408 0.950 . S
H400 C410 0.950 . S
H401 C412 0.950 . S
H402 C414 0.950 . S
H403 C415 0.950 . S
C404 H396 0.950 . S
C404 C405 1.369 1_455 S
C404 C406 1.391 . S
C405 C404 1.369 1_655 S
C405 C409 1.410 . S
C406 H398 0.950 . S
C406 C404 1.391 . S
C406 C407 1.400 1_455 S
C407 C406 1.400 1_655 S
C407 C408 1.398 . S
C407 C413 1.491 . S
C408 H399 0.950 . S
C408 C407 1.398 . S
C408 C409 1.391 . S
C409 H397 0.950 . S
C409 C405 1.410 . S
C409 C408 1.391 . S
C410 H400 0.950 . S
C410 C411 1.386 . S
C410 C412 1.391 . S
C411 C410 1.386 . S
C411 C415 1.393 1_655 S
C412 H401 0.950 . S
C412 C410 1.391 . S
C412 C413 1.400 . S
C413 C407 1.491 . S
C413 C412 1.400 . S
C413 C414 1.398 1_655 S
C414 H402 0.950 . S
C414 C413 1.398 1_455 S
C414 C415 1.391 . S
C415 H403 0.950 . S
C415 C411 1.393 1_455 S
C415 C414 1.391 . S
H416 C424 0.950 . S
H417 C429 0.950 . S
H418 C426 0.950 . S
H419 C428 0.950 . S
H420 C430 0.982 . S
H421 C432 0.950 . S
H422 C434 0.950 . S
H423 C435 0.950 . S
C424 H416 0.950 . S
C424 C425 1.386 . S
C424 C426 1.391 . S
C425 C424 1.386 . S
C425 C429 1.393 . S
C426 H418 0.950 . S
C426 C424 1.391 . S
C426 C427 1.400 . S
C427 C426 1.400 . S
C427 C428 1.398 . S
C427 C433 1.491 . S
C428 H419 0.950 . S
C428 C427 1.398 . S
C428 C429 1.391 . S
C429 H417 0.950 . S
C429 C425 1.393 . S
C429 C428 1.391 . S
C430 H420 0.982 . S
C430 C431 1.369 1_545 S
C430 C432 1.377 1_545 S
C431 C430 1.369 1_565 S
C431 C435 1.393 . S
C432 H421 0.950 . S
C432 C430 1.377 1_565 S
C432 C433 1.400 . S
C433 C427 1.491 . S
C433 C432 1.400 . S
C433 C434 1.398 . S
C434 H422 0.950 . S
C434 C433 1.398 . S
C434 C435 1.391 . S
C435 H423 0.950 . S
C435 C431 1.393 . S
C435 C434 1.391 . S
H436 C444 0.950 . S
H437 C449 0.950 . S
H438 C446 0.950 . S
H439 C448 0.950 . S
H440 C450 0.950 . S
H441 C452 0.950 . S
H442 C454 0.950 . S
H443 C455 0.950 . S
C444 H436 0.950 . S
C444 C445 1.386 . S
C444 C446 1.391 . S
C445 C444 1.386 . S
C445 C449 1.393 . S
C446 H438 0.950 . S
C446 C444 1.391 . S
C446 C447 1.400 . S
C447 C446 1.400 . S
C447 C448 1.398 . S
C447 C453 1.491 . S
C448 H439 0.950 . S
C448 C447 1.398 . S
C448 C449 1.391 . S
C449 H437 0.950 . S
C449 C445 1.393 . S
C449 C448 1.391 . S
C450 H440 0.950 . S
C450 C451 1.386 . S
C450 C452 1.391 . S
C451 C450 1.386 . S
C451 C455 1.393 . S
C452 H441 0.950 . S
C452 C450 1.391 . S
C452 C453 1.400 . S
C453 C447 1.491 . S
C453 C452 1.400 . S
C453 C454 1.398 . S
C454 H442 0.950 . S
C454 C453 1.398 . S
C454 C455 1.391 . S
C455 H443 0.950 . S
C455 C451 1.393 . S
C455 C454 1.391 . S
H456 C464 0.950 . S
H457 C469 0.950 . S
H458 C466 0.950 . S
H459 C468 0.950 . S
H460 C470 0.950 . S
H461 C472 0.950 . S
H462 C474 0.950 . S
H463 C475 0.950 . S
C464 H456 0.950 . S
C464 C465 1.386 . S
C464 C466 1.391 . S
C465 C464 1.386 . S
C465 C469 1.393 . S
C466 H458 0.950 . S
C466 C464 1.391 . S
C466 C467 1.400 . S
C467 C466 1.400 . S
C467 C468 1.398 . S
C467 C473 1.491 . S
C468 H459 0.950 . S
C468 C467 1.398 . S
C468 C469 1.391 . S
C469 H457 0.950 . S
C469 C465 1.393 . S
C469 C468 1.391 . S
C470 H460 0.950 . S
C470 C471 1.386 . S
C470 C472 1.391 . S
C471 C470 1.386 . S
C471 C475 1.393 . S
C472 H461 0.950 . S
C472 C470 1.391 . S
C472 C473 1.400 . S
C473 C467 1.491 . S
C473 C472 1.400 . S
C473 C474 1.398 . S
C474 H462 0.950 . S
C474 C473 1.398 . S
C474 C475 1.391 . S
C475 H463 0.950 . S
C475 C471 1.393 . S
C475 C474 1.391 . S
H476 C484 0.950 . S
H477 C489 0.950 . S
H478 C486 0.950 . S
H479 C488 0.950 . S
H480 C490 0.950 . S
H481 C492 0.950 . S
H482 C494 0.950 . S
H483 C495 0.950 . S
C484 H476 0.950 . S
C484 C485 1.413 . S
C484 C486 1.391 . S
C485 C484 1.413 . S
C485 C489 1.368 1_455 S
C486 H478 0.950 . S
C486 C484 1.391 . S
C486 C487 1.400 . S
C487 C486 1.400 . S
C487 C488 1.398 1_455 S
C487 C493 1.491 . S
C488 H479 0.950 . S
C488 C487 1.398 1_655 S
C488 C489 1.391 . S
C489 H477 0.950 . S
C489 C485 1.368 1_655 S
C489 C488 1.391 . S
C490 H480 0.950 . S
C490 C491 1.386 1_655 S
C490 C492 1.391 . S
C491 C490 1.386 1_455 S
C491 C495 1.393 . S
C492 H481 0.950 . S
C492 C490 1.391 . S
C492 C493 1.400 1_655 S
C493 C487 1.491 . S
C493 C492 1.400 1_455 S
C493 C494 1.398 . S
C494 H482 0.950 . S
C494 C493 1.398 . S
C494 C495 1.391 . S
C495 H483 0.950 . S
C495 C491 1.393 . S
C495 C494 1.391 . S
H496 C504 0.950 . S
H497 C509 0.950 . S
H498 C506 0.950 . S
H499 C508 0.950 . S
H500 C510 0.950 . S
H501 C512 0.950 . S
H502 C514 0.950 . S
H503 C515 0.950 . S
C504 H496 0.950 . S
C504 C505 1.359 1_655 S
C504 C506 1.391 . S
C505 C504 1.359 1_455 S
C505 C509 1.416 . S
C506 H498 0.950 . S
C506 C504 1.391 . S
C506 C507 1.400 . S
C507 C506 1.400 . S
C507 C508 1.398 1_655 S
C507 C513 1.491 . S
C508 H499 0.950 . S
C508 C507 1.398 1_455 S
C508 C509 1.391 . S
C509 H497 0.950 . S
C509 C505 1.416 . S
C509 C508 1.391 . S
C510 H500 0.950 . S
C510 C511 1.386 1_455 S
C510 C512 1.391 . S
C511 C510 1.386 1_655 S
C511 C515 1.393 . S
C512 H501 0.950 . S
C512 C510 1.391 . S
C512 C513 1.400 1_455 S
C513 C507 1.491 . S
C513 C512 1.400 1_655 S
C513 C514 1.398 . S
C514 H502 0.950 . S
C514 C513 1.398 . S
C514 C515 1.391 . S
C515 H503 0.950 . S
C515 C511 1.393 . S
C515 C514 1.391 . S
H516 C524 0.950 . S
H517 C529 0.950 . S
H518 C526 0.950 . S
H519 C528 0.950 . S
H520 C530 0.950 . S
H521 C532 0.950 . S
H522 C534 0.950 . S
H523 C535 0.950 1_565 S
C524 H516 0.950 . S
C524 C525 1.386 . S
C524 C526 1.391 . S
C525 C524 1.386 . S
C525 C529 1.393 . S
C526 H518 0.950 . S
C526 C524 1.391 . S
C526 C527 1.400 . S
C527 C526 1.400 . S
C527 C528 1.398 . S
C527 C533 1.491 . S
C528 H519 0.950 . S
C528 C527 1.398 . S
C528 C529 1.391 . S
C529 H517 0.950 . S
C529 C525 1.393 . S
C529 C528 1.391 . S
C530 H520 0.950 . S
C530 C531 1.386 . S
C530 C532 1.391 . S
C531 C530 1.386 . S
C531 C535 1.393 . S
C532 H521 0.950 . S
C532 C530 1.391 . S
C532 C533 1.400 . S
C533 C527 1.491 . S
C533 C532 1.400 . S
C533 C534 1.398 . S
C534 H522 0.950 . S
C534 C533 1.398 . S
C534 C535 1.391 . S
C535 H523 0.950 1_545 S
C535 C531 1.393 . S
C535 C534 1.391 . S
H536 C544 0.950 . S
H537 C549 0.950 . S
H538 C546 0.950 . S
H539 C548 0.950 . S
H540 C550 0.950 . S
H541 C552 0.950 . S
H542 C554 0.950 . S
H543 C555 0.950 . S
C544 H536 0.950 . S
C544 C545 1.386 . S
C544 C546 1.391 . S
C545 C544 1.386 . S
C545 C549 1.393 . S
C546 H538 0.950 . S
C546 C544 1.391 . S
C546 C547 1.400 . S
C547 C546 1.400 . S
C547 C548 1.398 . S
C547 C553 1.491 . S
C548 H539 0.950 . S
C548 C547 1.398 . S
C548 C549 1.391 . S
C549 H537 0.950 . S
C549 C545 1.393 . S
C549 C548 1.391 . S
C550 H540 0.950 . S
C550 C551 1.386 . S
C550 C552 1.391 . S
C551 C550 1.386 . S
C551 C555 1.393 . S
C552 H541 0.950 . S
C552 C550 1.391 . S
C552 C553 1.400 . S
C553 C547 1.491 . S
C553 C552 1.400 . S
C553 C554 1.398 . S
C554 H542 0.950 . S
C554 C553 1.398 . S
C554 C555 1.391 . S
C555 H543 0.950 . S
C555 C551 1.393 . S
C555 C554 1.391 . S
H556 C564 0.950 . S
H557 C569 0.950 . S
H558 C566 0.950 . S
H559 C568 0.950 . S
H560 C570 0.950 . S
H561 C572 0.950 . S
H562 C574 0.950 . S
H563 C575 0.950 . S
C564 H556 0.950 . S
C564 C565 1.386 . S
C564 C566 1.391 . S
C565 C564 1.386 . S
C565 C569 1.393 . S
C566 H558 0.950 . S
C566 C564 1.391 . S
C566 C567 1.400 . S
C567 C566 1.400 . S
C567 C568 1.398 . S
C567 C573 1.491 . S
C568 H559 0.950 . S
C568 C567 1.398 . S
C568 C569 1.391 . S
C569 H557 0.950 . S
C569 C565 1.393 . S
C569 C568 1.391 . S
C570 H560 0.950 . S
C570 C571 1.386 . S
C570 C572 1.391 . S
C571 C570 1.386 . S
C571 C575 1.393 . S
C572 H561 0.950 . S
C572 C570 1.391 . S
C572 C573 1.400 . S
C573 C567 1.491 . S
C573 C572 1.400 . S
C573 C574 1.398 . S
C574 H562 0.950 . S
C574 C573 1.398 . S
C574 C575 1.391 . S
C575 H563 0.950 . S
C575 C571 1.393 . S
C575 C574 1.391 . S
H576 C584 0.950 . S
H577 C589 0.950 . S
H578 C586 0.950 . S
H579 C588 0.950 . S
H580 C590 0.950 . S
H581 C592 0.950 . S
H582 C594 0.950 . S
H583 C595 0.950 . S
C584 H576 0.950 . S
C584 C585 1.382 1_655 S
C584 C586 1.391 . S
C585 C584 1.382 1_455 S
C585 C589 1.397 . S
C586 H578 0.950 . S
C586 C584 1.391 . S
C586 C587 1.400 1_655 S
C587 C586 1.400 1_455 S
C587 C588 1.398 . S
C587 C593 1.491 . S
C588 H579 0.950 . S
C588 C587 1.398 . S
C588 C589 1.391 . S
C589 H577 0.950 . S
C589 C585 1.397 . S
C589 C588 1.391 . S
C590 H580 0.950 . S
C590 C591 1.386 . S
C590 C592 1.391 . S
C591 C590 1.386 . S
C591 C595 1.393 1_455 S
C592 H581 0.950 . S
C592 C590 1.391 . S
C592 C593 1.400 . S
C593 C587 1.491 . S
C593 C592 1.400 . S
C593 C594 1.398 1_455 S
C594 H582 0.950 . S
C594 C593 1.398 1_655 S
C594 C595 1.391 . S
C595 H583 0.950 . S
C595 C591 1.393 1_655 S
C595 C594 1.391 . S
H596 C604 0.950 . S
H597 C609 0.950 . S
H598 C606 0.950 . S
H599 C608 0.950 . S
H600 C610 0.950 . S
H601 C612 0.950 . S
H602 C614 0.950 1_545 S
H603 C615 0.950 . S
C604 H596 0.950 . S
C604 C605 1.386 . S
C604 C606 1.391 . S
C605 C604 1.386 . S
C605 C609 1.393 . S
C606 H598 0.950 . S
C606 C604 1.391 . S
C606 C607 1.400 . S
C607 C606 1.400 . S
C607 C608 1.398 . S
C607 C613 1.491 . S
C608 H599 0.950 . S
C608 C607 1.398 . S
C608 C609 1.391 . S
C609 H597 0.950 . S
C609 C605 1.393 . S
C609 C608 1.391 . S
C610 H600 0.950 . S
C610 C611 1.386 . S
C610 C612 1.391 . S
C611 C610 1.386 . S
C611 C615 1.393 1_565 S
C612 H601 0.950 . S
C612 C610 1.391 . S
C612 C613 1.400 . S
C613 C607 1.491 . S
C613 C612 1.400 . S
C613 C614 1.398 . S
C614 H602 0.950 1_565 S
C614 C613 1.398 . S
C614 C615 1.391 1_565 S
C615 H603 0.950 . S
C615 C611 1.393 1_545 S
C615 C614 1.391 1_545 S
H616 C624 0.950 . S
H617 C629 0.950 . S
H618 C626 0.950 . S
H619 C628 0.950 . S
H620 C630 0.950 . S
H621 C632 0.950 . S
H622 C634 0.950 . S
H623 C635 0.950 . S
C624 H616 0.950 . S
C624 C625 1.386 . S
C624 C626 1.391 . S
C625 C624 1.386 . S
C625 C629 1.393 . S
C626 H618 0.950 . S
C626 C624 1.391 . S
C626 C627 1.400 . S
C627 C626 1.400 . S
C627 C628 1.398 . S
C627 C633 1.491 . S
C628 H619 0.950 . S
C628 C627 1.398 . S
C628 C629 1.391 . S
C629 H617 0.950 . S
C629 C625 1.393 . S
C629 C628 1.391 . S
C630 H620 0.950 . S
C630 C631 1.386 . S
C630 C632 1.391 . S
C631 C630 1.386 . S
C631 C635 1.393 . S
C632 H621 0.950 . S
C632 C630 1.391 . S
C632 C633 1.400 . S
C633 C627 1.491 . S
C633 C632 1.400 . S
C633 C634 1.398 . S
C634 H622 0.950 . S
C634 C633 1.398 . S
C634 C635 1.391 . S
C635 H623 0.950 . S
C635 C631 1.393 . S
C635 C634 1.391 . S
H636 C644 0.950 . S
H637 C649 0.950 . S
H638 C646 0.950 . S
H639 C648 0.950 . S
H640 C650 0.950 . S
H641 C652 0.950 . S
H642 C654 0.950 . S
H643 C655 0.950 . S
C644 H636 0.950 . S
C644 C645 1.386 . S
C644 C646 1.391 . S
C645 C644 1.386 . S
C645 C649 1.393 . S
C646 H638 0.950 . S
C646 C644 1.391 . S
C646 C647 1.400 . S
C647 C646 1.400 . S
C647 C648 1.398 . S
C647 C653 1.491 . S
C648 H639 0.950 . S
C648 C647 1.398 . S
C648 C649 1.391 . S
C649 H637 0.950 . S
C649 C645 1.393 . S
C649 C648 1.391 . S
C650 H640 0.950 . S
C650 C651 1.386 . S
C650 C652 1.391 . S
C651 C650 1.386 . S
C651 C655 1.393 . S
C652 H641 0.950 . S
C652 C650 1.391 . S
C652 C653 1.400 . S
C653 C647 1.491 . S
C653 C652 1.400 . S
C653 C654 1.398 . S
C654 H642 0.950 . S
C654 C653 1.398 . S
C654 C655 1.391 . S
C655 H643 0.950 . S
C655 C651 1.393 . S
C655 C654 1.391 . S
H656 C664 0.950 . S
H657 C669 0.950 . S
H658 C666 0.950 . S
H659 C668 0.950 . S
H660 C670 0.950 . S
H661 C672 0.950 . S
H662 C674 0.950 . S
H663 C675 0.950 . S
C664 H656 0.950 . S
C664 C665 1.386 . S
C664 C666 1.391 . S
C665 C664 1.386 . S
C665 C669 1.393 . S
C666 H658 0.950 . S
C666 C664 1.391 . S
C666 C667 1.400 . S
C667 C666 1.400 . S
C667 C668 1.398 . S
C667 C673 1.491 . S
C668 H659 0.950 . S
C668 C667 1.398 . S
C668 C669 1.391 . S
C669 H657 0.950 . S
C669 C665 1.393 . S
C669 C668 1.391 . S
C670 H660 0.950 . S
C670 C671 1.386 . S
C670 C672 1.391 . S
C671 C670 1.386 . S
C671 C675 1.393 . S
C672 H661 0.950 . S
C672 C670 1.391 . S
C672 C673 1.400 . S
C673 C667 1.491 . S
C673 C672 1.400 . S
C673 C674 1.398 . S
C674 H662 0.950 . S
C674 C673 1.398 . S
C674 C675 1.391 . S
C675 H663 0.950 . S
C675 C671 1.393 . S
C675 C674 1.391 . S
H676 C684 0.950 . S
H677 C689 0.950 . S
H678 C686 0.950 . S
H679 C688 0.950 . S
H680 C690 0.950 . S
H681 C692 0.950 . S
H682 C694 0.950 . S
H683 C695 0.950 . S
C684 H676 0.950 . S
C684 C685 1.386 . S
C684 C686 1.391 . S
C685 C684 1.386 . S
C685 C689 1.393 . S
C686 H678 0.950 . S
C686 C684 1.391 . S
C686 C687 1.400 . S
C687 C686 1.400 . S
C687 C688 1.398 . S
C687 C693 1.491 . S
C688 H679 0.950 . S
C688 C687 1.398 . S
C688 C689 1.391 . S
C689 H677 0.950 . S
C689 C685 1.393 . S
C689 C688 1.391 . S
C690 H680 0.950 . S
C690 C691 1.386 . S
C690 C692 1.391 . S
C691 C690 1.386 . S
C691 C695 1.393 . S
C692 H681 0.950 . S
C692 C690 1.391 . S
C692 C693 1.400 . S
C693 C687 1.491 . S
C693 C692 1.400 . S
C693 C694 1.398 . S
C694 H682 0.950 . S
C694 C693 1.398 . S
C694 C695 1.391 . S
C695 H683 0.950 . S
C695 C691 1.393 . S
C695 C694 1.391 . S
H696 C704 0.950 . S
H697 C709 0.950 . S
H698 C706 0.950 . S
H699 C708 0.950 . S
H700 C710 0.950 . S
H701 C712 0.950 . S
H702 C714 0.950 . S
H703 C715 0.950 . S
C704 H696 0.950 . S
C704 C705 1.386 . S
C704 C706 1.391 . S
C705 C704 1.386 . S
C705 C709 1.393 . S
C706 H698 0.950 . S
C706 C704 1.391 . S
C706 C707 1.400 . S
C707 C706 1.400 . S
C707 C708 1.398 . S
C707 C713 1.491 . S
C708 H699 0.950 . S
C708 C707 1.398 . S
C708 C709 1.391 . S
C709 H697 0.950 . S
C709 C705 1.393 . S
C709 C708 1.391 . S
C710 H700 0.950 . S
C710 C711 1.386 . S
C710 C712 1.391 . S
C711 C710 1.386 . S
C711 C715 1.393 . S
C712 H701 0.950 . S
C712 C710 1.391 . S
C712 C713 1.400 . S
C713 C707 1.491 . S
C713 C712 1.400 . S
C713 C714 1.398 . S
C714 H702 0.950 . S
C714 C713 1.398 . S
C714 C715 1.391 . S
C715 H703 0.950 . S
C715 C711 1.393 . S
C715 C714 1.391 . S
H716 C724 0.950 . S
H717 C729 0.950 . S
H718 C726 0.950 . S
H719 C728 0.950 . S
H720 C730 0.950 . S
H721 C732 0.950 . S
H722 C734 0.950 . S
H723 C735 0.950 . S
C724 H716 0.950 . S
C724 C725 1.386 . S
C724 C726 1.391 . S
C725 C724 1.386 . S
C725 C729 1.393 . S
C726 H718 0.950 . S
C726 C724 1.391 . S
C726 C727 1.400 . S
C727 C726 1.400 . S
C727 C728 1.398 . S
C727 C733 1.491 . S
C728 H719 0.950 . S
C728 C727 1.398 . S
C728 C729 1.391 . S
C729 H717 0.950 . S
C729 C725 1.393 . S
C729 C728 1.391 . S
C730 H720 0.950 . S
C730 C731 1.386 . S
C730 C732 1.391 . S
C731 C730 1.386 . S
C731 C735 1.393 . S
C732 H721 0.950 . S
C732 C730 1.391 . S
C732 C733 1.400 . S
C733 C727 1.491 . S
C733 C732 1.400 . S
C733 C734 1.398 . S
C734 H722 0.950 . S
C734 C733 1.398 . S
C734 C735 1.391 . S
C735 H723 0.950 . S
C735 C731 1.393 . S
C735 C734 1.391 . S
H736 C744 0.950 . S
H737 C749 0.950 . S
H738 C746 0.950 . S
H739 C748 0.950 . S
H740 C750 0.950 . S
H741 C752 0.950 . S
H742 C754 0.950 . S
H743 C755 0.950 . S
C744 H736 0.950 . S
C744 C745 1.411 . S
C744 C746 1.391 . S
C745 C744 1.411 . S
C745 C749 1.369 1_655 S
C746 H738 0.950 . S
C746 C744 1.391 . S
C746 C747 1.400 . S
C747 C746 1.400 . S
C747 C748 1.398 1_655 S
C747 C753 1.491 . S
C748 H739 0.950 . S
C748 C747 1.398 1_455 S
C748 C749 1.391 . S
C749 H737 0.950 . S
C749 C745 1.369 1_455 S
C749 C748 1.391 . S
C750 H740 0.950 . S
C750 C751 1.386 1_455 S
C750 C752 1.391 . S
C751 C750 1.386 1_655 S
C751 C755 1.393 . S
C752 H741 0.950 . S
C752 C750 1.391 . S
C752 C753 1.400 1_455 S
C753 C747 1.491 . S
C753 C752 1.400 1_655 S
C753 C754 1.398 . S
C754 H742 0.950 . S
C754 C753 1.398 . S
C754 C755 1.391 . S
C755 H743 0.950 . S
C755 C751 1.393 . S
C755 C754 1.391 . S
H756 C764 0.950 . S
H757 C769 0.950 . S
H758 C766 0.950 . S
H759 C768 0.950 . S
H760 C770 0.950 . S
H761 C772 0.950 . S
H762 C774 0.950 . S
H763 C775 0.950 . S
C764 H756 0.950 . S
C764 C765 1.386 . S
C764 C766 1.391 . S
C765 C764 1.386 . S
C765 C769 1.393 . S
C766 H758 0.950 . S
C766 C764 1.391 . S
C766 C767 1.400 . S
C767 C766 1.400 . S
C767 C768 1.398 . S
C767 C773 1.491 . S
C768 H759 0.950 . S
C768 C767 1.398 . S
C768 C769 1.391 . S
C769 H757 0.950 . S
C769 C765 1.393 . S
C769 C768 1.391 . S
C770 H760 0.950 . S
C770 C771 1.386 . S
C770 C772 1.391 . S
C771 C770 1.386 . S
C771 C775 1.393 . S
C772 H761 0.950 . S
C772 C770 1.391 . S
C772 C773 1.400 . S
C773 C767 1.491 . S
C773 C772 1.400 . S
C773 C774 1.398 . S
C774 H762 0.950 . S
C774 C773 1.398 . S
C774 C775 1.391 . S
C775 H763 0.950 . S
C775 C771 1.393 . S
C775 C774 1.391 . S
H776 C784 0.950 . S
H777 C789 0.950 . S
H778 C786 0.950 . S
H779 C788 0.950 . S
H780 C790 0.950 . S
H781 C792 0.950 . S
H782 C794 0.950 . S
H783 C795 0.950 . S
C784 H776 0.950 . S
C784 C785 1.386 . S
C784 C786 1.391 . S
C785 C784 1.386 . S
C785 C789 1.393 . S
C786 H778 0.950 . S
C786 C784 1.391 . S
C786 C787 1.400 . S
C787 C786 1.400 . S
C787 C788 1.398 . S
C787 C793 1.491 . S
C788 H779 0.950 . S
C788 C787 1.398 . S
C788 C789 1.391 . S
C789 H777 0.950 . S
C789 C785 1.393 . S
C789 C788 1.391 . S
C790 H780 0.950 . S
C790 C791 1.386 . S
C790 C792 1.391 . S
C791 C790 1.386 . S
C791 C795 1.393 . S
C792 H781 0.950 . S
C792 C790 1.391 . S
C792 C793 1.400 . S
C793 C787 1.491 . S
C793 C792 1.400 . S
C793 C794 1.398 . S
C794 H782 0.950 . S
C794 C793 1.398 . S
C794 C795 1.391 . S
C795 H783 0.950 . S
C795 C791 1.393 . S
C795 C794 1.391 . S
H796 C804 0.950 . S
H797 C809 0.950 . S
H798 C806 0.950 . S
H799 C808 0.950 . S
H800 C810 0.950 . S
H801 C812 0.950 . S
H802 C814 0.950 . S
H803 C815 0.950 . S
C804 H796 0.950 . S
C804 C805 1.386 . S
C804 C806 1.391 . S
C805 C804 1.386 . S
C805 C809 1.393 . S
C806 H798 0.950 . S
C806 C804 1.391 . S
C806 C807 1.400 . S
C807 C806 1.400 . S
C807 C808 1.398 . S
C807 C813 1.491 . S
C808 H799 0.950 . S
C808 C807 1.398 . S
C808 C809 1.391 . S
C809 H797 0.950 . S
C809 C805 1.393 . S
C809 C808 1.391 . S
C810 H800 0.950 . S
C810 C811 1.386 . S
C810 C812 1.391 . S
C811 C810 1.386 . S
C811 C815 1.393 . S
C812 H801 0.950 . S
C812 C810 1.391 . S
C812 C813 1.400 . S
C813 C807 1.491 . S
C813 C812 1.400 . S
C813 C814 1.398 . S
C814 H802 0.950 . S
C814 C813 1.398 . S
C814 C815 1.391 . S
C815 H803 0.950 . S
C815 C811 1.393 . S
C815 C814 1.391 . S
C345 C215 1.744 . S
C351 C274 1.720 . S
C371 C294 1.456 . S
C365 C247 1.437 . S
C391 C314 1.700 . S
C385 C151 1.718 . S
C411 C334 1.475 . S
C405 C183 1.477 1_655 S
C431 C275 1.709 1_565 S
C425 C87 1.619 . S
C445 C119 1.486 . S
C451 C295 1.454 . S
C465 C23 1.593 . S
C471 C315 1.679 . S
C485 C55 1.470 . S
C491 C335 1.476 . S
C511 C265 0.643 . S
C505 C189 0.626 . S
C531 C285 0.781 . S
C525 C221 0.785 . S
C551 C305 0.659 . S
C545 C253 0.701 . S
C565 C157 0.764 . S
C571 C325 0.782 . S
C585 C61 0.619 . S
C591 C268 0.616 . S
C611 C288 0.812 . S
C605 C93 0.807 . S
C631 C308 0.695 . S
C625 C125 0.678 . S
C645 C29 0.722 . S
C651 C328 0.726 . S
C665 C177 1.804 . S
C671 C258 1.765 . S
C685 C209 1.914 . S
C691 C278 1.836 . S
C711 C298 1.726 . S
C705 C241 1.742 . S
C731 C318 1.885 . S
C725 C145 1.967 . S
C745 C49 1.831 1_655 S
C751 C260 1.793 . S
C771 C280 1.830 . S
C765 C81 1.834 . S
C791 C300 1.705 . S
C785 C113 1.799 . S
C805 C17 1.876 . S
C811 C320 1.902 . S
