# Generated by pormake.
# Topology hwx, (6,3)-cn, num edge types: 1
# Building blocks:
#     Node 0, Type 0, BuildingBlock: IZENUY_clean_sbu_0, # of connection points: 6
#     Node 1, Type 0, BuildingBlock: IZENUY_clean_sbu_0, # of connection points: 6
#     Node 2, Type 0, BuildingBlock: IZENUY_clean_sbu_0, # of connection points: 6
#     Node 3, Type 0, BuildingBlock: IZENUY_clean_sbu_0, # of connection points: 6
#     Node 4, Type 1, BuildingBlock: CUQRIR_clean_linker_1, # of connection points: 3
#     Node 5, Type 1, BuildingBlock: CUQRIR_clean_linker_1, # of connection points: 3
#     Node 6, Type 1, BuildingBlock: CUQRIR_clean_linker_1, # of connection points: 3
#     Node 7, Type 1, BuildingBlock: CUQRIR_clean_linker_1, # of connection points: 3
#     Node 8, Type 1, BuildingBlock: CUQRIR_clean_linker_1, # of connection points: 3
#     Node 9, Type 1, BuildingBlock: CUQRIR_clean_linker_1, # of connection points: 3
#     Node 10, Type 1, BuildingBlock: CUQRIR_clean_linker_1, # of connection points: 3
#     Node 11, Type 1, BuildingBlock: CUQRIR_clean_linker_1, # of connection points: 3
#     Edge 12, Type (0, 1), BuildingBlock: MIFKUJ_clean_linker_0, # of connection points: 2
#     Edge 13, Type (0, 1), BuildingBlock: MIFKUJ_clean_linker_0, # of connection points: 2
#     Edge 14, Type (0, 1), BuildingBlock: MIFKUJ_clean_linker_0, # of connection points: 2
#     Edge 15, Type (0, 1), BuildingBlock: MIFKUJ_clean_linker_0, # of connection points: 2
#     Edge 16, Type (0, 1), BuildingBlock: MIFKUJ_clean_linker_0, # of connection points: 2
#     Edge 17, Type (0, 1), BuildingBlock: MIFKUJ_clean_linker_0, # of connection points: 2
#     Edge 18, Type (0, 1), BuildingBlock: MIFKUJ_clean_linker_0, # of connection points: 2
#     Edge 19, Type (0, 1), BuildingBlock: MIFKUJ_clean_linker_0, # of connection points: 2
#     Edge 20, Type (0, 1), BuildingBlock: MIFKUJ_clean_linker_0, # of connection points: 2
#     Edge 21, Type (0, 1), BuildingBlock: MIFKUJ_clean_linker_0, # of connection points: 2
#     Edge 22, Type (0, 1), BuildingBlock: MIFKUJ_clean_linker_0, # of connection points: 2
#     Edge 23, Type (0, 1), BuildingBlock: MIFKUJ_clean_linker_0, # of connection points: 2
#     Edge 24, Type (0, 1), BuildingBlock: MIFKUJ_clean_linker_0, # of connection points: 2
#     Edge 25, Type (0, 1), BuildingBlock: MIFKUJ_clean_linker_0, # of connection points: 2
#     Edge 26, Type (0, 1), BuildingBlock: MIFKUJ_clean_linker_0, # of connection points: 2
#     Edge 27, Type (0, 1), BuildingBlock: MIFKUJ_clean_linker_0, # of connection points: 2
#     Edge 28, Type (0, 1), BuildingBlock: MIFKUJ_clean_linker_0, # of connection points: 2
#     Edge 29, Type (0, 1), BuildingBlock: MIFKUJ_clean_linker_0, # of connection points: 2
#     Edge 30, Type (0, 1), BuildingBlock: MIFKUJ_clean_linker_0, # of connection points: 2
#     Edge 31, Type (0, 1), BuildingBlock: MIFKUJ_clean_linker_0, # of connection points: 2
#     Edge 32, Type (0, 1), BuildingBlock: MIFKUJ_clean_linker_0, # of connection points: 2
#     Edge 33, Type (0, 1), BuildingBlock: MIFKUJ_clean_linker_0, # of connection points: 2
#     Edge 34, Type (0, 1), BuildingBlock: MIFKUJ_clean_linker_0, # of connection points: 2
#     Edge 35, Type (0, 1), BuildingBlock: MIFKUJ_clean_linker_0, # of connection points: 2
# Relax obj value: 0.001
# Max RMSD: 0.075
# Mean RMSD: 0.054
data_MOF--net-hwx--node1-IZENUY_clean_sbu_0--node2-CUQRIR_clean_linker_1--edge1-MIFKUJ_clean_linker_0
_symmetry_space_group_name_H-M    P1
_symmetry_Int_Tables_number       1
_symmetry_cell_setting            triclinic
loop_
_symmetry_equiv_pos_as_xyz
'x, y, z'
_cell_length_a     63.398959
_cell_length_b     63.392424
_cell_length_c     25.209617
_cell_angle_alpha  89.927394
_cell_angle_beta   90.056191
_cell_angle_gamma 89.996443
loop_
_atom_site_label
_atom_site_type_symbol
_atom_site_fract_x
_atom_site_fract_y
_atom_site_fract_z
_atom_type_partial_charge
Fe0 Fe 0.23559 0.23385 0.07033 0.0
Fe1 Fe 0.234 0.23422 0.9487 0.0
O2 O 0.2253 0.22366 0.01007 0.0
Fe3 Fe 0.20641 0.20299 0.01105 0.0
O4 O 0.18801 0.21863 0.05008 0.0
O5 O 0.21128 0.22989 0.10827 0.0
O6 O 0.22602 0.26018 0.05534 0.0
C7 C 0.23062 0.27041 0.01403 0.0
C8 C 0.23466 0.19182 0.09473 0.0
O9 O 0.238 0.2611 0.97375 0.0
C10 C 0.23063 0.19043 0.92692 0.0
O11 O 0.26186 0.23976 0.04338 0.0
O12 O 0.26114 0.22687 0.96255 0.0
O13 O 0.21711 0.19027 0.07087 0.0
O14 O 0.24578 0.20824 0.09012 0.0
C15 C 0.19204 0.22958 0.92704 0.0
O16 O 0.23156 0.20946 0.91204 0.0
O17 O 0.22334 0.18571 0.97203 0.0
C18 C 0.27135 0.23279 1.00283 0.0
O19 O 0.20745 0.24213 0.93041 0.0
O20 O 0.19228 0.21206 0.95139 0.0
C21 C 0.19233 0.22712 0.09408 0.0
Fe22 Fe 0.27361 0.73378 0.5685 0.0
Fe23 Fe 0.30285 0.70346 0.50793 0.0
O24 O 0.28338 0.7236 0.50771 0.0
Fe25 Fe 0.27371 0.73357 0.4466 0.0
O26 O 0.26956 0.76056 0.47071 0.0
O27 O 0.282 0.76034 0.55206 0.0
O28 O 0.29869 0.73086 0.60417 0.0
C29 C 0.31747 0.72854 0.58808 0.0
C30 C 0.23703 0.7316 0.50355 0.0
O31 O 0.32133 0.72 0.5439 0.0
C32 C 0.27756 0.6896 0.42738 0.0
O33 O 0.26455 0.7079 0.58994 0.0
O34 O 0.29375 0.69108 0.56968 0.0
O35 O 0.24691 0.72588 0.46265 0.0
O36 O 0.24679 0.73869 0.54362 0.0
C37 C 0.3154 0.72956 0.42178 0.0
O38 O 0.28578 0.68544 0.47185 0.0
O39 O 0.27602 0.70845 0.41119 0.0
C40 C 0.27651 0.6921 0.59489 0.0
O41 O 0.31565 0.71212 0.4463 0.0
O42 O 0.29989 0.74191 0.426 0.0
C43 C 0.27688 0.77022 0.5106 0.0
Fe44 Fe 0.77368 0.7757 0.94313 0.0
Fe45 Fe 0.77338 0.77674 0.06486 0.0
O46 O 0.78303 0.78664 1.0036 0.0
Fe47 Fe 0.80192 0.80732 1.003 0.0
O48 O 0.79186 0.81958 0.94193 0.0
O49 O 0.76379 0.80099 0.92017 0.0
O50 O 0.74697 0.7701 0.96813 0.0
C51 C 0.73694 0.77774 0.0071 0.0
C52 C 0.81716 0.78264 0.9224 0.0
O53 O 0.74658 0.78406 0.04783 0.0
C54 C 0.8151 0.78144 0.08966 0.0
O55 O 0.78314 0.74965 0.96115 0.0
O56 O 0.76961 0.74954 0.04118 0.0
O57 O 0.82082 0.79151 0.96624 0.0
O58 O 0.79846 0.77929 0.90707 0.0
C59 C 0.77656 0.82072 0.08411 0.0
O60 O 0.7996 0.76898 0.08628 0.0
O61 O 0.8153 0.79868 0.06407 0.0
C62 C 0.7777 0.73981 1.00238 0.0
O63 O 0.77526 0.80188 0.10027 0.0
O64 O 0.78461 0.82491 0.03959 0.0
C65 C 0.77477 0.81755 0.91632 0.0
Fe66 Fe 0.70525 0.30745 0.49965 0.0
Fe67 Fe 0.73514 0.27858 0.56293 0.0
O68 O 0.72502 0.28762 0.50141 0.0
Fe69 Fe 0.73477 0.27669 0.44151 0.0
O70 O 0.74394 0.30225 0.41869 0.0
O71 O 0.71475 0.3195 0.43753 0.0
O72 O 0.72175 0.32615 0.5354 0.0
C73 C 0.72996 0.32262 0.5802 0.0
C74 C 0.69106 0.2819 0.41988 0.0
O75 O 0.7324 0.30394 0.5969 0.0
C76 C 0.73178 0.24108 0.50215 0.0
O77 O 0.69232 0.29888 0.56136 0.0
O78 O 0.70927 0.27006 0.58492 0.0
O79 O 0.70994 0.27944 0.40482 0.0
O80 O 0.68706 0.29041 0.46396 0.0
C81 C 0.77148 0.28013 0.50509 0.0
O82 O 0.73965 0.25136 0.54044 0.0
O83 O 0.72614 0.25042 0.46024 0.0
C84 C 0.69333 0.28192 0.58801 0.0
O85 O 0.76172 0.28664 0.54542 0.0
O86 O 0.76156 0.2719 0.46675 0.0
C87 C 0.73215 0.31815 0.41291 0.0
C88 C 0.24073 0.50988 0.9674 0.0
N89 N 0.24398 0.53002 0.98316 0.0
N90 N 0.24094 0.49664 0.00968 0.0
C91 C 0.2389 0.50297 0.91054 0.0
C92 C 0.24447 0.50951 0.05164 0.0
N93 N 0.24653 0.52979 0.03545 0.0
C94 C 0.24427 0.50245 0.10865 0.0
H95 H 0.22199 0.50287 0.89913 0.0
H96 H 0.24529 0.48682 0.90522 0.0
H97 H 0.24735 0.51398 0.88371 0.0
H98 H 0.26062 0.49871 0.12124 0.0
H99 H 0.23447 0.48807 0.11365 0.0
H100 H 0.23807 0.51508 0.13477 0.0
C101 C 0.99888 0.75178 0.54603 0.0
N102 N 0.97846 0.75428 0.53138 0.0
N103 N 0.01136 0.74922 0.50289 0.0
C104 C 0.00636 0.74999 0.60255 0.0
C105 C 0.99774 0.75008 0.46144 0.0
N106 N 0.9777 0.75294 0.47879 0.0
C107 C 0.00423 0.75013 0.40401 0.0
H108 H 0.01058 0.7659 0.61738 0.0
H109 H 0.02049 0.73973 0.60536 0.0
H110 H 0.99378 0.74346 0.62837 0.0
H111 H 0.00383 0.73372 0.38877 0.0
H112 H 0.02048 0.75635 0.39926 0.0
H113 H 0.99327 0.75982 0.37979 0.0
C114 C 0.77132 0.4995 0.04367 0.0
N115 N 0.76642 0.47989 0.02648 0.0
N116 N 0.77055 0.51351 1.00308 0.0
C117 C 0.77634 0.50504 0.10026 0.0
C118 C 0.76491 0.50169 0.96055 0.0
N119 N 0.76216 0.48123 0.97497 0.0
C120 C 0.76278 0.51029 0.90503 0.0
H121 H 0.76136 0.50771 0.12195 0.0
H122 H 0.786 0.51961 0.10246 0.0
H123 H 0.78487 0.49199 0.12022 0.0
H124 H 0.77865 0.51443 0.8898 0.0
H125 H 0.75323 0.52496 0.90559 0.0
H126 H 0.75572 0.49892 0.87694 0.0
C127 C 0.0111 0.26522 0.46563 0.0
N128 N 0.03108 0.26179 0.48288 0.0
N129 N 0.99751 0.26574 0.50707 0.0
C130 C 0.00459 0.26698 0.40833 0.0
C131 C 0.00988 0.26237 0.55009 0.0
N132 N 0.03029 0.25979 0.53533 0.0
C133 C 1.0019 0.26222 0.60635 0.0
H134 H 0.98968 0.276 0.40428 0.0
H135 H 1.00207 0.25089 0.39231 0.0
H136 H 0.01687 0.2747 0.38396 0.0
H137 H 0.98636 0.25421 0.6084 0.0
H138 H 0.99971 0.27875 0.61964 0.0
H139 H 0.01295 0.25449 0.63421 0.0
C140 C 0.74677 1.00153 0.54631 0.0
N141 N 0.74932 0.98138 0.5293 0.0
N142 N 0.74509 0.01494 0.50463 0.0
C143 C 0.74797 0.00842 0.60336 0.0
C144 C 0.74686 1.00229 0.46162 0.0
N145 N 0.74963 0.98192 0.47652 0.0
C146 C 0.74407 0.00961 0.40522 0.0
H147 H 0.73183 0.00861 0.62035 0.0
H148 H 0.75463 0.02455 0.60652 0.0
H149 H 0.75782 0.99742 0.62704 0.0
H150 H 0.7597 0.0138 0.38854 0.0
H151 H 0.73381 0.02377 0.40337 0.0
H152 H 0.73706 0.99698 0.3804 0.0
C153 C 0.51059 0.24951 0.95789 0.0
N154 N 0.53081 0.25141 0.9746 0.0
N155 N 0.49763 0.24546 0.99949 0.0
C156 C 0.50357 0.25272 0.90141 0.0
C157 C 0.51077 0.24496 0.04195 0.0
N158 N 0.53094 0.2484 0.02669 0.0
C159 C 0.5038 0.24207 0.09852 0.0
H160 H 0.50366 0.26985 0.89239 0.0
H161 H 0.48745 0.2467 0.89407 0.0
H162 H 0.51476 0.24492 0.87389 0.0
H163 H 0.48856 0.23351 0.10062 0.0
H164 H 0.50182 0.25781 0.11702 0.0
H165 H 0.51581 0.2333 0.12174 0.0
C166 C 0.2643 0.00942 0.46651 0.0
N167 N 0.26269 0.02967 0.48326 0.0
N168 N 0.26616 0.99614 0.50834 0.0
C169 C 0.26537 1.00267 0.40939 0.0
C170 C 0.26565 0.00898 0.55117 0.0
N171 N 0.26368 0.02941 0.53597 0.0
C172 C 0.26523 1.00134 0.60771 0.0
H173 H 0.24913 0.99977 0.39468 0.0
H174 H 0.27455 0.98786 0.40521 0.0
H175 H 0.27265 0.01515 0.38452 0.0
H176 H 0.28157 1.00127 0.62355 0.0
H177 H 0.25889 0.98506 0.61025 0.0
H178 H 0.2555 0.01188 0.63284 0.0
C179 C 0.49727 0.76158 0.05089 0.0
N180 N 0.47738 0.75835 0.0332 0.0
N181 N 0.51115 0.76107 0.01003 0.0
C182 C 0.50326 0.76361 0.10843 0.0
C183 C 0.4989 0.75735 0.9669 0.0
N184 N 0.47839 0.75541 0.9811 0.0
C185 C 0.50673 0.75762 0.91054 0.0
H186 H 0.5028 0.78052 0.11969 0.0
H187 H 0.51942 0.75752 0.1156 0.0
H188 H 0.49199 0.75495 0.13413 0.0
H189 H 0.5107 0.74129 0.89834 0.0
H190 H 0.5211 0.7675 0.90674 0.0
H191 H 0.49443 0.76377 0.88325 0.0
H192 H 0.15121 0.21316 0.09465 0.0
H193 H 0.12443 0.21971 0.16273 0.0
H194 H 0.16831 0.25921 0.24789 0.0
H195 H 0.19518 0.25227 0.18115 0.0
H196 H 0.14992 0.23476 0.31476 0.0
H197 H 0.12637 0.27959 0.1738 0.0
H198 H 0.11543 0.28829 0.08244 0.0
H199 H 0.0633 0.24534 0.09516 0.0
H200 H 0.07411 0.23616 0.18639 0.0
H201 H 0.04856 0.29153 0.42092 0.0
H202 H 0.07742 0.28668 0.3572 0.0
H203 H 0.08466 0.22223 0.40956 0.0
H204 H 0.05543 0.22716 0.47267 0.0
H205 H 0.07767 0.26003 0.27424 0.0
H206 H 0.13931 0.20937 0.3911 0.0
H207 H 0.1543 0.20607 0.48103 0.0
H208 H 0.13335 0.2687 0.51843 0.0
H209 H 0.11875 0.27263 0.42836 0.0
C210 C 0.15507 0.22336 0.12769 0.0
C211 C 0.17536 0.23213 0.13253 0.0
C212 C 0.13974 0.22713 0.16658 0.0
C213 C 0.14429 0.24003 0.21051 0.0
C214 C 0.16443 0.24907 0.21472 0.0
C215 C 0.17977 0.24514 0.17633 0.0
C216 C 0.12835 0.2439 0.2528 0.0
C217 C 0.13407 0.24018 0.30587 0.0
C218 C 0.10782 0.25142 0.24141 0.0
C219 C 0.10118 0.25703 0.18673 0.0
C220 C 0.11266 0.27189 0.15698 0.0
C221 C 0.10647 0.27692 0.10525 0.0
C222 C 0.08872 0.26733 0.08296 0.0
C223 C 0.07707 0.25273 0.11245 0.0
C224 C 0.08321 0.24762 0.16419 0.0
C225 C 0.05645 0.27641 0.41871 0.0
C226 C 0.04966 0.25958 0.45053 0.0
C227 C 0.07287 0.27362 0.38248 0.0
C228 C 0.08308 0.25404 0.3782 0.0
C229 C 0.07703 0.23749 0.41216 0.0
C230 C 0.06042 0.24026 0.44812 0.0
C231 C 0.0992 0.25071 0.33621 0.0
C232 C 0.09346 0.25445 0.28314 0.0
C233 C 0.11991 0.24375 0.34779 0.0
C234 C 0.12768 0.24118 0.40302 0.0
C235 C 0.13789 0.22245 0.41849 0.0
C236 C 0.14645 0.22052 0.46939 0.0
C237 C 0.14489 0.23722 0.50527 0.0
C238 C 0.1346 0.25581 0.49051 0.0
C239 C 0.12613 0.25787 0.43955 0.0
H240 H 0.15153 0.23569 0.54466 0.0
H241 H 0.08396 0.27124 0.04288 0.0
H242 H 0.30449 0.66503 0.64057 0.0
H243 H 0.29801 0.63902 0.70966 0.0
H244 H 0.23217 0.65626 0.71226 0.0
H245 H 0.23877 0.6831 0.64388 0.0
H246 H 0.24571 0.64997 0.81054 0.0
H247 H 0.24957 0.61077 0.64929 0.0
H248 H 0.26471 0.59928 0.56403 0.0
H249 H 0.31975 0.57616 0.6447 0.0
H250 H 0.30506 0.58778 0.73041 0.0
H251 H 0.21391 0.54932 0.92588 0.0
H252 H 0.21887 0.57877 0.86313 0.0
H253 H 0.28534 0.57965 0.89972 0.0
H254 H 0.28012 0.55067 0.96374 0.0
H255 H 0.27022 0.57647 0.7823 0.0
H256 H 0.26485 0.61633 0.94493 0.0
H257 H 0.24738 0.62589 0.02882 0.0
H258 H 0.1925 0.64616 0.94283 0.0
H259 H 0.20946 0.63625 0.85838 0.0
C260 C 0.28857 0.66326 0.65547 0.0
C261 C 0.27207 0.67597 0.6361 0.0
C262 C 0.28488 0.64832 0.69508 0.0
C263 C 0.26451 0.64531 0.71552 0.0
C264 C 0.24802 0.65821 0.69697 0.0
C265 C 0.25177 0.67346 0.65771 0.0
C266 C 0.26059 0.62852 0.75573 0.0
C267 C 0.25085 0.63386 0.80399 0.0
C268 C 0.26745 0.60747 0.74767 0.0
C269 C 0.27628 0.60031 0.69623 0.0
C270 C 0.26496 0.60336 0.64881 0.0
C271 C 0.27346 0.59681 0.60041 0.0
C272 C 0.2932 0.58704 0.59894 0.0
C273 C 0.30447 0.58375 0.6459 0.0
C274 C 0.29605 0.59029 0.69441 0.0
C275 C 0.22945 0.55611 0.92075 0.0
C276 C 0.24665 0.54805 0.94926 0.0
C277 C 0.23229 0.57279 0.88513 0.0
C278 C 0.25246 0.5813 0.87692 0.0
C279 C 0.26967 0.57326 0.90564 0.0
C280 C 0.26672 0.55688 0.94212 0.0
C281 C 0.25568 0.59806 0.83684 0.0
C282 C 0.26517 0.59263 0.78862 0.0
C283 C 0.24836 0.61887 0.84471 0.0
C284 C 0.23833 0.62531 0.89533 0.0
C285 C 0.24897 0.62262 0.94389 0.0
C286 C 0.23918 0.62813 0.99157 0.0
C287 C 0.21882 0.63657 0.99117 0.0
C288 C 0.20825 0.63958 0.94308 0.0
C289 C 0.21795 0.63402 0.89529 0.0
H290 H 0.21126 0.64082 0.02812 0.0
H291 H 0.29976 0.58198 0.56142 0.0
H292 H 0.81718 0.74961 0.16367 0.0
H293 H 0.84387 0.74466 0.2328 0.0
H294 H 0.87766 0.7991 0.17529 0.0
H295 H 0.85119 0.80414 0.10603 0.0
H296 H 0.90422 0.76691 0.19728 0.0
H297 H 0.84762 0.80319 0.28403 0.0
H298 H 0.81078 0.80892 0.31227 0.0
H299 H 0.81174 0.75035 0.39791 0.0
H300 H 0.84846 0.74414 0.36957 0.0
H301 H 0.94951 0.78496 0.47738 0.0
H302 H 0.92004 0.78944 0.41471 0.0
H303 H 0.93491 0.7293 0.34401 0.0
H304 H 0.96413 0.72485 0.40685 0.0
H305 H 0.88401 0.76641 0.38751 0.0
H306 H 0.9323 0.73536 0.20966 0.0
H307 H 0.96958 0.73191 0.18301 0.0
H308 H 0.98594 0.78494 0.28054 0.0
H309 H 0.94873 0.78894 0.30698 0.0
C310 C 0.83036 0.76046 0.16544 0.0
C311 C 0.83196 0.77733 0.1293 0.0
C312 C 0.84554 0.75767 0.20521 0.0
C313 C 0.86264 0.77166 0.20959 0.0
C314 C 0.86459 0.78814 0.17273 0.0
C315 C 0.84939 0.791 0.13316 0.0
C316 C 0.87848 0.76924 0.25267 0.0
C317 C 0.89977 0.76674 0.23882 0.0
C318 C 0.87275 0.76939 0.30699 0.0
C319 C 0.8507 0.77311 0.32422 0.0
C320 C 0.8399 0.79146 0.30851 0.0
C321 C 0.81906 0.79481 0.3246 0.0
C322 C 0.80892 0.77999 0.35672 0.0
C323 C 0.81961 0.76181 0.37295 0.0
C324 C 0.84044 0.75837 0.35693 0.0
C325 C 0.94614 0.7726 0.44902 0.0
C326 C 0.95909 0.75468 0.44625 0.0
C327 C 0.92937 0.77514 0.41332 0.0
C328 C 0.92549 0.75984 0.37421 0.0
C329 C 0.93781 0.74144 0.37335 0.0
C330 C 0.95447 0.73891 0.40902 0.0
C331 C 0.90962 0.76366 0.33193 0.0
C332 C 0.88839 0.76647 0.34592 0.0
C333 C 0.91541 0.76413 0.2777 0.0
C334 C 0.93775 0.7623 0.26067 0.0
C335 C 0.94383 0.74636 0.22513 0.0
C336 C 0.96496 0.7443 0.2101 0.0
C337 C 0.98013 0.75815 0.2302 0.0
C338 C 0.97419 0.77418 0.26511 0.0
C339 C 0.95308 0.77635 0.28015 0.0
H340 H 0.99648 0.75649 0.21864 0.0
H341 H 0.7928 0.78261 0.36914 0.0
H342 H 0.75552 0.32222 0.66692 0.0
H343 H 0.75905 0.3493 0.73494 0.0
H344 H 0.71631 0.38954 0.64807 0.0
H345 H 0.7132 0.36262 0.57876 0.0
H346 H 0.74602 0.41262 0.68879 0.0
H347 H 0.70027 0.36033 0.75708 0.0
H348 H 0.68766 0.3249 0.78205 0.0
H349 H 0.73874 0.31863 0.89293 0.0
H350 H 0.7519 0.35388 0.86796 0.0
H351 H 0.72687 0.47772 0.9158 0.0
H352 H 0.71916 0.45014 0.84998 0.0
H353 H 0.77592 0.41727 0.89556 0.0
H354 H 0.7841 0.4454 0.95946 0.0
H355 H 0.73578 0.39142 0.87666 0.0
H356 H 0.78166 0.44505 0.79819 0.0
H357 H 0.78993 0.48207 0.77647 0.0
H358 H 0.73259 0.48693 0.68649 0.0
H359 H 0.72377 0.45003 0.70866 0.0
C360 C 0.74701 0.33692 0.66197 0.0
C361 C 0.73394 0.3402 0.61761 0.0
C362 C 0.74892 0.35234 0.70115 0.0
C363 C 0.73749 0.37126 0.6975 0.0
C364 C 0.72516 0.37501 0.65205 0.0
C365 C 0.72343 0.35963 0.61236 0.0
C366 C 0.73833 0.38692 0.74149 0.0
C367 C 0.74351 0.40796 0.72971 0.0
C368 C 0.735 0.38099 0.79518 0.0
C369 C 0.72723 0.35968 0.81013 0.0
C370 C 0.70896 0.35132 0.78639 0.0
C371 C 0.70168 0.33128 0.80062 0.0
C372 C 0.71243 0.3195 0.83893 0.0
C373 C 0.73046 0.32776 0.86317 0.0
C374 C 0.73783 0.34777 0.84899 0.0
C375 C 0.7376 0.46454 0.9116 0.0
C376 C 0.75631 0.46381 0.9414 0.0
C377 C 0.73316 0.4488 0.87445 0.0
C378 C 0.74711 0.43184 0.86766 0.0
C379 C 0.76502 0.43029 0.90021 0.0
C380 C 0.76967 0.44628 0.93659 0.0
C381 C 0.74397 0.41669 0.82372 0.0
C382 C 0.73827 0.39588 0.8356 0.0
C383 C 0.74632 0.4229 0.77016 0.0
C384 C 0.75195 0.44486 0.75554 0.0
C385 C 0.77074 0.45406 0.77412 0.0
C386 C 0.77553 0.47501 0.7617 0.0
C387 C 0.76177 0.48686 0.73023 0.0
C388 C 0.74322 0.47774 0.71094 0.0
C389 C 0.73832 0.45681 0.72341 0.0
H390 H 0.76549 0.50309 0.72069 0.0
H391 H 0.70677 0.304 0.84994 0.0
H392 H 0.69421 0.26274 0.32331 0.0
H393 H 0.66672 0.25816 0.25672 0.0
H394 H 0.62133 0.28666 0.36188 0.0
H395 H 0.64881 0.29112 0.4294 0.0
H396 H 0.60432 0.25378 0.31251 0.0
H397 H 0.64235 0.3147 0.2614 0.0
H398 H 0.67338 0.33654 0.24004 0.0
H399 H 0.68772 0.29633 0.10798 0.0
H400 H 0.657 0.27398 0.12917 0.0
H401 H 0.54987 0.2854 0.04649 0.0
H402 H 0.57742 0.29218 0.11308 0.0
H403 H 0.57969 0.22561 0.14927 0.0
H404 H 0.55173 0.21916 0.08364 0.0
H405 H 0.61646 0.28136 0.13069 0.0
H406 H 0.58674 0.21808 0.28054 0.0
H407 H 0.55336 0.20039 0.30398 0.0
H408 H 0.51829 0.25317 0.24355 0.0
H409 H 0.55144 0.27134 0.22075 0.0
C410 C 0.67837 0.26795 0.3326 0.0
C411 C 0.67378 0.27748 0.38167 0.0
C412 C 0.66268 0.2654 0.29426 0.0
C413 C 0.64205 0.27244 0.30384 0.0
C414 C 0.63718 0.28123 0.35349 0.0
C415 C 0.6529 0.28376 0.39205 0.0
C416 C 0.62572 0.27072 0.26168 0.0
C417 C 0.60699 0.25981 0.27279 0.0
C418 C 0.6289 0.27913 0.21016 0.0
C419 C 0.64746 0.29251 0.19724 0.0
C420 C 0.65222 0.31038 0.2281 0.0
C421 C 0.66975 0.32288 0.21598 0.0
C422 C 0.68254 0.3178 0.17275 0.0
C423 C 0.67781 0.30022 0.14152 0.0
C424 C 0.66034 0.28763 0.15357 0.0
C425 C 0.55651 0.27232 0.06855 0.0
C426 C 0.5487 0.25186 0.06104 0.0
C427 C 0.57221 0.27613 0.10639 0.0
C428 C 0.58033 0.25947 0.13709 0.0
C429 C 0.57332 0.2388 0.12708 0.0
C430 C 0.55749 0.23506 0.08961 0.0
C431 C 0.5954 0.26378 0.18108 0.0
C432 C 0.61384 0.27528 0.17039 0.0
C433 C 0.59164 0.25652 0.23345 0.0
C434 C 0.5716 0.24597 0.24848 0.0
C435 C 0.57192 0.22597 0.27259 0.0
C436 C 0.55303 0.21585 0.28574 0.0
C437 C 0.53372 0.22562 0.27513 0.0
C438 C 0.53325 0.24559 0.25164 0.0
C439 C 0.55209 0.25581 0.23861 0.0
H440 H 0.51911 0.21774 0.28519 0.0
H441 H 0.69607 0.32752 0.16338 0.0
H442 H 0.24531 0.19587 0.8263 0.0
H443 H 0.25109 0.16927 0.75859 0.0
H444 H 0.23381 0.12045 0.86971 0.0
H445 H 0.2274 0.14723 0.93796 0.0
H446 H 0.27665 0.13799 0.74695 0.0
H447 H 0.2087 0.0808 0.80319 0.0
H448 H 0.17354 0.08216 0.84501 0.0
H449 H 0.16698 0.14705 0.79879 0.0
H450 H 0.20194 0.14599 0.7561 0.0
H451 H 0.28989 0.04083 0.61472 0.0
H452 H 0.28445 0.0691 0.67938 0.0
H453 H 0.22706 0.08709 0.5988 0.0
H454 H 0.23214 0.05807 0.53554 0.0
H455 H 0.22054 0.08647 0.70183 0.0
H456 H 0.27203 0.11665 0.58851 0.0
H457 H 0.3051 0.11827 0.53734 0.0
H458 H 0.34102 0.11345 0.68135 0.0
H459 H 0.30814 0.11142 0.73338 0.0
C460 C 0.24276 0.17949 0.83669 0.0
C461 C 0.23569 0.17374 0.88764 0.0
C462 C 0.24618 0.16425 0.79778 0.0
C463 C 0.24266 0.14286 0.8087 0.0
C464 C 0.23628 0.13691 0.86004 0.0
C465 C 0.23274 0.15222 0.89913 0.0
C466 C 0.24537 0.12698 0.76579 0.0
C467 C 0.2644 0.12668 0.73727 0.0
C468 C 0.22917 0.11263 0.75186 0.0
C469 C 0.20804 0.11336 0.77701 0.0
C470 C 0.19972 0.09533 0.80184 0.0
C471 C 0.17983 0.09605 0.8257 0.0
C472 C 0.16807 0.1147 0.82473 0.0
C473 C 0.17614 0.13264 0.79971 0.0
C474 C 0.196 0.132 0.77573 0.0
C475 C 0.27617 0.05089 0.61099 0.0
C476 C 0.26141 0.04736 0.57049 0.0
C477 C 0.27311 0.0671 0.64761 0.0
C478 C 0.2554 0.08034 0.64384 0.0
C479 C 0.24082 0.07706 0.60261 0.0
C480 C 0.24381 0.06069 0.5662 0.0
C481 C 0.25196 0.09725 0.68375 0.0
C482 C 0.23281 0.09775 0.71166 0.0
C483 C 0.26776 0.11227 0.69588 0.0
C484 C 0.2876 0.11371 0.66483 0.0
C485 C 0.28698 0.11579 0.60927 0.0
C486 C 0.30569 0.11679 0.5801 0.0
C487 C 0.32515 0.11593 0.60607 0.0
C488 C 0.32593 0.1141 0.66129 0.0
C489 C 0.30726 0.11304 0.69065 0.0
H490 H 0.33962 0.11671 0.58343 0.0
H491 H 0.15269 0.11523 0.84326 0.0
H492 H 0.32638 0.76759 0.37746 0.0
H493 H 0.35326 0.77407 0.30961 0.0
H494 H 0.36781 0.70756 0.30618 0.0
H495 H 0.34183 0.70121 0.37542 0.0
H496 H 0.40227 0.72733 0.30121 0.0
H497 H 0.33668 0.73414 0.20791 0.0
H498 H 0.30108 0.74809 0.18979 0.0
H499 H 0.32656 0.81043 0.17157 0.0
H500 H 0.3623 0.79689 0.19027 0.0
H501 H 0.45406 0.72366 0.05069 0.0
H502 H 0.42484 0.72016 0.11452 0.0
H503 H 0.42986 0.78638 0.15155 0.0
H504 H 0.45941 0.78963 0.0887 0.0
H505 H 0.38584 0.76806 0.13808 0.0
H506 H 0.45228 0.75881 0.23116 0.0
H507 H 0.48727 0.74253 0.24337 0.0
H508 H 0.45851 0.6814 0.25611 0.0
H509 H 0.42335 0.69731 0.24293 0.0
C510 C 0.3354 0.7544 0.36233 0.0
C511 C 0.33198 0.7339 0.38184 0.0
C512 C 0.35067 0.75808 0.32325 0.0
C513 C 0.36239 0.74126 0.30192 0.0
C514 C 0.35907 0.72084 0.32188 0.0
C515 C 0.34415 0.71722 0.36155 0.0
C516 C 0.37824 0.74474 0.25914 0.0
C517 C 0.39849 0.73605 0.26539 0.0
C518 C 0.37358 0.75635 0.21241 0.0
C519 C 0.35213 0.76454 0.20105 0.0
C520 C 0.33467 0.75085 0.20042 0.0
C521 C 0.31447 0.75868 0.18999 0.0
C522 C 0.31155 0.78014 0.17969 0.0
C523 C 0.32884 0.79382 0.17965 0.0
C524 C 0.34908 0.78607 0.19012 0.0
C525 C 0.44858 0.73743 0.072 0.0
C526 C 0.45874 0.75688 0.06534 0.0
C527 C 0.43202 0.73547 0.10828 0.0
C528 C 0.42528 0.75303 0.13767 0.0
C529 C 0.4348 0.77271 0.12904 0.0
C530 C 0.45161 0.77455 0.0935 0.0
C531 C 0.40949 0.75048 0.18042 0.0
C532 C 0.38941 0.75938 0.1741 0.0
C533 C 0.41412 0.73874 0.22664 0.0
C534 C 0.43521 0.72922 0.2355 0.0
C535 C 0.45343 0.74188 0.23609 0.0
C536 C 0.47329 0.73272 0.24326 0.0
C537 C 0.47511 0.71094 0.25038 0.0
C538 C 0.45707 0.69827 0.25051 0.0
C539 C 0.43718 0.70735 0.24321 0.0
H540 H 0.4905 0.70387 0.25592 0.0
H541 H 0.2959 0.78618 0.17162 0.0
H542 H 0.75276 0.81188 0.82391 0.0
H543 H 0.74826 0.83727 0.75156 0.0
H544 H 0.77965 0.88488 0.84508 0.0
H545 H 0.78513 0.85925 0.91617 0.0
H546 H 0.72961 0.87152 0.73361 0.0
H547 H 0.80787 0.91798 0.77263 0.0
H548 H 0.84378 0.91077 0.80579 0.0
H549 H 0.83721 0.84547 0.76387 0.0
H550 H 0.80139 0.85234 0.72978 0.0
H551 H 0.72336 0.96985 0.60847 0.0
H552 H 0.72743 0.93991 0.66864 0.0
H553 H 0.78278 0.92007 0.5823 0.0
H554 H 0.77956 0.95119 0.52478 0.0
H555 H 0.79079 0.91513 0.67863 0.0
H556 H 0.73323 0.89386 0.57418 0.0
H557 H 0.69904 0.89648 0.52801 0.0
H558 H 0.66725 0.90281 0.67746 0.0
H559 H 0.70129 0.9006 0.72455 0.0
C560 C 0.75853 0.82783 0.82915 0.0
C561 C 0.76946 0.83353 0.87553 0.0
C562 C 0.75598 0.84234 0.7877 0.0
C563 C 0.76406 0.86293 0.79209 0.0
C564 C 0.77388 0.86894 0.83979 0.0
C565 C 0.77684 0.85433 0.88067 0.0
C566 C 0.76255 0.87805 0.74681 0.0
C567 C 0.74301 0.88101 0.72155 0.0
C568 C 0.7802 0.88986 0.72915 0.0
C569 C 0.80185 0.88566 0.74908 0.0
C570 C 0.81412 0.90211 0.77026 0.0
C571 C 0.83445 0.89808 0.78926 0.0
C572 C 0.84274 0.87767 0.78708 0.0
C573 C 0.83074 0.86126 0.76571 0.0
C574 C 0.81042 0.86521 0.74659 0.0
C575 C 0.73646 0.95914 0.60272 0.0
C576 C 0.75116 0.96281 0.56218 0.0
C577 C 0.73863 0.94184 0.63659 0.0
C578 C 0.75521 0.92738 0.62967 0.0
C579 C 0.76981 0.9309 0.58857 0.0
C580 C 0.76787 0.94853 0.55533 0.0
C581 C 0.75766 0.90915 0.66673 0.0
C582 C 0.77741 0.90556 0.69038 0.0
C583 C 0.74045 0.89602 0.68093 0.0
C584 C 0.71986 0.8972 0.65291 0.0
C585 C 0.71897 0.89594 0.59722 0.0
C586 C 0.69961 0.89735 0.57087 0.0
C587 C 0.68099 0.89984 0.59978 0.0
C588 C 0.68169 0.90089 0.65512 0.0
C589 C 0.70101 0.89954 0.68167 0.0
H590 H 0.66601 0.90093 0.57931 0.0
H591 H 0.85848 0.87458 0.80186 0.0
H592 H 0.81692 0.75524 0.8394 0.0
H593 H 0.84432 0.75008 0.77254 0.0
H594 H 0.88393 0.79534 0.85235 0.0
H595 H 0.85659 0.80048 0.91999 0.0
H596 H 0.87921 0.80206 0.74035 0.0
H597 H 0.89659 0.74606 0.86249 0.0
H598 H 0.88878 0.7148 0.91733 0.0
H599 H 0.87038 0.68039 0.77817 0.0
H600 H 0.87779 0.71157 0.72255 0.0
H601 H 0.975 0.78491 0.60424 0.0
H602 H 0.94674 0.78937 0.66936 0.0
H603 H 0.91367 0.73633 0.60148 0.0
H604 H 0.94255 0.73145 0.5375 0.0
H605 H 0.91395 0.73329 0.70593 0.0
H606 H 0.89685 0.78728 0.5826 0.0
H607 H 0.90294 0.81806 0.52482 0.0
H608 H 0.91816 0.85585 0.66084 0.0
H609 H 0.91254 0.82517 0.71942 0.0
C610 C 0.83154 0.76397 0.84305 0.0
C611 C 0.8346 0.77827 0.885 0.0
C612 C 0.84718 0.76097 0.80484 0.0
C613 C 0.86613 0.77232 0.80755 0.0
C614 C 0.86938 0.78645 0.84963 0.0
C615 C 0.85382 0.78925 0.88838 0.0
C616 C 0.88227 0.76976 0.76554 0.0
C617 C 0.88708 0.78714 0.73324 0.0
C618 C 0.89183 0.75004 0.75509 0.0
C619 C 0.88755 0.73122 0.78842 0.0
C620 C 0.89071 0.73189 0.84363 0.0
C621 C 0.88639 0.71417 0.87485 0.0
C622 C 0.87903 0.69564 0.85127 0.0
C623 C 0.87605 0.69476 0.79639 0.0
C624 C 0.88033 0.71245 0.76499 0.0
C625 C 0.96163 0.77429 0.60337 0.0
C626 C 0.96085 0.75783 0.56628 0.0
C627 C 0.94543 0.77691 0.64019 0.0
C628 C 0.92794 0.76331 0.64009 0.0
C629 C 0.92698 0.74703 0.6023 0.0
C630 C 0.94332 0.74434 0.56558 0.0
C631 C 0.91115 0.76568 0.68079 0.0
C632 C 0.90613 0.74826 0.71283 0.0
C633 C 0.90115 0.7853 0.69048 0.0
C634 C 0.90446 0.80385 0.6554 0.0
C635 C 0.90167 0.8021 0.60019 0.0
C636 C 0.90501 0.81954 0.56728 0.0
C637 C 0.91097 0.83889 0.58914 0.0
C638 C 0.91356 0.84084 0.64396 0.0
C639 C 0.91029 0.82343 0.67705 0.0
H640 H 0.91355 0.85238 0.5636 0.0
H641 H 0.87569 0.68194 0.87551 0.0
H642 H 0.77009 0.32487 0.36343 0.0
H643 H 0.77779 0.35007 0.29217 0.0
H644 H 0.71334 0.37172 0.29582 0.0
H645 H 0.70552 0.34677 0.36711 0.0
H646 H 0.72949 0.36386 0.19127 0.0
H647 H 0.74964 0.40072 0.35444 0.0
H648 H 0.76974 0.40303 0.43809 0.0
H649 H 0.82782 0.39668 0.35207 0.0
H650 H 0.80803 0.39417 0.26792 0.0
H651 H 0.73025 0.46171 0.05717 0.0
H652 H 0.72634 0.43167 0.11802 0.0
H653 H 0.79415 0.42618 0.1279 0.0
H654 H 0.79777 0.45675 0.06842 0.0
H655 H 0.77934 0.42298 0.22159 0.0
H656 H 0.76291 0.39011 0.05971 0.0
H657 H 0.74599 0.38466 0.97283 0.0
H658 H 0.68559 0.37881 0.0484 0.0
H659 H 0.7021 0.38462 0.13581 0.0
C660 C 0.75757 0.33504 0.34917 0.0
C661 C 0.73722 0.3339 0.37125 0.0
C662 C 0.76199 0.3494 0.30843 0.0
C663 C 0.74613 0.36276 0.28877 0.0
C664 C 0.72578 0.36152 0.31034 0.0
C665 C 0.72141 0.34736 0.35143 0.0
C666 C 0.75075 0.37849 0.2467 0.0
C667 C 0.74022 0.37693 0.19786 0.0
C668 C 0.76548 0.39493 0.25462 0.0
C669 C 0.77736 0.39711 0.305 0.0
C670 C 0.7667 0.39976 0.35341 0.0
C671 C 0.77803 0.40111 0.40089 0.0
C672 C 0.80004 0.39996 0.4004 0.0
C673 C 0.81077 0.39757 0.35239 0.0
C674 C 0.79951 0.39623 0.30479 0.0
C675 C 0.74419 0.45384 0.0722 0.0
C676 C 0.76426 0.46131 0.05868 0.0
C677 C 0.74203 0.43667 0.10665 0.0
C678 C 0.75997 0.42643 0.1273 0.0
C679 C 0.78008 0.43377 0.11271 0.0
C680 C 0.78219 0.4511 0.07874 0.0
C681 C 0.75768 0.40878 0.16599 0.0
C682 C 0.76869 0.4099 0.21435 0.0
C683 C 0.74384 0.39158 0.1569 0.0
C684 C 0.73374 0.38803 0.1044 0.0
C685 C 0.74598 0.38786 0.05783 0.0
C686 C 0.73647 0.38469 0.00844 0.0
C687 C 0.71471 0.38146 1.00505 0.0
C688 C 0.70244 0.38135 0.05108 0.0
C689 C 0.71188 0.38458 0.10059 0.0
H690 H 0.70738 0.37898 0.96676 0.0
H691 H 0.80879 0.40095 0.43721 0.0
H692 H 0.18773 0.26373 0.86067 0.0
H693 H 0.16106 0.26913 0.79186 0.0
H694 H 0.13105 0.21063 0.83595 0.0
H695 H 0.15776 0.20494 0.90429 0.0
H696 H 0.13498 0.21334 0.73058 0.0
H697 H 0.10946 0.25807 0.86964 0.0
H698 H 0.11173 0.2862 0.93688 0.0
H699 H 0.12563 0.33156 0.81517 0.0
H700 H 0.1237 0.30362 0.74724 0.0
H701 H 0.03665 0.22618 0.59845 0.0
H702 H 0.06507 0.22152 0.66357 0.0
H703 H 0.09285 0.28035 0.61276 0.0
H704 H 0.06379 0.28526 0.54905 0.0
H705 H 0.09131 0.2781 0.71888 0.0
H706 H 0.11094 0.23218 0.57816 0.0
H707 H 0.10658 0.20329 0.51387 0.0
H708 H 0.10239 0.15857 0.64141 0.0
H709 H 0.10598 0.18728 0.70659 0.0
C710 C 0.17536 0.25208 0.85608 0.0
C711 C 0.17493 0.23389 0.88815 0.0
C712 C 0.16009 0.25521 0.8167 0.0
C713 C 0.14398 0.24032 0.80879 0.0
C714 C 0.14337 0.2223 0.84114 0.0
C715 C 0.15861 0.21914 0.88046 0.0
C716 C 0.12791 0.24333 0.76636 0.0
C717 C 0.12522 0.22737 0.72832 0.0
C718 C 0.11556 0.26187 0.76272 0.0
C719 C 0.11666 0.27871 0.80343 0.0
C720 C 0.11317 0.27401 0.85726 0.0
C721 C 0.11436 0.28993 0.89549 0.0
C722 C 0.11889 0.31064 0.88032 0.0
C723 C 0.12216 0.3155 0.82687 0.0
C724 C 0.121 0.29963 0.78848 0.0
C725 C 0.04891 0.23802 0.60142 0.0
C726 C 0.04806 0.25618 0.56968 0.0
C727 C 0.06515 0.23535 0.63829 0.0
C728 C 0.08116 0.25057 0.64306 0.0
C729 C 0.08062 0.26846 0.61004 0.0
C730 C 0.06421 0.2712 0.57348 0.0
C731 C 0.09817 0.248 0.68324 0.0
C732 C 0.10109 0.26407 0.72085 0.0
C733 C 0.11054 0.22941 0.68676 0.0
C734 C 0.10868 0.212 0.64741 0.0
C735 C 0.109 0.21622 0.59259 0.0
C736 C 0.10663 0.19987 0.55594 0.0
C737 C 0.1043 0.1791 0.57353 0.0
C738 C 0.10424 0.17467 0.62783 0.0
C739 C 0.10639 0.19101 0.66466 0.0
H740 H 0.10251 0.16645 0.54509 0.0
H741 H 0.11981 0.32294 0.90997 0.0
H742 H 0.2499 0.69108 0.34502 0.0
H743 H 0.24403 0.66432 0.27676 0.0
H744 H 0.28826 0.62296 0.35488 0.0
H745 H 0.29402 0.64961 0.42401 0.0
H746 H 0.29517 0.62982 0.24154 0.0
H747 H 0.23982 0.61056 0.3641 0.0
H748 H 0.20875 0.61763 0.42006 0.0
H749 H 0.17376 0.63755 0.28294 0.0
H750 H 0.20475 0.63088 0.22622 0.0
H751 H 0.27818 0.53417 0.1056 0.0
H752 H 0.28296 0.56287 0.16928 0.0
H753 H 0.22922 0.59523 0.10233 0.0
H754 H 0.22398 0.56588 0.03998 0.0
H755 H 0.22656 0.59473 0.20711 0.0
H756 H 0.27935 0.61339 0.08315 0.0
H757 H 0.30969 0.60821 0.0236 0.0
H758 H 0.34885 0.59244 0.15697 0.0
H759 H 0.31861 0.59718 0.21731 0.0
C760 C 0.2582 0.67618 0.34803 0.0
C761 C 0.27243 0.67243 0.38985 0.0
C762 C 0.25482 0.66093 0.30903 0.0
C763 C 0.26576 0.64173 0.31077 0.0
C764 C 0.27971 0.63774 0.3529 0.0
C765 C 0.28286 0.65288 0.39251 0.0
C766 C 0.26306 0.62613 0.26758 0.0
C767 C 0.28028 0.62187 0.23438 0.0
C768 C 0.24336 0.61657 0.257 0.0
C769 C 0.22468 0.62043 0.291 0.0
C770 C 0.22556 0.61662 0.34594 0.0
C771 C 0.20795 0.62052 0.37778 0.0
C772 C 0.18931 0.62809 0.35509 0.0
C773 C 0.18822 0.63171 0.30047 0.0
C774 C 0.2058 0.62786 0.26845 0.0
C775 C 0.26748 0.54747 0.10457 0.0
C776 C 0.25064 0.54785 0.06847 0.0
C777 C 0.2703 0.56394 0.14054 0.0
C778 C 0.25651 0.58129 0.1405 0.0
C779 C 0.24002 0.58199 0.1032 0.0
C780 C 0.23714 0.56539 0.06735 0.0
C781 C 0.2588 0.59805 0.18127 0.0
C782 C 0.24148 0.60265 0.21399 0.0
C783 C 0.27833 0.60822 0.1908 0.0
C784 C 0.29664 0.60548 0.15474 0.0
C785 C 0.29438 0.60866 0.09978 0.0
C786 C 0.31157 0.60582 0.06586 0.0
C787 C 0.33118 0.59996 0.08648 0.0
C788 C 0.33364 0.59697 0.14106 0.0
C789 C 0.31648 0.59975 0.17515 0.0
H790 H 0.34448 0.59778 0.06017 0.0
H791 H 0.17569 0.6311 0.37982 0.0
H792 H 0.35709 0.71131 0.5897 0.0
H793 H 0.38431 0.71624 0.65775 0.0
H794 H 0.34451 0.76108 0.73827 0.0
H795 H 0.31711 0.75602 0.67099 0.0
H796 H 0.38856 0.77309 0.72904 0.0
H797 H 0.34453 0.71511 0.78489 0.0
H798 H 0.32665 0.68095 0.77195 0.0
H799 H 0.38653 0.65062 0.74941 0.0
H800 H 0.40474 0.6847 0.76116 0.0
H801 H 0.44259 0.77827 0.97324 0.0
H802 H 0.41409 0.77337 0.90849 0.0
H803 H 0.44671 0.7194 0.84408 0.0
H804 H 0.47461 0.72379 0.91058 0.0
H805 H 0.40584 0.71203 0.84466 0.0
H806 H 0.45023 0.76863 0.78641 0.0
H807 H 0.46915 0.80246 0.79427 0.0
H808 H 0.41035 0.83493 0.81618 0.0
H809 H 0.39109 0.80121 0.80927 0.0
C810 C 0.35426 0.72243 0.62148 0.0
C811 C 0.33493 0.7332 0.6252 0.0
C812 C 0.36977 0.72516 0.66039 0.0
C813 C 0.3663 0.7389 0.70314 0.0
C814 C 0.34744 0.75039 0.70559 0.0
C815 C 0.33181 0.74743 0.66724 0.0
C816 C 0.3819 0.74056 0.74667 0.0
C817 C 0.39219 0.75985 0.75479 0.0
C818 C 0.38688 0.7231 0.77934 0.0
C819 C 0.37599 0.70251 0.77335 0.0
C820 C 0.35388 0.70119 0.77674 0.0
C821 C 0.34368 0.68184 0.76967 0.0
C822 C 0.35544 0.66364 0.75973 0.0
C823 C 0.37743 0.66474 0.75703 0.0
C824 C 0.3877 0.68407 0.7639 0.0
C825 C 0.44336 0.76514 0.94592 0.0
C826 C 0.46078 0.7515 0.94633 0.0
C827 C 0.42724 0.76246 0.90861 0.0
C828 C 0.42847 0.74627 0.87062 0.0
C829 C 0.44545 0.73207 0.87269 0.0
C830 C 0.46144 0.73466 0.9103 0.0
C831 C 0.41261 0.74465 0.82731 0.0
C832 C 0.40225 0.72534 0.81911 0.0
C833 C 0.40772 0.76205 0.79411 0.0
C834 C 0.41924 0.78237 0.79785 0.0
C835 C 0.44134 0.78296 0.79328 0.0
C836 C 0.45213 0.80212 0.79752 0.0
C837 C 0.44096 0.82083 0.80584 0.0
C838 C 0.41898 0.82042 0.80981 0.0
C839 C 0.40812 0.80129 0.80571 0.0
H840 H 0.44934 0.83565 0.80911 0.0
H841 H 0.34752 0.64867 0.75423 0.0
H842 H 0.79023 0.86179 0.08239 0.0
H843 H 0.78454 0.88872 0.15061 0.0
H844 H 0.74531 0.84549 0.2384 0.0
H845 H 0.75105 0.81845 0.17082 0.0
H846 H 0.72935 0.88769 0.23335 0.0
H847 H 0.79347 0.84996 0.27413 0.0
H848 H 0.82877 0.83605 0.25291 0.0
H849 H 0.85167 0.89901 0.22821 0.0
H850 H 0.81632 0.9133 0.24763 0.0
H851 H 0.72768 0.94525 0.47466 0.0
H852 H 0.73187 0.91628 0.41085 0.0
H853 H 0.78212 0.95062 0.33393 0.0
H854 H 0.77872 0.97876 0.39964 0.0
H855 H 0.79206 0.91149 0.33488 0.0
H856 H 0.72946 0.94973 0.28654 0.0
H857 H 0.69427 0.96526 0.30098 0.0
H858 H 0.66896 0.90384 0.33437 0.0
H859 H 0.70409 0.88797 0.32081 0.0
C860 C 0.78015 0.85812 0.11581 0.0
C861 C 0.77122 0.83794 0.12143 0.0
C862 C 0.77698 0.87349 0.15483 0.0
C863 C 0.76468 0.86899 0.19976 0.0
C864 C 0.75489 0.84924 0.2041 0.0
C865 C 0.75826 0.8338 0.16553 0.0
C866 C 0.76289 0.88445 0.24363 0.0
C867 C 0.743 0.89275 0.25603 0.0
C868 C 0.78079 0.89128 0.27243 0.0
C869 C 0.80217 0.8827 0.26182 0.0
C870 C 0.80597 0.86084 0.26373 0.0
C871 C 0.826 0.85288 0.25209 0.0
C872 C 0.84245 0.86662 0.23929 0.0
C873 C 0.83891 0.88837 0.2381 0.0
C874 C 0.81887 0.89641 0.24934 0.0
C875 C 0.7398 0.94632 0.44458 0.0
C876 C 0.75275 0.96424 0.44148 0.0
C877 C 0.74207 0.92993 0.4078 0.0
C878 C 0.75702 0.93143 0.36668 0.0
C879 C 0.7704 0.94907 0.36494 0.0
C880 C 0.76835 0.96523 0.40211 0.0
C881 C 0.75848 0.91506 0.32451 0.0
C882 C 0.77835 0.90648 0.31243 0.0
C883 C 0.7406 0.90822 0.29542 0.0
C884 C 0.71944 0.91769 0.30319 0.0
C885 C 0.71642 0.93955 0.29729 0.0
C886 C 0.69648 0.94842 0.30528 0.0
C887 C 0.6794 0.93555 0.31872 0.0
C888 C 0.68221 0.91379 0.32404 0.0
C889 C 0.70213 0.90485 0.31618 0.0
H890 H 0.66398 0.94245 0.32489 0.0
H891 H 0.85795 0.86042 0.23033 0.0
H892 H 0.69008 0.24746 0.65362 0.0
H893 H 0.6642 0.24148 0.72397 0.0
H894 H 0.63377 0.30036 0.68513 0.0
H895 H 0.65961 0.30658 0.61511 0.0
H896 H 0.63945 0.29584 0.79208 0.0
H897 H 0.61246 0.25382 0.64696 0.0
H898 H 0.61492 0.2265 0.57769 0.0
H899 H 0.62809 0.17964 0.69632 0.0
H900 H 0.62598 0.20676 0.76627 0.0
H901 H 0.53891 0.28502 0.91227 0.0
H902 H 0.56879 0.28926 0.85129 0.0
H903 H 0.5939 0.22941 0.90326 0.0
H904 H 0.56378 0.22521 0.96391 0.0
H905 H 0.5932 0.23271 0.79495 0.0
H906 H 0.61753 0.27323 0.94075 0.0
H907 H 0.61571 0.29996 0.01149 0.0
H908 H 0.60887 0.34887 0.8947 0.0
H909 H 0.61023 0.32237 0.82321 0.0
C910 C 0.67782 0.2591 0.65979 0.0
C911 C 0.67693 0.27749 0.62852 0.0
C912 C 0.66302 0.25564 0.70004 0.0
C913 C 0.647 0.27044 0.7097 0.0
C914 C 0.64603 0.28875 0.67848 0.0
C915 C 0.66076 0.29221 0.63819 0.0
C916 C 0.63119 0.26694 0.75229 0.0
C917 C 0.62917 0.28216 0.79242 0.0
C918 C 0.6183 0.24872 0.75374 0.0
C919 C 0.61928 0.23236 0.71179 0.0
C920 C 0.61602 0.23772 0.65824 0.0
C921 C 0.61733 0.22226 0.61886 0.0
C922 C 0.62172 0.20135 0.63258 0.0
C923 C 0.62473 0.19585 0.68574 0.0
C924 C 0.62346 0.21125 0.72528 0.0
C925 C 0.55089 0.27288 0.91055 0.0
C926 C 0.54915 0.25474 0.94211 0.0
C927 C 0.56798 0.27532 0.8761 0.0
C928 C 0.58361 0.25965 0.87279 0.0
C929 C 0.58202 0.24166 0.90511 0.0
C930 C 0.56497 0.23931 0.93983 0.0
C931 C 0.60117 0.26181 0.83419 0.0
C932 C 0.60355 0.24634 0.79486 0.0
C933 C 0.6145 0.27972 0.83371 0.0
C934 C 0.61378 0.29577 0.87657 0.0
C935 C 0.61545 0.28966 0.93012 0.0
C936 C 0.61453 0.30478 0.97038 0.0
C937 C 0.61214 0.3261 0.9576 0.0
C938 C 0.6107 0.33234 0.90453 0.0
C939 C 0.61155 0.31728 0.86412 0.0
H940 H 0.61145 0.33778 0.98881 0.0
H941 H 0.62274 0.18941 0.60204 0.0
H942 H 0.26801 0.19197 0.16483 0.0
H943 H 0.27509 0.16661 0.23604 0.0
H944 H 0.22158 0.12953 0.18631 0.0
H945 H 0.21426 0.15479 0.1157 0.0
H946 H 0.22102 0.13628 0.29186 0.0
H947 H 0.27313 0.11469 0.16106 0.0
H948 H 0.30382 0.12008 0.10245 0.0
H949 H 0.34185 0.13714 0.23671 0.0
H950 H 0.31131 0.13217 0.29602 0.0
H951 H 0.23294 0.03679 0.4095 0.0
H952 H 0.23057 0.06697 0.34904 0.0
H953 H 0.28548 0.09459 0.42271 0.0
H954 H 0.28801 0.06395 0.48266 0.0
H955 H 0.28781 0.0965 0.31458 0.0
H956 H 0.23842 0.11513 0.44659 0.0
H957 H 0.20882 0.10998 0.50851 0.0
H958 H 0.16662 0.10046 0.37738 0.0
H959 H 0.19607 0.10511 0.31459 0.0
C960 C 0.25788 0.1783 0.16866 0.0
C961 C 0.2405 0.1755 0.13454 0.0
C962 C 0.26196 0.1638 0.20943 0.0
C963 C 0.24886 0.14615 0.21659 0.0
C964 C 0.23184 0.14309 0.1818 0.0
C965 C 0.22773 0.15754 0.14122 0.0
C966 C 0.25228 0.13108 0.2611 0.0
C967 C 0.23556 0.12745 0.29651 0.0
C968 C 0.27158 0.12024 0.26873 0.0
C969 C 0.28988 0.12327 0.23291 0.0
C970 C 0.28798 0.11978 0.17802 0.0
C971 C 0.30536 0.12272 0.14469 0.0
C972 C 0.32475 0.12897 0.16586 0.0
C973 C 0.32681 0.13231 0.22038 0.0
C974 C 0.30948 0.12943 0.25386 0.0
C975 C 0.24445 0.04934 0.4126 0.0
C976 C 0.26068 0.04813 0.45027 0.0
C977 C 0.24305 0.06661 0.3784 0.0
C978 C 0.25778 0.08313 0.38151 0.0
C979 C 0.27396 0.08203 0.41958 0.0
C980 C 0.27533 0.06469 0.45394 0.0
C981 C 0.25629 0.10121 0.34406 0.0
C982 C 0.27334 0.10549 0.31023 0.0
C983 C 0.2374 0.11288 0.33826 0.0
C984 C 0.21952 0.11034 0.37582 0.0
C985 C 0.22286 0.11179 0.43091 0.0
C986 C 0.2061 0.10897 0.46619 0.0
C987 C 0.18585 0.10488 0.44689 0.0
C988 C 0.18232 0.10363 0.39226 0.0
C989 C 0.19904 0.10637 0.35679 0.0
H990 H 0.17289 0.1027 0.47427 0.0
H991 H 0.33822 0.13114 0.14011 0.0
H992 H 0.23683 0.29714 0.93049 0.0
H993 H 0.23732 0.33561 0.93142 0.0
H994 H 0.22298 0.33528 0.09864 0.0
H995 H 0.22205 0.29667 0.09793 0.0
H996 H 0.20151 0.36588 0.04939 0.0
H997 H 0.27318 0.34287 0.05632 0.0
H998 H 0.3045 0.32278 0.02793 0.0
H999 H 0.3036 0.35451 0.87736 0.0
H1000 H 0.27206 0.37457 0.90457 0.0
H1001 H 0.26854 0.46946 0.05334 0.0
H1002 H 0.26567 0.43094 0.05677 0.0
H1003 H 0.20755 0.43417 0.96773 0.0
H1004 H 0.21012 0.47285 0.96625 0.0
H1005 H 0.26583 0.40197 0.98348 0.0
H1006 H 0.17511 0.39391 0.00584 0.0
H1007 H 0.14527 0.4138 0.04374 0.0
H1008 H 0.1872 0.44427 0.15337 0.0
H1009 H 0.21723 0.42436 0.11668 0.0
C1010 C 0.23368 0.30521 0.96751 0.0
C1011 C 0.22964 0.29378 0.0143 0.0
C1012 C 0.23402 0.32722 0.96796 0.0
C1013 C 0.23055 0.33833 0.01528 0.0
C1014 C 0.22577 0.32703 0.0617 0.0
C1015 C 0.22532 0.30496 0.06125 0.0
C1016 C 0.23256 0.36167 0.01648 0.0
C1017 C 0.21555 0.37378 0.03491 0.0
C1018 C 0.25107 0.37199 0.99869 0.0
C1019 C 0.27014 0.36008 0.98232 0.0
C1020 C 0.27957 0.34546 0.01702 0.0
C1021 C 0.29737 0.33409 1.00116 0.0
C1022 C 0.30601 0.33733 0.95083 0.0
C1023 C 0.29688 0.352 0.91632 0.0
C1024 C 0.27905 0.36338 0.93195 0.0
C1025 C 0.25509 0.46187 0.03503 0.0
C1026 C 0.23945 0.47398 0.00994 0.0
C1027 C 0.25352 0.43991 0.03659 0.0
C1028 C 0.23628 0.42963 0.013 0.0
C1029 C 0.22082 0.44174 0.98696 0.0
C1030 C 0.22236 0.46376 0.98567 0.0
C1031 C 0.23463 0.40625 0.01554 0.0
C1032 C 0.25174 0.39411 0.9978 0.0
C1033 C 0.21644 0.39593 0.03528 0.0
C1034 C 0.19844 0.4078 0.05809 0.0
C1035 C 0.17794 0.4048 0.03816 0.0
C1036 C 0.161 0.41608 0.05942 0.0
C1037 C 0.16435 0.43034 0.10081 0.0
C1038 C 0.18464 0.43329 0.12118 0.0
C1039 C 0.20163 0.42202 0.10012 0.0
H1040 H 0.15121 0.43907 0.11718 0.0
H1041 H 0.31979 0.32851 0.93862 0.0
H1042 H 0.21087 0.75398 0.56842 0.0
H1043 H 0.17247 0.75533 0.56648 0.0
H1044 H 0.17172 0.7111 0.43647 0.0
H1045 H 0.21034 0.71032 0.4369 0.0
H1046 H 0.14421 0.74035 0.41784 0.0
H1047 H 0.1587 0.69657 0.56695 0.0
H1048 H 0.17542 0.68617 0.65138 0.0
H1049 H 0.14713 0.73933 0.72909 0.0
H1050 H 0.13049 0.75025 0.64492 0.0
H1051 H 0.03326 0.71926 0.45032 0.0
H1052 H 0.07177 0.71484 0.44836 0.0
H1053 H 0.07875 0.7684 0.55222 0.0
H1054 H 0.04035 0.77328 0.55252 0.0
H1055 H 0.10249 0.73178 0.5829 0.0
H1056 H 0.089 0.77529 0.42869 0.0
H1057 H 0.07171 0.78358 0.34353 0.0
H1058 H 0.09765 0.72734 0.2748 0.0
H1059 H 0.11482 0.71853 0.3599 0.0
C1060 C 0.20256 0.74444 0.53954 0.0
C1061 C 0.21367 0.73195 0.50297 0.0
C1062 C 0.18055 0.74516 0.53862 0.0
C1063 C 0.1691 0.733 0.50199 0.0
C1064 C 0.18016 0.72058 0.46521 0.0
C1065 C 0.20224 0.72011 0.46557 0.0
C1066 C 0.14562 0.73361 0.50165 0.0
C1067 C 0.13512 0.73811 0.45383 0.0
C1068 C 0.13363 0.73091 0.54863 0.0
C1069 C 0.14348 0.72432 0.59949 0.0
C1070 C 0.15616 0.70613 0.60196 0.0
C1071 C 0.16561 0.70013 0.64978 0.0
C1072 C 0.16237 0.71211 0.69554 0.0
C1073 C 0.14963 0.73008 0.6936 0.0
C1074 C 0.14017 0.73617 0.64585 0.0
C1075 C 0.0431 0.73019 0.47214 0.0
C1076 C 0.03394 0.7466 0.50157 0.0
C1077 C 0.06501 0.7276 0.47125 0.0
C1078 C 0.07807 0.7413 0.50018 0.0
C1079 C 0.06892 0.7576 0.5299 0.0
C1080 C 0.04705 0.76034 0.5302 0.0
C1081 C 0.1013 0.73874 0.49942 0.0
C1082 C 0.11169 0.73385 0.547 0.0
C1083 C 0.11312 0.74072 0.45213 0.0
C1084 C 0.103 0.74614 0.40083 0.0
C1085 C 0.09087 0.7646 0.39556 0.0
C1086 C 0.08111 0.76941 0.34728 0.0
C1087 C 0.08353 0.75596 0.30382 0.0
C1088 C 0.09576 0.73772 0.30852 0.0
C1089 C 0.10551 0.73281 0.35676 0.0
H1090 H 0.07597 0.75971 0.26647 0.0
H1091 H 0.1697 0.70744 0.73253 0.0
H1092 H 0.75906 0.71294 0.07315 0.0
H1093 H 0.75995 0.6745 0.07352 0.0
H1094 H 0.8 0.67509 0.93522 0.0
H1095 H 0.79862 0.71367 0.9336 0.0
H1096 H 0.77116 0.64622 0.92355 0.0
H1097 H 0.81921 0.66369 0.06215 0.0
H1098 H 0.83144 0.68135 0.14366 0.0
H1099 H 0.78274 0.65052 0.23311 0.0
H1100 H 0.77001 0.63291 0.15195 0.0
H1101 H 0.79813 0.53703 0.94677 0.0
H1102 H 0.80125 0.57566 0.94704 0.0
H1103 H 0.7527 0.57933 0.06642 0.0
H1104 H 0.74916 0.54074 0.06479 0.0
H1105 H 0.78802 0.60566 0.08668 0.0
H1106 H 0.73985 0.58918 0.94406 0.0
H1107 H 0.7293 0.57105 0.86174 0.0
H1108 H 0.78094 0.59988 0.77876 0.0
H1109 H 0.79203 0.6179 0.8609 0.0
C1110 C 0.76815 0.70494 0.0429 0.0
C1111 C 0.77881 0.71643 1.00339 0.0
C1112 C 0.76873 0.6829 0.04331 0.0
C1113 C 0.78032 0.67182 1.00489 0.0
C1114 C 0.79097 0.68325 0.96534 0.0
C1115 C 0.79021 0.70532 0.96454 0.0
C1116 C 0.78086 0.64832 0.00538 0.0
C1117 C 0.7752 0.63739 0.95904 0.0
C1118 C 0.78584 0.63669 0.05181 0.0
C1119 C 0.79354 0.64712 0.10084 0.0
C1120 C 0.81101 0.66079 0.09913 0.0
C1121 C 0.81805 0.67078 0.14528 0.0
C1122 C 0.80784 0.6671 0.19351 0.0
C1123 C 0.79062 0.65337 0.19571 0.0
C1124 C 0.7835 0.64337 0.14965 0.0
C1125 C 0.78803 0.54616 0.97258 0.0
C1126 C 0.77325 0.53606 0.00531 0.0
C1127 C 0.7899 0.56815 0.97303 0.0
C1128 C 0.7771 0.58036 0.00651 0.0
C1129 C 0.76275 0.57021 0.04038 0.0
C1130 C 0.76075 0.54824 0.03951 0.0
C1131 C 0.7782 0.60374 1.00511 0.0
C1132 C 0.78414 0.61458 0.05124 0.0
C1133 C 0.77374 0.61529 0.95836 0.0
C1134 C 0.7669 0.60471 0.90877 0.0
C1135 C 0.74906 0.59152 0.90837 0.0
C1136 C 0.74297 0.58128 0.86173 0.0
C1137 C 0.75448 0.58426 0.81508 0.0
C1138 C 0.77206 0.59756 0.81495 0.0
C1139 C 0.77825 0.60779 0.86153 0.0
H1140 H 0.74974 0.57632 0.77901 0.0
H1141 H 0.81331 0.67485 0.2292 0.0
H1142 H 0.7985 0.30237 0.56908 0.0
H1143 H 0.83719 0.30127 0.56891 0.0
H1144 H 0.83589 0.25611 0.44121 0.0
H1145 H 0.79738 0.25727 0.44057 0.0
H1146 H 0.86249 0.24471 0.52716 0.0
H1147 H 0.84849 0.30398 0.41243 0.0
H1148 H 0.83267 0.33835 0.38951 0.0
H1149 H 0.866 0.36756 0.51827 0.0
H1150 H 0.88177 0.33328 0.5425 0.0
H1151 H 0.9696 0.24191 0.45325 0.0
H1152 H 0.93112 0.24579 0.45205 0.0
H1153 H 0.93604 0.29873 0.55891 0.0
H1154 H 0.97463 0.29541 0.55769 0.0
H1155 H 0.90729 0.30685 0.48666 0.0
H1156 H 0.92151 0.24877 0.60229 0.0
H1157 H 0.9368 0.21463 0.62922 0.0
H1158 H 0.90261 0.18347 0.50483 0.0
H1159 H 0.88735 0.21749 0.47662 0.0
C1160 C 0.80647 0.29224 0.54089 0.0
C1161 C 0.79486 0.2799 0.50486 0.0
C1162 C 0.82855 0.29169 0.54075 0.0
C1163 C 0.83936 0.27864 0.50495 0.0
C1164 C 0.82782 0.26627 0.46914 0.0
C1165 C 0.80581 0.26703 0.46874 0.0
C1166 C 0.86272 0.27753 0.50526 0.0
C1167 C 0.87232 0.25822 0.51772 0.0
C1168 C 0.87545 0.29534 0.49445 0.0
C1169 C 0.86613 0.316 0.47965 0.0
C1170 C 0.8523 0.31769 0.43616 0.0
C1171 C 0.84337 0.33716 0.42287 0.0
C1172 C 0.84828 0.35511 0.45251 0.0
C1173 C 0.86219 0.35364 0.4954 0.0
C1174 C 0.87114 0.33419 0.50891 0.0
C1175 C 0.96238 0.25448 0.4759 0.0
C1176 C 0.97493 0.2683 0.50577 0.0
C1177 C 0.94044 0.25659 0.47568 0.0
C1178 C 0.9306 0.27233 0.50618 0.0
C1179 C 0.94322 0.28641 0.53528 0.0
C1180 C 0.96519 0.28441 0.53502 0.0
C1181 C 0.90718 0.27392 0.50815 0.0
C1182 C 0.89753 0.29332 0.49625 0.0
C1183 C 0.89435 0.25623 0.52006 0.0
C1184 C 0.90344 0.23572 0.53703 0.0
C1185 C 0.91737 0.23466 0.58042 0.0
C1186 C 0.92602 0.21533 0.59595 0.0
C1187 C 0.92072 0.1969 0.56867 0.0
C1188 C 0.90672 0.19776 0.52588 0.0
C1189 C 0.89805 0.21707 0.51012 0.0
H1190 H 0.92742 0.18195 0.58077 0.0
H1191 H 0.84135 0.37018 0.44215 0.0
H1192 H 0.71968 0.21318 0.42457 0.0
H1193 H 0.72034 0.17463 0.42862 0.0
H1194 H 0.74311 0.17746 0.58975 0.0
H1195 H 0.74282 0.21592 0.58585 0.0
H1196 H 0.76521 0.14983 0.53593 0.0
H1197 H 0.69221 0.16355 0.56275 0.0
H1198 H 0.65735 0.17909 0.54373 0.0
H1199 H 0.65504 0.14615 0.3951 0.0
H1200 H 0.69004 0.13064 0.41291 0.0
H1201 H 0.71551 0.03711 0.55758 0.0
H1202 H 0.71188 0.07568 0.5611 0.0
H1203 H 0.76507 0.08209 0.45555 0.0
H1204 H 0.76911 0.04364 0.45391 0.0
H1205 H 0.70378 0.10502 0.48926 0.0
H1206 H 0.7931 0.12558 0.48667 0.0
H1207 H 0.82683 0.11017 0.51653 0.0
H1208 H 0.79433 0.07466 0.63637 0.0
H1209 H 0.76047 0.09009 0.60777 0.0
C1210 C 0.72475 0.20561 0.46096 0.0
C1211 C 0.73128 0.21769 0.50481 0.0
C1212 C 0.72503 0.18355 0.46329 0.0
C1213 C 0.73166 0.17312 0.50961 0.0
C1214 C 0.73799 0.18514 0.55353 0.0
C1215 C 0.73777 0.20716 0.55123 0.0
C1216 C 0.73259 0.14969 0.51188 0.0
C1217 C 0.75176 0.14005 0.52569 0.0
C1218 C 0.71494 0.13688 0.49976 0.0
C1219 C 0.69384 0.14608 0.48895 0.0
C1220 C 0.68434 0.15974 0.52582 0.0
C1221 C 0.66454 0.16852 0.5153 0.0
C1222 C 0.65401 0.16364 0.46818 0.0
C1223 C 0.66323 0.14993 0.43156 0.0
C1224 C 0.68304 0.14112 0.44187 0.0
C1225 C 0.72646 0.04686 0.53559 0.0
C1226 C 0.74264 0.03754 0.50571 0.0
C1227 C 0.7243 0.06882 0.5372 0.0
C1228 C 0.73832 0.08183 0.50901 0.0
C1229 C 0.75424 0.07244 0.47827 0.0
C1230 C 0.75646 0.05051 0.47694 0.0
C1231 C 0.73653 0.1052 0.51219 0.0
C1232 C 0.71721 0.11482 0.49943 0.0
C1233 C 0.75389 0.11801 0.52674 0.0
C1234 C 0.77423 0.10884 0.54468 0.0
C1235 C 0.79317 0.11455 0.51953 0.0
C1236 C 0.81231 0.10581 0.53622 0.0
C1237 C 0.81271 0.0914 0.57821 0.0
C1238 C 0.79399 0.08576 0.60373 0.0
C1239 C 0.77481 0.09449 0.58726 0.0
H1240 H 0.82754 0.08463 0.59103 0.0
H1241 H 0.63868 0.17046 0.4601 0.0
H1242 H 0.29784 0.2125 0.93371 0.0
H1243 H 0.3365 0.21394 0.9316 0.0
H1244 H 0.33624 0.25636 0.06516 0.0
H1245 H 0.29775 0.25487 0.06796 0.0
H1246 H 0.36269 0.26926 0.97981 0.0
H1247 H 0.34826 0.20729 0.08667 0.0
H1248 H 0.33166 0.17267 0.10262 0.0
H1249 H 0.36423 0.14691 0.96822 0.0
H1250 H 0.38077 0.18147 0.95098 0.0
H1251 H 0.47002 0.26985 0.05243 0.0
H1252 H 0.43147 0.26674 0.05253 0.0
H1253 H 0.43574 0.21407 0.94461 0.0
H1254 H 0.4744 0.21652 0.94739 0.0
H1255 H 0.40679 0.20589 0.0126 0.0
H1256 H 0.42165 0.2656 0.90384 0.0
H1257 H 0.43717 0.29997 0.87984 0.0
H1258 H 0.40328 0.3297 0.00678 0.0
H1259 H 0.38778 0.29544 0.03207 0.0
C1260 C 0.30603 0.22213 0.96261 0.0
C1261 C 0.29471 0.23353 1.00107 0.0
C1262 C 0.32809 0.22289 0.96143 0.0
C1263 C 0.3392 0.2352 0.99836 0.0
C1264 C 0.32795 0.24677 0.03633 0.0
C1265 C 0.30595 0.24581 0.03798 0.0
C1266 C 0.36258 0.23607 0.99766 0.0
C1267 C 0.37238 0.25548 0.98756 0.0
C1268 C 0.37513 0.21792 0.00602 0.0
C1269 C 0.36558 0.19702 0.01721 0.0
C1270 C 0.35177 0.19428 0.06032 0.0
C1271 C 0.34239 0.17466 0.06962 0.0
C1272 C 0.34683 0.15762 0.03633 0.0
C1273 C 0.36077 0.16013 0.9939 0.0
C1274 C 0.37017 0.17972 0.98437 0.0
C1275 C 0.46262 0.25757 0.02912 0.0
C1276 C 0.47499 0.2436 0.99932 0.0
C1277 C 0.44063 0.25589 0.02871 0.0
C1278 C 0.43057 0.24046 0.99756 0.0
C1279 C 0.44304 0.22619 0.96866 0.0
C1280 C 0.46506 0.22768 0.96982 0.0
C1281 C 0.40711 0.23923 0.99523 0.0
C1282 C 0.39722 0.21973 1.00469 0.0
C1283 C 0.39444 0.25725 0.98528 0.0
C1284 C 0.40371 0.2779 0.97017 0.0
C1285 C 0.41763 0.27944 0.9269 0.0
C1286 C 0.4264 0.2989 0.91303 0.0
C1287 C 0.42126 0.31699 0.94185 0.0
C1288 C 0.40728 0.31566 0.98454 0.0
C1289 C 0.39848 0.29623 0.99864 0.0
H1290 H 0.42806 0.33205 0.93103 0.0
H1291 H 0.33948 0.14247 0.0434 0.0
H1292 H 0.27971 0.79706 0.59552 0.0
H1293 H 0.2786 0.83569 0.5941 0.0
H1294 H 0.27446 0.83483 0.42339 0.0
H1295 H 0.27535 0.79625 0.42437 0.0
H1296 H 0.30307 0.86523 0.4632 0.0
H1297 H 0.2314 0.84209 0.48756 0.0
H1298 H 0.20299 0.8221 0.53153 0.0
H1299 H 0.21483 0.85524 0.677 0.0
H1300 H 0.24357 0.8752 0.63408 0.0
H1301 H 0.23831 0.96905 0.46546 0.0
H1302 H 0.24068 0.93032 0.4648 0.0
H1303 H 0.29976 0.93376 0.54947 0.0
H1304 H 0.29727 0.97249 0.55005 0.0
H1305 H 0.24312 0.90195 0.54966 0.0
H1306 H 0.33142 0.89391 0.49763 0.0
H1307 H 0.35907 0.91368 0.44993 0.0
H1308 H 0.31197 0.94287 0.35177 0.0
H1309 H 0.28409 0.92305 0.3983 0.0
C1310 C 0.27871 0.80509 0.55765 0.0
C1311 C 0.27746 0.79358 0.51006 0.0
C1312 C 0.27803 0.82714 0.55694 0.0
C1313 C 0.27633 0.83807 0.50866 0.0
C1314 C 0.27577 0.82667 0.46104 0.0
C1315 C 0.27617 0.80464 0.46173 0.0
C1316 C 0.27438 0.86137 0.50781 0.0
C1317 C 0.29003 0.87328 0.48228 0.0
C1318 C 0.25718 0.87181 0.53201 0.0
C1319 C 0.23978 0.85998 0.55775 0.0
C1320 C 0.22807 0.84499 0.52905 0.0
C1321 C 0.21188 0.83369 0.55375 0.0
C1322 C 0.20714 0.83736 0.60707 0.0
C1323 C 0.21854 0.85239 0.63573 0.0
C1324 C 0.23477 0.86371 0.61122 0.0
C1325 C 0.25178 0.96141 0.48364 0.0
C1326 C 0.26766 0.97352 0.50761 0.0
C1327 C 0.25308 0.9394 0.48358 0.0
C1328 C 0.27044 0.9292 0.50689 0.0
C1329 C 0.28631 0.94133 0.53097 0.0
C1330 C 0.28489 0.96334 0.53144 0.0
C1331 C 0.27199 0.90586 0.50574 0.0
C1332 C 0.25625 0.89393 0.53089 0.0
C1333 C 0.28901 0.8954 0.48074 0.0
C1334 C 0.30567 0.90716 0.45188 0.0
C1335 C 0.32698 0.90449 0.46573 0.0
C1336 C 0.34269 0.91571 0.4389 0.0
C1337 C 0.33727 0.92957 0.39797 0.0
C1338 C 0.31614 0.93219 0.38362 0.0
C1339 C 0.30038 0.92098 0.41026 0.0
H1340 H 0.34946 0.93826 0.37729 0.0
H1341 H 0.19461 0.82859 0.62613 0.0
H1342 H 0.71003 0.80078 0.06877 0.0
H1343 H 0.67149 0.79941 0.06973 0.0
H1344 H 0.67263 0.75149 0.94825 0.0
H1345 H 0.71108 0.7535 0.94549 0.0
H1346 H 0.64262 0.77708 0.92705 0.0
H1347 H 0.66385 0.74063 0.0851 0.0
H1348 H 0.68233 0.73594 0.17044 0.0
H1349 H 0.64824 0.78828 0.23611 0.0
H1350 H 0.62975 0.79345 0.1509 0.0
H1351 H 0.53988 0.73487 0.9671 0.0
H1352 H 0.57833 0.73917 0.9673 0.0
H1353 H 0.57192 0.79617 0.05915 0.0
H1354 H 0.53334 0.7922 0.0574 0.0
H1355 H 0.60391 0.76742 0.09634 0.0
H1356 H 0.58138 0.80164 0.93525 0.0
H1357 H 0.56233 0.80357 0.85007 0.0
H1358 H 0.59888 0.7518 0.79017 0.0
H1359 H 0.6179 0.74932 0.87538 0.0
C1360 C 0.70204 0.78997 0.04223 0.0
C1361 C 0.7136 0.77717 0.00724 0.0
C1362 C 0.68 0.78912 0.043 0.0
C1363 C 0.66908 0.77505 0.00978 0.0
C1364 C 0.68063 0.76247 0.97432 0.0
C1365 C 0.70264 0.76359 0.97284 0.0
C1366 C 0.64566 0.7734 0.01178 0.0
C1367 C 0.63424 0.77472 0.96409 0.0
C1368 C 0.63455 0.77068 0.06012 0.0
C1369 C 0.64558 0.76756 0.11146 0.0
C1370 C 0.6604 0.75123 0.11763 0.0
C1371 C 0.67086 0.74847 0.16599 0.0
C1372 C 0.6665 0.76184 0.20862 0.0
C1373 C 0.65163 0.77795 0.20302 0.0
C1374 C 0.64114 0.7808 0.15472 0.0
C1375 C 0.54673 0.74838 0.98688 0.0
C1376 C 0.53375 0.76329 0.01192 0.0
C1377 C 0.56863 0.75078 0.98722 0.0
C1378 C 0.57792 0.76805 0.01298 0.0
C1379 C 0.56502 0.78271 0.03914 0.0
C1380 C 0.54307 0.78043 0.03826 0.0
C1381 C 0.60111 0.77092 0.01174 0.0
C1382 C 0.61241 0.76985 0.05949 0.0
C1383 C 0.61214 0.7735 0.96344 0.0
C1384 C 0.60093 0.77518 0.91188 0.0
C1385 C 0.58524 0.79057 0.90407 0.0
C1386 C 0.57446 0.79177 0.85576 0.0
C1387 C 0.57936 0.77779 0.81478 0.0
C1388 C 0.59509 0.76261 0.82198 0.0
C1389 C 0.60588 0.76131 0.87026 0.0
H1390 H 0.57099 0.77875 0.7774 0.0
H1391 H 0.67462 0.75968 0.24603 0.0
loop_
_geom_bond_atom_site_label_1
_geom_bond_atom_site_label_2
_geom_bond_distance
_geom_bond_site_symmetry_2
_ccdc_geom_bond_type
Fe0 O2 1.921 . S
Fe0 O5 1.997 . S
Fe0 O6 2.002 . S
Fe0 O11 1.976 . S
Fe0 O14 1.996 . S
Fe1 O2 1.916 1_556 S
Fe1 O9 1.997 . S
Fe1 O12 1.996 . S
Fe1 O16 1.976 . S
Fe1 O19 2.002 . S
O2 Fe0 1.921 . S
O2 Fe1 1.916 1_554 S
O2 Fe3 1.918 1_554 S
Fe3 O2 1.918 1_556 S
Fe3 O4 1.998 1_556 S
Fe3 O13 1.972 1_556 S
Fe3 O17 2.000 . S
Fe3 O20 2.001 . S
O4 Fe3 1.998 1_554 S
O4 C21 1.295 . S
O5 Fe0 1.997 . S
O5 C21 1.235 . S
O6 Fe0 2.002 . S
O6 C7 1.295 . S
C7 O6 1.295 . S
C7 O9 1.235 1_554 S
C8 O13 1.287 . S
C8 O14 1.255 . S
O9 Fe1 1.997 . S
O9 C7 1.235 1_556 S
C10 O16 1.287 . S
C10 O17 1.255 . S
O11 Fe0 1.976 . S
O11 C18 1.287 1_554 S
O12 Fe1 1.996 . S
O12 C18 1.255 . S
O13 Fe3 1.972 1_554 S
O13 C8 1.287 . S
O14 Fe0 1.996 . S
O14 C8 1.255 . S
C15 O19 1.295 . S
C15 O20 1.235 . S
O16 Fe1 1.976 . S
O16 C10 1.287 . S
O17 Fe3 2.000 . S
O17 C10 1.255 . S
C18 O11 1.287 1_556 S
C18 O12 1.255 . S
O19 Fe1 2.002 . S
O19 C15 1.295 . S
O20 Fe3 2.001 . S
O20 C15 1.235 . S
C21 O4 1.295 . S
C21 O5 1.235 . S
Fe22 O24 1.918 . S
Fe22 O27 1.997 . S
Fe22 O28 2.002 . S
Fe22 O33 1.976 . S
Fe22 O36 1.996 . S
Fe23 O24 1.918 . S
Fe23 O31 1.997 . S
Fe23 O34 1.996 . S
Fe23 O38 1.976 . S
Fe23 O41 2.002 . S
O24 Fe22 1.918 . S
O24 Fe23 1.918 . S
O24 Fe25 1.918 . S
Fe25 O24 1.918 . S
Fe25 O26 2.002 . S
Fe25 O35 1.976 . S
Fe25 O39 1.996 . S
Fe25 O42 1.997 . S
O26 Fe25 2.002 . S
O26 C43 1.295 . S
O27 Fe22 1.997 . S
O27 C43 1.235 . S
O28 Fe22 2.002 . S
O28 C29 1.295 . S
C29 O28 1.295 . S
C29 O31 1.235 . S
C30 O35 1.287 . S
C30 O36 1.255 . S
O31 Fe23 1.997 . S
O31 C29 1.235 . S
C32 O38 1.287 . S
C32 O39 1.255 . S
O33 Fe22 1.976 . S
O33 C40 1.287 . S
O34 Fe23 1.996 . S
O34 C40 1.255 . S
O35 Fe25 1.976 . S
O35 C30 1.287 . S
O36 Fe22 1.996 . S
O36 C30 1.255 . S
C37 O41 1.295 . S
C37 O42 1.235 . S
O38 Fe23 1.976 . S
O38 C32 1.287 . S
O39 Fe25 1.996 . S
O39 C32 1.255 . S
C40 O33 1.287 . S
C40 O34 1.255 . S
O41 Fe23 2.002 . S
O41 C37 1.295 . S
O42 Fe25 1.997 . S
O42 C37 1.235 . S
C43 O26 1.295 . S
C43 O27 1.235 . S
Fe44 O46 1.910 1_556 S
Fe44 O49 1.997 . S
Fe44 O50 2.002 . S
Fe44 O55 1.976 . S
Fe44 O58 1.996 . S
Fe45 O46 1.926 . S
Fe45 O53 1.997 . S
Fe45 O56 1.996 . S
Fe45 O60 1.976 . S
Fe45 O63 2.002 . S
O46 Fe44 1.910 1_554 S
O46 Fe45 1.926 . S
O46 Fe47 1.918 . S
Fe47 O46 1.918 . S
Fe47 O48 2.002 1_554 S
Fe47 O57 1.976 1_554 S
Fe47 O61 1.996 . S
Fe47 O64 1.997 . S
O48 Fe47 2.002 1_556 S
O48 C65 1.295 . S
O49 Fe44 1.997 . S
O49 C65 1.235 . S
O50 Fe44 2.002 . S
O50 C51 1.315 . S
C51 O50 1.315 . S
C51 O53 1.216 1_556 S
C52 O57 1.287 . S
C52 O58 1.255 . S
O53 Fe45 1.997 . S
O53 C51 1.216 1_554 S
C54 O60 1.287 . S
C54 O61 1.255 . S
O55 Fe44 1.976 . S
O55 C62 1.287 1_556 S
O56 Fe45 1.996 . S
O56 C62 1.255 . S
O57 Fe47 1.976 1_556 S
O57 C52 1.287 . S
O58 Fe44 1.996 . S
O58 C52 1.255 . S
C59 O63 1.295 . S
C59 O64 1.235 . S
O60 Fe45 1.976 . S
O60 C54 1.287 . S
O61 Fe47 1.996 . S
O61 C54 1.255 . S
C62 O55 1.287 1_554 S
C62 O56 1.255 . S
O63 Fe45 2.002 . S
O63 C59 1.295 . S
O64 Fe47 1.997 . S
O64 C59 1.235 . S
C65 O48 1.295 . S
C65 O49 1.235 . S
Fe66 O68 1.918 . S
Fe66 O71 1.997 . S
Fe66 O72 2.002 . S
Fe66 O77 1.976 . S
Fe66 O80 1.996 . S
Fe67 O68 1.918 . S
Fe67 O75 1.997 . S
Fe67 O78 1.996 . S
Fe67 O82 1.976 . S
Fe67 O85 2.002 . S
O68 Fe66 1.918 . S
O68 Fe67 1.918 . S
O68 Fe69 1.918 . S
Fe69 O68 1.918 . S
Fe69 O70 2.002 . S
Fe69 O79 1.976 . S
Fe69 O83 1.996 . S
Fe69 O86 1.997 . S
O70 Fe69 2.002 . S
O70 C87 1.295 . S
O71 Fe66 1.997 . S
O71 C87 1.235 . S
O72 Fe66 2.002 . S
O72 C73 1.295 . S
C73 O72 1.295 . S
C73 O75 1.235 . S
C74 O79 1.287 . S
C74 O80 1.255 . S
O75 Fe67 1.997 . S
O75 C73 1.235 . S
C76 O82 1.287 . S
C76 O83 1.255 . S
O77 Fe66 1.976 . S
O77 C84 1.287 . S
O78 Fe67 1.996 . S
O78 C84 1.255 . S
O79 Fe69 1.976 . S
O79 C74 1.287 . S
O80 Fe66 1.996 . S
O80 C74 1.255 . S
C81 O85 1.295 . S
C81 O86 1.235 . S
O82 Fe67 1.976 . S
O82 C76 1.287 . S
O83 Fe69 1.996 . S
O83 C76 1.255 . S
C84 O77 1.287 . S
C84 O78 1.255 . S
O85 Fe67 2.002 . S
O85 C81 1.295 . S
O86 Fe69 1.997 . S
O86 C81 1.235 . S
C87 O70 1.295 . S
C87 O71 1.235 . S
C88 N89 1.317 . S
C88 N90 1.359 . S
C88 C91 1.485 . S
N89 C88 1.317 . S
N89 N93 1.370 1_556 S
N90 C88 1.359 . S
N90 C92 1.335 1_556 S
C91 C88 1.485 . S
C91 H95 0.960 . S
C91 H96 0.961 . S
C91 H97 0.960 . S
C92 N90 1.335 1_554 S
C92 N93 1.307 . S
C92 C94 1.486 . S
N93 N89 1.370 1_554 S
N93 C92 1.307 . S
C94 C92 1.486 . S
C94 H98 0.960 . S
C94 H99 0.960 . S
C94 H100 0.959 . S
H95 C91 0.960 . S
H96 C91 0.961 . S
H97 C91 0.960 . S
H98 C94 0.960 . S
H99 C94 0.960 . S
H100 C94 0.959 . S
C101 N102 1.317 1_455 S
C101 N103 1.348 . S
C101 C104 1.485 . S
N102 C101 1.317 1_655 S
N102 N106 1.370 . S
N103 C101 1.348 . S
N103 C105 1.346 . S
C104 C101 1.485 . S
C104 H108 0.960 . S
C104 H109 0.961 . S
C104 H110 0.958 1_455 S
C105 N103 1.346 . S
C105 N106 1.307 1_455 S
C105 C107 1.486 . S
N106 N102 1.370 . S
N106 C105 1.307 1_655 S
C107 C105 1.486 . S
C107 H111 0.960 . S
C107 H112 0.960 . S
C107 H113 0.959 . S
H108 C104 0.960 . S
H109 C104 0.961 . S
H110 C104 0.958 1_655 S
H111 C107 0.960 . S
H112 C107 0.960 . S
H113 C107 0.959 . S
C114 N115 1.317 . S
C114 N116 1.348 . S
C114 C117 1.485 . S
N115 C114 1.317 . S
N115 N119 1.370 1_554 S
N116 C114 1.348 . S
N116 C118 1.346 1_554 S
C117 C114 1.485 . S
C117 H121 0.960 . S
C117 H122 0.961 . S
C117 H123 0.960 . S
C118 N116 1.346 1_556 S
C118 N119 1.307 . S
C118 C120 1.486 . S
N119 N115 1.370 1_556 S
N119 C118 1.307 . S
C120 C118 1.486 . S
C120 H124 0.960 . S
C120 H125 0.960 . S
C120 H126 0.959 . S
H121 C117 0.960 . S
H122 C117 0.961 . S
H123 C117 0.960 . S
H124 C120 0.960 . S
H125 C120 0.960 . S
H126 C120 0.959 . S
C127 N128 1.317 1_655 S
C127 N129 1.348 . S
C127 C130 1.485 . S
N128 C127 1.317 1_455 S
N128 N132 1.370 . S
N129 C127 1.348 . S
N129 C131 1.346 . S
C130 C127 1.485 . S
C130 H134 0.960 . S
C130 H135 0.961 . S
C130 H136 0.967 . S
C131 N129 1.346 . S
C131 N132 1.307 1_655 S
C131 C133 1.486 . S
N132 N128 1.370 . S
N132 C131 1.307 1_455 S
C133 C131 1.486 . S
C133 H137 0.960 . S
C133 H138 0.960 . S
C133 H139 0.959 1_655 S
H134 C130 0.960 . S
H135 C130 0.961 . S
H136 C130 0.967 . S
H137 C133 0.960 . S
H138 C133 0.960 . S
H139 C133 0.959 1_455 S
C140 N141 1.317 1_545 S
C140 N142 1.348 . S
C140 C143 1.485 . S
N141 C140 1.317 1_565 S
N141 N145 1.370 . S
N142 C140 1.348 . S
N142 C144 1.346 . S
C143 C140 1.485 . S
C143 H147 0.960 . S
C143 H148 0.961 . S
C143 H149 0.960 . S
C144 N142 1.346 . S
C144 N145 1.307 1_545 S
C144 C146 1.486 . S
N145 N141 1.370 . S
N145 C144 1.307 1_565 S
C146 C144 1.486 . S
C146 H150 0.960 . S
C146 H151 0.960 . S
C146 H152 0.994 . S
H147 C143 0.960 . S
H148 C143 0.961 . S
H149 C143 0.960 . S
H150 C146 0.960 . S
H151 C146 0.960 . S
H152 C146 0.994 . S
C153 N154 1.317 . S
C153 N155 1.359 . S
C153 C156 1.485 . S
N154 C153 1.317 . S
N154 N158 1.370 1_556 S
N155 C153 1.359 . S
N155 C157 1.335 1_556 S
C156 C153 1.485 . S
C156 H160 0.960 . S
C156 H161 0.961 . S
C156 H162 0.960 . S
C157 N155 1.335 1_554 S
C157 N158 1.307 . S
C157 C159 1.486 . S
N158 N154 1.370 1_554 S
N158 C157 1.307 . S
C159 C157 1.486 . S
C159 H163 0.960 . S
C159 H164 0.960 . S
C159 H165 0.959 . S
H160 C156 0.960 . S
H161 C156 0.961 . S
H162 C156 0.960 . S
H163 C159 0.960 . S
H164 C159 0.960 . S
H165 C159 0.959 . S
C166 N167 1.317 1_565 S
C166 N168 1.348 . S
C166 C169 1.485 . S
N167 C166 1.317 1_545 S
N167 N171 1.370 . S
N168 C166 1.348 . S
N168 C170 1.346 . S
C169 C166 1.485 . S
C169 H173 0.960 . S
C169 H174 0.961 . S
C169 H175 0.960 1_565 S
C170 N168 1.346 . S
C170 N171 1.307 1_565 S
C170 C172 1.486 . S
N171 N167 1.370 . S
N171 C170 1.307 1_545 S
C172 C170 1.486 . S
C172 H176 0.960 . S
C172 H177 0.960 . S
C172 H178 0.976 . S
H173 C169 0.960 . S
H174 C169 0.961 . S
H175 C169 0.960 1_545 S
H176 C172 0.960 . S
H177 C172 0.960 . S
H178 C172 0.976 . S
C179 N180 1.317 . S
C179 N181 1.348 . S
C179 C182 1.485 . S
N180 C179 1.317 . S
N180 N184 1.370 1_554 S
N181 C179 1.348 . S
N181 C183 1.346 1_554 S
C182 C179 1.485 . S
C182 H186 0.960 . S
C182 H187 0.961 . S
C182 H188 0.960 . S
C183 N181 1.346 1_556 S
C183 N184 1.307 . S
C183 C185 1.486 . S
N184 N180 1.370 1_556 S
N184 C183 1.307 . S
C185 C183 1.486 . S
C185 H189 0.960 . S
C185 H190 0.960 . S
C185 H191 0.959 . S
H186 C182 0.960 . S
H187 C182 0.961 . S
H188 C182 0.960 . S
H189 C185 0.960 . S
H190 C185 0.960 . S
H191 C185 0.959 . S
H192 C210 0.951 . S
H193 C212 0.951 . S
H194 C214 0.950 . S
H195 C215 0.950 . S
H196 C217 0.950 . S
H197 C220 0.950 . S
H198 C221 0.950 . S
H199 C223 0.950 . S
H200 C224 0.950 . S
H201 C225 0.951 . S
H202 C227 0.951 . S
H203 C229 0.950 . S
H204 C230 0.950 . S
H205 C232 0.950 . S
H206 C235 0.950 . S
H207 C236 0.950 . S
H208 C238 0.950 . S
H209 C239 0.950 . S
C210 H192 0.951 . S
C210 C211 1.366 . S
C210 C212 1.388 . S
C211 C210 1.366 . S
C211 C215 1.385 . S
C212 H193 0.951 . S
C212 C210 1.388 . S
C212 C213 1.366 . S
C213 C212 1.366 . S
C213 C214 1.414 . S
C213 C216 1.499 . S
C214 H194 0.950 . S
C214 C213 1.414 . S
C214 C215 1.374 . S
C215 H195 0.950 . S
C215 C211 1.385 . S
C215 C214 1.374 . S
C216 C213 1.499 . S
C216 C217 1.373 . S
C216 C218 1.389 . S
C217 H196 0.950 . S
C217 C216 1.373 . S
C217 C233 1.377 . S
C218 C216 1.389 . S
C218 C219 1.524 . S
C218 C232 1.377 . S
C219 C218 1.524 . S
C219 C220 1.397 . S
C219 C224 1.363 . S
C220 H197 0.950 . S
C220 C219 1.397 . S
C220 C221 1.334 . S
C221 H198 0.950 . S
C221 C220 1.334 . S
C221 C222 1.287 . S
C222 C221 1.287 . S
C222 C223 1.524 . S
C222 H241 0.913 . S
C223 H199 0.950 . S
C223 C222 1.524 . S
C223 C224 1.415 . S
C224 H200 0.950 . S
C224 C219 1.363 . S
C224 C223 1.415 . S
C225 H201 0.951 . S
C225 C226 1.366 . S
C225 C227 1.388 . S
C226 C225 1.366 . S
C226 C230 1.385 . S
C227 H202 0.951 . S
C227 C225 1.388 . S
C227 C228 1.366 . S
C228 C227 1.366 . S
C228 C229 1.414 . S
C228 C231 1.499 . S
C229 H203 0.950 . S
C229 C228 1.414 . S
C229 C230 1.374 . S
C230 H204 0.950 . S
C230 C226 1.385 . S
C230 C229 1.374 . S
C231 C228 1.499 . S
C231 C232 1.373 . S
C231 C233 1.389 . S
C232 H205 0.950 . S
C232 C218 1.377 . S
C232 C231 1.373 . S
C233 C217 1.377 . S
C233 C231 1.389 . S
C233 C234 1.524 . S
C234 C233 1.524 . S
C234 C235 1.397 . S
C234 C239 1.363 . S
C235 H206 0.950 . S
C235 C234 1.397 . S
C235 C236 1.334 . S
C236 H207 0.950 . S
C236 C235 1.334 . S
C236 C237 1.287 . S
C237 C236 1.287 . S
C237 C238 1.524 . S
C237 H240 0.999 . S
C238 H208 0.950 . S
C238 C237 1.524 . S
C238 C239 1.415 . S
C239 H209 0.950 . S
C239 C234 1.363 . S
C239 C238 1.415 . S
H240 C237 0.999 . S
H241 C222 0.913 . S
H242 C260 0.951 . S
H243 C262 0.951 . S
H244 C264 0.950 . S
H245 C265 0.950 . S
H246 C267 0.950 . S
H247 C270 0.950 . S
H248 C271 0.950 . S
H249 C273 0.950 . S
H250 C274 0.950 . S
H251 C275 0.951 . S
H252 C277 0.951 . S
H253 C279 0.950 . S
H254 C280 0.950 . S
H255 C282 0.950 . S
H256 C285 0.950 . S
H257 C286 0.950 1_554 S
H258 C288 0.950 . S
H259 C289 0.950 . S
C260 H242 0.951 . S
C260 C261 1.366 . S
C260 C262 1.388 . S
C261 C260 1.366 . S
C261 C265 1.385 . S
C262 H243 0.951 . S
C262 C260 1.388 . S
C262 C263 1.366 . S
C263 C262 1.366 . S
C263 C264 1.414 . S
C263 C266 1.499 . S
C264 H244 0.950 . S
C264 C263 1.414 . S
C264 C265 1.374 . S
C265 H245 0.950 . S
C265 C261 1.385 . S
C265 C264 1.374 . S
C266 C263 1.499 . S
C266 C267 1.373 . S
C266 C268 1.389 . S
C267 H246 0.950 . S
C267 C266 1.373 . S
C267 C283 1.377 . S
C268 C266 1.389 . S
C268 C269 1.524 . S
C268 C282 1.377 . S
C269 C268 1.524 . S
C269 C270 1.397 . S
C269 C274 1.363 . S
C270 H247 0.950 . S
C270 C269 1.397 . S
C270 C271 1.334 . S
C271 H248 0.950 . S
C271 C270 1.334 . S
C271 C272 1.287 . S
C272 C271 1.287 . S
C272 C273 1.524 . S
C272 H291 0.913 . S
C273 H249 0.950 . S
C273 C272 1.524 . S
C273 C274 1.415 . S
C274 H250 0.950 . S
C274 C269 1.363 . S
C274 C273 1.415 . S
C275 H251 0.951 . S
C275 C276 1.366 . S
C275 C277 1.388 . S
C276 C275 1.366 . S
C276 C280 1.385 . S
C277 H252 0.951 . S
C277 C275 1.388 . S
C277 C278 1.366 . S
C278 C277 1.366 . S
C278 C279 1.414 . S
C278 C281 1.499 . S
C279 H253 0.950 . S
C279 C278 1.414 . S
C279 C280 1.374 . S
C280 H254 0.950 . S
C280 C276 1.385 . S
C280 C279 1.374 . S
C281 C278 1.499 . S
C281 C282 1.373 . S
C281 C283 1.389 . S
C282 H255 0.950 . S
C282 C268 1.377 . S
C282 C281 1.373 . S
C283 C267 1.377 . S
C283 C281 1.389 . S
C283 C284 1.524 . S
C284 C283 1.524 . S
C284 C285 1.397 . S
C284 C289 1.363 . S
C285 H256 0.950 . S
C285 C284 1.397 . S
C285 C286 1.334 . S
C286 H257 0.950 1_556 S
C286 C285 1.334 . S
C286 C287 1.287 . S
C287 C286 1.287 . S
C287 C288 1.524 . S
C287 H290 0.999 1_556 S
C288 H258 0.950 . S
C288 C287 1.524 . S
C288 C289 1.415 . S
C289 H259 0.950 . S
C289 C284 1.363 . S
C289 C288 1.415 . S
H290 C287 0.999 1_554 S
H291 C272 0.913 . S
H292 C310 0.951 . S
H293 C312 0.951 . S
H294 C314 0.950 . S
H295 C315 0.950 . S
H296 C317 0.950 . S
H297 C320 0.950 . S
H298 C321 0.950 . S
H299 C323 0.950 . S
H300 C324 0.950 . S
H301 C325 0.951 . S
H302 C327 0.951 . S
H303 C329 0.950 . S
H304 C330 0.950 . S
H305 C332 0.950 . S
H306 C335 0.950 . S
H307 C336 0.950 . S
H308 C338 0.950 . S
H309 C339 0.950 . S
C310 H292 0.951 . S
C310 C311 1.366 . S
C310 C312 1.388 . S
C311 C310 1.366 . S
C311 C315 1.385 . S
C312 H293 0.951 . S
C312 C310 1.388 . S
C312 C313 1.366 . S
C313 C312 1.366 . S
C313 C314 1.414 . S
C313 C316 1.499 . S
C314 H294 0.950 . S
C314 C313 1.414 . S
C314 C315 1.374 . S
C315 H295 0.950 . S
C315 C311 1.385 . S
C315 C314 1.374 . S
C316 C313 1.499 . S
C316 C317 1.373 . S
C316 C318 1.389 . S
C317 H296 0.950 . S
C317 C316 1.373 . S
C317 C333 1.377 . S
C318 C316 1.389 . S
C318 C319 1.524 . S
C318 C332 1.377 . S
C319 C318 1.524 . S
C319 C320 1.397 . S
C319 C324 1.363 . S
C320 H297 0.950 . S
C320 C319 1.397 . S
C320 C321 1.334 . S
C321 H298 0.950 . S
C321 C320 1.334 . S
C321 C322 1.287 . S
C322 C321 1.287 . S
C322 C323 1.524 . S
C322 H341 0.913 . S
C323 H299 0.950 . S
C323 C322 1.524 . S
C323 C324 1.415 . S
C324 H300 0.950 . S
C324 C319 1.363 . S
C324 C323 1.415 . S
C325 H301 0.951 . S
C325 C326 1.366 . S
C325 C327 1.388 . S
C326 C325 1.366 . S
C326 C330 1.385 . S
C327 H302 0.951 . S
C327 C325 1.388 . S
C327 C328 1.366 . S
C328 C327 1.366 . S
C328 C329 1.414 . S
C328 C331 1.499 . S
C329 H303 0.950 . S
C329 C328 1.414 . S
C329 C330 1.374 . S
C330 H304 0.950 . S
C330 C326 1.385 . S
C330 C329 1.374 . S
C331 C328 1.499 . S
C331 C332 1.373 . S
C331 C333 1.389 . S
C332 H305 0.950 . S
C332 C318 1.377 . S
C332 C331 1.373 . S
C333 C317 1.377 . S
C333 C331 1.389 . S
C333 C334 1.524 . S
C334 C333 1.524 . S
C334 C335 1.397 . S
C334 C339 1.363 . S
C335 H306 0.950 . S
C335 C334 1.397 . S
C335 C336 1.334 . S
C336 H307 0.950 . S
C336 C335 1.334 . S
C336 C337 1.287 . S
C337 C336 1.287 . S
C337 C338 1.524 . S
C337 H340 0.999 . S
C338 H308 0.950 . S
C338 C337 1.524 . S
C338 C339 1.415 . S
C339 H309 0.950 . S
C339 C334 1.363 . S
C339 C338 1.415 . S
H340 C337 0.999 . S
H341 C322 0.913 . S
H342 C360 0.951 . S
H343 C362 0.951 . S
H344 C364 0.950 . S
H345 C365 0.950 . S
H346 C367 0.950 . S
H347 C370 0.950 . S
H348 C371 0.950 . S
H349 C373 0.950 . S
H350 C374 0.950 . S
H351 C375 0.951 . S
H352 C377 0.951 . S
H353 C379 0.950 . S
H354 C380 0.950 . S
H355 C382 0.950 . S
H356 C385 0.950 . S
H357 C386 0.950 . S
H358 C388 0.950 . S
H359 C389 0.950 . S
C360 H342 0.951 . S
C360 C361 1.366 . S
C360 C362 1.388 . S
C361 C360 1.366 . S
C361 C365 1.385 . S
C362 H343 0.951 . S
C362 C360 1.388 . S
C362 C363 1.366 . S
C363 C362 1.366 . S
C363 C364 1.414 . S
C363 C366 1.499 . S
C364 H344 0.950 . S
C364 C363 1.414 . S
C364 C365 1.374 . S
C365 H345 0.950 . S
C365 C361 1.385 . S
C365 C364 1.374 . S
C366 C363 1.499 . S
C366 C367 1.373 . S
C366 C368 1.389 . S
C367 H346 0.950 . S
C367 C366 1.373 . S
C367 C383 1.377 . S
C368 C366 1.389 . S
C368 C369 1.524 . S
C368 C382 1.377 . S
C369 C368 1.524 . S
C369 C370 1.397 . S
C369 C374 1.363 . S
C370 H347 0.950 . S
C370 C369 1.397 . S
C370 C371 1.334 . S
C371 H348 0.950 . S
C371 C370 1.334 . S
C371 C372 1.287 . S
C372 C371 1.287 . S
C372 C373 1.524 . S
C372 H391 0.913 . S
C373 H349 0.950 . S
C373 C372 1.524 . S
C373 C374 1.415 . S
C374 H350 0.950 . S
C374 C369 1.363 . S
C374 C373 1.415 . S
C375 H351 0.951 . S
C375 C376 1.366 . S
C375 C377 1.388 . S
C376 C375 1.366 . S
C376 C380 1.385 . S
C377 H352 0.951 . S
C377 C375 1.388 . S
C377 C378 1.366 . S
C378 C377 1.366 . S
C378 C379 1.414 . S
C378 C381 1.499 . S
C379 H353 0.950 . S
C379 C378 1.414 . S
C379 C380 1.374 . S
C380 H354 0.950 . S
C380 C376 1.385 . S
C380 C379 1.374 . S
C381 C378 1.499 . S
C381 C382 1.373 . S
C381 C383 1.389 . S
C382 H355 0.950 . S
C382 C368 1.377 . S
C382 C381 1.373 . S
C383 C367 1.377 . S
C383 C381 1.389 . S
C383 C384 1.524 . S
C384 C383 1.524 . S
C384 C385 1.397 . S
C384 C389 1.363 . S
C385 H356 0.950 . S
C385 C384 1.397 . S
C385 C386 1.334 . S
C386 H357 0.950 . S
C386 C385 1.334 . S
C386 C387 1.287 . S
C387 C386 1.287 . S
C387 C388 1.524 . S
C387 H390 0.999 . S
C388 H358 0.950 . S
C388 C387 1.524 . S
C388 C389 1.415 . S
C389 H359 0.950 . S
C389 C384 1.363 . S
C389 C388 1.415 . S
H390 C387 0.999 . S
H391 C372 0.913 . S
H392 C410 0.951 . S
H393 C412 0.951 . S
H394 C414 0.950 . S
H395 C415 0.950 . S
H396 C417 0.950 . S
H397 C420 0.950 . S
H398 C421 0.950 . S
H399 C423 0.950 . S
H400 C424 0.950 . S
H401 C425 0.951 . S
H402 C427 0.951 . S
H403 C429 0.950 . S
H404 C430 0.950 . S
H405 C432 0.950 . S
H406 C435 0.950 . S
H407 C436 0.950 . S
H408 C438 0.950 . S
H409 C439 0.950 . S
C410 H392 0.951 . S
C410 C411 1.366 . S
C410 C412 1.388 . S
C411 C410 1.366 . S
C411 C415 1.385 . S
C412 H393 0.951 . S
C412 C410 1.388 . S
C412 C413 1.366 . S
C413 C412 1.366 . S
C413 C414 1.414 . S
C413 C416 1.499 . S
C414 H394 0.950 . S
C414 C413 1.414 . S
C414 C415 1.374 . S
C415 H395 0.950 . S
C415 C411 1.385 . S
C415 C414 1.374 . S
C416 C413 1.499 . S
C416 C417 1.373 . S
C416 C418 1.389 . S
C417 H396 0.950 . S
C417 C416 1.373 . S
C417 C433 1.377 . S
C418 C416 1.389 . S
C418 C419 1.524 . S
C418 C432 1.377 . S
C419 C418 1.524 . S
C419 C420 1.397 . S
C419 C424 1.363 . S
C420 H397 0.950 . S
C420 C419 1.397 . S
C420 C421 1.334 . S
C421 H398 0.950 . S
C421 C420 1.334 . S
C421 C422 1.287 . S
C422 C421 1.287 . S
C422 C423 1.524 . S
C422 H441 0.913 . S
C423 H399 0.950 . S
C423 C422 1.524 . S
C423 C424 1.415 . S
C424 H400 0.950 . S
C424 C419 1.363 . S
C424 C423 1.415 . S
C425 H401 0.951 . S
C425 C426 1.366 . S
C425 C427 1.388 . S
C426 C425 1.366 . S
C426 C430 1.385 . S
C427 H402 0.951 . S
C427 C425 1.388 . S
C427 C428 1.366 . S
C428 C427 1.366 . S
C428 C429 1.414 . S
C428 C431 1.499 . S
C429 H403 0.950 . S
C429 C428 1.414 . S
C429 C430 1.374 . S
C430 H404 0.950 . S
C430 C426 1.385 . S
C430 C429 1.374 . S
C431 C428 1.499 . S
C431 C432 1.373 . S
C431 C433 1.389 . S
C432 H405 0.950 . S
C432 C418 1.377 . S
C432 C431 1.373 . S
C433 C417 1.377 . S
C433 C431 1.389 . S
C433 C434 1.524 . S
C434 C433 1.524 . S
C434 C435 1.397 . S
C434 C439 1.363 . S
C435 H406 0.950 . S
C435 C434 1.397 . S
C435 C436 1.334 . S
C436 H407 0.950 . S
C436 C435 1.334 . S
C436 C437 1.287 . S
C437 C436 1.287 . S
C437 C438 1.524 . S
C437 H440 0.999 . S
C438 H408 0.950 . S
C438 C437 1.524 . S
C438 C439 1.415 . S
C439 H409 0.950 . S
C439 C434 1.363 . S
C439 C438 1.415 . S
H440 C437 0.999 . S
H441 C422 0.913 . S
H442 C460 0.951 . S
H443 C462 0.951 . S
H444 C464 0.950 . S
H445 C465 0.950 . S
H446 C467 0.950 . S
H447 C470 0.950 . S
H448 C471 0.950 . S
H449 C473 0.950 . S
H450 C474 0.950 . S
H451 C475 0.951 . S
H452 C477 0.951 . S
H453 C479 0.950 . S
H454 C480 0.950 . S
H455 C482 0.950 . S
H456 C485 0.950 . S
H457 C486 0.950 . S
H458 C488 0.950 . S
H459 C489 0.950 . S
C460 H442 0.951 . S
C460 C461 1.366 . S
C460 C462 1.388 . S
C461 C460 1.366 . S
C461 C465 1.385 . S
C462 H443 0.951 . S
C462 C460 1.388 . S
C462 C463 1.366 . S
C463 C462 1.366 . S
C463 C464 1.414 . S
C463 C466 1.499 . S
C464 H444 0.950 . S
C464 C463 1.414 . S
C464 C465 1.374 . S
C465 H445 0.950 . S
C465 C461 1.385 . S
C465 C464 1.374 . S
C466 C463 1.499 . S
C466 C467 1.373 . S
C466 C468 1.389 . S
C467 H446 0.950 . S
C467 C466 1.373 . S
C467 C483 1.377 . S
C468 C466 1.389 . S
C468 C469 1.524 . S
C468 C482 1.377 . S
C469 C468 1.524 . S
C469 C470 1.397 . S
C469 C474 1.363 . S
C470 H447 0.950 . S
C470 C469 1.397 . S
C470 C471 1.334 . S
C471 H448 0.950 . S
C471 C470 1.334 . S
C471 C472 1.287 . S
C472 C471 1.287 . S
C472 C473 1.524 . S
C472 H491 0.913 . S
C473 H449 0.950 . S
C473 C472 1.524 . S
C473 C474 1.415 . S
C474 H450 0.950 . S
C474 C469 1.363 . S
C474 C473 1.415 . S
C475 H451 0.951 . S
C475 C476 1.366 . S
C475 C477 1.388 . S
C476 C475 1.366 . S
C476 C480 1.385 . S
C477 H452 0.951 . S
C477 C475 1.388 . S
C477 C478 1.366 . S
C478 C477 1.366 . S
C478 C479 1.414 . S
C478 C481 1.499 . S
C479 H453 0.950 . S
C479 C478 1.414 . S
C479 C480 1.374 . S
C480 H454 0.950 . S
C480 C476 1.385 . S
C480 C479 1.374 . S
C481 C478 1.499 . S
C481 C482 1.373 . S
C481 C483 1.389 . S
C482 H455 0.950 . S
C482 C468 1.377 . S
C482 C481 1.373 . S
C483 C467 1.377 . S
C483 C481 1.389 . S
C483 C484 1.524 . S
C484 C483 1.524 . S
C484 C485 1.397 . S
C484 C489 1.363 . S
C485 H456 0.950 . S
C485 C484 1.397 . S
C485 C486 1.334 . S
C486 H457 0.950 . S
C486 C485 1.334 . S
C486 C487 1.287 . S
C487 C486 1.287 . S
C487 C488 1.524 . S
C487 H490 0.999 . S
C488 H458 0.950 . S
C488 C487 1.524 . S
C488 C489 1.415 . S
C489 H459 0.950 . S
C489 C484 1.363 . S
C489 C488 1.415 . S
H490 C487 0.999 . S
H491 C472 0.913 . S
H492 C510 0.951 . S
H493 C512 0.951 . S
H494 C514 0.950 . S
H495 C515 0.950 . S
H496 C517 0.950 . S
H497 C520 0.950 . S
H498 C521 0.950 . S
H499 C523 0.950 . S
H500 C524 0.950 . S
H501 C525 0.951 . S
H502 C527 0.951 . S
H503 C529 0.950 . S
H504 C530 0.950 . S
H505 C532 0.950 . S
H506 C535 0.950 . S
H507 C536 0.950 . S
H508 C538 0.950 . S
H509 C539 0.950 . S
C510 H492 0.951 . S
C510 C511 1.366 . S
C510 C512 1.388 . S
C511 C510 1.366 . S
C511 C515 1.385 . S
C512 H493 0.951 . S
C512 C510 1.388 . S
C512 C513 1.366 . S
C513 C512 1.366 . S
C513 C514 1.414 . S
C513 C516 1.499 . S
C514 H494 0.950 . S
C514 C513 1.414 . S
C514 C515 1.374 . S
C515 H495 0.950 . S
C515 C511 1.385 . S
C515 C514 1.374 . S
C516 C513 1.499 . S
C516 C517 1.373 . S
C516 C518 1.389 . S
C517 H496 0.950 . S
C517 C516 1.373 . S
C517 C533 1.377 . S
C518 C516 1.389 . S
C518 C519 1.524 . S
C518 C532 1.377 . S
C519 C518 1.524 . S
C519 C520 1.397 . S
C519 C524 1.363 . S
C520 H497 0.950 . S
C520 C519 1.397 . S
C520 C521 1.334 . S
C521 H498 0.950 . S
C521 C520 1.334 . S
C521 C522 1.287 . S
C522 C521 1.287 . S
C522 C523 1.524 . S
C522 H541 0.913 . S
C523 H499 0.950 . S
C523 C522 1.524 . S
C523 C524 1.415 . S
C524 H500 0.950 . S
C524 C519 1.363 . S
C524 C523 1.415 . S
C525 H501 0.951 . S
C525 C526 1.366 . S
C525 C527 1.388 . S
C526 C525 1.366 . S
C526 C530 1.385 . S
C527 H502 0.951 . S
C527 C525 1.388 . S
C527 C528 1.366 . S
C528 C527 1.366 . S
C528 C529 1.414 . S
C528 C531 1.499 . S
C529 H503 0.950 . S
C529 C528 1.414 . S
C529 C530 1.374 . S
C530 H504 0.950 . S
C530 C526 1.385 . S
C530 C529 1.374 . S
C531 C528 1.499 . S
C531 C532 1.373 . S
C531 C533 1.389 . S
C532 H505 0.950 . S
C532 C518 1.377 . S
C532 C531 1.373 . S
C533 C517 1.377 . S
C533 C531 1.389 . S
C533 C534 1.524 . S
C534 C533 1.524 . S
C534 C535 1.397 . S
C534 C539 1.363 . S
C535 H506 0.950 . S
C535 C534 1.397 . S
C535 C536 1.334 . S
C536 H507 0.950 . S
C536 C535 1.334 . S
C536 C537 1.287 . S
C537 C536 1.287 . S
C537 C538 1.524 . S
C537 H540 0.999 . S
C538 H508 0.950 . S
C538 C537 1.524 . S
C538 C539 1.415 . S
C539 H509 0.950 . S
C539 C534 1.363 . S
C539 C538 1.415 . S
H540 C537 0.999 . S
H541 C522 0.913 . S
H542 C560 0.951 . S
H543 C562 0.951 . S
H544 C564 0.950 . S
H545 C565 0.950 . S
H546 C567 0.950 . S
H547 C570 0.950 . S
H548 C571 0.950 . S
H549 C573 0.950 . S
H550 C574 0.950 . S
H551 C575 0.951 . S
H552 C577 0.951 . S
H553 C579 0.950 . S
H554 C580 0.950 . S
H555 C582 0.950 . S
H556 C585 0.950 . S
H557 C586 0.950 . S
H558 C588 0.950 . S
H559 C589 0.950 . S
C560 H542 0.951 . S
C560 C561 1.366 . S
C560 C562 1.388 . S
C561 C560 1.366 . S
C561 C565 1.385 . S
C562 H543 0.951 . S
C562 C560 1.388 . S
C562 C563 1.366 . S
C563 C562 1.366 . S
C563 C564 1.414 . S
C563 C566 1.499 . S
C564 H544 0.950 . S
C564 C563 1.414 . S
C564 C565 1.374 . S
C565 H545 0.950 . S
C565 C561 1.385 . S
C565 C564 1.374 . S
C566 C563 1.499 . S
C566 C567 1.373 . S
C566 C568 1.389 . S
C567 H546 0.950 . S
C567 C566 1.373 . S
C567 C583 1.377 . S
C568 C566 1.389 . S
C568 C569 1.524 . S
C568 C582 1.377 . S
C569 C568 1.524 . S
C569 C570 1.397 . S
C569 C574 1.363 . S
C570 H547 0.950 . S
C570 C569 1.397 . S
C570 C571 1.334 . S
C571 H548 0.950 . S
C571 C570 1.334 . S
C571 C572 1.287 . S
C572 C571 1.287 . S
C572 C573 1.524 . S
C572 H591 0.913 . S
C573 H549 0.950 . S
C573 C572 1.524 . S
C573 C574 1.415 . S
C574 H550 0.950 . S
C574 C569 1.363 . S
C574 C573 1.415 . S
C575 H551 0.951 . S
C575 C576 1.366 . S
C575 C577 1.388 . S
C576 C575 1.366 . S
C576 C580 1.385 . S
C577 H552 0.951 . S
C577 C575 1.388 . S
C577 C578 1.366 . S
C578 C577 1.366 . S
C578 C579 1.414 . S
C578 C581 1.499 . S
C579 H553 0.950 . S
C579 C578 1.414 . S
C579 C580 1.374 . S
C580 H554 0.950 . S
C580 C576 1.385 . S
C580 C579 1.374 . S
C581 C578 1.499 . S
C581 C582 1.373 . S
C581 C583 1.389 . S
C582 H555 0.950 . S
C582 C568 1.377 . S
C582 C581 1.373 . S
C583 C567 1.377 . S
C583 C581 1.389 . S
C583 C584 1.524 . S
C584 C583 1.524 . S
C584 C585 1.397 . S
C584 C589 1.363 . S
C585 H556 0.950 . S
C585 C584 1.397 . S
C585 C586 1.334 . S
C586 H557 0.950 . S
C586 C585 1.334 . S
C586 C587 1.287 . S
C587 C586 1.287 . S
C587 C588 1.524 . S
C587 H590 0.999 . S
C588 H558 0.950 . S
C588 C587 1.524 . S
C588 C589 1.415 . S
C589 H559 0.950 . S
C589 C584 1.363 . S
C589 C588 1.415 . S
H590 C587 0.999 . S
H591 C572 0.913 . S
H592 C610 0.951 . S
H593 C612 0.951 . S
H594 C614 0.950 . S
H595 C615 0.950 . S
H596 C617 0.950 . S
H597 C620 0.950 . S
H598 C621 0.950 . S
H599 C623 0.950 . S
H600 C624 0.950 . S
H601 C625 0.951 . S
H602 C627 0.951 . S
H603 C629 0.950 . S
H604 C630 0.950 . S
H605 C632 0.950 . S
H606 C635 0.950 . S
H607 C636 0.950 . S
H608 C638 0.950 . S
H609 C639 0.950 . S
C610 H592 0.951 . S
C610 C611 1.366 . S
C610 C612 1.388 . S
C611 C610 1.366 . S
C611 C615 1.385 . S
C612 H593 0.951 . S
C612 C610 1.388 . S
C612 C613 1.366 . S
C613 C612 1.366 . S
C613 C614 1.414 . S
C613 C616 1.499 . S
C614 H594 0.950 . S
C614 C613 1.414 . S
C614 C615 1.374 . S
C615 H595 0.950 . S
C615 C611 1.385 . S
C615 C614 1.374 . S
C616 C613 1.499 . S
C616 C617 1.373 . S
C616 C618 1.389 . S
C617 H596 0.950 . S
C617 C616 1.373 . S
C617 C633 1.377 . S
C618 C616 1.389 . S
C618 C619 1.524 . S
C618 C632 1.377 . S
C619 C618 1.524 . S
C619 C620 1.397 . S
C619 C624 1.363 . S
C620 H597 0.950 . S
C620 C619 1.397 . S
C620 C621 1.334 . S
C621 H598 0.950 . S
C621 C620 1.334 . S
C621 C622 1.287 . S
C622 C621 1.287 . S
C622 C623 1.524 . S
C622 H641 0.913 . S
C623 H599 0.950 . S
C623 C622 1.524 . S
C623 C624 1.415 . S
C624 H600 0.950 . S
C624 C619 1.363 . S
C624 C623 1.415 . S
C625 H601 0.951 . S
C625 C626 1.366 . S
C625 C627 1.388 . S
C626 C625 1.366 . S
C626 C630 1.385 . S
C627 H602 0.951 . S
C627 C625 1.388 . S
C627 C628 1.366 . S
C628 C627 1.366 . S
C628 C629 1.414 . S
C628 C631 1.499 . S
C629 H603 0.950 . S
C629 C628 1.414 . S
C629 C630 1.374 . S
C630 H604 0.950 . S
C630 C626 1.385 . S
C630 C629 1.374 . S
C631 C628 1.499 . S
C631 C632 1.373 . S
C631 C633 1.389 . S
C632 H605 0.950 . S
C632 C618 1.377 . S
C632 C631 1.373 . S
C633 C617 1.377 . S
C633 C631 1.389 . S
C633 C634 1.524 . S
C634 C633 1.524 . S
C634 C635 1.397 . S
C634 C639 1.363 . S
C635 H606 0.950 . S
C635 C634 1.397 . S
C635 C636 1.334 . S
C636 H607 0.950 . S
C636 C635 1.334 . S
C636 C637 1.287 . S
C637 C636 1.287 . S
C637 C638 1.524 . S
C637 H640 0.999 . S
C638 H608 0.950 . S
C638 C637 1.524 . S
C638 C639 1.415 . S
C639 H609 0.950 . S
C639 C634 1.363 . S
C639 C638 1.415 . S
H640 C637 0.999 . S
H641 C622 0.913 . S
H642 C660 0.951 . S
H643 C662 0.951 . S
H644 C664 0.950 . S
H645 C665 0.950 . S
H646 C667 0.950 . S
H647 C670 0.950 . S
H648 C671 0.950 . S
H649 C673 0.950 . S
H650 C674 0.950 . S
H651 C675 0.951 . S
H652 C677 0.951 . S
H653 C679 0.950 . S
H654 C680 0.950 . S
H655 C682 0.950 . S
H656 C685 0.950 . S
H657 C686 0.950 . S
H658 C688 0.950 . S
H659 C689 0.950 . S
C660 H642 0.951 . S
C660 C661 1.366 . S
C660 C662 1.388 . S
C661 C660 1.366 . S
C661 C665 1.385 . S
C662 H643 0.951 . S
C662 C660 1.388 . S
C662 C663 1.366 . S
C663 C662 1.366 . S
C663 C664 1.414 . S
C663 C666 1.499 . S
C664 H644 0.950 . S
C664 C663 1.414 . S
C664 C665 1.374 . S
C665 H645 0.950 . S
C665 C661 1.385 . S
C665 C664 1.374 . S
C666 C663 1.499 . S
C666 C667 1.373 . S
C666 C668 1.389 . S
C667 H646 0.950 . S
C667 C666 1.373 . S
C667 C683 1.377 . S
C668 C666 1.389 . S
C668 C669 1.524 . S
C668 C682 1.377 . S
C669 C668 1.524 . S
C669 C670 1.397 . S
C669 C674 1.363 . S
C670 H647 0.950 . S
C670 C669 1.397 . S
C670 C671 1.334 . S
C671 H648 0.950 . S
C671 C670 1.334 . S
C671 C672 1.287 . S
C672 C671 1.287 . S
C672 C673 1.524 . S
C672 H691 0.913 . S
C673 H649 0.950 . S
C673 C672 1.524 . S
C673 C674 1.415 . S
C674 H650 0.950 . S
C674 C669 1.363 . S
C674 C673 1.415 . S
C675 H651 0.951 . S
C675 C676 1.366 . S
C675 C677 1.388 . S
C676 C675 1.366 . S
C676 C680 1.385 . S
C677 H652 0.951 . S
C677 C675 1.388 . S
C677 C678 1.366 . S
C678 C677 1.366 . S
C678 C679 1.414 . S
C678 C681 1.499 . S
C679 H653 0.950 . S
C679 C678 1.414 . S
C679 C680 1.374 . S
C680 H654 0.950 . S
C680 C676 1.385 . S
C680 C679 1.374 . S
C681 C678 1.499 . S
C681 C682 1.373 . S
C681 C683 1.389 . S
C682 H655 0.950 . S
C682 C668 1.377 . S
C682 C681 1.373 . S
C683 C667 1.377 . S
C683 C681 1.389 . S
C683 C684 1.524 . S
C684 C683 1.524 . S
C684 C685 1.397 . S
C684 C689 1.363 . S
C685 H656 0.950 . S
C685 C684 1.397 . S
C685 C686 1.334 . S
C686 H657 0.950 . S
C686 C685 1.334 . S
C686 C687 1.287 . S
C687 C686 1.287 . S
C687 C688 1.524 . S
C687 H690 0.999 . S
C688 H658 0.950 . S
C688 C687 1.524 . S
C688 C689 1.415 . S
C689 H659 0.950 . S
C689 C684 1.363 . S
C689 C688 1.415 . S
H690 C687 0.999 . S
H691 C672 0.913 . S
H692 C710 0.951 . S
H693 C712 0.951 . S
H694 C714 0.950 . S
H695 C715 0.950 . S
H696 C717 0.950 . S
H697 C720 0.950 . S
H698 C721 0.950 . S
H699 C723 0.950 . S
H700 C724 0.950 . S
H701 C725 0.951 . S
H702 C727 0.951 . S
H703 C729 0.950 . S
H704 C730 0.950 . S
H705 C732 0.950 . S
H706 C735 0.950 . S
H707 C736 0.950 . S
H708 C738 0.950 . S
H709 C739 0.950 . S
C710 H692 0.951 . S
C710 C711 1.366 . S
C710 C712 1.388 . S
C711 C710 1.366 . S
C711 C715 1.385 . S
C712 H693 0.951 . S
C712 C710 1.388 . S
C712 C713 1.366 . S
C713 C712 1.366 . S
C713 C714 1.414 . S
C713 C716 1.499 . S
C714 H694 0.950 . S
C714 C713 1.414 . S
C714 C715 1.374 . S
C715 H695 0.950 . S
C715 C711 1.385 . S
C715 C714 1.374 . S
C716 C713 1.499 . S
C716 C717 1.373 . S
C716 C718 1.389 . S
C717 H696 0.950 . S
C717 C716 1.373 . S
C717 C733 1.377 . S
C718 C716 1.389 . S
C718 C719 1.524 . S
C718 C732 1.377 . S
C719 C718 1.524 . S
C719 C720 1.397 . S
C719 C724 1.363 . S
C720 H697 0.950 . S
C720 C719 1.397 . S
C720 C721 1.334 . S
C721 H698 0.950 . S
C721 C720 1.334 . S
C721 C722 1.287 . S
C722 C721 1.287 . S
C722 C723 1.524 . S
C722 H741 0.913 . S
C723 H699 0.950 . S
C723 C722 1.524 . S
C723 C724 1.415 . S
C724 H700 0.950 . S
C724 C719 1.363 . S
C724 C723 1.415 . S
C725 H701 0.951 . S
C725 C726 1.366 . S
C725 C727 1.388 . S
C726 C725 1.366 . S
C726 C730 1.385 . S
C727 H702 0.951 . S
C727 C725 1.388 . S
C727 C728 1.366 . S
C728 C727 1.366 . S
C728 C729 1.414 . S
C728 C731 1.499 . S
C729 H703 0.950 . S
C729 C728 1.414 . S
C729 C730 1.374 . S
C730 H704 0.950 . S
C730 C726 1.385 . S
C730 C729 1.374 . S
C731 C728 1.499 . S
C731 C732 1.373 . S
C731 C733 1.389 . S
C732 H705 0.950 . S
C732 C718 1.377 . S
C732 C731 1.373 . S
C733 C717 1.377 . S
C733 C731 1.389 . S
C733 C734 1.524 . S
C734 C733 1.524 . S
C734 C735 1.397 . S
C734 C739 1.363 . S
C735 H706 0.950 . S
C735 C734 1.397 . S
C735 C736 1.334 . S
C736 H707 0.950 . S
C736 C735 1.334 . S
C736 C737 1.287 . S
C737 C736 1.287 . S
C737 C738 1.524 . S
C737 H740 0.999 . S
C738 H708 0.950 . S
C738 C737 1.524 . S
C738 C739 1.415 . S
C739 H709 0.950 . S
C739 C734 1.363 . S
C739 C738 1.415 . S
H740 C737 0.999 . S
H741 C722 0.913 . S
H742 C760 0.951 . S
H743 C762 0.951 . S
H744 C764 0.950 . S
H745 C765 0.950 . S
H746 C767 0.950 . S
H747 C770 0.950 . S
H748 C771 0.950 . S
H749 C773 0.950 . S
H750 C774 0.950 . S
H751 C775 0.951 . S
H752 C777 0.951 . S
H753 C779 0.950 . S
H754 C780 0.950 . S
H755 C782 0.950 . S
H756 C785 0.950 . S
H757 C786 0.950 . S
H758 C788 0.950 . S
H759 C789 0.950 . S
C760 H742 0.951 . S
C760 C761 1.366 . S
C760 C762 1.388 . S
C761 C760 1.366 . S
C761 C765 1.385 . S
C762 H743 0.951 . S
C762 C760 1.388 . S
C762 C763 1.366 . S
C763 C762 1.366 . S
C763 C764 1.414 . S
C763 C766 1.499 . S
C764 H744 0.950 . S
C764 C763 1.414 . S
C764 C765 1.374 . S
C765 H745 0.950 . S
C765 C761 1.385 . S
C765 C764 1.374 . S
C766 C763 1.499 . S
C766 C767 1.373 . S
C766 C768 1.389 . S
C767 H746 0.950 . S
C767 C766 1.373 . S
C767 C783 1.377 . S
C768 C766 1.389 . S
C768 C769 1.524 . S
C768 C782 1.377 . S
C769 C768 1.524 . S
C769 C770 1.397 . S
C769 C774 1.363 . S
C770 H747 0.950 . S
C770 C769 1.397 . S
C770 C771 1.334 . S
C771 H748 0.950 . S
C771 C770 1.334 . S
C771 C772 1.287 . S
C772 C771 1.287 . S
C772 C773 1.524 . S
C772 H791 0.913 . S
C773 H749 0.950 . S
C773 C772 1.524 . S
C773 C774 1.415 . S
C774 H750 0.950 . S
C774 C769 1.363 . S
C774 C773 1.415 . S
C775 H751 0.951 . S
C775 C776 1.366 . S
C775 C777 1.388 . S
C776 C775 1.366 . S
C776 C780 1.385 . S
C777 H752 0.951 . S
C777 C775 1.388 . S
C777 C778 1.366 . S
C778 C777 1.366 . S
C778 C779 1.414 . S
C778 C781 1.499 . S
C779 H753 0.950 . S
C779 C778 1.414 . S
C779 C780 1.374 . S
C780 H754 0.950 . S
C780 C776 1.385 . S
C780 C779 1.374 . S
C781 C778 1.499 . S
C781 C782 1.373 . S
C781 C783 1.389 . S
C782 H755 0.950 . S
C782 C768 1.377 . S
C782 C781 1.373 . S
C783 C767 1.377 . S
C783 C781 1.389 . S
C783 C784 1.524 . S
C784 C783 1.524 . S
C784 C785 1.397 . S
C784 C789 1.363 . S
C785 H756 0.950 . S
C785 C784 1.397 . S
C785 C786 1.334 . S
C786 H757 0.950 . S
C786 C785 1.334 . S
C786 C787 1.287 . S
C787 C786 1.287 . S
C787 C788 1.524 . S
C787 H790 0.999 . S
C788 H758 0.950 . S
C788 C787 1.524 . S
C788 C789 1.415 . S
C789 H759 0.950 . S
C789 C784 1.363 . S
C789 C788 1.415 . S
H790 C787 0.999 . S
H791 C772 0.913 . S
H792 C810 0.951 . S
H793 C812 0.951 . S
H794 C814 0.950 . S
H795 C815 0.950 . S
H796 C817 0.950 . S
H797 C820 0.950 . S
H798 C821 0.950 . S
H799 C823 0.950 . S
H800 C824 0.950 . S
H801 C825 0.951 . S
H802 C827 0.951 . S
H803 C829 0.950 . S
H804 C830 0.950 . S
H805 C832 0.950 . S
H806 C835 0.950 . S
H807 C836 0.950 . S
H808 C838 0.950 . S
H809 C839 0.950 . S
C810 H792 0.951 . S
C810 C811 1.366 . S
C810 C812 1.388 . S
C811 C810 1.366 . S
C811 C815 1.385 . S
C812 H793 0.951 . S
C812 C810 1.388 . S
C812 C813 1.366 . S
C813 C812 1.366 . S
C813 C814 1.414 . S
C813 C816 1.499 . S
C814 H794 0.950 . S
C814 C813 1.414 . S
C814 C815 1.374 . S
C815 H795 0.950 . S
C815 C811 1.385 . S
C815 C814 1.374 . S
C816 C813 1.499 . S
C816 C817 1.373 . S
C816 C818 1.389 . S
C817 H796 0.950 . S
C817 C816 1.373 . S
C817 C833 1.377 . S
C818 C816 1.389 . S
C818 C819 1.524 . S
C818 C832 1.377 . S
C819 C818 1.524 . S
C819 C820 1.397 . S
C819 C824 1.363 . S
C820 H797 0.950 . S
C820 C819 1.397 . S
C820 C821 1.334 . S
C821 H798 0.950 . S
C821 C820 1.334 . S
C821 C822 1.287 . S
C822 C821 1.287 . S
C822 C823 1.524 . S
C822 H841 0.913 . S
C823 H799 0.950 . S
C823 C822 1.524 . S
C823 C824 1.415 . S
C824 H800 0.950 . S
C824 C819 1.363 . S
C824 C823 1.415 . S
C825 H801 0.951 . S
C825 C826 1.366 . S
C825 C827 1.388 . S
C826 C825 1.366 . S
C826 C830 1.385 . S
C827 H802 0.951 . S
C827 C825 1.388 . S
C827 C828 1.366 . S
C828 C827 1.366 . S
C828 C829 1.414 . S
C828 C831 1.499 . S
C829 H803 0.950 . S
C829 C828 1.414 . S
C829 C830 1.374 . S
C830 H804 0.950 . S
C830 C826 1.385 . S
C830 C829 1.374 . S
C831 C828 1.499 . S
C831 C832 1.373 . S
C831 C833 1.389 . S
C832 H805 0.950 . S
C832 C818 1.377 . S
C832 C831 1.373 . S
C833 C817 1.377 . S
C833 C831 1.389 . S
C833 C834 1.524 . S
C834 C833 1.524 . S
C834 C835 1.397 . S
C834 C839 1.363 . S
C835 H806 0.950 . S
C835 C834 1.397 . S
C835 C836 1.334 . S
C836 H807 0.950 . S
C836 C835 1.334 . S
C836 C837 1.287 . S
C837 C836 1.287 . S
C837 C838 1.524 . S
C837 H840 0.999 . S
C838 H808 0.950 . S
C838 C837 1.524 . S
C838 C839 1.415 . S
C839 H809 0.950 . S
C839 C834 1.363 . S
C839 C838 1.415 . S
H840 C837 0.999 . S
H841 C822 0.913 . S
H842 C860 0.951 . S
H843 C862 0.951 . S
H844 C864 0.950 . S
H845 C865 0.950 . S
H846 C867 0.950 . S
H847 C870 0.950 . S
H848 C871 0.950 . S
H849 C873 0.950 . S
H850 C874 0.950 . S
H851 C875 0.951 . S
H852 C877 0.951 . S
H853 C879 0.950 . S
H854 C880 0.950 . S
H855 C882 0.950 . S
H856 C885 0.950 . S
H857 C886 0.950 . S
H858 C888 0.950 . S
H859 C889 0.950 . S
C860 H842 0.951 . S
C860 C861 1.366 . S
C860 C862 1.388 . S
C861 C860 1.366 . S
C861 C865 1.385 . S
C862 H843 0.951 . S
C862 C860 1.388 . S
C862 C863 1.366 . S
C863 C862 1.366 . S
C863 C864 1.414 . S
C863 C866 1.499 . S
C864 H844 0.950 . S
C864 C863 1.414 . S
C864 C865 1.374 . S
C865 H845 0.950 . S
C865 C861 1.385 . S
C865 C864 1.374 . S
C866 C863 1.499 . S
C866 C867 1.373 . S
C866 C868 1.389 . S
C867 H846 0.950 . S
C867 C866 1.373 . S
C867 C883 1.377 . S
C868 C866 1.389 . S
C868 C869 1.524 . S
C868 C882 1.377 . S
C869 C868 1.524 . S
C869 C870 1.397 . S
C869 C874 1.363 . S
C870 H847 0.950 . S
C870 C869 1.397 . S
C870 C871 1.334 . S
C871 H848 0.950 . S
C871 C870 1.334 . S
C871 C872 1.287 . S
C872 C871 1.287 . S
C872 C873 1.524 . S
C872 H891 0.913 . S
C873 H849 0.950 . S
C873 C872 1.524 . S
C873 C874 1.415 . S
C874 H850 0.950 . S
C874 C869 1.363 . S
C874 C873 1.415 . S
C875 H851 0.951 . S
C875 C876 1.366 . S
C875 C877 1.388 . S
C876 C875 1.366 . S
C876 C880 1.385 . S
C877 H852 0.951 . S
C877 C875 1.388 . S
C877 C878 1.366 . S
C878 C877 1.366 . S
C878 C879 1.414 . S
C878 C881 1.499 . S
C879 H853 0.950 . S
C879 C878 1.414 . S
C879 C880 1.374 . S
C880 H854 0.950 . S
C880 C876 1.385 . S
C880 C879 1.374 . S
C881 C878 1.499 . S
C881 C882 1.373 . S
C881 C883 1.389 . S
C882 H855 0.950 . S
C882 C868 1.377 . S
C882 C881 1.373 . S
C883 C867 1.377 . S
C883 C881 1.389 . S
C883 C884 1.524 . S
C884 C883 1.524 . S
C884 C885 1.397 . S
C884 C889 1.363 . S
C885 H856 0.950 . S
C885 C884 1.397 . S
C885 C886 1.334 . S
C886 H857 0.950 . S
C886 C885 1.334 . S
C886 C887 1.287 . S
C887 C886 1.287 . S
C887 C888 1.524 . S
C887 H890 0.999 . S
C888 H858 0.950 . S
C888 C887 1.524 . S
C888 C889 1.415 . S
C889 H859 0.950 . S
C889 C884 1.363 . S
C889 C888 1.415 . S
H890 C887 0.999 . S
H891 C872 0.913 . S
H892 C910 0.951 . S
H893 C912 0.951 . S
H894 C914 0.950 . S
H895 C915 0.950 . S
H896 C917 0.950 . S
H897 C920 0.950 . S
H898 C921 0.950 . S
H899 C923 0.950 . S
H900 C924 0.950 . S
H901 C925 0.951 . S
H902 C927 0.951 . S
H903 C929 0.950 . S
H904 C930 0.950 . S
H905 C932 0.950 . S
H906 C935 0.950 . S
H907 C936 0.950 . S
H908 C938 0.950 . S
H909 C939 0.950 . S
C910 H892 0.951 . S
C910 C911 1.366 . S
C910 C912 1.388 . S
C911 C910 1.366 . S
C911 C915 1.385 . S
C912 H893 0.951 . S
C912 C910 1.388 . S
C912 C913 1.366 . S
C913 C912 1.366 . S
C913 C914 1.414 . S
C913 C916 1.499 . S
C914 H894 0.950 . S
C914 C913 1.414 . S
C914 C915 1.374 . S
C915 H895 0.950 . S
C915 C911 1.385 . S
C915 C914 1.374 . S
C916 C913 1.499 . S
C916 C917 1.373 . S
C916 C918 1.389 . S
C917 H896 0.950 . S
C917 C916 1.373 . S
C917 C933 1.377 . S
C918 C916 1.389 . S
C918 C919 1.524 . S
C918 C932 1.377 . S
C919 C918 1.524 . S
C919 C920 1.397 . S
C919 C924 1.363 . S
C920 H897 0.950 . S
C920 C919 1.397 . S
C920 C921 1.334 . S
C921 H898 0.950 . S
C921 C920 1.334 . S
C921 C922 1.287 . S
C922 C921 1.287 . S
C922 C923 1.524 . S
C922 H941 0.913 . S
C923 H899 0.950 . S
C923 C922 1.524 . S
C923 C924 1.415 . S
C924 H900 0.950 . S
C924 C919 1.363 . S
C924 C923 1.415 . S
C925 H901 0.951 . S
C925 C926 1.366 . S
C925 C927 1.388 . S
C926 C925 1.366 . S
C926 C930 1.385 . S
C927 H902 0.951 . S
C927 C925 1.388 . S
C927 C928 1.366 . S
C928 C927 1.366 . S
C928 C929 1.414 . S
C928 C931 1.499 . S
C929 H903 0.950 . S
C929 C928 1.414 . S
C929 C930 1.374 . S
C930 H904 0.950 . S
C930 C926 1.385 . S
C930 C929 1.374 . S
C931 C928 1.499 . S
C931 C932 1.373 . S
C931 C933 1.389 . S
C932 H905 0.950 . S
C932 C918 1.377 . S
C932 C931 1.373 . S
C933 C917 1.377 . S
C933 C931 1.389 . S
C933 C934 1.524 . S
C934 C933 1.524 . S
C934 C935 1.397 . S
C934 C939 1.363 . S
C935 H906 0.950 . S
C935 C934 1.397 . S
C935 C936 1.334 . S
C936 H907 0.950 . S
C936 C935 1.334 . S
C936 C937 1.287 . S
C937 C936 1.287 . S
C937 C938 1.524 . S
C937 H940 0.999 . S
C938 H908 0.950 . S
C938 C937 1.524 . S
C938 C939 1.415 . S
C939 H909 0.950 . S
C939 C934 1.363 . S
C939 C938 1.415 . S
H940 C937 0.999 . S
H941 C922 0.913 . S
H942 C960 0.951 . S
H943 C962 0.951 . S
H944 C964 0.950 . S
H945 C965 0.950 . S
H946 C967 0.950 . S
H947 C970 0.950 . S
H948 C971 0.950 . S
H949 C973 0.950 . S
H950 C974 0.950 . S
H951 C975 0.951 . S
H952 C977 0.951 . S
H953 C979 0.950 . S
H954 C980 0.950 . S
H955 C982 0.950 . S
H956 C985 0.950 . S
H957 C986 0.950 . S
H958 C988 0.950 . S
H959 C989 0.950 . S
C960 H942 0.951 . S
C960 C961 1.366 . S
C960 C962 1.388 . S
C961 C960 1.366 . S
C961 C965 1.385 . S
C962 H943 0.951 . S
C962 C960 1.388 . S
C962 C963 1.366 . S
C963 C962 1.366 . S
C963 C964 1.414 . S
C963 C966 1.499 . S
C964 H944 0.950 . S
C964 C963 1.414 . S
C964 C965 1.374 . S
C965 H945 0.950 . S
C965 C961 1.385 . S
C965 C964 1.374 . S
C966 C963 1.499 . S
C966 C967 1.373 . S
C966 C968 1.389 . S
C967 H946 0.950 . S
C967 C966 1.373 . S
C967 C983 1.377 . S
C968 C966 1.389 . S
C968 C969 1.524 . S
C968 C982 1.377 . S
C969 C968 1.524 . S
C969 C970 1.397 . S
C969 C974 1.363 . S
C970 H947 0.950 . S
C970 C969 1.397 . S
C970 C971 1.334 . S
C971 H948 0.950 . S
C971 C970 1.334 . S
C971 C972 1.287 . S
C972 C971 1.287 . S
C972 C973 1.524 . S
C972 H991 0.913 . S
C973 H949 0.950 . S
C973 C972 1.524 . S
C973 C974 1.415 . S
C974 H950 0.950 . S
C974 C969 1.363 . S
C974 C973 1.415 . S
C975 H951 0.951 . S
C975 C976 1.366 . S
C975 C977 1.388 . S
C976 C975 1.366 . S
C976 C980 1.385 . S
C977 H952 0.951 . S
C977 C975 1.388 . S
C977 C978 1.366 . S
C978 C977 1.366 . S
C978 C979 1.414 . S
C978 C981 1.499 . S
C979 H953 0.950 . S
C979 C978 1.414 . S
C979 C980 1.374 . S
C980 H954 0.950 . S
C980 C976 1.385 . S
C980 C979 1.374 . S
C981 C978 1.499 . S
C981 C982 1.373 . S
C981 C983 1.389 . S
C982 H955 0.950 . S
C982 C968 1.377 . S
C982 C981 1.373 . S
C983 C967 1.377 . S
C983 C981 1.389 . S
C983 C984 1.524 . S
C984 C983 1.524 . S
C984 C985 1.397 . S
C984 C989 1.363 . S
C985 H956 0.950 . S
C985 C984 1.397 . S
C985 C986 1.334 . S
C986 H957 0.950 . S
C986 C985 1.334 . S
C986 C987 1.287 . S
C987 C986 1.287 . S
C987 C988 1.524 . S
C987 H990 0.999 . S
C988 H958 0.950 . S
C988 C987 1.524 . S
C988 C989 1.415 . S
C989 H959 0.950 . S
C989 C984 1.363 . S
C989 C988 1.415 . S
H990 C987 0.999 . S
H991 C972 0.913 . S
H992 C1010 0.951 . S
H993 C1012 0.951 . S
H994 C1014 0.950 . S
H995 C1015 0.950 . S
H996 C1017 0.950 . S
H997 C1020 0.950 . S
H998 C1021 0.950 . S
H999 C1023 0.950 . S
H1000 C1024 0.950 . S
H1001 C1025 0.951 . S
H1002 C1027 0.951 . S
H1003 C1029 0.950 . S
H1004 C1030 0.950 . S
H1005 C1032 0.950 . S
H1006 C1035 0.950 . S
H1007 C1036 0.950 . S
H1008 C1038 0.950 . S
H1009 C1039 0.950 . S
C1010 H992 0.951 . S
C1010 C1011 1.351 1_556 S
C1010 C1012 1.388 . S
C1011 C1010 1.351 1_554 S
C1011 C1015 1.399 . S
C1012 H993 0.951 . S
C1012 C1010 1.388 . S
C1012 C1013 1.364 . S
C1013 C1012 1.364 . S
C1013 C1014 1.415 1_556 S
C1013 C1016 1.499 1_556 S
C1014 H994 0.950 . S
C1014 C1013 1.415 1_554 S
C1014 C1015 1.374 . S
C1015 H995 0.950 . S
C1015 C1011 1.399 . S
C1015 C1014 1.374 . S
C1016 C1013 1.499 1_554 S
C1016 C1017 1.373 . S
C1016 C1018 1.389 1_554 S
C1017 H996 0.950 . S
C1017 C1016 1.373 . S
C1017 C1033 1.377 . S
C1018 C1016 1.389 1_556 S
C1018 C1019 1.524 . S
C1018 C1032 1.377 . S
C1019 C1018 1.524 . S
C1019 C1020 1.397 . S
C1019 C1024 1.363 . S
C1020 H997 0.950 . S
C1020 C1019 1.397 . S
C1020 C1021 1.334 . S
C1021 H998 0.950 . S
C1021 C1020 1.334 . S
C1021 C1022 1.287 . S
C1022 C1021 1.287 . S
C1022 C1023 1.524 . S
C1022 H1041 0.913 . S
C1023 H999 0.950 . S
C1023 C1022 1.524 . S
C1023 C1024 1.415 . S
C1024 H1000 0.950 . S
C1024 C1019 1.363 . S
C1024 C1023 1.415 . S
C1025 H1001 0.951 . S
C1025 C1026 1.368 . S
C1025 C1027 1.388 . S
C1026 C1025 1.368 . S
C1026 C1030 1.382 1_554 S
C1027 H1002 0.951 . S
C1027 C1025 1.388 . S
C1027 C1028 1.366 . S
C1028 C1027 1.366 . S
C1028 C1029 1.414 1_554 S
C1028 C1031 1.498 1_554 S
C1029 H1003 0.950 . S
C1029 C1028 1.414 1_556 S
C1029 C1030 1.374 . S
C1030 H1004 0.950 . S
C1030 C1026 1.382 1_556 S
C1030 C1029 1.374 . S
C1031 C1028 1.498 1_556 S
C1031 C1032 1.378 . S
C1031 C1033 1.385 1_556 S
C1032 H1005 0.950 . S
C1032 C1018 1.377 . S
C1032 C1031 1.378 . S
C1033 C1017 1.377 . S
C1033 C1031 1.385 1_554 S
C1033 C1034 1.524 . S
C1034 C1033 1.524 . S
C1034 C1035 1.397 . S
C1034 C1039 1.363 . S
C1035 H1006 0.950 . S
C1035 C1034 1.397 . S
C1035 C1036 1.334 . S
C1036 H1007 0.950 . S
C1036 C1035 1.334 . S
C1036 C1037 1.287 . S
C1037 C1036 1.287 . S
C1037 C1038 1.524 . S
C1037 H1040 0.999 . S
C1038 H1008 0.950 . S
C1038 C1037 1.524 . S
C1038 C1039 1.415 . S
C1039 H1009 0.950 . S
C1039 C1034 1.363 . S
C1039 C1038 1.415 . S
H1040 C1037 0.999 . S
H1041 C1022 0.913 . S
H1042 C1060 0.951 . S
H1043 C1062 0.951 . S
H1044 C1064 0.950 . S
H1045 C1065 0.950 . S
H1046 C1067 0.950 . S
H1047 C1070 0.950 . S
H1048 C1071 0.950 . S
H1049 C1073 0.950 . S
H1050 C1074 0.950 . S
H1051 C1075 0.951 . S
H1052 C1077 0.951 . S
H1053 C1079 0.950 . S
H1054 C1080 0.950 . S
H1055 C1082 0.950 . S
H1056 C1085 0.950 . S
H1057 C1086 0.950 . S
H1058 C1088 0.950 . S
H1059 C1089 0.950 . S
C1060 H1042 0.951 . S
C1060 C1061 1.366 . S
C1060 C1062 1.388 . S
C1061 C1060 1.366 . S
C1061 C1065 1.385 . S
C1062 H1043 0.951 . S
C1062 C1060 1.388 . S
C1062 C1063 1.366 . S
C1063 C1062 1.366 . S
C1063 C1064 1.414 . S
C1063 C1066 1.499 . S
C1064 H1044 0.950 . S
C1064 C1063 1.414 . S
C1064 C1065 1.374 . S
C1065 H1045 0.950 . S
C1065 C1061 1.385 . S
C1065 C1064 1.374 . S
C1066 C1063 1.499 . S
C1066 C1067 1.373 . S
C1066 C1068 1.389 . S
C1067 H1046 0.950 . S
C1067 C1066 1.373 . S
C1067 C1083 1.377 . S
C1068 C1066 1.389 . S
C1068 C1069 1.524 . S
C1068 C1082 1.377 . S
C1069 C1068 1.524 . S
C1069 C1070 1.397 . S
C1069 C1074 1.363 . S
C1070 H1047 0.950 . S
C1070 C1069 1.397 . S
C1070 C1071 1.334 . S
C1071 H1048 0.950 . S
C1071 C1070 1.334 . S
C1071 C1072 1.287 . S
C1072 C1071 1.287 . S
C1072 C1073 1.524 . S
C1072 H1091 0.913 . S
C1073 H1049 0.950 . S
C1073 C1072 1.524 . S
C1073 C1074 1.415 . S
C1074 H1050 0.950 . S
C1074 C1069 1.363 . S
C1074 C1073 1.415 . S
C1075 H1051 0.951 . S
C1075 C1076 1.366 . S
C1075 C1077 1.388 . S
C1076 C1075 1.366 . S
C1076 C1080 1.385 . S
C1077 H1052 0.951 . S
C1077 C1075 1.388 . S
C1077 C1078 1.366 . S
C1078 C1077 1.366 . S
C1078 C1079 1.414 . S
C1078 C1081 1.499 . S
C1079 H1053 0.950 . S
C1079 C1078 1.414 . S
C1079 C1080 1.374 . S
C1080 H1054 0.950 . S
C1080 C1076 1.385 . S
C1080 C1079 1.374 . S
C1081 C1078 1.499 . S
C1081 C1082 1.373 . S
C1081 C1083 1.389 . S
C1082 H1055 0.950 . S
C1082 C1068 1.377 . S
C1082 C1081 1.373 . S
C1083 C1067 1.377 . S
C1083 C1081 1.389 . S
C1083 C1084 1.524 . S
C1084 C1083 1.524 . S
C1084 C1085 1.397 . S
C1084 C1089 1.363 . S
C1085 H1056 0.950 . S
C1085 C1084 1.397 . S
C1085 C1086 1.334 . S
C1086 H1057 0.950 . S
C1086 C1085 1.334 . S
C1086 C1087 1.287 . S
C1087 C1086 1.287 . S
C1087 C1088 1.524 . S
C1087 H1090 0.999 . S
C1088 H1058 0.950 . S
C1088 C1087 1.524 . S
C1088 C1089 1.415 . S
C1089 H1059 0.950 . S
C1089 C1084 1.363 . S
C1089 C1088 1.415 . S
H1090 C1087 0.999 . S
H1091 C1072 0.913 . S
H1092 C1110 0.951 . S
H1093 C1112 0.951 . S
H1094 C1114 0.950 . S
H1095 C1115 0.950 . S
H1096 C1117 0.950 . S
H1097 C1120 0.950 . S
H1098 C1121 0.950 . S
H1099 C1123 0.950 . S
H1100 C1124 0.950 . S
H1101 C1125 0.951 . S
H1102 C1127 0.951 . S
H1103 C1129 0.950 . S
H1104 C1130 0.950 . S
H1105 C1132 0.950 . S
H1106 C1135 0.950 . S
H1107 C1136 0.950 . S
H1108 C1138 0.950 . S
H1109 C1139 0.950 . S
C1110 H1092 0.951 . S
C1110 C1111 1.380 . S
C1110 C1112 1.388 . S
C1111 C1110 1.380 . S
C1111 C1115 1.370 1_554 S
C1112 H1093 0.951 . S
C1112 C1110 1.388 . S
C1112 C1113 1.366 . S
C1113 C1112 1.366 . S
C1113 C1114 1.414 1_554 S
C1113 C1116 1.499 . S
C1114 H1094 0.950 . S
C1114 C1113 1.414 1_556 S
C1114 C1115 1.374 . S
C1115 H1095 0.950 . S
C1115 C1111 1.370 1_556 S
C1115 C1114 1.374 . S
C1116 C1113 1.499 . S
C1116 C1117 1.359 1_554 S
C1116 C1118 1.403 . S
C1117 H1096 0.950 . S
C1117 C1116 1.359 1_556 S
C1117 C1133 1.377 . S
C1118 C1116 1.403 . S
C1118 C1119 1.524 . S
C1118 C1132 1.377 . S
C1119 C1118 1.524 . S
C1119 C1120 1.397 . S
C1119 C1124 1.363 . S
C1120 H1097 0.950 . S
C1120 C1119 1.397 . S
C1120 C1121 1.334 . S
C1121 H1098 0.950 . S
C1121 C1120 1.334 . S
C1121 C1122 1.287 . S
C1122 C1121 1.287 . S
C1122 C1123 1.524 . S
C1122 H1141 0.913 . S
C1123 H1099 0.950 . S
C1123 C1122 1.524 . S
C1123 C1124 1.415 . S
C1124 H1100 0.950 . S
C1124 C1119 1.363 . S
C1124 C1123 1.415 . S
C1125 H1101 0.951 . S
C1125 C1126 1.356 1_556 S
C1125 C1127 1.388 . S
C1126 C1125 1.356 1_554 S
C1126 C1130 1.394 . S
C1127 H1102 0.951 . S
C1127 C1125 1.388 . S
C1127 C1128 1.376 . S
C1128 C1127 1.376 . S
C1128 C1129 1.404 1_556 S
C1128 C1131 1.498 1_556 S
C1129 H1103 0.950 . S
C1129 C1128 1.404 1_554 S
C1129 C1130 1.374 . S
C1130 H1104 0.950 . S
C1130 C1126 1.394 . S
C1130 C1129 1.374 . S
C1131 C1128 1.498 1_554 S
C1131 C1132 1.386 . S
C1131 C1133 1.377 1_554 S
C1132 H1105 0.950 . S
C1132 C1118 1.377 . S
C1132 C1131 1.386 . S
C1133 C1117 1.377 . S
C1133 C1131 1.377 1_556 S
C1133 C1134 1.524 . S
C1134 C1133 1.524 . S
C1134 C1135 1.397 . S
C1134 C1139 1.363 . S
C1135 H1106 0.950 . S
C1135 C1134 1.397 . S
C1135 C1136 1.334 . S
C1136 H1107 0.950 . S
C1136 C1135 1.334 . S
C1136 C1137 1.287 . S
C1137 C1136 1.287 . S
C1137 C1138 1.524 . S
C1137 H1140 0.999 . S
C1138 H1108 0.950 . S
C1138 C1137 1.524 . S
C1138 C1139 1.415 . S
C1139 H1109 0.950 . S
C1139 C1134 1.363 . S
C1139 C1138 1.415 . S
H1140 C1137 0.999 . S
H1141 C1122 0.913 . S
H1142 C1160 0.951 . S
H1143 C1162 0.951 . S
H1144 C1164 0.950 . S
H1145 C1165 0.950 . S
H1146 C1167 0.950 . S
H1147 C1170 0.950 . S
H1148 C1171 0.950 . S
H1149 C1173 0.950 . S
H1150 C1174 0.950 . S
H1151 C1175 0.951 . S
H1152 C1177 0.951 . S
H1153 C1179 0.950 . S
H1154 C1180 0.950 . S
H1155 C1182 0.950 . S
H1156 C1185 0.950 . S
H1157 C1186 0.950 . S
H1158 C1188 0.950 . S
H1159 C1189 0.950 . S
C1160 H1142 0.951 . S
C1160 C1161 1.366 . S
C1160 C1162 1.388 . S
C1161 C1160 1.366 . S
C1161 C1165 1.385 . S
C1162 H1143 0.951 . S
C1162 C1160 1.388 . S
C1162 C1163 1.366 . S
C1163 C1162 1.366 . S
C1163 C1164 1.414 . S
C1163 C1166 1.499 . S
C1164 H1144 0.950 . S
C1164 C1163 1.414 . S
C1164 C1165 1.374 . S
C1165 H1145 0.950 . S
C1165 C1161 1.385 . S
C1165 C1164 1.374 . S
C1166 C1163 1.499 . S
C1166 C1167 1.373 . S
C1166 C1168 1.389 . S
C1167 H1146 0.950 . S
C1167 C1166 1.373 . S
C1167 C1183 1.377 . S
C1168 C1166 1.389 . S
C1168 C1169 1.524 . S
C1168 C1182 1.377 . S
C1169 C1168 1.524 . S
C1169 C1170 1.397 . S
C1169 C1174 1.363 . S
C1170 H1147 0.950 . S
C1170 C1169 1.397 . S
C1170 C1171 1.334 . S
C1171 H1148 0.950 . S
C1171 C1170 1.334 . S
C1171 C1172 1.287 . S
C1172 C1171 1.287 . S
C1172 C1173 1.524 . S
C1172 H1191 0.913 . S
C1173 H1149 0.950 . S
C1173 C1172 1.524 . S
C1173 C1174 1.415 . S
C1174 H1150 0.950 . S
C1174 C1169 1.363 . S
C1174 C1173 1.415 . S
C1175 H1151 0.951 . S
C1175 C1176 1.366 . S
C1175 C1177 1.388 . S
C1176 C1175 1.366 . S
C1176 C1180 1.385 . S
C1177 H1152 0.951 . S
C1177 C1175 1.388 . S
C1177 C1178 1.366 . S
C1178 C1177 1.366 . S
C1178 C1179 1.414 . S
C1178 C1181 1.499 . S
C1179 H1153 0.950 . S
C1179 C1178 1.414 . S
C1179 C1180 1.374 . S
C1180 H1154 0.950 . S
C1180 C1176 1.385 . S
C1180 C1179 1.374 . S
C1181 C1178 1.499 . S
C1181 C1182 1.373 . S
C1181 C1183 1.389 . S
C1182 H1155 0.950 . S
C1182 C1168 1.377 . S
C1182 C1181 1.373 . S
C1183 C1167 1.377 . S
C1183 C1181 1.389 . S
C1183 C1184 1.524 . S
C1184 C1183 1.524 . S
C1184 C1185 1.397 . S
C1184 C1189 1.363 . S
C1185 H1156 0.950 . S
C1185 C1184 1.397 . S
C1185 C1186 1.334 . S
C1186 H1157 0.950 . S
C1186 C1185 1.334 . S
C1186 C1187 1.287 . S
C1187 C1186 1.287 . S
C1187 C1188 1.524 . S
C1187 H1190 0.999 . S
C1188 H1158 0.950 . S
C1188 C1187 1.524 . S
C1188 C1189 1.415 . S
C1189 H1159 0.950 . S
C1189 C1184 1.363 . S
C1189 C1188 1.415 . S
H1190 C1187 0.999 . S
H1191 C1172 0.913 . S
H1192 C1210 0.951 . S
H1193 C1212 0.951 . S
H1194 C1214 0.950 . S
H1195 C1215 0.950 . S
H1196 C1217 0.950 . S
H1197 C1220 0.950 . S
H1198 C1221 0.950 . S
H1199 C1223 0.950 . S
H1200 C1224 0.950 . S
H1201 C1225 0.951 . S
H1202 C1227 0.951 . S
H1203 C1229 0.950 . S
H1204 C1230 0.950 . S
H1205 C1232 0.950 . S
H1206 C1235 0.950 . S
H1207 C1236 0.950 . S
H1208 C1238 0.950 . S
H1209 C1239 0.950 . S
C1210 H1192 0.951 . S
C1210 C1211 1.366 . S
C1210 C1212 1.388 . S
C1211 C1210 1.366 . S
C1211 C1215 1.385 . S
C1212 H1193 0.951 . S
C1212 C1210 1.388 . S
C1212 C1213 1.366 . S
C1213 C1212 1.366 . S
C1213 C1214 1.414 . S
C1213 C1216 1.499 . S
C1214 H1194 0.950 . S
C1214 C1213 1.414 . S
C1214 C1215 1.374 . S
C1215 H1195 0.950 . S
C1215 C1211 1.385 . S
C1215 C1214 1.374 . S
C1216 C1213 1.499 . S
C1216 C1217 1.373 . S
C1216 C1218 1.389 . S
C1217 H1196 0.950 . S
C1217 C1216 1.373 . S
C1217 C1233 1.377 . S
C1218 C1216 1.389 . S
C1218 C1219 1.524 . S
C1218 C1232 1.377 . S
C1219 C1218 1.524 . S
C1219 C1220 1.397 . S
C1219 C1224 1.363 . S
C1220 H1197 0.950 . S
C1220 C1219 1.397 . S
C1220 C1221 1.334 . S
C1221 H1198 0.950 . S
C1221 C1220 1.334 . S
C1221 C1222 1.287 . S
C1222 C1221 1.287 . S
C1222 C1223 1.524 . S
C1222 H1241 0.913 . S
C1223 H1199 0.950 . S
C1223 C1222 1.524 . S
C1223 C1224 1.415 . S
C1224 H1200 0.950 . S
C1224 C1219 1.363 . S
C1224 C1223 1.415 . S
C1225 H1201 0.951 . S
C1225 C1226 1.366 . S
C1225 C1227 1.388 . S
C1226 C1225 1.366 . S
C1226 C1230 1.385 . S
C1227 H1202 0.951 . S
C1227 C1225 1.388 . S
C1227 C1228 1.366 . S
C1228 C1227 1.366 . S
C1228 C1229 1.414 . S
C1228 C1231 1.499 . S
C1229 H1203 0.950 . S
C1229 C1228 1.414 . S
C1229 C1230 1.374 . S
C1230 H1204 0.950 . S
C1230 C1226 1.385 . S
C1230 C1229 1.374 . S
C1231 C1228 1.499 . S
C1231 C1232 1.373 . S
C1231 C1233 1.389 . S
C1232 H1205 0.950 . S
C1232 C1218 1.377 . S
C1232 C1231 1.373 . S
C1233 C1217 1.377 . S
C1233 C1231 1.389 . S
C1233 C1234 1.524 . S
C1234 C1233 1.524 . S
C1234 C1235 1.397 . S
C1234 C1239 1.363 . S
C1235 H1206 0.950 . S
C1235 C1234 1.397 . S
C1235 C1236 1.334 . S
C1236 H1207 0.950 . S
C1236 C1235 1.334 . S
C1236 C1237 1.287 . S
C1237 C1236 1.287 . S
C1237 C1238 1.524 . S
C1237 H1240 0.999 . S
C1238 H1208 0.950 . S
C1238 C1237 1.524 . S
C1238 C1239 1.415 . S
C1239 H1209 0.950 . S
C1239 C1234 1.363 . S
C1239 C1238 1.415 . S
H1240 C1237 0.999 . S
H1241 C1222 0.913 . S
H1242 C1260 0.951 . S
H1243 C1262 0.951 . S
H1244 C1264 0.950 . S
H1245 C1265 0.950 . S
H1246 C1267 0.950 . S
H1247 C1270 0.950 . S
H1248 C1271 0.950 . S
H1249 C1273 0.950 . S
H1250 C1274 0.950 . S
H1251 C1275 0.951 . S
H1252 C1277 0.951 . S
H1253 C1279 0.950 . S
H1254 C1280 0.950 . S
H1255 C1282 0.950 . S
H1256 C1285 0.950 . S
H1257 C1286 0.950 . S
H1258 C1288 0.950 . S
H1259 C1289 0.950 . S
C1260 H1242 0.951 . S
C1260 C1261 1.369 . S
C1260 C1262 1.388 . S
C1261 C1260 1.369 . S
C1261 C1265 1.381 1_556 S
C1262 H1243 0.951 . S
C1262 C1260 1.388 . S
C1262 C1263 1.366 1_556 S
C1263 C1262 1.366 1_554 S
C1263 C1264 1.414 . S
C1263 C1266 1.499 . S
C1264 H1244 0.950 . S
C1264 C1263 1.414 . S
C1264 C1265 1.374 . S
C1265 H1245 0.950 . S
C1265 C1261 1.381 1_554 S
C1265 C1264 1.374 . S
C1266 C1263 1.499 . S
C1266 C1267 1.373 . S
C1266 C1268 1.389 1_554 S
C1267 H1246 0.950 . S
C1267 C1266 1.373 . S
C1267 C1283 1.377 . S
C1268 C1266 1.389 1_556 S
C1268 C1269 1.524 . S
C1268 C1282 1.377 . S
C1269 C1268 1.524 . S
C1269 C1270 1.397 1_556 S
C1269 C1274 1.363 . S
C1270 H1247 0.950 . S
C1270 C1269 1.397 1_554 S
C1270 C1271 1.334 . S
C1271 H1248 0.950 . S
C1271 C1270 1.334 . S
C1271 C1272 1.287 . S
C1272 C1271 1.287 . S
C1272 C1273 1.524 1_554 S
C1272 H1291 0.913 . S
C1273 H1249 0.950 . S
C1273 C1272 1.524 1_556 S
C1273 C1274 1.415 . S
C1274 H1250 0.950 . S
C1274 C1269 1.363 . S
C1274 C1273 1.415 . S
C1275 H1251 0.951 . S
C1275 C1276 1.368 . S
C1275 C1277 1.388 . S
C1276 C1275 1.368 . S
C1276 C1280 1.382 1_554 S
C1277 H1252 0.951 . S
C1277 C1275 1.388 . S
C1277 C1278 1.366 1_554 S
C1278 C1277 1.366 1_556 S
C1278 C1279 1.414 . S
C1278 C1281 1.499 . S
C1279 H1253 0.950 . S
C1279 C1278 1.414 . S
C1279 C1280 1.374 . S
C1280 H1254 0.950 . S
C1280 C1276 1.382 1_556 S
C1280 C1279 1.374 . S
C1281 C1278 1.499 . S
C1281 C1282 1.373 . S
C1281 C1283 1.389 1_556 S
C1282 H1255 0.950 . S
C1282 C1268 1.377 . S
C1282 C1281 1.373 . S
C1283 C1267 1.377 . S
C1283 C1281 1.389 1_554 S
C1283 C1284 1.524 . S
C1284 C1283 1.524 . S
C1284 C1285 1.397 1_554 S
C1284 C1289 1.363 . S
C1285 H1256 0.950 . S
C1285 C1284 1.397 1_556 S
C1285 C1286 1.334 . S
C1286 H1257 0.950 . S
C1286 C1285 1.334 . S
C1286 C1287 1.287 . S
C1287 C1286 1.287 . S
C1287 C1288 1.524 1_556 S
C1287 H1290 0.999 . S
C1288 H1258 0.950 . S
C1288 C1287 1.524 1_554 S
C1288 C1289 1.415 . S
C1289 H1259 0.950 . S
C1289 C1284 1.363 . S
C1289 C1288 1.415 . S
H1290 C1287 0.999 . S
H1291 C1272 0.913 . S
H1292 C1310 0.951 . S
H1293 C1312 0.951 . S
H1294 C1314 0.950 . S
H1295 C1315 0.950 . S
H1296 C1317 0.950 . S
H1297 C1320 0.950 . S
H1298 C1321 0.950 . S
H1299 C1323 0.950 . S
H1300 C1324 0.950 . S
H1301 C1325 0.951 . S
H1302 C1327 0.951 . S
H1303 C1329 0.950 . S
H1304 C1330 0.950 . S
H1305 C1332 0.950 . S
H1306 C1335 0.950 . S
H1307 C1336 0.950 . S
H1308 C1338 0.950 . S
H1309 C1339 0.950 . S
C1310 H1292 0.951 . S
C1310 C1311 1.366 . S
C1310 C1312 1.388 . S
C1311 C1310 1.366 . S
C1311 C1315 1.385 . S
C1312 H1293 0.951 . S
C1312 C1310 1.388 . S
C1312 C1313 1.366 . S
C1313 C1312 1.366 . S
C1313 C1314 1.414 . S
C1313 C1316 1.499 . S
C1314 H1294 0.950 . S
C1314 C1313 1.414 . S
C1314 C1315 1.374 . S
C1315 H1295 0.950 . S
C1315 C1311 1.385 . S
C1315 C1314 1.374 . S
C1316 C1313 1.499 . S
C1316 C1317 1.373 . S
C1316 C1318 1.389 . S
C1317 H1296 0.950 . S
C1317 C1316 1.373 . S
C1317 C1333 1.377 . S
C1318 C1316 1.389 . S
C1318 C1319 1.524 . S
C1318 C1332 1.377 . S
C1319 C1318 1.524 . S
C1319 C1320 1.397 . S
C1319 C1324 1.363 . S
C1320 H1297 0.950 . S
C1320 C1319 1.397 . S
C1320 C1321 1.334 . S
C1321 H1298 0.950 . S
C1321 C1320 1.334 . S
C1321 C1322 1.287 . S
C1322 C1321 1.287 . S
C1322 C1323 1.524 . S
C1322 H1341 0.913 . S
C1323 H1299 0.950 . S
C1323 C1322 1.524 . S
C1323 C1324 1.415 . S
C1324 H1300 0.950 . S
C1324 C1319 1.363 . S
C1324 C1323 1.415 . S
C1325 H1301 0.951 . S
C1325 C1326 1.366 . S
C1325 C1327 1.388 . S
C1326 C1325 1.366 . S
C1326 C1330 1.385 . S
C1327 H1302 0.951 . S
C1327 C1325 1.388 . S
C1327 C1328 1.366 . S
C1328 C1327 1.366 . S
C1328 C1329 1.414 . S
C1328 C1331 1.499 . S
C1329 H1303 0.950 . S
C1329 C1328 1.414 . S
C1329 C1330 1.374 . S
C1330 H1304 0.950 . S
C1330 C1326 1.385 . S
C1330 C1329 1.374 . S
C1331 C1328 1.499 . S
C1331 C1332 1.373 . S
C1331 C1333 1.389 . S
C1332 H1305 0.950 . S
C1332 C1318 1.377 . S
C1332 C1331 1.373 . S
C1333 C1317 1.377 . S
C1333 C1331 1.389 . S
C1333 C1334 1.524 . S
C1334 C1333 1.524 . S
C1334 C1335 1.397 . S
C1334 C1339 1.363 . S
C1335 H1306 0.950 . S
C1335 C1334 1.397 . S
C1335 C1336 1.334 . S
C1336 H1307 0.950 . S
C1336 C1335 1.334 . S
C1336 C1337 1.287 . S
C1337 C1336 1.287 . S
C1337 C1338 1.524 . S
C1337 H1340 0.999 . S
C1338 H1308 0.950 . S
C1338 C1337 1.524 . S
C1338 C1339 1.415 . S
C1339 H1309 0.950 . S
C1339 C1334 1.363 . S
C1339 C1338 1.415 . S
H1340 C1337 0.999 . S
H1341 C1322 0.913 . S
H1342 C1360 0.951 . S
H1343 C1362 0.951 . S
H1344 C1364 0.950 . S
H1345 C1365 0.950 . S
H1346 C1367 0.950 . S
H1347 C1370 0.950 . S
H1348 C1371 0.950 . S
H1349 C1373 0.950 . S
H1350 C1374 0.950 . S
H1351 C1375 0.951 . S
H1352 C1377 0.951 . S
H1353 C1379 0.950 . S
H1354 C1380 0.950 . S
H1355 C1382 0.950 . S
H1356 C1385 0.950 . S
H1357 C1386 0.950 . S
H1358 C1388 0.950 . S
H1359 C1389 0.950 . S
C1360 H1342 0.951 . S
C1360 C1361 1.366 . S
C1360 C1362 1.388 . S
C1361 C1360 1.366 . S
C1361 C1365 1.384 1_556 S
C1362 H1343 0.951 . S
C1362 C1360 1.388 . S
C1362 C1363 1.366 1_556 S
C1363 C1362 1.366 1_554 S
C1363 C1364 1.414 . S
C1363 C1366 1.499 . S
C1364 H1344 0.950 . S
C1364 C1363 1.414 . S
C1364 C1365 1.374 . S
C1365 H1345 0.950 . S
C1365 C1361 1.384 1_554 S
C1365 C1364 1.374 . S
C1366 C1363 1.499 . S
C1366 C1367 1.373 1_554 S
C1366 C1368 1.389 . S
C1367 H1346 0.950 . S
C1367 C1366 1.373 1_556 S
C1367 C1383 1.377 . S
C1368 C1366 1.389 . S
C1368 C1369 1.524 . S
C1368 C1382 1.377 . S
C1369 C1368 1.524 . S
C1369 C1370 1.397 . S
C1369 C1374 1.363 . S
C1370 H1347 0.950 . S
C1370 C1369 1.397 . S
C1370 C1371 1.334 . S
C1371 H1348 0.950 . S
C1371 C1370 1.334 . S
C1371 C1372 1.287 . S
C1372 C1371 1.287 . S
C1372 C1373 1.524 . S
C1372 H1391 0.913 . S
C1373 H1349 0.950 . S
C1373 C1372 1.524 . S
C1373 C1374 1.415 . S
C1374 H1350 0.950 . S
C1374 C1369 1.363 . S
C1374 C1373 1.415 . S
C1375 H1351 0.951 . S
C1375 C1376 1.367 . S
C1375 C1377 1.388 . S
C1376 C1375 1.367 . S
C1376 C1380 1.383 1_554 S
C1377 H1352 0.951 . S
C1377 C1375 1.388 . S
C1377 C1378 1.366 1_554 S
C1378 C1377 1.366 1_556 S
C1378 C1379 1.414 . S
C1378 C1381 1.499 . S
C1379 H1353 0.950 . S
C1379 C1378 1.414 . S
C1379 C1380 1.374 . S
C1380 H1354 0.950 . S
C1380 C1376 1.383 1_556 S
C1380 C1379 1.374 . S
C1381 C1378 1.499 . S
C1381 C1382 1.373 1_556 S
C1381 C1383 1.389 . S
C1382 H1355 0.950 . S
C1382 C1368 1.377 . S
C1382 C1381 1.373 1_554 S
C1383 C1367 1.377 . S
C1383 C1381 1.389 . S
C1383 C1384 1.524 . S
C1384 C1383 1.524 . S
C1384 C1385 1.397 . S
C1384 C1389 1.363 . S
C1385 H1356 0.950 . S
C1385 C1384 1.397 . S
C1385 C1386 1.334 . S
C1386 H1357 0.950 . S
C1386 C1385 1.334 . S
C1386 C1387 1.287 . S
C1387 C1386 1.287 . S
C1387 C1388 1.524 . S
C1387 H1390 0.999 . S
C1388 H1358 0.950 . S
C1388 C1387 1.524 . S
C1388 C1389 1.415 . S
C1389 H1359 0.950 . S
C1389 C1384 1.363 . S
C1389 C1388 1.415 . S
H1390 C1387 0.999 . S
H1391 C1372 0.913 . S
C211 C21 1.511 . S
C226 N128 1.518 . S
C261 C40 1.481 . S
C276 N89 1.474 . S
C326 N106 1.454 . S
C311 C54 1.455 . S
C361 C73 1.507 . S
C376 N119 1.515 . S
C426 N158 1.454 . S
C411 C74 1.455 . S
C476 N171 1.479 . S
C461 C10 1.481 . S
C526 N180 1.518 . S
C511 C37 1.511 . S
C576 N141 1.509 . S
C561 C65 1.507 . S
C611 C52 1.454 . S
C626 N102 1.451 . S
C661 C87 1.506 . S
C676 N115 1.515 . S
C711 C15 1.511 . S
C726 N132 1.520 . S
C776 N93 1.478 . S
C761 C32 1.480 . S
C811 C29 1.511 . S
C826 N184 1.519 . S
C876 N145 1.513 . S
C861 C59 1.506 . S
C926 N154 1.451 . S
C911 C84 1.454 . S
C961 C8 1.480 . S
C976 N167 1.479 . S
C1026 N90 1.517 1_554 S
C1011 C7 1.509 . S
C1076 N103 1.477 . S
C1061 C30 1.475 . S
C1111 C62 1.504 . S
C1126 N116 1.505 . S
C1161 C81 1.506 . S
C1176 N129 1.517 . S
C1226 N142 1.501 . S
C1211 C76 1.503 . S
C1261 C18 1.475 . S
C1276 N155 1.477 1_554 S
C1311 C43 1.509 . S
C1326 N168 1.520 . S
C1361 C51 1.506 . S
C1376 N181 1.517 . S
