# Generated by pormake.
# Topology anh, (6,3)-cn, num edge types: 1
# Building blocks:
#     Node 0, Type 0, BuildingBlock: CUWYAW_clean_sbu_0, # of connection points: 6
#     Node 1, Type 0, BuildingBlock: CUWYAW_clean_sbu_0, # of connection points: 6
#     Node 2, Type 0, BuildingBlock: CUWYAW_clean_sbu_0, # of connection points: 6
#     Node 3, Type 1, BuildingBlock: QEWDON_clean_linker_0, # of connection points: 3
#     Node 4, Type 1, BuildingBlock: QEWDON_clean_linker_0, # of connection points: 3
#     Node 5, Type 1, BuildingBlock: QEWDON_clean_linker_0, # of connection points: 3
#     Node 6, Type 1, BuildingBlock: QEWDON_clean_linker_0, # of connection points: 3
#     Node 7, Type 1, BuildingBlock: QEWDON_clean_linker_0, # of connection points: 3
#     Node 8, Type 1, BuildingBlock: QEWDON_clean_linker_0, # of connection points: 3
#     Edge 9, Type (0, 1), BuildingBlock: KIFKEQ_clean_linker_1, # of connection points: 2
#     Edge 10, Type (0, 1), BuildingBlock: KIFKEQ_clean_linker_1, # of connection points: 2
#     Edge 11, Type (0, 1), BuildingBlock: KIFKEQ_clean_linker_1, # of connection points: 2
#     Edge 12, Type (0, 1), BuildingBlock: KIFKEQ_clean_linker_1, # of connection points: 2
#     Edge 13, Type (0, 1), BuildingBlock: KIFKEQ_clean_linker_1, # of connection points: 2
#     Edge 14, Type (0, 1), BuildingBlock: KIFKEQ_clean_linker_1, # of connection points: 2
#     Edge 15, Type (0, 1), BuildingBlock: KIFKEQ_clean_linker_1, # of connection points: 2
#     Edge 16, Type (0, 1), BuildingBlock: KIFKEQ_clean_linker_1, # of connection points: 2
#     Edge 17, Type (0, 1), BuildingBlock: KIFKEQ_clean_linker_1, # of connection points: 2
#     Edge 18, Type (0, 1), BuildingBlock: KIFKEQ_clean_linker_1, # of connection points: 2
#     Edge 19, Type (0, 1), BuildingBlock: KIFKEQ_clean_linker_1, # of connection points: 2
#     Edge 20, Type (0, 1), BuildingBlock: KIFKEQ_clean_linker_1, # of connection points: 2
#     Edge 21, Type (0, 1), BuildingBlock: KIFKEQ_clean_linker_1, # of connection points: 2
#     Edge 22, Type (0, 1), BuildingBlock: KIFKEQ_clean_linker_1, # of connection points: 2
#     Edge 23, Type (0, 1), BuildingBlock: KIFKEQ_clean_linker_1, # of connection points: 2
#     Edge 24, Type (0, 1), BuildingBlock: KIFKEQ_clean_linker_1, # of connection points: 2
#     Edge 25, Type (0, 1), BuildingBlock: KIFKEQ_clean_linker_1, # of connection points: 2
#     Edge 26, Type (0, 1), BuildingBlock: KIFKEQ_clean_linker_1, # of connection points: 2
# Relax obj value: 0.227
# Max RMSD: 0.146
# Mean RMSD: 0.130
data_MOF--net-anh--node1-CUWYAW_clean_sbu_0--node2-QEWDON_clean_linker_0--edge1-KIFKEQ_clean_linker_1
_symmetry_space_group_name_H-M    P1
_symmetry_Int_Tables_number       1
_symmetry_cell_setting            triclinic
loop_
_symmetry_equiv_pos_as_xyz
'x, y, z'
_cell_length_a     32.808102
_cell_length_b     32.931895
_cell_length_c     49.347338
_cell_angle_alpha  93.569652
_cell_angle_beta   93.021638
_cell_angle_gamma 120.19758
loop_
_atom_site_label
_atom_site_type_symbol
_atom_site_fract_x
_atom_site_fract_y
_atom_site_fract_z
_atom_type_partial_charge
C0 C 1.07062 0.47291 0.12433 0.0
Eu1 Eu 0.12796 0.55758 0.14795 0.0
C2 C 1.02059 0.45002 0.11298 0.0
C3 C 0.98576 0.4126 0.12554 0.0
C4 C 0.93789 0.39685 0.11898 0.0
C5 C 0.92369 0.41784 0.09942 0.0
C6 C 0.95852 0.45267 0.08522 0.0
C7 C 1.00651 0.46882 0.09203 0.0
C8 C 0.15021 0.58201 0.2027 0.0
C9 C 1.06258 0.60822 0.15468 0.0
C10 C 0.22973 0.74505 0.18607 0.0
Eu11 Eu 0.17582 0.65906 0.16348 0.0
C12 C 0.27683 0.78517 0.18269 0.0
C13 C 0.28051 0.82797 0.17697 0.0
C14 C 0.32419 0.86646 0.17283 0.0
C15 C 0.36522 0.86305 0.17452 0.0
C16 C 0.36164 0.82014 0.18023 0.0
C17 C 0.31765 0.78131 0.18411 0.0
C18 C 0.1524 0.63547 0.10929 0.0
C19 C 0.24227 0.60956 0.15145 0.0
O20 O 1.10168 0.50722 0.11156 0.0
O21 O 1.07823 0.48294 0.15083 0.0
O22 O 0.15537 0.54987 0.18937 0.0
O23 O 0.13294 0.59928 0.18679 0.0
O24 O 1.06629 0.57312 0.14257 0.0
O25 O 1.10065 0.64425 0.16859 0.0
O26 O 0.2275 0.70835 0.1964 0.0
O27 O 0.1977 0.73339 0.16562 0.0
O28 O 0.15058 0.66958 0.12254 0.0
O29 O 0.16969 0.61775 0.1247 0.0
O30 O 0.24049 0.64763 0.16066 0.0
O31 O 0.2022 0.5694 0.14367 0.0
H32 H 0.99569 0.39751 0.14171 0.0
H33 H 0.91243 0.37046 0.13072 0.0
H34 H 0.94893 0.46902 0.0697 0.0
H35 H 1.0325 0.49761 0.08179 0.0
H36 H 0.24947 0.83166 0.17576 0.0
H37 H 0.32604 0.89937 0.16905 0.0
H38 H 0.39281 0.81671 0.18171 0.0
H39 H 0.31567 0.74848 0.18825 0.0
C40 C 0.59271 0.19239 0.45994 0.0
Eu41 Eu 0.62477 0.14476 0.48422 0.0
C42 C 0.61581 0.2353 0.44592 0.0
C43 C 0.5966 0.2647 0.44572 0.0
C44 C 0.62321 0.31036 0.43824 0.0
C45 C 0.66974 0.32747 0.43114 0.0
C46 C 0.68706 0.29626 0.4288 0.0
C47 C 0.66013 0.25032 0.43607 0.0
C48 C 0.63087 0.13532 0.53834 0.0
C49 C 0.74358 0.21045 0.4917 0.0
C50 C 0.7073 1.04847 0.52488 0.0
Eu51 Eu 0.68134 0.10011 0.50039 0.0
C52 C 0.67987 0.99713 0.52641 0.0
C53 C 0.65567 0.96629 0.5027 0.0
C54 C 0.62406 0.9186 0.50444 0.0
C55 C 0.61541 0.90068 0.52993 0.0
C56 C 0.64036 0.93135 0.55365 0.0
C57 C 0.67234 0.97922 0.55188 0.0
C58 C 0.67601 0.11033 0.44682 0.0
C59 C 0.56246 1.03169 0.48601 0.0
O60 O 0.59157 0.15523 0.44809 0.0
O61 O 0.60452 0.1985 0.48626 0.0
O62 O 0.59283 0.12894 0.52464 0.0
O63 O 0.66433 0.14842 0.52325 0.0
O64 O 0.70248 0.20386 0.48059 0.0
O65 O 0.74428 0.17627 0.50438 0.0
O66 O 0.69073 1.07233 0.53766 0.0
O67 O 0.71983 1.06223 0.5008 0.0
O68 O 0.71365 0.11495 0.46008 0.0
O69 O 0.64287 0.09732 0.46202 0.0
O70 O 0.60336 1.0357 0.49561 0.0
O71 O 0.56187 1.06943 0.47864 0.0
H72 H 0.56242 0.25358 0.45319 0.0
H73 H 0.60892 0.33359 0.44059 0.0
H74 H 0.72262 0.30842 0.42325 0.0
H75 H 0.67525 0.22771 0.43569 0.0
H76 H 0.6601 0.97912 0.48275 0.0
H77 H 0.60627 0.89579 0.48573 0.0
H78 H 0.63432 0.91863 0.57361 0.0
H79 H 0.69 1.00256 0.57045 0.0
C80 C 0.78255 0.64979 0.78993 0.0
Eu81 Eu 0.7085 0.62747 0.81602 0.0
C82 C 0.80129 0.62126 0.77801 0.0
C83 C 0.85023 0.6395 0.78007 0.0
C84 C 0.8682 0.61019 0.77325 0.0
C85 C 0.83742 0.56198 0.76438 0.0
C86 C 0.78849 0.54466 0.76047 0.0
C87 C 0.77055 0.57409 0.7672 0.0
C88 C 0.70168 0.63104 0.87065 0.0
C89 C 0.65581 0.51045 0.82126 0.0
C90 C 0.53723 0.55819 0.85801 0.0
Eu91 Eu 0.60977 0.57596 0.83193 0.0
C92 C 0.51321 0.58556 0.86056 0.0
C93 C 0.50426 0.60426 0.83768 0.0
C94 C 0.48741 0.6354 0.84059 0.0
C95 C 0.47973 0.64908 0.86647 0.0
C96 C 0.48831 0.63 0.88935 0.0
C97 C 0.50492 0.59847 0.88639 0.0
C98 C 0.61551 0.569 0.77804 0.0
C99 C 0.65959 0.6916 0.8211 0.0
O100 O 0.74214 0.64172 0.77822 0.0
O101 O 0.78433 0.65366 0.81659 0.0
O102 O 0.73199 0.66688 0.85874 0.0
O103 O 0.67825 0.59536 0.85349 0.0
O104 O 0.69001 0.54885 0.81168 0.0
O105 O 0.62149 0.51287 0.8331 0.0
O106 O 0.58051 0.57964 0.86997 0.0
O107 O 0.53336 0.53745 0.83368 0.0
O108 O 0.58408 0.53457 0.79031 0.0
O109 O 0.63944 0.60585 0.79433 0.0
O110 O 0.62376 0.65304 0.8297 0.0
O111 O 0.69709 0.69027 0.81342 0.0
H112 H 0.87443 0.67574 0.78839 0.0
H113 H 0.90605 0.62457 0.77695 0.0
H114 H 0.76396 0.5078 0.75359 0.0
H115 H 0.73252 0.55929 0.7652 0.0
H116 H 0.51125 0.59568 0.81755 0.0
H117 H 0.48026 0.64861 0.82247 0.0
H118 H 0.48304 0.64009 0.90959 0.0
H119 H 0.51256 0.5852 0.90434 0.0
H120 H 0.66339 0.30155 0.2766 0.0
C121 C 0.64801 0.26973 0.26254 0.0
C122 C 0.6464 0.22903 0.27097 0.0
C123 C 0.63144 0.26965 0.23562 0.0
H124 H 0.62411 0.15622 0.25972 0.0
C125 C 0.62711 0.18809 0.25269 0.0
C126 C 0.60899 0.18695 0.22615 0.0
C127 C 0.61152 0.22793 0.21771 0.0
C128 C 0.63692 0.31334 0.22535 0.0
H129 H 0.59776 0.22732 0.19713 0.0
C130 C 0.65454 0.32551 0.19998 0.0
C131 C 0.66122 0.36695 0.18965 0.0
C132 C 0.62557 0.34322 0.2405 0.0
H133 H 0.61168 0.33454 0.26008 0.0
C134 C 0.63176 0.38446 0.23024 0.0
H135 H 0.66522 0.30358 0.18875 0.0
C136 C 0.64982 0.39656 0.20502 0.0
H137 H 0.65521 0.42904 0.19764 0.0
H138 H 0.62294 0.40736 0.242 0.0
H139 H 0.5618 0.54354 0.57074 0.0
C140 C 0.58992 0.5437 0.56006 0.0
C141 C 0.62996 0.54829 0.57492 0.0
C142 C 0.58536 0.53866 0.53151 0.0
H143 H 0.69746 0.55264 0.57209 0.0
C144 C 0.66664 0.54955 0.56078 0.0
C145 C 0.66268 0.5448 0.53205 0.0
C146 C 0.62166 0.53911 0.51764 0.0
C147 C 0.54308 0.53433 0.5163 0.0
H148 H 0.61746 0.53422 0.49554 0.0
C149 C 0.52972 0.56771 0.52273 0.0
C150 C 0.49144 0.5664 0.50775 0.0
C151 C 0.51701 0.49841 0.49496 0.0
H152 H 0.52665 0.47212 0.4897 0.0
C153 C 0.47816 0.49625 0.48031 0.0
H154 H 0.55102 0.59648 0.53851 0.0
C155 C 0.46561 0.53034 0.48645 0.0
H156 H 0.43628 0.52896 0.47442 0.0
H157 H 0.45821 0.46854 0.46385 0.0
H158 H 0.16602 0.66412 0.90472 0.0
C159 C 0.1374 0.634 0.89216 0.0
C160 C 1.10483 0.59435 0.90441 0.0
C161 C 0.13259 0.63593 0.86397 0.0
H162 H 1.04193 0.52518 0.89716 0.0
C163 C 1.06796 0.55543 0.88787 0.0
C164 C 1.06297 0.55666 0.85947 0.0
C165 C 1.09557 0.5971 0.84778 0.0
C166 C 0.16615 0.67881 0.85155 0.0
H167 H 1.09131 0.5991 0.82606 0.0
C168 C 0.21489 0.69956 0.85869 0.0
C169 C 0.2477 0.73886 0.84637 0.0
C170 C 0.15017 0.69855 0.83219 0.0
H171 H 0.11264 0.68348 0.82648 0.0
C172 C 0.1827 0.73811 0.82008 0.0
H173 H 0.22747 0.68348 0.87288 0.0
C174 C 0.23138 0.75797 0.82689 0.0
H175 H 0.2562 0.78781 0.81684 0.0
H176 H 0.17016 0.75299 0.80511 0.0
H177 H 0.12859 0.59134 0.41806 0.0
C178 C 0.16098 0.62238 0.42694 0.0
C179 C 0.19464 0.65001 0.40932 0.0
C180 C 0.16842 0.63472 0.45546 0.0
H181 H 0.26129 0.71294 0.40619 0.0
C182 C 0.23625 0.69175 0.4201 0.0
C183 C 0.24597 0.70726 0.44814 0.0
C184 C 0.21233 0.67751 0.46579 0.0
C185 C 0.12895 0.60501 0.47374 0.0
H186 H 0.22049 0.68862 0.4874 0.0
C187 C 1.09017 0.55677 0.46621 0.0
C188 C 1.05286 0.53284 0.48369 0.0
C189 C 0.12839 0.62681 0.4991 0.0
H190 H 0.15458 0.66309 0.50588 0.0
C191 C 1.09303 0.60328 0.51624 0.0
H192 H 1.08834 0.53802 0.447 0.0
C193 C 1.05599 0.55738 0.50869 0.0
H194 H 1.02902 0.54089 0.52259 0.0
H195 H 1.09391 0.62133 0.53555 0.0
H196 H 0.64513 0.07602 0.75135 0.0
C197 C 0.64875 0.10825 0.76097 0.0
C198 C 0.65342 0.14339 0.74429 0.0
C199 C 0.64789 0.11399 0.78953 0.0
H200 H 0.65828 0.21062 0.7427 0.0
C201 C 0.65661 0.18502 0.75606 0.0
C202 C 0.65588 0.19375 0.78422 0.0
C203 C 0.65162 0.15776 0.80087 0.0
C204 C 0.63995 0.0732 0.80681 0.0
H205 H 0.65222 0.16472 0.82262 0.0
C206 C 0.64893 1.03514 0.79889 0.0
C207 C 0.63744 0.99675 0.81556 0.0
C208 C 0.61992 1.07077 0.83163 0.0
H209 H 0.6104 0.09638 0.83856 0.0
C210 C 0.6098 1.03437 0.84793 0.0
H211 H 0.66408 1.03484 0.78 0.0
C212 C 0.61822 0.99813 0.84007 0.0
H213 H 0.60919 0.97042 0.85339 0.0
H214 H 0.59436 1.03384 0.86686 0.0
H215 H 0.64428 0.62637 0.08356 0.0
C216 C 0.67229 0.62196 0.09276 0.0
C217 C 0.70337 0.61769 0.07567 0.0
C218 C 0.67751 0.62139 0.12132 0.0
H219 H 0.76543 0.61185 0.07373 0.0
C220 C 0.741 0.61335 0.08715 0.0
C221 C 0.74897 0.61266 0.11537 0.0
C222 C 0.71669 0.61665 0.13235 0.0
C223 C 0.64418 0.62895 0.13936 0.0
H224 H 0.72187 0.6151 0.15398 0.0
C225 C 0.59704 0.61955 0.13015 0.0
C226 C 0.56943 0.6304 0.14794 0.0
C227 C 0.66136 0.64897 0.1665 0.0
H228 H 0.69667 0.65868 0.17463 0.0
C229 C 0.6344 0.65877 0.18376 0.0
H230 H 0.58192 0.60426 0.10951 0.0
C231 C 0.58945 0.64981 0.17468 0.0
H232 H 0.57009 0.65852 0.18879 0.0
H233 H 0.64895 0.67428 0.20448 0.0
H234 H 0.26026 0.53961 0.13175 0.0
H235 H 0.33437 0.68519 0.16559 0.0
H236 H 0.33573 0.54314 0.12736 0.0
H237 H 0.41002 0.68868 0.16195 0.0
H238 H 0.54687 0.69836 0.13792 0.0
H239 H 0.47005 0.69352 0.13754 0.0
H240 H 0.40306 0.54419 0.14544 0.0
H241 H 0.48029 0.54949 0.14506 0.0
C242 C 0.29259 0.57255 0.13845 0.0
C243 C 0.29004 0.61207 0.14909 0.0
C244 C 0.33659 0.57457 0.13605 0.0
C245 C 0.38068 0.61627 0.14416 0.0
C246 C 0.37795 0.65581 0.15485 0.0
C247 C 0.3339 0.65377 0.15722 0.0
C248 C 0.51554 0.66408 0.13859 0.0
C249 C 0.52048 0.62407 0.14046 0.0
C250 C 0.47095 0.66134 0.13901 0.0
C251 C 0.42868 0.61845 0.14177 0.0
C252 C 0.43358 0.57807 0.14291 0.0
C253 C 0.47835 0.5809 0.14243 0.0
H254 H 0.75603 0.28799 0.46611 0.0
H255 H 0.83732 0.23958 0.51035 0.0
H256 H 0.82834 0.36103 0.46022 0.0
H257 H 0.91023 0.3137 0.50533 0.0
H258 H 1.0439 0.44341 0.48006 0.0
H259 H 0.97142 0.36629 0.48081 0.0
H260 H 0.88828 0.43431 0.47787 0.0
H261 H 0.96017 0.51013 0.47644 0.0
C262 C 0.78929 0.29278 0.47479 0.0
C263 C 0.78965 0.25679 0.48882 0.0
C264 C 0.83151 0.33554 0.47157 0.0
C265 C 0.87675 0.34501 0.48232 0.0
C266 C 0.8771 0.30876 0.49627 0.0
C267 C 0.83469 0.2658 0.49942 0.0
C268 C 1.00998 0.44164 0.47857 0.0
C269 C 1.0086 0.48368 0.47732 0.0
C270 C 0.96793 0.3971 0.4796 0.0
C271 C 0.92243 0.39248 0.47955 0.0
C272 C 0.92139 0.43467 0.47751 0.0
C273 C 0.96321 0.47887 0.47654 0.0
H274 H 0.58963 0.71143 0.83562 0.0
H275 H 0.72389 0.77633 0.80167 0.0
H276 H 0.58579 0.78311 0.83189 0.0
H277 H 0.71965 0.84766 0.79722 0.0
H278 H 0.71888 0.98946 0.8135 0.0
H279 H 0.72484 0.9181 0.81461 0.0
H280 H 0.5723 0.83243 0.80671 0.0
H281 H 0.56698 0.90359 0.80619 0.0
C282 C 0.6184 0.74075 0.82717 0.0
C283 C 0.65708 0.73685 0.819 0.0
C284 C 0.61603 0.78243 0.82475 0.0
C285 C 0.65212 0.82268 0.81392 0.0
C286 C 0.69096 0.8187 0.80592 0.0
C287 C 0.69334 0.77703 0.80838 0.0
C288 C 0.68658 0.95533 0.81109 0.0
C289 C 0.64237 0.95319 0.80898 0.0
C290 C 0.68988 0.91376 0.81201 0.0
C291 C 0.64911 0.86788 0.81113 0.0
C292 C 0.60502 0.86605 0.8081 0.0
C293 C 0.60182 0.9074 0.80721 0.0
H294 H 1.0434 0.68005 0.16858 0.0
H295 H 0.97305 0.53486 0.13417 0.0
H296 H 0.96873 0.67988 0.16185 0.0
H297 H 0.8982 0.53396 0.12879 0.0
H298 H 0.77963 0.55491 0.09287 0.0
H299 H 0.85279 0.55518 0.10309 0.0
H300 H 0.89075 0.65911 0.17181 0.0
H301 H 0.81754 0.66061 0.16044 0.0
C302 C 1.01202 0.64778 0.15979 0.0
C303 C 1.0154 0.60758 0.15181 0.0
C304 C 0.96855 0.64758 0.15601 0.0
C305 C 0.92608 0.60704 0.14419 0.0
C306 C 0.9295 0.56658 0.13698 0.0
C307 C 0.97293 0.56692 0.14043 0.0
C308 C 0.8032 0.57795 0.11031 0.0
C309 C 0.79159 0.608 0.12555 0.0
C310 C 0.84565 0.57762 0.11649 0.0
C311 C 0.87914 0.60691 0.13855 0.0
C312 C 0.86702 0.63614 0.15443 0.0
C313 C 0.82421 0.63656 0.14813 0.0
H314 H 0.4729 1.011 0.46633 0.0
H315 H 0.54453 0.94219 0.49826 0.0
H316 H 0.39854 0.93614 0.46022 0.0
H317 H 0.46946 0.86616 0.4916 0.0
H318 H 0.31641 0.73514 0.49216 0.0
H319 H 0.39113 0.81122 0.50264 0.0
H320 H 0.35282 0.86491 0.43431 0.0
H321 H 0.27886 0.79055 0.42463 0.0
C322 C 0.47315 0.9799 0.47201 0.0
C323 C 0.51596 0.98381 0.48272 0.0
C324 C 0.42985 0.93612 0.46826 0.0
C325 C 0.42663 0.89344 0.47496 0.0
C326 C 0.46937 0.89741 0.48616 0.0
C327 C 0.51298 0.94147 0.48988 0.0
C328 C 0.32356 0.76344 0.47965 0.0
C329 C 0.29057 0.75557 0.45738 0.0
C330 C 0.36713 0.80739 0.48546 0.0
C331 C 0.37948 0.84572 0.46948 0.0
C332 C 0.34572 0.83773 0.44767 0.0
C333 C 0.30272 0.79415 0.44185 0.0
H334 H 0.72865 0.49546 0.80778 0.0
H335 H 0.58479 0.41838 0.82834 0.0
H336 H 0.73054 0.42244 0.80287 0.0
H337 H 0.58571 0.3444 0.82205 0.0
H338 H 0.60473 0.2133 0.82212 0.0
H339 H 0.60487 0.28741 0.83265 0.0
H340 H 0.7134 0.3553 0.77825 0.0
H341 H 0.71455 0.28296 0.76906 0.0
C342 C 0.69698 0.4629 0.81098 0.0
C343 C 0.65648 0.46397 0.81839 0.0
C344 C 0.69788 0.42018 0.80785 0.0
C345 C 0.6581 0.37568 0.81142 0.0
C346 C 0.61762 0.37691 0.81916 0.0
C347 C 0.61693 0.4199 0.82267 0.0
C348 C 0.62939 0.24433 0.81287 0.0
C349 C 0.65955 0.24089 0.79455 0.0
C350 C 0.62903 0.28728 0.81861 0.0
C351 C 0.65898 0.32908 0.80641 0.0
C352 C 0.68991 0.32549 0.78873 0.0
C353 C 0.6903 0.28298 0.78312 0.0
H354 H 0.62463 0.84147 0.5628 0.0
H355 H 0.52956 0.84479 0.50016 0.0
H356 H 0.57514 0.75616 0.56024 0.0
H357 H 0.47987 0.75898 0.4975 0.0
H358 H 0.48296 0.61899 0.46998 0.0
H359 H 0.49748 0.69886 0.47897 0.0
H360 H 0.49871 0.68552 0.56552 0.0
H361 H 0.48448 0.60545 0.55641 0.0
C362 C 0.59241 0.82415 0.54905 0.0
C363 C 0.58142 0.84983 0.53139 0.0
C364 C 0.56383 0.77516 0.54764 0.0
C365 C 0.52367 0.7508 0.52854 0.0
C366 C 0.51088 0.77677 0.51218 0.0
C367 C 0.53945 0.82582 0.51364 0.0
C368 C 0.48419 0.63233 0.49082 0.0
C369 C 0.48358 0.60657 0.51254 0.0
C370 C 0.49256 0.67818 0.49602 0.0
C371 C 0.50034 0.6988 0.52302 0.0
C372 C 0.49385 0.67081 0.54455 0.0
C373 C 0.48555 0.62502 0.53935 0.0
H374 H 0.79924 0.47718 0.78532 0.0
H375 H 0.91836 0.57331 0.74424 0.0
H376 H 0.84325 0.4408 0.80162 0.0
H377 H 0.96325 0.53866 0.76138 0.0
H378 H 1.05651 0.51541 0.80812 0.0
H379 H 0.98755 0.48401 0.77463 0.0
H380 H 0.90341 0.48566 0.83876 0.0
H381 H 0.97163 0.51675 0.87173 0.0
C382 C 0.83399 0.48908 0.77867 0.0
C383 C 0.85605 0.52923 0.76439 0.0
C384 C 0.8594 0.46839 0.78818 0.0
C385 C 0.90743 0.48806 0.78382 0.0
C386 C 0.92652 0.5228 0.76551 0.0
C387 C 0.90099 0.54323 0.75589 0.0
C388 C 1.02267 0.50713 0.81512 0.0
C389 C 1.0198 0.52029 0.84231 0.0
C390 C 0.98317 0.48904 0.79596 0.0
C391 C 0.94045 0.48409 0.80379 0.0
C392 C 0.93574 0.48933 0.8318 0.0
C393 C 0.97517 0.50742 0.85091 0.0
H394 H 0.38921 0.92618 0.13651 0.0
H395 H 0.44564 0.89667 0.20879 0.0
H396 H 0.45874 1.00552 0.14015 0.0
H397 H 0.5146 0.97583 0.21272 0.0
H398 H 0.52505 0.1506 0.19481 0.0
H399 H 0.47554 1.07026 0.17374 0.0
H400 H 0.58544 1.03955 0.19665 0.0
H401 H 0.63531 0.12057 0.21788 0.0
C402 C 0.41704 0.93637 0.1528 0.0
C403 C 0.41174 0.90575 0.17268 0.0
C404 C 0.45676 0.98171 0.1549 0.0
C405 C 0.49171 0.99726 0.177 0.0
C406 C 0.48852 0.96493 0.19532 0.0
C407 C 0.44889 0.91952 0.19314 0.0
C408 C 0.53938 0.12728 0.19455 0.0
C409 C 0.58373 0.14165 0.2084 0.0
C410 C 0.51099 0.08111 0.18238 0.0
C411 C 0.52636 1.04832 0.1838 0.0
C412 C 0.57236 1.06382 0.19564 0.0
C413 C 0.6008 0.1101 0.20782 0.0
H414 H 0.75751 0.37902 0.45889 0.0
H415 H 0.65475 0.39311 0.4084 0.0
H416 H 0.78932 0.45887 0.48035 0.0
H417 H 0.68516 0.47205 0.43041 0.0
H418 H 0.70506 0.49438 0.54442 0.0
H419 H 0.73934 0.46397 0.51291 0.0
H420 H 0.73336 0.55123 0.45272 0.0
H421 H 0.69895 0.58222 0.48478 0.0
C422 C 0.74336 0.40003 0.45125 0.0
C423 C 0.70223 0.37924 0.43285 0.0
C424 C 0.76142 0.4458 0.46376 0.0
C425 C 0.73815 0.47084 0.45819 0.0
C426 C 0.70349 0.45356 0.43572 0.0
C427 C 0.68566 0.40797 0.42311 0.0
C428 C 0.71309 0.50892 0.525 0.0
C429 C 0.69771 0.5394 0.51674 0.0
C430 C 0.73312 0.49156 0.50679 0.0
C431 C 0.73786 0.50411 0.47987 0.0
C432 C 0.72908 0.54001 0.47306 0.0
C433 C 0.7091 0.5575 0.49136 0.0
H434 H 0.41265 0.64344 0.89892 0.0
H435 H 0.50337 0.72751 0.83978 0.0
H436 H 0.37212 0.68782 0.89778 0.0
H437 H 0.46227 0.77203 0.83847 0.0
H438 H 0.30908 0.74743 0.80932 0.0
H439 H 0.38106 0.74445 0.81864 0.0
H440 H 0.37216 0.76193 0.90525 0.0
H441 H 0.29944 0.76399 0.89575 0.0
C442 C 0.42498 0.6724 0.88631 0.0
C443 C 0.46076 0.68144 0.86914 0.0
C444 C 0.40183 0.6981 0.88572 0.0
C445 C 0.41388 0.73337 0.86792 0.0
C446 C 0.45192 0.74473 0.85217 0.0
C447 C 0.47523 0.71907 0.85283 0.0
C448 C 0.32379 0.75289 0.8303 0.0
C449 C 0.29848 0.75499 0.85184 0.0
C450 C 0.36508 0.75119 0.8357 0.0
C451 C 0.38153 0.75174 0.86271 0.0
C452 C 0.35964 0.76038 0.88424 0.0
C453 C 0.31825 0.7618 0.87883 0.0
H454 H 0.89313 0.48032 0.09119 0.0
H455 H 0.8413 0.33372 0.10239 0.0
H456 H 0.81701 0.47052 0.10114 0.0
H457 H 0.76637 0.32479 0.11364 0.0
H458 H 0.63964 0.31257 0.14115 0.0
H459 H 0.69348 0.3257 0.10602 0.0
H460 H 0.79139 0.4647 0.14672 0.0
H461 H 0.73742 0.45156 0.18148 0.0
C462 C 0.86526 0.44566 0.09504 0.0
C463 C 0.87411 0.40828 0.09713 0.0
C464 C 0.82171 0.44026 0.10095 0.0
C465 C 0.78624 0.39748 0.10906 0.0
C466 C 0.79295 0.35846 0.10766 0.0
C467 C 0.83634 0.36375 0.1016 0.0
C468 C 0.67198 0.34653 0.14196 0.0
C469 C 0.68501 0.38064 0.16433 0.0
C470 C 0.70282 0.354 0.12191 0.0
C471 C 0.74727 0.39566 0.12397 0.0
C472 C 0.75745 0.43213 0.14445 0.0
C473 C 0.72651 0.42466 0.16447 0.0
H474 H 1.10169 0.66037 0.0767 0.0
H475 H 0.17378 0.58105 0.07546 0.0
H476 H 1.08433 0.64438 0.02741 0.0
H477 H 0.15801 0.56636 0.02565 0.0
H478 H 1.09283 0.52394 0.93615 0.0
H479 H 1.09889 0.52815 0.9861 0.0
H480 H 0.13087 0.67288 -0.00973 0.0
H481 H 0.12252 0.66789 0.94098 0.0
C482 C 0.11392 0.63956 0.06578 0.0
C483 C 0.13974 0.62261 0.07972 0.0
C484 C 1.10413 0.63051 0.03754 0.0
C485 C 0.12057 0.60486 0.0225 0.0
C486 C 0.14471 0.58611 0.03662 0.0
C487 C 0.15405 0.59476 0.06507 0.0
C488 C 1.1006 0.55638 0.94785 0.0
C489 C 1.10762 0.59571 0.93462 0.0
C490 C 1.1045 0.55894 0.97641 0.0
C491 C 0.11522 0.6008 -0.0078 0.0
C492 C 0.12181 0.63982 0.97883 0.0
C493 C 0.11777 0.63721 0.95048 0.0
H494 H 0.75302 0.17355 0.42283 0.0
H495 H 0.60008 0.09475 0.41354 0.0
H496 H 0.75305 0.21325 0.38241 0.0
H497 H 0.60005 0.1352 0.37369 0.0
H498 H 0.61318 0.24295 0.31794 0.0
H499 H 0.62529 0.21992 0.36267 0.0
H500 H 0.72566 0.18512 0.3314 0.0
H501 H 0.71334 0.20791 0.28685 0.0
C502 C 0.71947 0.16457 0.41204 0.0
C503 C 0.67648 0.13133 0.42129 0.0
C504 C 0.71951 0.18754 0.38912 0.0
C505 C 0.67656 0.17786 0.37528 0.0
C506 C 0.63365 0.14413 0.38438 0.0
C507 C 0.63365 0.12078 0.40702 0.0
C508 C 0.63893 0.23185 0.321 0.0
C509 C 0.66233 0.22705 0.29913 0.0
C510 C 0.64549 0.21825 0.3464 0.0
C511 C 0.67594 0.20021 0.35029 0.0
C512 C 0.70214 0.19906 0.32897 0.0
C513 C 0.69512 0.21206 0.30354 0.0
H514 H 0.66561 0.64095 0.74714 0.0
H515 H 0.58001 0.4891 0.74341 0.0
H516 H 0.67316 0.63482 0.69826 0.0
H517 H 0.58856 0.48266 0.69482 0.0
H518 H 0.70531 0.60558 0.61286 0.0
H519 H 0.70604 0.60932 0.6626 0.0
H520 H 0.55873 0.49874 0.65438 0.0
H521 H 0.55876 0.49356 0.60516 0.0
C522 C 0.64888 0.60626 0.73587 0.0
C523 C 0.62181 0.56551 0.74886 0.0
C524 C 0.65347 0.60269 0.70794 0.0
C525 C 0.63121 0.55825 0.69257 0.0
C526 C 0.60537 0.51747 0.70592 0.0
C527 C 0.60052 0.5211 0.73374 0.0
C528 C 0.67339 0.58166 0.62178 0.0
C529 C 0.63186 0.54961 0.6051 0.0
C530 C 0.67364 0.5841 0.65023 0.0
C531 C 0.6324 0.55442 0.66249 0.0
C532 C 0.5913 0.52174 0.64571 0.0
C533 C 0.59111 0.51923 0.61742 0.0
H534 H 0.71143 0.16172 0.57181 0.0
H535 H 0.5605 0.102 0.57239 0.0
H536 H 0.71881 0.15926 0.62124 0.0
H537 H 0.56777 0.09967 0.62174 0.0
H538 H 0.5912 1.06723 0.70802 0.0
H539 H 0.58687 1.0615 0.65803 0.0
H540 H 0.71131 0.20043 0.66233 0.0
H541 H 0.71575 0.20581 0.71205 0.0
C542 C 0.6798 0.14789 0.58249 0.0
C543 C 0.63542 0.1323 0.5682 0.0
C544 C 0.68403 0.14661 0.61084 0.0
C545 C 0.64389 0.1293 0.62559 0.0
C546 C 0.59937 0.11273 0.6111 0.0
C547 C 0.59523 0.11439 0.58281 0.0
C548 C 0.61807 0.09612 0.69824 0.0
C549 C 0.65373 0.13702 0.71403 0.0
C550 C 0.61535 0.09309 0.6696 0.0
C551 C 0.64858 0.13063 0.65605 0.0
C552 C 0.6853 0.17068 0.67195 0.0
C553 C 0.68771 0.17389 0.7005 0.0
H554 H 0.74683 0.7048 0.91113 0.0
H555 H 0.64969 0.55438 0.89793 0.0
H556 H 0.74349 0.70141 0.96055 0.0
H557 H 0.64627 0.55093 0.94708 0.0
H558 H 0.69173 0.68102 0.04717 0.0
H559 H 0.68892 0.68493 -0.00238 0.0
H560 H 0.70061 0.56023 0.98658 0.0
H561 H 0.70313 0.55628 0.0358 0.0
C562 C 0.72463 0.67108 0.91877 0.0
C563 C 0.69877 0.62984 0.90061 0.0
C564 C 0.72247 0.66915 0.94708 0.0
C565 C 0.69476 0.62584 0.95787 0.0
C566 C 0.66843 0.58479 0.93957 0.0
C567 C 0.67026 0.58679 0.91135 0.0
C568 C 0.69307 0.65415 0.03408 0.0
C569 C 0.69767 0.61835 0.04545 0.0
C570 C 0.69195 0.65665 0.00572 0.0
C571 C 0.69464 0.62296 0.98805 0.0
C572 C 0.69804 0.58655 -0.00053 0.0
C573 C 0.69976 0.58441 0.02773 0.0
H574 H 0.18968 0.54982 0.23944 0.0
H575 H 0.12467 0.63533 0.23441 0.0
H576 H 0.1989 0.56399 0.28923 0.0
H577 H 0.13376 0.64949 0.28428 0.0
H578 H 0.11452 0.62362 0.37512 0.0
H579 H 1.10311 0.60645 0.32535 0.0
H580 H 0.24496 0.62988 0.32552 0.0
H581 H 0.25612 0.64663 0.37514 0.0
C582 C 0.17738 0.57169 0.24898 0.0
C583 C 0.15642 0.59141 0.23296 0.0
C584 C 0.18281 0.57997 0.27754 0.0
C585 C 0.16698 0.60781 0.29086 0.0
C586 C 0.14585 0.62743 0.27477 0.0
C587 C 0.14091 0.61957 0.24617 0.0
C588 C 0.14303 0.62455 0.36453 0.0
C589 C 0.18623 0.63649 0.37915 0.0
C590 C 0.13669 0.6152 0.33598 0.0
C591 C 0.17317 0.61691 0.32134 0.0
C592 C 0.21597 0.62788 0.33607 0.0
C593 C 0.22249 0.63777 0.36453 0.0
loop_
_geom_bond_atom_site_label_1
_geom_bond_atom_site_label_2
_geom_bond_distance
_geom_bond_site_symmetry_2
_ccdc_geom_bond_type
C0 Eu1 2.835 . S
C0 C2 1.500 . S
C0 O20 1.257 . S
C0 O21 1.260 . S
Eu1 C0 2.835 . S
Eu1 O20 2.473 . S
Eu1 O21 2.480 . S
Eu1 O22 2.430 1_655 S
Eu1 O23 2.670 1_655 S
Eu1 O24 2.394 . S
Eu1 O29 2.355 1_655 S
Eu1 O31 2.374 1_655 S
C2 C0 1.500 . S
C2 C3 1.377 . S
C2 C7 1.377 . S
C3 C2 1.377 . S
C3 C4 1.395 . S
C3 H32 0.931 . S
C4 C3 1.395 . S
C4 C5 1.383 . S
C4 H33 0.931 . S
C5 C4 1.383 . S
C5 C6 1.394 . S
C6 C5 1.394 . S
C6 C7 1.378 . S
C6 H34 0.931 . S
C7 C2 1.377 . S
C7 C6 1.378 . S
C7 H35 0.931 . S
C8 O22 1.259 . S
C8 O23 1.270 . S
C9 O24 1.251 . S
C9 O25 1.251 . S
C10 Eu11 2.835 . S
C10 C12 1.500 . S
C10 O26 1.257 . S
C10 O27 1.260 . S
Eu11 C10 2.835 . S
Eu11 O23 2.355 . S
Eu11 O25 2.374 1_455 S
Eu11 O26 2.473 . S
Eu11 O27 2.480 . S
Eu11 O28 2.430 . S
Eu11 O29 2.670 . S
Eu11 O30 2.394 . S
C12 C10 1.500 . S
C12 C13 1.377 . S
C12 C17 1.377 . S
C13 C12 1.377 . S
C13 C14 1.395 . S
C13 H36 0.931 . S
C14 C13 1.395 . S
C14 C15 1.383 . S
C14 H37 0.931 . S
C15 C14 1.383 . S
C15 C16 1.394 . S
C16 C15 1.394 . S
C16 C17 1.378 . S
C16 H38 0.931 . S
C17 C12 1.377 . S
C17 C16 1.378 . S
C17 H39 0.931 . S
C18 O28 1.259 . S
C18 O29 1.270 . S
C19 O30 1.251 . S
C19 O31 1.251 . S
O20 C0 1.257 . S
O20 Eu1 2.473 . S
O21 C0 1.260 . S
O21 Eu1 2.480 . S
O22 Eu1 2.430 1_455 S
O22 C8 1.259 . S
O23 Eu1 2.670 1_455 S
O23 C8 1.270 . S
O23 Eu11 2.355 . S
O24 Eu1 2.394 . S
O24 C9 1.251 . S
O25 C9 1.251 . S
O25 Eu11 2.374 1_655 S
O26 C10 1.257 . S
O26 Eu11 2.473 . S
O27 C10 1.260 . S
O27 Eu11 2.480 . S
O28 Eu11 2.430 . S
O28 C18 1.259 . S
O29 Eu1 2.355 1_455 S
O29 Eu11 2.670 . S
O29 C18 1.270 . S
O30 Eu11 2.394 . S
O30 C19 1.251 . S
O31 Eu1 2.374 1_455 S
O31 C19 1.251 . S
H32 C3 0.931 . S
H33 C4 0.931 . S
H34 C6 0.931 . S
H35 C7 0.931 . S
H36 C13 0.931 . S
H37 C14 0.931 . S
H38 C16 0.931 . S
H39 C17 0.931 . S
C40 Eu41 2.835 . S
C40 C42 1.500 . S
C40 O60 1.257 . S
C40 O61 1.260 . S
Eu41 C40 2.835 . S
Eu41 O60 2.473 . S
Eu41 O61 2.480 . S
Eu41 O62 2.430 . S
Eu41 O63 2.670 . S
Eu41 O64 2.394 . S
Eu41 O69 2.355 . S
Eu41 O71 2.374 . S
C42 C40 1.500 . S
C42 C43 1.377 . S
C42 C47 1.377 . S
C43 C42 1.377 . S
C43 C44 1.395 . S
C43 H72 0.931 . S
C44 C43 1.395 . S
C44 C45 1.383 . S
C44 H73 0.931 . S
C45 C44 1.383 . S
C45 C46 1.394 . S
C46 C45 1.394 . S
C46 C47 1.378 . S
C46 H74 0.931 . S
C47 C42 1.377 . S
C47 C46 1.378 . S
C47 H75 0.931 . S
C48 O62 1.259 . S
C48 O63 1.270 . S
C49 O64 1.251 . S
C49 O65 1.251 . S
C50 Eu51 2.835 1_565 S
C50 C52 1.500 . S
C50 O66 1.257 . S
C50 O67 1.260 . S
Eu51 C50 2.835 1_545 S
Eu51 O63 2.355 . S
Eu51 O65 2.374 . S
Eu51 O66 2.473 1_545 S
Eu51 O67 2.480 1_545 S
Eu51 O68 2.430 . S
Eu51 O69 2.670 . S
Eu51 O70 2.394 1_545 S
C52 C50 1.500 . S
C52 C53 1.377 . S
C52 C57 1.377 . S
C53 C52 1.377 . S
C53 C54 1.395 . S
C53 H76 0.931 . S
C54 C53 1.395 . S
C54 C55 1.383 . S
C54 H77 0.931 . S
C55 C54 1.383 . S
C55 C56 1.394 . S
C56 C55 1.394 . S
C56 C57 1.378 . S
C56 H78 0.931 . S
C57 C52 1.377 . S
C57 C56 1.378 . S
C57 H79 0.931 . S
C58 O68 1.259 . S
C58 O69 1.270 . S
C59 O70 1.251 . S
C59 O71 1.251 1_565 S
O60 C40 1.257 . S
O60 Eu41 2.473 . S
O61 C40 1.260 . S
O61 Eu41 2.480 . S
O62 Eu41 2.430 . S
O62 C48 1.259 . S
O63 Eu41 2.670 . S
O63 C48 1.270 . S
O63 Eu51 2.355 . S
O64 Eu41 2.394 . S
O64 C49 1.251 . S
O65 C49 1.251 . S
O65 Eu51 2.374 . S
O66 C50 1.257 . S
O66 Eu51 2.473 1_565 S
O67 C50 1.260 . S
O67 Eu51 2.480 1_565 S
O68 Eu51 2.430 . S
O68 C58 1.259 . S
O69 Eu41 2.355 . S
O69 Eu51 2.670 . S
O69 C58 1.270 . S
O70 Eu51 2.394 1_565 S
O70 C59 1.251 . S
O71 Eu41 2.374 . S
O71 C59 1.251 1_545 S
H72 C43 0.931 . S
H73 C44 0.931 . S
H74 C46 0.931 . S
H75 C47 0.931 . S
H76 C53 0.931 . S
H77 C54 0.931 . S
H78 C56 0.931 . S
H79 C57 0.931 . S
C80 Eu81 2.835 . S
C80 C82 1.500 . S
C80 O100 1.257 . S
C80 O101 1.260 . S
Eu81 C80 2.835 . S
Eu81 O100 2.473 . S
Eu81 O101 2.480 . S
Eu81 O102 2.430 . S
Eu81 O103 2.670 . S
Eu81 O104 2.394 . S
Eu81 O109 2.355 . S
Eu81 O111 2.374 . S
C82 C80 1.500 . S
C82 C83 1.377 . S
C82 C87 1.377 . S
C83 C82 1.377 . S
C83 C84 1.395 . S
C83 H112 0.931 . S
C84 C83 1.395 . S
C84 C85 1.383 . S
C84 H113 0.931 . S
C85 C84 1.383 . S
C85 C86 1.394 . S
C86 C85 1.394 . S
C86 C87 1.378 . S
C86 H114 0.931 . S
C87 C82 1.377 . S
C87 C86 1.378 . S
C87 H115 0.931 . S
C88 O102 1.259 . S
C88 O103 1.270 . S
C89 O104 1.251 . S
C89 O105 1.251 . S
C90 Eu91 2.835 . S
C90 C92 1.500 . S
C90 O106 1.257 . S
C90 O107 1.260 . S
Eu91 C90 2.835 . S
Eu91 O103 2.355 . S
Eu91 O105 2.374 . S
Eu91 O106 2.473 . S
Eu91 O107 2.480 . S
Eu91 O108 2.430 . S
Eu91 O109 2.670 . S
Eu91 O110 2.394 . S
C92 C90 1.500 . S
C92 C93 1.377 . S
C92 C97 1.377 . S
C93 C92 1.377 . S
C93 C94 1.395 . S
C93 H116 0.931 . S
C94 C93 1.395 . S
C94 C95 1.383 . S
C94 H117 0.931 . S
C95 C94 1.383 . S
C95 C96 1.394 . S
C96 C95 1.394 . S
C96 C97 1.378 . S
C96 H118 0.931 . S
C97 C92 1.377 . S
C97 C96 1.378 . S
C97 H119 0.931 . S
C98 O108 1.259 . S
C98 O109 1.270 . S
C99 O110 1.251 . S
C99 O111 1.251 . S
O100 C80 1.257 . S
O100 Eu81 2.473 . S
O101 C80 1.260 . S
O101 Eu81 2.480 . S
O102 Eu81 2.430 . S
O102 C88 1.259 . S
O103 Eu81 2.670 . S
O103 C88 1.270 . S
O103 Eu91 2.355 . S
O104 Eu81 2.394 . S
O104 C89 1.251 . S
O105 C89 1.251 . S
O105 Eu91 2.374 . S
O106 C90 1.257 . S
O106 Eu91 2.473 . S
O107 C90 1.260 . S
O107 Eu91 2.480 . S
O108 Eu91 2.430 . S
O108 C98 1.259 . S
O109 Eu81 2.355 . S
O109 Eu91 2.670 . S
O109 C98 1.270 . S
O110 Eu91 2.394 . S
O110 C99 1.251 . S
O111 Eu81 2.374 . S
O111 C99 1.251 . S
H112 C83 0.931 . S
H113 C84 0.931 . S
H114 C86 0.931 . S
H115 C87 0.931 . S
H116 C93 0.931 . S
H117 C94 0.931 . S
H118 C96 0.931 . S
H119 C97 0.931 . S
H120 C121 0.949 . S
C121 H120 0.949 . S
C121 C122 1.395 . S
C121 C123 1.391 . S
C122 C121 1.395 . S
C122 C125 1.390 . S
C123 C121 1.391 . S
C123 C127 1.387 . S
C123 C128 1.491 . S
H124 C125 0.950 . S
C125 C122 1.390 . S
C125 H124 0.950 . S
C125 C126 1.378 . S
C126 C125 1.378 . S
C126 C127 1.409 . S
C127 C123 1.387 . S
C127 C126 1.409 . S
C127 H129 0.951 . S
C128 C123 1.491 . S
C128 C130 1.382 . S
C128 C132 1.404 . S
H129 C127 0.951 . S
C130 C128 1.382 . S
C130 C131 1.390 . S
C130 H135 0.949 . S
C131 C130 1.390 . S
C131 C136 1.399 . S
C132 C128 1.404 . S
C132 H133 0.950 . S
C132 C134 1.375 . S
H133 C132 0.950 . S
C134 C132 1.375 . S
C134 C136 1.382 . S
C134 H138 0.950 . S
H135 C130 0.949 . S
C136 C131 1.399 . S
C136 C134 1.382 . S
C136 H137 0.952 . S
H137 C136 0.952 . S
H138 C134 0.950 . S
H139 C140 0.949 . S
C140 H139 0.949 . S
C140 C141 1.395 . S
C140 C142 1.391 . S
C141 C140 1.395 . S
C141 C144 1.390 . S
C142 C140 1.391 . S
C142 C146 1.387 . S
C142 C147 1.491 . S
H143 C144 0.950 . S
C144 C141 1.390 . S
C144 H143 0.950 . S
C144 C145 1.378 . S
C145 C144 1.378 . S
C145 C146 1.409 . S
C146 C142 1.387 . S
C146 C145 1.409 . S
C146 H148 0.951 . S
C147 C142 1.491 . S
C147 C149 1.382 . S
C147 C151 1.404 . S
H148 C146 0.951 . S
C149 C147 1.382 . S
C149 C150 1.390 . S
C149 H154 0.949 . S
C150 C149 1.390 . S
C150 C155 1.399 . S
C151 C147 1.404 . S
C151 H152 0.950 . S
C151 C153 1.375 . S
H152 C151 0.950 . S
C153 C151 1.375 . S
C153 C155 1.382 . S
C153 H157 0.950 . S
H154 C149 0.949 . S
C155 C150 1.399 . S
C155 C153 1.382 . S
C155 H156 0.952 . S
H156 C155 0.952 . S
H157 C153 0.950 . S
H158 C159 0.949 . S
C159 H158 0.949 . S
C159 C160 1.395 . S
C159 C161 1.391 . S
C160 C159 1.395 . S
C160 C163 1.390 1_455 S
C161 C159 1.391 . S
C161 C165 1.387 1_455 S
C161 C166 1.491 . S
H162 C163 0.950 . S
C163 C160 1.390 1_655 S
C163 H162 0.950 . S
C163 C164 1.378 . S
C164 C163 1.378 . S
C164 C165 1.409 . S
C165 C161 1.387 1_655 S
C165 C164 1.409 . S
C165 H167 0.951 . S
C166 C161 1.491 . S
C166 C168 1.382 . S
C166 C170 1.404 . S
H167 C165 0.951 . S
C168 C166 1.382 . S
C168 C169 1.390 . S
C168 H173 0.949 . S
C169 C168 1.390 . S
C169 C174 1.399 . S
C170 C166 1.404 . S
C170 H171 0.950 . S
C170 C172 1.375 . S
H171 C170 0.950 . S
C172 C170 1.375 . S
C172 C174 1.382 . S
C172 H176 0.950 . S
H173 C168 0.949 . S
C174 C169 1.399 . S
C174 C172 1.382 . S
C174 H175 0.952 . S
H175 C174 0.952 . S
H176 C172 0.950 . S
H177 C178 0.949 1_655 S
C178 H177 0.949 1_455 S
C178 C179 1.395 . S
C178 C180 1.391 . S
C179 C178 1.395 . S
C179 C182 1.390 . S
C180 C178 1.391 . S
C180 C184 1.387 . S
C180 C185 1.491 1_455 S
H181 C182 0.950 . S
C182 C179 1.390 . S
C182 H181 0.950 . S
C182 C183 1.378 . S
C183 C182 1.378 . S
C183 C184 1.409 . S
C184 C180 1.387 . S
C184 C183 1.409 . S
C184 H186 0.951 . S
C185 C180 1.491 1_655 S
C185 C187 1.382 . S
C185 C189 1.404 . S
H186 C184 0.951 . S
C187 C185 1.382 . S
C187 C188 1.390 . S
C187 H192 0.949 . S
C188 C187 1.390 . S
C188 C193 1.399 . S
C189 C185 1.404 . S
C189 H190 0.950 1_655 S
C189 C191 1.375 . S
H190 C189 0.950 1_455 S
C191 C189 1.375 . S
C191 C193 1.382 . S
C191 H195 0.950 . S
H192 C187 0.949 . S
C193 C188 1.399 . S
C193 C191 1.382 . S
C193 H194 0.952 . S
H194 C193 0.952 . S
H195 C191 0.950 . S
H196 C197 0.949 1_565 S
C197 H196 0.949 1_545 S
C197 C198 1.395 . S
C197 C199 1.391 . S
C198 C197 1.395 . S
C198 C201 1.390 . S
C199 C197 1.391 . S
C199 C203 1.387 . S
C199 C204 1.491 1_545 S
H200 C201 0.950 . S
C201 C198 1.390 . S
C201 H200 0.950 . S
C201 C202 1.378 . S
C202 C201 1.378 . S
C202 C203 1.409 . S
C203 C199 1.387 . S
C203 C202 1.409 . S
C203 H205 0.951 . S
C204 C199 1.491 1_565 S
C204 C206 1.382 . S
C204 C208 1.404 . S
H205 C203 0.951 . S
C206 C204 1.382 . S
C206 C207 1.390 . S
C206 H211 0.949 . S
C207 C206 1.390 . S
C207 C212 1.399 . S
C208 C204 1.404 . S
C208 H209 0.950 . S
C208 C210 1.375 . S
H209 C208 0.950 . S
C210 C208 1.375 . S
C210 C212 1.382 . S
C210 H214 0.950 . S
H211 C206 0.949 . S
C212 C207 1.399 . S
C212 C210 1.382 . S
C212 H213 0.952 . S
H213 C212 0.952 . S
H214 C210 0.950 . S
H215 C216 0.949 . S
C216 H215 0.949 . S
C216 C217 1.395 . S
C216 C218 1.391 . S
C217 C216 1.395 . S
C217 C220 1.390 . S
C218 C216 1.391 . S
C218 C222 1.387 . S
C218 C223 1.491 . S
H219 C220 0.950 . S
C220 C217 1.390 . S
C220 H219 0.950 . S
C220 C221 1.378 . S
C221 C220 1.378 . S
C221 C222 1.409 . S
C222 C218 1.387 . S
C222 C221 1.409 . S
C222 H224 0.951 . S
C223 C218 1.491 . S
C223 C225 1.382 . S
C223 C227 1.404 . S
H224 C222 0.951 . S
C225 C223 1.382 . S
C225 C226 1.390 . S
C225 H230 0.949 . S
C226 C225 1.390 . S
C226 C231 1.399 . S
C227 C223 1.404 . S
C227 H228 0.950 . S
C227 C229 1.375 . S
H228 C227 0.950 . S
C229 C227 1.375 . S
C229 C231 1.382 . S
C229 H233 0.950 . S
H230 C225 0.949 . S
C231 C226 1.399 . S
C231 C229 1.382 . S
C231 H232 0.952 . S
H232 C231 0.952 . S
H233 C229 0.950 . S
H234 C242 0.950 . S
H235 C247 0.950 . S
H236 C244 0.950 . S
H237 C246 0.950 . S
H238 C248 0.950 . S
H239 C250 0.950 . S
H240 C252 0.950 . S
H241 C253 0.950 . S
C242 H234 0.950 . S
C242 C243 1.386 . S
C242 C244 1.391 . S
C243 C242 1.386 . S
C243 C247 1.393 . S
C244 H236 0.950 . S
C244 C242 1.391 . S
C244 C245 1.400 . S
C245 C244 1.400 . S
C245 C246 1.398 . S
C245 C251 1.491 . S
C246 H237 0.950 . S
C246 C245 1.398 . S
C246 C247 1.391 . S
C247 H235 0.950 . S
C247 C243 1.393 . S
C247 C246 1.391 . S
C248 H238 0.950 . S
C248 C249 1.386 . S
C248 C250 1.391 . S
C249 C248 1.386 . S
C249 C253 1.393 . S
C250 H239 0.950 . S
C250 C248 1.391 . S
C250 C251 1.400 . S
C251 C245 1.491 . S
C251 C250 1.400 . S
C251 C252 1.398 . S
C252 H240 0.950 . S
C252 C251 1.398 . S
C252 C253 1.391 . S
C253 H241 0.950 . S
C253 C249 1.393 . S
C253 C252 1.391 . S
H254 C262 0.950 . S
H255 C267 0.950 . S
H256 C264 0.950 . S
H257 C266 0.950 . S
H258 C268 0.950 . S
H259 C270 0.950 . S
H260 C272 0.950 . S
H261 C273 0.950 . S
C262 H254 0.950 . S
C262 C263 1.386 . S
C262 C264 1.391 . S
C263 C262 1.386 . S
C263 C267 1.393 . S
C264 H256 0.950 . S
C264 C262 1.391 . S
C264 C265 1.400 . S
C265 C264 1.400 . S
C265 C266 1.398 . S
C265 C271 1.491 . S
C266 H257 0.950 . S
C266 C265 1.398 . S
C266 C267 1.391 . S
C267 H255 0.950 . S
C267 C263 1.393 . S
C267 C266 1.391 . S
C268 H258 0.950 . S
C268 C269 1.386 . S
C268 C270 1.391 . S
C269 C268 1.386 . S
C269 C273 1.393 . S
C270 H259 0.950 . S
C270 C268 1.391 . S
C270 C271 1.400 . S
C271 C265 1.491 . S
C271 C270 1.400 . S
C271 C272 1.398 . S
C272 H260 0.950 . S
C272 C271 1.398 . S
C272 C273 1.391 . S
C273 H261 0.950 . S
C273 C269 1.393 . S
C273 C272 1.391 . S
H274 C282 0.950 . S
H275 C287 0.950 . S
H276 C284 0.950 . S
H277 C286 0.950 . S
H278 C288 0.950 . S
H279 C290 0.950 . S
H280 C292 0.950 . S
H281 C293 0.950 . S
C282 H274 0.950 . S
C282 C283 1.386 . S
C282 C284 1.391 . S
C283 C282 1.386 . S
C283 C287 1.393 . S
C284 H276 0.950 . S
C284 C282 1.391 . S
C284 C285 1.400 . S
C285 C284 1.400 . S
C285 C286 1.398 . S
C285 C291 1.491 . S
C286 H277 0.950 . S
C286 C285 1.398 . S
C286 C287 1.391 . S
C287 H275 0.950 . S
C287 C283 1.393 . S
C287 C286 1.391 . S
C288 H278 0.950 . S
C288 C289 1.386 . S
C288 C290 1.391 . S
C289 C288 1.386 . S
C289 C293 1.393 . S
C290 H279 0.950 . S
C290 C288 1.391 . S
C290 C291 1.400 . S
C291 C285 1.491 . S
C291 C290 1.400 . S
C291 C292 1.398 . S
C292 H280 0.950 . S
C292 C291 1.398 . S
C292 C293 1.391 . S
C293 H281 0.950 . S
C293 C289 1.393 . S
C293 C292 1.391 . S
H294 C302 0.950 . S
H295 C307 0.950 . S
H296 C304 0.950 . S
H297 C306 0.950 . S
H298 C308 0.950 . S
H299 C310 0.950 . S
H300 C312 0.950 . S
H301 C313 0.950 . S
C302 H294 0.950 . S
C302 C303 1.386 . S
C302 C304 1.391 . S
C303 C302 1.386 . S
C303 C307 1.393 . S
C304 H296 0.950 . S
C304 C302 1.391 . S
C304 C305 1.400 . S
C305 C304 1.400 . S
C305 C306 1.398 . S
C305 C311 1.491 . S
C306 H297 0.950 . S
C306 C305 1.398 . S
C306 C307 1.391 . S
C307 H295 0.950 . S
C307 C303 1.393 . S
C307 C306 1.391 . S
C308 H298 0.950 . S
C308 C309 1.386 . S
C308 C310 1.391 . S
C309 C308 1.386 . S
C309 C313 1.393 . S
C310 H299 0.950 . S
C310 C308 1.391 . S
C310 C311 1.400 . S
C311 C305 1.491 . S
C311 C310 1.400 . S
C311 C312 1.398 . S
C312 H300 0.950 . S
C312 C311 1.398 . S
C312 C313 1.391 . S
C313 H301 0.950 . S
C313 C309 1.393 . S
C313 C312 1.391 . S
H314 C322 0.950 . S
H315 C327 0.950 . S
H316 C324 0.950 . S
H317 C326 0.950 . S
H318 C328 0.950 . S
H319 C330 0.950 . S
H320 C332 0.950 . S
H321 C333 0.950 . S
C322 H314 0.950 . S
C322 C323 1.386 . S
C322 C324 1.391 . S
C323 C322 1.386 . S
C323 C327 1.393 . S
C324 H316 0.950 . S
C324 C322 1.391 . S
C324 C325 1.400 . S
C325 C324 1.400 . S
C325 C326 1.398 . S
C325 C331 1.491 . S
C326 H317 0.950 . S
C326 C325 1.398 . S
C326 C327 1.391 . S
C327 H315 0.950 . S
C327 C323 1.393 . S
C327 C326 1.391 . S
C328 H318 0.950 . S
C328 C329 1.386 . S
C328 C330 1.391 . S
C329 C328 1.386 . S
C329 C333 1.393 . S
C330 H319 0.950 . S
C330 C328 1.391 . S
C330 C331 1.400 . S
C331 C325 1.491 . S
C331 C330 1.400 . S
C331 C332 1.398 . S
C332 H320 0.950 . S
C332 C331 1.398 . S
C332 C333 1.391 . S
C333 H321 0.950 . S
C333 C329 1.393 . S
C333 C332 1.391 . S
H334 C342 0.950 . S
H335 C347 0.950 . S
H336 C344 0.950 . S
H337 C346 0.950 . S
H338 C348 0.950 . S
H339 C350 0.950 . S
H340 C352 0.950 . S
H341 C353 0.950 . S
C342 H334 0.950 . S
C342 C343 1.386 . S
C342 C344 1.391 . S
C343 C342 1.386 . S
C343 C347 1.393 . S
C344 H336 0.950 . S
C344 C342 1.391 . S
C344 C345 1.400 . S
C345 C344 1.400 . S
C345 C346 1.398 . S
C345 C351 1.491 . S
C346 H337 0.950 . S
C346 C345 1.398 . S
C346 C347 1.391 . S
C347 H335 0.950 . S
C347 C343 1.393 . S
C347 C346 1.391 . S
C348 H338 0.950 . S
C348 C349 1.386 . S
C348 C350 1.391 . S
C349 C348 1.386 . S
C349 C353 1.393 . S
C350 H339 0.950 . S
C350 C348 1.391 . S
C350 C351 1.400 . S
C351 C345 1.491 . S
C351 C350 1.400 . S
C351 C352 1.398 . S
C352 H340 0.950 . S
C352 C351 1.398 . S
C352 C353 1.391 . S
C353 H341 0.950 . S
C353 C349 1.393 . S
C353 C352 1.391 . S
H354 C362 0.950 . S
H355 C367 0.950 . S
H356 C364 0.950 . S
H357 C366 0.950 . S
H358 C368 0.950 . S
H359 C370 0.950 . S
H360 C372 0.950 . S
H361 C373 0.950 . S
C362 H354 0.950 . S
C362 C363 1.386 . S
C362 C364 1.391 . S
C363 C362 1.386 . S
C363 C367 1.393 . S
C364 H356 0.950 . S
C364 C362 1.391 . S
C364 C365 1.400 . S
C365 C364 1.400 . S
C365 C366 1.398 . S
C365 C371 1.491 . S
C366 H357 0.950 . S
C366 C365 1.398 . S
C366 C367 1.391 . S
C367 H355 0.950 . S
C367 C363 1.393 . S
C367 C366 1.391 . S
C368 H358 0.950 . S
C368 C369 1.386 . S
C368 C370 1.391 . S
C369 C368 1.386 . S
C369 C373 1.393 . S
C370 H359 0.950 . S
C370 C368 1.391 . S
C370 C371 1.400 . S
C371 C365 1.491 . S
C371 C370 1.400 . S
C371 C372 1.398 . S
C372 H360 0.950 . S
C372 C371 1.398 . S
C372 C373 1.391 . S
C373 H361 0.950 . S
C373 C369 1.393 . S
C373 C372 1.391 . S
H374 C382 0.950 . S
H375 C387 0.950 . S
H376 C384 0.950 . S
H377 C386 0.950 . S
H378 C388 0.950 . S
H379 C390 0.950 . S
H380 C392 0.950 . S
H381 C393 0.950 . S
C382 H374 0.950 . S
C382 C383 1.386 . S
C382 C384 1.391 . S
C383 C382 1.386 . S
C383 C387 1.393 . S
C384 H376 0.950 . S
C384 C382 1.391 . S
C384 C385 1.400 . S
C385 C384 1.400 . S
C385 C386 1.398 . S
C385 C391 1.491 . S
C386 H377 0.950 . S
C386 C385 1.398 . S
C386 C387 1.391 . S
C387 H375 0.950 . S
C387 C383 1.393 . S
C387 C386 1.391 . S
C388 H378 0.950 . S
C388 C389 1.386 . S
C388 C390 1.391 . S
C389 C388 1.386 . S
C389 C393 1.393 . S
C390 H379 0.950 . S
C390 C388 1.391 . S
C390 C391 1.400 . S
C391 C385 1.491 . S
C391 C390 1.400 . S
C391 C392 1.398 . S
C392 H380 0.950 . S
C392 C391 1.398 . S
C392 C393 1.391 . S
C393 H381 0.950 . S
C393 C389 1.393 . S
C393 C392 1.391 . S
H394 C402 0.950 . S
H395 C407 0.950 . S
H396 C404 0.950 . S
H397 C406 0.950 . S
H398 C408 0.950 . S
H399 C410 0.950 . S
H400 C412 0.950 . S
H401 C413 0.950 . S
C402 H394 0.950 . S
C402 C403 1.386 . S
C402 C404 1.391 . S
C403 C402 1.386 . S
C403 C407 1.393 . S
C404 H396 0.950 . S
C404 C402 1.391 . S
C404 C405 1.400 . S
C405 C404 1.400 . S
C405 C406 1.398 . S
C405 C411 1.491 . S
C406 H397 0.950 . S
C406 C405 1.398 . S
C406 C407 1.391 . S
C407 H395 0.950 . S
C407 C403 1.393 . S
C407 C406 1.391 . S
C408 H398 0.950 . S
C408 C409 1.386 . S
C408 C410 1.391 1_545 S
C409 C408 1.386 . S
C409 C413 1.393 1_545 S
C410 H399 0.950 . S
C410 C408 1.391 1_565 S
C410 C411 1.400 . S
C411 C405 1.491 . S
C411 C410 1.400 . S
C411 C412 1.398 . S
C412 H400 0.950 . S
C412 C411 1.398 . S
C412 C413 1.391 . S
C413 H401 0.950 . S
C413 C409 1.393 1_565 S
C413 C412 1.391 . S
H414 C422 0.950 . S
H415 C427 0.950 . S
H416 C424 0.950 . S
H417 C426 0.950 . S
H418 C428 0.950 . S
H419 C430 0.950 . S
H420 C432 0.950 . S
H421 C433 0.950 . S
C422 H414 0.950 . S
C422 C423 1.386 . S
C422 C424 1.391 . S
C423 C422 1.386 . S
C423 C427 1.393 . S
C424 H416 0.950 . S
C424 C422 1.391 . S
C424 C425 1.400 . S
C425 C424 1.400 . S
C425 C426 1.398 . S
C425 C431 1.491 . S
C426 H417 0.950 . S
C426 C425 1.398 . S
C426 C427 1.391 . S
C427 H415 0.950 . S
C427 C423 1.393 . S
C427 C426 1.391 . S
C428 H418 0.950 . S
C428 C429 1.386 . S
C428 C430 1.391 . S
C429 C428 1.386 . S
C429 C433 1.393 . S
C430 H419 0.950 . S
C430 C428 1.391 . S
C430 C431 1.400 . S
C431 C425 1.491 . S
C431 C430 1.400 . S
C431 C432 1.398 . S
C432 H420 0.950 . S
C432 C431 1.398 . S
C432 C433 1.391 . S
C433 H421 0.950 . S
C433 C429 1.393 . S
C433 C432 1.391 . S
H434 C442 0.950 . S
H435 C447 0.950 . S
H436 C444 0.950 . S
H437 C446 0.950 . S
H438 C448 0.950 . S
H439 C450 0.950 . S
H440 C452 0.950 . S
H441 C453 0.950 . S
C442 H434 0.950 . S
C442 C443 1.386 . S
C442 C444 1.391 . S
C443 C442 1.386 . S
C443 C447 1.393 . S
C444 H436 0.950 . S
C444 C442 1.391 . S
C444 C445 1.400 . S
C445 C444 1.400 . S
C445 C446 1.398 . S
C445 C451 1.491 . S
C446 H437 0.950 . S
C446 C445 1.398 . S
C446 C447 1.391 . S
C447 H435 0.950 . S
C447 C443 1.393 . S
C447 C446 1.391 . S
C448 H438 0.950 . S
C448 C449 1.386 . S
C448 C450 1.391 . S
C449 C448 1.386 . S
C449 C453 1.393 . S
C450 H439 0.950 . S
C450 C448 1.391 . S
C450 C451 1.400 . S
C451 C445 1.491 . S
C451 C450 1.400 . S
C451 C452 1.398 . S
C452 H440 0.950 . S
C452 C451 1.398 . S
C452 C453 1.391 . S
C453 H441 0.950 . S
C453 C449 1.393 . S
C453 C452 1.391 . S
H454 C462 0.950 . S
H455 C467 0.950 . S
H456 C464 0.950 . S
H457 C466 0.950 . S
H458 C468 0.950 . S
H459 C470 0.950 . S
H460 C472 0.950 . S
H461 C473 0.950 . S
C462 H454 0.950 . S
C462 C463 1.386 . S
C462 C464 1.391 . S
C463 C462 1.386 . S
C463 C467 1.393 . S
C464 H456 0.950 . S
C464 C462 1.391 . S
C464 C465 1.400 . S
C465 C464 1.400 . S
C465 C466 1.398 . S
C465 C471 1.491 . S
C466 H457 0.950 . S
C466 C465 1.398 . S
C466 C467 1.391 . S
C467 H455 0.950 . S
C467 C463 1.393 . S
C467 C466 1.391 . S
C468 H458 0.950 . S
C468 C469 1.386 . S
C468 C470 1.391 . S
C469 C468 1.386 . S
C469 C473 1.393 . S
C470 H459 0.950 . S
C470 C468 1.391 . S
C470 C471 1.400 . S
C471 C465 1.491 . S
C471 C470 1.400 . S
C471 C472 1.398 . S
C472 H460 0.950 . S
C472 C471 1.398 . S
C472 C473 1.391 . S
C473 H461 0.950 . S
C473 C469 1.393 . S
C473 C472 1.391 . S
H474 C482 0.950 . S
H475 C487 0.950 . S
H476 C484 0.950 . S
H477 C486 0.950 . S
H478 C488 0.955 1_655 S
H479 C490 0.950 1_554 S
H480 C492 0.950 . S
H481 C493 0.950 . S
C482 H474 0.950 . S
C482 C483 1.386 . S
C482 C484 1.391 . S
C483 C482 1.386 . S
C483 C487 1.393 . S
C484 H476 0.950 . S
C484 C482 1.391 . S
C484 C485 1.400 . S
C485 C484 1.400 . S
C485 C486 1.398 . S
C485 C491 1.491 1_554 S
C486 H477 0.950 . S
C486 C485 1.398 . S
C486 C487 1.391 . S
C487 H475 0.950 . S
C487 C483 1.393 . S
C487 C486 1.391 . S
C488 H478 0.955 1_455 S
C488 C489 1.386 . S
C488 C490 1.391 . S
C489 C488 1.386 . S
C489 C493 1.393 . S
C490 H479 0.950 1_556 S
C490 C488 1.391 . S
C490 C491 1.400 . S
C491 C485 1.491 1_556 S
C491 C490 1.400 . S
C491 C492 1.398 . S
C492 H480 0.950 . S
C492 C491 1.398 . S
C492 C493 1.391 . S
C493 H481 0.950 . S
C493 C489 1.393 . S
C493 C492 1.391 . S
H494 C502 0.950 . S
H495 C507 0.950 . S
H496 C504 0.950 . S
H497 C506 0.950 . S
H498 C508 0.950 . S
H499 C510 0.950 . S
H500 C512 0.950 . S
H501 C513 0.950 . S
C502 H494 0.950 . S
C502 C503 1.386 . S
C502 C504 1.391 . S
C503 C502 1.386 . S
C503 C507 1.393 . S
C504 H496 0.950 . S
C504 C502 1.391 . S
C504 C505 1.400 . S
C505 C504 1.400 . S
C505 C506 1.398 . S
C505 C511 1.491 . S
C506 H497 0.950 . S
C506 C505 1.398 . S
C506 C507 1.391 . S
C507 H495 0.950 . S
C507 C503 1.393 . S
C507 C506 1.391 . S
C508 H498 0.950 . S
C508 C509 1.386 . S
C508 C510 1.391 . S
C509 C508 1.386 . S
C509 C513 1.393 . S
C510 H499 0.950 . S
C510 C508 1.391 . S
C510 C511 1.400 . S
C511 C505 1.491 . S
C511 C510 1.400 . S
C511 C512 1.398 . S
C512 H500 0.950 . S
C512 C511 1.398 . S
C512 C513 1.391 . S
C513 H501 0.950 . S
C513 C509 1.393 . S
C513 C512 1.391 . S
H514 C522 0.950 . S
H515 C527 0.950 . S
H516 C524 0.950 . S
H517 C526 0.950 . S
H518 C528 0.950 . S
H519 C530 0.950 . S
H520 C532 0.950 . S
H521 C533 0.950 . S
C522 H514 0.950 . S
C522 C523 1.386 . S
C522 C524 1.391 . S
C523 C522 1.386 . S
C523 C527 1.393 . S
C524 H516 0.950 . S
C524 C522 1.391 . S
C524 C525 1.400 . S
C525 C524 1.400 . S
C525 C526 1.398 . S
C525 C531 1.491 . S
C526 H517 0.950 . S
C526 C525 1.398 . S
C526 C527 1.391 . S
C527 H515 0.950 . S
C527 C523 1.393 . S
C527 C526 1.391 . S
C528 H518 0.950 . S
C528 C529 1.386 . S
C528 C530 1.391 . S
C529 C528 1.386 . S
C529 C533 1.393 . S
C530 H519 0.950 . S
C530 C528 1.391 . S
C530 C531 1.400 . S
C531 C525 1.491 . S
C531 C530 1.400 . S
C531 C532 1.398 . S
C532 H520 0.950 . S
C532 C531 1.398 . S
C532 C533 1.391 . S
C533 H521 0.950 . S
C533 C529 1.393 . S
C533 C532 1.391 . S
H534 C542 0.950 . S
H535 C547 0.950 . S
H536 C544 0.950 . S
H537 C546 0.950 . S
H538 C548 0.950 . S
H539 C550 0.950 . S
H540 C552 0.950 . S
H541 C553 0.950 . S
C542 H534 0.950 . S
C542 C543 1.386 . S
C542 C544 1.391 . S
C543 C542 1.386 . S
C543 C547 1.393 . S
C544 H536 0.950 . S
C544 C542 1.391 . S
C544 C545 1.400 . S
C545 C544 1.400 . S
C545 C546 1.398 . S
C545 C551 1.491 . S
C546 H537 0.950 . S
C546 C545 1.398 . S
C546 C547 1.391 . S
C547 H535 0.950 . S
C547 C543 1.393 . S
C547 C546 1.391 . S
C548 H538 0.950 . S
C548 C549 1.386 . S
C548 C550 1.391 . S
C549 C548 1.386 . S
C549 C553 1.393 . S
C550 H539 0.950 . S
C550 C548 1.391 . S
C550 C551 1.400 . S
C551 C545 1.491 . S
C551 C550 1.400 . S
C551 C552 1.398 . S
C552 H540 0.950 . S
C552 C551 1.398 . S
C552 C553 1.391 . S
C553 H541 0.950 . S
C553 C549 1.393 . S
C553 C552 1.391 . S
H554 C562 0.950 . S
H555 C567 0.950 . S
H556 C564 0.950 . S
H557 C566 0.950 . S
H558 C568 0.950 . S
H559 C570 0.979 . S
H560 C572 0.950 . S
H561 C573 0.950 . S
C562 H554 0.950 . S
C562 C563 1.386 . S
C562 C564 1.391 . S
C563 C562 1.386 . S
C563 C567 1.393 . S
C564 H556 0.950 . S
C564 C562 1.391 . S
C564 C565 1.400 . S
C565 C564 1.400 . S
C565 C566 1.398 . S
C565 C571 1.491 1_556 S
C566 H557 0.950 . S
C566 C565 1.398 . S
C566 C567 1.391 . S
C567 H555 0.950 . S
C567 C563 1.393 . S
C567 C566 1.391 . S
C568 H558 0.950 . S
C568 C569 1.386 . S
C568 C570 1.391 . S
C569 C568 1.386 . S
C569 C573 1.393 . S
C570 H559 0.979 . S
C570 C568 1.391 . S
C570 C571 1.400 . S
C571 C565 1.491 1_554 S
C571 C570 1.400 . S
C571 C572 1.398 . S
C572 H560 0.950 . S
C572 C571 1.398 . S
C572 C573 1.391 . S
C573 H561 0.950 . S
C573 C569 1.393 . S
C573 C572 1.391 . S
H574 C582 0.950 1_655 S
H575 C587 0.950 . S
H576 C584 0.950 1_655 S
H577 C586 0.950 . S
H578 C588 0.950 . S
H579 C590 0.950 . S
H580 C592 0.950 1_655 S
H581 C593 0.950 1_655 S
C582 H574 0.950 1_455 S
C582 C583 1.386 . S
C582 C584 1.391 . S
C583 C582 1.386 . S
C583 C587 1.393 . S
C584 H576 0.950 1_455 S
C584 C582 1.391 . S
C584 C585 1.400 . S
C585 C584 1.400 . S
C585 C586 1.398 . S
C585 C591 1.491 . S
C586 H577 0.950 . S
C586 C585 1.398 . S
C586 C587 1.391 . S
C587 H575 0.950 . S
C587 C583 1.393 . S
C587 C586 1.391 . S
C588 H578 0.950 . S
C588 C589 1.386 . S
C588 C590 1.391 . S
C589 C588 1.386 . S
C589 C593 1.393 . S
C590 H579 0.950 . S
C590 C588 1.391 . S
C590 C591 1.400 . S
C591 C585 1.491 . S
C591 C590 1.400 . S
C591 C592 1.398 . S
C592 H580 0.950 1_455 S
C592 C591 1.398 . S
C592 C593 1.391 . S
C593 H581 0.950 1_455 S
C593 C589 1.393 . S
C593 C592 1.391 . S
C243 C19 3.111 . S
C249 C226 3.037 . S
C263 C49 3.196 . S
C269 C188 3.122 . S
C283 C99 3.102 . S
C289 C207 3.032 . S
C303 C9 3.002 . S
C309 C221 2.966 . S
C329 C183 2.918 . S
C323 C59 2.941 . S
C349 C202 2.968 . S
C343 C89 3.005 . S
C363 C55 0.609 . S
C369 C150 0.691 . S
C383 C85 0.327 . S
C389 C164 0.214 . S
C403 C15 0.124 . S
C409 C126 0.237 . S
C429 C145 0.283 . S
C423 C45 0.353 . S
C449 C169 0.636 . S
C443 C95 0.500 . S
C463 C5 0.428 . S
C469 C131 0.516 . S
C489 C160 1.401 . S
C483 C18 1.405 . S
C503 C58 1.259 . S
C509 C122 1.327 . S
C523 C98 1.341 . S
C529 C141 1.346 . S
C549 C198 1.724 . S
C543 C48 1.694 . S
C569 C217 1.753 . S
C563 C88 1.684 . S
C583 C8 1.682 . S
C589 C179 1.817 . S
