# Generated by pormake.
# Topology ctn, (3,4)-cn, num edge types: 1
# Building blocks:
#     Node 0, Type 0, BuildingBlock: BETDIP_clean_linker_0, # of connection points: 3
#     Node 1, Type 0, BuildingBlock: BETDIP_clean_linker_0, # of connection points: 3
#     Node 2, Type 0, BuildingBlock: BETDIP_clean_linker_0, # of connection points: 3
#     Node 3, Type 0, BuildingBlock: BETDIP_clean_linker_0, # of connection points: 3
#     Node 4, Type 0, BuildingBlock: BETDIP_clean_linker_0, # of connection points: 3
#     Node 5, Type 0, BuildingBlock: BETDIP_clean_linker_0, # of connection points: 3
#     Node 6, Type 0, BuildingBlock: BETDIP_clean_linker_0, # of connection points: 3
#     Node 7, Type 0, BuildingBlock: BETDIP_clean_linker_0, # of connection points: 3
#     Node 8, Type 0, BuildingBlock: BETDIP_clean_linker_0, # of connection points: 3
#     Node 9, Type 0, BuildingBlock: BETDIP_clean_linker_0, # of connection points: 3
#     Node 10, Type 0, BuildingBlock: BETDIP_clean_linker_0, # of connection points: 3
#     Node 11, Type 0, BuildingBlock: BETDIP_clean_linker_0, # of connection points: 3
#     Node 12, Type 0, BuildingBlock: BETDIP_clean_linker_0, # of connection points: 3
#     Node 13, Type 0, BuildingBlock: BETDIP_clean_linker_0, # of connection points: 3
#     Node 14, Type 0, BuildingBlock: BETDIP_clean_linker_0, # of connection points: 3
#     Node 15, Type 0, BuildingBlock: BETDIP_clean_linker_0, # of connection points: 3
#     Node 16, Type 1, BuildingBlock: TATPOV_clean_sbu_0, # of connection points: 4
#     Node 17, Type 1, BuildingBlock: TATPOV_clean_sbu_0, # of connection points: 4
#     Node 18, Type 1, BuildingBlock: TATPOV_clean_sbu_0, # of connection points: 4
#     Node 19, Type 1, BuildingBlock: TATPOV_clean_sbu_0, # of connection points: 4
#     Node 20, Type 1, BuildingBlock: TATPOV_clean_sbu_0, # of connection points: 4
#     Node 21, Type 1, BuildingBlock: TATPOV_clean_sbu_0, # of connection points: 4
#     Node 22, Type 1, BuildingBlock: TATPOV_clean_sbu_0, # of connection points: 4
#     Node 23, Type 1, BuildingBlock: TATPOV_clean_sbu_0, # of connection points: 4
#     Node 24, Type 1, BuildingBlock: TATPOV_clean_sbu_0, # of connection points: 4
#     Node 25, Type 1, BuildingBlock: TATPOV_clean_sbu_0, # of connection points: 4
#     Node 26, Type 1, BuildingBlock: TATPOV_clean_sbu_0, # of connection points: 4
#     Node 27, Type 1, BuildingBlock: TATPOV_clean_sbu_0, # of connection points: 4
#     Edge 28, Type (0, 1), None
#     Edge 29, Type (0, 1), None
#     Edge 30, Type (0, 1), None
#     Edge 31, Type (0, 1), None
#     Edge 32, Type (0, 1), None
#     Edge 33, Type (0, 1), None
#     Edge 34, Type (0, 1), None
#     Edge 35, Type (0, 1), None
#     Edge 36, Type (0, 1), None
#     Edge 37, Type (0, 1), None
#     Edge 38, Type (0, 1), None
#     Edge 39, Type (0, 1), None
#     Edge 40, Type (0, 1), None
#     Edge 41, Type (0, 1), None
#     Edge 42, Type (0, 1), None
#     Edge 43, Type (0, 1), None
#     Edge 44, Type (0, 1), None
#     Edge 45, Type (0, 1), None
#     Edge 46, Type (0, 1), None
#     Edge 47, Type (0, 1), None
#     Edge 48, Type (0, 1), None
#     Edge 49, Type (0, 1), None
#     Edge 50, Type (0, 1), None
#     Edge 51, Type (0, 1), None
#     Edge 52, Type (0, 1), None
#     Edge 53, Type (0, 1), None
#     Edge 54, Type (0, 1), None
#     Edge 55, Type (0, 1), None
#     Edge 56, Type (0, 1), None
#     Edge 57, Type (0, 1), None
#     Edge 58, Type (0, 1), None
#     Edge 59, Type (0, 1), None
#     Edge 60, Type (0, 1), None
#     Edge 61, Type (0, 1), None
#     Edge 62, Type (0, 1), None
#     Edge 63, Type (0, 1), None
#     Edge 64, Type (0, 1), None
#     Edge 65, Type (0, 1), None
#     Edge 66, Type (0, 1), None
#     Edge 67, Type (0, 1), None
#     Edge 68, Type (0, 1), None
#     Edge 69, Type (0, 1), None
#     Edge 70, Type (0, 1), None
#     Edge 71, Type (0, 1), None
#     Edge 72, Type (0, 1), None
#     Edge 73, Type (0, 1), None
#     Edge 74, Type (0, 1), None
#     Edge 75, Type (0, 1), None
# Relax obj value: 0.088
# Max RMSD: 0.192
# Mean RMSD: 0.111
data_MOF--net-ctn--node1-TATPOV_clean_sbu_0--node2-BETDIP_clean_linker_0--edge1-none
_symmetry_space_group_name_H-M    P1
_symmetry_Int_Tables_number       1
_symmetry_cell_setting            triclinic
loop_
_symmetry_equiv_pos_as_xyz
'x, y, z'
_cell_length_a     22.047911
_cell_length_b     21.695132
_cell_length_c     26.061857
_cell_angle_alpha  95.113475
_cell_angle_beta   99.656724
_cell_angle_gamma 92.822533
loop_
_atom_site_label
_atom_site_type_symbol
_atom_site_fract_x
_atom_site_fract_y
_atom_site_fract_z
_atom_type_partial_charge
H0 H 1.00009 0.06448 0.06145 0.0
H1 H 0.13072 0.9926 0.97087 0.0
H2 H 0.12149 0.92716 0.1204 0.0
H3 H 0.05269 0.01707 0.9056 0.0
C4 C 0.04563 0.06299 0.92303 0.0
C5 C 0.03594 0.033 0.057 0.0
C6 C 0.05605 0.99492 0.09653 0.0
C7 C 0.06154 0.03083 0.01124 0.0
C8 C 0.10883 0.9915 0.00503 0.0
C9 C 0.13145 0.95452 0.04421 0.0
C10 C 0.10437 0.95583 0.08985 0.0
N11 N 0.0441 0.07365 0.97439 0.0
H12 H 0.23764 0.62948 0.14451 0.0
H13 H 0.40255 0.73799 0.2129 0.0
H14 H 0.28325 0.6695 0.31294 0.0
H15 H 0.25127 0.7439 0.10648 0.0
C16 C 0.29678 0.73576 0.09726 0.0
C17 C 0.2684 0.65003 0.17937 0.0
C18 C 0.25422 0.64355 0.22948 0.0
C19 C 0.3221 0.68404 0.17412 0.0
C20 C 0.3614 0.71119 0.21799 0.0
C21 C 0.34695 0.708 0.2677 0.0
C22 C 0.29352 0.67355 0.2741 0.0
N23 N 0.3342 0.7001 0.12554 0.0
H24 H 0.97885 0.56238 0.95236 0.0
H25 H 0.06175 0.46558 0.07811 0.0
H26 H 0.93307 0.60321 0.10641 0.0
H27 H 0.04128 0.38651 0.01304 0.0
C28 C 0.04131 0.40646 0.97627 0.0
C29 C 0.98507 0.55691 -0.00615 0.0
C30 C 0.94956 0.58903 0.02602 0.0
C31 C 0.02163 0.51029 0.01146 0.0
C32 C 0.03164 0.50086 0.06431 0.0
C33 C 0.00232 0.53571 0.09954 0.0
C34 C 0.95967 0.57951 0.08031 0.0
N35 N 0.03753 0.46746 0.97263 0.0
H36 H 0.67638 0.733 0.15263 0.0
H37 H 0.71917 0.90943 0.24083 0.0
H38 H 0.83005 0.8503 0.12608 0.0
H39 H 0.67208 0.73782 0.26721 0.0
C40 C 0.63645 0.7701 0.25835 0.0
C41 C 0.70601 0.77528 0.16201 0.0
C42 C 0.75384 0.7867 0.13402 0.0
C43 C 0.69373 0.82023 0.1999 0.0
C44 C 0.73009 0.87567 0.21106 0.0
C45 C 0.78104 0.8867 0.18626 0.0
C46 C 0.79186 0.84233 0.14649 0.0
N47 N 0.6422 0.81286 0.225 0.0
H48 H 0.98332 0.94686 0.40477 0.0
H49 H 0.13686 0.04088 0.50911 0.0
H50 H 0.11555 0.05824 0.34304 0.0
H51 H 0.11212 0.94479 0.54995 0.0
C52 C 0.062 0.94078 0.54148 0.0
C53 C 0.0256 0.97621 0.40992 0.0
C54 C 0.04541 1.00022 0.36707 0.0
C55 C 0.0575 0.99057 0.46044 0.0
C56 C 0.11191 0.02946 0.46964 0.0
C57 C 0.13368 0.05333 0.42704 0.0
C58 C 0.10015 0.03842 0.37576 0.0
N59 N 0.03116 0.96471 0.50013 0.0
H60 H 0.26605 0.83939 0.81665 0.0
H61 H 0.31181 0.69891 0.70483 0.0
H62 H 0.40336 0.71249 0.86462 0.0
H63 H 0.24895 0.74719 0.6453 0.0
C64 C 0.21602 0.76507 0.66858 0.0
C65 C 0.2945 0.80199 0.8074 0.0
C66 C 0.33695 0.78089 0.84687 0.0
C67 C 0.28578 0.77346 0.75625 0.0
C68 C 0.32083 0.72355 0.74355 0.0
C69 C 0.36325 0.70102 0.78249 0.0
C70 C 0.37187 0.73077 0.83395 0.0
N71 N 0.23531 0.791 0.7209 0.0
H72 H 0.99669 0.67898 0.47579 0.0
H73 H 0.96298 0.48156 0.45137 0.0
H74 H 0.9127 0.58147 0.58632 0.0
H75 H 0.93158 0.51308 0.36951 0.0
C76 C 0.97299 0.54148 0.36726 0.0
C77 C 0.97991 0.63609 0.48859 0.0
C78 C 0.95649 0.63666 0.53542 0.0
C79 C 0.9801 0.58076 0.45732 0.0
C80 C 0.96069 0.52506 0.47473 0.0
C81 C 0.93568 0.5246 0.52052 0.0
C82 C 0.93279 0.58094 0.5511 0.0
N83 N 0.99978 0.58102 0.40826 0.0
H84 H 0.74783 0.92096 0.73601 0.0
H85 H 0.85944 0.79413 0.81953 0.0
H86 H 0.67975 0.82745 0.85638 0.0
H87 H 0.93204 0.83663 0.77977 0.0
C88 C 0.90652 0.84736 0.74255 0.0
C89 C 0.75464 0.89062 0.76715 0.0
C90 C 0.70737 0.87944 0.79547 0.0
C91 C 0.80913 0.86047 0.7755 0.0
C92 C 0.81825 0.81966 0.81447 0.0
C93 C 0.77268 0.8077 0.84472 0.0
C94 C 0.71636 0.83762 0.83482 0.0
N95 N 0.84829 0.86421 0.73785 0.0
H96 H 0.24783 0.42096 0.23601 0.0
H97 H 0.35944 0.29413 0.31953 0.0
H98 H 0.17975 0.32745 0.35638 0.0
H99 H 0.43204 0.33663 0.27977 0.0
C100 C 0.40652 0.34736 0.24255 0.0
C101 C 0.25464 0.39062 0.26715 0.0
C102 C 0.20737 0.37944 0.29547 0.0
C103 C 0.30913 0.36047 0.2755 0.0
C104 C 0.31825 0.31966 0.31447 0.0
C105 C 0.27268 0.3077 0.34472 0.0
C106 C 0.21636 0.33762 0.33482 0.0
N107 N 0.34829 0.36421 0.23785 0.0
H108 H 0.47885 0.06238 0.45236 0.0
H109 H 0.56175 0.96558 0.57811 0.0
H110 H 0.43307 0.10321 0.60641 0.0
H111 H 0.54128 0.88651 0.51304 0.0
C112 C 0.54131 0.90646 0.47627 0.0
C113 C 0.48507 0.05691 0.49385 0.0
C114 C 0.44956 0.08903 0.52602 0.0
C115 C 0.52163 1.01029 0.51146 0.0
C116 C 0.53164 1.00086 0.56431 0.0
C117 C 0.50232 0.03571 0.59954 0.0
C118 C 0.45967 0.07951 0.58031 0.0
N119 N 0.53753 0.96746 0.47263 0.0
H120 H 0.17638 0.233 0.65263 0.0
H121 H 0.21917 0.40943 0.74083 0.0
H122 H 0.33005 0.3503 0.62608 0.0
H123 H 0.17208 0.23782 0.76721 0.0
C124 C 0.13645 0.2701 0.75835 0.0
C125 C 0.20601 0.27528 0.66201 0.0
C126 C 0.25384 0.2867 0.63402 0.0
C127 C 0.19373 0.32023 0.6999 0.0
C128 C 0.23009 0.37567 0.71106 0.0
C129 C 0.28104 0.3867 0.68626 0.0
C130 C 0.29186 0.34233 0.64649 0.0
N131 N 0.1422 0.31286 0.725 0.0
H132 H 0.73764 0.12948 0.64451 0.0
H133 H 0.90255 0.23799 0.7129 0.0
H134 H 0.78325 0.1695 0.81294 0.0
H135 H 0.75127 0.2439 0.60648 0.0
C136 C 0.79678 0.23576 0.59726 0.0
C137 C 0.7684 0.15003 0.67937 0.0
C138 C 0.75422 0.14355 0.72948 0.0
C139 C 0.8221 0.18404 0.67412 0.0
C140 C 0.8614 0.21119 0.71799 0.0
C141 C 0.84695 0.208 0.7677 0.0
C142 C 0.79352 0.17355 0.7741 0.0
N143 N 0.8342 0.2001 0.62554 0.0
H144 H 0.50009 0.56448 0.56145 0.0
H145 H 0.63072 0.4926 0.47087 0.0
H146 H 0.62149 0.42716 0.6204 0.0
H147 H 0.55269 0.51707 0.4056 0.0
C148 C 0.54563 0.56299 0.42303 0.0
C149 C 0.53594 0.533 0.557 0.0
C150 C 0.55605 0.49492 0.59653 0.0
C151 C 0.56154 0.53083 0.51124 0.0
C152 C 0.60884 0.4915 0.50503 0.0
C153 C 0.63145 0.45452 0.54421 0.0
C154 C 0.60437 0.45583 0.58985 0.0
N155 N 0.5441 0.57365 0.47439 0.0
H156 H 0.48332 0.44686 0.90477 0.0
H157 H 0.63686 0.54088 0.00911 0.0
H158 H 0.61555 0.55824 0.84305 0.0
H159 H 0.61212 0.44479 0.04995 0.0
C160 C 0.562 0.44078 0.04148 0.0
C161 C 0.5256 0.47621 0.90992 0.0
C162 C 0.54541 0.50022 0.86707 0.0
C163 C 0.5575 0.49058 0.96044 0.0
C164 C 0.61191 0.52946 0.96964 0.0
C165 C 0.63368 0.55333 0.92704 0.0
C166 C 0.60015 0.53842 0.87576 0.0
N167 N 0.53116 0.46471 0.00013 0.0
H168 H 0.76605 0.33939 0.31665 0.0
H169 H 0.81181 0.19891 0.20483 0.0
H170 H 0.90336 0.21249 0.36462 0.0
H171 H 0.74895 0.24719 0.1453 0.0
C172 C 0.71602 0.26507 0.16858 0.0
C173 C 0.7945 0.30199 0.3074 0.0
C174 C 0.83695 0.28089 0.34687 0.0
C175 C 0.78578 0.27346 0.25625 0.0
C176 C 0.82083 0.22355 0.24355 0.0
C177 C 0.86325 0.20102 0.28249 0.0
C178 C 0.87187 0.23077 0.33395 0.0
N179 N 0.73531 0.291 0.2209 0.0
H180 H 0.49669 0.17898 0.97579 0.0
H181 H 0.46298 0.98156 0.95137 0.0
H182 H 0.4127 0.08147 0.08632 0.0
H183 H 0.43158 0.01308 0.86951 0.0
C184 C 0.47299 0.04148 0.86726 0.0
C185 C 0.47991 0.13609 -0.01141 0.0
C186 C 0.45649 0.13666 0.03542 0.0
C187 C 0.4801 0.08076 0.95732 0.0
C188 C 0.46069 0.02506 0.97473 0.0
C189 C 0.43568 0.0246 0.02052 0.0
C190 C 0.43279 0.08094 0.0511 0.0
N191 N 0.49978 0.08102 0.90826 0.0
Zn192 Zn 0.40454 0.83122 0.01084 0.0
Zn193 Zn 0.29001 0.87683 -0.00812 0.0
O194 O 0.28553 0.81037 0.04084 0.0
O195 O 0.3764 0.77244 0.05916 0.0
O196 O 0.20664 0.91337 -0.00477 0.0
O197 O 0.44145 0.91947 0.03424 0.0
O198 O 0.34955 0.9543 0.01357 0.0
C199 C 0.32011 0.77256 0.06357 0.0
C200 C 0.3422 0.80822 0.90191 0.0
O201 O 0.29817 0.83735 0.91737 0.0
O202 O 0.39064 0.80051 0.93389 0.0
C203 C 0.18641 0.91904 0.03868 0.0
O204 O 0.21842 0.89878 0.08024 0.0
C205 C 0.40721 0.96464 0.02966 0.0
Zn206 Zn 0.02742 0.44066 0.24005 0.0
Zn207 Zn 0.10156 0.54468 0.26278 0.0
O208 O 0.05066 0.55945 0.32 0.0
O209 O 0.98192 0.48022 0.29422 0.0
O210 O 0.16974 0.6121 0.271 0.0
O211 O 0.09792 0.38423 0.26713 0.0
O212 O 0.1559 0.47102 0.27763 0.0
C213 C 0.00193 0.52815 0.32497 0.0
C214 C 0.0156 0.52022 0.15467 0.0
O215 O 0.05234 0.55618 0.18861 0.0
O216 O 0.00328 0.46509 0.16453 0.0
C217 C 0.19988 0.60328 0.23371 0.0
O218 O 0.18192 0.55652 0.19783 0.0
C219 C 0.15035 0.41295 0.28162 0.0
Zn220 Zn 0.80503 0.63878 0.90816 0.0
Zn221 Zn 0.78174 0.69923 -0.01287 0.0
O222 O 0.86371 0.65798 0.0206 0.0
O223 O 0.8823 0.6089 0.94864 0.0
O224 O 0.77239 0.75936 0.04811 0.0
O225 O 0.8044 0.70763 0.86171 0.0
O226 O 0.77239 0.76078 0.92643 0.0
C227 C 0.89692 0.62175 -0.00225 0.0
C228 C 0.69161 0.59278 0.93466 0.0
O229 O 0.70655 0.634 0.97364 0.0
O230 O 0.7258 0.58632 0.90037 0.0
C231 C 0.76209 0.74108 0.09087 0.0
O232 O 0.75345 0.68142 0.09465 0.0
C233 C 0.78269 0.75645 0.87938 0.0
Zn234 Zn 0.88982 0.01715 0.28111 0.0
Zn235 Zn 0.93925 0.0318 0.21427 0.0
O236 O 0.89666 0.11681 0.2275 0.0
O237 O 0.89339 0.10533 0.30981 0.0
O238 O 0.98613 0.03447 0.15206 0.0
O239 O 0.95103 0.9632 0.31506 0.0
O240 O 0.00734 0.02744 0.28042 0.0
C241 C 0.88826 0.13957 0.27288 0.0
C242 C 0.82345 0.94241 0.20616 0.0
O243 O 0.8755 0.95217 0.1916 0.0
O244 O 0.81082 0.97743 0.24368 0.0
C245 C 0.02654 0.99592 0.14422 0.0
O246 O 0.04016 0.95502 0.17793 0.0
C247 C 0.0022 0.99256 0.3165 0.0
Zn248 Zn 0.30503 0.13878 0.40816 0.0
Zn249 Zn 0.28174 0.19923 0.48713 0.0
O250 O 0.36371 0.15798 0.5206 0.0
O251 O 0.3823 0.1089 0.44864 0.0
O252 O 0.27239 0.25936 0.54811 0.0
O253 O 0.3044 0.20763 0.36171 0.0
O254 O 0.27239 0.26078 0.42643 0.0
C255 C 0.39692 0.12175 0.49775 0.0
C256 C 0.19161 0.09278 0.43466 0.0
O257 O 0.20655 0.134 0.47364 0.0
O258 O 0.2258 0.08632 0.40037 0.0
C259 C 0.26209 0.24108 0.59087 0.0
O260 O 0.25345 0.18142 0.59465 0.0
C261 C 0.28269 0.25645 0.37938 0.0
Zn262 Zn 0.38982 0.51715 0.78111 0.0
Zn263 Zn 0.43925 0.5318 0.71427 0.0
O264 O 0.39666 0.61681 0.7275 0.0
O265 O 0.39339 0.60533 0.80981 0.0
O266 O 0.48613 0.53447 0.65206 0.0
O267 O 0.45103 0.4632 0.81506 0.0
O268 O 0.50734 0.52744 0.78042 0.0
C269 C 0.38826 0.63957 0.77288 0.0
C270 C 0.32345 0.44241 0.70616 0.0
O271 O 0.3755 0.45217 0.69161 0.0
O272 O 0.31082 0.47743 0.74368 0.0
C273 C 0.52654 0.49592 0.64422 0.0
O274 O 0.54016 0.45502 0.67793 0.0
C275 C 0.5022 0.49256 0.8165 0.0
Zn276 Zn 0.90454 0.33122 0.51084 0.0
Zn277 Zn 0.79001 0.37683 0.49188 0.0
O278 O 0.78553 0.31037 0.54084 0.0
O279 O 0.8764 0.27244 0.55916 0.0
O280 O 0.70664 0.41337 0.49523 0.0
O281 O 0.94145 0.41947 0.53424 0.0
O282 O 0.84955 0.4543 0.51357 0.0
C283 C 0.82011 0.27256 0.56357 0.0
C284 C 0.8422 0.30822 0.40191 0.0
O285 O 0.79817 0.33735 0.41737 0.0
O286 O 0.89064 0.30051 0.43389 0.0
C287 C 0.68641 0.41904 0.53868 0.0
O288 O 0.71842 0.39878 0.58024 0.0
C289 C 0.90721 0.46464 0.52966 0.0
Zn290 Zn 0.52742 0.94066 0.74005 0.0
Zn291 Zn 0.60156 0.04468 0.76278 0.0
O292 O 0.55066 0.05945 0.82 0.0
O293 O 0.48192 0.98022 0.79422 0.0
O294 O 0.66974 0.1121 0.771 0.0
O295 O 0.59792 0.88423 0.76713 0.0
O296 O 0.6559 0.97102 0.77763 0.0
C297 C 0.50193 0.02815 0.82497 0.0
C298 C 0.5156 0.02022 0.65467 0.0
O299 O 0.55234 0.05618 0.68861 0.0
O300 O 0.50328 0.96509 0.66453 0.0
C301 C 0.69988 0.10328 0.73371 0.0
O302 O 0.68192 0.05652 0.69783 0.0
C303 C 0.65035 0.91295 0.78162 0.0
Zn304 Zn 0.98938 0.33117 0.82533 0.0
Zn305 Zn 0.02081 0.23778 0.87244 0.0
O306 O 0.08664 0.24081 0.82479 0.0
O307 O 0.04844 0.31251 0.77616 0.0
O308 O 0.03615 0.16596 0.91313 0.0
O309 O 0.01998 0.39084 0.8873 0.0
O310 O 0.03034 0.30904 0.93127 0.0
C311 C 0.08834 0.27335 0.78659 0.0
C312 C 0.89133 0.24117 0.81013 0.0
O313 O 0.93527 0.21113 0.83105 0.0
O314 O 0.90018 0.29887 0.80801 0.0
C315 C 0.03812 0.11139 0.89191 0.0
O316 O 0.03438 0.10133 0.84101 0.0
C317 C 0.03239 0.36758 0.93027 0.0
Zn318 Zn 0.48938 0.83117 0.32533 0.0
Zn319 Zn 0.52081 0.73778 0.37244 0.0
O320 O 0.58664 0.74081 0.32479 0.0
O321 O 0.54844 0.81251 0.27616 0.0
O322 O 0.53615 0.66596 0.41313 0.0
O323 O 0.51998 0.89084 0.3873 0.0
O324 O 0.53034 0.80904 0.43127 0.0
C325 C 0.58834 0.77335 0.28659 0.0
C326 C 0.39133 0.74117 0.31013 0.0
O327 O 0.43527 0.71113 0.33105 0.0
O328 O 0.40018 0.79887 0.30801 0.0
C329 C 0.53812 0.61139 0.39191 0.0
O330 O 0.53438 0.60133 0.34101 0.0
C331 C 0.53239 0.86758 0.43027 0.0
Zn332 Zn 0.92684 0.82352 0.58499 0.0
Zn333 Zn 0.03453 0.79863 0.64126 0.0
O334 O 0.05852 0.86924 0.60088 0.0
O335 O 0.97177 0.88964 0.55244 0.0
O336 O 0.11862 0.78502 0.67579 0.0
O337 O 0.89933 0.8451 0.65388 0.0
O338 O 0.98652 0.8205 0.70009 0.0
C339 C 0.02945 0.90022 0.56696 0.0
C340 C 0.95744 0.69665 0.56618 0.0
O341 O 0.00575 0.71557 0.59878 0.0
O342 O 0.91656 0.73373 0.5523 0.0
C343 C 0.15701 0.76614 0.64749 0.0
O344 O 0.13845 0.7491 0.59747 0.0
C345 C 0.93232 0.83881 0.69766 0.0
Zn346 Zn 0.42684 0.32352 0.08499 0.0
Zn347 Zn 0.53453 0.29863 0.14126 0.0
O348 O 0.55852 0.36924 0.10088 0.0
O349 O 0.47177 0.38964 0.05244 0.0
O350 O 0.61862 0.28502 0.17579 0.0
O351 O 0.39933 0.3451 0.15388 0.0
O352 O 0.48652 0.3205 0.20009 0.0
C353 C 0.52945 0.40022 0.06696 0.0
C354 C 0.45744 0.19665 0.06618 0.0
O355 O 0.50575 0.21557 0.09878 0.0
O356 O 0.41656 0.23373 0.0523 0.0
C357 C 0.65701 0.26614 0.14749 0.0
O358 O 0.63845 0.2491 0.09747 0.0
C359 C 0.43232 0.33881 0.19766 0.0
loop_
_geom_bond_atom_site_label_1
_geom_bond_atom_site_label_2
_geom_bond_distance
_geom_bond_site_symmetry_2
_ccdc_geom_bond_type
H0 C5 0.930 1_655 S
H1 C8 0.930 1_556 S
H2 C10 0.930 . S
H3 C4 1.016 . S
C4 H3 1.016 . S
C4 N11 1.286 . S
C5 H0 0.930 1_455 S
C5 C6 1.397 . S
C5 C7 1.361 . S
C6 C5 1.397 . S
C6 C10 1.390 1_545 S
C7 C5 1.361 . S
C7 C8 1.393 . S
C7 N11 1.413 1_554 S
C8 H1 0.930 1_554 S
C8 C7 1.393 . S
C8 C9 1.399 1_545 S
C9 C8 1.399 1_565 S
C9 C10 1.381 . S
C10 H2 0.930 . S
C10 C6 1.390 1_565 S
C10 C9 1.381 . S
N11 C4 1.286 . S
N11 C7 1.413 1_556 S
H12 C17 0.930 . S
H13 C20 0.930 . S
H14 C22 0.930 . S
H15 C16 1.016 . S
C16 H15 1.016 . S
C16 N23 1.286 . S
C17 H12 0.930 . S
C17 C18 1.397 . S
C17 C19 1.361 . S
C18 C17 1.397 . S
C18 C22 1.390 . S
C19 C17 1.361 . S
C19 C20 1.393 . S
C19 N23 1.413 . S
C20 H13 0.930 . S
C20 C19 1.393 . S
C20 C21 1.399 . S
C21 C20 1.399 . S
C21 C22 1.381 . S
C22 H14 0.930 . S
C22 C18 1.390 . S
C22 C21 1.381 . S
N23 C16 1.286 . S
N23 C19 1.413 . S
H24 C29 0.925 1_556 S
H25 C32 0.930 1_455 S
H26 C34 0.930 . S
H27 C28 1.016 1_454 S
C28 H27 1.016 1_656 S
C28 N35 1.286 . S
C29 H24 0.925 1_554 S
C29 C30 1.397 . S
C29 C31 1.361 . S
C30 C29 1.397 . S
C30 C34 1.390 . S
C31 C29 1.361 . S
C31 C32 1.393 . S
C31 N35 1.413 1_554 S
C32 H25 0.930 1_655 S
C32 C31 1.393 . S
C32 C33 1.399 . S
C33 C32 1.399 . S
C33 C34 1.381 . S
C34 H26 0.930 . S
C34 C30 1.390 . S
C34 C33 1.381 . S
N35 C28 1.286 . S
N35 C31 1.413 1_556 S
H36 C41 0.930 . S
H37 C44 0.930 . S
H38 C46 0.930 . S
H39 C40 1.016 . S
C40 H39 1.016 . S
C40 N47 1.286 . S
C41 H36 0.930 . S
C41 C42 1.397 . S
C41 C43 1.361 . S
C42 C41 1.397 . S
C42 C46 1.390 . S
C43 C41 1.361 . S
C43 C44 1.393 . S
C43 N47 1.413 . S
C44 H37 0.930 . S
C44 C43 1.393 . S
C44 C45 1.399 . S
C45 C44 1.399 . S
C45 C46 1.381 . S
C46 H38 0.930 . S
C46 C42 1.390 . S
C46 C45 1.381 . S
N47 C40 1.286 . S
N47 C43 1.413 . S
H48 C53 0.930 . S
H49 C56 0.930 . S
H50 C58 0.930 . S
H51 C52 1.016 . S
C52 H51 1.016 . S
C52 N59 1.286 . S
C53 H48 0.930 . S
C53 C54 1.397 . S
C53 C55 1.361 . S
C54 C53 1.397 . S
C54 C58 1.390 1_565 S
C55 C53 1.361 . S
C55 C56 1.393 . S
C55 N59 1.413 . S
C56 H49 0.930 . S
C56 C55 1.393 . S
C56 C57 1.399 1_565 S
C57 C56 1.399 1_545 S
C57 C58 1.381 . S
C58 H50 0.930 . S
C58 C54 1.390 1_545 S
C58 C57 1.381 . S
N59 C52 1.286 . S
N59 C55 1.413 . S
H60 C65 0.930 . S
H61 C68 0.930 . S
H62 C70 0.930 . S
H63 C64 1.016 . S
C64 H63 1.016 . S
C64 N71 1.286 . S
C65 H60 0.930 . S
C65 C66 1.397 . S
C65 C67 1.361 . S
C66 C65 1.397 . S
C66 C70 1.390 . S
C67 C65 1.361 . S
C67 C68 1.393 . S
C67 N71 1.413 . S
C68 H61 0.930 . S
C68 C67 1.393 . S
C68 C69 1.399 . S
C69 C68 1.399 . S
C69 C70 1.381 . S
C70 H62 0.930 . S
C70 C66 1.390 . S
C70 C69 1.381 . S
N71 C64 1.286 . S
N71 C67 1.413 . S
H72 C77 0.930 1_455 S
H73 C80 0.930 . S
H74 C82 0.930 . S
H75 C76 1.016 . S
C76 H75 1.016 . S
C76 N83 1.286 . S
C77 H72 0.930 1_655 S
C77 C78 1.397 . S
C77 C79 1.361 . S
C78 C77 1.397 . S
C78 C82 1.390 . S
C79 C77 1.361 . S
C79 C80 1.393 . S
C79 N83 1.413 1_655 S
C80 H73 0.930 . S
C80 C79 1.393 . S
C80 C81 1.399 . S
C81 C80 1.399 . S
C81 C82 1.381 . S
C82 H74 0.930 . S
C82 C78 1.390 . S
C82 C81 1.381 . S
N83 C76 1.286 . S
N83 C79 1.413 1_455 S
H84 C89 0.930 . S
H85 C92 0.930 . S
H86 C94 0.930 . S
H87 C88 1.016 . S
C88 H87 1.016 . S
C88 N95 1.286 . S
C89 H84 0.930 . S
C89 C90 1.397 . S
C89 C91 1.361 . S
C90 C89 1.397 . S
C90 C94 1.390 . S
C91 C89 1.361 . S
C91 C92 1.393 . S
C91 N95 1.413 . S
C92 H85 0.930 . S
C92 C91 1.393 . S
C92 C93 1.399 . S
C93 C92 1.399 . S
C93 C94 1.381 . S
C94 H86 0.930 . S
C94 C90 1.390 . S
C94 C93 1.381 . S
N95 C88 1.286 . S
N95 C91 1.413 . S
H96 C101 0.930 . S
H97 C104 0.930 . S
H98 C106 0.930 . S
H99 C100 1.016 . S
C100 H99 1.016 . S
C100 N107 1.286 . S
C101 H96 0.930 . S
C101 C102 1.397 . S
C101 C103 1.361 . S
C102 C101 1.397 . S
C102 C106 1.390 . S
C103 C101 1.361 . S
C103 C104 1.393 . S
C103 N107 1.413 . S
C104 H97 0.930 . S
C104 C103 1.393 . S
C104 C105 1.399 . S
C105 C104 1.399 . S
C105 C106 1.381 . S
C106 H98 0.930 . S
C106 C102 1.390 . S
C106 C105 1.381 . S
N107 C100 1.286 . S
N107 C103 1.413 . S
H108 C113 0.930 . S
H109 C116 0.930 . S
H110 C118 0.930 . S
H111 C112 1.016 . S
C112 H111 1.016 . S
C112 N119 1.286 . S
C113 H108 0.930 . S
C113 C114 1.397 1_565 S
C113 C115 1.361 . S
C114 C113 1.397 1_545 S
C114 C118 1.390 . S
C115 C113 1.361 . S
C115 C116 1.393 . S
C115 N119 1.413 . S
C116 H109 0.930 . S
C116 C115 1.393 . S
C116 C117 1.399 1_565 S
C117 C116 1.399 1_545 S
C117 C118 1.381 . S
C118 H110 0.930 . S
C118 C114 1.390 . S
C118 C117 1.381 . S
N119 C112 1.286 . S
N119 C115 1.413 . S
H120 C125 0.930 . S
H121 C128 0.930 . S
H122 C130 0.930 . S
H123 C124 1.016 . S
C124 H123 1.016 . S
C124 N131 1.286 . S
C125 H120 0.930 . S
C125 C126 1.397 . S
C125 C127 1.361 . S
C126 C125 1.397 . S
C126 C130 1.390 . S
C127 C125 1.361 . S
C127 C128 1.393 . S
C127 N131 1.413 . S
C128 H121 0.930 . S
C128 C127 1.393 . S
C128 C129 1.399 . S
C129 C128 1.399 . S
C129 C130 1.381 . S
C130 H122 0.930 . S
C130 C126 1.390 . S
C130 C129 1.381 . S
N131 C124 1.286 . S
N131 C127 1.413 . S
H132 C137 0.930 . S
H133 C140 0.930 . S
H134 C142 0.930 . S
H135 C136 1.016 . S
C136 H135 1.016 . S
C136 N143 1.286 . S
C137 H132 0.930 . S
C137 C138 1.397 . S
C137 C139 1.361 . S
C138 C137 1.397 . S
C138 C142 1.390 . S
C139 C137 1.361 . S
C139 C140 1.393 . S
C139 N143 1.413 . S
C140 H133 0.930 . S
C140 C139 1.393 . S
C140 C141 1.399 . S
C141 C140 1.399 . S
C141 C142 1.381 . S
C142 H134 0.930 . S
C142 C138 1.390 . S
C142 C141 1.381 . S
N143 C136 1.286 . S
N143 C139 1.413 . S
H144 C149 0.930 . S
H145 C152 0.930 . S
H146 C154 0.930 . S
H147 C148 1.016 . S
C148 H147 1.016 . S
C148 N155 1.286 . S
C149 H144 0.930 . S
C149 C150 1.397 . S
C149 C151 1.361 . S
C150 C149 1.397 . S
C150 C154 1.390 . S
C151 C149 1.361 . S
C151 C152 1.393 . S
C151 N155 1.413 . S
C152 H145 0.930 . S
C152 C151 1.393 . S
C152 C153 1.399 . S
C153 C152 1.399 . S
C153 C154 1.381 . S
C154 H146 0.930 . S
C154 C150 1.390 . S
C154 C153 1.381 . S
N155 C148 1.286 . S
N155 C151 1.413 . S
H156 C161 0.930 . S
H157 C164 0.930 1_554 S
H158 C166 0.930 . S
H159 C160 1.016 . S
C160 H159 1.016 . S
C160 N167 1.286 . S
C161 H156 0.930 . S
C161 C162 1.397 . S
C161 C163 1.361 . S
C162 C161 1.397 . S
C162 C166 1.390 . S
C163 C161 1.361 . S
C163 C164 1.393 . S
C163 N167 1.413 1_556 S
C164 H157 0.930 1_556 S
C164 C163 1.393 . S
C164 C165 1.399 . S
C165 C164 1.399 . S
C165 C166 1.381 . S
C166 H158 0.930 . S
C166 C162 1.390 . S
C166 C165 1.381 . S
N167 C160 1.286 . S
N167 C163 1.413 1_554 S
H168 C173 0.930 . S
H169 C176 0.930 . S
H170 C178 0.930 . S
H171 C172 1.016 . S
C172 H171 1.016 . S
C172 N179 1.286 . S
C173 H168 0.930 . S
C173 C174 1.397 . S
C173 C175 1.361 . S
C174 C173 1.397 . S
C174 C178 1.390 . S
C175 C173 1.361 . S
C175 C176 1.393 . S
C175 N179 1.413 . S
C176 H169 0.930 . S
C176 C175 1.393 . S
C176 C177 1.399 . S
C177 C176 1.399 . S
C177 C178 1.381 . S
C178 H170 0.930 . S
C178 C174 1.390 . S
C178 C177 1.381 . S
N179 C172 1.286 . S
N179 C175 1.413 . S
H180 C185 0.930 . S
H181 C188 0.930 1_565 S
H182 C190 0.930 . S
H183 C184 1.016 1_565 S
C184 H183 1.016 1_545 S
C184 N191 1.286 . S
C185 H180 0.930 . S
C185 C186 1.397 1_556 S
C185 C187 1.361 . S
C186 C185 1.397 1_554 S
C186 C190 1.390 . S
C187 C185 1.361 . S
C187 C188 1.393 . S
C187 N191 1.413 . S
C188 H181 0.930 1_545 S
C188 C187 1.393 . S
C188 C189 1.399 . S
C189 C188 1.399 . S
C189 C190 1.381 1_556 S
C190 H182 0.930 . S
C190 C186 1.390 . S
C190 C189 1.381 1_554 S
N191 C184 1.286 . S
N191 C187 1.413 . S
Zn192 O195 2.031 . S
Zn192 O197 2.049 1_554 S
Zn192 O202 2.067 1_554 S
Zn193 O194 1.962 . S
Zn193 O196 1.986 . S
Zn193 O198 1.996 . S
Zn193 O201 1.943 1_554 S
O194 Zn193 1.962 . S
O194 C199 1.254 . S
O195 Zn192 2.031 . S
O195 C199 1.269 . S
O196 Zn193 1.986 . S
O196 C203 1.262 . S
O197 Zn192 2.049 1_556 S
O197 C205 1.260 1_556 S
O198 Zn193 1.996 . S
O198 C205 1.257 . S
C199 O194 1.254 . S
C199 O195 1.269 . S
C200 O201 1.249 . S
C200 O202 1.270 . S
O201 Zn193 1.943 1_556 S
O201 C200 1.249 . S
O202 Zn192 2.067 1_556 S
O202 C200 1.270 . S
C203 O196 1.262 . S
C203 O204 1.232 . S
O204 C203 1.232 . S
C205 O197 1.260 1_554 S
C205 O198 1.257 . S
Zn206 O209 2.031 . S
Zn206 O211 2.049 . S
Zn206 O216 2.067 . S
Zn207 O208 1.962 . S
Zn207 O210 1.986 . S
Zn207 O212 1.996 . S
Zn207 O215 1.943 . S
O208 Zn207 1.962 . S
O208 C213 1.254 . S
O209 Zn206 2.031 . S
O209 C213 1.269 . S
O210 Zn207 1.986 . S
O210 C217 1.262 . S
O211 Zn206 2.049 . S
O211 C219 1.260 . S
O212 Zn207 1.996 . S
O212 C219 1.257 . S
C213 O208 1.254 . S
C213 O209 1.269 . S
C214 O215 1.249 . S
C214 O216 1.270 . S
O215 Zn207 1.943 . S
O215 C214 1.249 . S
O216 Zn206 2.067 . S
O216 C214 1.270 . S
C217 O210 1.262 . S
C217 O218 1.232 . S
O218 C217 1.232 . S
C219 O211 1.260 . S
C219 O212 1.257 . S
Zn220 O223 2.031 . S
Zn220 O225 2.049 . S
Zn220 O230 2.067 . S
Zn221 O222 1.962 . S
Zn221 O224 1.986 . S
Zn221 O226 1.996 1_554 S
Zn221 O229 1.943 . S
O222 Zn221 1.962 . S
O222 C227 1.254 . S
O223 Zn220 2.031 . S
O223 C227 1.269 1_556 S
O224 Zn221 1.986 . S
O224 C231 1.262 . S
O225 Zn220 2.049 . S
O225 C233 1.260 . S
O226 Zn221 1.996 1_556 S
O226 C233 1.257 . S
C227 O222 1.254 . S
C227 O223 1.269 1_554 S
C228 O229 1.249 1_556 S
C228 O230 1.270 . S
O229 Zn221 1.943 . S
O229 C228 1.249 1_554 S
O230 Zn220 2.067 . S
O230 C228 1.270 . S
C231 O224 1.262 . S
C231 O232 1.232 . S
O232 C231 1.232 . S
C233 O225 1.260 . S
C233 O226 1.257 . S
Zn234 O237 2.031 . S
Zn234 O239 2.049 1_545 S
Zn234 O244 2.067 1_545 S
Zn235 O236 1.962 . S
Zn235 O238 1.986 1_655 S
Zn235 O240 1.996 . S
Zn235 O243 1.943 1_545 S
O236 Zn235 1.962 . S
O236 C241 1.254 . S
O237 Zn234 2.031 . S
O237 C241 1.269 . S
O238 Zn235 1.986 1_455 S
O238 C245 1.262 . S
O239 Zn234 2.049 1_565 S
O239 C247 1.260 1_665 S
O240 Zn235 1.996 . S
O240 C247 1.257 1_655 S
C241 O236 1.254 . S
C241 O237 1.269 . S
C242 O243 1.249 . S
C242 O244 1.270 . S
O243 Zn235 1.943 1_565 S
O243 C242 1.249 . S
O244 Zn234 2.067 1_565 S
O244 C242 1.270 . S
C245 O238 1.262 . S
C245 O246 1.232 1_455 S
O246 C245 1.232 1_655 S
C247 O239 1.260 1_445 S
C247 O240 1.257 1_455 S
Zn248 O251 2.031 . S
Zn248 O253 2.049 . S
Zn248 O258 2.067 . S
Zn249 O250 1.962 . S
Zn249 O252 1.986 . S
Zn249 O254 1.996 . S
Zn249 O257 1.943 . S
O250 Zn249 1.962 . S
O250 C255 1.254 . S
O251 Zn248 2.031 . S
O251 C255 1.269 . S
O252 Zn249 1.986 . S
O252 C259 1.262 . S
O253 Zn248 2.049 . S
O253 C261 1.260 . S
O254 Zn249 1.996 . S
O254 C261 1.257 . S
C255 O250 1.254 . S
C255 O251 1.269 . S
C256 O257 1.249 . S
C256 O258 1.270 . S
O257 Zn249 1.943 . S
O257 C256 1.249 . S
O258 Zn248 2.067 . S
O258 C256 1.270 . S
C259 O252 1.262 . S
C259 O260 1.232 . S
O260 C259 1.232 . S
C261 O253 1.260 . S
C261 O254 1.257 . S
Zn262 O265 2.031 . S
Zn262 O267 2.049 . S
Zn262 O272 2.067 . S
Zn263 O264 1.962 . S
Zn263 O266 1.986 . S
Zn263 O268 1.996 . S
Zn263 O271 1.943 . S
O264 Zn263 1.962 . S
O264 C269 1.254 . S
O265 Zn262 2.031 . S
O265 C269 1.269 . S
O266 Zn263 1.986 . S
O266 C273 1.262 . S
O267 Zn262 2.049 . S
O267 C275 1.260 . S
O268 Zn263 1.996 . S
O268 C275 1.257 . S
C269 O264 1.254 . S
C269 O265 1.269 . S
C270 O271 1.249 . S
C270 O272 1.270 . S
O271 Zn263 1.943 . S
O271 C270 1.249 . S
O272 Zn262 2.067 . S
O272 C270 1.270 . S
C273 O266 1.262 . S
C273 O274 1.232 . S
O274 C273 1.232 . S
C275 O267 1.260 . S
C275 O268 1.257 . S
Zn276 O279 2.031 . S
Zn276 O281 2.049 . S
Zn276 O286 2.067 . S
Zn277 O278 1.962 . S
Zn277 O280 1.986 . S
Zn277 O282 1.996 . S
Zn277 O285 1.943 . S
O278 Zn277 1.962 . S
O278 C283 1.254 . S
O279 Zn276 2.031 . S
O279 C283 1.269 . S
O280 Zn277 1.986 . S
O280 C287 1.262 . S
O281 Zn276 2.049 . S
O281 C289 1.260 . S
O282 Zn277 1.996 . S
O282 C289 1.257 . S
C283 O278 1.254 . S
C283 O279 1.269 . S
C284 O285 1.249 . S
C284 O286 1.270 . S
O285 Zn277 1.943 . S
O285 C284 1.249 . S
O286 Zn276 2.067 . S
O286 C284 1.270 . S
C287 O280 1.262 . S
C287 O288 1.232 . S
O288 C287 1.232 . S
C289 O281 1.260 . S
C289 O282 1.257 . S
Zn290 O293 2.031 . S
Zn290 O295 2.049 . S
Zn290 O300 2.067 . S
Zn291 O292 1.962 . S
Zn291 O294 1.986 . S
Zn291 O296 1.996 1_545 S
Zn291 O299 1.943 . S
O292 Zn291 1.962 . S
O292 C297 1.254 . S
O293 Zn290 2.031 . S
O293 C297 1.269 1_565 S
O294 Zn291 1.986 . S
O294 C301 1.262 . S
O295 Zn290 2.049 . S
O295 C303 1.260 . S
O296 Zn291 1.996 1_565 S
O296 C303 1.257 . S
C297 O292 1.254 . S
C297 O293 1.269 1_545 S
C298 O299 1.249 1_565 S
C298 O300 1.270 . S
O299 Zn291 1.943 . S
O299 C298 1.249 1_545 S
O300 Zn290 2.067 . S
O300 C298 1.270 . S
C301 O294 1.262 . S
C301 O302 1.232 . S
O302 C301 1.232 . S
C303 O295 1.260 . S
C303 O296 1.257 . S
Zn304 O307 2.031 1_655 S
Zn304 O309 2.049 . S
Zn304 O314 2.067 . S
Zn305 O306 1.962 . S
Zn305 O308 1.986 . S
Zn305 O310 1.996 . S
Zn305 O313 1.943 1_455 S
O306 Zn305 1.962 . S
O306 C311 1.254 . S
O307 Zn304 2.031 1_455 S
O307 C311 1.269 . S
O308 Zn305 1.986 . S
O308 C315 1.262 . S
O309 Zn304 2.049 . S
O309 C317 1.260 . S
O310 Zn305 1.996 . S
O310 C317 1.257 1_455 S
C311 O306 1.254 . S
C311 O307 1.269 . S
C312 O313 1.249 . S
C312 O314 1.270 . S
O313 Zn305 1.943 1_655 S
O313 C312 1.249 . S
O314 Zn304 2.067 . S
O314 C312 1.270 . S
C315 O308 1.262 . S
C315 O316 1.232 . S
O316 C315 1.232 . S
C317 O309 1.260 . S
C317 O310 1.257 1_655 S
Zn318 O321 2.031 . S
Zn318 O323 2.049 . S
Zn318 O328 2.067 . S
Zn319 O320 1.962 . S
Zn319 O322 1.986 . S
Zn319 O324 1.996 . S
Zn319 O327 1.943 . S
O320 Zn319 1.962 . S
O320 C325 1.254 . S
O321 Zn318 2.031 . S
O321 C325 1.269 . S
O322 Zn319 1.986 . S
O322 C329 1.262 . S
O323 Zn318 2.049 . S
O323 C331 1.260 . S
O324 Zn319 1.996 . S
O324 C331 1.257 . S
C325 O320 1.254 . S
C325 O321 1.269 . S
C326 O327 1.249 . S
C326 O328 1.270 . S
O327 Zn319 1.943 . S
O327 C326 1.249 . S
O328 Zn318 2.067 . S
O328 C326 1.270 . S
C329 O322 1.262 . S
C329 O330 1.232 . S
O330 C329 1.232 . S
C331 O323 1.260 . S
C331 O324 1.257 . S
Zn332 O335 2.031 . S
Zn332 O337 2.049 . S
Zn332 O342 2.067 . S
Zn333 O334 1.962 . S
Zn333 O336 1.986 . S
Zn333 O338 1.996 1_455 S
Zn333 O341 1.943 . S
O334 Zn333 1.962 . S
O334 C339 1.254 . S
O335 Zn332 2.031 . S
O335 C339 1.269 1_655 S
O336 Zn333 1.986 . S
O336 C343 1.262 . S
O337 Zn332 2.049 . S
O337 C345 1.260 . S
O338 Zn333 1.996 1_655 S
O338 C345 1.257 . S
C339 O334 1.254 . S
C339 O335 1.269 1_455 S
C340 O341 1.249 1_655 S
C340 O342 1.270 . S
O341 Zn333 1.943 . S
O341 C340 1.249 1_455 S
O342 Zn332 2.067 . S
O342 C340 1.270 . S
C343 O336 1.262 . S
C343 O344 1.232 . S
O344 C343 1.232 . S
C345 O337 1.260 . S
C345 O338 1.257 . S
Zn346 O349 2.031 . S
Zn346 O351 2.049 . S
Zn346 O356 2.067 . S
Zn347 O348 1.962 . S
Zn347 O350 1.986 . S
Zn347 O352 1.996 . S
Zn347 O355 1.943 . S
O348 Zn347 1.962 . S
O348 C353 1.254 . S
O349 Zn346 2.031 . S
O349 C353 1.269 . S
O350 Zn347 1.986 . S
O350 C357 1.262 . S
O351 Zn346 2.049 . S
O351 C359 1.260 . S
O352 Zn347 1.996 . S
O352 C359 1.257 . S
C353 O348 1.254 . S
C353 O349 1.269 . S
C354 O355 1.249 . S
C354 O356 1.270 . S
O355 Zn347 1.943 . S
O355 C354 1.249 . S
O356 Zn346 2.067 . S
O356 C354 1.270 . S
C357 O350 1.262 . S
C357 O358 1.232 . S
O358 C357 1.232 . S
C359 O351 1.260 . S
C359 O352 1.257 . S
C200 C66 1.918 . S
C213 C76 1.181 . S
C93 C233 2.082 . S
C247 C54 1.277 1_545 S
C259 C126 1.548 . S
C273 C150 2.071 . S
C136 C283 1.148 . S
C298 C117 2.272 1_565 S
C141 C312 1.300 . S
C331 C112 1.387 . S
C124 C311 1.528 . S
C329 C148 1.264 . S
C88 C345 1.573 . S
C52 C339 1.693 . S
C64 C343 1.295 . S
C78 C340 1.178 . S
C45 C242 1.888 . S
C177 C241 1.954 . S
C205 C189 1.644 1_564 S
C219 C102 1.717 . S
C57 C256 1.743 . S
C301 C138 1.587 . S
C255 C114 2.052 . S
C287 C153 1.766 . S
C284 C174 1.918 . S
C184 C297 1.181 . S
C105 C261 2.082 . S
C275 C162 1.278 . S
C42 C231 1.547 . S
C245 C6 2.071 . S
C199 C16 1.147 . S
C214 C33 2.272 1_455 S
C21 C326 1.299 . S
C28 C317 1.387 . S
C40 C325 1.528 . S
C4 C315 1.264 . S
C359 C100 1.573 . S
C353 C160 1.693 . S
C357 C172 1.294 . S
C186 C354 1.178 . S
C129 C270 1.888 . S
C269 C69 1.954 . S
C289 C81 1.644 . S
C303 C90 1.717 . S
C165 C228 1.743 . S
C217 C18 1.587 . S
C30 C227 2.052 . S
C203 C9 1.766 . S
