# Generated by pormake.
# Topology nom, (4,4)-cn, num edge types: 1
# Building blocks:
#     Node 0, Type 0, BuildingBlock: MIFKUJ_clean_linker_1, # of connection points: 4
#     Node 1, Type 0, BuildingBlock: MIFKUJ_clean_linker_1, # of connection points: 4
#     Node 2, Type 0, BuildingBlock: MIFKUJ_clean_linker_1, # of connection points: 4
#     Node 3, Type 0, BuildingBlock: MIFKUJ_clean_linker_1, # of connection points: 4
#     Node 4, Type 0, BuildingBlock: MIFKUJ_clean_linker_1, # of connection points: 4
#     Node 5, Type 0, BuildingBlock: MIFKUJ_clean_linker_1, # of connection points: 4
#     Node 6, Type 1, BuildingBlock: TATPOV_clean_sbu_0, # of connection points: 4
#     Node 7, Type 1, BuildingBlock: TATPOV_clean_sbu_0, # of connection points: 4
#     Node 8, Type 1, BuildingBlock: TATPOV_clean_sbu_0, # of connection points: 4
#     Node 9, Type 1, BuildingBlock: TATPOV_clean_sbu_0, # of connection points: 4
#     Node 10, Type 1, BuildingBlock: TATPOV_clean_sbu_0, # of connection points: 4
#     Node 11, Type 1, BuildingBlock: TATPOV_clean_sbu_0, # of connection points: 4
#     Edge 12, Type (0, 1), BuildingBlock: TEMPAE_clean_linker_10, # of connection points: 2
#     Edge 13, Type (0, 1), BuildingBlock: TEMPAE_clean_linker_10, # of connection points: 2
#     Edge 14, Type (0, 1), BuildingBlock: TEMPAE_clean_linker_10, # of connection points: 2
#     Edge 15, Type (0, 1), BuildingBlock: TEMPAE_clean_linker_10, # of connection points: 2
#     Edge 16, Type (0, 1), BuildingBlock: TEMPAE_clean_linker_10, # of connection points: 2
#     Edge 17, Type (0, 1), BuildingBlock: TEMPAE_clean_linker_10, # of connection points: 2
#     Edge 18, Type (0, 1), BuildingBlock: TEMPAE_clean_linker_10, # of connection points: 2
#     Edge 19, Type (0, 1), BuildingBlock: TEMPAE_clean_linker_10, # of connection points: 2
#     Edge 20, Type (0, 1), BuildingBlock: TEMPAE_clean_linker_10, # of connection points: 2
#     Edge 21, Type (0, 1), BuildingBlock: TEMPAE_clean_linker_10, # of connection points: 2
#     Edge 22, Type (0, 1), BuildingBlock: TEMPAE_clean_linker_10, # of connection points: 2
#     Edge 23, Type (0, 1), BuildingBlock: TEMPAE_clean_linker_10, # of connection points: 2
#     Edge 24, Type (0, 1), BuildingBlock: TEMPAE_clean_linker_10, # of connection points: 2
#     Edge 25, Type (0, 1), BuildingBlock: TEMPAE_clean_linker_10, # of connection points: 2
#     Edge 26, Type (0, 1), BuildingBlock: TEMPAE_clean_linker_10, # of connection points: 2
#     Edge 27, Type (0, 1), BuildingBlock: TEMPAE_clean_linker_10, # of connection points: 2
#     Edge 28, Type (0, 1), BuildingBlock: TEMPAE_clean_linker_10, # of connection points: 2
#     Edge 29, Type (0, 1), BuildingBlock: TEMPAE_clean_linker_10, # of connection points: 2
#     Edge 30, Type (0, 1), BuildingBlock: TEMPAE_clean_linker_10, # of connection points: 2
#     Edge 31, Type (0, 1), BuildingBlock: TEMPAE_clean_linker_10, # of connection points: 2
#     Edge 32, Type (0, 1), BuildingBlock: TEMPAE_clean_linker_10, # of connection points: 2
#     Edge 33, Type (0, 1), BuildingBlock: TEMPAE_clean_linker_10, # of connection points: 2
#     Edge 34, Type (0, 1), BuildingBlock: TEMPAE_clean_linker_10, # of connection points: 2
#     Edge 35, Type (0, 1), BuildingBlock: TEMPAE_clean_linker_10, # of connection points: 2
# Relax obj value: 0.019
# Max RMSD: 0.115
# Mean RMSD: 0.104
data_MOF--net-nom--node1-TATPOV_clean_sbu_0--node2-MIFKUJ_clean_linker_1--edge1-TEMPAE_clean_linker_10
_symmetry_space_group_name_H-M    P1
_symmetry_Int_Tables_number       1
_symmetry_cell_setting            triclinic
loop_
_symmetry_equiv_pos_as_xyz
'x, y, z'
_cell_length_a     53.310264
_cell_length_b     54.061542
_cell_length_c     56.474279
_cell_angle_alpha  90.661144
_cell_angle_beta   90.646383
_cell_angle_gamma 120.00814
loop_
_atom_site_label
_atom_site_type_symbol
_atom_site_fract_x
_atom_site_fract_y
_atom_site_fract_z
_atom_type_partial_charge
H0 H 0.98168 0.43704 0.27235 0.0
H1 H 0.94556 0.42317 0.24068 0.0
H2 H 0.90551 0.46368 0.27915 0.0
H3 H 0.9437 0.48026 0.30921 0.0
H4 H 0.02196 0.48802 0.28585 0.0
H5 H 0.93501 0.41334 0.32587 0.0
H6 H 0.88511 0.39587 0.33876 0.0
H7 H 0.91463 0.47239 0.38173 0.0
H8 H 0.96381 0.49006 0.36841 0.0
H9 H 0.04148 0.53465 0.37694 0.0
H10 H 0.07937 0.55843 0.40762 0.0
H11 H 0.11746 0.50777 0.38633 0.0
H12 H 0.07988 0.48451 0.35494 0.0
H13 H 0.00192 0.47503 0.37169 0.0
H14 H 0.07226 0.55411 0.33198 0.0
H15 H 0.11942 0.58899 0.31709 0.0
H16 H 0.1211 0.52296 0.27448 0.0
H17 H 0.07364 0.48779 0.28979 0.0
C18 C 0.96519 0.45923 0.29349 0.0
C19 C 0.96516 0.44302 0.27389 0.0
C20 C 0.94412 0.43472 0.25589 0.0
C21 C 0.92221 0.44201 0.25723 0.0
C22 C 0.92214 0.45795 0.27712 0.0
C23 C 0.94374 0.46701 0.2947 0.0
C24 C 0.98857 0.46916 0.31193 0.0
C25 C 0.01749 0.4844 0.30457 0.0
C26 C 0.98286 0.46591 0.33654 0.0
C27 C 0.95315 0.45315 0.34598 0.0
C28 C 0.93071 0.42622 0.33817 0.0
C29 C 0.90229 0.41625 0.34555 0.0
C30 C 0.89612 0.43276 0.36129 0.0
C31 C 0.91883 0.45902 0.36988 0.0
C32 C 0.94698 0.46914 0.36225 0.0
C33 C 0.05796 0.50787 0.36376 0.0
C34 C 0.05806 0.52875 0.3788 0.0
C35 C 0.0797 0.54238 0.39616 0.0
C36 C 0.10118 0.53488 0.39911 0.0
C37 C 0.10105 0.51384 0.38422 0.0
C38 C 0.07971 0.50063 0.36641 0.0
C39 C 0.0348 0.49367 0.34547 0.0
C40 C 0.00616 0.47757 0.35287 0.0
C41 C 0.04057 0.49754 0.32105 0.0
C42 C 0.06976 0.51819 0.31247 0.0
C43 C 0.08303 0.54693 0.31988 0.0
C44 C 0.10998 0.56689 0.31129 0.0
C45 C 0.1241 0.55864 0.29481 0.0
C46 C 0.11068 0.5299 0.28716 0.0
C47 C 0.08369 0.50982 0.29592 0.0
H48 H 0.46565 0.97204 0.52999 0.0
H49 H 0.43856 0.92438 0.54605 0.0
H50 H 0.48723 0.89699 0.50335 0.0
H51 H 0.5154 0.94552 0.48773 0.0
H52 H 0.51873 0.01143 0.53196 0.0
H53 H 0.45399 0.94844 0.47029 0.0
H54 H 0.43476 0.91027 0.4405 0.0
H55 H 0.51467 0.95542 0.40204 0.0
H56 H 0.53482 0.99162 0.43339 0.0
H57 H 0.5699 0.08051 0.44845 0.0
H58 H 0.58054 0.12743 0.43408 0.0
H59 H 0.51297 0.12396 0.47788 0.0
H60 H 0.50233 0.07725 0.49191 0.0
H61 H 0.51906 0.02807 0.44579 0.0
H62 H 0.58458 0.08686 0.5127 0.0
H63 H 0.60128 0.12436 0.54388 0.0
H64 H 0.51346 0.08858 0.56773 0.0
H65 H 0.49703 0.05074 0.53724 0.0
C66 C 0.49249 0.96241 0.50751 0.0
C67 C 0.47103 0.95604 0.52437 0.0
C68 C 0.45554 0.92878 0.53359 0.0
C69 C 0.46093 0.90709 0.52602 0.0
C70 C 0.4827 0.91341 0.50942 0.0
C71 C 0.49867 0.94102 0.50046 0.0
C72 C 0.50739 0.99138 0.49725 0.0
C73 C 0.51885 0.01488 0.51305 0.0
C74 C 0.50826 0.9962 0.47253 0.0
C75 C 0.49619 0.97263 0.45449 0.0
C76 C 0.46772 0.94964 0.45585 0.0
C77 C 0.45651 0.92801 0.43843 0.0
C78 C 0.47302 0.9295 0.41863 0.0
C79 C 0.50141 0.95287 0.4172 0.0
C80 C 0.5129 0.97396 0.43502 0.0
C81 C 0.53581 0.07573 0.47166 0.0
C82 C 0.55743 0.08992 0.45491 0.0
C83 C 0.56339 0.11661 0.44667 0.0
C84 C 0.54776 0.12946 0.45505 0.0
C85 C 0.52576 0.11488 0.47147 0.0
C86 C 0.51974 0.08823 0.47956 0.0
C87 C 0.52922 0.04747 0.48059 0.0
C88 C 0.51956 0.02434 0.46458 0.0
C89 C 0.52953 0.04269 0.50505 0.0
C90 C 0.53963 0.06614 0.52281 0.0
C91 C 0.56899 0.08725 0.52462 0.0
C92 C 0.57847 0.10854 0.54231 0.0
C93 C 0.55853 0.10925 0.55791 0.0
C94 C 0.5291 0.08849 0.55569 0.0
C95 C 0.51977 0.06689 0.53844 0.0
H96 H 0.53837 0.58395 0.69498 0.0
H97 H 0.52331 0.60573 0.72582 0.0
H98 H 0.43369 0.54877 0.70567 0.0
H99 H 0.44894 0.52736 0.67477 0.0
H100 H 0.52109 0.5249 0.69247 0.0
H101 H 0.50565 0.59302 0.64582 0.0
H102 H 0.47299 0.60971 0.63243 0.0
H103 H 0.41802 0.52782 0.59782 0.0
H104 H 0.44958 0.51074 0.61257 0.0
H105 H 0.48926 0.47216 0.59798 0.0
H106 H 0.50588 0.44957 0.5692 0.0
H107 H 0.59147 0.49421 0.60155 0.0
H108 H 0.57473 0.51659 0.63029 0.0
H109 H 0.50316 0.52469 0.60607 0.0
H110 H 0.50005 0.45246 0.64985 0.0
H111 H 0.51318 0.41921 0.66687 0.0
H112 H 0.58183 0.48824 0.70798 0.0
H113 H 0.5688 0.52182 0.69051 0.0
C114 C 0.49478 0.55422 0.68252 0.0
C115 C 0.5155 0.5764 0.6971 0.0
C116 C 0.50687 0.58877 0.71471 0.0
C117 C 0.47732 0.57902 0.71817 0.0
C118 C 0.45664 0.55713 0.7032 0.0
C119 C 0.46529 0.54477 0.6856 0.0
C120 C 0.50405 0.53998 0.66499 0.0
C121 C 0.51782 0.52542 0.67352 0.0
C122 C 0.49769 0.53883 0.64045 0.0
C123 C 0.47981 0.55043 0.6306 0.0
C124 C 0.48645 0.57862 0.6355 0.0
C125 C 0.46791 0.58824 0.62757 0.0
C126 C 0.44267 0.57001 0.61423 0.0
C127 C 0.43686 0.54224 0.6085 0.0
C128 C 0.45513 0.53254 0.61669 0.0
C129 C 0.53074 0.49606 0.6163 0.0
C130 C 0.51161 0.47708 0.59885 0.0
C131 C 0.52111 0.46416 0.58245 0.0
C132 C 0.54997 0.47006 0.58314 0.0
C133 C 0.56899 0.48883 0.6008 0.0
C134 C 0.55948 0.50175 0.61717 0.0
C135 C 0.52082 0.51017 0.6335 0.0
C136 C 0.50698 0.52465 0.62498 0.0
C137 C 0.52515 0.50953 0.65819 0.0
C138 C 0.53385 0.48976 0.6685 0.0
C139 C 0.51829 0.46062 0.66219 0.0
C140 C 0.52577 0.4416 0.67196 0.0
C141 C 0.54872 0.45121 0.68855 0.0
C142 C 0.56402 0.4803 0.69524 0.0
C143 C 0.55665 0.49945 0.68526 0.0
H144 H 0.01538 0.53681 0.76367 0.0
H145 H 0.05384 0.55985 0.73486 0.0
H146 H 0.10412 0.52926 0.77174 0.0
H147 H 0.06512 0.50547 0.80029 0.0
H148 H 0.98207 0.48123 0.77557 0.0
H149 H 0.06137 0.56861 0.81484 0.0
H150 H 0.11187 0.59504 0.82941 0.0
H151 H 0.0945 0.52609 0.87648 0.0
H152 H 0.0448 0.49949 0.86144 0.0
H153 H 0.96868 0.46079 0.87776 0.0
H154 H 0.93255 0.44626 0.90822 0.0
H155 H 0.87749 0.4613 0.8607 0.0
H156 H 0.91522 0.47874 0.83122 0.0
H157 H 0.00071 0.50809 0.86085 0.0
H158 H 0.93276 0.41937 0.82519 0.0
H159 H 0.8843 0.38226 0.81221 0.0
H160 H 0.8813 0.44017 0.76167 0.0
H161 H 0.92987 0.4772 0.77468 0.0
C162 C 0.03751 0.51974 0.78431 0.0
C163 C 0.03453 0.53479 0.76544 0.0
C164 C 0.0565 0.54794 0.749 0.0
C165 C 0.08196 0.5464 0.75115 0.0
C166 C 0.08482 0.531 0.76985 0.0
C167 C 0.06259 0.51745 0.78613 0.0
C168 C 0.01436 0.50695 0.8021 0.0
C169 C 0.98609 0.48726 0.79421 0.0
C170 C 0.01979 0.51387 0.82659 0.0
C171 C 0.04943 0.53184 0.83676 0.0
C172 C 0.06847 0.55927 0.82833 0.0
C173 C 0.0972 0.57438 0.83672 0.0
C174 C 0.10697 0.56261 0.85412 0.0
C175 C 0.08744 0.53585 0.86332 0.0
C176 C 0.05904 0.52061 0.85468 0.0
C177 C 0.9448 0.47083 0.85206 0.0
C178 C 0.94889 0.46112 0.87391 0.0
C179 C 0.92785 0.4523 0.89126 0.0
C180 C 0.9018 0.45238 0.88705 0.0
C181 C 0.89737 0.46131 0.86484 0.0
C182 C 0.9188 0.47086 0.84771 0.0
C183 C 0.96835 0.48221 0.83442 0.0
C184 C 0.99661 0.5019 0.84225 0.0
C185 C 0.96324 0.47416 0.81012 0.0
C186 C 0.9347 0.45117 0.80115 0.0
C187 C 0.92166 0.42405 0.81129 0.0
C188 C 0.89399 0.40289 0.80389 0.0
C189 C 0.87892 0.40838 0.78605 0.0
C190 C 0.89247 0.43523 0.7753 0.0
C191 C 0.92016 0.45642 0.78276 0.0
H192 H 0.6057 0.06361 0.02622 0.0
H193 H 0.63208 0.11224 0.04264 0.0
H194 H 0.56834 0.12975 0.01133 0.0
H195 H 0.5413 0.08062 0.99601 0.0
H196 H 0.5497 0.02055 0.03416 0.0
H197 H 0.60397 0.07309 0.95988 0.0
H198 H 0.61503 0.11088 0.931 0.0
H199 H 0.52386 0.08266 0.92398 0.0
H200 H 0.51288 0.0446 0.9522 0.0
H201 H 0.48447 0.95307 0.94972 0.0
H202 H 0.46519 0.904 0.93476 0.0
H203 H 0.52901 0.89662 0.97718 0.0
H204 H 0.5481 0.94546 0.99202 0.0
H205 H 0.53401 0.00072 0.94759 0.0
H206 H 0.4757 0.94594 0.00773 0.0
H207 H 0.452 0.90901 0.03711 0.0
H208 H 0.53383 0.9405 0.07456 0.0
H209 H 0.5575 0.97768 0.04501 0.0
C210 C 0.57181 0.06862 0.00954 0.0
C211 C 0.59735 0.07791 0.023 0.0
C212 C 0.61253 0.1058 0.0322 0.0
C213 C 0.60248 0.12501 0.02813 0.0
C214 C 0.5766 0.11548 0.01494 0.0
C215 C 0.56132 0.0875 0.00587 0.0
C216 C 0.5562 0.03904 -0.00036 0.0
C217 C 0.54672 0.01619 0.01523 0.0
C218 C 0.55051 0.03324 0.9751 0.0
C219 C 0.55764 0.05617 0.95802 0.0
C220 C 0.58646 0.07511 0.95204 0.0
C221 C 0.59272 0.0966 0.93567 0.0
C222 C 0.57026 0.09966 0.92554 0.0
C223 C 0.54151 0.08085 0.93179 0.0
C224 C 0.53523 0.05907 0.94772 0.0
C225 C 0.51747 0.95282 0.97223 0.0
C226 C 0.4944 0.94092 0.95565 0.0
C227 C 0.48345 0.91292 0.9471 0.0
C228 C 0.49544 0.89638 0.95495 0.0
C229 C 0.51894 0.90861 0.97115 0.0
C230 C 0.52989 0.93654 0.97962 0.0
C231 C 0.52869 0.98216 0.98207 0.0
C232 C 0.53723 0.00494 0.96654 0.0
C233 C 0.53216 0.98779 0.00678 0.0
C234 C 0.51844 0.96445 0.02406 0.0
C235 C 0.48868 0.94461 0.02202 0.0
C236 C 0.47515 0.92344 0.03882 0.0
C237 C 0.49105 0.92176 0.05813 0.0
C238 C 0.52095 0.94142 0.05999 0.0
C239 C 0.53451 0.96262 0.04312 0.0
H240 H 0.47752 0.4632 0.21312 0.0
H241 H 0.49615 0.44402 0.24282 0.0
H242 H 0.57772 0.48065 0.20639 0.0
H243 H 0.55992 0.5024 0.17839 0.0
H244 H 0.49378 0.51608 0.20389 0.0
H245 H 0.49659 0.43906 0.15804 0.0
H246 H 0.52541 0.41822 0.14361 0.0
H247 H 0.57892 0.49505 0.10496 0.0
H248 H 0.55083 0.51598 0.1198 0.0
H249 H 0.51286 0.55376 0.10572 0.0
H250 H 0.49436 0.57228 0.07551 0.0
H251 H 0.41691 0.54587 0.11611 0.0
H252 H 0.43426 0.52453 0.14495 0.0
H253 H 0.49724 0.50432 0.11703 0.0
H254 H 0.50949 0.58462 0.16305 0.0
H255 H 0.4951 0.61733 0.18025 0.0
H256 H 0.42704 0.54742 0.2181 0.0
H257 H 0.44143 0.51472 0.2007 0.0
C258 C 0.51708 0.4839 0.19324 0.0
C259 C 0.49949 0.46722 0.21163 0.0
C260 C 0.5101 0.45585 0.22844 0.0
C261 C 0.53848 0.46043 0.22706 0.0
C262 C 0.55593 0.4769 0.20838 0.0
C263 C 0.54558 0.489 0.19201 0.0
C264 C 0.50575 0.49667 0.17599 0.0
C265 C 0.49415 0.51312 0.18489 0.0
C266 C 0.50735 0.49392 0.15113 0.0
C267 C 0.52181 0.47927 0.14029 0.0
C268 C 0.51441 0.4513 0.14634 0.0
C269 C 0.53082 0.43941 0.13808 0.0
C270 C 0.55439 0.45505 0.1232 0.0
C271 C 0.56068 0.48236 0.11617 0.0
C272 C 0.54462 0.49436 0.12467 0.0
C273 C 0.47509 0.53772 0.12777 0.0
C274 C 0.4918 0.55179 0.10809 0.0
C275 C 0.48133 0.56288 0.09093 0.0
C276 C 0.45405 0.56079 0.09322 0.0
C277 C 0.43777 0.54754 0.11341 0.0
C278 C 0.44794 0.53573 0.13024 0.0
C279 C 0.4856 0.52403 0.14492 0.0
C280 C 0.49669 0.50713 0.13604 0.0
C281 C 0.48481 0.52741 0.16974 0.0
C282 C 0.4763 0.54722 0.18041 0.0
C283 C 0.49144 0.57635 0.17502 0.0
C284 C 0.48337 0.59503 0.185 0.0
C285 C 0.45996 0.58488 0.2005 0.0
C286 C 0.44502 0.55575 0.20606 0.0
C287 C 0.45327 0.53711 0.19624 0.0
Zn288 Zn 0.67166 0.44716 0.40373 0.0
Zn289 Zn 0.64214 0.38981 0.40546 0.0
O290 O 0.68441 0.40083 0.40079 0.0
O291 O 0.7091 0.44746 0.39732 0.0
O292 O 0.62466 0.34746 0.40889 0.0
O293 O 0.65993 0.44943 0.43711 0.0
O294 O 0.63223 0.40264 0.4368 0.0
C295 C 0.70827 0.42365 0.39741 0.0
C296 C 0.62591 0.41883 0.36771 0.0
O297 O 0.62288 0.39571 0.37605 0.0
O298 O 0.64423 0.44283 0.3768 0.0
C299 C 0.59805 0.32836 0.40841 0.0
O300 O 0.57829 0.33573 0.40486 0.0
C301 C 0.64148 0.42685 0.44711 0.0
Zn302 Zn 0.23168 0.68413 0.58 0.0
Zn303 Zn 0.26237 0.65693 0.58342 0.0
O304 O 0.29302 0.69871 0.57859 0.0
O305 O 0.26881 0.72154 0.57473 0.0
O306 O 0.28732 0.63935 0.58854 0.0
O307 O 0.21628 0.67152 0.61297 0.0
O308 O 0.2387 0.64668 0.61384 0.0
C309 C 0.29267 0.72173 0.57501 0.0
C310 C 0.21766 0.63983 0.54371 0.0
O311 O 0.2379 0.63742 0.55361 0.0
O312 O 0.21064 0.65743 0.55189 0.0
C313 C 0.29987 0.63414 0.57184 0.0
O314 O 0.29538 0.639 0.54989 0.0
C315 C 0.22192 0.65418 0.62338 0.0
Zn316 Zn 0.54889 0.2274 0.74741 0.0
Zn317 Zn 0.60756 0.25956 0.7485 0.0
O318 O 0.59449 0.28906 0.74664 0.0
O319 O 0.54688 0.26399 0.74619 0.0
O320 O 0.65074 0.28416 0.75052 0.0
O321 O 0.55064 0.21013 0.77855 0.0
O322 O 0.59822 0.23642 0.77892 0.0
C323 C 0.57008 0.28794 0.74576 0.0
C324 C 0.57687 0.21689 0.70782 0.0
O325 O 0.60007 0.23628 0.71781 0.0
O326 O 0.5525 0.20917 0.71697 0.0
C327 C 0.66743 0.27373 0.74989 0.0
O328 O 0.65613 0.24594 0.74746 0.0
C329 C 0.57495 0.21766 0.78838 0.0
Zn330 Zn 0.34172 0.57269 0.89963 0.0
Zn331 Zn 0.36907 0.62996 0.90315 0.0
O332 O 0.32637 0.61824 0.89822 0.0
O333 O 0.30319 0.57127 0.89699 0.0
O334 O 0.38762 0.67259 0.9071 0.0
O335 O 0.35903 0.5713 0.93115 0.0
O336 O 0.37945 0.61811 0.93473 0.0
C337 C 0.30279 0.59448 0.89624 0.0
C338 C 0.38282 0.60084 0.86255 0.0
O339 O 0.38771 0.62363 0.87353 0.0
O340 O 0.36402 0.57669 0.87009 0.0
C341 C 0.41471 0.68978 0.90601 0.0
O342 O 0.43206 0.67965 0.90157 0.0
C343 C 0.37438 0.59422 0.94294 0.0
Zn344 Zn 0.78422 0.45012 0.0807 0.0
Zn345 Zn 0.75163 0.3925 0.07532 0.0
O346 O 0.72127 0.40421 0.08159 0.0
O347 O 0.74703 0.45089 0.0866 0.0
O348 O 0.72735 0.3502 0.06877 0.0
O349 O 0.79975 0.45318 0.04782 0.0
O350 O 0.77342 0.40635 0.04403 0.0
C351 C 0.72267 0.42804 0.08593 0.0
C352 C 0.79812 0.41883 0.11462 0.0
O353 O 0.77727 0.39683 0.1045 0.0
O354 O 0.80552 0.44366 0.10753 0.0
C355 C 0.71871 0.33088 0.08424 0.0
O356 O 0.7259 0.3382 0.10662 0.0
C357 C 0.79155 0.4305 0.03569 0.0
Zn358 Zn 0.34278 0.78933 0.23347 0.0
Zn359 Zn 0.37247 0.76083 0.23523 0.0
O360 O 0.33026 0.72935 0.23806 0.0
O361 O 0.30533 0.75172 0.23758 0.0
O362 O 0.3931 0.73845 0.23294 0.0
O363 O 0.35808 0.80383 0.20093 0.0
O364 O 0.38439 0.78308 0.20429 0.0
C365 C 0.30612 0.72874 0.23908 0.0
C366 C 0.38452 0.80586 0.27292 0.0
O367 O 0.38848 0.78587 0.26519 0.0
O368 O 0.36722 0.81185 0.26228 0.0
C369 C 0.39214 0.72133 0.24859 0.0
O370 O 0.37815 0.71881 0.26823 0.0
C371 C 0.37702 0.79863 0.19275 0.0
C372 C 0.1571 0.58181 0.26078 0.0
C373 C 0.15227 0.58043 0.28521 0.0
C374 C 0.18251 0.60416 0.25134 0.0
C375 C 0.20349 0.62554 0.26674 0.0
C376 C 0.19922 0.62358 0.29149 0.0
C377 C 0.17367 0.60105 0.30042 0.0
C378 C 0.18637 0.60552 0.22486 0.0
C379 C 0.22117 0.64584 0.30852 0.0
C380 C 0.28032 0.67642 0.24761 0.0
C381 C 0.27925 0.70147 0.24366 0.0
C382 C 0.25555 0.65115 0.25428 0.0
C383 C 0.22911 0.65095 0.25706 0.0
C384 C 0.2276 0.67581 0.25217 0.0
C385 C 0.25268 0.70076 0.24553 0.0
C386 C 0.25795 0.62502 0.25926 0.0
C387 C 0.19974 0.6764 0.25485 0.0
H388 H 0.14051 0.56603 0.24894 0.0
H389 H 0.17019 0.59979 0.31935 0.0
H390 H 0.18555 0.62426 0.21799 0.0
H391 H 0.20789 0.6084 0.22047 0.0
H392 H 0.16934 0.58599 0.21553 0.0
H393 H 0.21533 0.64033 0.32732 0.0
H394 H 0.24288 0.64836 0.30569 0.0
H395 H 0.2229 0.66682 0.3052 0.0
H396 H 0.30073 0.67671 0.24615 0.0
H397 H 0.25158 0.71994 0.2424 0.0
H398 H 0.24069 0.60613 0.24947 0.0
H399 H 0.25485 0.62028 0.27841 0.0
H400 H 0.27933 0.62789 0.25427 0.0
H401 H 0.18194 0.65849 0.24457 0.0
H402 H 0.20171 0.69678 0.24884 0.0
H403 H 0.19346 0.67354 0.27372 0.0
C404 C 0.55855 0.16491 0.42293 0.0
C405 C 0.55442 0.15811 0.44699 0.0
C406 C 0.5646 0.19192 0.4152 0.0
C407 C 0.56678 0.21261 0.43197 0.0
C408 C 0.56259 0.20582 0.45627 0.0
C409 C 0.55642 0.17865 0.46346 0.0
C410 C 0.56882 0.19836 0.38914 0.0
C411 C 0.56504 0.22741 0.47472 0.0
C412 C 0.61131 0.29134 0.41819 0.0
C413 C 0.58978 0.29831 0.41306 0.0
C414 C 0.6041 0.26342 0.42388 0.0
C415 C 0.57462 0.24182 0.42436 0.0
C416 C 0.55276 0.24848 0.41862 0.0
C417 C 0.5606 0.2767 0.41308 0.0
C418 C 0.62805 0.2572 0.42996 0.0
C419 C 0.52109 0.22592 0.41882 0.0
H420 H 0.55669 0.14897 0.41012 0.0
H421 H 0.5536 0.1736 0.48211 0.0
H422 H 0.55348 0.20515 0.38274 0.0
H423 H 0.59103 0.21633 0.38623 0.0
H424 H 0.56551 0.17965 0.37831 0.0
H425 H 0.56046 0.2185 0.49281 0.0
H426 H 0.5872 0.24629 0.4748 0.0
H427 H 0.54972 0.23502 0.47037 0.0
H428 H 0.63394 0.30784 0.41817 0.0
H429 H 0.54384 0.28186 0.40906 0.0
H430 H 0.62624 0.23956 0.41849 0.0
H431 H 0.62599 0.2501 0.44855 0.0
H432 H 0.64993 0.27615 0.42788 0.0
H433 H 0.51708 0.20746 0.40733 0.0
H434 H 0.50685 0.23418 0.41266 0.0
H435 H 0.51491 0.21786 0.43704 0.0
C436 C 0.39196 0.56039 0.60768 0.0
C437 C 0.42193 0.57945 0.6069 0.0
C438 C 0.372 0.56886 0.60104 0.0
C439 C 0.38219 0.59723 0.59383 0.0
C440 C 0.41236 0.61662 0.59298 0.0
C441 C 0.43188 0.60745 0.5994 0.0
C442 C 0.33998 0.54752 0.60208 0.0
C443 C 0.42401 0.64714 0.58557 0.0
C444 C 0.33084 0.61373 0.55935 0.0
C445 C 0.32062 0.62429 0.57734 0.0
C446 C 0.35089 0.60478 0.56444 0.0
C447 C 0.3612 0.60684 0.58801 0.0
C448 C 0.35109 0.61766 0.6062 0.0
C449 C 0.33077 0.62606 0.60067 0.0
C450 C 0.36089 0.59295 0.54466 0.0
C451 C 0.36182 0.62047 0.63151 0.0
H452 H 0.38401 0.53888 0.61388 0.0
H453 H 0.45496 0.62221 0.59844 0.0
H454 H 0.32973 0.55477 0.61535 0.0
H455 H 0.32935 0.54601 0.58469 0.0
H456 H 0.33564 0.52587 0.60687 0.0
H457 H 0.44807 0.65945 0.5856 0.0
H458 H 0.4158 0.64761 0.56754 0.0
H459 H 0.41623 0.65802 0.59775 0.0
H460 H 0.32302 0.61225 0.54129 0.0
H461 H 0.32314 0.6344 0.61465 0.0
H462 H 0.35551 0.5708 0.54867 0.0
H463 H 0.38477 0.60586 0.54315 0.0
H464 H 0.35078 0.59274 0.52729 0.0
H465 H 0.35639 0.59918 0.6382 0.0
H466 H 0.35228 0.6299 0.64347 0.0
H467 H 0.38576 0.6341 0.63238 0.0
C468 C 0.83943 0.3815 0.75566 0.0
C469 C 0.84867 0.38666 0.77946 0.0
C470 C 0.81045 0.36208 0.74941 0.0
C471 C 0.79029 0.34762 0.76742 0.0
C472 C 0.79964 0.35229 0.79144 0.0
C473 C 0.82871 0.37176 0.79717 0.0
C474 C 0.80128 0.35751 0.7236 0.0
C475 C 0.77875 0.33736 0.81117 0.0
C476 C 0.71074 0.32221 0.75638 0.0
C477 C 0.69911 0.29269 0.753 0.0
C478 C 0.74048 0.34037 0.76058 0.0
C479 C 0.75909 0.32877 0.76136 0.0
C480 C 0.74765 0.29911 0.7574 0.0
C481 C 0.71775 0.28139 0.75328 0.0
C482 C 0.75189 0.37192 0.76472 0.0
C483 C 0.7669 0.28603 0.75804 0.0
H484 H 0.85488 0.39273 0.74191 0.0
H485 H 0.83564 0.37596 0.81561 0.0
H486 H 0.79022 0.33442 0.71884 0.0
H487 H 0.78551 0.36487 0.72035 0.0
H488 H 0.81991 0.36918 0.7117 0.0
H489 H 0.78977 0.34227 0.82882 0.0
H490 H 0.76211 0.34397 0.81145 0.0
H491 H 0.76724 0.31389 0.80807 0.0
H492 H 0.69653 0.33116 0.75612 0.0
H493 H 0.70895 0.25862 0.75061 0.0
H494 H 0.76942 0.38455 0.75216 0.0
H495 H 0.76137 0.37825 0.78288 0.0
H496 H 0.73472 0.3777 0.76262 0.0
H497 H 0.78502 0.29713 0.74562 0.0
H498 H 0.7549 0.26288 0.75331 0.0
H499 H 0.77659 0.28877 0.77604 0.0
C500 C 0.47922 0.84512 0.96276 0.0
C501 C 0.48333 0.8663 0.94663 0.0
C502 C 0.46816 0.81666 0.95527 0.0
C503 C 0.46099 0.80915 0.93103 0.0
C504 C 0.46496 0.83039 0.91465 0.0
C505 C 0.47606 0.85874 0.92265 0.0
C506 C 0.46403 0.79459 0.97332 0.0
C507 C 0.4576 0.82318 0.88867 0.0
C508 C 0.45644 0.73985 0.91034 0.0
C509 C 0.42652 0.72067 0.91098 0.0
C510 C 0.46792 0.7689 0.91625 0.0
C511 C 0.44904 0.77896 0.923 0.0
C512 C 0.41879 0.75984 0.92316 0.0
C513 C 0.4079 0.73096 0.91712 0.0
C514 C 0.5003 0.78869 0.9158 0.0
C515 C 0.39796 0.76976 0.93027 0.0
H516 H 0.48437 0.85076 0.98137 0.0
H517 H 0.47946 0.87508 0.91008 0.0
H518 H 0.44091 0.77761 0.97359 0.0
H519 H 0.47674 0.78423 0.96839 0.0
H520 H 0.47083 0.80397 0.99147 0.0
H521 H 0.46195 0.84217 0.87822 0.0
H522 H 0.47041 0.81394 0.88131 0.0
H523 H 0.43438 0.80679 0.88635 0.0
H524 H 0.47098 0.73213 0.90554 0.0
H525 H 0.38474 0.71634 0.91761 0.0
H526 H 0.50865 0.79706 0.93395 0.0
H527 H 0.50554 0.80731 0.90458 0.0
H528 H 0.51188 0.77787 0.90895 0.0
H529 H 0.40229 0.77747 0.94898 0.0
H530 H 0.37498 0.75249 0.92843 0.0
H531 H 0.40117 0.78794 0.91927 0.0
C532 C 0.58372 0.44692 0.09312 0.0
C533 C 0.57403 0.44428 0.11642 0.0
C534 C 0.60578 0.44112 0.08725 0.0
C535 C 0.61859 0.43272 0.10519 0.0
C536 C 0.6078 0.42851 0.12848 0.0
C537 C 0.58554 0.43427 0.13381 0.0
C538 C 0.61644 0.44551 0.06215 0.0
C539 C 0.62095 0.41967 0.14811 0.0
C540 C 0.66852 0.40442 0.08798 0.0
C541 C 0.69589 0.42907 0.09059 0.0
C542 C 0.64309 0.40521 0.0926 0.0
C543 C 0.64512 0.43121 0.10015 0.0
C544 C 0.67265 0.45613 0.10284 0.0
C545 C 0.69766 0.45477 0.09796 0.0
C546 C 0.61408 0.37829 0.08939 0.0
C547 C 0.67572 0.48426 0.11096 0.0
H548 H 0.57461 0.45439 0.07961 0.0
H549 H 0.57829 0.43247 0.15189 0.0
H550 H 0.63854 0.46443 0.06163 0.0
H551 H 0.6179 0.42681 0.05572 0.0
H552 H 0.60213 0.44893 0.04982 0.0
H553 H 0.60817 0.41445 0.16456 0.0
H554 H 0.6226 0.40082 0.14247 0.0
H555 H 0.64325 0.43731 0.15223 0.0
H556 H 0.66693 0.38447 0.08225 0.0
H557 H 0.71868 0.47391 0.10011 0.0
H558 H 0.60055 0.38176 0.07627 0.0
H559 H 0.60234 0.37281 0.10634 0.0
H560 H 0.6162 0.35982 0.08329 0.0
H561 H 0.66416 0.49088 0.09836 0.0
H562 H 0.69872 0.50157 0.11241 0.0
H563 H 0.66564 0.48185 0.1285 0.0
C564 C 0.42753 0.85504 0.51809 0.0
C565 C 0.44215 0.87769 0.53443 0.0
C566 C 0.4054 0.82831 0.5254 0.0
C567 C 0.39798 0.82421 0.54962 0.0
C568 C 0.41417 0.84642 0.56639 0.0
C569 C 0.436 0.87296 0.55857 0.0
C570 C 0.38862 0.80516 0.50697 0.0
C571 C 0.40723 0.84277 0.5924 0.0
C572 C 0.31927 0.77295 0.56329 0.0
C573 C 0.31995 0.74834 0.5698 0.0
C574 C 0.34456 0.79775 0.5568 0.0
C575 C 0.37129 0.79807 0.55697 0.0
C576 C 0.3723 0.77354 0.56396 0.0
C577 C 0.34659 0.74891 0.57024 0.0
C578 C 0.3426 0.82352 0.54943 0.0
C579 C 0.40045 0.77321 0.56455 0.0
H580 H 0.43214 0.85875 0.4994 0.0
H581 H 0.44755 0.89044 0.57123 0.0
H582 H 0.38627 0.78455 0.51266 0.0
H583 H 0.36649 0.80205 0.50488 0.0
H584 H 0.39916 0.81051 0.48946 0.0
H585 H 0.42415 0.86061 0.60343 0.0
H586 H 0.38626 0.84194 0.59521 0.0
H587 H 0.4049 0.82237 0.59866 0.0
H588 H 0.29883 0.77273 0.56285 0.0
H589 H 0.34735 0.73 0.57527 0.0
H590 H 0.3502 0.82919 0.53102 0.0
H591 H 0.35691 0.84218 0.56101 0.0
H592 H 0.32017 0.81981 0.55034 0.0
H593 H 0.40949 0.77665 0.54651 0.0
H594 H 0.39771 0.75274 0.57115 0.0
H595 H 0.41662 0.79094 0.57606 0.0
C596 C 0.55754 0.41022 0.68439 0.0
C597 C 0.55603 0.43054 0.699 0.0
C598 C 0.56171 0.38876 0.69401 0.0
C599 C 0.56441 0.38757 0.71888 0.0
C600 C 0.56396 0.40864 0.7337 0.0
C601 C 0.55981 0.42996 0.72356 0.0
C602 C 0.56236 0.36685 0.67757 0.0
C603 C 0.56681 0.40804 0.76028 0.0
C604 C 0.54206 0.31335 0.74027 0.0
C605 C 0.56886 0.31443 0.74214 0.0
C606 C 0.54042 0.33749 0.73387 0.0
C607 C 0.56619 0.36332 0.72919 0.0
C608 C 0.59337 0.365 0.73226 0.0
C609 C 0.59439 0.34053 0.73873 0.0
C610 C 0.51102 0.33494 0.73093 0.0
C611 C 0.62131 0.3922 0.72751 0.0
H612 H 0.55507 0.4109 0.66536 0.0
H613 H 0.55846 0.44555 0.7349 0.0
H614 H 0.5824 0.36585 0.6808 0.0
H615 H 0.54371 0.34538 0.68112 0.0
H616 H 0.56137 0.37163 0.65861 0.0
H617 H 0.56841 0.42725 0.76915 0.0
H618 H 0.54769 0.38879 0.76718 0.0
H619 H 0.58624 0.40661 0.7652 0.0
H620 H 0.52223 0.29336 0.74304 0.0
H621 H 0.61522 0.34165 0.74025 0.0
H622 H 0.50678 0.33681 0.71194 0.0
H623 H 0.51042 0.35254 0.7407 0.0
H624 H 0.49331 0.31424 0.73732 0.0
H625 H 0.62282 0.39651 0.70827 0.0
H626 H 0.64064 0.39094 0.73323 0.0
H627 H 0.62176 0.41064 0.73677 0.0
C628 C 0.15911 0.58443 0.84405 0.0
C629 C 0.13791 0.57649 0.86131 0.0
C630 C 0.18756 0.59172 0.85034 0.0
C631 C 0.19485 0.59119 0.87445 0.0
C632 C 0.1741 0.58554 0.89209 0.0
C633 C 0.14578 0.57811 0.88528 0.0
C634 C 0.20906 0.59762 0.831 0.0
C635 C 0.18113 0.58517 0.91801 0.0
C636 C 0.24973 0.56777 0.88687 0.0
C637 C 0.27504 0.59385 0.89183 0.0
C638 C 0.22356 0.56674 0.88131 0.0
C639 C 0.22254 0.5924 0.88085 0.0
C640 C 0.24782 0.61878 0.88627 0.0
C641 C 0.27384 0.61922 0.89163 0.0
C642 C 0.19704 0.53814 0.87559 0.0
C643 C 0.24741 0.6465 0.88617 0.0
H644 H 0.15299 0.58299 0.82549 0.0
H645 H 0.12941 0.57226 0.89865 0.0
H646 H 0.23027 0.61668 0.83561 0.0
H647 H 0.21266 0.57918 0.82905 0.0
H648 H 0.20134 0.60106 0.81365 0.0
H649 H 0.16422 0.58475 0.9296 0.0
H650 H 0.18284 0.5659 0.92151 0.0
H651 H 0.2023 0.60411 0.92293 0.0
H652 H 0.25041 0.54807 0.88694 0.0
H653 H 0.29329 0.63947 0.89548 0.0
H654 H 0.18893 0.53818 0.85742 0.0
H655 H 0.17945 0.53418 0.88796 0.0
H656 H 0.2015 0.52019 0.87677 0.0
H657 H 0.24162 0.65025 0.86816 0.0
H658 H 0.26866 0.66509 0.89162 0.0
H659 H 0.23062 0.64528 0.8983 0.0
C660 C 0.60475 0.16844 0.04697 0.0
C661 C 0.61912 0.15494 0.03741 0.0
C662 C 0.62025 0.19685 0.05537 0.0
C663 C 0.65086 0.21208 0.05433 0.0
C664 C 0.66552 0.1985 0.04498 0.0
C665 C 0.64948 0.17016 0.03655 0.0
C666 C 0.60386 0.21067 0.06515 0.0
C667 C 0.69815 0.21403 0.04358 0.0
C668 C 0.69065 0.29309 0.05337 0.0
C669 C 0.70082 0.30044 0.07687 0.0
C670 C 0.67404 0.26443 0.04591 0.0
C671 C 0.66758 0.24252 0.0623 0.0
C672 C 0.67759 0.24974 0.08609 0.0
C673 C 0.69402 0.27864 0.09312 0.0
C674 C 0.66358 0.25759 0.02043 0.0
C675 C 0.67125 0.22694 0.10403 0.0
H676 H 0.58134 0.15673 0.04803 0.0
H677 H 0.66075 0.16008 0.02887 0.0
H678 H 0.61127 0.21842 0.08358 0.0
H679 H 0.60835 0.22953 0.05451 0.0
H680 H 0.58008 0.19577 0.06506 0.0
H681 H 0.7063 0.20006 0.0367 0.0
H682 H 0.70561 0.23261 0.03182 0.0
H683 H 0.70806 0.22241 0.06136 0.0
H684 H 0.69566 0.30977 0.0407 0.0
H685 H 0.70181 0.28412 0.1113 0.0
H686 H 0.63964 0.24398 0.01963 0.0
H687 H 0.67268 0.24532 0.01183 0.0
H688 H 0.66987 0.27711 0.01006 0.0
H689 H 0.64751 0.2125 0.10528 0.0
H690 H 0.68016 0.23608 0.12192 0.0
H691 H 0.68067 0.21369 0.09823 0.0
C692 C 0.47124 0.63135 0.21979 0.0
C693 C 0.45072 0.60455 0.2103 0.0
C694 C 0.4629 0.65073 0.22799 0.0
C695 C 0.4334 0.64323 0.22636 0.0
C696 C 0.41252 0.61596 0.21724 0.0
C697 C 0.42143 0.5969 0.20942 0.0
C698 C 0.48573 0.67947 0.23787 0.0
C699 C 0.3809 0.6073 0.21498 0.0
C700 C 0.40492 0.6845 0.26096 0.0
C701 C 0.40453 0.70268 0.24362 0.0
C702 C 0.41497 0.6655 0.25582 0.0
C703 C 0.42455 0.66449 0.23273 0.0
C704 C 0.42473 0.68317 0.2153 0.0
C705 C 0.41487 0.70212 0.22099 0.0
C706 C 0.41483 0.64613 0.27492 0.0
C707 C 0.43461 0.68262 0.19043 0.0
H708 H 0.49387 0.63716 0.22074 0.0
H709 H 0.40557 0.5763 0.20188 0.0
H710 H 0.48759 0.69662 0.22615 0.0
H711 H 0.47939 0.68338 0.25556 0.0
H712 H 0.50733 0.68118 0.23952 0.0
H713 H 0.36724 0.58485 0.20857 0.0
H714 H 0.37274 0.60976 0.23232 0.0
H715 H 0.3783 0.62152 0.2024 0.0
H716 H 0.39708 0.68488 0.27851 0.0
H717 H 0.41464 0.71606 0.20745 0.0
H718 H 0.43664 0.64844 0.27691 0.0
H719 H 0.39953 0.62352 0.26983 0.0
H720 H 0.40837 0.65073 0.29232 0.0
H721 H 0.45701 0.68626 0.19085 0.0
H722 H 0.43406 0.69903 0.17911 0.0
H723 H 0.4205 0.66128 0.18206 0.0
C724 C 0.85919 0.42666 0.39098 0.0
C725 C 0.86598 0.42418 0.36748 0.0
C726 C 0.83221 0.42349 0.3966 0.0
C727 C 0.81167 0.41789 0.37823 0.0
C728 C 0.81778 0.41372 0.35465 0.0
C729 C 0.84491 0.41685 0.34956 0.0
C730 C 0.82635 0.42773 0.42199 0.0
C731 C 0.79643 0.40776 0.33459 0.0
C732 C 0.73432 0.39598 0.39406 0.0
C733 C 0.73482 0.42217 0.39298 0.0
C734 C 0.75917 0.3942 0.38935 0.0
C735 C 0.78506 0.41916 0.38334 0.0
C736 C 0.78575 0.44565 0.38228 0.0
C737 C 0.76065 0.44684 0.38717 0.0
C738 C 0.75772 0.36564 0.39077 0.0
C739 C 0.81299 0.47276 0.37588 0.0
H740 H 0.87542 0.43207 0.40487 0.0
H741 H 0.85024 0.41519 0.33136 0.0
H742 H 0.82578 0.44791 0.42375 0.0
H743 H 0.80491 0.4101 0.42731 0.0
H744 H 0.84319 0.42884 0.43443 0.0
H745 H 0.8032 0.40216 0.31778 0.0
H746 H 0.77465 0.39003 0.33909 0.0
H747 H 0.7944 0.42696 0.33168 0.0
H748 H 0.71447 0.37679 0.39856 0.0
H749 H 0.76124 0.46714 0.38624 0.0
H750 H 0.77398 0.3669 0.40391 0.0
H751 H 0.76314 0.3599 0.3734 0.0
H752 H 0.73597 0.34827 0.39587 0.0
H753 H 0.83068 0.47713 0.38875 0.0
H754 H 0.80985 0.49158 0.37569 0.0
H755 H 0.82022 0.47019 0.35814 0.0
C756 C 0.14175 0.57808 0.41863 0.0
C757 C 0.1229 0.54852 0.41841 0.0
C758 C 0.15979 0.592 0.43836 0.0
C759 C 0.15826 0.57599 0.45852 0.0
C760 C 0.14003 0.5459 0.45796 0.0
C761 C 0.1227 0.53246 0.43773 0.0
C762 C 0.17938 0.62402 0.43808 0.0
C763 C 0.13739 0.52816 0.47923 0.0
C764 C 0.21558 0.61169 0.50744 0.0
C765 C 0.20224 0.62229 0.52248 0.0
C766 C 0.20151 0.59638 0.48654 0.0
C767 C 0.17327 0.59108 0.48095 0.0
C768 C 0.15942 0.60102 0.49649 0.0
C769 C 0.1742 0.61677 0.51691 0.0
C770 C 0.21714 0.58659 0.47015 0.0
C771 C 0.12907 0.59531 0.49141 0.0
H772 H 0.14179 0.59036 0.40357 0.0
H773 H 0.10784 0.50959 0.43751 0.0
H774 H 0.17105 0.63433 0.45032 0.0
H775 H 0.20153 0.62999 0.44435 0.0
H776 H 0.18073 0.63274 0.42012 0.0
H777 H 0.12451 0.50488 0.47514 0.0
H778 H 0.15912 0.5333 0.48597 0.0
H779 H 0.12669 0.53327 0.49369 0.0
H780 H 0.23733 0.61606 0.51164 0.0
H781 H 0.1637 0.6247 0.52861 0.0
H782 H 0.2203 0.59713 0.45282 0.0
H783 H 0.20393 0.56323 0.46675 0.0
H784 H 0.23865 0.59158 0.47745 0.0
H785 H 0.12869 0.60602 0.47488 0.0
H786 H 0.12078 0.60307 0.50599 0.0
H787 H 0.11406 0.57206 0.48864 0.0
C788 C 0.5573 0.14917 0.57911 0.0
C789 C 0.56817 0.13043 0.57749 0.0
C790 C 0.56256 0.16631 0.59944 0.0
C791 C 0.57835 0.16394 0.61877 0.0
C792 C 0.59053 0.146 0.6167 0.0
C793 C 0.58549 0.12959 0.5959 0.0
C794 C 0.54977 0.18568 0.60076 0.0
C795 C 0.60706 0.14252 0.63704 0.0
C796 C 0.60149 0.21743 0.67016 0.0
C797 C 0.57812 0.20321 0.68542 0.0
C798 C 0.60201 0.20495 0.64834 0.0
C799 C 0.57894 0.17741 0.642 0.0
C800 C 0.55571 0.16269 0.65766 0.0
C801 C 0.55543 0.17591 0.67905 0.0
C802 C 0.62681 0.22146 0.63185 0.0
C803 C 0.53098 0.13303 0.65176 0.0
H804 H 0.54394 0.14973 0.56473 0.0
H805 H 0.59361 0.11482 0.59459 0.0
H806 H 0.53141 0.17675 0.61314 0.0
H807 H 0.56612 0.20715 0.60772 0.0
H808 H 0.54169 0.18807 0.58321 0.0
H809 H 0.61786 0.13034 0.63168 0.0
H810 H 0.62369 0.16365 0.64435 0.0
H811 H 0.5919 0.13095 0.65149 0.0
H812 H 0.61899 0.23862 0.67499 0.0
H813 H 0.53747 0.16473 0.6909 0.0
H814 H 0.61846 0.22542 0.61508 0.0
H815 H 0.6373 0.20881 0.62724 0.0
H816 H 0.64346 0.24232 0.6397 0.0
H817 H 0.5191 0.13357 0.63571 0.0
H818 H 0.51539 0.12396 0.66643 0.0
H819 H 0.53948 0.11847 0.64778 0.0
C820 C 0.48071 0.59325 0.76092 0.0
C821 C 0.46785 0.58993 0.73842 0.0
C822 C 0.46947 0.59963 0.78091 0.0
C823 C 0.44472 0.60267 0.77835 0.0
C824 C 0.43281 0.60123 0.7555 0.0
C825 C 0.44451 0.59483 0.73579 0.0
C826 C 0.48281 0.60098 0.80497 0.0
C827 C 0.40654 0.60455 0.75202 0.0
C828 C 0.39277 0.57644 0.8293 0.0
C829 C 0.39881 0.602 0.84089 0.0
C830 C 0.40745 0.57655 0.8089 0.0
C831 C 0.42879 0.60289 0.79971 0.0
C832 C 0.43498 0.62884 0.81115 0.0
C833 C 0.4199 0.62811 0.83167 0.0
C834 C 0.40019 0.54835 0.79727 0.0
C835 C 0.4576 0.65729 0.80178 0.0
H836 H 0.49861 0.58928 0.76315 0.0
H837 H 0.43482 0.59281 0.71838 0.0
H838 H 0.4856 0.61973 0.8154 0.0
H839 H 0.46813 0.58157 0.81492 0.0
H840 H 0.50418 0.60222 0.80365 0.0
H841 H 0.40251 0.60696 0.73306 0.0
H842 H 0.38715 0.58543 0.75876 0.0
H843 H 0.40909 0.62337 0.7622 0.0
H844 H 0.37651 0.55613 0.83621 0.0
H845 H 0.42468 0.64794 0.84049 0.0
H846 H 0.41976 0.54609 0.79698 0.0
H847 H 0.39305 0.54764 0.77862 0.0
H848 H 0.38282 0.52977 0.80655 0.0
H849 H 0.47903 0.65856 0.80186 0.0
H850 H 0.45942 0.67555 0.81241 0.0
H851 H 0.45227 0.65943 0.78315 0.0
C852 C 0.87683 0.42455 0.92324 0.0
C853 C 0.88034 0.44485 0.90632 0.0
C854 C 0.85991 0.42019 0.94328 0.0
C855 C 0.84523 0.43574 0.94611 0.0
C856 C 0.84685 0.45463 0.92829 0.0
C857 C 0.86474 0.45933 0.90883 0.0
C858 C 0.85914 0.4002 0.96209 0.0
C859 C 0.83083 0.471 0.93033 0.0
C860 C 0.78896 0.41196 0.99436 0.0
C861 C 0.80455 0.43207 0.01242 0.0
C862 C 0.80162 0.41326 0.97237 0.0
C863 C 0.8308 0.43453 0.96878 0.0
C864 C 0.84663 0.4547 0.9871 0.0
C865 C 0.83316 0.45349 0.00854 0.0
C866 C 0.7838 0.39201 0.95297 0.0
C867 C 0.87803 0.47726 0.98423 0.0
H868 H 0.88797 0.41254 0.9212 0.0
H869 H 0.86734 0.47528 0.89616 0.0
H870 H 0.86993 0.41263 0.97854 0.0
H871 H 0.83646 0.38453 0.9665 0.0
H872 H 0.87022 0.38836 0.95653 0.0
H873 H 0.83072 0.48131 0.91346 0.0
H874 H 0.80811 0.45662 0.93559 0.0
H875 H 0.84132 0.48788 0.9443 0.0
H876 H 0.76677 0.39548 0.99732 0.0
H877 H 0.84534 0.46888 0.02259 0.0
H878 H 0.79358 0.37877 0.94818 0.0
H879 H 0.78369 0.40347 0.93682 0.0
H880 H 0.76105 0.37762 0.95824 0.0
H881 H 0.89099 0.46698 0.97989 0.0
H882 H 0.88748 0.49079 0.00046 0.0
H883 H 0.88011 0.4913 0.96932 0.0
C884 C 0.48217 0.90912 0.10087 0.0
C885 C 0.47598 0.90069 0.07695 0.0
C886 C 0.46626 0.89037 0.11888 0.0
C887 C 0.44354 0.86252 0.11283 0.0
C888 C 0.43784 0.85351 0.08877 0.0
C889 C 0.45415 0.87272 0.07111 0.0
C890 C 0.47302 0.90075 0.14435 0.0
C891 C 0.4139 0.82393 0.08166 0.0
C892 C 0.41573 0.80987 0.16308 0.0
C893 C 0.39213 0.81241 0.17071 0.0
C894 C 0.43212 0.82529 0.14369 0.0
C895 C 0.42469 0.84363 0.13167 0.0
C896 C 0.40018 0.84535 0.13865 0.0
C897 C 0.38421 0.82973 0.15808 0.0
C898 C 0.45806 0.82285 0.13669 0.0
C899 C 0.39146 0.86454 0.12616 0.0
H900 H 0.49876 0.93079 0.10551 0.0
H901 H 0.44954 0.86597 0.05266 0.0
H902 H 0.45434 0.90161 0.15191 0.0
H903 H 0.47654 0.88566 0.15508 0.0
H904 H 0.49254 0.92233 0.14615 0.0
H905 H 0.41369 0.81952 0.06238 0.0
H906 H 0.41625 0.80756 0.09154 0.0
H907 H 0.39264 0.82154 0.08629 0.0
H908 H 0.42198 0.79648 0.17267 0.0
H909 H 0.36592 0.83171 0.16374 0.0
H910 H 0.47819 0.84348 0.14038 0.0
H911 H 0.45722 0.81828 0.11741 0.0
H912 H 0.45943 0.80583 0.14644 0.0
H913 H 0.40868 0.88718 0.12877 0.0
H914 H 0.3708 0.86206 0.13279 0.0
H915 H 0.38904 0.85986 0.10683 0.0
C916 C 0.53193 0.42371 0.25724 0.0
C917 C 0.55019 0.44936 0.24571 0.0
C918 C 0.54204 0.41477 0.27654 0.0
C919 C 0.57135 0.43134 0.28404 0.0
C920 C 0.59033 0.45622 0.27161 0.0
C921 C 0.57945 0.46517 0.25291 0.0
C922 C 0.52102 0.38838 0.28961 0.0
C923 C 0.62194 0.47417 0.27873 0.0
C924 C 0.59568 0.43557 0.34782 0.0
C925 C 0.60837 0.41834 0.34725 0.0
C926 C 0.58186 0.43843 0.32768 0.0
C927 C 0.58171 0.42453 0.30623 0.0
C928 C 0.59372 0.40632 0.30577 0.0
C929 C 0.60658 0.40309 0.3265 0.0
C930 C 0.56852 0.45733 0.32913 0.0
C931 C 0.59465 0.39175 0.28312 0.0
H932 H 0.5095 0.41082 0.25152 0.0
H933 H 0.59382 0.48521 0.24457 0.0
H934 H 0.52986 0.37382 0.29182 0.0
H935 H 0.51779 0.39464 0.30761 0.0
H936 H 0.4996 0.37651 0.28037 0.0
H937 H 0.63453 0.49067 0.26548 0.0
H938 H 0.62394 0.48509 0.29599 0.0
H939 H 0.63179 0.46047 0.28101 0.0
H940 H 0.59699 0.44721 0.364 0.0
H941 H 0.61671 0.38999 0.32612 0.0
H942 H 0.54629 0.44615 0.32129 0.0
H943 H 0.58153 0.47691 0.31881 0.0
H944 H 0.56746 0.46382 0.34766 0.0
H945 H 0.57309 0.38081 0.27411 0.0
H946 H 0.60172 0.37589 0.28626 0.0
H947 H 0.61001 0.40804 0.27085 0.0
C948 C 0.47802 0.90081 0.38536 0.0
C949 C 0.46035 0.90773 0.39895 0.0
C950 C 0.46697 0.88278 0.36525 0.0
C951 C 0.43727 0.87045 0.35906 0.0
C952 C 0.41892 0.87585 0.37345 0.0
C953 C 0.43074 0.8948 0.39291 0.0
C954 C 0.48736 0.87803 0.35004 0.0
C955 C 0.38693 0.86248 0.36778 0.0
C956 C 0.41096 0.85189 0.29528 0.0
C957 C 0.39998 0.82235 0.29441 0.0
C958 C 0.42434 0.86794 0.31594 0.0
C959 C 0.42575 0.85388 0.33649 0.0
C960 C 0.41491 0.82401 0.33563 0.0
C961 C 0.40257 0.80863 0.31439 0.0
C962 C 0.4365 0.89988 0.31589 0.0
C963 C 0.41518 0.80816 0.35737 0.0
H964 H 0.50071 0.90989 0.39011 0.0
H965 H 0.41678 0.90013 0.40284 0.0
H966 H 0.47902 0.85486 0.34719 0.0
H967 H 0.48875 0.88737 0.33237 0.0
H968 H 0.50953 0.8879 0.35798 0.0
H969 H 0.37505 0.86585 0.38234 0.0
H970 H 0.38377 0.87192 0.35147 0.0
H971 H 0.37719 0.83918 0.36437 0.0
H972 H 0.40912 0.86248 0.2797 0.0
H973 H 0.39382 0.7857 0.31369 0.0
H974 H 0.45921 0.9111 0.3227 0.0
H975 H 0.42379 0.9057 0.32781 0.0
H976 H 0.43601 0.90778 0.29791 0.0
H977 H 0.43737 0.81799 0.36516 0.0
H978 H 0.4073 0.78521 0.35345 0.0
H979 H 0.40117 0.80971 0.371 0.0
C980 C 0.55327 0.45807 0.54081 0.0
C981 C 0.56077 0.45809 0.56469 0.0
C982 C 0.56548 0.44954 0.52289 0.0
C983 C 0.58571 0.44085 0.52898 0.0
C984 C 0.59237 0.43956 0.5531 0.0
C985 C 0.57985 0.44825 0.57069 0.0
C986 C 0.55782 0.45126 0.49736 0.0
C987 C 0.61364 0.43017 0.56028 0.0
C988 C 0.60456 0.40564 0.47902 0.0
C989 C 0.6292 0.42919 0.46988 0.0
C990 C 0.59077 0.40875 0.49897 0.0
C991 C 0.60193 0.43601 0.50996 0.0
C992 C 0.6276 0.45949 0.50153 0.0
C993 C 0.64091 0.45579 0.48163 0.0
C994 C 0.56354 0.3832 0.50759 0.0
C995 C 0.64031 0.48889 0.51284 0.0
H996 H 0.53878 0.46591 0.53602 0.0
H997 H 0.58536 0.4478 0.58916 0.0
H998 H 0.57711 0.46824 0.48844 0.0
H999 H 0.5513 0.43083 0.48779 0.0
H1000 H 0.53995 0.45611 0.49568 0.0
H1001 H 0.61394 0.4272 0.5797 0.0
H1002 H 0.60832 0.40984 0.55105 0.0
H1003 H 0.63575 0.44647 0.55497 0.0
H1004 H 0.5954 0.38499 0.47009 0.0
H1005 H 0.66009 0.47406 0.47486 0.0
H1006 H 0.54466 0.38598 0.50371 0.0
H1007 H 0.56476 0.38135 0.52706 0.0
H1008 H 0.55961 0.36295 0.49898 0.0
H1009 H 0.62507 0.49705 0.51033 0.0
H1010 H 0.66145 0.50441 0.50518 0.0
H1011 H 0.64343 0.48791 0.53218 0.0
C1012 C 0.09886 0.55812 0.70962 0.0
C1013 C 0.10544 0.56117 0.73394 0.0
C1014 C 0.12034 0.57343 0.69307 0.0
C1015 C 0.14907 0.59249 0.70106 0.0
C1016 C 0.15602 0.59515 0.72558 0.0
C1017 C 0.13409 0.5793 0.74176 0.0
C1018 C 0.11211 0.56968 0.66705 0.0
C1019 C 0.18633 0.61541 0.73477 0.0
C1020 C 0.20564 0.61559 0.65335 0.0
C1021 C 0.2068 0.64067 0.64548 0.0
C1022 C 0.18794 0.60029 0.67222 0.0
C1023 C 0.17128 0.6105 0.68363 0.0
C1024 C 0.17377 0.63671 0.67673 0.0
C1025 C 0.19136 0.65139 0.65766 0.0
C1026 C 0.18578 0.57236 0.679 0.0
C1027 C 0.15669 0.64854 0.6887 0.0
H1028 H 0.07677 0.54384 0.70355 0.0
H1029 H 0.13915 0.58182 0.76059 0.0
H1030 H 0.1153 0.5901 0.65999 0.0
H1031 H 0.12631 0.56396 0.657 0.0
H1032 H 0.0892 0.55287 0.66371 0.0
H1033 H 0.18862 0.61349 0.75413 0.0
H1034 H 0.20221 0.61137 0.7255 0.0
H1035 H 0.19203 0.63772 0.73108 0.0
H1036 H 0.2175 0.60713 0.64405 0.0
H1037 H 0.19236 0.67091 0.65185 0.0
H1038 H 0.16403 0.55443 0.67382 0.0
H1039 H 0.18824 0.57156 0.69846 0.0
H1040 H 0.2024 0.56896 0.67024 0.0
H1041 H 0.13329 0.63458 0.68444 0.0
H1042 H 0.16335 0.67055 0.68298 0.0
H1043 H 0.15942 0.64881 0.70822 0.0
C1044 C 0.58985 0.12145 0.88657 0.0
C1045 C 0.57631 0.12153 0.90763 0.0
C1046 C 0.59206 0.13938 0.86797 0.0
C1047 C 0.58095 0.15816 0.8708 0.0
C1048 C 0.56882 0.15949 0.89262 0.0
C1049 C 0.5663 0.14085 0.9107 0.0
C1050 C 0.60467 0.13696 0.84483 0.0
C1051 C 0.55734 0.17968 0.89651 0.0
C1052 C 0.60113 0.21566 0.82482 0.0
C1053 C 0.57627 0.20334 0.81013 0.0
C1054 C 0.6028 0.20153 0.84499 0.0
C1055 C 0.57933 0.1742 0.8502 0.0
C1056 C 0.55418 0.16174 0.83545 0.0
C1057 C 0.55284 0.17659 0.81576 0.0
C1058 C 0.62967 0.21573 0.86064 0.0
C1059 C 0.52886 0.13241 0.84017 0.0
H1060 H 0.59736 0.10629 0.88421 0.0
H1061 H 0.55597 0.14094 0.92711 0.0
H1062 H 0.58738 0.12803 0.83089 0.0
H1063 H 0.62155 0.15835 0.83903 0.0
H1064 H 0.61433 0.12295 0.84611 0.0
H1065 H 0.55198 0.18064 0.91533 0.0
H1066 H 0.57345 0.20152 0.89095 0.0
H1067 H 0.53745 0.17258 0.8855 0.0
H1068 H 0.61925 0.23641 0.8206 0.0
H1069 H 0.53365 0.16684 0.80437 0.0
H1070 H 0.64043 0.20269 0.86072 0.0
H1071 H 0.62372 0.21715 0.87917 0.0
H1072 H 0.64546 0.23756 0.85473 0.0
H1073 H 0.53616 0.11645 0.84013 0.0
H1074 H 0.51107 0.12561 0.82679 0.0
H1075 H 0.5201 0.13217 0.85794 0.0
C1076 C 0.41225 0.55562 0.06818 0.0
C1077 C 0.44203 0.57067 0.07384 0.0
C1078 C 0.4011 0.56263 0.04838 0.0
C1079 C 0.42023 0.58458 0.03335 0.0
C1080 C 0.45006 0.6007 0.03944 0.0
C1081 C 0.4605 0.59388 0.05981 0.0
C1082 C 0.36899 0.54544 0.04285 0.0
C1083 C 0.47128 0.62395 0.02365 0.0
C1084 C 0.3963 0.57302 0.96883 0.0
C1085 C 0.38709 0.59294 0.96589 0.0
C1086 C 0.40797 0.57082 0.9905 0.0
C1087 C 0.40955 0.58831 0.00998 0.0
C1088 C 0.40025 0.6085 0.00713 0.0
C1089 C 0.38955 0.61093 0.98492 0.0
C1090 C 0.41845 0.5496 0.99257 0.0
C1091 C 0.40076 0.62686 0.02768 0.0
H1092 H 0.39764 0.53746 0.07855 0.0
H1093 H 0.48338 0.60631 0.06432 0.0
H1094 H 0.36047 0.55974 0.03802 0.0
H1095 H 0.36505 0.53094 0.02746 0.0
H1096 H 0.35658 0.53231 0.05804 0.0
H1097 H 0.49326 0.63617 0.03191 0.0
H1098 H 0.47289 0.61426 0.00671 0.0
H1099 H 0.46361 0.63904 0.01928 0.0
H1100 H 0.39468 0.55933 0.95401 0.0
H1101 H 0.38222 0.62621 0.98264 0.0
H1102 H 0.40497 0.53285 0.00532 0.0
H1103 H 0.44111 0.56046 -0.0005 0.0
H1104 H 0.41753 0.53905 0.97533 0.0
H1105 H 0.38625 0.61304 0.04169 0.0
H1106 H 0.39367 0.64216 0.02236 0.0
H1107 H 0.42288 0.63904 0.03562 0.0
C1108 C 0.89113 0.40911 0.22378 0.0
C1109 C 0.90047 0.43422 0.23747 0.0
C1110 C 0.87276 0.40297 0.20388 0.0
C1111 C 0.86266 0.42186 0.19792 0.0
C1112 C 0.87068 0.44638 0.21232 0.0
C1113 C 0.88984 0.45252 0.23159 0.0
C1114 C 0.86519 0.37692 0.18866 0.0
C1115 C 0.85986 0.46678 0.20688 0.0
C1116 C 0.84449 0.43149 0.13497 0.0
C1117 C 0.81419 0.41601 0.13474 0.0
C1118 C 0.86052 0.432 0.15498 0.0
C1119 C 0.84581 0.41757 0.17557 0.0
C1120 C 0.81512 0.4012 0.17518 0.0
C1121 C 0.79962 0.40024 0.15454 0.0
C1122 C 0.89321 0.44895 0.15438 0.0
C1123 C 0.79864 0.38621 0.19697 0.0
H1124 H 0.89848 0.39435 0.22837 0.0
H1125 H 0.89713 0.47225 0.24155 0.0
H1126 H 0.84139 0.36376 0.18597 0.0
H1127 H 0.87477 0.38374 0.17092 0.0
H1128 H 0.8733 0.36342 0.19649 0.0
H1129 H 0.8652 0.48284 0.22135 0.0
H1130 H 0.86978 0.47826 0.19037 0.0
H1131 H 0.83602 0.45486 0.20392 0.0
H1132 H 0.85566 0.44355 0.11953 0.0
H1133 H 0.77613 0.38852 0.15433 0.0
H1134 H 0.90254 0.43601 0.16109 0.0
H1135 H 0.90138 0.46815 0.1661 0.0
H1136 H 0.90123 0.45604 0.13624 0.0
H1137 H 0.80735 0.37322 0.20471 0.0
H1138 H 0.77512 0.37213 0.19311 0.0
H1139 H 0.80137 0.40238 0.21059 0.0
loop_
_geom_bond_atom_site_label_1
_geom_bond_atom_site_label_2
_geom_bond_distance
_geom_bond_site_symmetry_2
_ccdc_geom_bond_type
H0 C19 0.949 . S
H1 C20 0.950 . S
H2 C22 0.950 . S
H3 C23 0.950 . S
H4 C25 0.950 . S
H5 C28 0.950 . S
H6 C29 0.950 . S
H7 C31 0.951 . S
H8 C32 0.949 . S
H9 C34 0.949 . S
H10 C35 0.950 . S
H11 C37 0.950 . S
H12 C38 0.950 . S
H13 C40 0.944 1_655 S
H14 C43 0.950 . S
H15 C44 0.950 . S
H16 C46 0.951 . S
H17 C47 0.949 . S
C18 C19 1.376 . S
C18 C23 1.386 . S
C18 C24 1.483 . S
C19 H0 0.949 . S
C19 C18 1.376 . S
C19 C20 1.397 . S
C20 H1 0.950 . S
C20 C19 1.397 . S
C20 C21 1.391 . S
C21 C20 1.391 . S
C21 C22 1.405 . S
C22 H2 0.950 . S
C22 C21 1.405 . S
C22 C23 1.367 . S
C23 H3 0.950 . S
C23 C18 1.386 . S
C23 C22 1.367 . S
C24 C18 1.483 . S
C24 C25 1.382 1_655 S
C24 C26 1.403 . S
C25 H4 0.950 . S
C25 C24 1.382 1_455 S
C25 C41 1.411 . S
C26 C24 1.403 . S
C26 C27 1.489 . S
C26 C40 1.400 1_655 S
C27 C26 1.489 . S
C27 C28 1.383 . S
C27 C32 1.382 . S
C28 H5 0.950 . S
C28 C27 1.383 . S
C28 C29 1.395 . S
C29 H6 0.950 . S
C29 C28 1.395 . S
C29 C30 1.288 . S
C30 C29 1.288 . S
C30 C31 1.392 . S
C31 H7 0.951 . S
C31 C30 1.392 . S
C31 C32 1.392 . S
C32 H8 0.949 . S
C32 C27 1.382 . S
C32 C31 1.392 . S
C33 C34 1.376 . S
C33 C38 1.386 . S
C33 C39 1.483 . S
C34 H9 0.949 . S
C34 C33 1.376 . S
C34 C35 1.397 . S
C35 H10 0.950 . S
C35 C34 1.397 . S
C35 C36 1.391 . S
C36 C35 1.391 . S
C36 C37 1.405 . S
C37 H11 0.950 . S
C37 C36 1.405 . S
C37 C38 1.367 . S
C38 H12 0.950 . S
C38 C33 1.386 . S
C38 C37 1.367 . S
C39 C33 1.483 . S
C39 C40 1.399 . S
C39 C41 1.403 . S
C40 H13 0.944 1_455 S
C40 C26 1.400 1_455 S
C40 C39 1.399 . S
C41 C25 1.411 . S
C41 C39 1.403 . S
C41 C42 1.489 . S
C42 C41 1.489 . S
C42 C43 1.383 . S
C42 C47 1.382 . S
C43 H14 0.950 . S
C43 C42 1.383 . S
C43 C44 1.395 . S
C44 H15 0.950 . S
C44 C43 1.395 . S
C44 C45 1.288 . S
C45 C44 1.288 . S
C45 C46 1.392 . S
C46 H16 0.951 . S
C46 C45 1.392 . S
C46 C47 1.392 . S
C47 H17 0.949 . S
C47 C42 1.382 . S
C47 C46 1.392 . S
H48 C67 0.949 . S
H49 C68 0.950 . S
H50 C70 0.950 . S
H51 C71 0.950 . S
H52 C73 0.950 . S
H53 C76 0.950 . S
H54 C77 0.950 . S
H55 C79 0.951 . S
H56 C80 0.949 . S
H57 C82 0.949 . S
H58 C83 0.950 . S
H59 C85 0.950 . S
H60 C86 0.950 . S
H61 C88 0.950 . S
H62 C91 0.950 . S
H63 C92 0.950 . S
H64 C94 0.951 . S
H65 C95 0.949 . S
C66 C67 1.376 . S
C66 C71 1.386 . S
C66 C72 1.483 . S
C67 H48 0.949 . S
C67 C66 1.376 . S
C67 C68 1.397 . S
C68 H49 0.950 . S
C68 C67 1.397 . S
C68 C69 1.391 . S
C69 C68 1.391 . S
C69 C70 1.405 . S
C70 H50 0.950 . S
C70 C69 1.405 . S
C70 C71 1.367 . S
C71 H51 0.950 . S
C71 C66 1.386 . S
C71 C70 1.367 . S
C72 C66 1.483 . S
C72 C73 1.382 . S
C72 C74 1.403 . S
C73 H52 0.950 . S
C73 C72 1.382 . S
C73 C89 1.411 1_565 S
C74 C72 1.403 . S
C74 C75 1.489 . S
C74 C88 1.411 1_565 S
C75 C74 1.489 . S
C75 C76 1.383 . S
C75 C80 1.382 . S
C76 H53 0.950 . S
C76 C75 1.383 . S
C76 C77 1.395 . S
C77 H54 0.950 . S
C77 C76 1.395 . S
C77 C78 1.288 . S
C78 C77 1.288 . S
C78 C79 1.392 . S
C79 H55 0.951 . S
C79 C78 1.392 . S
C79 C80 1.392 . S
C80 H56 0.949 . S
C80 C75 1.382 . S
C80 C79 1.392 . S
C81 C82 1.376 . S
C81 C86 1.386 . S
C81 C87 1.483 . S
C82 H57 0.949 . S
C82 C81 1.376 . S
C82 C83 1.397 . S
C83 H58 0.950 . S
C83 C82 1.397 . S
C83 C84 1.391 . S
C84 C83 1.391 . S
C84 C85 1.405 . S
C85 H59 0.950 . S
C85 C84 1.405 . S
C85 C86 1.367 . S
C86 H60 0.950 . S
C86 C81 1.386 . S
C86 C85 1.367 . S
C87 C81 1.483 . S
C87 C88 1.382 . S
C87 C89 1.403 . S
C88 H61 0.950 . S
C88 C74 1.411 1_545 S
C88 C87 1.382 . S
C89 C73 1.411 1_545 S
C89 C87 1.403 . S
C89 C90 1.489 . S
C90 C89 1.489 . S
C90 C91 1.383 . S
C90 C95 1.382 . S
C91 H62 0.950 . S
C91 C90 1.383 . S
C91 C92 1.395 . S
C92 H63 0.950 . S
C92 C91 1.395 . S
C92 C93 1.288 . S
C93 C92 1.288 . S
C93 C94 1.392 . S
C94 H64 0.951 . S
C94 C93 1.392 . S
C94 C95 1.392 . S
C95 H65 0.949 . S
C95 C90 1.382 . S
C95 C94 1.392 . S
H96 C115 0.949 . S
H97 C116 0.950 . S
H98 C118 0.950 . S
H99 C119 0.950 . S
H100 C121 0.950 . S
H101 C124 0.950 . S
H102 C125 0.950 . S
H103 C127 0.951 . S
H104 C128 0.949 . S
H105 C130 0.949 . S
H106 C131 0.950 . S
H107 C133 0.950 . S
H108 C134 0.950 . S
H109 C136 0.950 . S
H110 C139 0.950 . S
H111 C140 0.950 . S
H112 C142 0.951 . S
H113 C143 0.949 . S
C114 C115 1.376 . S
C114 C119 1.386 . S
C114 C120 1.483 . S
C115 H96 0.949 . S
C115 C114 1.376 . S
C115 C116 1.397 . S
C116 H97 0.950 . S
C116 C115 1.397 . S
C116 C117 1.391 . S
C117 C116 1.391 . S
C117 C118 1.405 . S
C118 H98 0.950 . S
C118 C117 1.405 . S
C118 C119 1.367 . S
C119 H99 0.950 . S
C119 C114 1.386 . S
C119 C118 1.367 . S
C120 C114 1.483 . S
C120 C121 1.382 . S
C120 C122 1.403 . S
C121 H100 0.950 . S
C121 C120 1.382 . S
C121 C137 1.411 . S
C122 C120 1.403 . S
C122 C123 1.489 . S
C122 C136 1.411 . S
C123 C122 1.489 . S
C123 C124 1.383 . S
C123 C128 1.382 . S
C124 H101 0.950 . S
C124 C123 1.383 . S
C124 C125 1.395 . S
C125 H102 0.950 . S
C125 C124 1.395 . S
C125 C126 1.288 . S
C126 C125 1.288 . S
C126 C127 1.392 . S
C127 H103 0.951 . S
C127 C126 1.392 . S
C127 C128 1.392 . S
C128 H104 0.949 . S
C128 C123 1.382 . S
C128 C127 1.392 . S
C129 C130 1.376 . S
C129 C134 1.386 . S
C129 C135 1.483 . S
C130 H105 0.949 . S
C130 C129 1.376 . S
C130 C131 1.397 . S
C131 H106 0.950 . S
C131 C130 1.397 . S
C131 C132 1.391 . S
C132 C131 1.391 . S
C132 C133 1.405 . S
C133 H107 0.950 . S
C133 C132 1.405 . S
C133 C134 1.367 . S
C134 H108 0.950 . S
C134 C129 1.386 . S
C134 C133 1.367 . S
C135 C129 1.483 . S
C135 C136 1.382 . S
C135 C137 1.403 . S
C136 H109 0.950 . S
C136 C122 1.411 . S
C136 C135 1.382 . S
C137 C121 1.411 . S
C137 C135 1.403 . S
C137 C138 1.489 . S
C138 C137 1.489 . S
C138 C139 1.383 . S
C138 C143 1.382 . S
C139 H110 0.950 . S
C139 C138 1.383 . S
C139 C140 1.395 . S
C140 H111 0.950 . S
C140 C139 1.395 . S
C140 C141 1.288 . S
C141 C140 1.288 . S
C141 C142 1.392 . S
C142 H112 0.951 . S
C142 C141 1.392 . S
C142 C143 1.392 . S
C143 H113 0.949 . S
C143 C138 1.382 . S
C143 C142 1.392 . S
H144 C163 0.949 . S
H145 C164 0.950 . S
H146 C166 0.950 . S
H147 C167 0.950 . S
H148 C169 0.950 1_655 S
H149 C172 0.950 . S
H150 C173 0.950 . S
H151 C175 0.951 . S
H152 C176 0.949 . S
H153 C178 0.949 . S
H154 C179 0.950 . S
H155 C181 0.950 . S
H156 C182 0.950 . S
H157 C184 0.950 . S
H158 C187 0.950 . S
H159 C188 0.950 . S
H160 C190 0.951 . S
H161 C191 0.949 . S
C162 C163 1.376 . S
C162 C167 1.386 . S
C162 C168 1.483 . S
C163 H144 0.949 . S
C163 C162 1.376 . S
C163 C164 1.397 . S
C164 H145 0.950 . S
C164 C163 1.397 . S
C164 C165 1.391 . S
C165 C164 1.391 . S
C165 C166 1.405 . S
C166 H146 0.950 . S
C166 C165 1.405 . S
C166 C167 1.367 . S
C167 H147 0.950 . S
C167 C162 1.386 . S
C167 C166 1.367 . S
C168 C162 1.483 . S
C168 C169 1.382 . S
C168 C170 1.403 . S
C169 H148 0.950 1_455 S
C169 C168 1.382 . S
C169 C185 1.411 1_455 S
C170 C168 1.403 . S
C170 C171 1.489 . S
C170 C184 1.411 . S
C171 C170 1.489 . S
C171 C172 1.383 . S
C171 C176 1.382 . S
C172 H149 0.950 . S
C172 C171 1.383 . S
C172 C173 1.395 . S
C173 H150 0.950 . S
C173 C172 1.395 . S
C173 C174 1.288 . S
C174 C173 1.288 . S
C174 C175 1.392 . S
C175 H151 0.951 . S
C175 C174 1.392 . S
C175 C176 1.392 . S
C176 H152 0.949 . S
C176 C171 1.382 . S
C176 C175 1.392 . S
C177 C178 1.376 . S
C177 C182 1.386 . S
C177 C183 1.483 . S
C178 H153 0.949 . S
C178 C177 1.376 . S
C178 C179 1.397 . S
C179 H154 0.950 . S
C179 C178 1.397 . S
C179 C180 1.391 . S
C180 C179 1.391 . S
C180 C181 1.405 . S
C181 H155 0.950 . S
C181 C180 1.405 . S
C181 C182 1.367 . S
C182 H156 0.950 . S
C182 C177 1.386 . S
C182 C181 1.367 . S
C183 C177 1.483 . S
C183 C184 1.382 1_655 S
C183 C185 1.403 . S
C184 H157 0.950 . S
C184 C170 1.411 . S
C184 C183 1.382 1_455 S
C185 C169 1.411 1_655 S
C185 C183 1.403 . S
C185 C186 1.489 . S
C186 C185 1.489 . S
C186 C187 1.383 . S
C186 C191 1.382 . S
C187 H158 0.950 . S
C187 C186 1.383 . S
C187 C188 1.395 . S
C188 H159 0.950 . S
C188 C187 1.395 . S
C188 C189 1.288 . S
C189 C188 1.288 . S
C189 C190 1.392 . S
C190 H160 0.951 . S
C190 C189 1.392 . S
C190 C191 1.392 . S
C191 H161 0.949 . S
C191 C186 1.382 . S
C191 C190 1.392 . S
H192 C211 0.949 . S
H193 C212 0.950 . S
H194 C214 0.950 . S
H195 C215 0.950 . S
H196 C217 0.950 . S
H197 C220 0.950 . S
H198 C221 0.950 . S
H199 C223 0.951 . S
H200 C224 0.949 . S
H201 C226 0.949 . S
H202 C227 0.950 . S
H203 C229 0.950 . S
H204 C230 0.950 . S
H205 C232 0.956 . S
H206 C235 0.950 . S
H207 C236 0.950 . S
H208 C238 0.951 . S
H209 C239 0.949 . S
C210 C211 1.376 . S
C210 C215 1.386 1_554 S
C210 C216 1.483 1_554 S
C211 H192 0.949 . S
C211 C210 1.376 . S
C211 C212 1.397 . S
C212 H193 0.950 . S
C212 C211 1.397 . S
C212 C213 1.391 . S
C213 C212 1.391 . S
C213 C214 1.405 . S
C214 H194 0.950 . S
C214 C213 1.405 . S
C214 C215 1.367 1_554 S
C215 H195 0.950 . S
C215 C210 1.386 1_556 S
C215 C214 1.367 1_556 S
C216 C210 1.483 1_556 S
C216 C217 1.382 1_556 S
C216 C218 1.403 . S
C217 H196 0.950 . S
C217 C216 1.382 1_554 S
C217 C233 1.411 1_545 S
C218 C216 1.403 . S
C218 C219 1.489 . S
C218 C232 1.388 1_545 S
C219 C218 1.489 . S
C219 C220 1.383 . S
C219 C224 1.382 . S
C220 H197 0.950 . S
C220 C219 1.383 . S
C220 C221 1.395 . S
C221 H198 0.950 . S
C221 C220 1.395 . S
C221 C222 1.288 . S
C222 C221 1.288 . S
C222 C223 1.392 . S
C223 H199 0.951 . S
C223 C222 1.392 . S
C223 C224 1.392 . S
C224 H200 0.949 . S
C224 C219 1.382 . S
C224 C223 1.392 . S
C225 C226 1.376 . S
C225 C230 1.386 . S
C225 C231 1.483 . S
C226 H201 0.949 . S
C226 C225 1.376 . S
C226 C227 1.397 . S
C227 H202 0.950 . S
C227 C226 1.397 . S
C227 C228 1.391 . S
C228 C227 1.391 . S
C228 C229 1.405 . S
C229 H203 0.950 . S
C229 C228 1.405 . S
C229 C230 1.367 . S
C230 H204 0.950 . S
C230 C225 1.386 . S
C230 C229 1.367 . S
C231 C225 1.483 . S
C231 C232 1.399 . S
C231 C233 1.403 1_556 S
C232 H205 0.956 . S
C232 C218 1.388 1_565 S
C232 C231 1.399 . S
C233 C217 1.411 1_565 S
C233 C231 1.403 1_554 S
C233 C234 1.489 . S
C234 C233 1.489 . S
C234 C235 1.383 . S
C234 C239 1.382 . S
C235 H206 0.950 . S
C235 C234 1.383 . S
C235 C236 1.395 . S
C236 H207 0.950 . S
C236 C235 1.395 . S
C236 C237 1.288 . S
C237 C236 1.288 . S
C237 C238 1.392 . S
C238 H208 0.951 . S
C238 C237 1.392 . S
C238 C239 1.392 . S
C239 H209 0.949 . S
C239 C234 1.382 . S
C239 C238 1.392 . S
H240 C259 0.949 . S
H241 C260 0.950 . S
H242 C262 0.950 . S
H243 C263 0.950 . S
H244 C265 0.950 . S
H245 C268 0.950 . S
H246 C269 0.950 . S
H247 C271 0.951 . S
H248 C272 0.949 . S
H249 C274 0.949 . S
H250 C275 0.950 . S
H251 C277 0.950 . S
H252 C278 0.950 . S
H253 C280 0.950 . S
H254 C283 0.950 . S
H255 C284 0.950 . S
H256 C286 0.951 . S
H257 C287 0.949 . S
C258 C259 1.376 . S
C258 C263 1.386 . S
C258 C264 1.483 . S
C259 H240 0.949 . S
C259 C258 1.376 . S
C259 C260 1.397 . S
C260 H241 0.950 . S
C260 C259 1.397 . S
C260 C261 1.391 . S
C261 C260 1.391 . S
C261 C262 1.405 . S
C262 H242 0.950 . S
C262 C261 1.405 . S
C262 C263 1.367 . S
C263 H243 0.950 . S
C263 C258 1.386 . S
C263 C262 1.367 . S
C264 C258 1.483 . S
C264 C265 1.382 . S
C264 C266 1.403 . S
C265 H244 0.950 . S
C265 C264 1.382 . S
C265 C281 1.411 . S
C266 C264 1.403 . S
C266 C267 1.489 . S
C266 C280 1.411 . S
C267 C266 1.489 . S
C267 C268 1.383 . S
C267 C272 1.382 . S
C268 H245 0.950 . S
C268 C267 1.383 . S
C268 C269 1.395 . S
C269 H246 0.950 . S
C269 C268 1.395 . S
C269 C270 1.288 . S
C270 C269 1.288 . S
C270 C271 1.392 . S
C271 H247 0.951 . S
C271 C270 1.392 . S
C271 C272 1.392 . S
C272 H248 0.949 . S
C272 C267 1.382 . S
C272 C271 1.392 . S
C273 C274 1.376 . S
C273 C278 1.386 . S
C273 C279 1.483 . S
C274 H249 0.949 . S
C274 C273 1.376 . S
C274 C275 1.397 . S
C275 H250 0.950 . S
C275 C274 1.397 . S
C275 C276 1.391 . S
C276 C275 1.391 . S
C276 C277 1.405 . S
C277 H251 0.950 . S
C277 C276 1.405 . S
C277 C278 1.367 . S
C278 H252 0.950 . S
C278 C273 1.386 . S
C278 C277 1.367 . S
C279 C273 1.483 . S
C279 C280 1.382 . S
C279 C281 1.403 . S
C280 H253 0.950 . S
C280 C266 1.411 . S
C280 C279 1.382 . S
C281 C265 1.411 . S
C281 C279 1.403 . S
C281 C282 1.489 . S
C282 C281 1.489 . S
C282 C283 1.383 . S
C282 C287 1.382 . S
C283 H254 0.950 . S
C283 C282 1.383 . S
C283 C284 1.395 . S
C284 H255 0.950 . S
C284 C283 1.395 . S
C284 C285 1.288 . S
C285 C284 1.288 . S
C285 C286 1.392 . S
C286 H256 0.951 . S
C286 C285 1.392 . S
C286 C287 1.392 . S
C287 H257 0.949 . S
C287 C282 1.382 . S
C287 C286 1.392 . S
Zn288 O291 2.031 . S
Zn288 O293 2.049 . S
Zn288 O298 2.067 . S
Zn289 O290 1.962 . S
Zn289 O292 1.986 . S
Zn289 O294 1.996 . S
Zn289 O297 1.943 . S
O290 Zn289 1.962 . S
O290 C295 1.254 . S
O291 Zn288 2.031 . S
O291 C295 1.269 . S
O292 Zn289 1.986 . S
O292 C299 1.262 . S
O293 Zn288 2.049 . S
O293 C301 1.260 . S
O294 Zn289 1.996 . S
O294 C301 1.257 . S
C295 O290 1.254 . S
C295 O291 1.269 . S
C296 O297 1.249 . S
C296 O298 1.270 . S
O297 Zn289 1.943 . S
O297 C296 1.249 . S
O298 Zn288 2.067 . S
O298 C296 1.270 . S
C299 O292 1.262 . S
C299 O300 1.232 . S
O300 C299 1.232 . S
C301 O293 1.260 . S
C301 O294 1.257 . S
Zn302 O305 2.031 . S
Zn302 O307 2.049 . S
Zn302 O312 2.067 . S
Zn303 O304 1.962 . S
Zn303 O306 1.986 . S
Zn303 O308 1.996 . S
Zn303 O311 1.943 . S
O304 Zn303 1.962 . S
O304 C309 1.254 . S
O305 Zn302 2.031 . S
O305 C309 1.269 . S
O306 Zn303 1.986 . S
O306 C313 1.262 . S
O307 Zn302 2.049 . S
O307 C315 1.260 . S
O308 Zn303 1.996 . S
O308 C315 1.257 . S
C309 O304 1.254 . S
C309 O305 1.269 . S
C310 O311 1.249 . S
C310 O312 1.270 . S
O311 Zn303 1.943 . S
O311 C310 1.249 . S
O312 Zn302 2.067 . S
O312 C310 1.270 . S
C313 O306 1.262 . S
C313 O314 1.232 . S
O314 C313 1.232 . S
C315 O307 1.260 . S
C315 O308 1.257 . S
Zn316 O319 2.031 . S
Zn316 O321 2.049 . S
Zn316 O326 2.067 . S
Zn317 O318 1.962 . S
Zn317 O320 1.986 . S
Zn317 O322 1.996 . S
Zn317 O325 1.943 . S
O318 Zn317 1.962 . S
O318 C323 1.254 . S
O319 Zn316 2.031 . S
O319 C323 1.269 . S
O320 Zn317 1.986 . S
O320 C327 1.262 . S
O321 Zn316 2.049 . S
O321 C329 1.260 . S
O322 Zn317 1.996 . S
O322 C329 1.257 . S
C323 O318 1.254 . S
C323 O319 1.269 . S
C324 O325 1.249 . S
C324 O326 1.270 . S
O325 Zn317 1.943 . S
O325 C324 1.249 . S
O326 Zn316 2.067 . S
O326 C324 1.270 . S
C327 O320 1.262 . S
C327 O328 1.232 . S
O328 C327 1.232 . S
C329 O321 1.260 . S
C329 O322 1.257 . S
Zn330 O333 2.031 . S
Zn330 O335 2.049 . S
Zn330 O340 2.067 . S
Zn331 O332 1.962 . S
Zn331 O334 1.986 . S
Zn331 O336 1.996 . S
Zn331 O339 1.943 . S
O332 Zn331 1.962 . S
O332 C337 1.254 . S
O333 Zn330 2.031 . S
O333 C337 1.269 . S
O334 Zn331 1.986 . S
O334 C341 1.262 . S
O335 Zn330 2.049 . S
O335 C343 1.260 . S
O336 Zn331 1.996 . S
O336 C343 1.257 . S
C337 O332 1.254 . S
C337 O333 1.269 . S
C338 O339 1.249 . S
C338 O340 1.270 . S
O339 Zn331 1.943 . S
O339 C338 1.249 . S
O340 Zn330 2.067 . S
O340 C338 1.270 . S
C341 O334 1.262 . S
C341 O342 1.232 . S
O342 C341 1.232 . S
C343 O335 1.260 . S
C343 O336 1.257 . S
Zn344 O347 2.031 . S
Zn344 O349 2.049 . S
Zn344 O354 2.067 . S
Zn345 O346 1.962 . S
Zn345 O348 1.986 . S
Zn345 O350 1.996 . S
Zn345 O353 1.943 . S
O346 Zn345 1.962 . S
O346 C351 1.254 . S
O347 Zn344 2.031 . S
O347 C351 1.269 . S
O348 Zn345 1.986 . S
O348 C355 1.262 . S
O349 Zn344 2.049 . S
O349 C357 1.260 . S
O350 Zn345 1.996 . S
O350 C357 1.257 . S
C351 O346 1.254 . S
C351 O347 1.269 . S
C352 O353 1.249 . S
C352 O354 1.270 . S
O353 Zn345 1.943 . S
O353 C352 1.249 . S
O354 Zn344 2.067 . S
O354 C352 1.270 . S
C355 O348 1.262 . S
C355 O356 1.232 . S
O356 C355 1.232 . S
C357 O349 1.260 . S
C357 O350 1.257 . S
Zn358 O361 2.031 . S
Zn358 O363 2.049 . S
Zn358 O368 2.067 . S
Zn359 O360 1.962 . S
Zn359 O362 1.986 . S
Zn359 O364 1.996 . S
Zn359 O367 1.943 . S
O360 Zn359 1.962 . S
O360 C365 1.254 . S
O361 Zn358 2.031 . S
O361 C365 1.269 . S
O362 Zn359 1.986 . S
O362 C369 1.262 . S
O363 Zn358 2.049 . S
O363 C371 1.260 . S
O364 Zn359 1.996 . S
O364 C371 1.257 . S
C365 O360 1.254 . S
C365 O361 1.269 . S
C366 O367 1.249 . S
C366 O368 1.270 . S
O367 Zn359 1.943 . S
O367 C366 1.249 . S
O368 Zn358 2.067 . S
O368 C366 1.270 . S
C369 O362 1.262 . S
C369 O370 1.232 . S
O370 C369 1.232 . S
C371 O363 1.260 . S
C371 O364 1.257 . S
C372 C373 1.391 . S
C372 C374 1.394 . S
C372 H388 0.931 . S
C373 C372 1.391 . S
C373 C377 1.376 . S
C374 C372 1.394 . S
C374 C375 1.369 . S
C374 C378 1.531 . S
C375 C374 1.369 . S
C375 C376 1.410 . S
C375 C383 1.503 . S
C376 C375 1.410 . S
C376 C377 1.392 . S
C376 C379 1.511 . S
C377 C373 1.376 . S
C377 C376 1.392 . S
C377 H389 0.929 . S
C378 C374 1.531 . S
C378 H390 0.960 . S
C378 H391 0.962 . S
C378 H392 0.960 . S
C379 C376 1.511 . S
C379 H393 0.961 . S
C379 H394 0.961 . S
C379 H395 0.961 . S
C380 C381 1.370 . S
C380 C382 1.363 . S
C380 H396 0.931 . S
C381 C380 1.370 . S
C381 C385 1.408 . S
C382 C380 1.363 . S
C382 C383 1.370 . S
C382 C386 1.524 . S
C383 C375 1.503 . S
C383 C382 1.370 . S
C383 C384 1.403 . S
C384 C383 1.403 . S
C384 C385 1.404 . S
C384 C387 1.539 . S
C385 C381 1.408 . S
C385 C384 1.404 . S
C385 H397 0.930 . S
C386 C382 1.524 . S
C386 H398 0.956 . S
C386 H399 0.961 . S
C386 H400 0.961 . S
C387 C384 1.539 . S
C387 H401 0.958 . S
C387 H402 0.961 . S
C387 H403 0.960 . S
H388 C372 0.931 . S
H389 C377 0.929 . S
H390 C378 0.960 . S
H391 C378 0.962 . S
H392 C378 0.960 . S
H393 C379 0.961 . S
H394 C379 0.961 . S
H395 C379 0.961 . S
H396 C380 0.931 . S
H397 C385 0.930 . S
H398 C386 0.956 . S
H399 C386 0.961 . S
H400 C386 0.961 . S
H401 C387 0.958 . S
H402 C387 0.961 . S
H403 C387 0.960 . S
C404 C405 1.391 . S
C404 C406 1.394 . S
C404 H420 0.931 . S
C405 C404 1.391 . S
C405 C409 1.376 . S
C406 C404 1.394 . S
C406 C407 1.369 . S
C406 C410 1.531 . S
C407 C406 1.369 . S
C407 C408 1.410 . S
C407 C415 1.503 . S
C408 C407 1.410 . S
C408 C409 1.392 . S
C408 C411 1.511 . S
C409 C405 1.376 . S
C409 C408 1.392 . S
C409 H421 0.929 . S
C410 C406 1.531 . S
C410 H422 0.960 . S
C410 H423 0.962 . S
C410 H424 0.960 . S
C411 C408 1.511 . S
C411 H425 0.961 . S
C411 H426 0.961 . S
C411 H427 0.961 . S
C412 C413 1.370 . S
C412 C414 1.363 . S
C412 H428 0.931 . S
C413 C412 1.370 . S
C413 C417 1.408 . S
C414 C412 1.363 . S
C414 C415 1.370 . S
C414 C418 1.524 . S
C415 C407 1.503 . S
C415 C414 1.370 . S
C415 C416 1.403 . S
C416 C415 1.403 . S
C416 C417 1.404 . S
C416 C419 1.539 . S
C417 C413 1.408 . S
C417 C416 1.404 . S
C417 H429 0.930 . S
C418 C414 1.524 . S
C418 H430 0.956 . S
C418 H431 0.961 . S
C418 H432 0.961 . S
C419 C416 1.539 . S
C419 H433 0.958 . S
C419 H434 0.961 . S
C419 H435 0.960 . S
H420 C404 0.931 . S
H421 C409 0.929 . S
H422 C410 0.960 . S
H423 C410 0.962 . S
H424 C410 0.960 . S
H425 C411 0.961 . S
H426 C411 0.961 . S
H427 C411 0.961 . S
H428 C412 0.931 . S
H429 C417 0.930 . S
H430 C418 0.956 . S
H431 C418 0.961 . S
H432 C418 0.961 . S
H433 C419 0.958 . S
H434 C419 0.961 . S
H435 C419 0.960 . S
C436 C437 1.391 . S
C436 C438 1.394 . S
C436 H452 0.931 . S
C437 C436 1.391 . S
C437 C441 1.376 . S
C438 C436 1.394 . S
C438 C439 1.369 . S
C438 C442 1.531 . S
C439 C438 1.369 . S
C439 C440 1.410 . S
C439 C447 1.503 . S
C440 C439 1.410 . S
C440 C441 1.392 . S
C440 C443 1.511 . S
C441 C437 1.376 . S
C441 C440 1.392 . S
C441 H453 0.929 . S
C442 C438 1.531 . S
C442 H454 0.960 . S
C442 H455 0.962 . S
C442 H456 0.960 . S
C443 C440 1.511 . S
C443 H457 0.961 . S
C443 H458 0.961 . S
C443 H459 0.961 . S
C444 C445 1.370 . S
C444 C446 1.363 . S
C444 H460 0.931 . S
C445 C444 1.370 . S
C445 C449 1.408 . S
C446 C444 1.363 . S
C446 C447 1.370 . S
C446 C450 1.524 . S
C447 C439 1.503 . S
C447 C446 1.370 . S
C447 C448 1.403 . S
C448 C447 1.403 . S
C448 C449 1.404 . S
C448 C451 1.539 . S
C449 C445 1.408 . S
C449 C448 1.404 . S
C449 H461 0.930 . S
C450 C446 1.524 . S
C450 H462 0.956 . S
C450 H463 0.961 . S
C450 H464 0.961 . S
C451 C448 1.539 . S
C451 H465 0.958 . S
C451 H466 0.961 . S
C451 H467 0.960 . S
H452 C436 0.931 . S
H453 C441 0.929 . S
H454 C442 0.960 . S
H455 C442 0.962 . S
H456 C442 0.960 . S
H457 C443 0.961 . S
H458 C443 0.961 . S
H459 C443 0.961 . S
H460 C444 0.931 . S
H461 C449 0.930 . S
H462 C450 0.956 . S
H463 C450 0.961 . S
H464 C450 0.961 . S
H465 C451 0.958 . S
H466 C451 0.961 . S
H467 C451 0.960 . S
C468 C469 1.391 . S
C468 C470 1.394 . S
C468 H484 0.931 . S
C469 C468 1.391 . S
C469 C473 1.376 . S
C470 C468 1.394 . S
C470 C471 1.369 . S
C470 C474 1.531 . S
C471 C470 1.369 . S
C471 C472 1.410 . S
C471 C479 1.503 . S
C472 C471 1.410 . S
C472 C473 1.392 . S
C472 C475 1.511 . S
C473 C469 1.376 . S
C473 C472 1.392 . S
C473 H485 0.929 . S
C474 C470 1.531 . S
C474 H486 0.960 . S
C474 H487 0.962 . S
C474 H488 0.960 . S
C475 C472 1.511 . S
C475 H489 0.961 . S
C475 H490 0.961 . S
C475 H491 0.961 . S
C476 C477 1.370 . S
C476 C478 1.363 . S
C476 H492 0.931 . S
C477 C476 1.370 . S
C477 C481 1.408 . S
C478 C476 1.363 . S
C478 C479 1.370 . S
C478 C482 1.524 . S
C479 C471 1.503 . S
C479 C478 1.370 . S
C479 C480 1.403 . S
C480 C479 1.403 . S
C480 C481 1.404 . S
C480 C483 1.539 . S
C481 C477 1.408 . S
C481 C480 1.404 . S
C481 H493 0.930 . S
C482 C478 1.524 . S
C482 H494 0.956 . S
C482 H495 0.961 . S
C482 H496 0.961 . S
C483 C480 1.539 . S
C483 H497 0.958 . S
C483 H498 0.961 . S
C483 H499 0.960 . S
H484 C468 0.931 . S
H485 C473 0.929 . S
H486 C474 0.960 . S
H487 C474 0.962 . S
H488 C474 0.960 . S
H489 C475 0.961 . S
H490 C475 0.961 . S
H491 C475 0.961 . S
H492 C476 0.931 . S
H493 C481 0.930 . S
H494 C482 0.956 . S
H495 C482 0.961 . S
H496 C482 0.961 . S
H497 C483 0.958 . S
H498 C483 0.961 . S
H499 C483 0.960 . S
C500 C501 1.391 . S
C500 C502 1.394 . S
C500 H516 0.931 . S
C501 C500 1.391 . S
C501 C505 1.376 . S
C502 C500 1.394 . S
C502 C503 1.369 . S
C502 C506 1.531 . S
C503 C502 1.369 . S
C503 C504 1.410 . S
C503 C511 1.503 . S
C504 C503 1.410 . S
C504 C505 1.392 . S
C504 C507 1.511 . S
C505 C501 1.376 . S
C505 C504 1.392 . S
C505 H517 0.929 . S
C506 C502 1.531 . S
C506 H518 0.960 . S
C506 H519 0.962 . S
C506 H520 0.960 . S
C507 C504 1.511 . S
C507 H521 0.961 . S
C507 H522 0.961 . S
C507 H523 0.961 . S
C508 C509 1.370 . S
C508 C510 1.363 . S
C508 H524 0.931 . S
C509 C508 1.370 . S
C509 C513 1.408 . S
C510 C508 1.363 . S
C510 C511 1.370 . S
C510 C514 1.524 . S
C511 C503 1.503 . S
C511 C510 1.370 . S
C511 C512 1.403 . S
C512 C511 1.403 . S
C512 C513 1.404 . S
C512 C515 1.539 . S
C513 C509 1.408 . S
C513 C512 1.404 . S
C513 H525 0.930 . S
C514 C510 1.524 . S
C514 H526 0.956 . S
C514 H527 0.961 . S
C514 H528 0.961 . S
C515 C512 1.539 . S
C515 H529 0.958 . S
C515 H530 0.961 . S
C515 H531 0.960 . S
H516 C500 0.931 . S
H517 C505 0.929 . S
H518 C506 0.960 . S
H519 C506 0.962 . S
H520 C506 0.960 . S
H521 C507 0.961 . S
H522 C507 0.961 . S
H523 C507 0.961 . S
H524 C508 0.931 . S
H525 C513 0.930 . S
H526 C514 0.956 . S
H527 C514 0.961 . S
H528 C514 0.961 . S
H529 C515 0.958 . S
H530 C515 0.961 . S
H531 C515 0.960 . S
C532 C533 1.391 . S
C532 C534 1.394 . S
C532 H548 0.931 . S
C533 C532 1.391 . S
C533 C537 1.376 . S
C534 C532 1.394 . S
C534 C535 1.369 . S
C534 C538 1.531 . S
C535 C534 1.369 . S
C535 C536 1.410 . S
C535 C543 1.503 . S
C536 C535 1.410 . S
C536 C537 1.392 . S
C536 C539 1.511 . S
C537 C533 1.376 . S
C537 C536 1.392 . S
C537 H549 0.929 . S
C538 C534 1.531 . S
C538 H550 0.960 . S
C538 H551 0.962 . S
C538 H552 0.960 . S
C539 C536 1.511 . S
C539 H553 0.961 . S
C539 H554 0.961 . S
C539 H555 0.961 . S
C540 C541 1.370 . S
C540 C542 1.363 . S
C540 H556 0.931 . S
C541 C540 1.370 . S
C541 C545 1.408 . S
C542 C540 1.363 . S
C542 C543 1.370 . S
C542 C546 1.524 . S
C543 C535 1.503 . S
C543 C542 1.370 . S
C543 C544 1.403 . S
C544 C543 1.403 . S
C544 C545 1.404 . S
C544 C547 1.539 . S
C545 C541 1.408 . S
C545 C544 1.404 . S
C545 H557 0.930 . S
C546 C542 1.524 . S
C546 H558 0.956 . S
C546 H559 0.961 . S
C546 H560 0.961 . S
C547 C544 1.539 . S
C547 H561 0.958 . S
C547 H562 0.961 . S
C547 H563 0.960 . S
H548 C532 0.931 . S
H549 C537 0.929 . S
H550 C538 0.960 . S
H551 C538 0.962 . S
H552 C538 0.960 . S
H553 C539 0.961 . S
H554 C539 0.961 . S
H555 C539 0.961 . S
H556 C540 0.931 . S
H557 C545 0.930 . S
H558 C546 0.956 . S
H559 C546 0.961 . S
H560 C546 0.961 . S
H561 C547 0.958 . S
H562 C547 0.961 . S
H563 C547 0.960 . S
C564 C565 1.391 . S
C564 C566 1.394 . S
C564 H580 0.931 . S
C565 C564 1.391 . S
C565 C569 1.376 . S
C566 C564 1.394 . S
C566 C567 1.369 . S
C566 C570 1.531 . S
C567 C566 1.369 . S
C567 C568 1.410 . S
C567 C575 1.503 . S
C568 C567 1.410 . S
C568 C569 1.392 . S
C568 C571 1.511 . S
C569 C565 1.376 . S
C569 C568 1.392 . S
C569 H581 0.929 . S
C570 C566 1.531 . S
C570 H582 0.960 . S
C570 H583 0.962 . S
C570 H584 0.960 . S
C571 C568 1.511 . S
C571 H585 0.961 . S
C571 H586 0.961 . S
C571 H587 0.961 . S
C572 C573 1.370 . S
C572 C574 1.363 . S
C572 H588 0.931 . S
C573 C572 1.370 . S
C573 C577 1.408 . S
C574 C572 1.363 . S
C574 C575 1.370 . S
C574 C578 1.524 . S
C575 C567 1.503 . S
C575 C574 1.370 . S
C575 C576 1.403 . S
C576 C575 1.403 . S
C576 C577 1.404 . S
C576 C579 1.539 . S
C577 C573 1.408 . S
C577 C576 1.404 . S
C577 H589 0.930 . S
C578 C574 1.524 . S
C578 H590 0.956 . S
C578 H591 0.961 . S
C578 H592 0.961 . S
C579 C576 1.539 . S
C579 H593 0.958 . S
C579 H594 0.961 . S
C579 H595 0.960 . S
H580 C564 0.931 . S
H581 C569 0.929 . S
H582 C570 0.960 . S
H583 C570 0.962 . S
H584 C570 0.960 . S
H585 C571 0.961 . S
H586 C571 0.961 . S
H587 C571 0.961 . S
H588 C572 0.931 . S
H589 C577 0.930 . S
H590 C578 0.956 . S
H591 C578 0.961 . S
H592 C578 0.961 . S
H593 C579 0.958 . S
H594 C579 0.961 . S
H595 C579 0.960 . S
C596 C597 1.391 . S
C596 C598 1.394 . S
C596 H612 0.931 . S
C597 C596 1.391 . S
C597 C601 1.376 . S
C598 C596 1.394 . S
C598 C599 1.369 . S
C598 C602 1.531 . S
C599 C598 1.369 . S
C599 C600 1.410 . S
C599 C607 1.503 . S
C600 C599 1.410 . S
C600 C601 1.392 . S
C600 C603 1.511 . S
C601 C597 1.376 . S
C601 C600 1.392 . S
C601 H613 0.929 . S
C602 C598 1.531 . S
C602 H614 0.960 . S
C602 H615 0.962 . S
C602 H616 0.960 . S
C603 C600 1.511 . S
C603 H617 0.961 . S
C603 H618 0.961 . S
C603 H619 0.961 . S
C604 C605 1.370 . S
C604 C606 1.363 . S
C604 H620 0.931 . S
C605 C604 1.370 . S
C605 C609 1.408 . S
C606 C604 1.363 . S
C606 C607 1.370 . S
C606 C610 1.524 . S
C607 C599 1.503 . S
C607 C606 1.370 . S
C607 C608 1.403 . S
C608 C607 1.403 . S
C608 C609 1.404 . S
C608 C611 1.539 . S
C609 C605 1.408 . S
C609 C608 1.404 . S
C609 H621 0.930 . S
C610 C606 1.524 . S
C610 H622 0.956 . S
C610 H623 0.961 . S
C610 H624 0.961 . S
C611 C608 1.539 . S
C611 H625 0.958 . S
C611 H626 0.961 . S
C611 H627 0.960 . S
H612 C596 0.931 . S
H613 C601 0.929 . S
H614 C602 0.960 . S
H615 C602 0.962 . S
H616 C602 0.960 . S
H617 C603 0.961 . S
H618 C603 0.961 . S
H619 C603 0.961 . S
H620 C604 0.931 . S
H621 C609 0.930 . S
H622 C610 0.956 . S
H623 C610 0.961 . S
H624 C610 0.961 . S
H625 C611 0.958 . S
H626 C611 0.961 . S
H627 C611 0.960 . S
C628 C629 1.391 . S
C628 C630 1.394 . S
C628 H644 0.931 . S
C629 C628 1.391 . S
C629 C633 1.376 . S
C630 C628 1.394 . S
C630 C631 1.369 . S
C630 C634 1.531 . S
C631 C630 1.369 . S
C631 C632 1.410 . S
C631 C639 1.503 . S
C632 C631 1.410 . S
C632 C633 1.392 . S
C632 C635 1.511 . S
C633 C629 1.376 . S
C633 C632 1.392 . S
C633 H645 0.929 . S
C634 C630 1.531 . S
C634 H646 0.960 . S
C634 H647 0.962 . S
C634 H648 0.960 . S
C635 C632 1.511 . S
C635 H649 0.961 . S
C635 H650 0.961 . S
C635 H651 0.961 . S
C636 C637 1.370 . S
C636 C638 1.363 . S
C636 H652 0.931 . S
C637 C636 1.370 . S
C637 C641 1.408 . S
C638 C636 1.363 . S
C638 C639 1.370 . S
C638 C642 1.524 . S
C639 C631 1.503 . S
C639 C638 1.370 . S
C639 C640 1.403 . S
C640 C639 1.403 . S
C640 C641 1.404 . S
C640 C643 1.539 . S
C641 C637 1.408 . S
C641 C640 1.404 . S
C641 H653 0.930 . S
C642 C638 1.524 . S
C642 H654 0.956 . S
C642 H655 0.961 . S
C642 H656 0.961 . S
C643 C640 1.539 . S
C643 H657 0.958 . S
C643 H658 0.961 . S
C643 H659 0.960 . S
H644 C628 0.931 . S
H645 C633 0.929 . S
H646 C634 0.960 . S
H647 C634 0.962 . S
H648 C634 0.960 . S
H649 C635 0.961 . S
H650 C635 0.961 . S
H651 C635 0.961 . S
H652 C636 0.931 . S
H653 C641 0.930 . S
H654 C642 0.956 . S
H655 C642 0.961 . S
H656 C642 0.961 . S
H657 C643 0.958 . S
H658 C643 0.961 . S
H659 C643 0.960 . S
C660 C661 1.391 . S
C660 C662 1.394 . S
C660 H676 0.931 . S
C661 C660 1.391 . S
C661 C665 1.376 . S
C662 C660 1.394 . S
C662 C663 1.369 . S
C662 C666 1.531 . S
C663 C662 1.369 . S
C663 C664 1.410 . S
C663 C671 1.503 . S
C664 C663 1.410 . S
C664 C665 1.392 . S
C664 C667 1.511 . S
C665 C661 1.376 . S
C665 C664 1.392 . S
C665 H677 0.929 . S
C666 C662 1.531 . S
C666 H678 0.960 . S
C666 H679 0.962 . S
C666 H680 0.960 . S
C667 C664 1.511 . S
C667 H681 0.961 . S
C667 H682 0.961 . S
C667 H683 0.961 . S
C668 C669 1.370 . S
C668 C670 1.363 . S
C668 H684 0.931 . S
C669 C668 1.370 . S
C669 C673 1.408 . S
C670 C668 1.363 . S
C670 C671 1.370 . S
C670 C674 1.524 . S
C671 C663 1.503 . S
C671 C670 1.370 . S
C671 C672 1.403 . S
C672 C671 1.403 . S
C672 C673 1.404 . S
C672 C675 1.539 . S
C673 C669 1.408 . S
C673 C672 1.404 . S
C673 H685 0.930 . S
C674 C670 1.524 . S
C674 H686 0.956 . S
C674 H687 0.961 . S
C674 H688 0.966 . S
C675 C672 1.539 . S
C675 H689 0.958 . S
C675 H690 0.961 . S
C675 H691 0.960 . S
H676 C660 0.931 . S
H677 C665 0.929 . S
H678 C666 0.960 . S
H679 C666 0.962 . S
H680 C666 0.960 . S
H681 C667 0.961 . S
H682 C667 0.961 . S
H683 C667 0.961 . S
H684 C668 0.931 . S
H685 C673 0.930 . S
H686 C674 0.956 . S
H687 C674 0.961 . S
H688 C674 0.966 . S
H689 C675 0.958 . S
H690 C675 0.961 . S
H691 C675 0.960 . S
C692 C693 1.391 . S
C692 C694 1.394 . S
C692 H708 0.931 . S
C693 C692 1.391 . S
C693 C697 1.376 . S
C694 C692 1.394 . S
C694 C695 1.369 . S
C694 C698 1.531 . S
C695 C694 1.369 . S
C695 C696 1.410 . S
C695 C703 1.503 . S
C696 C695 1.410 . S
C696 C697 1.392 . S
C696 C699 1.511 . S
C697 C693 1.376 . S
C697 C696 1.392 . S
C697 H709 0.929 . S
C698 C694 1.531 . S
C698 H710 0.960 . S
C698 H711 0.962 . S
C698 H712 0.960 . S
C699 C696 1.511 . S
C699 H713 0.961 . S
C699 H714 0.961 . S
C699 H715 0.961 . S
C700 C701 1.370 . S
C700 C702 1.363 . S
C700 H716 0.931 . S
C701 C700 1.370 . S
C701 C705 1.408 . S
C702 C700 1.363 . S
C702 C703 1.370 . S
C702 C706 1.524 . S
C703 C695 1.503 . S
C703 C702 1.370 . S
C703 C704 1.403 . S
C704 C703 1.403 . S
C704 C705 1.404 . S
C704 C707 1.539 . S
C705 C701 1.408 . S
C705 C704 1.404 . S
C705 H717 0.930 . S
C706 C702 1.524 . S
C706 H718 0.956 . S
C706 H719 0.961 . S
C706 H720 0.961 . S
C707 C704 1.539 . S
C707 H721 0.958 . S
C707 H722 0.961 . S
C707 H723 0.960 . S
H708 C692 0.931 . S
H709 C697 0.929 . S
H710 C698 0.960 . S
H711 C698 0.962 . S
H712 C698 0.960 . S
H713 C699 0.961 . S
H714 C699 0.961 . S
H715 C699 0.961 . S
H716 C700 0.931 . S
H717 C705 0.930 . S
H718 C706 0.956 . S
H719 C706 0.961 . S
H720 C706 0.961 . S
H721 C707 0.958 . S
H722 C707 0.961 . S
H723 C707 0.960 . S
C724 C725 1.391 . S
C724 C726 1.394 . S
C724 H740 0.931 . S
C725 C724 1.391 . S
C725 C729 1.376 . S
C726 C724 1.394 . S
C726 C727 1.369 . S
C726 C730 1.531 . S
C727 C726 1.369 . S
C727 C728 1.410 . S
C727 C735 1.503 . S
C728 C727 1.410 . S
C728 C729 1.392 . S
C728 C731 1.511 . S
C729 C725 1.376 . S
C729 C728 1.392 . S
C729 H741 0.929 . S
C730 C726 1.531 . S
C730 H742 0.960 . S
C730 H743 0.962 . S
C730 H744 0.960 . S
C731 C728 1.511 . S
C731 H745 0.961 . S
C731 H746 0.961 . S
C731 H747 0.961 . S
C732 C733 1.370 . S
C732 C734 1.363 . S
C732 H748 0.931 . S
C733 C732 1.370 . S
C733 C737 1.408 . S
C734 C732 1.363 . S
C734 C735 1.370 . S
C734 C738 1.524 . S
C735 C727 1.503 . S
C735 C734 1.370 . S
C735 C736 1.403 . S
C736 C735 1.403 . S
C736 C737 1.404 . S
C736 C739 1.539 . S
C737 C733 1.408 . S
C737 C736 1.404 . S
C737 H749 0.930 . S
C738 C734 1.524 . S
C738 H750 0.956 . S
C738 H751 0.961 . S
C738 H752 0.961 . S
C739 C736 1.539 . S
C739 H753 0.958 . S
C739 H754 0.961 . S
C739 H755 0.960 . S
H740 C724 0.931 . S
H741 C729 0.929 . S
H742 C730 0.960 . S
H743 C730 0.962 . S
H744 C730 0.960 . S
H745 C731 0.961 . S
H746 C731 0.961 . S
H747 C731 0.961 . S
H748 C732 0.931 . S
H749 C737 0.930 . S
H750 C738 0.956 . S
H751 C738 0.961 . S
H752 C738 0.961 . S
H753 C739 0.958 . S
H754 C739 0.961 . S
H755 C739 0.960 . S
C756 C757 1.391 . S
C756 C758 1.394 . S
C756 H772 0.931 . S
C757 C756 1.391 . S
C757 C761 1.376 . S
C758 C756 1.394 . S
C758 C759 1.369 . S
C758 C762 1.531 . S
C759 C758 1.369 . S
C759 C760 1.410 . S
C759 C767 1.503 . S
C760 C759 1.410 . S
C760 C761 1.392 . S
C760 C763 1.511 . S
C761 C757 1.376 . S
C761 C760 1.392 . S
C761 H773 0.929 . S
C762 C758 1.531 . S
C762 H774 0.960 . S
C762 H775 0.962 . S
C762 H776 0.960 . S
C763 C760 1.511 . S
C763 H777 0.961 . S
C763 H778 0.961 . S
C763 H779 0.961 . S
C764 C765 1.370 . S
C764 C766 1.363 . S
C764 H780 0.931 . S
C765 C764 1.370 . S
C765 C769 1.408 . S
C766 C764 1.363 . S
C766 C767 1.370 . S
C766 C770 1.524 . S
C767 C759 1.503 . S
C767 C766 1.370 . S
C767 C768 1.403 . S
C768 C767 1.403 . S
C768 C769 1.404 . S
C768 C771 1.539 . S
C769 C765 1.408 . S
C769 C768 1.404 . S
C769 H781 0.930 . S
C770 C766 1.524 . S
C770 H782 0.956 . S
C770 H783 0.961 . S
C770 H784 0.961 . S
C771 C768 1.539 . S
C771 H785 0.958 . S
C771 H786 0.961 . S
C771 H787 0.960 . S
H772 C756 0.931 . S
H773 C761 0.929 . S
H774 C762 0.960 . S
H775 C762 0.962 . S
H776 C762 0.960 . S
H777 C763 0.961 . S
H778 C763 0.961 . S
H779 C763 0.961 . S
H780 C764 0.931 . S
H781 C769 0.930 . S
H782 C770 0.956 . S
H783 C770 0.961 . S
H784 C770 0.961 . S
H785 C771 0.958 . S
H786 C771 0.961 . S
H787 C771 0.960 . S
C788 C789 1.391 . S
C788 C790 1.394 . S
C788 H804 0.931 . S
C789 C788 1.391 . S
C789 C793 1.376 . S
C790 C788 1.394 . S
C790 C791 1.369 . S
C790 C794 1.531 . S
C791 C790 1.369 . S
C791 C792 1.410 . S
C791 C799 1.503 . S
C792 C791 1.410 . S
C792 C793 1.392 . S
C792 C795 1.511 . S
C793 C789 1.376 . S
C793 C792 1.392 . S
C793 H805 0.929 . S
C794 C790 1.531 . S
C794 H806 0.960 . S
C794 H807 0.962 . S
C794 H808 0.960 . S
C795 C792 1.511 . S
C795 H809 0.961 . S
C795 H810 0.961 . S
C795 H811 0.961 . S
C796 C797 1.370 . S
C796 C798 1.363 . S
C796 H812 0.931 . S
C797 C796 1.370 . S
C797 C801 1.408 . S
C798 C796 1.363 . S
C798 C799 1.370 . S
C798 C802 1.524 . S
C799 C791 1.503 . S
C799 C798 1.370 . S
C799 C800 1.403 . S
C800 C799 1.403 . S
C800 C801 1.404 . S
C800 C803 1.539 . S
C801 C797 1.408 . S
C801 C800 1.404 . S
C801 H813 0.930 . S
C802 C798 1.524 . S
C802 H814 0.956 . S
C802 H815 0.961 . S
C802 H816 0.961 . S
C803 C800 1.539 . S
C803 H817 0.958 . S
C803 H818 0.961 . S
C803 H819 0.960 . S
H804 C788 0.931 . S
H805 C793 0.929 . S
H806 C794 0.960 . S
H807 C794 0.962 . S
H808 C794 0.960 . S
H809 C795 0.961 . S
H810 C795 0.961 . S
H811 C795 0.961 . S
H812 C796 0.931 . S
H813 C801 0.930 . S
H814 C802 0.956 . S
H815 C802 0.961 . S
H816 C802 0.961 . S
H817 C803 0.958 . S
H818 C803 0.961 . S
H819 C803 0.960 . S
C820 C821 1.391 . S
C820 C822 1.394 . S
C820 H836 0.931 . S
C821 C820 1.391 . S
C821 C825 1.376 . S
C822 C820 1.394 . S
C822 C823 1.369 . S
C822 C826 1.531 . S
C823 C822 1.369 . S
C823 C824 1.410 . S
C823 C831 1.503 . S
C824 C823 1.410 . S
C824 C825 1.392 . S
C824 C827 1.511 . S
C825 C821 1.376 . S
C825 C824 1.392 . S
C825 H837 0.929 . S
C826 C822 1.531 . S
C826 H838 0.960 . S
C826 H839 0.962 . S
C826 H840 0.960 . S
C827 C824 1.511 . S
C827 H841 0.961 . S
C827 H842 0.961 . S
C827 H843 0.961 . S
C828 C829 1.370 . S
C828 C830 1.363 . S
C828 H844 0.931 . S
C829 C828 1.370 . S
C829 C833 1.408 . S
C830 C828 1.363 . S
C830 C831 1.370 . S
C830 C834 1.524 . S
C831 C823 1.503 . S
C831 C830 1.370 . S
C831 C832 1.403 . S
C832 C831 1.403 . S
C832 C833 1.404 . S
C832 C835 1.539 . S
C833 C829 1.408 . S
C833 C832 1.404 . S
C833 H845 0.930 . S
C834 C830 1.524 . S
C834 H846 0.956 . S
C834 H847 0.961 . S
C834 H848 0.961 . S
C835 C832 1.539 . S
C835 H849 0.958 . S
C835 H850 0.961 . S
C835 H851 0.960 . S
H836 C820 0.931 . S
H837 C825 0.929 . S
H838 C826 0.960 . S
H839 C826 0.962 . S
H840 C826 0.960 . S
H841 C827 0.961 . S
H842 C827 0.961 . S
H843 C827 0.961 . S
H844 C828 0.931 . S
H845 C833 0.930 . S
H846 C834 0.956 . S
H847 C834 0.961 . S
H848 C834 0.961 . S
H849 C835 0.958 . S
H850 C835 0.961 . S
H851 C835 0.960 . S
C852 C853 1.391 . S
C852 C854 1.394 . S
C852 H868 0.931 . S
C853 C852 1.391 . S
C853 C857 1.376 . S
C854 C852 1.394 . S
C854 C855 1.369 . S
C854 C858 1.531 . S
C855 C854 1.369 . S
C855 C856 1.410 . S
C855 C863 1.503 . S
C856 C855 1.410 . S
C856 C857 1.392 . S
C856 C859 1.511 . S
C857 C853 1.376 . S
C857 C856 1.392 . S
C857 H869 0.929 . S
C858 C854 1.531 . S
C858 H870 0.960 . S
C858 H871 0.962 . S
C858 H872 0.960 . S
C859 C856 1.511 . S
C859 H873 0.961 . S
C859 H874 0.961 . S
C859 H875 0.961 . S
C860 C861 1.370 1_556 S
C860 C862 1.363 . S
C860 H876 0.931 . S
C861 C860 1.370 1_554 S
C861 C865 1.408 . S
C862 C860 1.363 . S
C862 C863 1.370 . S
C862 C866 1.524 . S
C863 C855 1.503 . S
C863 C862 1.370 . S
C863 C864 1.403 1_556 S
C864 C863 1.403 1_554 S
C864 C865 1.404 . S
C864 C867 1.539 . S
C865 C861 1.408 . S
C865 C864 1.404 . S
C865 H877 0.930 . S
C866 C862 1.524 . S
C866 H878 0.956 . S
C866 H879 0.961 . S
C866 H880 0.961 . S
C867 C864 1.539 . S
C867 H881 0.958 . S
C867 H882 0.961 . S
C867 H883 0.960 . S
H868 C852 0.931 . S
H869 C857 0.929 . S
H870 C858 0.960 . S
H871 C858 0.962 . S
H872 C858 0.960 . S
H873 C859 0.961 . S
H874 C859 0.961 . S
H875 C859 0.961 . S
H876 C860 0.931 . S
H877 C865 0.930 . S
H878 C866 0.956 . S
H879 C866 0.961 . S
H880 C866 0.961 . S
H881 C867 0.958 . S
H882 C867 0.961 . S
H883 C867 0.960 . S
C884 C885 1.391 . S
C884 C886 1.394 . S
C884 H900 0.931 . S
C885 C884 1.391 . S
C885 C889 1.376 . S
C886 C884 1.394 . S
C886 C887 1.369 . S
C886 C890 1.531 . S
C887 C886 1.369 . S
C887 C888 1.410 . S
C887 C895 1.503 . S
C888 C887 1.410 . S
C888 C889 1.392 . S
C888 C891 1.511 . S
C889 C885 1.376 . S
C889 C888 1.392 . S
C889 H901 0.929 . S
C890 C886 1.531 . S
C890 H902 0.960 . S
C890 H903 0.962 . S
C890 H904 0.960 . S
C891 C888 1.511 . S
C891 H905 0.961 . S
C891 H906 0.961 . S
C891 H907 0.961 . S
C892 C893 1.370 . S
C892 C894 1.363 . S
C892 H908 0.931 . S
C893 C892 1.370 . S
C893 C897 1.408 . S
C894 C892 1.363 . S
C894 C895 1.370 . S
C894 C898 1.524 . S
C895 C887 1.503 . S
C895 C894 1.370 . S
C895 C896 1.403 . S
C896 C895 1.403 . S
C896 C897 1.404 . S
C896 C899 1.539 . S
C897 C893 1.408 . S
C897 C896 1.404 . S
C897 H909 0.930 . S
C898 C894 1.524 . S
C898 H910 0.956 . S
C898 H911 0.961 . S
C898 H912 0.961 . S
C899 C896 1.539 . S
C899 H913 0.958 . S
C899 H914 0.961 . S
C899 H915 0.960 . S
H900 C884 0.931 . S
H901 C889 0.929 . S
H902 C890 0.960 . S
H903 C890 0.962 . S
H904 C890 0.960 . S
H905 C891 0.961 . S
H906 C891 0.961 . S
H907 C891 0.961 . S
H908 C892 0.931 . S
H909 C897 0.930 . S
H910 C898 0.956 . S
H911 C898 0.961 . S
H912 C898 0.961 . S
H913 C899 0.958 . S
H914 C899 0.961 . S
H915 C899 0.960 . S
C916 C917 1.391 . S
C916 C918 1.394 . S
C916 H932 0.931 . S
C917 C916 1.391 . S
C917 C921 1.376 . S
C918 C916 1.394 . S
C918 C919 1.369 . S
C918 C922 1.531 . S
C919 C918 1.369 . S
C919 C920 1.410 . S
C919 C927 1.503 . S
C920 C919 1.410 . S
C920 C921 1.392 . S
C920 C923 1.511 . S
C921 C917 1.376 . S
C921 C920 1.392 . S
C921 H933 0.929 . S
C922 C918 1.531 . S
C922 H934 0.960 . S
C922 H935 0.962 . S
C922 H936 0.960 . S
C923 C920 1.511 . S
C923 H937 0.961 . S
C923 H938 0.961 . S
C923 H939 0.961 . S
C924 C925 1.370 . S
C924 C926 1.363 . S
C924 H940 0.931 . S
C925 C924 1.370 . S
C925 C929 1.408 . S
C926 C924 1.363 . S
C926 C927 1.370 . S
C926 C930 1.524 . S
C927 C919 1.503 . S
C927 C926 1.370 . S
C927 C928 1.403 . S
C928 C927 1.403 . S
C928 C929 1.404 . S
C928 C931 1.539 . S
C929 C925 1.408 . S
C929 C928 1.404 . S
C929 H941 0.930 . S
C930 C926 1.524 . S
C930 H942 0.956 . S
C930 H943 0.961 . S
C930 H944 0.961 . S
C931 C928 1.539 . S
C931 H945 0.958 . S
C931 H946 0.961 . S
C931 H947 0.960 . S
H932 C916 0.931 . S
H933 C921 0.929 . S
H934 C922 0.960 . S
H935 C922 0.962 . S
H936 C922 0.960 . S
H937 C923 0.961 . S
H938 C923 0.961 . S
H939 C923 0.961 . S
H940 C924 0.931 . S
H941 C929 0.930 . S
H942 C930 0.956 . S
H943 C930 0.961 . S
H944 C930 0.961 . S
H945 C931 0.958 . S
H946 C931 0.961 . S
H947 C931 0.960 . S
C948 C949 1.391 . S
C948 C950 1.394 . S
C948 H964 0.931 . S
C949 C948 1.391 . S
C949 C953 1.376 . S
C950 C948 1.394 . S
C950 C951 1.369 . S
C950 C954 1.531 . S
C951 C950 1.369 . S
C951 C952 1.410 . S
C951 C959 1.503 . S
C952 C951 1.410 . S
C952 C953 1.392 . S
C952 C955 1.511 . S
C953 C949 1.376 . S
C953 C952 1.392 . S
C953 H965 0.929 . S
C954 C950 1.531 . S
C954 H966 0.960 . S
C954 H967 0.962 . S
C954 H968 0.960 . S
C955 C952 1.511 . S
C955 H969 0.961 . S
C955 H970 0.961 . S
C955 H971 0.961 . S
C956 C957 1.370 . S
C956 C958 1.363 . S
C956 H972 0.931 . S
C957 C956 1.370 . S
C957 C961 1.408 . S
C958 C956 1.363 . S
C958 C959 1.370 . S
C958 C962 1.524 . S
C959 C951 1.503 . S
C959 C958 1.370 . S
C959 C960 1.403 . S
C960 C959 1.403 . S
C960 C961 1.404 . S
C960 C963 1.539 . S
C961 C957 1.408 . S
C961 C960 1.404 . S
C961 H973 0.930 . S
C962 C958 1.524 . S
C962 H974 0.956 . S
C962 H975 0.961 . S
C962 H976 0.961 . S
C963 C960 1.539 . S
C963 H977 0.958 . S
C963 H978 0.961 . S
C963 H979 0.960 . S
H964 C948 0.931 . S
H965 C953 0.929 . S
H966 C954 0.960 . S
H967 C954 0.962 . S
H968 C954 0.960 . S
H969 C955 0.961 . S
H970 C955 0.961 . S
H971 C955 0.961 . S
H972 C956 0.931 . S
H973 C961 0.930 . S
H974 C962 0.956 . S
H975 C962 0.961 . S
H976 C962 0.961 . S
H977 C963 0.958 . S
H978 C963 0.961 . S
H979 C963 0.960 . S
C980 C981 1.391 . S
C980 C982 1.394 . S
C980 H996 0.931 . S
C981 C980 1.391 . S
C981 C985 1.376 . S
C982 C980 1.394 . S
C982 C983 1.369 . S
C982 C986 1.531 . S
C983 C982 1.369 . S
C983 C984 1.410 . S
C983 C991 1.503 . S
C984 C983 1.410 . S
C984 C985 1.392 . S
C984 C987 1.511 . S
C985 C981 1.376 . S
C985 C984 1.392 . S
C985 H997 0.929 . S
C986 C982 1.531 . S
C986 H998 0.960 . S
C986 H999 0.962 . S
C986 H1000 0.960 . S
C987 C984 1.511 . S
C987 H1001 0.961 . S
C987 H1002 0.961 . S
C987 H1003 0.961 . S
C988 C989 1.370 . S
C988 C990 1.363 . S
C988 H1004 0.931 . S
C989 C988 1.370 . S
C989 C993 1.408 . S
C990 C988 1.363 . S
C990 C991 1.370 . S
C990 C994 1.524 . S
C991 C983 1.503 . S
C991 C990 1.370 . S
C991 C992 1.403 . S
C992 C991 1.403 . S
C992 C993 1.404 . S
C992 C995 1.539 . S
C993 C989 1.408 . S
C993 C992 1.404 . S
C993 H1005 0.930 . S
C994 C990 1.524 . S
C994 H1006 0.956 . S
C994 H1007 0.961 . S
C994 H1008 0.961 . S
C995 C992 1.539 . S
C995 H1009 0.958 . S
C995 H1010 0.961 . S
C995 H1011 0.960 . S
H996 C980 0.931 . S
H997 C985 0.929 . S
H998 C986 0.960 . S
H999 C986 0.962 . S
H1000 C986 0.960 . S
H1001 C987 0.961 . S
H1002 C987 0.961 . S
H1003 C987 0.961 . S
H1004 C988 0.931 . S
H1005 C993 0.930 . S
H1006 C994 0.956 . S
H1007 C994 0.961 . S
H1008 C994 0.961 . S
H1009 C995 0.958 . S
H1010 C995 0.961 . S
H1011 C995 0.960 . S
C1012 C1013 1.391 . S
C1012 C1014 1.394 . S
C1012 H1028 0.931 . S
C1013 C1012 1.391 . S
C1013 C1017 1.376 . S
C1014 C1012 1.394 . S
C1014 C1015 1.369 . S
C1014 C1018 1.531 . S
C1015 C1014 1.369 . S
C1015 C1016 1.410 . S
C1015 C1023 1.503 . S
C1016 C1015 1.410 . S
C1016 C1017 1.392 . S
C1016 C1019 1.511 . S
C1017 C1013 1.376 . S
C1017 C1016 1.392 . S
C1017 H1029 0.929 . S
C1018 C1014 1.531 . S
C1018 H1030 0.960 . S
C1018 H1031 0.962 . S
C1018 H1032 0.960 . S
C1019 C1016 1.511 . S
C1019 H1033 0.961 . S
C1019 H1034 0.961 . S
C1019 H1035 0.961 . S
C1020 C1021 1.370 . S
C1020 C1022 1.363 . S
C1020 H1036 0.931 . S
C1021 C1020 1.370 . S
C1021 C1025 1.408 . S
C1022 C1020 1.363 . S
C1022 C1023 1.370 . S
C1022 C1026 1.524 . S
C1023 C1015 1.503 . S
C1023 C1022 1.370 . S
C1023 C1024 1.403 . S
C1024 C1023 1.403 . S
C1024 C1025 1.404 . S
C1024 C1027 1.539 . S
C1025 C1021 1.408 . S
C1025 C1024 1.404 . S
C1025 H1037 0.930 . S
C1026 C1022 1.524 . S
C1026 H1038 0.956 . S
C1026 H1039 0.961 . S
C1026 H1040 0.961 . S
C1027 C1024 1.539 . S
C1027 H1041 0.958 . S
C1027 H1042 0.961 . S
C1027 H1043 0.960 . S
H1028 C1012 0.931 . S
H1029 C1017 0.929 . S
H1030 C1018 0.960 . S
H1031 C1018 0.962 . S
H1032 C1018 0.960 . S
H1033 C1019 0.961 . S
H1034 C1019 0.961 . S
H1035 C1019 0.961 . S
H1036 C1020 0.931 . S
H1037 C1025 0.930 . S
H1038 C1026 0.956 . S
H1039 C1026 0.961 . S
H1040 C1026 0.961 . S
H1041 C1027 0.958 . S
H1042 C1027 0.961 . S
H1043 C1027 0.960 . S
C1044 C1045 1.391 . S
C1044 C1046 1.394 . S
C1044 H1060 0.931 . S
C1045 C1044 1.391 . S
C1045 C1049 1.376 . S
C1046 C1044 1.394 . S
C1046 C1047 1.369 . S
C1046 C1050 1.531 . S
C1047 C1046 1.369 . S
C1047 C1048 1.410 . S
C1047 C1055 1.503 . S
C1048 C1047 1.410 . S
C1048 C1049 1.392 . S
C1048 C1051 1.511 . S
C1049 C1045 1.376 . S
C1049 C1048 1.392 . S
C1049 H1061 0.929 . S
C1050 C1046 1.531 . S
C1050 H1062 0.960 . S
C1050 H1063 0.962 . S
C1050 H1064 0.960 . S
C1051 C1048 1.511 . S
C1051 H1065 0.961 . S
C1051 H1066 0.961 . S
C1051 H1067 0.961 . S
C1052 C1053 1.370 . S
C1052 C1054 1.363 . S
C1052 H1068 0.931 . S
C1053 C1052 1.370 . S
C1053 C1057 1.408 . S
C1054 C1052 1.363 . S
C1054 C1055 1.370 . S
C1054 C1058 1.524 . S
C1055 C1047 1.503 . S
C1055 C1054 1.370 . S
C1055 C1056 1.403 . S
C1056 C1055 1.403 . S
C1056 C1057 1.404 . S
C1056 C1059 1.539 . S
C1057 C1053 1.408 . S
C1057 C1056 1.404 . S
C1057 H1069 0.930 . S
C1058 C1054 1.524 . S
C1058 H1070 0.956 . S
C1058 H1071 0.961 . S
C1058 H1072 0.961 . S
C1059 C1056 1.539 . S
C1059 H1073 0.958 . S
C1059 H1074 0.961 . S
C1059 H1075 0.960 . S
H1060 C1044 0.931 . S
H1061 C1049 0.929 . S
H1062 C1050 0.960 . S
H1063 C1050 0.962 . S
H1064 C1050 0.960 . S
H1065 C1051 0.961 . S
H1066 C1051 0.961 . S
H1067 C1051 0.961 . S
H1068 C1052 0.931 . S
H1069 C1057 0.930 . S
H1070 C1058 0.956 . S
H1071 C1058 0.961 . S
H1072 C1058 0.961 . S
H1073 C1059 0.958 . S
H1074 C1059 0.961 . S
H1075 C1059 0.960 . S
C1076 C1077 1.391 . S
C1076 C1078 1.394 . S
C1076 H1092 0.931 . S
C1077 C1076 1.391 . S
C1077 C1081 1.376 . S
C1078 C1076 1.394 . S
C1078 C1079 1.369 . S
C1078 C1082 1.531 . S
C1079 C1078 1.369 . S
C1079 C1080 1.410 . S
C1079 C1087 1.503 . S
C1080 C1079 1.410 . S
C1080 C1081 1.392 . S
C1080 C1083 1.511 . S
C1081 C1077 1.376 . S
C1081 C1080 1.392 . S
C1081 H1093 0.929 . S
C1082 C1078 1.531 . S
C1082 H1094 0.960 . S
C1082 H1095 0.962 . S
C1082 H1096 0.960 . S
C1083 C1080 1.511 . S
C1083 H1097 0.961 . S
C1083 H1098 0.961 . S
C1083 H1099 0.961 . S
C1084 C1085 1.370 . S
C1084 C1086 1.363 . S
C1084 H1100 0.931 . S
C1085 C1084 1.370 . S
C1085 C1089 1.408 . S
C1086 C1084 1.363 . S
C1086 C1087 1.370 1_556 S
C1086 C1090 1.524 . S
C1087 C1079 1.503 . S
C1087 C1086 1.370 1_554 S
C1087 C1088 1.403 . S
C1088 C1087 1.403 . S
C1088 C1089 1.404 1_554 S
C1088 C1091 1.539 . S
C1089 C1085 1.408 . S
C1089 C1088 1.404 1_556 S
C1089 H1101 0.930 . S
C1090 C1086 1.524 . S
C1090 H1102 0.956 . S
C1090 H1103 0.961 . S
C1090 H1104 0.961 . S
C1091 C1088 1.539 . S
C1091 H1105 0.958 . S
C1091 H1106 0.961 . S
C1091 H1107 0.960 . S
H1092 C1076 0.931 . S
H1093 C1081 0.929 . S
H1094 C1082 0.960 . S
H1095 C1082 0.962 . S
H1096 C1082 0.960 . S
H1097 C1083 0.961 . S
H1098 C1083 0.961 . S
H1099 C1083 0.961 . S
H1100 C1084 0.931 . S
H1101 C1089 0.930 . S
H1102 C1090 0.956 . S
H1103 C1090 0.961 . S
H1104 C1090 0.961 . S
H1105 C1091 0.958 . S
H1106 C1091 0.961 . S
H1107 C1091 0.960 . S
C1108 C1109 1.391 . S
C1108 C1110 1.394 . S
C1108 H1124 0.931 . S
C1109 C1108 1.391 . S
C1109 C1113 1.376 . S
C1110 C1108 1.394 . S
C1110 C1111 1.369 . S
C1110 C1114 1.531 . S
C1111 C1110 1.369 . S
C1111 C1112 1.410 . S
C1111 C1119 1.503 . S
C1112 C1111 1.410 . S
C1112 C1113 1.392 . S
C1112 C1115 1.511 . S
C1113 C1109 1.376 . S
C1113 C1112 1.392 . S
C1113 H1125 0.929 . S
C1114 C1110 1.531 . S
C1114 H1126 0.960 . S
C1114 H1127 0.962 . S
C1114 H1128 0.960 . S
C1115 C1112 1.511 . S
C1115 H1129 0.961 . S
C1115 H1130 0.961 . S
C1115 H1131 0.961 . S
C1116 C1117 1.370 . S
C1116 C1118 1.363 . S
C1116 H1132 0.931 . S
C1117 C1116 1.370 . S
C1117 C1121 1.408 . S
C1118 C1116 1.363 . S
C1118 C1119 1.370 . S
C1118 C1122 1.524 . S
C1119 C1111 1.503 . S
C1119 C1118 1.370 . S
C1119 C1120 1.403 . S
C1120 C1119 1.403 . S
C1120 C1121 1.404 . S
C1120 C1123 1.539 . S
C1121 C1117 1.408 . S
C1121 C1120 1.404 . S
C1121 H1133 0.930 . S
C1122 C1118 1.524 . S
C1122 H1134 0.956 . S
C1122 H1135 0.961 . S
C1122 H1136 0.961 . S
C1123 C1120 1.539 . S
C1123 H1137 0.958 . S
C1123 H1138 0.961 . S
C1123 H1139 0.960 . S
H1124 C1108 0.931 . S
H1125 C1113 0.929 . S
H1126 C1114 0.960 . S
H1127 C1114 0.962 . S
H1128 C1114 0.960 . S
H1129 C1115 0.961 . S
H1130 C1115 0.961 . S
H1131 C1115 0.961 . S
H1132 C1116 0.931 . S
H1133 C1121 0.930 . S
H1134 C1122 0.956 . S
H1135 C1122 0.961 . S
H1136 C1122 0.961 . S
H1137 C1123 0.958 . S
H1138 C1123 0.961 . S
H1139 C1123 0.960 . S
C381 C365 1.569 . S
C373 C45 1.561 . S
C405 C84 1.468 . S
C413 C299 1.469 . S
C437 C126 1.379 . S
C445 C313 1.396 . S
C469 C189 1.481 . S
C477 C327 1.477 . S
C509 C341 1.507 . S
C501 C228 1.534 . S
C533 C270 1.470 . S
C541 C351 1.540 . S
C565 C69 1.557 . S
C573 C309 1.583 . S
C597 C141 1.660 . S
C605 C323 1.660 . S
C629 C174 1.571 . S
C637 C337 1.595 . S
C669 C355 1.504 . S
C661 C213 1.491 . S
C701 C369 1.509 . S
C693 C285 1.533 . S
C733 C295 1.550 . S
C725 C30 1.521 . S
C757 C36 1.510 . S
C765 C310 1.431 . S
C789 C93 1.580 . S
C797 C324 1.513 . S
C829 C338 1.537 . S
C821 C117 1.567 . S
C853 C180 1.481 . S
C861 C357 1.408 . S
C893 C371 1.371 . S
C885 C237 1.456 . S
C925 C296 1.430 . S
C917 C261 1.464 . S
C957 C366 1.426 . S
C949 C78 1.470 . S
C981 C132 1.370 . S
C989 C301 1.310 . S
C1021 C315 1.315 . S
C1013 C165 1.365 . S
C1045 C222 1.440 . S
C1053 C329 1.378 . S
C1077 C276 1.471 . S
C1085 C343 1.431 . S
C1109 C21 1.491 . S
C1117 C352 1.462 . S
