# Generated by pormake.
# Topology pyr, (3,6)-cn, num edge types: 1
# Building blocks:
#     Node 0, Type 0, BuildingBlock: MIDCAF_clean_linker_0, # of connection points: 3
#     Node 1, Type 0, BuildingBlock: MIDCAF_clean_linker_0, # of connection points: 3
#     Node 2, Type 0, BuildingBlock: MIDCAF_clean_linker_0, # of connection points: 3
#     Node 3, Type 0, BuildingBlock: MIDCAF_clean_linker_0, # of connection points: 3
#     Node 4, Type 0, BuildingBlock: MIDCAF_clean_linker_0, # of connection points: 3
#     Node 5, Type 0, BuildingBlock: MIDCAF_clean_linker_0, # of connection points: 3
#     Node 6, Type 0, BuildingBlock: MIDCAF_clean_linker_0, # of connection points: 3
#     Node 7, Type 0, BuildingBlock: MIDCAF_clean_linker_0, # of connection points: 3
#     Node 8, Type 1, BuildingBlock: JUFBIX_clean_sbu_0, # of connection points: 6
#     Node 9, Type 1, BuildingBlock: JUFBIX_clean_sbu_0, # of connection points: 6
#     Node 10, Type 1, BuildingBlock: JUFBIX_clean_sbu_0, # of connection points: 6
#     Node 11, Type 1, BuildingBlock: JUFBIX_clean_sbu_0, # of connection points: 6
#     Edge 12, Type (0, 1), BuildingBlock: CIFDUS_clean_linker_0, # of connection points: 2
#     Edge 13, Type (0, 1), BuildingBlock: CIFDUS_clean_linker_0, # of connection points: 2
#     Edge 14, Type (0, 1), BuildingBlock: CIFDUS_clean_linker_0, # of connection points: 2
#     Edge 15, Type (0, 1), BuildingBlock: CIFDUS_clean_linker_0, # of connection points: 2
#     Edge 16, Type (0, 1), BuildingBlock: CIFDUS_clean_linker_0, # of connection points: 2
#     Edge 17, Type (0, 1), BuildingBlock: CIFDUS_clean_linker_0, # of connection points: 2
#     Edge 18, Type (0, 1), BuildingBlock: CIFDUS_clean_linker_0, # of connection points: 2
#     Edge 19, Type (0, 1), BuildingBlock: CIFDUS_clean_linker_0, # of connection points: 2
#     Edge 20, Type (0, 1), BuildingBlock: CIFDUS_clean_linker_0, # of connection points: 2
#     Edge 21, Type (0, 1), BuildingBlock: CIFDUS_clean_linker_0, # of connection points: 2
#     Edge 22, Type (0, 1), BuildingBlock: CIFDUS_clean_linker_0, # of connection points: 2
#     Edge 23, Type (0, 1), BuildingBlock: CIFDUS_clean_linker_0, # of connection points: 2
#     Edge 24, Type (0, 1), BuildingBlock: CIFDUS_clean_linker_0, # of connection points: 2
#     Edge 25, Type (0, 1), BuildingBlock: CIFDUS_clean_linker_0, # of connection points: 2
#     Edge 26, Type (0, 1), BuildingBlock: CIFDUS_clean_linker_0, # of connection points: 2
#     Edge 27, Type (0, 1), BuildingBlock: CIFDUS_clean_linker_0, # of connection points: 2
#     Edge 28, Type (0, 1), BuildingBlock: CIFDUS_clean_linker_0, # of connection points: 2
#     Edge 29, Type (0, 1), BuildingBlock: CIFDUS_clean_linker_0, # of connection points: 2
#     Edge 30, Type (0, 1), BuildingBlock: CIFDUS_clean_linker_0, # of connection points: 2
#     Edge 31, Type (0, 1), BuildingBlock: CIFDUS_clean_linker_0, # of connection points: 2
#     Edge 32, Type (0, 1), BuildingBlock: CIFDUS_clean_linker_0, # of connection points: 2
#     Edge 33, Type (0, 1), BuildingBlock: CIFDUS_clean_linker_0, # of connection points: 2
#     Edge 34, Type (0, 1), BuildingBlock: CIFDUS_clean_linker_0, # of connection points: 2
#     Edge 35, Type (0, 1), BuildingBlock: CIFDUS_clean_linker_0, # of connection points: 2
# Relax obj value: 0.053
# Max RMSD: 0.096
# Mean RMSD: 0.033
data_MOF--net-pry--node1-JUFBIX_clean_sbu_0--node2-MIDCAF_clean_linker_0--edge1-CIFDUS_clean_linker_0
_symmetry_space_group_name_H-M    P1
_symmetry_Int_Tables_number       1
_symmetry_cell_setting            triclinic
loop_
_symmetry_equiv_pos_as_xyz
'x, y, z'
_cell_length_a     40.95606
_cell_length_b     38.962402
_cell_length_c     41.129801
_cell_angle_alpha  84.537369
_cell_angle_beta   89.68667
_cell_angle_gamma 91.653754
loop_
_atom_site_label
_atom_site_type_symbol
_atom_site_fract_x
_atom_site_fract_y
_atom_site_fract_z
_atom_type_partial_charge
C0 C 0.11814 0.13063 0.26332 0.0
C1 C 0.1298 0.10137 0.2818 0.0
C2 C 0.15897 0.0872 0.27147 0.0
C3 C 0.17577 0.1018 0.24326 0.0
H4 H 0.2413 0.08228 0.15973 0.0
H5 H 0.28873 0.05735 0.13509 0.0
H6 H 0.32333 0.15899 0.09753 0.0
H7 H 0.27531 0.18403 0.12114 0.0
H8 H 0.21088 0.2402 0.104 0.0
H9 H 0.18596 0.29208 0.07808 0.0
H10 H 0.09857 0.26836 0.13618 0.0
H11 H 0.12368 0.21773 0.16264 0.0
H12 H 0.12478 0.16777 0.22214 0.0
H13 H 0.09618 0.14275 0.2707 0.0
H14 H 0.16862 0.06453 0.28492 0.0
H15 H 0.19803 0.09016 0.23601 0.0
N16 N 0.20887 0.13419 0.18291 0.0
N17 N 0.21214 0.17983 0.14086 0.0
N18 N 0.16942 0.17675 0.17924 0.0
C19 C 0.22451 0.15025 0.15591 0.0
C20 C 0.18434 0.1931 0.1523 0.0
C21 C 0.18133 0.14756 0.19491 0.0
C22 C 0.25434 0.1352 0.14239 0.0
C23 C 0.25905 0.09939 0.14637 0.0
C24 C 0.28618 0.08507 0.1322 0.0
C25 C 0.30979 0.10623 0.11447 0.0
C26 C 0.30563 0.14208 0.1112 0.0
C27 C 0.27804 0.15635 0.12461 0.0
C28 C 0.16952 0.22467 0.13564 0.0
C29 C 0.18638 0.24613 0.11126 0.0
C30 C 0.17195 0.27587 0.09626 0.0
C31 C 0.14016 0.28484 0.10504 0.0
C32 C 0.1233 0.26305 0.12916 0.0
C33 C 0.13776 0.23364 0.14428 0.0
C34 C 0.16391 0.13107 0.22479 0.0
C35 C 0.13484 0.14519 0.23538 0.0
C36 C 0.36204 0.97138 0.55798 0.0
C37 C 0.33442 0.95037 0.55278 0.0
C38 C 0.33767 0.91436 0.55535 0.0
C39 C 0.36696 0.89968 0.5657 0.0
H40 H 0.40284 0.80592 0.61114 0.0
H41 H 0.41018 0.74414 0.61204 0.0
H42 H 0.51509 0.76157 0.61377 0.0
H43 H 0.50712 0.82298 0.61584 0.0
H44 H 0.49145 0.88338 0.68992 0.0
H45 H 0.4983 0.91112 0.74002 0.0
H46 H 0.46154 1.00561 0.69227 0.0
H47 H 0.45416 0.97783 0.64218 0.0
H48 H 0.41139 0.97353 0.57464 0.0
H49 H 0.36066 0.99922 0.55532 0.0
H50 H 0.31695 0.89727 0.55182 0.0
H51 H 0.36792 0.87183 0.56949 0.0
N52 N 0.42694 0.8713 0.59244 0.0
N53 N 0.46567 0.87512 0.63393 0.0
N54 N 0.43715 0.92393 0.6141 0.0
C55 C 0.44965 0.85626 0.61255 0.0
C56 C 0.45942 0.9091 0.6349 0.0
C57 C 0.42099 0.90534 0.59268 0.0
C58 C 0.45447 0.81899 0.61323 0.0
C59 C 0.42741 0.79629 0.61194 0.0
C60 C 0.43171 0.76087 0.61222 0.0
C61 C 0.46328 0.74745 0.61266 0.0
C62 C 0.49034 0.7705 0.61414 0.0
C63 C 0.48591 0.80582 0.61496 0.0
C64 C 0.47154 0.92809 0.66218 0.0
C65 C 0.48562 0.91033 0.68974 0.0
C66 C 0.48964 0.92629 0.71852 0.0
C67 C 0.47984 0.96036 0.72027 0.0
C68 C 0.46861 0.97907 0.69186 0.0
C69 C 0.46454 0.96314 0.6631 0.0
C70 C 0.39341 0.92069 0.57417 0.0
C71 C 0.39116 0.95669 0.56886 0.0
C72 C 0.66052 0.24373 0.91844 0.0
C73 C 0.62842 0.23545 0.90917 0.0
C74 C 0.61226 0.25906 0.88731 0.0
C75 C 0.628 0.28966 0.87438 0.0
H76 H 0.6144 0.38032 0.81346 0.0
H77 H 0.58866 0.40921 0.7658 0.0
H78 H 0.68382 0.44219 0.72637 0.0
H79 H 0.70935 0.41484 0.77524 0.0
H80 H 0.7635 0.42177 0.83838 0.0
H81 H 0.81497 0.44195 0.86035 0.0
H82 H 0.80656 0.36207 0.94047 0.0
H83 H 0.7549 0.34204 0.91886 0.0
H84 H 0.70116 0.27975 0.91282 0.0
H85 H 0.67383 0.22603 0.93498 0.0
H86 H 0.58732 0.25394 0.88014 0.0
H87 H 0.61473 0.30696 0.8574 0.0
N88 N 0.66374 0.34783 0.84192 0.0
N89 N 0.70899 0.38632 0.83774 0.0
N90 N 0.70693 0.33992 0.87873 0.0
C91 C 0.67932 0.37617 0.82671 0.0
C92 C 0.72287 0.36847 0.86399 0.0
C93 C 0.67736 0.3294 0.86778 0.0
C94 C 0.66394 0.3952 0.7981 0.0
C95 C 0.62982 0.39392 0.79468 0.0
C96 C 0.61505 0.4103 0.76709 0.0
C97 C 0.63401 0.42784 0.74174 0.0
C98 C 0.66823 0.42944 0.74543 0.0
C99 C 0.68298 0.4136 0.77343 0.0
C100 C 0.75483 0.38025 0.8768 0.0
C101 C 0.77256 0.4084 0.86065 0.0
C102 C 0.80224 0.41989 0.87316 0.0
C103 C 0.81492 0.40367 0.90221 0.0
C104 C 0.79732 0.37543 0.91826 0.0
C105 C 0.76773 0.36382 0.9057 0.0
C106 C 0.66031 0.29766 0.88308 0.0
C107 C 0.67626 0.27451 0.9056 0.0
C108 C 0.83224 0.62049 0.5071 0.0
C109 C 0.81023 0.59794 0.49297 0.0
C110 C 0.82197 0.57764 0.46921 0.0
C111 C 0.85442 0.58104 0.45865 0.0
H112 H 0.92411 0.54214 0.39764 0.0
H113 H 0.92872 0.51829 0.34535 0.0
H114 H 0.98625 0.60805 0.30726 0.0
H115 H 0.98251 0.63145 0.36005 0.0
H116 H 0.99558 0.69199 0.40813 0.0
H117 H 0.02123 0.74667 0.42048 0.0
H118 H 0.98519 0.72947 0.51963 0.0
H119 H 0.95905 0.67508 0.50733 0.0
H120 H 0.88071 0.64261 0.50692 0.0
H121 H 0.82417 0.63604 0.5259 0.0
H122 H 0.80573 0.56028 0.45747 0.0
H123 H 0.8621 0.56583 0.43941 0.0
N124 N 0.91767 0.59601 0.43007 0.0
N125 N 0.96423 0.63225 0.42179 0.0
N126 N 0.92796 0.63895 0.46506 0.0
C127 C 0.9454 0.60545 0.41292 0.0
C128 C 0.95589 0.64876 0.44821 0.0
C129 C 0.90864 0.61261 0.45606 0.0
C130 C 0.95259 0.5889 0.38287 0.0
C131 C 0.93817 0.55658 0.37827 0.0
C132 C 0.94066 0.54297 0.34822 0.0
C133 C 0.95733 0.56153 0.32189 0.0
C134 C 0.97338 0.59296 0.32705 0.0
C135 C 0.97116 0.60644 0.35731 0.0
C136 C 0.97506 0.67936 0.4567 0.0
C137 C 0.9936 0.69954 0.43272 0.0
C138 C 1.0082 0.73086 0.43971 0.0
C139 C 1.00511 0.74218 0.47096 0.0
C140 C 0.98812 0.72115 0.49541 0.0
C141 C 0.973 0.69017 0.48829 0.0
C142 C 0.87598 0.60509 0.47132 0.0
C143 C 0.86475 0.62407 0.49636 0.0
C144 C 0.73283 0.91042 0.86799 0.0
C145 C 0.72016 0.89575 0.89824 0.0
C146 C 0.73734 0.86872 0.91496 0.0
C147 C 0.76619 0.85674 0.9018 0.0
H148 H 0.83458 0.7742 0.91123 0.0
H149 H 0.86311 0.72304 0.93384 0.0
H150 H 0.94415 0.75052 0.86798 0.0
H151 H 0.9157 0.80076 0.84509 0.0
H152 H 0.91626 0.87574 0.80109 0.0
H153 H 0.94058 0.90347 0.75107 0.0
H154 H 0.84407 0.92346 0.71272 0.0
H155 H 0.82006 0.8978 0.76408 0.0
H156 H 0.77048 0.91085 0.83168 0.0
H157 H 0.72072 0.93159 0.85452 0.0
H158 H 0.72827 0.85647 0.93812 0.0
H159 H 0.7786 0.83591 0.91547 0.0
N160 N 0.82611 0.83228 0.87284 0.0
N161 N 0.86744 0.83953 0.8328 0.0
N162 N 0.82297 0.87619 0.82955 0.0
C163 C 0.85489 0.82205 0.86045 0.0
C164 C 0.85175 0.86642 0.81711 0.0
C165 C 0.81003 0.85954 0.85762 0.0
C166 C 0.87255 0.79171 0.87606 0.0
C167 C 0.85854 0.7694 0.90166 0.0
C168 C 0.875 0.74005 0.91473 0.0
C169 C 0.90592 0.73225 0.90258 0.0
C170 C 0.92013 0.75506 0.87754 0.0
C171 C 0.90375 0.78419 0.8645 0.0
C172 C 0.8662 0.8845 0.78662 0.0
C173 C 0.90025 0.88627 0.78201 0.0
C174 C 0.91422 0.90195 0.75296 0.0
C175 C 0.89456 0.91558 0.72708 0.0
C176 C 0.86034 0.91393 0.73193 0.0
C177 C 0.84641 0.89899 0.76142 0.0
C178 C 0.77888 0.87154 0.87158 0.0
C179 C 0.76166 0.89857 0.85492 0.0
C180 C 0.58858 0.06876 0.32907 0.0
C181 C 0.56875 0.08353 0.30393 0.0
C182 C 0.56089 0.1185 0.30397 0.0
C183 C 0.57447 0.13868 0.32707 0.0
H184 H 0.55701 0.21699 0.39257 0.0
H185 H 0.53312 0.26733 0.41308 0.0
H186 H 0.62422 0.2907 0.45981 0.0
H187 H 0.6484 0.24088 0.43898 0.0
H188 H 0.70461 0.17622 0.44379 0.0
H189 H 0.76198 0.16283 0.45173 0.0
H190 H 0.76544 0.12695 0.35543 0.0
H191 H 0.70767 0.13826 0.34863 0.0
H192 H 0.61949 0.07753 0.36947 0.0
H193 H 0.59432 0.04171 0.33057 0.0
H194 H 0.54601 0.13099 0.28493 0.0
H195 H 0.56936 0.16592 0.3255 0.0
N196 N 0.60174 0.17392 0.38279 0.0
N197 N 0.65204 0.18933 0.40523 0.0
N198 N 0.64802 0.14156 0.37478 0.0
C199 C 0.61975 0.19512 0.40061 0.0
C200 C 0.66633 0.1628 0.39215 0.0
C201 C 0.6157 0.14686 0.37024 0.0
C202 C 0.6047 0.22491 0.41397 0.0
C203 C 0.57197 0.23277 0.40728 0.0
C204 C 0.55821 0.26155 0.41912 0.0
C205 C 0.57687 0.28303 0.43788 0.0
C206 C 0.60941 0.27493 0.44494 0.0
C207 C 0.62319 0.24622 0.43312 0.0
C208 C 0.70164 0.15757 0.39591 0.0
C209 C 0.7178 0.16561 0.42434 0.0
C210 C 0.75079 0.15826 0.4287 0.0
C211 C 0.76841 0.14339 0.40438 0.0
C212 C 0.75251 0.13742 0.3751 0.0
C213 C 0.7194 0.14396 0.37112 0.0
C214 C 0.59669 0.12448 0.35003 0.0
C215 C 0.60287 0.08917 0.35151 0.0
C216 C 0.2518 0.57978 0.13921 0.0
C217 C 0.23259 0.60262 0.11955 0.0
C218 C 0.24064 0.63805 0.11714 0.0
C219 C 0.26779 0.65035 0.13355 0.0
H220 H 0.36269 0.70927 0.1086 0.0
H221 H 0.39485 0.75957 0.0858 0.0
H222 H 0.42716 0.7775 0.18288 0.0
H223 H 0.39658 0.72622 0.20514 0.0
H224 H 0.4162 0.63519 0.23577 0.0
H225 H 0.43666 0.60853 0.28703 0.0
H226 H 0.33908 0.5702 0.31384 0.0
H227 H 0.31901 0.5955 0.26133 0.0
H228 H 0.29287 0.57393 0.1712 0.0
H229 H 0.24598 0.55235 0.14155 0.0
H230 H 0.22625 0.65615 0.10207 0.0
H231 H 0.2736 0.67778 0.1309 0.0
N232 N 0.33241 0.66982 0.15743 0.0
N233 N 0.36962 0.66477 0.20057 0.0
N234 N 0.32687 0.62363 0.19853 0.0
C235 C 0.3592 0.68202 0.17251 0.0
C236 C 0.35373 0.63563 0.21376 0.0
C237 C 0.31609 0.64067 0.17028 0.0
C238 C 0.37722 0.71364 0.15864 0.0
C239 C 0.37666 0.72405 0.125 0.0
C240 C 0.39502 0.75308 0.11198 0.0
C241 C 0.4139 0.7728 0.13238 0.0
C242 C 0.41373 0.76265 0.16616 0.0
C243 C 0.39592 0.73331 0.17904 0.0
C244 C 0.36593 0.61763 0.24453 0.0
C245 C 0.39911 0.62093 0.25253 0.0
C246 C 0.4108 0.60583 0.28219 0.0
C247 C 0.38955 0.58756 0.30514 0.0
C248 C 0.35636 0.58373 0.29681 0.0
C249 C 0.34475 0.59834 0.26673 0.0
C250 C 0.28701 0.62756 0.15336 0.0
C251 C 0.2785 0.59217 0.15627 0.0
C252 C 0.06268 0.27873 0.55097 0.0
C253 C 0.03488 0.26133 0.56518 0.0
C254 C 1.01621 0.2775 0.58771 0.0
C255 C 0.02613 0.30986 0.59703 0.0
H256 H 0.0389 0.35836 0.68587 0.0
H257 H 0.03207 0.37217 0.74223 0.0
H258 H 0.06904 0.47583 0.71495 0.0
H259 H 0.07609 0.46213 0.65875 0.0
H260 H 0.14269 0.45907 0.61314 0.0
H261 H 0.1974 0.47853 0.59574 0.0
H262 H 0.19454 0.40912 0.51986 0.0
H263 H 0.13996 0.38883 0.53778 0.0
H264 H 0.09437 0.32332 0.54892 0.0
H265 H 0.07733 0.26692 0.53332 0.0
H266 H 0.99472 0.26452 0.59907 0.0
H267 H 1.01181 0.32123 0.61521 0.0
N268 N 0.05527 0.37049 0.62352 0.0
N269 N 0.09395 0.41632 0.6196 0.0
N270 N 0.09294 0.37703 0.57999 0.0
C271 C 0.06841 0.39911 0.63556 0.0
C272 C 0.1064 0.40554 0.59181 0.0
C273 C 0.0672 0.35951 0.59547 0.0
C274 C 0.05836 0.40905 0.66792 0.0
C275 C 0.04483 0.38433 0.69171 0.0
C276 C 0.0411 0.39214 0.724 0.0
C277 C 0.05028 0.42497 0.73295 0.0
C278 C 0.06162 0.45038 0.70871 0.0
C279 C 0.06581 0.44244 0.67657 0.0
C280 C 0.13704 0.42183 0.57731 0.0
C281 C 0.1534 0.44827 0.59239 0.0
C282 C 0.1848 0.45968 0.58225 0.0
C283 C 0.20057 0.44506 0.55669 0.0
C284 C 0.18332 0.42041 0.54008 0.0
C285 C 0.15193 0.4089 0.55028 0.0
C286 C 0.05466 0.3268 0.58363 0.0
C287 C 0.07234 0.31114 0.5599 0.0
Co288 Co 1.00417 0.00853 0.49981 0.0
C289 C 0.02779 0.94171 0.49337 0.0
Co290 Co 0.05153 0.99637 0.52236 0.0
C291 C 0.94932 0.03932 0.4632 0.0
C292 C 0.94065 0.98702 0.48321 0.0
N293 N 0.96334 0.01297 0.48122 0.0
N294 N 0.91905 0.03027 0.45351 0.0
C295 C 0.9136 0.99748 0.46612 0.0
H296 H 0.9611 0.06434 0.45703 0.0
H297 H 0.94356 0.96193 0.49639 0.0
C298 C 0.02876 0.06344 0.52848 0.0
N299 N 0.09171 0.99091 0.54158 0.0
C300 C 0.11971 0.98138 0.52809 0.0
C301 C 0.09987 0.99855 0.57183 0.0
N302 N 0.14513 0.98315 0.54863 0.0
C303 C 0.13269 0.99378 0.57624 0.0
C304 C 0.0563 0.02518 0.4571 0.0
O305 O 1.0038 0.05431 0.51276 0.0
O306 O 0.05112 0.04193 0.53489 0.0
O307 O 0.07214 0.01347 0.48206 0.0
O308 O 0.02523 0.0257 0.45905 0.0
O309 O 0.05203 0.95086 0.50988 0.0
H310 H 0.08316 1.00778 0.58926 0.0
H311 H 0.12161 0.97448 0.50329 0.0
O312 O 1.00524 0.96285 0.48669 0.0
O313 O 0.9833 0.99133 0.54084 0.0
O314 O 0.03076 0.97908 0.56232 0.0
C315 C 0.99989 0.9792 0.56512 0.0
H316 H 0.89126 0.9824 0.46372 0.0
H317 H 0.14634 0.99796 0.59805 0.0
Co318 Co 0.51103 1.00274 0.99815 0.0
C319 C 0.49636 0.94573 0.04229 0.0
Co320 Co 0.53731 1.00317 0.04464 0.0
C321 C 0.50265 1.00315 0.92929 0.0
C322 C 0.45667 0.99687 0.95443 0.0
N323 N 0.48892 1.0019 0.95925 0.0
N324 N 0.48045 0.99849 0.90594 0.0
C325 C 0.45138 0.99481 0.92161 0.0
H326 H 0.52865 1.00657 0.92476 0.0
H327 H 0.43841 0.99348 0.97366 0.0
C328 C 0.55155 0.06048 1.00049 0.0
N329 N 0.56071 1.00402 0.08286 0.0
C330 C 0.55024 1.00342 0.11411 0.0
C331 C 0.59355 1.00693 0.08444 0.0
N332 N 0.57537 1.00564 0.13503 0.0
C333 C 0.6026 1.0078 0.11636 0.0
C334 C 0.57166 0.97113 0.99719 0.0
O335 O 0.53112 0.0459 0.98272 0.0
O336 O 0.55789 0.046 0.02865 0.0
O337 O 0.57194 0.9788 0.02648 0.0
O338 O 0.5469 0.97904 0.97988 0.0
O339 O 0.51648 0.9603 0.06047 0.0
H340 H 0.60994 0.00933 0.06358 0.0
H341 H 0.52474 1.0019 0.12128 0.0
O342 O 0.49091 0.9598 0.01374 0.0
O343 O 0.47538 0.02618 0.01683 0.0
O344 O 0.50242 0.02761 0.06258 0.0
C345 C 0.47689 0.03465 0.04598 0.0
H346 H 0.42821 0.98917 0.91044 0.0
H347 H 0.62727 0.01145 0.12497 0.0
Co348 Co 0.52764 0.52621 0.52275 0.0
C349 C 0.4796 0.53446 0.47461 0.0
Co350 Co 0.48186 0.49619 0.53453 0.0
C351 C 0.59618 0.54345 0.51636 0.0
C352 C 0.56683 0.58634 0.50049 0.0
N353 N 0.56492 0.55297 0.51261 0.0
N354 N 0.61765 0.56956 0.50713 0.0
C355 C 0.5992 0.59662 0.49709 0.0
H356 H 0.60296 0.5179 0.52613 0.0
H357 H 0.54602 0.60216 0.49452 0.0
C358 C 0.53021 0.48804 0.58256 0.0
N359 N 0.44501 0.46854 0.54486 0.0
C360 C 0.41317 0.47423 0.53851 0.0
C361 C 0.44553 0.43587 0.55899 0.0
N362 N 0.39394 0.4462 0.54788 0.0
C363 C 0.4143 0.42214 0.56091 0.0
C364 C 0.52844 0.46189 0.5012 0.0
O365 O 0.54679 0.50841 0.56249 0.0
O366 O 0.50103 0.4798 0.5754 0.0
O367 O 0.50038 0.45943 0.5146 0.0
O368 O 0.54508 0.48987 0.50136 0.0
O369 O 0.46336 0.51262 0.49371 0.0
H370 H 0.46738 0.4226 0.56681 0.0
H371 H 0.40445 0.49805 0.52635 0.0
O372 O 0.50806 0.54411 0.48288 0.0
O373 O 0.51017 0.56205 0.54431 0.0
O374 O 0.46346 0.53358 0.55428 0.0
C375 C 0.48144 0.56047 0.5562 0.0
H376 H 0.60835 0.62191 0.48745 0.0
H377 H 0.40716 0.39638 0.57115 0.0
Co378 Co 0.02785 0.50873 0.9985 0.0
C379 C 0.9658 0.47714 1.00074 0.0
Co380 Co 1.00156 0.51244 0.04485 0.0
C381 C 0.03768 0.50363 0.92958 0.0
C382 C 0.08136 0.49486 0.95717 0.0
N383 N 0.05005 0.50409 0.95992 0.0
N384 N 0.05987 0.49377 0.90825 0.0
C385 C 0.0874 0.48829 0.92546 0.0
H386 H 1.01232 0.50813 0.92372 0.0
H387 H 0.09817 0.49127 0.97733 0.0
C388 C 0.06341 0.54403 0.04285 0.0
N389 N 0.97923 0.5167 0.08336 0.0
C390 C 0.99152 0.51757 0.11367 0.0
C391 C 0.94708 0.52209 0.08665 0.0
N392 N 0.96833 0.52351 0.13576 0.0
C393 C 0.9403 0.52624 0.11878 0.0
C394 C 0.0396 0.45444 0.04673 0.0
O395 O 0.06476 0.53328 0.01463 0.0
O396 O 0.0375 0.53844 0.05984 0.0
O397 O 0.02041 0.47096 0.06356 0.0
O398 O 0.04559 0.46597 0.01723 0.0
O399 O 0.96561 0.48647 0.02951 0.0
H400 H 0.92985 0.52396 0.06677 0.0
H401 H 0.0171 0.51436 0.11927 0.0
O402 O 0.99096 0.48413 0.98286 0.0
O403 O 1.00971 0.55167 0.98011 0.0
O404 O 0.983 0.55388 0.02615 0.0
C405 C 0.98967 0.56694 0.99728 0.0
H406 H 0.10988 0.47898 0.91602 0.0
H407 H 0.91677 0.53225 0.12854 0.0
H408 H 0.15421 0.0756 0.34096 0.0
H409 H 0.06347 0.09285 0.29001 0.0
H410 H 0.03281 0.07148 0.33918 0.0
H411 H 0.0314 0.04845 0.39728 0.0
H412 H 0.12233 0.03037 0.44776 0.0
H413 H 0.15285 0.05106 0.39842 0.0
C414 C 0.12774 0.07431 0.34043 0.0
C415 C 0.11135 0.08615 0.31164 0.0
C416 C 0.11008 0.06186 0.36894 0.0
C417 C 0.07692 0.08454 0.31181 0.0
C418 C 0.05926 0.07214 0.33997 0.0
C419 C 0.05788 0.04902 0.3975 0.0
C420 C 0.07437 0.03787 0.42644 0.0
C421 C 0.07553 0.06095 0.36881 0.0
C422 C 0.10879 0.03876 0.42603 0.0
C423 C 0.1264 0.05062 0.39772 0.0
H424 H 0.52425 0.95603 0.76954 0.0
H425 H 0.42988 0.99617 0.74323 0.0
H426 H 0.42262 0.01367 0.79807 0.0
H427 H 0.44114 0.01353 0.85478 0.0
H428 H 0.53466 0.97174 0.88156 0.0
H429 H 0.54419 0.95905 0.82546 0.0
C430 C 0.5022 0.96879 0.77579 0.0
C431 C 0.47767 0.97471 0.75233 0.0
C432 C 0.4979 0.97831 0.80757 0.0
C433 C 0.44938 0.99169 0.76067 0.0
C434 C 0.44503 1.00142 0.79214 0.0
C435 C 0.46359 1.00173 0.84825 0.0
C436 C 0.48701 0.99349 0.87233 0.0
C437 C 0.46882 0.99422 0.81597 0.0
C438 C 0.51632 0.97869 0.86346 0.0
C439 C 0.52172 0.97119 0.8314 0.0
H440 H 0.5794 0.40477 0.71122 0.0
H441 H 0.65269 0.48724 0.70369 0.0
H442 H 0.62762 0.51244 0.65373 0.0
H443 H 0.58468 0.51144 0.61215 0.0
H444 H 0.50921 0.43143 0.62212 0.0
H445 H 0.53488 0.40558 0.67169 0.0
C446 C 0.5897 0.4286 0.69914 0.0
C447 C 0.61815 0.44383 0.71149 0.0
C448 C 0.57463 0.44359 0.67083 0.0
C449 C 0.63129 0.47436 0.69468 0.0
C450 C 0.61677 0.48905 0.66615 0.0
C451 C 0.57381 0.48838 0.62522 0.0
C452 C 0.54511 0.47334 0.61337 0.0
C453 C 0.58847 0.47386 0.65397 0.0
C454 C 0.53121 0.44362 0.63074 0.0
C455 C 0.54595 0.42874 0.65904 0.0
H456 H 1.00567 0.56368 0.27542 0.0
H457 H 0.90451 0.53297 0.29335 0.0
H458 H 0.89981 0.51623 0.23805 0.0
H459 H 0.92333 0.51294 0.18378 0.0
H460 H 0.02343 0.54643 0.16431 0.0
H461 H 0.02964 0.55919 0.22095 0.0
C462 C 0.9826 0.55338 0.26721 0.0
C463 C 0.95556 0.54954 0.28866 0.0
C464 C 0.97981 0.54432 0.23504 0.0
C465 C 0.92594 0.53569 0.27767 0.0
C466 C 0.9231 0.52636 0.2459 0.0
C467 C 0.94647 0.52316 0.19185 0.0
C468 C 0.97275 0.5289 0.16969 0.0
C469 C 0.94972 0.53097 0.22427 0.0
C470 C 1.00283 0.54144 0.18083 0.0
C471 C 1.00635 0.549 0.2132 0.0
H472 H 0.37524 0.11607 0.12487 0.0
H473 H 0.30706 0.06135 0.06774 0.0
H474 H 0.35234 0.03588 0.04017 0.0
H475 H 0.41166 0.02844 0.03268 0.0
H476 H 0.47968 0.07901 0.09344 0.0
H477 H 0.43458 0.10668 0.11901 0.0
C478 C 0.37041 0.09861 0.10633 0.0
C479 C 0.33781 0.09074 0.09823 0.0
C480 C 0.39666 0.08328 0.09117 0.0
C481 C 0.33189 0.06777 0.07443 0.0
C482 C 0.35781 0.05324 0.05862 0.0
C483 C 0.4166 0.0457 0.05137 0.0
C484 C 0.44914 0.05187 0.06084 0.0
C485 C 0.39034 0.06074 0.06679 0.0
C486 C 0.45497 0.07382 0.08558 0.0
C487 C 0.42913 0.08969 0.10024 0.0
H488 H 0.28327 0.9303 0.51563 0.0
H489 H 0.31111 1.00363 0.58374 0.0
H490 H 0.25519 0.02225 0.58603 0.0
H491 H 0.19757 0.01375 0.57343 0.0
H492 H 0.16831 0.93789 0.50873 0.0
H493 H 0.22548 0.92404 0.50059 0.0
C494 C 0.27714 0.95045 0.53087 0.0
C495 C 0.3015 0.96533 0.54956 0.0
C496 C 0.24456 0.96026 0.5331 0.0
C497 C 0.29316 0.99197 0.56864 0.0
C498 C 0.261 1.00239 0.57036 0.0
C499 C 0.20369 0.99409 0.55767 0.0
C500 C 0.17877 0.97648 0.54215 0.0
C501 C 0.23642 0.986 0.55349 0.0
C502 C 0.1871 0.9518 0.52097 0.0
C503 C 0.21975 0.94379 0.51641 0.0
H504 H 0.82866 0.41211 0.96585 0.0
H505 H 0.87152 0.42405 0.86923 0.0
H506 H 0.92228 0.44647 0.89125 0.0
H507 H 0.95416 0.46398 0.93778 0.0
H508 H 0.91085 0.4528 0.03428 0.0
H509 H 0.86094 0.42829 1.01254 0.0
C510 C 0.84923 0.41923 0.94965 0.0
C511 C 0.84617 0.41642 0.91589 0.0
C512 C 0.87836 0.43221 0.96247 0.0
C513 C 0.87298 0.42632 0.89523 0.0
C514 C 0.90211 0.43899 0.90783 0.0
C515 C 0.93392 0.45591 0.95413 0.0
C516 C 0.93636 0.46021 0.98767 0.0
C517 C 0.90503 0.44225 0.94139 0.0
C518 C 0.90973 0.44982 1.00839 0.0
C519 C 0.8811 0.43584 0.99596 0.0
H520 H 0.76763 0.5424 0.4995 0.0
H521 H 0.77259 0.6528 0.50336 0.0
H522 H 0.71348 0.65336 0.51013 0.0
H523 H 0.66007 0.62322 0.51121 0.0
H524 H 0.65479 0.51348 0.50365 0.0
H525 H 0.71423 0.51205 0.50191 0.0
C526 C 0.75581 0.56662 0.50177 0.0
C527 C 0.77467 0.5975 0.50076 0.0
C528 C 0.72166 0.56695 0.50474 0.0
C529 C 0.75889 0.62852 0.50447 0.0
C530 C 0.72498 0.62896 0.508 0.0
C531 C 0.67186 0.59901 0.50899 0.0
C532 C 0.65284 0.56858 0.50735 0.0
C533 C 0.70608 0.59843 0.50751 0.0
C534 C 0.66869 0.53729 0.50524 0.0
C535 C 0.70274 0.53646 0.50406 0.0
H536 H 0.0993 0.32849 0.133 0.0
H537 H 0.14514 0.31283 0.04101 0.0
H538 H 0.1186 0.36355 0.01504 0.0
H539 H 0.08148 0.41218 0.01806 0.0
H540 H 0.03434 0.42598 0.10987 0.0
H541 H 0.06162 0.37587 0.13582 0.0
C542 C 0.10328 0.33577 0.10716 0.0
C543 C 0.12435 0.31646 0.08917 0.0
C544 C 0.08744 0.3647 0.09214 0.0
C545 C 0.12956 0.32719 0.05581 0.0
C546 C 0.11411 0.35615 0.04078 0.0
C547 C 0.07706 0.40417 0.04372 0.0
C548 C 0.0557 0.42299 0.06186 0.0
C549 C 0.09289 0.37508 0.05866 0.0
C550 C 0.05046 0.41211 0.09515 0.0
C551 C 0.06616 0.38341 0.1101 0.0
H552 H 0.63031 0.20214 0.97076 0.0
H553 H 0.5896 0.19336 0.8752 0.0
H554 H 0.56176 0.13925 0.89512 0.0
H555 H 0.54917 0.09404 0.93943 0.0
H556 H 0.59119 0.10159 0.0346 0.0
H557 H 0.61857 0.1562 0.01492 0.0
C558 C 0.61562 0.18825 0.95419 0.0
C559 C 0.61197 0.20207 0.92155 0.0
C560 C 0.59988 0.15683 0.96571 0.0
C561 C 0.59243 0.18379 0.90059 0.0
C562 C 0.57663 0.15266 0.9119 0.0
C563 C 0.56425 0.10764 0.95591 0.0
C564 C 0.56801 0.09372 0.98847 0.0
C565 C 0.58012 0.13896 0.94441 0.0
C566 C 0.58784 0.11166 1.00941 0.0
C567 C 0.60352 0.14294 0.99818 0.0
H568 H 0.99095 0.80182 0.43605 0.0
H569 H 0.04389 0.7609 0.5206 0.0
H570 H 0.05838 0.81958 0.53353 0.0
H571 H 0.05263 0.88258 0.52261 0.0
H572 H 0.99555 0.9225 0.4404 0.0
H573 H 0.98628 0.86428 0.42446 0.0
C574 C 1.00614 0.80583 0.45697 0.0
C575 C 1.0166 0.77728 0.47723 0.0
C576 C 1.01343 0.83946 0.46472 0.0
C577 C 0.03565 0.78265 0.50468 0.0
C578 C 0.04387 0.81612 0.51206 0.0
C579 C 0.03856 0.87847 0.50098 0.0
C580 C 0.02483 0.9067 0.48266 0.0
C581 C 0.03244 0.84475 0.49254 0.0
C582 C 1.00625 0.90109 0.45494 0.0
C583 C 1.00094 0.86784 0.44581 0.0
H584 H 0.42509 0.70268 0.58057 0.0
H585 H 0.51229 0.70699 0.63913 0.0
H586 H 0.52437 0.64838 0.6284 0.0
H587 H 0.51281 0.59787 0.59842 0.0
H588 H 0.42341 0.59122 0.54438 0.0
H589 H 0.40873 0.64855 0.55863 0.0
C590 C 0.44627 0.69074 0.59191 0.0
C591 C 0.46813 0.70998 0.61 0.0
C592 C 0.4526 0.65651 0.58658 0.0
C593 C 0.49559 0.6936 0.62403 0.0
C594 C 0.50241 0.65983 0.61824 0.0
C595 C 0.48978 0.60878 0.59043 0.0
C596 C 0.46924 0.59083 0.5703 0.0
C597 C 0.48153 0.64143 0.59887 0.0
C598 C 0.43939 0.60475 0.56011 0.0
C599 C 0.43121 0.63756 0.568 0.0
H600 H 0.95181 0.89839 0.698 0.0
H601 H 0.87183 0.96809 0.68368 0.0
H602 H 0.89597 0.99228 0.63196 0.0
H603 H 0.94073 0.99489 0.59081 0.0
H604 H 0.02306 0.92934 0.60879 0.0
H605 H 0.99748 0.90322 0.65925 0.0
C606 C 0.93973 0.91932 0.68413 0.0
C607 C 0.90971 0.93103 0.69531 0.0
C608 C 0.95436 0.93415 0.65482 0.0
C609 C 0.89447 0.95769 0.67588 0.0
C610 C 0.90847 0.97192 0.64624 0.0
C611 C 0.953 0.97486 0.6058 0.0
C612 C 0.98377 0.96405 0.59592 0.0
C613 C 0.93846 0.96042 0.63543 0.0
C614 C 0.99948 0.93829 0.61582 0.0
C615 C 0.98481 0.92324 0.64469 0.0
H616 H 0.6059 0.03718 0.27655 0.0
H617 H 0.51304 0.08679 0.26633 0.0
H618 H 0.50508 0.06367 0.21366 0.0
H619 H 0.52808 0.03546 0.1677 0.0
H620 H 0.62022 0.98505 0.17974 0.0
H621 H 0.62432 1.00162 0.23523 0.0
C622 C 0.58329 0.0421 0.26358 0.0
C623 C 0.56035 0.06419 0.2754 0.0
C624 C 0.57886 0.02878 0.23346 0.0
C625 C 0.53156 0.07057 0.25756 0.0
C626 C 0.5269 0.05724 0.22746 0.0
C627 C 0.54859 0.02735 0.18278 0.0
C628 C 0.57418 0.0097 0.16941 0.0
C629 C 0.55094 0.03726 0.21468 0.0
C630 C 0.60064 0.99939 0.18924 0.0
C631 C 0.60297 0.00878 0.22098 0.0
H632 H 0.43721 0.6151 0.34202 0.0
H633 H 0.3701 0.52751 0.34198 0.0
H634 H 0.39075 0.50434 0.39488 0.0
H635 H 0.42908 0.50802 0.44071 0.0
H636 H 0.49885 0.59343 0.43795 0.0
H637 H 0.47644 0.61779 0.38626 0.0
C638 C 0.42734 0.59063 0.35315 0.0
C639 C 0.40206 0.57319 0.33763 0.0
C640 C 0.43996 0.57689 0.38315 0.0
C641 C 0.38917 0.54195 0.35329 0.0
C642 C 0.40117 0.52846 0.38353 0.0
C643 C 0.43931 0.532 0.4288 0.0
C644 C 0.4656 0.54889 0.44323 0.0
C645 C 0.42666 0.54563 0.39865 0.0
C646 C 0.47873 0.57981 0.42736 0.0
C647 C 0.46588 0.59381 0.3978 0.0
H648 H 0.02678 0.48006 0.76106 0.0
H649 H 0.07736 0.38511 0.78273 0.0
H650 H 0.08487 0.39812 0.83914 0.0
H651 H 0.07909 0.43758 0.88176 0.0
H652 H 0.02666 0.53128 0.86164 0.0
H653 H 0.01777 0.5179 0.80512 0.0
C654 C 0.03923 0.46219 0.77827 0.0
C655 C 0.0515 0.43168 0.7678 0.0
C656 C 0.04333 0.46978 0.81078 0.0
C657 C 0.06738 0.40855 0.79032 0.0
C658 C 0.07191 0.4161 0.8225 0.0
C659 C 0.06586 0.45506 0.86486 0.0
C660 C 0.05398 0.48559 0.87542 0.0
C661 C 0.06038 0.44681 0.83286 0.0
C662 C 0.03611 0.50772 0.85377 0.0
C663 C 0.03109 0.50007 0.82157 0.0
H664 H 0.70604 0.90559 0.96204 0.0
H665 H 0.66435 0.91547 0.86561 0.0
H666 H 0.61489 0.93875 0.88731 0.0
H667 H 0.5834 0.95753 0.93371 0.0
H668 H 0.62551 0.9475 0.03 0.0
H669 H 0.67417 0.9228 1.00843 0.0
C670 C 0.68603 0.91242 0.94576 0.0
C671 C 0.6893 0.90879 0.91208 0.0
C672 C 0.65745 0.92587 0.95843 0.0
C673 C 0.66301 0.91838 0.8915 0.0
C674 C 0.63451 0.93156 0.90395 0.0
C675 C 0.60311 0.94974 0.95003 0.0
C676 C 0.60053 0.95447 0.98354 0.0
C677 C 0.63146 0.93566 0.93737 0.0
C678 C 0.62658 0.94429 1.00415 0.0
C679 C 0.65458 0.93012 0.99181 0.0
H680 H 0.7944 0.08523 0.38531 0.0
H681 H 0.81796 0.1729 0.43855 0.0
H682 H 0.86962 0.14716 0.45563 0.0
H683 H 0.90502 0.09633 0.46028 0.0
H684 H 0.88026 0.00971 0.40653 0.0
H685 H 0.83267 0.03918 0.38362 0.0
C686 C 0.81113 0.09944 0.39977 0.0
C687 C 0.80198 0.13087 0.41083 0.0
C688 C 0.84066 0.0846 0.40941 0.0
C689 C 0.82397 0.1483 0.43021 0.0
C690 C 0.85363 0.13369 0.43985 0.0
C691 C 0.88962 0.0845 0.44285 0.0
C692 C 0.89571 0.05085 0.43529 0.0
C693 C 0.86181 0.10136 0.43034 0.0
C694 C 0.87561 0.03547 0.41291 0.0
C695 C 0.84842 0.05224 0.39992 0.0
H696 H 0.16942 0.62156 0.12235 0.0
H697 H 0.23281 0.55406 0.07615 0.0
H698 H 0.18651 0.53202 0.046 0.0
H699 H 0.12747 0.53063 0.03412 0.0
H700 H 0.06344 0.59425 0.08436 0.0
H701 H 0.11028 0.61937 0.11131 0.0
C702 C 0.173 0.60215 0.10553 0.0
C703 C 0.2044 0.58948 0.10134 0.0
C704 C 0.14612 0.58901 0.08895 0.0
C705 C 0.20878 0.56404 0.07982 0.0
C706 C 0.18236 0.55154 0.06254 0.0
C707 C 0.12391 0.55034 0.05064 0.0
C708 C 0.09214 0.56093 0.05696 0.0
C709 C 0.15086 0.56369 0.06701 0.0
C710 C 0.08772 0.58586 0.079 0.0
C711 C 0.11447 0.60015 0.09446 0.0
H712 H 0.24687 0.39946 0.54487 0.0
H713 H 0.23392 0.50756 0.55442 0.0
H714 H 0.29309 0.51805 0.55058 0.0
H715 H 0.3488 0.49539 0.54868 0.0
H716 H 0.36059 0.38716 0.53901 0.0
H717 H 0.30157 0.37796 0.53834 0.0
C718 C 0.25683 0.42551 0.5453 0.0
C719 C 0.23592 0.45265 0.54998 0.0
C720 C 0.29076 0.43127 0.5434 0.0
C721 C 0.24947 0.4861 0.55119 0.0
C722 C 0.2833 0.49213 0.54895 0.0
C723 C 0.3384 0.46995 0.54592 0.0
C724 C 0.3591 0.44192 0.54442 0.0
C725 C 0.30425 0.46476 0.54572 0.0
C726 C 0.34525 0.40903 0.54099 0.0
C727 C 0.31147 0.40375 0.54042 0.0
H728 H 0.90942 0.70282 0.96585 0.0
H729 H 0.9417 0.68939 0.86794 0.0
H730 H 0.97136 0.63846 0.88826 0.0
H731 H 0.98796 0.59679 0.93391 0.0
H732 H 0.95407 0.60954 0.03147 0.0
H733 H 0.92534 0.66102 1.01119 0.0
C734 C 0.92266 0.68862 0.94885 0.0
C735 C 0.9233 0.70036 0.91534 0.0
C736 C 0.93959 0.65899 0.96067 0.0
C737 C 0.94108 0.68158 0.89392 0.0
C738 C 0.95799 0.6522 0.9055 0.0
C739 C 0.97444 0.61093 0.95075 0.0
C740 C 0.97337 0.59913 0.98424 0.0
C741 C 0.95753 0.64063 0.93886 0.0
C742 C 0.95543 0.61781 1.00558 0.0
C743 C 0.93889 0.64737 0.994 0.0
H744 H 0.39961 0.81921 0.08041 0.0
H745 H 0.47353 0.79616 0.15317 0.0
H746 H 0.50494 0.84767 0.13245 0.0
H747 H 0.51165 0.89965 0.09368 0.0
H748 H 0.43986 0.91998 0.01842 0.0
H749 H 0.40802 0.86874 0.03961 0.0
C750 C 0.42282 0.82498 0.0915 0.0
C751 C 0.43377 0.8037 0.11866 0.0
C752 C 0.44136 0.85423 0.0789 0.0
C753 C 0.46382 0.81229 0.13282 0.0
C754 C 0.48208 0.84168 0.12078 0.0
C755 C 0.48908 0.89279 0.08189 0.0
C756 C 0.47813 0.91368 0.05458 0.0
C757 C 0.47103 0.86294 0.09393 0.0
C758 C 0.44895 0.90429 0.03941 0.0
C759 C 0.43063 0.87503 0.05157 0.0
H760 H 0.07575 0.20841 0.56952 0.0
H761 H 0.97654 0.23383 0.54561 0.0
H762 H 0.96523 0.1745 0.53224 0.0
H763 H 0.98456 0.11553 0.52606 0.0
H764 H 0.0839 0.0914 0.55235 0.0
H765 H 0.09407 0.14994 0.56599 0.0
C766 C 0.05168 0.20095 0.56127 0.0
C767 C 0.02713 0.2254 0.55813 0.0
C768 C 0.04538 0.16698 0.55404 0.0
C769 C 0.99583 0.21533 0.54812 0.0
C770 C 0.98942 0.1815 0.54041 0.0
C771 C 1.00835 0.12311 0.53488 0.0
C772 C 0.03341 0.09901 0.53799 0.0
C773 C 1.01413 0.15709 0.54308 0.0
C774 C 0.06408 0.10925 0.54967 0.0
C775 C 0.07003 0.14283 0.55746 0.0
H776 H 0.60508 0.34692 0.43763 0.0
H777 H 0.51652 0.28836 0.46515 0.0
H778 H 0.49334 0.33905 0.48607 0.0
H779 H 0.49889 0.39923 0.49794 0.0
H780 H 0.58791 0.45765 0.47155 0.0
H781 H 0.61042 0.4075 0.449 0.0
C782 C 0.5808 0.3452 0.44843 0.0
C783 C 0.56259 0.31394 0.44997 0.0
C784 C 0.56777 0.37431 0.46063 0.0
C785 C 0.53091 0.31224 0.46343 0.0
C786 C 0.51772 0.34113 0.47555 0.0
C787 C 0.52319 0.40109 0.48716 0.0
C788 C 0.54172 0.4321 0.48647 0.0
C789 C 0.53601 0.3722 0.47442 0.0
C790 C 0.57314 0.43406 0.47239 0.0
C791 C 0.58604 0.40541 0.45953 0.0
loop_
_geom_bond_atom_site_label_1
_geom_bond_atom_site_label_2
_geom_bond_distance
_geom_bond_site_symmetry_2
_ccdc_geom_bond_type
C0 C1 1.384 . S
C0 H13 0.947 . S
C0 C35 1.382 . S
C1 C0 1.384 . S
C1 C2 1.378 . S
C2 C1 1.378 . S
C2 C3 1.378 . S
C2 H14 0.952 . S
C3 C2 1.378 . S
C3 H15 0.950 . S
C3 C34 1.383 . S
H4 C23 0.947 . S
H5 C24 0.946 . S
H6 C26 0.953 . S
H7 C27 0.945 . S
H8 C29 0.952 . S
H9 C30 0.949 . S
H10 C32 0.950 . S
H11 C33 0.948 . S
H12 C35 0.951 . S
H13 C0 0.947 . S
H14 C2 0.952 . S
H15 C3 0.950 . S
N16 C19 1.382 . S
N16 C21 1.363 . S
N17 C19 1.371 . S
N17 C20 1.372 . S
N18 C20 1.361 . S
N18 C21 1.377 . S
C19 N16 1.382 . S
C19 N17 1.371 . S
C19 C22 1.480 . S
C20 N17 1.372 . S
C20 N18 1.361 . S
C20 C28 1.457 . S
C21 N16 1.363 . S
C21 N18 1.377 . S
C21 C34 1.479 . S
C22 C19 1.480 . S
C22 C23 1.383 . S
C22 C27 1.385 . S
C23 H4 0.947 . S
C23 C22 1.383 . S
C23 C24 1.388 . S
C24 H5 0.946 . S
C24 C23 1.388 . S
C24 C25 1.384 . S
C25 C24 1.384 . S
C25 C26 1.377 . S
C26 H6 0.953 . S
C26 C25 1.377 . S
C26 C27 1.369 . S
C27 H7 0.945 . S
C27 C22 1.385 . S
C27 C26 1.369 . S
C28 C20 1.457 . S
C28 C29 1.372 . S
C28 C33 1.364 . S
C29 H8 0.952 . S
C29 C28 1.372 . S
C29 C30 1.389 . S
C30 H9 0.949 . S
C30 C29 1.389 . S
C30 C31 1.387 . S
C31 C30 1.387 . S
C31 C32 1.372 . S
C32 H10 0.950 . S
C32 C31 1.372 . S
C32 C33 1.379 . S
C33 H11 0.948 . S
C33 C28 1.364 . S
C33 C32 1.379 . S
C34 C3 1.383 . S
C34 C21 1.479 . S
C34 C35 1.398 . S
C35 C0 1.382 . S
C35 H12 0.951 . S
C35 C34 1.398 . S
C36 C37 1.384 . S
C36 H49 0.947 . S
C36 C71 1.382 . S
C37 C36 1.384 . S
C37 C38 1.378 . S
C38 C37 1.378 . S
C38 C39 1.378 . S
C38 H50 0.952 . S
C39 C38 1.378 . S
C39 H51 0.950 . S
C39 C70 1.383 . S
H40 C59 0.947 . S
H41 C60 0.946 . S
H42 C62 0.953 . S
H43 C63 0.945 . S
H44 C65 0.952 . S
H45 C66 0.949 . S
H46 C68 0.950 . S
H47 C69 0.948 . S
H48 C71 0.951 . S
H49 C36 0.947 . S
H50 C38 0.952 . S
H51 C39 0.950 . S
N52 C55 1.382 . S
N52 C57 1.363 . S
N53 C55 1.371 . S
N53 C56 1.372 . S
N54 C56 1.361 . S
N54 C57 1.377 . S
C55 N52 1.382 . S
C55 N53 1.371 . S
C55 C58 1.480 . S
C56 N53 1.372 . S
C56 N54 1.361 . S
C56 C64 1.457 . S
C57 N52 1.363 . S
C57 N54 1.377 . S
C57 C70 1.479 . S
C58 C55 1.480 . S
C58 C59 1.383 . S
C58 C63 1.385 . S
C59 H40 0.947 . S
C59 C58 1.383 . S
C59 C60 1.388 . S
C60 H41 0.946 . S
C60 C59 1.388 . S
C60 C61 1.384 . S
C61 C60 1.384 . S
C61 C62 1.377 . S
C62 H42 0.953 . S
C62 C61 1.377 . S
C62 C63 1.369 . S
C63 H43 0.945 . S
C63 C58 1.385 . S
C63 C62 1.369 . S
C64 C56 1.457 . S
C64 C65 1.372 . S
C64 C69 1.364 . S
C65 H44 0.952 . S
C65 C64 1.372 . S
C65 C66 1.389 . S
C66 H45 0.949 . S
C66 C65 1.389 . S
C66 C67 1.387 . S
C67 C66 1.387 . S
C67 C68 1.372 . S
C68 H46 0.950 . S
C68 C67 1.372 . S
C68 C69 1.379 . S
C69 H47 0.948 . S
C69 C64 1.364 . S
C69 C68 1.379 . S
C70 C39 1.383 . S
C70 C57 1.479 . S
C70 C71 1.398 . S
C71 C36 1.382 . S
C71 H48 0.951 . S
C71 C70 1.398 . S
C72 C73 1.384 . S
C72 H85 0.947 . S
C72 C107 1.382 . S
C73 C72 1.384 . S
C73 C74 1.378 . S
C74 C73 1.378 . S
C74 C75 1.378 . S
C74 H86 0.952 . S
C75 C74 1.378 . S
C75 H87 0.950 . S
C75 C106 1.383 . S
H76 C95 0.947 . S
H77 C96 0.946 . S
H78 C98 0.953 . S
H79 C99 0.945 . S
H80 C101 0.952 . S
H81 C102 0.949 . S
H82 C104 0.950 . S
H83 C105 0.948 . S
H84 C107 0.951 . S
H85 C72 0.947 . S
H86 C74 0.952 . S
H87 C75 0.950 . S
N88 C91 1.382 . S
N88 C93 1.363 . S
N89 C91 1.371 . S
N89 C92 1.372 . S
N90 C92 1.361 . S
N90 C93 1.377 . S
C91 N88 1.382 . S
C91 N89 1.371 . S
C91 C94 1.480 . S
C92 N89 1.372 . S
C92 N90 1.361 . S
C92 C100 1.457 . S
C93 N88 1.363 . S
C93 N90 1.377 . S
C93 C106 1.479 . S
C94 C91 1.480 . S
C94 C95 1.383 . S
C94 C99 1.385 . S
C95 H76 0.947 . S
C95 C94 1.383 . S
C95 C96 1.388 . S
C96 H77 0.946 . S
C96 C95 1.388 . S
C96 C97 1.384 . S
C97 C96 1.384 . S
C97 C98 1.377 . S
C98 H78 0.953 . S
C98 C97 1.377 . S
C98 C99 1.369 . S
C99 H79 0.945 . S
C99 C94 1.385 . S
C99 C98 1.369 . S
C100 C92 1.457 . S
C100 C101 1.372 . S
C100 C105 1.364 . S
C101 H80 0.952 . S
C101 C100 1.372 . S
C101 C102 1.389 . S
C102 H81 0.949 . S
C102 C101 1.389 . S
C102 C103 1.387 . S
C103 C102 1.387 . S
C103 C104 1.372 . S
C104 H82 0.950 . S
C104 C103 1.372 . S
C104 C105 1.379 . S
C105 H83 0.948 . S
C105 C100 1.364 . S
C105 C104 1.379 . S
C106 C75 1.383 . S
C106 C93 1.479 . S
C106 C107 1.398 . S
C107 C72 1.382 . S
C107 H84 0.951 . S
C107 C106 1.398 . S
C108 C109 1.384 . S
C108 H121 0.947 . S
C108 C143 1.382 . S
C109 C108 1.384 . S
C109 C110 1.378 . S
C110 C109 1.378 . S
C110 C111 1.378 . S
C110 H122 0.952 . S
C111 C110 1.378 . S
C111 H123 0.950 . S
C111 C142 1.383 . S
H112 C131 0.947 . S
H113 C132 0.946 . S
H114 C134 0.953 . S
H115 C135 0.945 . S
H116 C137 0.952 . S
H117 C138 0.949 . S
H118 C140 0.950 . S
H119 C141 0.948 . S
H120 C143 0.951 . S
H121 C108 0.947 . S
H122 C110 0.952 . S
H123 C111 0.950 . S
N124 C127 1.382 . S
N124 C129 1.363 . S
N125 C127 1.371 . S
N125 C128 1.372 . S
N126 C128 1.361 . S
N126 C129 1.377 . S
C127 N124 1.382 . S
C127 N125 1.371 . S
C127 C130 1.480 . S
C128 N125 1.372 . S
C128 N126 1.361 . S
C128 C136 1.457 . S
C129 N124 1.363 . S
C129 N126 1.377 . S
C129 C142 1.479 . S
C130 C127 1.480 . S
C130 C131 1.383 . S
C130 C135 1.385 . S
C131 H112 0.947 . S
C131 C130 1.383 . S
C131 C132 1.388 . S
C132 H113 0.946 . S
C132 C131 1.388 . S
C132 C133 1.384 . S
C133 C132 1.384 . S
C133 C134 1.377 . S
C134 H114 0.953 . S
C134 C133 1.377 . S
C134 C135 1.369 . S
C135 H115 0.945 . S
C135 C130 1.385 . S
C135 C134 1.369 . S
C136 C128 1.457 . S
C136 C137 1.372 . S
C136 C141 1.364 . S
C137 H116 0.952 . S
C137 C136 1.372 . S
C137 C138 1.389 . S
C138 H117 0.949 . S
C138 C137 1.389 . S
C138 C139 1.387 . S
C139 C138 1.387 . S
C139 C140 1.372 . S
C140 H118 0.950 . S
C140 C139 1.372 . S
C140 C141 1.379 . S
C141 H119 0.948 . S
C141 C136 1.364 . S
C141 C140 1.379 . S
C142 C111 1.383 . S
C142 C129 1.479 . S
C142 C143 1.398 . S
C143 C108 1.382 . S
C143 H120 0.951 . S
C143 C142 1.398 . S
C144 C145 1.384 . S
C144 H157 0.947 . S
C144 C179 1.382 . S
C145 C144 1.384 . S
C145 C146 1.378 . S
C146 C145 1.378 . S
C146 C147 1.378 . S
C146 H158 0.952 . S
C147 C146 1.378 . S
C147 H159 0.950 . S
C147 C178 1.383 . S
H148 C167 0.947 . S
H149 C168 0.946 . S
H150 C170 0.953 . S
H151 C171 0.945 . S
H152 C173 0.952 . S
H153 C174 0.949 . S
H154 C176 0.950 . S
H155 C177 0.948 . S
H156 C179 0.951 . S
H157 C144 0.947 . S
H158 C146 0.952 . S
H159 C147 0.950 . S
N160 C163 1.382 . S
N160 C165 1.363 . S
N161 C163 1.371 . S
N161 C164 1.372 . S
N162 C164 1.361 . S
N162 C165 1.377 . S
C163 N160 1.382 . S
C163 N161 1.371 . S
C163 C166 1.480 . S
C164 N161 1.372 . S
C164 N162 1.361 . S
C164 C172 1.457 . S
C165 N160 1.363 . S
C165 N162 1.377 . S
C165 C178 1.479 . S
C166 C163 1.480 . S
C166 C167 1.383 . S
C166 C171 1.385 . S
C167 H148 0.947 . S
C167 C166 1.383 . S
C167 C168 1.388 . S
C168 H149 0.946 . S
C168 C167 1.388 . S
C168 C169 1.384 . S
C169 C168 1.384 . S
C169 C170 1.377 . S
C170 H150 0.953 . S
C170 C169 1.377 . S
C170 C171 1.369 . S
C171 H151 0.945 . S
C171 C166 1.385 . S
C171 C170 1.369 . S
C172 C164 1.457 . S
C172 C173 1.372 . S
C172 C177 1.364 . S
C173 H152 0.952 . S
C173 C172 1.372 . S
C173 C174 1.389 . S
C174 H153 0.949 . S
C174 C173 1.389 . S
C174 C175 1.387 . S
C175 C174 1.387 . S
C175 C176 1.372 . S
C176 H154 0.950 . S
C176 C175 1.372 . S
C176 C177 1.379 . S
C177 H155 0.948 . S
C177 C172 1.364 . S
C177 C176 1.379 . S
C178 C147 1.383 . S
C178 C165 1.479 . S
C178 C179 1.398 . S
C179 C144 1.382 . S
C179 H156 0.951 . S
C179 C178 1.398 . S
C180 C181 1.384 . S
C180 H193 0.947 . S
C180 C215 1.382 . S
C181 C180 1.384 . S
C181 C182 1.378 . S
C182 C181 1.378 . S
C182 C183 1.378 . S
C182 H194 0.952 . S
C183 C182 1.378 . S
C183 H195 0.950 . S
C183 C214 1.383 . S
H184 C203 0.947 . S
H185 C204 0.946 . S
H186 C206 0.953 . S
H187 C207 0.945 . S
H188 C209 0.952 . S
H189 C210 0.949 . S
H190 C212 0.950 . S
H191 C213 0.948 . S
H192 C215 0.951 . S
H193 C180 0.947 . S
H194 C182 0.952 . S
H195 C183 0.950 . S
N196 C199 1.382 . S
N196 C201 1.363 . S
N197 C199 1.371 . S
N197 C200 1.372 . S
N198 C200 1.361 . S
N198 C201 1.377 . S
C199 N196 1.382 . S
C199 N197 1.371 . S
C199 C202 1.480 . S
C200 N197 1.372 . S
C200 N198 1.361 . S
C200 C208 1.457 . S
C201 N196 1.363 . S
C201 N198 1.377 . S
C201 C214 1.479 . S
C202 C199 1.480 . S
C202 C203 1.383 . S
C202 C207 1.385 . S
C203 H184 0.947 . S
C203 C202 1.383 . S
C203 C204 1.388 . S
C204 H185 0.946 . S
C204 C203 1.388 . S
C204 C205 1.384 . S
C205 C204 1.384 . S
C205 C206 1.377 . S
C206 H186 0.953 . S
C206 C205 1.377 . S
C206 C207 1.369 . S
C207 H187 0.945 . S
C207 C202 1.385 . S
C207 C206 1.369 . S
C208 C200 1.457 . S
C208 C209 1.372 . S
C208 C213 1.364 . S
C209 H188 0.952 . S
C209 C208 1.372 . S
C209 C210 1.389 . S
C210 H189 0.949 . S
C210 C209 1.389 . S
C210 C211 1.387 . S
C211 C210 1.387 . S
C211 C212 1.372 . S
C212 H190 0.950 . S
C212 C211 1.372 . S
C212 C213 1.379 . S
C213 H191 0.948 . S
C213 C208 1.364 . S
C213 C212 1.379 . S
C214 C183 1.383 . S
C214 C201 1.479 . S
C214 C215 1.398 . S
C215 C180 1.382 . S
C215 H192 0.951 . S
C215 C214 1.398 . S
C216 C217 1.384 . S
C216 H229 0.947 . S
C216 C251 1.382 . S
C217 C216 1.384 . S
C217 C218 1.378 . S
C218 C217 1.378 . S
C218 C219 1.378 . S
C218 H230 0.952 . S
C219 C218 1.378 . S
C219 H231 0.950 . S
C219 C250 1.383 . S
H220 C239 0.947 . S
H221 C240 0.946 . S
H222 C242 0.953 . S
H223 C243 0.945 . S
H224 C245 0.952 . S
H225 C246 0.949 . S
H226 C248 0.950 . S
H227 C249 0.948 . S
H228 C251 0.951 . S
H229 C216 0.947 . S
H230 C218 0.952 . S
H231 C219 0.950 . S
N232 C235 1.382 . S
N232 C237 1.363 . S
N233 C235 1.371 . S
N233 C236 1.372 . S
N234 C236 1.361 . S
N234 C237 1.377 . S
C235 N232 1.382 . S
C235 N233 1.371 . S
C235 C238 1.480 . S
C236 N233 1.372 . S
C236 N234 1.361 . S
C236 C244 1.457 . S
C237 N232 1.363 . S
C237 N234 1.377 . S
C237 C250 1.479 . S
C238 C235 1.480 . S
C238 C239 1.383 . S
C238 C243 1.385 . S
C239 H220 0.947 . S
C239 C238 1.383 . S
C239 C240 1.388 . S
C240 H221 0.946 . S
C240 C239 1.388 . S
C240 C241 1.384 . S
C241 C240 1.384 . S
C241 C242 1.377 . S
C242 H222 0.953 . S
C242 C241 1.377 . S
C242 C243 1.369 . S
C243 H223 0.945 . S
C243 C238 1.385 . S
C243 C242 1.369 . S
C244 C236 1.457 . S
C244 C245 1.372 . S
C244 C249 1.364 . S
C245 H224 0.952 . S
C245 C244 1.372 . S
C245 C246 1.389 . S
C246 H225 0.949 . S
C246 C245 1.389 . S
C246 C247 1.387 . S
C247 C246 1.387 . S
C247 C248 1.372 . S
C248 H226 0.950 . S
C248 C247 1.372 . S
C248 C249 1.379 . S
C249 H227 0.948 . S
C249 C244 1.364 . S
C249 C248 1.379 . S
C250 C219 1.383 . S
C250 C237 1.479 . S
C250 C251 1.398 . S
C251 C216 1.382 . S
C251 H228 0.951 . S
C251 C250 1.398 . S
C252 C253 1.384 . S
C252 H265 0.947 . S
C252 C287 1.382 . S
C253 C252 1.384 . S
C253 C254 1.378 . S
C254 C253 1.378 . S
C254 C255 1.378 . S
C254 H266 0.952 . S
C255 C254 1.378 . S
C255 H267 0.950 . S
C255 C286 1.383 . S
H256 C275 0.947 . S
H257 C276 0.946 . S
H258 C278 0.953 . S
H259 C279 0.945 . S
H260 C281 0.952 . S
H261 C282 0.949 . S
H262 C284 0.950 . S
H263 C285 0.948 . S
H264 C287 0.951 . S
H265 C252 0.947 . S
H266 C254 0.952 . S
H267 C255 0.950 . S
N268 C271 1.382 . S
N268 C273 1.363 . S
N269 C271 1.371 . S
N269 C272 1.372 . S
N270 C272 1.361 . S
N270 C273 1.377 . S
C271 N268 1.382 . S
C271 N269 1.371 . S
C271 C274 1.480 . S
C272 N269 1.372 . S
C272 N270 1.361 . S
C272 C280 1.457 . S
C273 N268 1.363 . S
C273 N270 1.377 . S
C273 C286 1.479 . S
C274 C271 1.480 . S
C274 C275 1.383 . S
C274 C279 1.385 . S
C275 H256 0.947 . S
C275 C274 1.383 . S
C275 C276 1.388 . S
C276 H257 0.946 . S
C276 C275 1.388 . S
C276 C277 1.384 . S
C277 C276 1.384 . S
C277 C278 1.377 . S
C278 H258 0.953 . S
C278 C277 1.377 . S
C278 C279 1.369 . S
C279 H259 0.945 . S
C279 C274 1.385 . S
C279 C278 1.369 . S
C280 C272 1.457 . S
C280 C281 1.372 . S
C280 C285 1.364 . S
C281 H260 0.952 . S
C281 C280 1.372 . S
C281 C282 1.389 . S
C282 H261 0.949 . S
C282 C281 1.389 . S
C282 C283 1.387 . S
C283 C282 1.387 . S
C283 C284 1.372 . S
C284 H262 0.950 . S
C284 C283 1.372 . S
C284 C285 1.379 . S
C285 H263 0.948 . S
C285 C280 1.364 . S
C285 C284 1.379 . S
C286 C255 1.383 . S
C286 C273 1.479 . S
C286 C287 1.398 . S
C287 C252 1.382 . S
C287 H264 0.951 . S
C287 C286 1.398 . S
Co288 N293 2.057 . S
Co288 O305 2.021 . S
Co288 O308 2.062 . S
Co288 O312 2.117 1_545 S
Co288 O313 2.020 1_545 S
C289 O309 1.259 1_655 S
C289 O312 1.258 . S
Co290 N299 2.057 . S
Co290 O306 2.117 1_565 S
Co290 O307 2.020 1_565 S
Co290 O309 2.021 . S
Co290 O314 2.062 . S
C291 N293 1.316 . S
C291 N294 1.347 . S
C291 H296 0.931 . S
C292 N293 1.375 1_565 S
C292 C295 1.350 1_565 S
C292 H297 0.930 . S
N293 Co288 2.057 . S
N293 C291 1.316 . S
N293 C292 1.375 1_545 S
N294 C291 1.347 . S
N294 C295 1.373 . S
C295 C292 1.350 1_545 S
C295 N294 1.373 . S
C295 H316 0.931 1_545 S
H296 C291 0.931 . S
H297 C292 0.930 . S
C298 O305 1.259 1_455 S
C298 O306 1.258 . S
N299 Co290 2.057 . S
N299 C300 1.316 . S
N299 C301 1.375 1_565 S
C300 N299 1.316 . S
C300 N302 1.347 . S
C300 H311 0.931 . S
C301 N299 1.375 1_545 S
C301 C303 1.350 1_545 S
C301 H310 0.930 . S
N302 C300 1.347 . S
N302 C303 1.373 . S
C303 C301 1.350 1_565 S
C303 N302 1.373 . S
C303 H317 0.931 1_565 S
C304 O307 1.256 . S
C304 O308 1.255 1_455 S
O305 Co288 2.021 . S
O305 C298 1.259 1_655 S
O306 Co290 2.117 1_545 S
O306 C298 1.258 . S
O307 Co290 2.020 1_545 S
O307 C304 1.256 . S
O308 Co288 2.062 . S
O308 C304 1.255 1_655 S
O309 C289 1.259 1_455 S
O309 Co290 2.021 . S
H310 C301 0.930 . S
H311 C300 0.931 . S
O312 Co288 2.117 1_565 S
O312 C289 1.258 . S
O313 Co288 2.020 1_565 S
O313 C315 1.256 . S
O314 Co290 2.062 . S
O314 C315 1.255 1_455 S
C315 O313 1.256 . S
C315 O314 1.255 1_655 S
H316 C295 0.931 1_565 S
H317 C303 0.931 1_545 S
Co318 N323 2.057 . S
Co318 O335 2.021 1_565 S
Co318 O338 2.062 . S
Co318 O342 2.130 . S
Co318 O343 2.020 1_565 S
C319 O339 1.259 . S
C319 O342 1.235 1_554 S
Co320 N329 2.057 . S
Co320 O336 2.117 . S
Co320 O337 2.020 1_545 S
Co320 O339 2.021 1_545 S
Co320 O344 2.062 . S
C321 N323 1.316 . S
C321 N324 1.347 . S
C321 H326 0.931 1_565 S
C322 N323 1.375 . S
C322 C325 1.350 . S
C322 H327 0.930 . S
N323 Co318 2.057 . S
N323 C321 1.316 . S
N323 C322 1.375 . S
N324 C321 1.347 . S
N324 C325 1.373 . S
C325 C322 1.350 . S
C325 N324 1.373 . S
C325 H346 0.931 . S
H326 C321 0.931 1_545 S
H327 C322 0.930 . S
C328 O335 1.259 . S
C328 O336 1.258 1_556 S
N329 Co320 2.057 . S
N329 C330 1.316 . S
N329 C331 1.375 . S
C330 N329 1.316 . S
C330 N332 1.347 . S
C330 H341 0.931 1_545 S
C331 N329 1.375 . S
C331 C333 1.350 . S
C331 H340 0.930 . S
N332 C330 1.347 . S
N332 C333 1.373 . S
C333 C331 1.350 . S
C333 N332 1.373 . S
C333 H347 0.931 . S
C334 O337 1.256 1_556 S
C334 O338 1.255 . S
O335 Co318 2.021 1_545 S
O335 C328 1.259 . S
O336 Co320 2.117 . S
O336 C328 1.258 1_554 S
O337 Co320 2.020 1_565 S
O337 C334 1.256 1_554 S
O338 Co318 2.062 . S
O338 C334 1.255 . S
O339 C319 1.259 . S
O339 Co320 2.021 1_565 S
H340 C331 0.930 . S
H341 C330 0.931 1_565 S
O342 Co318 2.130 . S
O342 C319 1.235 1_556 S
O343 Co318 2.020 1_545 S
O343 C345 1.256 1_556 S
O344 Co320 2.062 . S
O344 C345 1.255 . S
C345 O343 1.256 1_554 S
C345 O344 1.255 . S
H346 C325 0.931 . S
H347 C333 0.931 . S
Co348 N353 2.057 . S
Co348 O365 2.021 . S
Co348 O368 2.062 . S
Co348 O372 2.117 . S
Co348 O373 2.020 . S
C349 O369 1.259 . S
C349 O372 1.258 . S
Co350 N359 2.057 . S
Co350 O366 2.117 . S
Co350 O367 2.020 . S
Co350 O369 2.021 . S
Co350 O374 2.062 . S
C351 N353 1.316 . S
C351 N354 1.347 . S
C351 H356 0.931 . S
C352 N353 1.375 . S
C352 C355 1.350 . S
C352 H357 0.930 . S
N353 Co348 2.057 . S
N353 C351 1.316 . S
N353 C352 1.375 . S
N354 C351 1.347 . S
N354 C355 1.373 . S
C355 C352 1.350 . S
C355 N354 1.373 . S
C355 H376 0.931 . S
H356 C351 0.931 . S
H357 C352 0.930 . S
C358 O365 1.259 . S
C358 O366 1.258 . S
N359 Co350 2.057 . S
N359 C360 1.316 . S
N359 C361 1.375 . S
C360 N359 1.316 . S
C360 N362 1.347 . S
C360 H371 0.931 . S
C361 N359 1.375 . S
C361 C363 1.350 . S
C361 H370 0.930 . S
N362 C360 1.347 . S
N362 C363 1.373 . S
C363 C361 1.350 . S
C363 N362 1.373 . S
C363 H377 0.931 . S
C364 O367 1.256 . S
C364 O368 1.255 . S
O365 Co348 2.021 . S
O365 C358 1.259 . S
O366 Co350 2.117 . S
O366 C358 1.258 . S
O367 Co350 2.020 . S
O367 C364 1.256 . S
O368 Co348 2.062 . S
O368 C364 1.255 . S
O369 C349 1.259 . S
O369 Co350 2.021 . S
H370 C361 0.930 . S
H371 C360 0.931 . S
O372 Co348 2.117 . S
O372 C349 1.258 . S
O373 Co348 2.020 . S
O373 C375 1.256 . S
O374 Co350 2.062 . S
O374 C375 1.255 . S
C375 O373 1.256 . S
C375 O374 1.255 . S
H376 C355 0.931 . S
H377 C363 0.931 . S
Co378 N383 2.057 . S
Co378 O395 2.021 . S
Co378 O398 2.062 . S
Co378 O402 2.117 1_455 S
Co378 O403 2.020 1_455 S
C379 O399 1.259 1_556 S
C379 O402 1.258 . S
Co380 N389 2.057 . S
Co380 O396 2.117 1_655 S
Co380 O397 2.020 1_655 S
Co380 O399 2.021 . S
Co380 O404 2.062 . S
C381 N383 1.316 . S
C381 N384 1.347 . S
C381 H386 0.931 . S
C382 N383 1.375 1_655 S
C382 C385 1.350 1_655 S
C382 H387 0.930 . S
N383 Co378 2.057 . S
N383 C381 1.316 . S
N383 C382 1.375 1_455 S
N384 C381 1.347 . S
N384 C385 1.373 . S
C385 C382 1.350 1_455 S
C385 N384 1.373 . S
C385 H406 0.931 1_455 S
H386 C381 0.931 . S
H387 C382 0.930 . S
C388 O395 1.259 1_554 S
C388 O396 1.258 . S
N389 Co380 2.057 . S
N389 C390 1.316 . S
N389 C391 1.375 1_655 S
C390 N389 1.316 . S
C390 N392 1.347 . S
C390 H401 0.931 . S
C391 N389 1.375 1_455 S
C391 C393 1.350 1_455 S
C391 H400 0.930 . S
N392 C390 1.347 . S
N392 C393 1.373 . S
C393 C391 1.350 1_655 S
C393 N392 1.373 . S
C393 H407 0.931 1_655 S
C394 O397 1.256 . S
C394 O398 1.255 1_554 S
O395 Co378 2.021 . S
O395 C388 1.259 1_556 S
O396 Co380 2.117 1_455 S
O396 C388 1.258 . S
O397 Co380 2.020 1_455 S
O397 C394 1.256 . S
O398 Co378 2.062 . S
O398 C394 1.255 1_556 S
O399 C379 1.259 1_554 S
O399 Co380 2.021 . S
H400 C391 0.930 . S
H401 C390 0.931 . S
O402 Co378 2.117 1_655 S
O402 C379 1.258 . S
O403 Co378 2.020 1_655 S
O403 C405 1.256 . S
O404 Co380 2.062 . S
O404 C405 1.255 1_554 S
C405 O403 1.256 . S
C405 O404 1.255 1_556 S
H406 C385 0.931 1_655 S
H407 C393 0.931 1_455 S
H408 C414 0.930 . S
H409 C417 0.930 . S
H410 C418 0.930 1_655 S
H411 C419 0.930 1_655 S
H412 C422 0.930 . S
H413 C423 0.930 . S
C414 H408 0.930 . S
C414 C415 1.355 . S
C414 C416 1.415 . S
C415 C414 1.355 . S
C415 C417 1.419 . S
C416 C414 1.415 . S
C416 C421 1.425 . S
C416 C423 1.409 . S
C417 H409 0.930 . S
C417 C415 1.419 . S
C417 C418 1.362 . S
C418 H410 0.930 1_455 S
C418 C417 1.362 . S
C418 C421 1.409 . S
C419 H411 0.930 1_455 S
C419 C420 1.355 . S
C419 C421 1.415 . S
C420 C419 1.355 . S
C420 C422 1.419 . S
C421 C416 1.425 . S
C421 C418 1.409 . S
C421 C419 1.415 . S
C422 H412 0.930 . S
C422 C420 1.419 . S
C422 C423 1.362 . S
C423 H413 0.930 . S
C423 C416 1.409 . S
C423 C422 1.362 . S
H424 C430 0.930 . S
H425 C433 0.930 . S
H426 C434 0.930 . S
H427 C435 0.930 . S
H428 C438 0.930 . S
H429 C439 0.930 . S
C430 H424 0.930 . S
C430 C431 1.355 . S
C430 C432 1.415 . S
C431 C430 1.355 . S
C431 C433 1.419 . S
C432 C430 1.415 . S
C432 C437 1.425 . S
C432 C439 1.409 . S
C433 H425 0.930 . S
C433 C431 1.419 . S
C433 C434 1.362 . S
C434 H426 0.930 . S
C434 C433 1.362 . S
C434 C437 1.409 . S
C435 H427 0.930 . S
C435 C436 1.355 . S
C435 C437 1.415 . S
C436 C435 1.355 . S
C436 C438 1.419 . S
C437 C432 1.425 . S
C437 C434 1.409 . S
C437 C435 1.415 . S
C438 H428 0.930 . S
C438 C436 1.419 . S
C438 C439 1.362 . S
C439 H429 0.930 . S
C439 C432 1.409 . S
C439 C438 1.362 . S
H440 C446 0.930 . S
H441 C449 0.930 . S
H442 C450 0.930 . S
H443 C451 0.930 . S
H444 C454 0.930 . S
H445 C455 0.930 . S
C446 H440 0.930 . S
C446 C447 1.355 . S
C446 C448 1.415 . S
C447 C446 1.355 . S
C447 C449 1.419 . S
C448 C446 1.415 . S
C448 C453 1.425 . S
C448 C455 1.409 . S
C449 H441 0.930 . S
C449 C447 1.419 . S
C449 C450 1.362 . S
C450 H442 0.930 . S
C450 C449 1.362 . S
C450 C453 1.409 . S
C451 H443 0.930 . S
C451 C452 1.355 . S
C451 C453 1.415 . S
C452 C451 1.355 . S
C452 C454 1.419 . S
C453 C448 1.425 . S
C453 C450 1.409 . S
C453 C451 1.415 . S
C454 H444 0.930 . S
C454 C452 1.419 . S
C454 C455 1.362 . S
C455 H445 0.930 . S
C455 C448 1.409 . S
C455 C454 1.362 . S
H456 C462 0.910 1_455 S
H457 C465 0.930 . S
H458 C466 0.930 . S
H459 C467 0.930 . S
H460 C470 0.930 1_455 S
H461 C471 0.930 1_455 S
C462 H456 0.910 1_655 S
C462 C463 1.355 . S
C462 C464 1.415 . S
C463 C462 1.355 . S
C463 C465 1.419 . S
C464 C462 1.415 . S
C464 C469 1.425 . S
C464 C471 1.409 . S
C465 H457 0.930 . S
C465 C463 1.419 . S
C465 C466 1.362 . S
C466 H458 0.930 . S
C466 C465 1.362 . S
C466 C469 1.409 . S
C467 H459 0.930 . S
C467 C468 1.355 . S
C467 C469 1.415 . S
C468 C467 1.355 . S
C468 C470 1.419 . S
C469 C464 1.425 . S
C469 C466 1.409 . S
C469 C467 1.415 . S
C470 H460 0.930 1_655 S
C470 C468 1.419 . S
C470 C471 1.362 . S
C471 H461 0.930 1_655 S
C471 C464 1.409 . S
C471 C470 1.362 . S
H472 C478 0.930 . S
H473 C481 0.930 . S
H474 C482 0.930 1_565 S
H475 C483 0.930 1_565 S
H476 C486 0.930 . S
H477 C487 0.930 . S
C478 H472 0.930 . S
C478 C479 1.355 . S
C478 C480 1.415 . S
C479 C478 1.355 . S
C479 C481 1.419 . S
C480 C478 1.415 . S
C480 C485 1.425 . S
C480 C487 1.409 . S
C481 H473 0.930 . S
C481 C479 1.419 . S
C481 C482 1.362 . S
C482 H474 0.930 1_545 S
C482 C481 1.362 . S
C482 C485 1.409 . S
C483 H475 0.930 1_545 S
C483 C484 1.355 . S
C483 C485 1.415 . S
C484 C483 1.355 . S
C484 C486 1.419 . S
C485 C480 1.425 . S
C485 C482 1.409 . S
C485 C483 1.415 . S
C486 H476 0.930 . S
C486 C484 1.419 . S
C486 C487 1.362 . S
C487 H477 0.930 . S
C487 C480 1.409 . S
C487 C486 1.362 . S
H488 C494 0.930 . S
H489 C497 0.930 . S
H490 C498 0.930 . S
H491 C499 0.930 . S
H492 C502 0.930 . S
H493 C503 0.930 . S
C494 H488 0.930 . S
C494 C495 1.355 . S
C494 C496 1.415 . S
C495 C494 1.355 . S
C495 C497 1.419 . S
C496 C494 1.415 . S
C496 C501 1.425 . S
C496 C503 1.409 . S
C497 H489 0.930 . S
C497 C495 1.419 . S
C497 C498 1.362 . S
C498 H490 0.930 . S
C498 C497 1.362 . S
C498 C501 1.409 . S
C499 H491 0.930 . S
C499 C500 1.355 . S
C499 C501 1.415 . S
C500 C499 1.355 . S
C500 C502 1.419 . S
C501 C496 1.425 . S
C501 C498 1.409 . S
C501 C499 1.415 . S
C502 H492 0.930 . S
C502 C500 1.419 . S
C502 C503 1.362 . S
C503 H493 0.930 . S
C503 C496 1.409 . S
C503 C502 1.362 . S
H504 C510 0.930 . S
H505 C513 0.930 . S
H506 C514 0.930 . S
H507 C515 0.930 . S
H508 C518 0.930 . S
H509 C519 0.930 . S
C510 H504 0.930 . S
C510 C511 1.355 . S
C510 C512 1.415 . S
C511 C510 1.355 . S
C511 C513 1.419 . S
C512 C510 1.415 . S
C512 C517 1.425 . S
C512 C519 1.409 1_556 S
C513 H505 0.930 . S
C513 C511 1.419 . S
C513 C514 1.362 . S
C514 H506 0.930 . S
C514 C513 1.362 . S
C514 C517 1.409 . S
C515 H507 0.930 . S
C515 C516 1.355 . S
C515 C517 1.415 . S
C516 C515 1.355 . S
C516 C518 1.419 1_556 S
C517 C512 1.425 . S
C517 C514 1.409 . S
C517 C515 1.415 . S
C518 H508 0.930 . S
C518 C516 1.419 1_554 S
C518 C519 1.362 . S
C519 H509 0.930 . S
C519 C512 1.409 1_554 S
C519 C518 1.362 . S
H520 C526 0.930 . S
H521 C529 0.930 . S
H522 C530 0.930 . S
H523 C531 0.930 . S
H524 C534 0.930 . S
H525 C535 0.930 . S
C526 H520 0.930 . S
C526 C527 1.355 . S
C526 C528 1.415 . S
C527 C526 1.355 . S
C527 C529 1.419 . S
C528 C526 1.415 . S
C528 C533 1.425 . S
C528 C535 1.409 . S
C529 H521 0.930 . S
C529 C527 1.419 . S
C529 C530 1.362 . S
C530 H522 0.930 . S
C530 C529 1.362 . S
C530 C533 1.409 . S
C531 H523 0.930 . S
C531 C532 1.355 . S
C531 C533 1.415 . S
C532 C531 1.355 . S
C532 C534 1.419 . S
C533 C528 1.425 . S
C533 C530 1.409 . S
C533 C531 1.415 . S
C534 H524 0.930 . S
C534 C532 1.419 . S
C534 C535 1.362 . S
C535 H525 0.930 . S
C535 C528 1.409 . S
C535 C534 1.362 . S
H536 C542 0.930 . S
H537 C545 0.930 . S
H538 C546 0.930 1_556 S
H539 C547 0.930 1_556 S
H540 C550 0.930 . S
H541 C551 0.930 . S
C542 H536 0.930 . S
C542 C543 1.355 . S
C542 C544 1.415 . S
C543 C542 1.355 . S
C543 C545 1.419 . S
C544 C542 1.415 . S
C544 C549 1.425 . S
C544 C551 1.409 . S
C545 H537 0.930 . S
C545 C543 1.419 . S
C545 C546 1.362 . S
C546 H538 0.930 1_554 S
C546 C545 1.362 . S
C546 C549 1.409 . S
C547 H539 0.930 1_554 S
C547 C548 1.355 . S
C547 C549 1.415 . S
C548 C547 1.355 . S
C548 C550 1.419 . S
C549 C544 1.425 . S
C549 C546 1.409 . S
C549 C547 1.415 . S
C550 H540 0.930 . S
C550 C548 1.419 . S
C550 C551 1.362 . S
C551 H541 0.930 . S
C551 C544 1.409 . S
C551 C550 1.362 . S
H552 C558 0.930 . S
H553 C561 0.930 . S
H554 C562 0.930 . S
H555 C563 0.930 . S
H556 C566 0.930 1_554 S
H557 C567 0.930 1_554 S
C558 H552 0.930 . S
C558 C559 1.355 . S
C558 C560 1.415 . S
C559 C558 1.355 . S
C559 C561 1.419 . S
C560 C558 1.415 . S
C560 C565 1.425 . S
C560 C567 1.409 . S
C561 H553 0.930 . S
C561 C559 1.419 . S
C561 C562 1.362 . S
C562 H554 0.930 . S
C562 C561 1.362 . S
C562 C565 1.409 . S
C563 H555 0.930 . S
C563 C564 1.355 . S
C563 C565 1.415 . S
C564 C563 1.355 . S
C564 C566 1.419 . S
C565 C560 1.425 . S
C565 C562 1.409 . S
C565 C563 1.415 . S
C566 H556 0.930 1_556 S
C566 C564 1.419 . S
C566 C567 1.362 . S
C567 H557 0.930 1_556 S
C567 C560 1.409 . S
C567 C566 1.362 . S
H568 C574 0.930 . S
H569 C577 0.930 . S
H570 C578 0.927 1_455 S
H571 C579 0.930 . S
H572 C582 0.930 . S
H573 C583 0.930 . S
C574 H568 0.930 . S
C574 C575 1.355 . S
C574 C576 1.415 . S
C575 C574 1.355 . S
C575 C577 1.419 . S
C576 C574 1.415 . S
C576 C581 1.425 . S
C576 C583 1.409 . S
C577 H569 0.930 . S
C577 C575 1.419 . S
C577 C578 1.362 . S
C578 H570 0.927 1_655 S
C578 C577 1.362 . S
C578 C581 1.409 . S
C579 H571 0.930 . S
C579 C580 1.355 . S
C579 C581 1.415 . S
C580 C579 1.355 . S
C580 C582 1.419 . S
C581 C576 1.425 . S
C581 C578 1.409 . S
C581 C579 1.415 . S
C582 H572 0.930 . S
C582 C580 1.419 . S
C582 C583 1.362 . S
C583 H573 0.930 . S
C583 C576 1.409 . S
C583 C582 1.362 . S
H584 C590 0.930 . S
H585 C593 0.930 . S
H586 C594 0.930 . S
H587 C595 0.930 . S
H588 C598 0.930 . S
H589 C599 0.930 . S
C590 H584 0.930 . S
C590 C591 1.355 . S
C590 C592 1.415 . S
C591 C590 1.355 . S
C591 C593 1.419 . S
C592 C590 1.415 . S
C592 C597 1.425 . S
C592 C599 1.409 . S
C593 H585 0.930 . S
C593 C591 1.419 . S
C593 C594 1.362 . S
C594 H586 0.930 . S
C594 C593 1.362 . S
C594 C597 1.409 . S
C595 H587 0.930 . S
C595 C596 1.355 . S
C595 C597 1.415 . S
C596 C595 1.355 . S
C596 C598 1.419 . S
C597 C592 1.425 . S
C597 C594 1.409 . S
C597 C595 1.415 . S
C598 H588 0.930 . S
C598 C596 1.419 . S
C598 C599 1.362 . S
C599 H589 0.930 . S
C599 C592 1.409 . S
C599 C598 1.362 . S
H600 C606 0.930 . S
H601 C609 0.930 . S
H602 C610 0.930 1_545 S
H603 C611 0.930 1_545 S
H604 C614 0.930 . S
H605 C615 0.930 . S
C606 H600 0.930 . S
C606 C607 1.355 . S
C606 C608 1.415 . S
C607 C606 1.355 . S
C607 C609 1.419 . S
C608 C606 1.415 . S
C608 C613 1.425 . S
C608 C615 1.409 . S
C609 H601 0.930 . S
C609 C607 1.419 . S
C609 C610 1.362 . S
C610 H602 0.930 1_565 S
C610 C609 1.362 . S
C610 C613 1.409 . S
C611 H603 0.930 1_565 S
C611 C612 1.355 . S
C611 C613 1.415 . S
C612 C611 1.355 . S
C612 C614 1.419 . S
C613 C608 1.425 . S
C613 C610 1.409 . S
C613 C611 1.415 . S
C614 H604 0.930 . S
C614 C612 1.419 . S
C614 C615 1.362 . S
C615 H605 0.930 . S
C615 C608 1.409 . S
C615 C614 1.362 . S
H616 C622 0.930 . S
H617 C625 0.930 . S
H618 C626 0.930 . S
H619 C627 0.930 . S
H620 C630 0.930 . S
H621 C631 0.930 . S
C622 H616 0.930 . S
C622 C623 1.355 . S
C622 C624 1.415 . S
C623 C622 1.355 . S
C623 C625 1.419 . S
C624 C622 1.415 . S
C624 C629 1.425 . S
C624 C631 1.409 . S
C625 H617 0.930 . S
C625 C623 1.419 . S
C625 C626 1.362 . S
C626 H618 0.930 . S
C626 C625 1.362 . S
C626 C629 1.409 . S
C627 H619 0.930 . S
C627 C628 1.355 . S
C627 C629 1.415 . S
C628 C627 1.355 . S
C628 C630 1.419 . S
C629 C624 1.425 . S
C629 C626 1.409 . S
C629 C627 1.415 . S
C630 H620 0.930 . S
C630 C628 1.419 . S
C630 C631 1.362 . S
C631 H621 0.930 . S
C631 C624 1.409 . S
C631 C630 1.362 . S
H632 C638 0.930 . S
H633 C641 0.930 . S
H634 C642 0.930 . S
H635 C643 0.930 . S
H636 C646 0.930 . S
H637 C647 0.930 . S
C638 H632 0.930 . S
C638 C639 1.355 . S
C638 C640 1.415 . S
C639 C638 1.355 . S
C639 C641 1.419 . S
C640 C638 1.415 . S
C640 C645 1.425 . S
C640 C647 1.409 . S
C641 H633 0.930 . S
C641 C639 1.419 . S
C641 C642 1.362 . S
C642 H634 0.930 . S
C642 C641 1.362 . S
C642 C645 1.409 . S
C643 H635 0.930 . S
C643 C644 1.355 . S
C643 C645 1.415 . S
C644 C643 1.355 . S
C644 C646 1.419 . S
C645 C640 1.425 . S
C645 C642 1.409 . S
C645 C643 1.415 . S
C646 H636 0.930 . S
C646 C644 1.419 . S
C646 C647 1.362 . S
C647 H637 0.930 . S
C647 C640 1.409 . S
C647 C646 1.362 . S
H648 C654 0.930 . S
H649 C657 0.930 . S
H650 C658 0.930 . S
H651 C659 0.930 . S
H652 C662 0.943 . S
H653 C663 0.930 1_655 S
C654 H648 0.930 . S
C654 C655 1.355 . S
C654 C656 1.415 . S
C655 C654 1.355 . S
C655 C657 1.419 . S
C656 C654 1.415 . S
C656 C661 1.425 . S
C656 C663 1.409 . S
C657 H649 0.930 . S
C657 C655 1.419 . S
C657 C658 1.362 . S
C658 H650 0.930 . S
C658 C657 1.362 . S
C658 C661 1.409 . S
C659 H651 0.930 . S
C659 C660 1.355 . S
C659 C661 1.415 . S
C660 C659 1.355 . S
C660 C662 1.419 . S
C661 C656 1.425 . S
C661 C658 1.409 . S
C661 C659 1.415 . S
C662 H652 0.943 . S
C662 C660 1.419 . S
C662 C663 1.362 . S
C663 H653 0.930 1_455 S
C663 C656 1.409 . S
C663 C662 1.362 . S
H664 C670 0.930 . S
H665 C673 0.930 . S
H666 C674 0.930 . S
H667 C675 0.930 . S
H668 C678 0.913 1_554 S
H669 C679 0.930 1_554 S
C670 H664 0.930 . S
C670 C671 1.355 . S
C670 C672 1.415 . S
C671 C670 1.355 . S
C671 C673 1.419 . S
C672 C670 1.415 . S
C672 C677 1.425 . S
C672 C679 1.409 . S
C673 H665 0.930 . S
C673 C671 1.419 . S
C673 C674 1.362 . S
C674 H666 0.930 . S
C674 C673 1.362 . S
C674 C677 1.409 . S
C675 H667 0.930 . S
C675 C676 1.355 . S
C675 C677 1.415 . S
C676 C675 1.355 . S
C676 C678 1.434 . S
C677 C672 1.425 . S
C677 C674 1.409 . S
C677 C675 1.415 . S
C678 H668 0.913 1_556 S
C678 C676 1.434 . S
C678 C679 1.364 . S
C679 H669 0.930 1_556 S
C679 C672 1.409 . S
C679 C678 1.364 . S
H680 C686 0.930 . S
H681 C689 0.930 . S
H682 C690 0.930 . S
H683 C691 0.930 . S
H684 C694 0.930 . S
H685 C695 0.930 . S
C686 H680 0.930 . S
C686 C687 1.355 . S
C686 C688 1.415 . S
C687 C686 1.355 . S
C687 C689 1.419 . S
C688 C686 1.415 . S
C688 C693 1.425 . S
C688 C695 1.409 . S
C689 H681 0.930 . S
C689 C687 1.419 . S
C689 C690 1.362 . S
C690 H682 0.930 . S
C690 C689 1.362 . S
C690 C693 1.409 . S
C691 H683 0.930 . S
C691 C692 1.355 . S
C691 C693 1.415 . S
C692 C691 1.355 . S
C692 C694 1.419 . S
C693 C688 1.425 . S
C693 C690 1.409 . S
C693 C691 1.415 . S
C694 H684 0.930 . S
C694 C692 1.419 . S
C694 C695 1.362 . S
C695 H685 0.930 . S
C695 C688 1.409 . S
C695 C694 1.362 . S
H696 C702 0.930 . S
H697 C705 0.930 . S
H698 C706 0.930 . S
H699 C707 0.930 . S
H700 C710 0.930 . S
H701 C711 0.930 . S
C702 H696 0.930 . S
C702 C703 1.355 . S
C702 C704 1.415 . S
C703 C702 1.355 . S
C703 C705 1.419 . S
C704 C702 1.415 . S
C704 C709 1.425 . S
C704 C711 1.409 . S
C705 H697 0.930 . S
C705 C703 1.419 . S
C705 C706 1.362 . S
C706 H698 0.930 . S
C706 C705 1.362 . S
C706 C709 1.409 . S
C707 H699 0.930 . S
C707 C708 1.355 . S
C707 C709 1.415 . S
C708 C707 1.355 . S
C708 C710 1.419 . S
C709 C704 1.425 . S
C709 C706 1.409 . S
C709 C707 1.415 . S
C710 H700 0.930 . S
C710 C708 1.419 . S
C710 C711 1.362 . S
C711 H701 0.930 . S
C711 C704 1.409 . S
C711 C710 1.362 . S
H712 C718 0.930 . S
H713 C721 0.930 . S
H714 C722 0.930 . S
H715 C723 0.930 . S
H716 C726 0.930 . S
H717 C727 0.930 . S
C718 H712 0.930 . S
C718 C719 1.355 . S
C718 C720 1.415 . S
C719 C718 1.355 . S
C719 C721 1.419 . S
C720 C718 1.415 . S
C720 C725 1.425 . S
C720 C727 1.409 . S
C721 H713 0.930 . S
C721 C719 1.419 . S
C721 C722 1.362 . S
C722 H714 0.930 . S
C722 C721 1.362 . S
C722 C725 1.409 . S
C723 H715 0.930 . S
C723 C724 1.355 . S
C723 C725 1.415 . S
C724 C723 1.355 . S
C724 C726 1.419 . S
C725 C720 1.425 . S
C725 C722 1.409 . S
C725 C723 1.415 . S
C726 H716 0.930 . S
C726 C724 1.419 . S
C726 C727 1.362 . S
C727 H717 0.930 . S
C727 C720 1.409 . S
C727 C726 1.362 . S
H728 C734 0.930 . S
H729 C737 0.930 . S
H730 C738 0.921 1_455 S
H731 C739 0.930 . S
H732 C742 0.930 1_554 S
H733 C743 0.930 1_554 S
C734 H728 0.930 . S
C734 C735 1.355 . S
C734 C736 1.415 . S
C735 C734 1.355 . S
C735 C737 1.419 . S
C736 C734 1.415 . S
C736 C741 1.425 . S
C736 C743 1.409 . S
C737 H729 0.930 . S
C737 C735 1.419 . S
C737 C738 1.362 . S
C738 H730 0.921 1_655 S
C738 C737 1.362 . S
C738 C741 1.409 . S
C739 H731 0.930 . S
C739 C740 1.355 . S
C739 C741 1.415 . S
C740 C739 1.355 . S
C740 C742 1.419 . S
C741 C736 1.425 . S
C741 C738 1.409 . S
C741 C739 1.415 . S
C742 H732 0.930 1_556 S
C742 C740 1.419 . S
C742 C743 1.362 . S
C743 H733 0.930 1_556 S
C743 C736 1.409 . S
C743 C742 1.362 . S
H744 C750 0.930 . S
H745 C753 0.930 . S
H746 C754 0.930 . S
H747 C755 0.930 . S
H748 C758 0.930 . S
H749 C759 0.930 . S
C750 H744 0.930 . S
C750 C751 1.355 . S
C750 C752 1.415 . S
C751 C750 1.355 . S
C751 C753 1.419 . S
C752 C750 1.415 . S
C752 C757 1.425 . S
C752 C759 1.409 . S
C753 H745 0.930 . S
C753 C751 1.419 . S
C753 C754 1.362 . S
C754 H746 0.930 . S
C754 C753 1.362 . S
C754 C757 1.409 . S
C755 H747 0.930 . S
C755 C756 1.355 . S
C755 C757 1.415 . S
C756 C755 1.355 . S
C756 C758 1.419 . S
C757 C752 1.425 . S
C757 C754 1.409 . S
C757 C755 1.415 . S
C758 H748 0.930 . S
C758 C756 1.419 . S
C758 C759 1.362 . S
C759 H749 0.930 . S
C759 C752 1.409 . S
C759 C758 1.362 . S
H760 C766 0.930 . S
H761 C769 0.930 1_655 S
H762 C770 0.930 . S
H763 C771 0.930 1_655 S
H764 C774 0.930 . S
H765 C775 0.930 . S
C766 H760 0.930 . S
C766 C767 1.355 . S
C766 C768 1.415 . S
C767 C766 1.355 . S
C767 C769 1.419 . S
C768 C766 1.415 . S
C768 C773 1.425 . S
C768 C775 1.409 . S
C769 H761 0.930 1_455 S
C769 C767 1.419 . S
C769 C770 1.362 1_455 S
C770 H762 0.930 . S
C770 C769 1.362 1_655 S
C770 C773 1.409 1_655 S
C771 H763 0.930 1_455 S
C771 C772 1.355 . S
C771 C773 1.415 . S
C772 C771 1.355 . S
C772 C774 1.419 . S
C773 C768 1.425 . S
C773 C770 1.409 1_455 S
C773 C771 1.415 . S
C774 H764 0.930 . S
C774 C772 1.419 . S
C774 C775 1.362 . S
C775 H765 0.930 . S
C775 C768 1.409 . S
C775 C774 1.362 . S
H776 C782 0.930 . S
H777 C785 0.930 . S
H778 C786 0.930 . S
H779 C787 0.930 . S
H780 C790 0.930 . S
H781 C791 0.930 . S
C782 H776 0.930 . S
C782 C783 1.355 . S
C782 C784 1.415 . S
C783 C782 1.355 . S
C783 C785 1.419 . S
C784 C782 1.415 . S
C784 C789 1.425 . S
C784 C791 1.409 . S
C785 H777 0.930 . S
C785 C783 1.419 . S
C785 C786 1.362 . S
C786 H778 0.930 . S
C786 C785 1.362 . S
C786 C789 1.409 . S
C787 H779 0.930 . S
C787 C788 1.355 . S
C787 C789 1.415 . S
C788 C787 1.355 . S
C788 C790 1.419 . S
C789 C784 1.425 . S
C789 C786 1.409 . S
C789 C787 1.415 . S
C790 H780 0.930 . S
C790 C788 1.419 . S
C790 C791 1.362 . S
C791 H781 0.930 . S
C791 C784 1.409 . S
C791 C790 1.362 . S
C415 C1 2.145 . S
C420 C304 2.166 . S
C431 C67 1.091 . S
C436 N324 1.154 . S
C452 C358 2.006 . S
C447 C97 1.971 . S
C463 C133 1.365 . S
C468 N392 1.234 . S
C484 C345 2.335 . S
C479 C25 2.301 . S
C500 N302 1.167 . S
C495 C37 1.189 . S
C516 C379 2.021 . S
C511 C103 1.979 . S
C532 N354 1.102 . S
C527 C109 1.050 . S
C543 C31 1.826 . S
C548 C394 1.853 . S
C564 C328 1.721 . S
C559 C73 1.661 . S
C575 C139 1.535 . S
C580 C289 1.536 . S
C591 C61 1.392 . S
C596 C375 1.455 . S
C612 C315 2.178 . S
C607 C175 2.179 . S
C623 C181 1.151 . S
C628 N332 1.131 . S
C639 C247 2.027 . S
C644 C349 2.022 . S
C655 C277 1.348 . S
C660 N384 1.234 . S
C671 C145 2.318 . S
C676 C334 2.323 . S
C692 N294 1.177 . S
C687 C211 1.222 . S
C708 C388 2.014 . S
C703 C217 2.011 . S
C724 N362 1.090 . S
C719 C283 1.087 . S
C735 C169 1.827 . S
C740 C405 1.841 . S
C756 C319 1.738 . S
C751 C241 1.730 . S
C772 C298 1.522 . S
C767 C253 1.510 . S
C783 C205 1.468 . S
C788 C364 1.492 . S
