# Generated by pormake.
# Topology tsx, (6,3)-cn, num edge types: 1
# Building blocks:
#     Node 0, Type 0, BuildingBlock: MIDCAF_clean_sbu_0, # of connection points: 6
#     Node 1, Type 0, BuildingBlock: MIDCAF_clean_sbu_0, # of connection points: 6
#     Node 2, Type 1, BuildingBlock: MIDCAF_clean_linker_0, # of connection points: 3
#     Node 3, Type 1, BuildingBlock: MIDCAF_clean_linker_0, # of connection points: 3
#     Node 4, Type 1, BuildingBlock: MIDCAF_clean_linker_0, # of connection points: 3
#     Node 5, Type 1, BuildingBlock: MIDCAF_clean_linker_0, # of connection points: 3
#     Edge 6, Type (0, 1), BuildingBlock: ZUJKAS_clean_linker_0, # of connection points: 2
#     Edge 7, Type (0, 1), BuildingBlock: ZUJKAS_clean_linker_0, # of connection points: 2
#     Edge 8, Type (0, 1), BuildingBlock: ZUJKAS_clean_linker_0, # of connection points: 2
#     Edge 9, Type (0, 1), BuildingBlock: ZUJKAS_clean_linker_0, # of connection points: 2
#     Edge 10, Type (0, 1), BuildingBlock: ZUJKAS_clean_linker_0, # of connection points: 2
#     Edge 11, Type (0, 1), BuildingBlock: ZUJKAS_clean_linker_0, # of connection points: 2
#     Edge 12, Type (0, 1), BuildingBlock: ZUJKAS_clean_linker_0, # of connection points: 2
#     Edge 13, Type (0, 1), BuildingBlock: ZUJKAS_clean_linker_0, # of connection points: 2
#     Edge 14, Type (0, 1), BuildingBlock: ZUJKAS_clean_linker_0, # of connection points: 2
#     Edge 15, Type (0, 1), BuildingBlock: ZUJKAS_clean_linker_0, # of connection points: 2
#     Edge 16, Type (0, 1), BuildingBlock: ZUJKAS_clean_linker_0, # of connection points: 2
#     Edge 17, Type (0, 1), BuildingBlock: ZUJKAS_clean_linker_0, # of connection points: 2
# Relax obj value: 0.119
# Max RMSD: 0.182
# Mean RMSD: 0.113
data_MOF--net-tsx--node1-MIDCAF_clean_sbu_0--node2-MIDCAF_clean_linker_0--edge1-ZUJKAS_clean_linker_0
_symmetry_space_group_name_H-M    P1
_symmetry_Int_Tables_number       1
_symmetry_cell_setting            triclinic
loop_
_symmetry_equiv_pos_as_xyz
'x, y, z'
_cell_length_a     29.756519
_cell_length_b     30.865367
_cell_length_c     58.325488
_cell_angle_alpha  90.376385
_cell_angle_beta   94.003731
_cell_angle_gamma 90.026708
loop_
_atom_site_label
_atom_site_type_symbol
_atom_site_fract_x
_atom_site_fract_y
_atom_site_fract_z
_atom_type_partial_charge
Zn0 Zn 0.95497 0.01751 0.98433 0.0
Zn1 Zn 0.10531 0.02121 0.03748 0.0
Zn2 Zn 0.03152 0.02113 0.01014 0.0
C3 C 0.08429 0.10791 0.02866 0.0
C4 C 0.1263 0.97592 -0.00162 0.0
O5 O 0.9808 0.98083 0.0271 0.0
O6 O 0.9206 0.97764 0.0026 0.0
C7 C 0.9707 0.10477 0.99584 0.0
O8 O 0.05142 0.09032 0.01631 0.0
O9 O 0.11228 0.08462 0.0402 0.0
O10 O 0.14459 0.98926 0.01729 0.0
O11 O 0.08469 0.98504 0.99269 0.0
O12 O 0.94083 0.07985 0.98674 0.0
O13 O 0.0084 0.08937 0.00452 0.0
O14 O 0.04706 0.99131 0.97708 0.0
O15 O 0.98181 0.99444 0.95649 0.0
C16 C 0.0232 0.98493 0.95806 0.0
O17 O 0.01731 0.98927 0.04307 0.0
O18 O 0.08245 0.99029 0.06378 0.0
C19 C 0.9407 0.96661 0.0214 0.0
C20 C 0.04115 0.98064 0.06183 0.0
Zn21 Zn 0.60512 0.51001 0.53948 0.0
Zn22 Zn 0.46738 0.51374 0.4778 0.0
Zn23 Zn 0.53723 0.51538 0.50826 0.0
C24 C 0.5362 0.47074 0.45762 0.0
C25 C 0.48895 0.60127 0.48669 0.0
O26 O 0.51409 0.48524 0.54011 0.0
O27 O 0.57403 0.48457 0.56478 0.0
C28 C 0.63056 0.4617 0.50249 0.0
O29 O 0.55753 0.4823 0.47669 0.0
O30 O 0.49484 0.47899 0.45387 0.0
O31 O 0.46341 0.57729 0.4739 0.0
O32 O 0.51894 0.58427 0.50095 0.0
O33 O 0.64394 0.47052 0.52298 0.0
O34 O 0.59281 0.47702 0.49378 0.0
O35 O 0.55934 0.58318 0.51519 0.0
O36 O 0.6175 0.57321 0.54035 0.0
C37 C 0.59239 0.59847 0.52826 0.0
O38 O 0.47975 0.48037 0.52259 0.0
O39 O 0.42282 0.48515 0.49622 0.0
C40 C 0.53283 0.47655 0.56018 0.0
C41 C 0.43847 0.47211 0.51561 0.0
C42 C 0.94299 0.14402 0.39716 0.0
C43 C 0.94415 0.15468 0.42063 0.0
C44 C 0.97268 0.13078 0.43615 0.0
C45 C 0.99895 0.09664 0.42832 0.0
H46 H 0.12111 0.01694 0.44167 0.0
H47 H 0.18278 0.97871 0.46306 0.0
H48 H 0.17502 0.87669 0.41194 0.0
H49 H 0.11382 0.91403 0.39089 0.0
H50 H 0.06042 0.92598 0.34337 0.0
H51 H 0.04171 0.90406 0.30359 0.0
H52 H 0.95901 0.01832 0.29342 0.0
H53 H 0.97648 0.03951 0.33312 0.0
H54 H 0.96639 0.10282 0.37116 0.0
H55 H 0.92095 0.16114 0.38474 0.0
H56 H 0.97463 0.13839 0.45434 0.0
H57 H 0.0201 0.07849 0.44069 0.0
N58 N 0.05445 0.0268 0.40931 0.0
N59 N 0.06447 0.97826 0.37881 0.0
N60 N 0.01113 0.03351 0.37431 0.0
C61 C 0.07604 0.99189 0.40067 0.0
C62 C 0.0321 -0.00109 0.36551 0.0
C63 C 0.02176 0.04776 0.39608 0.0
C64 C 0.11235 0.96869 0.41451 0.0
C65 C 0.13238 0.9862 0.43511 0.0
C66 C 0.1679 0.96446 0.4473 0.0
C67 C 0.1837 0.92453 0.43927 0.0
C68 C 0.1633 0.907 0.41883 0.0
C69 C 0.12826 0.92872 0.40663 0.0
C70 C 0.0201 0.9846 0.34151 0.0
C71 C 0.03804 0.9463 0.33268 0.0
C72 C 0.02742 0.93379 0.30983 0.0
C73 C 0.99878 0.95936 0.29525 0.0
C74 C 0.98047 -0.00266 0.3042 0.0
C75 C 0.99086 0.00971 0.32702 0.0
C76 C 0.99688 0.08553 0.40483 0.0
C77 C 0.96891 0.11008 0.3894 0.0
C78 C 0.90861 0.91521 0.59907 0.0
C79 C 0.89067 0.93061 0.57775 0.0
C80 C 0.90802 0.96925 0.5692 0.0
C81 C 0.94281 0.99174 0.58171 0.0
H82 H 0.06033 0.07782 0.57637 0.0
H83 H 0.10721 0.13582 0.56218 0.0
H84 H 0.14713 0.17345 0.6321 0.0
H85 H 0.1005 0.11646 0.6462 0.0
H86 H 0.09552 0.05035 0.68485 0.0
H87 H 0.11105 0.03152 0.72495 0.0
H88 H 0.02218 0.92107 0.71586 0.0
H89 H 0.0056 0.9405 0.67572 0.0
H90 H 0.95553 0.9246 0.62797 0.0
H91 H 0.89557 0.88597 0.60636 0.0
H92 H 0.895 0.98184 0.55277 0.0
H93 H 0.95542 0.02141 0.5747 0.0
N94 N 0.01891 0.03394 0.60823 0.0
N95 N 0.0604 0.04334 0.64366 0.0
N96 N 0.00647 0.98837 0.63932 0.0
C97 C 0.0511 0.05569 0.62154 0.0
C98 C 0.03844 0.00976 0.6527 0.0
C99 C 0.99631 0.00018 0.61712 0.0
C100 C 0.07675 0.09228 0.61242 0.0
C101 C 0.07878 0.09878 0.58867 0.0
C102 C 0.10585 0.13178 0.58055 0.0
C103 C 0.13089 0.15921 0.59603 0.0
C104 C 0.12791 0.15325 0.61971 0.0
C105 C 0.10134 0.12023 0.62779 0.0
C106 C 0.04907 -0.0029 0.67698 0.0
C107 C 0.07934 0.02191 0.69129 0.0
C108 C 0.08859 0.0109 0.71432 0.0
C109 C 0.06797 0.97472 0.72366 0.0
C110 C 0.03823 0.94947 0.70929 0.0
C111 C 0.02885 0.96055 0.68624 0.0
C112 C 0.96052 0.97627 0.60313 0.0
C113 C 0.94293 0.93767 0.61157 0.0
C114 C 0.42863 0.64697 0.89547 0.0
C115 C 0.42588 0.65339 0.91915 0.0
C116 C 0.45209 0.62715 0.93456 0.0
C117 C 0.48046 0.59508 0.92632 0.0
H118 H 0.59488 0.50567 0.94241 0.0
H119 H 0.66094 0.47191 0.96255 0.0
H120 H 0.70617 0.42848 0.89753 0.0
H121 H 0.64105 0.46185 0.87755 0.0
H122 H 0.57284 0.45567 0.83419 0.0
H123 H 0.5548 0.43618 0.79398 0.0
H124 H 0.43142 0.50975 0.79417 0.0
H125 H 0.44892 0.52888 0.83429 0.0
H126 H 0.45708 0.61079 0.86885 0.0
H127 H 0.40853 0.66626 0.88315 0.0
H128 H 0.45077 0.63155 0.95294 0.0
H129 H 0.50007 0.57514 0.93851 0.0
N130 N 0.54618 0.53578 0.90545 0.0
N131 N 0.56066 0.49155 0.87378 0.0
N132 N 0.49953 0.53906 0.87133 0.0
C133 C 0.57186 0.50495 0.89572 0.0
C134 C 0.52436 0.5082 0.86154 0.0
C135 C 0.51 0.55318 0.89313 0.0
C136 C 0.61244 0.48636 0.90835 0.0
C137 C 0.61914 0.48918 0.93244 0.0
C138 C 0.65684 0.46972 0.94398 0.0
C139 C 0.68892 0.44771 0.93163 0.0
C140 C 0.68251 0.44569 0.90756 0.0
C141 C 0.6448 0.46456 0.89611 0.0
C142 C 0.51253 0.49413 0.8375 0.0
C143 C 0.54167 0.46741 0.82574 0.0
C144 C 0.53144 0.45636 0.80267 0.0
C145 C 0.49174 0.47152 0.79089 0.0
C146 C 0.46202 0.49716 0.80282 0.0
C147 C 0.47232 0.50841 0.82581 0.0
C148 C 0.4824 0.58825 0.90255 0.0
C149 C 0.45631 0.61481 0.88729 0.0
C150 C 0.41531 0.40518 0.09869 0.0
C151 C 0.39821 0.4215 0.07742 0.0
C152 C 0.41754 0.45933 0.069 0.0
C153 C 0.45342 0.48012 0.08159 0.0
H154 H 0.58415 0.5562 0.07746 0.0
H155 H 0.63722 0.61057 0.06493 0.0
H156 H 0.65972 0.65606 0.13503 0.0
H157 H 0.60833 0.60158 0.14746 0.0
H158 H 0.62028 0.51751 0.18245 0.0
H159 H 0.63524 0.49734 0.22245 0.0
H160 H 0.51531 0.41788 0.21838 0.0
H161 H 0.50091 0.43706 0.1781 0.0
H162 H 0.46257 0.41219 0.12761 0.0
H163 H 0.40079 0.37655 0.10588 0.0
H164 H 0.4052 0.4726 0.05261 0.0
H165 H 0.46755 0.50921 0.07468 0.0
N166 N 0.53173 0.51855 0.10847 0.0
N167 N 0.57329 0.52528 0.14407 0.0
N168 N 0.51638 0.47328 0.13927 0.0
C169 C 0.56486 0.5385 0.12205 0.0
C170 C 0.54943 0.49272 0.15283 0.0
C171 C 0.50718 0.48583 0.11711 0.0
C172 C 0.5925 0.57413 0.11348 0.0
C173 C 0.6002 0.57815 0.09008 0.0
C174 C 0.63058 0.60932 0.08293 0.0
C175 C 0.65349 0.6372 0.09905 0.0
C176 C 0.64389 0.63434 0.12223 0.0
C177 C 0.61407 0.60316 0.12934 0.0
C178 C 0.55919 0.47913 0.17702 0.0
C179 C 0.59711 0.49557 0.19 0.0
C180 C 0.60566 0.48414 0.21302 0.0
C181 C 0.57639 0.45616 0.22371 0.0
C182 C 0.53892 0.43905 0.21062 0.0
C183 C 0.53048 0.45031 0.18753 0.0
C184 C 0.47029 0.46374 0.10296 0.0
C185 C 0.45071 0.42595 0.11126 0.0
H186 H 0.10616 0.15893 0.06542 0.0
H187 H 0.14386 0.22887 0.06516 0.0
H188 H 0.1239 0.23218 0.9912 0.0
H189 H 0.08723 0.16086 0.99151 0.0
H190 H 0.20967 0.24078 0.00425 0.0
H191 H 0.1187 0.35473 0.05697 0.0
H192 H 0.12699 0.30509 0.07239 0.0
H193 H 0.09292 0.30541 0.04554 0.0
C194 C 0.10809 0.17546 0.04918 0.0
C195 C 0.09309 0.15492 0.02851 0.0
C196 C 0.12949 0.21566 0.04903 0.0
C197 C 0.13633 0.23635 0.02818 0.0
C198 C 0.11858 0.21717 0.00753 0.0
H199 H 0.3222 0.45701 0.05548 0.0
H200 H 0.25626 0.41829 0.03781 0.0
C201 C 0.09703 0.17673 0.0077 0.0
C202 C 0.16864 0.27322 0.02812 0.0
H203 H 0.20123 0.36381 0.05888 0.0
C204 C 0.20716 0.26835 0.01571 0.0
C205 C 0.16539 0.30981 0.04268 0.0
C206 C 0.12344 0.31925 0.05491 0.0
C207 C 0.244 0.29668 0.01909 0.0
C208 C 0.24279 0.33021 0.03571 0.0
C209 C 0.2027 0.33757 0.04649 0.0
C210 C 0.28409 0.35435 0.04409 0.0
C211 C 0.28448 0.28943 0.00535 0.0
C212 C 0.32171 0.33139 0.0534 0.0
C213 C 0.35928 0.35332 0.06334 0.0
C214 C 0.36004 0.39884 0.0645 0.0
C215 C 0.32283 0.42196 0.05467 0.0
C216 C 0.28505 0.39988 0.04468 0.0
H217 H 0.27438 0.27504 0.98825 0.0
H218 H 0.30295 0.3201 0.00282 0.0
H219 H 0.30769 0.26629 0.0146 0.0
H220 H 0.32151 0.29631 0.05367 0.0
H221 H 0.38749 0.33451 0.07056 0.0
H222 H 0.09663 0.90632 0.97194 0.0
H223 H 0.14396 0.85004 0.95582 0.0
H224 H 0.26291 0.92357 0.97741 0.0
H225 H 0.21611 0.97924 0.99372 0.0
H226 H 0.2121 0.84716 0.92403 0.0
H227 H 0.28033 0.80934 0.01244 0.0
H228 H 0.23143 0.84312 0.00665 0.0
H229 H 0.2871 0.86524 0.00514 0.0
C230 C 0.13279 0.9109 0.97269 0.0
C231 C 0.15278 0.94693 0.98422 0.0
C232 C 0.15979 0.87866 0.96361 0.0
C233 C 0.207 0.88211 0.96602 0.0
C234 C 0.22663 0.91973 0.97591 0.0
H235 H 0.41528 0.73666 0.90425 0.0
H236 H 0.35997 0.78994 0.91538 0.0
C237 C 0.19984 0.95163 0.98509 0.0
C238 C 0.23616 0.84555 0.95967 0.0
H239 H 0.31892 0.77815 0.98192 0.0
C240 C 0.23525 0.83181 0.93668 0.0
C241 C 0.26561 0.82485 0.9763 0.0
C242 C 0.26595 0.83603 0.00155 0.0
C243 C 0.26435 0.79909 0.92972 0.0
C244 C 0.29577 0.78029 0.94614 0.0
C245 C 0.29534 0.79292 0.96927 0.0
C246 C 0.3299 0.74805 0.9397 0.0
C247 C 0.26084 0.78477 0.90487 0.0
C248 C 0.33297 0.70743 0.95047 0.0
C249 C 0.3651 0.67708 0.94437 0.0
C250 C 0.3947 0.6868 0.92736 0.0
C251 C 0.39242 0.72797 0.91713 0.0
C252 C 0.36058 0.75834 0.92335 0.0
H253 H 0.22698 0.79183 0.89649 0.0
H254 H 0.28601 0.8027 0.89544 0.0
H255 H 0.26757 0.74955 0.90322 0.0
H256 H 0.30997 0.69893 0.96333 0.0
H257 H 0.36586 0.64556 0.95244 0.0
H258 H 0.85231 0.96512 0.02937 0.0
H259 H 0.81131 0.90749 0.04756 0.0
H260 H 0.93586 0.83891 0.06293 0.0
H261 H 0.97736 0.8971 0.04485 0.0
H262 H 0.85912 0.79295 0.03525 0.0
H263 H 0.81132 0.86669 0.11725 0.0
H264 H 0.80495 0.9008 0.09232 0.0
H265 H 0.8602 0.88389 0.10292 0.0
C266 C 0.87108 0.93824 0.03711 0.0
C267 C 0.91796 0.93557 0.03585 0.0
C268 C 0.84766 0.90544 0.04752 0.0
C269 C 0.8706 0.86911 0.05662 0.0
C270 C 0.91767 0.8669 0.05609 0.0
H271 H 0.73376 0.65807 0.12232 0.0
H272 H 0.78877 0.71226 0.11236 0.0
C273 C 0.9413 0.90015 0.04591 0.0
C274 C 0.84441 0.83197 0.06452 0.0
H275 H 0.77159 0.80298 0.10445 0.0
C276 C 0.84042 0.79479 0.05055 0.0
C277 C 0.82018 0.83461 0.08445 0.0
C278 C 0.82446 0.87346 0.10027 0.0
C279 C 0.81145 0.76073 0.05557 0.0
C280 C 0.78565 0.76418 0.07496 0.0
C281 C 0.79103 0.80064 0.08943 0.0
C282 C 0.75265 0.73044 0.08045 0.0
C283 C 0.8084 0.72141 0.04004 0.0
C284 C 0.71397 0.7227 0.06577 0.0
C285 C 0.682 0.69201 0.07154 0.0
C286 C 0.68812 0.66858 0.09214 0.0
C287 C 0.72739 0.67608 0.10656 0.0
C288 C 0.7591 0.70686 0.10084 0.0
H289 H 0.83753 0.71926 0.02916 0.0
H290 H 0.80678 0.69126 0.05024 0.0
H291 H 0.77718 0.72339 0.02852 0.0
H292 H 0.70807 0.74103 0.05008 0.0
H293 H 0.65201 0.68746 0.06016 0.0
H294 H 0.90164 0.13939 0.01682 0.0
H295 H 0.86891 0.21125 0.01047 0.0
H296 H 0.97961 0.24606 0.97027 0.0
H297 H 0.01173 0.17321 0.97611 0.0
H298 H 0.8942 0.29845 0.01636 0.0
H299 H 0.86993 0.2511 0.924 0.0
H300 H 0.88783 0.21291 0.94603 0.0
H301 H 0.92706 0.25171 0.93618 0.0
C302 C 0.91973 0.16293 0.00727 0.0
C303 C 0.95947 0.15113 -0.00281 0.0
C304 C 0.901 0.20395 0.00362 0.0
C305 C 0.92138 0.23383 0.98959 0.0
C306 C 0.96303 0.22331 0.98094 0.0
H307 H 0.77659 0.44798 0.92026 0.0
H308 H 0.83851 0.40287 0.93627 0.0
C309 C 0.98183 0.18201 0.9846 0.0
C310 C 0.89576 0.27311 0.98193 0.0
H311 H 0.83716 0.316 0.93501 0.0
C312 C 0.88224 0.30271 -0.00148 0.0
C313 C 0.87984 0.27847 0.95867 0.0
C314 C 0.8915 0.24679 0.94016 0.0
C315 C 0.85262 0.33699 0.99253 0.0
C316 C 0.83546 0.34134 0.96941 0.0
C317 C 0.85035 0.31273 0.95273 0.0
C318 C 0.79994 0.37334 0.96213 0.0
C319 C 0.83979 0.36801 0.01105 0.0
C320 C 0.75773 0.37236 0.97155 0.0
C321 C 0.72224 0.39822 0.96243 0.0
C322 C 0.72809 0.42512 0.9435 0.0
C323 C 0.77086 0.42724 0.93468 0.0
C324 C 0.80634 0.4016 0.94387 0.0
H325 H 0.86607 0.36929 0.02554 0.0
H326 H 0.83436 0.40123 0.00421 0.0
H327 H 0.80803 0.35679 0.01798 0.0
H328 H 0.75152 0.35008 0.98524 0.0
H329 H 0.68958 0.39541 0.96941 0.0
H330 H 0.58243 0.65832 0.49337 0.0
H331 H 0.61689 0.73089 0.49336 0.0
H332 H 0.66463 0.7147 0.56434 0.0
H333 H 0.62984 0.64342 0.56455 0.0
H334 H 0.63734 0.79905 0.55452 0.0
H335 H 0.7545 0.7363 0.49155 0.0
H336 H 0.69513 0.73551 0.48331 0.0
H337 H 0.7175 0.70079 0.50588 0.0
C338 C 0.59907 0.67096 0.50912 0.0
C339 C 0.60382 0.64513 0.52891 0.0
C340 C 0.61916 0.71217 0.50903 0.0
C341 C 0.64415 0.72786 0.52873 0.0
C342 C 0.64573 0.70331 0.54891 0.0
H343 H 0.88451 0.84327 0.57099 0.0
H344 H 0.82027 0.80194 0.55438 0.0
C345 C 0.62594 0.66243 0.54898 0.0
C346 C 0.67294 0.76719 0.52836 0.0
H347 H 0.77464 0.80045 0.511 0.0
C348 C 0.66678 0.80013 0.54457 0.0
C349 C 0.71151 0.76826 0.51546 0.0
C350 C 0.72049 0.73334 0.49813 0.0
C351 C 0.6997 0.83219 0.54947 0.0
C352 C 0.73951 0.83171 0.53752 0.0
C353 C 0.74407 0.80073 0.52011 0.0
C354 C 0.77952 0.85816 0.54534 0.0
C355 C 0.69322 0.86416 0.56865 0.0
C356 C 0.77856 0.90368 0.54526 0.0
C357 C 0.81536 0.92753 0.55498 0.0
C358 C 0.85366 0.90618 0.56492 0.0
C359 C 0.85522 0.86069 0.56389 0.0
C360 C 0.81862 0.83701 0.55422 0.0
H361 H 0.66346 0.85621 0.57833 0.0
H362 H 0.72353 0.86507 0.58089 0.0
H363 H 0.68828 0.89705 0.56135 0.0
H364 H 0.74903 0.9207 0.53816 0.0
H365 H 0.81312 0.96253 0.55551 0.0
H366 H 0.66202 0.38507 0.51818 0.0
H367 H 0.71259 0.33515 0.49998 0.0
H368 H 0.71093 0.41777 0.44056 0.0
H369 H 0.66087 0.46868 0.45924 0.0
H370 H 0.70227 0.2905 0.45617 0.0
H371 H 0.84682 0.40572 0.46336 0.0
H372 H 0.7977 0.413 0.47948 0.0
H373 H 0.79477 0.42459 0.44932 0.0
C374 C 0.67207 0.39234 0.50112 0.0
C375 C 0.65706 0.4303 0.48988 0.0
C376 C 0.70085 0.36379 0.49074 0.0
C377 C 0.71576 0.37286 0.46901 0.0
C378 C 0.69999 0.4103 0.45741 0.0
H379 H 0.92479 0.23315 0.40051 0.0
H380 H 0.86865 0.2862 0.41096 0.0
C381 C 0.67084 0.43895 0.46785 0.0
C382 C 0.74923 0.34358 0.45933 0.0
H383 H 0.86073 0.33583 0.44933 0.0
C384 C 0.73683 0.30046 0.45445 0.0
C385 C 0.79428 0.35669 0.45715 0.0
C386 C 0.80957 0.40242 0.4627 0.0
C387 C 0.76839 0.26992 0.44769 0.0
C388 C 0.81387 0.28259 0.44636 0.0
C389 C 0.82597 0.32606 0.45057 0.0
C390 C 0.84938 0.25114 0.44073 0.0
C391 C 0.75258 0.22442 0.44193 0.0
C392 C 0.8583 0.2144 0.45441 0.0
C393 C 0.89018 0.18376 0.44838 0.0
C394 C 0.91401 0.18942 0.42861 0.0
C395 C 0.90642 0.22731 0.41558 0.0
C396 C 0.87449 0.25782 0.42159 0.0
H397 H 0.71574 0.22333 0.43727 0.0
H398 H 0.77044 0.21067 0.42745 0.0
H399 H 0.75956 0.20351 0.45716 0.0
H400 H 0.84016 0.20911 0.46961 0.0
H401 H 0.895 0.15497 0.45876 0.0
H402 H 0.34861 0.48079 0.51889 0.0
H403 H 0.29768 0.43003 0.53593 0.0
H404 H 0.41096 0.35013 0.55861 0.0
H405 H 0.4622 0.40155 0.54192 0.0
H406 H 0.28612 0.34811 0.52169 0.0
H407 H 0.33902 0.34947 0.61482 0.0
H408 H 0.35674 0.39057 0.59548 0.0
H409 H 0.38395 0.33855 0.59662 0.0
C410 C 0.36271 0.45291 0.52799 0.0
C411 C 0.40931 0.44521 0.52925 0.0
C412 C 0.3336 0.42389 0.53768 0.0
C413 C 0.35041 0.38632 0.54865 0.0
C414 C 0.39721 0.3793 0.55066 0.0
H415 H 0.18988 0.15234 0.5622 0.0
H416 H 0.24342 0.20693 0.5506 0.0
C417 C 0.42649 0.40867 0.54112 0.0
C418 C 0.31844 0.35287 0.55585 0.0
H419 H 0.28764 0.29393 0.60158 0.0
C420 C 0.28637 0.33642 0.5392 0.0
C421 C 0.31861 0.33775 0.57869 0.0
C422 C 0.35112 0.35527 0.5975 0.0
C423 C 0.25454 0.30531 0.54471 0.0
C424 C 0.25537 0.28939 0.56741 0.0
C425 C 0.28726 0.30595 0.58413 0.0
C426 C 0.22277 0.25623 0.57424 0.0
C427 C 0.21968 0.29054 0.52626 0.0
C428 C 0.19379 0.26557 0.59158 0.0
C429 C 0.16329 0.23442 0.59827 0.0
C430 C 0.16122 0.1932 0.5878 0.0
C431 C 0.19009 0.18401 0.57031 0.0
C432 C 0.22077 0.21515 0.5637 0.0
H433 H 0.21607 0.31392 0.51185 0.0
H434 H 0.23016 0.25896 0.51917 0.0
H435 H 0.18629 0.2862 0.53332 0.0
H436 H 0.19467 0.29707 0.59991 0.0
H437 H 0.14126 0.24262 0.61167 0.0
H438 H 0.46123 0.64836 0.44953 0.0
H439 H 0.42598 0.71934 0.44937 0.0
H440 H 0.45849 0.73174 0.52237 0.0
H441 H 0.49367 0.65958 0.52261 0.0
H442 H 0.36992 0.74199 0.51178 0.0
H443 H 0.45944 0.8449 0.45328 0.0
H444 H 0.44738 0.79358 0.43972 0.0
H445 H 0.48426 0.79618 0.4656 0.0
C446 C 0.46231 0.66681 0.46544 0.0
C447 C 0.48009 0.64841 0.48609 0.0
C448 C 0.44236 0.70766 0.4653 0.0
C449 C 0.4398 0.73128 0.48581 0.0
C450 C 0.46031 0.71427 0.5063 0.0
H451 H 0.26357 0.95791 0.4584 0.0
H452 H 0.32877 0.91752 0.47523 0.0
C453 C 0.48067 0.6732 0.50641 0.0
C454 C 0.40951 0.76966 0.48596 0.0
H455 H 0.37795 0.858 0.45377 0.0
C456 C 0.37238 0.76806 0.49954 0.0
C457 C 0.41279 0.80426 0.47034 0.0
C458 C 0.45346 0.81005 0.45663 0.0
C459 C 0.33666 0.79768 0.49642 0.0
C460 C 0.33762 0.8292 0.47894 0.0
C461 C 0.37662 0.83333 0.46687 0.0
C462 C 0.29692 0.85463 0.47115 0.0
C463 C 0.29754 0.79393 0.51141 0.0
C464 C 0.25726 0.83285 0.46335 0.0
C465 C 0.22009 0.85576 0.45387 0.0
C466 C 0.22173 0.90108 0.45169 0.0
C467 C 0.26105 0.92308 0.46003 0.0
C468 C 0.29841 0.90002 0.46953 0.0
H469 H 0.30866 0.78081 0.52857 0.0
H470 H 0.28102 0.82574 0.51377 0.0
H471 H 0.27231 0.7711 0.50326 0.0
H472 H 0.25549 0.79782 0.46388 0.0
H473 H 0.19025 0.83781 0.44781 0.0
H474 H 0.95386 0.98848 0.0739 0.0
H475 H 0.9252 0.96928 0.11093 0.0
H476 H 0.05509 0.91636 0.1331 0.0
H477 H 0.08293 0.93317 0.0959 0.0
H478 H 0.98662 0.87057 0.15042 0.0
H479 H 0.9648 0.04797 0.16434 0.0
H480 H 0.93181 0.02444 0.14048 0.0
H481 H 0.99211 0.02672 0.14006 0.0
C482 C 0.97569 0.97127 0.08636 0.0
C483 C 0.02067 0.96241 0.08203 0.0
C484 C 0.95948 0.96086 0.10763 0.0
C485 C 0.98838 0.9424 0.12499 0.0
C486 C 0.03222 0.93079 0.12003 0.0
H487 H 0.05778 0.92612 0.2657 0.0
H488 H 0.04524 0.91493 0.22432 0.0
C489 C 0.04819 0.94067 0.09879 0.0
C490 C 0.97574 0.93954 0.1491 0.0
H491 H 0.9585 0.00296 0.19588 0.0
C492 C 0.97962 0.89939 0.16029 0.0
C493 C 0.96675 0.97724 0.16201 0.0
C494 C 0.9639 0.02162 0.15124 0.0
C495 C 0.97691 0.89627 0.18417 0.0
C496 C 0.97034 0.93427 0.19714 0.0
C497 C 0.96355 0.9739 0.18582 0.0
C498 C 0.97537 0.93481 0.22259 0.0
C499 C 0.98241 0.85257 0.19541 0.0
C500 C 0.9402 0.94961 0.23539 0.0
C501 C 0.94718 0.95582 0.25914 0.0
C502 C 0.9897 0.94795 0.2705 0.0
C503 C 0.02443 0.93184 0.25766 0.0
C504 C 0.01731 0.92538 0.23395 0.0
H505 H 0.97361 0.82588 0.18303 0.0
H506 H 0.01811 0.84834 0.20186 0.0
H507 H 0.96108 0.84985 0.21022 0.0
H508 H 0.90767 0.95733 0.2269 0.0
H509 H 0.91947 0.9676 0.26853 0.0
H510 H 0.98224 0.93796 0.92325 0.0
H511 H 0.01008 0.92303 0.88575 0.0
H512 H 0.13774 0.98139 0.90785 0.0
H513 H 0.10933 -0.00243 0.94548 0.0
H514 H 0.10001 0.01752 0.86915 0.0
H515 H 0.09554 0.84015 0.85778 0.0
H516 H 0.04347 0.85915 0.86782 0.0
H517 H 0.09494 0.86569 0.88572 0.0
C518 C 0.01664 0.94668 0.92033 0.0
C519 C 0.04367 0.96881 0.9373 0.0
C520 C 0.03273 0.93767 0.89894 0.0
C521 C 0.07627 0.95045 0.89406 0.0
C522 C 0.10421 0.97077 0.91135 0.0
H523 H 0.14754 0.97931 0.75045 0.0
H524 H 0.15862 0.96964 0.79213 0.0
C525 C 0.08806 0.97979 0.93287 0.0
C526 C 0.08911 0.94858 0.86995 0.0
H527 H 0.08392 0.88261 0.8226 0.0
C528 C 0.09786 0.98784 0.85907 0.0
C529 C 0.08623 0.90985 0.85681 0.0
C530 C 0.08001 0.86631 0.86774 0.0
C531 C 0.10023 0.98992 0.83517 0.0
C532 C 0.09411 0.95164 0.82187 0.0
C533 C 0.08821 0.91195 0.83286 0.0
C534 C 0.08912 0.95315 0.79647 0.0
C535 C 0.10624 0.03344 0.82412 0.0
C536 C 0.04663 0.94599 0.78512 0.0
C537 C 0.04006 0.95181 0.7614 0.0
C538 C 0.07598 0.96471 0.74854 0.0
C539 C 0.11898 0.97015 0.75989 0.0
C540 C 0.12547 0.96443 0.78367 0.0
H541 H 0.10487 0.06063 0.83662 0.0
H542 H 0.1394 0.03443 0.81654 0.0
H543 H 0.07976 0.0385 0.81001 0.0
H544 H 0.01813 0.93743 0.79477 0.0
H545 H 0.00643 0.94782 0.75331 0.0
H546 H 0.56086 0.41871 0.59256 0.0
H547 H 0.52773 0.40558 0.62884 0.0
H548 H 0.41357 0.48497 0.60691 0.0
H549 H 0.44741 0.49885 0.57042 0.0
H550 H 0.457 0.51509 0.64561 0.0
H551 H 0.42759 0.34099 0.65648 0.0
H552 H 0.48389 0.34846 0.64818 0.0
H553 H 0.43688 0.36384 0.62877 0.0
C554 C 0.52794 0.43215 0.59515 0.0
C555 C 0.50673 0.45989 0.57879 0.0
C556 C 0.50876 0.42427 0.61583 0.0
C557 C 0.46795 0.444 0.62059 0.0
C558 C 0.44493 0.46914 0.60352 0.0
H559 H 0.41161 0.44815 0.7679 0.0
H560 H 0.39595 0.43982 0.72616 0.0
C561 C 0.46415 0.47693 0.58267 0.0
C562 C 0.4551 0.44524 0.64471 0.0
H563 H 0.45186 0.3816 0.69228 0.0
C564 C 0.45435 0.48588 0.65567 0.0
C565 C 0.45163 0.40723 0.65794 0.0
C566 C 0.44959 0.36276 0.64709 0.0
C567 C 0.45428 0.48934 0.67963 0.0
C568 C 0.45507 0.45128 0.69293 0.0
C569 C 0.4519 0.41073 0.68198 0.0
C570 C 0.46435 0.45332 0.71812 0.0
C571 C 0.45606 0.53365 0.69073 0.0
C572 C 0.50808 0.46291 0.72723 0.0
C573 C 0.51715 0.4676 0.75091 0.0
C574 C 0.48254 0.46292 0.76592 0.0
C575 C 0.43886 0.45231 0.75673 0.0
C576 C 0.42988 0.44734 0.73297 0.0
H577 H 0.44591 0.5595 0.67825 0.0
H578 H 0.43377 0.53503 0.70522 0.0
H579 H 0.49102 0.54037 0.69776 0.0
H580 H 0.53507 0.46758 0.71594 0.0
H581 H 0.55097 0.47629 0.7574 0.0
H582 H 0.52179 0.3927 0.4369 0.0
H583 H 0.54496 0.37169 0.39887 0.0
H584 H 0.62203 0.48985 0.39628 0.0
H585 H 0.59998 0.50991 0.43449 0.0
H586 H 0.51714 0.41817 0.3635 0.0
H587 H 0.70235 0.4098 0.36392 0.0
H588 H 0.67326 0.40806 0.39007 0.0
H589 H 0.68529 0.45921 0.37706 0.0
C590 C 0.54543 0.41299 0.42858 0.0
C591 C 0.55997 0.45239 0.43864 0.0
C592 C 0.5585 0.40114 0.40686 0.0
C593 C 0.58562 0.42895 0.39473 0.0
C594 C 0.60225 0.46717 0.40546 0.0
H595 H 0.60455 0.51183 0.2585 0.0
H596 H 0.61168 0.49747 0.2997 0.0
C597 C 0.58957 0.47874 0.42729 0.0
C598 C 0.58929 0.4225 0.36968 0.0
H599 H 0.66262 0.42827 0.32726 0.0
C600 C 0.54909 0.41921 0.35563 0.0
C601 C 0.6309 0.42418 0.35935 0.0
C602 C 0.67536 0.42505 0.37345 0.0
C603 C 0.54913 0.42002 0.33162 0.0
C604 C 0.59052 0.42391 0.32134 0.0
C605 C 0.63093 0.42542 0.33526 0.0
C606 C 0.59168 0.43027 0.29629 0.0
C607 C 0.50472 0.41911 0.31741 0.0
C608 C 0.57889 0.39691 0.28074 0.0
C609 C 0.57498 0.40491 0.25711 0.0
C610 C 0.58379 0.44645 0.24864 0.0
C611 C 0.59807 0.47934 0.26434 0.0
C612 C 0.6021 0.47125 0.28792 0.0
H613 H 0.47546 0.42185 0.32817 0.0
H614 H 0.50311 0.44597 0.30481 0.0
H615 H 0.50167 0.38817 0.30763 0.0
H616 H 0.57097 0.36498 0.28693 0.0
H617 H 0.56465 0.37868 0.24548 0.0
loop_
_geom_bond_atom_site_label_1
_geom_bond_atom_site_label_2
_geom_bond_distance
_geom_bond_site_symmetry_2
_ccdc_geom_bond_type
Zn0 O6 1.910 1_546 S
Zn0 O12 1.898 . S
Zn0 O15 1.905 1_545 S
Zn1 O9 1.905 . S
Zn1 O10 1.898 1_545 S
Zn1 O18 1.920 1_545 S
Zn2 O5 2.080 1_445 S
Zn2 O8 2.114 . S
Zn2 O11 2.120 1_545 S
Zn2 O13 2.120 1_455 S
Zn2 O14 2.114 1_554 S
Zn2 O17 2.080 . S
C3 O8 1.166 . S
C3 O9 1.182 . S
C4 O10 1.167 . S
C4 O11 1.299 . S
O5 Zn2 2.080 1_665 S
O5 C19 1.305 . S
O6 Zn0 1.910 1_564 S
O6 C19 1.241 . S
C7 O12 1.178 . S
C7 O13 1.289 1_556 S
O8 Zn2 2.114 . S
O8 C3 1.166 . S
O9 Zn1 1.905 . S
O9 C3 1.182 . S
O10 Zn1 1.898 1_565 S
O10 C4 1.167 . S
O11 Zn2 2.120 1_565 S
O11 C4 1.299 . S
O12 Zn0 1.898 . S
O12 C7 1.178 . S
O13 Zn2 2.120 1_655 S
O13 C7 1.289 1_554 S
O14 Zn2 2.114 1_556 S
O14 C16 1.166 1_545 S
O15 Zn0 1.905 1_565 S
O15 C16 1.182 1_655 S
C16 O14 1.166 1_565 S
C16 O15 1.182 1_455 S
O17 Zn2 2.080 . S
O17 C20 1.305 1_545 S
O18 Zn1 1.920 1_565 S
O18 C20 1.234 . S
C19 O5 1.305 . S
C19 O6 1.241 . S
C20 O17 1.305 1_565 S
C20 O18 1.234 . S
Zn21 O27 1.920 . S
Zn21 O33 1.898 . S
Zn21 O36 1.905 . S
Zn22 O30 1.905 . S
Zn22 O31 1.898 . S
Zn22 O39 1.920 . S
Zn23 O26 2.080 . S
Zn23 O29 2.114 . S
Zn23 O32 2.120 . S
Zn23 O34 2.120 . S
Zn23 O35 2.114 . S
Zn23 O38 2.080 . S
C24 O29 1.166 . S
C24 O30 1.182 . S
C25 O31 1.167 . S
C25 O32 1.299 . S
O26 Zn23 2.080 . S
O26 C40 1.305 . S
O27 Zn21 1.920 . S
O27 C40 1.234 . S
C28 O33 1.167 . S
C28 O34 1.299 . S
O29 Zn23 2.114 . S
O29 C24 1.166 . S
O30 Zn22 1.905 . S
O30 C24 1.182 . S
O31 Zn22 1.898 . S
O31 C25 1.167 . S
O32 Zn23 2.120 . S
O32 C25 1.299 . S
O33 Zn21 1.898 . S
O33 C28 1.167 . S
O34 Zn23 2.120 . S
O34 C28 1.299 . S
O35 Zn23 2.114 . S
O35 C37 1.166 . S
O36 Zn21 1.905 . S
O36 C37 1.182 . S
C37 O35 1.166 . S
C37 O36 1.182 . S
O38 Zn23 2.080 . S
O38 C41 1.305 . S
O39 Zn22 1.920 . S
O39 C41 1.234 . S
C40 O26 1.305 . S
C40 O27 1.234 . S
C41 O38 1.305 . S
C41 O39 1.234 . S
C42 C43 1.384 . S
C42 H55 0.947 . S
C42 C77 1.382 . S
C43 C42 1.384 . S
C43 C44 1.378 . S
C44 C43 1.378 . S
C44 C45 1.378 1_655 S
C44 H56 0.952 . S
C45 C44 1.378 1_455 S
C45 H57 0.950 . S
C45 C76 1.383 . S
H46 C65 0.947 . S
H47 C66 0.946 . S
H48 C68 0.953 . S
H49 C69 0.945 . S
H50 C71 0.952 1_565 S
H51 C72 0.949 1_565 S
H52 C74 0.950 . S
H53 C75 0.948 . S
H54 C77 0.951 . S
H55 C42 0.947 . S
H56 C44 0.952 . S
H57 C45 0.950 . S
N58 C61 1.382 . S
N58 C63 1.363 . S
N59 C61 1.371 . S
N59 C62 1.372 . S
N60 C62 1.361 . S
N60 C63 1.377 . S
C61 N58 1.382 . S
C61 N59 1.371 . S
C61 C64 1.480 1_545 S
C62 N59 1.372 . S
C62 N60 1.361 . S
C62 C70 1.457 . S
C63 N58 1.363 . S
C63 N60 1.377 . S
C63 C76 1.479 . S
C64 C61 1.480 1_565 S
C64 C65 1.383 . S
C64 C69 1.385 . S
C65 H46 0.947 . S
C65 C64 1.383 . S
C65 C66 1.388 . S
C66 H47 0.946 . S
C66 C65 1.388 . S
C66 C67 1.384 . S
C67 C66 1.384 . S
C67 C68 1.377 . S
C68 H48 0.953 . S
C68 C67 1.377 . S
C68 C69 1.369 . S
C69 H49 0.945 . S
C69 C64 1.385 . S
C69 C68 1.369 . S
C70 C62 1.457 . S
C70 C71 1.372 . S
C70 C75 1.364 . S
C71 H50 0.952 1_545 S
C71 C70 1.372 . S
C71 C72 1.389 . S
C72 H51 0.949 1_545 S
C72 C71 1.389 . S
C72 C73 1.387 . S
C73 C72 1.387 . S
C73 C74 1.372 . S
C74 H52 0.950 . S
C74 C73 1.372 . S
C74 C75 1.379 . S
C75 H53 0.948 . S
C75 C70 1.364 . S
C75 C74 1.379 . S
C76 C45 1.383 . S
C76 C63 1.479 . S
C76 C77 1.398 1_455 S
C77 C42 1.382 . S
C77 H54 0.951 . S
C77 C76 1.398 1_655 S
C78 C79 1.384 . S
C78 H91 0.947 . S
C78 C113 1.382 . S
C79 C78 1.384 . S
C79 C80 1.378 . S
C80 C79 1.378 . S
C80 C81 1.378 . S
C80 H92 0.952 . S
C81 C80 1.378 . S
C81 H93 0.950 . S
C81 C112 1.383 . S
H82 C101 0.947 . S
H83 C102 0.946 . S
H84 C104 0.953 . S
H85 C105 0.945 . S
H86 C107 0.952 . S
H87 C108 0.949 . S
H88 C110 0.950 . S
H89 C111 0.948 . S
H90 C113 0.951 . S
H91 C78 0.947 . S
H92 C80 0.952 . S
H93 C81 0.950 . S
N94 C97 1.382 . S
N94 C99 1.363 1_445 S
N95 C97 1.371 . S
N95 C98 1.372 . S
N96 C98 1.361 1_665 S
N96 C99 1.377 . S
C97 N94 1.382 . S
C97 N95 1.371 . S
C97 C100 1.480 . S
C98 N95 1.372 . S
C98 N96 1.361 1_445 S
C98 C106 1.457 . S
C99 N94 1.363 1_665 S
C99 N96 1.377 . S
C99 C112 1.479 . S
C100 C97 1.480 . S
C100 C101 1.383 . S
C100 C105 1.385 . S
C101 H82 0.947 . S
C101 C100 1.383 . S
C101 C102 1.388 . S
C102 H83 0.946 . S
C102 C101 1.388 . S
C102 C103 1.384 . S
C103 C102 1.384 . S
C103 C104 1.377 . S
C104 H84 0.953 . S
C104 C103 1.377 . S
C104 C105 1.369 . S
C105 H85 0.945 . S
C105 C100 1.385 . S
C105 C104 1.369 . S
C106 C98 1.457 . S
C106 C107 1.372 . S
C106 C111 1.364 1_445 S
C107 H86 0.952 . S
C107 C106 1.372 . S
C107 C108 1.389 . S
C108 H87 0.949 . S
C108 C107 1.389 . S
C108 C109 1.387 . S
C109 C108 1.387 . S
C109 C110 1.372 1_445 S
C110 H88 0.950 . S
C110 C109 1.372 1_665 S
C110 C111 1.379 . S
C111 H89 0.948 . S
C111 C106 1.364 1_665 S
C111 C110 1.379 . S
C112 C81 1.383 . S
C112 C99 1.479 . S
C112 C113 1.398 . S
C113 C78 1.382 . S
C113 H90 0.951 . S
C113 C112 1.398 . S
C114 C115 1.384 . S
C114 H127 0.947 . S
C114 C149 1.382 . S
C115 C114 1.384 . S
C115 C116 1.378 . S
C116 C115 1.378 . S
C116 C117 1.378 . S
C116 H128 0.952 . S
C117 C116 1.378 . S
C117 H129 0.950 . S
C117 C148 1.383 . S
H118 C137 0.947 . S
H119 C138 0.946 . S
H120 C140 0.953 . S
H121 C141 0.945 . S
H122 C143 0.952 . S
H123 C144 0.949 . S
H124 C146 0.950 . S
H125 C147 0.948 . S
H126 C149 0.951 . S
H127 C114 0.947 . S
H128 C116 0.952 . S
H129 C117 0.950 . S
N130 C133 1.382 . S
N130 C135 1.363 . S
N131 C133 1.371 . S
N131 C134 1.372 . S
N132 C134 1.361 . S
N132 C135 1.377 . S
C133 N130 1.382 . S
C133 N131 1.371 . S
C133 C136 1.480 . S
C134 N131 1.372 . S
C134 N132 1.361 . S
C134 C142 1.457 . S
C135 N130 1.363 . S
C135 N132 1.377 . S
C135 C148 1.479 . S
C136 C133 1.480 . S
C136 C137 1.383 . S
C136 C141 1.385 . S
C137 H118 0.947 . S
C137 C136 1.383 . S
C137 C138 1.388 . S
C138 H119 0.946 . S
C138 C137 1.388 . S
C138 C139 1.384 . S
C139 C138 1.384 . S
C139 C140 1.377 . S
C140 H120 0.953 . S
C140 C139 1.377 . S
C140 C141 1.369 . S
C141 H121 0.945 . S
C141 C136 1.385 . S
C141 C140 1.369 . S
C142 C134 1.457 . S
C142 C143 1.372 . S
C142 C147 1.364 . S
C143 H122 0.952 . S
C143 C142 1.372 . S
C143 C144 1.389 . S
C144 H123 0.949 . S
C144 C143 1.389 . S
C144 C145 1.387 . S
C145 C144 1.387 . S
C145 C146 1.372 . S
C146 H124 0.950 . S
C146 C145 1.372 . S
C146 C147 1.379 . S
C147 H125 0.948 . S
C147 C142 1.364 . S
C147 C146 1.379 . S
C148 C117 1.383 . S
C148 C135 1.479 . S
C148 C149 1.398 . S
C149 C114 1.382 . S
C149 H126 0.951 . S
C149 C148 1.398 . S
C150 C151 1.384 . S
C150 H163 0.947 . S
C150 C185 1.382 . S
C151 C150 1.384 . S
C151 C152 1.378 . S
C152 C151 1.378 . S
C152 C153 1.378 . S
C152 H164 0.952 . S
C153 C152 1.378 . S
C153 H165 0.950 . S
C153 C184 1.383 . S
H154 C173 0.947 . S
H155 C174 0.946 . S
H156 C176 0.953 . S
H157 C177 0.945 . S
H158 C179 0.952 . S
H159 C180 0.949 . S
H160 C182 0.950 . S
H161 C183 0.948 . S
H162 C185 0.951 . S
H163 C150 0.947 . S
H164 C152 0.952 . S
H165 C153 0.950 . S
N166 C169 1.382 . S
N166 C171 1.363 . S
N167 C169 1.371 . S
N167 C170 1.372 . S
N168 C170 1.361 . S
N168 C171 1.377 . S
C169 N166 1.382 . S
C169 N167 1.371 . S
C169 C172 1.480 . S
C170 N167 1.372 . S
C170 N168 1.361 . S
C170 C178 1.457 . S
C171 N166 1.363 . S
C171 N168 1.377 . S
C171 C184 1.479 . S
C172 C169 1.480 . S
C172 C173 1.383 . S
C172 C177 1.385 . S
C173 H154 0.947 . S
C173 C172 1.383 . S
C173 C174 1.388 . S
C174 H155 0.946 . S
C174 C173 1.388 . S
C174 C175 1.384 . S
C175 C174 1.384 . S
C175 C176 1.377 . S
C176 H156 0.953 . S
C176 C175 1.377 . S
C176 C177 1.369 . S
C177 H157 0.945 . S
C177 C172 1.385 . S
C177 C176 1.369 . S
C178 C170 1.457 . S
C178 C179 1.372 . S
C178 C183 1.364 . S
C179 H158 0.952 . S
C179 C178 1.372 . S
C179 C180 1.389 . S
C180 H159 0.949 . S
C180 C179 1.389 . S
C180 C181 1.387 . S
C181 C180 1.387 . S
C181 C182 1.372 . S
C182 H160 0.950 . S
C182 C181 1.372 . S
C182 C183 1.379 . S
C183 H161 0.948 . S
C183 C178 1.364 . S
C183 C182 1.379 . S
C184 C153 1.383 . S
C184 C171 1.479 . S
C184 C185 1.398 . S
C185 C150 1.382 . S
C185 H162 0.951 . S
C185 C184 1.398 . S
H186 C194 0.929 . S
H187 C196 0.930 . S
H188 C198 0.930 . S
H189 C201 0.929 1_556 S
H190 C204 0.930 . S
H191 C206 0.960 . S
H192 C206 0.960 . S
H193 C206 0.960 . S
C194 H186 0.929 . S
C194 C195 1.377 . S
C194 C196 1.384 . S
C195 C194 1.377 . S
C195 C201 1.390 . S
C196 H187 0.930 . S
C196 C194 1.384 . S
C196 C197 1.372 . S
C197 C196 1.372 . S
C197 C198 1.400 . S
C197 C202 1.490 . S
C198 H188 0.930 . S
C198 C197 1.400 . S
C198 C201 1.386 . S
H199 C215 0.930 . S
H200 C216 0.931 . S
C201 H189 0.929 1_554 S
C201 C195 1.390 . S
C201 C198 1.386 . S
C202 C197 1.490 . S
C202 C204 1.395 . S
C202 C205 1.403 . S
H203 C209 0.930 . S
C204 H190 0.930 . S
C204 C202 1.395 . S
C204 C207 1.403 . S
C205 C202 1.403 . S
C205 C206 1.524 . S
C205 C209 1.400 . S
C206 H191 0.960 . S
C206 H192 0.960 . S
C206 H193 0.960 . S
C206 C205 1.524 . S
C207 C204 1.403 . S
C207 C208 1.392 . S
C207 C211 1.495 . S
C208 C207 1.392 . S
C208 C209 1.385 . S
C208 C210 1.478 . S
C209 H203 0.930 . S
C209 C205 1.400 . S
C209 C208 1.385 . S
C210 C208 1.478 . S
C210 C212 1.381 . S
C210 C216 1.383 . S
C211 C207 1.495 . S
C211 H217 0.959 . S
C211 H218 0.961 . S
C211 H219 0.960 . S
C212 C210 1.381 . S
C212 C213 1.394 . S
C212 H220 0.930 . S
C213 C212 1.394 . S
C213 C214 1.383 . S
C213 H221 0.929 . S
C214 C213 1.383 . S
C214 C215 1.377 . S
C215 H199 0.930 . S
C215 C214 1.377 . S
C215 C216 1.379 . S
C216 H200 0.931 . S
C216 C210 1.383 . S
C216 C215 1.379 . S
H217 C211 0.959 . S
H218 C211 0.961 . S
H219 C211 0.960 . S
H220 C212 0.930 . S
H221 C213 0.929 . S
H222 C230 0.929 . S
H223 C232 0.930 1_554 S
H224 C234 0.930 . S
H225 C237 0.929 . S
H226 C240 0.930 . S
H227 C242 0.960 . S
H228 C242 0.960 . S
H229 C242 0.960 . S
C230 H222 0.929 . S
C230 C231 1.377 1_554 S
C230 C232 1.384 1_554 S
C231 C230 1.377 1_556 S
C231 C237 1.390 . S
C232 H223 0.930 1_556 S
C232 C230 1.384 1_556 S
C232 C233 1.372 . S
C233 C232 1.372 . S
C233 C234 1.400 . S
C233 C238 1.490 . S
C234 H224 0.930 . S
C234 C233 1.400 . S
C234 C237 1.386 . S
H235 C251 0.930 . S
H236 C252 0.931 . S
C237 H225 0.929 . S
C237 C231 1.390 . S
C237 C234 1.386 . S
C238 C233 1.490 . S
C238 C240 1.395 . S
C238 C241 1.403 . S
H239 C245 0.930 . S
C240 H226 0.930 . S
C240 C238 1.395 . S
C240 C243 1.403 . S
C241 C238 1.403 . S
C241 C242 1.524 1_556 S
C241 C245 1.400 . S
C242 H227 0.960 . S
C242 H228 0.960 . S
C242 H229 0.960 . S
C242 C241 1.524 1_554 S
C243 C240 1.403 . S
C243 C244 1.392 . S
C243 C247 1.495 . S
C244 C243 1.392 . S
C244 C245 1.385 . S
C244 C246 1.478 . S
C245 H239 0.930 . S
C245 C241 1.400 . S
C245 C244 1.385 . S
C246 C244 1.478 . S
C246 C248 1.381 . S
C246 C252 1.383 . S
C247 C243 1.495 . S
C247 H253 0.959 . S
C247 H254 0.961 . S
C247 H255 0.960 . S
C248 C246 1.381 . S
C248 C249 1.394 . S
C248 H256 0.930 . S
C249 C248 1.394 . S
C249 C250 1.383 . S
C249 H257 0.929 . S
C250 C249 1.383 . S
C250 C251 1.377 . S
C251 H235 0.930 . S
C251 C250 1.377 . S
C251 C252 1.379 . S
C252 H236 0.931 . S
C252 C246 1.383 . S
C252 C251 1.379 . S
H253 C247 0.959 . S
H254 C247 0.961 . S
H255 C247 0.960 . S
H256 C248 0.930 . S
H257 C249 0.929 . S
H258 C266 0.929 1_556 S
H259 C268 0.930 . S
H260 C270 0.930 . S
H261 C273 0.929 . S
H262 C276 0.930 . S
H263 C278 0.960 . S
H264 C278 0.960 . S
H265 C278 0.960 . S
C266 H258 0.929 1_554 S
C266 C267 1.377 . S
C266 C268 1.384 . S
C267 C266 1.377 . S
C267 C273 1.390 . S
C268 H259 0.930 . S
C268 C266 1.384 . S
C268 C269 1.372 . S
C269 C268 1.372 . S
C269 C270 1.400 . S
C269 C274 1.490 . S
C270 H260 0.930 . S
C270 C269 1.400 . S
C270 C273 1.386 . S
H271 C287 0.930 . S
H272 C288 0.931 . S
C273 H261 0.929 . S
C273 C267 1.390 . S
C273 C270 1.386 . S
C274 C269 1.490 . S
C274 C276 1.395 . S
C274 C277 1.403 . S
H275 C281 0.930 . S
C276 H262 0.930 . S
C276 C274 1.395 . S
C276 C279 1.403 . S
C277 C274 1.403 . S
C277 C278 1.524 . S
C277 C281 1.400 . S
C278 H263 0.960 . S
C278 H264 0.960 . S
C278 H265 0.960 . S
C278 C277 1.524 . S
C279 C276 1.403 . S
C279 C280 1.392 . S
C279 C283 1.495 . S
C280 C279 1.392 . S
C280 C281 1.385 . S
C280 C282 1.478 . S
C281 H275 0.930 . S
C281 C277 1.400 . S
C281 C280 1.385 . S
C282 C280 1.478 . S
C282 C284 1.381 . S
C282 C288 1.383 . S
C283 C279 1.495 . S
C283 H289 0.959 . S
C283 H290 0.961 . S
C283 H291 0.960 . S
C284 C282 1.381 . S
C284 C285 1.394 . S
C284 H292 0.930 . S
C285 C284 1.394 . S
C285 C286 1.383 . S
C285 H293 0.929 . S
C286 C285 1.383 . S
C286 C287 1.377 . S
C287 H271 0.930 . S
C287 C286 1.377 . S
C287 C288 1.379 . S
C288 H272 0.931 . S
C288 C282 1.383 . S
C288 C287 1.379 . S
H289 C283 0.959 . S
H290 C283 0.961 . S
H291 C283 0.960 . S
H292 C284 0.930 . S
H293 C285 0.929 . S
H294 C302 0.929 . S
H295 C304 0.930 . S
H296 C306 0.930 . S
H297 C309 0.931 . S
H298 C312 0.930 . S
H299 C314 0.960 . S
H300 C314 0.960 . S
H301 C314 0.960 . S
C302 H294 0.929 . S
C302 C303 1.377 . S
C302 C304 1.384 1_554 S
C303 C302 1.377 . S
C303 C309 1.390 1_554 S
C304 H295 0.930 . S
C304 C302 1.384 1_556 S
C304 C305 1.372 . S
C305 C304 1.372 . S
C305 C306 1.400 . S
C305 C310 1.490 . S
C306 H296 0.930 . S
C306 C305 1.400 . S
C306 C309 1.386 . S
H307 C323 0.930 . S
H308 C324 0.931 . S
C309 H297 0.931 . S
C309 C303 1.390 1_556 S
C309 C306 1.386 . S
C310 C305 1.490 . S
C310 C312 1.395 1_556 S
C310 C313 1.403 . S
H311 C317 0.930 . S
C312 H298 0.930 . S
C312 C310 1.395 1_554 S
C312 C315 1.406 . S
C313 C310 1.403 . S
C313 C314 1.524 . S
C313 C317 1.400 . S
C314 H299 0.960 . S
C314 H300 0.960 . S
C314 H301 0.960 . S
C314 C313 1.524 . S
C315 C312 1.406 . S
C315 C316 1.374 1_554 S
C315 C319 1.512 . S
C316 C315 1.374 1_556 S
C316 C317 1.385 . S
C316 C318 1.478 . S
C317 H311 0.930 . S
C317 C313 1.400 . S
C317 C316 1.385 . S
C318 C316 1.478 . S
C318 C320 1.381 . S
C318 C324 1.383 . S
C319 C315 1.512 . S
C319 H325 0.959 . S
C319 H326 0.961 . S
C319 H327 0.960 . S
C320 C318 1.381 . S
C320 C321 1.394 . S
C320 H328 0.930 . S
C321 C320 1.394 . S
C321 C322 1.383 . S
C321 H329 0.929 . S
C322 C321 1.383 . S
C322 C323 1.377 . S
C323 H307 0.930 . S
C323 C322 1.377 . S
C323 C324 1.379 . S
C324 H308 0.931 . S
C324 C318 1.383 . S
C324 C323 1.379 . S
H325 C319 0.959 . S
H326 C319 0.961 . S
H327 C319 0.960 . S
H328 C320 0.930 . S
H329 C321 0.929 . S
H330 C338 0.929 . S
H331 C340 0.930 . S
H332 C342 0.930 . S
H333 C345 0.929 . S
H334 C348 0.930 . S
H335 C350 0.960 . S
H336 C350 0.960 . S
H337 C350 0.960 . S
C338 H330 0.929 . S
C338 C339 1.377 . S
C338 C340 1.384 . S
C339 C338 1.377 . S
C339 C345 1.390 . S
C340 H331 0.930 . S
C340 C338 1.384 . S
C340 C341 1.372 . S
C341 C340 1.372 . S
C341 C342 1.400 . S
C341 C346 1.490 . S
C342 H332 0.930 . S
C342 C341 1.400 . S
C342 C345 1.386 . S
H343 C359 0.930 . S
H344 C360 0.931 . S
C345 H333 0.929 . S
C345 C339 1.390 . S
C345 C342 1.386 . S
C346 C341 1.490 . S
C346 C348 1.395 . S
C346 C349 1.403 . S
H347 C353 0.930 . S
C348 H334 0.930 . S
C348 C346 1.395 . S
C348 C351 1.403 . S
C349 C346 1.403 . S
C349 C350 1.524 . S
C349 C353 1.400 . S
C350 H335 0.960 . S
C350 H336 0.960 . S
C350 H337 0.960 . S
C350 C349 1.524 . S
C351 C348 1.403 . S
C351 C352 1.392 . S
C351 C355 1.495 . S
C352 C351 1.392 . S
C352 C353 1.385 . S
C352 C354 1.478 . S
C353 H347 0.930 . S
C353 C349 1.400 . S
C353 C352 1.385 . S
C354 C352 1.478 . S
C354 C356 1.381 . S
C354 C360 1.383 . S
C355 C351 1.495 . S
C355 H361 0.959 . S
C355 H362 0.961 . S
C355 H363 0.960 . S
C356 C354 1.381 . S
C356 C357 1.394 . S
C356 H364 0.930 . S
C357 C356 1.394 . S
C357 C358 1.383 . S
C357 H365 0.929 . S
C358 C357 1.383 . S
C358 C359 1.377 . S
C359 H343 0.930 . S
C359 C358 1.377 . S
C359 C360 1.379 . S
C360 H344 0.931 . S
C360 C354 1.383 . S
C360 C359 1.379 . S
H361 C355 0.959 . S
H362 C355 0.961 . S
H363 C355 0.960 . S
H364 C356 0.930 . S
H365 C357 0.929 . S
H366 C374 0.929 . S
H367 C376 0.930 . S
H368 C378 0.930 . S
H369 C381 0.929 . S
H370 C384 0.930 . S
H371 C386 0.960 . S
H372 C386 0.960 . S
H373 C386 0.960 . S
C374 H366 0.929 . S
C374 C375 1.377 . S
C374 C376 1.384 . S
C375 C374 1.377 . S
C375 C381 1.390 . S
C376 H367 0.930 . S
C376 C374 1.384 . S
C376 C377 1.372 . S
C377 C376 1.372 . S
C377 C378 1.400 . S
C377 C382 1.490 . S
C378 H368 0.930 . S
C378 C377 1.400 . S
C378 C381 1.386 . S
H379 C395 0.930 . S
H380 C396 0.931 . S
C381 H369 0.929 . S
C381 C375 1.390 . S
C381 C378 1.386 . S
C382 C377 1.490 . S
C382 C384 1.395 . S
C382 C385 1.403 . S
H383 C389 0.930 . S
C384 H370 0.930 . S
C384 C382 1.395 . S
C384 C387 1.403 . S
C385 C382 1.403 . S
C385 C386 1.524 . S
C385 C389 1.400 . S
C386 H371 0.960 . S
C386 H372 0.960 . S
C386 H373 0.960 . S
C386 C385 1.524 . S
C387 C384 1.403 . S
C387 C388 1.392 . S
C387 C391 1.495 . S
C388 C387 1.392 . S
C388 C389 1.385 . S
C388 C390 1.478 . S
C389 H383 0.930 . S
C389 C385 1.400 . S
C389 C388 1.385 . S
C390 C388 1.478 . S
C390 C392 1.381 . S
C390 C396 1.383 . S
C391 C387 1.495 . S
C391 H397 0.959 . S
C391 H398 0.961 . S
C391 H399 0.960 . S
C392 C390 1.381 . S
C392 C393 1.394 . S
C392 H400 0.930 . S
C393 C392 1.394 . S
C393 C394 1.383 . S
C393 H401 0.929 . S
C394 C393 1.383 . S
C394 C395 1.377 . S
C395 H379 0.930 . S
C395 C394 1.377 . S
C395 C396 1.379 . S
C396 H380 0.931 . S
C396 C390 1.383 . S
C396 C395 1.379 . S
H397 C391 0.959 . S
H398 C391 0.961 . S
H399 C391 0.960 . S
H400 C392 0.930 . S
H401 C393 0.929 . S
H402 C410 0.929 . S
H403 C412 0.930 . S
H404 C414 0.930 . S
H405 C417 0.929 . S
H406 C420 0.930 . S
H407 C422 0.960 . S
H408 C422 0.960 . S
H409 C422 0.960 . S
C410 H402 0.929 . S
C410 C411 1.377 . S
C410 C412 1.384 . S
C411 C410 1.377 . S
C411 C417 1.390 . S
C412 H403 0.930 . S
C412 C410 1.384 . S
C412 C413 1.372 . S
C413 C412 1.372 . S
C413 C414 1.400 . S
C413 C418 1.490 . S
C414 H404 0.930 . S
C414 C413 1.400 . S
C414 C417 1.386 . S
H415 C431 0.930 . S
H416 C432 0.931 . S
C417 H405 0.929 . S
C417 C411 1.390 . S
C417 C414 1.386 . S
C418 C413 1.490 . S
C418 C420 1.395 . S
C418 C421 1.403 . S
H419 C425 0.930 . S
C420 H406 0.930 . S
C420 C418 1.395 . S
C420 C423 1.403 . S
C421 C418 1.403 . S
C421 C422 1.524 . S
C421 C425 1.400 . S
C422 H407 0.960 . S
C422 H408 0.960 . S
C422 H409 0.960 . S
C422 C421 1.524 . S
C423 C420 1.403 . S
C423 C424 1.392 . S
C423 C427 1.495 . S
C424 C423 1.392 . S
C424 C425 1.385 . S
C424 C426 1.478 . S
C425 H419 0.930 . S
C425 C421 1.400 . S
C425 C424 1.385 . S
C426 C424 1.478 . S
C426 C428 1.381 . S
C426 C432 1.383 . S
C427 C423 1.495 . S
C427 H433 0.959 . S
C427 H434 0.961 . S
C427 H435 0.960 . S
C428 C426 1.381 . S
C428 C429 1.394 . S
C428 H436 0.930 . S
C429 C428 1.394 . S
C429 C430 1.383 . S
C429 H437 0.929 . S
C430 C429 1.383 . S
C430 C431 1.377 . S
C431 H415 0.930 . S
C431 C430 1.377 . S
C431 C432 1.379 . S
C432 H416 0.931 . S
C432 C426 1.383 . S
C432 C431 1.379 . S
H433 C427 0.959 . S
H434 C427 0.961 . S
H435 C427 0.960 . S
H436 C428 0.930 . S
H437 C429 0.929 . S
H438 C446 0.929 . S
H439 C448 0.930 . S
H440 C450 0.930 . S
H441 C453 0.929 . S
H442 C456 0.930 . S
H443 C458 0.960 . S
H444 C458 0.960 . S
H445 C458 0.960 . S
C446 H438 0.929 . S
C446 C447 1.377 . S
C446 C448 1.384 . S
C447 C446 1.377 . S
C447 C453 1.390 . S
C448 H439 0.930 . S
C448 C446 1.384 . S
C448 C449 1.372 . S
C449 C448 1.372 . S
C449 C450 1.400 . S
C449 C454 1.490 . S
C450 H440 0.930 . S
C450 C449 1.400 . S
C450 C453 1.386 . S
H451 C467 0.930 . S
H452 C468 0.931 . S
C453 H441 0.929 . S
C453 C447 1.390 . S
C453 C450 1.386 . S
C454 C449 1.490 . S
C454 C456 1.395 . S
C454 C457 1.403 . S
H455 C461 0.930 . S
C456 H442 0.930 . S
C456 C454 1.395 . S
C456 C459 1.403 . S
C457 C454 1.403 . S
C457 C458 1.524 . S
C457 C461 1.400 . S
C458 H443 0.960 . S
C458 H444 0.960 . S
C458 H445 0.960 . S
C458 C457 1.524 . S
C459 C456 1.403 . S
C459 C460 1.392 . S
C459 C463 1.495 . S
C460 C459 1.392 . S
C460 C461 1.385 . S
C460 C462 1.478 . S
C461 H455 0.930 . S
C461 C457 1.400 . S
C461 C460 1.385 . S
C462 C460 1.478 . S
C462 C464 1.381 . S
C462 C468 1.383 . S
C463 C459 1.495 . S
C463 H469 0.959 . S
C463 H470 0.961 . S
C463 H471 0.960 . S
C464 C462 1.381 . S
C464 C465 1.394 . S
C464 H472 0.930 . S
C465 C464 1.394 . S
C465 C466 1.383 . S
C465 H473 0.929 . S
C466 C465 1.383 . S
C466 C467 1.377 . S
C467 H451 0.930 . S
C467 C466 1.377 . S
C467 C468 1.379 . S
C468 H452 0.931 . S
C468 C462 1.383 . S
C468 C467 1.379 . S
H469 C463 0.959 . S
H470 C463 0.961 . S
H471 C463 0.960 . S
H472 C464 0.930 . S
H473 C465 0.929 . S
H474 C482 0.929 1_655 S
H475 C484 0.930 1_655 S
H476 C486 0.930 . S
H477 C489 0.929 . S
H478 C492 0.930 . S
H479 C494 0.960 . S
H480 C494 0.960 . S
H481 C494 0.960 . S
C482 H474 0.929 1_455 S
C482 C483 1.377 . S
C482 C484 1.384 . S
C483 C482 1.377 . S
C483 C489 1.390 1_565 S
C484 H475 0.930 1_455 S
C484 C482 1.384 . S
C484 C485 1.362 1_565 S
C485 C484 1.362 1_545 S
C485 C486 1.408 . S
C485 C490 1.492 . S
C486 H476 0.930 . S
C486 C485 1.408 . S
C486 C489 1.386 . S
H487 C503 0.930 . S
H488 C504 0.931 . S
C489 H477 0.929 . S
C489 C483 1.390 1_545 S
C489 C486 1.386 . S
C490 C485 1.492 . S
C490 C492 1.395 1_545 S
C490 C493 1.403 . S
H491 C497 0.930 . S
C492 H478 0.930 . S
C492 C490 1.395 1_565 S
C492 C495 1.403 . S
C493 C490 1.403 . S
C493 C494 1.524 . S
C493 C497 1.400 . S
C494 H479 0.960 . S
C494 H480 0.960 . S
C494 H481 0.960 . S
C494 C493 1.524 . S
C495 C492 1.403 . S
C495 C496 1.392 1_565 S
C495 C499 1.495 . S
C496 C495 1.392 1_545 S
C496 C497 1.385 . S
C496 C498 1.478 . S
C497 H491 0.930 . S
C497 C493 1.400 . S
C497 C496 1.385 . S
C498 C496 1.478 . S
C498 C500 1.381 . S
C498 C504 1.383 . S
C499 C495 1.495 . S
C499 H505 0.959 . S
C499 H506 0.961 . S
C499 H507 0.960 . S
C500 C498 1.381 . S
C500 C501 1.394 . S
C500 H508 0.930 1_545 S
C501 C500 1.394 . S
C501 C502 1.383 . S
C501 H509 0.934 . S
C502 C501 1.383 . S
C502 C503 1.377 . S
C503 H487 0.930 . S
C503 C502 1.377 . S
C503 C504 1.379 . S
C504 H488 0.931 . S
C504 C498 1.383 . S
C504 C503 1.379 . S
H505 C499 0.959 . S
H506 C499 0.961 . S
H507 C499 0.960 . S
H508 C500 0.930 1_565 S
H509 C501 0.934 . S
H510 C518 0.929 . S
H511 C520 0.930 . S
H512 C522 0.930 . S
H513 C525 0.929 . S
H514 C528 0.931 . S
H515 C530 0.960 . S
H516 C530 0.960 . S
H517 C530 0.960 . S
C518 H510 0.929 . S
C518 C519 1.377 1_645 S
C518 C520 1.384 . S
C519 C518 1.377 1_465 S
C519 C525 1.390 . S
C520 H511 0.930 . S
C520 C518 1.384 . S
C520 C521 1.375 1_655 S
C521 C520 1.375 1_455 S
C521 C522 1.395 1_545 S
C521 C526 1.492 . S
C522 H512 0.930 . S
C522 C521 1.395 1_565 S
C522 C525 1.386 . S
H523 C539 0.930 . S
H524 C540 0.931 . S
C525 H513 0.929 . S
C525 C519 1.390 . S
C525 C522 1.386 . S
C526 C521 1.492 . S
C526 C528 1.395 . S
C526 C529 1.403 1_545 S
H527 C533 0.930 . S
C528 H514 0.931 . S
C528 C526 1.395 . S
C528 C531 1.403 . S
C529 C526 1.403 1_565 S
C529 C530 1.524 . S
C529 C533 1.400 . S
C530 H515 0.960 . S
C530 H516 0.960 . S
C530 H517 0.960 . S
C530 C529 1.524 . S
C531 C528 1.403 . S
C531 C532 1.392 . S
C531 C535 1.495 1_455 S
C532 C531 1.392 . S
C532 C533 1.385 1_545 S
C532 C534 1.478 . S
C533 H527 0.930 . S
C533 C529 1.400 . S
C533 C532 1.385 1_565 S
C534 C532 1.478 . S
C534 C536 1.381 1_455 S
C534 C540 1.383 . S
C535 C531 1.495 1_655 S
C535 H541 0.959 . S
C535 H542 0.961 1_655 S
C535 H543 0.960 . S
C536 C534 1.381 1_655 S
C536 C537 1.394 . S
C536 H544 0.930 . S
C537 C536 1.394 . S
C537 C538 1.383 1_655 S
C537 H545 0.929 . S
C538 C537 1.383 1_455 S
C538 C539 1.377 . S
C539 H523 0.930 . S
C539 C538 1.377 . S
C539 C540 1.379 . S
C540 H524 0.931 . S
C540 C534 1.383 . S
C540 C539 1.379 . S
H541 C535 0.959 . S
H542 C535 0.961 1_455 S
H543 C535 0.960 . S
H544 C536 0.930 . S
H545 C537 0.929 . S
H546 C554 0.929 . S
H547 C556 0.930 . S
H548 C558 0.930 . S
H549 C561 0.929 . S
H550 C564 0.930 . S
H551 C566 0.960 . S
H552 C566 0.960 . S
H553 C566 0.960 . S
C554 H546 0.929 . S
C554 C555 1.377 . S
C554 C556 1.384 . S
C555 C554 1.377 . S
C555 C561 1.390 . S
C556 H547 0.930 . S
C556 C554 1.384 . S
C556 C557 1.372 . S
C557 C556 1.372 . S
C557 C558 1.400 . S
C557 C562 1.490 . S
C558 H548 0.930 . S
C558 C557 1.400 . S
C558 C561 1.386 . S
H559 C575 0.930 . S
H560 C576 0.931 . S
C561 H549 0.929 . S
C561 C555 1.390 . S
C561 C558 1.386 . S
C562 C557 1.490 . S
C562 C564 1.395 . S
C562 C565 1.403 . S
H563 C569 0.930 . S
C564 H550 0.930 . S
C564 C562 1.395 . S
C564 C567 1.403 . S
C565 C562 1.403 . S
C565 C566 1.524 . S
C565 C569 1.400 . S
C566 H551 0.960 . S
C566 H552 0.960 . S
C566 H553 0.960 . S
C566 C565 1.524 . S
C567 C564 1.403 . S
C567 C568 1.392 . S
C567 C571 1.495 . S
C568 C567 1.392 . S
C568 C569 1.385 . S
C568 C570 1.478 . S
C569 H563 0.930 . S
C569 C565 1.400 . S
C569 C568 1.385 . S
C570 C568 1.478 . S
C570 C572 1.381 . S
C570 C576 1.383 . S
C571 C567 1.495 . S
C571 H577 0.959 . S
C571 H578 0.961 . S
C571 H579 0.960 . S
C572 C570 1.381 . S
C572 C573 1.394 . S
C572 H580 0.930 . S
C573 C572 1.394 . S
C573 C574 1.383 . S
C573 H581 0.929 . S
C574 C573 1.383 . S
C574 C575 1.377 . S
C575 H559 0.930 . S
C575 C574 1.377 . S
C575 C576 1.379 . S
C576 H560 0.931 . S
C576 C570 1.383 . S
C576 C575 1.379 . S
H577 C571 0.959 . S
H578 C571 0.961 . S
H579 C571 0.960 . S
H580 C572 0.930 . S
H581 C573 0.929 . S
H582 C590 0.929 . S
H583 C592 0.930 . S
H584 C594 0.930 . S
H585 C597 0.929 . S
H586 C600 0.930 . S
H587 C602 0.960 . S
H588 C602 0.960 . S
H589 C602 0.960 . S
C590 H582 0.929 . S
C590 C591 1.377 . S
C590 C592 1.384 . S
C591 C590 1.377 . S
C591 C597 1.390 . S
C592 H583 0.930 . S
C592 C590 1.384 . S
C592 C593 1.372 . S
C593 C592 1.372 . S
C593 C594 1.400 . S
C593 C598 1.490 . S
C594 H584 0.930 . S
C594 C593 1.400 . S
C594 C597 1.386 . S
H595 C611 0.930 . S
H596 C612 0.931 . S
C597 H585 0.929 . S
C597 C591 1.390 . S
C597 C594 1.386 . S
C598 C593 1.490 . S
C598 C600 1.395 . S
C598 C601 1.403 . S
H599 C605 0.930 . S
C600 H586 0.930 . S
C600 C598 1.395 . S
C600 C603 1.403 . S
C601 C598 1.403 . S
C601 C602 1.524 . S
C601 C605 1.400 . S
C602 H587 0.960 . S
C602 H588 0.960 . S
C602 H589 0.960 . S
C602 C601 1.524 . S
C603 C600 1.403 . S
C603 C604 1.392 . S
C603 C607 1.495 . S
C604 C603 1.392 . S
C604 C605 1.385 . S
C604 C606 1.478 . S
C605 H599 0.930 . S
C605 C601 1.400 . S
C605 C604 1.385 . S
C606 C604 1.478 . S
C606 C608 1.381 . S
C606 C612 1.383 . S
C607 C603 1.495 . S
C607 H613 0.959 . S
C607 H614 0.961 . S
C607 H615 0.960 . S
C608 C606 1.381 . S
C608 C609 1.394 . S
C608 H616 0.930 . S
C609 C608 1.394 . S
C609 C610 1.383 . S
C609 H617 0.929 . S
C610 C609 1.383 . S
C610 C611 1.377 . S
C611 H595 0.930 . S
C611 C610 1.377 . S
C611 C612 1.379 . S
C612 H596 0.931 . S
C612 C606 1.383 . S
C612 C611 1.379 . S
H613 C607 0.959 . S
H614 C607 0.961 . S
H615 C607 0.960 . S
H616 C608 0.930 . S
H617 C609 0.929 . S
C214 C151 1.127 . S
C195 C3 1.032 . S
C231 C4 1.500 1_556 S
C250 C115 1.606 . S
C267 C19 1.531 . S
C286 C175 1.617 . S
C303 C7 1.022 1_554 S
C322 C139 1.158 . S
C339 C37 1.044 . S
C358 C79 1.131 . S
C375 C28 1.498 . S
C394 C43 1.616 . S
C430 C103 1.624 . S
C411 C41 1.542 . S
C466 C67 1.157 . S
C447 C25 1.026 . S
C483 C20 1.277 . S
C502 C73 1.422 . S
C519 C16 1.321 . S
C538 C109 1.478 . S
C574 C145 1.423 . S
C555 C40 1.270 . S
C591 C24 1.335 . S
C610 C181 1.460 . S
