# Generated by pormake.
# Topology pyr, (3,6)-cn, num edge types: 1
# Building blocks:
#     Node 0, Type 0, BuildingBlock: BETDAH_clean_linker_0, # of connection points: 3
#     Node 1, Type 0, BuildingBlock: BETDAH_clean_linker_0, # of connection points: 3
#     Node 2, Type 0, BuildingBlock: BETDAH_clean_linker_0, # of connection points: 3
#     Node 3, Type 0, BuildingBlock: BETDAH_clean_linker_0, # of connection points: 3
#     Node 4, Type 0, BuildingBlock: BETDAH_clean_linker_0, # of connection points: 3
#     Node 5, Type 0, BuildingBlock: BETDAH_clean_linker_0, # of connection points: 3
#     Node 6, Type 0, BuildingBlock: BETDAH_clean_linker_0, # of connection points: 3
#     Node 7, Type 0, BuildingBlock: BETDAH_clean_linker_0, # of connection points: 3
#     Node 8, Type 1, BuildingBlock: BETGAK_clean_sbu_0, # of connection points: 6
#     Node 9, Type 1, BuildingBlock: BETGAK_clean_sbu_0, # of connection points: 6
#     Node 10, Type 1, BuildingBlock: BETGAK_clean_sbu_0, # of connection points: 6
#     Node 11, Type 1, BuildingBlock: BETGAK_clean_sbu_0, # of connection points: 6
#     Edge 12, Type (0, 1), BuildingBlock: TEMPAE_clean_linker_10, # of connection points: 2
#     Edge 13, Type (0, 1), BuildingBlock: TEMPAE_clean_linker_10, # of connection points: 2
#     Edge 14, Type (0, 1), BuildingBlock: TEMPAE_clean_linker_10, # of connection points: 2
#     Edge 15, Type (0, 1), BuildingBlock: TEMPAE_clean_linker_10, # of connection points: 2
#     Edge 16, Type (0, 1), BuildingBlock: TEMPAE_clean_linker_10, # of connection points: 2
#     Edge 17, Type (0, 1), BuildingBlock: TEMPAE_clean_linker_10, # of connection points: 2
#     Edge 18, Type (0, 1), BuildingBlock: TEMPAE_clean_linker_10, # of connection points: 2
#     Edge 19, Type (0, 1), BuildingBlock: TEMPAE_clean_linker_10, # of connection points: 2
#     Edge 20, Type (0, 1), BuildingBlock: TEMPAE_clean_linker_10, # of connection points: 2
#     Edge 21, Type (0, 1), BuildingBlock: TEMPAE_clean_linker_10, # of connection points: 2
#     Edge 22, Type (0, 1), BuildingBlock: TEMPAE_clean_linker_10, # of connection points: 2
#     Edge 23, Type (0, 1), BuildingBlock: TEMPAE_clean_linker_10, # of connection points: 2
#     Edge 24, Type (0, 1), BuildingBlock: TEMPAE_clean_linker_10, # of connection points: 2
#     Edge 25, Type (0, 1), BuildingBlock: TEMPAE_clean_linker_10, # of connection points: 2
#     Edge 26, Type (0, 1), BuildingBlock: TEMPAE_clean_linker_10, # of connection points: 2
#     Edge 27, Type (0, 1), BuildingBlock: TEMPAE_clean_linker_10, # of connection points: 2
#     Edge 28, Type (0, 1), BuildingBlock: TEMPAE_clean_linker_10, # of connection points: 2
#     Edge 29, Type (0, 1), BuildingBlock: TEMPAE_clean_linker_10, # of connection points: 2
#     Edge 30, Type (0, 1), BuildingBlock: TEMPAE_clean_linker_10, # of connection points: 2
#     Edge 31, Type (0, 1), BuildingBlock: TEMPAE_clean_linker_10, # of connection points: 2
#     Edge 32, Type (0, 1), BuildingBlock: TEMPAE_clean_linker_10, # of connection points: 2
#     Edge 33, Type (0, 1), BuildingBlock: TEMPAE_clean_linker_10, # of connection points: 2
#     Edge 34, Type (0, 1), BuildingBlock: TEMPAE_clean_linker_10, # of connection points: 2
#     Edge 35, Type (0, 1), BuildingBlock: TEMPAE_clean_linker_10, # of connection points: 2
# Relax obj value: 0.146
# Max RMSD: 0.193
# Mean RMSD: 0.140
data_MOF--net-pyr--node1-BETGAK_clean_sbu_0--node2-BETDAH_clean_linker_0--edge1-TEMPAE_clean_linker_10
_symmetry_space_group_name_H-M    P1
_symmetry_Int_Tables_number       1
_symmetry_cell_setting            triclinic
loop_
_symmetry_equiv_pos_as_xyz
'x, y, z'
_cell_length_a     37.699337
_cell_length_b     40.58427
_cell_length_c     37.626694
_cell_angle_alpha  91.822559
_cell_angle_beta   89.760961
_cell_angle_gamma 107.46149
loop_
_atom_site_label
_atom_site_type_symbol
_atom_site_fract_x
_atom_site_fract_y
_atom_site_fract_z
_atom_type_partial_charge
H0 H 0.40346 0.28992 0.29158 0.0
H1 H 0.45072 0.35039 0.20121 0.0
H2 H 0.37275 0.38043 0.26811 0.0
C3 C 0.40659 0.31207 0.27523 0.0
C4 C 0.38523 0.33436 0.28309 0.0
C5 C 0.42993 0.31682 0.24532 0.0
C6 C 0.43379 0.34621 0.22492 0.0
C7 C 0.41358 0.36927 0.23306 0.0
C8 C 0.38907 0.36311 0.26204 0.0
N9 N 0.41687 0.39735 0.21045 0.0
C10 C 0.38844 0.41217 0.20649 0.0
H11 H 0.26232 0.82338 0.76261 0.0
H12 H 0.18337 0.87772 0.7418 0.0
H13 H 0.17644 0.78283 0.68394 0.0
C14 C 0.23788 0.82497 0.74855 0.0
C15 C 0.22087 0.79941 0.72276 0.0
C16 C 0.22456 0.85324 0.75563 0.0
C17 C 0.19359 0.85578 0.73669 0.0
C18 C 0.17639 0.83044 0.7106 0.0
C19 C 0.18963 0.80206 0.70429 0.0
N20 N 0.14706 0.83393 0.68908 0.0
C21 C 0.14462 0.86617 0.68049 0.0
H22 H 0.72402 0.38652 0.97407 0.0
H23 H 0.73213 0.4552 0.8868 0.0
H24 H 0.64902 0.35598 0.88509 0.0
C25 C 0.71354 0.39265 0.94914 0.0
C26 C 0.68362 0.36766 0.93222 0.0
C27 C 0.73172 0.42435 0.93313 0.0
C28 C 0.71826 0.43142 0.8999 0.0
C29 C 0.68796 0.40686 0.88275 0.0
C30 C 0.67151 0.37512 0.89889 0.0
N31 N 0.67731 0.41025 0.84693 0.0
C32 C 0.66879 0.43819 0.83197 0.0
H33 H 0.8422 0.78235 0.46673 0.0
H34 H 0.93634 0.77321 0.4064 0.0
H35 H 0.84482 0.68318 0.42449 0.0
C36 C 0.85561 0.76662 0.45132 0.0
C37 C 0.83782 0.73073 0.44691 0.0
C38 C 0.89143 0.78242 0.43757 0.0
C39 C 0.90863 0.76192 0.41673 0.0
C40 C 0.891 0.72627 0.41091 0.0
C41 C 0.85636 0.711 0.42678 0.0
N42 N 0.91088 0.70409 0.39656 0.0
C43 C 0.9224 0.70216 0.36132 0.0
H44 H 0.77837 0.82218 0.8914 0.0
H45 H 0.6799 0.76912 0.94898 0.0
H46 H 0.68397 0.86024 0.8913 0.0
C47 C 0.75 0.81948 0.89946 0.0
C48 C 0.7331 0.84386 0.88862 0.0
C49 C 0.73115 0.79222 0.921 0.0
C50 C 0.69476 0.78974 0.93195 0.0
C51 C 0.67775 0.81446 0.92187 0.0
C52 C 0.69689 0.84126 0.89967 0.0
N53 N 0.64186 0.81233 0.93512 0.0
C54 C 0.62958 0.84123 0.9397 0.0
H55 H 0.8204 0.22534 0.44768 0.0
H56 H 0.79532 0.21225 0.55907 0.0
H57 H 0.72367 0.24666 0.49064 0.0
C58 C 0.80324 0.22728 0.47035 0.0
C59 C 0.77092 0.23696 0.46524 0.0
C60 C 0.81241 0.21816 0.504 0.0
C61 C 0.7894 0.22003 0.53301 0.0
C62 C 0.75793 0.23093 0.5287 0.0
C63 C 0.74864 0.23928 0.49464 0.0
N64 N 0.73554 0.23208 0.55888 0.0
C65 C 0.70828 0.24863 0.55888 0.0
H66 H 0.36031 0.7994 0.20262 0.0
H67 H 0.35928 0.7292 0.28708 0.0
H68 H 0.4423 0.82867 0.28583 0.0
C69 C 0.37228 0.79322 0.22672 0.0
C70 C 0.40369 0.81779 0.2418 0.0
C71 C 0.35595 0.76096 0.24241 0.0
C72 C 0.37165 0.75352 0.27435 0.0
C73 C 0.4031 0.77802 0.28997 0.0
C74 C 0.41861 0.80974 0.27341 0.0
N75 N 0.419 0.77374 0.32337 0.0
C76 C 0.41717 0.74366 0.34159 0.0
H77 H 0.24258 0.40339 0.70587 0.0
H78 H 0.22987 0.47518 0.7885 0.0
H79 H 0.14954 0.3744 0.7769 0.0
C80 C 0.22709 0.40938 0.72823 0.0
C81 C 0.19412 0.38476 0.73876 0.0
C82 C 0.24021 0.44201 0.74575 0.0
C83 C 0.21979 0.45031 0.77464 0.0
C84 C 0.18683 0.42563 0.78595 0.0
C85 C 0.17453 0.39332 0.76777 0.0
N86 N 0.1654 0.43059 0.81603 0.0
C87 C 0.16709 0.4604 0.83661 0.0
La88 La 0.07206 0.09968 0.54431 0.0
La89 La 0.03511 0.07298 0.61368 0.0
C90 C 0.08902 0.12018 0.48227 0.0
C91 C 0.11974 0.14671 0.46543 0.0
C92 C 0.15296 0.13962 0.45628 0.0
C93 C 0.18142 0.16417 0.43929 0.0
C94 C 0.1773 0.1963 0.43082 0.0
C95 C 0.14428 0.2036 0.44026 0.0
C96 C 0.11569 0.17897 0.45725 0.0
C97 C 0.11293 0.07748 0.58878 0.0
C98 C 0.0921 0.14969 0.61061 0.0
C99 C 1.01706 0.05413 0.67592 0.0
C100 C 0.98334 1.03264 0.69316 0.0
C101 C 0.94812 1.03589 0.68537 0.0
C102 C 0.91663 1.01621 0.70312 0.0
C103 C 0.9198 0.99267 0.72855 0.0
C104 C 0.95496 0.98895 0.73572 0.0
C105 C 0.98647 1.00888 0.71824 0.0
C106 C 0.99331 0.0944 0.56976 0.0
C107 C 1.01635 1.02221 0.54755 0.0
O108 O 0.09727 0.09402 0.49575 0.0
O109 O 0.06658 0.13125 0.50279 0.0
O110 O 0.1269 0.10081 0.56564 0.0
O111 O 0.07878 0.06523 0.58302 0.0
O112 O 0.09021 0.14795 0.57546 0.0
O113 O 0.07746 0.12196 0.62978 0.0
O114 O 1.01521 0.08331 0.66342 0.0
O115 O 0.03385 1.03798 0.65409 0.0
O116 O 0.98077 0.0697 0.59174 0.0
O117 O 0.02761 0.10774 0.57511 0.0
O118 O 1.01767 1.02445 0.58275 0.0
O119 O 0.03151 0.04963 0.52806 0.0
H120 H 0.15699 0.11499 0.46198 0.0
H121 H 0.20673 0.15795 0.43273 0.0
H122 H 0.14017 0.228 0.43371 0.0
H123 H 0.09026 0.18505 0.46361 0.0
H124 H 0.94491 0.05383 0.66581 0.0
H125 H 0.8898 1.0193 0.69689 0.0
H126 H 0.95819 0.9712 0.75547 0.0
H127 H 1.01339 1.00598 0.72455 0.0
La128 La 0.57988 0.10014 0.099 0.0
La129 La 0.50194 0.07637 0.06213 0.0
C130 C 0.64672 0.12623 0.11739 0.0
C131 C 0.66358 0.14599 0.14955 0.0
C132 C 0.70074 0.14994 0.15822 0.0
C133 C 0.71607 0.16732 0.18987 0.0
C134 C 0.6944 0.18104 0.21316 0.0
C135 C 0.65738 0.17759 0.20391 0.0
C136 C 0.64207 0.1601 0.17246 0.0
C137 C 0.52777 0.05032 0.13048 0.0
C138 C 0.5189 0.1312 0.12637 0.0
C139 C 0.43527 0.04223 0.04928 0.0
C140 C 0.4117 1.02749 1.0184 0.0
C141 C 0.42281 1.03791 0.98386 0.0
C142 C 0.40022 1.02264 0.95475 0.0
C143 C 0.36645 0.99658 0.95987 0.0
C144 C 0.35538 0.9866 0.99462 0.0
C145 C 0.37784 1.00197 1.02364 0.0
C146 C 0.54554 0.1336 1.03285 0.0
C147 C 0.56496 0.04903 1.02959 0.0
O148 O 0.62794 0.09384 0.12215 0.0
O149 O 0.62876 0.14165 0.0972 0.0
O150 O 0.55402 0.07385 0.14723 0.0
O151 O 0.53274 0.05485 0.09764 0.0
O152 O 0.555 0.13694 0.12258 0.0
O153 O 0.49385 0.10499 0.11019 0.0
O154 O 0.44712 0.076 0.05232 0.0
O155 O 0.46135 1.02814 0.05625 0.0
O156 O 0.51186 0.11734 1.02234 0.0
O157 O 0.55254 0.11619 0.05748 0.0
O158 O 0.52982 0.04884 1.02719 0.0
O159 O 0.58863 0.06786 0.05393 0.0
H160 H 0.71767 0.13916 0.14082 0.0
H161 H 0.74474 0.16975 0.1963 0.0
H162 H 0.63982 0.18736 0.22157 0.0
H163 H 0.61322 0.15706 0.16635 0.0
H164 H 0.44906 0.0575 0.97942 0.0
H165 H 0.40959 1.03054 0.92822 0.0
H166 H 0.32936 0.96682 0.99935 0.0
H167 H 0.36893 0.99369 0.05019 0.0
La168 La 0.53336 0.5582 0.56359 0.0
La169 La 0.53521 0.61888 0.61601 0.0
C170 C 0.55472 0.52085 0.51926 0.0
C171 C 0.55943 0.48641 0.52018 0.0
C172 C 0.57013 0.47167 0.48942 0.0
C173 C 0.57854 0.4405 0.49101 0.0
C174 C 0.5766 0.42381 0.5235 0.0
C175 C 0.56436 0.43809 0.55399 0.0
C176 C 0.55575 0.46913 0.5523 0.0
C177 C 0.47239 0.54231 0.6044 0.0
C178 C 0.56385 0.55838 0.64338 0.0
C179 C 0.51841 0.66247 0.65618 0.0
C180 C 0.4849 0.67332 0.65983 0.0
C181 C 0.48421 0.69956 0.68454 0.0
C182 C 0.45188 0.70919 0.68906 0.0
C183 C 0.41978 0.69278 0.66874 0.0
C184 C 0.42068 0.66636 0.64399 0.0
C185 C 0.45298 0.65663 0.63967 0.0
C186 C 0.59748 0.62345 0.58074 0.0
C187 C 0.4987 0.6152 0.53802 0.0
O188 O 0.52036 0.52207 0.52085 0.0
O189 O 0.57734 0.54418 0.54028 0.0
O190 O 0.47946 0.52188 0.58 0.0
O191 O 0.49943 0.56942 0.60423 0.0
O192 O 0.5622 0.54596 0.61007 0.0
O193 O 0.55159 0.58491 0.65227 0.0
O194 O 0.53691 0.67047 0.62652 0.0
O195 O 0.51422 0.63053 0.66474 0.0
O196 O 0.59617 0.63573 0.61279 0.0
O197 O 0.56465 0.61176 0.5691 0.0
O198 O 0.50068 0.62724 0.57155 0.0
O199 O 0.51296 0.5902 0.5283 0.0
H200 H 0.57295 0.48472 0.46441 0.0
H201 H 0.58741 0.42987 0.467 0.0
H202 H 0.56301 0.42613 0.57949 0.0
H203 H 0.54745 0.48025 0.5763 0.0
H204 H 0.50854 0.71236 0.70058 0.0
H205 H 0.45188 0.72917 0.70883 0.0
H206 H 0.39658 0.65343 0.62773 0.0
H207 H 0.45295 0.63594 0.62076 0.0
La208 La 0.04353 0.55706 0.10602 0.0
La209 La 0.04117 0.62714 0.07648 0.0
C210 C 0.06137 0.50471 0.12336 0.0
C211 C 0.09587 0.49722 0.13291 0.0
C212 C 0.12408 0.52124 0.15264 0.0
C213 C 0.15672 0.51365 0.16128 0.0
C214 C 0.16168 0.48184 0.15042 0.0
C215 C 0.13324 0.45785 0.13072 0.0
C216 C 0.10069 0.46554 0.122 0.0
C217 C 1.0073 0.59228 0.14468 0.0
C218 C 0.11304 0.62669 0.11866 0.0
C219 C 1.01858 0.67901 0.07125 0.0
C220 C 0.98713 0.68533 0.05226 0.0
C221 C 0.99362 0.71227 1.02835 0.0
C222 C 0.96384 0.71928 1.0114 0.0
C223 C 0.92689 0.6997 1.01836 0.0
C224 C 0.92058 0.67227 0.04181 0.0
C225 C 0.9503 0.66508 0.05842 0.0
C226 C 0.07008 0.59234 1.02841 0.0
C227 C 0.97559 0.55677 0.05752 0.0
O228 O 0.04969 0.52434 0.14593 0.0
O229 O 0.0587 0.51301 0.09036 0.0
O230 O 0.99748 0.5588 0.14131 0.0
O231 O 0.03695 0.60435 0.12746 0.0
O232 O 0.09994 0.59226 0.11847 0.0
O233 O 0.0937 0.64607 0.10552 0.0
O234 O 0.04571 0.6742 0.05181 0.0
O235 O 1.00953 0.65737 0.09722 0.0
O236 O 0.06736 0.62314 1.02414 0.0
O237 O 0.05707 0.58385 0.05881 0.0
O238 O 0.98677 0.5911 0.06029 0.0
O239 O 0.99536 0.53785 0.07072 0.0
H240 H 0.12087 0.54584 0.16144 0.0
H241 H 0.17819 0.53281 0.17617 0.0
H242 H 0.13591 0.43291 0.12241 0.0
H243 H 0.07916 0.44665 0.10683 0.0
H244 H 0.02173 0.72809 1.023 0.0
H245 H 0.96981 0.74016 0.99296 0.0
H246 H 0.8926 0.65689 0.0482 0.0
H247 H 0.94424 0.64394 0.07658 0.0
C248 C 0.31923 0.3239 0.3018 0.0
C249 C 0.35567 0.32469 0.31034 0.0
C250 C 0.28942 0.30795 0.32397 0.0
C251 C 0.29632 0.29244 0.35533 0.0
C252 C 0.33336 0.29576 0.36554 0.0
C253 C 0.36263 0.31184 0.34288 0.0
C254 C 0.25037 0.30517 0.31222 0.0
C255 C 0.34192 0.2799 0.39897 0.0
C256 C 0.21852 0.2567 0.42132 0.0
C257 C 0.20703 0.2215 0.41117 0.0
C258 C 0.24738 0.28036 0.40324 0.0
C259 C 0.26493 0.26845 0.37437 0.0
C260 C 0.25298 0.23304 0.36372 0.0
C261 C 0.2242 0.21005 0.38222 0.0
C262 C 0.25944 0.31792 0.4153 0.0
C263 C 0.2708 0.21931 0.33289 0.0
H264 H 0.31362 0.3336 0.27658 0.0
H265 H 0.39085 0.31292 0.3498 0.0
H266 H 0.23638 0.27841 0.30221 0.0
H267 H 0.23384 0.31063 0.33487 0.0
H268 H 0.25008 0.32319 0.29066 0.0
H269 H 0.37202 0.28899 0.40574 0.0
H270 H 0.32601 0.28605 0.42178 0.0
H271 H 0.33338 0.25136 0.39521 0.0
H272 H 0.20546 0.26561 0.44383 0.0
H273 H 0.21494 0.183 0.37386 0.0
H274 H 0.25812 0.33446 0.39273 0.0
H275 H 0.28878 0.32555 0.42453 0.0
H276 H 0.24194 0.32327 0.43724 0.0
H277 H 0.26846 0.23305 0.30841 0.0
H278 H 0.25786 0.19114 0.32772 0.0
H279 H 0.30086 0.2241 0.33836 0.0
C280 C 0.22377 0.89198 0.80865 0.0
C281 C 0.24388 0.88025 0.78232 0.0
C282 C 0.24221 0.91436 0.8365 0.0
C283 C 0.28157 0.9251 0.83789 0.0
C284 C 0.30195 0.91487 0.81024 0.0
C285 C 0.28283 0.89265 0.78274 0.0
C286 C 0.21958 0.92498 0.86539 0.0
C287 C 0.34394 0.92587 0.81067 0.0
C288 C 0.33588 0.99748 0.90097 0.0
C289 C 0.34352 0.97871 0.92907 0.0
C290 C 0.31481 0.98047 0.87142 0.0
C291 C 0.30152 0.94392 0.86991 0.0
C292 C 0.30889 0.92492 0.8984 0.0
C293 C 0.32972 0.94256 0.92765 0.0
C294 C 0.30719 1.00153 0.84165 0.0
C295 C 0.29554 0.88588 0.89762 0.0
H296 H 0.19365 0.88243 0.80838 0.0
H297 H 0.29844 0.88422 0.76194 0.0
H298 H 0.22227 0.91196 0.89028 0.0
H299 H 0.23015 0.95325 0.87104 0.0
H300 H 0.18963 0.91805 0.85819 0.0
H301 H 0.35555 0.91816 0.78567 0.0
H302 H 0.35524 0.9543 0.81471 0.0
H303 H 0.35381 0.9139 0.83322 0.0
H304 H 0.34625 1.02546 0.9022 0.0
H305 H 0.33601 0.92797 0.94912 0.0
H306 H 0.27686 0.99441 0.83631 0.0
H307 H 0.32056 0.99578 0.81687 0.0
H308 H 0.31773 1.02975 0.84779 0.0
H309 H 0.26495 0.87647 0.89375 0.0
H310 H 0.30263 0.87506 0.92243 0.0
H311 H 0.30826 0.87562 0.87484 0.0
C312 C 0.61619 0.45215 0.80328 0.0
C313 C 0.65461 0.4598 0.80878 0.0
C314 C 0.60161 0.4689 0.77721 0.0
C315 C 0.62599 0.49403 0.75581 0.0
C316 C 0.66493 0.50237 0.76193 0.0
C317 C 0.67874 0.48505 0.78814 0.0
C318 C 0.56003 0.4589 0.77185 0.0
C319 C 0.69209 0.52902 0.74013 0.0
C320 C 0.59024 0.5118 0.66487 0.0
C321 C 0.58014 0.54202 0.67198 0.0
C322 C 0.60524 0.49611 0.69166 0.0
C323 C 0.61073 0.51094 0.72669 0.0
C324 C 0.60087 0.54158 0.73394 0.0
C325 C 0.58569 0.55657 0.70674 0.0
C326 C 0.61496 0.46341 0.68248 0.0
C327 C 0.60627 0.55855 0.77062 0.0
H328 H 0.59743 0.4322 0.81873 0.0
H329 H 0.70849 0.49064 0.79184 0.0
H330 H 0.55037 0.48213 0.77434 0.0
H331 H 0.55275 0.44764 0.74463 0.0
H332 H 0.54473 0.4398 0.79132 0.0
H333 H 0.72127 0.5339 0.7492 0.0
H334 H 0.68998 0.52018 0.7118 0.0
H335 H 0.68517 0.55374 0.74158 0.0
H336 H 0.58617 0.50011 0.63832 0.0
H337 H 0.57824 0.57991 0.71282 0.0
H338 H 0.59875 0.44223 0.69934 0.0
H339 H 0.64483 0.46729 0.68809 0.0
H340 H 0.60924 0.45511 0.65411 0.0
H341 H 0.58951 0.54046 0.79015 0.0
H342 H 0.59809 0.58268 0.77192 0.0
H343 H 0.63583 0.56478 0.77885 0.0
C344 C 0.92004 0.69441 0.295 0.0
C345 C 0.93629 0.69172 0.32779 0.0
C346 C 0.93124 0.68074 0.26327 0.0
C347 C 0.95902 0.6636 0.26441 0.0
C348 C 0.97586 0.66154 0.29759 0.0
C349 C 0.96432 0.6756 0.32872 0.0
C350 C 0.9127 0.68388 0.22863 0.0
C351 C 1.00534 0.64347 0.30045 0.0
C352 C 0.9624 0.59442 0.19375 0.0
C353 C 0.99315 0.61159 0.17317 0.0
C354 C 0.95043 0.61126 0.22272 0.0
C355 C 0.96945 0.6464 0.23151 0.0
C356 C 0.99986 0.66418 0.21011 0.0
C357 C 1.01144 0.64658 0.18144 0.0
C358 C 0.91806 0.59104 0.24467 0.0
C359 C 0.02089 0.7016 0.21811 0.0
H360 H 0.89808 0.70655 0.29424 0.0
H361 H 0.97666 0.67316 0.35411 0.0
H362 H 0.93398 0.69542 0.20845 0.0
H363 H 0.89658 0.65782 0.21824 0.0
H364 H 0.8936 0.69996 0.23165 0.0
H365 H 1.01667 0.64512 0.32788 0.0
H366 H 0.99348 0.61581 0.29235 0.0
H367 H 0.02859 0.65493 0.28214 0.0
H368 H 0.94807 0.56741 0.18768 0.0
H369 H 0.03541 0.66008 0.16596 0.0
H370 H 0.89659 0.60465 0.24647 0.0
H371 H 0.92764 0.5891 0.27216 0.0
H372 H 0.90504 0.56451 0.23345 0.0
H373 H 1.00132 0.71723 0.22034 0.0
H374 H 0.04176 0.71259 0.19736 0.0
H375 H 0.03547 0.70405 0.24406 0.0
C376 C 0.48015 0.2978 0.2138 0.0
C377 C 0.44693 0.28944 0.23333 0.0
C378 C 0.49352 0.27188 0.1984 0.0
C379 C 0.47422 0.23675 0.20402 0.0
C380 C 0.44225 0.22811 0.22567 0.0
C381 C 0.42848 0.25439 0.23923 0.0
C382 C 0.52718 0.28209 0.17462 0.0
C383 C 0.42157 0.19097 0.23331 0.0
C384 C 0.47814 0.16866 0.13405 0.0
C385 C 0.50613 0.15641 0.14756 0.0
C386 C 0.46804 0.19529 0.15191 0.0
C387 C 0.48539 0.20894 0.18475 0.0
C388 C 0.51293 0.19581 0.19905 0.0
C389 C 0.52359 0.17014 0.17981 0.0
C390 C 0.43944 0.20936 0.13519 0.0
C391 C 0.53089 0.20868 0.23468 0.0
H392 H 0.49536 0.32461 0.2097 0.0
H393 H 0.40235 0.24702 0.25335 0.0
H394 H 0.54853 0.27039 0.18358 0.0
H395 H 0.51904 0.27209 0.1471 0.0
H396 H 0.53988 0.31056 0.17403 0.0
H397 H 0.40091 0.18892 0.25491 0.0
H398 H 0.40666 0.17782 0.20901 0.0
H399 H 0.4413 0.17687 0.24099 0.0
H400 H 0.46518 0.15835 0.10874 0.0
H401 H 0.54529 0.16052 0.19012 0.0
H402 H 0.45116 0.23768 0.13217 0.0
H403 H 0.4148 0.20503 0.15265 0.0
H404 H 0.43007 0.19711 0.10866 0.0
H405 H 0.54574 0.23673 0.23402 0.0
H406 H 0.55097 0.19497 0.24252 0.0
H407 H 0.50919 0.20515 0.25545 0.0
C408 C 0.11624 0.90477 0.65051 0.0
C409 C 0.14523 0.90027 0.67077 0.0
C410 C 0.1172 0.93773 0.6396 0.0
C411 C 0.14797 0.9666 0.64935 0.0
C412 C 0.17723 0.962 0.67011 0.0
C413 C 0.17554 0.92866 0.68052 0.0
C414 C 0.08538 0.94161 0.61752 0.0
C415 C 0.21026 0.99217 0.68113 0.0
C416 C 0.15495 0.04102 0.58923 0.0
C417 C 0.13319 0.05802 0.60802 0.0
C418 C 0.163 1.01264 0.6038 0.0
C419 C 0.14886 1.00145 0.63777 0.0
C420 C 0.13035 1.02107 0.6582 0.0
C421 C 0.12271 0.04922 0.64294 0.0
C422 C 0.18307 0.99253 0.5813 0.0
C423 C 0.11513 1.01029 0.69462 0.0
H424 H 0.09298 0.88249 0.64299 0.0
H425 H 0.19803 0.92477 0.69607 0.0
H426 H 0.07224 0.95943 0.63143 0.0
H427 H 0.09593 0.95309 0.59173 0.0
H428 H 0.0637 0.91653 0.61212 0.0
H429 H 0.23033 0.98424 0.69783 0.0
H430 H 0.22489 1.00471 0.6572 0.0
H431 H 0.20079 1.01187 0.69624 0.0
H432 H 0.16259 0.04773 0.56199 0.0
H433 H 0.10619 0.06285 0.65739 0.0
H434 H 0.16268 0.96848 0.57065 0.0
H435 H 0.20371 0.98489 0.59743 0.0
H436 H 0.19755 1.00758 0.55853 0.0
H437 H 0.0899 0.98762 0.69181 0.0
H438 H 0.10736 1.03131 0.70925 0.0
H439 H 0.13566 1.0025 0.71074 0.0
C440 C 0.79844 0.46296 0.93035 0.0
C441 C 0.76629 0.44833 0.95036 0.0
C442 C 0.8323 0.48213 0.94685 0.0
C443 C 0.83433 0.48718 0.98439 0.0
C444 C 0.80163 0.47355 1.00457 0.0
C445 C 0.76826 0.45435 0.98743 0.0
C446 C 0.86628 0.496 0.92415 0.0
C447 C 0.80209 0.47849 0.04452 0.0
C448 C 0.92812 0.50307 1.03203 0.0
C449 C 0.93947 0.53901 1.03872 0.0
C450 C 0.89436 0.4861 1.0142 0.0
C451 C 0.87087 0.50528 1.00274 0.0
C452 C 0.88214 0.54157 1.00938 0.0
C453 C 0.91616 0.55791 1.02709 0.0
C454 C 0.88379 0.44747 1.00768 0.0
C455 C 0.85814 0.56321 0.99795 0.0
H456 H 0.79757 0.45825 0.90181 0.0
H457 H 0.74363 0.44361 1.00323 0.0
H458 H 0.87882 0.52411 0.92968 0.0
H459 H 0.8875 0.48323 0.93085 0.0
H460 H 0.85982 0.49166 0.89528 0.0
H461 H 0.774 0.46802 0.05624 0.0
H462 H 0.82087 0.46533 0.0564 0.0
H463 H 0.81311 0.50635 0.05207 0.0
H464 H 0.94572 0.48804 1.04063 0.0
H465 H 0.92435 0.58564 1.03197 0.0
H466 H 0.87955 0.44117 0.9788 0.0
H467 H 0.8571 0.43482 1.02105 0.0
H468 H 0.90527 0.43628 1.01758 0.0
H469 H 0.85337 0.56014 0.9688 0.0
H470 H 0.87081 0.59111 1.00485 0.0
H471 H 0.83053 0.55421 1.01084 0.0
C472 C 0.77616 0.68283 0.45095 0.0
C473 C 0.80121 0.71364 0.46501 0.0
C474 C 0.7427 0.66599 0.46841 0.0
C475 C 0.7328 0.68085 0.50007 0.0
C476 C 0.75729 0.71224 0.51401 0.0
C477 C 0.79131 0.72767 0.49695 0.0
C478 C 0.71813 0.63199 0.45314 0.0
C479 C 0.7476 0.72966 0.54713 0.0
C480 C 0.63071 0.65532 0.52852 0.0
C481 C 0.63092 0.6352 0.55807 0.0
C482 C 0.66351 0.67014 0.50927 0.0
C483 C 0.69708 0.6636 0.51892 0.0
C484 C 0.69682 0.64189 0.54783 0.0
C485 C 0.66399 0.62866 0.56754 0.0
C486 C 0.6626 0.69411 0.47965 0.0
C487 C 0.73137 0.63299 0.55829 0.0
H488 H 0.78249 0.67166 0.42612 0.0
H489 H 0.81028 0.75064 0.50925 0.0
H490 H 0.71291 0.61199 0.47358 0.0
H491 H 0.69077 0.63457 0.44539 0.0
H492 H 0.73062 0.62283 0.42946 0.0
H493 H 0.76799 0.7554 0.55291 0.0
H494 H 0.71959 0.73297 0.54425 0.0
H495 H 0.74669 0.71326 0.57033 0.0
H496 H 0.60523 0.66078 0.52147 0.0
H497 H 0.66414 0.61309 0.59041 0.0
H498 H 0.67278 0.68513 0.45459 0.0
H499 H 0.68147 0.72033 0.48633 0.0
H500 H 0.63422 0.69602 0.47494 0.0
H501 H 0.74364 0.62364 0.53461 0.0
H502 H 0.72561 0.61286 0.57867 0.0
H503 H 0.75252 0.65641 0.56914 0.0
C504 C 0.32126 0.40273 0.20885 0.0
C505 C 0.3568 0.42438 0.20147 0.0
C506 C 0.28971 0.41308 0.20204 0.0
C507 C 0.29412 0.44583 0.18746 0.0
C508 C 0.33027 0.46808 0.18075 0.0
C509 C 0.36133 0.45697 0.1878 0.0
C510 C 0.25169 0.38862 0.20953 0.0
C511 C 0.33605 0.50322 0.16542 0.0
C512 C 0.21295 0.45654 0.13476 0.0
C513 C 0.19626 0.47354 0.15971 0.0
C514 C 0.24495 0.4476 0.1434 0.0
C515 C 0.26084 0.45609 0.17777 0.0
C516 C 0.24452 0.47371 0.20293 0.0
C517 C 0.21235 0.48215 0.19363 0.0
C518 C 0.26157 0.4288 0.11584 0.0
C519 C 0.26075 0.48324 0.2398 0.0
H520 H 0.31812 0.37743 0.21938 0.0
H521 H 0.38908 0.47351 0.18213 0.0
H522 H 0.23577 0.40166 0.22685 0.0
H523 H 0.23587 0.38089 0.18427 0.0
H524 H 0.25321 0.36492 0.22263 0.0
H525 H 0.36597 0.51805 0.16349 0.0
H526 H 0.32347 0.50026 0.13845 0.0
H527 H 0.32189 0.51845 0.18208 0.0
H528 H 0.20107 0.45033 0.10831 0.0
H529 H 0.19938 0.49491 0.2132 0.0
H530 H 0.2617 0.40342 0.12586 0.0
H531 H 0.29089 0.44383 0.11078 0.0
H532 H 0.24603 0.42439 0.09024 0.0
H533 H 0.26 0.45949 0.25398 0.0
H534 H 0.24548 0.49798 0.25583 0.0
H535 H 0.29033 0.49901 0.23813 0.0
C536 C 0.65655 0.33093 0.98475 0.0
C537 C 0.66601 0.33321 0.94854 0.0
C538 C 0.63887 0.29879 1.00001 0.0
C539 C 0.6308 0.26784 0.97883 0.0
C540 C 0.64121 0.26993 0.94249 0.0
C541 C 0.65836 0.30241 0.92782 0.0
C542 C 0.62789 0.29807 1.03866 0.0
C543 C 0.63375 0.23779 0.91888 0.0
C544 C 0.60706 0.17982 1.02346 0.0
C545 C 0.56822 0.16801 1.02015 0.0
C546 C 0.62786 0.21224 1.01041 0.0
C547 C 0.60938 0.23359 0.9939 0.0
C548 C 0.57007 0.22177 0.99095 0.0
C549 C 0.55017 0.18919 1.00374 0.0
C550 C 0.66967 0.22338 1.01371 0.0
C551 C 0.54891 0.24352 0.97412 0.0
H552 H 0.6621 0.35447 1.00101 0.0
H553 H 0.66605 0.30368 0.9 0.0
H554 H 0.59718 0.28808 1.04087 0.0
H555 H 0.63962 0.28028 0.05309 0.0
H556 H 0.63749 0.32406 0.052 0.0
H557 H 0.64564 0.24343 0.89189 0.0
H558 H 0.64564 0.21886 0.93103 0.0
H559 H 0.60333 0.22534 0.91619 0.0
H560 H 0.62129 0.16335 1.03532 0.0
H561 H 0.52013 0.18035 1.00111 0.0
H562 H 0.67958 0.24887 1.02793 0.0
H563 H 0.68225 0.22649 0.98684 0.0
H564 H 0.67984 0.20448 1.02812 0.0
H565 H 0.55578 0.26927 0.98789 0.0
H566 H 0.51832 0.2313 0.97507 0.0
H567 H 0.55725 0.24782 0.94593 0.0
C568 C 0.94921 0.82927 0.45876 0.0
C569 C 0.91163 0.81942 0.44821 0.0
C570 C 0.96716 0.86272 0.47307 0.0
C571 C 0.9472 0.88718 0.47725 0.0
C572 C 0.90969 0.87781 0.46555 0.0
C573 C 0.89253 0.84432 0.4511 0.0
C574 C 1.00724 0.87151 0.48482 0.0
C575 C 0.88721 0.90286 0.46934 0.0
C576 C 0.97948 0.959 0.54918 0.0
C577 C 0.99812 0.98786 0.52939 0.0
C578 C 0.96286 0.92634 0.5326 0.0
C579 C 0.96497 0.92198 0.49517 0.0
C580 C 0.98379 0.95096 0.47502 0.0
C581 C 0.99994 0.98342 0.49227 0.0
C582 C 0.94295 0.8964 0.55525 0.0
C583 C 0.98706 0.94762 0.43517 0.0
H584 H 0.9643 0.81038 0.45719 0.0
H585 H 0.86374 0.83743 0.44256 0.0
H586 H 0.02397 0.89581 0.47272 0.0
H587 H 1.00914 0.87587 0.5141 0.0
H588 H 1.01972 0.85068 0.47751 0.0
H589 H 0.85888 0.89223 0.45769 0.0
H590 H 0.88455 0.90935 0.49791 0.0
H591 H 0.90162 0.92731 0.45619 0.0
H592 H 0.97779 0.96188 0.57781 0.0
H593 H 1.01436 1.00531 0.47657 0.0
H594 H 0.95598 0.87536 0.55196 0.0
H595 H 0.91355 0.88575 0.54646 0.0
H596 H 0.94348 0.90396 0.58393 0.0
H597 H 1.0013 0.928 0.42832 0.0
H598 H 1.00275 0.97244 0.42326 0.0
H599 H 0.95897 0.93855 0.42286 0.0
C600 C 0.25413 0.75727 0.73921 0.0
C601 C 0.23879 0.77256 0.71281 0.0
C602 C 0.27904 0.73875 0.73044 0.0
C603 C 0.28827 0.73502 0.69436 0.0
C604 C 0.26983 0.74721 0.66738 0.0
C605 C 0.24541 0.76607 0.67694 0.0
C606 C 0.29808 0.72613 0.76003 0.0
C607 C 0.27838 0.74308 0.62856 0.0
C608 C 0.38833 0.7384 0.67828 0.0
C609 C 0.38561 0.70334 0.67346 0.0
C610 C 0.35671 0.74893 0.68456 0.0
C611 C 0.32134 0.72381 0.68551 0.0
C612 C 0.31813 0.68845 0.67952 0.0
C613 C 0.3504 0.67858 0.67379 0.0
C614 C 0.36131 0.78696 0.69087 0.0
C615 C 0.2808 0.66106 0.67988 0.0
H616 H 0.24841 0.7616 0.76695 0.0
H617 H 0.2337 0.77784 0.65637 0.0
H618 H 0.2987 0.69938 0.75404 0.0
H619 H 0.32733 0.74283 0.76247 0.0
H620 H 0.2842 0.72675 0.78603 0.0
H621 H 0.25694 0.74786 0.61099 0.0
H622 H 0.30564 0.76182 0.62227 0.0
H623 H 0.28037 0.71678 0.62241 0.0
H624 H 0.41534 0.75771 0.67726 0.0
H625 H 0.3481 0.6514 0.67036 0.0
H626 H 0.35085 0.79136 0.71767 0.0
H627 H 0.34465 0.79583 0.67117 0.0
H628 H 0.39077 0.80314 0.68897 0.0
H629 H 0.26899 0.65955 0.70704 0.0
H630 H 0.28274 0.63514 0.67159 0.0
H631 H 0.26101 0.66792 0.66192 0.0
C632 C 0.7895 0.89264 0.87685 0.0
C633 C 0.75417 0.87198 0.86591 0.0
C634 C 0.81298 0.91522 0.85343 0.0
C635 C 0.80087 0.91681 0.81814 0.0
C636 C 0.76426 0.8976 0.80766 0.0
C637 C 0.74117 0.8754 0.83185 0.0
C638 C 0.85161 0.93564 0.86582 0.0
C639 C 0.75041 0.89866 0.77028 0.0
C640 C 0.86284 0.98917 0.76443 0.0
C641 C 0.88681 0.97261 0.74838 0.0
C642 C 0.83354 0.97102 0.7861 0.0
C643 C 0.8281 0.93551 0.79155 0.0
C644 C 0.85115 0.91834 0.774 0.0
C645 C 0.88035 0.93716 0.75275 0.0
C646 C 0.80963 0.99018 0.80451 0.0
C647 C 0.84597 0.88037 0.77883 0.0
H648 H 0.7993 0.89005 0.90337 0.0
H649 H 0.71384 0.85921 0.82348 0.0
H650 H 0.87237 0.92533 0.85215 0.0
H651 H 0.85779 0.96314 0.85885 0.0
H652 H 0.85521 0.93434 0.89498 0.0
H653 H 0.71991 0.88625 0.76784 0.0
H654 H 0.75714 0.92571 0.7616 0.0
H655 H 0.76456 0.88489 0.75181 0.0
H656 H 0.86795 1.01666 0.76122 0.0
H657 H 0.89855 0.92425 0.7399 0.0
H658 H 0.81577 0.99249 0.83345 0.0
H659 H 0.77974 0.9757 0.80113 0.0
H660 H 0.81459 1.01656 0.79428 0.0
H661 H 0.85233 0.87612 0.80677 0.0
H662 H 0.86423 0.87034 0.76106 0.0
H663 H 0.81663 0.86509 0.77347 0.0
C664 C 0.72205 0.22137 0.41803 0.0
C665 C 0.75835 0.23993 0.42854 0.0
C666 C 0.71181 0.21733 0.38203 0.0
C667 C 0.73852 0.23235 0.35602 0.0
C668 C 0.77423 0.25359 0.36669 0.0
C669 C 0.78378 0.25704 0.4029 0.0
C670 C 0.67339 0.19454 0.37175 0.0
C671 C 0.80322 0.27056 0.33978 0.0
C672 C 0.72811 0.17976 0.26973 0.0
C673 C 0.70925 0.19664 0.24823 0.0
C674 C 0.73883 0.19188 0.3045 0.0
C675 C 0.73068 0.22176 0.31802 0.0
C676 C 0.71305 0.23979 0.29597 0.0
C677 C 0.70234 0.22689 0.26132 0.0
C678 C 0.75748 0.17182 0.32726 0.0
C679 C 0.70441 0.27199 0.30935 0.0
H680 H 0.70236 0.20789 0.43769 0.0
H681 H 0.81173 0.27183 0.41105 0.0
H682 H 0.66069 0.20712 0.35176 0.0
H683 H 0.67541 0.16994 0.35948 0.0
H684 H 0.6546 0.18839 0.39504 0.0
H685 H 0.82704 0.29066 0.35233 0.0
H686 H 0.81396 0.2507 0.3265 0.0
H687 H 0.79097 0.28254 0.31888 0.0
H688 H 0.73308 0.15615 0.25989 0.0
H689 H 0.68809 0.24019 0.24458 0.0
H690 H 0.73942 0.16128 0.35014 0.0
H691 H 0.78408 0.18911 0.3382 0.0
H692 H 0.76328 0.15001 0.31223 0.0
H693 H 0.68282 0.2652 0.33024 0.0
H694 H 0.69418 0.28494 0.28779 0.0
H695 H 0.72951 0.29057 0.32163 0.0
C696 C 0.39778 0.69752 0.38676 0.0
C697 C 0.42565 0.72058 0.36724 0.0
C698 C 0.40687 0.67865 0.41459 0.0
C699 C 0.44474 0.68331 0.42352 0.0
C700 C 0.47281 0.7064 0.40341 0.0
C701 C 0.46293 0.7246 0.37565 0.0
C702 C 0.37594 0.65417 0.43486 0.0
C703 C 0.51347 0.71256 0.41175 0.0
C704 C 0.47347 0.66251 0.51628 0.0
C705 C 0.48188 0.63138 0.50968 0.0
C706 C 0.46051 0.67916 0.48887 0.0
C707 C 0.45533 0.66437 0.45381 0.0
C708 C 0.46258 0.63238 0.44733 0.0
C709 C 0.47584 0.61649 0.47508 0.0
C710 C 0.45347 0.71326 0.49724 0.0
C711 C 0.45719 0.61524 0.41072 0.0
H712 H 0.3689 0.69471 0.38076 0.0
H713 H 0.48458 0.74283 0.36102 0.0
H714 H 0.37962 0.62804 0.43436 0.0
H715 H 0.37695 0.66308 0.46313 0.0
H716 H 0.34807 0.65218 0.4238 0.0
H717 H 0.53196 0.73107 0.39353 0.0
H718 H 0.51954 0.72286 0.43946 0.0
H719 H 0.52031 0.68782 0.40978 0.0
H720 H 0.47796 0.67445 0.54272 0.0
H721 H 0.48191 0.5924 0.46941 0.0
H722 H 0.42498 0.71214 0.48875 0.0
H723 H 0.4732 0.73393 0.48216 0.0
H724 H 0.45673 0.7205 0.52603 0.0
H725 H 0.42881 0.61257 0.40066 0.0
H726 H 0.46135 0.58927 0.41046 0.0
H727 H 0.47718 0.6316 0.39198 0.0
C728 C 0.17972 0.49629 0.893 0.0
C729 C 0.15751 0.48377 0.8628 0.0
C730 C 0.16748 0.51432 0.92097 0.0
C731 C 0.13193 0.5196 0.919 0.0
C732 C 0.10973 0.50725 0.88818 0.0
C733 C 0.12277 0.48957 0.8606 0.0
C734 C 0.19229 0.52713 0.953 0.0
C735 C 0.07172 0.51202 0.88465 0.0
C736 C 0.08176 0.5376 1.00348 0.0
C737 C 0.08758 0.57334 1.00234 0.0
C738 C 0.09668 0.51989 0.97714 0.0
C739 C 0.11794 0.53826 0.94877 0.0
C740 C 0.12433 0.57447 0.94795 0.0
C741 C 0.10902 0.59139 0.97448 0.0
C742 C 0.0888 0.4813 0.97918 0.0
C743 C 0.1468 0.59537 0.91858 0.0
H744 H 0.20627 0.49124 0.89516 0.0
H745 H 0.10517 0.47929 0.83764 0.0
H746 H 0.19729 0.55534 0.95735 0.0
H747 H 0.17835 0.51435 0.97711 0.0
H748 H 0.21953 0.52204 0.95012 0.0
H749 H 0.05798 0.50122 0.85898 0.0
H750 H 0.05368 0.49918 0.90668 0.0
H751 H 0.07395 0.5399 0.88675 0.0
H752 H 0.06456 0.52326 1.02425 0.0
H753 H 0.11365 0.61902 0.9732 0.0
H754 H 0.11516 0.47447 0.97801 0.0
H755 H 0.07164 0.46826 0.95597 0.0
H756 H 0.07387 0.47105 1.00389 0.0
H757 H 0.17444 0.59101 0.91682 0.0
H758 H 0.15094 0.62351 0.92265 0.0
H759 H 0.13252 0.58684 0.89267 0.0
C760 C 0.62747 0.89905 0.92368 0.0
C761 C 0.61875 0.87188 0.94729 0.0
C762 C 0.6193 0.92996 0.93222 0.0
C763 C 0.60217 0.93347 0.96513 0.0
C764 C 0.59275 0.90559 0.98867 0.0
C765 C 0.60125 0.87508 0.97941 0.0
C766 C 0.62967 0.95904 0.90647 0.0
C767 C 0.57444 0.90826 1.02398 0.0
C768 C 0.61263 1.02003 1.01178 0.0
C769 C 0.57704 1.0236 1.00723 0.0
C770 C 0.62196 0.99179 0.99642 0.0
C771 C 0.59511 0.96655 0.97589 0.0
C772 C 0.56014 0.97133 0.96898 0.0
C773 C 0.55151 0.99979 0.98471 0.0
C774 C 0.65968 0.98777 1.00421 0.0
C775 C 0.53089 0.94518 0.94694 0.0
H776 H 0.64114 0.89635 0.89883 0.0
H777 H 0.59476 0.85389 0.99759 0.0
H778 H 0.605 0.96738 0.90021 0.0
H779 H 0.65079 0.98169 0.91879 0.0
H780 H 0.64107 0.95154 0.88125 0.0
H781 H 0.56796 0.88389 1.03871 0.0
H782 H 0.59299 0.92937 1.04076 0.0
H783 H 0.54825 0.91481 1.01986 0.0
H784 H 0.63272 1.03833 1.02886 0.0
H785 H 0.52401 1.00234 0.98074 0.0
H786 H 0.67272 0.98165 0.97939 0.0
H787 H 0.65644 0.96589 1.02216 0.0
H788 H 0.67878 1.01142 1.01713 0.0
H789 H 0.54306 0.9382 0.92197 0.0
H790 H 0.50724 0.95487 0.94012 0.0
H791 H 0.51996 0.92119 0.962 0.0
C792 C 0.86588 0.21171 0.53952 0.0
C793 C 0.84422 0.20414 0.5084 0.0
C794 C 0.89297 0.19535 0.54593 0.0
C795 C 0.89913 0.17148 0.5202 0.0
C796 C 0.87918 0.16545 0.48772 0.0
C797 C 0.85158 0.18148 0.4824 0.0
C798 C 0.91353 0.20218 0.58106 0.0
C799 C 0.88565 0.14076 0.45934 0.0
C800 C 0.98479 0.14321 0.53563 0.0
C801 C 0.96935 0.11218 0.55301 0.0
C802 C 0.96207 0.16214 0.5231 0.0
C803 C 0.92329 0.15006 0.52907 0.0
C804 C 0.90752 0.11817 0.54563 0.0
C805 C 0.93076 0.0994 0.55703 0.0
C806 C 0.97968 0.19559 0.50468 0.0
C807 C 0.8663 0.10461 0.55284 0.0
H808 H 0.86098 0.22978 0.55936 0.0
H809 H 0.83477 0.17504 0.45843 0.0
H810 H 0.90578 0.17825 0.59654 0.0
H811 H 0.94397 0.20949 0.57667 0.0
H812 H 0.90715 0.22304 0.59727 0.0
H813 H 0.87213 0.14297 0.43371 0.0
H814 H 0.91586 0.14558 0.4548 0.0
H815 H 0.87422 0.11383 0.46819 0.0
H816 H 1.01466 0.15324 0.53273 0.0
H817 H 0.91879 0.07535 0.57042 0.0
H818 H 0.97864 0.21769 0.52233 0.0
H819 H 0.96409 0.19674 0.48004 0.0
H820 H 1.00919 0.19883 0.49774 0.0
H821 H 0.85786 0.12304 0.57093 0.0
H822 H 0.85843 0.07893 0.56519 0.0
H823 H 0.85028 0.10239 0.52777 0.0
C824 C 0.29034 0.71989 0.2453 0.0
C825 C 0.32193 0.73615 0.22526 0.0
C826 C 0.2568 0.70006 0.22867 0.0
C827 C 0.25462 0.69608 0.19102 0.0
C828 C 0.28691 0.71121 0.17083 0.0
C829 C 0.31993 0.73094 0.18809 0.0
C830 C 0.22324 0.68443 0.25136 0.0
C831 C 0.28632 0.70745 0.13078 0.0
C832 C 0.17389 0.62564 0.14635 0.0
C833 C 0.1498 0.64434 0.13631 0.0
C834 C 0.20787 0.64194 0.16418 0.0
C835 C 0.21823 0.67793 0.17253 0.0
C836 C 0.1941 0.69694 0.16235 0.0
C837 C 0.16046 0.68005 0.14438 0.0
C838 C 0.23262 0.62054 0.17422 0.0
C839 C 0.20379 0.73529 0.17051 0.0
H840 H 0.29135 0.72384 0.27395 0.0
H841 H 0.34423 0.74286 0.17229 0.0
H842 H 0.20132 0.6967 0.24572 0.0
H843 H 0.21151 0.65643 0.24475 0.0
H844 H 0.22993 0.68784 0.28022 0.0
H845 H 0.31424 0.71886 0.11903 0.0
H846 H 0.27594 0.67976 0.12237 0.0
H847 H 0.26696 0.72042 0.11967 0.0
H848 H 0.16633 0.59817 0.14014 0.0
H849 H 0.14222 0.69492 0.13707 0.0
H850 H 0.23462 0.62013 0.2036 0.0
H851 H 0.26118 0.63222 0.16408 0.0
H852 H 0.22206 0.59348 0.16363 0.0
H853 H 0.20784 0.74048 0.19958 0.0
H854 H 0.18192 0.74635 0.16136 0.0
H855 H 0.23037 0.74896 0.15751 0.0
C856 C 0.27581 0.49145 0.70864 0.0
C857 C 0.27589 0.46621 0.73322 0.0
C858 C 0.30841 0.50878 0.69008 0.0
C859 C 0.34195 0.50065 0.69615 0.0
C860 C 0.34252 0.47668 0.72263 0.0
C861 C 0.30951 0.45958 0.74053 0.0
C862 C 0.30622 0.53399 0.66216 0.0
C863 C 0.37747 0.46733 0.73045 0.0
C864 C 0.40964 0.50329 0.61968 0.0
C865 C 0.43865 0.53365 0.62739 0.0
C866 C 0.37784 0.49302 0.64121 0.0
C867 C 0.37477 0.5133 0.67179 0.0
C868 C 0.4037 0.54442 0.67942 0.0
C869 C 0.4352 0.55426 0.65707 0.0
C870 C 0.34768 0.45999 0.63142 0.0
C871 C 0.4019 0.56685 0.71169 0.0
H872 H 0.24974 0.49617 0.70242 0.0
H873 H 0.30955 0.43971 0.75911 0.0
H874 H 0.33019 0.55782 0.66458 0.0
H875 H 0.30749 0.52216 0.63537 0.0
H876 H 0.28007 0.54121 0.66405 0.0
H877 H 0.37475 0.45185 0.75469 0.0
H878 H 0.38375 0.45202 0.70764 0.0
H879 H 0.40148 0.491 0.73396 0.0
H880 H 0.41187 0.48725 0.59669 0.0
H881 H 0.45739 0.57766 0.66327 0.0
H882 H 0.32047 0.46511 0.62933 0.0
H883 H 0.34517 0.44101 0.65257 0.0
H884 H 0.35327 0.44812 0.60582 0.0
H885 H 0.37485 0.57244 0.71256 0.0
H886 H 0.42467 0.59171 0.71214 0.0
H887 H 0.40393 0.55286 0.7361 0.0
C888 C 0.75112 0.76105 0.96989 0.0
C889 C 0.75125 0.76844 0.93374 0.0
C890 C 0.77606 0.74482 0.98342 0.0
C891 C 0.80187 0.73617 0.96026 0.0
C892 C 0.80009 0.74113 0.92334 0.0
C893 C 0.77459 0.75694 0.91051 0.0
C894 C 0.7766 0.73929 1.02286 0.0
C895 C 0.8271 0.73235 0.89772 0.0
C896 C 0.8967 0.74344 0.99893 0.0
C897 C 0.89499 0.7087 1.0025 0.0
C898 C 0.86663 0.75256 0.98506 0.0
C899 C 0.83365 0.72634 0.97503 0.0
C900 C 0.83153 0.69121 0.97866 0.0
C901 C 0.86233 0.68279 0.99206 0.0
C902 C 0.87016 0.79037 0.98125 0.0
C903 C 0.79671 0.66258 0.96852 0.0
H904 H 0.73324 0.7699 0.98802 0.0
H905 H 0.77423 0.76195 0.8824 0.0
H906 H 0.77872 0.71317 1.028 0.0
H907 H 0.80137 0.75842 1.03506 0.0
H908 H 0.75138 0.7423 1.03624 0.0
H909 H 0.81913 0.73376 0.86955 0.0
H910 H 0.85525 0.75077 0.90229 0.0
H911 H 0.82897 0.70605 0.9022 0.0
H912 H 0.9214 0.76369 1.00757 0.0
H913 H 0.86085 0.65585 0.99424 0.0
H914 H 0.84878 0.79735 0.9976 0.0
H915 H 0.86524 0.79545 0.95317 0.0
H916 H 0.89799 0.80753 0.98958 0.0
H917 H 0.7727 0.66598 0.98372 0.0
H918 H 0.79927 0.63658 0.97367 0.0
H919 H 0.79037 0.66371 0.93991 0.0
C920 C 0.39832 0.87184 0.21324 0.0
C921 C 0.42065 0.85206 0.22489 0.0
C922 C 0.41402 0.90432 0.1979 0.0
C923 C 0.45309 0.91737 0.19338 0.0
C924 C 0.47572 0.89729 0.20471 0.0
C925 C 0.45934 0.86521 0.22053 0.0
C926 C 0.38876 0.92487 0.18688 0.0
C927 C 0.51735 0.90963 0.19993 0.0
C928 C 0.4925 0.98687 0.12473 0.0
C929 C 0.50619 1.01692 0.14626 0.0
C930 C 0.47502 0.95451 0.13959 0.0
C931 C 0.47038 0.95197 0.17697 0.0
C932 C 0.48323 0.98249 0.19871 0.0
C933 C 0.50123 1.0144 0.18318 0.0
C934 C 0.46245 0.92283 0.11527 0.0
C935 C 0.4784 0.98137 0.23853 0.0
H936 H 0.36848 0.8622 0.21678 0.0
H937 H 0.47687 0.85007 0.22905 0.0
H938 H 0.39679 0.95037 0.20123 0.0
H939 H 0.39184 0.92986 0.15805 0.0
H940 H 0.35905 0.9114 0.19239 0.0
H941 H 0.53102 0.89074 0.2093 0.0
H942 H 0.52409 0.91435 0.17145 0.0
H943 H 0.52932 0.93453 0.21481 0.0
H944 H 0.49653 0.98841 0.09623 0.0
H945 H 0.51169 1.03745 0.20002 0.0
H946 H 0.43237 0.90969 0.11899 0.0
H947 H 0.47753 0.90421 0.12211 0.0
H948 H 0.46739 0.92911 0.0868 0.0
H949 H 0.44872 0.96923 0.24515 0.0
H950 H 0.48793 1.00751 0.25155 0.0
H951 H 0.49439 0.96524 0.24986 0.0
C952 C 0.20482 0.33168 0.70902 0.0
C953 C 0.18019 0.35011 0.7197 0.0
C954 C 0.19203 0.29906 0.69129 0.0
C955 C 0.15358 0.28429 0.68375 0.0
C956 C 0.1286 0.3028 0.69432 0.0
C957 C 0.14213 0.33528 0.71214 0.0
C958 C 0.21969 0.28029 0.68081 0.0
C959 C 0.08747 0.28834 0.68667 0.0
C960 C 0.12216 0.21431 0.60993 0.0
C961 C 0.10981 0.18388 0.62922 0.0
C962 C 0.13678 0.24694 0.62722 0.0
C963 C 0.1394 0.24953 0.66486 0.0
C964 C 0.12765 0.21887 0.68445 0.0
C965 C 0.11299 0.18658 0.66649 0.0
C966 C 0.14884 0.27879 0.60516 0.0
C967 C 0.13005 0.22022 0.72453 0.0
H968 H 0.2342 0.34253 0.71503 0.0
H969 H 0.12283 0.34934 0.71975 0.0
H970 H 0.21242 0.25492 0.69366 0.0
H971 H 0.21857 0.27511 0.65164 0.0
H972 H 0.24862 0.29521 0.68844 0.0
H973 H 0.07166 0.30587 0.69649 0.0
H974 H 0.0827 0.28378 0.65761 0.0
H975 H 0.07616 0.26303 0.69934 0.0
H976 H 0.11985 0.21278 0.58119 0.0
H977 H 0.10363 0.16342 0.68181 0.0
H978 H 0.17827 0.29336 0.61112 0.0
H979 H 0.13188 0.29615 0.61209 0.0
H980 H 0.14598 0.27246 0.57617 0.0
H981 H 0.15902 0.23352 0.7333 0.0
H982 H 0.12105 0.19408 0.73586 0.0
H983 H 0.11231 0.23539 0.73569 0.0
C984 C 0.65633 0.26119 0.52911 0.0
C985 C 0.68271 0.26848 0.55649 0.0
C986 C 0.63455 0.28319 0.52356 0.0
C987 C 0.63976 0.31304 0.54588 0.0
C988 C 0.66545 0.31953 0.57454 0.0
C989 C 0.68678 0.29707 0.57945 0.0
C990 C 0.60742 0.27545 0.4928 0.0
C991 C 0.67182 0.35112 0.59886 0.0
C992 C 0.62372 0.39332 0.50979 0.0
C993 C 0.59037 0.3934 0.52637 0.0
C994 C 0.63934 0.36659 0.51495 0.0
C995 C 0.62123 0.33932 0.53735 0.0
C996 C 0.5869 0.33854 0.55319 0.0
C997 C 0.57185 0.36566 0.54752 0.0
C998 C 0.67606 0.36833 0.4976 0.0
C999 C 0.56676 0.30972 0.57704 0.0
H1000 H 0.65363 0.23899 0.51134 0.0
H1001 H 0.70755 0.30252 0.60045 0.0
H1002 H 0.57992 0.27719 0.50168 0.0
H1003 H 0.61761 0.29493 0.47215 0.0
H1004 H 0.60373 0.24937 0.4805 0.0
H1005 H 0.69052 0.35086 0.62152 0.0
H1006 H 0.68443 0.37471 0.58362 0.0
H1007 H 0.64498 0.35296 0.60953 0.0
H1008 H 0.63848 0.41492 0.49387 0.0
H1009 H 0.54584 0.36543 0.56006 0.0
H1010 H 0.67394 0.34388 0.48252 0.0
H1011 H 0.69777 0.37158 0.51836 0.0
H1012 H 0.68529 0.3901 0.47918 0.0
H1013 H 0.56336 0.28425 0.56352 0.0
H1014 H 0.53891 0.31141 0.58491 0.0
H1015 H 0.58347 0.31074 0.60148 0.0
loop_
_geom_bond_atom_site_label_1
_geom_bond_atom_site_label_2
_geom_bond_distance
_geom_bond_site_symmetry_2
_ccdc_geom_bond_type
H0 C3 0.929 . S
H1 C6 0.929 . S
H2 C8 0.930 . S
C3 H0 0.929 . S
C3 C4 1.398 . S
C3 C5 1.396 . S
C4 C3 1.398 . S
C4 C8 1.407 . S
C5 C3 1.396 . S
C5 C6 1.394 . S
C6 H1 0.929 . S
C6 C5 1.394 . S
C6 C7 1.382 . S
C7 C6 1.382 . S
C7 C8 1.392 . S
C7 N9 1.420 . S
C8 H2 0.930 . S
C8 C4 1.407 . S
C8 C7 1.392 . S
N9 C7 1.420 . S
N9 C10 1.244 . S
C10 N9 1.244 . S
H11 C14 0.929 . S
H12 C17 0.929 . S
H13 C19 0.930 . S
C14 H11 0.929 . S
C14 C15 1.398 . S
C14 C16 1.396 . S
C15 C14 1.398 . S
C15 C19 1.407 . S
C16 C14 1.396 . S
C16 C17 1.394 . S
C17 H12 0.929 . S
C17 C16 1.394 . S
C17 C18 1.382 . S
C18 C17 1.382 . S
C18 C19 1.392 . S
C18 N20 1.420 . S
C19 H13 0.930 . S
C19 C15 1.407 . S
C19 C18 1.392 . S
N20 C18 1.420 . S
N20 C21 1.244 . S
C21 N20 1.244 . S
H22 C25 0.929 . S
H23 C28 0.929 . S
H24 C30 0.930 . S
C25 H22 0.929 . S
C25 C26 1.398 . S
C25 C27 1.396 . S
C26 C25 1.398 . S
C26 C30 1.407 . S
C27 C25 1.396 . S
C27 C28 1.394 . S
C28 H23 0.929 . S
C28 C27 1.394 . S
C28 C29 1.382 . S
C29 C28 1.382 . S
C29 C30 1.392 . S
C29 N31 1.420 . S
C30 H24 0.930 . S
C30 C26 1.407 . S
C30 C29 1.392 . S
N31 C29 1.420 . S
N31 C32 1.244 . S
C32 N31 1.244 . S
H33 C36 0.929 . S
H34 C39 0.929 . S
H35 C41 0.930 . S
C36 H33 0.929 . S
C36 C37 1.398 . S
C36 C38 1.396 . S
C37 C36 1.398 . S
C37 C41 1.407 . S
C38 C36 1.396 . S
C38 C39 1.394 . S
C39 H34 0.929 . S
C39 C38 1.394 . S
C39 C40 1.382 . S
C40 C39 1.382 . S
C40 C41 1.392 . S
C40 N42 1.420 . S
C41 H35 0.930 . S
C41 C37 1.407 . S
C41 C40 1.392 . S
N42 C40 1.420 . S
N42 C43 1.244 . S
C43 N42 1.244 . S
H44 C47 0.929 . S
H45 C50 0.929 . S
H46 C52 0.930 . S
C47 H44 0.929 . S
C47 C48 1.398 . S
C47 C49 1.396 . S
C48 C47 1.398 . S
C48 C52 1.407 . S
C49 C47 1.396 . S
C49 C50 1.394 . S
C50 H45 0.929 . S
C50 C49 1.394 . S
C50 C51 1.382 . S
C51 C50 1.382 . S
C51 C52 1.392 . S
C51 N53 1.420 . S
C52 H46 0.930 . S
C52 C48 1.407 . S
C52 C51 1.392 . S
N53 C51 1.420 . S
N53 C54 1.244 . S
C54 N53 1.244 . S
H55 C58 0.929 . S
H56 C61 0.929 . S
H57 C63 0.930 . S
C58 H55 0.929 . S
C58 C59 1.398 . S
C58 C60 1.396 . S
C59 C58 1.398 . S
C59 C63 1.407 . S
C60 C58 1.396 . S
C60 C61 1.394 . S
C61 H56 0.929 . S
C61 C60 1.394 . S
C61 C62 1.382 . S
C62 C61 1.382 . S
C62 C63 1.392 . S
C62 N64 1.420 . S
C63 H57 0.930 . S
C63 C59 1.407 . S
C63 C62 1.392 . S
N64 C62 1.420 . S
N64 C65 1.244 . S
C65 N64 1.244 . S
H66 C69 0.929 . S
H67 C72 0.929 . S
H68 C74 0.930 . S
C69 H66 0.929 . S
C69 C70 1.398 . S
C69 C71 1.396 . S
C70 C69 1.398 . S
C70 C74 1.407 . S
C71 C69 1.396 . S
C71 C72 1.394 . S
C72 H67 0.929 . S
C72 C71 1.394 . S
C72 C73 1.382 . S
C73 C72 1.382 . S
C73 C74 1.392 . S
C73 N75 1.420 . S
C74 H68 0.930 . S
C74 C70 1.407 . S
C74 C73 1.392 . S
N75 C73 1.420 . S
N75 C76 1.244 . S
C76 N75 1.244 . S
H77 C80 0.929 . S
H78 C83 0.929 . S
H79 C85 0.930 . S
C80 H77 0.929 . S
C80 C81 1.398 . S
C80 C82 1.396 . S
C81 C80 1.398 . S
C81 C85 1.407 . S
C82 C80 1.396 . S
C82 C83 1.394 . S
C83 H78 0.929 . S
C83 C82 1.394 . S
C83 C84 1.382 . S
C84 C83 1.382 . S
C84 C85 1.392 . S
C84 N86 1.420 . S
C85 H79 0.930 . S
C85 C81 1.407 . S
C85 C84 1.392 . S
N86 C84 1.420 . S
N86 C87 1.244 . S
C87 N86 1.244 . S
La88 C90 2.928 . S
La88 O108 2.521 . S
La88 O109 2.628 . S
La88 O110 2.554 . S
La88 O111 2.757 . S
La88 O112 2.470 . S
La88 O117 2.482 1_455 S
La88 O119 2.503 1_445 S
La89 C99 2.928 1_545 S
La89 O111 2.482 1_655 S
La89 O113 2.503 1_655 S
La89 O114 2.521 1_545 S
La89 O115 2.628 1_545 S
La89 O116 2.554 . S
La89 O117 2.757 . S
La89 O118 2.470 1_545 S
C90 La88 2.928 . S
C90 C91 1.503 . S
C90 O108 1.261 . S
C90 O109 1.243 . S
C91 C90 1.503 . S
C91 C92 1.394 . S
C91 C96 1.373 . S
C92 C91 1.394 . S
C92 C93 1.380 . S
C92 H120 0.930 . S
C93 C92 1.380 . S
C93 C94 1.376 . S
C93 H121 0.930 . S
C94 C93 1.376 . S
C94 C95 1.370 . S
C95 C94 1.370 . S
C95 C96 1.396 . S
C95 H122 0.929 . S
C96 C91 1.373 . S
C96 C95 1.396 . S
C96 H123 0.929 . S
C97 O110 1.240 1_565 S
C97 O111 1.289 1_565 S
C98 O112 1.258 . S
C98 O113 1.256 . S
C99 La89 2.928 1_565 S
C99 C100 1.503 . S
C99 O114 1.261 . S
C99 O115 1.243 . S
C100 C99 1.503 . S
C100 C101 1.394 . S
C100 C105 1.373 . S
C101 C100 1.394 . S
C101 C102 1.380 . S
C101 H124 0.930 . S
C102 C101 1.380 . S
C102 C103 1.376 . S
C102 H125 0.930 . S
C103 C102 1.376 . S
C103 C104 1.370 . S
C104 C103 1.370 . S
C104 C105 1.396 . S
C104 H126 0.929 . S
C105 C100 1.373 . S
C105 C104 1.396 . S
C105 H127 0.929 . S
C106 O116 1.240 . S
C106 O117 1.289 . S
C107 O118 1.258 . S
C107 O119 1.256 . S
O108 La88 2.521 . S
O108 C90 1.261 . S
O109 La88 2.628 . S
O109 C90 1.243 . S
O110 La88 2.554 . S
O110 C97 1.240 1_545 S
O111 La88 2.757 . S
O111 La89 2.482 1_455 S
O111 C97 1.289 1_545 S
O112 La88 2.470 . S
O112 C98 1.258 . S
O113 La89 2.503 1_455 S
O113 C98 1.256 . S
O114 La89 2.521 1_565 S
O114 C99 1.261 . S
O115 La89 2.628 1_565 S
O115 C99 1.243 . S
O116 La89 2.554 . S
O116 C106 1.240 . S
O117 La88 2.482 1_655 S
O117 La89 2.757 . S
O117 C106 1.289 . S
O118 La89 2.470 1_565 S
O118 C107 1.258 . S
O119 La88 2.503 1_665 S
O119 C107 1.256 . S
H120 C92 0.930 . S
H121 C93 0.930 . S
H122 C95 0.929 . S
H123 C96 0.929 . S
H124 C101 0.930 . S
H125 C102 0.930 . S
H126 C104 0.929 . S
H127 C105 0.929 . S
La128 C130 2.928 . S
La128 O148 2.521 . S
La128 O149 2.628 . S
La128 O150 2.554 1_545 S
La128 O151 2.757 1_545 S
La128 O152 2.470 . S
La128 O157 2.482 . S
La128 O159 2.503 1_545 S
La129 C139 2.928 1_544 S
La129 O151 2.482 1_545 S
La129 O153 2.503 . S
La129 O154 2.521 1_554 S
La129 O155 2.628 1_544 S
La129 O156 2.554 . S
La129 O157 2.757 . S
La129 O158 2.470 . S
C130 La128 2.928 . S
C130 C131 1.503 . S
C130 O148 1.261 . S
C130 O149 1.243 . S
C131 C130 1.503 . S
C131 C132 1.394 . S
C131 C136 1.373 . S
C132 C131 1.394 . S
C132 C133 1.380 . S
C132 H160 0.930 . S
C133 C132 1.380 . S
C133 C134 1.376 . S
C133 H161 0.930 . S
C134 C133 1.376 . S
C134 C135 1.370 . S
C135 C134 1.370 . S
C135 C136 1.396 . S
C135 H162 0.929 . S
C136 C131 1.373 . S
C136 C135 1.396 . S
C136 H163 0.929 . S
C137 O150 1.240 . S
C137 O151 1.289 . S
C138 O152 1.258 . S
C138 O153 1.256 . S
C139 La129 2.928 1_566 S
C139 C140 1.503 . S
C139 O154 1.261 1_565 S
C139 O155 1.243 . S
C140 C139 1.503 . S
C140 C141 1.394 . S
C140 C145 1.373 . S
C141 C140 1.394 . S
C141 C142 1.380 . S
C141 H164 0.930 1_565 S
C142 C141 1.380 . S
C142 C143 1.376 . S
C142 H165 0.930 . S
C143 C142 1.376 . S
C143 C144 1.370 . S
C144 C143 1.370 . S
C144 C145 1.396 . S
C144 H166 0.929 . S
C145 C140 1.373 . S
C145 C144 1.396 . S
C145 H167 0.929 . S
C146 O156 1.240 . S
C146 O157 1.289 . S
C147 O158 1.258 1_565 S
C147 O159 1.256 . S
O148 La128 2.521 . S
O148 C130 1.261 . S
O149 La128 2.628 . S
O149 C130 1.243 . S
O150 La128 2.554 1_565 S
O150 C137 1.240 . S
O151 La128 2.757 1_565 S
O151 La129 2.482 1_565 S
O151 C137 1.289 . S
O152 La128 2.470 . S
O152 C138 1.258 . S
O153 La129 2.503 . S
O153 C138 1.256 . S
O154 La129 2.521 1_556 S
O154 C139 1.261 1_545 S
O155 La129 2.628 1_566 S
O155 C139 1.243 . S
O156 La129 2.554 . S
O156 C146 1.240 . S
O157 La128 2.482 . S
O157 La129 2.757 . S
O157 C146 1.289 . S
O158 La129 2.470 . S
O158 C147 1.258 1_545 S
O159 La128 2.503 1_565 S
O159 C147 1.256 . S
H160 C132 0.930 . S
H161 C133 0.930 . S
H162 C135 0.929 . S
H163 C136 0.929 . S
H164 C141 0.930 1_545 S
H165 C142 0.930 . S
H166 C144 0.929 . S
H167 C145 0.929 . S
La168 C170 2.928 . S
La168 O188 2.521 . S
La168 O189 2.628 . S
La168 O190 2.554 . S
La168 O191 2.757 . S
La168 O192 2.470 . S
La168 O197 2.482 . S
La168 O199 2.503 . S
La169 C179 2.928 . S
La169 O191 2.482 . S
La169 O193 2.503 . S
La169 O194 2.521 . S
La169 O195 2.628 . S
La169 O196 2.554 . S
La169 O197 2.757 . S
La169 O198 2.470 . S
C170 La168 2.928 . S
C170 C171 1.503 . S
C170 O188 1.261 . S
C170 O189 1.243 . S
C171 C170 1.503 . S
C171 C172 1.394 . S
C171 C176 1.373 . S
C172 C171 1.394 . S
C172 C173 1.380 . S
C172 H200 0.930 . S
C173 C172 1.380 . S
C173 C174 1.376 . S
C173 H201 0.930 . S
C174 C173 1.376 . S
C174 C175 1.370 . S
C175 C174 1.370 . S
C175 C176 1.396 . S
C175 H202 0.929 . S
C176 C171 1.373 . S
C176 C175 1.396 . S
C176 H203 0.929 . S
C177 O190 1.240 . S
C177 O191 1.289 . S
C178 O192 1.258 . S
C178 O193 1.256 . S
C179 La169 2.928 . S
C179 C180 1.503 . S
C179 O194 1.261 . S
C179 O195 1.243 . S
C180 C179 1.503 . S
C180 C181 1.394 . S
C180 C185 1.373 . S
C181 C180 1.394 . S
C181 C182 1.380 . S
C181 H204 0.930 . S
C182 C181 1.380 . S
C182 C183 1.376 . S
C182 H205 0.930 . S
C183 C182 1.376 . S
C183 C184 1.370 . S
C184 C183 1.370 . S
C184 C185 1.396 . S
C184 H206 0.929 . S
C185 C180 1.373 . S
C185 C184 1.396 . S
C185 H207 0.929 . S
C186 O196 1.240 . S
C186 O197 1.289 . S
C187 O198 1.258 . S
C187 O199 1.256 . S
O188 La168 2.521 . S
O188 C170 1.261 . S
O189 La168 2.628 . S
O189 C170 1.243 . S
O190 La168 2.554 . S
O190 C177 1.240 . S
O191 La168 2.757 . S
O191 La169 2.482 . S
O191 C177 1.289 . S
O192 La168 2.470 . S
O192 C178 1.258 . S
O193 La169 2.503 . S
O193 C178 1.256 . S
O194 La169 2.521 . S
O194 C179 1.261 . S
O195 La169 2.628 . S
O195 C179 1.243 . S
O196 La169 2.554 . S
O196 C186 1.240 . S
O197 La168 2.482 . S
O197 La169 2.757 . S
O197 C186 1.289 . S
O198 La169 2.470 . S
O198 C187 1.258 . S
O199 La168 2.503 . S
O199 C187 1.256 . S
H200 C172 0.930 . S
H201 C173 0.930 . S
H202 C175 0.929 . S
H203 C176 0.929 . S
H204 C181 0.930 . S
H205 C182 0.930 . S
H206 C184 0.929 . S
H207 C185 0.929 . S
La208 C210 2.928 . S
La208 O228 2.521 . S
La208 O229 2.628 . S
La208 O230 2.554 . S
La208 O231 2.757 . S
La208 O232 2.470 . S
La208 O237 2.482 1_554 S
La208 O239 2.503 1_455 S
La209 C219 2.924 1_454 S
La209 O231 2.491 . S
La209 O233 2.509 . S
La209 O234 2.513 1_454 S
La209 O235 2.627 1_454 S
La209 O236 2.546 1_554 S
La209 O237 2.757 1_554 S
La209 O238 2.467 1_454 S
C210 La208 2.928 . S
C210 C211 1.503 . S
C210 O228 1.261 . S
C210 O229 1.243 . S
C211 C210 1.503 . S
C211 C212 1.394 . S
C211 C216 1.373 . S
C212 C211 1.394 . S
C212 C213 1.380 . S
C212 H240 0.930 . S
C213 C212 1.380 . S
C213 C214 1.376 . S
C213 H241 0.930 . S
C214 C213 1.376 . S
C214 C215 1.370 . S
C215 C214 1.370 . S
C215 C216 1.396 . S
C215 H242 0.929 . S
C216 C211 1.373 . S
C216 C215 1.396 . S
C216 H243 0.929 . S
C217 O230 1.240 1_655 S
C217 O231 1.289 1_655 S
C218 O232 1.258 . S
C218 O233 1.256 . S
C219 La209 2.924 1_656 S
C219 C220 1.503 . S
C219 O234 1.261 . S
C219 O235 1.243 . S
C220 C219 1.503 . S
C220 C221 1.394 . S
C220 C225 1.373 . S
C221 C220 1.394 . S
C221 C222 1.380 . S
C221 H244 0.930 . S
C222 C221 1.380 . S
C222 C223 1.376 . S
C222 H245 0.930 . S
C223 C222 1.376 . S
C223 C224 1.370 . S
C224 C223 1.370 . S
C224 C225 1.396 . S
C224 H246 0.929 . S
C225 C220 1.373 . S
C225 C224 1.396 . S
C225 H247 0.929 . S
C226 O236 1.240 . S
C226 O237 1.289 . S
C227 O238 1.258 . S
C227 O239 1.256 1_556 S
O228 La208 2.521 . S
O228 C210 1.261 . S
O229 La208 2.628 . S
O229 C210 1.243 . S
O230 La208 2.554 . S
O230 C217 1.240 1_455 S
O231 La208 2.757 . S
O231 La209 2.491 . S
O231 C217 1.289 1_455 S
O232 La208 2.470 . S
O232 C218 1.258 . S
O233 La209 2.509 . S
O233 C218 1.256 . S
O234 La209 2.513 1_656 S
O234 C219 1.261 . S
O235 La209 2.627 1_656 S
O235 C219 1.243 . S
O236 La209 2.546 1_556 S
O236 C226 1.240 . S
O237 La208 2.482 1_556 S
O237 La209 2.757 1_556 S
O237 C226 1.289 . S
O238 La209 2.467 1_656 S
O238 C227 1.258 . S
O239 La208 2.503 1_655 S
O239 C227 1.256 1_554 S
H240 C212 0.930 . S
H241 C213 0.930 . S
H242 C215 0.929 . S
H243 C216 0.929 . S
H244 C221 0.930 . S
H245 C222 0.930 . S
H246 C224 0.929 . S
H247 C225 0.929 . S
C248 C249 1.391 . S
C248 C250 1.394 . S
C248 H264 0.931 . S
C249 C248 1.391 . S
C249 C253 1.376 . S
C250 C248 1.394 . S
C250 C251 1.369 . S
C250 C254 1.531 . S
C251 C250 1.369 . S
C251 C252 1.410 . S
C251 C259 1.503 . S
C252 C251 1.410 . S
C252 C253 1.392 . S
C252 C255 1.511 . S
C253 C249 1.376 . S
C253 C252 1.392 . S
C253 H265 0.929 . S
C254 C250 1.531 . S
C254 H266 0.960 . S
C254 H267 0.962 . S
C254 H268 0.960 . S
C255 C252 1.511 . S
C255 H269 0.961 . S
C255 H270 0.961 . S
C255 H271 0.961 . S
C256 C257 1.370 . S
C256 C258 1.363 . S
C256 H272 0.931 . S
C257 C256 1.370 . S
C257 C261 1.408 . S
C258 C256 1.363 . S
C258 C259 1.370 . S
C258 C262 1.524 . S
C259 C251 1.503 . S
C259 C258 1.370 . S
C259 C260 1.403 . S
C260 C259 1.403 . S
C260 C261 1.404 . S
C260 C263 1.539 . S
C261 C257 1.408 . S
C261 C260 1.404 . S
C261 H273 0.930 . S
C262 C258 1.524 . S
C262 H274 0.956 . S
C262 H275 0.961 . S
C262 H276 0.961 . S
C263 C260 1.539 . S
C263 H277 0.958 . S
C263 H278 0.961 . S
C263 H279 0.960 . S
H264 C248 0.931 . S
H265 C253 0.929 . S
H266 C254 0.960 . S
H267 C254 0.962 . S
H268 C254 0.960 . S
H269 C255 0.961 . S
H270 C255 0.961 . S
H271 C255 0.961 . S
H272 C256 0.931 . S
H273 C261 0.930 . S
H274 C262 0.956 . S
H275 C262 0.961 . S
H276 C262 0.961 . S
H277 C263 0.958 . S
H278 C263 0.961 . S
H279 C263 0.960 . S
C280 C281 1.391 . S
C280 C282 1.394 . S
C280 H296 0.931 . S
C281 C280 1.391 . S
C281 C285 1.376 . S
C282 C280 1.394 . S
C282 C283 1.369 . S
C282 C286 1.531 . S
C283 C282 1.369 . S
C283 C284 1.410 . S
C283 C291 1.503 . S
C284 C283 1.410 . S
C284 C285 1.392 . S
C284 C287 1.511 . S
C285 C281 1.376 . S
C285 C284 1.392 . S
C285 H297 0.929 . S
C286 C282 1.531 . S
C286 H298 0.960 . S
C286 H299 0.962 . S
C286 H300 0.960 . S
C287 C284 1.511 . S
C287 H301 0.961 . S
C287 H302 0.961 . S
C287 H303 0.961 . S
C288 C289 1.370 . S
C288 C290 1.363 . S
C288 H304 0.931 . S
C289 C288 1.370 . S
C289 C293 1.408 . S
C290 C288 1.363 . S
C290 C291 1.370 . S
C290 C294 1.524 . S
C291 C283 1.503 . S
C291 C290 1.370 . S
C291 C292 1.403 . S
C292 C291 1.403 . S
C292 C293 1.404 . S
C292 C295 1.539 . S
C293 C289 1.408 . S
C293 C292 1.404 . S
C293 H305 0.930 . S
C294 C290 1.524 . S
C294 H306 0.956 . S
C294 H307 0.961 . S
C294 H308 0.961 . S
C295 C292 1.539 . S
C295 H309 0.958 . S
C295 H310 0.961 . S
C295 H311 0.960 . S
H296 C280 0.931 . S
H297 C285 0.929 . S
H298 C286 0.960 . S
H299 C286 0.962 . S
H300 C286 0.960 . S
H301 C287 0.961 . S
H302 C287 0.961 . S
H303 C287 0.961 . S
H304 C288 0.931 . S
H305 C293 0.930 . S
H306 C294 0.956 . S
H307 C294 0.961 . S
H308 C294 0.961 . S
H309 C295 0.958 . S
H310 C295 0.961 . S
H311 C295 0.960 . S
C312 C313 1.391 . S
C312 C314 1.394 . S
C312 H328 0.931 . S
C313 C312 1.391 . S
C313 C317 1.376 . S
C314 C312 1.394 . S
C314 C315 1.369 . S
C314 C318 1.531 . S
C315 C314 1.369 . S
C315 C316 1.410 . S
C315 C323 1.503 . S
C316 C315 1.410 . S
C316 C317 1.392 . S
C316 C319 1.511 . S
C317 C313 1.376 . S
C317 C316 1.392 . S
C317 H329 0.929 . S
C318 C314 1.531 . S
C318 H330 0.960 . S
C318 H331 0.962 . S
C318 H332 0.960 . S
C319 C316 1.511 . S
C319 H333 0.961 . S
C319 H334 0.961 . S
C319 H335 0.961 . S
C320 C321 1.370 . S
C320 C322 1.363 . S
C320 H336 0.931 . S
C321 C320 1.370 . S
C321 C325 1.408 . S
C322 C320 1.363 . S
C322 C323 1.370 . S
C322 C326 1.524 . S
C323 C315 1.503 . S
C323 C322 1.370 . S
C323 C324 1.403 . S
C324 C323 1.403 . S
C324 C325 1.404 . S
C324 C327 1.539 . S
C325 C321 1.408 . S
C325 C324 1.404 . S
C325 H337 0.930 . S
C326 C322 1.524 . S
C326 H338 0.956 . S
C326 H339 0.961 . S
C326 H340 0.961 . S
C327 C324 1.539 . S
C327 H341 0.958 . S
C327 H342 0.961 . S
C327 H343 0.960 . S
H328 C312 0.931 . S
H329 C317 0.929 . S
H330 C318 0.960 . S
H331 C318 0.962 . S
H332 C318 0.960 . S
H333 C319 0.961 . S
H334 C319 0.961 . S
H335 C319 0.961 . S
H336 C320 0.931 . S
H337 C325 0.930 . S
H338 C326 0.956 . S
H339 C326 0.961 . S
H340 C326 0.961 . S
H341 C327 0.958 . S
H342 C327 0.961 . S
H343 C327 0.960 . S
C344 C345 1.391 . S
C344 C346 1.394 . S
C344 H360 0.931 . S
C345 C344 1.391 . S
C345 C349 1.376 . S
C346 C344 1.394 . S
C346 C347 1.369 . S
C346 C350 1.531 . S
C347 C346 1.369 . S
C347 C348 1.410 . S
C347 C355 1.503 . S
C348 C347 1.410 . S
C348 C349 1.392 . S
C348 C351 1.511 . S
C349 C345 1.376 . S
C349 C348 1.392 . S
C349 H361 0.929 . S
C350 C346 1.531 . S
C350 H362 0.960 . S
C350 H363 0.962 . S
C350 H364 0.960 . S
C351 C348 1.511 . S
C351 H365 0.961 . S
C351 H366 0.961 . S
C351 H367 0.961 1_655 S
C352 C353 1.370 . S
C352 C354 1.363 . S
C352 H368 0.931 . S
C353 C352 1.370 . S
C353 C357 1.408 . S
C354 C352 1.363 . S
C354 C355 1.370 . S
C354 C358 1.524 . S
C355 C347 1.503 . S
C355 C354 1.370 . S
C355 C356 1.403 . S
C356 C355 1.403 . S
C356 C357 1.404 . S
C356 C359 1.539 . S
C357 C353 1.408 . S
C357 C356 1.404 . S
C357 H369 0.930 1_655 S
C358 C354 1.524 . S
C358 H370 0.956 . S
C358 H371 0.961 . S
C358 H372 0.961 . S
C359 C356 1.539 . S
C359 H373 0.958 . S
C359 H374 0.961 1_655 S
C359 H375 0.960 . S
H360 C344 0.931 . S
H361 C349 0.929 . S
H362 C350 0.960 . S
H363 C350 0.962 . S
H364 C350 0.960 . S
H365 C351 0.961 . S
H366 C351 0.961 . S
H367 C351 0.961 1_455 S
H368 C352 0.931 . S
H369 C357 0.930 1_455 S
H370 C358 0.956 . S
H371 C358 0.961 . S
H372 C358 0.961 . S
H373 C359 0.958 . S
H374 C359 0.961 1_455 S
H375 C359 0.960 . S
C376 C377 1.391 . S
C376 C378 1.394 . S
C376 H392 0.931 . S
C377 C376 1.391 . S
C377 C381 1.376 . S
C378 C376 1.394 . S
C378 C379 1.369 . S
C378 C382 1.531 . S
C379 C378 1.369 . S
C379 C380 1.410 . S
C379 C387 1.503 . S
C380 C379 1.410 . S
C380 C381 1.392 . S
C380 C383 1.511 . S
C381 C377 1.376 . S
C381 C380 1.392 . S
C381 H393 0.929 . S
C382 C378 1.531 . S
C382 H394 0.960 . S
C382 H395 0.962 . S
C382 H396 0.960 . S
C383 C380 1.511 . S
C383 H397 0.961 . S
C383 H398 0.961 . S
C383 H399 0.961 . S
C384 C385 1.370 . S
C384 C386 1.363 . S
C384 H400 0.931 . S
C385 C384 1.370 . S
C385 C389 1.408 . S
C386 C384 1.363 . S
C386 C387 1.370 . S
C386 C390 1.524 . S
C387 C379 1.503 . S
C387 C386 1.370 . S
C387 C388 1.403 . S
C388 C387 1.403 . S
C388 C389 1.404 . S
C388 C391 1.539 . S
C389 C385 1.408 . S
C389 C388 1.404 . S
C389 H401 0.930 . S
C390 C386 1.524 . S
C390 H402 0.956 . S
C390 H403 0.961 . S
C390 H404 0.961 . S
C391 C388 1.539 . S
C391 H405 0.958 . S
C391 H406 0.961 . S
C391 H407 0.960 . S
H392 C376 0.931 . S
H393 C381 0.929 . S
H394 C382 0.960 . S
H395 C382 0.962 . S
H396 C382 0.960 . S
H397 C383 0.961 . S
H398 C383 0.961 . S
H399 C383 0.961 . S
H400 C384 0.931 . S
H401 C389 0.930 . S
H402 C390 0.956 . S
H403 C390 0.961 . S
H404 C390 0.961 . S
H405 C391 0.958 . S
H406 C391 0.961 . S
H407 C391 0.960 . S
C408 C409 1.391 . S
C408 C410 1.394 . S
C408 H424 0.931 . S
C409 C408 1.391 . S
C409 C413 1.376 . S
C410 C408 1.394 . S
C410 C411 1.369 . S
C410 C414 1.531 . S
C411 C410 1.369 . S
C411 C412 1.410 . S
C411 C419 1.503 . S
C412 C411 1.410 . S
C412 C413 1.392 . S
C412 C415 1.511 . S
C413 C409 1.376 . S
C413 C412 1.392 . S
C413 H425 0.929 . S
C414 C410 1.531 . S
C414 H426 0.960 . S
C414 H427 0.962 . S
C414 H428 0.960 . S
C415 C412 1.511 . S
C415 H429 0.961 . S
C415 H430 0.961 . S
C415 H431 0.961 1_565 S
C416 C417 1.370 . S
C416 C418 1.363 . S
C416 H432 0.931 . S
C417 C416 1.370 . S
C417 C421 1.408 1_565 S
C418 C416 1.363 . S
C418 C419 1.370 . S
C418 C422 1.524 . S
C419 C411 1.503 . S
C419 C418 1.370 . S
C419 C420 1.403 . S
C420 C419 1.403 . S
C420 C421 1.404 1_565 S
C420 C423 1.539 . S
C421 C417 1.408 1_545 S
C421 C420 1.404 1_545 S
C421 H433 0.930 . S
C422 C418 1.524 . S
C422 H434 0.956 . S
C422 H435 0.961 . S
C422 H436 0.961 . S
C423 C420 1.539 . S
C423 H437 0.958 . S
C423 H438 0.961 1_565 S
C423 H439 0.960 . S
H424 C408 0.931 . S
H425 C413 0.929 . S
H426 C414 0.960 . S
H427 C414 0.962 . S
H428 C414 0.960 . S
H429 C415 0.961 . S
H430 C415 0.961 . S
H431 C415 0.961 1_545 S
H432 C416 0.931 . S
H433 C421 0.930 . S
H434 C422 0.956 . S
H435 C422 0.961 . S
H436 C422 0.961 . S
H437 C423 0.958 . S
H438 C423 0.961 1_545 S
H439 C423 0.960 . S
C440 C441 1.391 . S
C440 C442 1.394 . S
C440 H456 0.931 . S
C441 C440 1.391 . S
C441 C445 1.376 . S
C442 C440 1.394 . S
C442 C443 1.369 . S
C442 C446 1.531 . S
C443 C442 1.369 . S
C443 C444 1.410 . S
C443 C451 1.503 . S
C444 C443 1.410 . S
C444 C445 1.392 . S
C444 C447 1.511 . S
C445 C441 1.376 . S
C445 C444 1.392 . S
C445 H457 0.929 . S
C446 C442 1.531 . S
C446 H458 0.960 . S
C446 H459 0.962 . S
C446 H460 0.960 . S
C447 C444 1.511 . S
C447 H461 0.961 1_556 S
C447 H462 0.961 1_556 S
C447 H463 0.961 . S
C448 C449 1.370 . S
C448 C450 1.363 . S
C448 H464 0.931 . S
C449 C448 1.370 . S
C449 C453 1.408 . S
C450 C448 1.363 . S
C450 C451 1.370 . S
C450 C454 1.524 . S
C451 C443 1.503 . S
C451 C450 1.370 . S
C451 C452 1.403 . S
C452 C451 1.403 . S
C452 C453 1.404 . S
C452 C455 1.539 . S
C453 C449 1.408 . S
C453 C452 1.404 . S
C453 H465 0.930 . S
C454 C450 1.524 . S
C454 H466 0.956 . S
C454 H467 0.961 . S
C454 H468 0.961 . S
C455 C452 1.539 . S
C455 H469 0.958 . S
C455 H470 0.961 . S
C455 H471 0.960 . S
H456 C440 0.931 . S
H457 C445 0.929 . S
H458 C446 0.960 . S
H459 C446 0.962 . S
H460 C446 0.960 . S
H461 C447 0.961 1_554 S
H462 C447 0.961 1_554 S
H463 C447 0.961 . S
H464 C448 0.931 . S
H465 C453 0.930 . S
H466 C454 0.956 . S
H467 C454 0.961 . S
H468 C454 0.961 . S
H469 C455 0.958 . S
H470 C455 0.961 . S
H471 C455 0.960 . S
C472 C473 1.391 . S
C472 C474 1.394 . S
C472 H488 0.931 . S
C473 C472 1.391 . S
C473 C477 1.376 . S
C474 C472 1.394 . S
C474 C475 1.369 . S
C474 C478 1.531 . S
C475 C474 1.369 . S
C475 C476 1.410 . S
C475 C483 1.503 . S
C476 C475 1.410 . S
C476 C477 1.392 . S
C476 C479 1.511 . S
C477 C473 1.376 . S
C477 C476 1.392 . S
C477 H489 0.929 . S
C478 C474 1.531 . S
C478 H490 0.960 . S
C478 H491 0.962 . S
C478 H492 0.960 . S
C479 C476 1.511 . S
C479 H493 0.961 . S
C479 H494 0.961 . S
C479 H495 0.961 . S
C480 C481 1.370 . S
C480 C482 1.363 . S
C480 H496 0.931 . S
C481 C480 1.370 . S
C481 C485 1.408 . S
C482 C480 1.363 . S
C482 C483 1.370 . S
C482 C486 1.524 . S
C483 C475 1.503 . S
C483 C482 1.370 . S
C483 C484 1.403 . S
C484 C483 1.403 . S
C484 C485 1.404 . S
C484 C487 1.539 . S
C485 C481 1.408 . S
C485 C484 1.404 . S
C485 H497 0.930 . S
C486 C482 1.524 . S
C486 H498 0.956 . S
C486 H499 0.961 . S
C486 H500 0.961 . S
C487 C484 1.539 . S
C487 H501 0.958 . S
C487 H502 0.961 . S
C487 H503 0.960 . S
H488 C472 0.931 . S
H489 C477 0.929 . S
H490 C478 0.960 . S
H491 C478 0.962 . S
H492 C478 0.960 . S
H493 C479 0.961 . S
H494 C479 0.961 . S
H495 C479 0.961 . S
H496 C480 0.931 . S
H497 C485 0.930 . S
H498 C486 0.956 . S
H499 C486 0.961 . S
H500 C486 0.961 . S
H501 C487 0.958 . S
H502 C487 0.961 . S
H503 C487 0.960 . S
C504 C505 1.391 . S
C504 C506 1.394 . S
C504 H520 0.931 . S
C505 C504 1.391 . S
C505 C509 1.376 . S
C506 C504 1.394 . S
C506 C507 1.369 . S
C506 C510 1.531 . S
C507 C506 1.369 . S
C507 C508 1.410 . S
C507 C515 1.503 . S
C508 C507 1.410 . S
C508 C509 1.392 . S
C508 C511 1.511 . S
C509 C505 1.376 . S
C509 C508 1.392 . S
C509 H521 0.929 . S
C510 C506 1.531 . S
C510 H522 0.960 . S
C510 H523 0.962 . S
C510 H524 0.960 . S
C511 C508 1.511 . S
C511 H525 0.961 . S
C511 H526 0.961 . S
C511 H527 0.961 . S
C512 C513 1.370 . S
C512 C514 1.363 . S
C512 H528 0.931 . S
C513 C512 1.370 . S
C513 C517 1.408 . S
C514 C512 1.363 . S
C514 C515 1.370 . S
C514 C518 1.524 . S
C515 C507 1.503 . S
C515 C514 1.370 . S
C515 C516 1.403 . S
C516 C515 1.403 . S
C516 C517 1.404 . S
C516 C519 1.539 . S
C517 C513 1.408 . S
C517 C516 1.404 . S
C517 H529 0.930 . S
C518 C514 1.524 . S
C518 H530 0.956 . S
C518 H531 0.961 . S
C518 H532 0.961 . S
C519 C516 1.539 . S
C519 H533 0.958 . S
C519 H534 0.961 . S
C519 H535 0.960 . S
H520 C504 0.931 . S
H521 C509 0.929 . S
H522 C510 0.960 . S
H523 C510 0.962 . S
H524 C510 0.960 . S
H525 C511 0.961 . S
H526 C511 0.961 . S
H527 C511 0.961 . S
H528 C512 0.931 . S
H529 C517 0.930 . S
H530 C518 0.956 . S
H531 C518 0.961 . S
H532 C518 0.961 . S
H533 C519 0.958 . S
H534 C519 0.961 . S
H535 C519 0.960 . S
C536 C537 1.391 . S
C536 C538 1.394 . S
C536 H552 0.931 . S
C537 C536 1.391 . S
C537 C541 1.376 . S
C538 C536 1.394 . S
C538 C539 1.369 . S
C538 C542 1.531 1_556 S
C539 C538 1.369 . S
C539 C540 1.410 . S
C539 C547 1.503 . S
C540 C539 1.410 . S
C540 C541 1.392 . S
C540 C543 1.511 . S
C541 C537 1.376 . S
C541 C540 1.392 . S
C541 H553 0.929 . S
C542 C538 1.531 1_554 S
C542 H554 0.960 . S
C542 H555 0.962 . S
C542 H556 0.960 . S
C543 C540 1.511 . S
C543 H557 0.961 . S
C543 H558 0.961 . S
C543 H559 0.961 . S
C544 C545 1.366 1_556 S
C544 C546 1.363 . S
C544 H560 0.933 . S
C545 C544 1.366 1_554 S
C545 C549 1.404 1_554 S
C546 C544 1.363 . S
C546 C547 1.370 . S
C546 C550 1.524 . S
C547 C539 1.503 . S
C547 C546 1.370 . S
C547 C548 1.403 . S
C548 C547 1.403 . S
C548 C549 1.404 . S
C548 C551 1.539 . S
C549 C545 1.404 1_556 S
C549 C548 1.404 . S
C549 H561 0.930 . S
C550 C546 1.524 . S
C550 H562 0.956 . S
C550 H563 0.961 . S
C550 H564 0.961 . S
C551 C548 1.539 . S
C551 H565 0.958 . S
C551 H566 0.961 . S
C551 H567 0.960 . S
H552 C536 0.931 . S
H553 C541 0.929 . S
H554 C542 0.960 . S
H555 C542 0.962 . S
H556 C542 0.960 . S
H557 C543 0.961 . S
H558 C543 0.961 . S
H559 C543 0.961 . S
H560 C544 0.933 . S
H561 C549 0.930 . S
H562 C550 0.956 . S
H563 C550 0.961 . S
H564 C550 0.961 . S
H565 C551 0.958 . S
H566 C551 0.961 . S
H567 C551 0.960 . S
C568 C569 1.391 . S
C568 C570 1.394 . S
C568 H584 0.931 . S
C569 C568 1.391 . S
C569 C573 1.376 . S
C570 C568 1.394 . S
C570 C571 1.369 . S
C570 C574 1.531 . S
C571 C570 1.369 . S
C571 C572 1.410 . S
C571 C579 1.503 . S
C572 C571 1.410 . S
C572 C573 1.392 . S
C572 C575 1.511 . S
C573 C569 1.376 . S
C573 C572 1.392 . S
C573 H585 0.929 . S
C574 C570 1.531 . S
C574 H586 0.960 . S
C574 H587 0.962 . S
C574 H588 0.960 . S
C575 C572 1.511 . S
C575 H589 0.961 . S
C575 H590 0.961 . S
C575 H591 0.961 . S
C576 C577 1.370 . S
C576 C578 1.363 . S
C576 H592 0.931 . S
C577 C576 1.370 . S
C577 C581 1.408 . S
C578 C576 1.363 . S
C578 C579 1.370 . S
C578 C582 1.524 . S
C579 C571 1.503 . S
C579 C578 1.370 . S
C579 C580 1.403 . S
C580 C579 1.403 . S
C580 C581 1.404 . S
C580 C583 1.539 . S
C581 C577 1.408 . S
C581 C580 1.404 . S
C581 H593 0.930 . S
C582 C578 1.524 . S
C582 H594 0.956 . S
C582 H595 0.961 . S
C582 H596 0.961 . S
C583 C580 1.539 . S
C583 H597 0.958 . S
C583 H598 0.961 . S
C583 H599 0.960 . S
H584 C568 0.931 . S
H585 C573 0.929 . S
H586 C574 0.960 . S
H587 C574 0.962 . S
H588 C574 0.960 . S
H589 C575 0.961 . S
H590 C575 0.961 . S
H591 C575 0.961 . S
H592 C576 0.931 . S
H593 C581 0.930 . S
H594 C582 0.956 . S
H595 C582 0.961 . S
H596 C582 0.961 . S
H597 C583 0.958 . S
H598 C583 0.961 . S
H599 C583 0.960 . S
C600 C601 1.391 . S
C600 C602 1.394 . S
C600 H616 0.931 . S
C601 C600 1.391 . S
C601 C605 1.376 . S
C602 C600 1.394 . S
C602 C603 1.369 . S
C602 C606 1.531 . S
C603 C602 1.369 . S
C603 C604 1.410 . S
C603 C611 1.503 . S
C604 C603 1.410 . S
C604 C605 1.392 . S
C604 C607 1.511 . S
C605 C601 1.376 . S
C605 C604 1.392 . S
C605 H617 0.929 . S
C606 C602 1.531 . S
C606 H618 0.960 . S
C606 H619 0.962 . S
C606 H620 0.960 . S
C607 C604 1.511 . S
C607 H621 0.961 . S
C607 H622 0.961 . S
C607 H623 0.961 . S
C608 C609 1.370 . S
C608 C610 1.363 . S
C608 H624 0.931 . S
C609 C608 1.370 . S
C609 C613 1.408 . S
C610 C608 1.363 . S
C610 C611 1.370 . S
C610 C614 1.524 . S
C611 C603 1.503 . S
C611 C610 1.370 . S
C611 C612 1.403 . S
C612 C611 1.403 . S
C612 C613 1.404 . S
C612 C615 1.539 . S
C613 C609 1.408 . S
C613 C612 1.404 . S
C613 H625 0.930 . S
C614 C610 1.524 . S
C614 H626 0.956 . S
C614 H627 0.961 . S
C614 H628 0.961 . S
C615 C612 1.539 . S
C615 H629 0.958 . S
C615 H630 0.961 . S
C615 H631 0.960 . S
H616 C600 0.931 . S
H617 C605 0.929 . S
H618 C606 0.960 . S
H619 C606 0.962 . S
H620 C606 0.960 . S
H621 C607 0.961 . S
H622 C607 0.961 . S
H623 C607 0.961 . S
H624 C608 0.931 . S
H625 C613 0.930 . S
H626 C614 0.956 . S
H627 C614 0.961 . S
H628 C614 0.961 . S
H629 C615 0.958 . S
H630 C615 0.961 . S
H631 C615 0.960 . S
C632 C633 1.391 . S
C632 C634 1.394 . S
C632 H648 0.931 . S
C633 C632 1.391 . S
C633 C637 1.376 . S
C634 C632 1.394 . S
C634 C635 1.369 . S
C634 C638 1.531 . S
C635 C634 1.369 . S
C635 C636 1.410 . S
C635 C643 1.503 . S
C636 C635 1.410 . S
C636 C637 1.392 . S
C636 C639 1.511 . S
C637 C633 1.376 . S
C637 C636 1.392 . S
C637 H649 0.929 . S
C638 C634 1.531 . S
C638 H650 0.960 . S
C638 H651 0.962 . S
C638 H652 0.960 . S
C639 C636 1.511 . S
C639 H653 0.961 . S
C639 H654 0.961 . S
C639 H655 0.961 . S
C640 C641 1.370 . S
C640 C642 1.363 . S
C640 H656 0.931 . S
C641 C640 1.370 . S
C641 C645 1.408 . S
C642 C640 1.363 . S
C642 C643 1.370 . S
C642 C646 1.524 . S
C643 C635 1.503 . S
C643 C642 1.370 . S
C643 C644 1.403 . S
C644 C643 1.403 . S
C644 C645 1.404 . S
C644 C647 1.539 . S
C645 C641 1.408 . S
C645 C644 1.404 . S
C645 H657 0.930 . S
C646 C642 1.524 . S
C646 H658 0.956 . S
C646 H659 0.961 . S
C646 H660 0.961 . S
C647 C644 1.539 . S
C647 H661 0.958 . S
C647 H662 0.961 . S
C647 H663 0.960 . S
H648 C632 0.931 . S
H649 C637 0.929 . S
H650 C638 0.960 . S
H651 C638 0.962 . S
H652 C638 0.960 . S
H653 C639 0.961 . S
H654 C639 0.961 . S
H655 C639 0.961 . S
H656 C640 0.931 . S
H657 C645 0.930 . S
H658 C646 0.956 . S
H659 C646 0.961 . S
H660 C646 0.961 . S
H661 C647 0.958 . S
H662 C647 0.961 . S
H663 C647 0.960 . S
C664 C665 1.391 . S
C664 C666 1.394 . S
C664 H680 0.931 . S
C665 C664 1.391 . S
C665 C669 1.376 . S
C666 C664 1.394 . S
C666 C667 1.369 . S
C666 C670 1.531 . S
C667 C666 1.369 . S
C667 C668 1.410 . S
C667 C675 1.503 . S
C668 C667 1.410 . S
C668 C669 1.392 . S
C668 C671 1.511 . S
C669 C665 1.376 . S
C669 C668 1.392 . S
C669 H681 0.929 . S
C670 C666 1.531 . S
C670 H682 0.960 . S
C670 H683 0.962 . S
C670 H684 0.960 . S
C671 C668 1.511 . S
C671 H685 0.961 . S
C671 H686 0.961 . S
C671 H687 0.961 . S
C672 C673 1.370 . S
C672 C674 1.363 . S
C672 H688 0.931 . S
C673 C672 1.370 . S
C673 C677 1.408 . S
C674 C672 1.363 . S
C674 C675 1.370 . S
C674 C678 1.524 . S
C675 C667 1.503 . S
C675 C674 1.370 . S
C675 C676 1.403 . S
C676 C675 1.403 . S
C676 C677 1.404 . S
C676 C679 1.539 . S
C677 C673 1.408 . S
C677 C676 1.404 . S
C677 H689 0.930 . S
C678 C674 1.524 . S
C678 H690 0.956 . S
C678 H691 0.961 . S
C678 H692 0.961 . S
C679 C676 1.539 . S
C679 H693 0.958 . S
C679 H694 0.961 . S
C679 H695 0.960 . S
H680 C664 0.931 . S
H681 C669 0.929 . S
H682 C670 0.960 . S
H683 C670 0.962 . S
H684 C670 0.960 . S
H685 C671 0.961 . S
H686 C671 0.961 . S
H687 C671 0.961 . S
H688 C672 0.931 . S
H689 C677 0.930 . S
H690 C678 0.956 . S
H691 C678 0.961 . S
H692 C678 0.961 . S
H693 C679 0.958 . S
H694 C679 0.961 . S
H695 C679 0.960 . S
C696 C697 1.391 . S
C696 C698 1.394 . S
C696 H712 0.931 . S
C697 C696 1.391 . S
C697 C701 1.376 . S
C698 C696 1.394 . S
C698 C699 1.369 . S
C698 C702 1.531 . S
C699 C698 1.369 . S
C699 C700 1.410 . S
C699 C707 1.503 . S
C700 C699 1.410 . S
C700 C701 1.392 . S
C700 C703 1.511 . S
C701 C697 1.376 . S
C701 C700 1.392 . S
C701 H713 0.929 . S
C702 C698 1.531 . S
C702 H714 0.960 . S
C702 H715 0.962 . S
C702 H716 0.960 . S
C703 C700 1.511 . S
C703 H717 0.961 . S
C703 H718 0.961 . S
C703 H719 0.961 . S
C704 C705 1.370 . S
C704 C706 1.363 . S
C704 H720 0.931 . S
C705 C704 1.370 . S
C705 C709 1.408 . S
C706 C704 1.363 . S
C706 C707 1.370 . S
C706 C710 1.524 . S
C707 C699 1.503 . S
C707 C706 1.370 . S
C707 C708 1.403 . S
C708 C707 1.403 . S
C708 C709 1.404 . S
C708 C711 1.539 . S
C709 C705 1.408 . S
C709 C708 1.404 . S
C709 H721 0.930 . S
C710 C706 1.524 . S
C710 H722 0.956 . S
C710 H723 0.961 . S
C710 H724 0.961 . S
C711 C708 1.539 . S
C711 H725 0.958 . S
C711 H726 0.961 . S
C711 H727 0.960 . S
H712 C696 0.931 . S
H713 C701 0.929 . S
H714 C702 0.960 . S
H715 C702 0.962 . S
H716 C702 0.960 . S
H717 C703 0.961 . S
H718 C703 0.961 . S
H719 C703 0.961 . S
H720 C704 0.931 . S
H721 C709 0.930 . S
H722 C710 0.956 . S
H723 C710 0.961 . S
H724 C710 0.961 . S
H725 C711 0.958 . S
H726 C711 0.961 . S
H727 C711 0.960 . S
C728 C729 1.391 . S
C728 C730 1.394 . S
C728 H744 0.931 . S
C729 C728 1.391 . S
C729 C733 1.376 . S
C730 C728 1.394 . S
C730 C731 1.369 . S
C730 C734 1.531 . S
C731 C730 1.369 . S
C731 C732 1.410 . S
C731 C739 1.503 . S
C732 C731 1.410 . S
C732 C733 1.392 . S
C732 C735 1.511 . S
C733 C729 1.376 . S
C733 C732 1.392 . S
C733 H745 0.929 . S
C734 C730 1.531 . S
C734 H746 0.960 . S
C734 H747 0.962 . S
C734 H748 0.960 . S
C735 C732 1.511 . S
C735 H749 0.961 . S
C735 H750 0.961 . S
C735 H751 0.961 . S
C736 C737 1.370 . S
C736 C738 1.363 . S
C736 H752 0.931 . S
C737 C736 1.370 . S
C737 C741 1.408 . S
C738 C736 1.363 . S
C738 C739 1.370 . S
C738 C742 1.524 . S
C739 C731 1.503 . S
C739 C738 1.370 . S
C739 C740 1.403 . S
C740 C739 1.403 . S
C740 C741 1.404 . S
C740 C743 1.539 . S
C741 C737 1.408 . S
C741 C740 1.404 . S
C741 H753 0.930 . S
C742 C738 1.524 . S
C742 H754 0.956 . S
C742 H755 0.961 . S
C742 H756 0.961 . S
C743 C740 1.539 . S
C743 H757 0.958 . S
C743 H758 0.961 . S
C743 H759 0.960 . S
H744 C728 0.931 . S
H745 C733 0.929 . S
H746 C734 0.960 . S
H747 C734 0.962 . S
H748 C734 0.960 . S
H749 C735 0.961 . S
H750 C735 0.961 . S
H751 C735 0.961 . S
H752 C736 0.931 . S
H753 C741 0.930 . S
H754 C742 0.956 . S
H755 C742 0.961 . S
H756 C742 0.961 . S
H757 C743 0.958 . S
H758 C743 0.961 . S
H759 C743 0.960 . S
C760 C761 1.391 . S
C760 C762 1.394 . S
C760 H776 0.931 . S
C761 C760 1.391 . S
C761 C765 1.376 . S
C762 C760 1.394 . S
C762 C763 1.369 . S
C762 C766 1.531 . S
C763 C762 1.369 . S
C763 C764 1.410 . S
C763 C771 1.503 . S
C764 C763 1.410 . S
C764 C765 1.392 . S
C764 C767 1.511 . S
C765 C761 1.376 . S
C765 C764 1.392 . S
C765 H777 0.929 . S
C766 C762 1.531 . S
C766 H778 0.960 . S
C766 H779 0.962 . S
C766 H780 0.960 . S
C767 C764 1.511 . S
C767 H781 0.961 . S
C767 H782 0.961 . S
C767 H783 0.961 . S
C768 C769 1.370 . S
C768 C770 1.363 . S
C768 H784 0.931 1_556 S
C769 C768 1.370 . S
C769 C773 1.408 . S
C770 C768 1.363 . S
C770 C771 1.370 . S
C770 C774 1.524 . S
C771 C763 1.503 . S
C771 C770 1.370 . S
C771 C772 1.403 . S
C772 C771 1.403 . S
C772 C773 1.404 . S
C772 C775 1.539 . S
C773 C769 1.408 . S
C773 C772 1.404 . S
C773 H785 0.930 . S
C774 C770 1.524 . S
C774 H786 0.956 . S
C774 H787 0.961 . S
C774 H788 0.961 1_556 S
C775 C772 1.539 . S
C775 H789 0.958 . S
C775 H790 0.961 . S
C775 H791 0.960 . S
H776 C760 0.931 . S
H777 C765 0.929 . S
H778 C766 0.960 . S
H779 C766 0.962 . S
H780 C766 0.960 . S
H781 C767 0.961 . S
H782 C767 0.961 . S
H783 C767 0.961 . S
H784 C768 0.931 1_554 S
H785 C773 0.930 . S
H786 C774 0.956 . S
H787 C774 0.961 . S
H788 C774 0.961 1_554 S
H789 C775 0.958 . S
H790 C775 0.961 . S
H791 C775 0.960 . S
C792 C793 1.391 . S
C792 C794 1.394 . S
C792 H808 0.931 . S
C793 C792 1.391 . S
C793 C797 1.376 . S
C794 C792 1.394 . S
C794 C795 1.369 . S
C794 C798 1.531 . S
C795 C794 1.369 . S
C795 C796 1.410 . S
C795 C803 1.503 . S
C796 C795 1.410 . S
C796 C797 1.392 . S
C796 C799 1.511 . S
C797 C793 1.376 . S
C797 C796 1.392 . S
C797 H809 0.929 . S
C798 C794 1.531 . S
C798 H810 0.960 . S
C798 H811 0.962 . S
C798 H812 0.960 . S
C799 C796 1.511 . S
C799 H813 0.961 . S
C799 H814 0.961 . S
C799 H815 0.961 . S
C800 C801 1.370 . S
C800 C802 1.363 . S
C800 H816 0.931 . S
C801 C800 1.370 . S
C801 C805 1.408 . S
C802 C800 1.363 . S
C802 C803 1.370 . S
C802 C806 1.524 . S
C803 C795 1.503 . S
C803 C802 1.370 . S
C803 C804 1.403 . S
C804 C803 1.403 . S
C804 C805 1.404 . S
C804 C807 1.539 . S
C805 C801 1.408 . S
C805 C804 1.404 . S
C805 H817 0.930 . S
C806 C802 1.524 . S
C806 H818 0.956 . S
C806 H819 0.961 . S
C806 H820 0.961 . S
C807 C804 1.539 . S
C807 H821 0.958 . S
C807 H822 0.961 . S
C807 H823 0.960 . S
H808 C792 0.931 . S
H809 C797 0.929 . S
H810 C798 0.960 . S
H811 C798 0.962 . S
H812 C798 0.960 . S
H813 C799 0.961 . S
H814 C799 0.961 . S
H815 C799 0.961 . S
H816 C800 0.931 . S
H817 C805 0.930 . S
H818 C806 0.956 . S
H819 C806 0.961 . S
H820 C806 0.961 . S
H821 C807 0.958 . S
H822 C807 0.961 . S
H823 C807 0.960 . S
C824 C825 1.391 . S
C824 C826 1.394 . S
C824 H840 0.931 . S
C825 C824 1.391 . S
C825 C829 1.376 . S
C826 C824 1.394 . S
C826 C827 1.369 . S
C826 C830 1.531 . S
C827 C826 1.369 . S
C827 C828 1.410 . S
C827 C835 1.503 . S
C828 C827 1.410 . S
C828 C829 1.392 . S
C828 C831 1.511 . S
C829 C825 1.376 . S
C829 C828 1.392 . S
C829 H841 0.929 . S
C830 C826 1.531 . S
C830 H842 0.960 . S
C830 H843 0.962 . S
C830 H844 0.960 . S
C831 C828 1.511 . S
C831 H845 0.961 . S
C831 H846 0.961 . S
C831 H847 0.961 . S
C832 C833 1.370 . S
C832 C834 1.363 . S
C832 H848 0.931 . S
C833 C832 1.370 . S
C833 C837 1.408 . S
C834 C832 1.363 . S
C834 C835 1.370 . S
C834 C838 1.524 . S
C835 C827 1.503 . S
C835 C834 1.370 . S
C835 C836 1.403 . S
C836 C835 1.403 . S
C836 C837 1.404 . S
C836 C839 1.539 . S
C837 C833 1.408 . S
C837 C836 1.404 . S
C837 H849 0.930 . S
C838 C834 1.524 . S
C838 H850 0.956 . S
C838 H851 0.961 . S
C838 H852 0.961 . S
C839 C836 1.539 . S
C839 H853 0.958 . S
C839 H854 0.961 . S
C839 H855 0.960 . S
H840 C824 0.931 . S
H841 C829 0.929 . S
H842 C830 0.960 . S
H843 C830 0.962 . S
H844 C830 0.960 . S
H845 C831 0.961 . S
H846 C831 0.961 . S
H847 C831 0.961 . S
H848 C832 0.931 . S
H849 C837 0.930 . S
H850 C838 0.956 . S
H851 C838 0.961 . S
H852 C838 0.961 . S
H853 C839 0.958 . S
H854 C839 0.961 . S
H855 C839 0.960 . S
C856 C857 1.391 . S
C856 C858 1.394 . S
C856 H872 0.931 . S
C857 C856 1.391 . S
C857 C861 1.376 . S
C858 C856 1.394 . S
C858 C859 1.369 . S
C858 C862 1.531 . S
C859 C858 1.369 . S
C859 C860 1.410 . S
C859 C867 1.503 . S
C860 C859 1.410 . S
C860 C861 1.392 . S
C860 C863 1.511 . S
C861 C857 1.376 . S
C861 C860 1.392 . S
C861 H873 0.929 . S
C862 C858 1.531 . S
C862 H874 0.960 . S
C862 H875 0.962 . S
C862 H876 0.960 . S
C863 C860 1.511 . S
C863 H877 0.961 . S
C863 H878 0.961 . S
C863 H879 0.961 . S
C864 C865 1.370 . S
C864 C866 1.363 . S
C864 H880 0.931 . S
C865 C864 1.370 . S
C865 C869 1.408 . S
C866 C864 1.363 . S
C866 C867 1.370 . S
C866 C870 1.524 . S
C867 C859 1.503 . S
C867 C866 1.370 . S
C867 C868 1.403 . S
C868 C867 1.403 . S
C868 C869 1.404 . S
C868 C871 1.539 . S
C869 C865 1.408 . S
C869 C868 1.404 . S
C869 H881 0.930 . S
C870 C866 1.524 . S
C870 H882 0.956 . S
C870 H883 0.961 . S
C870 H884 0.961 . S
C871 C868 1.539 . S
C871 H885 0.958 . S
C871 H886 0.961 . S
C871 H887 0.960 . S
H872 C856 0.931 . S
H873 C861 0.929 . S
H874 C862 0.960 . S
H875 C862 0.962 . S
H876 C862 0.960 . S
H877 C863 0.961 . S
H878 C863 0.961 . S
H879 C863 0.961 . S
H880 C864 0.931 . S
H881 C869 0.930 . S
H882 C870 0.956 . S
H883 C870 0.961 . S
H884 C870 0.961 . S
H885 C871 0.958 . S
H886 C871 0.961 . S
H887 C871 0.960 . S
C888 C889 1.391 . S
C888 C890 1.394 . S
C888 H904 0.931 . S
C889 C888 1.391 . S
C889 C893 1.376 . S
C890 C888 1.394 . S
C890 C891 1.369 . S
C890 C894 1.531 . S
C891 C890 1.369 . S
C891 C892 1.410 . S
C891 C899 1.503 . S
C892 C891 1.410 . S
C892 C893 1.392 . S
C892 C895 1.511 . S
C893 C889 1.376 . S
C893 C892 1.392 . S
C893 H905 0.929 . S
C894 C890 1.531 . S
C894 H906 0.960 . S
C894 H907 0.962 . S
C894 H908 0.960 . S
C895 C892 1.511 . S
C895 H909 0.961 . S
C895 H910 0.961 . S
C895 H911 0.961 . S
C896 C897 1.370 . S
C896 C898 1.363 . S
C896 H912 0.931 . S
C897 C896 1.370 . S
C897 C901 1.408 . S
C898 C896 1.363 . S
C898 C899 1.370 . S
C898 C902 1.524 . S
C899 C891 1.503 . S
C899 C898 1.370 . S
C899 C900 1.403 . S
C900 C899 1.403 . S
C900 C901 1.404 . S
C900 C903 1.539 . S
C901 C897 1.408 . S
C901 C900 1.404 . S
C901 H913 0.930 . S
C902 C898 1.524 . S
C902 H914 0.956 . S
C902 H915 0.961 . S
C902 H916 0.961 . S
C903 C900 1.539 . S
C903 H917 0.958 . S
C903 H918 0.961 . S
C903 H919 0.960 . S
H904 C888 0.931 . S
H905 C893 0.929 . S
H906 C894 0.960 . S
H907 C894 0.962 . S
H908 C894 0.960 . S
H909 C895 0.961 . S
H910 C895 0.961 . S
H911 C895 0.961 . S
H912 C896 0.931 . S
H913 C901 0.930 . S
H914 C902 0.956 . S
H915 C902 0.961 . S
H916 C902 0.961 . S
H917 C903 0.958 . S
H918 C903 0.961 . S
H919 C903 0.960 . S
C920 C921 1.391 . S
C920 C922 1.394 . S
C920 H936 0.931 . S
C921 C920 1.391 . S
C921 C925 1.376 . S
C922 C920 1.394 . S
C922 C923 1.369 . S
C922 C926 1.531 . S
C923 C922 1.369 . S
C923 C924 1.410 . S
C923 C931 1.503 . S
C924 C923 1.410 . S
C924 C925 1.392 . S
C924 C927 1.511 . S
C925 C921 1.376 . S
C925 C924 1.392 . S
C925 H937 0.929 . S
C926 C922 1.531 . S
C926 H938 0.960 . S
C926 H939 0.962 . S
C926 H940 0.960 . S
C927 C924 1.511 . S
C927 H941 0.961 . S
C927 H942 0.961 . S
C927 H943 0.961 . S
C928 C929 1.370 . S
C928 C930 1.363 . S
C928 H944 0.931 . S
C929 C928 1.370 . S
C929 C933 1.408 . S
C930 C928 1.363 . S
C930 C931 1.370 . S
C930 C934 1.524 . S
C931 C923 1.503 . S
C931 C930 1.370 . S
C931 C932 1.403 . S
C932 C931 1.403 . S
C932 C933 1.404 . S
C932 C935 1.539 . S
C933 C929 1.408 . S
C933 C932 1.404 . S
C933 H945 0.930 . S
C934 C930 1.524 . S
C934 H946 0.956 . S
C934 H947 0.961 . S
C934 H948 0.961 . S
C935 C932 1.539 . S
C935 H949 0.958 . S
C935 H950 0.961 . S
C935 H951 0.960 . S
H936 C920 0.931 . S
H937 C925 0.929 . S
H938 C926 0.960 . S
H939 C926 0.962 . S
H940 C926 0.960 . S
H941 C927 0.961 . S
H942 C927 0.961 . S
H943 C927 0.961 . S
H944 C928 0.931 . S
H945 C933 0.930 . S
H946 C934 0.956 . S
H947 C934 0.961 . S
H948 C934 0.961 . S
H949 C935 0.958 . S
H950 C935 0.961 . S
H951 C935 0.960 . S
C952 C953 1.391 . S
C952 C954 1.394 . S
C952 H968 0.931 . S
C953 C952 1.391 . S
C953 C957 1.376 . S
C954 C952 1.394 . S
C954 C955 1.369 . S
C954 C958 1.531 . S
C955 C954 1.369 . S
C955 C956 1.410 . S
C955 C963 1.503 . S
C956 C955 1.410 . S
C956 C957 1.392 . S
C956 C959 1.511 . S
C957 C953 1.376 . S
C957 C956 1.392 . S
C957 H969 0.929 . S
C958 C954 1.531 . S
C958 H970 0.960 . S
C958 H971 0.962 . S
C958 H972 0.960 . S
C959 C956 1.511 . S
C959 H973 0.961 . S
C959 H974 0.961 . S
C959 H975 0.961 . S
C960 C961 1.370 . S
C960 C962 1.363 . S
C960 H976 0.931 . S
C961 C960 1.370 . S
C961 C965 1.408 . S
C962 C960 1.363 . S
C962 C963 1.370 . S
C962 C966 1.524 . S
C963 C955 1.503 . S
C963 C962 1.370 . S
C963 C964 1.403 . S
C964 C963 1.403 . S
C964 C965 1.404 . S
C964 C967 1.539 . S
C965 C961 1.408 . S
C965 C964 1.404 . S
C965 H977 0.930 . S
C966 C962 1.524 . S
C966 H978 0.956 . S
C966 H979 0.961 . S
C966 H980 0.961 . S
C967 C964 1.539 . S
C967 H981 0.958 . S
C967 H982 0.961 . S
C967 H983 0.960 . S
H968 C952 0.931 . S
H969 C957 0.929 . S
H970 C958 0.960 . S
H971 C958 0.962 . S
H972 C958 0.960 . S
H973 C959 0.961 . S
H974 C959 0.961 . S
H975 C959 0.961 . S
H976 C960 0.931 . S
H977 C965 0.930 . S
H978 C966 0.956 . S
H979 C966 0.961 . S
H980 C966 0.961 . S
H981 C967 0.958 . S
H982 C967 0.961 . S
H983 C967 0.960 . S
C984 C985 1.391 . S
C984 C986 1.394 . S
C984 H1000 0.931 . S
C985 C984 1.391 . S
C985 C989 1.376 . S
C986 C984 1.394 . S
C986 C987 1.369 . S
C986 C990 1.531 . S
C987 C986 1.369 . S
C987 C988 1.410 . S
C987 C995 1.503 . S
C988 C987 1.410 . S
C988 C989 1.392 . S
C988 C991 1.511 . S
C989 C985 1.376 . S
C989 C988 1.392 . S
C989 H1001 0.929 . S
C990 C986 1.531 . S
C990 H1002 0.960 . S
C990 H1003 0.962 . S
C990 H1004 0.960 . S
C991 C988 1.511 . S
C991 H1005 0.961 . S
C991 H1006 0.961 . S
C991 H1007 0.961 . S
C992 C993 1.370 . S
C992 C994 1.363 . S
C992 H1008 0.931 . S
C993 C992 1.370 . S
C993 C997 1.408 . S
C994 C992 1.363 . S
C994 C995 1.370 . S
C994 C998 1.524 . S
C995 C987 1.503 . S
C995 C994 1.370 . S
C995 C996 1.403 . S
C996 C995 1.403 . S
C996 C997 1.404 . S
C996 C999 1.539 . S
C997 C993 1.408 . S
C997 C996 1.404 . S
C997 H1009 0.930 . S
C998 C994 1.524 . S
C998 H1010 0.956 . S
C998 H1011 0.961 . S
C998 H1012 0.961 . S
C999 C996 1.539 . S
C999 H1013 0.958 . S
C999 H1014 0.961 . S
C999 H1015 0.960 . S
H1000 C984 0.931 . S
H1001 C989 0.929 . S
H1002 C990 0.960 . S
H1003 C990 0.962 . S
H1004 C990 0.960 . S
H1005 C991 0.961 . S
H1006 C991 0.961 . S
H1007 C991 0.961 . S
H1008 C992 0.931 . S
H1009 C997 0.930 . S
H1010 C998 0.956 . S
H1011 C998 0.961 . S
H1012 C998 0.961 . S
H1013 C999 0.958 . S
H1014 C999 0.961 . S
H1015 C999 0.960 . S
C249 C4 1.077 . S
C257 C94 1.088 . S
C281 C16 1.187 . S
C289 C143 1.243 . S
C321 C178 2.068 . S
C313 C32 2.085 . S
C345 C43 2.287 . S
C353 C217 2.247 . S
C385 C138 2.628 . S
C377 C5 2.506 . S
C417 C97 0.498 . S
C409 C21 0.369 . S
C449 C227 1.879 . S
C441 C27 1.920 . S
C481 C186 1.606 . S
C473 C37 1.609 . S
C505 C10 1.421 . S
C513 C214 1.463 . S
C545 C146 2.516 . S
C537 C26 2.608 . S
C569 C38 2.087 . S
C577 C107 2.079 . S
C601 C15 1.070 . S
C609 C183 1.025 . S
C641 C103 1.268 . S
C633 C48 1.260 . S
C665 C59 0.998 . S
C673 C134 1.040 . S
C697 C76 2.490 . S
C705 C187 2.431 . S
C729 C87 2.133 . S
C737 C226 2.105 . S
C761 C54 1.885 . S
C769 C147 1.976 1_556 S
C801 C106 1.362 . S
C793 C60 1.451 . S
C833 C218 1.760 . S
C825 C71 1.774 . S
C865 C177 1.566 . S
C857 C82 1.614 . S
C889 C49 1.729 . S
C897 C223 1.783 . S
C929 C137 1.965 . S
C921 C70 2.060 . S
C961 C98 2.537 . S
C953 C81 2.551 . S
C985 C65 0.878 . S
C993 C174 0.864 . S
