# Generated by pormake.
# Topology zzz, (3,6)-cn, num edge types: 1
# Building blocks:
#     Node 0, Type 0, BuildingBlock: CUQRIR_clean_linker_1, # of connection points: 3
#     Node 1, Type 0, BuildingBlock: CUQRIR_clean_linker_1, # of connection points: 3
#     Node 2, Type 0, BuildingBlock: CUQRIR_clean_linker_1, # of connection points: 3
#     Node 3, Type 0, BuildingBlock: CUQRIR_clean_linker_1, # of connection points: 3
#     Node 4, Type 0, BuildingBlock: CUQRIR_clean_linker_1, # of connection points: 3
#     Node 5, Type 0, BuildingBlock: CUQRIR_clean_linker_1, # of connection points: 3
#     Node 6, Type 0, BuildingBlock: CUQRIR_clean_linker_1, # of connection points: 3
#     Node 7, Type 0, BuildingBlock: CUQRIR_clean_linker_1, # of connection points: 3
#     Node 8, Type 1, BuildingBlock: VOLQOD_clean_sbu_1, # of connection points: 6
#     Node 9, Type 1, BuildingBlock: VOLQOD_clean_sbu_1, # of connection points: 6
#     Node 10, Type 1, BuildingBlock: VOLQOD_clean_sbu_1, # of connection points: 6
#     Node 11, Type 1, BuildingBlock: VOLQOD_clean_sbu_1, # of connection points: 6
#     Edge 12, Type (0, 1), BuildingBlock: XUDNAN_clean_linker_2, # of connection points: 2
#     Edge 13, Type (0, 1), BuildingBlock: XUDNAN_clean_linker_2, # of connection points: 2
#     Edge 14, Type (0, 1), BuildingBlock: XUDNAN_clean_linker_2, # of connection points: 2
#     Edge 15, Type (0, 1), BuildingBlock: XUDNAN_clean_linker_2, # of connection points: 2
#     Edge 16, Type (0, 1), BuildingBlock: XUDNAN_clean_linker_2, # of connection points: 2
#     Edge 17, Type (0, 1), BuildingBlock: XUDNAN_clean_linker_2, # of connection points: 2
#     Edge 18, Type (0, 1), BuildingBlock: XUDNAN_clean_linker_2, # of connection points: 2
#     Edge 19, Type (0, 1), BuildingBlock: XUDNAN_clean_linker_2, # of connection points: 2
#     Edge 20, Type (0, 1), BuildingBlock: XUDNAN_clean_linker_2, # of connection points: 2
#     Edge 21, Type (0, 1), BuildingBlock: XUDNAN_clean_linker_2, # of connection points: 2
#     Edge 22, Type (0, 1), BuildingBlock: XUDNAN_clean_linker_2, # of connection points: 2
#     Edge 23, Type (0, 1), BuildingBlock: XUDNAN_clean_linker_2, # of connection points: 2
#     Edge 24, Type (0, 1), BuildingBlock: XUDNAN_clean_linker_2, # of connection points: 2
#     Edge 25, Type (0, 1), BuildingBlock: XUDNAN_clean_linker_2, # of connection points: 2
#     Edge 26, Type (0, 1), BuildingBlock: XUDNAN_clean_linker_2, # of connection points: 2
#     Edge 27, Type (0, 1), BuildingBlock: XUDNAN_clean_linker_2, # of connection points: 2
#     Edge 28, Type (0, 1), BuildingBlock: XUDNAN_clean_linker_2, # of connection points: 2
#     Edge 29, Type (0, 1), BuildingBlock: XUDNAN_clean_linker_2, # of connection points: 2
#     Edge 30, Type (0, 1), BuildingBlock: XUDNAN_clean_linker_2, # of connection points: 2
#     Edge 31, Type (0, 1), BuildingBlock: XUDNAN_clean_linker_2, # of connection points: 2
#     Edge 32, Type (0, 1), BuildingBlock: XUDNAN_clean_linker_2, # of connection points: 2
#     Edge 33, Type (0, 1), BuildingBlock: XUDNAN_clean_linker_2, # of connection points: 2
#     Edge 34, Type (0, 1), BuildingBlock: XUDNAN_clean_linker_2, # of connection points: 2
#     Edge 35, Type (0, 1), BuildingBlock: XUDNAN_clean_linker_2, # of connection points: 2
# Relax obj value: 0.215
# Max RMSD: 0.242
# Mean RMSD: 0.126
data_MOF--net-zzz--node1-VOLQOD_clean_sbu_1--node2-CUQRIR_clean_linker_1--edge1-XUDNAN_clean_linker_2
_symmetry_space_group_name_H-M    P1
_symmetry_Int_Tables_number       1
_symmetry_cell_setting            triclinic
loop_
_symmetry_equiv_pos_as_xyz
'x, y, z'
_cell_length_a     48.160733
_cell_length_b     47.945211
_cell_length_c     15.658302
_cell_angle_alpha  90.242239
_cell_angle_beta   89.698981
_cell_angle_gamma 90.668088
loop_
_atom_site_label
_atom_site_type_symbol
_atom_site_fract_x
_atom_site_fract_y
_atom_site_fract_z
_atom_type_partial_charge
C0 C 0.75307 0.50594 0.16268 0.0
N1 N 0.781 0.50831 0.16678 0.0
N2 N 0.74424 0.5095 0.08145 0.0
C3 C 0.73473 0.49759 0.23625 0.0
C4 C 0.76796 0.51342 0.03605 0.0
N5 N 0.79034 0.51259 0.08786 0.0
C6 C 0.76927 0.51548 0.94034 0.0
H7 H 0.73445 0.47451 0.2413 0.0
H8 H 0.71317 0.50477 0.22628 0.0
H9 H 0.74298 0.50632 0.29692 0.0
H10 H 0.78936 0.52462 0.91874 0.0
H11 H 0.75203 0.52841 0.91651 0.0
H12 H 0.76682 0.49428 0.9124 0.0
C13 C 0.97587 0.74921 0.14602 0.0
N14 N 0.98263 0.77613 0.16224 0.0
N15 N 0.96901 0.7458 0.06255 0.0
C16 C 0.97731 0.72621 0.21044 0.0
C17 C 0.97223 0.77166 0.02883 0.0
N18 N 0.98052 0.79003 0.08953 0.0
C19 C 0.96896 0.77841 0.93556 0.0
H20 H 0.99899 0.71871 0.21366 0.0
H21 H 0.96352 0.70848 0.19221 0.0
H22 H 0.97142 0.73407 0.27471 0.0
H23 H 0.94724 0.77417 0.91595 0.0
H24 H 0.98261 0.76475 0.89682 0.0
H25 H 0.97377 0.80055 0.92123 0.0
C26 C 0.7667 0.99895 0.17176 0.0
N27 N 0.73962 0.00351 0.19042 0.0
N28 N 0.7715 0.00169 0.08686 0.0
C29 C 0.78869 0.99244 0.23619 0.0
C30 C 0.74636 0.00792 0.0542 0.0
N31 N 0.72697 0.00914 0.11711 0.0
C32 C 0.74023 0.00956 0.96014 0.0
H33 H 0.80916 0.00081 0.21495 0.0
H34 H 0.79039 0.96949 0.24234 0.0
H35 H 0.78334 0.00132 0.29965 0.0
H36 H 0.7553 0.9973 0.92204 0.0
H37 H 0.74183 0.03166 0.93978 0.0
H38 H 0.71894 0.0018 0.94616 0.0
C39 C 0.49719 0.74521 0.21378 0.0
N40 N 0.48625 0.71923 0.22158 0.0
N41 N 0.4937 0.75471 0.13306 0.0
C42 C 0.51024 0.76157 0.2853 0.0
C43 C 0.48045 0.73347 0.09227 0.0
N44 N 0.47566 0.7121 0.1464 0.0
C45 C 0.47473 0.73249 0.9978 0.0
H46 H 0.5006 0.75586 0.34743 0.0
H47 H 0.5082 0.78432 0.27463 0.0
H48 H 0.53264 0.75653 0.28814 0.0
H49 H 0.48993 0.74551 0.96185 0.0
H50 H 0.45362 0.74064 0.98624 0.0
H51 H 0.47549 0.71081 0.97295 0.0
C52 C 0.25387 0.51931 0.16576 0.0
N53 N 0.2285 0.5304 0.15375 0.0
N54 N 0.26073 0.52016 0.24983 0.0
C55 C 0.27233 0.50898 0.09507 0.0
C56 C 0.23843 0.53206 0.28811 0.0
N57 N 0.21906 0.53855 0.22955 0.0
C58 C 0.23419 0.53443 0.38324 0.0
H59 H 0.26787 0.48651 0.0839 0.0
H60 H 0.29454 0.51153 0.11224 0.0
H61 H 0.26822 0.52032 0.03488 0.0
H62 H 0.24175 0.5552 0.40498 0.0
H63 H 0.24582 0.51813 0.41758 0.0
H64 H 0.21187 0.53247 0.40033 0.0
C65 C 0.02875 0.25481 0.14797 0.0
N66 N 0.02289 0.22739 0.13569 0.0
N67 N 0.02592 0.26164 0.23182 0.0
C68 C 0.03756 0.27473 0.079 0.0
C69 C 0.01819 0.23741 0.26968 0.0
N70 N 0.01632 0.21676 0.21122 0.0
C71 C 0.01291 0.23385 0.36382 0.0
H72 H 0.06055 0.27482 0.07422 0.0
H73 H 0.03078 0.29621 0.09457 0.0
H74 H 0.02905 0.26827 0.01621 0.0
H75 H 0.99108 0.23944 0.37809 0.0
H76 H 0.02673 0.24784 0.4015 0.0
H77 H 0.01606 0.21197 0.38391 0.0
C78 C 0.26766 0.01362 0.2091 0.0
N79 N 0.2951 0.01326 0.18869 0.0
N80 N 0.26411 0.01259 0.29531 0.0
C81 C 0.24438 0.01279 0.14569 0.0
C82 C 0.29041 0.01175 0.32562 0.0
N83 N 0.30908 0.01185 0.26121 0.0
C84 C 0.29813 0.00944 0.41832 0.0
H85 H 0.23016 0.03038 0.15799 0.0
H86 H 0.23225 0.99315 0.15396 0.0
H87 H 0.25209 0.01421 0.07902 0.0
H88 H 0.30148 0.9872 0.43411 0.0
H89 H 0.28157 0.01787 0.46033 0.0
H90 H 0.31785 0.02093 0.43067 0.0
C91 C 0.46476 0.24359 0.20928 0.0
N92 N 0.47243 0.27051 0.19679 0.0
N93 N 0.47594 0.23378 0.28246 0.0
C94 C 0.44842 0.22628 0.14675 0.0
C95 C 0.49094 0.25563 0.31321 0.0
N96 N 0.48904 0.27784 0.26071 0.0
C97 C 0.50817 0.25481 0.39317 0.0
H98 H 0.43065 0.23829 0.12207 0.0
H99 H 0.44067 0.2067 0.17653 0.0
H100 H 0.462 0.221 0.0917 0.0
H101 H 0.52892 0.24638 0.37719 0.0
H102 H 0.4985 0.24104 0.44182 0.0
H103 H 0.51082 0.27593 0.42133 0.0
O104 O 0.0796 0.00841 0.67808 0.0
Zn105 Zn 0.04138 0.00974 0.73635 0.0
O106 O 0.01194 0.99798 0.65552 0.0
Zn107 Zn 0.98208 0.0252 0.65275 0.0
Zn108 Zn 0.02779 0.99352 0.54223 0.0
Zn109 Zn 0.9954 0.96261 0.6883 0.0
O110 O 0.94645 0.0111 0.70814 0.0
O111 O 0.95601 0.9666 0.72937 0.0
O112 O 0.03465 0.04972 0.77749 0.0
O113 O 0.99402 0.05917 0.71815 0.0
O114 O 0.97543 0.03907 0.53335 0.0
O115 O 0.01129 0.02106 0.46303 0.0
O116 O 0.0232 0.95416 0.4975 0.0
O117 O 0.04212 0.98336 0.8384 0.0
O118 O 0.99761 0.93307 0.59692 0.0
O119 O 0.01568 0.94855 0.78831 0.0
C120 C 0.08646 0.00608 0.59954 0.0
C121 C 0.93947 0.98703 0.73554 0.0
C122 C 0.99039 0.03701 0.46637 0.0
C123 C 0.01474 0.06646 0.76357 0.0
C124 C 0.01048 0.93265 0.52581 0.0
C125 C 0.03201 0.95872 0.84407 0.0
O126 O 0.06854 0.00142 0.54188 0.0
O127 O 0.5039 0.06044 0.6661 0.0
Zn128 Zn 0.50475 0.02708 0.75017 0.0
O129 O 0.51784 0.99234 0.69149 0.0
Zn130 Zn 0.48883 0.96349 0.69245 0.0
Zn131 Zn 0.52817 0.00041 0.57498 0.0
Zn132 Zn 0.55087 0.97686 0.74254 0.0
O133 O 0.50066 0.92853 0.75367 0.0
O134 O 0.54408 0.93867 0.78985 0.0
O135 O 0.46514 0.02096 0.79748 0.0
O136 O 0.45553 0.9776 0.7555 0.0
O137 O 0.47508 0.95527 0.57357 0.0
O138 O 0.50278 0.98164 0.4929 0.0
O139 O 0.56811 0.99402 0.54625 0.0
O140 O 0.53085 0.03611 0.85075 0.0
O141 O 0.58476 0.97607 0.6653 0.0
O142 O 0.56042 0.0007 0.84054 0.0
C143 C 0.51244 0.06132 0.5887 0.0
C144 C 0.52326 0.92211 0.79031 0.0
C145 C 0.48234 0.96486 0.50103 0.0
C146 C 0.44848 3e-05 0.79311 0.0
C147 C 0.58817 0.9844 0.58893 0.0
C148 C 0.55193 0.02273 0.87704 0.0
O149 O 0.52221 0.03988 0.55241 0.0
O150 O 0.4266 0.48732 0.66822 0.0
Zn151 Zn 0.45904 0.48707 0.75141 0.0
O152 O 0.49508 0.49191 0.69244 0.0
Zn153 Zn 0.51794 0.45932 0.70612 0.0
Zn154 Zn 0.48803 0.49717 0.57211 0.0
Zn155 Zn 0.51579 0.52441 0.73572 0.0
O156 O 0.55336 0.46885 0.76607 0.0
O157 O 0.55469 0.515 0.77684 0.0
O158 O 0.45787 0.44976 0.81305 0.0
O159 O 0.49812 0.43053 0.77755 0.0
O160 O 0.52764 0.44246 0.59206 0.0
O161 O 0.51032 0.47195 0.49759 0.0
O162 O 0.49316 0.53723 0.54204 0.0
O163 O 0.4536 0.51815 0.83786 0.0
O164 O 0.5157 0.55664 0.65106 0.0
O165 O 0.49507 0.53922 0.83653 0.0
C166 C 0.42643 0.48636 0.58691 0.0
C167 C 0.56573 0.49127 0.78859 0.0
C168 C 0.52399 0.45022 0.51529 0.0
C169 C 0.47483 0.42954 0.81645 0.0
C170 C 0.50441 0.55833 0.57786 0.0
C171 C 0.47068 0.53627 0.86717 0.0
O172 O 0.44862 0.48833 0.54325 0.0
O173 O 0.95627 0.52129 0.52464 0.0
Zn174 Zn 0.99215 0.53447 0.58147 0.0
O175 O 0.00833 0.50417 0.65054 0.0
Zn176 Zn 0.01398 0.51777 0.76575 0.0
Zn177 Zn 0.98348 0.47156 0.65196 0.0
Zn178 Zn 0.04439 0.49261 0.60754 0.0
O179 O 0.05353 0.51714 0.80252 0.0
O180 O 0.07593 0.49871 0.69217 0.0
O181 O 0.98276 0.56831 0.65477 0.0
O182 O 0.0027 0.55742 0.77733 0.0
O183 O 0.98915 0.49774 0.84723 0.0
O184 O 0.96556 0.46707 0.76872 0.0
O185 O 0.00221 0.43648 0.60727 0.0
O186 O 0.02019 0.54718 0.49102 0.0
O187 O 0.04366 0.45284 0.5683 0.0
O188 O 0.05366 0.51586 0.50648 0.0
C189 C 0.94314 0.49804 0.52767 0.0
C190 C 0.07586 0.50918 0.76701 0.0
C191 C 0.97002 0.47939 0.8398 0.0
C192 C 0.98967 0.5745 0.73105 0.0
C193 C 0.02596 0.43297 0.57255 0.0
C194 C 0.04329 0.53663 0.46831 0.0
O195 O 0.95179 0.47788 0.57248 0.0
H196 H 0.21644 0.043 0.29892 0.0
H197 H 0.25493 0.96899 0.40001 0.0
H198 H 0.21528 0.962 0.49843 0.0
H199 H 0.18415 0.06756 0.4896 0.0
H200 H 0.15214 0.07759 0.43977 0.0
H201 H 0.184 0.07777 0.37892 0.0
H202 H 0.1619 0.04471 0.26626 0.0
H203 H 0.12982 0.04495 0.32586 0.0
H204 H 0.14615 0.0123 0.30035 0.0
H205 H 0.17326 0.965 0.59308 0.0
H206 H 0.12648 0.9715 0.65617 0.0
H207 H 0.11191 0.03946 0.48103 0.0
C208 C 0.21621 0.02508 0.34065 0.0
C209 C 0.23905 0.00688 0.34349 0.0
C210 C 0.23801 0.98363 0.39898 0.0
C211 C 0.21559 0.97948 0.45492 0.0
C212 C 0.19384 0.99831 0.45288 0.0
C213 C 0.19347 0.02012 0.39535 0.0
C214 C 0.16654 0.0361 0.40272 0.0
C215 C 0.17205 0.06656 0.42934 0.0
C216 C 0.15013 0.0344 0.31882 0.0
C217 C 0.15205 0.01996 0.47364 0.0
C218 C 0.1685 0.99867 0.50304 0.0
C219 C 0.16005 0.98143 0.57012 0.0
C220 C 0.13364 0.98542 0.60615 0.0
C221 C 0.11589 0.00603 0.57368 0.0
C222 C 0.12531 0.02367 0.5072 0.0
H223 H 0.45649 0.20956 0.4274 0.0
H224 H 0.50401 0.19485 0.19665 0.0
H225 H 0.51781 0.14871 0.25115 0.0
H226 H 0.50388 0.18088 0.56955 0.0
H227 H 0.47875 0.16472 0.6399 0.0
H228 H 0.46953 0.19511 0.57961 0.0
H229 H 0.42778 0.16847 0.51313 0.0
H230 H 0.43649 0.13813 0.57466 0.0
H231 H 0.43343 0.13553 0.46021 0.0
H232 H 0.53087 0.10804 0.33541 0.0
H233 H 0.53809 0.07028 0.43682 0.0
H234 H 0.48139 0.10943 0.61689 0.0
C235 C 0.46914 0.19609 0.38791 0.0
C236 C 0.47911 0.20528 0.30767 0.0
C237 C 0.49596 0.18769 0.25754 0.0
C238 C 0.50402 0.1617 0.28835 0.0
C239 C 0.49483 0.15365 0.36921 0.0
C240 C 0.47734 0.16996 0.4179 0.0
C241 C 0.47146 0.15658 0.50409 0.0
C242 C 0.48151 0.17545 0.57762 0.0
C243 C 0.44045 0.14924 0.51356 0.0
C244 C 0.48891 0.1305 0.49675 0.0
C245 C 0.50218 0.1295 0.41827 0.0
C246 C 0.52022 0.10828 0.39644 0.0
C247 C 0.52421 0.08692 0.45507 0.0
C248 C 0.51006 0.08659 0.53493 0.0
C249 C 0.49248 0.10902 0.55659 0.0
H250 H 0.29233 0.54753 0.36613 0.0
H251 H 0.28421 0.46951 0.22768 0.0
H252 H 0.32528 0.45132 0.30308 0.0
H253 H 0.36656 0.55094 0.3754 0.0
H254 H 0.36735 0.5648 0.48255 0.0
H255 H 0.33822 0.57173 0.41458 0.0
H256 H 0.30484 0.5512 0.52919 0.0
H257 H 0.33392 0.54398 0.59727 0.0
H258 H 0.31018 0.51629 0.56763 0.0
H259 H 0.36828 0.44261 0.39052 0.0
H260 H 0.40929 0.4436 0.48562 0.0
H261 H 0.38607 0.52538 0.57793 0.0
C262 C 0.29919 0.52658 0.3521 0.0
C263 C 0.28533 0.50995 0.29072 0.0
C264 C 0.29494 0.48273 0.27326 0.0
C265 C 0.31803 0.47217 0.31638 0.0
C266 C 0.33094 0.48899 0.37766 0.0
C267 C 0.32176 0.51557 0.39582 0.0
C268 C 0.33888 0.52923 0.46561 0.0
C269 C 0.35363 0.55573 0.43253 0.0
C270 C 0.32088 0.53554 0.54461 0.0
C271 C 0.35936 0.5063 0.48345 0.0
C272 C 0.35455 0.48331 0.43165 0.0
C273 C 0.37193 0.46025 0.43246 0.0
C274 C 0.39503 0.46091 0.48672 0.0
C275 C 0.40011 0.48418 0.5404 0.0
C276 C 0.38193 0.50698 0.53946 0.0
H277 H 0.98951 0.29057 0.32823 0.0
H278 H 0.07372 0.29149 0.23058 0.0
H279 H 0.08374 0.33472 0.31318 0.0
H280 H 0.97954 0.36527 0.32656 0.0
H281 H 0.95934 0.36533 0.4238 0.0
H282 H 0.9591 0.335 0.35559 0.0
H283 H 0.97446 0.30465 0.48316 0.0
H284 H 0.97509 0.33497 0.55152 0.0
H285 H 0.00565 0.31389 0.54032 0.0
H286 H 0.08457 0.37691 0.40911 0.0
H287 H 0.07553 0.41753 0.50154 0.0
H288 H 0.99039 0.3889 0.53806 0.0
C289 C 0.00997 0.30008 0.32422 0.0
C290 C 0.03092 0.28802 0.27325 0.0
C291 C 0.05745 0.30082 0.26869 0.0
C292 C 0.06331 0.32513 0.31587 0.0
C293 C 0.04233 0.33624 0.36705 0.0
C294 C 0.0161 0.3243 0.37086 0.0
C295 C 0.99718 0.34051 0.43009 0.0
C296 C 0.97233 0.35223 0.38107 0.0
C297 C 0.98753 0.32242 0.50576 0.0
C298 C 0.01682 0.36355 0.45892 0.0
C299 C 0.0428 0.36056 0.42225 0.0
C300 C 0.06431 0.37948 0.43813 0.0
C301 C 0.05895 0.40247 0.49104 0.0
C302 C 0.03223 0.40648 0.5274 0.0
C303 C 0.0111 0.38637 0.5121 0.0
H304 H 0.80153 0.03512 0.98142 0.0
H305 H 0.79645 0.95181 0.08593 0.0
H306 H 0.83772 0.9382 0.00088 0.0
H307 H 0.8234 0.01546 0.76833 0.0
H308 H 0.84688 0.04473 0.75568 0.0
H309 H 0.81674 0.04777 0.82362 0.0
H310 H 0.84807 0.06256 0.95042 0.0
H311 H 0.87826 0.05979 0.88271 0.0
H312 H 0.87635 0.0405 0.98116 0.0
H313 H 0.87897 0.93372 0.90422 0.0
H314 H 0.91999 0.93924 0.81116 0.0
H315 H 0.89921 0.02612 0.77033 0.0
C316 C 0.80931 0.01409 0.9861 0.0
C317 C 0.79619 0.99444 0.04015 0.0
C318 C 0.80664 0.96709 0.0454 0.0
C319 C 0.82983 0.9592 0.99695 0.0
C320 C 0.84231 0.97899 0.94378 0.0
C321 C 0.83261 0.00596 0.93856 0.0
C322 C 0.8504 0.02336 0.87838 0.0
C323 C 0.83333 0.03342 0.80197 0.0
C324 C 0.86408 0.04801 0.92603 0.0
C325 C 0.87169 0.00201 0.85093 0.0
C326 C 0.86643 0.9765 0.8888 0.0
C327 C 0.88332 0.95359 0.87417 0.0
C328 C 0.90657 0.95696 0.82088 0.0
C329 C 0.91294 0.98313 0.78312 0.0
C330 C 0.89492 0.0058 0.79768 0.0
H331 H 0.46261 0.79107 0.04574 0.0
H332 H 0.546 0.77571 0.13413 0.0
H333 H 0.56311 0.81731 0.05515 0.0
H334 H 0.48151 0.81074 0.83567 0.0
H335 H 0.45539 0.83716 0.82603 0.0
H336 H 0.44947 0.80774 0.89516 0.0
H337 H 0.44067 0.84102 0.02314 0.0
H338 H 0.44617 0.87056 0.95415 0.0
H339 H 0.46642 0.86716 0.04994 0.0
H340 H 0.57108 0.85909 0.96046 0.0
H341 H 0.56928 0.8996 0.86413 0.0
H342 H 0.48048 0.88642 0.83381 0.0
C343 C 0.48439 0.7968 0.04906 0.0
C344 C 0.50308 0.78054 0.09605 0.0
C345 C 0.53144 0.78833 0.09933 0.0
C346 C 0.54129 0.8117 0.0542 0.0
C347 C 0.52241 0.82688 0.0063 0.0
C348 C 0.49451 0.81987 0.00402 0.0
C349 C 0.47865 0.83904 0.9458 0.0
C350 C 0.46548 0.82269 0.87125 0.0
C351 C 0.45668 0.85542 0.99629 0.0
C352 C 0.502 0.85791 0.91516 0.0
C353 C 0.52706 0.85058 0.95083 0.0
C354 C 0.55156 0.86507 0.93234 0.0
C355 C 0.55032 0.888 0.87728 0.0
C356 C 0.52475 0.89619 0.84109 0.0
C357 C 0.50039 0.88061 0.85972 0.0
H358 H 0.7077 0.54413 0.00671 0.0
H359 H 0.72145 0.45827 0.07716 0.0
H360 H 0.677 0.4443 0.00926 0.0
H361 H 0.63251 0.54306 0.04114 0.0
H362 H 0.62559 0.56534 0.95148 0.0
H363 H 0.65806 0.56855 0.00749 0.0
H364 H 0.68476 0.56105 0.86532 0.0
H365 H 0.65238 0.55762 0.80896 0.0
H366 H 0.67768 0.53027 0.80221 0.0
H367 H 0.63286 0.4395 0.92885 0.0
H368 H 0.58947 0.44391 0.84854 0.0
H369 H 0.60292 0.53352 0.83161 0.0
C370 C 0.701 0.5225 0.00819 0.0
C371 C 0.71755 0.50214 0.04718 0.0
C372 C 0.70864 0.47398 0.0481 0.0
C373 C 0.68361 0.46595 0.00948 0.0
C374 C 0.66778 0.48644 0.97067 0.0
C375 C 0.67592 0.51418 0.97031 0.0
C376 C 0.65496 0.53191 0.92386 0.0
C377 C 0.64201 0.55349 0.98463 0.0
C378 C 0.66825 0.54604 0.84543 0.0
C379 C 0.63389 0.50975 0.89769 0.0
C380 C 0.64187 0.48369 0.92509 0.0
C381 C 0.62627 0.4598 0.90747 0.0
C382 C 0.60166 0.46257 0.86137 0.0
C383 C 0.59266 0.48909 0.83362 0.0
C384 C 0.60914 0.51298 0.85205 0.0
H385 H 0.00369 0.70195 0.05665 0.0
H386 H 0.92564 0.73244 0.96086 0.0
H387 H 0.92242 0.69205 0.86187 0.0
H388 H 0.0307 0.67662 0.86397 0.0
H389 H 0.04598 0.64581 0.90853 0.0
H390 H 0.04152 0.67639 0.97402 0.0
H391 H 0.01315 0.64757 0.08451 0.0
H392 H 0.01798 0.61677 0.02012 0.0
H393 H 0.98345 0.62743 0.04954 0.0
H394 H 0.93029 0.65036 0.76461 0.0
H395 H 0.94518 0.60717 0.69066 0.0
H396 H 0.01633 0.60259 0.85859 0.0
C397 C 0.9856 0.69964 0.01639 0.0
C398 C 0.96499 0.72026 0.01543 0.0
C399 C 0.94181 0.71697 0.96104 0.0
C400 C 0.93981 0.69412 0.90502 0.0
C401 C 0.96097 0.67453 0.90553 0.0
C402 C 0.9831 0.67675 0.9612 0.0
C403 C 0.00304 0.65289 0.94934 0.0
C404 C 0.03202 0.66358 0.92234 0.0
C405 C 0.00448 0.63511 0.0307 0.0
C406 C 0.98893 0.63716 0.87738 0.0
C407 C 0.96483 0.65005 0.85232 0.0
C408 C 0.94894 0.63987 0.78445 0.0
C409 C 0.95764 0.6155 0.74241 0.0
C410 C 0.98177 0.60151 0.76928 0.0
C411 C 0.99762 0.61269 0.83721 0.0
H412 H 0.04845 0.17593 0.26995 0.0
H413 H 0.96531 0.19487 0.18815 0.0
H414 H 0.94957 0.147 0.22744 0.0
H415 H 0.04929 0.09931 0.2092 0.0
H416 H 0.06902 0.09219 0.30342 0.0
H417 H 0.07279 0.12553 0.25182 0.0
H418 H 0.06094 0.14822 0.40013 0.0
H419 H 0.0555 0.11436 0.44657 0.0
H420 H 0.02819 0.13971 0.45056 0.0
H421 H 0.94192 0.10018 0.29868 0.0
H422 H 0.94384 0.05727 0.38707 0.0
H423 H 0.03286 0.06825 0.41065 0.0
C424 C 0.02717 0.16949 0.25849 0.0
C425 C 0.00791 0.18847 0.22632 0.0
C426 C 0.98009 0.18013 0.21282 0.0
C427 C 0.97114 0.15312 0.23453 0.0
C428 C 0.99052 0.13483 0.26825 0.0
C429 C 0.0181 0.14258 0.27897 0.0
C430 C 0.03416 0.12029 0.32455 0.0
C431 C 0.05771 0.10871 0.26874 0.0
C432 C 0.04533 0.1313 0.41052 0.0
C433 C 0.01142 0.09879 0.33746 0.0
C434 C 0.98628 0.10752 0.30565 0.0
C435 C 0.96166 0.09263 0.3211 0.0
C436 C 0.96287 0.06835 0.37098 0.0
C437 C 0.98862 0.05909 0.40232 0.0
C438 C 0.01311 0.07422 0.38376 0.0
H439 H 0.35658 0.03957 0.29901 0.0
H440 H 0.3219 0.95821 0.24145 0.0
H441 H 0.36714 0.9364 0.27248 0.0
H442 H 0.43058 0.02596 0.22025 0.0
H443 H 0.44456 0.04609 0.30746 0.0
H444 H 0.4115 0.05518 0.263 0.0
H445 H 0.38964 0.05155 0.41471 0.0
H446 H 0.42267 0.04198 0.45761 0.0
H447 H 0.39286 0.01949 0.47345 0.0
H448 H 0.4117 0.92314 0.34148 0.0
H449 H 0.45395 0.92011 0.43116 0.0
H450 H 0.46163 0.01015 0.42912 0.0
C451 C 0.35909 0.01733 0.29022 0.0
C452 C 0.33632 0.00033 0.26768 0.0
C453 C 0.33957 0.97125 0.25825 0.0
C454 C 0.36508 0.95884 0.27534 0.0
C455 C 0.38717 0.97598 0.30015 0.0
C456 C 0.38461 0.00472 0.30591 0.0
C457 C 0.41039 0.01805 0.34369 0.0
C458 C 0.42508 0.03746 0.27961 0.0
C459 C 0.40347 0.03366 0.4273 0.0
C460 C 0.4274 0.99236 0.36024 0.0
C461 C 0.41371 0.96822 0.33524 0.0
C462 C 0.42329 0.94185 0.3579 0.0
C463 C 0.44723 0.94024 0.40852 0.0
C464 C 0.4615 0.96482 0.43333 0.0
C465 C 0.45186 0.99101 0.40676 0.0
H466 H 0.4647 0.32807 0.25877 0.0
H467 H 0.5439 0.28756 0.28525 0.0
H468 H 0.56578 0.33271 0.32459 0.0
H469 H 0.49635 0.39887 0.17517 0.0
H470 H 0.46846 0.41653 0.22885 0.0
H471 H 0.46258 0.3824 0.18291 0.0
H472 H 0.44427 0.36643 0.33255 0.0
H473 H 0.45188 0.40006 0.37732 0.0
H474 H 0.46696 0.36941 0.42354 0.0
H475 H 0.57464 0.37743 0.39998 0.0
H476 H 0.57095 0.41955 0.49099 0.0
H477 H 0.48849 0.43391 0.39346 0.0
C478 C 0.48688 0.32907 0.26894 0.0
C479 C 0.50262 0.30454 0.27048 0.0
C480 C 0.53148 0.30622 0.28588 0.0
C481 C 0.5441 0.33179 0.30684 0.0
C482 C 0.52774 0.35558 0.30829 0.0
C483 C 0.49989 0.35459 0.28689 0.0
C484 C 0.48615 0.38236 0.30217 0.0
C485 C 0.4779 0.39581 0.2172 0.0
C486 C 0.46087 0.37936 0.36252 0.0
C487 C 0.50986 0.39826 0.34368 0.0
C488 C 0.53386 0.38264 0.3454 0.0
C489 C 0.55656 0.39052 0.39552 0.0
C490 C 0.55433 0.41438 0.44715 0.0
C491 C 0.52982 0.43024 0.44659 0.0
C492 C 0.50793 0.42277 0.39146 0.0
H493 H 0.17116 0.51232 0.19111 0.0
H494 H 0.20539 0.58657 0.30925 0.0
H495 H 0.158 0.6013 0.35123 0.0
H496 H 0.10096 0.54578 0.12491 0.0
H497 H 0.08371 0.51289 0.14521 0.0
H498 H 0.11885 0.51372 0.10483 0.0
H499 H 0.13335 0.48267 0.23345 0.0
H500 H 0.09852 0.4829 0.27386 0.0
H501 H 0.12666 0.49491 0.34065 0.0
H502 H 0.10904 0.60309 0.40277 0.0
H503 H 0.0654 0.58881 0.47476 0.0
H504 H 0.06315 0.51296 0.32467 0.0
C505 C 0.16836 0.53221 0.22269 0.0
C506 C 0.19152 0.54857 0.24641 0.0
C507 C 0.18762 0.57398 0.29052 0.0
C508 C 0.16083 0.58259 0.31344 0.0
C509 C 0.13824 0.56568 0.29054 0.0
C510 C 0.1418 0.54104 0.24557 0.0
C511 C 0.115 0.52439 0.24034 0.0
C512 C 0.10396 0.52417 0.1484 0.0
C513 C 0.11862 0.49449 0.27421 0.0
C514 C 0.09667 0.5418 0.29782 0.0
C515 C 0.10987 0.56637 0.32209 0.0
C516 C 0.09818 0.58435 0.38238 0.0
C517 C 0.07327 0.57622 0.42257 0.0
C518 C 0.0609 0.5501 0.40358 0.0
C519 C 0.07196 0.53341 0.3378 0.0
H520 H 0.02243 0.80721 0.98744 0.0
H521 H 0.96024 0.83604 0.16592 0.0
H522 H 0.97818 0.88446 0.15133 0.0
H523 H 0.07824 0.86016 0.03807 0.0
H524 H 0.08779 0.86346 0.92707 0.0
H525 H 0.07465 0.83063 0.96716 0.0
H526 H 0.03574 0.83015 0.85288 0.0
H527 H 0.04939 0.86231 0.81132 0.0
H528 H 0.01348 0.85996 0.84398 0.0
H529 H 0.99785 0.92975 0.10092 0.0
H530 H 0.01073 0.96773 0.00176 0.0
H531 H 0.05851 0.9099 0.8499 0.0
C532 C 0.01286 0.82385 0.0236 0.0
C533 C 0.99008 0.81828 0.07771 0.0
C534 C 0.97789 0.8402 0.12467 0.0
C535 C 0.98813 0.86759 0.11729 0.0
C536 C 0.01054 0.87258 0.0624 0.0
C537 C 0.02249 0.85129 0.01545 0.0
C538 C 0.04298 0.86249 0.95038 0.0
C539 C 0.07268 0.85366 0.972 0.0
C540 C 0.03489 0.85321 0.85932 0.0
C541 C 0.03934 0.89352 0.96384 0.0
C542 C 0.02151 0.89895 0.03141 0.0
C543 C 0.01238 0.92588 0.04939 0.0
C544 C 0.02004 0.94743 0.99341 0.0
C545 C 0.03614 0.94164 0.91996 0.0
C546 C 0.04712 0.91483 0.90776 0.0
H547 H 0.70088 0.04988 0.02998 0.0
H548 H 0.6865 0.97391 0.17269 0.0
H549 H 0.63596 0.97975 0.15834 0.0
H550 H 0.63655 0.08843 0.08806 0.0
H551 H 0.63136 0.10018 0.98016 0.0
H552 H 0.66603 0.09454 0.01896 0.0
H553 H 0.67583 0.06025 0.89392 0.0
H554 H 0.64168 0.06668 0.85361 0.0
H555 H 0.65217 0.03145 0.87556 0.0
H556 H 0.58784 0.99199 0.124 0.0
H557 H 0.54773 0.99823 0.02966 0.0
H558 H 0.59289 0.06189 0.88971 0.0
C559 C 0.68694 0.03486 0.05949 0.0
C560 C 0.69743 0.0122 0.10608 0.0
C561 C 0.67878 0.99216 0.14051 0.0
C562 C 0.65007 0.99537 0.13282 0.0
C563 C 0.64028 0.01847 0.08896 0.0
C564 C 0.65818 0.03723 0.04974 0.0
C565 C 0.64266 0.05627 0.98999 0.0
C566 C 0.64425 0.08666 0.02119 0.0
C567 C 0.65372 0.05347 0.89785 0.0
C568 C 0.61339 0.04453 0.99926 0.0
C569 C 0.61234 0.02384 0.0606 0.0
C570 C 0.58827 0.00833 0.07653 0.0
C571 C 0.5654 0.0123 0.02345 0.0
C572 C 0.56716 0.03093 0.95391 0.0
C573 C 0.59075 0.0484 0.9447 0.0
H574 H 0.50563 0.66558 0.15206 0.0
H575 H 0.42516 0.69751 0.08529 0.0
H576 H 0.41101 0.65071 0.03084 0.0
H577 H 0.51545 0.62869 0.97056 0.0
H578 H 0.53334 0.59983 0.01795 0.0
H579 H 0.53431 0.63342 0.06885 0.0
H580 H 0.51482 0.61146 0.2074 0.0
H581 H 0.51343 0.57762 0.15722 0.0
H582 H 0.48264 0.59198 0.2056 0.0
H583 H 0.40849 0.60247 0.96613 0.0
H584 H 0.41932 0.55959 0.88439 0.0
H585 H 0.50233 0.5604 0.98969 0.0
C586 C 0.48473 0.66223 0.1287 0.0
C587 C 0.46621 0.68458 0.12353 0.0
C588 C 0.43933 0.68023 0.09006 0.0
C589 C 0.43117 0.65379 0.0598 0.0
C590 C 0.4502 0.6321 0.06393 0.0
C591 C 0.47648 0.63613 0.0976 0.0
C592 C 0.49454 0.61098 0.08329 0.0
C593 C 0.52093 0.6187 0.03208 0.0
C594 C 0.50176 0.59716 0.16849 0.0
C595 C 0.47495 0.59276 0.0321 0.0
C596 C 0.44914 0.60476 0.02397 0.0
C597 C 0.42844 0.59263 0.97346 0.0
C598 C 0.4347 0.56823 0.92759 0.0
C599 C 0.46161 0.55679 0.93132 0.0
C600 C 0.48152 0.56865 0.98659 0.0
H601 H 0.8121 0.47458 0.97808 0.0
H602 H 0.83306 0.54521 0.13923 0.0
H603 H 0.88304 0.53659 0.11489 0.0
H604 H 0.87095 0.43022 0.02293 0.0
H605 H 0.87575 0.41965 0.91327 0.0
H606 H 0.84164 0.4286 0.95187 0.0
H607 H 0.83694 0.46577 0.83303 0.0
H608 H 0.87058 0.45625 0.7927 0.0
H609 H 0.86374 0.49204 0.82075 0.0
H610 H 0.92999 0.51969 0.07755 0.0
H611 H 0.97092 0.50682 0.99296 0.0
H612 H 0.91967 0.45129 0.83839 0.0
C613 C 0.8273 0.48824 0.00777 0.0
C614 C 0.819 0.51002 0.06286 0.0
C615 C 0.83925 0.52777 0.0998 0.0
C616 C 0.86756 0.52292 0.0867 0.0
C617 C 0.87516 0.50058 0.03487 0.0
C618 C 0.85567 0.48424 0.99312 0.0
C619 C 0.8694 0.46443 0.93061 0.0
C620 C 0.86412 0.43392 0.95624 0.0
C621 C 0.8596 0.46997 0.83885 0.0
C622 C 0.89965 0.47264 0.94267 0.0
C623 C 0.90245 0.4927 0.00575 0.0
C624 C 0.9281 0.50416 0.02748 0.0
C625 C 0.9513 0.49653 0.97913 0.0
C626 C 0.94851 0.47837 0.9078 0.0
C627 C 0.92258 0.46512 0.89253 0.0
H628 H 0.05751 0.18587 0.09477 0.0
H629 H 0.98672 0.23187 0.00638 0.0
H630 H 0.98018 0.19783 0.88817 0.0
H631 H 0.08238 0.16077 0.87694 0.0
H632 H 0.09204 0.1275 0.92026 0.0
H633 H 0.09433 0.1585 0.98557 0.0
H634 H 0.06338 0.13477 0.09871 0.0
H635 H 0.06009 0.10381 0.03427 0.0
H636 H 0.02939 0.12172 0.07018 0.0
H637 H 0.97726 0.15534 0.79538 0.0
H638 H 0.97866 0.10861 0.73027 0.0
H639 H 0.05141 0.08921 0.88071 0.0
C640 C 0.04143 0.18923 0.04799 0.0
C641 C 0.02297 0.21164 0.05747 0.0
C642 C 0.00143 0.21517 0.99788 0.0
C643 C 0.99756 0.19589 0.93117 0.0
C644 C 0.0156 0.17337 0.92506 0.0
C645 C 0.0374 0.17018 0.98112 0.0
C646 C 0.05197 0.14272 0.96633 0.0
C647 C 0.08196 0.14768 0.93541 0.0
C648 C 0.05111 0.12466 0.04713 0.0
C649 C 0.03418 0.13027 0.89614 0.0
C650 C 0.01361 0.14852 0.87231 0.0
C651 C 0.99356 0.14109 0.81251 0.0
C652 C 0.99447 0.11435 0.77627 0.0
C653 C 0.01519 0.0951 0.80021 0.0
C654 C 0.03547 0.10343 0.86036 0.0
H655 H 0.33451 0.04833 0.13157 0.0
H656 H 0.28795 0.97378 0.06624 0.0
H657 H 0.31949 0.96563 0.9431 0.0
H658 H 0.35619 0.06924 0.90715 0.0
H659 H 0.39 0.08027 0.94397 0.0
H660 H 0.36018 0.08338 0.0133 0.0
H661 H 0.38539 0.05478 0.12788 0.0
H662 H 0.41512 0.05076 0.05921 0.0
H663 H 0.39761 0.02035 0.10181 0.0
H664 H 0.36025 0.96176 0.84336 0.0
H665 H 0.40583 0.9626 0.77179 0.0
H666 H 0.42731 0.03939 0.90513 0.0
C667 C 0.3303 0.0311 0.08846 0.0
C668 C 0.30838 0.01216 0.10609 0.0
C669 C 0.30402 0.98901 0.05149 0.0
C670 C 0.32198 0.98418 0.98204 0.0
C671 C 0.34412 0.00276 0.9683 0.0
C672 C 0.34812 0.02599 0.01944 0.0
C673 C 0.37531 0.04076 0.99831 0.0
C674 C 0.3701 0.07016 0.96359 0.0
C675 C 0.39451 0.04171 0.07643 0.0
C676 C 0.38659 0.0217 0.92934 0.0
C677 C 0.36808 0.00014 0.91219 0.0
C678 C 0.37465 0.97881 0.8553 0.0
C679 C 0.40076 0.97942 0.8153 0.0
C680 C 0.4203 0.00112 0.83252 0.0
C681 C 0.41281 0.02272 0.88963 0.0
H682 H 0.50796 0.29272 0.08225 0.0
H683 H 0.42176 0.29011 0.15993 0.0
H684 H 0.41166 0.32923 0.06192 0.0
H685 H 0.51495 0.36364 0.08048 0.0
H686 H 0.53754 0.36631 0.98869 0.0
H687 H 0.53725 0.33515 0.05232 0.0
H688 H 0.52574 0.30477 0.92016 0.0
H689 H 0.52686 0.33557 0.85457 0.0
H690 H 0.49642 0.31334 0.85459 0.0
H691 H 0.4128 0.37262 0.97033 0.0
H692 H 0.424 0.41432 0.88363 0.0
H693 H 0.50986 0.38813 0.86644 0.0
C694 C 0.48681 0.29978 0.0756 0.0
C695 C 0.46543 0.2883 0.12663 0.0
C696 C 0.4381 0.29835 0.11919 0.0
C697 C 0.43233 0.32066 0.06449 0.0
C698 C 0.45416 0.33238 0.01735 0.0
C699 C 0.48078 0.32194 0.02131 0.0
C700 C 0.50097 0.33939 0.96928 0.0
C701 C 0.52403 0.35187 0.02606 0.0
C702 C 0.51321 0.32225 0.89524 0.0
C703 C 0.48174 0.36169 0.93693 0.0
C704 C 0.45481 0.35729 0.96504 0.0
C705 C 0.43373 0.37602 0.94678 0.0
C706 C 0.44031 0.39972 0.89783 0.0
C707 C 0.46774 0.40443 0.86755 0.0
C708 C 0.48859 0.38501 0.88748 0.0
H709 H 0.21086 0.48865 0.04973 0.0
H710 H 0.21039 0.57804 0.08697 0.0
H711 H 0.17456 0.58247 0.97566 0.0
H712 H 0.19536 0.49099 0.80843 0.0
H713 H 0.17416 0.45985 0.81525 0.0
H714 H 0.2037 0.4643 0.88452 0.0
H715 H 0.17182 0.45623 0.01527 0.0
H716 H 0.14204 0.45244 0.94727 0.0
H717 H 0.14214 0.47813 0.03143 0.0
H718 H 0.13352 0.57655 0.88562 0.0
H719 H 0.09158 0.56123 0.8081 0.0
H720 H 0.11849 0.4754 0.82056 0.0
C721 C 0.20409 0.50916 0.03083 0.0
C722 C 0.21343 0.53314 0.07529 0.0
C723 C 0.20357 0.55965 0.0522 0.0
C724 C 0.18325 0.56228 0.98944 0.0
C725 C 0.17338 0.53815 0.94945 0.0
C726 C 0.18382 0.5121 0.96755 0.0
C727 C 0.16776 0.48941 0.92022 0.0
C728 C 0.18635 0.47531 0.8531 0.0
C729 C 0.15519 0.46781 0.98227 0.0
C730 C 0.14548 0.50664 0.87789 0.0
C731 C 0.14952 0.53475 0.89478 0.0
C732 C 0.13052 0.55473 0.86981 0.0
C733 C 0.10673 0.54585 0.82637 0.0
C734 C 0.10219 0.51729 0.80772 0.0
C735 C 0.12195 0.49742 0.83261 0.0
H736 H 0.95467 0.79504 0.29889 0.0
H737 H 0.03644 0.78692 0.18826 0.0
H738 H 0.05438 0.82373 0.28489 0.0
H739 H 0.95367 0.86421 0.30617 0.0
H740 H 0.93571 0.86863 0.40643 0.0
H741 H 0.93088 0.83705 0.34589 0.0
H742 H 0.94627 0.80777 0.47615 0.0
H743 H 0.95066 0.83946 0.5373 0.0
H744 H 0.97904 0.81551 0.52663 0.0
H745 H 0.05988 0.86865 0.36206 0.0
H746 H 0.05531 0.91364 0.43804 0.0
H747 H 0.97046 0.89201 0.5068 0.0
C748 C 0.9767 0.79977 0.29991 0.0
C749 C 0.99448 0.78794 0.23827 0.0
C750 C 0.02292 0.79538 0.23717 0.0
C751 C 0.03311 0.81646 0.29104 0.0
C752 C 0.0146 0.82937 0.34684 0.0
C753 C 0.98716 0.82074 0.35392 0.0
C754 C 0.97094 0.84013 0.4119 0.0
C755 C 0.94636 0.85326 0.36471 0.0
C756 C 0.96116 0.8248 0.49282 0.0
C757 C 0.99311 0.86178 0.43233 0.0
C758 C 0.01813 0.85515 0.39412 0.0
C759 C 0.0407 0.87361 0.39477 0.0
C760 C 0.03781 0.89924 0.43706 0.0
C761 C 0.01264 0.90606 0.47876 0.0
C762 C 0.9901 0.88698 0.47681 0.0
H763 H 0.70373 0.03888 0.26654 0.0
H764 H 0.74262 0.95852 0.29331 0.0
H765 H 0.71206 0.94776 0.41624 0.0
H766 H 0.68564 0.05057 0.49819 0.0
H767 H 0.65254 0.06532 0.4717 0.0
H768 H 0.68172 0.0697 0.40016 0.0
H769 H 0.65333 0.04687 0.27415 0.0
H770 H 0.62443 0.04515 0.34711 0.0
H771 H 0.63579 0.01401 0.29402 0.0
H772 H 0.673 0.94302 0.52296 0.0
H773 H 0.62775 0.94401 0.59932 0.0
H774 H 0.61125 0.02509 0.49072 0.0
C775 C 0.70632 0.01946 0.30041 0.0
C776 C 0.72584 -0.00026 0.27176 0.0
C777 C 0.7284 0.97423 0.31604 0.0
C778 C 0.71093 0.96787 0.38541 0.0
C779 C 0.69086 0.98716 0.4093 0.0
C780 C 0.68845 0.01247 0.36798 0.0
C781 C 0.66291 0.02793 0.39801 0.0
C782 C 0.67121 0.05498 0.44482 0.0
C783 C 0.64301 0.03383 0.32378 0.0
C784 C 0.65059 0.00673 0.45915 0.0
C785 C 0.66743 0.98375 0.46705 0.0
C786 C 0.65978 0.96102 0.51782 0.0
C787 C 0.63407 0.96168 0.56067 0.0
C788 C 0.61609 0.98448 0.54997 0.0
C789 C 0.62464 0.00734 0.49941 0.0
H790 H 0.52861 0.69841 0.31491 0.0
H791 H 0.43921 0.70042 0.29191 0.0
H792 H 0.43458 0.663 0.3989 0.0
H793 H 0.53678 0.62845 0.32595 0.0
H794 H 0.56338 0.62789 0.40597 0.0
H795 H 0.55938 0.65828 0.34044 0.0
H796 H 0.55417 0.68839 0.47767 0.0
H797 H 0.55782 0.65766 0.54251 0.0
H798 H 0.52779 0.6794 0.55521 0.0
H799 H 0.43947 0.62063 0.48131 0.0
H800 H 0.45333 0.57664 0.5481 0.0
H801 H 0.54002 0.60133 0.52767 0.0
C802 C 0.50816 0.69168 0.33589 0.0
C803 C 0.48413 0.70226 0.29675 0.0
C804 C 0.45764 0.69258 0.32254 0.0
C805 C 0.45489 0.67142 0.38303 0.0
C806 C 0.47891 0.66049 0.41811 0.0
C807 C 0.50509 0.67055 0.39722 0.0
C808 C 0.52742 0.65332 0.43978 0.0
C809 C 0.54793 0.6413 0.37404 0.0
C810 C 0.5427 0.67073 0.50785 0.0
C811 C 0.50969 0.63058 0.48087 0.0
C812 C 0.48176 0.6357 0.46892 0.0
C813 C 0.46119 0.61671 0.49322 0.0
C814 C 0.46927 0.59172 0.53036 0.0
C815 C 0.49764 0.58586 0.54322 0.0
C816 C 0.51818 0.60569 0.51972 0.0
H817 H 0.80691 0.54324 0.27619 0.0
H818 H 0.79578 0.45643 0.20838 0.0
H819 H 0.83418 0.44369 0.30513 0.0
H820 H 0.87898 0.54293 0.26852 0.0
H821 H 0.88398 0.56716 0.3553 0.0
H822 H 0.85259 0.56811 0.2936 0.0
H823 H 0.82399 0.56228 0.43435 0.0
H824 H 0.85572 0.56083 0.49468 0.0
H825 H 0.8305 0.53287 0.50249 0.0
H826 H 0.87678 0.44128 0.39492 0.0
H827 H 0.92053 0.44878 0.4733 0.0
H828 H 0.90657 0.53807 0.47418 0.0
C829 C 0.81201 0.52151 0.28492 0.0
C830 C 0.79834 0.5006 0.237 0.0
C831 C 0.80582 0.47243 0.24668 0.0
C832 C 0.82765 0.46515 0.30079 0.0
C833 C 0.84176 0.48642 0.3442 0.0
C834 C 0.83418 0.51405 0.33729 0.0
C835 C 0.85459 0.53313 0.38322 0.0
C836 C 0.86832 0.55407 0.32141 0.0
C837 C 0.84035 0.54816 0.45815 0.0
C838 C 0.87531 0.51202 0.41462 0.0
C839 C 0.8672 0.48518 0.39278 0.0
C840 C 0.88321 0.46218 0.41304 0.0
C841 C 0.90808 0.46667 0.45732 0.0
C842 C 0.91701 0.49402 0.47955 0.0
C843 C 0.90037 0.51696 0.45758 0.0
loop_
_geom_bond_atom_site_label_1
_geom_bond_atom_site_label_2
_geom_bond_distance
_geom_bond_site_symmetry_2
_ccdc_geom_bond_type
C0 N1 1.317 . S
C0 N2 1.348 1_554 S
C0 C3 1.485 . S
N1 C0 1.317 . S
N1 N5 1.370 1_554 S
N2 C0 1.348 1_556 S
N2 C4 1.346 . S
C3 C0 1.485 . S
C3 H7 0.960 . S
C3 H8 0.961 . S
C3 H9 0.960 . S
C4 N2 1.346 . S
C4 N5 1.307 . S
C4 C6 1.486 . S
N5 N1 1.370 1_556 S
N5 C4 1.307 . S
C6 C4 1.486 . S
C6 H10 0.960 . S
C6 H11 0.960 . S
C6 H12 0.959 . S
H7 C3 0.960 . S
H8 C3 0.961 . S
H9 C3 0.960 . S
H10 C6 0.960 . S
H11 C6 0.960 . S
H12 C6 0.959 . S
C13 N14 1.317 . S
C13 N15 1.348 . S
C13 C16 1.485 . S
N14 C13 1.317 . S
N14 N18 1.371 1_655 S
N15 C13 1.348 . S
N15 C17 1.346 . S
C16 C13 1.485 . S
C16 H20 0.960 1_655 S
C16 H21 0.961 . S
C16 H22 0.960 . S
C17 N15 1.346 . S
C17 N18 1.307 1_655 S
C17 C19 1.486 1_654 S
N18 N14 1.371 1_455 S
N18 C17 1.307 1_455 S
C19 C17 1.486 1_456 S
C19 H23 0.933 1_455 S
C19 H24 0.981 . S
C19 H25 0.965 . S
H20 C16 0.960 1_455 S
H21 C16 0.961 . S
H22 C16 0.960 . S
H23 C19 0.933 1_655 S
H24 C19 0.981 . S
H25 C19 0.965 . S
C26 N27 1.317 . S
C26 N28 1.348 . S
C26 C29 1.485 . S
N27 C26 1.317 . S
N27 N31 1.371 . S
N28 C26 1.348 . S
N28 C30 1.346 1_564 S
C29 C26 1.485 . S
C29 H33 0.960 1_565 S
C29 H34 0.961 . S
C29 H35 0.960 . S
C30 N28 1.346 1_546 S
C30 N31 1.307 1_546 S
C30 C32 1.485 . S
N31 N27 1.371 . S
N31 C30 1.307 1_564 S
C32 C30 1.485 . S
C32 H36 0.928 1_545 S
C32 H37 0.986 . S
C32 H38 0.967 . S
H33 C29 0.960 1_545 S
H34 C29 0.961 . S
H35 C29 0.960 . S
H36 C32 0.928 1_565 S
H37 C32 0.986 . S
H38 C32 0.967 . S
C39 N40 1.317 . S
C39 N41 1.348 . S
C39 C42 1.485 . S
N40 C39 1.317 . S
N40 N44 1.370 . S
N41 C39 1.348 . S
N41 C43 1.346 1_554 S
C42 C39 1.485 . S
C42 H46 0.960 . S
C42 H47 0.961 . S
C42 H48 0.960 . S
C43 N41 1.346 1_556 S
C43 N44 1.307 1_556 S
C43 C45 1.486 . S
N44 N40 1.370 . S
N44 C43 1.307 1_554 S
C45 C43 1.486 . S
C45 H49 0.960 . S
C45 H50 0.960 . S
C45 H51 0.959 . S
H46 C42 0.960 . S
H47 C42 0.961 . S
H48 C42 0.960 . S
H49 C45 0.960 . S
H50 C45 0.960 . S
H51 C45 0.959 . S
C52 N53 1.317 . S
C52 N54 1.348 . S
C52 C55 1.485 . S
N53 C52 1.317 . S
N53 N57 1.370 . S
N54 C52 1.348 . S
N54 C56 1.346 . S
C55 C52 1.485 . S
C55 H59 0.960 . S
C55 H60 0.961 . S
C55 H61 0.960 . S
C56 N54 1.346 . S
C56 N57 1.307 . S
C56 C58 1.486 . S
N57 N53 1.370 . S
N57 C56 1.307 . S
C58 C56 1.486 . S
C58 H62 0.960 . S
C58 H63 0.960 . S
C58 H64 0.959 . S
H59 C55 0.960 . S
H60 C55 0.961 . S
H61 C55 0.960 . S
H62 C58 0.960 . S
H63 C58 0.960 . S
H64 C58 0.959 . S
C65 N66 1.317 . S
C65 N67 1.348 . S
C65 C68 1.485 . S
N66 C65 1.317 . S
N66 N70 1.370 . S
N67 C65 1.348 . S
N67 C69 1.346 . S
C68 C65 1.485 . S
C68 H72 0.960 . S
C68 H73 0.961 . S
C68 H74 0.960 . S
C69 N67 1.346 . S
C69 N70 1.307 . S
C69 C71 1.486 . S
N70 N66 1.370 . S
N70 C69 1.307 . S
C71 C69 1.486 . S
C71 H75 0.960 . S
C71 H76 0.960 . S
C71 H77 0.959 . S
H72 C68 0.960 . S
H73 C68 0.961 . S
H74 C68 0.960 . S
H75 C71 0.960 . S
H76 C71 0.960 . S
H77 C71 0.959 . S
C78 N79 1.317 . S
C78 N80 1.348 . S
C78 C81 1.485 . S
N79 C78 1.317 . S
N79 N83 1.370 . S
N80 C78 1.348 . S
N80 C82 1.346 . S
C81 C78 1.485 . S
C81 H85 0.960 . S
C81 H86 0.961 1_545 S
C81 H87 0.960 1_545 S
C82 N80 1.346 . S
C82 N83 1.307 . S
C82 C84 1.486 . S
N83 N79 1.370 . S
N83 C82 1.307 . S
C84 C82 1.486 . S
C84 H88 0.960 1_545 S
C84 H89 0.960 . S
C84 H90 0.959 . S
H85 C81 0.960 . S
H86 C81 0.961 1_565 S
H87 C81 0.960 1_565 S
H88 C84 0.960 1_565 S
H89 C84 0.960 . S
H90 C84 0.959 . S
C91 N92 1.317 . S
C91 N93 1.348 . S
C91 C94 1.485 . S
N92 C91 1.317 . S
N92 N96 1.370 . S
N93 C91 1.348 . S
N93 C95 1.346 . S
C94 C91 1.485 . S
C94 H98 0.960 . S
C94 H99 0.961 . S
C94 H100 0.960 . S
C95 N93 1.346 . S
C95 N96 1.307 . S
C95 C97 1.486 . S
N96 N92 1.370 . S
N96 C95 1.307 . S
C97 C95 1.486 . S
C97 H101 0.960 . S
C97 H102 0.960 . S
C97 H103 0.959 . S
H98 C94 0.960 . S
H99 C94 0.961 . S
H100 C94 0.960 . S
H101 C97 0.960 . S
H102 C97 0.960 . S
H103 C97 0.959 . S
O104 Zn105 1.953 . S
O104 C120 1.225 1_545 S
Zn105 O104 1.953 . S
Zn105 O106 1.948 1_545 S
Zn105 O112 1.919 . S
Zn105 O117 1.924 1_545 S
O106 Zn105 1.948 1_565 S
O106 Zn107 1.901 1_465 S
O106 Zn108 1.952 . S
O106 Zn109 1.966 1_455 S
Zn107 O106 1.901 1_645 S
Zn107 O110 1.933 . S
Zn107 O113 1.941 1_655 S
Zn107 O114 1.965 . S
Zn108 O106 1.952 . S
Zn108 O115 1.938 1_565 S
Zn108 O116 1.906 . S
Zn108 O126 1.953 . S
Zn109 O106 1.966 1_655 S
Zn109 O111 1.932 . S
Zn109 O118 1.977 . S
Zn109 O119 1.910 1_655 S
O110 Zn107 1.933 . S
O110 C121 1.226 . S
O111 Zn109 1.932 . S
O111 C121 1.307 1_565 S
O112 Zn105 1.919 . S
O112 C123 1.253 . S
O113 Zn107 1.941 1_455 S
O113 C123 1.283 . S
O114 Zn107 1.965 . S
O114 C122 1.303 1_655 S
O115 Zn108 1.938 1_545 S
O115 C122 1.247 . S
O116 Zn108 1.906 . S
O116 C124 1.304 1_455 S
O117 Zn105 1.924 1_565 S
O117 C125 1.311 . S
O118 Zn109 1.977 . S
O118 C124 1.272 . S
O119 Zn109 1.910 1_455 S
O119 C125 1.231 . S
C120 O104 1.225 1_565 S
C120 O126 1.298 . S
C121 O110 1.226 . S
C121 O111 1.307 1_545 S
C122 O114 1.303 1_455 S
C122 O115 1.247 . S
C123 O112 1.253 . S
C123 O113 1.283 . S
C124 O116 1.304 1_655 S
C124 O118 1.272 . S
C125 O117 1.311 . S
C125 O119 1.231 . S
O126 Zn108 1.953 . S
O126 C120 1.298 . S
O127 Zn128 1.953 . S
O127 C143 1.225 . S
Zn128 O127 1.953 . S
Zn128 O129 1.949 . S
Zn128 O135 1.919 . S
Zn128 O140 1.924 . S
O129 Zn128 1.949 . S
O129 Zn130 1.923 1_545 S
O129 Zn131 1.950 . S
O129 Zn132 1.945 1_545 S
Zn130 O129 1.923 1_565 S
Zn130 O133 1.933 . S
Zn130 O136 1.941 . S
Zn130 O137 1.965 . S
Zn131 O129 1.950 . S
Zn131 O138 1.938 . S
Zn131 O139 1.906 . S
Zn131 O149 1.953 . S
Zn132 O129 1.945 1_565 S
Zn132 O134 1.932 . S
Zn132 O141 1.977 . S
Zn132 O142 1.910 1_565 S
O133 Zn130 1.933 . S
O133 C144 1.226 . S
O134 Zn132 1.932 . S
O134 C144 1.307 . S
O135 Zn128 1.919 . S
O135 C146 1.253 . S
O136 Zn130 1.941 . S
O136 C146 1.283 1_565 S
O137 Zn130 1.965 . S
O137 C145 1.303 1_565 S
O138 Zn131 1.938 . S
O138 C145 1.247 . S
O139 Zn131 1.906 . S
O139 C147 1.304 1_545 S
O140 Zn128 1.924 . S
O140 C148 1.311 . S
O141 Zn132 1.977 . S
O141 C147 1.272 . S
O142 Zn132 1.910 1_545 S
O142 C148 1.231 . S
C143 O127 1.225 . S
C143 O149 1.298 . S
C144 O133 1.226 . S
C144 O134 1.307 . S
C145 O137 1.303 1_545 S
C145 O138 1.247 . S
C146 O135 1.253 . S
C146 O136 1.283 1_545 S
C147 O139 1.304 1_565 S
C147 O141 1.272 . S
C148 O140 1.311 . S
C148 O142 1.231 . S
O149 Zn131 1.953 . S
O149 C143 1.298 . S
O150 Zn151 1.953 . S
O150 C166 1.225 . S
Zn151 O150 1.953 . S
Zn151 O152 1.949 . S
Zn151 O158 1.919 . S
Zn151 O163 1.924 . S
O152 Zn151 1.949 . S
O152 Zn153 1.923 . S
O152 Zn154 1.950 . S
O152 Zn155 1.945 . S
Zn153 O152 1.923 . S
Zn153 O156 1.933 . S
Zn153 O159 1.941 . S
Zn153 O160 1.965 . S
Zn154 O152 1.950 . S
Zn154 O161 1.938 . S
Zn154 O162 1.906 . S
Zn154 O172 1.953 . S
Zn155 O152 1.945 . S
Zn155 O157 1.932 . S
Zn155 O164 1.977 . S
Zn155 O165 1.910 . S
O156 Zn153 1.933 . S
O156 C167 1.226 . S
O157 Zn155 1.932 . S
O157 C167 1.307 . S
O158 Zn151 1.919 . S
O158 C169 1.253 . S
O159 Zn153 1.941 . S
O159 C169 1.283 . S
O160 Zn153 1.965 . S
O160 C168 1.303 . S
O161 Zn154 1.938 . S
O161 C168 1.247 . S
O162 Zn154 1.906 . S
O162 C170 1.304 . S
O163 Zn151 1.924 . S
O163 C171 1.311 . S
O164 Zn155 1.977 . S
O164 C170 1.272 . S
O165 Zn155 1.910 . S
O165 C171 1.231 . S
C166 O150 1.225 . S
C166 O172 1.298 . S
C167 O156 1.226 . S
C167 O157 1.307 . S
C168 O160 1.303 . S
C168 O161 1.247 . S
C169 O158 1.253 . S
C169 O159 1.283 . S
C170 O162 1.304 . S
C170 O164 1.272 . S
C171 O163 1.311 . S
C171 O165 1.231 . S
O172 Zn154 1.953 . S
O172 C166 1.298 . S
O173 Zn174 1.926 1_655 S
O173 C189 1.225 . S
Zn174 O173 1.926 1_455 S
Zn174 O175 1.949 . S
Zn174 O181 1.919 . S
Zn174 O186 1.952 . S
O175 Zn174 1.949 . S
O175 Zn176 1.918 1_455 S
O175 Zn177 1.928 1_455 S
O175 Zn178 1.973 . S
Zn176 O175 1.918 1_655 S
Zn176 O179 1.933 1_655 S
Zn176 O182 1.941 . S
Zn176 O183 1.965 . S
Zn177 O175 1.928 1_655 S
Zn177 O184 1.938 . S
Zn177 O185 1.906 . S
Zn177 O195 1.953 . S
Zn178 O175 1.973 . S
Zn178 O180 1.932 . S
Zn178 O187 1.977 . S
Zn178 O188 1.910 . S
O179 Zn176 1.933 1_455 S
O179 C190 1.226 . S
O180 Zn178 1.932 . S
O180 C190 1.307 . S
O181 Zn174 1.919 . S
O181 C192 1.253 . S
O182 Zn176 1.941 . S
O182 C192 1.282 1_655 S
O183 Zn176 1.965 . S
O183 C191 1.303 . S
O184 Zn177 1.938 . S
O184 C191 1.247 . S
O185 Zn177 1.906 . S
O185 C193 1.304 1_655 S
O186 Zn174 1.952 . S
O186 C194 1.311 . S
O187 Zn178 1.977 . S
O187 C193 1.272 . S
O188 Zn178 1.910 . S
O188 C194 1.231 . S
C189 O173 1.225 . S
C189 O195 1.298 . S
C190 O179 1.226 . S
C190 O180 1.307 . S
C191 O183 1.303 . S
C191 O184 1.247 . S
C192 O181 1.253 . S
C192 O182 1.282 1_455 S
C193 O185 1.304 1_455 S
C193 O187 1.272 . S
C194 O186 1.311 . S
C194 O188 1.231 . S
O195 Zn177 1.953 . S
O195 C189 1.298 . S
H196 C208 0.930 . S
H197 C210 0.930 . S
H198 C211 0.930 . S
H199 C215 0.959 . S
H200 C215 0.959 . S
H201 C215 0.961 . S
H202 C216 0.960 . S
H203 C216 0.961 . S
H204 C216 0.959 . S
H205 C219 0.929 . S
H206 C220 0.931 . S
H207 C222 0.930 . S
C208 H196 0.930 . S
C208 C209 1.399 . S
C208 C213 1.399 . S
C209 C208 1.399 . S
C209 C210 1.376 1_545 S
C210 H197 0.930 . S
C210 C209 1.376 1_565 S
C210 C211 1.388 . S
C211 H198 0.930 . S
C211 C210 1.388 . S
C211 C212 1.390 . S
C212 C211 1.390 . S
C212 C213 1.394 1_565 S
C212 C218 1.465 . S
C213 C208 1.399 . S
C213 C212 1.394 1_545 S
C213 C214 1.516 . S
C214 C213 1.516 . S
C214 C215 1.502 . S
C214 C216 1.561 . S
C214 C217 1.526 . S
C215 H199 0.959 . S
C215 H200 0.959 . S
C215 H201 0.961 . S
C215 C214 1.502 . S
C216 H202 0.960 . S
C216 H203 0.961 . S
C216 H204 0.959 . S
C216 C214 1.561 . S
C217 C214 1.526 . S
C217 C218 1.396 1_545 S
C217 C222 1.390 . S
C218 C212 1.465 . S
C218 C217 1.396 1_565 S
C218 C219 1.399 . S
C219 H205 0.929 . S
C219 C218 1.399 . S
C219 C220 1.385 . S
C220 H206 0.931 . S
C220 C219 1.385 . S
C220 C221 1.389 . S
C221 C220 1.389 . S
C221 C222 1.387 1_565 S
C222 H207 0.930 . S
C222 C217 1.390 . S
C222 C221 1.387 1_545 S
H223 C235 0.930 . S
H224 C237 0.930 . S
H225 C238 0.930 . S
H226 C242 0.959 . S
H227 C242 0.959 . S
H228 C242 0.961 . S
H229 C243 0.960 . S
H230 C243 0.961 . S
H231 C243 0.959 . S
H232 C246 0.929 . S
H233 C247 0.931 . S
H234 C249 0.930 . S
C235 H223 0.930 . S
C235 C236 1.399 . S
C235 C240 1.399 . S
C236 C235 1.399 . S
C236 C237 1.376 . S
C237 H224 0.930 . S
C237 C236 1.376 . S
C237 C238 1.388 . S
C238 H225 0.930 . S
C238 C237 1.388 . S
C238 C239 1.390 . S
C239 C238 1.390 . S
C239 C240 1.394 . S
C239 C245 1.465 . S
C240 C235 1.399 . S
C240 C239 1.394 . S
C240 C241 1.516 . S
C241 C240 1.516 . S
C241 C242 1.502 . S
C241 C243 1.561 . S
C241 C244 1.526 . S
C242 H226 0.959 . S
C242 H227 0.959 . S
C242 H228 0.961 . S
C242 C241 1.502 . S
C243 H229 0.960 . S
C243 H230 0.961 . S
C243 H231 0.959 . S
C243 C241 1.561 . S
C244 C241 1.526 . S
C244 C245 1.396 . S
C244 C249 1.390 . S
C245 C239 1.465 . S
C245 C244 1.396 . S
C245 C246 1.399 . S
C246 H232 0.929 . S
C246 C245 1.399 . S
C246 C247 1.385 . S
C247 H233 0.931 . S
C247 C246 1.385 . S
C247 C248 1.389 . S
C248 C247 1.389 . S
C248 C249 1.387 . S
C249 H234 0.930 . S
C249 C244 1.390 . S
C249 C248 1.387 . S
H250 C262 0.930 . S
H251 C264 0.930 . S
H252 C265 0.930 . S
H253 C269 0.959 . S
H254 C269 0.959 . S
H255 C269 0.961 . S
H256 C270 0.960 . S
H257 C270 0.961 . S
H258 C270 0.959 . S
H259 C273 0.929 . S
H260 C274 0.931 . S
H261 C276 0.930 . S
C262 H250 0.930 . S
C262 C263 1.399 . S
C262 C267 1.399 . S
C263 C262 1.399 . S
C263 C264 1.376 . S
C264 H251 0.930 . S
C264 C263 1.376 . S
C264 C265 1.388 . S
C265 H252 0.930 . S
C265 C264 1.388 . S
C265 C266 1.390 . S
C266 C265 1.390 . S
C266 C267 1.394 . S
C266 C272 1.465 . S
C267 C262 1.399 . S
C267 C266 1.394 . S
C267 C268 1.516 . S
C268 C267 1.516 . S
C268 C269 1.502 . S
C268 C270 1.561 . S
C268 C271 1.526 . S
C269 H253 0.959 . S
C269 H254 0.959 . S
C269 H255 0.961 . S
C269 C268 1.502 . S
C270 H256 0.960 . S
C270 H257 0.961 . S
C270 H258 0.959 . S
C270 C268 1.561 . S
C271 C268 1.526 . S
C271 C272 1.396 . S
C271 C276 1.390 . S
C272 C266 1.465 . S
C272 C271 1.396 . S
C272 C273 1.399 . S
C273 H259 0.929 . S
C273 C272 1.399 . S
C273 C274 1.385 . S
C274 H260 0.931 . S
C274 C273 1.385 . S
C274 C275 1.389 . S
C275 C274 1.389 . S
C275 C276 1.387 . S
C276 H261 0.930 . S
C276 C271 1.390 . S
C276 C275 1.387 . S
H277 C289 0.930 . S
H278 C291 0.930 . S
H279 C292 0.930 . S
H280 C296 0.959 1_655 S
H281 C296 0.959 . S
H282 C296 0.961 . S
H283 C297 0.960 . S
H284 C297 0.961 . S
H285 C297 0.959 . S
H286 C300 0.929 . S
H287 C301 0.931 . S
H288 C303 0.930 . S
C289 H277 0.930 . S
C289 C290 1.399 . S
C289 C294 1.399 . S
C290 C289 1.399 . S
C290 C291 1.376 . S
C291 H278 0.930 . S
C291 C290 1.376 . S
C291 C292 1.388 . S
C292 H279 0.930 . S
C292 C291 1.388 . S
C292 C293 1.390 . S
C293 C292 1.390 . S
C293 C294 1.394 . S
C293 C299 1.465 . S
C294 C289 1.399 . S
C294 C293 1.394 . S
C294 C295 1.516 . S
C295 C294 1.516 . S
C295 C296 1.502 . S
C295 C297 1.561 . S
C295 C298 1.526 . S
C296 H280 0.959 1_455 S
C296 H281 0.959 . S
C296 H282 0.961 . S
C296 C295 1.502 . S
C297 H283 0.960 . S
C297 H284 0.961 . S
C297 H285 0.959 . S
C297 C295 1.561 . S
C298 C295 1.526 . S
C298 C299 1.396 . S
C298 C303 1.390 . S
C299 C293 1.465 . S
C299 C298 1.396 . S
C299 C300 1.399 . S
C300 H286 0.929 . S
C300 C299 1.399 . S
C300 C301 1.385 . S
C301 H287 0.931 . S
C301 C300 1.385 . S
C301 C302 1.389 . S
C302 C301 1.389 . S
C302 C303 1.387 . S
C303 H288 0.930 . S
C303 C298 1.390 . S
C303 C302 1.387 . S
H304 C316 0.930 . S
H305 C318 0.930 . S
H306 C319 0.930 1_554 S
H307 C323 0.959 . S
H308 C323 0.959 . S
H309 C323 0.961 . S
H310 C324 0.960 . S
H311 C324 0.961 . S
H312 C324 0.959 . S
H313 C327 0.929 . S
H314 C328 0.931 . S
H315 C330 0.930 . S
C316 H304 0.930 . S
C316 C317 1.399 1_546 S
C316 C321 1.399 . S
C317 C316 1.399 1_564 S
C317 C318 1.376 . S
C318 H305 0.930 . S
C318 C317 1.376 . S
C318 C319 1.388 1_554 S
C319 H306 0.930 1_556 S
C319 C318 1.388 1_556 S
C319 C320 1.390 . S
C320 C319 1.390 . S
C320 C321 1.394 1_565 S
C320 C326 1.465 . S
C321 C316 1.399 . S
C321 C320 1.394 1_545 S
C321 C322 1.516 . S
C322 C321 1.516 . S
C322 C323 1.502 . S
C322 C324 1.561 . S
C322 C325 1.526 . S
C323 H307 0.959 . S
C323 H308 0.959 . S
C323 H309 0.961 . S
C323 C322 1.502 . S
C324 H310 0.960 . S
C324 H311 0.961 . S
C324 H312 0.959 . S
C324 C322 1.561 . S
C325 C322 1.526 . S
C325 C326 1.396 1_545 S
C325 C330 1.390 . S
C326 C320 1.465 . S
C326 C325 1.396 1_565 S
C326 C327 1.399 . S
C327 H313 0.929 . S
C327 C326 1.399 . S
C327 C328 1.385 . S
C328 H314 0.931 . S
C328 C327 1.385 . S
C328 C329 1.417 . S
C329 C328 1.417 . S
C329 C330 1.364 1_565 S
C330 H315 0.930 . S
C330 C325 1.390 . S
C330 C329 1.364 1_545 S
H331 C343 0.930 1_554 S
H332 C345 0.930 . S
H333 C346 0.930 . S
H334 C350 0.959 . S
H335 C350 0.959 . S
H336 C350 0.961 . S
H337 C351 0.960 . S
H338 C351 0.961 . S
H339 C351 0.959 . S
H340 C354 0.929 . S
H341 C355 0.931 . S
H342 C357 0.930 . S
C343 H331 0.930 1_556 S
C343 C344 1.399 . S
C343 C348 1.399 . S
C344 C343 1.399 . S
C344 C345 1.376 . S
C345 H332 0.930 . S
C345 C344 1.376 . S
C345 C346 1.388 . S
C346 H333 0.930 . S
C346 C345 1.388 . S
C346 C347 1.390 . S
C347 C346 1.390 . S
C347 C348 1.394 . S
C347 C353 1.465 . S
C348 C343 1.399 . S
C348 C347 1.394 . S
C348 C349 1.516 . S
C349 C348 1.516 . S
C349 C350 1.502 . S
C349 C351 1.561 1_556 S
C349 C352 1.526 . S
C350 H334 0.959 . S
C350 H335 0.959 . S
C350 H336 0.961 . S
C350 C349 1.502 . S
C351 H337 0.960 . S
C351 H338 0.961 . S
C351 H339 0.959 . S
C351 C349 1.561 1_554 S
C352 C349 1.526 . S
C352 C353 1.396 . S
C352 C357 1.390 . S
C353 C347 1.465 . S
C353 C352 1.396 . S
C353 C354 1.399 . S
C354 H340 0.929 . S
C354 C353 1.399 . S
C354 C355 1.385 . S
C355 H341 0.931 . S
C355 C354 1.385 . S
C355 C356 1.389 . S
C356 C355 1.389 . S
C356 C357 1.387 . S
C357 H342 0.930 . S
C357 C352 1.390 . S
C357 C356 1.387 . S
H358 C370 0.930 . S
H359 C372 0.930 . S
H360 C373 0.930 . S
H361 C377 0.959 . S
H362 C377 0.959 . S
H363 C377 0.961 . S
H364 C378 0.960 . S
H365 C378 0.961 . S
H366 C378 0.959 . S
H367 C381 0.929 . S
H368 C382 0.931 . S
H369 C384 0.930 . S
C370 H358 0.930 . S
C370 C371 1.399 . S
C370 C375 1.399 . S
C371 C370 1.399 . S
C371 C372 1.376 . S
C372 H359 0.930 . S
C372 C371 1.376 . S
C372 C373 1.388 . S
C373 H360 0.930 . S
C373 C372 1.388 . S
C373 C374 1.390 . S
C374 C373 1.390 . S
C374 C375 1.394 . S
C374 C380 1.465 . S
C375 C370 1.399 . S
C375 C374 1.394 . S
C375 C376 1.516 . S
C376 C375 1.516 . S
C376 C377 1.502 . S
C376 C378 1.561 . S
C376 C379 1.526 . S
C377 H361 0.959 . S
C377 H362 0.959 . S
C377 H363 0.961 . S
C377 C376 1.502 . S
C378 H364 0.960 . S
C378 H365 0.961 . S
C378 H366 0.959 . S
C378 C376 1.561 . S
C379 C376 1.526 . S
C379 C380 1.396 . S
C379 C384 1.390 . S
C380 C374 1.465 . S
C380 C379 1.396 . S
C380 C381 1.399 . S
C381 H367 0.929 . S
C381 C380 1.399 . S
C381 C382 1.385 . S
C382 H368 0.931 . S
C382 C381 1.385 . S
C382 C383 1.389 . S
C383 C382 1.389 . S
C383 C384 1.387 . S
C384 H369 0.930 . S
C384 C379 1.390 . S
C384 C383 1.387 . S
H385 C397 0.930 . S
H386 C399 0.930 . S
H387 C400 0.930 . S
H388 C404 0.959 . S
H389 C404 0.959 . S
H390 C404 0.961 1_554 S
H391 C405 0.960 . S
H392 C405 0.961 . S
H393 C405 0.959 1_655 S
H394 C408 0.929 . S
H395 C409 0.931 . S
H396 C411 0.930 . S
C397 H385 0.930 . S
C397 C398 1.399 1_455 S
C397 C402 1.399 1_554 S
C398 C397 1.399 1_655 S
C398 C399 1.376 1_554 S
C399 H386 0.930 . S
C399 C398 1.376 1_556 S
C399 C400 1.388 . S
C400 H387 0.930 . S
C400 C399 1.388 . S
C400 C401 1.390 . S
C401 C400 1.390 . S
C401 C402 1.394 1_655 S
C401 C407 1.465 . S
C402 C397 1.399 1_556 S
C402 C401 1.394 1_455 S
C402 C403 1.516 . S
C403 C402 1.516 . S
C403 C404 1.502 . S
C403 C405 1.561 1_556 S
C403 C406 1.526 . S
C404 H388 0.959 . S
C404 H389 0.959 . S
C404 H390 0.961 1_556 S
C404 C403 1.502 . S
C405 H391 0.960 . S
C405 H392 0.961 . S
C405 H393 0.959 1_455 S
C405 C403 1.561 1_554 S
C406 C403 1.526 . S
C406 C407 1.396 1_455 S
C406 C411 1.390 . S
C407 C401 1.465 . S
C407 C406 1.396 1_655 S
C407 C408 1.399 . S
C408 H394 0.929 . S
C408 C407 1.399 . S
C408 C409 1.385 . S
C409 H395 0.931 . S
C409 C408 1.385 . S
C409 C410 1.389 1_655 S
C410 C409 1.389 1_455 S
C410 C411 1.387 . S
C411 H396 0.930 . S
C411 C406 1.390 . S
C411 C410 1.387 . S
H412 C424 0.930 . S
H413 C426 0.930 . S
H414 C427 0.930 . S
H415 C431 0.959 . S
H416 C431 0.959 . S
H417 C431 0.961 . S
H418 C432 0.960 . S
H419 C432 0.961 . S
H420 C432 0.959 . S
H421 C435 0.929 1_655 S
H422 C436 0.931 1_655 S
H423 C438 0.930 . S
C424 H412 0.930 . S
C424 C425 1.399 . S
C424 C429 1.399 . S
C425 C424 1.399 . S
C425 C426 1.376 . S
C426 H413 0.930 . S
C426 C425 1.376 . S
C426 C427 1.388 . S
C427 H414 0.930 . S
C427 C426 1.388 . S
C427 C428 1.390 . S
C428 C427 1.390 . S
C428 C429 1.394 . S
C428 C434 1.465 . S
C429 C424 1.399 . S
C429 C428 1.394 . S
C429 C430 1.516 . S
C430 C429 1.516 . S
C430 C431 1.502 . S
C430 C432 1.561 . S
C430 C433 1.526 . S
C431 H415 0.959 . S
C431 H416 0.959 . S
C431 H417 0.961 . S
C431 C430 1.502 . S
C432 H418 0.960 . S
C432 H419 0.961 . S
C432 H420 0.959 . S
C432 C430 1.561 . S
C433 C430 1.526 . S
C433 C434 1.396 . S
C433 C438 1.390 . S
C434 C428 1.465 . S
C434 C433 1.396 . S
C434 C435 1.399 . S
C435 H421 0.929 1_455 S
C435 C434 1.399 . S
C435 C436 1.385 . S
C436 H422 0.931 1_455 S
C436 C435 1.385 . S
C436 C437 1.389 . S
C437 C436 1.389 . S
C437 C438 1.387 . S
C438 H423 0.930 . S
C438 C433 1.390 . S
C438 C437 1.387 . S
H439 C451 0.930 . S
H440 C453 0.930 . S
H441 C454 0.930 . S
H442 C458 0.959 . S
H443 C458 0.959 . S
H444 C458 0.961 . S
H445 C459 0.960 . S
H446 C459 0.961 . S
H447 C459 0.959 . S
H448 C462 0.929 . S
H449 C463 0.931 . S
H450 C465 0.930 . S
C451 H439 0.930 . S
C451 C452 1.399 . S
C451 C456 1.399 . S
C452 C451 1.399 . S
C452 C453 1.376 1_545 S
C453 H440 0.930 . S
C453 C452 1.376 1_565 S
C453 C454 1.388 . S
C454 H441 0.930 . S
C454 C453 1.388 . S
C454 C455 1.390 . S
C455 C454 1.390 . S
C455 C456 1.394 1_565 S
C455 C461 1.465 . S
C456 C451 1.399 . S
C456 C455 1.394 1_545 S
C456 C457 1.516 . S
C457 C456 1.516 . S
C457 C458 1.502 . S
C457 C459 1.561 . S
C457 C460 1.526 . S
C458 H442 0.959 . S
C458 H443 0.959 . S
C458 H444 0.961 . S
C458 C457 1.502 . S
C459 H445 0.960 . S
C459 H446 0.961 . S
C459 H447 0.959 . S
C459 C457 1.561 . S
C460 C457 1.526 . S
C460 C461 1.396 1_545 S
C460 C465 1.390 . S
C461 C455 1.465 . S
C461 C460 1.396 1_565 S
C461 C462 1.399 . S
C462 H448 0.929 . S
C462 C461 1.399 . S
C462 C463 1.385 . S
C463 H449 0.931 . S
C463 C462 1.385 . S
C463 C464 1.389 1_565 S
C464 C463 1.389 1_545 S
C464 C465 1.387 . S
C465 H450 0.930 . S
C465 C460 1.390 . S
C465 C464 1.387 . S
H466 C478 0.930 . S
H467 C480 0.930 . S
H468 C481 0.930 . S
H469 C485 0.959 . S
H470 C485 0.959 . S
H471 C485 0.961 . S
H472 C486 0.960 . S
H473 C486 0.961 . S
H474 C486 0.959 . S
H475 C489 0.929 . S
H476 C490 0.931 . S
H477 C492 0.930 . S
C478 H466 0.930 . S
C478 C479 1.399 . S
C478 C483 1.399 . S
C479 C478 1.399 . S
C479 C480 1.376 . S
C480 H467 0.930 . S
C480 C479 1.376 . S
C480 C481 1.388 . S
C481 H468 0.930 . S
C481 C480 1.388 . S
C481 C482 1.390 . S
C482 C481 1.390 . S
C482 C483 1.394 . S
C482 C488 1.465 . S
C483 C478 1.399 . S
C483 C482 1.394 . S
C483 C484 1.516 . S
C484 C483 1.516 . S
C484 C485 1.502 . S
C484 C486 1.561 . S
C484 C487 1.526 . S
C485 H469 0.959 . S
C485 H470 0.959 . S
C485 H471 0.961 . S
C485 C484 1.502 . S
C486 H472 0.960 . S
C486 H473 0.961 . S
C486 H474 0.959 . S
C486 C484 1.561 . S
C487 C484 1.526 . S
C487 C488 1.396 . S
C487 C492 1.390 . S
C488 C482 1.465 . S
C488 C487 1.396 . S
C488 C489 1.399 . S
C489 H475 0.929 . S
C489 C488 1.399 . S
C489 C490 1.385 . S
C490 H476 0.931 . S
C490 C489 1.385 . S
C490 C491 1.389 . S
C491 C490 1.389 . S
C491 C492 1.387 . S
C492 H477 0.930 . S
C492 C487 1.390 . S
C492 C491 1.387 . S
H493 C505 0.930 . S
H494 C507 0.930 . S
H495 C508 0.930 . S
H496 C512 0.959 . S
H497 C512 0.959 . S
H498 C512 0.961 . S
H499 C513 0.960 . S
H500 C513 0.961 . S
H501 C513 0.959 . S
H502 C516 0.929 . S
H503 C517 0.931 . S
H504 C519 0.930 . S
C505 H493 0.930 . S
C505 C506 1.399 . S
C505 C510 1.399 . S
C506 C505 1.399 . S
C506 C507 1.376 . S
C507 H494 0.930 . S
C507 C506 1.376 . S
C507 C508 1.388 . S
C508 H495 0.930 . S
C508 C507 1.388 . S
C508 C509 1.390 . S
C509 C508 1.390 . S
C509 C510 1.394 . S
C509 C515 1.465 . S
C510 C505 1.399 . S
C510 C509 1.394 . S
C510 C511 1.516 . S
C511 C510 1.516 . S
C511 C512 1.502 . S
C511 C513 1.561 . S
C511 C514 1.526 . S
C512 H496 0.959 . S
C512 H497 0.959 . S
C512 H498 0.961 . S
C512 C511 1.502 . S
C513 H499 0.960 . S
C513 H500 0.961 . S
C513 H501 0.959 . S
C513 C511 1.561 . S
C514 C511 1.526 . S
C514 C515 1.396 . S
C514 C519 1.390 . S
C515 C509 1.465 . S
C515 C514 1.396 . S
C515 C516 1.399 . S
C516 H502 0.929 . S
C516 C515 1.399 . S
C516 C517 1.385 . S
C517 H503 0.931 . S
C517 C516 1.385 . S
C517 C518 1.389 . S
C518 C517 1.389 . S
C518 C519 1.387 . S
C519 H504 0.930 . S
C519 C514 1.390 . S
C519 C518 1.387 . S
H520 C532 0.930 . S
H521 C534 0.930 . S
H522 C535 0.930 . S
H523 C539 0.959 . S
H524 C539 0.959 . S
H525 C539 0.961 . S
H526 C540 0.960 . S
H527 C540 0.961 . S
H528 C540 0.959 1_655 S
H529 C543 0.929 1_554 S
H530 C544 0.931 . S
H531 C546 0.930 . S
C532 H520 0.930 . S
C532 C533 1.399 1_456 S
C532 C537 1.399 . S
C533 C532 1.399 1_654 S
C533 C534 1.376 . S
C534 H521 0.930 . S
C534 C533 1.376 . S
C534 C535 1.388 . S
C535 H522 0.930 . S
C535 C534 1.388 . S
C535 C536 1.390 1_655 S
C536 C535 1.390 1_455 S
C536 C537 1.394 1_554 S
C536 C542 1.465 1_554 S
C537 C532 1.399 . S
C537 C536 1.394 1_556 S
C537 C538 1.516 . S
C538 C537 1.516 . S
C538 C539 1.502 . S
C538 C540 1.561 . S
C538 C541 1.526 . S
C539 H523 0.959 . S
C539 H524 0.959 . S
C539 H525 0.961 . S
C539 C538 1.502 . S
C540 H526 0.960 . S
C540 H527 0.961 . S
C540 H528 0.959 1_455 S
C540 C538 1.561 . S
C541 C538 1.526 . S
C541 C542 1.396 . S
C541 C546 1.390 . S
C542 C536 1.465 1_556 S
C542 C541 1.396 . S
C542 C543 1.399 . S
C543 H529 0.929 1_556 S
C543 C542 1.399 . S
C543 C544 1.385 . S
C544 H530 0.931 . S
C544 C543 1.385 . S
C544 C545 1.389 . S
C545 C544 1.389 . S
C545 C546 1.387 . S
C546 H531 0.930 . S
C546 C541 1.390 . S
C546 C545 1.387 . S
H547 C559 0.930 . S
H548 C561 0.930 . S
H549 C562 0.930 . S
H550 C566 0.959 . S
H551 C566 0.959 . S
H552 C566 0.961 . S
H553 C567 0.960 . S
H554 C567 0.961 . S
H555 C567 0.959 1_565 S
H556 C570 0.929 1_565 S
H557 C571 0.931 . S
H558 C573 0.930 . S
C559 H547 0.930 . S
C559 C560 1.399 1_546 S
C559 C564 1.399 . S
C560 C559 1.399 1_564 S
C560 C561 1.376 . S
C561 H548 0.930 . S
C561 C560 1.376 . S
C561 C562 1.388 . S
C562 H549 0.930 . S
C562 C561 1.388 . S
C562 C563 1.390 1_564 S
C563 C562 1.390 1_546 S
C563 C564 1.394 . S
C563 C569 1.465 . S
C564 C559 1.399 . S
C564 C563 1.394 . S
C564 C565 1.516 . S
C565 C564 1.516 . S
C565 C566 1.502 . S
C565 C567 1.561 . S
C565 C568 1.526 . S
C566 H550 0.959 . S
C566 H551 0.959 . S
C566 H552 0.961 . S
C566 C565 1.502 . S
C567 H553 0.960 . S
C567 H554 0.961 . S
C567 H555 0.959 1_545 S
C567 C565 1.561 . S
C568 C565 1.526 . S
C568 C569 1.396 . S
C568 C573 1.390 . S
C569 C563 1.465 . S
C569 C568 1.396 . S
C569 C570 1.399 . S
C570 H556 0.929 1_545 S
C570 C569 1.399 . S
C570 C571 1.385 . S
C571 H557 0.931 . S
C571 C570 1.385 . S
C571 C572 1.389 . S
C572 C571 1.389 . S
C572 C573 1.387 . S
C573 H558 0.930 . S
C573 C568 1.390 . S
C573 C572 1.387 . S
H574 C586 0.930 . S
H575 C588 0.930 . S
H576 C589 0.930 . S
H577 C593 0.959 . S
H578 C593 0.959 . S
H579 C593 0.961 1_554 S
H580 C594 0.960 . S
H581 C594 0.961 . S
H582 C594 0.959 . S
H583 C597 0.929 . S
H584 C598 0.931 . S
H585 C600 0.930 . S
C586 H574 0.930 . S
C586 C587 1.399 1_554 S
C586 C591 1.399 1_554 S
C587 C586 1.399 1_556 S
C587 C588 1.376 . S
C588 H575 0.930 . S
C588 C587 1.376 . S
C588 C589 1.388 . S
C589 H576 0.930 . S
C589 C588 1.388 . S
C589 C590 1.390 . S
C590 C589 1.390 . S
C590 C591 1.394 . S
C590 C596 1.465 . S
C591 C586 1.399 1_556 S
C591 C590 1.394 . S
C591 C592 1.516 . S
C592 C591 1.516 . S
C592 C593 1.502 . S
C592 C594 1.561 1_556 S
C592 C595 1.526 . S
C593 H577 0.959 . S
C593 H578 0.959 . S
C593 H579 0.961 1_556 S
C593 C592 1.502 . S
C594 H580 0.960 . S
C594 H581 0.961 . S
C594 H582 0.959 . S
C594 C592 1.561 1_554 S
C595 C592 1.526 . S
C595 C596 1.396 . S
C595 C600 1.390 . S
C596 C590 1.465 . S
C596 C595 1.396 . S
C596 C597 1.399 . S
C597 H583 0.929 . S
C597 C596 1.399 . S
C597 C598 1.385 . S
C598 H584 0.931 . S
C598 C597 1.385 . S
C598 C599 1.389 . S
C599 C598 1.389 . S
C599 C600 1.387 . S
C600 H585 0.930 . S
C600 C595 1.390 . S
C600 C599 1.387 . S
H601 C613 0.930 1_554 S
H602 C615 0.930 . S
H603 C616 0.930 . S
H604 C620 0.959 1_554 S
H605 C620 0.959 . S
H606 C620 0.961 1_554 S
H607 C621 0.960 . S
H608 C621 0.961 . S
H609 C621 0.959 . S
H610 C624 0.929 . S
H611 C625 0.931 . S
H612 C627 0.930 . S
C613 H601 0.930 1_556 S
C613 C614 1.399 . S
C613 C618 1.399 . S
C614 C613 1.399 . S
C614 C615 1.376 . S
C615 H602 0.930 . S
C615 C614 1.376 . S
C615 C616 1.388 . S
C616 H603 0.930 . S
C616 C615 1.388 . S
C616 C617 1.390 . S
C617 C616 1.390 . S
C617 C618 1.394 . S
C617 C623 1.465 . S
C618 C613 1.399 . S
C618 C617 1.394 . S
C618 C619 1.516 . S
C619 C618 1.516 . S
C619 C620 1.502 . S
C619 C621 1.561 . S
C619 C622 1.526 . S
C620 H604 0.959 1_556 S
C620 H605 0.959 . S
C620 H606 0.961 1_556 S
C620 C619 1.502 . S
C621 H607 0.960 . S
C621 H608 0.961 . S
C621 H609 0.959 . S
C621 C619 1.561 . S
C622 C619 1.526 . S
C622 C623 1.396 . S
C622 C627 1.390 . S
C623 C617 1.465 . S
C623 C622 1.396 . S
C623 C624 1.399 . S
C624 H610 0.929 . S
C624 C623 1.399 . S
C624 C625 1.385 . S
C625 H611 0.931 . S
C625 C624 1.385 . S
C625 C626 1.389 . S
C626 C625 1.389 . S
C626 C627 1.387 . S
C627 H612 0.930 . S
C627 C622 1.390 . S
C627 C626 1.387 . S
H628 C640 0.930 . S
H629 C642 0.930 . S
H630 C643 0.930 . S
H631 C647 0.959 . S
H632 C647 0.959 . S
H633 C647 0.961 . S
H634 C648 0.960 . S
H635 C648 0.961 . S
H636 C648 0.959 1_655 S
H637 C651 0.929 . S
H638 C652 0.931 . S
H639 C654 0.930 . S
C640 H628 0.930 . S
C640 C641 1.399 . S
C640 C645 1.399 . S
C641 C640 1.399 . S
C641 C642 1.376 . S
C642 H629 0.930 . S
C642 C641 1.376 . S
C642 C643 1.388 . S
C643 H630 0.930 . S
C643 C642 1.388 . S
C643 C644 1.390 . S
C644 C643 1.390 . S
C644 C645 1.394 . S
C644 C650 1.465 . S
C645 C640 1.399 . S
C645 C644 1.394 . S
C645 C646 1.516 . S
C646 C645 1.516 . S
C646 C647 1.502 . S
C646 C648 1.561 . S
C646 C649 1.526 . S
C647 H631 0.959 . S
C647 H632 0.959 . S
C647 H633 0.961 . S
C647 C646 1.502 . S
C648 H634 0.960 . S
C648 H635 0.961 . S
C648 H636 0.959 1_455 S
C648 C646 1.561 . S
C649 C646 1.526 . S
C649 C650 1.396 . S
C649 C654 1.390 . S
C650 C644 1.465 . S
C650 C649 1.396 . S
C650 C651 1.399 1_554 S
C651 H637 0.929 . S
C651 C650 1.399 1_556 S
C651 C652 1.385 . S
C652 H638 0.931 . S
C652 C651 1.385 . S
C652 C653 1.389 . S
C653 C652 1.389 . S
C653 C654 1.387 1_556 S
C654 H639 0.930 . S
C654 C649 1.390 . S
C654 C653 1.387 1_554 S
H655 C667 0.930 . S
H656 C669 0.930 . S
H657 C670 0.930 . S
H658 C674 0.959 . S
H659 C674 0.959 . S
H660 C674 0.961 . S
H661 C675 0.960 . S
H662 C675 0.961 1_556 S
H663 C675 0.959 . S
H664 C678 0.929 . S
H665 C679 0.931 . S
H666 C681 0.930 . S
C667 H655 0.930 . S
C667 C668 1.399 . S
C667 C672 1.399 . S
C668 C667 1.399 . S
C668 C669 1.376 1_545 S
C669 H656 0.930 . S
C669 C668 1.376 1_565 S
C669 C670 1.388 . S
C670 H657 0.930 . S
C670 C669 1.388 . S
C670 C671 1.390 . S
C671 C670 1.390 . S
C671 C672 1.394 1_565 S
C671 C677 1.465 . S
C672 C667 1.399 . S
C672 C671 1.394 1_545 S
C672 C673 1.516 1_554 S
C673 C672 1.516 1_556 S
C673 C674 1.502 . S
C673 C675 1.561 1_556 S
C673 C676 1.526 . S
C674 H658 0.959 . S
C674 H659 0.959 . S
C674 H660 0.961 . S
C674 C673 1.502 . S
C675 H661 0.960 . S
C675 H662 0.961 1_554 S
C675 H663 0.959 . S
C675 C673 1.561 1_554 S
C676 C673 1.526 . S
C676 C677 1.396 1_546 S
C676 C681 1.390 . S
C677 C671 1.465 . S
C677 C676 1.396 1_564 S
C677 C678 1.399 . S
C678 H664 0.929 . S
C678 C677 1.399 . S
C678 C679 1.385 1_554 S
C679 H665 0.931 . S
C679 C678 1.385 1_556 S
C679 C680 1.389 1_565 S
C680 C679 1.389 1_545 S
C680 C681 1.387 . S
C681 H666 0.930 . S
C681 C676 1.390 . S
C681 C680 1.387 . S
H682 C694 0.930 . S
H683 C696 0.930 . S
H684 C697 0.930 . S
H685 C701 0.959 . S
H686 C701 0.959 . S
H687 C701 0.961 . S
H688 C702 0.960 . S
H689 C702 0.961 . S
H690 C702 0.959 . S
H691 C705 0.929 . S
H692 C706 0.931 . S
H693 C708 0.930 . S
C694 H682 0.930 . S
C694 C695 1.399 . S
C694 C699 1.399 . S
C695 C694 1.399 . S
C695 C696 1.376 . S
C696 H683 0.930 . S
C696 C695 1.376 . S
C696 C697 1.388 . S
C697 H684 0.930 . S
C697 C696 1.388 . S
C697 C698 1.390 . S
C698 C697 1.390 . S
C698 C699 1.394 . S
C698 C704 1.465 . S
C699 C694 1.399 . S
C699 C698 1.394 . S
C699 C700 1.516 1_554 S
C700 C699 1.516 1_556 S
C700 C701 1.502 . S
C700 C702 1.561 . S
C700 C703 1.526 . S
C701 H685 0.959 . S
C701 H686 0.959 . S
C701 H687 0.961 . S
C701 C700 1.502 . S
C702 H688 0.960 . S
C702 H689 0.961 . S
C702 H690 0.959 . S
C702 C700 1.561 . S
C703 C700 1.526 . S
C703 C704 1.396 1_556 S
C703 C708 1.390 . S
C704 C698 1.465 . S
C704 C703 1.396 1_554 S
C704 C705 1.399 . S
C705 H691 0.929 . S
C705 C704 1.399 . S
C705 C706 1.385 1_554 S
C706 H692 0.931 . S
C706 C705 1.385 1_556 S
C706 C707 1.389 . S
C707 C706 1.389 . S
C707 C708 1.387 . S
C708 H693 0.930 . S
C708 C703 1.390 . S
C708 C707 1.387 . S
H709 C721 0.930 . S
H710 C723 0.930 . S
H711 C724 0.930 . S
H712 C728 0.959 . S
H713 C728 0.959 . S
H714 C728 0.961 . S
H715 C729 0.960 . S
H716 C729 0.961 . S
H717 C729 0.959 . S
H718 C732 0.929 1_554 S
H719 C733 0.931 . S
H720 C735 0.930 . S
C721 H709 0.930 . S
C721 C722 1.399 . S
C721 C726 1.399 . S
C722 C721 1.399 . S
C722 C723 1.376 . S
C723 H710 0.930 . S
C723 C722 1.376 . S
C723 C724 1.388 . S
C724 H711 0.930 . S
C724 C723 1.388 . S
C724 C725 1.390 . S
C725 C724 1.390 . S
C725 C726 1.394 . S
C725 C731 1.465 . S
C726 C721 1.399 . S
C726 C725 1.394 . S
C726 C727 1.516 . S
C727 C726 1.516 . S
C727 C728 1.502 1_554 S
C727 C729 1.561 . S
C727 C730 1.526 1_554 S
C728 H712 0.959 . S
C728 H713 0.959 . S
C728 H714 0.961 . S
C728 C727 1.502 1_556 S
C729 H715 0.960 . S
C729 H716 0.961 . S
C729 H717 0.959 . S
C729 C727 1.561 . S
C730 C727 1.526 1_556 S
C730 C731 1.396 1_556 S
C730 C735 1.390 . S
C731 C725 1.465 . S
C731 C730 1.396 1_554 S
C731 C732 1.399 1_554 S
C732 H718 0.929 1_556 S
C732 C731 1.399 1_556 S
C732 C733 1.385 . S
C733 H719 0.931 . S
C733 C732 1.385 . S
C733 C734 1.389 . S
C734 C733 1.389 . S
C734 C735 1.387 . S
C735 H720 0.930 . S
C735 C730 1.390 . S
C735 C734 1.387 . S
H736 C748 0.930 . S
H737 C750 0.930 . S
H738 C751 0.929 1_455 S
H739 C755 0.959 . S
H740 C755 0.959 . S
H741 C755 0.961 . S
H742 C756 0.960 . S
H743 C756 0.961 . S
H744 C756 0.959 . S
H745 C759 0.929 . S
H746 C760 0.931 . S
H747 C762 0.930 . S
C748 H736 0.930 . S
C748 C749 1.401 . S
C748 C753 1.399 . S
C749 C748 1.401 . S
C749 C750 1.376 1_655 S
C750 H737 0.930 . S
C750 C749 1.376 1_455 S
C750 C751 1.388 1_455 S
C751 H738 0.929 1_655 S
C751 C750 1.388 1_655 S
C751 C752 1.391 . S
C752 C751 1.391 . S
C752 C753 1.394 . S
C752 C758 1.465 . S
C753 C748 1.399 . S
C753 C752 1.394 . S
C753 C754 1.516 . S
C754 C753 1.516 . S
C754 C755 1.502 . S
C754 C756 1.561 1_655 S
C754 C757 1.526 . S
C755 H739 0.959 . S
C755 H740 0.959 . S
C755 H741 0.961 . S
C755 C754 1.502 . S
C756 H742 0.960 . S
C756 H743 0.961 . S
C756 H744 0.959 . S
C756 C754 1.561 1_455 S
C757 C754 1.526 . S
C757 C758 1.396 . S
C757 C762 1.390 . S
C758 C752 1.465 . S
C758 C757 1.396 . S
C758 C759 1.399 . S
C759 H745 0.929 . S
C759 C758 1.399 . S
C759 C760 1.385 . S
C760 H746 0.931 . S
C760 C759 1.385 . S
C760 C761 1.389 . S
C761 C760 1.389 . S
C761 C762 1.387 . S
C762 H747 0.930 . S
C762 C757 1.390 . S
C762 C761 1.387 . S
H763 C775 0.930 . S
H764 C777 0.930 . S
H765 C778 0.930 . S
H766 C782 0.959 . S
H767 C782 0.959 . S
H768 C782 0.961 . S
H769 C783 0.960 . S
H770 C783 0.961 . S
H771 C783 0.959 . S
H772 C786 0.929 . S
H773 C787 0.931 . S
H774 C789 0.927 1_545 S
C775 H763 0.930 . S
C775 C776 1.399 1_545 S
C775 C780 1.399 . S
C776 C775 1.399 1_565 S
C776 C777 1.376 . S
C777 H764 0.930 . S
C777 C776 1.376 . S
C777 C778 1.388 . S
C778 H765 0.930 . S
C778 C777 1.388 . S
C778 C779 1.390 . S
C779 C778 1.390 . S
C779 C780 1.394 1_565 S
C779 C785 1.465 . S
C780 C775 1.399 . S
C780 C779 1.394 1_545 S
C780 C781 1.516 . S
C781 C780 1.516 . S
C781 C782 1.502 . S
C781 C783 1.561 . S
C781 C784 1.526 1_545 S
C782 H766 0.959 . S
C782 H767 0.959 . S
C782 H768 0.961 . S
C782 C781 1.502 . S
C783 H769 0.960 . S
C783 H770 0.961 . S
C783 H771 0.959 . S
C783 C781 1.561 . S
C784 C781 1.526 1_565 S
C784 C785 1.396 . S
C784 C789 1.390 . S
C785 C779 1.465 . S
C785 C784 1.396 . S
C785 C786 1.399 . S
C786 H772 0.929 . S
C786 C785 1.399 . S
C786 C787 1.385 . S
C787 H773 0.931 . S
C787 C786 1.385 . S
C787 C788 1.389 . S
C788 C787 1.389 . S
C788 C789 1.389 . S
C789 H774 0.927 1_565 S
C789 C784 1.390 . S
C789 C788 1.389 . S
H790 C802 0.930 . S
H791 C804 0.930 . S
H792 C805 0.930 . S
H793 C809 0.959 . S
H794 C809 0.959 . S
H795 C809 0.961 . S
H796 C810 0.960 . S
H797 C810 0.961 . S
H798 C810 0.959 . S
H799 C813 0.929 . S
H800 C814 0.931 . S
H801 C816 0.930 . S
C802 H790 0.930 . S
C802 C803 1.399 . S
C802 C807 1.399 . S
C803 C802 1.399 . S
C803 C804 1.376 . S
C804 H791 0.930 . S
C804 C803 1.376 . S
C804 C805 1.388 . S
C805 H792 0.930 . S
C805 C804 1.388 . S
C805 C806 1.390 . S
C806 C805 1.390 . S
C806 C807 1.394 . S
C806 C812 1.465 . S
C807 C802 1.399 . S
C807 C806 1.394 . S
C807 C808 1.516 . S
C808 C807 1.516 . S
C808 C809 1.502 . S
C808 C810 1.561 . S
C808 C811 1.526 . S
C809 H793 0.959 . S
C809 H794 0.959 . S
C809 H795 0.961 . S
C809 C808 1.502 . S
C810 H796 0.960 . S
C810 H797 0.961 . S
C810 H798 0.959 . S
C810 C808 1.561 . S
C811 C808 1.526 . S
C811 C812 1.396 . S
C811 C816 1.390 . S
C812 C806 1.465 . S
C812 C811 1.396 . S
C812 C813 1.399 . S
C813 H799 0.929 . S
C813 C812 1.399 . S
C813 C814 1.385 . S
C814 H800 0.931 . S
C814 C813 1.385 . S
C814 C815 1.389 . S
C815 C814 1.389 . S
C815 C816 1.387 . S
C816 H801 0.930 . S
C816 C811 1.390 . S
C816 C815 1.387 . S
H817 C829 0.930 . S
H818 C831 0.930 . S
H819 C832 0.930 . S
H820 C836 0.959 . S
H821 C836 0.959 . S
H822 C836 0.961 . S
H823 C837 0.960 . S
H824 C837 0.961 . S
H825 C837 0.959 . S
H826 C840 0.929 . S
H827 C841 0.931 . S
H828 C843 0.930 . S
C829 H817 0.930 . S
C829 C830 1.399 . S
C829 C834 1.399 . S
C830 C829 1.399 . S
C830 C831 1.376 . S
C831 H818 0.930 . S
C831 C830 1.376 . S
C831 C832 1.388 . S
C832 H819 0.930 . S
C832 C831 1.388 . S
C832 C833 1.390 . S
C833 C832 1.390 . S
C833 C834 1.394 . S
C833 C839 1.465 . S
C834 C829 1.399 . S
C834 C833 1.394 . S
C834 C835 1.516 . S
C835 C834 1.516 . S
C835 C836 1.502 . S
C835 C837 1.561 . S
C835 C838 1.526 . S
C836 H820 0.959 . S
C836 H821 0.959 . S
C836 H822 0.961 . S
C836 C835 1.502 . S
C837 H823 0.960 . S
C837 H824 0.961 . S
C837 H825 0.959 . S
C837 C835 1.561 . S
C838 C835 1.526 . S
C838 C839 1.396 . S
C838 C843 1.390 . S
C839 C833 1.465 . S
C839 C838 1.396 . S
C839 C840 1.399 . S
C840 H826 0.929 . S
C840 C839 1.399 . S
C840 C841 1.385 . S
C841 H827 0.931 . S
C841 C840 1.385 . S
C841 C842 1.389 . S
C842 C841 1.389 . S
C842 C843 1.387 . S
C843 H828 0.930 . S
C843 C838 1.390 . S
C843 C842 1.387 . S
C209 N80 1.586 . S
C221 C120 1.605 . S
C248 C143 1.641 . S
C236 N93 1.591 . S
C275 C166 1.632 . S
C263 N54 1.631 . S
C302 C193 1.466 . S
C290 N67 1.600 . S
C329 C121 1.557 1_565 S
C317 N28 1.570 . S
C344 N41 1.502 1_556 S
C356 C144 1.514 . S
C371 N2 1.484 . S
C383 C167 1.514 . S
C398 N15 1.589 . S
C410 C192 1.570 . S
C437 C122 0.414 . S
C425 N70 0.442 . S
C464 C145 0.393 . S
C452 N83 0.424 . S
C491 C168 0.433 . S
C479 N96 0.447 . S
C506 N57 0.575 . S
C518 C194 0.615 . S
C533 N18 0.734 1_655 S
C545 C125 0.653 . S
C572 C148 0.631 . S
C560 N31 0.714 . S
C599 C171 0.746 . S
C587 N44 0.592 1_556 S
C614 N5 0.431 . S
C626 C191 0.475 . S
C641 N66 1.587 . S
C653 C123 1.527 . S
C668 N79 1.543 . S
C680 C146 1.555 . S
C707 C169 1.544 . S
C695 N92 1.571 . S
C734 C190 1.386 . S
C722 N53 1.378 . S
C749 N14 1.638 . S
C761 C124 1.557 . S
C788 C147 1.546 . S
C776 N27 1.577 . S
C815 C170 1.445 . S
C803 N40 1.596 . S
C830 N1 1.731 . S
C842 C189 1.701 . S
